drugbank_target|P42679 Megakaryocyte-associated tyrosine-protein kinase (DB12010)
 OpenBabel12092121173D

  0  0  0     0  0            999 V3000
M  V30 BEGIN CTAB
M  V30 COUNTS 7959 8054 0 0 0
M  V30 BEGIN ATOM
M  V30 1 H -0.908 1.98254 -0.117106 0
M  V30 2 N 0 1.576 0 0
M  V30 3 C 0.933 2.03868 1.02534 0
M  V30 4 C 1.911 0.928543 1.3348 0
M  V30 5 O 3.095 1.19667 1.45644 0
M  V30 6 C 0.222 2.43627 2.35294 0
M  V30 7 C -0.732 3.65373 2.2001 0
M  V30 8 S 0.101 5.13292 1.52614 0
M  V30 9 C 1.257 5.56322 2.86805 0
M  V30 10 H 1.49 2.90518 0.631377 0
M  V30 11 H -0.977 1.52953 0.210867 0
M  V30 12 H 0.981 2.67203 3.11629 0
M  V30 13 H -0.358 1.57376 2.7183 0
M  V30 14 H -1.165 3.90944 3.18086 0
M  V30 15 H -1.563 3.418 1.51819 0
M  V30 16 H 0.729 5.58782 3.83104 0
M  V30 17 H 1.672 6.56266 2.65933 0
M  V30 18 H 2.08 4.83886 2.90714 0
M  V30 19 N 1.4781 -0.272755 1.55222 0
M  V30 20 C 2.4411 -1.32041 1.87344 0
M  V30 21 C 3.4411 -1.42342 0.74803 0
M  V30 22 O 4.6311 -1.41488 1.0162 0
M  V30 23 C 1.7631 -2.70173 2.07893 0
M  V30 24 H 2.9561 -1.04789 2.80997 0
M  V30 25 H 0.5091 -0.51083 1.47717 0
M  V30 26 H 1.2441 -3.02605 1.16622 0
M  V30 27 H 1.0291 -2.64082 2.89833 0
M  V30 28 H 2.5191 -3.45869 2.34017 0
M  V30 29 N 2.9562 -1.48159 -0.537278 0
M  V30 30 C 4.2042 -1.55497 -1.29094 0
M  V30 31 C 4.5252 -0.227454 -1.93669 0
M  V30 32 O 3.7952 0.750386 -1.80959 0
M  V30 33 H 2.3752 -0.572832 -0.47945 0
M  V30 34 H 5.0372 -1.84579 -0.625818 0
M  V30 35 H 4.1332 -2.33216 -2.07405 0
M  V30 36 N 4.4343 0.785586 -1.36625 0
M  V30 37 C 5.8503 1.08419 -1.17122 0
M  V30 38 C 6.0503 2.015 0.00208491 0
M  V30 39 O 5.1063 2.43551 0.666278 0
M  V30 40 C 6.4193 1.69498 -2.48377 0
M  V30 41 C 7.9673 1.81821 -2.54775 0
M  V30 42 C 8.4423 2.46315 -3.86126 0
M  V30 43 N 9.9333 2.53779 -3.87492 0
M  V30 44 C 10.6683 3.045 -4.85868 0
M  V30 45 N 10.1643 3.55499 -5.94637 0
M  V30 46 N 11.9573 3.03247 -4.73284 0
M  V30 47 H 4.1083 0.167264 -2.1174 0
M  V30 48 H 6.3713 0.13682 -0.938075 0
M  V30 49 H 6.0773 1.08571 -3.34522 0
M  V30 50 H 5.9513 2.6896 -2.64462 0
M  V30 51 H 8.3383 2.41884 -1.69045 0
M  V30 52 H 8.4193 0.811532 -2.42586 0
M  V30 53 H 8.0633 1.86895 -4.72263 0
M  V30 54 H 7.9933 3.47561 -3.95612 0
M  V30 55 H 10.4843 2.17672 -3.08913 0
M  V30 56 H 10.7973 3.92562 -6.65669 0
M  V30 57 H 9.1423 3.5364 -5.98301 0
M  V30 58 H 12.3333 2.62696 -3.87438 0
M  V30 59 H 12.5063 3.42467 -5.50109 0
M  V30 60 N 5.9124 1.20967 1.01018 0
M  V30 61 C 7.1604 1.02172 1.74371 0
M  V30 62 C 7.4814 -0.446414 1.89821 0
M  V30 63 O 6.7514 -1.32234 1.44537 0
M  V30 64 H 5.3314 0.375066 0.646014 0
M  V30 65 H 7.9934 1.52187 1.21758 0
M  V30 66 H 7.0894 1.48538 2.74487 0
M  V30 67 N 7.3905 -1.2043 1.01659 0
M  V30 68 C 8.6155 -1.94318 0.724942 0
M  V30 69 C 9.0405 -1.74266 -0.708034 0
M  V30 70 O 8.3985 -1.03694 -1.48719 0
M  V30 71 C 8.4465 -3.44486 1.06591 0
M  V30 72 O 7.5505 -4.12017 0.177599 0
M  V30 73 H 6.8915 -0.60708 0.26898 0
M  V30 74 H 9.4215 -1.52861 1.35995 0
M  V30 75 H 9.4315 -3.95106 1.01762 0
M  V30 76 H 8.1065 -3.58404 2.10997 0
M  V30 77 H 6.6835 -3.71821 0.283421 0
M  V30 78 N 8.8686 -0.792821 -1.36206 0
M  V30 79 C 9.7986 -0.207853 -2.32573 0
M  V30 80 C 10.7796 0.659055 -1.56813 0
M  V30 81 O 11.9646 0.592176 -1.84951 0
M  V30 82 C 9.0946 0.655449 -3.41059 0
M  V30 83 C 8.0486 -0.111842 -4.27854 0
M  V30 84 C 7.3746 0.872274 -5.27537 0
M  V30 85 C 8.6746 -1.30299 -5.05786 0
M  V30 86 H 10.3686 -1.01294 -2.81744 0
M  V30 87 H 7.9146 -0.48854 -1.3546 0
M  V30 88 H 9.8676 1.07464 -4.07467 0
M  V30 89 H 8.5916 1.49328 -2.90463 0
M  V30 90 H 7.2506 -0.512053 -3.63006 0
M  V30 91 H 6.8986 1.70523 -4.73214 0
M  V30 92 H 6.5986 0.363291 -5.86476 0
M  V30 93 H 8.1226 1.28996 -5.96818 0
M  V30 94 H 9.5366 -0.959379 -5.65216 0
M  V30 95 H 7.9336 -1.7455 -5.74154 0
M  V30 96 H 9.0036 -2.09663 -4.37229 0
M  V30 97 N 10.3467 1.47872 -0.545128 0
M  V30 98 C 11.5927 2.02793 -0.0166104 0
M  V30 99 C 11.9257 1.41987 1.32489 0
M  V30 100 O 11.2007 0.571045 1.85928 0
M  V30 101 C 11.4837 3.59989 0.0893294 0
M  V30 102 C 11.3367 4.3125 -1.27841 0
M  V30 103 C 12.6557 4.32606 0.808724 0
M  V30 104 H 9.7747 0.736962 -0.00751035 0
M  V30 105 H 12.4167 1.76433 -0.705085 0
M  V30 106 H 10.5667 3.82579 0.675681 0
M  V30 107 H 12.2387 4.20035 -1.90704 0
M  V30 108 H 10.4817 3.92076 -1.85632 0
M  V30 109 H 11.1527 5.39736 -1.15713 0
M  V30 110 H 13.6287 4.14936 0.310992 0
M  V30 111 H 12.5047 5.42251 0.851782 0
M  V30 112 H 12.7657 4.00963 1.86229 0
M  V30 113 N 11.8248 0.280983 1.55075 0
M  V30 114 C 13.0498 -0.340154 2.04592 0
M  V30 115 C 13.4748 -1.48246 1.15779 0
M  V30 116 O 12.8328 -1.80614 0.15761 0
M  V30 117 C 12.8808 -0.793104 3.5177 0
M  V30 118 O 11.9848 -1.89981 3.66034 0
M  V30 119 H 11.3258 -0.0694289 0.66036 0
M  V30 120 H 13.8558 0.416993 2.00306 0
M  V30 121 H 13.8658 -1.08729 3.93245 0
M  V30 122 H 12.5408 0.0426163 4.15878 0
M  V30 123 H 11.1178 -1.60771 3.36463 0
M  V30 124 N 13.3029 -1.57598 0.00835791 0
M  V30 125 C 14.5489 -1.92046 -0.670055 0
M  V30 126 C 14.9039 -0.88351 -1.70915 0
M  V30 127 O 14.1969 0.103223 -1.91322 0
M  V30 128 C 14.3909 -3.3101 -1.34787 0
M  V30 129 C 14.2199 -4.48126 -0.375945 0
M  V30 130 C 12.9899 -5.05297 0.0166914 0
M  V30 131 C 15.1879 -5.1303 0.361272 0
M  V30 132 N 13.1699 -6.05931 0.985952 0
M  V30 133 C 14.5409 -6.08571 1.18495 0
M  V30 134 C 16.5959 -4.9609 0.42421 0
M  V30 135 C 15.2989 -6.88996 2.06584 0
M  V30 136 C 17.3249 -5.77107 1.29236 0
M  V30 137 C 16.6869 -6.72248 2.10386 0
M  V30 138 H 12.7859 -0.75096 -0.218136 0
M  V30 139 H 15.3699 -1.94572 0.0706669 0
M  V30 140 H 13.5409 -3.29342 -2.05884 0
M  V30 141 H 15.2729 -3.52864 -1.98164 0
M  V30 142 H 12.0279 -4.72279 -0.353435 0
M  V30 143 H 12.4519 -6.60932 1.4662 0
M  V30 144 H 17.0939 -4.22378 -0.188915 0
M  V30 145 H 14.8119 -7.62028 2.6896 0
M  V30 146 H 18.3979 -5.66038 1.34508 0
M  V30 147 H 17.2779 -7.33846 2.76476 0
M  V30 148 N 14.781 0.264519 -1.55364 0
M  V30 149 C 16.197 0.61215 -1.47394 0
M  V30 150 C 16.397 1.89134 -0.695018 0
M  V30 151 O 15.453 2.51563 -0.217275 0
M  V30 152 C 16.766 0.731235 -2.91674 0
M  V30 153 C 18.314 0.82473 -3.01939 0
M  V30 154 C 18.789 0.975522 -4.4749 0
M  V30 155 N 20.28 1.04083 -4.51354 0
M  V30 156 C 21.015 1.17646 -5.61201 0
M  V30 157 N 20.511 1.27874 -6.80896 0
M  V30 158 N 22.304 1.20823 -5.48961 0
M  V30 159 H 14.455 -0.575456 -2.04456 0
M  V30 160 H 16.718 -0.196099 -0.927496 0
M  V30 161 H 16.424 -0.138392 -3.51428 0
M  V30 162 H 16.298 1.60883 -3.41169 0
M  V30 163 H 18.685 1.68482 -2.42276 0
M  V30 164 H 18.766 -0.0776479 -2.55682 0
M  V30 165 H 18.41 0.120058 -5.07758 0
M  V30 166 H 18.34 1.89268 -4.91412 0
M  V30 167 H 20.831 0.973846 -3.65136 0
M  V30 168 H 21.144 1.38081 -7.60364 0
M  V30 169 H 19.489 1.24863 -6.83692 0
M  V30 170 H 22.68 1.12469 -4.54388 0
M  V30 171 H 22.853 1.31049 -6.3461 0
M  V30 172 N 16.2591 1.48442 0.529413 0
M  V30 173 C 17.2221 1.62524 1.61612 0
M  V30 174 C 18.2221 0.498509 1.52877 0
M  V30 175 O 19.4121 0.76431 1.56537 0
M  V30 176 C 16.5441 1.59597 3.01233 0
M  V30 177 H 17.7371 2.59423 1.50465 0
M  V30 178 H 15.2901 1.37047 0.751514 0
M  V30 179 H 16.0251 0.641781 3.17886 0
M  V30 180 H 15.8101 2.41397 3.08982 0
M  V30 181 H 17.3001 1.72646 3.80241 0
M  V30 182 N 17.7372 -0.778329 1.37039 0
M  V30 183 C 18.9842 -1.53665 1.31884 0
M  V30 184 C 19.3122 -1.9425 -0.0986303 0
M  V30 185 O 18.5672 -1.63832 -1.07041 0
M  V30 186 C 18.8662 -2.81845 2.19768 0
M  V30 187 C 18.5322 -2.60345 3.68146 0
M  V30 188 C 17.1942 -2.5419 4.08584 0
M  V30 189 C 19.5462 -2.40923 4.62175 0
M  V30 190 C 16.8742 -2.26594 5.41177 0
M  V30 191 C 19.2262 -2.14852 5.94997 0
M  V30 192 C 17.8902 -2.07137 6.34547 0
M  V30 193 H 17.1602 -0.562299 0.482598 0
M  V30 194 H 19.8072 -0.897069 1.69189 0
M  V30 195 H 18.1122 -3.50328 1.75436 0
M  V30 196 H 19.8092 -3.39692 2.13097 0
M  V30 197 H 16.3992 -2.65996 3.36072 0
M  V30 198 H 20.5832 -2.44673 4.31797 0
M  V30 199 H 15.8392 -2.19111 5.70789 0
M  V30 200 H 20.0132 -1.98822 6.67415 0
M  V30 201 H 17.6402 -1.85518 7.37216 0
M  V30 202 N 19.2153 -1.21501 -1.00376 0
M  V30 203 C 20.1653 -0.942843 -2.07592 0
M  V30 204 C 21.1493 0.102384 -1.60574 0
M  V30 205 O 22.3413 -0.10671 -1.76678 0
M  V30 206 C 19.4703 -0.510729 -3.3948 0
M  V30 207 C 18.5563 -1.59009 -3.93163 0
M  V30 208 N 18.9473 -2.81544 -4.20198 0
M  V30 209 C 17.2453 -1.45925 -4.21452 0
M  V30 210 C 17.9463 -3.51261 -4.63671 0
M  V30 211 N 16.9223 -2.78703 -4.66718 0
M  V30 212 H 20.7243 -1.87378 -2.26421 0
M  V30 213 H 18.2383 -1.11093 -1.18458 0
M  V30 214 H 20.2353 -0.297101 -4.1584 0
M  V30 215 H 18.8953 0.413436 -3.22057 0
M  V30 216 H 19.9063 -3.18075 -4.08716 0
M  V30 217 H 16.5833 -0.600467 -4.13159 0
M  V30 218 H 17.9733 -4.56183 -4.93302 0
M  V30 219 N 20.6934 1.19889 -1.02296 0
M  V30 220 C 21.9414 1.89046 -0.714558 0
M  V30 221 C 22.2624 1.79636 0.758681 0
M  V30 222 O 21.5324 1.20292 1.54618 0
M  V30 223 H 20.1124 0.699802 -0.261317 0
M  V30 224 H 22.7744 1.45574 -1.29592 0
M  V30 225 H 21.8704 2.95524 -1.0036 0
M  V30 226 N 22.1715 0.800033 1.35784 0
M  V30 227 C 23.4115 0.382891 2.00782 0
M  V30 228 C 23.7755 -1.02891 1.62103 0
M  V30 229 O 24.9765 -1.54771 2.19771 0
M  V30 230 C 23.2475 0.553299 3.53091 0
M  V30 231 S 24.8065 0.225608 4.3822 0
M  V30 232 H 21.6245 0.145737 0.695904 0
M  V30 233 H 24.2265 1.04085 1.65489 0
M  V30 234 H 22.9305 1.58091 3.78729 0
M  V30 235 H 22.4615 -0.120214 3.93216 0
M  V30 236 H 24.4765 -0.969074 4.86645 0
M  V30 237 N 23.6496 -1.47581 0.552962 0
M  V30 238 C 24.9266 -1.95563 -0.0381515 0
M  V30 239 C 25.3066 -1.49552 -1.48988 0
M  V30 240 O 24.6546 -0.732414 -2.16444 0
M  V30 241 C 24.8646 -3.48848 0.102919 0
M  V30 242 C 26.2126 -4.24577 -0.0446082 0
M  V30 243 O 27.2366 -3.56187 0.0302548 0
M  V30 244 O 26.0956 -5.46116 -0.204923 0
M  V30 245 H 23.1896 -0.824321 -0.0665067 0
M  V30 246 H 25.7356 -1.58001 0.619186 0
M  V30 247 H 24.5076 -3.75129 1.11328 0
M  V30 248 H 24.1306 -3.93165 -0.592224 0
M  V30 249 N 25.1277 -0.289203 -1.54924 0
M  V30 250 C 26.3527 0.329299 -2.04769 0
M  V30 251 C 26.7777 1.4763 -1.16564 0
M  V30 252 O 26.1357 1.80527 -0.167186 0
M  V30 253 C 26.1837 0.774438 -3.52186 0
M  V30 254 O 25.2877 1.88038 -3.67036 0
M  V30 255 H 24.6287 0.0659259 -0.660719 0
M  V30 256 H 27.1587 -0.42761 -2.00082 0
M  V30 257 H 27.1687 1.06642 -3.93816 0
M  V30 258 H 25.8437 -0.0646707 -4.1585 0
M  V30 259 H 24.4207 1.58985 -3.3731 0
M  V30 260 N 26.6058 1.57591 -0.0167156 0
M  V30 261 C 27.5688 2.08393 0.954204 0
M  V30 262 C 28.5688 0.996531 1.26198 0
M  V30 263 O 29.7588 1.25858 1.20438 0
M  V30 264 C 26.8908 2.5394 2.27436 0
M  V30 265 H 28.0838 2.95455 0.514451 0
M  V30 266 H 25.6368 1.54582 0.231089 0
M  V30 267 H 26.3718 1.70171 2.76066 0
M  V30 268 H 26.1568 3.33371 2.06412 0
M  V30 269 H 27.6468 2.93512 2.97053 0
M  V30 270 N 28.0839 -0.256276 1.55502 0
M  V30 271 C 28.9939 -1.33882 1.92647 0
M  V30 272 C 30.0099 -1.53159 0.825727 0
M  V30 273 O 31.1859 -1.66963 1.12629 0
M  V30 274 C 28.2509 -2.6751 2.20543 0
M  V30 275 C 27.3119 -2.56836 3.43997 0
M  V30 276 C 26.5449 -3.84092 3.70553 0
M  V30 277 O 26.7679 -4.85545 2.99336 0
M  V30 278 O 25.7019 -3.83288 4.64084 0
M  V30 279 H 29.5279 -1.05374 2.84833 0
M  V30 280 H 27.1129 -0.456237 1.42263 0
M  V30 281 H 28.9949 -3.46492 2.39835 0
M  V30 282 H 27.6699 -2.9577 1.31536 0
M  V30 283 H 26.5769 -1.76172 3.30021 0
M  V30 284 H 27.9099 -2.33523 4.33275 0
M  V30 285 N 29.562 -1.4872 -0.521534 0
M  V30 286 C 30.472 -1.66569 -1.65203 0
M  V30 287 C 31.488 -0.548197 -1.65139 0
M  V30 288 O 32.664 -0.820339 -1.83936 0
M  V30 289 C 29.729 -1.70917 -3.01642 0
M  V30 290 C 28.79 -2.94356 -3.12495 0
M  V30 291 C 28.023 -2.98487 -4.42426 0
M  V30 292 O 28.246 -2.10786 -5.30024 0
M  V30 293 O 27.18 -3.90746 -4.57822 0
M  V30 294 H 31.006 -2.62298 -1.5308 0
M  V30 295 H 28.591 -1.3222 -0.695565 0
M  V30 296 H 30.473 -1.7625 -3.82771 0
M  V30 297 H 29.148 -0.783633 -3.14071 0
M  V30 298 H 28.055 -2.94552 -2.3063 0
M  V30 299 H 29.388 -3.86322 -3.04986 0
M  V30 300 N 31.0401 0.771051 -1.3745 0
M  V30 301 C 31.9701 1.89827 -1.3597 0
M  V30 302 C 32.9511 1.68562 -0.228216 0
M  V30 303 O 34.1361 1.8941 -0.428675 0
M  V30 304 C 31.2661 3.2712 -1.16662 0
M  V30 305 C 30.2201 3.6295 -2.2683 0
M  V30 306 C 29.5461 4.98791 -1.92644 0
M  V30 307 C 30.8461 3.69627 -3.69017 0
M  V30 308 H 32.5401 1.91323 -2.30295 0
M  V30 309 H 30.0861 0.919082 -1.10855 0
M  V30 310 H 32.0391 4.05615 -1.14256 0
M  V30 311 H 30.7631 3.26059 -0.187926 0
M  V30 312 H 29.4221 2.86763 -2.28392 0
M  V30 313 H 29.0701 4.94271 -0.933021 0
M  V30 314 H 28.7701 5.23733 -2.66416 0
M  V30 315 H 30.2941 5.79685 -1.91826 0
M  V30 316 H 31.7081 4.38273 -3.69581 0
M  V30 317 H 30.1051 4.06067 -4.41848 0
M  V30 318 H 31.1751 2.70273 -4.02592 0
M  V30 319 N 32.5182 1.22032 0.997298 0
M  V30 320 C 33.9292 1.0397 1.55071 0
M  V30 321 C 34.2802 -0.398192 1.92117 0
M  V30 322 O 33.4052 -1.28254 1.74298 0
M  V30 323 C 34.0002 1.88109 2.81781 0
M  V30 324 C 32.5592 1.74357 3.33581 0
M  V30 325 C 31.7062 1.84846 2.06706 0
M  V30 326 H 34.6572 1.35941 0.818883 0
M  V30 327 H 34.6782 1.39589 3.53971 0
M  V30 328 H 34.1902 2.92754 2.54787 0
M  V30 329 H 32.2912 0.72427 3.65493 0
M  V30 330 H 32.4042 2.56772 4.04481 0
M  V30 331 H 30.7682 1.28238 2.20062 0
M  V30 332 H 31.5512 2.91014 1.82114 0
M  V30 333 N 33.9963 -1.19345 1.0293 0
M  V30 334 C 35.4123 -1.41069 0.746446 0
M  V30 335 C 35.6123 -1.90078 -0.668776 0
M  V30 336 O 34.6683 -2.0778 -1.4347 0
M  V30 337 C 35.9813 -2.42141 1.78292 0
M  V30 338 C 37.5293 -2.55887 1.80252 0
M  V30 339 C 38.0043 -3.60214 2.8286 0
M  V30 340 N 39.4953 -3.67711 2.81679 0
M  V30 341 C 40.2303 -4.48128 3.57727 0
M  V30 342 N 39.7263 -5.32248 4.43491 0
M  V30 343 N 41.5193 -4.42782 3.46267 0
M  V30 344 H 33.6703 -0.858536 1.94275 0
M  V30 345 H 35.9333 -0.439541 0.839945 0
M  V30 346 H 35.6393 -2.13155 2.79746 0
M  V30 347 H 35.5133 -3.41323 1.60557 0
M  V30 348 H 37.9003 -2.84196 0.794757 0
M  V30 349 H 37.9813 -1.56858 2.02062 0
M  V30 350 H 37.6253 -3.32647 3.83807 0
M  V30 351 H 37.5553 -4.58895 2.58307 0
M  V30 352 H 40.0463 -3.07634 2.19476 0
M  V30 353 H 40.3593 -5.90729 4.98256 0
M  V30 354 H 38.7043 -5.31707 4.47564 0
M  V30 355 H 41.8953 -3.76107 2.78677 0
M  V30 356 H 42.0683 -5.05215 4.05785 0
M  V30 357 N 35.4744 -0.807222 -1.35358 0
M  V30 358 C 36.7204 -0.388463 -1.99045 0
M  V30 359 C 37.0534 1.04184 -1.63888 0
M  V30 360 O 36.3284 1.72292 -0.902535 0
M  V30 361 C 36.6114 -0.572783 -3.55515 0
M  V30 362 C 36.4644 -2.04807 -4.00468 0
M  V30 363 C 37.7834 0.00114064 -4.401 0
M  V30 364 H 34.9024 -0.142619 -0.723069 0
M  V30 365 H 37.5444 -1.01687 -1.60498 0
M  V30 366 H 35.6944 -0.0378425 -3.88482 0
M  V30 367 H 37.3664 -2.64544 -3.77908 0
M  V30 368 H 35.6094 -2.54427 -3.51353 0
M  V30 369 H 36.2804 -2.12792 -5.09337 0
M  V30 370 H 38.7564 -0.455716 -4.13597 0
M  V30 371 H 37.6324 -0.157737 -5.48673 0
M  V30 372 H 37.8934 1.09488 -4.28328 0
M  V30 373 N 36.9525 1.47285 -0.560781 0
M  V30 374 C 38.1775 2.07359 -0.0410566 0
M  V30 375 C 38.6025 1.41017 1.24483 0
M  V30 376 O 37.9605 0.486368 1.74654 0
M  V30 377 C 38.0085 3.6035 0.134123 0
M  V30 378 O 37.1125 3.94681 1.19587 0
M  V30 379 H 36.4535 0.661887 -0.0529291 0
M  V30 380 H 38.9835 1.89252 -0.777482 0
M  V30 381 H 38.9935 4.0652 0.347207 0
M  V30 382 H 37.6685 4.08034 -0.805047 0
M  V30 383 H 36.2455 3.60251 0.962987 0
M  V30 384 N 38.4306 0.297415 1.54768 0
M  V30 385 C 39.8416 -0.195947 1.85669 0
M  V30 386 C 40.1926 -1.53707 1.21937 0
M  V30 387 O 39.3176 -2.10164 0.515754 0
M  V30 388 C 39.9126 -0.362318 3.36857 0
M  V30 389 C 38.4716 -0.799901 3.67802 0
M  V30 390 C 37.6186 0.0938578 2.77141 0
M  V30 391 H 40.5696 0.518538 1.4999 0
M  V30 392 H 40.5906 -1.19745 3.61167 0
M  V30 393 H 40.1026 0.613921 3.83214 0
M  V30 394 H 38.2036 -1.78682 3.26961 0
M  V30 395 H 38.3166 -0.621773 4.75048 0
M  V30 396 H 36.6806 -0.426254 2.51108 0
M  V30 397 H 37.4636 1.06639 3.26318 0
M  V30 398 N 39.9087 -1.5758 0.0250728 0
M  V30 399 C 41.3247 -1.56124 -0.331282 0
M  V30 400 C 41.5247 -1.03029 -1.73169 0
M  V30 401 O 40.5807 -0.675215 -2.43305 0
M  V30 402 C 41.8937 -3.00139 -0.183584 0
M  V30 403 C 43.4417 -3.11946 -0.256654 0
M  V30 404 C 43.9167 -4.57793 -0.137792 0
M  V30 405 N 45.4077 -4.6279 -0.194904 0
M  V30 406 C 46.1427 -5.7326 -0.126655 0
M  V30 407 N 45.6387 -6.928 -0.00755288 0
M  V30 408 N 47.4317 -5.61811 -0.180348 0
M  V30 409 H 39.5827 -1.90424 0.94087 0
M  V30 410 H 41.8457 -0.875761 0.362968 0
M  V30 411 H 41.5517 -3.4292 0.780927 0
M  V30 412 H 41.4257 -3.64899 -0.955448 0
M  V30 413 H 43.8127 -2.69079 -1.21162 0
M  V30 414 H 43.8937 -2.49915 0.545517 0
M  V30 415 H 43.5377 -5.01339 0.813739 0
M  V30 416 H 43.4677 -5.17798 -0.958775 0
M  V30 417 H 45.9587 -3.76807 -0.287267 0
M  V30 418 H 46.2717 -7.72791 0.0379428 0
M  V30 419 H 44.6167 -6.94995 0.0271731 0
M  V30 420 H 47.8077 -4.6731 -0.271767 0
M  V30 421 H 47.9807 -6.47882 -0.123697 0
M  V30 422 N 41.3868 0.248026 -1.55636 0
M  V30 423 C 42.6338 0.976224 -1.77415 0
M  V30 424 C 42.9618 1.85361 -0.589193 0
M  V30 425 O 42.2168 1.90973 0.427529 0
M  V30 426 C 42.5158 1.86819 -3.04686 0
M  V30 427 C 42.1818 1.14625 -4.36087 0
M  V30 428 C 40.8438 0.946723 -4.71795 0
M  V30 429 C 43.1958 0.634463 -5.17324 0
M  V30 430 C 40.5238 0.223091 -5.86276 0
M  V30 431 C 42.8758 -0.0756959 -6.32555 0
M  V30 432 C 41.5398 -0.286711 -6.66884 0
M  V30 433 H 40.8098 0.357226 -0.649208 0
M  V30 434 H 43.4568 0.246415 -1.89908 0
M  V30 435 H 41.7618 2.66502 -2.872 0
M  V30 436 H 43.4588 2.43329 -3.18735 0
M  V30 437 H 40.0488 1.3117 -4.08035 0
M  V30 438 H 44.2328 0.77616 -4.90193 0
M  V30 439 H 39.4888 0.0491185 -6.1138 0
M  V30 440 H 43.6628 -0.479899 -6.94745 0
M  V30 441 H 41.2898 -0.849389 -7.5544 0
M  V30 442 N 42.8649 1.48995 0.513639 0
M  V30 443 C 43.7949 1.67636 1.62544 0
M  V30 444 C 44.7759 0.525087 1.61793 0
M  V30 445 O 45.9609 0.759502 1.78732 0
M  V30 446 C 43.0909 1.73114 3.01079 0
M  V30 447 C 42.0449 2.87905 3.16693 0
M  V30 448 C 41.3709 2.78486 4.56453 0
M  V30 449 C 42.6709 4.29005 2.97913 0
M  V30 450 H 44.3649 2.60716 1.47198 0
M  V30 451 H 41.9109 1.25465 0.706714 0
M  V30 452 H 43.8639 1.84742 3.78746 0
M  V30 453 H 42.5879 0.766241 3.17484 0
M  V30 454 H 41.2469 2.75859 2.41448 0
M  V30 455 H 40.8949 1.7993 4.69717 0
M  V30 456 H 40.5949 3.55523 4.67843 0
M  V30 457 H 42.1189 2.92104 5.36197 0
M  V30 458 H 43.5329 4.41798 3.65359 0
M  V30 459 H 41.9299 5.07166 3.20785 0
M  V30 460 H 42.9999 4.44329 1.94165 0
M  V30 461 N 44.343 -0.763751 1.37857 0
M  V30 462 C 45.759 -1.06542 1.18832 0
M  V30 463 C 45.959 -2.01478 0.0299722 0
M  V30 464 O 45.015 -2.4458 -0.627447 0
M  V30 465 C 46.328 -1.65525 2.51042 0
M  V30 466 C 47.876 -1.77745 2.57635 0
M  V30 467 C 48.351 -2.4014 3.89996 0
M  V30 468 N 49.842 -2.47582 3.91481 0
M  V30 469 C 50.577 -2.96732 4.9065 0
M  V30 470 N 50.073 -3.45993 6.00217 0
M  V30 471 N 51.866 -2.95679 4.78048 0
M  V30 472 H 44.017 -0.133556 2.1198 0
M  V30 473 H 46.28 -0.121879 0.940133 0
M  V30 474 H 45.986 -1.03236 3.36207 0
M  V30 475 H 45.86 -2.64719 2.68707 0
M  V30 476 H 48.247 -2.39164 1.72872 0
M  V30 477 H 48.328 -0.772836 2.43846 0
M  V30 478 H 47.972 -1.79358 4.75177 0
M  V30 479 H 47.902 -3.41223 4.01092 0
M  V30 480 H 50.393 -2.1273 3.12337 0
M  V30 481 H 50.706 -3.81922 6.7183 0
M  V30 482 H 49.051 -3.44077 6.03851 0
M  V30 483 H 52.242 -2.56499 3.91568 0
M  V30 484 H 52.415 -3.33672 5.55488 0
M  V30 485 N 45.8211 -1.22559 -0.990812 0
M  V30 486 C 46.7841 -0.998863 -2.0629 0
M  V30 487 C 47.7841 0.0354834 -1.60761 0
M  V30 488 O 48.9741 -0.203231 -1.7301 0
M  V30 489 C 46.1061 -0.509203 -3.37076 0
M  V30 490 H 47.2991 -1.95014 -2.27837 0
M  V30 491 H 44.8521 -1.04456 -1.16269 0
M  V30 492 H 45.5871 0.446335 -3.21214 0
M  V30 493 H 45.3721 -1.25547 -3.71457 0
M  V30 494 H 46.8621 -0.370888 -4.1595 0
M  V30 495 N 47.2992 1.18797 -1.03562 0
M  V30 496 C 48.5452 1.89192 -0.746867 0
M  V30 497 C 48.9002 1.78531 0.717245 0
M  V30 498 O 48.1932 1.17137 1.51622 0
M  V30 499 C 48.3872 3.38692 -1.14117 0
M  V30 500 C 48.2162 3.63902 -2.64207 0
M  V30 501 C 46.9862 3.81553 -3.31279 0
M  V30 502 C 49.1842 3.64903 -3.62423 0
M  V30 503 N 47.1662 3.94455 -4.70402 0
M  V30 504 C 48.5372 3.83458 -4.87196 0
M  V30 505 C 50.5922 3.47965 -3.56125 0
M  V30 506 C 49.2952 3.86829 -6.06429 0
M  V30 507 C 51.3212 3.52616 -4.7478 0
M  V30 508 C 50.6832 3.71663 -5.9837 0
M  V30 509 H 46.7822 0.711141 -0.325273 0
M  V30 510 H 49.3662 1.42727 -1.32428 0
M  V30 511 H 47.5372 3.83864 -0.591889 0
M  V30 512 H 49.2692 3.96634 -0.803966 0
M  V30 513 H 46.0242 3.80723 -2.81686 0
M  V30 514 H 46.4482 4.0474 -5.42692 0
M  V30 515 H 51.0902 3.32189 -2.61553 0
M  V30 516 H 48.8082 4.01395 -7.01362 0
M  V30 517 H 52.3942 3.40791 -4.71543 0
M  V30 518 H 51.2742 3.75145 -6.88648 0
M  V30 519 N 48.7773 0.814389 1.34928 0
M  V30 520 C 49.7273 0.202752 2.27097 0
M  V30 521 C 50.7113 -0.62799 1.48139 0
M  V30 522 O 51.9033 -0.483969 1.70255 0
M  V30 523 C 49.0323 -0.64146 3.37254 0
M  V30 524 C 48.1183 0.19944 4.23631 0
M  V30 525 N 48.5093 1.26628 4.89693 0
M  V30 526 C 46.8073 -0.0176433 4.45997 0
M  V30 527 C 47.5083 1.78031 5.53787 0
M  V30 528 N 46.4843 1.08553 5.32651 0
M  V30 529 H 50.2863 1.01893 2.75672 0
M  V30 530 H 47.8003 0.656332 1.48546 0
M  V30 531 H 49.7973 -1.09575 4.02243 0
M  V30 532 H 48.4573 -1.4559 2.9023 0
M  V30 533 H 49.4683 1.64901 4.90946 0
M  V30 534 H 46.1453 -0.800601 4.09752 0
M  V30 535 H 47.5353 2.67236 6.16469 0
M  V30 536 N 50.2554 -1.46986 0.568584 0
M  V30 537 C 51.6664 -1.86188 0.138219 0
M  V30 538 C 52.0174 -1.47388 -1.29504 0
M  V30 539 O 51.1424 -0.88219 -1.97602 0
M  V30 540 C 51.7374 -3.3792 0.244065 0
M  V30 541 C 50.2964 -3.76171 -0.131335 0
M  V30 542 C 49.4434 -2.71027 0.586465 0
M  V30 543 H 52.3944 -1.38342 0.777645 0
M  V30 544 H 52.4154 -3.76729 -0.534351 0
M  V30 545 H 51.9274 -3.66128 1.28731 0
M  V30 546 H 50.0284 -3.5358 -1.17526 0
M  V30 547 H 50.1414 -4.78523 0.235146 0
M  V30 548 H 48.5054 -2.54684 0.0282722 0
M  V30 549 H 49.2884 -3.02077 1.63109 0
M  V30 550 N 51.7335 -0.305618 -1.54608 0
M  V30 551 C 53.1445 0.186098 -1.8577 0
M  V30 552 C 53.4955 1.53058 -1.22751 0
M  V30 553 O 52.6205 2.09888 -0.526893 0
M  V30 554 C 53.2155 0.344449 -3.37044 0
M  V30 555 C 51.7745 0.780384 -3.68221 0
M  V30 556 C 50.9215 -0.108554 -2.77087 0
M  V30 557 H 53.8725 -0.526485 -1.49712 0
M  V30 558 H 53.8935 1.17828 -3.61796 0
M  V30 559 H 53.4055 -0.634235 -3.82883 0
M  V30 560 H 51.5065 1.76945 -3.27904 0
M  V30 561 H 51.6195 0.596572 -4.75371 0
M  V30 562 H 49.9835 0.412931 -2.5133 0
M  V30 563 H 50.7665 -1.08368 -3.25747 0
M  V30 564 N 53.2116 1.57565 -0.0334293 0
M  V30 565 C 54.6226 1.79746 0.504798 0
M  V30 566 C 54.9736 0.944091 1.71992 0
M  V30 567 O 54.0986 0.155694 2.15839 0
M  V30 568 C 54.6936 3.25997 0.922567 0
M  V30 569 C 53.2526 3.49159 1.40588 0
M  V30 570 C 52.3996 2.74785 0.372633 0
M  V30 571 H 55.3506 1.56565 -0.259436 0
M  V30 572 H 55.3716 3.35945 1.78666 0
M  V30 573 H 54.8836 3.88081 0.0379825 0
M  V30 574 H 52.9846 2.92332 2.31025 0
M  V30 575 H 53.0976 4.57873 1.41028 0
M  V30 576 H 51.4616 2.40391 0.841672 0
M  V30 577 H 52.2446 3.39587 -0.503559 0
M  V30 578 N 54.6897 -0.239769 1.55765 0
M  V30 579 C 55.9357 -0.968234 1.78194 0
M  V30 580 C 56.2687 -1.84701 0.599938 0
M  V30 581 O 55.5437 -1.9031 -0.401524 0
M  V30 582 C 55.8267 -1.8227 3.10564 0
M  V30 583 C 55.6797 -0.971633 4.3918 0
M  V30 584 C 56.9987 -2.80388 3.39221 0
M  V30 585 H 54.1177 -0.350572 0.648281 0
M  V30 586 H 56.7597 -0.238259 1.885 0
M  V30 587 H 54.9097 -2.44507 3.01908 0
M  V30 588 H 56.5817 -0.367408 4.59835 0
M  V30 589 H 54.8247 -0.276276 4.32919 0
M  V30 590 H 55.4957 -1.60346 5.28198 0
M  V30 591 H 57.9717 -2.28287 3.47885 0
M  V30 592 H 56.8477 -3.3729 4.33044 0
M  V30 593 H 57.1087 -3.57212 2.60484 0
M  V30 594 N 56.1678 -1.49265 -0.50573 0
M  V30 595 C 57.3928 -1.62478 -1.28902 0
M  V30 596 C 57.8178 -0.294332 -1.85783 0
M  V30 597 O 57.1758 0.737412 -1.65626 0
M  V30 598 C 57.2238 -2.69268 -2.39848 0
M  V30 599 O 56.3278 -2.28113 -3.43567 0
M  V30 600 H 55.6688 -0.54399 -0.380751 0
M  V30 601 H 58.1988 -1.95421 -0.605952 0
M  V30 602 H 58.2088 -2.91291 -2.85681 0
M  V30 603 H 56.8838 -3.65846 -1.97812 0
M  V30 604 H 55.4608 -2.16401 -3.03685 0
M  V30 605 N 57.6459 0.756429 -1.3826 0
M  V30 606 C 58.6089 1.85176 -1.35065 0
M  V30 607 C 59.6089 1.58818 -0.251703 0
M  V30 608 O 60.7989 1.66615 -0.508433 0
M  V30 609 C 57.9309 3.22596 -1.10201 0
M  V30 610 H 59.1239 1.89417 -2.3251 0
M  V30 611 H 56.6769 0.95783 -1.23512 0
M  V30 612 H 57.4119 3.24025 -0.133504 0
M  V30 613 H 57.1969 3.43122 -1.89762 0
M  V30 614 H 58.6869 4.02673 -1.10654 0
M  V30 615 N 59.124 1.23083 0.984299 0
M  V30 616 C 60.54 0.992637 1.24975 0
M  V30 617 C 60.74 -0.308618 1.99123 0
M  V30 618 O 59.796 -1.02905 2.30579 0
M  V30 619 C 61.109 2.19698 2.05312 0
M  V30 620 C 62.657 2.24147 2.18465 0
M  V30 621 C 63.132 3.44157 3.02192 0
M  V30 622 N 64.623 3.44372 3.09777 0
M  V30 623 C 65.358 4.33886 3.74874 0
M  V30 624 N 64.854 5.3363 4.41827 0
M  V30 625 N 66.647 4.21639 3.71721 0
M  V30 626 H 58.798 2.06731 0.487453 0
M  V30 627 H 61.061 0.906339 0.277944 0
M  V30 628 H 60.767 3.1411 1.58201 0
M  V30 629 H 60.641 2.20465 3.06064 0
M  V30 630 H 63.028 1.30277 2.64786 0
M  V30 631 H 63.109 2.27415 1.17115 0
M  V30 632 H 62.753 4.38332 2.56568 0
M  V30 633 H 62.683 3.3813 4.03702 0
M  V30 634 H 65.174 2.72201 2.62135 0
M  V30 635 H 65.487 5.98196 4.89266 0
M  V30 636 H 63.832 5.37534 4.40548 0
M  V30 637 H 67.023 3.42962 3.18582 0
M  V30 638 H 67.196 4.91604 4.22173 0
M  V30 639 N 60.6021 -1.18246 1.0419 0
M  V30 640 C 61.5351 -2.20746 0.578474 0
M  V30 641 C 62.5131 -1.57912 -0.387624 0
M  V30 642 O 63.6971 -1.86071 -0.301634 0
M  V30 643 C 60.8241 -3.38346 -0.154762 0
M  V30 644 C 59.8701 -4.19587 0.764782 0
M  V30 645 S 60.7031 -4.86014 2.24835 0
M  V30 646 C 61.8591 -6.07012 1.526 0
M  V30 647 H 62.0921 -2.59715 1.44691 0
M  V30 648 H 59.6251 -1.287 0.85297 0
M  V30 649 H 61.5831 -4.065 -0.571641 0
M  V30 650 H 60.2441 -2.97786 -0.999105 0
M  V30 651 H 59.4371 -5.03611 0.197976 0
M  V30 652 H 59.0391 -3.56818 1.12057 0
M  V30 653 H 61.3311 -6.72523 0.819733 0
M  V30 654 H 62.2741 -6.68202 2.34333 0
M  V30 655 H 62.6821 -5.55249 1.01779 0
M  V30 656 N 62.0802 -0.821533 -1.34494 0
M  V30 657 C 63.4912 -0.467956 -1.8074 0
M  V30 658 C 63.8422 1.01151 -1.68116 0
M  V30 659 O 62.9672 1.78707 -1.22036 0
M  V30 660 C 63.5622 -0.842627 -3.28154 0
M  V30 661 C 62.1212 -0.541439 -3.72485 0
M  V30 662 C 61.2682 -1.06028 -2.56229 0
M  V30 663 H 64.2192 -1.01183 -1.22261 0
M  V30 664 H 64.2402 -0.145876 -3.8022 0
M  V30 665 H 63.7522 -1.91945 -3.37311 0
M  V30 666 H 61.8532 0.526034 -3.68868 0
M  V30 667 H 61.9662 -1.08453 -4.66663 0
M  V30 668 H 60.3302 -0.481892 -2.501 0
M  V30 669 H 61.1132 -2.14352 -2.68157 0
M  V30 670 N 63.5583 1.46682 -0.576371 0
M  V30 671 C 64.7863 2.06798 -0.0649635 0
M  V30 672 C 65.2013 1.42612 1.23723 0
M  V30 673 O 64.5583 0.529203 1.74659 0
M  V30 674 C 64.6093 3.6132 0.114202 0
M  V30 675 O 64.3303 4.23104 -1.13644 0
M  V30 676 C 65.8313 4.38349 0.66069 0
M  V30 677 H 63.0513 0.668778 -0.0545616 0
M  V30 678 H 65.5953 1.88404 -0.795237 0
M  V30 679 H 63.7503 3.79162 0.794673 0
M  V30 680 H 64.1643 5.15894 -0.946253 0
M  V30 681 H 65.6383 5.47081 0.73526 0
M  V30 682 H 66.1153 4.05953 1.67627 0
M  V30 683 H 66.7213 4.25297 0.0152951 0
M  V30 684 N 65.0364 0.313813 1.54444 0
M  V30 685 C 66.4524 -0.0391619 1.59552 0
M  V30 686 C 66.6524 -1.51322 1.33056 0
M  V30 687 O 65.7084 -2.26782 1.11022 0
M  V30 688 C 67.0214 0.370302 2.98411 0
M  V30 689 C 68.5694 0.320139 3.11358 0
M  V30 690 C 69.0444 0.704617 4.52547 0
M  V30 691 N 70.5354 0.657645 4.58508 0
M  V30 692 C 71.2704 0.927453 5.6585 0
M  V30 693 N 70.7664 1.26389 6.81174 0
M  V30 694 N 72.5594 0.853662 5.5558 0
M  V30 695 H 64.7104 1.27433 1.69925 0
M  V30 696 H 66.9734 0.517511 0.794284 0
M  V30 697 H 66.6794 1.39694 3.22767 0
M  V30 698 H 66.5534 -0.269619 3.76235 0
M  V30 699 H 68.9404 -0.697275 2.86744 0
M  V30 700 H 69.0214 0.99486 2.35661 0
M  V30 701 H 68.6654 1.7199 4.77893 0
M  V30 702 H 68.5954 0.00768843 5.26599 0
M  V30 703 H 71.0864 0.409067 3.75679 0
M  V30 704 H 71.3994 1.4554 7.58972 0
M  V30 705 H 69.7444 1.30206 6.82694 0
M  V30 706 H 72.9354 0.590383 4.64362 0
M  V30 707 H 73.1084 1.0673 6.3915 0
M  V30 708 N 66.5145 -1.57545 0.0417849 0
M  V30 709 C 67.9305 -1.56467 -0.314704 0
M  V30 710 C 68.1305 -1.04859 -1.72066 0
M  V30 711 O 67.1865 -0.700983 -2.42575 0
M  V30 712 C 68.4995 -3.00317 -0.15174 0
M  V30 713 C 70.0475 -3.12201 -0.223553 0
M  V30 714 C 70.5225 -4.57913 -0.0892295 0
M  V30 715 N 72.0135 -4.6297 -0.145808 0
M  V30 716 C 72.7485 -5.73362 -0.0658459 0
M  V30 717 N 72.2445 -6.92769 0.0659282 0
M  V30 718 N 74.0375 -5.6197 -0.12075 0
M  V30 719 H 66.1885 -1.89416 0.961014 0
M  V30 720 H 68.4515 -0.871862 0.372237 0
M  V30 721 H 68.1575 -3.42073 0.817254 0
M  V30 722 H 68.0315 -3.65892 -0.916692 0
M  V30 723 H 70.4185 -2.70349 -1.18301 0
M  V30 724 H 70.4995 -2.49323 0.571994 0
M  V30 725 H 70.1435 -5.00448 0.866867 0
M  V30 726 H 70.0735 -5.18786 -0.903802 0
M  V30 727 H 72.5645 -3.7709 -0.247286 0
M  V30 728 H 72.8775 -7.72707 0.119905 0
M  V30 729 H 71.2225 -6.94927 0.100885 0
M  V30 730 H 74.4135 -4.67572 -0.222187 0
M  V30 731 H 74.5865 -6.47977 -0.0549735 0
M  V30 732 N 67.9926 0.231505 -1.5589 0
M  V30 733 C 69.2386 0.954429 -1.79617 0
M  V30 734 C 69.5936 1.82367 -0.613199 0
M  V30 735 O 68.8866 1.87524 0.393094 0
M  V30 736 C 69.0806 1.83577 -3.0665 0
M  V30 737 C 68.9096 1.05334 -4.3719 0
M  V30 738 C 67.6796 0.75225 -4.99669 0
M  V30 739 C 69.8776 0.423444 -5.12554 0
M  V30 740 N 67.8596 -0.052627 -6.13877 0
M  V30 741 C 69.2306 -0.245287 -6.19515 0
M  V30 742 C 71.2856 0.335466 -4.96769 0
M  V30 743 C 69.9886 -0.993566 -7.12405 0
M  V30 744 C 72.0146 -0.399321 -5.9005 0
M  V30 745 C 71.3766 -1.05663 -6.9643 0
M  V30 746 H 67.4756 0.329846 -0.709031 0
M  V30 747 H 70.0596 0.226172 -1.93382 0
M  V30 748 H 68.2306 2.53592 -2.94186 0
M  V30 749 H 69.9626 2.49541 -3.18608 0
M  V30 750 H 66.7176 1.06783 -4.61405 0
M  V30 751 H 67.1416 -0.443609 -6.75545 0
M  V30 752 H 71.7836 0.829311 -4.14587 0
M  V30 753 H 69.5016 -1.49896 -7.94076 0
M  V30 754 H 73.0876 -0.468265 -5.79913 0
M  V30 755 H 71.9676 -1.61612 -7.67366 0
M  V30 756 N 69.4707 1.49531 0.497807 0
M  V30 757 C 70.4337 1.65916 1.58128 0
M  V30 758 C 71.4337 0.530825 1.51786 0
M  V30 759 O 72.6237 0.797342 1.54881 0
M  V30 760 C 69.7557 1.65951 2.9778 0
M  V30 761 H 70.9487 2.62556 1.44929 0
M  V30 762 H 68.5017 1.38611 0.722275 0
M  V30 763 H 69.2367 0.709065 3.16453 0
M  V30 764 H 69.0217 2.47897 3.03792 0
M  V30 765 H 70.5117 1.80673 3.76493 0
M  V30 766 N 70.9488 -0.749086 1.3866 0
M  V30 767 C 72.3598 -1.32664 1.31366 0
M  V30 768 C 72.7108 -1.96179 -0.028484 0
M  V30 769 O 71.8358 -1.9537 -0.93057 0
M  V30 770 C 72.4308 -2.41219 2.37905 0
M  V30 771 C 70.9898 -2.94684 2.34176 0
M  V30 772 C 70.1368 -1.68108 2.20533 0
M  V30 773 H 73.0878 -0.547628 1.48952 0
M  V30 774 H 73.1088 -3.21268 2.0388 0
M  V30 775 H 72.6208 -1.94962 3.35576 0
M  V30 776 H 70.7218 -3.45258 1.401 0
M  V30 777 H 70.8348 -3.48757 3.2849 0
M  V30 778 H 69.1988 -1.91907 1.67463 0
M  V30 779 H 69.9818 -1.23923 3.20153 0
M  V30 780 N 72.4269 -1.23603 -0.977757 0
M  V30 781 C 73.6749 -1.06759 -1.71601 0
M  V30 782 C 73.9959 0.395929 -1.90938 0
M  V30 783 O 73.2659 1.28356 -1.47992 0
M  V30 784 H 71.8459 -0.392062 -0.635843 0
M  V30 785 H 74.5079 -1.55362 -1.1768 0
M  V30 786 H 73.6039 -1.55763 -2.70452 0
M  V30 787 N 73.905 1.17692 -1.04816 0
M  V30 788 C 75.133 1.91786 -0.776254 0
M  V30 789 C 75.548 1.76604 0.667577 0
M  V30 790 O 74.905 1.10067 1.45573 0
M  V30 791 C 74.956 3.42967 -1.14263 0
M  V30 792 O 74.677 3.57678 -2.52978 0
M  V30 793 C 76.178 4.34144 -0.896311 0
M  V30 794 H 73.398 0.608624 -0.282519 0
M  V30 795 H 75.942 1.49268 -1.39783 0
M  V30 796 H 74.097 3.83245 -0.565874 0
M  V30 797 H 74.511 4.51319 -2.67229 0
M  V30 798 H 75.985 5.38744 -1.20244 0
M  V30 799 H 76.462 4.38876 0.168636 0
M  V30 800 H 77.068 3.99574 -1.45672 0
M  V30 801 N 75.3831 0.828654 1.34056 0
M  V30 802 C 76.3151 0.212052 2.28217 0
M  V30 803 C 77.3281 -0.601362 1.51286 0
M  V30 804 O 78.5171 -0.430104 1.73241 0
M  V30 805 C 75.6171 -0.72088 3.31144 0
M  V30 806 C 74.7901 0.0509587 4.3737 0
M  V30 807 C 73.8491 -0.803766 5.20025 0
M  V30 808 O 72.8751 -0.246667 5.68665 0
M  V30 809 N 74.0771 -2.1227 5.40298 0
M  V30 810 H 76.8421 1.02105 2.81771 0
M  V30 811 H 74.4031 0.686153 1.46641 0
M  V30 812 H 76.3951 -1.29742 3.8334 0
M  V30 813 H 74.9651 -1.43061 2.77943 0
M  V30 814 H 74.1851 0.808831 3.85813 0
M  V30 815 H 75.4731 0.582065 5.0546 0
M  V30 816 H 74.8711 -2.59898 5.02464 0
M  V30 817 H 73.4281 -2.64796 5.95589 0
M  V30 818 N 76.8612 -1.46375 0.584142 0
M  V30 819 C 78.1012 -2.0427 0.0729695 0
M  V30 820 C 78.4652 -1.44563 -1.26355 0
M  V30 821 O 79.6662 -1.93667 -1.86405 0
M  V30 822 C 77.9372 -3.57399 0.00967464 0
M  V30 823 S 79.4962 -4.36551 -0.443714 0
M  V30 824 H 76.3142 -0.709975 0.0381673 0
M  V30 825 H 78.9162 -1.79398 0.776962 0
M  V30 826 H 77.6202 -3.98372 0.986319 0
M  V30 827 H 77.1512 -3.8681 -0.717044 0
M  V30 828 H 79.1662 -4.66237 -1.69816 0
M  V30 829 N 78.3393 -0.321999 -1.54275 0
M  V30 830 C 79.5883 0.281931 -1.9972 0
M  V30 831 C 79.9013 1.53369 -1.21397 0
M  V30 832 O 81.1073 2.21352 -1.57211 0
M  V30 833 C 79.5633 0.5529 -3.55628 0
M  V30 834 C 79.1713 -0.681721 -4.42783 0
M  V30 835 C 80.9153 1.11687 -4.09544 0
M  V30 836 C 78.8223 -0.382742 -5.9016 0
M  V30 837 H 77.7523 0.109124 -0.746062 0
M  V30 838 H 80.4033 -0.43398 -1.78294 0
M  V30 839 H 78.7853 1.32896 -3.73035 0
M  V30 840 H 79.9593 -1.45723 -4.37151 0
M  V30 841 H 78.2743 -1.1658 -3.99748 0
M  V30 842 H 80.8713 1.35515 -5.17242 0
M  V30 843 H 81.2143 2.06575 -3.61431 0
M  V30 844 H 81.7473 0.402032 -3.95763 0
M  V30 845 H 78.4863 -1.30076 -6.42464 0
M  V30 846 H 78.0063 0.355094 -5.98748 0
M  V30 847 H 79.6853 0.00800157 -6.47 0
M  V30 848 N 79.8174 1.5752 -0.0501392 0
M  V30 849 C 81.0454 1.96963 0.633492 0
M  V30 850 C 81.4604 0.927631 1.6444 0
M  V30 851 O 80.8174 -0.0882665 1.82286 0
M  V30 852 C 80.8684 3.36487 1.32132 0
M  V30 853 O 80.5894 4.36693 0.350894 0
M  V30 854 C 82.0904 3.90682 2.09481 0
M  V30 855 H 79.3104 0.648244 0.173266 0
M  V30 856 H 81.8544 2.0417 -0.116134 0
M  V30 857 H 80.0094 3.30434 2.02218 0
M  V30 858 H 80.4234 5.17702 0.841735 0
M  V30 859 H 81.8974 4.90591 2.5303 0
M  V30 860 H 82.3744 3.26053 2.94255 0
M  V30 861 H 82.9804 4.00069 1.44307 0
M  V30 862 N 81.2955 -0.223234 1.56011 0
M  V30 863 C 82.2425 -1.27664 1.92277 0
M  V30 864 C 83.2125 -1.46659 0.779763 0
M  V30 865 O 84.3975 -1.60256 1.03551 0
M  V30 866 C 81.5375 -2.62234 2.24338 0
M  V30 867 C 80.6505 -2.51051 3.51564 0
M  V30 868 C 79.7855 -3.78133 3.7308 0
M  V30 869 C 78.8245 -3.61665 4.93827 0
M  V30 870 N 77.9615 -4.80693 5.11741 0
M  V30 871 H 82.8015 -0.960358 2.82101 0
M  V30 872 H 80.3385 -0.462901 1.39627 0
M  V30 873 H 82.2965 -3.40596 2.40936 0
M  V30 874 H 80.9265 -2.91961 1.3769 0
M  V30 875 H 79.9785 -1.64132 3.43169 0
M  V30 876 H 81.2905 -2.34803 4.40079 0
M  V30 877 H 80.4445 -4.64938 3.89766 0
M  V30 878 H 79.1835 -3.97304 2.82844 0
M  V30 879 H 78.1885 -2.73244 4.77093 0
M  V30 880 H 79.4135 -3.43966 5.85546 0
M  V30 881 H 77.3595 -5.00181 4.24446 0
M  V30 882 H 77.2765 -4.67165 5.94384 0
M  V30 883 H 78.5445 -5.6893 5.3286 0
M  V30 884 N 82.7736 -1.49793 -0.48987 0
M  V30 885 C 84.0136 -1.61466 -1.25332 0
M  V30 886 C 84.3776 -0.299688 -1.89647 0
M  V30 887 O 85.5786 -0.291687 -2.67213 0
M  V30 888 C 83.8496 -2.74944 -2.28343 0
M  V30 889 S 85.4086 -3.06637 -3.13878 0
M  V30 890 H 82.2266 -0.569411 -0.425784 0
M  V30 891 H 84.8286 -1.875 -0.553541 0
M  V30 892 H 83.5326 -3.68994 -1.79643 0
M  V30 893 H 83.0636 -2.50938 -3.02975 0
M  V30 894 H 85.0786 -2.49015 -4.29192 0
M  V30 895 N 84.2517 0.741722 -1.39055 0
M  V30 896 C 85.1617 1.88621 -1.39496 0
M  V30 897 C 86.1777 1.71557 -0.290578 0
M  V30 898 O 87.3537 1.94275 -0.530954 0
M  V30 899 C 84.4187 3.24134 -1.23037 0
M  V30 900 C 83.4797 3.5364 -2.43387 0
M  V30 901 C 82.7127 4.82687 -2.27703 0
M  V30 902 O 82.9357 5.55922 -1.27696 0
M  V30 903 O 81.8697 5.1194 -3.16545 0
M  V30 904 H 85.6957 1.91203 -2.35956 0
M  V30 905 H 83.2807 0.888625 -1.20099 0
M  V30 906 H 85.1627 4.0513 -1.15964 0
M  V30 907 H 83.8377 3.22337 -0.296691 0
M  V30 908 H 82.7447 2.72758 -2.56035 0
M  V30 909 H 84.0777 3.60209 -3.35425 0
M  V30 910 N 85.7298 1.2412 0.971189 0
M  V30 911 C 86.6798 0.997551 2.05019 0
M  V30 912 C 87.6638 -0.0597747 1.60789 0
M  V30 913 O 88.8558 0.153516 1.76333 0
M  V30 914 C 85.9848 0.600557 3.38006 0
M  V30 915 C 85.0708 1.69377 3.88809 0
M  V30 916 N 85.4618 2.92586 4.12586 0
M  V30 917 C 83.7598 1.57048 4.17435 0
M  V30 918 C 84.4608 3.63431 4.54195 0
M  V30 919 N 83.4368 2.90979 4.59165 0
M  V30 920 H 87.2388 1.93316 2.21374 0
M  V30 921 H 84.7528 1.14194 1.1547 0
M  V30 922 H 86.7498 0.40725 4.14906 0
M  V30 923 H 85.4098 -0.327903 3.2304 0
M  V30 924 H 86.4208 3.288 4.00139 0
M  V30 925 H 83.0978 0.709798 4.11422 0
M  V30 926 H 84.4878 4.69102 4.81033 0
M  V30 927 N 87.2079 -1.17134 1.05439 0
M  V30 928 C 88.4359 -1.91372 0.786414 0
M  V30 929 C 88.8509 -1.76955 -0.658202 0
M  V30 930 O 88.2079 -1.10838 -1.44987 0
M  V30 931 C 88.2589 -3.42356 1.1608 0
M  V30 932 O 87.9799 -3.56332 2.54871 0
M  V30 933 C 89.4809 -4.33663 0.919322 0
M  V30 934 H 86.7009 -0.607118 0.285743 0
M  V30 935 H 89.2449 -1.48525 1.40572 0
M  V30 936 H 87.3999 -3.82939 0.586191 0
M  V30 937 H 87.8139 -4.49896 2.69618 0
M  V30 938 H 89.2879 -5.38099 1.231 0
M  V30 939 H 89.7649 -4.38959 -0.145359 0
M  V30 940 H 90.3709 -3.98796 1.47789 0
M  V30 941 N 88.686 -0.835752 -1.33615 0
M  V30 942 C 90.102 -0.523139 -1.50783 0
M  V30 943 C 90.302 0.950171 -1.77691 0
M  V30 944 O 89.358 1.73411 -1.83534 0
M  V30 945 C 90.671 -1.39378 -2.66448 0
M  V30 946 C 92.219 -1.39223 -2.80332 0
M  V30 947 C 92.694 -2.24765 -3.99055 0
M  V30 948 N 94.185 -2.22458 -4.06284 0
M  V30 949 C 94.92 -2.85386 -4.97336 0
M  V30 950 N 94.416 -3.57354 -5.93523 0
M  V30 951 N 96.209 -2.74872 -4.90308 0
M  V30 952 H 88.36 -1.78952 -1.14411 0
M  V30 953 H 90.623 -0.763297 -0.562212 0
M  V30 954 H 90.329 -2.44061 -2.53234 0
M  V30 955 H 90.203 -1.0676 -3.61776 0
M  V30 956 H 92.59 -0.353136 -2.92979 0
M  V30 957 H 92.671 -1.75846 -1.85773 0
M  V30 958 H 92.315 -3.28732 -3.87167 0
M  V30 959 H 92.245 -1.85485 -4.92852 0
M  V30 960 H 94.736 -1.70119 -3.37443 0
M  V30 961 H 95.049 -4.02584 -6.59656 0
M  V30 962 H 93.394 -3.61461 -5.93608 0
M  V30 963 H 96.585 -2.18213 -4.14126 0
M  V30 964 H 96.758 -3.24199 -5.61069 0
M  V30 965 N 90.1641 1.46063 -0.591896 0
M  V30 966 C 91.5751 1.85944 -0.167822 0
M  V30 967 C 91.9261 1.49429 1.27143 0
M  V30 968 O 91.0511 0.913515 1.96173 0
M  V30 969 C 91.6461 3.37489 -0.297794 0
M  V30 970 C 90.2051 3.76332 0.0714732 0
M  V30 971 C 89.3521 2.7006 -0.629509 0
M  V30 972 H 92.3031 1.37087 -0.799555 0
M  V30 973 H 92.3241 3.77532 0.474349 0
M  V30 974 H 91.8361 3.64034 -1.3454 0
M  V30 975 H 89.9371 3.55405 1.11886 0
M  V30 976 H 90.0501 4.78088 -0.311245 0
M  V30 977 H 88.4141 2.54607 -0.0687867 0
M  V30 978 H 89.1971 2.99444 -1.67894 0
M  V30 979 N 91.6422 0.330177 1.54103 0
M  V30 980 C 92.5892 -0.532762 2.24567 0
M  V30 981 C 93.5592 -1.10635 1.23892 0
M  V30 982 O 94.7442 -1.14546 1.5259 0
M  V30 983 C 91.8842 -1.6845 3.01195 0
M  V30 984 C 90.9972 -1.13951 4.167 0
M  V30 985 C 90.1322 -2.25746 4.80845 0
M  V30 986 C 89.1712 -1.6853 5.88442 0
M  V30 987 N 88.3082 -2.74014 6.46421 0
M  V30 988 H 93.1482 0.0746905 2.97906 0
M  V30 989 H 90.6852 0.048632 1.4702 0
M  V30 990 H 92.6432 -2.36234 3.43874 0
M  V30 991 H 91.2732 -2.26314 2.30178 0
M  V30 992 H 90.3252 -0.35301 3.78758 0
M  V30 993 H 91.6372 -0.680892 4.94131 0
M  V30 994 H 90.7912 -3.01422 5.26526 0
M  V30 995 H 89.5302 -2.74947 4.0281 0
M  V30 996 H 88.5352 -0.913543 5.42157 0
M  V30 997 H 89.7602 -1.20198 6.68378 0
M  V30 998 H 87.7062 -3.22494 5.71256 0
M  V30 999 H 87.6232 -2.32735 7.19285 0
M  V30 1000 H 88.8912 -3.49499 6.96757 0
M  V30 1001 N 93.1203 -1.57491 0.0584922 0
M  V30 1002 C 94.5313 -1.80526 -0.476138 0
M  V30 1003 C 94.8823 -0.971334 -1.70469 0
M  V30 1004 O 94.0073 -0.190012 -2.15564 0
M  V30 1005 C 94.6023 -3.27424 -0.870587 0
M  V30 1006 C 93.1613 -3.51351 -1.35015 0
M  V30 1007 C 92.3083 -2.75343 -0.32887 0
M  V30 1008 H 95.2593 -1.56133 0.284312 0
M  V30 1009 H 95.2803 -3.38745 -1.73299 0
M  V30 1010 H 94.7923 -3.88093 0.0237627 0
M  V30 1011 H 92.8933 -2.95971 -2.26345 0
M  V30 1012 H 93.0063 -4.60059 -1.33726 0
M  V30 1013 H 91.3703 -2.417 -0.803321 0
M  V30 1014 H 92.1533 -3.38743 0.557521 0
M  V30 1015 N 94.5984 0.214957 -1.56127 0
M  V30 1016 C 95.8464 0.936518 -1.79091 0
M  V30 1017 C 96.1674 1.84606 -0.628148 0
M  V30 1018 O 95.4374 1.92664 0.35462 0
M  V30 1019 H 94.0174 0.3488 -0.660566 0
M  V30 1020 H 96.6794 0.22523 -1.93594 0
M  V30 1021 H 95.7754 1.53943 -2.71492 0
M  V30 1022 N 96.0765 1.50051 0.48192 0
M  V30 1023 C 96.9865 1.7089 1.60728 0
M  V30 1024 C 98.0025 0.591788 1.63627 0
M  V30 1025 O 99.1785 0.868817 1.81696 0
M  V30 1026 C 96.2435 1.78855 2.97005 0
M  V30 1027 C 95.3045 3.02537 3.04581 0
M  V30 1028 C 94.5375 3.10112 4.34357 0
M  V30 1029 O 94.7605 2.24765 5.24249 0
M  V30 1030 O 93.6945 4.02747 4.47301 0
M  V30 1031 H 97.5205 2.66264 1.46072 0
M  V30 1032 H 95.1055 1.34018 0.660264 0
M  V30 1033 H 96.9875 1.86336 3.77964 0
M  V30 1034 H 95.6625 0.866628 3.11883 0
M  V30 1035 H 94.5695 3.00563 2.22739 0
M  V30 1036 H 95.9025 3.94272 2.94636 0
M  V30 1037 N 97.5546 -0.734337 1.39446 0
M  V30 1038 C 98.4846 -1.86155 1.40955 0
M  V30 1039 C 99.4656 -1.67898 0.272827 0
M  V30 1040 O 100.651 -1.88207 0.478743 0
M  V30 1041 C 97.7806 -3.23912 1.25294 0
M  V30 1042 C 96.7346 -3.56808 2.36373 0
M  V30 1043 C 96.0606 -4.93508 2.058 0
M  V30 1044 C 97.3606 -3.59713 3.78687 0
M  V30 1045 H 99.0546 -1.8515 2.35287 0
M  V30 1046 H 96.6006 -0.889367 1.13253 0
M  V30 1047 H 98.5536 -4.02443 1.2497 0
M  V30 1048 H 97.2776 -3.25446 0.274308 0
M  V30 1049 H 95.9366 -2.80606 2.35914 0
M  V30 1050 H 95.5846 -4.91623 1.06374 0
M  V30 1051 H 95.2846 -5.16486 2.80208 0
M  V30 1052 H 96.8086 -5.74396 2.07128 0
M  V30 1053 H 98.2226 -4.2832 3.81071 0
M  V30 1054 H 96.6196 -3.94209 4.52459 0
M  V30 1055 H 97.6896 -2.59504 4.09617 0
M  V30 1056 N 99.0327 -1.24633 -0.964593 0
M  V30 1057 C 99.9957 -1.0424 -2.04124 0
M  V30 1058 C 100.996 0.00137563 -1.608 0
M  V30 1059 O 102.186 -0.239883 -1.7254 0
M  V30 1060 C 99.3177 -0.580588 -3.3592 0
M  V30 1061 H 100.511 -1.99803 -2.23649 0
M  V30 1062 H 98.0637 -1.06899 -1.14027 0
M  V30 1063 H 98.7987 0.3781 -3.22088 0
M  V30 1064 H 98.5837 -1.33398 -3.6871 0
M  V30 1065 H 100.074 -0.459034 -4.15069 0
M  V30 1066 N 100.511 1.16574 -1.06058 0
M  V30 1067 C 101.758 1.87047 -0.775873 0
M  V30 1068 C 102.086 1.81562 0.697534 0
M  V30 1069 O 101.341 1.22445 1.52662 0
M  V30 1070 C 101.64 3.36195 -1.21275 0
M  V30 1071 C 101.306 3.6188 -2.68986 0
M  V30 1072 C 99.9678 3.68599 -3.09335 0
M  V30 1073 C 102.32 3.72648 -3.64394 0
M  V30 1074 C 99.6478 3.83584 -4.43937 0
M  V30 1075 C 102 3.89154 -4.98741 0
M  V30 1076 C 100.664 3.94114 -5.3873 0
M  V30 1077 H 99.9338 0.684452 -0.283912 0
M  V30 1078 H 102.581 1.37853 -1.32925 0
M  V30 1079 H 100.886 3.87505 -0.578528 0
M  V30 1080 H 102.583 3.89103 -0.969542 0
M  V30 1081 H 99.1728 3.57281 -2.36744 0
M  V30 1082 H 103.357 3.66769 -3.34356 0
M  V30 1083 H 98.6128 3.85677 -4.74409 0
M  V30 1084 H 102.787 3.96427 -5.72554 0
M  V30 1085 H 100.414 4.05478 -6.43033 0
M  V30 1086 N 101.989 0.842826 1.3317 0
M  V30 1087 C 103.405 0.531128 1.50503 0
M  V30 1088 C 103.605 -0.940734 1.78192 0
M  V30 1089 O 102.661 -1.72436 1.84451 0
M  V30 1090 C 103.974 1.40789 2.65705 0
M  V30 1091 C 105.522 1.40708 2.79589 0
M  V30 1092 C 105.997 2.26878 3.97857 0
M  V30 1093 N 107.488 2.24609 4.05099 0
M  V30 1094 C 108.223 2.88019 4.95815 0
M  V30 1095 N 107.719 3.60496 5.9162 0
M  V30 1096 N 109.512 2.77469 4.88843 0
M  V30 1097 H 101.663 1.79557 1.1346 0
M  V30 1098 H 103.926 0.766267 0.558156 0
M  V30 1099 H 103.632 2.454 2.51936 0
M  V30 1100 H 103.506 1.08677 3.61205 0
M  V30 1101 H 105.893 0.368668 2.92788 0
M  V30 1102 H 105.974 1.76829 1.84838 0
M  V30 1103 H 105.618 3.3078 3.85418 0
M  V30 1104 H 105.548 1.88096 4.91861 0
M  V30 1105 H 108.039 1.71906 3.36536 0
M  V30 1106 H 108.352 4.06076 6.57512 0
M  V30 1107 H 106.697 3.64604 5.91683 0
M  V30 1108 H 109.888 2.20406 4.12963 0
M  V30 1109 H 110.061 3.2717 5.59342 0
M  V30 1110 N 103.467 -1.45747 0.599634 0
M  V30 1111 C 104.414 -2.30467 -0.123849 0
M  V30 1112 C 105.384 -1.41632 -0.86774 0
M  V30 1113 O 106.569 -1.70568 -0.855056 0
M  V30 1114 C 103.709 -3.26402 -1.12051 0
M  V30 1115 C 102.822 -4.3034 -0.37832 0
M  V30 1116 C 101.957 -5.13389 -1.364 0
M  V30 1117 C 100.996 -6.09061 -0.609171 0
M  V30 1118 N 100.133 -6.84918 -1.54374 0
M  V30 1119 H 104.973 -2.91802 0.604627 0
M  V30 1120 H 102.51 -1.43797 0.309972 0
M  V30 1121 H 104.468 -3.80482 -1.7114 0
M  V30 1122 H 103.098 -2.66839 -1.8165 0
M  V30 1123 H 102.15 -3.78984 0.327929 0
M  V30 1124 H 103.462 -4.98354 0.210997 0
M  V30 1125 H 102.616 -5.7183 -2.02719 0
M  V30 1126 H 101.355 -4.45376 -1.98725 0
M  V30 1127 H 100.36 -5.49758 0.0676979 0
M  V30 1128 H 101.585 -6.79099 0.00891991 0
M  V30 1129 H 99.531 -6.19601 -2.15478 0
M  V30 1130 H 99.448 -7.49254 -1.00766 0
M  V30 1131 H 100.716 -7.47906 -2.19676 0
M  V30 1132 N 104.945 -0.338344 -1.53925 0
M  V30 1133 C 106.193 0.259245 -2.0043 0
M  V30 1134 C 106.514 1.51484 -1.22791 0
M  V30 1135 O 105.784 1.93037 -0.33368 0
M  V30 1136 H 104.364 0.0987845 -0.740439 0
M  V30 1137 H 107.026 -0.458302 -1.89435 0
M  V30 1138 H 106.122 0.505334 -3.07982 0
M  V30 1139 N 106.423 1.57458 -0.0668435 0
M  V30 1140 C 107.7 1.8469 0.644132 0
M  V30 1141 C 108.08 0.958343 1.88093 0
M  V30 1142 O 107.428 0.0233579 2.28488 0
M  V30 1143 C 107.638 3.34767 0.986509 0
M  V30 1144 C 108.986 4.02159 1.36212 0
M  V30 1145 O 110.01 3.39484 1.07839 0
M  V30 1146 O 108.869 5.12694 1.89227 0
M  V30 1147 H 105.963 0.762816 0.319437 0
M  V30 1148 H 108.509 1.6942 -0.0973986 0
M  V30 1149 H 107.281 3.91151 0.107883 0
M  V30 1150 H 106.904 3.55281 1.78497 0
M  V30 1151 N 107.901 -0.206675 1.56239 0
M  V30 1152 C 109.147 -0.930218 1.80208 0
M  V30 1153 C 109.48 -1.83387 0.638981 0
M  V30 1154 O 108.755 -1.91119 -0.361066 0
M  V30 1155 C 109.038 -1.75641 3.1436 0
M  V30 1156 C 108.891 -0.878257 4.41142 0
M  V30 1157 C 110.21 -2.73129 3.45092 0
M  V30 1158 H 107.329 -0.336742 0.655571 0
M  V30 1159 H 109.971 -0.198222 1.88963 0
M  V30 1160 H 108.121 -2.38048 3.07027 0
M  V30 1161 H 109.793 -0.269787 4.6051 0
M  V30 1162 H 108.036 -0.184385 4.33408 0
M  V30 1163 H 108.707 -1.49106 5.3148 0
M  V30 1164 H 111.183 -2.20856 3.52649 0
M  V30 1165 H 110.059 -3.28028 4.40101 0
M  V30 1166 H 110.32 -3.51606 2.68003 0
M  V30 1167 N 109.379 -1.50304 -0.473955 0
M  V30 1168 C 110.625 -1.61389 -1.22806 0
M  V30 1169 C 110.958 -0.311955 -1.91678 0
M  V30 1170 O 110.233 0.686384 -1.81986 0
M  V30 1171 C 110.516 -2.79219 -2.27396 0
M  V30 1172 C 110.369 -4.19286 -1.62848 0
M  V30 1173 C 111.688 -2.92614 -3.28732 0
M  V30 1174 H 108.807 -0.587399 -0.445119 0
M  V30 1175 H 111.449 -1.82681 -0.522265 0
M  V30 1176 H 109.599 -2.61195 -2.87592 0
M  V30 1177 H 111.271 -4.48892 -1.06271 0
M  V30 1178 H 109.514 -4.23677 -0.931693 0
M  V30 1179 H 110.185 -4.97655 -2.38838 0
M  V30 1180 H 112.661 -3.09105 -2.78556 0
M  V30 1181 H 111.537 -3.76688 -3.99246 0
M  V30 1182 H 111.798 -2.03107 -3.92683 0
M  V30 1183 N 110.857 0.726932 -1.39834 0
M  V30 1184 C 112.085 1.51613 -1.40787 0
M  V30 1185 C 112.5 1.88799 -0.00451505 0
M  V30 1186 O 111.857 1.54662 0.968809 0
M  V30 1187 C 111.908 2.79863 -2.28821 0
M  V30 1188 O 111.629 2.44253 -3.63692 0
M  V30 1189 C 113.13 3.73837 -2.38245 0
M  V30 1190 H 110.35 0.468264 -0.480593 0
M  V30 1191 H 112.894 0.897607 -1.83748 0
M  V30 1192 H 111.049 3.38027 -1.89252 0
M  V30 1193 H 111.463 3.26695 -4.1033 0
M  V30 1194 H 112.937 4.60699 -3.04073 0
M  V30 1195 H 113.414 4.16153 -1.40403 0
M  V30 1196 H 114.02 3.21589 -2.78317 0
M  V30 1197 N 112.336 1.25143 0.95797 0
M  V30 1198 C 113.585 1.0909 1.69654 0
M  V30 1199 C 113.898 -0.368548 1.92097 0
M  V30 1200 O 115.104 -0.649455 2.63618 0
M  V30 1201 C 113.56 1.90395 3.05414 0
M  V30 1202 C 113.168 3.4081 2.90779 0
M  V30 1203 C 114.912 1.82901 3.83076 0
M  V30 1204 C 112.819 4.14423 4.21909 0
M  V30 1205 H 111.749 0.404625 0.636235 0
M  V30 1206 H 114.4 1.4931 1.06672 0
M  V30 1207 H 112.782 1.42996 3.69281 0
M  V30 1208 H 113.956 3.95859 2.35865 0
M  V30 1209 H 112.271 3.49361 2.26575 0
M  V30 1210 H 114.868 2.35196 4.80195 0
M  V30 1211 H 115.211 0.796224 4.08615 0
M  V30 1212 H 115.744 2.28033 3.25954 0
M  V30 1213 H 112.483 5.18102 4.01561 0
M  V30 1214 H 112.003 3.64159 4.76601 0
M  V30 1215 H 113.682 4.21956 4.90471 0
M  V30 1216 N 113.814 -1.1601 1.06675 0
M  V30 1217 C 114.744 -2.22688 0.702307 0
M  V30 1218 C 115.725 -1.67306 -0.307032 0
M  V30 1219 O 116.91 -1.93352 -0.181305 0
M  V30 1220 C 114.04 -3.47178 0.092038 0
M  V30 1221 C 112.994 -4.15477 1.02777 0
M  V30 1222 C 112.32 -5.33963 0.28061 0
M  V30 1223 C 113.62 -4.66019 2.35846 0
M  V30 1224 H 115.314 -2.53429 1.59419 0
M  V30 1225 H 112.86 -1.21813 0.767961 0
M  V30 1226 H 114.813 -4.21037 -0.174814 0
M  V30 1227 H 113.537 -3.15749 -0.834877 0
M  V30 1228 H 112.196 -3.43549 1.27944 0
M  V30 1229 H 111.844 -4.98788 -0.649545 0
M  V30 1230 H 111.544 -5.806 0.904258 0
M  V30 1231 H 113.068 -6.10596 0.021396 0
M  V30 1232 H 114.482 -5.3144 2.15045 0
M  V30 1233 H 112.879 -5.23293 2.93743 0
M  V30 1234 H 113.949 -3.82023 2.98641 0
M  V30 1235 N 115.292 -0.849877 -1.32721 0
M  V30 1236 C 116.202 -0.293791 -2.32753 0
M  V30 1237 C 117.218 0.585906 -1.63839 0
M  V30 1238 O 118.394 0.487413 -1.95413 0
M  V30 1239 C 115.459 0.512752 -3.42887 0
M  V30 1240 C 114.52 -0.39252 -4.27502 0
M  V30 1241 C 113.753 0.375625 -5.32377 0
M  V30 1242 O 113.976 1.60613 -5.4732 0
M  V30 1243 O 112.91 -0.256094 -6.01355 0
M  V30 1244 H 116.736 -1.12242 -2.82197 0
M  V30 1245 H 114.321 -0.612685 -1.36259 0
M  V30 1246 H 116.203 0.970704 -4.10067 0
M  V30 1247 H 114.878 1.31826 -2.95641 0
M  V30 1248 H 113.785 -0.898547 -3.63149 0
M  V30 1249 H 115.118 -1.16309 -4.7826 0
M  V30 1250 N 116.77 1.45427 -0.607355 0
M  V30 1251 C 117.733 2.28974 0.101693 0
M  V30 1252 C 118.733 1.39754 0.795329 0
M  V30 1253 O 119.923 1.61878 0.643527 0
M  V30 1254 C 117.055 3.20768 1.15414 0
M  V30 1255 H 118.248 2.93147 -0.632844 0
M  V30 1256 H 115.801 1.51945 -0.366391 0
M  V30 1257 H 116.536 2.61395 1.91945 0
M  V30 1258 H 116.321 3.86489 0.66098 0
M  V30 1259 H 117.811 3.83589 1.65073 0
M  V30 1260 N 118.248 0.346503 1.53744 0
M  V30 1261 C 119.488 -0.249413 2.02873 0
M  V30 1262 C 119.852 -1.47532 1.22876 0
M  V30 1263 O 121.053 -2.1456 1.61918 0
M  V30 1264 C 119.324 -0.552909 3.53097 0
M  V30 1265 S 120.883 -1.12521 4.24128 0
M  V30 1266 H 117.701 -0.074042 0.707134 0
M  V30 1267 H 120.303 0.48495 1.8939 0
M  V30 1268 H 119.007 0.347083 4.0893 0
M  V30 1269 H 118.538 -1.31686 3.70705 0
M  V30 1270 H 120.553 -2.41075 4.33702 0
M  V30 1271 N 119.726 -1.57421 0.075193 0
M  V30 1272 C 120.636 -2.1642 -0.905511 0
M  V30 1273 C 121.652 -1.12828 -1.32461 0
M  V30 1274 O 122.828 -1.45109 -1.39661 0
M  V30 1275 C 119.893 -2.71693 -2.15369 0
M  V30 1276 C 118.954 -3.90171 -1.79068 0
M  V30 1277 C 118.187 -4.42798 -2.97936 0
M  V30 1278 O 118.41 -3.94416 -4.12058 0
M  V30 1279 O 117.344 -5.34085 -2.77555 0
M  V30 1280 H 121.17 -3.00588 -0.433626 0
M  V30 1281 H 118.755 -1.48664 -0.148067 0
M  V30 1282 H 120.637 -3.07104 -2.88557 0
M  V30 1283 H 119.312 -1.90582 -2.61649 0
M  V30 1284 H 118.219 -3.59606 -1.03122 0
M  V30 1285 H 119.552 -4.72584 -1.37569 0
M  V30 1286 N 121.204 0.198386 -1.56346 0
M  V30 1287 C 122.152 1.26538 -1.95169 0
M  V30 1288 C 123.146 1.47295 -0.836685 0
M  V30 1289 O 124.352 1.48195 -1.02167 0
M  V30 1290 H 120.727 0.424744 -0.620561 0
M  V30 1291 H 122.698 0.910904 -2.84157 0
M  V30 1292 C 121.447 2.6035 -2.30463 0
M  V30 1293 H 120.77 2.45192 -3.15786 0
M  V30 1294 H 122.21 3.33762 -2.61494 0
M  V30 1295 C 120.669 3.17096 -1.13806 0
M  V30 1296 O 121.199 3.99588 -0.41135 0
M  V30 1297 N 119.405 2.75795 -0.915736 0
M  V30 1298 H 118.952 2.08816 -1.50843 0
M  V30 1299 H 118.91 3.14101 -0.136979 0
M  V30 1300 N 122.682 1.50554 0.465978 0
M  V30 1301 C 123.629 1.6979 1.56333 0
M  V30 1302 C 124.599 0.539239 1.57103 0
M  V30 1303 O 125.784 0.770401 1.74555 0
M  V30 1304 C 122.924 1.80273 2.94271 0
M  V30 1305 C 122.037 3.07674 3.0325 0
M  V30 1306 C 121.172 3.08922 4.32135 0
M  V30 1307 C 120.211 4.30755 4.34875 0
M  V30 1308 N 119.348 4.29714 5.55239 0
M  V30 1309 H 124.188 2.63472 1.39235 0
M  V30 1310 H 121.725 1.30602 0.676873 0
M  V30 1311 H 123.683 1.84332 3.74269 0
M  V30 1312 H 122.313 0.900258 3.09992 0
M  V30 1313 H 121.365 3.13062 2.16094 0
M  V30 1314 H 122.677 3.97642 3.01135 0
M  V30 1315 H 121.831 3.11738 5.20485 0
M  V30 1316 H 120.57 2.16792 4.36866 0
M  V30 1317 H 119.575 4.28146 3.44922 0
M  V30 1318 H 120.8 5.24117 4.31831 0
M  V30 1319 H 118.746 3.4044 5.60746 0
M  V30 1320 H 118.663 5.13456 5.54886 0
M  V30 1321 H 119.931 4.36683 6.457 0
M  V30 1322 N 124.16 -0.719506 1.40217 0
M  V30 1323 C 125.385 -1.51371 1.4178 0
M  V30 1324 C 125.81 -1.88091 0.0182355 0
M  V30 1325 O 125.168 -1.52997 -0.972707 0
M  V30 1326 C 125.216 -2.768 2.31115 0
M  V30 1327 O 124.32 -3.73349 1.7517 0
M  V30 1328 H 123.661 -0.456529 0.482159 0
M  V30 1329 H 126.191 -0.88644 1.844 0
M  V30 1330 H 126.201 -3.25371 2.46167 0
M  V30 1331 H 124.876 -2.49407 3.3282 0
M  V30 1332 H 123.453 -3.32179 1.69444 0
M  V30 1333 N 125.638 -1.25649 -0.95132 0
M  V30 1334 C 126.884 -1.11766 -1.69941 0
M  V30 1335 C 127.239 0.33735 -1.89419 0
M  V30 1336 O 126.532 1.24491 -1.45645 0
M  V30 1337 C 126.726 -1.80909 -3.08231 0
M  V30 1338 C 126.555 -3.32984 -3.02245 0
M  V30 1339 C 125.325 -4.02247 -3.05819 0
M  V30 1340 C 127.523 -4.29332 -2.83157 0
M  V30 1341 N 125.505 -5.41072 -2.90024 0
M  V30 1342 C 126.876 -5.55265 -2.75828 0
M  V30 1343 C 128.931 -4.19707 -2.67863 0
M  V30 1344 C 127.634 -6.72671 -2.54767 0
M  V30 1345 C 129.66 -5.36809 -2.48173 0
M  V30 1346 C 129.022 -6.61683 -2.41567 0
M  V30 1347 H 125.121 -0.463708 -0.629682 0
M  V30 1348 H 127.705 -1.58796 -1.12659 0
M  V30 1349 H 125.876 -1.36369 -3.63673 0
M  V30 1350 H 127.608 -1.59739 -3.71841 0
M  V30 1351 H 124.363 -3.53531 -3.15139 0
M  V30 1352 H 124.787 -6.13938 -2.85323 0
M  V30 1353 H 129.429 -3.23907 -2.71743 0
M  V30 1354 H 127.147 -7.68577 -2.49629 0
M  V30 1355 H 130.733 -5.31224 -2.37259 0
M  V30 1356 H 129.613 -7.50768 -2.26531 0
M  V30 1357 N 127.117 1.15442 -1.07289 0
M  V30 1358 C 128.347 1.89821 -0.815576 0
M  V30 1359 C 128.755 1.7823 0.634867 0
M  V30 1360 O 128.098 1.13152 1.44715 0
M  V30 1361 C 128.16 3.40817 -1.14385 0
M  V30 1362 C 127.824 3.76193 -2.59476 0
M  V30 1363 C 128.821 3.77269 -3.57721 0
M  V30 1364 C 126.506 4.0652 -2.95037 0
M  V30 1365 C 128.5 4.08176 -4.89562 0
M  V30 1366 C 126.187 4.37092 -4.27076 0
M  V30 1367 C 127.185 4.37902 -5.24148 0
M  V30 1368 O 126.873 4.67741 -6.53815 0
M  V30 1369 H 126.605 0.608465 -0.294528 0
M  V30 1370 H 129.159 1.472 -1.43252 0
M  V30 1371 H 127.389 3.83835 -0.469865 0
M  V30 1372 H 129.078 3.96485 -0.869179 0
M  V30 1373 H 129.844 3.5394 -3.3159 0
M  V30 1374 H 125.723 4.05049 -2.20128 0
M  V30 1375 H 129.267 4.08723 -5.65324 0
M  V30 1376 H 125.164 4.59889 -4.5296 0
M  V30 1377 H 125.932 4.85509 -6.58957 0
M  V30 1378 N 128.595 0.856903 1.32268 0
M  V30 1379 C 130.011 0.547061 1.49931 0
M  V30 1380 C 130.211 -0.921781 1.7918 0
M  V30 1381 O 129.267 -1.70469 1.8627 0
M  V30 1382 C 130.58 1.43599 2.64196 0
M  V30 1383 C 132.128 1.43665 2.78081 0
M  V30 1384 C 132.603 2.31085 3.95428 0
M  V30 1385 N 134.094 2.28893 4.02694 0
M  V30 1386 C 134.829 2.93262 4.92732 0
M  V30 1387 N 134.325 3.66751 5.87763 0
M  V30 1388 N 136.118 2.82638 4.85873 0
M  V30 1389 H 128.269 1.8075 1.11549 0
M  V30 1390 H 130.532 0.772144 0.549997 0
M  V30 1391 H 130.238 2.48058 2.49319 0
M  V30 1392 H 130.112 1.12502 3.60032 0
M  V30 1393 H 132.499 0.399701 2.92381 0
M  V30 1394 H 132.58 1.7878 1.82952 0
M  V30 1395 H 132.224 3.34849 3.81888 0
M  V30 1396 H 132.154 1.93302 4.89839 0
M  V30 1397 H 134.645 1.75466 3.34694 0
M  V30 1398 H 134.958 4.13027 6.53168 0
M  V30 1399 H 133.303 3.70859 5.87783 0
M  V30 1400 H 136.494 2.24774 4.10602 0
M  V30 1401 H 136.667 3.33084 5.55841 0
M  V30 1402 N 130.073 -1.45103 0.615059 0
M  V30 1403 C 131.319 -2.02483 0.113347 0
M  V30 1404 C 131.652 -1.48146 -1.25564 0
M  V30 1405 O 130.927 -0.659104 -1.82992 0
M  V30 1406 C 131.21 -3.60005 0.0825278 0
M  V30 1407 C 131.063 -4.2466 1.48271 0
M  V30 1408 C 132.382 -4.35972 -0.601401 0
M  V30 1409 H 129.501 -0.735764 0.0426632 0
M  V30 1410 H 132.143 -1.72868 0.788461 0
M  V30 1411 H 130.293 -3.85367 -0.492378 0
M  V30 1412 H 131.965 -4.10458 2.10527 0
M  V30 1413 H 130.208 -3.82772 2.04127 0
M  V30 1414 H 130.879 -5.336 1.41332 0
M  V30 1415 H 133.355 -4.15947 -0.112666 0
M  V30 1416 H 132.231 -5.45697 -0.592097 0
M  V30 1417 H 132.492 -4.09391 -1.66887 0
M  V30 1418 N 131.551 -0.354651 -1.53558 0
M  V30 1419 C 132.498 0.496968 -2.25386 0
M  V30 1420 C 133.468 1.0865 -1.25636 0
M  V30 1421 O 134.653 1.12104 -1.54394 0
M  V30 1422 C 131.793 1.63637 -3.03837 0
M  V30 1423 C 130.906 1.07307 -4.18461 0
M  V30 1424 C 130.041 2.18068 -4.84376 0
M  V30 1425 C 129.08 1.59147 -5.91049 0
M  V30 1426 N 128.217 2.63695 -6.50699 0
M  V30 1427 H 133.057 -0.122075 -2.9775 0
M  V30 1428 H 130.594 -0.0720154 -1.46924 0
M  V30 1429 H 132.552 2.30734 -3.47589 0
M  V30 1430 H 131.182 2.22623 -2.33749 0
M  V30 1431 H 130.234 0.292708 -3.79272 0
M  V30 1432 H 131.546 0.602193 -4.95152 0
M  V30 1433 H 130.7 2.93007 -5.31255 0
M  V30 1434 H 129.439 2.68504 -4.07133 0
M  V30 1435 H 128.444 0.827175 -5.43542 0
M  V30 1436 H 129.669 1.09549 -6.70206 0
M  V30 1437 H 127.615 3.13365 -5.76315 0
M  V30 1438 H 127.532 2.21263 -7.22896 0
M  V30 1439 H 128.8 3.3837 -7.02229 0
M  V30 1440 N 133.029 1.57378 -0.0835403 0
M  V30 1441 C 133.979 2.09916 0.889905 0
M  V30 1442 C 134.963 1.01151 1.25129 0
M  V30 1443 O 136.155 1.27443 1.2283 0
M  V30 1444 C 133.284 2.67379 2.15322 0
M  V30 1445 C 132.37 3.83167 1.81779 0
M  V30 1446 N 132.761 4.91665 1.18739 0
M  V30 1447 C 131.059 3.92685 2.11459 0
M  V30 1448 C 131.76 5.72409 1.0355 0
M  V30 1449 N 130.736 5.21062 1.54906 0
M  V30 1450 H 134.538 2.91188 0.398378 0
M  V30 1451 H 132.052 1.61956 0.120013 0
M  V30 1452 H 134.049 3.0334 2.8599 0
M  V30 1453 H 132.709 1.87558 2.65051 0
M  V30 1454 H 133.72 5.10784 0.855604 0
M  V30 1455 H 130.397 3.23856 2.63483 0
M  V30 1456 H 131.787 6.69699 0.543425 0
M  V30 1457 N 134.507 -0.190092 1.56449 0
M  V30 1458 C 135.457 -1.23977 1.91347 0
M  V30 1459 C 136.441 -1.40747 0.779693 0
M  V30 1460 O 137.633 -1.43033 1.04262 0
M  V30 1461 C 134.762 -2.58347 2.26079 0
M  V30 1462 C 133.848 -2.4535 3.45925 0
M  V30 1463 N 134.239 -2.02039 4.63696 0
M  V30 1464 C 132.537 -2.76229 3.50162 0
M  V30 1465 C 133.238 -2.01053 5.4585 0
M  V30 1466 N 132.214 -2.42747 4.8639 0
M  V30 1467 H 136.016 -0.896318 2.79899 0
M  V30 1468 H 133.53 -0.398496 1.57435 0
M  V30 1469 H 135.527 -3.34173 2.49267 0
M  V30 1470 H 134.187 -2.93512 1.38856 0
M  V30 1471 H 135.198 -1.7267 4.88268 0
M  V30 1472 H 131.875 -3.15556 2.73369 0
M  V30 1473 H 133.265 -1.69426 6.50188 0
M  V30 1474 N 135.985 -1.50799 -0.457987 0
M  V30 1475 C 137.213 -1.66218 -1.23203 0
M  V30 1476 C 137.628 -0.350894 -1.85511 0
M  V30 1477 O 136.985 0.668546 -1.69814 0
M  V30 1478 C 137.036 -2.76291 -2.33121 0
M  V30 1479 O 136.757 -4.02338 -1.73366 0
M  V30 1480 C 138.258 -3.028 -3.2377 0
M  V30 1481 H 135.478 -0.558361 -0.372121 0
M  V30 1482 H 138.022 -1.97099 -0.545179 0
M  V30 1483 H 136.177 -2.48068 -2.97558 0
M  V30 1484 H 136.591 -4.63312 -2.4585 0
M  V30 1485 H 138.065 -3.8345 -3.97077 0
M  V30 1486 H 138.542 -2.14385 -3.83322 0
M  V30 1487 H 139.148 -3.32604 -2.65056 0
M  V30 1488 N 137.463 0.71206 -1.40597 0
M  V30 1489 C 138.688 1.50617 -1.42581 0
M  V30 1490 C 139.113 1.88079 -0.0282102 0
M  V30 1491 O 138.471 1.53511 0.964579 0
M  V30 1492 C 138.519 2.7557 -2.3258 0
M  V30 1493 O 137.623 3.72414 -1.77148 0
M  V30 1494 H 136.964 0.453966 -0.484573 0
M  V30 1495 H 139.494 0.876649 -1.84868 0
M  V30 1496 H 139.504 3.2406 -2.47889 0
M  V30 1497 H 138.179 2.47639 -3.34138 0
M  V30 1498 H 136.756 3.31276 -1.71204 0
M  V30 1499 N 138.941 1.26152 0.944643 0
M  V30 1500 C 140.189 1.11271 1.6871 0
M  V30 1501 C 140.51 -0.345166 1.91921 0
M  V30 1502 O 139.78 -1.24387 1.51343 0
M  V30 1503 H 138.36 0.408783 0.625224 0
M  V30 1504 H 141.022 1.58427 1.1352 0
M  V30 1505 H 140.118 1.62879 2.66227 0
M  V30 1506 N 140.419 -1.14872 1.07899 0
M  V30 1507 C 141.351 -2.19425 0.662231 0
M  V30 1508 C 142.364 -1.60231 -0.288079 0
M  V30 1509 O 143.553 -1.78336 -0.076534 0
M  V30 1510 C 140.653 -3.38867 -0.0470695 0
M  V30 1511 C 139.826 -4.27597 0.920831 0
M  V30 1512 C 138.885 -5.25616 0.247805 0
M  V30 1513 O 137.911 -5.62189 0.890599 0
M  V30 1514 N 139.113 -5.71746 -1.00435 0
M  V30 1515 H 141.878 -2.55797 1.56166 0
M  V30 1516 H 139.439 -1.30042 0.964404 0
M  V30 1517 H 141.431 -4.01497 -0.50813 0
M  V30 1518 H 140.001 -3.00864 -0.848523 0
M  V30 1519 H 139.221 -3.61982 1.56087 0
M  V30 1520 H 140.509 -4.83748 1.57688 0
M  V30 1521 H 139.907 -5.44153 -1.54642 0
M  V30 1522 H 138.464 -6.36389 -1.40899 0
M  V30 1523 N 141.898 -0.863906 -1.31812 0
M  V30 1524 C 142.808 -0.318461 -2.32428 0
M  V30 1525 C 143.824 0.568496 -1.64451 0
M  V30 1526 O 145 0.46666 -1.95919 0
M  V30 1527 C 142.065 0.476355 -3.43412 0
M  V30 1528 C 141.126 -0.43784 -4.27061 0
M  V30 1529 C 140.359 0.319138 -5.32745 0
M  V30 1530 O 140.582 1.54799 -5.48993 0
M  V30 1531 O 139.516 -0.319861 -6.01049 0
M  V30 1532 H 143.342 -1.15229 -2.80991 0
M  V30 1533 H 140.927 -0.627103 -1.35602 0
M  V30 1534 H 142.809 0.927156 -4.11074 0
M  V30 1535 H 141.484 1.28683 -2.97022 0
M  V30 1536 H 140.391 -0.937013 -3.62175 0
M  V30 1537 H 141.724 -1.21375 -4.77 0
M  V30 1538 N 143.376 1.44774 -0.622745 0
M  V30 1539 C 144.624 2.01721 -0.123655 0
M  V30 1540 C 144.945 1.49172 1.25589 0
M  V30 1541 O 144.215 0.691974 1.83272 0
M  V30 1542 H 142.795 0.745777 -0.0427225 0
M  V30 1543 H 145.457 1.77382 -0.807559 0
M  V30 1544 H 144.553 3.11984 -0.0849534 0
M  V30 1545 N 144.854 0.36279 1.53368 0
M  V30 1546 C 145.784 -0.476976 2.28576 0
M  V30 1547 C 146.765 -1.08631 1.30894 0
M  V30 1548 O 147.95 -1.10409 1.59761 0
M  V30 1549 C 145.08 -1.61828 3.07293 0
M  V30 1550 C 144.034 -1.13633 4.1264 0
M  V30 1551 C 143.36 -2.36766 4.79423 0
M  V30 1552 C 144.66 -0.223061 5.21823 0
M  V30 1553 H 146.354 0.150474 2.99022 0
M  V30 1554 H 143.9 0.0738103 1.43811 0
M  V30 1555 H 145.853 -2.21237 3.58653 0
M  V30 1556 H 144.577 -2.27292 2.34533 0
M  V30 1557 H 143.236 -0.564945 3.62221 0
M  V30 1558 H 142.884 -3.0068 4.03238 0
M  V30 1559 H 142.584 -2.05192 5.50609 0
M  V30 1560 H 144.108 -2.96865 5.33576 0
M  V30 1561 H 145.522 -0.724545 5.68703 0
M  V30 1562 H 143.919 0.001678 6.001 0
M  V30 1563 H 144.989 0.735553 4.79289 0
M  V30 1564 N 146.332 -1.57332 0.0918853 0
M  V30 1565 C 147.262 -2.16872 -0.865371 0
M  V30 1566 C 148.243 -1.10118 -1.29646 0
M  V30 1567 O 149.428 -1.38242 -1.36392 0
M  V30 1568 C 146.558 -2.74649 -2.12569 0
M  V30 1569 C 145.512 -3.86747 -1.83333 0
M  V30 1570 C 144.838 -4.31212 -3.16166 0
M  V30 1571 C 146.138 -5.10089 -1.1228 0
M  V30 1572 H 147.832 -2.97114 -0.369307 0
M  V30 1573 H 145.378 -1.42918 -0.176194 0
M  V30 1574 H 147.331 -3.14952 -2.7997 0
M  V30 1575 H 146.055 -1.91657 -2.64452 0
M  V30 1576 H 144.714 -3.46978 -1.18331 0
M  V30 1577 H 144.362 -3.45115 -3.6593 0
M  V30 1578 H 144.062 -5.06788 -2.97388 0
M  V30 1579 H 145.586 -4.74146 -3.84731 0
M  V30 1580 H 147 -5.47582 -1.69785 0
M  V30 1581 H 145.397 -5.91073 -1.03693 0
M  V30 1582 H 146.467 -4.84786 -0.105041 0
M  V30 1583 N 147.81 0.181792 -1.56548 0
M  V30 1584 C 148.773 1.20894 -1.94724 0
M  V30 1585 C 149.773 1.37738 -0.829747 0
M  V30 1586 O 150.963 1.35323 -1.09697 0
M  V30 1587 C 148.095 2.57593 -2.23291 0
M  V30 1588 H 149.288 0.882275 -2.86629 0
M  V30 1589 H 146.841 0.423838 -1.50444 0
M  V30 1590 H 147.576 2.95291 -1.34067 0
M  V30 1591 H 147.361 2.46735 -3.04736 0
M  V30 1592 H 148.851 3.31637 -2.53785 0
M  V30 1593 N 149.288 1.51039 0.449983 0
M  V30 1594 C 150.251 1.70863 1.5277 0
M  V30 1595 C 151.251 0.578846 1.5002 0
M  V30 1596 O 152.441 0.846213 1.52266 0
M  V30 1597 C 149.573 1.75341 2.9235 0
M  V30 1598 H 150.766 2.67034 1.36502 0
M  V30 1599 H 148.319 1.40838 0.677812 0
M  V30 1600 H 149.054 0.809383 3.14037 0
M  V30 1601 H 148.839 2.57436 2.95752 0
M  V30 1602 H 150.329 1.92559 3.70555 0
M  V30 1603 N 150.766 -0.704594 1.40972 0
M  V30 1604 C 152.014 -1.46169 1.39568 0
M  V30 1605 C 152.335 -1.95 0.00253745 0
M  V30 1606 O 151.605 -1.71095 -0.954114 0
M  V30 1607 H 150.185 -0.542326 0.513704 0
M  V30 1608 H 152.847 -0.834553 1.76128 0
M  V30 1609 H 151.943 -2.32922 2.07735 0
M  V30 1610 N 152.244 -1.26651 -0.937939 0
M  V30 1611 C 153.207 -1.08546 -2.01867 0
M  V30 1612 C 154.207 -0.0327327 -1.60767 0
M  V30 1613 O 155.397 -0.276427 -1.71993 0
M  V30 1614 C 152.529 -0.651711 -3.34613 0
M  V30 1615 H 153.722 -2.04502 -2.1936 0
M  V30 1616 H 151.275 -1.09294 -1.11734 0
M  V30 1617 H 152.01 0.309696 -3.22818 0
M  V30 1618 H 151.795 -1.41189 -3.65798 0
M  V30 1619 H 153.285 -0.546973 -4.14002 0
M  V30 1620 N 153.722 1.14298 -1.08507 0
M  V30 1621 C 154.652 2.21542 -0.737646 0
M  V30 1622 C 155.633 1.67773 0.280377 0
M  V30 1623 O 156.818 1.93616 0.150521 0
M  V30 1624 C 153.948 3.46988 -0.147259 0
M  V30 1625 C 152.902 4.13789 -1.09374 0
M  V30 1626 C 152.228 5.33449 -0.365524 0
M  V30 1627 C 153.528 4.62208 -2.4323 0
M  V30 1628 H 155.222 2.5086 -1.6343 0
M  V30 1629 H 152.768 1.20576 -0.787243 0
M  V30 1630 H 154.721 4.21262 0.107808 0
M  V30 1631 H 153.445 3.17037 0.784538 0
M  V30 1632 H 152.104 3.4147 -1.33393 0
M  V30 1633 H 151.752 4.99759 0.57011 0
M  V30 1634 H 151.452 5.79088 -0.996512 0
M  V30 1635 H 152.976 6.10485 -0.118534 0
M  V30 1636 H 154.39 5.27952 -2.23472 0
M  V30 1637 H 152.787 5.18553 -3.02031 0
M  V30 1638 H 153.857 3.77224 -3.04681 0
M  V30 1639 N 155.201 0.870884 1.31352 0
M  V30 1640 C 156.617 0.562932 1.49343 0
M  V30 1641 C 156.817 -0.902725 1.80148 0
M  V30 1642 O 155.873 -1.68484 1.88067 0
M  V30 1643 C 157.186 1.46393 2.62659 0
M  V30 1644 C 158.734 1.46607 2.76542 0
M  V30 1645 C 159.209 2.35266 3.92955 0
M  V30 1646 N 160.7 2.33151 4.00243 0
M  V30 1647 C 161.435 2.98471 4.89594 0
M  V30 1648 N 160.931 3.72964 5.8384 0
M  V30 1649 N 162.724 2.87775 4.82848 0
M  V30 1650 H 154.875 1.81923 1.09626 0
M  V30 1651 H 157.138 0.777934 0.541777 0
M  V30 1652 H 156.844 2.50689 2.46674 0
M  V30 1653 H 156.718 1.16314 3.58819 0
M  V30 1654 H 159.105 0.43069 2.9194 0
M  V30 1655 H 159.186 1.8071 1.81046 0
M  V30 1656 H 158.83 3.38881 3.78315 0
M  V30 1657 H 158.76 1.98487 4.87761 0
M  V30 1658 H 161.251 1.79006 3.32814 0
M  V30 1659 H 161.564 4.19932 6.4875 0
M  V30 1660 H 159.909 3.77073 5.83816 0
M  V30 1661 H 163.1 2.29116 4.08195 0
M  V30 1662 H 163.273 3.38961 5.52277 0
M  V30 1663 N 156.679 -1.44442 0.630414 0
M  V30 1664 C 157.589 -2.34476 -0.0761693 0
M  V30 1665 C 158.605 -1.52576 -0.836449 0
M  V30 1666 O 159.781 -1.85307 -0.788874 0
M  V30 1667 C 156.846 -3.30545 -1.04599 0
M  V30 1668 C 155.907 -4.28352 -0.28516 0
M  V30 1669 C 155.14 -5.19831 -1.20878 0
M  V30 1670 O 155.363 -5.15223 -2.44747 0
M  V30 1671 O 154.297 -5.97892 -0.693491 0
M  V30 1672 H 158.123 -2.96345 0.664324 0
M  V30 1673 H 155.708 -1.44203 0.39061 0
M  V30 1674 H 157.59 -3.89681 -1.60396 0
M  V30 1675 H 156.265 -2.7121 -1.76711 0
M  V30 1676 H 155.172 -3.72764 0.315837 0
M  V30 1677 H 156.505 -4.90605 0.395924 0
M  V30 1678 N 158.157 -0.370918 -1.53173 0
M  V30 1679 C 159.573 -0.0200818 -1.59587 0
M  V30 1680 C 159.773 1.46279 -1.38581 0
M  V30 1681 O 158.829 2.22506 -1.19363 0
M  V30 1682 C 160.142 -0.4808 -2.96831 0
M  V30 1683 C 161.69 -0.435477 -3.09956 0
M  V30 1684 C 162.165 -0.872092 -4.4962 0
M  V30 1685 N 163.656 -0.827364 -4.55751 0
M  V30 1686 C 164.391 -1.13683 -5.62018 0
M  V30 1687 N 163.887 -1.51584 -6.76014 0
M  V30 1688 N 165.68 -1.05927 -5.52029 0
M  V30 1689 H 157.831 -1.33652 -1.65079 0
M  V30 1690 H 160.094 -0.546634 -0.774529 0
M  V30 1691 H 159.8 -1.51577 -3.1736 0
M  V30 1692 H 159.674 0.129796 -3.76977 0
M  V30 1693 H 162.061 0.590371 -2.89134 0
M  V30 1694 H 162.142 -1.08164 -2.31806 0
M  V30 1695 H 161.786 -1.89608 -4.71181 0
M  V30 1696 H 161.716 -0.203127 -5.26208 0
M  V30 1697 H 164.207 -0.548216 -3.73902 0
M  V30 1698 H 164.52 -1.73609 -7.53047 0
M  V30 1699 H 162.865 -1.55454 -6.77391 0
M  V30 1700 H 166.056 -0.762321 -4.61851 0
M  V30 1701 H 166.229 -1.30378 -6.34749 0
M  V30 1702 N 159.635 1.57281 -0.100228 0
M  V30 1703 C 160.545 2.17833 0.870965 0
M  V30 1704 C 161.561 1.14921 1.30649 0
M  V30 1705 O 162.737 1.47313 1.37335 0
M  V30 1706 C 159.802 2.75085 2.1102 0
M  V30 1707 C 158.863 3.9297 1.72838 0
M  V30 1708 C 158.096 4.47482 2.90854 0
M  V30 1709 O 158.319 4.00922 4.05731 0
M  V30 1710 O 157.253 5.38433 2.69023 0
M  V30 1711 H 161.079 3.0124 0.38575 0
M  V30 1712 H 158.664 1.48881 0.124397 0
M  V30 1713 H 160.546 3.11656 2.83634 0
M  V30 1714 H 159.221 1.94721 2.58584 0
M  V30 1715 H 158.128 3.61201 0.973883 0
M  V30 1716 H 159.461 4.74713 1.30033 0
M  V30 1717 N 161.113 -0.173488 1.56642 0
M  V30 1718 C 162.076 -1.19859 1.95362 0
M  V30 1719 C 163.076 -1.37296 0.83704 0
M  V30 1720 O 164.266 -1.34739 1.10413 0
M  V30 1721 C 161.398 -2.56405 2.24654 0
M  V30 1722 H 162.591 -0.867062 2.87092 0
M  V30 1723 H 160.144 -0.415853 1.50666 0
M  V30 1724 H 160.879 -2.94576 1.35631 0
M  V30 1725 H 160.664 -2.45115 3.06041 0
M  V30 1726 H 162.154 -3.30287 2.5554 0
M  V30 1727 N 162.591 -1.51276 -0.441967 0
M  V30 1728 C 163.521 -1.752 -1.54361 0
M  V30 1729 C 164.502 -0.601682 -1.59103 0
M  V30 1730 O 165.687 -0.843913 -1.74905 0
M  V30 1731 C 162.817 -1.87282 -2.92477 0
M  V30 1732 C 161.771 -3.02687 -3.02596 0
M  V30 1733 C 161.097 -2.99947 -4.42647 0
M  V30 1734 C 162.397 -4.4273 -2.77106 0
M  V30 1735 H 164.091 -2.67442 -1.34592 0
M  V30 1736 H 161.637 -1.28694 -0.646048 0
M  V30 1737 H 163.59 -2.02602 -3.695 0
M  V30 1738 H 162.314 -0.916844 -3.13467 0
M  V30 1739 H 160.973 -2.87065 -2.28012 0
M  V30 1740 H 160.621 -2.02136 -4.60597 0
M  V30 1741 H 160.321 -3.77439 -4.50348 0
M  V30 1742 H 161.845 -3.17354 -5.2165 0
M  V30 1743 H 163.259 -4.58727 -3.43864 0
M  V30 1744 H 161.656 -5.21893 -2.96222 0
M  V30 1745 H 162.726 -4.53087 -1.72744 0
M  V30 1746 N 164.069 0.697108 -1.41344 0
M  V30 1747 C 165.294 1.49096 -1.44171 0
M  V30 1748 C 165.719 1.88038 -0.0481568 0
M  V30 1749 O 165.077 1.54525 0.948243 0
M  V30 1750 C 165.125 2.73088 -2.3549 0
M  V30 1751 O 164.229 3.70514 -1.81088 0
M  V30 1752 H 163.57 0.448801 -0.489361 0
M  V30 1753 H 166.1 0.856992 -1.85787 0
M  V30 1754 H 166.11 3.21413 -2.51312 0
M  V30 1755 H 164.785 2.44081 -3.36745 0
M  V30 1756 H 163.362 3.29441 -1.74708 0
M  V30 1757 N 165.547 1.27147 0.931209 0
M  V30 1758 C 166.51 1.09615 2.01289 0
M  V30 1759 C 167.51 0.0412581 1.60747 0
M  V30 1760 O 168.7 0.285545 1.71844 0
M  V30 1761 C 165.832 0.669447 3.34262 0
M  V30 1762 H 167.025 2.05662 2.18273 0
M  V30 1763 H 164.578 1.09885 1.11153 0
M  V30 1764 H 165.313 -0.292572 3.22978 0
M  V30 1765 H 165.098 1.43127 3.65044 0
M  V30 1766 H 166.588 0.568921 4.13706 0
M  V30 1767 N 167.025 -1.13721 1.09112 0
M  V30 1768 C 168.302 -1.81155 0.737706 0
M  V30 1769 C 168.682 -1.96253 -0.777683 0
M  V30 1770 O 168.03 -1.52807 -1.69889 0
M  V30 1771 C 168.24 -3.16392 1.47299 0
M  V30 1772 C 169.588 -3.91787 1.63671 0
M  V30 1773 O 170.612 -3.26005 1.43524 0
M  V30 1774 O 169.471 -5.0977 1.96969 0
M  V30 1775 H 166.565 -0.783518 0.26463 0
M  V30 1776 H 169.111 -1.20676 1.19312 0
M  V30 1777 H 167.883 -3.0061 2.50498 0
M  V30 1778 H 167.506 -3.8457 1.00953 0
M  V30 1779 N 168.503 -0.877838 -1.30888 0
M  V30 1780 C 169.914 -0.544193 -1.78593 0
M  V30 1781 C 170.265 0.939301 -1.72254 0
M  V30 1782 O 169.39 1.7337 -1.29505 0
M  V30 1783 C 169.985 -0.98105 -3.24285 0
M  V30 1784 C 168.544 -0.698935 -3.69854 0
M  V30 1785 C 167.691 -1.168 -2.51502 0
M  V30 1786 H 170.642 -1.06278 -1.17859 0
M  V30 1787 H 170.663 -0.307009 -3.79259 0
M  V30 1788 H 170.175 -2.06079 -3.28866 0
M  V30 1789 H 168.276 0.369112 -3.70767 0
M  V30 1790 H 168.389 -1.28148 -4.61644 0
M  V30 1791 H 166.753 -0.587535 -2.47831 0
M  V30 1792 H 167.536 -2.25533 -2.58824 0
M  V30 1793 N 169.982 1.44106 -0.638065 0
M  V30 1794 C 170.929 2.30715 0.062701 0
M  V30 1795 C 171.899 1.43882 0.829883 0
M  V30 1796 O 173.084 1.72775 0.809532 0
M  V30 1797 C 170.224 3.29258 1.03358 0
M  V30 1798 C 169.337 4.31192 0.26409 0
M  V30 1799 C 168.472 5.16825 1.22741 0
M  V30 1800 C 167.511 6.10462 0.447475 0
M  V30 1801 N 166.648 6.8877 1.36161 0
M  V30 1802 H 171.488 2.90096 -0.681781 0
M  V30 1803 H 169.025 1.42925 -0.347988 0
M  V30 1804 H 170.983 3.84886 1.60992 0
M  V30 1805 H 169.613 2.71562 1.74511 0
M  V30 1806 H 168.665 3.77981 -0.428295 0
M  V30 1807 H 169.977 4.97619 -0.343052 0
M  V30 1808 H 169.131 5.77004 1.87487 0
M  V30 1809 H 167.87 4.50488 1.86847 0
M  V30 1810 H 166.875 5.49386 -0.213433 0
M  V30 1811 H 168.1 6.78837 -0.188968 0
M  V30 1812 H 166.046 6.25096 1.98975 0
M  V30 1813 H 165.963 7.51663 0.808656 0
M  V30 1814 H 167.231 7.53467 1.99769 0
M  V30 1815 N 171.46 0.379036 1.52974 0
M  V30 1816 C 172.39 -0.452706 2.29069 0
M  V30 1817 C 173.371 -1.07237 1.32039 0
M  V30 1818 O 174.556 -1.08708 1.60923 0
M  V30 1819 C 171.686 -1.5856 3.08992 0
M  V30 1820 C 170.64 -1.0925 4.13822 0
M  V30 1821 C 169.966 -2.31668 4.81907 0
M  V30 1822 C 171.266 -0.167702 5.22031 0
M  V30 1823 H 172.96 0.182181 2.98845 0
M  V30 1824 H 170.506 0.0890592 1.43724 0
M  V30 1825 H 172.459 -2.1742 3.6098 0
M  V30 1826 H 171.183 -2.24792 2.36931 0
M  V30 1827 H 169.842 -0.526494 3.628 0
M  V30 1828 H 169.49 -2.96386 4.06404 0
M  V30 1829 H 169.19 -1.9934 5.52754 0
M  V30 1830 H 170.714 -2.91189 5.36695 0
M  V30 1831 H 172.128 -0.664186 5.6944 0
M  V30 1832 H 170.525 0.0653265 6.00064 0
M  V30 1833 H 171.595 0.786347 4.78482 0
M  V30 1834 N 172.938 -1.57226 0.108567 0
M  V30 1835 C 174.163 -1.99604 -0.563303 0
M  V30 1836 C 174.588 -0.987563 -1.6009 0
M  V30 1837 O 173.946 0.0421687 -1.81251 0
M  V30 1838 C 173.994 -3.40902 -1.17552 0
M  V30 1839 O 173.098 -3.42896 -2.2912 0
M  V30 1840 H 172.439 -0.648704 -0.1417 0
M  V30 1841 H 174.969 -2.03679 0.193961 0
M  V30 1842 H 174.979 -3.78886 -1.51357 0
M  V30 1843 H 173.654 -4.1382 -0.415445 0
M  V30 1844 H 172.231 -3.1672 -1.96832 0
M  V30 1845 N 174.416 0.165178 -1.56732 0
M  V30 1846 C 175.346 1.20651 -1.99914 0
M  V30 1847 C 176.327 1.45827 -0.875705 0
M  V30 1848 O 177.512 1.57057 -1.14223 0
M  V30 1849 C 174.642 2.54401 -2.36427 0
M  V30 1850 C 173.596 2.43782 -3.51787 0
M  V30 1851 C 172.922 3.82078 -3.7406 0
M  V30 1852 C 174.222 1.93732 -4.85041 0
M  V30 1853 H 175.916 0.847534 -2.87154 0
M  V30 1854 H 173.462 0.40625 -1.38151 0
M  V30 1855 H 175.415 3.27458 -2.65234 0
M  V30 1856 H 174.139 2.92098 -1.46103 0
M  V30 1857 H 172.798 1.73178 -3.23117 0
M  V30 1858 H 172.446 4.17179 -2.81017 0
M  V30 1859 H 172.146 3.7584 -4.51684 0
M  V30 1860 H 173.67 4.56712 -4.05274 0
M  V30 1861 H 175.084 2.56569 -5.12684 0
M  V30 1862 H 173.481 1.98428 -5.66345 0
M  V30 1863 H 174.551 0.891962 -4.76626 0
M  V30 1864 N 175.894 1.51508 0.433938 0
M  V30 1865 C 176.827 1.67756 1.54704 0
M  V30 1866 C 177.805 0.525127 1.53887 0
M  V30 1867 O 178.989 0.749393 1.72963 0
M  V30 1868 C 176.116 1.69424 2.9328 0
M  V30 1869 C 175.162 2.90673 3.12108 0
M  V30 1870 S 175.995 4.51431 2.88046 0
M  V30 1871 C 177.151 4.55849 4.28897 0
M  V30 1872 H 177.384 2.61904 1.40689 0
M  V30 1873 H 174.917 1.41235 0.62386 0
M  V30 1874 H 176.875 1.7107 3.73156 0
M  V30 1875 H 175.536 0.764464 3.04655 0
M  V30 1876 H 174.729 2.88251 4.13434 0
M  V30 1877 H 174.331 2.86786 2.40062 0
M  V30 1878 H 176.623 4.31699 5.22152 0
M  V30 1879 H 177.566 5.57676 4.36351 0
M  V30 1880 H 177.974 3.85137 4.12711 0
M  V30 1881 N 177.372 -0.689602 1.41712 0
M  V30 1882 C 178.783 -1.26973 1.36875 0
M  V30 1883 C 179.134 -1.96124 0.054748 0
M  V30 1884 O 178.259 -1.99141 -0.84687 0
M  V30 1885 C 178.854 -2.30912 2.47922 0
M  V30 1886 C 177.413 -2.84486 2.46464 0
M  V30 1887 C 176.56 -1.58603 2.27465 0
M  V30 1888 H 179.511 -0.48396 1.51141 0
M  V30 1889 H 179.532 -3.12331 2.17323 0
M  V30 1890 H 179.044 -1.80554 3.43543 0
M  V30 1891 H 177.145 -3.39005 1.54617 0
M  V30 1892 H 177.258 -3.34511 3.42986 0
M  V30 1893 H 175.622 -1.84632 1.75451 0
M  V30 1894 H 176.405 -1.10233 3.25121 0
M  V30 1895 N 178.85 -1.27639 -0.924453 0
M  V30 1896 C 180.096 -1.15345 -1.67532 0
M  V30 1897 C 180.451 0.297096 -1.90092 0
M  V30 1898 O 179.744 1.21374 -1.48253 0
M  V30 1899 C 179.938 -1.87407 -3.04325 0
M  V30 1900 C 179.767 -3.3932 -2.95114 0
M  V30 1901 C 178.537 -4.08644 -2.97218 0
M  V30 1902 C 180.735 -4.35242 -2.73987 0
M  V30 1903 N 178.717 -5.47102 -2.78482 0
M  V30 1904 C 180.088 -5.6099 -2.63988 0
M  V30 1905 C 182.143 -4.25294 -2.589 0
M  V30 1906 C 180.846 -6.77924 -2.40442 0
M  V30 1907 C 182.872 -5.41952 -2.36731 0
M  V30 1908 C 182.234 -6.66658 -2.27478 0
M  V30 1909 H 178.333 -0.47696 -0.619704 0
M  V30 1910 H 180.917 -1.6115 -1.09265 0
M  V30 1911 H 179.088 -1.44053 -3.60699 0
M  V30 1912 H 180.82 -1.6759 -3.68369 0
M  V30 1913 H 177.575 -3.60136 -3.07569 0
M  V30 1914 H 177.999 -6.19852 -2.72236 0
M  V30 1915 H 182.641 -3.29598 -2.64811 0
M  V30 1916 H 180.359 -7.73699 -2.3327 0
M  V30 1917 H 183.945 -5.36137 -2.25938 0
M  V30 1918 H 182.825 -7.55405 -2.10555 0
M  V30 1919 N 180.328 1.1314 -1.09713 0
M  V30 1920 C 181.575 1.84484 -0.834987 0
M  V30 1921 C 181.903 1.83689 0.639418 0
M  V30 1922 O 181.158 1.2724 1.4869 0
M  V30 1923 C 181.457 3.32167 -1.3191 0
M  V30 1924 C 181.123 3.53139 -2.80363 0
M  V30 1925 C 179.785 3.58571 -3.20905 0
M  V30 1926 C 182.137 3.60866 -3.76065 0
M  V30 1927 C 179.465 3.69267 -4.55916 0
M  V30 1928 C 181.817 3.73089 -5.10869 0
M  V30 1929 C 180.481 3.76775 -5.50996 0
M  V30 1930 H 179.751 0.675073 -0.305544 0
M  V30 1931 H 182.398 1.33554 -1.37243 0
M  V30 1932 H 180.703 3.85469 -0.701517 0
M  V30 1933 H 182.4 3.85821 -1.09284 0
M  V30 1934 H 178.99 3.49569 -2.47991 0
M  V30 1935 H 183.174 3.55946 -3.45855 0
M  V30 1936 H 178.43 3.70388 -4.86438 0
M  V30 1937 H 182.604 3.78011 -5.84877 0
M  V30 1938 H 180.231 3.84815 -6.55608 0
M  V30 1939 N 181.806 0.884767 1.30421 0
M  V30 1940 C 182.756 0.322846 2.25703 0
M  V30 1941 C 183.74 -0.548582 1.51259 0
M  V30 1942 O 184.932 -0.39304 1.72581 0
M  V30 1943 C 182.061 -0.461787 3.4018 0
M  V30 1944 C 181.147 0.423717 4.21978 0
M  V30 1945 N 181.538 1.52408 4.82292 0
M  V30 1946 C 179.836 0.218795 4.45463 0
M  V30 1947 C 180.537 2.07136 5.43571 0
M  V30 1948 N 179.513 1.36635 5.26148 0
M  V30 1949 H 183.315 1.16363 2.69883 0
M  V30 1950 H 180.829 0.73415 1.44859 0
M  V30 1951 H 182.826 -0.880985 4.07485 0
M  V30 1952 H 181.486 -1.30001 2.9754 0
M  V30 1953 H 182.497 1.90693 4.81515 0
M  V30 1954 H 179.174 -0.582275 4.1342 0
M  V30 1955 H 180.564 2.99538 6.01437 0
M  V30 1956 N 183.284 -1.43765 0.645699 0
M  V30 1957 C 184.532 -2.01499 0.155731 0
M  V30 1958 C 184.853 -1.51151 -1.232 0
M  V30 1959 O 184.123 -0.721044 -1.82148 0
M  V30 1960 H 182.703 -0.745003 0.0545817 0
M  V30 1961 H 185.365 -1.76075 0.835677 0
M  V30 1962 H 184.461 -3.1181 0.134577 0
M  V30 1963 N 184.763 -0.387143 -1.52771 0
M  V30 1964 C 185.71 0.449048 -2.26389 0
M  V30 1965 C 186.68 1.05961 -1.27912 0
M  V30 1966 O 187.865 1.08804 -1.56737 0
M  V30 1967 C 185.005 1.57155 -3.0724 0
M  V30 1968 C 184.118 0.984066 -4.20643 0
M  V30 1969 C 183.253 2.07745 -4.88892 0
M  V30 1970 C 182.292 1.46574 -5.94292 0
M  V30 1971 N 181.429 2.49834 -6.56146 0
M  V30 1972 H 186.269 -0.185205 -2.97424 0
M  V30 1973 H 183.806 -0.103164 -1.46738 0
M  V30 1974 H 185.764 2.23309 -3.52405 0
M  V30 1975 H 184.394 2.17615 -2.38419 0
M  V30 1976 H 183.446 0.212193 -3.79808 0
M  V30 1977 H 184.758 0.497029 -4.96318 0
M  V30 1978 H 183.912 2.81673 -5.3735 0
M  V30 1979 H 182.651 2.59807 -4.12737 0
M  V30 1980 H 181.656 0.711696 -5.45174 0
M  V30 1981 H 182.881 0.953088 -6.72379 0
M  V30 1982 H 180.827 3.0107 -5.82832 0
M  V30 1983 H 180.744 2.05879 -7.27427 0
M  V30 1984 H 182.012 3.23399 -7.09249 0
M  V30 1985 N 186.241 1.57166 -0.116904 0
M  V30 1986 C 187.49 1.94298 0.541407 0
M  V30 1987 C 187.803 1.00236 1.67964 0
M  V30 1988 O 189.009 1.26826 2.40057 0
M  V30 1989 C 187.465 3.45306 1.01449 0
M  V30 1990 C 187.073 4.47899 -0.0951738 0
M  V30 1991 C 188.817 3.91361 1.6443 0
M  V30 1992 C 186.724 5.90083 0.394491 0
M  V30 1993 H 185.654 0.725308 0.206019 0
M  V30 1994 H 188.305 1.82446 -0.196419 0
M  V30 1995 H 186.687 3.52385 1.80667 0
M  V30 1996 H 187.861 4.52486 -0.871374 0
M  V30 1997 H 186.176 4.11583 -0.631505 0
M  V30 1998 H 188.773 4.95004 2.02176 0
M  V30 1999 H 189.116 3.3122 2.52189 0
M  V30 2000 H 189.649 3.87073 0.917559 0
M  V30 2001 H 186.388 6.53974 -0.447004 0
M  V30 2002 H 185.908 5.88921 1.13722 0
M  V30 2003 H 187.587 6.41307 0.856399 0
M  V30 2004 N 187.719 -0.156864 1.56817 0
M  V30 2005 C 188.944 -0.890331 1.87318 0
M  V30 2006 C 189.369 -1.74394 0.704855 0
M  V30 2007 O 188.727 -1.77972 -0.345786 0
M  V30 2008 C 188.775 -1.73102 3.16336 0
M  V30 2009 O 187.879 -2.83422 2.99576 0
M  V30 2010 H 187.22 -0.24857 0.615718 0
M  V30 2011 H 189.75 -0.150649 2.04045 0
M  V30 2012 H 189.76 -2.12803 3.48107 0
M  V30 2013 H 188.435 -1.10412 4.00976 0
M  V30 2014 H 187.012 -2.47199 2.7919 0
M  V30 2015 N 189.197 -1.51736 -0.425897 0
M  V30 2016 C 190.445 -1.64644 -1.17204 0
M  V30 2017 C 190.766 -0.370486 -1.91448 0
M  V30 2018 O 190.036 0.614088 -1.86026 0
M  V30 2019 H 188.616 -0.606819 -0.435638 0
M  V30 2020 H 191.278 -1.88713 -0.487177 0
M  V30 2021 H 190.374 -2.47958 -1.89534 0
M  V30 2022 N 190.675 0.682077 -1.42076 0
M  V30 2023 C 191.607 1.80755 -1.40926 0
M  V30 2024 C 192.62 1.59833 -0.309398 0
M  V30 2025 O 193.809 1.69087 -0.572014 0
M  V30 2026 C 190.909 3.17744 -1.17865 0
M  V30 2027 C 190.082 3.65578 -2.40149 0
M  V30 2028 C 189.141 4.81277 -2.12742 0
M  V30 2029 O 188.167 4.92197 -2.85887 0
M  V30 2030 N 189.369 5.69474 -1.12602 0
M  V30 2031 H 192.134 1.82229 -2.37935 0
M  V30 2032 H 189.695 0.864903 -1.36861 0
M  V30 2033 H 191.687 3.9279 -0.9746 0
M  V30 2034 H 190.257 3.11214 -0.294068 0
M  V30 2035 H 189.477 2.81291 -2.76169 0
M  V30 2036 H 190.765 3.94278 -3.21593 0
M  V30 2037 H 190.163 5.63297 -0.520899 0
M  V30 2038 H 188.72 6.44363 -0.981842 0
M  V30 2039 N 192.153 1.28127 0.917671 0
M  V30 2040 C 193.063 1.13556 2.05286 0
M  V30 2041 C 194.079 0.0630914 1.73886 0
M  V30 2042 O 195.255 0.271598 1.9956 0
M  V30 2043 C 192.32 0.794676 3.3747 0
M  V30 2044 C 191.381 1.94909 3.82504 0
M  V30 2045 C 190.614 1.62437 5.0838 0
M  V30 2046 O 190.837 0.536905 5.67867 0
M  V30 2047 O 189.771 2.46677 5.4903 0
M  V30 2048 H 193.597 2.08844 2.20495 0
M  V30 2049 H 191.182 1.07409 1.03845 0
M  V30 2050 H 193.064 0.618344 4.16839 0
M  V30 2051 H 191.739 -0.128581 3.23445 0
M  V30 2052 H 190.646 2.18055 3.03978 0
M  V30 2053 H 191.979 2.85291 4.01086 0
M  V30 2054 N 193.631 -1.12557 1.10312 0
M  V30 2055 C 194.594 -2.16434 0.75424 0
M  V30 2056 C 195.594 -1.59278 -0.220685 0
M  V30 2057 O 196.784 -1.742 0.00230591 0
M  V30 2058 C 193.916 -3.40699 0.116987 0
M  V30 2059 H 195.109 -2.48811 1.67431 0
M  V30 2060 H 192.662 -1.27542 0.903475 0
M  V30 2061 H 193.397 -3.13921 -0.813877 0
M  V30 2062 H 193.182 -3.83459 0.818613 0
M  V30 2063 H 194.672 -4.17451 -0.111387 0
M  V30 2064 N 195.109 -0.891671 -1.2995 0
M  V30 2065 C 196.355 -0.514261 -1.96171 0
M  V30 2066 C 196.688 0.935506 -1.70182 0
M  V30 2067 O 195.963 1.66204 -1.01028 0
M  V30 2068 C 196.246 -0.797719 -3.51153 0
M  V30 2069 C 196.099 -2.2986 -3.86632 0
M  V30 2070 C 197.418 -0.278749 -4.39216 0
M  V30 2071 H 194.537 -0.188314 -0.712535 0
M  V30 2072 H 197.179 -1.11689 -1.53706 0
M  V30 2073 H 195.329 -0.284826 -3.87455 0
M  V30 2074 H 197.001 -2.88042 -3.60319 0
M  V30 2075 H 195.244 -2.76257 -3.34462 0
M  V30 2076 H 195.915 -2.44753 -4.94773 0
M  V30 2077 H 198.391 -0.717825 -4.09862 0
M  V30 2078 H 197.267 -0.506353 -5.46559 0
M  V30 2079 H 197.528 0.820266 -4.34424 0
M  V30 2080 N 196.587 1.43421 -0.653314 0
M  V30 2081 C 197.519 2.29071 0.0769134 0
M  V30 2082 C 198.532 1.42513 0.787017 0
M  V30 2083 O 199.721 1.66449 0.644757 0
M  V30 2084 C 196.821 3.19436 1.13199 0
M  V30 2085 C 195.994 4.34533 0.500006 0
M  V30 2086 C 195.053 5.05771 1.45198 0
M  V30 2087 O 194.079 5.61037 0.960538 0
M  V30 2088 N 195.281 5.0928 2.78594 0
M  V30 2089 H 198.046 2.92382 -0.658235 0
M  V30 2090 H 195.607 1.54112 -0.496104 0
M  V30 2091 H 197.599 3.63958 1.76964 0
M  V30 2092 H 196.169 2.57724 1.7691 0
M  V30 2093 H 195.389 3.92925 -0.316738 0
M  V30 2094 H 196.677 5.08766 0.0588345 0
M  V30 2095 H 196.075 4.65751 3.2108 0
M  V30 2096 H 194.632 5.57519 3.37662 0
M  V30 2097 N 198.065 0.39524 1.52563 0
M  V30 2098 C 198.997 -0.472201 2.24283 0
M  V30 2099 C 200.01 -1.02178 1.26742 0
M  V30 2100 O 201.199 -0.923097 1.52778 0
M  V30 2101 C 198.299 -1.66775 2.95024 0
M  V30 2102 C 197.472 -1.2445 4.19322 0
M  V30 2103 C 196.531 -2.30539 4.7301 0
M  V30 2104 O 195.557 -1.91702 5.35947 0
M  V30 2105 N 196.759 -3.6253 4.53379 0
M  V30 2106 H 199.524 0.142282 2.99362 0
M  V30 2107 H 197.085 0.2219 1.60372 0
M  V30 2108 H 199.077 -2.37283 3.27839 0
M  V30 2109 H 197.647 -2.18845 2.23217 0
M  V30 2110 H 196.867 -0.368069 3.92478 0
M  V30 2111 H 198.155 -0.938457 5.0007 0
M  V30 2112 H 197.553 -3.96841 4.03154 0
M  V30 2113 H 196.11 -4.29055 4.90668 0
M  V30 2114 N 199.544 -1.57102 0.125237 0
M  V30 2115 C 200.474 -2.18659 -0.819174 0
M  V30 2116 C 201.455 -1.12843 -1.27281 0
M  V30 2117 O 202.64 -1.41104 -1.33429 0
M  V30 2118 C 199.77 -2.79096 -2.06695 0
M  V30 2119 C 198.724 -3.90548 -1.75088 0
M  V30 2120 C 198.05 -4.37821 -3.06948 0
M  V30 2121 C 199.35 -5.12356 -1.01435 0
M  V30 2122 H 201.044 -2.9783 -0.306202 0
M  V30 2123 H 198.59 -1.4326 -0.145839 0
M  V30 2124 H 200.543 -3.2082 -2.73226 0
M  V30 2125 H 199.267 -1.97223 -2.60328 0
M  V30 2126 H 197.926 -3.49409 -1.10944 0
M  V30 2127 H 197.574 -3.52799 -3.58527 0
M  V30 2128 H 197.274 -5.12982 -2.86571 0
M  V30 2129 H 198.798 -4.822 -3.74587 0
M  V30 2130 H 200.212 -5.5106 -1.58132 0
M  V30 2131 H 198.609 -5.9314 -0.911319 0
M  V30 2132 H 199.679 -4.849 -0.00218681 0
M  V30 2133 N 201.022 0.148545 -1.56898 0
M  V30 2134 C 201.954 1.20852 -1.9475 0
M  V30 2135 C 202.967 1.39265 -0.843152 0
M  V30 2136 O 204.156 1.38864 -1.12156 0
M  V30 2137 C 201.256 2.57362 -2.20495 0
M  V30 2138 C 200.429 2.59947 -3.51776 0
M  V30 2139 C 199.488 3.77984 -3.6608 0
M  V30 2140 O 198.514 3.62929 -4.38487 0
M  V30 2141 N 199.716 4.95375 -3.02629 0
M  V30 2142 H 202.481 0.886804 -2.86279 0
M  V30 2143 H 200.042 0.338121 -1.5833 0
M  V30 2144 H 202.034 3.34833 -2.27307 0
M  V30 2145 H 200.604 2.81832 -1.35238 0
M  V30 2146 H 199.824 1.68403 -3.56419 0
M  V30 2147 H 201.112 2.58704 -4.38121 0
M  V30 2148 H 200.51 5.10509 -2.43715 0
M  V30 2149 H 199.067 5.70627 -3.15004 0
M  V30 2150 N 202.5 1.5196 0.417844 0
M  V30 2151 C 203.911 1.57851 0.997 0
M  V30 2152 C 204.262 0.413714 1.91789 0
M  V30 2153 O 203.387 -0.467057 2.113 0
M  V30 2154 C 203.982 2.86085 1.81496 0
M  V30 2155 C 202.541 2.94483 2.34428 0
M  V30 2156 C 201.688 2.52707 1.14169 0
M  V30 2157 H 204.639 1.57455 0.198392 0
M  V30 2158 H 204.66 2.70947 2.67148 0
M  V30 2159 H 204.172 3.70842 1.14446 0
M  V30 2160 H 202.273 2.142 3.04875 0
M  V30 2161 H 202.386 3.98546 2.65891 0
M  V30 2162 H 200.75 2.06353 1.49301 0
M  V30 2163 H 201.533 3.39828 0.486999 0
M  V30 2164 N 203.978 -0.674533 1.42435 0
M  V30 2165 C 205.389 -1.25514 1.38214 0
M  V30 2166 C 205.74 -1.96055 0.0755464 0
M  V30 2167 O 204.865 -2.00028 -0.8257 0
M  V30 2168 C 205.46 -2.28269 2.50357 0
M  V30 2169 C 204.019 -2.81856 2.49467 0
M  V30 2170 C 203.166 -1.56182 2.29134 0
M  V30 2171 H 206.117 -0.467902 1.51646 0
M  V30 2172 H 206.138 -3.10009 2.20624 0
M  V30 2173 H 205.65 -1.769 3.45439 0
M  V30 2174 H 203.751 -3.37346 1.58204 0
M  V30 2175 H 203.864 -3.30854 3.46515 0
M  V30 2176 H 202.228 -1.82761 1.774 0
M  V30 2177 H 203.011 -1.06778 3.26272 0
M  V30 2178 N 205.456 -1.28612 -0.910864 0
M  V30 2179 C 206.366 -1.14643 -2.0468 0
M  V30 2180 C 207.382 -0.0723121 -1.7385 0
M  V30 2181 O 208.558 -0.282178 -1.99413 0
M  V30 2182 C 205.623 -0.812561 -3.37044 0
M  V30 2183 C 204.684 -1.96935 -3.81465 0
M  V30 2184 C 203.917 -1.65131 -5.07511 0
M  V30 2185 O 204.14 -0.567013 -5.67575 0
M  V30 2186 O 203.074 -2.49585 -5.47714 0
M  V30 2187 H 206.9 -2.1001 -2.19384 0
M  V30 2188 H 204.485 -1.07958 -1.03274 0
M  V30 2189 H 206.367 -0.640441 -4.16505 0
M  V30 2190 H 205.042 0.111426 -3.23508 0
M  V30 2191 H 203.949 -2.19664 -3.02818 0
M  V30 2192 H 205.282 -2.87414 -3.99567 0
M  V30 2193 N 206.934 1.1197 -1.10907 0
M  V30 2194 C 208.211 1.79959 -0.766432 0
M  V30 2195 C 208.591 1.97466 0.746363 0
M  V30 2196 O 207.939 1.55491 1.67436 0
M  V30 2197 C 208.149 3.14009 -1.52314 0
M  V30 2198 C 209.497 3.89134 -1.69883 0
M  V30 2199 O 210.521 3.2368 -1.48692 0
M  V30 2200 O 209.38 5.06572 -2.05054 0
M  V30 2201 H 206.474 0.779208 -0.277062 0
M  V30 2202 H 209.02 1.18762 -1.21217 0
M  V30 2203 H 207.792 2.96587 -2.55249 0
M  V30 2204 H 207.415 3.82915 -1.07059 0
M  V30 2205 N 208.412 0.89855 1.29475 0
M  V30 2206 C 209.66 0.522847 1.9522 0
M  V30 2207 C 209.981 -0.93371 1.71192 0
M  V30 2208 O 209.251 -1.65823 1.04305 0
M  V30 2209 H 207.831 0.190366 0.722336 0
M  V30 2210 H 210.493 1.14459 1.5775 0
M  V30 2211 H 209.589 0.704476 3.04045 0
M  V30 2212 N 209.89 -1.43072 0.660911 0
M  V30 2213 C 210.82 -2.33497 -0.0122829 0
M  V30 2214 C 211.801 -1.49903 -0.803925 0
M  V30 2215 O 212.986 -1.78546 -0.763864 0
M  V30 2216 C 210.116 -3.33363 -0.973994 0
M  V30 2217 C 209.07 -4.27003 -0.291928 0
M  V30 2218 C 208.396 -5.16967 -1.36562 0
M  V30 2219 C 209.696 -5.15816 0.820462 0
M  V30 2220 H 211.39 -2.90038 0.742873 0
M  V30 2221 H 208.936 -1.39461 0.358688 0
M  V30 2222 H 210.889 -3.95524 -1.45392 0
M  V30 2223 H 209.613 -2.75095 -1.7604 0
M  V30 2224 H 208.272 -3.66217 0.167623 0
M  V30 2225 H 207.92 -4.55034 -2.14366 0
M  V30 2226 H 207.62 -5.80441 -0.914454 0
M  V30 2227 H 209.144 -5.82003 -1.84675 0
M  V30 2228 H 210.558 -5.71742 0.422366 0
M  V30 2229 H 208.955 -5.8805 1.19656 0
M  V30 2230 H 210.025 -4.55045 1.67518 0
M  V30 2231 N 211.368 -0.403325 -1.52352 0
M  V30 2232 C 212.615 0.174347 -2.01748 0
M  V30 2233 C 212.943 1.45636 -1.2892 0
M  V30 2234 O 212.198 1.9193 -0.382258 0
M  V30 2235 C 212.497 0.474665 -3.54234 0
M  V30 2236 C 212.163 -0.717458 -4.45155 0
M  V30 2237 C 210.825 -1.04447 -4.69728 0
M  V30 2238 C 213.177 -1.51432 -4.98716 0
M  V30 2239 C 210.505 -2.16963 -5.45109 0
M  V30 2240 C 212.857 -2.6302 -5.75329 0
M  V30 2241 C 211.521 -2.96213 -5.98175 0
M  V30 2242 H 210.791 0.0637981 -0.738248 0
M  V30 2243 H 213.438 -0.543553 -1.83624 0
M  V30 2244 H 211.743 1.27406 -3.70506 0
M  V30 2245 H 213.44 0.934496 -3.89959 0
M  V30 2246 H 210.03 -0.452596 -4.26204 0
M  V30 2247 H 214.214 -1.27491 -4.79645 0
M  V30 2248 H 209.47 -2.43034 -5.61021 0
M  V30 2249 H 213.644 -3.25158 -6.15829 0
M  V30 2250 H 211.271 -3.83516 -6.56368 0
M  V30 2251 N 212.846 1.57033 -0.133567 0
M  V30 2252 C 213.776 2.1909 0.807567 0
M  V30 2253 C 214.757 1.13517 1.26681 0
M  V30 2254 O 215.942 1.41809 1.32679 0
M  V30 2255 C 213.072 2.80188 2.05212 0
M  V30 2256 C 212.026 3.91471 1.73015 0
M  V30 2257 C 211.352 4.39443 3.04622 0
M  V30 2258 C 212.652 5.12886 0.987168 0
M  V30 2259 H 214.346 2.97988 0.290403 0
M  V30 2260 H 211.892 1.43335 0.138239 0
M  V30 2261 H 213.845 3.22264 2.71521 0
M  V30 2262 H 212.569 1.98601 2.59278 0
M  V30 2263 H 211.228 3.49993 1.0909 0
M  V30 2264 H 210.876 3.54695 3.56651 0
M  V30 2265 H 210.576 5.14495 2.83847 0
M  V30 2266 H 212.1 4.8418 3.72024 0
M  V30 2267 H 213.514 5.51891 1.55208 0
M  V30 2268 H 211.911 5.93615 0.87985 0
M  V30 2269 H 212.981 4.84894 -0.0235286 0
M  V30 2270 N 214.325 -0.140222 1.56975 0
M  V30 2271 C 215.571 -0.852949 1.83991 0
M  V30 2272 C 215.904 -1.80512 0.716187 0
M  V30 2273 O 215.179 -1.92479 -0.279681 0
M  V30 2274 C 215.462 -1.6215 3.21527 0
M  V30 2275 C 215.315 -0.690363 4.4447 0
M  V30 2276 C 216.634 -2.58247 3.56366 0
M  V30 2277 H 213.753 -0.308634 0.669264 0
M  V30 2278 H 216.395 -0.117898 1.89634 0
M  V30 2279 H 214.545 -2.24812 3.16847 0
M  V30 2280 H 216.217 -0.0742264 4.6124 0
M  V30 2281 H 214.46 -0.000396433 4.338 0
M  V30 2282 H 215.131 -1.2643 5.37326 0
M  V30 2283 H 217.607 -2.05701 3.61699 0
M  V30 2284 H 216.483 -3.09067 4.53617 0
M  V30 2285 H 216.744 -3.39923 2.82674 0
M  V30 2286 N 215.803 -1.52179 -0.40978 0
M  V30 2287 C 217.219 -1.40968 -0.74835 0
M  V30 2288 C 217.419 -0.513657 -1.94843 0
M  V30 2289 O 216.475 0.0208026 -2.52491 0
M  V30 2290 C 217.788 -2.83483 -1.0029 0
M  V30 2291 C 219.336 -2.92821 -1.10565 0
M  V30 2292 C 219.811 -4.36303 -1.39296 0
M  V30 2293 N 221.302 -4.39535 -1.46162 0
M  V30 2294 C 222.037 -5.47614 -1.70018 0
M  V30 2295 N 221.533 -6.65812 -1.91483 0
M  V30 2296 N 223.326 -5.35129 -1.72027 0
M  V30 2297 H 215.477 -2.0897 0.380186 0
M  V30 2298 H 217.74 -0.94185 0.107805 0
M  V30 2299 H 217.446 -3.51168 -0.193461 0
M  V30 2300 H 217.32 -3.24487 -1.92323 0
M  V30 2301 H 219.707 -2.25318 -1.90568 0
M  V30 2302 H 219.788 -2.55276 -0.16369 0
M  V30 2303 H 219.432 -5.04366 -0.598109 0
M  V30 2304 H 219.362 -4.71385 -2.34743 0
M  V30 2305 H 221.853 -3.54332 -1.31367 0
M  V30 2306 H 222.166 -7.43964 -2.09134 0
M  V30 2307 H 220.511 -6.68879 -1.88749 0
M  V30 2308 H 223.702 -4.41764 -1.54796 0
M  V30 2309 H 223.875 -6.19433 -1.9028 0
M  V30 2310 N 217.281 0.66697 -1.42791 0
M  V30 2311 C 218.191 1.80962 -1.49299 0
M  V30 2312 C 219.207 1.69775 -0.381108 0
M  V30 2313 O 220.383 1.91188 -0.633188 0
M  V30 2314 C 217.448 3.17156 -1.40045 0
M  V30 2315 C 216.509 3.40242 -2.6179 0
M  V30 2316 C 215.742 4.69939 -2.52969 0
M  V30 2317 O 215.965 5.48372 -1.56985 0
M  V30 2318 O 214.899 4.94441 -3.43237 0
M  V30 2319 H 218.725 1.78427 -2.45759 0
M  V30 2320 H 216.31 0.823713 -1.24641 0
M  V30 2321 H 218.192 3.98413 -1.37276 0
M  V30 2322 H 216.867 3.20312 -0.467138 0
M  V30 2323 H 215.774 2.58802 -2.70134 0
M  V30 2324 H 217.107 3.41923 -3.54047 0
M  V30 2325 N 218.759 1.29093 0.90403 0
M  V30 2326 C 219.984 1.19809 1.69294 0
M  V30 2327 C 220.409 -0.238481 1.86582 0
M  V30 2328 O 219.767 -1.1723 1.383 0
M  V30 2329 C 219.815 1.91202 3.05736 0
M  V30 2330 O 218.919 1.22611 3.93752 0
M  V30 2331 H 218.26 0.415385 0.518027 0
M  V30 2332 H 220.79 1.70586 1.12967 0
M  V30 2333 H 220.8 1.99487 3.55906 0
M  V30 2334 H 219.475 2.95692 2.92471 0
M  V30 2335 H 218.052 1.22554 3.52186 0
M  V30 2336 N 220.237 -1.11381 1.11499 0
M  V30 2337 C 221.2 -2.15622 0.777153 0
M  V30 2338 C 222.2 -1.59504 -0.203779 0
M  V30 2339 O 223.39 -1.74188 0.020782 0
M  V30 2340 C 220.522 -3.40556 0.153116 0
M  V30 2341 H 221.715 -2.47021 1.70061 0
M  V30 2342 H 219.268 -1.26577 0.916952 0
M  V30 2343 H 220.003 -3.14767 -0.780536 0
M  V30 2344 H 219.788 -3.8257 0.859238 0
M  V30 2345 H 221.278 -4.17546 -0.0671044 0
M  V30 2346 N 221.715 -0.905404 -1.28997 0
M  V30 2347 C 223.131 -0.60233 -1.47798 0
M  V30 2348 C 223.331 0.854645 -1.82478 0
M  V30 2349 O 222.387 1.63439 -1.92468 0
M  V30 2350 C 223.7 -1.53306 -2.58685 0
M  V30 2351 C 225.248 -1.53887 -2.72558 0
M  V30 2352 C 225.723 -2.45602 -3.86579 0
M  V30 2353 N 227.214 -2.43681 -3.93921 0
M  V30 2354 C 227.949 -3.11347 -4.81509 0
M  V30 2355 N 227.445 -3.88313 -5.73746 0
M  V30 2356 N 229.238 -3.00476 -4.75048 0
M  V30 2357 H 221.389 -1.84765 -1.04764 0
M  V30 2358 H 223.652 -0.792025 -0.520961 0
M  V30 2359 H 223.358 -2.57141 -2.39941 0
M  V30 2360 H 223.232 -1.25787 -3.55609 0
M  V30 2361 H 225.619 -0.507941 -2.90696 0
M  V30 2362 H 225.7 -1.85447 -1.76191 0
M  V30 2363 H 225.344 -3.48792 -3.69197 0
M  V30 2364 H 225.274 -2.11349 -4.82327 0
M  V30 2365 H 227.765 -1.87767 -3.27951 0
M  V30 2366 H 228.078 -4.36985 -6.37389 0
M  V30 2367 H 226.423 -3.92419 -5.73614 0
M  V30 2368 H 229.614 -2.39858 -4.01977 0
M  V30 2369 H 229.787 -3.53485 -5.43095 0
M  V30 2370 N 223.193 1.4272 -0.668489 0
M  V30 2371 C 224.143 2.27971 0.0363806 0
M  V30 2372 C 225.127 1.40741 0.779794 0
M  V30 2373 O 226.319 1.64245 0.659745 0
M  V30 2374 C 223.448 3.28673 0.991398 0
M  V30 2375 C 222.534 4.23388 0.245658 0
M  V30 2376 N 222.925 5.00267 -0.746069 0
M  V30 2377 C 221.223 4.43355 0.484988 0
M  V30 2378 C 221.924 5.69396 -1.19009 0
M  V30 2379 N 220.9 5.41095 -0.521287 0
M  V30 2380 H 224.702 2.84833 -0.724394 0
M  V30 2381 H 222.216 1.54607 -0.497028 0
M  V30 2382 H 224.213 3.88543 1.51129 0
M  V30 2383 H 222.873 2.73373 1.75207 0
M  V30 2384 H 223.884 5.05525 -1.12537 0
M  V30 2385 H 220.561 3.99104 1.22565 0
M  V30 2386 H 221.951 6.41083 -2.01153 0
M  V30 2387 N 224.671 0.411399 1.52136 0
M  V30 2388 C 226.082 -0.0576826 1.86611 0
M  V30 2389 C 226.433 -1.44238 1.33003 0
M  V30 2390 O 225.558 -2.05759 0.670228 0
M  V30 2391 C 226.153 -0.111448 3.38617 0
M  V30 2392 C 224.712 -0.52487 3.72723 0
M  V30 2393 C 223.859 0.299176 2.75681 0
M  V30 2394 H 226.81 0.628368 1.4573 0
M  V30 2395 H 226.831 -0.926252 3.69054 0
M  V30 2396 H 226.343 0.896488 3.77604 0
M  V30 2397 H 224.444 -1.53936 3.39315 0
M  V30 2398 H 224.557 -0.267681 4.78352 0
M  V30 2399 H 222.921 -0.238814 2.53578 0
M  V30 2400 H 223.704 1.3055 3.17508 0
M  V30 2401 N 226.149 -1.5696 0.141893 0
M  V30 2402 C 227.397 -1.95573 -0.509484 0
M  V30 2403 C 227.718 -1.02746 -1.65736 0
M  V30 2404 O 226.988 -0.0880311 -1.95702 0
M  V30 2405 H 225.568 -0.722115 -0.191205 0
M  V30 2406 H 228.23 -1.93697 0.216196 0
M  V30 2407 H 227.326 -2.99171 -0.889 0
M  V30 2408 N 227.627 0.131896 -1.57047 0
M  V30 2409 C 228.904 0.871495 -1.75112 0
M  V30 2410 C 229.284 1.9866 -0.713949 0
M  V30 2411 O 228.632 2.26965 0.264447 0
M  V30 2412 C 228.842 1.40007 -3.19686 0
M  V30 2413 C 230.19 1.85752 -3.81813 0
M  V30 2414 O 231.214 1.49715 -3.23209 0
M  V30 2415 O 230.073 2.5226 -4.84796 0
M  V30 2416 H 227.167 0.412919 -0.716538 0
M  V30 2417 H 229.713 0.116641 -1.69299 0
M  V30 2418 H 228.485 0.599404 -3.86682 0
M  V30 2419 H 228.108 2.218 -3.29986 0
M  V30 2420 N 229.106 1.52395 0.401703 0
M  V30 2421 C 230.336 1.70429 1.1678 0
M  V30 2422 C 230.744 0.416702 1.84554 0
M  V30 2423 O 230.087 -0.617697 1.73003 0
M  V30 2424 C 230.149 2.78919 2.26814 0
M  V30 2425 C 229.813 4.20437 1.79113 0
M  V30 2426 C 230.81 5.04028 1.27482 0
M  V30 2427 C 228.495 4.66704 1.85722 0
M  V30 2428 C 230.489 6.31961 0.830913 0
M  V30 2429 C 228.176 5.94625 1.40942 0
M  V30 2430 C 229.174 6.77082 0.897128 0
M  V30 2431 O 228.862 8.02607 0.455822 0
M  V30 2432 H 228.594 0.574272 0.356634 0
M  V30 2433 H 231.148 1.99767 0.477724 0
M  V30 2434 H 229.378 2.44973 2.99207 0
M  V30 2435 H 231.067 2.8548 2.88541 0
M  V30 2436 H 231.833 4.69471 1.21744 0
M  V30 2437 H 227.712 4.0262 2.24539 0
M  V30 2438 H 231.256 6.96271 0.430368 0
M  V30 2439 H 227.153 6.28688 1.46362 0
M  V30 2440 H 227.921 8.16453 0.578457 0
M  V30 2441 N 230.584 -0.659388 1.43143 0
M  V30 2442 C 231.83 -1.42145 1.44647 0
M  V30 2443 C 232.163 -1.9408 0.0681907 0
M  V30 2444 O 231.438 -1.71899 -0.910007 0
M  V30 2445 C 231.721 -2.60735 2.48373 0
M  V30 2446 C 231.574 -2.14332 3.95451 0
M  V30 2447 C 232.893 -3.62951 2.48906 0
M  V30 2448 H 230.012 -0.51552 0.526696 0
M  V30 2449 H 232.654 -0.748069 1.74654 0
M  V30 2450 H 230.804 -3.18184 2.22916 0
M  V30 2451 H 232.476 -1.61932 4.31944 0
M  V30 2452 H 230.719 -1.4576 4.08578 0
M  V30 2453 H 231.39 -2.99583 4.63631 0
M  V30 2454 H 233.866 -3.1525 2.71582 0
M  V30 2455 H 232.742 -4.43487 3.23435 0
M  V30 2456 H 233.003 -4.15126 1.52061 0
M  V30 2457 N 232.062 -1.29571 -0.897171 0
M  V30 2458 C 232.992 -1.17473 -2.01798 0
M  V30 2459 C 233.973 -0.068323 -1.69963 0
M  V30 2460 O 235.158 -0.248239 -1.92607 0
M  V30 2461 C 232.288 -0.853099 -3.36659 0
M  V30 2462 C 231.242 -1.9161 -3.82713 0
M  V30 2463 C 230.568 -1.44773 -5.14728 0
M  V30 2464 C 231.868 -3.32535 -4.02763 0
M  V30 2465 H 233.562 -2.11237 -2.12177 0
M  V30 2466 H 231.108 -1.01699 -1.01948 0
M  V30 2467 H 233.061 -0.755165 -4.14578 0
M  V30 2468 H 231.785 0.120236 -3.26379 0
M  V30 2469 H 230.444 -2.00346 -3.07013 0
M  V30 2470 H 230.092 -0.462995 -5.00865 0
M  V30 2471 H 229.792 -2.15865 -5.46513 0
M  V30 2472 H 231.316 -1.36334 -5.95185 0
M  V30 2473 H 232.73 -3.26626 -4.71156 0
M  V30 2474 H 231.127 -4.01607 -4.45905 0
M  V30 2475 H 232.197 -3.75326 -3.07016 0
M  V30 2476 N 233.54 1.10788 -1.12088 0
M  V30 2477 C 234.78 1.84297 -0.883974 0
M  V30 2478 C 235.144 1.83036 0.579797 0
M  V30 2479 O 236.345 2.52061 0.933734 0
M  V30 2480 C 234.616 3.27173 -1.43849 0
M  V30 2481 S 236.175 4.17853 -1.33957 0
M  V30 2482 H 232.993 0.635433 -0.318977 0
M  V30 2483 H 235.595 1.33341 -1.4297 0
M  V30 2484 H 234.299 3.25658 -2.49749 0
M  V30 2485 H 233.83 3.83198 -0.890096 0
M  V30 2486 H 235.845 4.95239 -0.308603 0
M  V30 2487 N 235.018 0.912232 1.28515 0
M  V30 2488 C 236.264 0.545405 1.95328 0
M  V30 2489 C 236.597 -0.908313 1.71649 0
M  V30 2490 O 235.872 -1.64575 1.03659 0
M  V30 2491 C 236.155 0.853483 3.4984 0
M  V30 2492 C 236.008 2.35982 3.82926 0
M  V30 2493 C 237.327 0.348589 4.38717 0
M  V30 2494 H 234.446 0.199626 0.709449 0
M  V30 2495 H 237.088 1.1412 1.5191 0
M  V30 2496 H 235.238 0.34643 3.86952 0
M  V30 2497 H 236.91 2.93738 3.55691 0
M  V30 2498 H 235.153 2.81543 3.30024 0
M  V30 2499 H 235.824 2.52593 4.90816 0
M  V30 2500 H 238.3 0.78294 4.08668 0
M  V30 2501 H 237.176 0.593242 5.45685 0
M  V30 2502 H 237.437 -0.751049 4.35674 0
M  V30 2503 N 236.496 -1.42363 0.676048 0
M  V30 2504 C 237.721 -2.06377 0.205705 0
M  V30 2505 C 238.146 -1.50463 -1.12883 0
M  V30 2506 O 237.504 -0.623619 -1.70237 0
M  V30 2507 C 237.552 -3.60277 0.152655 0
M  V30 2508 O 236.656 -4.02935 -0.87845 0
M  V30 2509 H 235.997 -0.655588 0.105359 0
M  V30 2510 H 238.527 -1.82475 0.925412 0
M  V30 2511 H 238.537 -4.07993 -0.0230675 0
M  V30 2512 H 237.212 -4.00346 1.12675 0
M  V30 2513 H 235.789 -3.66764 -0.673668 0
M  V30 2514 N 237.974 -0.419461 -1.51915 0
M  V30 2515 C 239.221 0.152939 -2.01922 0
M  V30 2516 C 239.549 1.4426 -1.30458 0
M  V30 2517 O 238.804 1.91514 -0.402593 0
M  V30 2518 C 239.103 0.437067 -3.54717 0
M  V30 2519 C 238.769 -0.764632 -4.44369 0
M  V30 2520 C 237.431 -1.09423 -4.68594 0
M  V30 2521 C 239.783 -1.56713 -4.97082 0
M  V30 2522 C 237.111 -2.22732 -5.42777 0
M  V30 2523 C 239.463 -2.69107 -5.72507 0
M  V30 2524 C 238.127 -3.02541 -5.95 0
M  V30 2525 H 237.397 0.0559644 -0.738884 0
M  V30 2526 H 240.044 -0.562998 -1.83037 0
M  V30 2527 H 238.349 1.23469 -3.71837 0
M  V30 2528 H 240.046 0.893083 -3.90928 0
M  V30 2529 H 236.636 -0.497775 -4.257 0
M  V30 2530 H 240.82 -1.32571 -4.78266 0
M  V30 2531 H 236.076 -2.48971 -5.58411 0
M  V30 2532 H 240.25 -3.31671 -6.12346 0
M  V30 2533 H 237.877 -3.90457 -6.52264 0
M  V30 2534 N 239.452 1.56882 -0.150215 0
M  V30 2535 C 240.7 1.9584 0.499105 0
M  V30 2536 C 241.021 1.03623 1.65188 0
M  V30 2537 O 240.291 0.0984084 1.95653 0
M  V30 2538 H 238.871 0.723119 0.187373 0
M  V30 2539 H 241.533 1.9358 -0.226466 0
M  V30 2540 H 240.629 2.99638 0.873122 0
M  V30 2541 N 240.93 -0.123565 1.57115 0
M  V30 2542 C 242.346 -0.476961 1.52306 0
M  V30 2543 C 242.546 -1.82109 0.86248 0
M  V30 2544 O 241.602 -2.48586 0.442884 0
M  V30 2545 C 242.915 -0.465661 2.97073 0
M  V30 2546 C 244.463 -0.549534 3.08138 0
M  V30 2547 C 244.938 -0.568669 4.54456 0
M  V30 2548 N 246.429 -0.630237 4.58892 0
M  V30 2549 C 247.164 -0.666415 5.69514 0
M  V30 2550 N 246.66 -0.660514 6.89644 0
M  V30 2551 N 248.453 -0.709077 5.5761 0
M  V30 2552 H 240.604 0.757198 1.98445 0
M  V30 2553 H 242.867 0.278808 0.906074 0
M  V30 2554 H 242.573 0.454232 3.48754 0
M  V30 2555 H 242.447 -1.29513 3.54269 0
M  V30 2556 H 244.834 -1.45985 2.56461 0
M  V30 2557 H 244.915 0.307532 2.53945 0
M  V30 2558 H 244.559 0.337581 5.06777 0
M  V30 2559 H 244.489 -1.44256 5.06456 0
M  V30 2560 H 246.98 -0.641146 3.72421 0
M  V30 2561 H 247.293 -0.690616 7.69708 0
M  V30 2562 H 245.638 -0.628012 6.92157 0
M  V30 2563 H 248.829 -0.711019 4.62668 0
M  V30 2564 H 249.002 -0.733804 6.43832 0
M  V30 2565 N 242.408 -1.52605 -0.393616 0
M  V30 2566 C 243.685 -1.58001 -1.15304 0
M  V30 2567 C 244.065 -0.370385 -2.07825 0
M  V30 2568 O 243.413 0.641638 -2.19306 0
M  V30 2569 C 243.623 -2.91652 -1.91677 0
M  V30 2570 C 244.971 -3.4522 -2.47201 0
M  V30 2571 O 245.995 -2.93495 -2.01839 0
M  V30 2572 O 244.854 -4.35579 -3.3005 0
M  V30 2573 H 241.948 -0.637068 -0.527327 0
M  V30 2574 H 244.494 -1.64939 -0.399141 0
M  V30 2575 H 243.266 -3.71136 -1.23992 0
M  V30 2576 H 242.889 -2.88077 -2.74039 0
M  V30 2577 N 243.887 0.651787 -1.4349 0
M  V30 2578 C 245.133 1.41376 -1.45398 0
M  V30 2579 C 245.466 1.94041 -0.0784823 0
M  V30 2580 O 244.741 1.72379 0.900878 0
M  V30 2581 C 245.024 2.59414 -2.49752 0
M  V30 2582 C 244.877 2.12232 -3.96582 0
M  V30 2583 C 246.196 3.61626 -2.50827 0
M  V30 2584 H 243.315 0.512719 -0.529422 0
M  V30 2585 H 245.957 0.738796 -1.75048 0
M  V30 2586 H 244.107 3.16997 -2.246 0
M  V30 2587 H 245.779 1.59639 -4.32797 0
M  V30 2588 H 244.022 1.43592 -4.09346 0
M  V30 2589 H 244.693 2.9712 -4.65214 0
M  V30 2590 H 247.169 3.13805 -2.7325 0
M  V30 2591 H 246.045 4.41766 -3.25783 0
M  V30 2592 H 246.306 4.14314 -1.5426 0
M  V30 2593 N 245.365 1.30045 0.890287 0
M  V30 2594 C 246.614 1.17929 1.63633 0
M  V30 2595 C 246.927 -0.266204 1.9378 0
M  V30 2596 O 248.133 -0.508804 2.6669 0
M  V30 2597 C 246.589 2.06317 2.94892 0
M  V30 2598 C 246.197 3.55745 2.72305 0
M  V30 2599 C 247.941 2.0295 3.72843 0
M  V30 2600 C 245.848 4.36205 3.99348 0
M  V30 2601 H 244.778 0.437782 0.613892 0
M  V30 2602 H 247.429 1.54754 0.986075 0
M  V30 2603 H 245.811 1.6237 3.61182 0
M  V30 2604 H 246.985 4.07805 2.1455 0
M  V30 2605 H 245.3 3.6088 2.07737 0
M  V30 2606 H 247.897 2.60319 4.67053 0
M  V30 2607 H 248.24 1.0117 4.0382 0
M  V30 2608 H 248.773 2.4499 3.13408 0
M  V30 2609 H 245.512 5.38659 3.73533 0
M  V30 2610 H 245.032 3.8891 4.56628 0
M  V30 2611 H 246.711 4.47362 4.67415 0
M  V30 2612 N 246.843 -1.10192 1.12674 0
M  V30 2613 C 247.793 -2.14754 0.765801 0
M  V30 2614 C 248.777 -1.59154 -0.236409 0
M  V30 2615 O 249.969 -1.76951 -0.0415261 0
M  V30 2616 C 247.098 -3.42563 0.224827 0
M  V30 2617 C 246.184 -4.05091 1.25548 0
M  V30 2618 N 246.575 -4.42287 2.4539 0
M  V30 2619 C 244.873 -4.32186 1.10142 0
M  V30 2620 C 245.574 -4.91441 3.11224 0
M  V30 2621 N 244.55 -4.88405 2.38666 0
M  V30 2622 H 248.352 -2.41309 1.67772 0
M  V30 2623 H 245.866 -1.27339 1.00789 0
M  V30 2624 H 247.863 -4.16868 -0.0519578 0
M  V30 2625 H 246.523 -3.17467 -0.681515 0
M  V30 2626 H 247.534 -4.33902 2.82754 0
M  V30 2627 H 244.211 -4.16735 0.252587 0
M  V30 2628 H 245.601 -5.29749 4.13298 0
M  V30 2629 N 248.321 -0.919034 -1.28029 0
M  V30 2630 C 249.551 -0.570143 -1.98577 0
M  V30 2631 C 249.959 0.854172 -1.68821 0
M  V30 2632 O 249.302 1.57807 -0.940351 0
M  V30 2633 C 249.364 -0.705734 -3.52505 0
M  V30 2634 C 249.028 -2.10057 -4.05863 0
M  V30 2635 C 250.025 -3.07385 -4.19298 0
M  V30 2636 C 247.71 -2.41517 -4.40426 0
M  V30 2637 C 249.704 -4.34287 -4.66555 0
M  V30 2638 C 247.391 -3.68657 -4.87376 0
M  V30 2639 C 248.389 -4.64856 -5.00398 0
M  V30 2640 O 248.077 -5.89735 -5.46322 0
M  V30 2641 H 247.809 -0.215592 -0.6407 0
M  V30 2642 H 250.363 -1.23583 -1.64062 0
M  V30 2643 H 248.593 0.0170414 -3.86696 0
M  V30 2644 H 250.282 -0.363172 -4.04272 0
M  V30 2645 H 251.048 -2.84398 -3.92865 0
M  V30 2646 H 246.927 -1.67389 -4.29537 0
M  V30 2647 H 250.471 -5.09377 -4.76635 0
M  V30 2648 H 246.368 -3.91466 -5.13249 0
M  V30 2649 H 247.136 -5.92599 -5.64596 0
M  V30 2650 N 249.799 1.42003 -0.683588 0
M  V30 2651 C 251.215 1.55625 -0.353976 0
M  V30 2652 C 251.415 1.66151 1.14 0
M  V30 2653 O 250.471 1.63329 1.92561 0
M  V30 2654 C 251.784 2.80171 -1.092 0
M  V30 2655 C 253.332 2.93954 -1.07518 0
M  V30 2656 C 253.807 4.21372 -1.79471 0
M  V30 2657 N 255.298 4.28303 -1.76381 0
M  V30 2658 C 256.033 5.25729 -2.28904 0
M  V30 2659 N 255.529 6.29254 -2.89846 0
M  V30 2660 N 257.322 5.17586 -2.19228 0
M  V30 2661 H 249.473 1.33415 -1.6527 0
M  V30 2662 H 251.736 0.64282 -0.696769 0
M  V30 2663 H 251.442 2.78561 -2.14701 0
M  V30 2664 H 251.316 3.7133 -0.662862 0
M  V30 2665 H 253.703 2.95086 -0.028475 0
M  V30 2666 H 253.784 2.04002 -1.54328 0
M  V30 2667 H 253.428 4.21001 -2.84114 0
M  V30 2668 H 253.358 5.10275 -1.30104 0
M  V30 2669 H 255.849 3.54119 -1.31939 0
M  V30 2670 H 256.162 6.99964 -3.27522 0
M  V30 2671 H 254.507 6.29791 -2.93919 0
M  V30 2672 H 257.698 4.35631 -1.71299 0
M  V30 2673 H 257.871 5.93348 -2.60466 0
M  V30 2674 N 251.277 0.427512 1.51691 0
M  V30 2675 C 252.523 -0.142439 2.02299 0
M  V30 2676 C 252.856 -1.43214 1.31162 0
M  V30 2677 O 252.131 -1.89833 0.423511 0
M  V30 2678 C 252.414 -0.371301 3.58181 0
M  V30 2679 C 252.267 0.936358 4.39946 0
M  V30 2680 C 253.586 -1.14542 4.24933 0
M  V30 2681 H 250.705 -0.0502937 0.735282 0
M  V30 2682 H 253.347 0.564584 1.81418 0
M  V30 2683 H 251.497 -0.973559 3.76104 0
M  V30 2684 H 253.169 1.57184 4.33694 0
M  V30 2685 H 251.412 1.5432 4.05423 0
M  V30 2686 H 252.083 0.730388 5.47147 0
M  V30 2687 H 254.559 -0.635362 4.11221 0
M  V30 2688 H 253.435 -1.27431 5.33903 0
M  V30 2689 H 253.696 -2.17093 3.85127 0
M  V30 2690 N 252.755 -1.56801 0.158532 0
M  V30 2691 C 253.685 -2.20347 -0.772609 0
M  V30 2692 C 254.666 -1.15518 -1.24859 0
M  V30 2693 O 255.851 -1.43902 -1.30406 0
M  V30 2694 C 252.981 -2.83417 -2.00729 0
M  V30 2695 C 251.935 -3.94174 -1.66765 0
M  V30 2696 C 251.261 -4.44233 -2.97592 0
M  V30 2697 C 252.561 -5.14392 -0.905447 0
M  V30 2698 H 254.255 -2.98413 -0.242959 0
M  V30 2699 H 251.801 -1.43537 -0.115419 0
M  V30 2700 H 253.754 -3.26543 -2.6636 0
M  V30 2701 H 252.478 -2.02701 -2.56086 0
M  V30 2702 H 251.137 -3.51684 -1.03508 0
M  V30 2703 H 250.785 -3.60325 -3.50963 0
M  V30 2704 H 250.485 -5.18945 -2.75626 0
M  V30 2705 H 252.009 -4.90037 -3.64274 0
M  V30 2706 H 253.423 -5.5429 -1.46408 0
M  V30 2707 H 251.82 -5.9494 -0.7853 0
M  V30 2708 H 252.89 -4.84795 0.100668 0
M  V30 2709 N 254.233 0.115231 -1.57178 0
M  V30 2710 C 255.183 1.14707 -1.97044 0
M  V30 2711 C 256.167 1.36866 -0.845957 0
M  V30 2712 O 257.359 1.37895 -1.10968 0
M  V30 2713 C 254.488 2.47266 -2.38148 0
M  V30 2714 C 253.574 2.28566 -3.57237 0
M  V30 2715 N 253.965 1.79685 -4.72807 0
M  V30 2716 C 252.263 2.59208 -3.62943 0
M  V30 2717 C 252.964 1.74781 -5.54821 0
M  V30 2718 N 251.94 2.19264 -4.97417 0
M  V30 2719 H 255.742 0.761754 -2.83857 0
M  V30 2720 H 253.256 0.322928 -1.59157 0
M  V30 2721 H 255.253 3.219 -2.64927 0
M  V30 2722 H 253.913 2.86552 -1.52702 0
M  V30 2723 H 254.924 1.49177 -4.9595 0
M  V30 2724 H 251.601 3.02154 -2.88113 0
M  V30 2725 H 252.991 1.38212 -6.57531 0
M  V30 2726 N 255.711 1.52812 0.385517 0
M  V30 2727 C 257.127 1.4214 0.725829 0
M  V30 2728 C 257.327 0.544589 1.94001 0
M  V30 2729 O 256.383 0.0193693 2.52493 0
M  V30 2730 C 257.696 2.85042 0.957668 0
M  V30 2731 C 259.244 2.94543 1.05892 0
M  V30 2732 C 259.719 4.38464 1.32337 0
M  V30 2733 N 261.21 4.41804 1.39151 0
M  V30 2734 C 261.945 5.5025 1.61285 0
M  V30 2735 N 261.441 6.68775 1.80866 0
M  V30 2736 N 263.234 5.37798 1.63492 0
M  V30 2737 H 255.385 2.08338 -0.413383 0
M  V30 2738 H 257.648 0.940016 -0.122775 0
M  V30 2739 H 257.354 3.51431 0.137568 0
M  V30 2740 H 257.228 3.27505 1.87137 0
M  V30 2741 H 259.615 2.28321 1.86959 0
M  V30 2742 H 259.696 2.55504 0.123057 0
M  V30 2743 H 259.34 5.05254 0.517793 0
M  V30 2744 H 259.27 4.75059 2.27214 0
M  V30 2745 H 261.761 3.56377 1.25713 0
M  V30 2746 H 262.074 7.47197 1.97271 0
M  V30 2747 H 260.419 6.71797 1.78083 0
M  V30 2748 H 263.61 4.44171 1.47749 0
M  V30 2749 H 263.783 6.22382 1.80402 0
M  V30 2750 N 257.189 -0.644168 1.43834 0
M  V30 2751 C 258.466 -1.40188 1.36406 0
M  V30 2752 C 258.846 -2.11094 0.0163124 0
M  V30 2753 O 258.194 -2.05426 -1.00062 0
M  V30 2754 C 258.404 -2.3791 2.55343 0
M  V30 2755 C 259.752 -3.01637 2.98832 0
M  V30 2756 O 260.776 -2.48237 2.55455 0
M  V30 2757 O 259.635 -3.98477 3.74003 0
M  V30 2758 H 256.729 -0.626773 0.539523 0
M  V30 2759 H 259.275 -0.670317 1.559 0
M  V30 2760 H 258.047 -1.84525 3.4506 0
M  V30 2761 H 257.67 -3.18503 2.37995 0
M  V30 2762 N 258.668 -1.30515 -0.883378 0
M  V30 2763 C 259.916 -1.19194 -1.63209 0
M  V30 2764 C 260.237 0.253205 -1.93349 0
M  V30 2765 O 259.507 1.17025 -1.57105 0
M  V30 2766 H 258.087 -0.438148 -0.605009 0
M  V30 2767 H 260.749 -1.63663 -1.05832 0
M  V30 2768 H 259.845 -1.75396 -2.58153 0
M  V30 2769 N 260.146 1.09593 -1.13257 0
M  V30 2770 C 261.096 2.14345 -0.777179 0
M  V30 2771 C 262.08 1.59277 0.227966 0
M  V30 2772 O 263.272 1.76971 0.0321413 0
M  V30 2773 C 260.401 3.42439 -0.242991 0
M  V30 2774 C 259.487 4.04419 -1.27694 0
M  V30 2775 N 259.878 4.40979 -2.47732 0
M  V30 2776 C 258.176 4.31596 -1.12432 0
M  V30 2777 C 258.877 4.89784 -3.13826 0
M  V30 2778 N 257.853 4.87133 -2.41252 0
M  V30 2779 H 261.655 2.40415 -1.69049 0
M  V30 2780 H 259.169 1.26803 -1.01463 0
M  V30 2781 H 261.166 4.16889 0.0298496 0
M  V30 2782 H 259.826 3.17824 0.66467 0
M  V30 2783 H 260.837 4.32396 -2.85051 0
M  V30 2784 H 257.514 4.16595 -0.274684 0
M  V30 2785 H 258.904 5.2755 -4.16102 0
M  V30 2786 N 261.624 0.925811 1.2754 0
M  V30 2787 C 262.554 0.440748 2.29303 0
M  V30 2788 C 263.535 -0.497971 1.62648 0
M  V30 2789 O 264.72 -0.403126 1.8997 0
M  V30 2790 C 261.85 -0.309048 3.45922 0
M  V30 2791 C 260.804 0.54166 4.24559 0
M  V30 2792 C 260.13 -0.337191 5.33636 0
M  V30 2793 C 261.43 1.80516 4.90114 0
M  V30 2794 H 263.124 1.29121 2.70126 0
M  V30 2795 H 260.67 0.622323 1.29858 0
M  V30 2796 H 262.623 -0.659315 4.1621 0
M  V30 2797 H 261.347 -1.19352 3.04011 0
M  V30 2798 H 260.006 0.874609 3.56014 0
M  V30 2799 H 259.654 -1.22056 4.87966 0
M  V30 2800 H 259.354 0.228497 5.87156 0
M  V30 2801 H 260.878 -0.683072 6.06767 0
M  V30 2802 H 262.292 1.52307 5.52698 0
M  V30 2803 H 260.689 2.3142 5.53683 0
M  V30 2804 H 261.759 2.52581 4.13921 0
M  V30 2805 N 263.102 -1.41638 0.69111 0
M  V30 2806 C 264.33 -2.05628 0.22909 0
M  V30 2807 C 264.745 -1.51992 -1.11999 0
M  V30 2808 O 264.102 -0.666322 -1.69901 0
M  V30 2809 C 264.153 -3.61084 0.173283 0
M  V30 2810 O 263.874 -4.12735 1.46907 0
M  V30 2811 C 265.375 -4.42213 -0.310266 0
M  V30 2812 H 262.595 -0.662327 0.107534 0
M  V30 2813 H 265.139 -1.81489 0.942438 0
M  V30 2814 H 263.294 -3.84278 -0.490858 0
M  V30 2815 H 263.708 -5.06743 1.35322 0
M  V30 2816 H 265.182 -5.51194 -0.298196 0
M  V30 2817 H 265.659 -4.1799 -1.34838 0
M  V30 2818 H 266.265 -4.24074 0.322716 0
M  V30 2819 N 264.58 -0.43555 -1.51462 0
M  V30 2820 C 265.829 0.133007 -2.01261 0
M  V30 2821 C 266.142 1.43942 -1.32439 0
M  V30 2822 O 267.348 2.09081 -1.73198 0
M  V30 2823 C 265.804 0.287581 -3.58749 0
M  V30 2824 C 265.412 -1.00829 -4.36506 0
M  V30 2825 C 267.156 0.810004 -4.167 0
M  V30 2826 C 265.063 -0.819454 -5.85695 0
M  V30 2827 H 263.993 0.0534822 -0.752101 0
M  V30 2828 H 266.644 -0.565038 -1.74584 0
M  V30 2829 H 265.026 1.04859 -3.81865 0
M  V30 2830 H 266.2 -1.77749 -4.25138 0
M  V30 2831 H 264.515 -1.45911 -3.89999 0
M  V30 2832 H 267.112 0.967743 -5.2587 0
M  V30 2833 H 267.455 1.79196 -3.75758 0
M  V30 2834 H 267.988 0.107357 -3.97655 0
M  V30 2835 H 264.727 -1.77374 -6.31046 0
M  V30 2836 H 264.247 -0.0900208 -5.99732 0
M  V30 2837 H 265.926 -0.471949 -6.45276 0
M  V30 2838 N 266.058 1.56714 -0.166846 0
M  V30 2839 C 267.335 1.88412 0.525373 0
M  V30 2840 C 267.715 1.07602 1.81618 0
M  V30 2841 O 267.063 0.168621 2.27877 0
M  V30 2842 C 267.273 3.40363 0.771613 0
M  V30 2843 C 268.621 4.10007 1.1036 0
M  V30 2844 O 269.645 3.45655 0.860304 0
M  V30 2845 O 268.504 5.2369 1.56239 0
M  V30 2846 H 265.598 0.781587 0.270278 0
M  V30 2847 H 268.144 1.68458 -0.204946 0
M  V30 2848 H 266.916 3.91046 -0.141093 0
M  V30 2849 H 266.539 3.65914 1.55541 0
M  V30 2850 N 267.536 -0.106894 1.57237 0
M  V30 2851 C 268.446 -1.14911 2.0453 0
M  V30 2852 C 269.462 -1.44592 0.96795 0
M  V30 2853 O 270.638 -1.55468 1.2803 0
M  V30 2854 C 267.703 -2.45272 2.45036 0
M  V30 2855 C 266.764 -2.22879 3.66911 0
M  V30 2856 C 265.997 -3.47024 4.05475 0
M  V30 2857 O 266.22 -4.54804 3.44252 0
M  V30 2858 O 265.154 -3.3731 4.98504 0
M  V30 2859 H 268.98 -0.777461 2.9358 0
M  V30 2860 H 266.565 -0.318563 1.45964 0
M  V30 2861 H 268.447 -3.22055 2.71769 0
M  V30 2862 H 267.122 -2.81886 1.59129 0
M  V30 2863 H 266.029 -1.43915 3.45311 0
M  V30 2864 H 267.362 -1.91163 4.53561 0
M  V30 2865 N 269.014 -1.53014 -0.377408 0
M  V30 2866 C 269.977 -1.77957 -1.44444 0
M  V30 2867 C 270.977 -0.649763 -1.47087 0
M  V30 2868 O 272.167 -0.917897 -1.48055 0
M  V30 2869 C 269.299 -1.89089 -2.83651 0
M  V30 2870 H 270.492 -2.73243 -1.23606 0
M  V30 2871 H 268.045 -1.43912 -0.609844 0
M  V30 2872 H 268.78 -0.958293 -3.09818 0
M  V30 2873 H 268.565 -2.71254 -2.83132 0
M  V30 2874 H 270.055 -2.1002 -3.60945 0
M  V30 2875 N 270.492 0.636531 -1.44174 0
M  V30 2876 C 271.738 1.39826 -1.4689 0
M  V30 2877 C 272.071 1.93947 -0.0990585 0
M  V30 2878 O 271.346 1.73325 0.882544 0
M  V30 2879 C 271.629 2.56751 -2.5249 0
M  V30 2880 C 271.482 2.08014 -3.98811 0
M  V30 2881 C 272.801 3.58946 -2.54649 0
M  V30 2882 H 269.92 0.507075 -0.53483 0
M  V30 2883 H 272.562 0.720188 -1.75822 0
M  V30 2884 H 270.712 3.14597 -2.2795 0
M  V30 2885 H 272.384 1.5504 -4.34466 0
M  V30 2886 H 270.627 1.39242 -4.10846 0
M  V30 2887 H 271.298 2.92169 -4.68339 0
M  V30 2888 H 273.774 3.1089 -2.76563 0
M  V30 2889 H 272.65 4.38286 -3.3045 0
M  V30 2890 H 272.911 4.12655 -1.58646 0
M  V30 2891 N 271.97 1.30982 0.876444 0
M  V30 2892 C 273.217 1.20296 1.62896 0
M  V30 2893 C 273.545 -0.240395 1.93009 0
M  V30 2894 O 272.8 -1.18733 1.55567 0
M  V30 2895 C 273.099 1.98572 2.9716 0
M  V30 2896 C 272.765 3.48125 2.86566 0
M  V30 2897 C 271.427 3.88905 2.83383 0
M  V30 2898 C 273.779 4.43322 2.74071 0
M  V30 2899 C 271.107 5.2316 2.65556 0
M  V30 2900 C 273.459 5.77695 2.57781 0
M  V30 2901 C 272.123 6.17704 2.52979 0
M  V30 2902 H 271.393 0.440193 0.59608 0
M  V30 2903 H 274.04 1.62177 1.01837 0
M  V30 2904 H 272.345 1.49352 3.62217 0
M  V30 2905 H 274.042 1.8769 3.54364 0
M  V30 2906 H 270.632 3.15723 2.89856 0
M  V30 2907 H 274.816 4.12752 2.75589 0
M  V30 2908 H 270.072 5.53241 2.60259 0
M  V30 2909 H 274.246 6.51091 2.47089 0
M  V30 2910 H 271.873 7.21678 2.38924 0
M  V30 2911 N 273.449 -1.08991 1.13837 0
M  V30 2912 C 274.696 -1.81258 0.902882 0
M  V30 2913 C 275.024 -1.85936 -0.570803 0
M  V30 2914 O 274.279 -1.3267 -1.43865 0
M  V30 2915 C 274.578 -3.27042 1.44147 0
M  V30 2916 C 274.244 -3.4249 2.93276 0
M  V30 2917 C 272.906 -3.46414 3.33992 0
M  V30 2918 C 275.258 -3.4666 3.892 0
M  V30 2919 C 272.586 -3.52091 4.69307 0
M  V30 2920 C 274.938 -3.53872 5.24364 0
M  V30 2921 C 273.602 -3.56066 5.646 0
M  V30 2922 H 272.872 -0.663268 0.330388 0
M  V30 2923 H 275.519 -1.28368 1.42105 0
M  V30 2924 H 273.824 -3.82599 0.844097 0
M  V30 2925 H 275.521 -3.81499 1.23528 0
M  V30 2926 H 272.111 -3.40124 2.60794 0
M  V30 2927 H 276.295 -3.42865 3.58828 0
M  V30 2928 H 271.551 -3.52079 4.9985 0
M  V30 2929 H 275.725 -3.56043 5.98503 0
M  V30 2930 H 273.352 -3.60218 6.69438 0
M  V30 2931 N 274.927 -0.932562 -1.27047 0
M  V30 2932 C 276.167 -0.582919 -1.95912 0
M  V30 2933 C 276.531 0.860629 -1.71631 0
M  V30 2934 O 277.732 1.31878 -2.34225 0
M  V30 2935 C 276.003 -0.905673 -3.45734 0
M  V30 2936 S 277.562 -0.665277 -4.33727 0
M  V30 2937 H 274.38 -0.215 -0.677714 0
M  V30 2938 H 276.982 -1.20204 -1.54179 0
M  V30 2939 H 275.686 -1.95386 -3.60905 0
M  V30 2940 H 275.217 -0.275939 -3.92431 0
M  V30 2941 H 277.232 0.474635 -4.93925 0
M  V30 2942 N 276.405 1.4127 -0.698611 0
M  V30 2943 C 277.353 2.32588 -0.023855 0
M  V30 2944 C 278.347 1.51128 0.765292 0
M  V30 2945 O 279.553 1.67043 0.670571 0
M  V30 2946 H 275.928 0.751918 0.0110871 0
M  V30 2947 H 277.899 2.87167 -0.811031 0
M  V30 2948 C 276.648 3.35947 0.896369 0
M  V30 2949 H 275.971 3.98684 0.298548 0
M  V30 2950 H 277.411 4.02376 1.33676 0
M  V30 2951 C 275.87 2.70076 2.01396 0
M  V30 2952 O 276.4 2.55093 3.10307 0
M  V30 2953 N 274.606 2.28724 1.79259 0
M  V30 2954 H 274.153 2.4111 0.906841 0
M  V30 2955 H 274.111 1.84986 2.54219 0
M  V30 2956 N 277.883 0.443576 1.51229 0
M  V30 2957 C 278.813 -0.355142 2.30783 0
M  V30 2958 C 279.794 -1.0154 1.36468 0
M  V30 2959 O 280.979 -1.01785 1.65389 0
M  V30 2960 C 278.109 -1.45312 3.15439 0
M  V30 2961 C 277.063 -0.916002 4.18083 0
M  V30 2962 C 276.389 -2.1102 4.91299 0
M  V30 2963 C 277.689 0.0538602 5.22272 0
M  V30 2964 H 279.383 0.308767 2.97804 0
M  V30 2965 H 276.929 0.149937 1.43217 0
M  V30 2966 H 278.882 -2.01914 3.69876 0
M  V30 2967 H 277.606 -2.14541 2.46252 0
M  V30 2968 H 276.265 -0.372145 3.64706 0
M  V30 2969 H 275.913 -2.78882 4.18609 0
M  V30 2970 H 275.613 -1.75717 5.60712 0
M  V30 2971 H 277.137 -2.68164 5.48562 0
M  V30 2972 H 278.551 -0.422069 5.71744 0
M  V30 2973 H 276.948 0.319776 5.99247 0
M  V30 2974 H 278.018 0.98858 4.74716 0
M  V30 2975 N 279.361 -1.56624 0.175154 0
M  V30 2976 C 280.294 -2.14 -0.792412 0
M  V30 2977 C 281.272 -1.07114 -1.22333 0
M  V30 2978 O 282.456 -1.35112 -1.31442 0
M  V30 2979 C 279.583 -2.68268 -2.0676 0
M  V30 2980 C 278.629 -3.87562 -1.7804 0
M  V30 2981 S 279.462 -5.27074 -0.946222 0
M  V30 2982 C 280.618 -5.8475 -2.23199 0
M  V30 2983 H 280.851 -2.95736 -0.304588 0
M  V30 2984 H 278.384 -1.54349 -0.0395705 0
M  V30 2985 H 280.342 -3.00182 -2.80002 0
M  V30 2986 H 279.003 -1.86612 -2.52656 0
M  V30 2987 H 278.196 -4.23874 -2.72666 0
M  V30 2988 H 277.798 -3.56555 -1.12891 0
M  V30 2989 H 280.09 -5.97898 -3.18629 0
M  V30 2990 H 281.033 -6.81756 -1.91349 0
M  V30 2991 H 281.441 -5.13198 -2.35134 0
M  V30 2992 N 280.839 0.0985539 -1.57292 0
M  V30 2993 C 282.116 0.834155 -1.76921 0
M  V30 2994 C 282.496 1.97101 -0.755928 0
M  V30 2995 O 281.844 2.27474 0.216245 0
M  V30 2996 C 282.054 1.33194 -3.22584 0
M  V30 2997 C 283.402 1.77611 -3.85668 0
M  V30 2998 O 284.426 1.42825 -3.26312 0
M  V30 2999 O 283.285 2.4192 -4.90038 0
M  V30 3000 H 280.379 0.397628 -0.725135 0
M  V30 3001 H 282.925 0.0807044 -1.69508 0
M  V30 3002 H 281.697 0.517248 -3.87866 0
M  V30 3003 H 281.32 2.1475 -3.34616 0
M  V30 3004 N 282.317 1.53212 0.369288 0
M  V30 3005 C 283.25 1.74166 1.4745 0
M  V30 3006 C 284.228 0.589923 1.51521 0
M  V30 3007 O 285.412 0.822078 1.69629 0
M  V30 3008 C 282.539 1.81711 2.8583 0
M  V30 3009 C 281.585 3.03649 2.99499 0
M  V30 3010 S 282.418 4.63242 2.6864 0
M  V30 3011 C 283.574 4.7363 4.09177 0
M  V30 3012 H 283.807 2.67636 1.29454 0
M  V30 3013 H 281.34 1.43754 0.563396 0
M  V30 3014 H 283.298 1.86743 3.65564 0
M  V30 3015 H 281.959 0.89299 3.01139 0
M  V30 3016 H 281.152 3.05526 4.00836 0
M  V30 3017 H 280.754 2.9671 2.27683 0
M  V30 3018 H 283.046 4.53456 5.03372 0
M  V30 3019 H 283.989 5.75682 4.12306 0
M  V30 3020 H 284.397 4.02295 3.96004 0
M  V30 3021 N 283.795 -0.628877 1.44509 0
M  V30 3022 C 285.041 -1.39045 1.47629 0
M  V30 3023 C 285.374 -1.93892 0.109343 0
M  V30 3024 O 284.649 -1.7379 -0.87334 0
M  V30 3025 C 284.932 -2.55408 2.53848 0
M  V30 3026 C 284.785 -2.05896 3.99909 0
M  V30 3027 C 286.104 -3.5759 2.56549 0
M  V30 3028 H 283.223 -0.504232 0.537512 0
M  V30 3029 H 285.865 -0.710854 1.76201 0
M  V30 3030 H 284.015 -3.13384 2.29615 0
M  V30 3031 H 285.687 -1.52734 4.35282 0
M  V30 3032 H 283.93 -1.37061 4.11578 0
M  V30 3033 H 284.601 -2.89681 4.69882 0
M  V30 3034 H 287.077 -3.09419 2.78207 0
M  V30 3035 H 285.953 -4.36527 3.32769 0
M  V30 3036 H 286.214 -4.11808 1.60832 0
M  V30 3037 N 285.273 -1.31445 -0.869486 0
M  V30 3038 C 286.183 -1.21097 -2.0093 0
M  V30 3039 C 287.199 -0.127584 -1.73532 0
M  V30 3040 O 288.375 -0.345477 -1.98415 0
M  V30 3041 C 285.44 -0.919378 -3.34288 0
M  V30 3042 C 284.501 -2.08971 -3.75006 0
M  V30 3043 C 283.734 -1.81194 -5.02001 0
M  V30 3044 O 283.957 -0.747296 -5.65484 0
M  V30 3045 O 282.891 -2.66883 -5.39497 0
M  V30 3046 H 286.717 -2.16883 -2.12592 0
M  V30 3047 H 284.302 -1.11189 -0.997868 0
M  V30 3048 H 286.184 -0.772625 -4.14257 0
M  V30 3049 H 284.859 0.00844772 -3.23699 0
M  V30 3050 H 283.766 -2.29187 -2.95676 0
M  V30 3051 H 285.099 -2.9998 -3.90221 0
M  V30 3052 N 286.751 1.08385 -1.14413 0
M  V30 3053 C 287.701 2.13509 -0.79987 0
M  V30 3054 C 288.685 1.5951 0.211059 0
M  V30 3055 O 289.877 1.76995 0.0133694 0
M  V30 3056 C 287.006 3.42162 -0.279297 0
M  V30 3057 C 286.092 4.03042 -1.31976 0
M  V30 3058 N 286.483 4.38327 -2.52395 0
M  V30 3059 C 284.781 4.30379 -1.17004 0
M  V30 3060 C 285.482 4.86428 -3.19003 0
M  V30 3061 N 284.458 4.84547 -2.46405 0
M  V30 3062 H 288.26 2.38609 -1.7159 0
M  V30 3063 H 285.774 1.2572 -1.02802 0
M  V30 3064 H 287.771 4.16898 -0.0143688 0
M  V30 3065 H 286.431 3.18511 0.630923 0
M  V30 3066 H 287.442 4.29349 -2.89621 0
M  V30 3067 H 284.119 4.16281 -0.318854 0
M  V30 3068 H 285.509 5.23107 -4.21674 0
M  V30 3069 N 288.23 0.939286 1.26551 0
M  V30 3070 C 289.46 0.601663 1.97645 0
M  V30 3071 C 289.868 -0.827206 1.70159 0
M  V30 3072 O 289.211 -1.56291 0.965338 0
M  V30 3073 C 289.273 0.761725 3.51337 0
M  V30 3074 C 288.937 2.16487 4.0247 0
M  V30 3075 C 289.934 3.14016 4.14355 0
M  V30 3076 C 287.619 2.48494 4.36527 0
M  V30 3077 C 289.613 4.41654 4.59587 0
M  V30 3078 C 287.3 3.76364 4.81449 0
M  V30 3079 C 288.298 4.72758 4.92939 0
M  V30 3080 O 287.986 5.98352 5.36871 0
M  V30 3081 H 287.718 0.225758 0.637189 0
M  V30 3082 H 290.272 1.26178 1.62075 0
M  V30 3083 H 288.502 0.0444808 3.86674 0
M  V30 3084 H 290.191 0.427442 4.03643 0
M  V30 3085 H 290.957 2.90613 3.8829 0
M  V30 3086 H 286.836 1.74202 4.26819 0
M  V30 3087 H 290.38 5.16896 4.68471 0
M  V30 3088 H 286.277 3.99582 5.06956 0
M  V30 3089 H 287.045 6.01507 5.55096 0
M  V30 3090 N 289.708 -1.40897 0.706093 0
M  V30 3091 C 290.933 -2.05895 0.249435 0
M  V30 3092 C 291.358 -1.52823 -1.09666 0
M  V30 3093 O 290.716 -0.659589 -1.68876 0
M  V30 3094 C 290.764 -3.59872 0.22904 0
M  V30 3095 O 289.868 -4.04708 -0.792784 0
M  V30 3096 H 289.209 -0.653206 0.119241 0
M  V30 3097 H 291.739 -1.80471 0.96391 0
M  V30 3098 H 291.749 -4.07951 0.0634791 0
M  V30 3099 H 290.424 -3.97866 1.21141 0
M  V30 3100 H 289.001 -3.68111 -0.59572 0
M  V30 3101 N 291.186 -0.45159 -1.50991 0
M  V30 3102 C 292.133 0.352625 -2.2809 0
M  V30 3103 C 293.103 1.0044 -1.32291 0
M  V30 3104 O 294.288 1.02058 -1.6121 0
M  V30 3105 C 291.428 1.43983 -3.13629 0
M  V30 3106 C 290.541 0.804772 -4.24438 0
M  V30 3107 C 289.676 1.86822 -4.97263 0
M  V30 3108 C 288.715 1.21236 -5.99973 0
M  V30 3109 N 287.852 2.2178 -6.66152 0
M  V30 3110 H 292.692 -0.311186 -2.96371 0
M  V30 3111 H 290.229 -0.165308 -1.46168 0
M  V30 3112 H 292.187 2.08161 -3.61559 0
M  V30 3113 H 290.817 2.07307 -2.47434 0
M  V30 3114 H 289.869 0.0509129 -3.80366 0
M  V30 3115 H 291.181 0.286076 -4.97979 0
M  V30 3116 H 290.335 2.58628 -5.48813 0
M  V30 3117 H 289.074 2.42068 -4.23385 0
M  V30 3118 H 288.079 0.479828 -5.47702 0
M  V30 3119 H 289.304 0.667051 -6.75816 0
M  V30 3120 H 287.25 2.76079 -5.95077 0
M  V30 3121 H 287.167 1.74841 -7.35504 0
M  V30 3122 H 288.435 2.93026 -7.22327 0
M  V30 3123 N 292.664 1.56529 -0.183458 0
M  V30 3124 C 293.941 1.88959 0.50536 0
M  V30 3125 C 294.321 1.09523 1.80466 0
M  V30 3126 O 293.669 0.19278 2.27685 0
M  V30 3127 C 293.879 3.41162 0.73547 0
M  V30 3128 C 295.227 4.11155 1.06005 0
M  V30 3129 O 296.251 3.46548 0.823594 0
M  V30 3130 O 295.11 5.25318 1.50675 0
M  V30 3131 H 292.204 0.78441 0.261973 0
M  V30 3132 H 294.75 1.68231 -0.222802 0
M  V30 3133 H 293.522 3.90874 -0.182561 0
M  V30 3134 H 293.145 3.67543 1.51651 0
M  V30 3135 N 294.142 -0.090211 1.57342 0
M  V30 3136 C 295.089 -1.10909 2.02405 0
M  V30 3137 C 296.059 -1.39523 0.901252 0
M  V30 3138 O 297.244 -1.50903 1.1676 0
M  V30 3139 C 294.384 -2.42277 2.45755 0
M  V30 3140 C 293.497 -2.20352 3.71576 0
M  V30 3141 C 292.632 -3.45154 4.03785 0
M  V30 3142 C 291.671 -3.18512 5.22701 0
M  V30 3143 N 290.808 -4.35593 5.50639 0
M  V30 3144 H 295.648 -0.71782 2.89225 0
M  V30 3145 H 293.185 -0.342901 1.43048 0
M  V30 3146 H 295.143 -3.18951 2.68935 0
M  V30 3147 H 293.773 -2.79242 1.61938 0
M  V30 3148 H 292.825 -1.34458 3.55844 0
M  V30 3149 H 294.137 -1.96661 4.58395 0
M  V30 3150 H 293.291 -4.30233 4.27767 0
M  V30 3151 H 292.03 -3.71904 3.15498 0
M  V30 3152 H 291.035 -2.31827 4.98534 0
M  V30 3153 H 292.26 -2.93103 6.12591 0
M  V30 3154 H 290.206 -4.6241 4.6531 0
M  V30 3155 H 290.123 -4.1511 6.31838 0
M  V30 3156 H 291.391 -5.21723 5.7916 0
M  V30 3157 N 295.62 -1.53406 -0.361157 0
M  V30 3158 C 296.868 -1.69467 -1.10115 0
M  V30 3159 C 297.189 -0.451352 -1.89705 0
M  V30 3160 O 296.459 0.534636 -1.88463 0
M  V30 3161 H 295.039 -0.624749 -0.409508 0
M  V30 3162 H 297.701 -1.90609 -0.406699 0
M  V30 3163 H 296.797 -2.55774 -1.78847 0
M  V30 3164 N 297.098 0.621204 -1.44841 0
M  V30 3165 C 298.061 1.71459 -1.521 0
M  V30 3166 C 299.061 1.55696 -0.401933 0
M  V30 3167 O 300.251 1.61011 -0.664925 0
M  V30 3168 C 297.383 3.10624 -1.40447 0
M  V30 3169 H 298.576 1.66394 -2.49506 0
M  V30 3170 H 296.129 0.835745 -1.3208 0
M  V30 3171 H 296.864 3.21277 -0.441737 0
M  V30 3172 H 296.649 3.23473 -2.21602 0
M  V30 3173 H 298.139 3.90293 -1.4853 0
M  V30 3174 N 298.576 1.31904 0.862503 0
M  V30 3175 C 299.825 1.21373 1.61094 0
M  V30 3176 C 300.138 -0.22504 1.94301 0
M  V30 3177 O 301.344 -0.452121 2.67709 0
M  V30 3178 C 299.8 2.12525 2.9045 0
M  V30 3179 C 299.408 3.61441 2.64697 0
M  V30 3180 C 301.152 2.10813 3.68454 0
M  V30 3181 C 299.059 4.44578 3.90006 0
M  V30 3182 H 297.989 0.450705 0.604468 0
M  V30 3183 H 300.64 1.56811 0.953027 0
M  V30 3184 H 299.022 1.69994 3.57656 0
M  V30 3185 H 300.196 4.12264 2.05851 0
M  V30 3186 H 298.511 3.65205 2.00036 0
M  V30 3187 H 301.108 2.70167 4.61426 0
M  V30 3188 H 301.451 1.09713 4.01583 0
M  V30 3189 H 301.984 2.51583 3.08141 0
M  V30 3190 H 298.723 5.46461 3.62023 0
M  V30 3191 H 298.243 3.98508 4.48276 0
M  V30 3192 H 299.922 4.57176 4.5782 0
M  V30 3193 N 300.054 -1.07777 1.14986 0
M  V30 3194 C 301.294 -1.81888 0.932527 0
M  V30 3195 C 301.658 -1.84509 -0.531064 0
M  V30 3196 O 302.859 -2.54448 -0.866577 0
M  V30 3197 C 301.13 -3.23244 1.52473 0
M  V30 3198 S 302.689 -4.14154 1.44989 0
M  V30 3199 H 299.507 -0.626752 0.335712 0
M  V30 3200 H 302.109 -1.29503 1.46455 0
M  V30 3201 H 300.813 -3.18922 2.58296 0
M  V30 3202 H 300.344 -3.80704 0.991381 0
M  V30 3203 H 302.359 -4.94247 0.439799 0
M  V30 3204 N 301.532 -0.945985 -1.26051 0
M  V30 3205 C 302.76 -0.613025 -1.9761 0
M  V30 3206 C 303.175 0.813035 -1.70397 0
M  V30 3207 O 302.532 1.54274 -0.974979 0
M  V30 3208 C 302.583 -0.85159 -3.51326 0
M  V30 3209 O 302.304 -2.22157 -3.77595 0
M  V30 3210 C 303.805 -0.529831 -4.40122 0
M  V30 3211 H 301.025 -0.230593 -0.630133 0
M  V30 3212 H 303.569 -1.268 -1.60443 0
M  V30 3213 H 301.724 -0.243151 -3.86636 0
M  V30 3214 H 302.138 -2.2852 -4.721 0
M  V30 3215 H 303.612 -0.747348 -5.46917 0
M  V30 3216 H 304.089 0.535341 -4.35925 0
M  V30 3217 H 304.695 -1.11721 -4.10364 0
M  V30 3218 N 303.011 1.40521 -0.713556 0
M  V30 3219 C 303.958 2.30723 -0.059684 0
M  V30 3220 C 304.928 1.48079 0.752448 0
M  V30 3221 O 306.113 1.76823 0.71681 0
M  V30 3222 C 303.253 3.34274 0.857594 0
M  V30 3223 C 302.366 4.31986 0.0351536 0
M  V30 3224 C 301.501 5.22605 0.951724 0
M  V30 3225 C 300.54 6.11976 0.123253 0
M  V30 3226 N 299.677 6.9502 0.99459 0
M  V30 3227 H 304.517 2.86074 -0.834596 0
M  V30 3228 H 302.054 1.40879 -0.42326 0
M  V30 3229 H 304.012 3.92879 1.40364 0
M  V30 3230 H 302.642 2.8043 1.59871 0
M  V30 3231 H 301.694 3.7518 -0.628052 0
M  V30 3232 H 303.006 4.95101 -0.606347 0
M  V30 3233 H 302.16 5.86131 1.56638 0
M  V30 3234 H 300.899 4.59759 1.62705 0
M  V30 3235 H 299.904 5.47482 -0.50435 0
M  V30 3236 H 301.129 6.76881 -0.548539 0
M  V30 3237 H 299.075 6.34764 1.6556 0
M  V30 3238 H 298.992 7.54892 0.40908 0
M  V30 3239 H 300.26 7.62997 1.59549 0
M  V30 3240 N 304.489 0.459591 1.5075 0
M  V30 3241 C 305.419 -0.330644 2.31147 0
M  V30 3242 C 306.4 -1.00087 1.37538 0
M  V30 3243 O 307.585 -1.00025 1.66459 0
M  V30 3244 C 304.715 -1.41958 3.16962 0
M  V30 3245 C 303.669 -0.871608 4.19031 0
M  V30 3246 C 302.995 -2.05797 4.9351 0
M  V30 3247 C 304.295 0.109251 5.22186 0
M  V30 3248 H 305.989 0.340336 2.97459 0
M  V30 3249 H 303.535 0.165119 1.4305 0
M  V30 3250 H 305.488 -1.9798 3.71997 0
M  V30 3251 H 304.212 -2.11917 2.48513 0
M  V30 3252 H 302.871 -0.333442 3.6508 0
M  V30 3253 H 302.519 -2.74427 4.21544 0
M  V30 3254 H 302.219 -1.6976 5.62544 0
M  V30 3255 H 303.743 -2.62331 5.51375 0
M  V30 3256 H 305.157 -0.361405 5.7216 0
M  V30 3257 H 303.554 0.383316 5.98875 0
M  V30 3258 H 304.624 1.03887 4.73641 0
M  V30 3259 N 305.967 -1.56429 0.191757 0
M  V30 3260 C 307.213 -1.97777 -0.448554 0
M  V30 3261 C 307.546 -1.07847 -1.61501 0
M  V30 3262 O 306.821 -0.129774 -1.94067 0
M  V30 3263 C 307.104 -3.48362 -0.911906 0
M  V30 3264 C 306.957 -4.4907 0.256136 0
M  V30 3265 C 308.276 -4.02561 -1.77857 0
M  V30 3266 H 305.395 -0.719071 -0.161572 0
M  V30 3267 H 308.037 -1.87896 0.282007 0
M  V30 3268 H 306.187 -3.56914 -1.53442 0
M  V30 3269 H 307.859 -4.5256 0.893733 0
M  V30 3270 H 306.102 -4.24181 0.908436 0
M  V30 3271 H 306.773 -5.51889 -0.11053 0
M  V30 3272 H 309.249 -3.96767 -1.25359 0
M  V30 3273 H 308.125 -5.08301 -2.07174 0
M  V30 3274 H 308.386 -3.47616 -2.73158 0
M  V30 3275 N 307.445 0.0818655 -1.57387 0
M  V30 3276 C 308.861 0.436412 -1.53517 0
M  V30 3277 C 309.061 1.79758 -0.910459 0
M  V30 3278 O 308.117 2.47324 -0.508636 0
M  V30 3279 C 309.43 0.386734 -2.98203 0
M  V30 3280 C 310.978 0.467644 -3.09487 0
M  V30 3281 C 311.453 0.447978 -4.55804 0
M  V30 3282 N 312.944 0.508348 -4.60402 0
M  V30 3283 C 313.679 0.515184 -5.71081 0
M  V30 3284 N 313.175 0.477435 -6.91153 0
M  V30 3285 N 314.968 0.560988 -5.59294 0
M  V30 3286 H 307.119 -0.809546 -1.96367 0
M  V30 3287 H 309.382 -0.302733 -0.898363 0
M  V30 3288 H 309.088 -0.546539 -3.47427 0
M  V30 3289 H 308.962 1.20075 -3.57578 0
M  V30 3290 H 311.349 1.39134 -2.60242 0
M  V30 3291 H 311.43 -0.374753 -2.5304 0
M  V30 3292 H 311.074 -0.471826 -5.05704 0
M  V30 3293 H 311.004 1.30777 -5.10103 0
M  V30 3294 H 313.495 0.54218 -3.7399 0
M  V30 3295 H 313.808 0.486299 -7.71268 0
M  V30 3296 H 312.153 0.444278 -6.93579 0
M  V30 3297 H 315.344 0.5881 -4.64391 0
M  V30 3298 H 315.517 0.562846 -6.45551 0
M  V30 3299 N 308.923 1.53595 0.353017 0
M  V30 3300 C 310.334 1.61937 0.929153 0
M  V30 3301 C 310.685 0.494686 1.89861 0
M  V30 3302 O 309.81 -0.377017 2.1309 0
M  V30 3303 C 310.405 2.93526 1.69199 0
M  V30 3304 C 308.964 3.04161 2.21727 0
M  V30 3305 C 308.111 2.57322 1.03348 0
M  V30 3306 H 311.062 1.58155 0.131431 0
M  V30 3307 H 311.083 2.82034 2.55416 0
M  V30 3308 H 310.595 3.75362 0.986144 0
M  V30 3309 H 308.696 2.26938 2.95516 0
M  V30 3310 H 308.809 4.09465 2.48748 0
M  V30 3311 H 307.173 2.12499 1.40414 0
M  V30 3312 H 307.956 3.41588 0.342428 0
M  V30 3313 N 310.401 -0.613514 1.45168 0
M  V30 3314 C 311.348 -1.72456 1.53387 0
M  V30 3315 C 312.318 -1.6169 0.380191 0
M  V30 3316 O 313.503 -1.81356 0.592836 0
M  V30 3317 C 310.643 -3.10753 1.50088 0
M  V30 3318 C 309.756 -3.32368 2.75963 0
M  V30 3319 C 308.891 -4.60737 2.64376 0
M  V30 3320 C 307.93 -4.7559 3.85332 0
M  V30 3321 N 307.067 -5.95253 3.72315 0
M  V30 3322 H 311.907 -1.64768 2.48305 0
M  V30 3323 H 309.444 -0.803503 1.23216 0
M  V30 3324 H 311.402 -3.90758 1.46164 0
M  V30 3325 H 310.032 -3.17413 0.587243 0
M  V30 3326 H 309.084 -2.4618 2.89999 0
M  V30 3327 H 310.396 -3.39218 3.65695 0
M  V30 3328 H 309.55 -5.48928 2.58385 0
M  V30 3329 H 308.289 -4.56275 1.72233 0
M  V30 3330 H 307.294 -3.85824 3.91688 0
M  V30 3331 H 308.519 -4.81854 4.78533 0
M  V30 3332 H 306.465 -5.91847 2.82937 0
M  V30 3333 H 306.382 -6.03236 4.55677 0
M  V30 3334 H 307.65 -6.85958 3.70246 0
M  V30 3335 N 311.879 -1.3236 -0.855495 0
M  V30 3336 C 313.295 -1.11332 -1.14356 0
M  V30 3337 C 313.495 0.106751 -2.01217 0
M  V30 3338 O 312.551 0.791891 -2.39761 0
M  V30 3339 C 313.864 -2.39237 -1.82171 0
M  V30 3340 C 315.412 -2.44986 -1.9481 0
M  V30 3341 C 315.887 -3.7281 -2.66039 0
M  V30 3342 N 317.378 -3.73787 -2.73565 0
M  V30 3343 C 318.113 -4.69394 -3.29327 0
M  V30 3344 N 317.609 -5.75367 -3.85907 0
M  V30 3345 N 319.402 -4.56893 -3.27423 0
M  V30 3346 H 311.553 -2.10586 -0.277027 0
M  V30 3347 H 313.816 -0.929701 -0.185364 0
M  V30 3348 H 313.522 -3.28431 -1.25802 0
M  V30 3349 H 313.396 -2.50134 -2.82335 0
M  V30 3350 H 315.783 -1.56252 -2.50338 0
M  V30 3351 H 315.864 -2.38043 -0.936448 0
M  V30 3352 H 315.508 -4.61918 -2.11174 0
M  V30 3353 H 315.438 -3.77024 -3.67642 0
M  V30 3354 H 317.929 -2.97189 -2.33424 0
M  V30 3355 H 318.242 -6.44378 -4.26611 0
M  V30 3356 H 316.587 -5.79123 -3.84242 0
M  V30 3357 H 319.778 -3.73269 -2.82467 0
M  V30 3358 H 319.951 -5.31577 -3.7058 0
M  V30 3359 N 313.357 1.07166 -1.15556 0
M  V30 3360 C 314.304 2.14417 -0.854055 0
M  V30 3361 C 315.274 1.64965 0.193806 0
M  V30 3362 O 316.459 1.90703 0.0609443 0
M  V30 3363 C 313.599 3.43304 -0.351574 0
M  V30 3364 C 312.712 4.06537 -1.46123 0
M  V30 3365 C 311.847 5.23266 -0.914677 0
M  V30 3366 C 310.886 5.78464 -2.00114 0
M  V30 3367 N 310.023 6.86521 -1.47083 0
M  V30 3368 H 314.863 2.39548 -1.77259 0
M  V30 3369 H 312.4 1.17543 -0.884425 0
M  V30 3370 H 314.358 4.17179 -0.0419409 0
M  V30 3371 H 312.988 3.18419 0.530037 0
M  V30 3372 H 312.04 3.30297 -1.88701 0
M  V30 3373 H 313.352 4.43567 -2.28144 0
M  V30 3374 H 312.506 6.04131 -0.557698 0
M  V30 3375 H 311.245 4.87658 -0.0636583 0
M  V30 3376 H 310.25 4.96243 -2.36692 0
M  V30 3377 H 311.475 6.16126 -2.85597 0
M  V30 3378 H 309.421 6.52849 -0.642198 0
M  V30 3379 H 309.338 7.22446 -2.22729 0
M  V30 3380 H 310.606 7.71087 -1.14215 0
M  V30 3381 N 314.835 0.952656 1.25548 0
M  V30 3382 C 315.785 0.442033 2.23674 0
M  V30 3383 C 316.769 -0.467632 1.53955 0
M  V30 3384 O 317.961 -0.301006 1.74422 0
M  V30 3385 C 315.09 -0.280816 3.4215 0
M  V30 3386 C 314.176 0.646803 4.19139 0
M  V30 3387 N 314.567 1.77759 4.73535 0
M  V30 3388 C 312.865 0.454617 4.43677 0
M  V30 3389 C 313.566 2.35658 5.31827 0
M  V30 3390 N 312.542 1.64333 5.18166 0
M  V30 3391 H 316.344 1.30505 2.63336 0
M  V30 3392 H 313.858 0.809904 1.40763 0
M  V30 3393 H 315.855 -0.663747 4.11582 0
M  V30 3394 H 314.515 -1.14046 3.04012 0
M  V30 3395 H 315.526 2.15949 4.7073 0
M  V30 3396 H 312.203 -0.362312 4.15925 0
M  V30 3397 H 313.593 3.30998 5.84713 0
M  V30 3398 N 316.313 -1.40141 0.720998 0
M  V30 3399 C 317.561 -2.0039 0.262323 0
M  V30 3400 C 317.882 -1.57469 -1.15015 0
M  V30 3401 O 317.152 -0.816582 -1.78069 0
M  V30 3402 H 315.732 -0.741063 0.093996 0
M  V30 3403 H 318.394 -1.71398 0.927835 0
M  V30 3404 H 317.49 -3.10658 0.299671 0
M  V30 3405 N 317.792 -0.46758 -1.50504 0
M  V30 3406 C 319.02 0.0864133 -2.06719 0
M  V30 3407 C 319.435 1.33819 -1.33184 0
M  V30 3408 O 318.792 1.78061 -0.400083 0
M  V30 3409 C 318.843 0.378079 -3.59517 0
M  V30 3410 O 318.564 -0.824044 -4.3028 0
M  V30 3411 C 320.065 0.979426 -4.32345 0
M  V30 3412 H 317.285 -0.00551697 -0.670977 0
M  V30 3413 H 319.829 -0.655354 -1.93715 0
M  V30 3414 H 317.984 1.06977 -3.72337 0
M  V30 3415 H 318.398 -0.566518 -5.21432 0
M  V30 3416 H 319.872 1.1333 -5.40241 0
M  V30 3417 H 320.349 1.9686 -3.9261 0
M  V30 3418 H 320.955 0.326216 -4.24047 0
M  V30 3419 N 319.27 1.56325 -0.20005 0
M  V30 3420 C 320.217 2.1932 0.718833 0
M  V30 3421 C 321.187 1.14198 1.20615 0
M  V30 3422 O 322.372 1.42469 1.26914 0
M  V30 3423 C 319.512 2.86041 1.93066 0
M  V30 3424 C 318.625 4.05702 1.48425 0
M  V30 3425 C 317.76 4.60266 2.65196 0
M  V30 3426 C 316.799 5.72273 2.17185 0
M  V30 3427 N 315.936 6.21221 3.27152 0
M  V30 3428 H 320.776 2.97486 0.17489 0
M  V30 3429 H 318.313 1.46911 0.0745794 0
M  V30 3430 H 320.271 3.22897 2.64184 0
M  V30 3431 H 318.901 2.1043 2.44783 0
M  V30 3432 H 317.953 3.74475 0.668755 0
M  V30 3433 H 319.265 4.86699 1.09204 0
M  V30 3434 H 318.419 4.99453 3.4443 0
M  V30 3435 H 317.158 3.78386 3.07693 0
M  V30 3436 H 316.163 5.3261 1.36407 0
M  V30 3437 H 317.388 6.55974 1.75713 0
M  V30 3438 H 315.334 5.42263 3.69171 0
M  V30 3439 H 315.251 6.97284 2.92116 0
M  V30 3440 H 316.519 6.65063 4.06585 0
M  V30 3441 N 320.748 -0.0735177 1.57428 0
M  V30 3442 C 321.973 -0.789787 1.91774 0
M  V30 3443 C 322.398 -1.70413 0.796306 0
M  V30 3444 O 321.756 -1.79555 -0.250961 0
M  V30 3445 C 321.804 -1.5609 3.25067 0
M  V30 3446 O 320.908 -2.67144 3.14178 0
M  V30 3447 H 320.249 -0.215582 0.628029 0
M  V30 3448 H 322.779 -0.0422781 2.04556 0
M  V30 3449 H 322.789 -1.94052 3.58898 0
M  V30 3450 H 321.464 -0.890015 4.06265 0
M  V30 3451 H 320.041 -2.32052 2.91901 0
M  V30 3452 N 322.226 -1.5378 -0.344866 0
M  V30 3453 C 323.189 -1.80981 -1.40637 0
M  V30 3454 C 324.189 -0.680816 -1.45676 0
M  V30 3455 O 325.379 -0.949095 -1.46075 0
M  V30 3456 C 322.511 -1.95063 -2.79577 0
M  V30 3457 H 323.704 -2.75803 -1.17783 0
M  V30 3458 H 321.257 -1.45173 -0.579181 0
M  V30 3459 H 321.992 -1.02379 -3.07716 0
M  V30 3460 H 321.777 -2.77198 -2.77315 0
M  V30 3461 H 323.267 -2.17629 -3.56409 0
M  V30 3462 N 323.704 0.605807 -1.45491 0
M  V30 3463 C 324.614 1.74466 -1.56839 0
M  V30 3464 C 325.63 1.68006 -0.452772 0
M  V30 3465 O 326.806 1.8833 -0.713708 0
M  V30 3466 C 323.871 3.10931 -1.53371 0
M  V30 3467 C 322.932 3.28832 -2.75986 0
M  V30 3468 C 322.165 4.58787 -2.72673 0
M  V30 3469 O 322.388 5.4122 -1.80102 0
M  V30 3470 O 321.322 4.79438 -3.63899 0
M  V30 3471 H 325.148 1.67843 -2.53106 0
M  V30 3472 H 322.733 0.770108 -1.28022 0
M  V30 3473 H 324.615 3.92233 -1.54051 0
M  V30 3474 H 323.29 3.18042 -0.602572 0
M  V30 3475 H 322.197 2.47112 -2.80867 0
M  V30 3476 H 323.53 3.26599 -3.68231 0
M  V30 3477 N 325.182 1.32811 0.848464 0
M  V30 3478 C 326.092 1.24278 1.98978 0
M  V30 3479 C 327.108 0.155176 1.73307 0
M  V30 3480 O 328.284 0.376999 1.9784 0
M  V30 3481 C 325.349 0.972444 3.32783 0
M  V30 3482 C 324.41 2.14911 3.71634 0
M  V30 3483 C 323.643 1.89157 4.99054 0
M  V30 3484 O 323.866 0.837165 5.64223 0
M  V30 3485 O 322.8 2.75433 5.35183 0
M  V30 3486 H 326.626 2.20238 2.09115 0
M  V30 3487 H 324.211 1.12762 0.980052 0
M  V30 3488 H 326.093 0.838432 4.12975 0
M  V30 3489 H 324.768 0.043051 3.23671 0
M  V30 3490 H 323.675 2.33862 2.91992 0
M  V30 3491 H 325.008 3.06151 3.85399 0
M  V30 3492 N 326.66 -1.06551 1.16123 0
M  V30 3493 C 327.57 -2.17484 0.879662 0
M  V30 3494 C 328.586 -1.73377 -0.147104 0
M  V30 3495 O 329.762 -2.01379 0.0289128 0
M  V30 3496 C 326.827 -3.44591 0.381829 0
M  V30 3497 C 325.888 -4.0322 1.4735 0
M  V30 3498 C 325.121 -5.24261 0.999324 0
M  V30 3499 O 325.344 -5.70198 -0.151957 0
M  V30 3500 O 324.278 -5.74775 1.78653 0
M  V30 3501 H 328.104 -2.44075 1.80724 0
M  V30 3502 H 325.689 -1.16042 0.940992 0
M  V30 3503 H 327.571 -4.21254 0.111053 0
M  V30 3504 H 326.246 -3.19532 -0.51777 0
M  V30 3505 H 325.153 -3.2806 1.79798 0
M  V30 3506 H 326.486 -4.32568 2.34831 0
M  V30 3507 N 328.138 -0.959301 -1.25041 0
M  V30 3508 C 329.068 -0.501388 -2.28053 0
M  V30 3509 C 330.049 0.454673 -1.63911 0
M  V30 3510 O 331.234 0.352618 -1.90972 0
M  V30 3511 C 328.364 0.217224 -3.4662 0
M  V30 3512 C 327.318 -0.654034 -4.22973 0
M  V30 3513 C 326.644 0.195589 -5.34342 0
M  V30 3514 C 327.944 -1.93447 -4.85155 0
M  V30 3515 H 329.638 -1.36238 -2.66608 0
M  V30 3516 H 327.184 -0.656534 -1.28163 0
M  V30 3517 H 329.137 0.548732 -4.17812 0
M  V30 3518 H 327.861 1.1125 -3.07068 0
M  V30 3519 H 326.52 -0.968693 -3.5357 0
M  V30 3520 H 326.168 1.09076 -4.91031 0
M  V30 3521 H 325.868 -0.384091 -5.86343 0
M  V30 3522 H 327.392 0.521958 -6.08365 0
M  V30 3523 H 328.806 -1.66908 -5.48466 0
M  V30 3524 H 327.203 -2.46018 -5.47353 0
M  V30 3525 H 328.273 -2.63466 -4.07079 0
M  V30 3526 N 329.616 1.39756 -0.72842 0
M  V30 3527 C 330.579 2.29012 -0.0927297 0
M  V30 3528 C 331.579 1.45992 0.674025 0
M  V30 3529 O 332.769 1.66749 0.50402 0
M  V30 3530 C 329.901 3.29396 0.878137 0
M  V30 3531 H 331.094 2.86729 -0.879011 0
M  V30 3532 H 328.647 1.48293 -0.493847 0
M  V30 3533 H 329.382 2.76722 1.69101 0
M  V30 3534 H 329.167 3.907 0.331051 0
M  V30 3535 H 330.657 3.96199 1.3197 0
M  V30 3536 N 331.094 0.475555 1.50254 0
M  V30 3537 C 332.51 0.12997 1.5907 0
M  V30 3538 C 332.71 -1.36385 1.48328 0
M  V30 3539 O 331.766 -2.13754 1.34407 0
M  V30 3540 C 333.079 0.684139 2.92814 0
M  V30 3541 C 334.627 0.647965 3.0622 0
M  V30 3542 C 335.102 1.17975 4.42545 0
M  V30 3543 N 336.593 1.13936 4.48969 0
M  V30 3544 C 337.328 1.52129 5.52851 0
M  V30 3545 N 336.824 1.97793 6.63965 0
M  V30 3546 N 338.617 1.43704 5.4342 0
M  V30 3547 H 330.768 1.44706 1.55479 0
M  V30 3548 H 333.031 0.598691 0.735033 0
M  V30 3549 H 332.737 1.73079 3.06164 0
M  V30 3550 H 332.611 0.130204 3.76975 0
M  V30 3551 H 334.998 -0.38979 2.92514 0
M  V30 3552 H 335.079 1.23876 2.23805 0
M  V30 3553 H 334.723 2.21616 4.57 0
M  V30 3554 H 334.653 0.565138 5.23559 0
M  V30 3555 H 337.144 0.804488 3.69238 0
M  V30 3556 H 337.457 2.25072 7.39299 0
M  V30 3557 H 335.802 2.01749 6.65073 0
M  V30 3558 H 338.993 1.07867 4.55502 0
M  V30 3559 H 339.166 1.73794 6.24259 0
M  V30 3560 N 332.573 -1.56217 0.208337 0
M  V30 3561 C 333.536 -2.18455 -0.693557 0
M  V30 3562 C 334.536 -1.14268 -1.13135 0
M  V30 3563 O 335.726 -1.39577 -1.0423 0
M  V30 3564 C 332.858 -2.79727 -1.94848 0
M  V30 3565 H 334.051 -2.99519 -0.15114 0
M  V30 3566 H 331.604 -1.56245 -0.041287 0
M  V30 3567 H 332.339 -2.02497 -2.53309 0
M  V30 3568 H 332.124 -3.56009 -1.64316 0
M  V30 3569 H 333.614 -3.27475 -2.59133 0
M  V30 3570 N 334.051 0.0651679 -1.57465 0
M  V30 3571 C 335.299 0.761555 -1.87202 0
M  V30 3572 C 335.62 1.77778 -0.801243 0
M  V30 3573 O 334.89 1.95166 0.16937 0
M  V30 3574 H 333.47 0.284251 -0.690804 0
M  V30 3575 H 336.132 0.0396827 -1.9486 0
M  V30 3576 H 335.228 1.27365 -2.84929 0
M  V30 3577 N 335.529 1.53961 0.336706 0
M  V30 3578 C 336.775 1.7273 1.07406 0
M  V30 3579 C 337.13 0.488095 1.86106 0
M  V30 3580 O 336.423 -0.519379 1.84426 0
M  V30 3581 C 336.617 2.93493 2.03953 0
M  V30 3582 C 336.446 4.29039 1.34744 0
M  V30 3583 C 335.216 4.93416 1.08942 0
M  V30 3584 C 337.414 5.08501 0.770115 0
M  V30 3585 N 335.396 6.12821 0.363864 0
M  V30 3586 C 336.767 6.19752 0.175472 0
M  V30 3587 C 338.822 4.93349 0.671633 0
M  V30 3588 C 337.525 7.17503 -0.508081 0
M  V30 3589 C 339.551 5.914 0.0018076 0
M  V30 3590 C 338.913 7.01993 -0.581835 0
M  V30 3591 H 335.012 0.685026 0.377177 0
M  V30 3592 H 337.596 1.91403 0.356815 0
M  V30 3593 H 335.767 2.76308 2.72962 0
M  V30 3594 H 337.499 3.00949 2.70577 0
M  V30 3595 H 334.254 4.53099 1.37833 0
M  V30 3596 H 334.678 6.76998 0.0156092 0
M  V30 3597 H 339.32 4.08007 1.1086 0
M  V30 3598 H 337.038 8.02414 -0.956918 0
M  V30 3599 H 340.624 5.81753 -0.0738538 0
M  V30 3600 H 339.504 7.76561 -1.09192 0
M  V30 3601 N 337.007 -0.598083 1.45811 0
M  V30 3602 C 337.937 -1.71873 1.58057 0
M  V30 3603 C 338.918 -1.64533 0.431615 0
M  V30 3604 O 340.103 -1.82787 0.65595 0
M  V30 3605 C 337.233 -3.10495 1.55597 0
M  V30 3606 C 336.187 -3.32654 2.69305 0
M  V30 3607 C 335.513 -4.71646 2.51902 0
M  V30 3608 C 336.813 -3.21981 4.11248 0
M  V30 3609 H 338.507 -1.61881 2.51863 0
M  V30 3610 H 336.053 -0.777372 1.21214 0
M  V30 3611 H 338.006 -3.88699 1.6276 0
M  V30 3612 H 336.73 -3.2135 0.583255 0
M  V30 3613 H 335.389 -2.56843 2.61586 0
M  V30 3614 H 335.037 -4.79246 1.52748 0
M  V30 3615 H 334.737 -4.87426 3.2816 0
M  V30 3616 H 336.261 -5.52038 2.60933 0
M  V30 3617 H 337.675 -3.90049 4.20161 0
M  V30 3618 H 336.072 -3.49289 4.87972 0
M  V30 3619 H 337.142 -2.1928 4.32486 0
M  V30 3620 N 338.485 -1.33259 -0.841409 0
M  V30 3621 C 339.415 -1.25926 -1.96634 0
M  V30 3622 C 340.396 -0.140349 -1.6952 0
M  V30 3623 O 341.581 -0.329707 -1.91381 0
M  V30 3624 C 338.711 -0.99512 -3.32738 0
M  V30 3625 C 337.665 -2.0767 -3.74242 0
M  V30 3626 C 336.991 -1.66474 -5.08125 0
M  V30 3627 C 338.291 -3.49318 -3.88297 0
M  V30 3628 H 339.985 -2.20046 -2.03027 0
M  V30 3629 H 337.531 -1.05931 -0.975425 0
M  V30 3630 H 339.484 -0.930323 -4.11002 0
M  V30 3631 H 338.208 -0.0183004 -3.26595 0
M  V30 3632 H 336.867 -2.13187 -2.98239 0
M  V30 3633 H 336.515 -0.675012 -4.9845 0
M  V30 3634 H 336.215 -2.3885 -5.36865 0
M  V30 3635 H 337.739 -1.61455 -5.88867 0
M  V30 3636 H 339.153 -3.46316 -4.56879 0
M  V30 3637 H 337.55 -4.20158 -4.28471 0
M  V30 3638 H 338.62 -3.8801 -2.9082 0
M  V30 3639 N 339.963 1.05934 -1.16686 0
M  V30 3640 C 340.911 2.15603 -0.872817 0
M  V30 3641 C 341.905 1.68647 0.159576 0
M  V30 3642 O 343.111 1.79995 0.0132125 0
M  V30 3643 H 339.486 0.703885 -0.264671 0
M  V30 3644 H 341.457 2.37613 -1.80507 0
M  V30 3645 C 340.206 3.45457 -0.394344 0
M  V30 3646 H 339.529 3.81984 -1.18019 0
M  V30 3647 H 340.969 4.2339 -0.227408 0
M  V30 3648 C 339.428 3.25021 0.88673 0
M  V30 3649 O 339.958 3.50906 1.95519 0
M  V30 3650 N 338.164 2.78437 0.831925 0
M  V30 3651 H 337.711 2.57572 -0.0377619 0
M  V30 3652 H 337.669 2.65144 1.68956 0
M  V30 3653 N 341.441 0.965919 1.2453 0
M  V30 3654 C 342.371 0.513476 2.27784 0
M  V30 3655 C 343.352 -0.445974 1.6415 0
M  V30 3656 O 344.537 -0.342485 1.91156 0
M  V30 3657 C 341.667 -0.198839 3.4673 0
M  V30 3658 C 340.621 0.676456 4.2262 0
M  V30 3659 C 339.947 -0.167248 5.34438 0
M  V30 3660 C 341.247 1.96017 4.84123 0
M  V30 3661 H 342.941 1.3765 2.65881 0
M  V30 3662 H 340.487 0.663321 1.27813 0
M  V30 3663 H 342.44 -0.526567 4.18097 0
M  V30 3664 H 341.164 -1.0962 3.07654 0
M  V30 3665 H 339.823 0.98743 3.53052 0
M  V30 3666 H 339.471 -1.0647 4.91603 0
M  V30 3667 H 339.171 0.415181 5.86131 0
M  V30 3668 H 340.695 -0.489688 6.08633 0
M  V30 3669 H 342.109 1.69814 5.47573 0
M  V30 3670 H 340.506 2.48918 5.4604 0
M  V30 3671 H 341.576 2.65622 4.05676 0
M  V30 3672 N 342.919 -1.39368 0.735821 0
M  V30 3673 C 343.851 -2.2913 0.0567723 0
M  V30 3674 C 344.864 -1.46859 -0.702589 0
M  V30 3675 O 346.053 -1.69925 -0.546616 0
M  V30 3676 C 343.153 -3.25492 -0.943823 0
M  V30 3677 C 342.326 -4.36709 -0.24581 0
M  V30 3678 C 341.385 -5.13376 -1.15463 0
M  V30 3679 O 340.411 -5.65683 -0.631803 0
M  V30 3680 N 341.613 -5.24656 -2.48427 0
M  V30 3681 H 344.378 -2.88047 0.827582 0
M  V30 3682 H 341.939 -1.50957 0.585112 0
M  V30 3683 H 343.931 -3.73657 -1.55443 0
M  V30 3684 H 342.501 -2.676 -1.61583 0
M  V30 3685 H 341.721 -3.9041 0.545286 0
M  V30 3686 H 343.009 -5.08244 0.237891 0
M  V30 3687 H 342.407 -4.83679 -2.93379 0
M  V30 3688 H 340.964 -5.76258 -3.04582 0
M  V30 3689 N 344.397 -0.483516 -1.5 0
M  V30 3690 C 345.347 0.32306 -2.257 0
M  V30 3691 C 346.331 0.950755 -1.29805 0
M  V30 3692 O 347.523 0.861247 -1.54634 0
M  V30 3693 C 344.652 1.39724 -3.13579 0
M  V30 3694 C 343.738 0.776663 -4.16928 0
M  V30 3695 N 344.129 -0.1104 -5.0568 0
M  V30 3696 C 342.427 1.03922 -4.33724 0
M  V30 3697 C 343.128 -0.46387 -5.79848 0
M  V30 3698 N 342.104 0.163987 -5.43353 0
M  V30 3699 H 345.906 -0.360086 -2.91686 0
M  V30 3700 H 343.42 -0.298456 -1.59634 0
M  V30 3701 H 345.417 1.98837 -3.66428 0
M  V30 3702 H 344.077 2.08225 -2.49143 0
M  V30 3703 H 345.088 -0.480069 -5.1567 0
M  V30 3704 H 341.765 1.71829 -3.80501 0
M  V30 3705 H 343.155 -1.18854 -6.61304 0
M  V30 3706 N 345.875 1.56104 -0.216619 0
M  V30 3707 C 346.805 2.23063 0.690296 0
M  V30 3708 C 347.786 1.20072 1.20485 0
M  V30 3709 O 348.971 1.48643 1.24976 0
M  V30 3710 C 346.101 2.90672 1.90072 0
M  V30 3711 C 345.055 4.00092 1.5202 0
M  V30 3712 C 344.381 4.54972 2.80899 0
M  V30 3713 C 345.681 5.17398 0.71391 0
M  V30 3714 H 347.375 2.99109 0.132038 0
M  V30 3715 H 344.921 1.43866 0.0620664 0
M  V30 3716 H 346.874 3.36204 2.54057 0
M  V30 3717 H 345.598 2.12066 2.48386 0
M  V30 3718 H 344.257 3.55283 0.903839 0
M  V30 3719 H 343.905 3.73102 3.37348 0
M  V30 3720 H 343.605 5.28817 2.56176 0
M  V30 3721 H 345.129 5.0322 3.45836 0
M  V30 3722 H 346.543 5.59342 1.25735 0
M  V30 3723 H 344.94 5.97444 0.563951 0
M  V30 3724 H 346.01 4.84088 -0.280527 0
M  V30 3725 N 347.353 -0.0568162 1.57498 0
M  V30 3726 C 348.581 -0.765626 1.92213 0
M  V30 3727 C 348.996 -1.70353 0.813961 0
M  V30 3728 O 348.353 -1.81268 -0.211701 0
M  V30 3729 C 348.404 -1.5465 3.2675 0
M  V30 3730 O 348.125 -0.646278 4.33307 0
M  V30 3731 C 349.626 -2.35497 3.75574 0
M  V30 3732 H 346.846 -0.216835 0.634999 0
M  V30 3733 H 349.39 -0.0226146 2.04487 0
M  V30 3734 H 347.545 -2.24165 3.15957 0
M  V30 3735 H 347.959 -1.19093 5.108 0
M  V30 3736 H 349.433 -2.85722 4.72299 0
M  V30 3737 H 349.91 -3.15692 3.05344 0
M  V30 3738 H 350.516 -1.7111 3.8936 0
M  V30 3739 N 348.832 -1.54138 -0.328536 0
M  V30 3740 C 349.762 -1.86167 -1.40939 0
M  V30 3741 C 350.743 -0.718044 -1.54202 0
M  V30 3742 O 351.928 -0.971328 -1.68163 0
M  V30 3743 C 349.058 -2.08461 -2.77779 0
M  V30 3744 C 348.012 -3.24299 -2.7931 0
M  V30 3745 C 347.338 -3.31955 -4.19178 0
M  V30 3746 C 348.638 -4.62065 -2.43502 0
M  V30 3747 H 350.332 -2.76689 -1.14383 0
M  V30 3748 H 347.878 -1.33132 -0.548806 0
M  V30 3749 H 349.831 -2.29453 -3.53454 0
M  V30 3750 H 348.555 -1.14684 -3.05802 0
M  V30 3751 H 347.214 -3.03187 -2.0609 0
M  V30 3752 H 346.862 -2.35745 -4.44335 0
M  V30 3753 H 346.562 -4.09805 -4.2111 0
M  V30 3754 H 348.086 -3.55175 -4.96672 0
M  V30 3755 H 349.5 -4.8297 -3.08889 0
M  V30 3756 H 347.897 -5.42429 -2.56693 0
M  V30 3757 H 348.967 -4.64652 -1.38659 0
M  V30 3758 N 350.31 0.590341 -1.46126 0
M  V30 3759 C 351.558 1.34616 -1.50742 0
M  V30 3760 C 351.879 1.94363 -0.157486 0
M  V30 3761 O 351.149 1.78136 0.815136 0
M  V30 3762 H 349.729 0.499789 -0.555175 0
M  V30 3763 H 352.391 0.691953 -1.82203 0
M  V30 3764 H 351.487 2.15678 -2.25587 0
M  V30 3765 N 351.788 1.33704 0.83433 0
M  V30 3766 C 352.751 1.24244 1.92603 0
M  V30 3767 C 353.751 0.160383 1.59998 0
M  V30 3768 O 354.941 0.412228 1.69252 0
M  V30 3769 C 352.073 0.91555 3.28376 0
M  V30 3770 H 353.266 2.21287 2.02416 0
M  V30 3771 H 350.819 1.17827 1.02696 0
M  V30 3772 H 351.554 -0.0521886 3.24258 0
M  V30 3773 H 351.339 1.69811 3.53422 0
M  V30 3774 H 352.829 0.874231 4.08347 0
M  V30 3775 N 353.266 -1.05314 1.17247 0
M  V30 3776 C 354.198 -2.13023 0.845812 0
M  V30 3777 C 355.211 -1.62096 -0.151246 0
M  V30 3778 O 356.4 -1.78343 0.0748818 0
M  V30 3779 C 353.5 -3.38047 0.240292 0
M  V30 3780 C 352.673 -4.18255 1.27991 0
M  V30 3781 C 351.732 -5.21625 0.692375 0
M  V30 3782 O 350.758 -5.52619 1.36385 0
M  V30 3783 N 351.96 -5.78201 -0.516178 0
M  V30 3784 H 354.725 -2.41642 1.77283 0
M  V30 3785 H 352.286 -1.21401 1.07115 0
M  V30 3786 H 354.278 -4.04359 -0.16603 0
M  V30 3787 H 352.848 -3.06972 -0.590487 0
M  V30 3788 H 352.068 -3.47451 1.86203 0
M  V30 3789 H 353.356 -4.68643 1.98119 0
M  V30 3790 H 352.754 -5.55301 -1.07969 0
M  V30 3791 H 351.311 -6.4604 -0.86458 0
M  V30 3792 N 354.744 -0.972509 -1.24016 0
M  V30 3793 C 355.993 -0.632603 -1.91523 0
M  V30 3794 C 356.306 0.836641 -1.76804 0
M  V30 3795 O 357.512 1.28728 -2.39043 0
M  V30 3796 C 355.968 -1.08082 -3.43287 0
M  V30 3797 C 355.576 -2.57386 -3.66683 0
M  V30 3798 C 357.32 -0.814288 -4.16617 0
M  V30 3799 C 355.227 -2.95915 -5.12043 0
M  V30 3800 H 354.157 -0.232898 -0.717129 0
M  V30 3801 H 356.808 -1.17936 -1.40582 0
M  V30 3802 H 355.19 -0.462339 -3.93292 0
M  V30 3803 H 356.364 -3.24405 -3.27258 0
M  V30 3804 H 354.679 -2.81701 -3.06649 0
M  V30 3805 H 357.276 -1.0781 -5.23718 0
M  V30 3806 H 357.619 0.24955 -4.15551 0
M  V30 3807 H 358.152 -1.39397 -3.72577 0
M  V30 3808 H 354.891 -4.0139 -5.18234 0
M  V30 3809 H 354.411 -2.33584 -5.52448 0
M  V30 3810 H 356.09 -2.86086 -5.80314 0
M  V30 3811 N 356.222 1.38976 -0.743202 0
M  V30 3812 C 357.47 1.99948 -0.29417 0
M  V30 3813 C 357.791 1.59279 1.12495 0
M  V30 3814 O 357.061 0.844808 1.76748 0
M  V30 3815 H 355.641 0.739473 -0.105774 0
M  V30 3816 H 358.303 1.699 -0.954986 0
M  V30 3817 H 357.399 3.10142 -0.349056 0
M  V30 3818 N 357.7 0.491464 1.49741 0
M  V30 3819 C 358.61 -0.296835 2.32715 0
M  V30 3820 C 359.626 -0.976536 1.44013 0
M  V30 3821 O 360.802 -0.960023 1.77047 0
M  V30 3822 C 357.867 -1.35288 3.19215 0
M  V30 3823 C 356.928 -0.687632 4.23757 0
M  V30 3824 C 356.161 -1.69336 5.06123 0
M  V30 3825 O 356.384 -2.92219 4.89861 0
M  V30 3826 O 355.318 -1.25394 5.88693 0
M  V30 3827 H 359.144 0.382048 3.01287 0
M  V30 3828 H 356.729 0.252953 1.47243 0
M  V30 3829 H 358.611 -1.96411 3.72828 0
M  V30 3830 H 357.286 -2.01487 2.53347 0
M  V30 3831 H 356.193 -0.0369159 3.74082 0
M  V30 3832 H 357.526 -0.0682566 4.92153 0
M  V30 3833 N 359.178 -1.55987 0.224894 0
M  V30 3834 C 360.426 -1.97998 -0.405099 0
M  V30 3835 C 360.747 -1.11387 -1.60056 0
M  V30 3836 O 360.017 -0.191645 -1.9496 0
M  V30 3837 H 358.597 -0.731235 -0.152658 0
M  V30 3838 H 361.259 -1.92279 0.318567 0
M  V30 3839 H 360.355 -3.03463 -0.729167 0
M  V30 3840 N 360.656 0.0484629 -1.57525 0
M  V30 3841 C 361.566 1.07241 -2.08654 0
M  V30 3842 C 362.582 1.409 -1.02095 0
M  V30 3843 O 363.758 1.50609 -1.33712 0
M  V30 3844 C 360.823 2.36008 -2.5397 0
M  V30 3845 C 359.884 2.09108 -3.7493 0
M  V30 3846 C 359.117 3.31736 -4.18075 0
M  V30 3847 O 359.34 4.41714 -3.60895 0
M  V30 3848 O 358.274 3.18576 -5.10679 0
M  V30 3849 H 362.1 0.667965 -2.96263 0
M  V30 3850 H 359.685 0.26417 -1.47046 0
M  V30 3851 H 361.567 3.11747 -2.83535 0
M  V30 3852 H 360.242 2.75786 -1.69481 0
M  V30 3853 H 359.149 1.31 -3.50414 0
M  V30 3854 H 360.482 1.74198 -4.60343 0
M  V30 3855 N 362.134 1.5431 0.320358 0
M  V30 3856 C 363.381 1.72668 1.05792 0
M  V30 3857 C 363.709 0.502084 1.87908 0
M  V30 3858 O 362.964 -0.516149 1.88771 0
M  V30 3859 C 363.263 2.95639 2.00828 0
M  V30 3860 C 362.929 4.30265 1.34843 0
M  V30 3861 C 361.591 4.66865 1.16578 0
M  V30 3862 C 363.943 5.13801 0.875095 0
M  V30 3863 C 361.271 5.84597 0.496336 0
M  V30 3864 C 363.623 6.32219 0.219463 0
M  V30 3865 C 362.287 6.67495 0.0246915 0
M  V30 3866 H 361.557 0.631837 0.387121 0
M  V30 3867 H 364.204 1.88552 0.334735 0
M  V30 3868 H 362.509 2.74456 2.79609 0
M  V30 3869 H 364.206 3.07038 2.57932 0
M  V30 3870 H 360.796 4.01472 1.50061 0
M  V30 3871 H 364.98 4.86039 1.00398 0
M  V30 3872 H 360.236 6.10486 0.334264 0
M  V30 3873 H 364.41 6.96227 -0.155291 0
M  V30 3874 H 362.037 7.5858 -0.496065 0
M  V30 3875 N 363.613 -0.582584 1.46437 0
M  V30 3876 C 364.861 -1.33814 1.51453 0
M  V30 3877 C 365.182 -1.94277 0.167792 0
M  V30 3878 O 364.452 -1.78566 -0.805677 0
M  V30 3879 H 363.032 -0.496838 0.557818 0
M  V30 3880 H 365.694 -0.682281 1.82568 0
M  V30 3881 H 364.79 -2.14479 2.26728 0
M  V30 3882 N 365.091 -1.34144 -0.827227 0
M  V30 3883 C 366.054 -1.25264 -1.91942 0
M  V30 3884 C 367.054 -0.168866 -1.59911 0
M  V30 3885 O 368.244 -0.421198 -1.69031 0
M  V30 3886 C 365.376 -0.932952 -3.27885 0
M  V30 3887 H 366.569 -2.22357 -2.0124 0
M  V30 3888 H 364.122 -1.1837 -1.0207 0
M  V30 3889 H 364.857 0.0349917 -3.24281 0
M  V30 3890 H 364.642 -1.71682 -3.52516 0
M  V30 3891 H 366.132 -0.895874 -4.07877 0
M  V30 3892 N 366.569 1.04691 -1.17803 0
M  V30 3893 C 367.815 1.78045 -0.970969 0
M  V30 3894 C 368.148 1.87686 0.498751 0
M  V30 3895 O 367.423 1.38035 1.37027 0
M  V30 3896 C 367.706 3.2166 -1.61884 0
M  V30 3897 C 367.559 3.20001 -3.161 0
M  V30 3898 C 368.878 4.1962 -1.3269 0
M  V30 3899 H 365.997 0.64633 -0.354155 0
M  V30 3900 H 368.639 1.22333 -1.45378 0
M  V30 3901 H 366.789 3.69232 -1.20831 0
M  V30 3902 H 368.461 2.80467 -3.66246 0
M  V30 3903 H 366.704 2.58203 -3.48588 0
M  V30 3904 H 367.375 4.21386 -3.56564 0
M  V30 3905 H 369.851 3.80567 -1.68249 0
M  V30 3906 H 368.727 5.18339 -1.80599 0
M  V30 3907 H 368.988 4.414 -0.248622 0
M  V30 3908 N 368.047 0.979072 1.23499 0
M  V30 3909 C 368.977 0.537606 2.27227 0
M  V30 3910 C 369.958 -0.428539 1.64613 0
M  V30 3911 O 371.143 -0.322191 1.91509 0
M  V30 3912 C 368.273 -0.162052 3.46922 0
M  V30 3913 C 367.227 0.721242 4.21879 0
M  V30 3914 C 366.553 -0.110555 5.34586 0
M  V30 3915 C 367.853 2.01141 4.82016 0
M  V30 3916 H 369.547 1.40462 2.64406 0
M  V30 3917 H 367.093 0.67684 1.27102 0
M  V30 3918 H 369.046 -0.482192 4.18632 0
M  V30 3919 H 367.77 -1.06351 3.08799 0
M  V30 3920 H 366.429 1.02482 3.51984 0
M  V30 3921 H 366.077 -1.0125 4.92704 0
M  V30 3922 H 365.777 0.477325 5.85658 0
M  V30 3923 H 367.301 -0.425107 6.09118 0
M  V30 3924 H 368.715 1.75612 5.45741 0
M  V30 3925 H 367.112 2.54695 5.43369 0
M  V30 3926 H 368.182 2.69909 4.02836 0
M  V30 3927 N 369.525 -1.3858 0.750561 0
M  V30 3928 C 370.457 -2.29057 0.0810714 0
M  V30 3929 C 371.47 -1.47596 -0.686973 0
M  V30 3930 O 372.659 -1.70495 -0.528563 0
M  V30 3931 C 369.759 -3.26475 -0.909247 0
M  V30 3932 C 368.932 -4.36945 -0.199478 0
M  V30 3933 C 367.991 -5.14572 -1.10011 0
M  V30 3934 O 367.017 -5.66321 -0.57177 0
M  V30 3935 N 368.219 -5.27262 -2.42849 0
M  V30 3936 H 370.984 -2.87153 0.858087 0
M  V30 3937 H 368.545 -1.50328 0.60109 0
M  V30 3938 H 370.537 -3.75285 -1.51471 0
M  V30 3939 H 369.107 -2.69298 -1.58736 0
M  V30 3940 H 368.327 -3.8981 0.586664 0
M  V30 3941 H 369.615 -5.07963 0.291783 0
M  V30 3942 H 369.013 -4.86763 -2.88233 0
M  V30 3943 H 367.57 -5.79456 -2.98453 0
M  V30 3944 N 371.003 -0.499398 -1.49478 0
M  V30 3945 C 372.251 0.0455996 -2.02049 0
M  V30 3946 C 372.572 1.37633 -1.38138 0
M  V30 3947 O 371.842 1.8842 -0.536166 0
M  V30 3948 H 370.422 0.0198416 -0.746736 0
M  V30 3949 H 373.084 -0.656274 -1.83519 0
M  V30 3950 H 372.18 0.176445 -3.11601 0
M  V30 3951 N 372.481 1.55866 -0.233164 0
M  V30 3952 C 373.391 2.24431 0.683217 0
M  V30 3953 C 374.407 1.2558 1.2044 0
M  V30 3954 O 375.583 1.58422 1.24356 0
M  V30 3955 C 372.648 2.91979 1.86947 0
M  V30 3956 C 371.709 4.06204 1.38912 0
M  V30 3957 C 370.942 4.70522 2.51883 0
M  V30 3958 O 371.165 4.33865 3.70293 0
M  V30 3959 O 370.099 5.59296 2.22423 0
M  V30 3960 H 373.925 3.03426 0.129059 0
M  V30 3961 H 371.51 1.494 -0.0022283 0
M  V30 3962 H 373.392 3.34573 2.56201 0
M  V30 3963 H 372.067 2.15935 2.41151 0
M  V30 3964 H 370.974 3.68155 0.664259 0
M  V30 3965 H 372.307 4.84025 0.893328 0
M  V30 3966 N 373.959 -0.0401083 1.57549 0
M  V30 3967 C 375.189 -0.744115 1.92734 0
M  V30 3968 C 375.597 -1.70005 0.830348 0
M  V30 3969 O 374.94 -1.82576 -0.20286 0
M  V30 3970 C 375.002 -1.56516 3.2364 0
M  V30 3971 C 374.666 -0.7752 4.50377 0
M  V30 3972 C 375.663 -0.0803326 5.19838 0
M  V30 3973 C 373.348 -0.733002 4.96923 0
M  V30 3974 C 375.342 0.646154 6.34116 0
M  V30 3975 C 373.029 -0.00276321 6.111 0
M  V30 3976 C 374.027 0.685585 6.7955 0
M  V30 3977 O 373.715 1.40399 7.91545 0
M  V30 3978 H 373.447 -0.214861 0.640945 0
M  V30 3979 H 376.001 -0.00503675 2.05399 0
M  V30 3980 H 374.231 -2.3478 3.07271 0
M  V30 3981 H 375.92 -2.15076 3.44234 0
M  V30 3982 H 376.686 -0.104035 4.84888 0
M  V30 3983 H 372.565 -1.25827 4.43496 0
M  V30 3984 H 376.109 1.18398 6.87479 0
M  V30 3985 H 372.006 0.0229012 6.45496 0
M  V30 3986 H 372.774 1.31653 8.07843 0
M  V30 3987 N 375.437 -1.54477 -0.31217 0
M  V30 3988 C 376.367 -1.87652 -1.38957 0
M  V30 3989 C 377.348 -0.734358 -1.53431 0
M  V30 3990 O 378.533 -0.98911 -1.67123 0
M  V30 3991 C 375.663 -2.11396 -2.75552 0
M  V30 3992 C 374.617 -3.27243 -2.75855 0
M  V30 3993 C 373.943 -3.36382 -4.15633 0
M  V30 3994 C 375.243 -4.64622 -2.38587 0
M  V30 3995 H 376.937 -2.77887 -1.11442 0
M  V30 3996 H 374.483 -1.33707 -0.534655 0
M  V30 3997 H 376.436 -2.33189 -3.51 0
M  V30 3998 H 375.16 -1.17921 -3.04569 0
M  V30 3999 H 373.819 -3.05356 -2.02863 0
M  V30 4000 H 373.467 -2.40445 -4.41809 0
M  V30 4001 H 373.167 -4.14249 -4.1674 0
M  V30 4002 H 374.691 -3.60422 -4.92877 0
M  V30 4003 H 376.105 -4.86219 -3.03749 0
M  V30 4004 H 374.502 -5.45121 -2.50925 0
M  V30 4005 H 375.572 -4.66097 -1.33723 0
M  V30 4006 N 376.915 0.57481 -1.46744 0
M  V30 4007 C 378.163 1.33009 -1.52161 0
M  V30 4008 C 378.484 1.94185 -0.178092 0
M  V30 4009 O 377.754 1.7899 0.796196 0
M  V30 4010 H 376.334 0.493873 -0.560445 0
M  V30 4011 H 378.996 0.672589 -1.82927 0
M  V30 4012 H 378.092 2.13273 -2.27862 0
M  V30 4013 N 378.394 1.34581 0.820102 0
M  V30 4014 C 379.326 1.22236 1.93884 0
M  V30 4015 C 380.339 0.148776 1.62119 0
M  V30 4016 O 381.528 0.400877 1.7394 0
M  V30 4017 C 378.628 0.856542 3.27897 0
M  V30 4018 C 377.801 2.02569 3.87666 0
M  V30 4019 C 376.86 1.63782 5.00062 0
M  V30 4020 O 375.886 2.35477 5.18208 0
M  V30 4021 N 377.088 0.553611 5.77854 0
M  V30 4022 H 379.853 2.18615 2.05006 0
M  V30 4023 H 377.414 1.27573 0.99683 0
M  V30 4024 H 379.406 0.578806 4.0054 0
M  V30 4025 H 377.976 -0.0171518 3.12595 0
M  V30 4026 H 377.196 2.468 3.07382 0
M  V30 4027 H 378.484 2.80752 4.24329 0
M  V30 4028 H 377.882 -0.0423528 5.65684 0
M  V30 4029 H 376.439 0.335614 6.50935 0
M  V30 4030 N 379.872 -1.04064 1.18357 0
M  V30 4031 C 380.819 -2.12077 0.910603 0
M  V30 4032 C 381.789 -1.65421 -0.15 0
M  V30 4033 O 382.974 -1.90797 -0.0103614 0
M  V30 4034 C 380.114 -3.42252 0.442472 0
M  V30 4035 C 379.227 -4.0252 1.5685 0
M  V30 4036 C 378.362 -5.20657 1.05309 0
M  V30 4037 C 377.401 -5.72955 2.1538 0
M  V30 4038 N 376.538 -6.8238 1.65233 0
M  V30 4039 H 381.378 -2.34764 1.83548 0
M  V30 4040 H 378.915 -1.15157 0.915279 0
M  V30 4041 H 380.873 -4.16921 0.152534 0
M  V30 4042 H 379.503 -3.19712 -0.445428 0
M  V30 4043 H 378.555 -3.25178 1.97391 0
M  V30 4044 H 379.867 -4.37362 2.39824 0
M  V30 4045 H 379.021 -6.0244 0.717677 0
M  V30 4046 H 377.76 -4.87318 0.19293 0
M  V30 4047 H 376.765 -4.89793 2.49766 0
M  V30 4048 H 377.99 -6.08337 3.01832 0
M  V30 4049 H 375.936 -6.50917 0.815064 0
M  V30 4050 H 375.853 -7.16286 2.41805 0
M  V30 4051 H 377.121 -7.67788 1.34619 0
M  V30 4052 N 381.35 -0.985608 -1.22978 0
M  V30 4053 C 382.596 -0.65836 -1.91816 0
M  V30 4054 C 382.929 0.806692 -1.76653 0
M  V30 4055 O 382.204 1.58252 -1.13078 0
M  V30 4056 C 382.487 -1.056 -3.44268 0
M  V30 4057 C 382.34 -2.57906 -3.68516 0
M  V30 4058 C 383.659 -0.603781 -4.35939 0
M  V30 4059 H 380.778 -0.24065 -0.696604 0
M  V30 4060 H 383.42 -1.22783 -1.44998 0
M  V30 4061 H 381.57 -0.571445 -3.84274 0
M  V30 4062 H 383.242 -3.13976 -3.3796 0
M  V30 4063 H 381.485 -3.00305 -3.13048 0
M  V30 4064 H 382.156 -2.80779 -4.75255 0
M  V30 4065 H 384.632 -1.01987 -4.03408 0
M  V30 4066 H 383.508 -0.910383 -5.41298 0
M  V30 4067 H 383.769 0.495761 -4.39312 0
M  V30 4068 N 382.828 1.3818 -0.7579 0
M  V30 4069 C 383.791 2.28764 -0.141286 0
M  V30 4070 C 384.791 1.47388 0.642907 0
M  V30 4071 O 385.981 1.67781 0.468536 0
M  V30 4072 C 383.113 3.31184 0.808069 0
M  V30 4073 H 384.306 2.848 -0.939633 0
M  V30 4074 H 381.859 1.47212 -0.525191 0
M  V30 4075 H 382.594 2.80247 1.63193 0
M  V30 4076 H 382.379 3.91314 0.248104 0
M  V30 4077 H 383.869 3.98909 1.23536 0
M  V30 4078 N 384.306 0.507319 1.49211 0
M  V30 4079 C 385.552 -0.0350047 2.0277 0
M  V30 4080 C 385.885 -1.3606 1.38569 0
M  V30 4081 O 385.16 -1.87321 0.523542 0
M  V30 4082 C 385.443 -0.180916 3.59645 0
M  V30 4083 C 385.296 1.16825 4.34364 0
M  V30 4084 C 386.615 -0.918558 4.30407 0
M  V30 4085 H 383.734 -0.0112473 0.736914 0
M  V30 4086 H 386.376 0.659956 1.7817 0
M  V30 4087 H 384.526 -0.772826 3.80736 0
M  V30 4088 H 386.198 1.79952 4.24753 0
M  V30 4089 H 384.441 1.75594 3.96673 0
M  V30 4090 H 385.112 1.01939 5.42506 0
M  V30 4091 H 387.588 -0.41649 4.1401 0
M  V30 4092 H 386.464 -0.989505 5.39907 0
M  V30 4093 H 386.725 -1.96373 3.96093 0
M  V30 4094 N 385.784 -1.5574 0.241426 0
M  V30 4095 C 386.731 -2.21149 -0.660432 0
M  V30 4096 C 387.701 -1.17356 -1.17545 0
M  V30 4097 O 388.886 -1.45784 -1.23093 0
M  V30 4098 C 386.026 -2.91059 -1.85414 0
M  V30 4099 C 385.139 -4.09495 -1.37616 0
M  V30 4100 C 384.274 -4.67135 -2.529 0
M  V30 4101 C 383.313 -5.77831 -2.01936 0
M  V30 4102 N 382.45 -6.29677 -3.10566 0
M  V30 4103 H 387.29 -2.97845 -0.095955 0
M  V30 4104 H 384.827 -1.47057 -0.0356024 0
M  V30 4105 H 386.785 -3.29788 -2.5553 0
M  V30 4106 H 385.415 -2.16846 -2.39118 0
M  V30 4107 H 384.467 -3.76117 -0.569235 0
M  V30 4108 H 385.779 -4.89423 -0.962618 0
M  V30 4109 H 384.933 -5.08409 -3.31067 0
M  V30 4110 H 383.672 -3.86411 -2.97553 0
M  V30 4111 H 382.677 -5.36039 -1.22238 0
M  V30 4112 H 383.902 -6.60402 -1.58259 0
M  V30 4113 H 381.848 -5.5186 -3.54664 0
M  V30 4114 H 381.765 -7.04783 -2.73526 0
M  V30 4115 H 383.033 -6.75609 -3.88809 0
M  V30 4116 N 387.262 0.0317525 -1.57568 0
M  V30 4117 C 388.21 1.05165 -2.07468 0
M  V30 4118 C 389.204 1.3761 -0.98792 0
M  V30 4119 O 390.41 1.36546 -1.17282 0
M  V30 4120 H 386.785 0.35666 -0.66204 0
M  V30 4121 H 388.756 0.604958 -2.92203 0
M  V30 4122 C 387.505 2.34488 -2.56731 0
M  V30 4123 H 386.828 2.10383 -3.39969 0
M  V30 4124 H 388.268 3.04203 -2.95358 0
M  V30 4125 C 386.727 3.03266 -1.46736 0
M  V30 4126 O 387.257 3.92988 -0.832069 0
M  V30 4127 N 385.463 2.6455 -1.20256 0
M  V30 4128 H 385.01 1.91674 -1.72102 0
M  V30 4129 H 384.968 3.10886 -0.468737 0
M  V30 4130 N 388.74 1.54641 0.303973 0
M  V30 4131 C 389.989 1.7299 1.03717 0
M  V30 4132 C 390.302 0.521168 1.88529 0
M  V30 4133 O 391.508 0.586408 2.65092 0
M  V30 4134 C 389.964 3.06051 1.89369 0
M  V30 4135 C 389.572 4.34393 1.09574 0
M  V30 4136 C 391.316 3.3376 2.62306 0
M  V30 4137 C 389.223 5.58506 1.94486 0
M  V30 4138 H 388.153 0.64473 0.390947 0
M  V30 4139 H 390.804 1.81124 0.294328 0
M  V30 4140 H 389.186 2.91874 2.67629 0
M  V30 4141 H 390.36 4.59396 0.359485 0
M  V30 4142 H 388.675 4.13597 0.482324 0
M  V30 4143 H 391.272 4.23687 3.26181 0
M  V30 4144 H 391.615 2.52503 3.3098 0
M  V30 4145 H 392.148 3.48894 1.91097 0
M  V30 4146 H 388.887 6.42422 1.30287 0
M  V30 4147 H 388.407 5.37694 2.65792 0
M  V30 4148 H 390.086 5.95651 2.52605 0
M  V30 4149 N 390.218 -0.567019 1.47046 0
M  V30 4150 C 391.165 -1.67489 1.58796 0
M  V30 4151 C 392.135 -1.60399 0.43144 0
M  V30 4152 O 393.32 -1.79378 0.650233 0
M  V30 4153 C 390.46 -3.05821 1.59899 0
M  V30 4154 C 389.573 -3.2342 2.86397 0
M  V30 4155 C 388.708 -4.52093 2.789 0
M  V30 4156 C 387.747 -4.6309 4.00267 0
M  V30 4157 N 386.884 -5.83106 3.91064 0
M  V30 4158 H 391.724 -1.56785 2.53422 0
M  V30 4159 H 389.261 -0.763896 1.2571 0
M  V30 4160 H 391.219 -3.8591 1.58522 0
M  V30 4161 H 389.849 -3.15384 0.687929 0
M  V30 4162 H 388.901 -2.3683 2.97684 0
M  V30 4163 H 390.213 -3.27412 3.76301 0
M  V30 4164 H 389.367 -5.4043 2.75718 0
M  V30 4165 H 388.106 -4.50565 1.86662 0
M  V30 4166 H 387.111 -3.73168 4.03765 0
M  V30 4167 H 388.336 -4.66386 4.93621 0
M  V30 4168 H 386.282 -5.82546 3.01623 0
M  V30 4169 H 386.199 -5.88434 4.74638 0
M  V30 4170 H 387.467 -6.73831 3.91882 0
M  V30 4171 N 391.696 -1.35014 -0.812953 0
M  V30 4172 C 392.936 -1.29289 -1.58315 0
M  V30 4173 C 393.3 0.132727 -1.91541 0
M  V30 4174 O 394.501 0.314269 -2.66957 0
M  V30 4175 C 392.772 -2.1681 -2.84127 0
M  V30 4176 S 394.331 -2.28538 -3.74588 0
M  V30 4177 H 391.149 -0.459569 -0.542511 0
M  V30 4178 H 393.751 -1.70336 -0.959467 0
M  V30 4179 H 392.455 -3.19379 -2.57731 0
M  V30 4180 H 391.986 -1.76697 -3.51485 0
M  V30 4181 H 394.001 -1.4655 -4.74065 0
M  V30 4182 N 393.175 1.03435 -1.18907 0
M  V30 4183 C 394.452 1.73778 -0.89781 0
M  V30 4184 C 394.832 2.02458 0.597832 0
M  V30 4185 O 394.18 1.67482 1.55441 0
M  V30 4186 C 394.39 3.01845 -1.75187 0
M  V30 4187 C 395.738 3.7546 -1.9828 0
M  V30 4188 O 396.762 3.11759 -1.72293 0
M  V30 4189 O 395.621 4.89966 -2.42065 0
M  V30 4190 H 392.715 0.75651 -0.334098 0
M  V30 4191 H 395.261 1.09444 -1.29693 0
M  V30 4192 H 394.033 2.76836 -2.76545 0
M  V30 4193 H 393.656 3.73919 -1.35167 0
M  V30 4194 N 394.653 0.992116 1.22453 0
M  V30 4195 C 395.899 0.668523 1.91464 0
M  V30 4196 C 396.232 -0.797313 1.77078 0
M  V30 4197 O 395.507 -1.5765 1.13916 0
M  V30 4198 C 395.79 1.07424 3.43703 0
M  V30 4199 C 395.643 2.59857 3.67143 0
M  V30 4200 C 396.962 0.626891 4.35612 0
M  V30 4201 H 394.081 0.244341 0.695318 0
M  V30 4202 H 396.723 1.2355 1.44345 0
M  V30 4203 H 394.873 0.591816 3.83966 0
M  V30 4204 H 396.545 3.15764 3.3629 0
M  V30 4205 H 394.788 3.01961 3.11451 0
M  V30 4206 H 395.459 2.83296 4.73759 0
M  V30 4207 H 397.935 1.04125 4.02861 0
M  V30 4208 H 396.811 0.939076 5.40807 0
M  V30 4209 H 397.072 -0.472457 4.39568 0
M  V30 4210 N 396.131 -1.37776 0.765217 0
M  V30 4211 C 397.359 -2.04124 0.337767 0
M  V30 4212 C 397.774 -1.57715 -1.03785 0
M  V30 4213 O 397.131 -0.755447 -1.6613 0
M  V30 4214 C 397.182 -3.59658 0.364442 0
M  V30 4215 O 396.903 -4.04367 1.68579 0
M  V30 4216 C 398.404 -4.43236 -0.0754221 0
M  V30 4217 H 395.624 -0.655696 0.142491 0
M  V30 4218 H 398.168 -1.76238 1.03732 0
M  V30 4219 H 396.323 -3.86339 -0.286471 0
M  V30 4220 H 396.737 -4.98857 1.61993 0
M  V30 4221 H 398.211 -5.52 -0.00560067 0
M  V30 4222 H 398.688 -4.2455 -1.12491 0
M  V30 4223 H 399.294 -4.21767 0.547055 0
M  V30 4224 N 397.609 -0.515225 -1.4894 0
M  V30 4225 C 398.572 0.244681 -2.2789 0
M  V30 4226 C 399.572 0.881166 -1.34507 0
M  V30 4227 O 400.762 0.743497 -1.57537 0
M  V30 4228 C 397.894 1.35247 -3.12923 0
M  V30 4229 H 399.087 -0.448289 -2.96531 0
M  V30 4230 H 396.64 -0.270656 -1.53939 0
M  V30 4231 H 397.375 2.07916 -2.48881 0
M  V30 4232 H 397.16 0.901374 -3.81599 0
M  V30 4233 H 398.65 1.88737 -3.72516 0
M  V30 4234 N 399.087 1.5561 -0.249682 0
M  V30 4235 C 400.019 2.18834 0.681496 0
M  V30 4236 C 401.032 1.16546 1.1367 0
M  V30 4237 O 402.221 1.43397 1.06299 0
M  V30 4238 C 399.321 2.77992 1.9384 0
M  V30 4239 C 398.494 4.05725 1.63419 0
M  V30 4240 C 397.553 4.49174 2.74096 0
M  V30 4241 O 396.579 5.15492 2.41364 0
M  V30 4242 N 397.781 4.17191 4.03649 0
M  V30 4243 H 400.546 2.9937 0.140514 0
M  V30 4244 H 398.107 1.6175 -0.0697541 0
M  V30 4245 H 400.099 3.04015 2.67127 0
M  V30 4246 H 398.669 2.01596 2.38909 0
M  V30 4247 H 397.889 3.87261 0.736358 0
M  V30 4248 H 399.177 4.88999 1.40562 0
M  V30 4249 H 398.575 3.63955 4.33074 0
M  V30 4250 H 397.132 4.48043 4.73393 0
M  V30 4251 N 400.565 -0.0233959 1.57583 0
M  V30 4252 C 401.528 -1.00693 2.05897 0
M  V30 4253 C 402.528 -1.28693 0.964092 0
M  V30 4254 O 403.718 -1.23602 1.22753 0
M  V30 4255 C 400.85 -2.33825 2.4807 0
M  V30 4256 H 402.043 -0.589476 2.9405 0
M  V30 4257 H 399.596 -0.270354 1.53944 0
M  V30 4258 H 400.331 -2.80307 1.6309 0
M  V30 4259 H 400.116 -2.1483 3.2801 0
M  V30 4260 H 401.606 -3.04426 2.85857 0
M  V30 4261 N 402.043 -1.548 -0.295768 0
M  V30 4262 C 403.29 -1.74329 -1.03032 0
M  V30 4263 C 403.618 -0.531915 -1.87085 0
M  V30 4264 O 402.873 0.486052 -1.89568 0
M  V30 4265 C 403.172 -2.98797 -1.961 0
M  V30 4266 C 402.838 -4.32356 -1.2798 0
M  V30 4267 C 401.5 -4.68661 -1.09135 0
M  V30 4268 C 403.852 -5.15128 -0.793243 0
M  V30 4269 C 401.18 -5.85312 -0.403269 0
M  V30 4270 C 403.532 -6.32488 -0.118854 0
M  V30 4271 C 402.196 -6.6745 0.0815043 0
M  V30 4272 H 401.466 -0.637916 -0.37702 0
M  V30 4273 H 404.113 -1.8906 -0.304696 0
M  V30 4274 H 402.418 -2.78869 -2.75207 0
M  V30 4275 H 404.115 -3.11102 -2.53015 0
M  V30 4276 H 400.705 -4.03808 -1.43655 0
M  V30 4277 H 404.889 -4.87575 -0.92653 0
M  V30 4278 H 400.145 -6.1094 -0.237098 0
M  V30 4279 H 404.319 -6.95892 0.266035 0
M  V30 4280 H 401.946 -7.57695 0.616685 0
M  V30 4281 N 403.521 0.559213 -1.47345 0
M  V30 4282 C 404.451 1.67622 -1.62558 0
M  V30 4283 C 405.432 1.63331 -0.475087 0
M  V30 4284 O 406.617 1.80983 -0.704182 0
M  V30 4285 C 403.747 3.0626 -1.63774 0
M  V30 4286 C 402.701 3.25397 -2.7803 0
M  V30 4287 C 402.027 4.64801 -2.64318 0
M  V30 4288 C 403.327 3.10965 -4.19641 0
M  V30 4289 H 405.021 1.55146 -2.56067 0
M  V30 4290 H 402.567 0.744961 -1.23233 0
M  V30 4291 H 404.52 3.84247 -1.73008 0
M  V30 4292 H 403.244 3.1969 -0.66825 0
M  V30 4293 H 401.903 2.49817 -2.68304 0
M  V30 4294 H 401.551 4.75028 -1.65401 0
M  V30 4295 H 401.251 4.78555 -3.40968 0
M  V30 4296 H 402.775 5.44926 -2.75478 0
M  V30 4297 H 404.189 3.78772 -4.30354 0
M  V30 4298 H 402.586 3.36229 -4.97062 0
M  V30 4299 H 403.656 2.07736 -4.38148 0
M  V30 4300 N 404.999 1.35443 0.805782 0
M  V30 4301 C 406.276 1.19325 1.54987 0
M  V30 4302 C 406.656 -0.227294 2.09873 0
M  V30 4303 O 406.004 -1.2309 1.92512 0
M  V30 4304 C 406.214 2.26196 2.65775 0
M  V30 4305 C 407.562 2.62043 3.34094 0
M  V30 4306 O 408.586 2.25115 2.76046 0
M  V30 4307 O 407.445 3.25542 4.38958 0
M  V30 4308 H 404.539 0.463623 0.684823 0
M  V30 4309 H 407.085 1.47127 0.845674 0
M  V30 4310 H 405.857 3.21471 2.23096 0
M  V30 4311 H 405.48 1.99667 3.43829 0
M  V30 4312 N 406.477 -1.02803 1.19454 0
M  V30 4313 C 407.387 -2.14575 0.948408 0
M  V30 4314 C 408.403 -1.73757 -0.091871 0
M  V30 4315 O 409.579 -2.01185 0.0929654 0
M  V30 4316 C 406.644 -3.43202 0.491265 0
M  V30 4317 C 405.705 -3.98328 1.60103 0
M  V30 4318 C 404.938 -5.20816 1.16561 0
M  V30 4319 O 405.161 -5.70392 0.0295238 0
M  V30 4320 O 404.095 -5.68801 1.96849 0
M  V30 4321 H 407.921 -2.38202 1.88397 0
M  V30 4322 H 405.506 -1.12989 0.977433 0
M  V30 4323 H 407.388 -4.20687 0.245015 0
M  V30 4324 H 406.063 -3.21018 -0.415851 0
M  V30 4325 H 404.97 -3.22174 1.90144 0
M  V30 4326 H 406.303 -4.24879 2.48473 0
M  V30 4327 N 407.956 -0.998596 -1.21925 0
M  V30 4328 C 409.184 -0.696286 -1.94832 0
M  V30 4329 C 409.599 0.740032 -1.73692 0
M  V30 4330 O 408.956 1.5 -1.03953 0
M  V30 4331 C 409.007 -0.999833 -3.47398 0
M  V30 4332 O 408.728 -2.37972 -3.67833 0
M  V30 4333 C 410.229 -0.716025 -4.37479 0
M  V30 4334 H 407.449 -0.257111 -0.619786 0
M  V30 4335 H 409.993 -1.33491 -1.54921 0
M  V30 4336 H 408.148 -0.406918 -3.85257 0
M  V30 4337 H 408.562 -2.48338 -4.61983 0
M  V30 4338 H 410.036 -0.978642 -5.43256 0
M  V30 4339 H 410.513 0.349968 -4.37803 0
M  V30 4340 H 411.119 -1.29025 -4.05256 0
M  V30 4341 N 409.434 1.37368 -0.772513 0
M  V30 4342 C 410.397 2.28601 -0.165541 0
M  V30 4343 C 411.397 1.48062 0.627238 0
M  V30 4344 O 412.587 1.68268 0.450715 0
M  V30 4345 C 409.719 3.32023 0.772897 0
M  V30 4346 H 410.912 2.83787 -0.969787 0
M  V30 4347 H 408.465 1.46647 -0.540775 0
M  V30 4348 H 409.2 2.81962 1.60212 0
M  V30 4349 H 408.985 3.91555 0.206585 0
M  V30 4350 H 410.475 4.00197 1.19298 0
M  V30 4351 N 410.912 0.523116 1.48665 0
M  V30 4352 C 412.158 -0.0134963 2.02796 0
M  V30 4353 C 412.491 -1.34582 1.40004 0
M  V30 4354 O 411.766 -1.86756 0.543381 0
M  V30 4355 C 412.049 -0.14276 3.59817 0
M  V30 4356 C 411.902 1.21425 4.331 0
M  V30 4357 C 413.221 -0.872856 4.31357 0
M  V30 4358 H 410.34 -0.00343074 0.736992 0
M  V30 4359 H 412.982 0.678816 1.7746 0
M  V30 4360 H 411.132 -0.732401 3.81534 0
M  V30 4361 H 412.804 1.84447 4.2282 0
M  V30 4362 H 411.047 1.79791 3.94788 0
M  V30 4363 H 411.718 1.07687 5.41394 0
M  V30 4364 H 414.194 -0.372555 4.14429 0
M  V30 4365 H 413.07 -0.932185 5.40927 0
M  V30 4366 H 413.331 -1.92161 3.98154 0
M  V30 4367 N 412.39 -1.55475 0.257931 0
M  V30 4368 C 413.323 -2.179 -0.677862 0
M  V30 4369 C 414.301 -1.13448 -1.16483 0
M  V30 4370 O 415.485 -1.41889 -1.24095 0
M  V30 4371 C 412.612 -2.78851 -1.92249 0
M  V30 4372 C 411.658 -3.96454 -1.57246 0
M  V30 4373 S 412.491 -5.31349 -0.665501 0
M  V30 4374 C 413.647 -5.9576 -1.91889 0
M  V30 4375 H 413.88 -2.96934 -0.147396 0
M  V30 4376 H 411.413 -1.54342 0.0423023 0
M  V30 4377 H 413.371 -3.14602 -2.63697 0
M  V30 4378 H 412.032 -1.99742 -2.42409 0
M  V30 4379 H 411.225 -4.37731 -2.49814 0
M  V30 4380 H 410.827 -3.62038 -0.938325 0
M  V30 4381 H 413.119 -6.13947 -2.86487 0
M  V30 4382 H 414.062 -6.9094 -1.54942 0
M  V30 4383 H 414.47 -5.2494 -2.076 0
M  V30 4384 N 413.868 0.0150385 -1.57593 0
M  V30 4385 C 415.096 0.714395 -1.94175 0
M  V30 4386 C 415.511 1.68135 -0.858841 0
M  V30 4387 O 414.868 1.81766 0.163567 0
M  V30 4388 C 414.919 1.45933 -3.30735 0
M  V30 4389 O 414.64 0.531167 -4.34868 0
M  V30 4390 C 416.141 2.25456 -3.81686 0
M  V30 4391 H 413.361 0.199923 -0.640525 0
M  V30 4392 H 415.905 -0.0316096 -2.04476 0
M  V30 4393 H 414.06 2.15709 -3.21789 0
M  V30 4394 H 414.474 1.05509 -5.13778 0
M  V30 4395 H 415.948 2.731 -4.79709 0
M  V30 4396 H 416.425 3.07485 -3.13607 0
M  V30 4397 H 417.031 1.60727 -3.9376 0
M  V30 4398 N 415.346 1.54954 0.287554 0
M  V30 4399 C 416.293 1.86834 1.35505 0
M  V30 4400 C 417.263 0.718452 1.49758 0
M  V30 4401 O 418.448 0.968358 1.644 0
M  V30 4402 C 415.588 2.13303 2.71286 0
M  V30 4403 C 414.701 3.40883 2.65373 0
M  V30 4404 C 413.836 3.57125 3.93236 0
M  V30 4405 C 412.875 4.78449 3.81776 0
M  V30 4406 N 412.012 4.91426 5.01443 0
M  V30 4407 H 416.852 2.77889 1.07619 0
M  V30 4408 H 414.389 1.37593 0.520241 0
M  V30 4409 H 416.347 2.26646 3.50267 0
M  V30 4410 H 414.977 1.25499 2.97405 0
M  V30 4411 H 414.029 3.36088 1.78182 0
M  V30 4412 H 415.341 4.29993 2.52799 0
M  V30 4413 H 414.495 3.70207 4.80658 0
M  V30 4414 H 413.234 2.66173 4.0866 0
M  V30 4415 H 412.239 4.65386 2.92738 0
M  V30 4416 H 413.464 5.70822 3.67884 0
M  V30 4417 H 411.41 4.03401 5.17304 0
M  V30 4418 H 411.327 5.74559 4.91343 0
M  V30 4419 H 412.595 5.08879 5.90477 0
M  V30 4420 N 416.824 -0.551391 1.4764 0
M  V30 4421 C 417.757 -1.6738 1.5511 0
M  V30 4422 C 418.735 -1.5753 0.402856 0
M  V30 4423 O 419.919 -1.78307 0.611475 0
M  V30 4424 C 417.046 -3.05661 1.45908 0
M  V30 4425 C 416.092 -3.33938 2.65307 0
M  V30 4426 S 416.925 -3.22553 4.27457 0
M  V30 4427 C 418.081 -4.63317 4.20818 0
M  V30 4428 H 418.314 -1.6079 2.50068 0
M  V30 4429 H 415.847 -0.732674 1.35909 0
M  V30 4430 H 417.805 -3.8542 1.41286 0
M  V30 4431 H 416.466 -3.09711 0.523248 0
M  V30 4432 H 415.659 -4.34761 2.54948 0
M  V30 4433 H 415.261 -2.61809 2.67081 0
M  V30 4434 H 417.553 -5.54391 3.89431 0
M  V30 4435 H 418.496 -4.78732 5.21748 0
M  V30 4436 H 418.904 -4.41636 3.51593 0
M  V30 4437 N 418.302 -1.35869 -0.798587 0
M  V30 4438 C 419.234 -1.25305 -1.91915 0
M  V30 4439 C 420.247 -0.174548 -1.61862 0
M  V30 4440 O 421.436 -0.428499 -1.73281 0
M  V30 4441 C 418.536 -0.9086 -3.26493 0
M  V30 4442 C 417.709 -2.08711 -3.84394 0
M  V30 4443 C 416.768 -1.71717 -4.97393 0
M  V30 4444 O 415.794 -2.43692 -5.14396 0
M  V30 4445 N 416.996 -0.645473 -5.769 0
M  V30 4446 H 419.761 -2.21849 -2.01502 0
M  V30 4447 H 417.322 -1.29143 -0.976408 0
M  V30 4448 H 419.314 -0.642455 -3.99568 0
M  V30 4449 H 417.884 -0.0325815 -3.12583 0
M  V30 4450 H 417.104 -2.51659 -3.03416 0
M  V30 4451 H 418.392 -2.87468 -4.19809 0
M  V30 4452 H 417.79 -0.047648 -5.6568 0
M  V30 4453 H 416.347 -0.43913 -6.50319 0
M  V30 4454 N 419.78 1.02168 -1.19998 0
M  V30 4455 C 420.73 2.08969 -0.911921 0
M  V30 4456 C 421.714 1.60404 0.12621 0
M  V30 4457 O 422.906 1.76817 -0.0804706 0
M  V30 4458 C 420.035 3.402 -0.460277 0
M  V30 4459 C 419.121 3.9548 -1.53155 0
M  V30 4460 N 419.512 4.24332 -2.75275 0
M  V30 4461 C 417.81 4.23572 -1.39653 0
M  V30 4462 C 418.511 4.68834 -3.44339 0
M  V30 4463 N 417.487 4.70804 -2.71744 0
M  V30 4464 H 421.289 2.29178 -1.83997 0
M  V30 4465 H 418.803 1.20094 -1.09322 0
M  V30 4466 H 420.8 4.16235 -0.235337 0
M  V30 4467 H 419.46 3.21408 0.4612 0
M  V30 4468 H 420.471 4.13393 -3.11973 0
M  V30 4469 H 417.148 4.14005 -0.539067 0
M  V30 4470 H 418.538 5.00019 -4.4881 0
M  V30 4471 N 421.258 1.00505 1.21394 0
M  V30 4472 C 422.168 0.574806 2.27449 0
M  V30 4473 C 423.184 -0.382206 1.6975 0
M  V30 4474 O 424.36 -0.246027 1.99892 0
M  V30 4475 C 421.425 -0.0917414 3.46579 0
M  V30 4476 C 420.486 0.909758 4.1955 0
M  V30 4477 C 419.719 0.274924 5.32991 0
M  V30 4478 O 419.942 -0.928254 5.62796 0
M  V30 4479 O 418.876 0.985877 5.93771 0
M  V30 4480 H 422.702 1.45744 2.66444 0
M  V30 4481 H 420.287 0.773923 1.27792 0
M  V30 4482 H 422.169 -0.464551 4.18832 0
M  V30 4483 H 420.844 -0.948755 3.09484 0
M  V30 4484 H 419.751 1.33372 3.49518 0
M  V30 4485 H 421.084 1.73636 4.60555 0
M  V30 4486 N 422.737 -1.36956 0.779787 0
M  V30 4487 C 423.685 -2.32053 0.15942 0
M  V30 4488 C 424.679 -1.55333 -0.675878 0
M  V30 4489 O 425.885 -1.70668 -0.57204 0
M  V30 4490 H 422.26 -0.751286 0.0327707 0
M  V30 4491 H 424.231 -2.8195 0.977078 0
M  V30 4492 C 422.98 -3.40602 -0.698977 0
M  V30 4493 H 422.303 -3.99746 -0.0655966 0
M  V30 4494 H 423.743 -4.09486 -1.09989 0
M  V30 4495 C 422.202 -2.81359 -1.85307 0
M  V30 4496 O 422.732 -2.72751 -2.94906 0
M  V30 4497 N 420.938 -2.38786 -1.65619 0
M  V30 4498 H 420.485 -2.45987 -0.764725 0
M  V30 4499 H 420.443 -1.99493 -2.43002 0
M  V30 4500 N 424.215 -0.530993 -1.48385 0
M  V30 4501 C 425.145 0.219985 -2.32461 0
M  V30 4502 C 426.126 0.934111 -1.42156 0
M  V30 4503 O 427.311 0.919694 -1.71042 0
M  V30 4504 C 424.441 1.26674 -3.23375 0
M  V30 4505 C 423.395 0.67069 -4.22712 0
M  V30 4506 C 422.721 1.82017 -5.02766 0
M  V30 4507 C 424.021 -0.358268 -5.2107 0
M  V30 4508 H 425.715 -0.48187 -2.95497 0
M  V30 4509 H 423.261 -0.233182 -1.42099 0
M  V30 4510 H 425.214 1.80006 -3.81019 0
M  V30 4511 H 423.938 1.99818 -2.58341 0
M  V30 4512 H 422.597 0.158878 -3.66256 0
M  V30 4513 H 422.245 2.54002 -4.34157 0
M  V30 4514 H 421.945 1.42727 -5.70003 0
M  V30 4515 H 423.469 2.35725 -5.63264 0
M  V30 4516 H 424.883 0.0880081 -5.73232 0
M  V30 4517 H 423.28 -0.66861 -5.96364 0
M  V30 4518 H 424.35 -1.26367 -4.68145 0
M  V30 4519 N 425.693 1.55336 -0.266172 0
M  V30 4520 C 426.939 1.99692 0.353681 0
M  V30 4521 C 427.272 1.1543 1.56172 0
M  V30 4522 O 426.547 0.222218 1.93226 0
M  V30 4523 C 426.83 3.52316 0.74466 0
M  V30 4524 C 426.683 4.47337 -0.470101 0
M  V30 4525 C 428.002 4.10588 1.58447 0
M  V30 4526 H 425.121 0.725961 0.12708 0
M  V30 4527 H 427.763 1.86336 -0.371333 0
M  V30 4528 H 425.913 3.63829 1.36239 0
M  V30 4529 H 427.585 4.4778 -1.10864 0
M  V30 4530 H 425.828 4.19364 -1.10978 0
M  V30 4531 H 426.499 5.51788 -0.15291 0
M  V30 4532 H 428.975 4.02297 1.06286 0
M  V30 4533 H 427.851 5.17607 1.82686 0
M  V30 4534 H 428.112 3.60253 2.56262 0
M  V30 4535 N 427.171 -0.0066808 1.57599 0
M  V30 4536 C 428.587 -0.36267 1.55425 0
M  V30 4537 C 428.787 -1.75209 0.995187 0
M  V30 4538 O 427.843 -2.44616 0.626058 0
M  V30 4539 C 429.156 -0.244017 2.99708 0
M  V30 4540 C 430.704 -0.319451 3.11366 0
M  V30 4541 C 431.179 -0.229998 4.57422 0
M  V30 4542 N 432.67 -0.288105 4.62303 0
M  V30 4543 C 433.405 -0.242127 5.72889 0
M  V30 4544 N 432.901 -0.147133 6.92644 0
M  V30 4545 N 434.694 -0.293502 5.61333 0
M  V30 4546 H 426.845 0.902314 1.92281 0
M  V30 4547 H 429.108 0.34525 0.882896 0
M  V30 4548 H 428.814 0.711678 3.44424 0
M  V30 4549 H 428.688 -1.02877 3.629 0
M  V30 4550 H 431.075 -1.26559 2.66584 0
M  V30 4551 H 431.156 0.495055 2.50964 0
M  V30 4552 H 430.8 0.712566 5.02877 0
M  V30 4553 H 430.73 -1.0629 5.15761 0
M  V30 4554 H 433.221 -0.363126 3.76151 0
M  V30 4555 H 433.534 -0.117763 7.7271 0
M  V30 4556 H 431.879 -0.112857 6.94908 0
M  V30 4557 H 435.07 -0.365864 4.66668 0
M  V30 4558 H 435.243 -0.254204 6.47501 0
M  V30 4559 N 428.649 -1.55105 -0.279332 0
M  V30 4560 C 429.579 -1.90557 -1.34945 0
M  V30 4561 C 430.56 -0.766738 -1.51839 0
M  V30 4562 O 431.745 -1.02434 -1.64988 0
M  V30 4563 C 428.875 -2.17193 -2.71006 0
M  V30 4564 C 427.829 -3.33021 -2.68851 0
M  V30 4565 C 427.155 -3.45123 -4.08405 0
M  V30 4566 C 428.455 -4.69578 -2.28678 0
M  V30 4567 H 430.149 -2.80188 -1.05522 0
M  V30 4568 H 427.695 -1.34811 -0.506173 0
M  V30 4569 H 429.648 -2.40581 -3.45975 0
M  V30 4570 H 428.372 -1.24355 -3.01999 0
M  V30 4571 H 427.031 -3.0959 -1.9634 0
M  V30 4572 H 426.679 -2.49762 -4.3661 0
M  V30 4573 H 426.379 -4.22995 -4.07859 0
M  V30 4574 H 427.903 -3.70796 -4.85121 0
M  V30 4575 H 429.317 -4.92553 -2.93368 0
M  V30 4576 H 427.714 -5.5032 -2.39306 0
M  V30 4577 H 428.784 -4.68828 -1.23807 0
M  V30 4578 N 430.127 0.543554 -1.4793 0
M  V30 4579 C 431.057 1.65888 -1.64327 0
M  V30 4580 C 432.038 1.62818 -0.492383 0
M  V30 4581 O 433.223 1.80226 -0.723338 0
M  V30 4582 C 430.353 3.04506 -1.67013 0
M  V30 4583 C 429.307 3.2243 -2.81466 0
M  V30 4584 C 428.633 4.61972 -2.69233 0
M  V30 4585 C 429.933 3.06496 -4.22915 0
M  V30 4586 H 431.627 1.52421 -2.57698 0
M  V30 4587 H 429.173 0.731849 -1.24016 0
M  V30 4588 H 431.126 3.82391 -1.77074 0
M  V30 4589 H 429.85 3.18964 -0.70212 0
M  V30 4590 H 428.509 2.46957 -2.70938 0
M  V30 4591 H 428.157 4.73247 -1.7043 0
M  V30 4592 H 427.857 4.74911 -3.46025 0
M  V30 4593 H 429.381 5.41974 -2.81242 0
M  V30 4594 H 430.795 3.74186 -4.34348 0
M  V30 4595 H 429.192 3.30938 -5.006 0
M  V30 4596 H 430.262 2.03077 -4.40327 0
M  V30 4597 N 431.605 1.3629 0.791371 0
M  V30 4598 C 432.853 1.30154 1.5461 0
M  V30 4599 C 433.174 -0.119409 1.94634 0
M  V30 4600 O 432.444 -1.05924 1.64794 0
M  V30 4601 H 431.024 0.478784 0.573389 0
M  V30 4602 H 433.686 1.70565 0.94306 0
M  V30 4603 H 432.782 1.92762 2.45457 0
M  V30 4604 N 433.083 -1.0153 1.20538 0
M  V30 4605 C 434.329 -1.75408 1.01783 0
M  V30 4606 C 434.662 -1.88943 -0.448814 0
M  V30 4607 O 433.937 -1.4162 -1.33319 0
M  V30 4608 C 434.22 -3.17255 1.70356 0
M  V30 4609 C 434.073 -3.11508 3.24473 0
M  V30 4610 C 435.392 -4.15955 1.43769 0
M  V30 4611 H 432.511 -0.636713 0.371167 0
M  V30 4612 H 435.153 -1.18436 1.4857 0
M  V30 4613 H 433.303 -3.65898 1.30578 0
M  V30 4614 H 434.975 -2.70658 3.73553 0
M  V30 4615 H 433.218 -2.4887 3.55311 0
M  V30 4616 H 433.889 -4.11784 3.67611 0
M  V30 4617 H 436.365 -3.75973 1.7828 0
M  V30 4618 H 435.241 -5.13368 1.94279 0
M  V30 4619 H 435.502 -4.40586 0.365564 0
M  V30 4620 N 434.561 -1.01147 -1.20859 0
M  V30 4621 C 435.81 -0.693214 -1.89413 0
M  V30 4622 C 436.123 0.779969 -1.79376 0
M  V30 4623 O 437.329 1.21057 -2.43017 0
M  V30 4624 C 435.785 -1.18949 -3.39675 0
M  V30 4625 C 435.393 -2.68921 -3.58309 0
M  V30 4626 C 437.137 -0.94642 -4.13815 0
M  V30 4627 C 435.044 -3.12056 -5.0237 0
M  V30 4628 H 433.974 -0.255595 -0.709357 0
M  V30 4629 H 436.625 -1.22349 -1.36759 0
M  V30 4630 H 435.007 -0.587228 -3.91622 0
M  V30 4631 H 436.181 -3.34652 -3.16772 0
M  V30 4632 H 434.496 -2.91314 -2.97532 0
M  V30 4633 H 437.093 -1.24417 -5.20023 0
M  V30 4634 H 437.436 0.117219 -4.16135 0
M  V30 4635 H 437.969 -1.5118 -3.67953 0
M  V30 4636 H 434.708 -4.17674 -5.05202 0
M  V30 4637 H 434.228 -2.51041 -5.44737 0
M  V30 4638 H 435.907 -3.04403 -5.70918 0
M  V30 4639 N 436.039 1.36541 -0.78704 0
M  V30 4640 C 436.969 2.32659 -0.197992 0
M  V30 4641 C 437.95 1.56533 0.665697 0
M  V30 4642 O 439.135 1.84698 0.60001 0
M  V30 4643 C 436.265 3.40778 0.669901 0
M  V30 4644 C 435.219 4.27897 -0.0937039 0
M  V30 4645 C 434.545 5.27163 0.894629 0
M  V30 4646 C 435.845 5.06334 -1.28154 0
M  V30 4647 H 437.539 2.82171 -1.00099 0
M  V30 4648 H 435.085 1.35665 -0.482793 0
M  V30 4649 H 437.038 4.07008 1.09191 0
M  V30 4650 H 435.762 2.89827 1.50558 0
M  V30 4651 H 434.421 3.6322 -0.49666 0
M  V30 4652 H 434.069 4.72486 1.72527 0
M  V30 4653 H 433.769 5.86317 0.388149 0
M  V30 4654 H 435.293 5.96266 1.31525 0
M  V30 4655 H 436.707 5.65617 -0.93541 0
M  V30 4656 H 435.104 5.74888 -1.72115 0
M  V30 4657 H 436.174 4.38114 -2.07807 0
M  V30 4658 N 437.518 0.538854 1.48102 0
M  V30 4659 C 438.468 -0.23907 2.26743 0
M  V30 4660 C 439.452 -0.901923 1.33245 0
M  V30 4661 O 440.644 -0.803263 1.57723 0
M  V30 4662 C 437.773 -1.2799 3.18549 0
M  V30 4663 C 436.859 -0.621388 4.19523 0
M  V30 4664 N 437.25 0.298004 5.04921 0
M  V30 4665 C 435.548 -0.877533 4.37282 0
M  V30 4666 C 436.249 0.678757 5.77726 0
M  V30 4667 N 435.225 0.0377881 5.43587 0
M  V30 4668 H 439.027 0.468096 2.90148 0
M  V30 4669 H 436.541 0.357497 1.58416 0
M  V30 4670 H 438.538 -1.851 3.73555 0
M  V30 4671 H 437.198 -1.98835 2.567 0
M  V30 4672 H 438.209 0.671126 5.13533 0
M  V30 4673 H 434.886 -1.57588 3.86616 0
M  V30 4674 H 436.276 1.43316 6.56437 0
M  V30 4675 N 438.996 -1.55193 0.274407 0
M  V30 4676 C 439.928 -2.1989 -0.646595 0
M  V30 4677 C 440.941 -1.1834 -1.11801 0
M  V30 4678 O 442.13 -1.4507 -1.04004 0
M  V30 4679 C 439.23 -2.8104 -1.89393 0
M  V30 4680 C 438.403 -4.08274 -1.56943 0
M  V30 4681 C 437.462 -4.53478 -2.66916 0
M  V30 4682 O 436.488 -5.19267 -2.33132 0
M  V30 4683 N 437.69 -4.2356 -3.9696 0
M  V30 4684 H 440.455 -2.99556 -0.0928686 0
M  V30 4685 H 438.016 -1.61618 0.0954783 0
M  V30 4686 H 440.008 -3.08226 -2.62257 0
M  V30 4687 H 438.578 -2.05372 -2.35672 0
M  V30 4688 H 437.798 -3.88384 -0.674655 0
M  V30 4689 H 439.086 -4.91173 -1.32764 0
M  V30 4690 H 438.484 -3.70799 -4.27229 0
M  V30 4691 H 437.041 -4.55518 -4.66205 0
M  V30 4692 N 440.474 -0.00167713 -1.576 0
M  V30 4693 C 441.722 0.681471 -1.90264 0
M  V30 4694 C 442.043 1.7422 -0.875924 0
M  V30 4695 O 441.313 1.95709 0.0864412 0
M  V30 4696 H 439.893 0.254696 -0.702239 0
M  V30 4697 H 442.555 -0.0429996 -1.94853 0
M  V30 4698 H 441.651 1.15166 -2.90075 0
M  V30 4699 N 441.952 1.55251 0.271103 0
M  V30 4700 C 442.882 1.9127 1.33933 0
M  V30 4701 C 443.863 0.77478 1.5143 0
M  V30 4702 O 445.048 1.03307 1.64442 0
M  V30 4703 C 442.178 2.18627 2.69851 0
M  V30 4704 C 441.132 3.34442 2.67081 0
M  V30 4705 C 440.458 3.47284 4.06569 0
M  V30 4706 C 441.758 4.70784 2.26185 0
M  V30 4707 H 443.452 2.80744 1.04035 0
M  V30 4708 H 440.998 1.35077 0.499017 0
M  V30 4709 H 442.951 2.42413 3.44694 0
M  V30 4710 H 441.675 1.25955 3.01335 0
M  V30 4711 H 440.334 3.10627 1.94695 0
M  V30 4712 H 439.982 2.52074 4.35279 0
M  V30 4713 H 439.682 4.25152 4.0561 0
M  V30 4714 H 441.206 3.73363 4.83148 0
M  V30 4715 H 442.62 4.94102 2.90751 0
M  V30 4716 H 441.017 5.51582 2.36384 0
M  V30 4717 H 442.087 4.69478 1.21319 0
M  V30 4718 N 443.43 -0.535701 1.48216 0
M  V30 4719 C 444.66 -1.3148 1.59363 0
M  V30 4720 C 445.068 -1.8753 0.250844 0
M  V30 4721 O 444.411 -1.66821 -0.769174 0
M  V30 4722 C 444.473 -2.50731 2.57632 0
M  V30 4723 C 444.137 -2.15811 4.02833 0
M  V30 4724 C 445.134 -1.71822 4.90686 0
M  V30 4725 C 442.819 -2.26509 4.48329 0
M  V30 4726 C 444.813 -1.3899 6.22062 0
M  V30 4727 C 442.5 -1.93289 5.79726 0
M  V30 4728 C 443.498 -1.49599 6.66415 0
M  V30 4729 O 443.186 -1.16812 7.95368 0
M  V30 4730 H 442.918 -0.406315 0.540263 0
M  V30 4731 H 445.472 -0.653569 1.94725 0
M  V30 4732 H 443.702 -3.19817 2.1738 0
M  V30 4733 H 445.391 -3.12797 2.58675 0
M  V30 4734 H 446.157 -1.63031 4.56778 0
M  V30 4735 H 442.036 -2.59471 3.81045 0
M  V30 4736 H 445.58 -1.04816 6.89681 0
M  V30 4737 H 441.477 -2.01718 6.13172 0
M  V30 4738 H 442.245 -1.30259 8.08069 0
M  V30 4739 N 444.908 -1.36708 -0.784132 0
M  V30 4740 C 446.157 -1.30559 -1.53744 0
M  V30 4741 C 446.47 0.111374 -1.95283 0
M  V30 4742 O 447.676 0.29527 -2.6989 0
M  V30 4743 C 446.132 -2.29098 -2.77565 0
M  V30 4744 C 445.74 -3.76258 -2.43174 0
M  V30 4745 C 447.484 -2.31936 -3.55536 0
M  V30 4746 C 445.391 -4.6656 -3.63422 0
M  V30 4747 H 444.321 -0.48518 -0.577162 0
M  V30 4748 H 446.972 -1.62101 -0.859981 0
M  V30 4749 H 445.354 -1.90557 -3.47137 0
M  V30 4750 H 446.528 -4.23565 -1.81465 0
M  V30 4751 H 444.843 -3.76246 -1.78403 0
M  V30 4752 H 447.44 -2.9661 -4.44889 0
M  V30 4753 H 447.783 -1.3294 -3.94503 0
M  V30 4754 H 448.316 -2.6912 -2.92949 0
M  V30 4755 H 445.055 -5.66638 -3.29547 0
M  V30 4756 H 444.575 -4.23966 -4.24279 0
M  V30 4757 H 446.254 -4.8309 -4.30387 0
M  V30 4758 N 446.386 1.0089 -1.21074 0
M  V30 4759 C 447.632 1.74866 -1.02712 0
M  V30 4760 C 447.965 1.89178 0.438787 0
M  V30 4761 O 447.24 1.42325 1.32567 0
M  V30 4762 C 447.523 3.16347 -1.72036 0
M  V30 4763 C 447.376 3.09782 -3.26121 0
M  V30 4764 C 448.695 4.15187 -1.45973 0
M  V30 4765 H 445.814 0.634736 -0.374539 0
M  V30 4766 H 448.456 1.17646 -1.49196 0
M  V30 4767 H 446.606 3.65201 -1.32517 0
M  V30 4768 H 448.278 2.68673 -3.74983 0
M  V30 4769 H 446.521 2.46982 -3.56626 0
M  V30 4770 H 447.192 4.09829 -3.6979 0
M  V30 4771 H 449.668 3.75022 -1.80272 0
M  V30 4772 H 448.544 5.12331 -1.96999 0
M  V30 4773 H 448.805 4.40386 -0.388924 0
M  V30 4774 N 447.864 1.01787 1.20321 0
M  V30 4775 C 448.797 0.533882 2.21867 0
M  V30 4776 C 449.775 -0.419361 1.57099 0
M  V30 4777 O 450.959 -0.339062 1.85426 0
M  V30 4778 C 448.086 -0.222899 3.37966 0
M  V30 4779 C 447.132 0.680091 4.21043 0
M  V30 4780 S 447.965 2.14997 4.90445 0
M  V30 4781 C 449.121 1.40339 6.09964 0
M  V30 4782 H 449.354 1.39429 2.62577 0
M  V30 4783 H 446.887 0.826867 1.30393 0
M  V30 4784 H 448.845 -0.653425 4.05266 0
M  V30 4785 H 447.506 -1.0589 2.95713 0
M  V30 4786 H 446.699 0.0964704 5.03908 0
M  V30 4787 H 446.301 1.04845 3.59004 0
M  V30 4788 H 448.593 0.68407 6.74038 0
M  V30 4789 H 449.536 2.20823 6.72787 0
M  V30 4790 H 449.944 0.905716 5.57187 0
M  V30 4791 N 449.342 -1.36122 0.79427 0
M  V30 4792 C 450.252 -2.33769 0.197296 0
M  V30 4793 C 451.268 -1.61276 -0.653153 0
M  V30 4794 O 452.444 -1.9323 -0.5678 0
M  V30 4795 C 449.509 -3.40474 -0.654098 0
M  V30 4796 C 448.57 -4.28759 0.215411 0
M  V30 4797 C 447.803 -5.30368 -0.595443 0
M  V30 4798 O 448.026 -5.40211 -1.83107 0
M  V30 4799 O 446.96 -6.019 0.00721351 0
M  V30 4800 H 450.786 -2.86597 1.00478 0
M  V30 4801 H 448.371 -1.38676 0.555818 0
M  V30 4802 H 450.253 -4.05703 -1.13944 0
M  V30 4803 H 448.928 -2.89937 -1.43938 0
M  V30 4804 H 447.835 -3.66554 0.747615 0
M  V30 4805 H 449.168 -4.82661 0.964332 0
M  V30 4806 N 450.82 -0.546701 -1.47814 0
M  V30 4807 C 451.77 0.227042 -2.26867 0
M  V30 4808 C 452.754 0.894844 -1.33721 0
M  V30 4809 O 453.946 0.794887 -1.58147 0
M  V30 4810 C 451.075 1.26299 -3.19223 0
M  V30 4811 C 450.161 0.59913 -4.19847 0
M  V30 4812 N 450.552 -0.324777 -5.04756 0
M  V30 4813 C 448.85 0.854331 -4.37741 0
M  V30 4814 C 449.551 -0.709386 -5.77358 0
M  V30 4815 N 448.527 -0.0666153 -5.43559 0
M  V30 4816 H 452.329 -0.483476 -2.89896 0
M  V30 4817 H 449.843 -0.365893 -1.58224 0
M  V30 4818 H 451.84 1.83116 -3.74532 0
M  V30 4819 H 450.5 1.97471 -2.57751 0
M  V30 4820 H 451.511 -0.698351 -5.1317 0
M  V30 4821 H 448.188 1.55536 -3.87447 0
M  V30 4822 H 449.578 -1.46796 -6.55668 0
M  V30 4823 N 452.299 1.55045 -0.282633 0
M  V30 4824 C 453.545 2.00056 0.332481 0
M  V30 4825 C 453.878 1.1708 1.54939 0
M  V30 4826 O 453.153 0.2427 1.9298 0
M  V30 4827 C 453.436 3.53086 0.70725 0
M  V30 4828 C 453.289 4.46813 -0.517521 0
M  V30 4829 C 454.608 4.12245 1.54084 0
M  V30 4830 H 451.727 0.727268 0.119373 0
M  V30 4831 H 454.369 1.85932 -0.391076 0
M  V30 4832 H 452.519 3.65253 1.32372 0
M  V30 4833 H 454.191 4.46579 -1.15607 0
M  V30 4834 H 452.434 4.18163 -1.1542 0
M  V30 4835 H 453.105 5.51595 -0.211426 0
M  V30 4836 H 455.581 4.03401 1.02013 0
M  V30 4837 H 454.457 5.19515 1.77186 0
M  V30 4838 H 454.718 3.62951 2.52427 0
M  V30 4839 N 453.777 0.010035 1.57597 0
M  V30 4840 C 455.002 -0.687021 1.95691 0
M  V30 4841 C 455.427 -1.65952 0.885519 0
M  V30 4842 O 454.785 -1.80633 -0.15543 0
M  V30 4843 C 454.833 -1.3864 3.32884 0
M  V30 4844 O 453.937 -2.50115 3.27897 0
M  V30 4845 H 453.278 -0.181989 0.638573 0
M  V30 4846 H 455.808 0.0662122 2.04493 0
M  V30 4847 H 455.818 -1.74754 3.6868 0
M  V30 4848 H 454.493 -0.673411 4.10412 0
M  V30 4849 H 453.07 -2.16253 3.03791 0
M  V30 4850 N 455.255 -1.55392 -0.262866 0
M  V30 4851 C 456.202 -1.88966 -1.32516 0
M  V30 4852 C 457.172 -0.742187 -1.48596 0
M  V30 4853 O 458.357 -0.99439 -1.62839 0
M  V30 4854 C 455.497 -2.17592 -2.67858 0
M  V30 4855 C 454.61 -3.45061 -2.59917 0
M  V30 4856 C 453.745 -3.63336 -3.87505 0
M  V30 4857 C 452.784 -4.84462 -3.74116 0
M  V30 4858 N 451.921 -4.99342 -4.93561 0
M  V30 4859 H 456.761 -2.79566 -1.03184 0
M  V30 4860 H 454.298 -1.38404 -0.498285 0
M  V30 4861 H 456.256 -2.3219 -3.46617 0
M  V30 4862 H 454.886 -1.30215 -2.95371 0
M  V30 4863 H 453.938 -3.38881 -1.72812 0
M  V30 4864 H 455.25 -4.3396 -2.45926 0
M  V30 4865 H 454.404 -3.77807 -4.74707 0
M  V30 4866 H 453.143 -2.72641 -4.04374 0
M  V30 4867 H 452.148 -4.69985 -2.85297 0
M  V30 4868 H 453.373 -5.76603 -3.58757 0
M  V30 4869 H 451.319 -4.1158 -5.10821 0
M  V30 4870 H 451.236 -5.82303 -4.82141 0
M  V30 4871 H 452.504 -5.18208 -5.82306 0
M  V30 4872 N 456.733 0.527833 -1.48498 0
M  V30 4873 C 457.981 1.28101 -1.56316 0
M  V30 4874 C 458.302 1.9352 -0.239781 0
M  V30 4875 O 457.572 1.81433 0.738849 0
M  V30 4876 H 456.152 0.475793 -0.575873 0
M  V30 4877 H 458.814 0.614052 -1.84974 0
M  V30 4878 H 457.91 2.05916 -2.34532 0
M  V30 4879 N 458.211 1.37122 0.776871 0
M  V30 4880 C 459.159 1.32549 1.91138 0
M  V30 4881 C 460.153 0.215119 1.68029 0
M  V30 4882 O 461.359 0.382852 1.75881 0
M  V30 4883 H 457.734 0.412952 0.62847 0
M  V30 4884 H 459.705 2.28332 1.92112 0
M  V30 4885 C 458.454 1.14422 3.28333 0
M  V30 4886 H 457.777 1.99115 3.46689 0
M  V30 4887 H 459.217 1.15272 4.0803 0
M  V30 4888 C 457.676 -0.150434 3.36564 0
M  V30 4889 O 458.206 -1.13584 3.85307 0
M  V30 4890 N 456.412 -0.19939 2.89915 0
M  V30 4891 H 455.959 0.603142 2.5044 0
M  V30 4892 H 455.917 -1.06526 2.95803 0
M  V30 4893 N 459.689 -1.00246 1.21608 0
M  V30 4894 C 460.619 -2.10921 1.00172 0
M  V30 4895 C 461.6 -1.69938 -0.0741587 0
M  V30 4896 O 462.785 -1.94009 0.0861753 0
M  V30 4897 C 459.915 -3.42618 0.568355 0
M  V30 4898 C 458.869 -3.97407 1.58909 0
M  V30 4899 C 458.195 -5.25038 1.01187 0
M  V30 4900 C 459.495 -4.2918 2.97661 0
M  V30 4901 H 461.189 -2.29112 1.92739 0
M  V30 4902 H 458.735 -1.10101 0.928102 0
M  V30 4903 H 460.688 -4.19444 0.405555 0
M  V30 4904 H 459.412 -3.24227 -0.392961 0
M  V30 4905 H 458.071 -3.22703 1.73949 0
M  V30 4906 H 457.719 -5.02982 0.0421965 0
M  V30 4907 H 457.419 -5.62661 1.6937 0
M  V30 4908 H 458.943 -6.04507 0.860448 0
M  V30 4909 H 460.357 -4.96839 2.86049 0
M  V30 4910 H 458.754 -4.77952 3.6288 0
M  V30 4911 H 459.824 -3.3735 3.48315 0
M  V30 4912 N 461.167 -1.02423 -1.1978 0
M  V30 4913 C 462.413 -0.719051 -1.89625 0
M  V30 4914 C 462.746 0.750083 -1.7913 0
M  V30 4915 O 462.021 1.54574 -1.18056 0
M  V30 4916 C 462.304 -1.16499 -3.40735 0
M  V30 4917 C 462.157 -2.695 -3.60125 0
M  V30 4918 C 463.476 -0.742166 -4.33797 0
M  V30 4919 H 460.595 -0.26269 -0.688595 0
M  V30 4920 H 463.237 -1.27333 -1.41018 0
M  V30 4921 H 461.387 -0.69341 -3.82262 0
M  V30 4922 H 463.059 -3.24569 -3.278 0
M  V30 4923 H 461.302 -3.10113 -3.03336 0
M  V30 4924 H 461.973 -2.95757 -4.66081 0
M  V30 4925 H 464.449 -1.1477 -3.99959 0
M  V30 4926 H 463.325 -1.08213 -5.38127 0
M  V30 4927 H 463.586 0.355747 -4.40666 0
M  V30 4928 N 462.645 1.35699 -0.801477 0
M  V30 4929 C 463.593 2.3177 -0.196317 0
M  V30 4930 C 464.587 1.56388 0.651081 0
M  V30 4931 O 465.793 1.71557 0.544815 0
M  V30 4932 H 462.168 0.750669 -0.0447189 0
M  V30 4933 H 464.139 2.8036 -1.02181 0
M  V30 4934 C 462.888 3.41671 0.644702 0
M  V30 4935 H 462.211 3.998 0.0019921 0
M  V30 4936 H 463.651 4.11184 1.0346 0
M  V30 4937 C 462.11 2.84271 1.80808 0
M  V30 4938 O 462.64 2.77408 2.9053 0
M  V30 4939 N 460.846 2.41391 1.61799 0
M  V30 4940 H 460.393 2.47173 0.725493 0
M  V30 4941 H 460.351 2.03334 2.39797 0
M  V30 4942 N 464.123 0.554532 1.47522 0
M  V30 4943 C 465.37 0.029479 2.02479 0
M  V30 4944 C 465.698 -1.31929 1.42916 0
M  V30 4945 O 464.953 -1.87112 0.573385 0
M  V30 4946 C 465.252 -0.115927 3.57212 0
M  V30 4947 C 464.918 1.16161 4.3568 0
M  V30 4948 C 463.58 1.51168 4.56839 0
M  V30 4949 C 465.932 2.0083 4.80954 0
M  V30 4950 C 463.26 2.70696 5.2052 0
M  V30 4951 C 465.612 3.19559 5.45953 0
M  V30 4952 C 464.276 3.54882 5.65345 0
M  V30 4953 H 463.546 0.0107871 0.740921 0
M  V30 4954 H 466.193 0.725506 1.77225 0
M  V30 4955 H 464.498 -0.894902 3.81443 0
M  V30 4956 H 466.195 -0.53749 3.97381 0
M  V30 4957 H 462.785 0.879026 4.19489 0
M  V30 4958 H 466.969 1.75093 4.64388 0
M  V30 4959 H 462.225 2.98236 5.33728 0
M  V30 4960 H 466.399 3.85456 5.79997 0
M  V30 4961 H 464.026 4.47596 6.1446 0
M  V30 4962 N 465.601 -1.54893 0.290851 0
M  V30 4963 C 466.531 -2.26103 -0.583084 0
M  V30 4964 C 467.512 -1.25684 -1.14619 0
M  V30 4965 O 468.697 -1.54436 -1.17741 0
M  V30 4966 C 465.827 -2.99409 -1.75987 0
M  V30 4967 C 464.781 -4.0689 -1.32758 0
M  V30 4968 C 464.107 -4.67856 -2.58872 0
M  V30 4969 C 465.407 -5.20215 -0.46624 0
M  V30 4970 H 467.101 -2.99398 0.0108214 0
M  V30 4971 H 464.647 -1.43998 0.00664468 0
M  V30 4972 H 466.6 -3.47943 -2.37727 0
M  V30 4973 H 465.324 -2.23675 -2.37985 0
M  V30 4974 H 463.983 -3.59191 -0.733299 0
M  V30 4975 H 463.631 -3.88772 -3.19163 0
M  V30 4976 H 463.331 -5.40438 -2.30653 0
M  V30 4977 H 464.855 -5.19147 -3.21433 0
M  V30 4978 H 466.269 -5.64704 -0.989047 0
M  V30 4979 H 464.666 -5.99455 -0.27826 0
M  V30 4980 H 465.736 -4.82198 0.511173 0
M  V30 4981 N 467.08 -0.0183926 -1.57589 0
M  V30 4982 C 468.496 0.337897 -1.55982 0
M  V30 4983 C 468.696 1.73604 -1.02294 0
M  V30 4984 O 467.752 2.43589 -0.664895 0
M  V30 4985 C 469.065 0.196305 -3.00059 0
M  V30 4986 C 470.613 0.269875 -3.11834 0
M  V30 4987 C 471.088 0.157197 -4.5773 0
M  V30 4988 N 472.579 0.214521 -4.62703 0
M  V30 4989 C 473.314 0.150955 -5.73201 0
M  V30 4990 N 472.81 0.0369212 -6.9279 0
M  V30 4991 N 474.603 0.204162 -5.61729 0
M  V30 4992 H 466.754 -0.93279 -1.90821 0
M  V30 4993 H 469.017 -0.359253 -0.877292 0
M  V30 4994 H 468.723 -0.766383 -3.43248 0
M  V30 4995 H 468.597 0.970908 -3.6449 0
M  V30 4996 H 470.984 1.22302 -2.68563 0
M  V30 4997 H 471.065 -0.534918 -2.50144 0
M  V30 4998 H 470.709 -0.792479 -5.01679 0
M  V30 4999 H 470.639 0.980717 -5.17387 0
M  V30 5000 H 473.13 0.303238 -3.76681 0
M  V30 5001 H 473.443 -0.00518321 -7.728 0
M  V30 5002 H 471.788 0.0022886 -6.95 0
M  V30 5003 H 474.979 0.291575 -4.67191 0
M  V30 5004 H 475.152 0.15116 -6.47824 0
M  V30 5005 N 468.558 1.5553 0.254621 0
M  V30 5006 C 469.786 1.81046 1.00149 0
M  V30 5007 C 470.201 0.593047 1.79244 0
M  V30 5008 O 469.558 -0.438196 1.77161 0
M  V30 5009 C 469.609 3.04684 1.94551 0
M  V30 5010 O 469.33 4.21725 1.18658 0
M  V30 5011 C 470.831 3.42943 2.80901 0
M  V30 5012 H 468.051 0.602653 0.295044 0
M  V30 5013 H 470.595 2.02576 0.279842 0
M  V30 5014 H 468.75 2.85226 2.62154 0
M  V30 5015 H 469.164 4.91746 1.82445 0
M  V30 5016 H 470.638 4.32576 3.42902 0
M  V30 5017 H 471.115 2.63176 3.51617 0
M  V30 5018 H 471.721 3.64724 2.18762 0
M  V30 5019 N 470.036 -0.519951 1.48776 0
M  V30 5020 C 471.452 -0.849418 1.35119 0
M  V30 5021 C 471.652 -1.98077 0.36982 0
M  V30 5022 O 470.708 -2.51664 -0.205359 0
M  V30 5023 C 472.021 -1.20748 2.75391 0
M  V30 5024 C 473.569 -1.31679 2.83954 0
M  V30 5025 C 474.044 -1.70824 4.24951 0
M  V30 5026 N 475.535 -1.77908 4.27672 0
M  V30 5027 C 476.27 -2.09603 5.33717 0
M  V30 5028 N 475.766 -2.39652 6.5003 0
M  V30 5029 N 477.559 -2.10694 5.21119 0
M  V30 5030 H 469.71 0.226377 2.1119 0
M  V30 5031 H 471.973 0.0386519 0.947212 0
M  V30 5032 H 471.679 -0.449703 3.48813 0
M  V30 5033 H 471.553 -2.15534 3.09556 0
M  V30 5034 H 473.94 -2.06532 2.10781 0
M  V30 5035 H 474.021 -0.3499 2.53396 0
M  V30 5036 H 473.665 -0.965282 4.98643 0
M  V30 5037 H 473.595 -2.6858 4.52959 0
M  V30 5038 H 476.086 -1.56923 3.43779 0
M  V30 5039 H 476.399 -2.6297 7.26682 0
M  V30 5040 H 474.744 -2.37149 6.53288 0
M  V30 5041 H 477.935 -1.86682 4.29264 0
M  V30 5042 H 478.108 -2.35062 6.03863 0
M  V30 5043 N 471.514 -1.37532 -0.769588 0
M  V30 5044 C 472.762 -1.32597 -1.5252 0
M  V30 5045 C 473.083 0.0884294 -1.94799 0
M  V30 5046 O 472.353 1.03289 -1.66458 0
M  V30 5047 H 470.933 -0.487846 -0.565699 0
M  V30 5048 H 473.595 -1.72044 -0.915806 0
M  V30 5049 H 472.691 -1.96643 -2.42359 0
M  V30 5050 N 472.992 0.995999 -1.22138 0
M  V30 5051 C 474.408 1.25917 -0.980667 0
M  V30 5052 C 474.608 1.98819 0.327604 0
M  V30 5053 O 473.664 2.29587 1.05101 0
M  V30 5054 C 474.977 2.07399 -2.17729 0
M  V30 5055 C 476.525 2.20594 -2.22052 0
M  V30 5056 C 477 3.05462 -3.41258 0
M  V30 5057 N 478.491 3.13049 -3.41401 0
M  V30 5058 C 479.226 3.78997 -4.30289 0
M  V30 5059 N 478.722 4.46899 -5.2939 0
M  V30 5060 N 480.515 3.75728 -4.18073 0
M  V30 5061 H 472.666 0.507158 -2.06256 0
M  V30 5062 H 474.929 0.28658 -0.903646 0
M  V30 5063 H 474.635 1.61191 -3.12586 0
M  V30 5064 H 474.509 3.08154 -2.17534 0
M  V30 5065 H 476.896 2.66017 -1.27745 0
M  V30 5066 H 476.977 1.1928 -2.26287 0
M  V30 5067 H 476.621 2.60739 -4.35864 0
M  V30 5068 H 476.551 4.06911 -3.34262 0
M  V30 5069 H 479.042 2.64721 -2.69688 0
M  V30 5070 H 479.355 4.94952 -5.935 0
M  V30 5071 H 477.7 4.45657 -5.33306 0
M  V30 5072 H 480.891 3.2184 -3.39907 0
M  V30 5073 H 481.064 4.26845 -4.87553 0
M  V30 5074 N 474.47 1.03057 1.19235 0
M  V30 5075 C 475.433 0.617418 2.20727 0
M  V30 5076 C 476.433 -0.319856 1.57587 0
M  V30 5077 O 477.623 -0.106633 1.73873 0
M  V30 5078 C 474.755 -0.096296 3.40764 0
M  V30 5079 H 475.948 1.51544 2.58794 0
M  V30 5080 H 473.501 0.821949 1.32942 0
M  V30 5081 H 474.236 -1.00859 3.08217 0
M  V30 5082 H 474.021 0.577217 3.87828 0
M  V30 5083 H 475.511 -0.372219 4.15938 0
M  V30 5084 N 475.948 -1.35272 0.808662 0
M  V30 5085 C 476.878 -2.32315 0.234981 0
M  V30 5086 C 477.859 -1.57572 -0.64071 0
M  V30 5087 O 479.044 -1.8563 -0.570551 0
M  V30 5088 C 476.174 -3.41801 -0.615601 0
M  V30 5089 C 475.128 -4.27694 0.161767 0
M  V30 5090 C 474.454 -5.28519 -0.810649 0
M  V30 5091 C 475.754 -5.04231 1.36193 0
M  V30 5092 H 477.448 -2.80543 1.04575 0
M  V30 5093 H 474.994 -1.3488 0.504315 0
M  V30 5094 H 476.947 -4.08693 -1.02702 0
M  V30 5095 H 475.671 -2.92186 -1.45928 0
M  V30 5096 H 474.33 -3.62384 0.554382 0
M  V30 5097 H 473.978 -4.75171 -1.64988 0
M  V30 5098 H 473.678 -5.8686 -0.294822 0
M  V30 5099 H 475.202 -5.98283 -1.22023 0
M  V30 5100 H 476.616 -5.64058 1.02528 0
M  V30 5101 H 475.013 -5.72077 1.81239 0
M  V30 5102 H 476.083 -4.34753 2.14751 0
M  V30 5103 N 477.426 -0.562348 -1.47226 0
M  V30 5104 C 478.672 -0.0402761 -2.0276 0
M  V30 5105 C 479.005 1.30823 -1.43523 0
M  V30 5106 O 478.28 1.85249 -0.592705 0
M  V30 5107 C 478.563 0.047311 -3.60069 0
M  V30 5108 C 478.416 -1.32865 -4.29729 0
M  V30 5109 C 479.735 0.758182 -4.3352 0
M  V30 5110 H 476.854 -0.0161105 -0.736824 0
M  V30 5111 H 479.496 -0.725628 -1.75598 0
M  V30 5112 H 477.646 0.630986 -3.83342 0
M  V30 5113 H 479.318 -1.95593 -4.17781 0
M  V30 5114 H 477.561 -1.90195 -3.89882 0
M  V30 5115 H 478.232 -1.22004 -5.38349 0
M  V30 5116 H 480.708 0.262546 -4.15271 0
M  V30 5117 H 479.584 0.78844 -5.43208 0
M  V30 5118 H 479.845 1.81537 -4.03109 0
M  V30 5119 N 478.904 1.54736 -0.299062 0
M  V30 5120 C 479.852 2.24897 0.593658 0
M  V30 5121 C 480.846 1.25429 1.13859 0
M  V30 5122 O 482.052 1.43286 1.08945 0
M  V30 5123 H 478.427 0.72207 0.210046 0
M  V30 5124 H 480.398 2.98393 -0.0206421 0
M  V30 5125 C 479.147 3.00159 1.75499 0
M  V30 5126 H 478.47 3.76501 1.34489 0
M  V30 5127 H 479.91 3.52535 2.35574 0
M  V30 5128 C 478.369 2.07015 2.65794 0
M  V30 5129 O 478.899 1.63692 3.66835 0
M  V30 5130 N 477.105 1.73012 2.33485 0
M  V30 5131 H 476.652 2.08439 1.51364 0
M  V30 5132 H 476.61 1.10965 2.94167 0
M  V30 5133 N 480.382 0.0267497 1.57577 0
M  V30 5134 C 481.61 -0.662661 1.96001 0
M  V30 5135 C 482.025 -1.65799 0.903117 0
M  V30 5136 O 481.382 -1.82135 -0.115317 0
M  V30 5137 C 481.433 -1.37112 3.34488 0
M  V30 5138 O 481.154 -0.415683 4.36123 0
M  V30 5139 C 482.655 -2.15257 3.8753 0
M  V30 5140 H 479.875 -0.18287 0.6456 0
M  V30 5141 H 482.419 0.0858116 2.0432 0
M  V30 5142 H 480.574 -2.07101 3.27395 0
M  V30 5143 H 480.988 -0.918496 5.16395 0
M  V30 5144 H 482.462 -2.60285 4.86781 0
M  V30 5145 H 482.939 -2.99063 3.21649 0
M  V30 5146 H 483.545 -1.50231 3.97883 0
M  V30 5147 N 481.861 -1.55662 -0.24637 0
M  V30 5148 C 482.824 -1.89558 -1.28842 0
M  V30 5149 C 483.824 -0.772082 -1.41052 0
M  V30 5150 O 485.014 -1.04007 -1.39743 0
M  V30 5151 C 482.146 -2.12449 -2.66605 0
M  V30 5152 H 483.339 -2.82735 -1.00004 0
M  V30 5153 H 480.892 -1.48562 -0.485684 0
M  V30 5154 H 481.627 -1.21742 -3.00582 0
M  V30 5155 H 481.412 -2.94273 -2.59125 0
M  V30 5156 H 482.902 -2.39854 -3.41847 0
M  V30 5157 N 483.339 0.512053 -1.4905 0
M  V30 5158 C 484.271 1.63121 -1.6101 0
M  V30 5159 C 485.284 1.55145 -0.493352 0
M  V30 5160 O 486.473 1.61278 -0.764955 0
M  V30 5161 C 483.573 3.01863 -1.54052 0
M  V30 5162 C 482.746 3.35138 -2.81072 0
M  V30 5163 C 481.805 4.5324 -2.67319 0
M  V30 5164 O 480.831 4.55571 -3.41238 0
M  V30 5165 N 482.033 5.52495 -1.78127 0
M  V30 5166 H 484.798 1.53292 -2.5753 0
M  V30 5167 H 482.359 0.699706 -1.45999 0
M  V30 5168 H 484.351 3.78774 -1.42521 0
M  V30 5169 H 482.921 3.05675 -0.654345 0
M  V30 5170 H 482.141 2.4723 -3.07036 0
M  V30 5171 H 483.429 3.54162 -3.65304 0
M  V30 5172 H 482.827 5.53403 -1.17308 0
M  V30 5173 H 481.384 6.28553 -1.72525 0
M  V30 5174 N 484.817 1.37938 0.762283 0
M  V30 5175 C 485.747 1.37176 1.88958 0
M  V30 5176 C 486.728 0.238945 1.68413 0
M  V30 5177 O 487.913 0.440726 1.89133 0
M  V30 5178 C 485.043 1.18742 3.2637 0
M  V30 5179 C 483.997 2.29136 3.61498 0
M  V30 5180 C 483.323 1.95816 4.97554 0
M  V30 5181 C 484.623 3.71363 3.6727 0
M  V30 5182 H 486.317 2.31509 1.89853 0
M  V30 5183 H 483.863 1.11438 0.912005 0
M  V30 5184 H 485.816 1.16837 4.04879 0
M  V30 5185 H 484.54 0.208683 3.25933 0
M  V30 5186 H 483.199 2.30213 2.85303 0
M  V30 5187 H 482.847 0.964475 4.93667 0
M  V30 5188 H 482.547 2.69745 5.22026 0
M  V30 5189 H 484.071 1.95513 5.78452 0
M  V30 5190 H 485.485 3.72364 4.35911 0
M  V30 5191 H 483.882 4.44425 4.03245 0
M  V30 5192 H 484.952 4.04305 2.67704 0
M  V30 5193 N 486.295 -0.989507 1.22664 0
M  V30 5194 C 487.225 -2.09847 1.02404 0
M  V30 5195 C 488.206 -1.70007 -0.0561303 0
M  V30 5196 O 489.391 -1.93906 0.106748 0
M  V30 5197 C 486.521 -3.41996 0.604663 0
M  V30 5198 C 485.475 -3.95699 1.63115 0
M  V30 5199 C 484.801 -5.23936 1.0675 0
M  V30 5200 C 486.101 -4.25999 3.02196 0
M  V30 5201 H 487.795 -2.27054 1.95158 0
M  V30 5202 H 485.341 -1.09111 0.939727 0
M  V30 5203 H 487.294 -4.1899 0.45002 0
M  V30 5204 H 486.018 -3.24626 -0.35855 0
M  V30 5205 H 484.677 -3.2084 1.77362 0
M  V30 5206 H 484.325 -5.02909 0.0955422 0
M  V30 5207 H 484.025 -5.60833 1.75328 0
M  V30 5208 H 485.549 -6.0356 0.924516 0
M  V30 5209 H 486.963 -4.93777 2.91303 0
M  V30 5210 H 485.36 -4.74076 3.67929 0
M  V30 5211 H 486.43 -3.33636 3.51873 0
M  V30 5212 N 487.773 -1.03688 -1.18687 0
M  V30 5213 C 488.705 -0.582696 -2.21669 0
M  V30 5214 C 489.718 0.345656 -1.59088 0
M  V30 5215 O 490.907 0.140776 -1.77944 0
M  V30 5216 C 488.007 0.169204 -3.38477 0
M  V30 5217 C 487.18 -0.766079 -4.30639 0
M  V30 5218 C 486.239 -0.0581541 -5.26168 0
M  V30 5219 O 485.265 -0.687346 -5.65035 0
M  V30 5220 N 486.467 1.20981 -5.67753 0
M  V30 5221 H 489.232 -1.46843 -2.61261 0
M  V30 5222 H 486.793 -0.916896 -1.33434 0
M  V30 5223 H 488.785 0.652543 -3.99405 0
M  V30 5224 H 487.355 0.956435 -2.97609 0
M  V30 5225 H 486.575 -1.42935 -3.67373 0
M  V30 5226 H 487.863 -1.40146 -4.89118 0
M  V30 5227 H 487.261 1.74159 -5.38224 0
M  V30 5228 H 485.818 1.6375 -6.30896 0
M  V30 5229 N 489.251 1.34841 -0.815825 0
M  V30 5230 C 490.498 1.98499 -0.400535 0
M  V30 5231 C 490.826 1.64699 1.03463 0
M  V30 5232 O 490.081 0.907006 1.73412 0
M  V30 5233 C 490.38 3.53273 -0.541541 0
M  V30 5234 C 490.046 4.06966 -1.94138 0
M  V30 5235 C 488.708 4.21341 -2.32433 0
M  V30 5236 C 491.06 4.35933 -2.85677 0
M  V30 5237 C 488.388 4.62007 -3.61617 0
M  V30 5238 C 490.74 4.78042 -4.14317 0
M  V30 5239 C 489.404 4.90622 -4.52599 0
M  V30 5240 H 488.674 0.72636 -0.146566 0
M  V30 5241 H 491.321 1.60902 -1.0384 0
M  V30 5242 H 489.626 3.91387 0.179741 0
M  V30 5243 H 491.323 4.00497 -0.20085 0
M  V30 5244 H 487.913 3.96235 -1.63388 0
M  V30 5245 H 492.097 4.24372 -2.57337 0
M  V30 5246 H 487.353 4.69937 -3.91113 0
M  V30 5247 H 491.527 4.99415 -4.85342 0
M  V30 5248 H 489.154 5.2189 -5.52752 0
M  V30 5249 N 490.729 0.570148 1.46925 0
M  V30 5250 C 491.954 0.0542592 2.07329 0
M  V30 5251 C 492.379 -1.23582 1.41806 0
M  V30 5252 O 491.737 -1.74341 0.497479 0
M  V30 5253 C 491.785 -0.111175 3.60429 0
M  V30 5254 O 490.889 -1.17071 3.95434 0
M  V30 5255 H 490.23 0.0571425 0.661537 0
M  V30 5256 H 492.76 0.789516 1.88753 0
M  V30 5257 H 492.77 -0.321315 4.06733 0
M  V30 5258 H 491.445 0.831012 4.07513 0
M  V30 5259 H 490.022 -0.940029 3.60857 0
M  V30 5260 N 492.207 -1.54576 0.307264 0
M  V30 5261 C 493.137 -2.26708 -0.55907 0
M  V30 5262 C 494.118 -1.26893 -1.1328 0
M  V30 5263 O 495.303 -1.55677 -1.16097 0
M  V30 5264 C 492.433 -3.01259 -1.72801 0
M  V30 5265 C 491.387 -4.08275 -1.28435 0
M  V30 5266 C 490.713 -4.70575 -2.53895 0
M  V30 5267 C 492.013 -5.2068 -0.411038 0
M  V30 5268 H 493.707 -2.9937 0.042576 0
M  V30 5269 H 491.253 -1.43983 0.0219173 0
M  V30 5270 H 493.206 -3.50444 -2.34023 0
M  V30 5271 H 491.93 -2.26187 -2.356 0
M  V30 5272 H 490.589 -3.59949 -0.695161 0
M  V30 5273 H 490.237 -3.92136 -3.15021 0
M  V30 5274 H 489.937 -5.42854 -2.24908 0
M  V30 5275 H 491.461 -5.22527 -3.15908 0
M  V30 5276 H 492.875 -5.65721 -0.929097 0
M  V30 5277 H 491.272 -5.99716 -0.214664 0
M  V30 5278 H 492.342 -4.81629 0.562287 0
M  V30 5279 N 493.685 -0.035106 -1.57561 0
M  V30 5280 C 494.635 0.954034 -2.0708 0
M  V30 5281 C 495.619 1.2818 -0.972558 0
M  V30 5282 O 496.811 1.26691 -1.23606 0
M  V30 5283 C 493.94 2.23442 -2.60631 0
M  V30 5284 C 493.026 1.93475 -3.77396 0
M  V30 5285 N 493.417 1.33802 -4.87781 0
M  V30 5286 C 491.715 2.23434 -3.85996 0
M  V30 5287 C 492.416 1.21103 -5.68954 0
M  V30 5288 N 491.392 1.70855 -5.16052 0
M  V30 5289 H 495.194 0.487731 -2.89825 0
M  V30 5290 H 492.708 0.169759 -1.6151 0
M  V30 5291 H 494.705 2.95183 -2.94402 0
M  V30 5292 H 493.365 2.70693 -1.79319 0
M  V30 5293 H 494.376 1.01227 -5.07911 0
M  V30 5294 H 491.053 2.73317 -3.15601 0
M  V30 5295 H 492.443 0.749105 -6.67711 0
M  V30 5296 N 495.163 1.55791 0.238111 0
M  V30 5297 C 496.409 1.78297 0.966337 0
M  V30 5298 C 496.742 0.601903 1.84637 0
M  V30 5299 O 496.017 -0.399499 1.90353 0
M  V30 5300 C 496.3 3.10758 1.81939 0
M  V30 5301 C 496.153 4.39283 0.966958 0
M  V30 5302 C 497.472 3.39519 2.80027 0
M  V30 5303 H 494.591 0.648654 0.349882 0
M  V30 5304 H 497.233 1.88525 0.236253 0
M  V30 5305 H 495.383 3.02168 2.44185 0
M  V30 5306 H 497.055 4.59873 0.362514 0
M  V30 5307 H 495.298 4.32948 0.271669 0
M  V30 5308 H 495.969 5.28368 1.59784 0
M  V30 5309 H 498.445 3.48128 2.27917 0
M  V30 5310 H 497.321 4.33402 3.36829 0
M  V30 5311 H 497.582 2.60864 3.56934 0
M  V30 5312 N 496.642 -0.504142 1.49319 0
M  V30 5313 C 497.605 -1.5883 1.65244 0
M  V30 5314 C 498.605 -1.52009 0.524386 0
M  V30 5315 O 499.795 -1.55218 0.79077 0
M  V30 5316 C 496.927 -2.98481 1.64687 0
M  V30 5317 H 498.12 -1.4604 2.61939 0
M  V30 5318 H 495.673 -0.728144 1.38303 0
M  V30 5319 H 496.408 -3.16751 0.695644 0
M  V30 5320 H 496.193 -3.0484 2.46607 0
M  V30 5321 H 497.683 -3.77256 1.79075 0
M  V30 5322 N 498.12 -1.38341 -0.754957 0
M  V30 5323 C 499.03 -1.3769 -1.89944 0
M  V30 5324 C 500.046 -0.274194 -1.71826 0
M  V30 5325 O 501.222 -0.512391 -1.94773 0
M  V30 5326 C 498.287 -1.19938 -3.25293 0
M  V30 5327 C 497.348 -2.40001 -3.55946 0
M  V30 5328 C 496.581 -2.23087 -4.84838 0
M  V30 5329 O 496.804 -1.22386 -5.57116 0
M  V30 5330 O 495.738 -3.11646 -5.14937 0
M  V30 5331 H 499.564 -2.3412 -1.93446 0
M  V30 5332 H 497.149 -1.19246 -0.900044 0
M  V30 5333 H 499.031 -1.12093 -4.06218 0
M  V30 5334 H 497.706 -0.265919 -3.22606 0
M  V30 5335 H 496.613 -2.53421 -2.75188 0
M  V30 5336 H 497.946 -3.31973 -3.63394 0
M  V30 5337 N 499.598 0.982988 -1.23187 0
M  V30 5338 C 500.846 1.72052 -1.06031 0
M  V30 5339 C 501.167 1.90769 0.404019 0
M  V30 5340 O 500.437 1.47446 1.28982 0
M  V30 5341 H 499.017 0.637499 -0.389363 0
M  V30 5342 H 501.679 1.18338 -1.54862 0
M  V30 5343 H 500.775 2.7111 -1.54615 0
M  V30 5344 N 501.076 1.04316 1.18135 0
M  V30 5345 C 502.009 0.580823 2.20685 0
M  V30 5346 C 502.987 -0.385943 1.57953 0
M  V30 5347 O 504.171 -0.299654 1.86103 0
M  V30 5348 C 501.298 -0.151162 3.38363 0
M  V30 5349 C 500.344 0.769247 4.19505 0
M  V30 5350 S 501.177 2.25352 4.85774 0
M  V30 5351 C 502.333 1.53246 6.0685 0
M  V30 5352 H 502.566 1.44968 2.5956 0
M  V30 5353 H 500.099 0.85434 1.28609 0
M  V30 5354 H 502.057 -0.567315 4.06561 0
M  V30 5355 H 500.718 -0.995936 2.97892 0
M  V30 5356 H 499.911 0.203335 5.0359 0
M  V30 5357 H 499.513 1.12436 3.56699 0
M  V30 5358 H 501.805 0.82689 6.72435 0
M  V30 5359 H 502.748 2.35044 6.67952 0
M  V30 5360 H 503.156 1.0237 5.5514 0
M  V30 5361 N 502.554 -1.34406 0.822964 0
M  V30 5362 C 503.464 -2.33298 0.246838 0
M  V30 5363 C 504.48 -1.62625 -0.618797 0
M  V30 5364 O 505.656 -1.94391 -0.526685 0
M  V30 5365 C 502.721 -3.41785 -0.581731 0
M  V30 5366 C 501.782 -4.28206 0.306309 0
M  V30 5367 C 501.015 -5.31512 -0.48281 0
M  V30 5368 O 501.238 -5.43973 -1.71607 0
M  V30 5369 O 500.172 -6.01749 0.134884 0
M  V30 5370 H 503.998 -2.84401 1.06534 0
M  V30 5371 H 501.583 -1.37466 0.585108 0
M  V30 5372 H 503.465 -4.08028 -1.05313 0
M  V30 5373 H 502.14 -2.92925 -1.37756 0
M  V30 5374 H 501.047 -3.64885 0.825199 0
M  V30 5375 H 502.38 -4.80507 1.06649 0
M  V30 5376 N 504.032 -0.577932 -1.46621 0
M  V30 5377 C 505.262 -0.0670668 -2.06491 0
M  V30 5378 C 505.67 1.24119 -1.42798 0
M  V30 5379 O 505.013 1.76016 -0.525759 0
M  V30 5380 C 505.075 0.177995 -3.59059 0
M  V30 5381 C 504.739 -1.04394 -4.44917 0
M  V30 5382 C 505.736 -1.95479 -4.81751 0
M  V30 5383 C 503.421 -1.26444 -4.86125 0
M  V30 5384 C 505.415 -3.06965 -5.58615 0
M  V30 5385 C 503.102 -2.38237 -5.62749 0
M  V30 5386 C 504.1 -3.28327 -5.98908 0
M  V30 5387 O 503.788 -4.38179 -6.73984 0
M  V30 5388 H 503.52 -0.0523159 -0.673973 0
M  V30 5389 H 506.074 -0.796966 -1.89308 0
M  V30 5390 H 504.304 0.962451 -3.74531 0
M  V30 5391 H 505.993 0.636782 -4.00874 0
M  V30 5392 H 506.759 -1.79657 -4.50498 0
M  V30 5393 H 502.638 -0.572316 -4.57434 0
M  V30 5394 H 506.182 -3.77309 -5.86757 0
M  V30 5395 H 502.079 -2.54023 -5.93416 0
M  V30 5396 H 502.847 -4.36486 -6.92403 0
M  V30 5397 N 505.51 1.54411 -0.315457 0
M  V30 5398 C 506.44 2.27002 0.547039 0
M  V30 5399 C 507.421 1.27492 1.12605 0
M  V30 5400 O 508.606 1.5629 1.15269 0
M  V30 5401 C 505.736 3.02171 1.71201 0
M  V30 5402 C 504.69 4.0895 1.26268 0
M  V30 5403 C 504.016 4.71915 2.51396 0
M  V30 5404 C 505.316 5.20891 0.383419 0
M  V30 5405 H 507.01 2.99343 -0.0584517 0
M  V30 5406 H 504.556 1.4397 -0.0295527 0
M  V30 5407 H 506.509 3.51681 2.32161 0
M  V30 5408 H 505.233 2.27433 2.34397 0
M  V30 5409 H 503.892 3.60312 0.676062 0
M  V30 5410 H 503.54 3.93801 3.12937 0
M  V30 5411 H 503.24 5.44039 2.22026 0
M  V30 5412 H 504.764 5.24195 3.13133 0
M  V30 5413 H 506.178 5.66206 0.899082 0
M  V30 5414 H 504.575 5.99821 0.182857 0
M  V30 5415 H 505.645 4.81324 -0.587821 0
M  V30 5416 N 506.988 0.0434614 1.5754 0
M  V30 5417 C 507.898 -0.94893 2.14552 0
M  V30 5418 C 508.914 -1.34707 1.10136 0
M  V30 5419 O 510.09 -1.42557 1.42266 0
M  V30 5420 C 507.155 -2.208 2.67298 0
M  V30 5421 C 506.216 -1.86893 3.86484 0
M  V30 5422 C 505.449 -3.06797 4.36705 0
M  V30 5423 O 505.672 -4.19921 3.86034 0
M  V30 5424 O 504.606 -2.8826 5.28384 0
M  V30 5425 H 508.432 -0.494099 2.99654 0
M  V30 5426 H 506.017 -0.177989 1.48336 0
M  V30 5427 H 507.899 -2.94686 3.01228 0
M  V30 5428 H 506.574 -2.65436 1.85272 0
M  V30 5429 H 505.481 -1.10347 3.57455 0
M  V30 5430 H 506.814 -1.47062 4.69716 0
M  V30 5431 N 508.466 -1.55915 -0.229846 0
M  V30 5432 C 509.691 -1.8296 -0.976743 0
M  V30 5433 C 510.116 -0.622735 -1.77493 0
M  V30 5434 O 509.474 0.428431 -1.76165 0
M  V30 5435 C 509.522 -3.07916 -1.8767 0
M  V30 5436 O 508.626 -2.86028 -2.97088 0
M  V30 5437 H 507.967 -0.603453 -0.277021 0
M  V30 5438 H 510.497 -2.0312 -0.245669 0
M  V30 5439 H 510.507 -3.37802 -2.2881 0
M  V30 5440 H 509.182 -3.95389 -1.28996 0
M  V30 5441 H 507.759 -2.67355 -2.59954 0
M  V30 5442 N 509.944 0.496216 -1.49584 0
M  V30 5443 C 510.891 1.59722 -1.66606 0
M  V30 5444 C 511.861 1.58158 -0.507477 0
M  V30 5445 O 513.046 1.76072 -0.735076 0
M  V30 5446 C 510.186 2.97844 -1.74308 0
M  V30 5447 C 509.299 3.09388 -3.01502 0
M  V30 5448 C 508.434 4.38271 -3.00153 0
M  V30 5449 C 507.473 4.43466 -4.21906 0
M  V30 5450 N 506.61 5.63784 -4.1844 0
M  V30 5451 H 511.45 1.44515 -2.60613 0
M  V30 5452 H 508.987 0.703048 -1.29212 0
M  V30 5453 H 510.945 3.77907 -1.76754 0
M  V30 5454 H 509.575 3.11743 -0.837619 0
M  V30 5455 H 508.627 2.22357 -3.08645 0
M  V30 5456 H 509.939 3.09085 -3.91494 0
M  V30 5457 H 509.093 5.2666 -3.01188 0
M  V30 5458 H 507.832 4.41146 -2.07947 0
M  V30 5459 H 506.837 3.53478 -4.21109 0
M  V30 5460 H 508.062 4.42303 -5.1531 0
M  V30 5461 H 506.008 5.67491 -3.29074 0
M  V30 5462 H 505.925 5.65118 -5.02173 0
M  V30 5463 H 507.193 6.54367 -4.23585 0
M  V30 5464 N 511.423 1.38739 0.74761 0
M  V30 5465 C 512.37 1.36449 1.86146 0
M  V30 5466 C 513.34 0.226098 1.64554 0
M  V30 5467 O 514.525 0.41926 1.86137 0
M  V30 5468 C 511.665 1.2013 3.23516 0
M  V30 5469 C 510.778 2.43407 3.56899 0
M  V30 5470 C 509.913 2.19773 4.83605 0
M  V30 5471 C 508.952 3.3879 5.09792 0
M  V30 5472 N 508.089 3.14553 6.27695 0
M  V30 5473 H 512.929 2.3167 1.87438 0
M  V30 5474 H 510.466 1.15094 0.916063 0
M  V30 5475 H 512.424 1.08683 4.02795 0
M  V30 5476 H 511.054 0.285453 3.21535 0
M  V30 5477 H 510.106 2.65504 2.72418 0
M  V30 5478 H 511.418 3.32094 3.72176 0
M  V30 5479 H 510.572 2.05496 5.70838 0
M  V30 5480 H 509.311 1.28461 4.70478 0
M  V30 5481 H 508.316 3.53579 4.21025 0
M  V30 5482 H 509.541 4.30986 5.24812 0
M  V30 5483 H 507.487 2.25893 6.1588 0
M  V30 5484 H 507.404 3.96791 6.435 0
M  V30 5485 H 508.672 3.03943 7.17801 0
M  V30 5486 N 512.901 -0.976442 1.23707 0
M  V30 5487 C 513.831 -2.08749 1.04624 0
M  V30 5488 C 514.812 -1.70057 -0.0380956 0
M  V30 5489 O 515.997 -1.93782 0.127308 0
M  V30 5490 C 513.127 -3.41335 0.640902 0
M  V30 5491 C 512.081 -3.93947 1.67302 0
M  V30 5492 C 511.407 -5.22774 1.12301 0
M  V30 5493 C 512.707 -4.22769 3.06697 0
M  V30 5494 H 514.401 -2.24972 1.97555 0
M  V30 5495 H 511.947 -1.08108 0.951247 0
M  V30 5496 H 513.9 -4.18489 0.494434 0
M  V30 5497 H 512.624 -3.24988 -0.324099 0
M  V30 5498 H 511.283 -3.18941 1.80755 0
M  V30 5499 H 510.931 -5.0278 0.148877 0
M  V30 5500 H 510.631 -5.58942 1.81267 0
M  V30 5501 H 512.155 -6.02546 0.988479 0
M  V30 5502 H 513.569 -4.90659 2.96524 0
M  V30 5503 H 511.966 -4.70147 3.72937 0
M  V30 5504 H 513.036 -3.29885 3.55392 0
M  V30 5505 N 514.379 -1.04941 -1.1758 0
M  V30 5506 C 515.625 -0.759112 -1.88057 0
M  V30 5507 C 515.958 0.711918 -1.8068 0
M  V30 5508 O 515.233 1.52035 -1.21308 0
M  V30 5509 C 515.516 -1.237 -3.38187 0
M  V30 5510 C 515.369 -2.77078 -3.54327 0
M  V30 5511 C 516.688 -0.834014 -4.32125 0
M  V30 5512 H 513.807 -0.277237 -0.682868 0
M  V30 5513 H 516.449 -1.30296 -1.38286 0
M  V30 5514 H 514.599 -0.774337 -3.80705 0
M  V30 5515 H 516.271 -3.31449 -3.20842 0
M  V30 5516 H 514.514 -3.16477 -2.96689 0
M  V30 5517 H 515.185 -3.05577 -4.59703 0
M  V30 5518 H 517.661 -1.23228 -3.97434 0
M  V30 5519 H 516.537 -1.19603 -5.35711 0
M  V30 5520 H 516.798 0.262195 -4.41322 0
M  V30 5521 N 515.857 1.33968 -0.830081 0
M  V30 5522 C 516.807 2.26845 -0.229242 0
M  V30 5523 C 517.791 1.48862 0.610659 0
M  V30 5524 O 518.983 1.70808 0.464067 0
M  V30 5525 C 516.112 3.3798 0.602057 0
M  V30 5526 C 515.198 4.23369 -0.248866 0
M  V30 5527 N 515.589 4.88182 -1.32334 0
M  V30 5528 C 513.887 4.45987 -0.0344077 0
M  V30 5529 C 514.588 5.51671 -1.84482 0
M  V30 5530 N 513.564 5.31348 -1.14762 0
M  V30 5531 H 517.366 2.74464 -1.05104 0
M  V30 5532 H 514.88 1.4777 -0.673623 0
M  V30 5533 H 516.877 4.03494 1.04873 0
M  V30 5534 H 515.537 2.9191 1.42193 0
M  V30 5535 H 516.548 4.88988 -1.70619 0
M  V30 5536 H 513.225 4.10658 0.752727 0
M  V30 5537 H 514.615 6.13308 -2.74413 0
M  V30 5538 N 517.335 0.585699 1.46312 0
M  V30 5539 C 518.751 0.247607 1.57668 0
M  V30 5540 C 518.951 -1.25007 1.58037 0
M  V30 5541 O 518.007 -2.03196 1.49893 0
M  V30 5542 C 519.32 0.899456 2.86933 0
M  V30 5543 C 520.868 0.873326 3.00569 0
M  V30 5544 C 521.343 1.50477 4.32574 0
M  V30 5545 N 522.834 1.46925 4.3928 0
M  V30 5546 C 523.569 1.92719 5.40044 0
M  V30 5547 N 523.065 2.46499 6.47464 0
M  V30 5548 N 524.858 1.83617 5.31264 0
M  V30 5549 H 517.009 1.55841 1.44317 0
M  V30 5550 H 519.272 0.651564 0.688599 0
M  V30 5551 H 518.978 1.95313 2.92482 0
M  V30 5552 H 518.852 0.409476 3.74971 0
M  V30 5553 H 521.239 -0.171736 2.946 0
M  V30 5554 H 521.32 1.40136 2.13999 0
M  V30 5555 H 520.964 2.54905 4.39302 0
M  V30 5556 H 520.894 0.951944 5.17924 0
M  V30 5557 H 523.385 1.07616 3.62253 0
M  V30 5558 H 523.698 2.79291 7.20567 0
M  V30 5559 H 522.043 2.50526 6.48276 0
M  V30 5560 H 525.234 1.41358 4.46246 0
M  V30 5561 H 525.407 2.19622 6.09648 0
M  V30 5562 N 518.813 -1.54241 0.323641 0
M  V30 5563 C 520.09 -1.92741 -0.333181 0
M  V30 5564 C 520.47 -1.25326 -1.69872 0
M  V30 5565 O 519.818 -0.396991 -2.25025 0
M  V30 5566 C 520.028 -3.46399 -0.425322 0
M  V30 5567 C 521.376 -4.19029 -0.68557 0
M  V30 5568 O 522.4 -3.52555 -0.50824 0
M  V30 5569 O 521.259 -5.36751 -1.02767 0
M  V30 5570 H 518.353 -0.804811 -0.190286 0
M  V30 5571 H 520.899 -1.65542 0.373361 0
M  V30 5572 H 519.671 -3.87643 0.533737 0
M  V30 5573 H 519.294 -3.79704 -1.17944 0
M  V30 5574 N 520.291 -0.0518155 -1.57515 0
M  V30 5575 C 521.221 0.920283 -2.146 0
M  V30 5576 C 522.202 1.32406 -1.06783 0
M  V30 5577 O 523.387 1.39866 -1.34726 0
M  V30 5578 C 520.517 2.1949 -2.6915 0
M  V30 5579 C 519.471 1.93116 -3.81956 0
M  V30 5580 C 518.797 3.27037 -4.23026 0
M  V30 5581 C 520.097 1.25225 -5.07066 0
M  V30 5582 H 521.791 0.444801 -2.96077 0
M  V30 5583 H 519.337 0.212508 -1.42423 0
M  V30 5584 H 521.29 2.87894 -3.07725 0
M  V30 5585 H 520.014 2.69244 -1.84865 0
M  V30 5586 H 518.673 1.27123 -3.43854 0
M  V30 5587 H 518.321 3.74595 -3.3569 0
M  V30 5588 H 518.021 3.10189 -4.99056 0
M  V30 5589 H 519.545 3.96673 -4.64202 0
M  V30 5590 H 520.959 1.83666 -5.43083 0
M  V30 5591 H 519.356 1.18702 -5.88243 0
M  V30 5592 H 520.426 0.228382 -4.84362 0
M  V30 5593 N 521.769 1.56035 0.221574 0
M  V30 5594 C 522.732 1.91584 1.2581 0
M  V30 5595 C 523.732 0.794425 1.39805 0
M  V30 5596 O 524.922 1.06217 1.38071 0
M  V30 5597 C 522.054 2.16663 2.63192 0
M  V30 5598 H 523.247 2.8429 0.954935 0
M  V30 5599 H 520.8 1.49316 0.461988 0
M  V30 5600 H 521.535 1.26508 2.98607 0
M  V30 5601 H 521.32 2.98358 2.5441 0
M  V30 5602 H 522.81 2.45262 3.37988 0
M  V30 5603 N 523.247 -0.488276 1.49845 0
M  V30 5604 C 524.21 -1.57069 1.66919 0
M  V30 5605 C 525.21 -1.51445 0.540479 0
M  V30 5606 O 526.4 -1.5437 0.807188 0
M  V30 5607 C 523.532 -2.96718 1.67844 0
M  V30 5608 H 524.725 -1.43254 2.63474 0
M  V30 5609 H 522.278 -0.713435 1.39068 0
M  V30 5610 H 523.013 -3.15996 0.7292 0
M  V30 5611 H 522.798 -3.02208 2.49826 0
M  V30 5612 H 524.288 -3.75335 1.83066 0
M  V30 5613 N 524.725 -1.39134 -0.740242 0
M  V30 5614 C 526.141 -1.20623 -1.0451 0
M  V30 5615 C 526.341 -0.0641651 -2.01398 0
M  V30 5616 O 525.397 0.585843 -2.4561 0
M  V30 5617 C 526.71 -2.53815 -1.6124 0
M  V30 5618 C 528.258 -2.60615 -1.73346 0
M  V30 5619 C 528.733 -3.94015 -2.33486 0
M  V30 5620 N 530.224 -3.95627 -2.40902 0
M  V30 5621 C 530.959 -4.95616 -2.88361 0
M  V30 5622 N 530.455 -6.06003 -3.35756 0
M  V30 5623 N 532.248 -4.82998 -2.87523 0
M  V30 5624 H 524.399 -2.12176 -0.0975576 0
M  V30 5625 H 526.662 -0.942066 -0.105904 0
M  V30 5626 H 526.368 -3.37911 -0.975144 0
M  V30 5627 H 526.242 -2.73162 -2.6012 0
M  V30 5628 H 528.629 -1.76906 -2.36195 0
M  V30 5629 H 528.71 -2.45123 -0.731336 0
M  V30 5630 H 528.354 -4.78153 -1.71267 0
M  V30 5631 H 528.284 -4.06825 -3.34366 0
M  V30 5632 H 530.775 -3.15903 -2.07398 0
M  V30 5633 H 531.088 -6.78215 -3.70464 0
M  V30 5634 H 529.433 -6.09604 -3.33778 0
M  V30 5635 H 532.624 -3.95866 -2.49816 0
M  V30 5636 H 532.797 -5.61072 -3.24196 0
M  V30 5637 N 526.204 0.969867 -1.24223 0
M  V30 5638 C 527.152 2.08535 -1.03034 0
M  V30 5639 C 528.146 1.69366 0.0340379 0
M  V30 5640 O 529.352 1.79597 -0.12034 0
M  V30 5641 H 525.727 0.682313 -0.316154 0
M  V30 5642 H 527.698 2.23569 -1.97635 0
M  V30 5643 C 526.447 3.4158 -0.649509 0
M  V30 5644 H 525.77 3.72177 -1.46028 0
M  V30 5645 H 527.21 4.20536 -0.540841 0
M  V30 5646 C 525.669 3.30703 0.643194 0
M  V30 5647 O 526.199 3.64443 1.68951 0
M  V30 5648 N 524.405 2.83841 0.623095 0
M  V30 5649 H 523.952 2.56583 -0.228719 0
M  V30 5650 H 523.91 2.76946 1.48823 0
M  V30 5651 N 527.682 1.05563 1.17022 0
M  V30 5652 C 528.931 0.763036 1.8671 0
M  V30 5653 C 529.244 -0.712857 1.82147 0
M  V30 5654 O 530.45 -1.11955 2.47343 0
M  V30 5655 C 528.906 1.31474 3.35026 0
M  V30 5656 C 528.514 2.82034 3.48081 0
M  V30 5657 C 530.258 1.09935 4.10018 0
M  V30 5658 C 528.165 3.30486 4.90442 0
M  V30 5659 H 527.095 0.281747 0.699382 0
M  V30 5660 H 529.746 1.2734 1.32124 0
M  V30 5661 H 528.128 0.732171 3.89173 0
M  V30 5662 H 529.302 3.46178 3.04133 0
M  V30 5663 H 527.617 3.02156 2.86515 0
M  V30 5664 H 530.214 1.43632 5.15048 0
M  V30 5665 H 530.557 0.0373072 4.16283 0
M  V30 5666 H 531.09 1.64732 3.62089 0
M  V30 5667 H 527.829 4.36137 4.89352 0
M  V30 5668 H 527.349 2.71086 5.35044 0
M  V30 5669 H 529.028 3.25382 5.59227 0
M  V30 5670 N 529.16 -1.33526 0.837174 0
M  V30 5671 C 530.09 -2.31764 0.284206 0
M  V30 5672 C 531.071 -1.58896 -0.607142 0
M  V30 5673 O 532.256 -1.86798 -0.531047 0
M  V30 5674 C 529.386 -3.43029 -0.542962 0
M  V30 5675 C 528.34 -4.27255 0.252451 0
M  V30 5676 C 527.666 -5.3012 -0.69836 0
M  V30 5677 C 528.966 -5.01229 1.46858 0
M  V30 5678 H 530.66 -2.78262 1.10502 0
M  V30 5679 H 528.206 -1.3378 0.532812 0
M  V30 5680 H 530.159 -4.1078 -0.940096 0
M  V30 5681 H 528.883 -2.95216 -1.39697 0
M  V30 5682 H 527.542 -3.61127 0.631124 0
M  V30 5683 H 527.19 -4.78564 -1.54872 0
M  V30 5684 H 526.89 -5.87353 -0.170274 0
M  V30 5685 H 528.414 -6.00737 -1.09305 0
M  V30 5686 H 529.828 -5.61756 1.14469 0
M  V30 5687 H 528.225 -5.68104 1.93333 0
M  V30 5688 H 529.295 -4.301 2.23924 0
M  V30 5689 N 530.638 -0.59345 -1.46 0
M  V30 5690 C 531.884 -0.0832754 -2.02629 0
M  V30 5691 C 532.217 1.27749 -1.46266 0
M  V30 5692 O 531.492 1.8395 -0.631866 0
M  V30 5693 C 531.775 -0.0290756 -3.60088 0
M  V30 5694 C 531.628 -1.41951 -4.26814 0
M  V30 5695 C 532.947 0.666055 -4.35031 0
M  V30 5696 H 530.066 -0.031736 -0.736316 0
M  V30 5697 H 532.708 -0.762711 -1.74019 0
M  V30 5698 H 530.858 0.549532 -3.84594 0
M  V30 5699 H 532.53 -2.04411 -4.13538 0
M  V30 5700 H 530.773 -1.98422 -3.8576 0
M  V30 5701 H 531.444 -1.33395 -5.3564 0
M  V30 5702 H 533.92 0.174401 -4.15734 0
M  V30 5703 H 532.796 0.673041 -5.44758 0
M  V30 5704 H 533.057 1.72946 -4.06869 0
M  V30 5705 N 532.116 1.54067 -0.331816 0
M  V30 5706 C 533.341 2.05599 0.272705 0
M  V30 5707 C 533.766 1.2059 1.44359 0
M  V30 5708 O 533.124 0.216907 1.79998 0
M  V30 5709 C 533.172 3.54188 0.677021 0
M  V30 5710 O 532.276 3.72082 1.77844 0
M  V30 5711 H 531.617 0.662286 0.0476801 0
M  V30 5712 H 534.147 1.98826 -0.482624 0
M  V30 5713 H 534.157 3.96608 0.957415 0
M  V30 5714 H 532.832 4.15513 -0.179325 0
M  V30 5715 H 531.409 3.41566 1.49622 0
M  V30 5716 N 533.594 0.0601682 1.57485 0
M  V30 5717 C 534.504 -0.926121 2.15546 0
M  V30 5718 C 535.52 -1.33532 1.11558 0
M  V30 5719 O 536.696 -1.4104 1.4377 0
M  V30 5720 C 533.761 -2.17952 2.69625 0
M  V30 5721 C 532.822 -1.82783 3.88444 0
M  V30 5722 C 532.055 -3.02148 4.39935 0
M  V30 5723 O 532.278 -4.15803 3.90466 0
M  V30 5724 O 531.212 -2.82639 5.31412 0
M  V30 5725 H 535.038 -0.462289 3.00161 0
M  V30 5726 H 532.623 -0.162246 1.48516 0
M  V30 5727 H 534.505 -2.91474 3.04337 0
M  V30 5728 H 533.18 -2.63456 1.88077 0
M  V30 5729 H 532.087 -1.06549 3.58606 0
M  V30 5730 H 533.42 -1.42072 4.7125 0
M  V30 5731 N 535.072 -1.5615 -0.213296 0
M  V30 5732 C 536.349 -1.70349 -0.961281 0
M  V30 5733 C 536.729 -0.609791 -2.02101 0
M  V30 5734 O 536.077 0.381987 -2.25285 0
M  V30 5735 C 536.287 -3.11982 -1.56424 0
M  V30 5736 C 537.635 -3.71649 -2.05334 0
M  V30 5737 O 538.659 -3.14995 -1.66302 0
M  V30 5738 O 537.518 -4.71038 -2.77102 0
M  V30 5739 H 534.612 -0.694121 -0.449582 0
M  V30 5740 H 537.158 -1.68464 -0.204426 0
M  V30 5741 H 535.93 -3.83046 -0.799457 0
M  V30 5742 H 535.553 -3.18019 -2.38641 0
M  V30 5743 N 536.55 0.480323 -1.50102 0
M  V30 5744 C 537.48 1.58769 -1.71215 0
M  V30 5745 C 538.461 1.60583 -0.560997 0
M  V30 5746 O 539.646 1.76996 -0.799127 0
M  V30 5747 C 536.776 2.97148 -1.79778 0
M  V30 5748 C 535.73 3.10201 -2.94888 0
M  V30 5749 C 535.056 4.50137 -2.88584 0
M  V30 5750 C 536.356 2.88283 -4.35534 0
M  V30 5751 H 538.05 1.41354 -2.6393 0
M  V30 5752 H 535.596 0.678591 -1.27008 0
M  V30 5753 H 537.549 3.74536 -1.93133 0
M  V30 5754 H 536.273 3.15699 -0.836772 0
M  V30 5755 H 534.932 2.35244 -2.81169 0
M  V30 5756 H 534.58 4.65593 -1.90349 0
M  V30 5757 H 534.28 4.59808 -3.65856 0
M  V30 5758 H 535.804 5.29558 -3.03976 0
M  V30 5759 H 537.218 3.55427 -4.49827 0
M  V30 5760 H 535.615 3.09408 -5.14186 0
M  V30 5761 H 536.685 1.84219 -4.48544 0
M  V30 5762 N 538.028 1.39524 0.732853 0
M  V30 5763 C 539.274 1.37068 1.49467 0
M  V30 5764 C 539.607 -0.0327166 1.94172 0
M  V30 5765 O 538.882 -0.998071 1.66939 0
M  V30 5766 C 539.165 2.34494 2.73285 0
M  V30 5767 C 539.018 3.83784 2.34585 0
M  V30 5768 C 540.337 2.29717 3.75391 0
M  V30 5769 H 537.456 0.499206 0.542183 0
M  V30 5770 H 540.098 1.70532 0.837783 0
M  V30 5771 H 538.248 2.06087 3.29333 0
M  V30 5772 H 539.92 4.22949 1.84151 0
M  V30 5773 H 538.163 4.00455 1.66787 0
M  V30 5774 H 538.834 4.47444 3.23262 0
M  V30 5775 H 541.31 2.54839 3.28932 0
M  V30 5776 H 540.186 2.99962 4.59689 0
M  V30 5777 H 540.447 1.30291 4.22465 0
M  V30 5778 N 539.506 -0.963266 1.24736 0
M  V30 5779 C 540.469 -2.04013 1.04457 0
M  V30 5780 C 541.469 -1.608 0.000335555 0
M  V30 5781 O 542.659 -1.72515 0.241719 0
M  V30 5782 C 539.791 -3.35858 0.584162 0
M  V30 5783 H 540.984 -2.23436 2.00041 0
M  V30 5784 H 538.537 -1.13914 1.07021 0
M  V30 5785 H 539.272 -3.22128 -0.374673 0
M  V30 5786 H 539.057 -3.68568 1.3379 0
M  V30 5787 H 540.547 -4.1502 0.463451 0
M  V30 5788 N 540.985 -1.06182 -1.16461 0
M  V30 5789 C 541.932 -0.671613 -2.20812 0
M  V30 5790 C 542.902 0.331186 -1.62765 0
M  V30 5791 O 544.087 0.22033 -1.89524 0
M  V30 5792 C 541.227 -0.063029 -3.45042 0
M  V30 5793 C 540.34 -1.11587 -4.1734 0
M  V30 5794 C 539.475 -0.473546 -5.29085 0
M  V30 5795 C 538.514 -1.51 -5.93182 0
M  V30 5796 N 537.651 -0.891118 -6.96422 0
M  V30 5797 H 542.491 -1.56589 -2.53542 0
M  V30 5798 H 540.028 -0.782951 -1.24532 0
M  V30 5799 H 541.986 0.307344 -4.16066 0
M  V30 5800 H 540.616 0.794663 -3.12866 0
M  V30 5801 H 539.668 -1.60396 -3.44931 0
M  V30 5802 H 540.98 -1.90221 -4.61104 0
M  V30 5803 H 540.134 -0.0501432 -6.06679 0
M  V30 5804 H 538.873 0.344687 -4.8648 0
M  V30 5805 H 537.878 -1.94331 -5.14311 0
M  V30 5806 H 539.103 -2.33031 -6.37866 0
M  V30 5807 H 537.049 -0.0935753 -6.55933 0
M  V30 5808 H 536.966 -1.61486 -7.38551 0
M  V30 5809 H 538.234 -0.492822 -7.77941 0
M  V30 5810 N 542.463 1.3308 -0.844243 0
M  V30 5811 C 543.709 1.97898 -0.443206 0
M  V30 5812 C 544.042 1.66699 0.99625 0
M  V30 5813 O 543.317 0.949704 1.69738 0
M  V30 5814 C 543.6 3.53801 -0.670606 0
M  V30 5815 C 543.453 3.94667 -2.15772 0
M  V30 5816 C 544.772 4.39936 -0.120226 0
M  V30 5817 H 541.891 0.718861 -0.162504 0
M  V30 5818 H 544.533 1.57633 -1.06075 0
M  V30 5819 H 542.683 3.88229 -0.14496 0
M  V30 5820 H 544.355 3.70469 -2.74865 0
M  V30 5821 H 542.598 3.44203 -2.6402 0
M  V30 5822 H 543.269 5.03275 -2.26757 0
M  V30 5823 H 545.745 4.12183 -0.5696 0
M  V30 5824 H 544.621 5.4803 -0.308984 0
M  V30 5825 H 544.882 4.31184 0.976347 0
M  V30 5826 N 543.941 0.601185 1.45683 0
M  V30 5827 C 545.166 0.0982245 2.07167 0
M  V30 5828 C 545.591 -1.20546 1.44396 0
M  V30 5829 O 544.949 -1.73247 0.534347 0
M  V30 5830 C 544.997 -0.0346976 3.60583 0
M  V30 5831 O 544.101 -1.08657 3.97828 0
M  V30 5832 H 543.442 0.0711618 0.660176 0
M  V30 5833 H 545.972 0.829376 1.87036 0
M  V30 5834 H 545.982 -0.234969 4.07323 0
M  V30 5835 H 544.657 0.917265 4.05659 0
M  V30 5836 H 543.234 -0.863275 3.6277 0
M  V30 5837 N 545.419 -1.53889 0.339982 0
M  V30 5838 C 546.696 -1.93084 -0.312719 0
M  V30 5839 C 547.076 -1.2712 -1.68534 0
M  V30 5840 O 546.424 -0.420835 -2.24591 0
M  V30 5841 C 546.634 -3.4683 -0.388558 0
M  V30 5842 C 547.982 -4.19732 -0.641088 0
M  V30 5843 O 549.006 -3.53075 -0.470818 0
M  V30 5844 O 547.865 -5.3781 -0.970685 0
M  V30 5845 H 544.959 -0.806784 -0.18174 0
M  V30 5846 H 547.505 -1.65137 0.390898 0
M  V30 5847 H 546.277 -3.87055 0.574821 0
M  V30 5848 H 545.9 -3.80933 -1.1391 0
M  V30 5849 N 546.897 -0.0685191 -1.57451 0
M  V30 5850 C 548.144 0.601348 -1.93365 0
M  V30 5851 C 548.472 1.69816 -0.948294 0
M  V30 5852 O 547.727 1.95666 0.0366199 0
M  V30 5853 C 548.026 1.22051 -3.35914 0
M  V30 5854 C 547.692 0.250165 -4.50205 0
M  V30 5855 C 546.354 -0.0167954 -4.81197 0
M  V30 5856 C 548.706 -0.413867 -5.19554 0
M  V30 5857 C 546.034 -0.95493 -5.78876 0
M  V30 5858 C 548.386 -1.3403 -6.18238 0
M  V30 5859 C 547.05 -1.61576 -6.47649 0
M  V30 5860 H 546.32 0.220049 -0.707573 0
M  V30 5861 H 548.967 -0.138697 -1.90997 0
M  V30 5862 H 547.272 2.03622 -3.34732 0
M  V30 5863 H 548.969 1.74605 -3.6099 0
M  V30 5864 H 545.559 0.468421 -4.26033 0
M  V30 5865 H 549.743 -0.220733 -4.95809 0
M  V30 5866 H 544.999 -1.17563 -5.99991 0
M  V30 5867 H 549.173 -1.86081 -6.71079 0
M  V30 5868 H 546.8 -2.34431 -7.2315 0
M  V30 5869 N 548.375 1.56261 0.205012 0
M  V30 5870 C 549.623 1.79684 0.925096 0
M  V30 5871 C 549.944 0.63989 1.84202 0
M  V30 5872 O 549.214 -0.342345 1.92885 0
M  V30 5873 H 547.794 0.662774 0.344587 0
M  V30 5874 H 550.456 1.93734 0.212899 0
M  V30 5875 H 549.552 2.72467 1.52211 0
M  V30 5876 N 549.853 -0.472356 1.50355 0
M  V30 5877 C 550.783 -1.57859 1.72055 0
M  V30 5878 C 551.764 -1.60283 0.569505 0
M  V30 5879 O 552.949 -1.7657 0.808503 0
M  V30 5880 C 550.079 -2.96191 1.81351 0
M  V30 5881 C 549.033 -3.08633 2.96529 0
M  V30 5882 C 548.359 -4.486 2.90968 0
M  V30 5883 C 549.659 -2.85969 4.37057 0
M  V30 5884 H 551.353 -1.39953 2.64676 0
M  V30 5885 H 548.899 -0.671846 1.27367 0
M  V30 5886 H 550.852 -3.73507 1.95117 0
M  V30 5887 H 549.576 -3.15251 0.853502 0
M  V30 5888 H 548.235 -2.33749 2.82413 0
M  V30 5889 H 547.883 -4.64577 1.92815 0
M  V30 5890 H 547.583 -4.57861 3.68289 0
M  V30 5891 H 549.107 -5.27938 3.0678 0
M  V30 5892 H 550.521 -3.53036 4.51706 0
M  V30 5893 H 548.918 -3.06677 5.15819 0
M  V30 5894 H 549.988 -1.81838 4.49514 0
M  V30 5895 N 551.331 -1.39911 -0.725443 0
M  V30 5896 C 552.294 -1.39156 -1.82121 0
M  V30 5897 C 553.294 -0.287018 -1.58218 0
M  V30 5898 O 554.484 -0.545421 -1.65441 0
M  V30 5899 C 551.616 -1.1736 -3.20062 0
M  V30 5900 H 552.809 -2.36672 -1.84191 0
M  V30 5901 H 550.362 -1.25615 -0.930079 0
M  V30 5902 H 551.097 -0.205648 -3.23647 0
M  V30 5903 H 550.882 -1.97358 -3.3881 0
M  V30 5904 H 552.372 -1.19596 -4.00108 0
M  V30 5905 N 552.809 0.956637 -1.25245 0
M  V30 5906 C 553.756 2.053 -1.05454 0
M  V30 5907 C 554.726 1.66062 0.0356889 0
M  V30 5908 O 555.911 1.90415 -0.121099 0
M  V30 5909 C 553.051 3.38391 -0.677191 0
M  V30 5910 C 552.164 3.90758 -1.84206 0
M  V30 5911 C 551.299 5.12165 -1.40926 0
M  V30 5912 C 550.338 5.56757 -2.54338 0
M  V30 5913 N 549.475 6.69376 -2.11848 0
M  V30 5914 H 554.315 2.21562 -1.99284 0
M  V30 5915 H 551.852 1.08578 -0.992434 0
M  V30 5916 H 553.81 4.1488 -0.43938 0
M  V30 5917 H 552.44 3.22021 0.224127 0
M  V30 5918 H 551.492 3.10808 -2.19323 0
M  V30 5919 H 552.804 4.19802 -2.69383 0
M  V30 5920 H 551.958 5.96065 -1.13098 0
M  V30 5921 H 550.697 4.84832 -0.528175 0
M  V30 5922 H 549.702 4.71423 -2.82913 0
M  V30 5923 H 550.927 5.861 -3.43022 0
M  V30 5924 H 548.873 6.43756 -1.26153 0
M  V30 5925 H 548.79 6.97927 -2.90574 0
M  V30 5926 H 550.058 7.5669 -1.87191 0
M  V30 5927 N 554.287 1.06798 1.15896 0
M  V30 5928 C 555.25 0.687328 2.18651 0
M  V30 5929 C 556.25 -0.269559 1.58524 0
M  V30 5930 O 557.44 -0.0512627 1.74125 0
M  V30 5931 C 554.572 0.0121642 3.40898 0
M  V30 5932 H 555.765 1.59701 2.53842 0
M  V30 5933 H 553.318 0.863828 1.3026 0
M  V30 5934 H 554.053 -0.910025 3.1127 0
M  V30 5935 H 553.838 0.700309 3.85795 0
M  V30 5936 H 555.328 -0.239703 4.16911 0
M  V30 5937 N 555.766 -1.3263 0.851289 0
M  V30 5938 C 556.676 -2.32722 0.296268 0
M  V30 5939 C 557.692 -1.63901 -0.584162 0
M  V30 5940 O 558.868 -1.95465 -0.485334 0
M  V30 5941 C 555.933 -3.42942 -0.509103 0
M  V30 5942 C 554.994 -4.2746 0.397069 0
M  V30 5943 C 554.227 -5.32416 -0.36996 0
M  V30 5944 O 554.45 -5.47491 -1.6003 0
M  V30 5945 O 553.384 -6.01327 0.262493 0
M  V30 5946 H 557.21 -2.82078 1.12543 0
M  V30 5947 H 554.795 -1.36194 0.614135 0
M  V30 5948 H 556.677 -4.1017 -0.96634 0
M  V30 5949 H 555.352 -2.95781 -1.31512 0
M  V30 5950 H 554.259 -3.63053 0.902411 0
M  V30 5951 H 555.592 -4.78136 1.16818 0
M  V30 5952 N 557.244 -0.608902 -1.45362 0
M  V30 5953 C 558.66 -0.272659 -1.57254 0
M  V30 5954 C 558.86 1.22477 -1.60005 0
M  V30 5955 O 557.916 2.00785 -1.53106 0
M  V30 5956 C 559.229 -0.944991 -2.85465 0
M  V30 5957 C 560.777 -0.921033 -2.99142 0
M  V30 5958 C 561.252 -1.5734 -4.30126 0
M  V30 5959 N 562.743 -1.53895 -4.36887 0
M  V30 5960 C 563.478 -2.01286 -5.36909 0
M  V30 5961 N 562.974 -2.56768 -6.43461 0
M  V30 5962 N 564.767 -1.92046 -5.28275 0
M  V30 5963 H 556.918 -1.58117 -1.4182 0
M  V30 5964 H 559.181 -0.662437 -0.678146 0
M  V30 5965 H 558.887 -1.99941 -2.89338 0
M  V30 5966 H 558.761 -0.469079 -3.74272 0
M  V30 5967 H 561.148 0.124846 -2.94836 0
M  V30 5968 H 561.229 -1.43522 -2.11743 0
M  V30 5969 H 560.873 -2.61862 -4.35191 0
M  V30 5970 H 560.803 -1.03422 -5.16344 0
M  V30 5971 H 563.294 -1.13366 -3.60495 0
M  V30 5972 H 563.607 -2.9072 -7.16032 0
M  V30 5973 H 561.952 -2.60808 -6.44208 0
M  V30 5974 H 565.143 -1.48439 -4.43941 0
M  V30 5975 H 565.316 -2.29293 -6.06077 0
M  V30 5976 N 558.722 1.53707 -0.348139 0
M  V30 5977 C 559.669 2.25173 0.506518 0
M  V30 5978 C 560.639 1.25174 1.09182 0
M  V30 5979 O 561.824 1.53917 1.12757 0
M  V30 5980 C 558.964 3.03141 1.64923 0
M  V30 5981 C 558.077 4.18002 1.0908 0
M  V30 5982 C 557.212 4.83447 2.20119 0
M  V30 5983 C 556.251 5.90369 1.61651 0
M  V30 5984 N 555.388 6.49575 2.66451 0
M  V30 5985 H 560.228 2.97799 -0.109452 0
M  V30 5986 H 557.765 1.46953 -0.0657866 0
M  V30 5987 H 559.723 3.46607 2.32205 0
M  V30 5988 H 558.353 2.32803 2.23612 0
M  V30 5989 H 557.405 3.79145 0.308783 0
M  V30 5990 H 558.717 4.94892 0.623178 0
M  V30 5991 H 557.871 5.30008 2.95257 0
M  V30 5992 H 556.61 4.05991 2.70227 0
M  V30 5993 H 555.615 5.43186 0.850209 0
M  V30 5994 H 556.84 6.69735 1.1239 0
M  V30 5995 H 554.786 5.74981 3.15805 0
M  V30 5996 H 554.703 7.21952 2.24325 0
M  V30 5997 H 555.971 7.00789 3.41344 0
M  V30 5998 N 560.2 0.0768682 1.57412 0
M  V30 5999 C 561.448 -0.589918 1.93299 0
M  V30 6000 C 561.769 -1.69842 0.958049 0
M  V30 6001 O 561.039 -1.95899 0.00703261 0
M  V30 6002 H 559.619 -0.220901 0.713591 0
M  V30 6003 H 562.281 0.135917 1.94425 0
M  V30 6004 H 561.377 -1.01195 2.95239 0
M  V30 6005 N 561.678 -1.56367 -0.196722 0
M  V30 6006 C 562.608 -1.97442 -1.24655 0
M  V30 6007 C 563.589 -0.846147 -1.47561 0
M  V30 6008 O 564.774 -1.11035 -1.59326 0
M  V30 6009 C 561.904 -2.31253 -2.59112 0
M  V30 6010 C 560.858 -3.46804 -2.50821 0
M  V30 6011 C 560.184 -3.66286 -3.89536 0
M  V30 6012 C 561.484 -4.8104 -2.03465 0
M  V30 6013 H 563.178 -2.85388 -0.905216 0
M  V30 6014 H 560.724 -1.37304 -0.434002 0
M  V30 6015 H 562.677 -2.58583 -3.32736 0
M  V30 6016 H 561.401 -1.40188 -2.94983 0
M  V30 6017 H 560.06 -3.19563 -1.79653 0
M  V30 6018 H 559.708 -2.72555 -4.22756 0
M  V30 6019 H 559.408 -4.4402 -3.84864 0
M  V30 6020 H 560.932 -3.9599 -4.64784 0
M  V30 6021 H 562.346 -5.07411 -2.66846 0
M  V30 6022 H 560.743 -5.62232 -2.09798 0
M  V30 6023 H 561.813 -4.74732 -0.98781 0
M  V30 6024 N 563.156 0.464375 -1.50603 0
M  V30 6025 C 564.433 1.22549 -1.5245 0
M  V30 6026 C 564.813 2.09327 -0.273035 0
M  V30 6027 O 564.161 2.16074 0.743242 0
M  V30 6028 C 564.371 2.05074 -2.82393 0
M  V30 6029 C 565.719 2.63036 -3.33313 0
M  V30 6030 O 566.743 2.1531 -2.8376 0
M  V30 6031 O 565.602 3.5001 -4.19709 0
M  V30 6032 H 562.696 0.556471 -0.611775 0
M  V30 6033 H 565.242 0.475648 -1.62898 0
M  V30 6034 H 564.014 1.41169 -3.64948 0
M  V30 6035 H 563.637 2.87179 -2.7498 0
M  V30 6036 N 564.634 1.40294 0.718013 0
M  V30 6037 C 565.859 1.41941 1.5122 0
M  V30 6038 C 566.284 0.0202371 1.88089 0
M  V30 6039 O 565.642 -0.971078 1.53101 0
M  V30 6040 C 565.69 2.3141 2.76554 0
M  V30 6041 O 564.794 1.75567 3.73162 0
M  V30 6042 H 564.135 0.482644 0.456016 0
M  V30 6043 H 566.665 1.84494 0.884478 0
M  V30 6044 H 566.675 2.46513 3.25108 0
M  V30 6045 H 565.35 3.33085 2.49053 0
M  V30 6046 H 563.927 1.69798 3.31999 0
M  V30 6047 N 566.112 -0.949982 1.2575 0
M  V30 6048 C 567.337 -1.73503 1.13628 0
M  V30 6049 C 567.762 -1.85601 -0.30559 0
M  V30 6050 O 567.12 -1.33984 -1.22139 0
M  V30 6051 C 567.168 -3.1243 1.80055 0
M  V30 6052 O 566.272 -3.97916 1.08336 0
M  V30 6053 H 565.613 -0.532665 0.396439 0
M  V30 6054 H 568.143 -1.19043 1.66403 0
M  V30 6055 H 568.153 -3.62866 1.86527 0
M  V30 6056 H 566.828 -3.02941 2.84956 0
M  V30 6057 H 565.405 -3.56375 1.09777 0
M  V30 6058 N 567.59 -1.07411 -1.15328 0
M  V30 6059 C 569.006 -0.799759 -1.38116 0
M  V30 6060 C 569.206 0.59572 -1.92493 0
M  V30 6061 O 568.262 1.35433 -2.13106 0
M  V30 6062 C 569.575 -1.87407 -2.35158 0
M  V30 6063 C 571.123 -1.89889 -2.48819 0
M  V30 6064 C 571.598 -2.96406 -3.49153 0
M  V30 6065 N 573.089 -2.95512 -3.56689 0
M  V30 6066 C 573.824 -3.74575 -4.34144 0
M  V30 6067 N 573.32 -4.63488 -5.14928 0
M  V30 6068 N 575.113 -3.62919 -4.29239 0
M  V30 6069 H 567.264 -1.97411 -0.78374 0
M  V30 6070 H 569.527 -0.856113 -0.407154 0
M  V30 6071 H 569.233 -2.8768 -2.0232 0
M  V30 6072 H 569.107 -1.73471 -3.34944 0
M  V30 6073 H 571.494 -0.902677 -2.80955 0
M  V30 6074 H 571.575 -2.07904 -1.49029 0
M  V30 6075 H 571.219 -3.96227 -3.17752 0
M  V30 6076 H 571.149 -2.75638 -4.48699 0
M  V30 6077 H 573.64 -2.31061 -2.99031 0
M  V30 6078 H 573.953 -5.20445 -5.71276 0
M  V30 6079 H 572.298 -4.67537 -5.14232 0
M  V30 6080 H 575.489 -2.92833 -3.65194 0
M  V30 6081 H 575.662 -4.24777 -4.89355 0
M  V30 6082 N 569.068 1.32177 -0.85831 0
M  V30 6083 C 569.998 2.31282 -0.321041 0
M  V30 6084 C 570.979 1.59841 0.581786 0
M  V30 6085 O 572.164 1.87619 0.501262 0
M  V30 6086 C 569.294 3.4385 0.48832 0
M  V30 6087 C 568.248 4.26799 -0.320391 0
M  V30 6088 C 567.574 5.31164 0.613934 0
M  V30 6089 C 568.874 4.98829 -1.54813 0
M  V30 6090 H 570.568 2.76469 -1.14915 0
M  V30 6091 H 568.114 1.32916 -0.554028 0
M  V30 6092 H 570.067 4.12224 0.874626 0
M  V30 6093 H 568.791 2.97401 1.34983 0
M  V30 6094 H 567.45 3.60077 -0.688497 0
M  V30 6095 H 567.098 4.80967 1.47239 0
M  V30 6096 H 566.798 5.8755 0.0768097 0
M  V30 6097 H 568.322 6.024 0.997336 0
M  V30 6098 H 569.736 5.59864 -1.23392 0
M  V30 6099 H 568.133 5.64957 -2.02346 0
M  V30 6100 H 569.203 4.26483 -2.30739 0
M  V30 6101 N 570.547 0.616602 1.45037 0
M  V30 6102 C 571.958 0.199359 1.85633 0
M  V30 6103 C 572.309 -1.24588 1.51566 0
M  V30 6104 O 571.434 -1.94594 0.94668 0
M  V30 6105 C 572.029 0.355033 3.36935 0
M  V30 6106 C 570.588 -0.00758748 3.76399 0
M  V30 6107 C 569.735 0.675256 2.68953 0
M  V30 6108 H 572.686 0.822708 1.3571 0
M  V30 6109 H 572.707 -0.410201 3.78282 0
M  V30 6110 H 572.219 1.40699 3.61698 0
M  V30 6111 H 570.32 -1.05837 3.57252 0
M  V30 6112 H 570.433 0.392346 4.77491 0
M  V30 6113 H 568.797 0.111992 2.54454 0
M  V30 6114 H 569.58 1.72952 2.96551 0
M  V30 6115 N 572.025 -1.5352 0.356285 0
M  V30 6116 C 573.271 -2.01414 -0.236653 0
M  V30 6117 C 573.604 -1.24339 -1.49176 0
M  V30 6118 O 572.879 -0.334496 -1.91602 0
M  V30 6119 C 573.162 -3.56059 -0.537982 0
M  V30 6120 C 573.015 -4.43835 0.730112 0
M  V30 6121 C 574.334 -4.19127 -1.34239 0
M  V30 6122 H 571.453 -0.732135 -0.0845386 0
M  V30 6123 H 574.095 -1.83854 0.479341 0
M  V30 6124 H 572.245 -3.71153 -1.14795 0
M  V30 6125 H 573.917 -4.40555 1.36782 0
M  V30 6126 H 572.16 -4.1218 1.3524 0
M  V30 6127 H 572.831 -5.49958 0.474358 0
M  V30 6128 H 575.307 -4.07809 -0.826498 0
M  V30 6129 H 574.183 -5.27378 -1.52198 0
M  V30 6130 H 574.444 -3.74581 -2.34822 0
M  V30 6131 N 573.503 -0.0852151 -1.57369 0
M  V30 6132 C 574.45 0.877268 -2.13478 0
M  V30 6133 C 575.42 1.28642 -1.05073 0
M  V30 6134 O 576.605 1.36992 -1.32808 0
M  V30 6135 C 573.745 2.13464 -2.71159 0
M  V30 6136 C 572.858 1.77691 -3.93764 0
M  V30 6137 C 571.993 2.98139 -4.39643 0
M  V30 6138 C 571.032 2.58447 -5.54862 0
M  V30 6139 N 570.169 3.71698 -5.95639 0
M  V30 6140 H 575.009 0.391933 -2.95411 0
M  V30 6141 H 572.546 0.181796 -1.45972 0
M  V30 6142 H 574.504 2.87086 -3.02717 0
M  V30 6143 H 573.134 2.59514 -1.91969 0
M  V30 6144 H 572.186 0.940768 -3.68583 0
M  V30 6145 H 573.498 1.44497 -4.77412 0
M  V30 6146 H 572.652 3.80026 -4.72933 0
M  V30 6147 H 571.391 3.34536 -3.54876 0
M  V30 6148 H 570.396 1.74984 -5.21211 0
M  V30 6149 H 571.621 2.23205 -6.41371 0
M  V30 6150 H 569.567 4.07831 -5.13819 0
M  V30 6151 H 569.484 3.42317 -6.74059 0
M  V30 6152 H 570.752 4.54123 -6.33555 0
M  V30 6153 N 574.981 1.5647 0.188427 0
M  V30 6154 C 576.227 1.82181 0.904534 0
M  V30 6155 C 576.582 0.663258 1.80606 0
M  V30 6156 O 575.875 -0.341231 1.88537 0
M  V30 6157 C 576.069 3.11596 1.7505 0
M  V30 6158 C 575.898 4.39928 0.932372 0
M  V30 6159 C 574.668 5.01554 0.61417 0
M  V30 6160 C 576.866 5.13527 0.281936 0
M  V30 6161 N 574.848 6.13499 -0.221896 0
M  V30 6162 C 576.219 6.18603 -0.416037 0
M  V30 6163 C 578.274 4.97505 0.198345 0
M  V30 6164 C 576.977 7.09394 -1.18965 0
M  V30 6165 C 579.003 5.88725 -0.561887 0
M  V30 6166 C 578.365 6.93251 -1.24828 0
M  V30 6167 H 574.464 0.717858 0.310168 0
M  V30 6168 H 577.048 1.93932 0.172757 0
M  V30 6169 H 575.219 3.01068 2.45383 0
M  V30 6170 H 576.951 3.25369 2.4066 0
M  V30 6171 H 573.706 4.64174 0.940187 0
M  V30 6172 H 574.13 6.74065 -0.629735 0
M  V30 6173 H 578.772 4.16716 0.714665 0
M  V30 6174 H 576.49 7.8964 -1.71737 0
M  V30 6175 H 580.076 5.78401 -0.628009 0
M  V30 6176 H 578.956 7.62618 -1.82712 0
M  V30 6177 N 576.459 -0.456382 1.50847 0
M  V30 6178 C 577.687 -1.23026 1.66349 0
M  V30 6179 C 578.102 -1.85473 0.352868 0
M  V30 6180 O 577.459 -1.69885 -0.666739 0
M  V30 6181 C 577.51 -2.32827 2.76539 0
M  V30 6182 O 577.231 -1.72938 4.02522 0
M  V30 6183 C 578.732 -3.23448 3.03144 0
M  V30 6184 H 575.952 -0.371527 0.558756 0
M  V30 6185 H 578.496 -0.543082 1.97157 0
M  V30 6186 H 576.651 -2.97294 2.48384 0
M  V30 6187 H 577.065 -2.45357 4.63573 0
M  V30 6188 H 578.539 -3.96669 3.83872 0
M  V30 6189 H 579.016 -3.83094 2.14793 0
M  V30 6190 H 579.622 -2.64702 3.32886 0
M  V30 6191 N 577.937 -1.40673 -0.710563 0
M  V30 6192 C 578.9 -1.4108 -1.80635 0
M  V30 6193 C 579.9 -0.303783 -1.57904 0
M  V30 6194 O 581.09 -0.562937 -1.64853 0
M  V30 6195 C 578.222 -1.20748 -3.18799 0
M  V30 6196 H 579.415 -2.38612 -1.81671 0
M  V30 6197 H 576.968 -1.26595 -0.916704 0
M  V30 6198 H 577.703 -0.239964 -3.23411 0
M  V30 6199 H 577.488 -2.00941 -3.36698 0
M  V30 6200 H 578.978 -1.23833 -3.98817 0
M  V30 6201 N 579.415 0.9433 -1.26252 0
M  V30 6202 C 580.826 1.50404 -1.10614 0
M  V30 6203 C 581.177 1.93666 0.31429 0
M  V30 6204 O 580.302 1.79709 1.20555 0
M  V30 6205 C 580.897 2.73336 -2.00182 0
M  V30 6206 C 579.456 3.25686 -1.88695 0
M  V30 6207 C 578.603 1.98474 -1.93658 0
M  V30 6208 H 581.554 0.759006 -1.39373 0
M  V30 6209 H 581.575 3.47567 -1.54847 0
M  V30 6210 H 581.087 2.41818 -3.03555 0
M  V30 6211 H 579.188 3.61998 -0.882489 0
M  V30 6212 H 579.301 3.92935 -2.74115 0
M  V30 6213 H 577.665 2.14278 -1.37684 0
M  V30 6214 H 578.448 1.6929 -2.98657 0
M  V30 6215 N 580.893 1.08022 1.14757 0
M  V30 6216 C 581.803 0.718292 2.23333 0
M  V30 6217 C 582.819 -0.273477 1.71837 0
M  V30 6218 O 583.995 -0.118406 2.01052 0
M  V30 6219 C 581.06 0.128855 3.4646 0
M  V30 6220 C 580.121 1.17473 4.12915 0
M  V30 6221 C 579.354 0.61333 5.30164 0
M  V30 6222 O 579.577 -0.568458 5.6756 0
M  V30 6223 O 578.511 1.3615 5.86299 0
M  V30 6224 H 582.337 1.62394 2.56636 0
M  V30 6225 H 579.922 0.853628 1.22611 0
M  V30 6226 H 581.804 -0.197249 4.20938 0
M  V30 6227 H 580.479 -0.750014 3.14891 0
M  V30 6228 H 579.386 1.5533 3.40328 0
M  V30 6229 H 580.719 2.02574 4.48581 0
M  V30 6230 N 582.371 -1.3172 0.865308 0
M  V30 6231 C 583.334 -2.26918 0.322627 0
M  V30 6232 C 584.334 -1.52031 -0.523751 0
M  V30 6233 O 585.524 -1.70973 -0.333727 0
M  V30 6234 C 582.656 -3.36558 -0.542338 0
M  V30 6235 H 583.849 -2.76432 1.16298 0
M  V30 6236 H 581.402 -1.42573 0.640512 0
M  V30 6237 H 582.137 -2.92329 -1.40407 0
M  V30 6238 H 581.922 -3.92048 0.0636395 0
M  V30 6239 H 583.412 -4.07465 -0.91446 0
M  V30 6240 N 583.85 -0.624285 -1.44708 0
M  V30 6241 C 584.779 0.0717025 -2.3339 0
M  V30 6242 C 585.76 0.841814 -1.47809 0
M  V30 6243 O 586.946 0.809056 -1.76544 0
M  V30 6244 C 584.076 1.05852 -3.30776 0
M  V30 6245 C 583.029 0.400503 -4.26122 0
M  V30 6246 C 582.356 1.49674 -5.13324 0
M  V30 6247 C 583.656 -0.688924 -5.17737 0
M  V30 6248 H 585.35 -0.668819 -2.91834 0
M  V30 6249 H 582.896 -0.32308 -1.40329 0
M  V30 6250 H 584.849 1.5541 -3.91696 0
M  V30 6251 H 583.572 1.82984 -2.70526 0
M  V30 6252 H 582.231 -0.0743687 -3.66525 0
M  V30 6253 H 581.88 2.25877 -4.49431 0
M  V30 6254 H 581.58 1.06188 -5.77926 0
M  V30 6255 H 583.104 1.99427 -5.77115 0
M  V30 6256 H 584.518 -0.276724 -5.72632 0
M  V30 6257 H 582.915 -1.04652 -5.90904 0
M  V30 6258 H 583.985 -1.55884 -4.5916 0
M  V30 6259 N 585.328 1.53329 -0.364422 0
M  V30 6260 C 586.275 2.25698 0.482607 0
M  V30 6261 C 587.245 1.26325 1.07848 0
M  V30 6262 O 588.43 1.55104 1.11119 0
M  V30 6263 C 585.57 3.04873 1.61699 0
M  V30 6264 C 584.683 4.19135 1.0464 0
M  V30 6265 C 583.818 4.85754 2.14979 0
M  V30 6266 C 582.857 5.9205 1.5538 0
M  V30 6267 N 581.994 6.52365 2.59547 0
M  V30 6268 H 586.834 2.97666 -0.141032 0
M  V30 6269 H 584.371 1.46875 -0.0813692 0
M  V30 6270 H 586.329 3.49051 2.28516 0
M  V30 6271 H 584.959 2.35162 2.2113 0
M  V30 6272 H 584.011 3.79451 0.268553 0
M  V30 6273 H 585.323 4.95525 0.570653 0
M  V30 6274 H 584.477 5.3311 2.89619 0
M  V30 6275 H 583.216 4.08834 2.65906 0
M  V30 6276 H 582.221 5.44058 0.792549 0
M  V30 6277 H 583.446 6.7089 1.0528 0
M  V30 6278 H 581.392 5.78298 3.09689 0
M  V30 6279 H 581.309 7.2429 2.16655 0
M  V30 6280 H 582.577 7.0437 3.33892 0
M  V30 6281 N 586.806 0.0935595 1.57322 0
M  V30 6282 C 587.756 -0.876521 2.10478 0
M  V30 6283 C 588.74 -1.24482 1.01946 0
M  V30 6284 O 589.932 -1.22016 1.28223 0
M  V30 6285 C 587.061 -2.13615 2.68745 0
M  V30 6286 C 586.147 -1.79335 3.84317 0
M  V30 6287 N 586.538 -1.15606 4.92411 0
M  V30 6288 C 584.836 -2.08954 3.94023 0
M  V30 6289 C 585.537 -0.999036 5.73057 0
M  V30 6290 N 584.513 -1.51585 5.22037 0
M  V30 6291 H 588.315 -0.379829 2.91435 0
M  V30 6292 H 585.829 -0.109699 1.62029 0
M  V30 6293 H 587.826 -2.84053 3.05155 0
M  V30 6294 H 586.486 -2.63851 1.89242 0
M  V30 6295 H 587.497 -0.823063 5.11318 0
M  V30 6296 H 584.174 -2.61416 3.25527 0
M  V30 6297 H 585.564 -0.500772 6.70031 0
M  V30 6298 N 588.284 -1.56567 -0.180126 0
M  V30 6299 C 589.532 -1.81133 -0.896392 0
M  V30 6300 C 589.853 -0.669114 -1.83161 0
M  V30 6301 O 589.123 0.311616 -1.93406 0
M  V30 6302 H 587.703 -0.668172 -0.333999 0
M  V30 6303 H 590.365 -1.94048 -0.182051 0
M  V30 6304 H 589.461 -2.74854 -1.47857 0
M  V30 6305 N 589.762 0.448376 -1.51087 0
M  V30 6306 C 590.709 1.54341 -1.71603 0
M  V30 6307 C 591.679 1.56463 -0.557536 0
M  V30 6308 O 592.864 1.73644 -0.79072 0
M  V30 6309 C 590.004 2.92148 -1.83695 0
M  V30 6310 C 589.117 2.99639 -3.11192 0
M  V30 6311 C 588.252 4.285 -3.13944 0
M  V30 6312 C 587.291 4.29819 -4.35801 0
M  V30 6313 N 586.428 5.50186 -4.36164 0
M  V30 6314 H 591.268 1.36151 -2.65079 0
M  V30 6315 H 588.805 0.661585 -1.31383 0
M  V30 6316 H 590.763 3.72093 -1.88687 0
M  V30 6317 H 589.393 3.0892 -0.936374 0
M  V30 6318 H 588.445 2.12425 -3.15562 0
M  V30 6319 H 589.757 2.96474 -4.01129 0
M  V30 6320 H 588.911 5.16811 -3.17791 0
M  V30 6321 H 587.65 4.34307 -2.21876 0
M  V30 6322 H 586.655 3.39902 -4.32142 0
M  V30 6323 H 587.88 4.25685 -5.29121 0
M  V30 6324 H 585.826 5.56735 -3.46961 0
M  V30 6325 H 585.743 5.48856 -5.19897 0
M  V30 6326 H 587.011 6.40559 -4.44189 0
M  V30 6327 N 591.24 1.41047 0.703093 0
M  V30 6328 C 592.487 1.4 1.46309 0
M  V30 6329 C 592.815 0.00654574 1.94499 0
M  V30 6330 O 592.07 -0.980255 1.6938 0
M  V30 6331 C 592.369 2.34686 2.6955 0
M  V30 6332 C 592.035 3.81684 2.40058 0
M  V30 6333 C 590.697 4.21731 2.31725 0
M  V30 6334 C 593.049 4.74525 2.15581 0
M  V30 6335 C 590.377 5.52637 1.97001 0
M  V30 6336 C 592.729 6.05744 1.82366 0
M  V30 6337 C 591.393 6.44819 1.72524 0
M  V30 6338 H 590.663 0.512295 0.535382 0
M  V30 6339 H 593.31 1.73792 0.804275 0
M  V30 6340 H 591.615 1.94122 3.40329 0
M  V30 6341 H 593.312 2.31152 3.27673 0
M  V30 6342 H 589.902 3.49963 2.47435 0
M  V30 6343 H 594.086 4.44395 2.20968 0
M  V30 6344 H 589.342 5.81802 1.87928 0
M  V30 6345 H 593.516 6.77189 1.62444 0
M  V30 6346 H 591.143 7.46168 1.45385 0
M  V30 6347 N 592.718 -0.936591 1.26751 0
M  V30 6348 C 593.946 -1.71758 1.15355 0
M  V30 6349 C 594.361 -1.86549 -0.290683 0
M  V30 6350 O 593.718 -1.37616 -1.19868 0
M  V30 6351 C 593.769 -3.12193 1.82258 0
M  V30 6352 O 593.49 -2.98105 3.21038 0
M  V30 6353 C 594.991 -4.06485 1.76875 0
M  V30 6354 H 592.211 -0.537636 0.401483 0
M  V30 6355 H 594.755 -1.17382 1.67457 0
M  V30 6356 H 592.91 -3.63456 1.34083 0
M  V30 6357 H 593.324 -3.86824 3.54214 0
M  V30 6358 H 594.798 -5.02569 2.28316 0
M  V30 6359 H 595.275 -4.32986 0.736216 0
M  V30 6360 H 595.881 -3.61144 2.24623 0
M  V30 6361 N 594.196 -1.08629 -1.14182 0
M  V30 6362 C 595.421 -0.83902 -1.89671 0
M  V30 6363 C 595.846 0.603332 -1.78161 0
M  V30 6364 O 595.204 1.42301 -1.12339 0
M  V30 6365 C 595.252 -1.26854 -3.37551 0
M  V30 6366 O 594.356 -0.42188 -4.10236 0
M  V30 6367 H 593.697 -0.304545 -0.590041 0
M  V30 6368 H 596.227 -1.4483 -1.44518 0
M  V30 6369 H 596.237 -1.25038 -3.88368 0
M  V30 6370 H 594.912 -2.31901 -3.45246 0
M  V30 6371 H 593.489 -0.503654 -3.69483 0
M  V30 6372 N 595.674 1.31259 -0.872281 0
M  V30 6373 C 596.621 2.28459 -0.327857 0
M  V30 6374 C 597.591 1.55831 0.574957 0
M  V30 6375 O 598.776 1.83965 0.506101 0
M  V30 6376 C 595.916 3.41985 0.462644 0
M  V30 6377 C 595.029 4.29458 -0.467949 0
M  V30 6378 C 594.164 5.30131 0.336903 0
M  V30 6379 C 593.203 6.0925 -0.58997 0
M  V30 6380 N 592.34 7.01872 0.178775 0
M  V30 6381 H 597.18 2.74414 -1.16193 0
M  V30 6382 H 594.717 1.34994 -0.584376 0
M  V30 6383 H 596.675 4.06547 0.936759 0
M  V30 6384 H 595.305 2.97134 1.2614 0
M  V30 6385 H 594.357 3.65318 -1.06052 0
M  V30 6386 H 595.669 4.84677 -1.17856 0
M  V30 6387 H 594.823 6.0038 0.873427 0
M  V30 6388 H 593.562 4.75573 1.08079 0
M  V30 6389 H 592.567 5.37889 -1.13823 0
M  V30 6390 H 593.792 6.65894 -1.33275 0
M  V30 6391 H 591.738 6.49721 0.905435 0
M  V30 6392 H 591.655 7.54522 -0.472452 0
M  V30 6393 H 592.923 7.76382 0.696454 0
M  V30 6394 N 597.152 0.631951 1.44375 0
M  V30 6395 C 598.377 0.142146 2.06912 0
M  V30 6396 C 598.802 -1.17456 1.4692 0
M  V30 6397 O 598.16 -1.72074 0.570975 0
M  V30 6398 C 598.208 0.0417952 3.60576 0
M  V30 6399 O 597.312 -1.00194 4.00044 0
M  V30 6400 H 596.653 0.0851491 0.658518 0
M  V30 6401 H 599.183 0.868863 1.85235 0
M  V30 6402 H 599.193 -0.148517 4.0773 0
M  V30 6403 H 597.868 1.0031 4.03622 0
M  V30 6404 H 596.445 -0.786131 3.64519 0
M  V30 6405 N 598.631 -1.53133 0.372548 0
M  V30 6406 C 599.908 -1.93704 -0.271693 0
M  V30 6407 C 600.288 -1.30667 -1.65799 0
M  V30 6408 O 599.636 -0.46838 -2.23648 0
M  V30 6409 C 599.846 -3.47576 -0.314903 0
M  V30 6410 C 601.194 -4.20998 -0.551912 0
M  V30 6411 O 602.218 -3.53994 -0.39582 0
M  V30 6412 O 601.077 -5.39748 -0.85639 0
M  V30 6413 H 598.171 -0.810457 -0.164586 0
M  V30 6414 H 600.717 -1.6427 0.425838 0
M  V30 6415 H 599.489 -3.85749 0.656792 0
M  V30 6416 H 599.112 -3.83264 -1.05804 0
M  V30 6417 N 600.109 -0.101901 -1.5727 0
M  V30 6418 C 601.355 0.561027 -1.94885 0
M  V30 6419 C 601.688 1.6741 -0.984258 0
M  V30 6420 O 600.963 1.94491 -0.0184767 0
M  V30 6421 C 601.246 1.10982 -3.42571 0
M  V30 6422 C 601.099 0.00133418 -4.498 0
M  V30 6423 C 602.418 2.00608 -3.9172 0
M  V30 6424 H 599.537 0.202467 -0.708644 0
M  V30 6425 H 602.179 -0.173992 -1.89202 0
M  V30 6426 H 600.329 1.73621 -3.47546 0
M  V30 6427 H 602.001 -0.63322 -4.56933 0
M  V30 6428 H 600.244 -0.664143 -4.28686 0
M  V30 6429 H 600.915 0.426253 -5.50352 0
M  V30 6430 H 603.391 1.47864 -3.88941 0
M  V30 6431 H 602.267 2.3593 -4.95609 0
M  V30 6432 H 602.528 2.92608 -3.3141 0
M  V30 6433 N 601.587 1.56661 0.17182 0
M  V30 6434 C 602.833 1.8313 0.88516 0
M  V30 6435 C 603.188 0.682376 1.79893 0
M  V30 6436 O 602.481 -0.321215 1.88888 0
M  V30 6437 C 602.675 3.13435 1.71736 0
M  V30 6438 C 602.504 4.40892 0.885659 0
M  V30 6439 C 601.274 5.02177 0.560939 0
M  V30 6440 C 603.472 5.13797 0.227454 0
M  V30 6441 N 601.454 6.13229 -0.286953 0
M  V30 6442 C 602.825 6.18127 -0.481625 0
M  V30 6443 C 604.88 4.97687 0.145567 0
M  V30 6444 C 603.583 7.08092 -1.26482 0
M  V30 6445 C 605.609 5.88096 -0.624298 0
M  V30 6446 C 604.971 6.91888 -1.32174 0
M  V30 6447 H 601.07 0.721107 0.302536 0
M  V30 6448 H 603.654 1.94104 0.152178 0
M  V30 6449 H 601.825 3.03653 2.42176 0
M  V30 6450 H 603.557 3.27903 2.37196 0
M  V30 6451 H 600.312 4.65145 0.890902 0
M  V30 6452 H 600.736 6.73359 -0.701193 0
M  V30 6453 H 605.378 4.17451 0.670426 0
M  V30 6454 H 603.096 7.87774 -1.80103 0
M  V30 6455 H 606.682 5.77702 -0.689321 0
M  V30 6456 H 605.562 7.60637 -1.90791 0
M  V30 6457 N 603.065 -0.440357 1.51323 0
M  V30 6458 C 604.29 -1.21716 1.67928 0
M  V30 6459 C 604.715 -1.84328 0.374826 0
M  V30 6460 O 604.073 -1.68675 -0.664706 0
M  V30 6461 C 604.121 -2.27914 2.79442 0
M  V30 6462 O 603.225 -3.33325 2.42834 0
M  V30 6463 H 602.566 -0.35674 0.560029 0
M  V30 6464 H 605.096 -0.520417 1.97871 0
M  V30 6465 H 605.106 -2.72746 3.03436 0
M  V30 6466 H 603.781 -1.8172 3.741 0
M  V30 6467 H 602.358 -2.9399 2.294 0
M  V30 6468 N 604.543 -1.41418 -0.695603 0
M  V30 6469 C 605.79 -1.40774 -1.45564 0
M  V30 6470 C 606.118 -0.0168604 -1.94493 0
M  V30 6471 O 605.373 0.971259 -1.69897 0
M  V30 6472 C 605.672 -2.36112 -2.68302 0
M  V30 6473 C 605.338 -3.82952 -2.38031 0
M  V30 6474 C 604 -4.22954 -2.29486 0
M  V30 6475 C 606.352 -4.75662 -2.13061 0
M  V30 6476 C 603.68 -5.53674 -1.94067 0
M  V30 6477 C 606.032 -6.06702 -1.79151 0
M  V30 6478 C 604.696 -6.45725 -1.69102 0
M  V30 6479 H 603.966 -0.515128 -0.532658 0
M  V30 6480 H 606.613 -1.74216 -0.795047 0
M  V30 6481 H 604.918 -1.95924 -3.39295 0
M  V30 6482 H 606.615 -2.32887 -3.26442 0
M  V30 6483 H 603.205 -3.5127 -2.45576 0
M  V30 6484 H 607.389 -4.45561 -2.18608 0
M  V30 6485 H 602.645 -5.8279 -1.8484 0
M  V30 6486 H 606.819 -6.78041 -1.5885 0
M  V30 6487 H 604.446 -7.46929 -1.41426 0
M  V30 6488 N 606.021 0.929856 -1.27246 0
M  V30 6489 C 607.269 1.674 -1.13233 0
M  V30 6490 C 607.59 1.92311 0.322744 0
M  V30 6491 O 606.86 1.52784 1.22612 0
M  V30 6492 H 605.44 0.620411 -0.416052 0
M  V30 6493 H 608.102 1.11663 -1.59741 0
M  V30 6494 H 607.198 2.64308 -1.65975 0
M  V30 6495 N 607.499 1.09233 1.13605 0
M  V30 6496 C 608.745 0.828385 1.8511 0
M  V30 6497 C 609.078 -0.64437 1.83198 0
M  V30 6498 O 608.353 -1.47428 1.26867 0
M  V30 6499 C 608.636 1.36167 3.33363 0
M  V30 6500 C 608.489 2.90038 3.438 0
M  V30 6501 C 609.808 0.993819 4.28732 0
M  V30 6502 H 606.927 0.30239 0.672108 0
M  V30 6503 H 609.569 1.35339 1.33355 0
M  V30 6504 H 607.719 0.9151 3.77569 0
M  V30 6505 H 609.391 3.43128 3.08319 0
M  V30 6506 H 607.634 3.27271 2.84739 0
M  V30 6507 H 608.305 3.22428 4.48045 0
M  V30 6508 H 610.781 1.37893 3.92587 0
M  V30 6509 H 609.657 1.39403 5.30903 0
M  V30 6510 H 609.918 -0.0982206 4.41991 0
M  V30 6511 N 608.977 -1.30795 0.87923 0
M  V30 6512 C 609.907 -2.30742 0.357796 0
M  V30 6513 C 610.888 -1.60747 -0.556283 0
M  V30 6514 O 612.073 -1.88393 -0.47135 0
M  V30 6515 C 609.203 -3.44583 -0.433555 0
M  V30 6516 C 608.157 -4.26235 0.388251 0
M  V30 6517 C 607.483 -5.32073 -0.529352 0
M  V30 6518 C 608.783 -4.96303 1.62729 0
M  V30 6519 H 610.477 -2.74605 1.19299 0
M  V30 6520 H 608.023 -1.32017 0.575104 0
M  V30 6521 H 609.976 -4.13563 -0.808934 0
M  V30 6522 H 608.7 -2.99511 -1.30234 0
M  V30 6523 H 607.359 -3.58936 0.745695 0
M  V30 6524 H 607.007 -4.83249 -1.39569 0
M  V30 6525 H 606.707 -5.87598 0.0166741 0
M  V30 6526 H 608.231 -6.0391 -0.901373 0
M  V30 6527 H 609.645 -5.5783 1.32283 0
M  V30 6528 H 608.042 -5.61666 2.11309 0
M  V30 6529 H 609.112 -4.22758 2.37494 0
M  V30 6530 N 610.455 -0.639598 -1.44038 0
M  V30 6531 C 611.385 0.0469443 -2.33453 0
M  V30 6532 C 612.366 0.82609 -1.48694 0
M  V30 6533 O 613.551 0.790285 -1.77393 0
M  V30 6534 C 610.681 1.02338 -3.3188 0
M  V30 6535 C 609.635 0.355284 -4.26523 0
M  V30 6536 C 608.961 1.44221 -5.14883 0
M  V30 6537 C 610.261 -0.743798 -5.16977 0
M  V30 6538 H 611.955 -0.699735 -2.91108 0
M  V30 6539 H 609.501 -0.337946 -1.39978 0
M  V30 6540 H 611.454 1.51247 -3.93322 0
M  V30 6541 H 610.178 1.80105 -2.72451 0
M  V30 6542 H 608.837 -0.113239 -3.66425 0
M  V30 6543 H 608.485 2.21097 -4.51802 0
M  V30 6544 H 608.185 1.00052 -5.79019 0
M  V30 6545 H 609.709 1.93295 -5.79197 0
M  V30 6546 H 611.123 -0.337444 -5.72306 0
M  V30 6547 H 609.52 -1.10914 -5.89761 0
M  V30 6548 H 610.59 -1.60745 -4.57481 0
M  V30 6549 N 611.933 1.52934 -0.380664 0
M  V30 6550 C 613.179 2.02443 0.197089 0
M  V30 6551 C 613.534 1.26249 1.45186 0
M  V30 6552 O 612.827 0.351964 1.8834 0
M  V30 6553 C 613.021 3.5349 0.527199 0
M  V30 6554 C 612.85 4.44312 -0.694027 0
M  V30 6555 C 611.62 4.90582 -1.21068 0
M  V30 6556 C 613.818 4.8995 -1.56377 0
M  V30 6557 N 611.8 5.65451 -2.39036 0
M  V30 6558 C 613.171 5.63313 -2.58995 0
M  V30 6559 C 615.226 4.72002 -1.58488 0
M  V30 6560 C 613.929 6.20635 -3.63599 0
M  V30 6561 C 615.955 5.30201 -2.61995 0
M  V30 6562 C 615.317 6.03463 -3.63335 0
M  V30 6563 H 611.416 0.781241 0.0344357 0
M  V30 6564 H 614 1.87387 -0.528609 0
M  V30 6565 H 612.171 3.68677 1.22196 0
M  V30 6566 H 613.903 3.89707 1.09135 0
M  V30 6567 H 610.658 4.67249 -0.772995 0
M  V30 6568 H 611.082 6.07541 -2.98701 0
M  V30 6569 H 615.724 4.14873 -0.814891 0
M  V30 6570 H 613.442 6.76852 -4.41472 0
M  V30 6571 H 617.028 5.182 -2.645 0
M  V30 6572 H 615.908 6.47693 -4.42113 0
M  V30 6573 N 613.412 0.11024 1.57214 0
M  V30 6574 C 614.322 -0.857077 2.18383 0
M  V30 6575 C 615.338 -1.29915 1.1575 0
M  V30 6576 O 616.514 -1.36394 1.48184 0
M  V30 6577 C 613.579 -2.09264 2.76423 0
M  V30 6578 C 612.64 -1.70333 3.94063 0
M  V30 6579 C 611.873 -2.87999 4.49324 0
M  V30 6580 O 612.096 -4.0317 4.03497 0
M  V30 6581 O 611.03 -2.6559 5.40135 0
M  V30 6582 H 614.856 -0.366561 3.0148 0
M  V30 6583 H 612.441 -0.114914 1.48957 0
M  V30 6584 H 614.323 -2.81644 3.13456 0
M  V30 6585 H 612.998 -2.57339 1.96363 0
M  V30 6586 H 611.905 -0.950864 3.61814 0
M  V30 6587 H 613.238 -1.27007 4.75531 0
M  V30 6588 N 614.89 -1.56749 -0.16351 0
M  V30 6589 C 616.136 -1.82704 -0.880168 0
M  V30 6590 C 616.469 -0.689311 -1.81555 0
M  V30 6591 O 615.744 0.308224 -1.92042 0
M  V30 6592 C 616.027 -3.19084 -1.66905 0
M  V30 6593 C 615.88 -4.43397 -0.756269 0
M  V30 6594 C 617.199 -3.52493 -2.63509 0
M  V30 6595 H 614.318 -0.664608 -0.318535 0
M  V30 6596 H 616.96 -1.89438 -0.146036 0
M  V30 6597 H 615.11 -3.13475 -2.2949 0
M  V30 6598 H 616.782 -4.61079 -0.14269 0
M  V30 6599 H 615.025 -4.33752 -0.0647944 0
M  V30 6600 H 615.696 -5.3539 -1.34393 0
M  V30 6601 H 618.172 -3.58606 -2.11047 0
M  V30 6602 H 617.048 -4.48979 -3.15767 0
M  V30 6603 H 617.309 -2.77597 -3.44082 0
M  V30 6604 N 616.368 0.432326 -1.51554 0
M  V30 6605 C 617.615 1.18134 -1.64471 0
M  V30 6606 C 617.943 1.91076 -0.363349 0
M  V30 6607 O 617.198 1.84492 0.65279 0
M  V30 6608 C 617.497 2.21907 -2.80164 0
M  V30 6609 C 617.163 1.65941 -4.19255 0
M  V30 6610 C 615.825 1.50401 -4.57092 0
M  V30 6611 C 618.177 1.24843 -5.06027 0
M  V30 6612 C 615.505 0.922443 -5.79403 0
M  V30 6613 C 617.857 0.68113 -6.28922 0
M  V30 6614 C 616.521 0.512673 -6.65528 0
M  V30 6615 H 615.791 0.432283 -0.601841 0
M  V30 6616 H 618.438 0.471701 -1.856 0
M  V30 6617 H 616.743 2.98928 -2.53277 0
M  V30 6618 H 618.44 2.79691 -2.87357 0
M  V30 6619 H 615.03 1.79014 -3.89425 0
M  V30 6620 H 619.214 1.35667 -4.77397 0
M  V30 6621 H 614.47 0.779733 -6.06408 0
M  V30 6622 H 618.644 0.35418 -6.95499 0
M  V30 6623 H 616.271 0.0599084 -7.60176 0
M  V30 6624 N 617.846 1.41785 0.688094 0
M  V30 6625 C 619.071 1.45117 1.48175 0
M  V30 6626 C 619.496 0.060129 1.88004 0
M  V30 6627 O 618.854 -0.938385 1.55126 0
M  V30 6628 C 618.902 2.37224 2.71583 0
M  V30 6629 O 618.006 1.83443 3.69354 0
M  V30 6630 H 617.347 0.492208 0.445676 0
M  V30 6631 H 619.877 1.86329 0.845145 0
M  V30 6632 H 619.887 2.53353 3.19806 0
M  V30 6633 H 618.562 3.38293 2.41931 0
M  V30 6634 H 617.139 1.76802 3.28322 0
M  V30 6635 N 619.324 -0.923095 1.27737 0
M  V30 6636 C 620.554 -1.70277 1.17001 0
M  V30 6637 C 620.962 -1.87188 -0.275199 0
M  V30 6638 O 620.305 -1.39195 -1.19877 0
M  V30 6639 C 620.367 -3.11976 1.78637 0
M  V30 6640 C 620.031 -3.18386 3.27841 0
M  V30 6641 C 621.028 -3.00287 4.2441 0
M  V30 6642 C 618.713 -3.41198 3.68632 0
M  V30 6643 C 620.707 -3.04896 5.59747 0
M  V30 6644 C 618.394 -3.4544 5.04097 0
M  V30 6645 C 619.392 -3.27309 5.99465 0
M  V30 6646 O 619.08 -3.31295 7.32461 0
M  V30 6647 H 618.812 -0.539366 0.407505 0
M  V30 6648 H 621.366 -1.16446 1.69202 0
M  V30 6649 H 619.596 -3.67308 1.20919 0
M  V30 6650 H 621.285 -3.7193 1.6255 0
M  V30 6651 H 622.051 -2.825 3.94232 0
M  V30 6652 H 617.93 -3.54359 2.94873 0
M  V30 6653 H 621.474 -2.90662 6.34162 0
M  V30 6654 H 617.371 -3.62753 5.33929 0
M  V30 6655 H 618.139 -3.47719 7.40968 0
M  V30 6656 N 620.802 -1.09834 -1.13024 0
M  V30 6657 C 622.05 -0.835297 -1.8403 0
M  V30 6658 C 622.371 0.640944 -1.84165 0
M  V30 6659 O 621.641 1.46517 -1.30037 0
M  V30 6660 H 620.221 -0.306018 -0.681441 0
M  V30 6661 H 622.883 -1.38734 -1.36891 0
M  V30 6662 H 621.979 -1.19258 -2.88416 0
M  V30 6663 N 622.28 1.30327 -0.886154 0
M  V30 6664 C 623.696 1.48676 -0.580323 0
M  V30 6665 C 623.896 1.81189 0.881639 0
M  V30 6666 O 622.952 1.90021 1.66278 0
M  V30 6667 C 624.265 2.60932 -1.49449 0
M  V30 6668 C 625.813 2.74812 -1.49824 0
M  V30 6669 C 626.288 3.90183 -2.39836 0
M  V30 6670 N 627.779 3.97495 -2.37806 0
M  V30 6671 C 628.514 4.86078 -3.04165 0
M  V30 6672 N 628.01 5.79448 -3.79753 0
M  V30 6673 N 629.803 4.79456 -2.93391 0
M  V30 6674 H 621.954 1.07495 -1.8319 0
M  V30 6675 H 624.217 0.532661 -0.784204 0
M  V30 6676 H 623.923 2.43731 -2.5355 0
M  V30 6677 H 623.797 3.57437 -1.20494 0
M  V30 6678 H 626.184 2.91418 -0.464731 0
M  V30 6679 H 626.265 1.78924 -1.82811 0
M  V30 6680 H 625.909 3.74334 -3.43273 0
M  V30 6681 H 625.839 4.85411 -2.04166 0
M  V30 6682 H 628.33 3.30703 -1.82877 0
M  V30 6683 H 628.643 6.43805 -4.27475 0
M  V30 6684 H 626.988 5.79376 -3.8386 0
M  V30 6685 H 630.179 4.05494 -2.33864 0
M  V30 6686 H 630.352 5.48283 -3.45383 0
M  V30 6687 N 623.758 0.647228 1.43697 0
M  V30 6688 C 624.721 -0.0385101 2.29168 0
M  V30 6689 C 625.721 -0.756487 1.41894 0
M  V30 6690 O 626.911 -0.598641 1.63591 0
M  V30 6691 C 624.043 -1.06524 3.23829 0
M  V30 6692 H 625.236 0.713445 2.9129 0
M  V30 6693 H 622.789 0.408153 1.50877 0
M  V30 6694 H 623.524 -1.84664 2.66589 0
M  V30 6695 H 623.309 -0.554147 3.88164 0
M  V30 6696 H 624.799 -1.54432 3.87996 0
M  V30 6697 N 625.236 -1.5273 0.388769 0
M  V30 6698 C 626.647 -1.86505 -0.0853788 0
M  V30 6699 C 626.998 -1.30847 -1.46197 0
M  V30 6700 O 626.123 -0.639609 -2.06732 0
M  V30 6701 C 626.718 -3.38414 -0.161703 0
M  V30 6702 C 625.277 -3.71902 -0.580144 0
M  V30 6703 C 624.424 -2.76095 0.258218 0
M  V30 6704 H 627.375 -1.46647 0.606665 0
M  V30 6705 H 627.396 -3.67638 -0.980936 0
M  V30 6706 H 626.908 -3.78893 0.840333 0
M  V30 6707 H 625.009 -3.36992 -1.58957 0
M  V30 6708 H 625.122 -4.77902 -0.338663 0
M  V30 6709 H 623.486 -2.53195 -0.276432 0
M  V30 6710 H 624.269 -3.19411 1.25822 0
M  V30 6711 N 626.714 -0.118576 -1.57153 0
M  V30 6712 C 627.944 0.546466 -1.99242 0
M  V30 6713 C 628.352 1.60791 -0.997148 0
M  V30 6714 O 627.695 1.83691 0.0181745 0
M  V30 6715 C 627.757 1.23167 -3.37743 0
M  V30 6716 C 627.421 0.318226 -4.55891 0
M  V30 6717 C 628.418 -0.442988 -5.18009 0
M  V30 6718 C 626.103 0.229421 -5.01776 0
M  V30 6719 C 628.097 -1.28074 -6.244 0
M  V30 6720 C 625.784 -0.611966 -6.08028 0
M  V30 6721 C 626.782 -1.36568 -6.69207 0
M  V30 6722 O 626.47 -2.1931 -7.73407 0
M  V30 6723 H 626.202 0.149297 -0.659307 0
M  V30 6724 H 628.756 -0.201603 -2.04408 0
M  V30 6725 H 626.986 2.0268 -3.29329 0
M  V30 6726 H 628.675 1.79358 -3.64123 0
M  V30 6727 H 629.441 -0.38425 -4.83475 0
M  V30 6728 H 625.32 0.805771 -4.53903 0
M  V30 6729 H 628.864 -1.86952 -6.72082 0
M  V30 6730 H 624.761 -0.6721 -6.41991 0
M  V30 6731 H 625.529 -2.12247 -7.90502 0
M  V30 6732 N 628.193 1.56834 0.155195 0
M  V30 6733 C 629.604 1.72421 0.716082 0
M  V30 6734 C 629.955 0.731685 1.82046 0
M  V30 6735 O 629.08 -0.103481 2.16152 0
M  V30 6736 C 629.675 3.12629 1.30571 0
M  V30 6737 C 628.234 3.29846 1.81325 0
M  V30 6738 C 627.381 2.68359 0.698494 0
M  V30 6739 H 630.332 1.58544 -0.0703861 0
M  V30 6740 H 630.353 3.12174 2.1755 0
M  V30 6741 H 629.865 3.84844 0.501701 0
M  V30 6742 H 627.966 2.62614 2.64319 0
M  V30 6743 H 628.079 4.37727 1.9476 0
M  V30 6744 H 626.443 2.28604 1.12305 0
M  V30 6745 H 627.226 3.43171 -0.0939366 0
M  V30 6746 N 629.671 -0.424282 1.51781 0
M  V30 6747 C 630.618 -1.51591 1.74037 0
M  V30 6748 C 631.588 -1.55556 0.582358 0
M  V30 6749 O 632.773 -1.72364 0.818245 0
M  V30 6750 C 629.913 -2.89188 1.8832 0
M  V30 6751 C 629.026 -2.9465 3.1592 0
M  V30 6752 C 628.161 -4.23452 3.20721 0
M  V30 6753 C 627.2 -4.22831 4.42584 0
M  V30 6754 N 626.337 -5.43178 4.44862 0
M  V30 6755 H 631.177 -1.31917 2.67212 0
M  V30 6756 H 628.714 -0.640599 1.32419 0
M  V30 6757 H 630.672 -3.69044 1.94583 0
M  V30 6758 H 629.302 -3.07392 0.985402 0
M  V30 6759 H 628.354 -2.07378 3.18902 0
M  V30 6760 H 629.666 -2.90055 4.05795 0
M  V30 6761 H 628.82 -5.1169 3.25973 0
M  V30 6762 H 627.559 -4.30722 2.28757 0
M  V30 6763 H 626.564 -3.32984 4.37495 0
M  V30 6764 H 627.789 -4.17213 5.35826 0
M  V30 6765 H 625.735 -5.51145 3.55775 0
M  V30 6766 H 625.652 -5.40515 5.28563 0
M  V30 6767 H 626.92 -6.33412 4.54324 0
M  V30 6768 N 631.149 -1.42148 -0.680565 0
M  V30 6769 C 632.082 -1.39602 -1.80517 0
M  V30 6770 C 633.06 -0.261098 -1.6049 0
M  V30 6771 O 634.244 -0.450404 -1.8304 0
M  V30 6772 C 631.371 -1.18134 -3.1743 0
M  V30 6773 C 630.417 -2.34543 -3.56219 0
M  V30 6774 S 631.25 -3.97063 -3.59306 0
M  V30 6775 C 632.406 -3.77926 -4.98921 0
M  V30 6776 H 632.639 -2.3477 -1.82402 0
M  V30 6777 H 630.172 -1.28851 -0.850691 0
M  V30 6778 H 632.13 -1.06434 -3.96462 0
M  V30 6779 H 630.791 -0.245611 -3.13138 0
M  V30 6780 H 629.984 -2.15255 -4.55721 0
M  V30 6781 H 629.586 -2.42728 -2.84533 0
M  V30 6782 H 631.878 -3.3856 -5.86842 0
M  V30 6783 H 632.821 -4.77084 -5.23256 0
M  V30 6784 H 633.229 -3.10904 -4.71167 0
M  V30 6785 N 632.627 0.916307 -1.28225 0
M  V30 6786 C 633.852 1.7043 -1.18188 0
M  V30 6787 C 634.277 1.86346 0.256274 0
M  V30 6788 O 633.635 1.37175 1.18544 0
M  V30 6789 C 633.683 3.07546 -1.88275 0
M  V30 6790 O 632.787 3.94904 -1.18848 0
M  V30 6791 H 632.128 0.521967 -0.410423 0
M  V30 6792 H 634.658 1.14589 -1.69501 0
M  V30 6793 H 634.668 3.57793 -1.96082 0
M  V30 6794 H 633.343 2.95279 -2.92887 0
M  V30 6795 H 631.92 3.53339 -1.19187 0
M  V30 6796 N 634.105 1.10431 1.1244 0
M  V30 6797 C 635.035 0.775143 2.20258 0
M  V30 6798 C 636.016 -0.25186 1.68225 0
M  V30 6799 O 637.201 -0.117637 1.93843 0
M  V30 6800 C 634.331 0.206133 3.46688 0
M  V30 6801 C 633.285 1.16382 4.11873 0
M  V30 6802 C 632.611 0.456014 5.32752 0
M  V30 6803 C 633.911 2.5104 4.58013 0
M  V30 6804 H 635.605 1.67665 2.4805 0
M  V30 6805 H 633.151 0.807595 1.19222 0
M  V30 6806 H 635.104 -0.036291 4.21384 0
M  V30 6807 H 633.828 -0.730614 3.18323 0
M  V30 6808 H 632.487 1.39169 3.39157 0
M  V30 6809 H 632.135 -0.485203 5.00654 0
M  V30 6810 H 631.835 1.09466 5.77314 0
M  V30 6811 H 633.359 0.222135 6.10196 0
M  V30 6812 H 634.773 2.32401 5.24083 0
M  V30 6813 H 633.17 3.10789 5.13352 0
M  V30 6814 H 634.24 3.11039 3.71998 0
M  V30 6815 N 635.583 -1.29855 0.893053 0
M  V30 6816 C 636.53 -2.27909 0.364161 0
M  V30 6817 C 637.5 -1.56726 -0.550093 0
M  V30 6818 O 638.685 -1.84747 -0.47677 0
M  V30 6819 C 635.825 -3.42678 -0.408178 0
M  V30 6820 C 634.938 -4.28659 0.536212 0
M  V30 6821 C 634.073 -5.30599 -0.252521 0
M  V30 6822 C 633.112 -6.08234 0.686822 0
M  V30 6823 N 632.249 -7.02068 -0.0670902 0
M  V30 6824 H 637.089 -2.72531 1.20544 0
M  V30 6825 H 634.626 -1.34047 0.605779 0
M  V30 6826 H 636.584 -4.07986 -0.871962 0
M  V30 6827 H 635.214 -2.99103 -1.21397 0
M  V30 6828 H 634.266 -3.63584 1.1185 0
M  V30 6829 H 635.578 -4.8274 1.25552 0
M  V30 6830 H 634.732 -6.01694 -0.777801 0
M  V30 6831 H 633.471 -4.77233 -1.005 0
M  V30 6832 H 632.476 -5.3601 1.22366 0
M  V30 6833 H 633.701 -6.63689 1.43852 0
M  V30 6834 H 631.647 -6.5108 -0.801955 0
M  V30 6835 H 631.564 -7.53675 0.59243 0
M  V30 6836 H 632.832 -7.77392 -0.572851 0
M  V30 6837 N 637.061 -0.65484 -1.43351 0
M  V30 6838 C 637.971 0.0363603 -2.34572 0
M  V30 6839 C 638.987 0.810432 -1.53974 0
M  V30 6840 O 640.163 0.757308 -1.86619 0
M  V30 6841 C 637.228 0.989733 -3.32273 0
M  V30 6842 C 636.289 0.212414 -4.28774 0
M  V30 6843 C 635.522 1.12038 -5.21808 0
M  V30 6844 O 635.745 2.35967 -5.19303 0
M  V30 6845 O 634.679 0.59191 -5.98982 0
M  V30 6846 H 638.505 -0.714527 -2.95175 0
M  V30 6847 H 636.09 -0.415029 -1.4352 0
M  V30 6848 H 637.972 1.53759 -3.92347 0
M  V30 6849 H 636.647 1.72082 -2.74171 0
M  V30 6850 H 635.554 -0.379062 -3.72175 0
M  V30 6851 H 636.887 -0.479138 -4.89862 0
M  V30 6852 N 638.539 1.52521 -0.396863 0
M  V30 6853 C 639.785 2.01971 0.183169 0
M  V30 6854 C 640.118 1.2825 1.45827 0
M  V30 6855 O 639.393 0.385179 1.90648 0
M  V30 6856 C 639.676 3.5736 0.443391 0
M  V30 6857 C 639.529 4.41743 -0.84753 0
M  V30 6858 C 640.848 4.22539 1.2308 0
M  V30 6859 H 637.967 0.734119 0.0650976 0
M  V30 6860 H 640.609 1.82519 -0.527918 0
M  V30 6861 H 638.759 3.74066 1.04914 0
M  V30 6862 H 640.431 4.36773 -1.48414 0
M  V30 6863 H 638.674 4.0845 -1.4612 0
M  V30 6864 H 639.345 5.48507 -0.620003 0
M  V30 6865 H 641.821 4.09857 0.718084 0
M  V30 6866 H 640.697 5.31227 1.38162 0
M  V30 6867 H 640.958 3.80675 2.24808 0
M  V30 6868 N 640.017 0.126909 1.57088 0
M  V30 6869 C 641.242 -0.53997 2.00248 0
M  V30 6870 C 641.667 -1.58927 1.00618 0
M  V30 6871 O 641.025 -1.81288 -0.0210131 0
M  V30 6872 C 641.073 -1.13565 3.4225 0
M  V30 6873 O 640.177 -2.25103 3.45547 0
M  V30 6874 H 639.518 -0.13412 0.650314 0
M  V30 6875 H 642.048 0.217718 2.03438 0
M  V30 6876 H 642.058 -1.46925 3.80627 0
M  V30 6877 H 640.733 -0.367122 4.14277 0
M  V30 6878 H 639.31 -1.93123 3.18995 0
M  V30 6879 N 641.495 -1.56914 -0.146875 0
M  V30 6880 C 642.405 -2.0154 -1.20079 0
M  V30 6881 C 643.421 -0.930838 -1.47008 0
M  V30 6882 O 644.597 -1.24032 -1.58676 0
M  V30 6883 C 641.662 -2.38715 -2.51428 0
M  V30 6884 C 640.723 -3.6112 -2.32145 0
M  V30 6885 C 639.956 -3.96512 -3.57231 0
M  V30 6886 O 640.179 -3.32566 -4.63418 0
M  V30 6887 O 639.113 -4.89758 -3.49887 0
M  V30 6888 H 642.939 -2.91506 -0.851924 0
M  V30 6889 H 640.524 -1.45106 -0.355607 0
M  V30 6890 H 642.406 -2.63485 -3.28867 0
M  V30 6891 H 641.081 -1.51903 -2.85845 0
M  V30 6892 H 639.988 -3.41536 -1.52656 0
M  V30 6893 H 641.321 -4.48549 -2.02644 0
M  V30 6894 N 642.974 0.416227 -1.52004 0
M  V30 6895 C 643.937 1.48926 -1.74223 0
M  V30 6896 C 644.937 1.48693 -0.612119 0
M  V30 6897 O 646.127 1.50343 -0.879921 0
M  V30 6898 C 643.259 2.88372 -1.81809 0
M  V30 6899 H 644.452 1.3052 -2.70008 0
M  V30 6900 H 642.005 0.646271 -1.42313 0
M  V30 6901 H 642.74 3.12157 -0.879135 0
M  V30 6902 H 642.525 2.89944 -2.6396 0
M  V30 6903 H 644.015 3.66173 -2.00766 0
M  V30 6904 N 644.452 1.42507 0.673017 0
M  V30 6905 C 645.698 1.43284 1.43519 0
M  V30 6906 C 646.031 0.049668 1.94136 0
M  V30 6907 O 645.306 -0.926369 1.71022 0
M  V30 6908 C 645.589 2.45874 2.63093 0
M  V30 6909 C 645.442 3.93388 2.18096 0
M  V30 6910 C 646.761 2.45431 3.6531 0
M  V30 6911 H 643.88 0.521752 0.520522 0
M  V30 6912 H 646.522 1.73932 0.764701 0
M  V30 6913 H 644.672 2.19869 3.20296 0
M  V30 6914 H 646.344 4.30379 1.66046 0
M  V30 6915 H 644.587 4.07169 1.49652 0
M  V30 6916 H 645.258 4.60752 3.03993 0
M  V30 6917 H 647.734 2.68561 3.17827 0
M  V30 6918 H 646.61 3.19189 4.46553 0
M  V30 6919 H 646.871 1.48092 4.16559 0
M  V30 6920 N 645.93 -0.909495 1.28709 0
M  V30 6921 C 646.84 -2.04558 1.14861 0
M  V30 6922 C 647.856 -1.73842 0.0741621 0
M  V30 6923 O 649.032 -1.99383 0.2843 0
M  V30 6924 C 646.097 -3.36957 0.816148 0
M  V30 6925 C 645.158 -3.81255 1.97341 0
M  V30 6926 C 644.391 -5.07335 1.65671 0
M  V30 6927 O 644.614 -5.67514 0.573053 0
M  V30 6928 O 643.548 -5.47449 2.50167 0
M  V30 6929 H 647.374 -2.19161 2.10243 0
M  V30 6930 H 644.959 -1.03159 1.08068 0
M  V30 6931 H 646.841 -4.16436 0.644873 0
M  V30 6932 H 645.516 -3.2352 -0.107983 0
M  V30 6933 H 644.423 -3.02584 2.19986 0
M  V30 6934 H 645.756 -3.99261 2.87839 0
M  V30 6935 N 647.408 -1.11026 -1.11852 0
M  V30 6936 C 648.355 -0.764662 -2.17765 0
M  V30 6937 C 649.325 0.261854 -1.64023 0
M  V30 6938 O 650.51 0.139748 -1.90288 0
M  V30 6939 C 647.65 -0.209317 -3.44465 0
M  V30 6940 C 646.763 -1.29187 -4.12231 0
M  V30 6941 C 645.898 -0.697523 -5.266 0
M  V30 6942 C 644.937 -1.76023 -5.86244 0
M  V30 6943 N 644.074 -1.18569 -6.92016 0
M  V30 6944 H 648.914 -1.67202 -2.46673 0
M  V30 6945 H 646.451 -0.835065 -1.21099 0
M  V30 6946 H 648.409 0.130599 -4.16996 0
M  V30 6947 H 647.039 0.661251 -3.15955 0
M  V30 6948 H 646.091 -1.74881 -3.37818 0
M  V30 6949 H 647.403 -2.09607 -4.52622 0
M  V30 6950 H 646.557 -0.307412 -6.05921 0
M  V30 6951 H 645.296 0.138044 -4.87505 0
M  V30 6952 H 644.301 -2.1597 -5.05606 0
M  V30 6953 H 645.526 -2.59875 -6.27409 0
M  V30 6954 H 643.472 -0.371695 -6.54946 0
M  V30 6955 H 643.389 -1.92666 -7.31038 0
M  V30 6956 H 644.657 -0.82233 -7.7515 0
M  V30 6957 N 648.886 1.2938 -0.899927 0
M  V30 6958 C 650.134 1.95164 -0.524924 0
M  V30 6959 C 650.455 1.71292 0.931888 0
M  V30 6960 O 649.725 1.04481 1.65712 0
M  V30 6961 H 648.305 0.722133 -0.191135 0
M  V30 6962 H 650.967 1.57628 -1.14627 0
M  V30 6963 H 650.063 3.0397 -0.707711 0
M  V30 6964 N 650.364 0.662433 1.43002 0
M  V30 6965 C 651.594 0.187343 2.05749 0
M  V30 6966 C 652.002 -1.15582 1.49791 0
M  V30 6967 O 651.345 -1.72651 0.627487 0
M  V30 6968 C 651.407 0.0316493 3.59486 0
M  V30 6969 C 651.071 1.30156 4.38073 0
M  V30 6970 C 652.068 2.23234 4.69535 0
M  V30 6971 C 649.753 1.54572 4.77926 0
M  V30 6972 C 651.747 3.39012 5.39768 0
M  V30 6973 C 649.434 2.70641 5.47902 0
M  V30 6974 C 650.432 3.62687 5.78746 0
M  V30 6975 O 650.12 4.76728 6.47291 0
M  V30 6976 H 649.852 0.0915214 0.669776 0
M  V30 6977 H 652.406 0.905982 1.8434 0
M  V30 6978 H 650.636 -0.742451 3.79506 0
M  V30 6979 H 652.325 -0.401977 4.03905 0
M  V30 6980 H 653.091 2.05616 4.39257 0
M  V30 6981 H 648.97 0.83804 4.53319 0
M  V30 6982 H 652.514 4.10877 5.63761 0
M  V30 6983 H 648.411 2.88189 5.77596 0
M  V30 6984 H 649.179 4.76113 6.65777 0
M  V30 6985 N 651.842 -1.52309 0.404946 0
M  V30 6986 C 653.258 -1.59503 0.0556255 0
M  V30 6987 C 653.458 -1.41805 -1.43156 0
M  V30 6988 O 652.514 -1.2429 -2.19792 0
M  V30 6989 C 653.827 -2.95687 0.546801 0
M  V30 6990 C 655.375 -3.08909 0.504413 0
M  V30 6991 C 655.85 -4.47566 0.97203 0
M  V30 6992 N 657.341 -4.53795 0.928679 0
M  V30 6993 C 658.076 -5.59346 1.26174 0
M  V30 6994 N 657.572 -6.72469 1.66604 0
M  V30 6995 N 659.365 -5.49532 1.18198 0
M  V30 6996 H 651.516 -1.6206 1.37296 0
M  V30 6997 H 653.779 -0.762161 0.563751 0
M  V30 6998 H 653.485 -3.13905 1.58609 0
M  V30 6999 H 653.359 -3.77172 -0.0457905 0
M  V30 7000 H 655.746 -2.90378 -0.525819 0
M  V30 7001 H 655.827 -2.2934 1.13301 0
M  V30 7002 H 655.471 -4.6684 2.00057 0
M  V30 7003 H 655.401 -5.25625 0.320292 0
M  V30 7004 H 657.892 -3.72588 0.631369 0
M  V30 7005 H 658.205 -7.48993 1.9034 0
M  V30 7006 H 656.55 -6.73761 1.70504 0
M  V30 7007 H 659.741 -4.60038 0.865011 0
M  V30 7008 H 659.914 -6.31687 1.44485 0
M  V30 7009 N 653.32 -0.135238 -1.57019 0
M  V30 7010 C 654.253 0.846618 -2.11914 0
M  V30 7011 C 655.231 1.25019 -1.03966 0
M  V30 7012 O 656.415 1.34838 -1.31723 0
M  V30 7013 C 653.542 2.1352 -2.6292 0
M  V30 7014 C 652.588 1.87846 -3.82905 0
M  V30 7015 S 653.421 1.08005 -5.24495 0
M  V30 7016 C 654.577 2.38008 -5.78881 0
M  V30 7017 H 654.81 0.379752 -2.94865 0
M  V30 7018 H 652.343 0.0788387 -1.54199 0
M  V30 7019 H 654.301 2.87551 -2.92958 0
M  V30 7020 H 652.962 2.57323 -1.80121 0
M  V30 7021 H 652.155 2.83365 -4.16797 0
M  V30 7022 H 651.757 1.21929 -3.53567 0
M  V30 7023 H 654.049 3.33742 -5.89595 0
M  V30 7024 H 654.992 2.08638 -6.76665 0
M  V30 7025 H 655.4 2.48119 -5.07048 0
M  V30 7026 N 654.798 1.5699 0.138552 0
M  V30 7027 C 655.708 2.02174 1.19008 0
M  V30 7028 C 656.724 0.938622 1.46512 0
M  V30 7029 O 657.9 1.24872 1.58016 0
M  V30 7030 C 654.965 2.40045 2.50159 0
M  V30 7031 C 654.026 3.62346 2.30226 0
M  V30 7032 C 653.259 3.98401 3.55123 0
M  V30 7033 O 653.482 3.35019 4.61647 0
M  V30 7034 O 652.416 4.91606 3.47285 0
M  V30 7035 H 656.242 2.91954 0.836452 0
M  V30 7036 H 653.827 1.45293 0.347907 0
M  V30 7037 H 655.709 2.65225 3.27465 0
M  V30 7038 H 654.384 1.53417 2.85035 0
M  V30 7039 H 653.291 3.42341 1.50843 0
M  V30 7040 H 654.624 4.49617 2.00262 0
M  V30 7041 N 656.276 -0.40816 1.52223 0
M  V30 7042 C 657.687 -0.986929 1.58482 0
M  V30 7043 C 658.038 -1.91521 0.425917 0
M  V30 7044 O 657.163 -2.11593 -0.453593 0
M  V30 7045 C 657.758 -1.7967 2.87235 0
M  V30 7046 C 656.317 -2.32549 2.9597 0
M  V30 7047 C 655.464 -1.12558 2.53428 0
M  V30 7048 H 658.415 -0.188362 1.57578 0
M  V30 7049 H 658.436 -2.65417 2.72642 0
M  V30 7050 H 657.948 -1.12082 3.71563 0
M  V30 7051 H 656.049 -3.03505 2.16137 0
M  V30 7052 H 656.162 -2.63348 4.00231 0
M  V30 7053 H 654.526 -1.47984 2.07299 0
M  V30 7054 H 655.309 -0.465351 3.40131 0
M  V30 7055 N 657.755 -1.42862 -0.66545 0
M  V30 7056 C 659.166 -1.3901 -1.24632 0
M  V30 7057 C 659.517 -0.0880285 -1.96002 0
M  V30 7058 O 658.642 0.812947 -2.0055 0
M  V30 7059 C 659.237 -2.51806 -2.2667 0
M  V30 7060 C 657.796 -2.51257 -2.80262 0
M  V30 7061 C 656.943 -2.30124 -1.5472 0
M  V30 7062 H 659.894 -1.5194 -0.458237 0
M  V30 7063 H 659.915 -2.22593 -3.08598 0
M  V30 7064 H 659.427 -3.46558 -1.74697 0
M  V30 7065 H 657.528 -1.60349 -3.36332 0
M  V30 7066 H 657.641 -3.48614 -3.28641 0
M  V30 7067 H 656.005 -1.7856 -1.81627 0
M  V30 7068 H 656.788 -3.26945 -1.04699 0
M  V30 7069 N 659.233 0.902656 -1.29189 0
M  V30 7070 C 660.143 2.03946 -1.15944 0
M  V30 7071 C 661.159 1.738 -0.0833803 0
M  V30 7072 O 662.335 1.9923 -0.29487 0
M  V30 7073 C 659.4 3.36519 -0.834006 0
M  V30 7074 C 658.461 3.80203 -1.9936 0
M  V30 7075 C 657.694 5.06449 -1.68359 0
M  V30 7076 O 657.917 5.67202 -0.603141 0
M  V30 7077 O 656.851 5.46114 -2.53067 0
M  V30 7078 H 660.677 2.18043 -2.11403 0
M  V30 7079 H 658.262 1.02584 -1.08613 0
M  V30 7080 H 660.144 4.16089 -0.666949 0
M  V30 7081 H 658.819 3.23573 0.0908245 0
M  V30 7082 H 657.726 3.01413 -2.21588 0
M  V30 7083 H 659.059 3.97729 -2.89952 0
M  V30 7084 N 660.711 1.11618 1.11262 0
M  V30 7085 C 661.959 0.864469 1.82678 0
M  V30 7086 C 662.28 -0.611564 1.85162 0
M  V30 7087 O 661.55 -1.44429 1.32352 0
M  V30 7088 H 660.13 0.316821 0.676486 0
M  V30 7089 H 662.792 1.40894 1.34666 0
M  V30 7090 H 661.888 1.23832 2.86482 0
M  V30 7091 N 662.189 -1.289 0.906776 0
M  V30 7092 C 663.429 -1.97046 0.543329 0
M  V30 7093 C 663.793 -1.69862 -0.895034 0
M  V30 7094 O 664.994 -2.31521 -1.36571 0
M  V30 7095 C 663.265 -3.47489 0.835833 0
M  V30 7096 S 664.824 -4.3498 0.577756 0
M  V30 7097 H 661.642 -0.681908 0.201302 0
M  V30 7098 H 664.244 -1.5657 1.17073 0
M  V30 7099 H 662.948 -3.64768 1.88075 0
M  V30 7100 H 662.479 -3.92907 0.196817 0
M  V30 7101 H 664.494 -4.92868 -0.574052 0
M  V30 7102 N 663.667 -0.670007 -1.42649 0
M  V30 7103 C 665.078 -0.268118 -1.84765 0
M  V30 7104 C 665.429 1.18877 -1.56086 0
M  V30 7105 O 664.554 1.90947 -1.01825 0
M  V30 7106 C 665.149 -0.47984 -3.35385 0
M  V30 7107 C 663.708 -0.132116 -3.76168 0
M  V30 7108 C 662.855 -0.774611 -2.66261 0
M  V30 7109 H 665.806 -0.872509 -1.32563 0
M  V30 7110 H 665.827 0.269522 -3.79544 0
M  V30 7111 H 665.339 -1.54026 -3.56227 0
M  V30 7112 H 663.44 0.92505 -3.60934 0
M  V30 7113 H 663.553 -0.569294 -4.75706 0
M  V30 7114 H 661.917 -0.206353 -2.53863 0
M  V30 7115 H 662.7 -1.83839 -2.89928 0
M  V30 7116 N 665.145 1.52092 -0.413018 0
M  V30 7117 C 666.393 2.01456 0.161178 0
M  V30 7118 C 666.714 1.30034 1.45314 0
M  V30 7119 O 665.984 0.427435 1.9118 0
M  V30 7120 H 664.564 0.744376 0.0625526 0
M  V30 7121 H 667.226 1.86974 -0.550151 0
M  V30 7122 H 666.322 3.1008 0.354517 0
M  V30 7123 N 666.623 0.143563 1.56945 0
M  V30 7124 C 668.034 -0.37783 1.82837 0
M  V30 7125 C 668.385 -1.64967 1.06209 0
M  V30 7126 O 667.51 -2.14221 0.306291 0
M  V30 7127 C 668.105 -0.692274 3.31652 0
M  V30 7128 C 666.664 -1.1582 3.58138 0
M  V30 7129 C 665.811 -0.17951 2.76718 0
M  V30 7130 H 668.762 0.368317 1.54367 0
M  V30 7131 H 668.783 -1.54729 3.47619 0
M  V30 7132 H 668.295 0.233572 3.87397 0
M  V30 7133 H 666.396 -2.10011 3.07776 0
M  V30 7134 H 666.509 -1.08655 4.66616 0
M  V30 7135 H 664.873 -0.671458 2.4569 0
M  V30 7136 H 665.656 0.739865 3.35233 0
M  V30 7137 N 668.101 -1.57061 -0.130224 0
M  V30 7138 C 669.347 -1.8453 -0.841216 0
M  V30 7139 C 669.68 -0.727666 -1.80052 0
M  V30 7140 O 668.955 0.267419 -1.92653 0
M  V30 7141 C 669.238 -3.22553 -1.60099 0
M  V30 7142 C 669.091 -4.44901 -0.662048 0
M  V30 7143 C 670.41 -3.58003 -2.55973 0
M  V30 7144 H 667.529 -0.671215 -0.304366 0
M  V30 7145 H 670.171 -1.89705 -0.105821 0
M  V30 7146 H 668.321 -3.18272 -2.22789 0
M  V30 7147 H 669.993 -4.61278 -0.0448559 0
M  V30 7148 H 668.236 -4.33791 0.0272253 0
M  V30 7149 H 668.907 -5.3812 -1.23006 0
M  V30 7150 H 671.383 -3.63002 -2.03393 0
M  V30 7151 H 670.259 -4.55576 -3.06172 0
M  V30 7152 H 670.52 -2.84833 -3.38116 0
M  V30 7153 N 669.579 0.400081 -1.52437 0
M  V30 7154 C 670.529 1.48734 -1.72807 0
M  V30 7155 C 671.513 1.50004 -0.582032 0
M  V30 7156 O 672.705 1.55828 -0.839449 0
M  V30 7157 C 669.834 2.86568 -1.89034 0
M  V30 7158 C 668.92 2.8991 -3.09537 0
M  V30 7159 N 669.311 2.62937 -4.32086 0
M  V30 7160 C 667.609 3.21078 -3.09556 0
M  V30 7161 C 668.31 2.73079 -5.13617 0
M  V30 7162 N 667.286 3.06342 -4.49061 0
M  V30 7163 H 671.088 1.26689 -2.65193 0
M  V30 7164 H 668.602 0.607902 -1.50593 0
M  V30 7165 H 670.599 3.64834 -2.01746 0
M  V30 7166 H 669.259 3.09604 -0.978547 0
M  V30 7167 H 670.27 2.37163 -4.60406 0
M  V30 7168 H 666.947 3.49651 -2.28146 0
M  V30 7169 H 668.337 2.55863 -6.21276 0
M  V30 7170 N 671.057 1.43213 0.657864 0
M  V30 7171 C 672.303 1.44798 1.41991 0
M  V30 7172 C 672.636 0.070256 1.94073 0
M  V30 7173 O 671.911 -0.908177 1.71995 0
M  V30 7174 C 672.194 2.4865 2.60471 0
M  V30 7175 C 672.047 3.95679 2.13911 0
M  V30 7176 C 673.366 2.49292 3.62686 0
M  V30 7177 H 670.485 0.527244 0.514959 0
M  V30 7178 H 673.127 1.74733 0.74621 0
M  V30 7179 H 671.277 2.23254 3.17946 0
M  V30 7180 H 672.949 4.32116 1.61472 0
M  V30 7181 H 671.192 4.08733 1.45325 0
M  V30 7182 H 671.863 4.6395 2.99089 0
M  V30 7183 H 674.339 2.71917 3.14961 0
M  V30 7184 H 673.215 3.23907 4.43143 0
M  V30 7185 H 673.476 1.52502 4.14964 0
M  V30 7186 N 672.536 -0.895792 1.29666 0
M  V30 7187 C 673.466 -2.01673 1.17688 0
M  V30 7188 C 674.447 -1.69955 0.0701317 0
M  V30 7189 O 675.632 -1.9258 0.250289 0
M  V30 7190 C 672.762 -3.36568 0.856681 0
M  V30 7191 C 671.716 -3.82509 1.92017 0
M  V30 7192 C 671.042 -5.14574 1.4532 0
M  V30 7193 C 672.342 -4.02409 3.32963 0
M  V30 7194 H 674.036 -2.11953 2.11463 0
M  V30 7195 H 671.582 -1.01839 1.01807 0
M  V30 7196 H 673.535 -4.14498 0.759577 0
M  V30 7197 H 672.259 -3.26391 -0.116763 0
M  V30 7198 H 670.918 -3.068 2.00673 0
M  V30 7199 H 670.566 -5.00815 0.468325 0
M  V30 7200 H 670.266 -5.46283 2.16447 0
M  V30 7201 H 671.79 -5.9504 1.36968 0
M  V30 7202 H 673.204 -4.70808 3.27127 0
M  V30 7203 H 671.601 -4.45478 4.02082 0
M  V30 7204 H 672.671 -3.06616 3.75652 0
M  V30 7205 N 674.014 -1.12206 -1.10668 0
M  V30 7206 C 674.947 -0.731468 -2.16159 0
M  V30 7207 C 675.925 0.276216 -1.60237 0
M  V30 7208 O 677.109 0.17074 -1.87725 0
M  V30 7209 C 674.236 -0.0822882 -3.386 0
M  V30 7210 C 673.282 -1.05641 -4.1321 0
M  V30 7211 S 674.115 -2.58281 -4.69096 0
M  V30 7212 C 675.271 -1.94686 -5.94851 0
M  V30 7213 H 675.504 -1.62504 -2.48957 0
M  V30 7214 H 673.037 -0.940906 -1.22419 0
M  V30 7215 H 674.995 0.285896 -4.09503 0
M  V30 7216 H 673.656 0.788358 -3.04046 0
M  V30 7217 H 672.849 -0.549764 -5.00993 0
M  V30 7218 H 672.451 -1.36741 -3.48106 0
M  V30 7219 H 674.743 -1.28815 -6.65141 0
M  V30 7220 H 675.686 -2.80499 -6.50174 0
M  V30 7221 H 676.094 -1.40369 -5.46769 0
M  V30 7222 N 675.492 1.28418 -0.913599 0
M  V30 7223 C 676.717 1.99643 -0.561899 0
M  V30 7224 C 677.142 1.67819 0.849608 0
M  V30 7225 O 676.5 0.910503 1.56779 0
M  V30 7226 C 676.548 3.52116 -0.777622 0
M  V30 7227 O 675.652 4.12076 0.163457 0
M  V30 7228 H 674.993 0.627229 -0.217898 0
M  V30 7229 H 677.523 1.63575 -1.229 0
M  V30 7230 H 677.533 4.02163 -0.687666 0
M  V30 7231 H 676.208 3.74613 -1.8066 0
M  V30 7232 H 674.785 3.72892 0.0247827 0
M  V30 7233 N 676.97 0.677563 1.42291 0
M  V30 7234 C 678.195 0.207901 2.06355 0
M  V30 7235 C 678.62 -1.12723 1.50583 0
M  V30 7236 O 677.978 -1.70171 0.62543 0
M  V30 7237 C 678.026 0.156489 3.6026 0
M  V30 7238 O 677.13 -0.874162 4.03029 0
M  V30 7239 H 676.471 0.106056 0.655475 0
M  V30 7240 H 679.001 0.927354 1.82377 0
M  V30 7241 H 679.011 -0.0187258 4.07996 0
M  V30 7242 H 677.686 1.13101 4.00226 0
M  V30 7243 H 676.263 -0.669764 3.66836 0
M  V30 7244 N 678.448 -1.51871 0.421078 0
M  V30 7245 C 679.688 -2.03848 -0.150167 0
M  V30 7246 C 680.052 -1.29925 -1.41363 0
M  V30 7247 O 681.253 -1.7219 -2.06408 0
M  V30 7248 C 679.524 -3.55374 -0.38003 0
M  V30 7249 S 681.083 -4.29111 -0.917011 0
M  V30 7250 H 677.901 -0.709904 -0.0394639 0
M  V30 7251 H 680.503 -1.86799 0.576746 0
M  V30 7252 H 679.207 -4.0675 0.546122 0
M  V30 7253 H 678.738 -3.76687 -1.13448 0
M  V30 7254 H 680.753 -4.44944 -2.19635 0
M  V30 7255 N 679.926 -0.151884 -1.56866 0
M  V30 7256 C 681.172 0.492327 -1.97352 0
M  V30 7257 C 681.527 1.62156 -1.03553 0
M  V30 7258 O 680.82 1.91467 -0.0714872 0
M  V30 7259 C 681.014 1.04074 -3.41911 0
M  V30 7260 C 680.843 -0.0338306 -4.49687 0
M  V30 7261 C 679.613 -0.476914 -5.03044 0
M  V30 7262 C 681.811 -0.827105 -5.07606 0
M  V30 7263 N 679.793 -1.53382 -5.9443 0
M  V30 7264 C 681.164 -1.73439 -5.95247 0
M  V30 7265 C 683.219 -0.874351 -4.90163 0
M  V30 7266 C 681.922 -2.68488 -6.67313 0
M  V30 7267 C 683.948 -1.81269 -5.62935 0
M  V30 7268 C 683.31 -2.70749 -6.50288 0
M  V30 7269 H 679.409 0.148822 -0.767708 0
M  V30 7270 H 681.993 -0.247615 -1.93119 0
M  V30 7271 H 680.164 1.75027 -3.46728 0
M  V30 7272 H 681.896 1.65197 -3.69448 0
M  V30 7273 H 678.651 -0.0782493 -4.73535 0
M  V30 7274 H 679.075 -2.06217 -6.44828 0
M  V30 7275 H 683.717 -0.196628 -4.22343 0
M  V30 7276 H 681.435 -3.37257 -7.34359 0
M  V30 7277 H 685.021 -1.85511 -5.51432 0
M  V30 7278 H 683.901 -3.42175 -7.0561 0
M  V30 7279 N 681.404 1.57128 0.121893 0
M  V30 7280 C 682.314 2.03425 1.16857 0
M  V30 7281 C 683.33 0.954108 1.45509 0
M  V30 7282 O 684.506 1.26541 1.56682 0
M  V30 7283 C 681.571 2.42685 2.47599 0
M  V30 7284 C 680.632 3.64767 2.2637 0
M  V30 7285 C 679.865 4.02145 3.50878 0
M  V30 7286 O 680.088 3.39897 4.58068 0
M  V30 7287 O 679.022 4.95262 3.42051 0
M  V30 7288 H 682.848 2.92825 0.80544 0
M  V30 7289 H 680.433 1.45654 0.332477 0
M  V30 7290 H 682.315 2.68684 3.24634 0
M  V30 7291 H 680.99 1.56432 2.83392 0
M  V30 7292 H 679.897 3.43922 1.47203 0
M  V30 7293 H 681.23 4.51716 1.95482 0
M  V30 7294 N 682.882 -0.391992 1.52647 0
M  V30 7295 C 683.845 -1.46135 1.7657 0
M  V30 7296 C 684.845 -1.47701 0.635698 0
M  V30 7297 O 686.035 -1.48924 0.903728 0
M  V30 7298 C 683.167 -2.85443 1.86374 0
M  V30 7299 H 684.36 -1.26208 2.72051 0
M  V30 7300 H 681.913 -0.623549 1.43323 0
M  V30 7301 H 682.648 -3.10718 0.928685 0
M  V30 7302 H 682.433 -2.85708 2.68539 0
M  V30 7303 H 683.923 -3.62933 2.06566 0
M  V30 7304 N 684.36 -1.4356 -0.65026 0
M  V30 7305 C 685.27 -1.514 -1.79207 0
M  V30 7306 C 686.286 -0.400895 -1.69319 0
M  V30 7307 O 687.462 -0.655458 -1.90436 0
M  V30 7308 C 684.527 -1.43737 -3.155 0
M  V30 7309 C 683.588 -2.65743 -3.37163 0
M  V30 7310 C 682.821 -2.58436 -4.66954 0
M  V30 7311 O 683.044 -1.63374 -5.46503 0
M  V30 7312 O 681.978 -3.48984 -4.90402 0
M  V30 7313 H 685.804 -2.47825 -1.75547 0
M  V30 7314 H 683.389 -1.25594 -0.809111 0
M  V30 7315 H 685.271 -1.41916 -3.96784 0
M  V30 7316 H 683.946 -0.504488 -3.19745 0
M  V30 7317 H 682.853 -2.73136 -2.55632 0
M  V30 7318 H 684.186 -3.58014 -3.37768 0
M  V30 7319 N 685.838 0.888903 -1.30139 0
M  V30 7320 C 687.249 1.45578 -1.16893 0
M  V30 7321 C 687.6 1.94825 0.231866 0
M  V30 7322 O 686.725 1.84661 1.12824 0
M  V30 7323 C 687.32 2.646 -2.11595 0
M  V30 7324 C 685.879 3.17389 -2.02339 0
M  V30 7325 C 685.026 1.90081 -2.01902 0
M  V30 7326 H 687.977 0.69921 -1.42467 0
M  V30 7327 H 687.998 3.40687 -1.69449 0
M  V30 7328 H 687.51 2.28726 -3.13538 0
M  V30 7329 H 685.611 3.5793 -1.03523 0
M  V30 7330 H 685.724 3.80955 -2.90534 0
M  V30 7331 H 684.088 2.08246 -1.46648 0
M  V30 7332 H 684.871 1.5647 -3.05568 0
M  V30 7333 N 687.317 1.12792 1.10072 0
M  V30 7334 C 688.28 0.802264 2.14701 0
M  V30 7335 C 689.28 -0.18515 1.59731 0
M  V30 7336 O 690.47 0.041109 1.74151 0
M  V30 7337 C 687.602 0.19285 3.40354 0
M  V30 7338 H 688.795 1.72932 2.45019 0
M  V30 7339 H 686.348 0.931662 1.25498 0
M  V30 7340 H 687.083 -0.743748 3.15656 0
M  V30 7341 H 686.868 0.903827 3.81541 0
M  V30 7342 H 688.358 -0.0183704 4.17596 0
M  V30 7343 N 688.795 -1.27931 0.920396 0
M  V30 7344 C 690.211 -1.47085 0.619537 0
M  V30 7345 C 690.411 -1.83463 -0.833291 0
M  V30 7346 O 689.467 -1.94363 -1.61181 0
M  V30 7347 C 690.78 -2.56878 1.56314 0
M  V30 7348 C 692.328 -2.70743 1.57058 0
M  V30 7349 C 692.803 -3.83687 2.50097 0
M  V30 7350 N 694.294 -3.9105 2.48262 0
M  V30 7351 C 695.029 -4.77842 3.16945 0
M  V30 7352 N 694.525 -5.69176 3.94982 0
M  V30 7353 N 696.318 -4.71509 3.06 0
M  V30 7354 H 688.469 -1.02601 1.85975 0
M  V30 7355 H 690.732 -0.511682 0.798051 0
M  V30 7356 H 690.438 -2.36923 2.59923 0
M  V30 7357 H 690.312 -3.54117 1.29928 0
M  V30 7358 H 692.699 -2.90083 0.541832 0
M  V30 7359 H 692.78 -1.74015 1.8749 0
M  V30 7360 H 692.424 -3.65101 3.53077 0
M  V30 7361 H 692.354 -4.79827 2.16964 0
M  V30 7362 H 694.845 -3.25738 1.91581 0
M  V30 7363 H 695.158 -6.32245 4.44394 0
M  V30 7364 H 693.503 -5.68995 3.99086 0
M  V30 7365 H 696.694 -3.99151 2.44533 0
M  V30 7366 H 696.867 -5.38933 3.59799 0
M  V30 7367 N 690.273 -0.685099 -1.4193 0
M  V30 7368 C 691.689 -0.355632 -1.55587 0
M  V30 7369 C 691.889 1.13823 -1.66273 0
M  V30 7370 O 690.945 1.92387 -1.63534 0
M  V30 7371 C 692.258 -1.09498 -2.80055 0
M  V30 7372 C 693.806 -1.07831 -2.93839 0
M  V30 7373 C 694.281 -1.79919 -4.21181 0
M  V30 7374 N 695.772 -1.76837 -4.28115 0
M  V30 7375 C 696.507 -2.29463 -5.25485 0
M  V30 7376 N 696.003 -2.90516 -6.28945 0
M  V30 7377 N 697.796 -2.19779 -5.17353 0
M  V30 7378 H 689.947 -1.65412 -1.33239 0
M  V30 7379 H 692.21 -0.697453 -0.642078 0
M  V30 7380 H 691.916 -2.14997 -2.78333 0
M  V30 7381 H 691.79 -0.666813 -3.71259 0
M  V30 7382 H 694.177 -0.0316152 -2.95083 0
M  V30 7383 H 694.258 -1.54545 -2.03837 0
M  V30 7384 H 693.902 -2.84562 -4.20698 0
M  V30 7385 H 693.832 -1.30647 -5.10136 0
M  V30 7386 H 696.323 -1.32315 -3.53979 0
M  V30 7387 H 696.636 -3.28266 -6.99615 0
M  V30 7388 H 694.981 -2.94589 -6.29478 0
M  V30 7389 H 698.172 -1.71763 -4.35448 0
M  V30 7390 H 698.345 -2.61097 -5.9307 0
M  V30 7391 N 691.751 1.51645 -0.429126 0
M  V30 7392 C 693.162 1.86665 0.0359003 0
M  V30 7393 C 693.513 1.34677 1.42676 0
M  V30 7394 O 692.638 0.694195 2.04963 0
M  V30 7395 C 693.233 3.38724 0.0719221 0
M  V30 7396 C 691.792 3.7331 0.481336 0
M  V30 7397 C 690.939 2.75313 -0.331329 0
M  V30 7398 H 693.89 1.44987 -0.645333 0
M  V30 7399 H 693.911 3.7011 0.883118 0
M  V30 7400 H 693.423 3.76532 -0.940495 0
M  V30 7401 H 691.524 3.41088 1.49966 0
M  V30 7402 H 691.637 4.78631 0.211837 0
M  V30 7403 H 690.001 2.53839 0.209204 0
M  V30 7404 H 690.784 3.15963 -1.34247 0
M  V30 7405 N 693.229 0.160201 1.56784 0
M  V30 7406 C 694.64 -0.358417 1.83227 0
M  V30 7407 C 694.991 -1.63831 1.07952 0
M  V30 7408 O 694.116 -2.13885 0.328995 0
M  V30 7409 C 694.711 -0.657058 3.32368 0
M  V30 7410 C 693.27 -1.12015 3.59346 0
M  V30 7411 C 692.417 -0.15015 2.76893 0
M  V30 7412 H 695.368 0.384669 1.53967 0
M  V30 7413 H 695.389 -1.51033 3.49241 0
M  V30 7414 H 694.901 0.274647 3.87127 0
M  V30 7415 H 693.002 -2.06734 3.09987 0
M  V30 7416 H 693.115 -1.037 4.67743 0
M  V30 7417 H 691.479 -0.645361 2.46388 0
M  V30 7418 H 692.262 0.775379 3.34429 0
M  V30 7419 N 694.707 -1.5719 -0.113559 0
M  V30 7420 C 695.954 -1.85138 -0.820382 0
M  V30 7421 C 696.282 -0.74608 -1.79622 0
M  V30 7422 O 695.537 0.262077 -1.93937 0
M  V30 7423 C 695.836 -3.19593 -1.59984 0
M  V30 7424 C 695.502 -4.44315 -0.767809 0
M  V30 7425 C 694.164 -4.78179 -0.538379 0
M  V30 7426 C 696.516 -5.2086 -0.188203 0
M  V30 7427 C 693.844 -5.86028 0.28082 0
M  V30 7428 C 696.196 -6.29572 0.618217 0
M  V30 7429 C 694.86 -6.61964 0.857912 0
M  V30 7430 H 694.13 -0.677467 -0.300199 0
M  V30 7431 H 696.777 -1.91322 -0.0825443 0
M  V30 7432 H 695.082 -3.0901 -2.40874 0
M  V30 7433 H 696.779 -3.3844 -2.1508 0
M  V30 7434 H 693.369 -4.17786 -0.956724 0
M  V30 7435 H 697.553 -4.95045 -0.352658 0
M  V30 7436 H 692.809 -6.09547 0.475693 0
M  V30 7437 H 696.983 -6.88064 1.0743 0
M  V30 7438 H 694.61 -7.45365 1.49451 0
M  V30 7439 N 696.185 0.383891 -1.52853 0
M  V30 7440 C 697.601 0.724316 -1.42218 0
M  V30 7441 C 697.801 1.93943 -0.546654 0
M  V30 7442 O 696.857 2.5249 -0.0220562 0
M  V30 7443 C 698.17 0.954635 -2.85144 0
M  V30 7444 C 699.718 1.05579 -2.94656 0
M  V30 7445 C 700.193 1.3187 -4.38605 0
M  V30 7446 N 701.684 1.38681 -4.41952 0
M  V30 7447 C 702.419 1.60699 -5.50421 0
M  V30 7448 N 701.915 1.80154 -6.68967 0
M  V30 7449 N 703.708 1.6292 -5.37972 0
M  V30 7450 H 695.859 -0.4156 -2.08294 0
M  V30 7451 H 698.122 -0.123776 -0.939885 0
M  V30 7452 H 697.828 0.133829 -3.51445 0
M  V30 7453 H 697.702 1.86788 -3.27704 0
M  V30 7454 H 700.089 1.86716 -2.2852 0
M  V30 7455 H 700.17 0.120338 -2.55517 0
M  V30 7456 H 699.814 0.512416 -5.05309 0
M  V30 7457 H 699.744 2.26708 -4.75301 0
M  V30 7458 H 702.235 1.25334 -3.56511 0
M  V30 7459 H 702.548 1.96476 -7.47407 0
M  V30 7460 H 700.893 1.77368 -6.71986 0
M  V30 7461 H 704.084 1.47276 -4.44328 0
M  V30 7462 H 704.257 1.79739 -6.22574 0
M  V30 7463 N 697.663 1.43903 0.642637 0
M  V30 7464 C 698.61 1.49881 1.75512 0
M  V30 7465 C 699.58 0.347538 1.62423 0
M  V30 7466 O 700.765 0.556177 1.82514 0
M  V30 7467 C 697.905 1.43797 3.13714 0
M  V30 7468 C 697.018 2.6921 3.37861 0
M  V30 7469 C 696.153 2.5504 4.6597 0
M  V30 7470 C 695.192 3.75671 4.83257 0
M  V30 7471 N 694.329 3.60247 6.02633 0
M  V30 7472 H 699.169 2.44935 1.69737 0
M  V30 7473 H 696.706 1.21572 0.828165 0
M  V30 7474 H 698.664 1.38262 3.93624 0
M  V30 7475 H 697.294 0.523173 3.18532 0
M  V30 7476 H 696.346 2.8498 2.51973 0
M  V30 7477 H 697.658 3.58786 3.46517 0
M  V30 7478 H 696.812 2.47273 5.54023 0
M  V30 7479 H 695.551 1.63006 4.59653 0
M  V30 7480 H 694.556 3.83836 3.93637 0
M  V30 7481 H 695.781 4.68728 4.91397 0
M  V30 7482 H 693.727 2.70955 5.97427 0
M  V30 7483 H 693.644 4.43431 6.12295 0
M  V30 7484 H 694.912 3.56351 6.93278 0
M  V30 7485 N 699.141 -0.881989 1.30609 0
M  V30 7486 C 700.071 -2.00413 1.1982 0
M  V30 7487 C 701.052 -1.69871 0.0881538 0
M  V30 7488 O 702.237 -1.92304 0.2707 0
M  V30 7489 C 699.367 -3.35641 0.89233 0
M  V30 7490 C 698.321 -3.80451 1.96064 0
M  V30 7491 C 697.647 -5.13003 1.5077 0
M  V30 7492 C 698.947 -3.98855 3.37213 0
M  V30 7493 H 700.641 -2.09698 2.13699 0
M  V30 7494 H 698.187 -1.00754 1.02882 0
M  V30 7495 H 700.14 -4.13669 0.803497 0
M  V30 7496 H 698.864 -3.26497 -0.0821381 0
M  V30 7497 H 697.523 -3.04654 2.03916 0
M  V30 7498 H 697.171 -5.0029 0.521417 0
M  V30 7499 H 696.871 -5.43956 2.22229 0
M  V30 7500 H 698.395 -5.93554 1.43271 0
M  V30 7501 H 699.809 -4.67312 3.32103 0
M  V30 7502 H 698.206 -4.41188 4.06784 0
M  V30 7503 H 699.276 -3.02614 3.78883 0
M  V30 7504 N 700.619 -1.13374 -1.09472 0
M  V30 7505 C 701.582 -0.813639 -2.14272 0
M  V30 7506 C 702.582 0.176677 -1.59826 0
M  V30 7507 O 703.772 -0.0503441 -1.74127 0
M  V30 7508 C 700.904 -0.210897 -3.40247 0
M  V30 7509 H 702.097 -1.74229 -2.44099 0
M  V30 7510 H 699.65 -0.938304 -1.25002 0
M  V30 7511 H 700.385 0.726998 -3.16046 0
M  V30 7512 H 700.17 -0.924048 -3.81056 0
M  V30 7513 H 701.66 -0.00377603 -4.176 0
M  V30 7514 N 702.098 1.27442 -0.927168 0
M  V30 7515 C 703.008 2.30599 -0.431448 0
M  V30 7516 C 704.024 1.67028 0.48761 0
M  V30 7517 O 705.2 1.97962 0.370546 0
M  V30 7518 C 702.265 3.45327 0.308292 0
M  V30 7519 C 701.326 4.24418 -0.645615 0
M  V30 7520 C 700.559 5.33667 0.0589164 0
M  V30 7521 O 700.782 5.5589 1.27838 0
M  V30 7522 O 699.716 5.98774 -0.612638 0
M  V30 7523 H 703.542 2.75036 -1.28797 0
M  V30 7524 H 701.127 1.32382 -0.692495 0
M  V30 7525 H 703.009 4.15107 0.725555 0
M  V30 7526 H 701.684 3.02945 1.14043 0
M  V30 7527 H 700.591 3.57174 -1.11255 0
M  V30 7528 H 701.924 4.70512 -1.44496 0
M  V30 7529 N 703.576 0.692616 1.41565 0
M  V30 7530 C 704.523 0.0254264 2.30786 0
M  V30 7531 C 705.493 -0.774347 1.46946 0
M  V30 7532 O 706.678 -0.742981 1.7574 0
M  V30 7533 C 703.818 -0.907123 3.32964 0
M  V30 7534 C 702.931 -0.0992784 4.31886 0
M  V30 7535 C 702.066 -1.0292 5.21134 0
M  V30 7536 C 701.105 -0.214088 6.11725 0
M  V30 7537 N 700.242 -1.09766 6.93467 0
M  V30 7538 H 705.082 0.792036 2.87282 0
M  V30 7539 H 702.619 0.4023 1.41492 0
M  V30 7540 H 704.577 -1.46181 3.90752 0
M  V30 7541 H 703.207 -1.64016 2.78026 0
M  V30 7542 H 702.259 0.572287 3.76071 0
M  V30 7543 H 703.571 0.532782 4.95946 0
M  V30 7544 H 702.725 -1.65321 5.83741 0
M  V30 7545 H 701.464 -1.69512 4.57293 0
M  V30 7546 H 700.469 0.42302 5.4817 0
M  V30 7547 H 701.694 0.447995 6.77621 0
M  V30 7548 H 699.64 -1.74965 6.32237 0
M  V30 7549 H 699.557 -0.521099 7.54202 0
M  V30 7550 H 700.825 -1.70858 7.60544 0
M  V30 7551 N 705.054 -1.51416 0.437162 0
M  V30 7552 C 705.984 -2.30631 -0.364922 0
M  V30 7553 C 706.965 -1.36037 -1.02118 0
M  V30 7554 O 708.15 -1.64956 -1.02485 0
M  V30 7555 C 705.28 -3.1482 -1.46648 0
M  V30 7556 C 704.234 -4.17691 -0.933717 0
M  V30 7557 C 703.56 -4.904 -2.13101 0
M  V30 7558 C 704.86 -5.2229 0.0317201 0
M  V30 7559 H 706.554 -2.97932 0.29614 0
M  V30 7560 H 704.1 -1.4328 0.143865 0
M  V30 7561 H 706.053 -3.69017 -2.03481 0
M  V30 7562 H 704.777 -2.4534 -2.15583 0
M  V30 7563 H 703.436 -3.64545 -0.387602 0
M  V30 7564 H 703.084 -4.17423 -2.80654 0
M  V30 7565 H 702.784 -5.59962 -1.78092 0
M  V30 7566 H 704.308 -5.4742 -2.70487 0
M  V30 7567 H 705.722 -5.7156 -0.446302 0
M  V30 7568 H 704.119 -5.99378 0.29437 0
M  V30 7569 H 705.189 -4.75131 0.968447 0
M  V30 7570 N 706.532 -0.168513 -1.56696 0
M  V30 7571 C 707.495 0.748928 -2.16619 0
M  V30 7572 C 708.495 1.16007 -1.11351 0
M  V30 7573 O 709.685 1.07748 -1.3688 0
M  V30 7574 C 706.817 2.01904 -2.74677 0
M  V30 7575 H 708.01 0.227317 -2.99037 0
M  V30 7576 H 705.563 0.0810372 -1.5609 0
M  V30 7577 H 706.298 2.58381 -1.95985 0
M  V30 7578 H 706.083 1.73323 -3.51712 0
M  V30 7579 H 707.573 2.67383 -3.20774 0
M  V30 7580 N 708.01 1.57248 0.105221 0
M  V30 7581 C 709.426 1.52853 0.459153 0
M  V30 7582 C 709.626 0.883674 1.8109 0
M  V30 7583 O 708.682 0.471864 2.48052 0
M  V30 7584 C 709.995 2.97596 0.43096 0
M  V30 7585 C 711.543 3.08758 0.513536 0
M  V30 7586 C 712.018 4.55089 0.515593 0
M  V30 7587 N 713.509 4.59597 0.576639 0
M  V30 7588 C 714.244 5.70253 0.599904 0
M  V30 7589 N 713.74 6.90368 0.579985 0
M  V30 7590 N 715.533 5.58399 0.643953 0
M  V30 7591 H 707.684 1.97547 -0.780306 0
M  V30 7592 H 709.947 0.902758 -0.289363 0
M  V30 7593 H 709.653 3.48201 -0.494903 0
M  V30 7594 H 709.527 3.55756 1.2537 0
M  V30 7595 H 711.914 2.58148 1.42982 0
M  V30 7596 H 711.995 2.53568 -0.337148 0
M  V30 7597 H 711.639 5.06348 -0.396701 0
M  V30 7598 H 711.569 5.08105 1.38335 0
M  V30 7599 H 714.06 3.73144 0.597639 0
M  V30 7600 H 714.373 7.70462 0.600741 0
M  V30 7601 H 712.718 6.92843 0.547191 0
M  V30 7602 H 715.909 4.63467 0.656975 0
M  V30 7603 H 716.082 6.44644 0.658616 0
M  V30 7604 N 709.488 -0.375779 1.53054 0
M  V30 7605 C 710.398 -1.48381 1.81715 0
M  V30 7606 C 711.414 -1.59087 0.704795 0
M  V30 7607 O 712.59 -1.75174 0.993785 0
M  V30 7608 C 709.655 -2.83767 1.99192 0
M  V30 7609 C 708.716 -2.82673 3.23102 0
M  V30 7610 C 707.949 -4.11601 3.39736 0
M  V30 7611 O 708.172 -5.07243 2.60885 0
M  V30 7612 O 707.106 -4.18034 4.33049 0
M  V30 7613 H 710.932 -1.27089 2.7583 0
M  V30 7614 H 708.517 -0.564902 1.38308 0
M  V30 7615 H 710.399 -3.64004 2.12318 0
M  V30 7616 H 709.074 -3.05057 1.08267 0
M  V30 7617 H 707.981 -2.0117 3.15407 0
M  V30 7618 H 709.314 -2.66335 4.13916 0
M  V30 7619 N 710.966 -1.44241 -0.634997 0
M  V30 7620 C 711.896 -1.53632 -1.7584 0
M  V30 7621 C 712.877 -0.389603 -1.65578 0
M  V30 7622 O 714.062 -0.609219 -1.84397 0
M  V30 7623 C 711.192 -1.47644 -3.14354 0
M  V30 7624 C 710.146 -2.60752 -3.394 0
M  V30 7625 C 709.472 -2.39817 -4.77904 0
M  V30 7626 C 710.772 -4.02921 -3.32343 0
M  V30 7627 H 712.466 -2.47662 -1.68238 0
M  V30 7628 H 710.012 -1.19197 -0.807969 0
M  V30 7629 H 711.965 -1.52815 -3.92716 0
M  V30 7630 H 710.689 -0.501284 -3.2273 0
M  V30 7631 H 709.348 -2.54965 -2.63417 0
M  V30 7632 H 708.996 -1.40502 -4.82978 0
M  V30 7633 H 708.696 -3.15649 -4.9562 0
M  V30 7634 H 710.22 -2.46799 -5.585 0
M  V30 7635 H 711.634 -4.10098 -4.00615 0
M  V30 7636 H 710.031 -4.78925 -3.61595 0
M  V30 7637 H 711.101 -4.26766 -2.30215 0
M  V30 7638 N 712.444 0.87505 -1.31075 0
M  V30 7639 C 713.86 1.15997 -1.09622 0
M  V30 7640 C 714.06 2.01036 0.136611 0
M  V30 7641 O 713.116 2.38559 0.827397 0
M  V30 7642 C 714.429 1.85702 -2.36506 0
M  V30 7643 C 715.977 1.98425 -2.42067 0
M  V30 7644 C 716.452 2.71544 -3.68819 0
M  V30 7645 N 717.943 2.79084 -3.69684 0
M  V30 7646 C 718.678 3.36259 -4.64454 0
M  V30 7647 N 718.174 3.94406 -5.69575 0
M  V30 7648 N 719.967 3.34169 -4.51982 0
M  V30 7649 H 712.118 0.308258 -2.10151 0
M  V30 7650 H 714.381 0.199145 -0.926847 0
M  V30 7651 H 714.087 1.30663 -3.26527 0
M  V30 7652 H 713.961 2.86017 -2.45915 0
M  V30 7653 H 716.348 2.5263 -1.52518 0
M  V30 7654 H 716.429 0.971682 -2.36626 0
M  V30 7655 H 716.073 2.18008 -4.58732 0
M  V30 7656 H 716.003 3.73198 -3.71525 0
M  V30 7657 H 718.494 2.3781 -2.93691 0
M  V30 7658 H 718.807 4.36129 -6.37974 0
M  V30 7659 H 717.152 3.92797 -5.73355 0
M  V30 7660 H 720.343 2.87977 -3.69035 0
M  V30 7661 H 720.516 3.78431 -5.26017 0
M  V30 7662 N 713.922 1.13953 1.08869 0
M  V30 7663 C 715.147 0.928559 1.85452 0
M  V30 7664 C 715.572 -0.517642 1.80837 0
M  V30 7665 O 714.93 -1.36779 1.19001 0
M  V30 7666 C 714.978 1.42814 3.31114 0
M  V30 7667 O 714.082 0.617129 4.07756 0
M  V30 7668 H 713.423 0.33235 0.574839 0
M  V30 7669 H 715.953 1.5156 1.37443 0
M  V30 7670 H 715.963 1.43425 3.8196 0
M  V30 7671 H 714.638 2.48109 3.33788 0
M  V30 7672 H 713.215 0.679365 3.66659 0
M  V30 7673 N 715.4 -1.26948 0.933913 0
M  V30 7674 C 716.363 -2.24889 0.442457 0
M  V30 7675 C 717.363 -1.54594 -0.442426 0
M  V30 7676 O 718.553 -1.72502 -0.242629 0
M  V30 7677 C 715.685 -3.3896 -0.363173 0
M  V30 7678 H 716.878 -2.69879 1.30787 0
M  V30 7679 H 714.431 -1.38978 0.715187 0
M  V30 7680 H 715.166 -2.99361 -1.24714 0
M  V30 7681 H 714.951 -3.9116 0.271366 0
M  V30 7682 H 716.441 -4.11739 -0.697186 0
M  V30 7683 N 716.879 -0.700114 -1.41195 0
M  V30 7684 C 718.127 -0.232546 -2.00758 0
M  V30 7685 C 718.448 1.1734 -1.55745 0
M  V30 7686 O 717.718 1.79262 -0.790058 0
M  V30 7687 H 716.298 -0.0829845 -0.742376 0
M  V30 7688 H 718.96 -0.902289 -1.72756 0
M  V30 7689 H 718.056 -0.253521 -3.11069 0
M  V30 7690 N 718.357 1.51182 -0.445186 0
M  V30 7691 C 719.32 2.26501 0.350722 0
M  V30 7692 C 720.32 1.3025 0.942952 0
M  V30 7693 O 721.51 1.53897 0.816175 0
M  V30 7694 C 718.642 3.06274 1.49697 0
M  V30 7695 H 719.835 2.98299 -0.309474 0
M  V30 7696 H 717.388 1.55034 -0.198551 0
M  V30 7697 H 718.123 2.38911 2.19299 0
M  V30 7698 H 717.908 3.76979 1.0784 0
M  V30 7699 H 719.398 3.63306 2.05909 0
M  V30 7700 N 719.835 0.176821 1.56605 0
M  V30 7701 C 721.246 -0.338963 1.83597 0
M  V30 7702 C 721.597 -1.62677 1.09684 0
M  V30 7703 O 720.722 -2.13524 0.351661 0
M  V30 7704 C 721.317 -0.62177 3.33046 0
M  V30 7705 C 719.876 -1.08198 3.60514 0
M  V30 7706 C 719.023 -0.120774 2.77037 0
M  V30 7707 H 721.974 0.400978 1.53551 0
M  V30 7708 H 721.995 -1.47321 3.50823 0
M  V30 7709 H 721.507 0.315692 3.86814 0
M  V30 7710 H 719.608 -2.03435 3.12162 0
M  V30 7711 H 719.721 -0.987329 4.68816 0
M  V30 7712 H 718.085 -0.619192 2.47059 0
M  V30 7713 H 718.868 0.810806 3.33588 0
M  V30 7714 N 721.313 -1.57302 -0.09688 0
M  V30 7715 C 722.276 -2.00976 -1.10188 0
M  V30 7716 C 723.276 -0.903009 -1.3305 0
M  V30 7717 O 724.466 -1.16853 -1.29194 0
M  V30 7718 C 721.598 -2.36893 -2.45142 0
M  V30 7719 H 722.791 -2.9098 -0.726003 0
M  V30 7720 H 720.344 -1.52515 -0.341872 0
M  V30 7721 H 721.079 -1.49837 -2.8761 0
M  V30 7722 H 720.864 -3.17632 -2.29897 0
M  V30 7723 H 722.354 -2.71345 -3.1743 0
M  V30 7724 N 722.791 0.367657 -1.53252 0
M  V30 7725 C 724.016 1.13566 -1.73544 0
M  V30 7726 C 724.441 1.82329 -0.462344 0
M  V30 7727 O 723.799 1.71655 0.583472 0
M  V30 7728 C 723.847 2.14322 -2.89997 0
M  V30 7729 O 722.951 3.21359 -2.58461 0
M  V30 7730 H 722.292 0.329614 -0.576412 0
M  V30 7731 H 724.822 0.425417 -2.00128 0
M  V30 7732 H 724.832 2.57958 -3.16104 0
M  V30 7733 H 723.507 1.63664 -3.82344 0
M  V30 7734 H 722.084 2.8271 -2.43165 0
M  V30 7735 N 724.269 1.44576 0.627338 0
M  V30 7736 C 725.515 1.47777 1.38888 0
M  V30 7737 C 725.848 0.111406 1.9388 0
M  V30 7738 O 725.123 -0.87149 1.73883 0
M  V30 7739 C 725.406 2.54119 2.55138 0
M  V30 7740 C 725.259 4.00128 2.0547 0
M  V30 7741 C 726.578 2.56929 3.57317 0
M  V30 7742 H 723.697 0.538048 0.50366 0
M  V30 7743 H 726.339 1.76277 0.708978 0
M  V30 7744 H 724.489 2.29948 3.13139 0
M  V30 7745 H 726.161 4.35444 1.5227 0
M  V30 7746 H 724.404 4.11724 1.36623 0
M  V30 7747 H 725.075 4.7019 2.89181 0
M  V30 7748 H 727.551 2.78536 3.09122 0
M  V30 7749 H 726.427 3.33234 4.36173 0
M  V30 7750 H 726.688 1.6127 4.11636 0
M  V30 7751 N 725.747 -0.868086 1.31537 0
M  V30 7752 C 726.972 -1.65926 1.24432 0
M  V30 7753 C 727.397 -1.87169 -0.186936 0
M  V30 7754 O 726.755 -1.4148 -1.13371 0
M  V30 7755 C 726.803 -3.00347 1.9956 0
M  V30 7756 O 725.907 -3.90221 1.33422 0
M  V30 7757 H 725.248 -0.506375 0.429512 0
M  V30 7758 H 727.778 -1.0822 1.73637 0
M  V30 7759 H 727.788 -3.50269 2.09226 0
M  V30 7760 H 726.463 -2.84205 3.03645 0
M  V30 7761 H 725.04 -3.48672 1.32219 0
M  V30 7762 N 727.225 -1.14528 -1.08264 0
M  V30 7763 C 728.473 -0.912599 -1.80322 0
M  V30 7764 C 728.794 0.562256 -1.86718 0
M  V30 7765 O 728.064 1.40869 -1.36135 0
M  V30 7766 H 726.644 -0.334645 -0.667849 0
M  V30 7767 H 729.306 -1.44415 -1.30883 0
M  V30 7768 H 728.402 -1.31384 -2.83098 0
M  V30 7769 N 728.703 1.26451 -0.940633 0
M  V30 7770 C 729.635 2.25556 -0.407104 0
M  V30 7771 C 730.648 1.55888 0.469324 0
M  V30 7772 O 731.837 1.76292 0.279858 0
M  V30 7773 C 728.937 3.36109 0.434064 0
M  V30 7774 C 728.11 4.3532 -0.426082 0
M  V30 7775 C 727.169 5.25004 0.354563 0
M  V30 7776 O 726.195 5.68684 -0.242219 0
M  V30 7777 N 727.397 5.5652 1.65123 0
M  V30 7778 H 730.162 2.7197 -1.25907 0
M  V30 7779 H 727.723 1.40212 -0.809456 0
M  V30 7780 H 729.715 3.93059 0.963684 0
M  V30 7781 H 728.285 2.89194 1.18683 0
M  V30 7782 H 727.505 3.77449 -1.13692 0
M  V30 7783 H 728.793 4.986 -1.01366 0
M  V30 7784 H 728.191 5.22912 2.15822 0
M  V30 7785 H 726.748 6.16115 2.12711 0
M  V30 7786 N 730.181 0.707592 1.40822 0
M  V30 7787 C 731.458 0.171172 1.9485 0
M  V30 7788 C 731.838 -1.32143 1.64625 0
M  V30 7789 O 731.186 -2.07372 0.959647 0
M  V30 7790 C 731.396 0.475334 3.45748 0
M  V30 7791 C 732.744 0.409625 4.22619 0
M  V30 7792 O 733.768 0.410934 3.53822 0
M  V30 7793 O 732.627 0.380185 5.45176 0
M  V30 7794 H 729.721 0.022015 0.826707 0
M  V30 7795 H 732.267 0.784577 1.50474 0
M  V30 7796 H 731.039 1.50801 3.61075 0
M  V30 7797 H 730.662 -0.168439 3.97243 0
M  V30 7798 N 731.66 -1.50943 0.453197 0
M  V30 7799 C 732.623 -2.26684 -0.338705 0
M  V30 7800 C 733.623 -1.30748 -0.936032 0
M  V30 7801 O 734.813 -1.54327 -0.808002 0
M  V30 7802 C 731.945 -3.07063 -1.48071 0
M  V30 7803 H 733.138 -2.98131 0.325289 0
M  V30 7804 H 730.691 -1.54926 0.206771 0
M  V30 7805 H 731.426 -2.4007 -2.18029 0
M  V30 7806 H 731.211 -3.77545 -1.0584 0
M  V30 7807 H 732.701 -3.64393 -2.0398 0
M  V30 7808 N 733.138 -0.185124 -1.56509 0
M  V30 7809 C 734.415 0.503348 -1.89013 0
M  V30 7810 C 734.795 1.80349 -1.09715 0
M  V30 7811 O 734.143 2.27665 -0.195203 0
M  V30 7812 C 734.353 0.731839 -3.41241 0
M  V30 7813 C 735.701 1.05568 -4.11267 0
M  V30 7814 O 736.725 0.819906 -3.46635 0
M  V30 7815 O 735.584 1.50116 -5.25478 0
M  V30 7816 H 732.678 0.261139 -0.784688 0
M  V30 7817 H 735.224 -0.224592 -1.68207 0
M  V30 7818 H 733.996 -0.18672 -3.90854 0
M  V30 7819 H 733.619 1.5126 -3.67704 0
M  V30 7820 N 734.616 1.57351 0.0885366 0
M  V30 7821 C 735.864 1.86051 0.789262 0
M  V30 7822 C 736.185 0.774763 1.78948 0
M  V30 7823 O 735.455 -0.198324 1.94894 0
M  V30 7824 H 734.035 0.686508 0.294475 0
M  V30 7825 H 736.697 1.94779 0.0686055 0
M  V30 7826 H 735.793 2.83007 1.31581 0
M  V30 7827 N 736.094 -0.359525 1.53444 0
M  V30 7828 C 737.319 -1.12644 1.74144 0
M  V30 7829 C 737.744 -1.82082 0.472007 0
M  V30 7830 O 737.102 -1.71962 -0.57436 0
M  V30 7831 C 737.15 -2.12781 2.9113 0
M  V30 7832 O 736.254 -3.19984 2.60162 0
M  V30 7833 H 735.595 -0.326553 0.578152 0
M  V30 7834 H 738.125 -0.414798 2.00351 0
M  V30 7835 H 738.135 -2.56278 3.17467 0
M  V30 7836 H 736.81 -1.61634 3.83207 0
M  V30 7837 H 735.387 -2.81417 2.44661 0
M  V30 7838 N 737.572 -1.44907 -0.619662 0
M  V30 7839 C 738.8 -1.51795 -1.40591 0
M  V30 7840 C 739.215 -0.146553 -1.8823 0
M  V30 7841 O 738.572 0.849698 -1.61513 0
M  V30 7842 C 738.623 -2.49229 -2.61853 0
M  V30 7843 O 738.344 -3.81039 -2.16197 0
M  V30 7844 C 739.845 -2.65696 -3.54853 0
M  V30 7845 H 737.065 -0.514463 -0.430777 0
M  V30 7846 H 739.609 -1.8998 -0.756813 0
M  V30 7847 H 737.764 -2.14149 -3.2283 0
M  V30 7848 H 738.178 -4.33747 -2.94896 0
M  V30 7849 H 739.652 -3.37874 -4.36515 0
M  V30 7850 H 740.129 -1.71316 -4.0441 0
M  V30 7851 H 740.735 -3.01724 -2.99737 0
M  V30 7852 N 739.05 0.861098 -1.31996 0
M  V30 7853 C 740.275 1.65264 -1.2531 0
M  V30 7854 C 740.7 1.87265 0.177007 0
M  V30 7855 O 740.058 1.4208 1.12619 0
M  V30 7856 C 740.106 2.99284 -2.0115 0
M  V30 7857 O 739.21 3.89508 -1.3549 0
M  V30 7858 H 738.551 0.50409 -0.432192 0
M  V30 7859 H 741.081 1.07297 -1.74208 0
M  V30 7860 H 741.091 3.49154 -2.11081 0
M  V30 7861 H 739.766 2.82591 -3.05148 0
M  V30 7862 H 738.343 3.47966 -1.34066 0
M  V30 7863 N 740.528 1.15101 1.07655 0
M  V30 7864 C 741.939 0.933848 1.61667 0
M  V30 7865 C 742.29 -0.525569 1.8903 0
M  V30 7866 O 741.415 -1.39605 1.65346 0
M  V30 7867 C 742.01 1.68876 2.93711 0
M  V30 7868 C 740.569 1.51697 3.44478 0
M  V30 7869 C 739.716 1.70633 2.18586 0
M  V30 7870 H 742.667 1.30171 0.907816 0
M  V30 7871 H 742.688 1.15645 3.625 0
M  V30 7872 H 742.2 2.7509 2.73764 0
M  V30 7873 H 740.301 0.478635 3.69513 0
M  V30 7874 H 740.414 2.29194 4.20722 0
M  V30 7875 H 738.778 1.13259 2.28132 0
M  V30 7876 H 739.561 2.78206 2.01137 0
M  V30 7877 N 742.006 -1.2595 0.947325 0
M  V30 7878 C 743.422 -1.45737 0.650597 0
M  V30 7879 C 743.622 -1.85189 -0.794188 0
M  V30 7880 O 742.678 -1.97738 -1.57022 0
M  V30 7881 C 743.991 -2.53505 1.61728 0
M  V30 7882 C 745.539 -2.67351 1.62765 0
M  V30 7883 C 746.014 -3.78296 2.58179 0
M  V30 7884 N 747.505 -3.85696 2.56501 0
M  V30 7885 C 748.24 -4.71012 3.2701 0
M  V30 7886 N 747.736 -5.60669 4.06966 0
M  V30 7887 N 749.529 -4.64912 3.15932 0
M  V30 7888 H 741.68 -0.986327 1.8811 0
M  V30 7889 H 743.943 -0.494639 0.808725 0
M  V30 7890 H 743.649 -2.31357 2.6489 0
M  V30 7891 H 743.523 -3.51281 1.3741 0
M  V30 7892 H 745.91 -2.88869 0.603241 0
M  V30 7893 H 745.991 -1.69998 1.91139 0
M  V30 7894 H 745.635 -3.5753 3.60742 0
M  V30 7895 H 745.565 -4.75117 2.27093 0
M  V30 7896 H 748.056 -3.21601 1.98447 0
M  V30 7897 H 748.369 -6.22677 4.57704 0
M  V30 7898 H 746.714 -5.60402 4.11066 0
M  V30 7899 H 749.905 -3.93874 2.52945 0
M  V30 7900 H 750.078 -5.3118 3.71149 0
M  V30 7901 N 743.484 -0.715051 -1.40445 0
M  V30 7902 C 744.709 -0.26254 -2.05732 0
M  V30 7903 C 745.134 1.08691 -1.53519 0
M  V30 7904 O 744.492 1.68453 -0.670328 0
M  V30 7905 C 744.54 -0.25195 -3.59719 0
M  V30 7906 O 743.644 0.766998 -4.05205 0
M  V30 7907 H 742.985 -0.123398 -0.652433 0
M  V30 7908 H 745.515 -0.975382 -1.79854 0
M  V30 7909 H 745.525 -0.0894537 -4.07902 0
M  V30 7910 H 744.2 -1.23672 -3.97087 0
M  V30 7911 H 742.777 0.572269 -3.68483 0
M  V30 7912 N 744.962 1.50701 -0.461195 0
M  V30 7913 C 745.894 2.26124 0.374244 0
M  V30 7914 C 746.907 1.31064 0.965715 0
M  V30 7915 O 748.096 1.56647 0.855801 0
M  V30 7916 C 745.196 3.01996 1.5379 0
M  V30 7917 C 744.369 4.24336 1.06101 0
M  V30 7918 C 743.428 4.82585 2.09756 0
M  V30 7919 O 742.454 5.43775 1.68219 0
M  V30 7920 N 743.656 4.68712 3.42475 0
M  V30 7921 H 746.421 2.9846 -0.2723 0
M  V30 7922 H 743.982 1.59256 -0.291415 0
M  V30 7923 H 745.974 3.37846 2.22806 0
M  V30 7924 H 744.544 2.32521 2.08933 0
M  V30 7925 H 743.764 3.93707 0.197085 0
M  V30 7926 H 745.052 5.03678 0.720156 0
M  V30 7927 H 744.45 4.20026 3.78938 0
M  V30 7928 H 743.007 5.08858 4.07317 0
M  V30 7929 N 746.441 0.193421 1.56409 0
M  V30 7930 C 747.351 -0.740112 2.2262 0
M  V30 7931 C 748.367 -1.23597 1.22474 0
M  V30 7932 O 749.543 -1.28348 1.55206 0
M  V30 7933 C 746.608 -1.94317 2.87127 0
M  V30 7934 C 745.669 -1.49205 4.02538 0
M  V30 7935 C 744.902 -2.63776 4.63959 0
M  V30 7936 O 745.125 -3.81215 4.24301 0
M  V30 7937 O 744.059 -2.36585 5.53454 0
M  V30 7938 H 747.885 -0.206238 3.02999 0
M  V30 7939 H 745.47 -0.0357938 1.49357 0
M  V30 7940 H 747.352 -2.64633 3.27944 0
M  V30 7941 H 746.027 -2.46568 2.09728 0
M  V30 7942 H 744.934 -0.757738 3.66346 0
M  V30 7943 H 746.267 -1.01622 4.81595 0
M  V30 7944 N 747.919 -1.57396 -0.0801906 0
M  V30 7945 C 749.33 -1.75642 -0.633002 0
M  V30 7946 C 749.681 -0.817708 -1.78348 0
M  V30 7947 O 748.806 0.000233743 -2.164 0
M  V30 7948 C 749.401 -3.18502 -1.15507 0
M  V30 7949 C 747.96 -3.38121 -1.65381 0
M  V30 7950 C 747.107 -2.71386 -0.569661 0
M  V30 7951 H 750.058 -1.58027 0.145949 0
M  V30 7952 H 750.079 -3.22198 -2.02408 0
M  V30 7953 H 749.591 -3.86799 -0.317515 0
M  V30 7954 H 747.692 -2.74926 -2.51488 0
M  V30 7955 H 747.805 -4.46521 -1.73654 0
M  V30 7956 H 746.169 -2.33702 -1.0127 0
M  V30 7957 H 746.952 -3.42332 0.257561 0
M  V30 7958 O 749.436 0.223936 -1.5994 0
M  V30 7959 H 750.127 0.865318 -1.73297 0
M  V30 END ATOM
M  V30 BEGIN BOND
M  V30 END BOND
M  V30 END CTAB
M  END
$$$$
