drugbank_target|Q9Y5S1 Transient receptor potential cation channel subfamily V member 2 (DB09061; DB11755; DB14009; DB14011; DB14050)
 OpenBabel12092121093D

  0  0  0     0  0            999 V3000
M  V30 BEGIN CTAB
M  V30 COUNTS 12109 12255 0 0 0
M  V30 BEGIN ATOM
M  V30 1 H -0.908 1.98254 -0.117106 0
M  V30 2 N 0 1.576 0 0
M  V30 3 C 0.933 2.03868 1.02534 0
M  V30 4 C 1.911 0.928543 1.3348 0
M  V30 5 O 3.095 1.19667 1.45644 0
M  V30 6 C 0.222 2.43627 2.35294 0
M  V30 7 C -0.732 3.65373 2.2001 0
M  V30 8 S 0.101 5.13292 1.52614 0
M  V30 9 C 1.257 5.56322 2.86805 0
M  V30 10 H 1.49 2.90518 0.631377 0
M  V30 11 H -0.977 1.52953 0.210867 0
M  V30 12 H 0.981 2.67203 3.11629 0
M  V30 13 H -0.358 1.57376 2.7183 0
M  V30 14 H -1.165 3.90944 3.18086 0
M  V30 15 H -1.563 3.418 1.51819 0
M  V30 16 H 0.729 5.58782 3.83104 0
M  V30 17 H 1.672 6.56266 2.65933 0
M  V30 18 H 2.08 4.83886 2.90714 0
M  V30 19 N 1.4781 -0.272755 1.55222 0
M  V30 20 C 2.7061 -1.02255 1.79865 0
M  V30 21 C 3.1211 -1.79924 0.572088 0
M  V30 22 O 2.4781 -1.76638 -0.458842 0
M  V30 23 C 2.5291 -1.98094 3.02392 0
M  V30 24 O 2.2501 -1.23572 4.20311 0
M  V30 25 C 3.7511 -2.84884 3.39641 0
M  V30 26 H 0.9711 -0.302057 0.599168 0
M  V30 27 H 3.5151 -0.303465 2.02236 0
M  V30 28 H 1.6701 -2.65465 2.82147 0
M  V30 29 H 2.0841 -1.88172 4.89583 0
M  V30 30 H 3.5581 -3.47927 4.28545 0
M  V30 31 H 4.0351 -3.54665 2.59055 0
M  V30 32 H 4.6411 -2.23003 3.62146 0
M  V30 33 N 2.9562 -1.48159 -0.537278 0
M  V30 34 C 4.1812 -1.59707 -1.32319 0
M  V30 35 C 4.6062 -0.254859 -1.86365 0
M  V30 36 O 3.9642 0.772378 -1.64024 0
M  V30 37 C 4.0122 -2.6412 -2.45505 0
M  V30 38 O 3.1162 -2.20774 -3.48328 0
M  V30 39 H 2.4572 -0.535791 -0.392204 0
M  V30 40 H 4.9872 -1.94092 -0.647268 0
M  V30 41 H 4.9972 -2.85166 -2.91795 0
M  V30 42 H 3.6722 -3.61567 -2.05528 0
M  V30 43 H 2.2492 -2.09911 -3.08207 0
M  V30 44 N 4.4343 0.785586 -1.36625 0
M  V30 45 C 5.8453 1.36101 -1.27803 0
M  V30 46 C 6.1963 1.96035 0.0804875 0
M  V30 47 O 5.3213 1.92834 0.982042 0
M  V30 48 C 5.9163 2.47442 -2.31426 0
M  V30 49 C 4.4753 3.00789 -2.26281 0
M  V30 50 C 3.6223 1.73896 -2.15999 0
M  V30 51 H 6.5733 0.586928 -1.47448 0
M  V30 52 H 6.5943 3.2656 -1.95291 0
M  V30 53 H 6.1063 2.03791 -3.30289 0
M  V30 54 H 4.2073 3.48851 -1.30896 0
M  V30 55 H 4.3203 3.57343 -3.19128 0
M  V30 56 H 2.6843 1.9628 -1.62316 0
M  V30 57 H 3.4673 1.32368 -3.16755 0
M  V30 58 N 5.9124 1.20967 1.01018 0
M  V30 59 C 7.1374 1.0503 1.78839 0
M  V30 60 C 7.5624 -0.395752 1.8389 0
M  V30 61 O 6.9204 -1.28529 1.27867 0
M  V30 62 C 6.9684 1.64602 3.2084 0
M  V30 63 O 6.0724 0.887988 4.02726 0
M  V30 64 H 5.4134 0.369987 0.551367 0
M  V30 65 H 7.9434 1.60399 1.27018 0
M  V30 66 H 7.9534 1.68607 3.71532 0
M  V30 67 H 6.6284 2.69841 3.16479 0
M  V30 68 H 5.2054 0.922648 3.61305 0
M  V30 69 N 7.3905 -1.2043 1.01659 0
M  V30 70 C 8.6155 -1.94318 0.724942 0
M  V30 71 C 9.0405 -1.74266 -0.708034 0
M  V30 72 O 8.3985 -1.03694 -1.48719 0
M  V30 73 C 8.4465 -3.44486 1.06591 0
M  V30 74 O 7.5505 -4.12017 0.177599 0
M  V30 75 H 6.8915 -0.60708 0.26898 0
M  V30 76 H 9.4215 -1.52861 1.35995 0
M  V30 77 H 9.4315 -3.95106 1.01762 0
M  V30 78 H 8.1065 -3.58404 2.10997 0
M  V30 79 H 6.6835 -3.71821 0.283421 0
M  V30 80 N 8.8686 -0.792821 -1.36206 0
M  V30 81 C 10.0936 -0.377701 -2.03932 0
M  V30 82 C 10.5186 0.998947 -1.59382 0
M  V30 83 O 9.8766 1.64421 -0.763903 0
M  V30 84 C 9.9246 -0.453635 -3.57735 0
M  V30 85 O 9.0286 0.538151 -4.08874 0
M  V30 86 H 8.3696 -0.159855 -0.644471 0
M  V30 87 H 10.8996 -1.07488 -1.7409 0
M  V30 88 H 10.9096 -0.318464 -4.06755 0
M  V30 89 H 9.5846 -1.45784 -3.89512 0
M  V30 90 H 8.1616 0.364359 -3.71116 0
M  V30 91 N 10.3467 1.47872 -0.545128 0
M  V30 92 C 11.7577 1.86384 -0.108581 0
M  V30 93 C 12.1087 1.45309 1.31832 0
M  V30 94 O 11.2337 0.850641 1.9898 0
M  V30 95 C 11.8287 3.38265 -0.190274 0
M  V30 96 C 10.3877 3.75914 0.191164 0
M  V30 97 C 9.5347 2.71926 -0.543273 0
M  V30 98 H 12.4857 1.39561 -0.755537 0
M  V30 99 H 12.5067 3.75831 0.594217 0
M  V30 100 H 12.0187 3.6813 -1.2289 0
M  V30 101 H 10.1197 3.51665 1.23136 0
M  V30 102 H 10.2327 4.78836 -0.158987 0
M  V30 103 H 8.5967 2.54697 0.0122495 0
M  V30 104 H 9.3797 3.04634 -1.58282 0
M  V30 105 N 11.8248 0.280983 1.55075 0
M  V30 106 C 13.0708 -0.33461 2.00021 0
M  V30 107 C 13.4038 -1.55063 1.16915 0
M  V30 108 O 12.6788 -1.93006 0.240646 0
M  V30 109 C 12.9618 -0.711007 3.53011 0
M  V30 110 C 12.8148 0.512766 4.46868 0
M  V30 111 C 14.1338 -1.54522 4.12081 0
M  V30 112 H 11.2528 -0.120147 0.727141 0
M  V30 113 H 13.8948 0.389097 1.85973 0
M  V30 114 H 12.0448 -1.32761 3.65112 0
M  V30 115 H 13.7168 1.15131 4.46702 0
M  V30 116 H 11.9598 1.14975 4.18286 0
M  V30 117 H 12.6308 0.205556 5.51617 0
M  V30 118 H 15.1068 -1.02442 4.03293 0
M  V30 119 H 13.9828 -1.77739 5.19327 0
M  V30 120 H 14.2438 -2.52813 3.62682 0
M  V30 121 N 13.3029 -1.57598 0.00835791 0
M  V30 122 C 14.5499 -1.90928 -0.674732 0
M  V30 123 C 14.8779 -0.88277 -1.73313 0
M  V30 124 O 14.1329 0.111294 -1.95383 0
M  V30 125 C 14.4319 -3.3101 -1.34787 0
M  V30 126 C 14.0979 -4.48922 -0.421861 0
M  V30 127 C 12.7599 -4.8091 -0.166927 0
M  V30 128 C 15.1119 -5.20755 0.215211 0
M  V30 129 C 12.4399 -5.821 0.733232 0
M  V30 130 C 14.7919 -6.22905 1.1033 0
M  V30 131 C 13.4559 -6.53346 1.36733 0
M  V30 132 H 12.7259 -0.698656 -0.246902 0
M  V30 133 H 15.3729 -1.91387 0.0656779 0
M  V30 134 H 13.6779 -3.26714 -2.16253 0
M  V30 135 H 15.3749 -3.54061 -1.8826 0
M  V30 136 H 11.9649 -4.23934 -0.630729 0
M  V30 137 H 16.1489 -4.9629 0.0312829 0
M  V30 138 H 11.4049 -6.04042 0.945712 0
M  V30 139 H 15.5789 -6.77694 1.60325 0
M  V30 140 H 13.2059 -7.31573 2.06652 0
M  V30 141 N 14.781 0.264519 -1.55364 0
M  V30 142 C 16.197 0.61215 -1.47394 0
M  V30 143 C 16.397 1.89134 -0.695018 0
M  V30 144 O 15.453 2.51563 -0.217275 0
M  V30 145 C 16.766 0.731235 -2.91674 0
M  V30 146 C 18.314 0.82473 -3.01939 0
M  V30 147 C 18.789 0.975522 -4.4749 0
M  V30 148 N 20.28 1.04083 -4.51354 0
M  V30 149 C 21.015 1.17646 -5.61201 0
M  V30 150 N 20.511 1.27874 -6.80896 0
M  V30 151 N 22.304 1.20823 -5.48961 0
M  V30 152 H 14.455 -0.575456 -2.04456 0
M  V30 153 H 16.718 -0.196099 -0.927496 0
M  V30 154 H 16.424 -0.138392 -3.51428 0
M  V30 155 H 16.298 1.60883 -3.41169 0
M  V30 156 H 18.685 1.68482 -2.42276 0
M  V30 157 H 18.766 -0.0776479 -2.55682 0
M  V30 158 H 18.41 0.120058 -5.07758 0
M  V30 159 H 18.34 1.89268 -4.91412 0
M  V30 160 H 20.831 0.973846 -3.65136 0
M  V30 161 H 21.144 1.38081 -7.60364 0
M  V30 162 H 19.489 1.24863 -6.83692 0
M  V30 163 H 22.68 1.12469 -4.54388 0
M  V30 164 H 22.853 1.31049 -6.3461 0
M  V30 165 N 16.2591 1.48442 0.529413 0
M  V30 166 C 17.1891 1.65902 1.64313 0
M  V30 167 C 18.1701 0.507897 1.6234 0
M  V30 168 O 19.3551 0.740503 1.79528 0
M  V30 169 C 16.4851 1.69911 3.02898 0
M  V30 170 C 15.4391 2.8453 3.19729 0
M  V30 171 C 14.7651 2.73629 4.59381 0
M  V30 172 C 16.0651 4.25821 3.02447 0
M  V30 173 H 17.7591 2.5914 1.49955 0
M  V30 174 H 15.3051 1.24709 0.719982 0
M  V30 175 H 17.2581 1.80715 3.80684 0
M  V30 176 H 15.9821 0.732524 3.18279 0
M  V30 177 H 14.6411 2.73283 2.44361 0
M  V30 178 H 14.2891 1.74938 4.71599 0
M  V30 179 H 13.9891 3.50541 4.71588 0
M  V30 180 H 15.5131 2.86401 5.39265 0
M  V30 181 H 16.9271 4.37898 3.70024 0
M  V30 182 H 15.3241 5.03735 3.26146 0
M  V30 183 H 16.3941 4.42244 1.98867 0
M  V30 184 N 17.7372 -0.778329 1.37039 0
M  V30 185 C 18.6472 -1.92253 1.34446 0
M  V30 186 C 19.6632 -1.72267 0.244991 0
M  V30 187 O 20.8392 -1.95615 0.479258 0
M  V30 188 C 17.9042 -3.27282 1.144 0
M  V30 189 C 16.9652 -3.59969 2.33925 0
M  V30 190 C 16.1982 -4.88555 2.14825 0
M  V30 191 O 16.4212 -5.59113 1.12912 0
M  V30 192 O 15.3552 -5.20153 3.02861 0
M  V30 193 H 19.1812 -1.97392 2.30803 0
M  V30 194 H 16.7662 -0.920154 1.17701 0
M  V30 195 H 18.6482 -4.08062 1.05182 0
M  V30 196 H 17.3232 -3.23011 0.211124 0
M  V30 197 H 16.2302 -2.7945 2.48714 0
M  V30 198 H 17.5632 -3.68976 3.25757 0
M  V30 199 N 19.2153 -1.21501 -1.00376 0
M  V30 200 C 20.4433 -1.059 -1.77744 0
M  V30 201 C 20.8583 0.391125 -1.84704 0
M  V30 202 O 20.2153 1.27133 -1.30933 0
M  V30 203 C 20.2663 -1.65111 -3.21591 0
M  V30 204 O 19.9873 -3.0445 -3.15027 0
M  V30 205 C 21.4883 -1.54637 -4.15454 0
M  V30 206 H 18.7083 -0.371825 -0.558558 0
M  V30 207 H 21.2523 -1.60865 -1.26264 0
M  V30 208 H 19.4073 -1.14235 -3.70175 0
M  V30 209 H 19.8213 -3.3278 -4.0541 0
M  V30 210 H 21.2953 -2.00808 -5.14179 0
M  V30 211 H 21.7723 -0.501022 -4.36333 0
M  V30 212 H 22.3783 -2.04767 -3.72761 0
M  V30 213 N 20.6934 1.19889 -1.02296 0
M  V30 214 C 21.6234 2.25141 -0.619174 0
M  V30 215 C 22.6044 1.66051 0.368915 0
M  V30 216 O 23.7894 1.92546 0.252941 0
M  V30 217 C 20.9194 3.4728 0.0368783 0
M  V30 218 C 19.8734 4.19005 -0.872865 0
M  V30 219 C 19.1994 5.34637 -0.0822402 0
M  V30 220 C 20.4994 4.74452 -2.18387 0
M  V30 221 H 22.1934 2.59171 -1.49903 0
M  V30 222 H 19.7394 1.24579 -0.722222 0
M  V30 223 H 21.6924 4.20098 0.330958 0
M  V30 224 H 20.4164 3.12433 0.95149 0
M  V30 225 H 19.0754 3.48061 -1.15105 0
M  V30 226 H 18.7234 4.96034 0.83422 0
M  V30 227 H 18.4234 5.83557 -0.688149 0
M  V30 228 H 19.9474 6.10255 0.205238 0
M  V30 229 H 21.3614 5.39055 -1.95172 0
M  V30 230 H 19.7584 5.33834 -2.74119 0
M  V30 231 H 20.8284 3.92844 -2.84257 0
M  V30 232 N 22.1715 0.800033 1.35784 0
M  V30 233 C 23.4485 0.30088 1.93272 0
M  V30 234 C 23.8285 -1.20857 1.73081 0
M  V30 235 O 23.1765 -2.00502 1.09596 0
M  V30 236 C 23.3865 0.70511 3.41803 0
M  V30 237 C 24.7345 0.690871 4.18942 0
M  V30 238 O 25.7585 0.646244 3.50289 0
M  V30 239 O 24.6175 0.74332 5.41421 0
M  V30 240 H 21.7115 0.0771605 0.823393 0
M  V30 241 H 24.2575 0.88329 1.449 0
M  V30 242 H 23.0295 1.74571 3.50201 0
M  V30 243 H 22.6525 0.0971541 3.97481 0
M  V30 244 N 23.6496 -1.47581 0.552962 0
M  V30 245 C 24.8976 -2.02082 0.0272703 0
M  V30 246 C 25.2186 -1.4301 -1.32563 0
M  V30 247 O 24.4886 -0.603745 -1.86365 0
M  V30 248 H 23.0686 -0.746966 0.00709182 0
M  V30 249 H 25.7306 -1.81033 0.722008 0
M  V30 250 H 24.8266 -3.12034 -0.0639951 0
M  V30 251 N 25.1277 -0.289203 -1.54924 0
M  V30 252 C 26.3757 0.322879 -1.99504 0
M  V30 253 C 26.6967 1.55313 -1.1791 0
M  V30 254 O 25.9667 1.94001 -0.272097 0
M  V30 255 H 24.5467 0.122291 -0.736922 0
M  V30 256 H 27.2087 -0.397802 -1.90797 0
M  V30 257 H 26.3047 0.603061 -3.06218 0
M  V30 258 N 26.6058 1.57591 -0.0167156 0
M  V30 259 C 27.5378 2.06343 0.997753 0
M  V30 260 C 28.5508 0.984469 1.29661 0
M  V30 261 O 29.7398 1.26093 1.26344 0
M  V30 262 C 26.8398 2.46255 2.32834 0
M  V30 263 C 26.0128 3.77083 2.21646 0
M  V30 264 C 25.0718 4.0368 3.37534 0
M  V30 265 O 24.0978 4.7411 3.14973 0
M  V30 266 N 25.2998 3.52881 4.60929 0
M  V30 267 H 28.0648 2.93997 0.581875 0
M  V30 268 H 25.6258 1.61002 0.170316 0
M  V30 269 H 27.6178 2.61149 3.09166 0
M  V30 270 H 26.1878 1.64032 2.66106 0
M  V30 271 H 25.4078 3.72106 1.30119 0
M  V30 272 H 26.6958 4.62822 2.11361 0
M  V30 273 H 26.0938 2.95878 4.82154 0
M  V30 274 H 24.6508 3.73076 5.34469 0
M  V30 275 N 28.0839 -0.256276 1.55502 0
M  V30 276 C 28.9939 -1.33882 1.92647 0
M  V30 277 C 30.0099 -1.53159 0.825727 0
M  V30 278 O 31.1859 -1.66963 1.12629 0
M  V30 279 C 28.2509 -2.6751 2.20543 0
M  V30 280 C 27.3119 -2.56836 3.43997 0
M  V30 281 C 26.5449 -3.84092 3.70553 0
M  V30 282 O 26.7679 -4.85545 2.99336 0
M  V30 283 O 25.7019 -3.83288 4.64084 0
M  V30 284 H 29.5279 -1.05374 2.84833 0
M  V30 285 H 27.1129 -0.456237 1.42263 0
M  V30 286 H 28.9949 -3.46492 2.39835 0
M  V30 287 H 27.6699 -2.9577 1.31536 0
M  V30 288 H 26.5769 -1.76172 3.30021 0
M  V30 289 H 27.9099 -2.33523 4.33275 0
M  V30 290 N 29.562 -1.4872 -0.521534 0
M  V30 291 C 30.839 -1.4766 -1.2828 0
M  V30 292 C 31.219 -0.19292 -2.10217 0
M  V30 293 O 30.567 0.825193 -2.13079 0
M  V30 294 C 30.777 -2.74358 -2.15705 0
M  V30 295 C 32.125 -3.23028 -2.75569 0
M  V30 296 O 33.149 -2.75333 -2.25987 0
M  V30 297 O 32.008 -4.0604 -3.65778 0
M  V30 298 H 29.102 -0.590085 -0.579421 0
M  V30 299 H 31.648 -1.60963 -0.537492 0
M  V30 300 H 30.42 -3.59292 -1.54999 0
M  V30 301 H 30.043 -2.63816 -2.97467 0
M  V30 302 N 31.0401 0.771051 -1.3745 0
M  V30 303 C 32.2881 1.52661 -1.32435 0
M  V30 304 C 32.6091 1.9479 0.0905024 0
M  V30 305 O 31.8791 1.66348 1.03466 0
M  V30 306 H 30.4591 0.566218 -0.487244 0
M  V30 307 H 33.1211 0.917636 -1.71946 0
M  V30 308 H 32.2171 2.42568 -1.96385 0
M  V30 309 N 32.5182 1.22032 0.997298 0
M  V30 310 C 33.7432 1.06921 1.77715 0
M  V30 311 C 34.1682 -0.376226 1.84299 0
M  V30 312 O 33.5262 -1.27165 1.29223 0
M  V30 313 C 33.5742 1.67996 3.19076 0
M  V30 314 O 32.6782 0.930653 4.01762 0
M  V30 315 H 32.0192 0.375814 0.547412 0
M  V30 316 H 34.5492 1.61737 1.25309 0
M  V30 317 H 34.5592 1.72538 3.69723 0
M  V30 318 H 33.2342 2.73182 3.13599 0
M  V30 319 H 31.8112 0.960917 3.60307 0
M  V30 320 N 33.9963 -1.19345 1.0293 0
M  V30 321 C 34.9063 -2.26245 0.620515 0
M  V30 322 C 35.9223 -1.70486 -0.347928 0
M  V30 323 O 37.0983 -2.00347 -0.205704 0
M  V30 324 C 34.1633 -3.46693 -0.0218957 0
M  V30 325 C 33.2243 -4.17632 0.994102 0
M  V30 326 C 32.4573 -5.32329 0.382253 0
M  V30 327 O 32.6803 -5.64552 -0.814676 0
M  V30 328 O 31.6143 -5.91664 1.10531 0
M  V30 329 H 35.4403 -2.63453 1.51083 0
M  V30 330 H 33.0253 -1.26207 0.799513 0
M  V30 331 H 34.9073 -4.19683 -0.380072 0
M  V30 332 H 33.5823 -3.11333 -0.886209 0
M  V30 333 H 32.4893 -3.4676 1.40387 0
M  V30 334 H 33.8223 -4.56964 1.8288 0
M  V30 335 N 35.4744 -0.807222 -1.35358 0
M  V30 336 C 36.4374 -0.223665 -2.28106 0
M  V30 337 C 37.4374 0.589354 -1.4961 0
M  V30 338 O 38.6274 0.407745 -1.69361 0
M  V30 339 C 35.7594 0.688149 -3.33882 0
M  V30 340 H 36.9524 -1.04169 -2.81227 0
M  V30 341 H 34.5054 -0.577921 -1.45223 0
M  V30 342 H 35.2404 1.52984 -2.85948 0
M  V30 343 H 35.0254 0.10687 -3.91954 0
M  V30 344 H 36.5154 1.09075 -4.03104 0
M  V30 345 N 36.9525 1.47285 -0.560781 0
M  V30 346 C 38.2295 1.9558 0.0277798 0
M  V30 347 C 38.6095 1.5034 1.48192 0
M  V30 348 O 37.9575 0.743882 2.16052 0
M  V30 349 C 38.1675 3.48789 -0.121418 0
M  V30 350 C 39.5155 4.24594 0.0220912 0
M  V30 351 O 40.5395 3.56166 -0.0491439 0
M  V30 352 O 39.3985 5.46217 0.175958 0
M  V30 353 H 36.4925 0.824663 0.0621342 0
M  V30 354 H 39.0385 1.5767 -0.627556 0
M  V30 355 H 37.8105 3.74533 -1.13316 0
M  V30 356 H 37.4335 3.93473 0.571366 0
M  V30 357 N 38.4306 0.297415 1.54768 0
M  V30 358 C 39.8466 -0.0560823 1.59501 0
M  V30 359 C 40.0466 -1.52725 1.31444 0
M  V30 360 O 39.1026 -2.27947 1.08611 0
M  V30 361 C 40.4156 0.338631 2.98787 0
M  V30 362 C 41.9636 0.287097 3.11681 0
M  V30 363 C 42.4386 0.656579 4.53269 0
M  V30 364 N 43.9296 0.608977 4.59179 0
M  V30 365 C 44.6646 0.867385 5.66802 0
M  V30 366 N 44.1606 1.19157 6.82476 0
M  V30 367 N 45.9536 0.794687 5.56454 0
M  V30 368 H 38.1046 1.25624 1.71267 0
M  V30 369 H 40.3676 0.509057 0.799728 0
M  V30 370 H 40.0736 1.36263 3.2423 0
M  V30 371 H 39.9476 -0.309508 3.75928 0
M  V30 372 H 42.3346 -0.727649 2.85988 0
M  V30 373 H 42.4156 0.969809 2.36703 0
M  V30 374 H 42.0596 1.66912 4.7969 0
M  V30 375 H 41.9896 -0.0481649 5.26578 0
M  V30 376 H 44.4806 0.369198 3.76092 0
M  V30 377 H 44.7936 1.37482 7.60473 0
M  V30 378 H 43.1386 1.22958 6.84037 0
M  V30 379 H 46.3296 0.541098 4.64962 0
M  V30 380 H 46.5026 0.999445 6.40246 0
M  V30 381 N 39.9087 -1.5758 0.0250728 0
M  V30 382 C 41.1567 -1.91255 -0.653151 0
M  V30 383 C 41.4777 -0.901691 -1.729 0
M  V30 384 O 40.7477 0.0573785 -1.95816 0
M  V30 385 H 39.3277 -0.705942 -0.244243 0
M  V30 386 H 41.9897 -1.94767 0.0719209 0
M  V30 387 H 41.0857 -2.91752 -1.10847 0
M  V30 388 N 41.3868 0.248026 -1.55636 0
M  V30 389 C 42.3338 1.30707 -1.90222 0
M  V30 390 C 43.3038 1.47881 -0.756332 0
M  V30 391 O 44.4888 1.61883 -1.00988 0
M  V30 392 C 41.6288 2.65769 -2.20138 0
M  V30 393 C 40.7418 2.56612 -3.47526 0
M  V30 394 C 39.8768 3.8402 -3.67017 0
M  V30 395 C 38.9158 3.69476 -4.8801 0
M  V30 396 N 38.0528 4.88774 -5.04029 0
M  V30 397 H 42.8928 1.00512 -2.80538 0
M  V30 398 H 40.4298 0.485055 -1.38873 0
M  V30 399 H 42.3878 3.44386 -2.35487 0
M  V30 400 H 41.0178 2.94115 -1.33027 0
M  V30 401 H 40.0698 1.69571 -3.40514 0
M  V30 402 H 41.3818 2.41774 -4.36287 0
M  V30 403 H 40.5358 4.7108 -3.8232 0
M  V30 404 H 39.2748 4.01754 -2.76487 0
M  V30 405 H 38.2798 2.80799 -4.72686 0
M  V30 406 H 39.5048 3.53238 -5.8 0
M  V30 407 H 37.4508 5.0687 -4.16435 0
M  V30 408 H 37.3678 4.76562 -5.86877 0
M  V30 409 H 38.6358 5.77335 -5.23741 0
M  V30 410 N 42.8649 1.48995 0.513639 0
M  V30 411 C 43.7949 1.67636 1.62544 0
M  V30 412 C 44.7759 0.525087 1.61793 0
M  V30 413 O 45.9609 0.759502 1.78732 0
M  V30 414 C 43.0909 1.73114 3.01079 0
M  V30 415 C 42.0449 2.87905 3.16693 0
M  V30 416 C 41.3709 2.78486 4.56453 0
M  V30 417 C 42.6709 4.29005 2.97913 0
M  V30 418 H 44.3649 2.60716 1.47198 0
M  V30 419 H 41.9109 1.25465 0.706714 0
M  V30 420 H 43.8639 1.84742 3.78746 0
M  V30 421 H 42.5879 0.766241 3.17484 0
M  V30 422 H 41.2469 2.75859 2.41448 0
M  V30 423 H 40.8949 1.7993 4.69717 0
M  V30 424 H 40.5949 3.55523 4.67843 0
M  V30 425 H 42.1189 2.92104 5.36197 0
M  V30 426 H 43.5329 4.41798 3.65359 0
M  V30 427 H 41.9299 5.07166 3.20785 0
M  V30 428 H 42.9999 4.44329 1.94165 0
M  V30 429 N 44.343 -0.763751 1.37857 0
M  V30 430 C 45.62 -1.51244 1.24035 0
M  V30 431 C 46 -2.10472 -0.162649 0
M  V30 432 O 45.348 -1.96206 -1.17112 0
M  V30 433 C 45.558 -2.58694 2.34261 0
M  V30 434 C 46.906 -3.25878 2.72193 0
M  V30 435 O 47.93 -2.68993 2.33497 0
M  V30 436 O 46.789 -4.2874 3.38887 0
M  V30 437 H 43.883 -0.670243 0.484462 0
M  V30 438 H 46.429 -0.800031 1.49658 0
M  V30 439 H 45.201 -2.13105 3.2818 0
M  V30 440 H 44.824 -3.37527 2.10146 0
M  V30 441 N 45.8211 -1.22559 -0.990812 0
M  V30 442 C 47.0681 -1.05141 -1.73065 0
M  V30 443 C 47.3961 0.413191 -1.9006 0
M  V30 444 O 46.6511 1.32257 -1.44245 0
M  V30 445 C 46.9501 -1.71011 -3.13831 0
M  V30 446 C 46.6161 -3.20911 -3.16745 0
M  V30 447 C 45.2781 -3.61812 -3.17247 0
M  V30 448 C 47.6301 -4.16846 -3.12872 0
M  V30 449 C 44.9581 -4.97127 -3.1158 0
M  V30 450 C 47.3101 -5.5214 -3.08746 0
M  V30 451 C 45.9741 -5.92419 -3.07565 0
M  V30 452 H 45.2441 -0.384738 -0.633291 0
M  V30 453 H 47.8911 -1.5235 -1.16025 0
M  V30 454 H 46.1961 -1.16133 -3.74193 0
M  V30 455 H 47.8931 -1.55023 -3.69823 0
M  V30 456 H 44.4831 -2.88344 -3.17105 0
M  V30 457 H 48.6671 -3.86263 -3.11632 0
M  V30 458 H 43.9231 -5.27562 -3.09012 0
M  V30 459 H 48.0971 -6.26201 -3.04705 0
M  V30 460 H 45.7241 -6.97236 -3.02929 0
M  V30 461 N 47.2992 1.18797 -1.03562 0
M  V30 462 C 48.5472 1.88278 -0.734569 0
M  V30 463 C 48.8682 1.8043 0.739586 0
M  V30 464 O 48.1382 1.21925 1.53333 0
M  V30 465 H 46.7182 0.696991 -0.268725 0
M  V30 466 H 49.3802 1.44192 -1.31129 0
M  V30 467 H 48.4762 2.94443 -1.03489 0
M  V30 468 N 48.7773 0.814389 1.34928 0
M  V30 469 C 50.0023 0.410097 2.03305 0
M  V30 470 C 50.4273 -0.973464 1.60951 0
M  V30 471 O 49.7853 -1.63185 0.789964 0
M  V30 472 C 49.8333 0.51049 3.56968 0
M  V30 473 O 48.9373 -0.473035 4.09678 0
M  V30 474 H 48.2783 0.170088 0.641846 0
M  V30 475 H 50.8083 1.10244 1.72358 0
M  V30 476 H 50.8183 0.383135 4.06197 0
M  V30 477 H 49.4933 1.51963 3.87144 0
M  V30 478 H 48.0703 -0.305272 3.71648 0
M  V30 479 N 50.2554 -1.46986 0.568584 0
M  V30 480 C 51.5034 -2.02041 0.0487022 0
M  V30 481 C 51.8244 -1.44408 -1.31039 0
M  V30 482 O 51.0944 -0.623477 -1.85714 0
M  V30 483 H 49.6744 -0.746849 0.015014 0
M  V30 484 H 52.3364 -1.80257 0.741168 0
M  V30 485 H 51.4324 -3.12085 -0.0308961 0
M  V30 486 N 51.7335 -0.305618 -1.54608 0
M  V30 487 C 52.6635 0.561482 -2.26649 0
M  V30 488 C 53.6445 1.13415 -1.26772 0
M  V30 489 O 54.8295 1.16262 -1.55553 0
M  V30 490 C 51.9595 1.73122 -3.01075 0
M  V30 491 C 50.9135 1.2887 -4.08138 0
M  V30 492 C 50.2395 2.54396 -4.70305 0
M  V30 493 C 51.5395 0.416578 -5.20636 0
M  V30 494 H 53.2335 -0.0393902 -2.99374 0
M  V30 495 H 50.7795 -0.020385 -1.43986 0
M  V30 496 H 52.7325 2.34396 -3.50195 0
M  V30 497 H 51.4565 2.3584 -2.25936 0
M  V30 498 H 50.1155 0.698991 -3.59875 0
M  V30 499 H 49.7635 3.15439 -3.918 0
M  V30 500 H 49.4635 2.25486 -5.42614 0
M  V30 501 H 50.9875 3.16464 -5.2219 0
M  V30 502 H 52.4015 0.935116 -5.65622 0
M  V30 503 H 50.7985 0.221046 -5.99693 0
M  V30 504 H 51.8685 -0.557162 -4.81688 0
M  V30 505 N 53.2116 1.57565 -0.0334293 0
M  V30 506 C 54.6226 1.79746 0.504798 0
M  V30 507 C 54.9736 0.944091 1.71992 0
M  V30 508 O 54.0986 0.155694 2.15839 0
M  V30 509 C 54.6936 3.25997 0.922567 0
M  V30 510 C 53.2526 3.49159 1.40588 0
M  V30 511 C 52.3996 2.74785 0.372633 0
M  V30 512 H 55.3506 1.56565 -0.259436 0
M  V30 513 H 55.3716 3.35945 1.78666 0
M  V30 514 H 54.8836 3.88081 0.0379825 0
M  V30 515 H 52.9846 2.92332 2.31025 0
M  V30 516 H 53.0976 4.57873 1.41028 0
M  V30 517 H 51.4616 2.40391 0.841672 0
M  V30 518 H 52.2446 3.39587 -0.503559 0
M  V30 519 N 54.6897 -0.239769 1.55765 0
M  V30 520 C 56.1007 -0.808263 1.68297 0
M  V30 521 C 56.4517 -1.85736 0.632181 0
M  V30 522 O 55.5767 -2.15277 -0.220204 0
M  V30 523 C 56.1717 -1.47284 3.05111 0
M  V30 524 C 54.7307 -1.98895 3.19559 0
M  V30 525 C 53.8777 -0.842575 2.64189 0
M  V30 526 H 56.8287 -0.0154422 1.58692 0
M  V30 527 H 56.8497 -2.34111 2.99954 0
M  V30 528 H 56.3617 -0.709053 3.81568 0
M  V30 529 H 54.4627 -2.78132 2.47938 0
M  V30 530 H 54.5757 -2.18143 4.26556 0
M  V30 531 H 52.9397 -1.24501 2.22197 0
M  V30 532 H 53.7227 -0.0917552 3.43177 0
M  V30 533 N 56.1678 -1.49265 -0.50573 0
M  V30 534 C 57.1008 -1.60183 -1.62532 0
M  V30 535 C 58.0788 -0.451107 -1.56217 0
M  V30 536 O 59.2628 -0.666016 -1.76342 0
M  V30 537 C 56.3898 -1.55238 -3.01029 0
M  V30 538 C 55.4358 -2.7545 -3.25621 0
M  V30 539 S 56.2688 -4.37174 -3.09256 0
M  V30 540 C 57.4248 -4.34866 -4.50158 0
M  V30 541 H 57.6578 -2.54894 -1.53025 0
M  V30 542 H 55.1908 -1.38098 -0.690535 0
M  V30 543 H 57.1488 -1.53071 -3.80893 0
M  V30 544 H 55.8098 -0.618238 -3.07956 0
M  V30 545 H 55.0028 -2.68197 -4.26716 0
M  V30 546 H 54.6048 -2.75005 -2.53472 0
M  V30 547 H 56.8968 -4.06295 -5.42154 0
M  V30 548 H 57.8398 -5.36223 -4.62462 0
M  V30 549 H 58.2478 -3.65007 -4.30616 0
M  V30 550 N 57.6459 0.756429 -1.3826 0
M  V30 551 C 58.5559 1.9009 -1.37488 0
M  V30 552 C 59.5719 1.71855 -0.272366 0
M  V30 553 O 60.7479 1.94827 -0.510318 0
M  V30 554 C 57.8129 3.25421 -1.19592 0
M  V30 555 C 56.8739 3.56202 -2.39622 0
M  V30 556 C 56.1069 4.85075 -2.2257 0
M  V30 557 O 56.3299 5.57246 -1.21793 0
M  V30 558 O 55.2639 5.15269 -3.11098 0
M  V30 559 H 59.0899 1.93695 -2.33914 0
M  V30 560 H 56.6749 0.901313 -1.1915 0
M  V30 561 H 58.5569 4.06337 -1.11661 0
M  V30 562 H 57.2319 3.22634 -0.262486 0
M  V30 563 H 56.1389 2.75458 -2.53128 0
M  V30 564 H 57.4719 3.63747 -3.31586 0
M  V30 565 N 59.124 1.23083 0.984299 0
M  V30 566 C 60.349 1.088 1.76571 0
M  V30 567 C 60.774 -0.356657 1.84688 0
M  V30 568 O 60.132 -1.25788 1.30565 0
M  V30 569 C 60.18 1.71371 3.17277 0
M  V30 570 O 59.284 0.973213 4.00752 0
M  V30 571 H 58.625 0.381599 0.543395 0
M  V30 572 H 61.155 1.63057 1.23587 0
M  V30 573 H 61.165 1.76449 3.67872 0
M  V30 574 H 59.84 2.76493 3.10684 0
M  V30 575 H 58.417 0.999078 3.59267 0
M  V30 576 N 60.6021 -1.18246 1.0419 0
M  V30 577 C 61.5341 -2.2142 0.592088 0
M  V30 578 C 62.5471 -1.59233 -0.338909 0
M  V30 579 O 63.7361 -1.78002 -0.133231 0
M  V30 580 C 60.8361 -3.38546 -0.154854 0
M  V30 581 C 60.0091 -4.3031 0.784328 0
M  V30 582 C 59.0681 -5.26138 0.0804583 0
M  V30 583 O 58.0941 -5.64738 0.711292 0
M  V30 584 N 59.2961 -5.68261 -1.18574 0
M  V30 585 H 62.0611 -2.60636 1.47949 0
M  V30 586 H 59.6221 -1.33044 0.922544 0
M  V30 587 H 61.6141 -3.99678 -0.635606 0
M  V30 588 H 60.1841 -2.98012 -0.943811 0
M  V30 589 H 59.4041 -3.66764 1.44491 0
M  V30 590 H 60.6921 -4.8852 1.42218 0
M  V30 591 H 60.0901 -5.38957 -1.71876 0
M  V30 592 H 58.6471 -6.31584 -1.61074 0
M  V30 593 N 62.0802 -0.821533 -1.34494 0
M  V30 594 C 63.3272 -0.408946 -1.98328 0
M  V30 595 C 63.6552 1.02764 -1.65136 0
M  V30 596 O 62.9102 1.73026 -0.914349 0
M  V30 597 C 63.2092 -0.556512 -3.53041 0
M  V30 598 C 62.8752 -1.95861 -4.0614 0
M  V30 599 C 61.5372 -2.34217 -4.20352 0
M  V30 600 C 63.8892 -2.87523 -4.34718 0
M  V30 601 C 61.2172 -3.63572 -4.6047 0
M  V30 602 C 63.5692 -4.1634 -4.76281 0
M  V30 603 C 62.2332 -4.54675 -4.88699 0
M  V30 604 H 61.5032 -0.149644 -0.725732 0
M  V30 605 H 64.1502 -1.04521 -1.6046 0
M  V30 606 H 62.4552 0.163148 -3.9146 0
M  V30 607 H 64.1522 -0.217826 -4.00408 0
M  V30 608 H 60.7422 -1.65066 -3.95539 0
M  V30 609 H 64.9262 -2.59133 -4.23277 0
M  V30 610 H 60.1822 -3.93101 -4.68275 0
M  V30 611 H 64.3562 -4.87455 -4.97354 0
M  V30 612 H 61.9832 -5.54959 -5.19542 0
M  V30 613 N 63.5583 1.46682 -0.576371 0
M  V30 614 C 64.4903 2.28341 0.198231 0
M  V30 615 C 65.5033 1.38141 0.861453 0
M  V30 616 O 66.6923 1.62797 0.732082 0
M  V30 617 C 63.7923 3.12986 1.29972 0
M  V30 618 C 62.9653 4.31271 0.729639 0
M  V30 619 C 62.0243 4.97363 1.71803 0
M  V30 620 O 61.0503 5.55156 1.25658 0
M  V30 621 N 62.2523 4.93796 3.05198 0
M  V30 622 H 65.0173 2.9546 -0.502324 0
M  V30 623 H 62.5783 1.56525 -0.413715 0
M  V30 624 H 64.5703 3.54066 1.96008 0
M  V30 625 H 63.1403 2.47984 1.90323 0
M  V30 626 H 62.3603 3.94052 -0.108012 0
M  V30 627 H 63.6483 5.07739 0.328438 0
M  V30 628 H 63.0463 4.48077 3.45317 0
M  V30 629 H 61.6033 5.38837 3.6674 0
M  V30 630 N 65.0364 0.313813 1.54444 0
M  V30 631 C 66.2844 -0.291099 1.99993 0
M  V30 632 C 66.6054 -1.53418 1.20366 0
M  V30 633 O 65.8754 -1.93544 0.302927 0
M  V30 634 H 64.4554 -0.110552 0.738774 0
M  V30 635 H 67.1174 0.428106 1.9014 0
M  V30 636 H 66.2134 -0.554268 3.07139 0
M  V30 637 N 66.5145 -1.57545 0.0417849 0
M  V30 638 C 67.4245 -2.14451 -0.951213 0
M  V30 639 C 68.4405 -1.09992 -1.34825 0
M  V30 640 O 69.6165 -1.42114 -1.42708 0
M  V30 641 C 66.6815 -2.67063 -2.21084 0
M  V30 642 C 65.7425 -3.86284 -1.87304 0
M  V30 643 C 64.9755 -4.36378 -3.07261 0
M  V30 644 O 65.1985 -3.85587 -4.20332 0
M  V30 645 O 64.1325 -5.28077 -2.88822 0
M  V30 646 H 67.9585 -2.99601 -0.497287 0
M  V30 647 H 65.5435 -1.48317 -0.179567 0
M  V30 648 H 67.4255 -3.00914 -2.95006 0
M  V30 649 H 66.1005 -1.84989 -2.65633 0
M  V30 650 H 65.0075 -3.57338 -1.10727 0
M  V30 651 H 66.3405 -4.6956 -1.47562 0
M  V30 652 N 67.9926 0.231505 -1.5589 0
M  V30 653 C 69.2696 0.981096 -1.69215 0
M  V30 654 C 69.6496 2.02799 -0.586164 0
M  V30 655 O 68.9976 2.24823 0.408253 0
M  V30 656 C 69.2076 1.60054 -3.10135 0
M  V30 657 C 70.5556 2.09658 -3.69227 0
M  V30 658 O 71.5796 1.69967 -3.13033 0
M  V30 659 O 70.4386 2.8258 -4.67772 0
M  V30 660 H 67.5326 0.457653 -0.688827 0
M  V30 661 H 70.0786 0.224073 -1.68214 0
M  V30 662 H 68.8506 0.844105 -3.82087 0
M  V30 663 H 68.4736 2.42336 -3.15212 0
M  V30 664 N 69.4707 1.49531 0.497807 0
M  V30 665 C 70.8867 1.36365 0.829266 0
M  V30 666 C 71.0867 0.399184 1.97506 0
M  V30 667 O 70.1427 -0.167977 2.51941 0
M  V30 668 C 71.4557 2.77153 1.16647 0
M  V30 669 C 73.0037 2.85877 1.27449 0
M  V30 670 C 73.4787 4.2744 1.64497 0
M  V30 671 N 74.9697 4.30265 1.7154 0
M  V30 672 C 75.7047 5.3677 2.01656 0
M  V30 673 N 75.2007 6.53516 2.29976 0
M  V30 674 N 76.9937 5.24189 2.02934 0
M  V30 675 H 69.1447 2.10831 -0.257703 0
M  V30 676 H 71.4077 0.946534 -0.0527091 0
M  V30 677 H 71.1137 3.49442 0.397872 0
M  V30 678 H 70.9877 3.12722 2.10915 0
M  V30 679 H 73.3747 2.13824 2.0338 0
M  V30 680 H 73.4557 2.53887 0.312244 0
M  V30 681 H 73.0997 5.00021 0.891151 0
M  V30 682 H 73.0297 4.56896 2.61827 0
M  V30 683 H 75.5207 3.4607 1.51802 0
M  V30 684 H 75.8337 7.30506 2.52153 0
M  V30 685 H 74.1787 6.56737 2.27425 0
M  V30 686 H 77.3697 4.31988 1.80289 0
M  V30 687 H 77.5427 6.07286 2.26071 0
M  V30 688 N 70.9488 -0.749086 1.3866 0
M  V30 689 C 71.8958 -1.86291 1.36251 0
M  V30 690 C 72.8658 -1.64578 0.224347 0
M  V30 691 O 74.0508 -1.86181 0.417279 0
M  V30 692 C 71.1908 -3.23644 1.19786 0
M  V30 693 C 70.3038 -3.57158 2.43027 0
M  V30 694 C 69.4388 -4.83838 2.19258 0
M  V30 695 C 68.4778 -5.10152 3.38247 0
M  V30 696 N 67.6148 -6.28029 3.13884 0
M  V30 697 H 72.4548 -1.87685 2.3147 0
M  V30 698 H 69.9918 -0.917287 1.14997 0
M  V30 699 H 71.9498 -4.0291 1.08254 0
M  V30 700 H 70.5798 -3.21566 0.282031 0
M  V30 701 H 69.6318 -2.72701 2.65214 0
M  V30 702 H 70.9438 -3.7253 3.31697 0
M  V30 703 H 70.0978 -5.71057 2.04888 0
M  V30 704 H 68.8368 -4.70614 1.2796 0
M  V30 705 H 67.8418 -4.21401 3.53131 0
M  V30 706 H 69.0668 -5.25271 4.30427 0
M  V30 707 H 67.0128 -6.1612 2.25238 0
M  V30 708 H 66.9298 -6.43922 3.96106 0
M  V30 709 H 68.1978 -7.18124 3.03179 0
M  V30 710 N 72.4269 -1.23603 -0.977757 0
M  V30 711 C 73.6739 -1.06971 -1.71941 0
M  V30 712 C 74.0019 0.393009 -1.90488 0
M  V30 713 O 73.2569 1.30719 -1.4564 0
M  V30 714 C 73.5559 -1.7433 -3.11999 0
M  V30 715 C 73.2219 -3.24252 -3.13323 0
M  V30 716 C 71.8839 -3.65156 -3.13392 0
M  V30 717 C 74.2359 -4.20141 -3.08433 0
M  V30 718 C 71.5639 -5.00403 -3.0629 0
M  V30 719 C 73.9159 -5.55384 -3.02873 0
M  V30 720 C 72.5799 -5.95647 -3.01265 0
M  V30 721 H 71.8499 -0.391433 -0.629175 0
M  V30 722 H 74.4969 -1.53572 -1.14403 0
M  V30 723 H 72.8019 -1.20096 -3.7294 0
M  V30 724 H 74.4989 -1.58936 -3.68158 0
M  V30 725 H 71.0889 -2.91692 -3.14029 0
M  V30 726 H 75.2729 -3.89547 -3.07517 0
M  V30 727 H 70.5289 -5.3081 -3.03399 0
M  V30 728 H 74.7029 -6.29398 -2.98046 0
M  V30 729 H 72.3299 -7.0041 -2.95516 0
M  V30 730 N 73.905 1.17692 -1.04816 0
M  V30 731 C 74.868 2.19787 -0.650117 0
M  V30 732 C 75.868 1.58044 0.296427 0
M  V30 733 O 77.058 1.74012 0.0808097 0
M  V30 734 C 74.19 3.40869 0.0456987 0
M  V30 735 H 75.383 2.56516 -1.5537 0
M  V30 736 H 72.936 1.31708 -0.841594 0
M  V30 737 H 73.671 3.09681 0.962726 0
M  V30 738 H 73.456 3.86928 -0.634727 0
M  V30 739 H 74.946 4.16445 0.310432 0
M  V30 740 N 75.3831 0.828654 1.34056 0
M  V30 741 C 76.7941 0.477534 1.8049 0
M  V30 742 C 77.1451 -1.00258 1.6865 0
M  V30 743 O 76.2701 -1.78057 1.22982 0
M  V30 744 C 76.8651 0.860018 3.27703 0
M  V30 745 C 75.4241 0.561185 3.72193 0
M  V30 746 C 74.5711 1.07385 2.55663 0
M  V30 747 H 77.5221 1.0183 1.21722 0
M  V30 748 H 77.5431 0.166038 3.80138 0
M  V30 749 H 77.0551 1.93731 3.36288 0
M  V30 750 H 75.1561 -0.506465 3.69142 0
M  V30 751 H 75.2691 1.10926 4.66082 0
M  V30 752 H 73.6331 0.495149 2.49841 0
M  V30 753 H 74.4161 2.15771 2.67016 0
M  V30 754 N 76.8612 -1.46375 0.584142 0
M  V30 755 C 77.7932 -2.28443 -0.186119 0
M  V30 756 C 78.8062 -1.38596 -0.854115 0
M  V30 757 O 79.9952 -1.63183 -0.723438 0
M  V30 758 C 77.0952 -3.13671 -1.28311 0
M  V30 759 C 76.2682 -4.31652 -0.706758 0
M  V30 760 C 75.3272 -4.98267 -1.69163 0
M  V30 761 O 74.3532 -5.55815 -1.22712 0
M  V30 762 N 75.5552 -4.95408 -3.02575 0
M  V30 763 H 78.3202 -2.9519 0.517986 0
M  V30 764 H 75.8812 -1.56303 0.42201 0
M  V30 765 H 77.8732 -3.55101 -1.94128 0
M  V30 766 H 76.4432 -2.48989 -1.89005 0
M  V30 767 H 75.6632 -3.93989 0.128908 0
M  V30 768 H 76.9512 -5.07906 -0.301506 0
M  V30 769 H 76.3492 -4.49902 -3.42936 0
M  V30 770 H 74.9062 -5.40774 -3.63877 0
M  V30 771 N 78.3393 -0.321999 -1.54275 0
M  V30 772 C 79.5883 0.281931 -1.9972 0
M  V30 773 C 79.9013 1.53369 -1.21397 0
M  V30 774 O 81.1073 2.21352 -1.57211 0
M  V30 775 C 79.5633 0.5529 -3.55628 0
M  V30 776 C 79.1713 -0.681721 -4.42783 0
M  V30 777 C 80.9153 1.11687 -4.09544 0
M  V30 778 C 78.8223 -0.382742 -5.9016 0
M  V30 779 H 77.7523 0.109124 -0.746062 0
M  V30 780 H 80.4033 -0.43398 -1.78294 0
M  V30 781 H 78.7853 1.32896 -3.73035 0
M  V30 782 H 79.9593 -1.45723 -4.37151 0
M  V30 783 H 78.2743 -1.1658 -3.99748 0
M  V30 784 H 80.8713 1.35515 -5.17242 0
M  V30 785 H 81.2143 2.06575 -3.61431 0
M  V30 786 H 81.7473 0.402032 -3.95763 0
M  V30 787 H 78.4863 -1.30076 -6.42464 0
M  V30 788 H 78.0063 0.355094 -5.98748 0
M  V30 789 H 79.6853 0.00800157 -6.47 0
M  V30 790 N 79.8174 1.5752 -0.0501392 0
M  V30 791 C 81.2334 1.56631 0.306402 0
M  V30 792 C 81.4334 1.0577 1.71508 0
M  V30 793 O 80.4894 0.713837 2.422 0
M  V30 794 C 81.8024 3.00393 0.135811 0
M  V30 795 C 83.3504 3.12315 0.206993 0
M  V30 796 C 83.8254 4.57954 0.064944 0
M  V30 797 N 85.3164 4.63041 0.121254 0
M  V30 798 C 86.0514 5.73389 0.0354381 0
M  V30 799 N 85.5474 6.92724 -0.102666 0
M  V30 800 N 87.3404 5.62026 0.090946 0
M  V30 801 H 79.4914 1.88903 -0.971046 0
M  V30 802 H 81.7544 0.869876 -0.376855 0
M  V30 803 H 81.4604 3.41635 -0.835384 0
M  V30 804 H 81.3344 3.66373 0.897275 0
M  V30 805 H 83.7214 2.70973 1.16866 0
M  V30 806 H 83.8024 2.49016 -0.585208 0
M  V30 807 H 83.4464 4.99981 -0.893394 0
M  V30 808 H 83.3764 5.19258 0.876277 0
M  V30 809 H 85.8674 3.77216 0.227284 0
M  V30 810 H 86.1804 7.72633 -0.160882 0
M  V30 811 H 84.5254 6.94864 -0.137737 0
M  V30 812 H 87.7164 4.67684 0.197388 0
M  V30 813 H 87.8894 6.47997 0.0206089 0
M  V30 814 N 81.2955 -0.223234 1.56011 0
M  V30 815 C 82.5415 -0.949279 1.79211 0
M  V30 816 C 82.8745 -1.84054 0.619494 0
M  V30 817 O 82.1495 -1.90726 -0.381317 0
M  V30 818 C 82.4325 -1.78965 3.12479 0
M  V30 819 C 82.2855 -0.924997 4.40186 0
M  V30 820 C 83.6045 -2.76774 3.42175 0
M  V30 821 H 80.7235 -0.343676 0.651963 0
M  V30 822 H 83.3655 -0.218253 1.88742 0
M  V30 823 H 81.5155 -2.41291 3.04485 0
M  V30 824 H 83.1875 -0.318615 4.60198 0
M  V30 825 H 81.4305 -0.230344 4.33188 0
M  V30 826 H 82.1015 -1.54735 5.29869 0
M  V30 827 H 84.5775 -2.24584 3.50287 0
M  V30 828 H 83.4535 -3.32678 4.36597 0
M  V30 829 H 83.7145 -3.54429 2.64258 0
M  V30 830 N 82.7736 -1.49793 -0.48987 0
M  V30 831 C 83.7216 -1.67783 -1.61095 0
M  V30 832 C 84.7156 -0.543683 -1.60438 0
M  V30 833 O 85.9216 -0.723647 -1.64813 0
M  V30 834 H 82.2966 -0.529255 -0.534222 0
M  V30 835 H 84.2676 -2.61861 -1.43078 0
M  V30 836 C 83.0166 -1.77191 -2.99164 0
M  V30 837 H 82.3396 -2.63841 -3.0038 0
M  V30 838 H 83.7796 -1.93809 -3.77113 0
M  V30 839 C 82.2386 -0.519203 -3.32875 0
M  V30 840 O 82.7686 0.350124 -4.00171 0
M  V30 841 N 80.9746 -0.378816 -2.8812 0
M  V30 842 H 80.5216 -1.08725 -2.33531 0
M  V30 843 H 80.4796 0.458239 -3.11043 0
M  V30 844 N 84.2517 0.741722 -1.39055 0
M  V30 845 C 85.1817 1.869 -1.39966 0
M  V30 846 C 86.1627 1.6804 -0.26392 0
M  V30 847 O 87.3477 1.88458 -0.468755 0
M  V30 848 C 84.4777 3.24572 -1.23574 0
M  V30 849 C 83.4317 3.58056 -2.34477 0
M  V30 850 C 82.7577 4.94593 -2.0318 0
M  V30 851 C 84.0577 3.61716 -3.76774 0
M  V30 852 H 85.7517 1.86395 -2.34302 0
M  V30 853 H 83.2977 0.895361 -1.1278 0
M  V30 854 H 85.2507 4.031 -1.22834 0
M  V30 855 H 83.9747 3.25587 -0.257045 0
M  V30 856 H 82.6337 2.81854 -2.34423 0
M  V30 857 H 82.2817 4.92181 -1.03765 0
M  V30 858 H 81.9817 5.17964 -2.77465 0
M  V30 859 H 83.5057 5.75486 -2.04079 0
M  V30 860 H 84.9197 4.30335 -3.78794 0
M  V30 861 H 83.3167 3.96603 -4.50362 0
M  V30 862 H 84.3867 2.61672 -4.08235 0
M  V30 863 N 85.7298 1.2412 0.971189 0
M  V30 864 C 86.6778 1.02812 2.08644 0
M  V30 865 C 87.6718 -0.0358403 1.69362 0
M  V30 866 O 88.8778 0.118429 1.7961 0
M  V30 867 H 85.2528 0.315428 0.682649 0
M  V30 868 H 87.2238 1.97397 2.23779 0
M  V30 869 C 85.9728 0.645874 3.41649 0
M  V30 870 H 85.2958 1.45632 3.72332 0
M  V30 871 H 86.7358 0.536366 4.20594 0
M  V30 872 C 85.1948 -0.646713 3.30635 0
M  V30 873 O 85.7248 -1.69338 3.64263 0
M  V30 874 N 83.9308 -0.626115 2.83775 0
M  V30 875 H 83.4778 0.225988 2.56607 0
M  V30 876 H 83.4358 -1.49117 2.76788 0
M  V30 877 N 87.2079 -1.17134 1.05439 0
M  V30 878 C 88.4379 -1.91094 0.785274 0
M  V30 879 C 88.8459 -1.77198 -0.663142 0
M  V30 880 O 88.1889 -1.10835 -1.46497 0
M  V30 881 C 88.2509 -3.42594 1.08949 0
M  V30 882 C 87.9149 -3.80274 2.53458 0
M  V30 883 C 88.9119 -3.82912 3.51673 0
M  V30 884 C 86.5969 -4.11162 2.88532 0
M  V30 885 C 88.5909 -4.15913 4.83006 0
M  V30 886 C 86.2779 -4.43831 4.20068 0
M  V30 887 C 87.2759 -4.46185 5.17115 0
M  V30 888 O 86.9639 -4.78083 6.46291 0
M  V30 889 H 86.6959 -0.613073 0.284811 0
M  V30 890 H 89.2499 -1.49461 1.40893 0
M  V30 891 H 87.4799 -3.84534 0.408741 0
M  V30 892 H 89.1689 -3.97817 0.805991 0
M  V30 893 H 89.9349 -3.5917 3.25917 0
M  V30 894 H 85.8139 -4.085 2.13656 0
M  V30 895 H 89.3579 -4.17665 5.5875 0
M  V30 896 H 85.2549 -4.67037 4.45586 0
M  V30 897 H 86.0229 -4.9593 6.51149 0
M  V30 898 N 88.686 -0.835752 -1.33615 0
M  V30 899 C 90.102 -0.523139 -1.50783 0
M  V30 900 C 90.302 0.950171 -1.77691 0
M  V30 901 O 89.358 1.73411 -1.83534 0
M  V30 902 C 90.671 -1.39378 -2.66448 0
M  V30 903 C 92.219 -1.39223 -2.80332 0
M  V30 904 C 92.694 -2.24765 -3.99055 0
M  V30 905 N 94.185 -2.22458 -4.06284 0
M  V30 906 C 94.92 -2.85386 -4.97336 0
M  V30 907 N 94.416 -3.57354 -5.93523 0
M  V30 908 N 96.209 -2.74872 -4.90308 0
M  V30 909 H 88.36 -1.78952 -1.14411 0
M  V30 910 H 90.623 -0.763297 -0.562212 0
M  V30 911 H 90.329 -2.44061 -2.53234 0
M  V30 912 H 90.203 -1.0676 -3.61776 0
M  V30 913 H 92.59 -0.353136 -2.92979 0
M  V30 914 H 92.671 -1.75846 -1.85773 0
M  V30 915 H 92.315 -3.28732 -3.87167 0
M  V30 916 H 92.245 -1.85485 -4.92852 0
M  V30 917 H 94.736 -1.70119 -3.37443 0
M  V30 918 H 95.049 -4.02584 -6.59656 0
M  V30 919 H 93.394 -3.61461 -5.93608 0
M  V30 920 H 96.585 -2.18213 -4.14126 0
M  V30 921 H 96.758 -3.24199 -5.61069 0
M  V30 922 N 90.1641 1.46063 -0.591896 0
M  V30 923 C 91.1111 2.30399 0.136069 0
M  V30 924 C 92.0811 1.41169 0.875238 0
M  V30 925 O 93.2661 1.70112 0.86409 0
M  V30 926 C 90.4061 3.25804 1.13781 0
M  V30 927 C 89.5191 4.30134 0.401137 0
M  V30 928 C 88.6541 5.12659 1.39121 0
M  V30 929 C 87.6931 6.0873 0.641462 0
M  V30 930 N 86.8301 6.8409 1.58004 0
M  V30 931 H 91.6701 2.92118 -0.589144 0
M  V30 932 H 89.2071 1.43959 -0.302342 0
M  V30 933 H 91.1651 3.79569 1.73156 0
M  V30 934 H 89.7951 2.65872 1.83062 0
M  V30 935 H 88.8471 3.79152 -0.307826 0
M  V30 936 H 90.1591 4.98458 -0.184565 0
M  V30 937 H 89.3131 5.70747 2.05749 0
M  V30 938 H 88.0521 4.44316 2.01084 0
M  V30 939 H 87.0571 5.49786 -0.0385419 0
M  V30 940 H 88.2821 6.79095 0.0270945 0
M  V30 941 H 86.2281 6.18449 2.18761 0
M  V30 942 H 86.1451 7.48709 1.04738 0
M  V30 943 H 87.4131 7.4673 2.23639 0
M  V30 944 N 91.6422 0.330177 1.54103 0
M  V30 945 C 92.8902 -0.269871 2.0029 0
M  V30 946 C 93.2112 -1.52133 1.21986 0
M  V30 947 O 92.4812 -1.93212 0.323438 0
M  V30 948 H 91.0612 -0.10271 0.739905 0
M  V30 949 H 93.7232 0.448249 1.89675 0
M  V30 950 H 92.8192 -0.52166 3.07709 0
M  V30 951 N 93.1203 -1.57491 0.0584922 0
M  V30 952 C 94.3483 -1.97296 -0.623037 0
M  V30 953 C 94.7633 -0.936338 -1.63946 0
M  V30 954 O 94.1203 0.0785981 -1.82331 0
M  V30 955 C 94.1713 -3.37183 -1.30345 0
M  V30 956 O 93.8923 -4.36872 -0.32773 0
M  V30 957 C 95.3933 -3.91788 -2.07406 0
M  V30 958 H 92.6133 -0.649153 -0.169826 0
M  V30 959 H 95.1573 -2.04106 0.12696 0
M  V30 960 H 93.3123 -3.31502 -2.00463 0
M  V30 961 H 93.7263 -5.18141 -0.814269 0
M  V30 962 H 95.2003 -4.91926 -2.50425 0
M  V30 963 H 95.6773 -3.27609 -2.92521 0
M  V30 964 H 96.2833 -4.00829 -1.42184 0
M  V30 965 N 94.5984 0.214957 -1.56127 0
M  V30 966 C 95.8464 0.936518 -1.79091 0
M  V30 967 C 96.1674 1.84606 -0.628148 0
M  V30 968 O 95.4374 1.92664 0.35462 0
M  V30 969 H 94.0174 0.3488 -0.660566 0
M  V30 970 H 96.6794 0.22523 -1.93594 0
M  V30 971 H 95.7754 1.53943 -2.71492 0
M  V30 972 N 96.0765 1.50051 0.48192 0
M  V30 973 C 97.0395 1.67584 1.5636 0
M  V30 974 C 98.0395 0.546894 1.51214 0
M  V30 975 O 99.2295 0.813725 1.54026 0
M  V30 976 C 96.3615 1.691 2.96003 0
M  V30 977 H 97.5545 2.64078 1.42136 0
M  V30 978 H 95.1075 1.39369 0.707533 0
M  V30 979 H 95.8425 0.742589 3.15684 0
M  V30 980 H 95.6275 2.51105 3.01146 0
M  V30 981 H 97.1175 1.84656 3.74556 0
M  V30 982 N 97.5546 -0.734337 1.39446 0
M  V30 983 C 98.7796 -1.52866 1.40167 0
M  V30 984 C 99.2046 -1.881 -0.00171513 0
M  V30 985 O 98.5626 -1.51957 -0.988879 0
M  V30 986 C 98.6106 -2.79235 2.28167 0
M  V30 987 O 97.7146 -3.75185 1.71201 0
M  V30 988 H 97.0556 -0.461618 0.477289 0
M  V30 989 H 99.5856 -0.905949 1.8345 0
M  V30 990 H 99.5956 -3.27963 2.42702 0
M  V30 991 H 98.2706 -2.52923 3.30156 0
M  V30 992 H 96.8476 -3.33958 1.65912 0
M  V30 993 N 99.0327 -1.24633 -0.964593 0
M  V30 994 C 99.9647 -0.999302 -2.06268 0
M  V30 995 C 100.978 0.0323226 -1.62768 0
M  V30 996 O 102.167 -0.205079 -1.77318 0
M  V30 997 C 99.2667 -0.486816 -3.35385 0
M  V30 998 C 98.4397 -1.5823 -4.07777 0
M  V30 999 C 97.4987 -1.07191 -5.15166 0
M  V30 1000 O 96.5247 -1.76426 -5.41168 0
M  V30 1001 N 97.7267 0.0920373 -5.80427 0
M  V30 1002 H 100.492 -1.94477 -2.28033 0
M  V30 1003 H 98.0527 -1.15704 -1.13244 0
M  V30 1004 H 100.045 -0.130066 -4.04491 0
M  V30 1005 H 98.6147 0.364459 -3.10468 0
M  V30 1006 H 97.8347 -2.11109 -3.32906 0
M  V30 1007 H 99.1227 -2.31854 -4.52903 0
M  V30 1008 H 98.5207 0.670784 -5.61709 0
M  V30 1009 H 97.0777 0.389905 -6.50633 0
M  V30 1010 N 100.511 1.16574 -1.06058 0
M  V30 1011 C 101.922 1.68662 -0.800632 0
M  V30 1012 C 102.273 1.84184 0.67608 0
M  V30 1013 O 101.398 1.53568 1.52466 0
M  V30 1014 C 101.993 3.06356 -1.44676 0
M  V30 1015 C 100.552 3.55575 -1.23465 0
M  V30 1016 C 99.6988 2.31616 -1.52477 0
M  V30 1017 H 102.65 1.00969 -1.22438 0
M  V30 1018 H 102.671 3.70636 -0.860788 0
M  V30 1019 H 102.183 2.95027 -2.52152 0
M  V30 1020 H 100.284 3.72167 -0.179527 0
M  V30 1021 H 100.397 4.37812 -1.94571 0
M  V30 1022 H 98.7608 2.36512 -0.945209 0
M  V30 1023 H 99.5438 2.22887 -2.61106 0
M  V30 1024 N 101.989 0.842826 1.3317 0
M  V30 1025 C 103.266 0.362216 1.92217 0
M  V30 1026 C 103.646 -1.15289 1.76838 0
M  V30 1027 O 102.994 -1.96914 1.15919 0
M  V30 1028 C 103.204 0.813495 3.39387 0
M  V30 1029 C 104.552 0.823804 4.16532 0
M  V30 1030 O 105.576 0.757358 3.48055 0
M  V30 1031 O 104.435 0.915193 5.38782 0
M  V30 1032 H 101.529 0.103317 0.820521 0
M  V30 1033 H 104.075 0.928942 1.42017 0
M  V30 1034 H 102.847 1.85624 3.4447 0
M  V30 1035 H 102.47 0.223561 3.96971 0
M  V30 1036 N 103.467 -1.45747 0.599634 0
M  V30 1037 C 104.878 -1.85853 0.177681 0
M  V30 1038 C 105.229 -1.50102 -1.26348 0
M  V30 1039 O 104.354 -0.923905 -1.95686 0
M  V30 1040 C 104.949 -3.37326 0.315688 0
M  V30 1041 C 103.508 -3.76365 -0.0515144 0
M  V30 1042 C 102.655 -2.69722 0.643822 0
M  V30 1043 H 105.606 -1.36661 0.806814 0
M  V30 1044 H 105.627 -3.77778 -0.454321 0
M  V30 1045 H 105.139 -3.63315 1.36468 0
M  V30 1046 H 103.24 -3.55993 -1.09999 0
M  V30 1047 H 103.353 -4.77916 0.336594 0
M  V30 1048 H 101.717 -2.54567 0.0822881 0
M  V30 1049 H 102.5 -2.98549 1.6948 0
M  V30 1050 N 104.945 -0.338344 -1.53925 0
M  V30 1051 C 105.893 0.536231 -2.26335 0
M  V30 1052 C 106.887 1.1063 -1.28286 0
M  V30 1053 O 108.093 1.05264 -1.46012 0
M  V30 1054 H 104.468 0.191602 -0.727181 0
M  V30 1055 H 106.439 -0.0965747 -2.98244 0
M  V30 1056 C 105.188 1.67803 -3.04528 0
M  V30 1057 H 104.511 1.24864 -3.79801 0
M  V30 1058 H 105.951 2.26526 -3.58416 0
M  V30 1059 C 104.41 2.60439 -2.13712 0
M  V30 1060 O 104.94 3.6255 -1.72975 0
M  V30 1061 N 103.146 2.29006 -1.78898 0
M  V30 1062 H 102.693 1.46011 -2.12223 0
M  V30 1063 H 102.651 2.91248 -1.18416 0
M  V30 1064 N 106.423 1.57458 -0.0668435 0
M  V30 1065 C 107.839 1.56947 0.289772 0
M  V30 1066 C 108.039 1.07584 1.70376 0
M  V30 1067 O 107.095 0.739486 2.41429 0
M  V30 1068 C 108.408 3.0052 0.103943 0
M  V30 1069 C 109.956 3.12517 0.173857 0
M  V30 1070 C 110.431 4.57997 0.0163682 0
M  V30 1071 N 111.922 4.63144 0.0721352 0
M  V30 1072 C 112.657 5.73394 -0.0253794 0
M  V30 1073 N 112.153 6.92576 -0.176133 0
M  V30 1074 N 113.946 5.62091 0.0313305 0
M  V30 1075 H 106.097 1.87863 -0.991027 0
M  V30 1076 H 108.36 0.86583 -0.38606 0
M  V30 1077 H 108.066 3.40729 -0.871572 0
M  V30 1078 H 107.94 3.67304 0.858366 0
M  V30 1079 H 110.327 2.72197 1.13985 0
M  V30 1080 H 110.408 2.48381 -0.611586 0
M  V30 1081 H 110.052 4.99005 -0.946374 0
M  V30 1082 H 109.982 5.20158 0.821153 0
M  V30 1083 H 112.473 3.77436 0.187263 0
M  V30 1084 H 112.786 7.72418 -0.242821 0
M  V30 1085 H 111.131 6.94678 -0.211429 0
M  V30 1086 H 114.322 4.67867 0.147773 0
M  V30 1087 H 114.495 6.47982 -0.048121 0
M  V30 1088 N 107.901 -0.206675 1.56239 0
M  V30 1089 C 109.148 -0.928842 1.79941 0
M  V30 1090 C 109.476 -1.83734 0.638131 0
M  V30 1091 O 108.731 -1.92039 -0.376746 0
M  V30 1092 C 109.03 -1.78675 3.09532 0
M  V30 1093 C 108.696 -1.03022 4.38973 0
M  V30 1094 C 107.358 -0.821302 4.74139 0
M  V30 1095 C 109.71 -0.497081 5.18824 0
M  V30 1096 C 107.038 -0.0675719 5.86661 0
M  V30 1097 C 109.39 0.24338 6.32132 0
M  V30 1098 C 108.054 0.463422 6.65889 0
M  V30 1099 H 107.324 -0.339887 0.658451 0
M  V30 1100 H 109.971 -0.195977 1.90495 0
M  V30 1101 H 108.276 -2.58794 2.94165 0
M  V30 1102 H 109.973 -2.34792 3.25075 0
M  V30 1103 H 106.563 -1.20306 4.11369 0
M  V30 1104 H 110.747 -0.645921 4.92079 0
M  V30 1105 H 106.003 0.112995 6.11296 0
M  V30 1106 H 110.177 0.66393 6.93228 0
M  V30 1107 H 107.804 1.04938 7.52922 0
M  V30 1108 N 109.379 -1.50304 -0.473955 0
M  V30 1109 C 110.656 -1.51667 -1.23518 0
M  V30 1110 C 111.036 -0.259701 -2.09496 0
M  V30 1111 O 110.384 0.756986 -2.15597 0
M  V30 1112 C 110.594 -2.81082 -2.06868 0
M  V30 1113 C 111.942 -3.31631 -2.65153 0
M  V30 1114 O 112.966 -2.82384 -2.17113 0
M  V30 1115 O 111.825 -4.17471 -3.52675 0
M  V30 1116 H 108.919 -0.60822 -0.560355 0
M  V30 1117 H 111.465 -1.62592 -0.486011 0
M  V30 1118 H 110.237 -3.64041 -1.4349 0
M  V30 1119 H 109.86 -2.73146 -2.88924 0
M  V30 1120 N 110.857 0.726932 -1.39834 0
M  V30 1121 C 112.273 1.03354 -1.21615 0
M  V30 1122 C 112.473 2.01327 -0.08338 0
M  V30 1123 O 111.529 2.46158 0.56238 0
M  V30 1124 C 112.842 1.58811 -2.55342 0
M  V30 1125 C 114.39 1.70851 -2.62257 0
M  V30 1126 C 114.865 2.29716 -3.96225 0
M  V30 1127 N 116.356 2.37116 -3.97907 0
M  V30 1128 C 117.091 2.83619 -4.98345 0
M  V30 1129 N 116.587 3.29958 -6.09179 0
M  V30 1130 N 118.38 2.82901 -4.8572 0
M  V30 1131 H 110.531 0.0773069 -2.12259 0
M  V30 1132 H 112.794 0.0969102 -0.943034 0
M  V30 1133 H 112.5 0.942855 -3.38826 0
M  V30 1134 H 112.374 2.57502 -2.75632 0
M  V30 1135 H 114.761 2.34497 -1.79152 0
M  V30 1136 H 114.842 0.707913 -2.45809 0
M  V30 1137 H 114.486 1.66696 -4.79765 0
M  V30 1138 H 114.416 3.30469 -4.09997 0
M  V30 1139 H 116.907 2.04374 -3.17868 0
M  V30 1140 H 117.22 3.63976 -6.8172 0
M  V30 1141 H 115.565 3.27946 -6.12761 0
M  V30 1142 H 118.756 2.46027 -3.98231 0
M  V30 1143 H 118.929 3.18827 -5.6414 0
M  V30 1144 N 112.336 1.25143 0.95797 0
M  V30 1145 C 113.613 1.00472 1.67823 0
M  V30 1146 C 113.993 -0.470056 2.058 0
M  V30 1147 O 113.341 -1.44663 1.76875 0
M  V30 1148 C 113.551 1.9372 2.90299 0
M  V30 1149 C 114.899 2.21371 3.62326 0
M  V30 1150 O 115.923 1.91451 3.00375 0
M  V30 1151 O 114.782 2.72231 4.7387 0
M  V30 1152 H 111.876 0.380752 0.734137 0
M  V30 1153 H 114.422 1.36283 1.01119 0
M  V30 1154 H 113.194 2.93316 2.59001 0
M  V30 1155 H 112.817 1.58286 3.64735 0
M  V30 1156 N 113.814 -1.1601 1.06675 0
M  V30 1157 C 115.23 -1.38622 0.790948 0
M  V30 1158 C 115.43 -1.92109 -0.607965 0
M  V30 1159 O 114.486 -2.12239 -1.36787 0
M  V30 1160 C 115.799 -2.36347 1.85905 0
M  V30 1161 C 117.347 -2.50023 1.88301 0
M  V30 1162 C 117.822 -3.51033 2.94176 0
M  V30 1163 N 119.313 -3.58563 2.93235 0
M  V30 1164 C 120.048 -4.36521 3.71803 0
M  V30 1165 N 119.544 -5.17869 4.602 0
M  V30 1166 N 121.337 -4.31541 3.60178 0
M  V30 1167 H 113.488 -0.796294 1.96908 0
M  V30 1168 H 115.751 -0.412597 0.853503 0
M  V30 1169 H 115.457 -2.04147 2.86386 0
M  V30 1170 H 115.331 -3.36042 1.71334 0
M  V30 1171 H 117.718 -2.81524 0.884769 0
M  V30 1172 H 117.799 -1.5035 2.06951 0
M  V30 1173 H 117.443 -3.20268 3.94196 0
M  V30 1174 H 117.373 -4.50445 2.72776 0
M  V30 1175 H 119.864 -3.00496 2.29152 0
M  V30 1176 H 120.177 -5.74578 5.16797 0
M  V30 1177 H 118.522 -5.17199 4.64253 0
M  V30 1178 H 121.713 -3.67051 2.90502 0
M  V30 1179 H 121.886 -4.9205 4.21653 0
M  V30 1180 N 115.292 -0.849877 -1.32721 0
M  V30 1181 C 116.222 -0.306308 -2.31482 0
M  V30 1182 C 117.203 0.591952 -1.59468 0
M  V30 1183 O 118.388 0.513199 -1.87296 0
M  V30 1184 C 115.518 0.510204 -3.43532 0
M  V30 1185 C 114.472 -0.293209 -4.26994 0
M  V30 1186 C 113.798 0.647743 -5.30762 0
M  V30 1187 C 115.098 -1.51634 -4.99804 0
M  V30 1188 H 116.792 -1.13153 -2.77195 0
M  V30 1189 H 114.338 -0.545553 -1.33266 0
M  V30 1190 H 116.291 0.900856 -4.11658 0
M  V30 1191 H 115.015 1.36874 -2.96535 0
M  V30 1192 H 113.674 -0.665555 -3.60508 0
M  V30 1193 H 113.322 1.50299 -4.8002 0
M  V30 1194 H 113.022 0.11422 -5.87489 0
M  V30 1195 H 114.546 1.03567 -6.01753 0
M  V30 1196 H 115.96 -1.19824 -5.60638 0
M  V30 1197 H 114.357 -1.98745 -5.66234 0
M  V30 1198 H 115.427 -2.28018 -4.27943 0
M  V30 1199 N 116.77 1.45427 -0.607355 0
M  V30 1200 C 118.017 2.02241 -0.102455 0
M  V30 1201 C 118.345 1.4758 1.26691 0
M  V30 1202 O 117.6 0.640468 1.84923 0
M  V30 1203 C 117.899 3.57398 -0.0129263 0
M  V30 1204 C 117.565 4.3121 -1.31792 0
M  V30 1205 C 116.227 4.51092 -1.67539 0
M  V30 1206 C 118.579 4.73401 -2.18039 0
M  V30 1207 C 115.907 5.10422 -2.89285 0
M  V30 1208 C 118.259 5.34078 -3.39034 0
M  V30 1209 C 116.923 5.52184 -3.75033 0
M  V30 1210 H 116.193 0.740051 -0.037491 0
M  V30 1211 H 118.84 1.74494 -0.788926 0
M  V30 1212 H 117.145 3.84421 0.756806 0
M  V30 1213 H 118.842 3.99061 0.393881 0
M  V30 1214 H 115.432 4.16047 -1.02968 0
M  V30 1215 H 119.616 4.57774 -1.91721 0
M  V30 1216 H 114.872 5.22629 -3.17283 0
M  V30 1217 H 119.046 5.65724 -4.06115 0
M  V30 1218 H 116.673 5.97925 -4.69457 0
M  V30 1219 N 118.248 0.346503 1.53744 0
M  V30 1220 C 119.196 -0.52422 2.26616 0
M  V30 1221 C 120.19 -1.09948 1.28871 0
M  V30 1222 O 121.396 -1.04488 1.46568 0
M  V30 1223 H 117.771 -0.187743 0.728187 0
M  V30 1224 H 119.742 0.11239 2.98188 0
M  V30 1225 C 118.491 -1.66186 3.05414 0
M  V30 1226 H 117.814 -1.22848 3.80458 0
M  V30 1227 H 119.254 -2.24622 3.59612 0
M  V30 1228 C 117.713 -2.59302 2.1509 0
M  V30 1229 O 118.243 -3.61628 1.74895 0
M  V30 1230 N 116.449 -2.28055 1.8011 0
M  V30 1231 H 115.996 -1.44883 2.12994 0
M  V30 1232 H 115.954 -2.90615 1.19958 0
M  V30 1233 N 119.726 -1.57421 0.075193 0
M  V30 1234 C 120.689 -2.11791 -0.876203 0
M  V30 1235 C 121.689 -1.04268 -1.22412 0
M  V30 1236 O 122.879 -1.30242 -1.15684 0
M  V30 1237 C 120.011 -2.62207 -2.17854 0
M  V30 1238 H 121.204 -2.9716 -0.40444 0
M  V30 1239 H 118.757 -1.55333 -0.173557 0
M  V30 1240 H 119.492 -1.803 -2.6956 0
M  V30 1241 H 119.277 -3.40802 -1.93897 0
M  V30 1242 H 120.767 -3.04335 -2.85955 0
M  V30 1243 N 121.204 0.198386 -1.56346 0
M  V30 1244 C 122.45 0.920648 -1.80698 0
M  V30 1245 C 122.783 1.83045 -0.648697 0
M  V30 1246 O 122.058 1.91308 0.350925 0
M  V30 1247 C 122.341 1.73971 -3.15287 0
M  V30 1248 C 122.194 0.85485 -4.41602 0
M  V30 1249 C 123.513 2.71296 -3.46535 0
M  V30 1250 H 120.632 0.333261 -0.657348 0
M  V30 1251 H 123.274 0.188198 -1.89066 0
M  V30 1252 H 121.424 2.36416 -3.08285 0
M  V30 1253 H 123.096 0.245362 -4.60647 0
M  V30 1254 H 121.339 0.161398 -4.335 0
M  V30 1255 H 122.01 1.46286 -5.32264 0
M  V30 1256 H 124.486 2.18983 -3.53816 0
M  V30 1257 H 123.362 3.2569 -4.41834 0
M  V30 1258 H 123.623 3.5018 -2.69864 0
M  V30 1259 N 122.682 1.50554 0.465978 0
M  V30 1260 C 123.907 1.65838 1.24549 0
M  V30 1261 C 124.332 0.343486 1.84937 0
M  V30 1262 O 123.69 -0.69324 1.67523 0
M  V30 1263 C 123.738 2.75533 2.32624 0
M  V30 1264 O 122.842 2.37142 3.37398 0
M  V30 1265 H 122.183 0.553893 0.366194 0
M  V30 1266 H 124.713 1.96959 0.553927 0
M  V30 1267 H 124.723 2.98763 2.77857 0
M  V30 1268 H 123.398 3.70962 1.88043 0
M  V30 1269 H 121.975 2.24377 2.97841 0
M  V30 1270 N 124.16 -0.719506 1.40217 0
M  V30 1271 C 125.576 -1.02707 1.22161 0
M  V30 1272 C 125.776 -2.0128 0.0940557 0
M  V30 1273 O 124.832 -2.46452 -0.549318 0
M  V30 1274 C 126.145 -1.57454 2.56181 0
M  V30 1275 C 127.693 -1.69458 2.63159 0
M  V30 1276 C 128.168 -2.27611 3.97438 0
M  V30 1277 N 129.659 -2.35002 3.99159 0
M  V30 1278 C 130.394 -2.80972 4.99842 0
M  V30 1279 N 129.89 -3.26723 6.10921 0
M  V30 1280 N 131.683 -2.80321 4.87213 0
M  V30 1281 H 123.834 -0.0660492 2.12297 0
M  V30 1282 H 126.097 -0.0919077 0.943534 0
M  V30 1283 H 125.803 -0.924873 3.39321 0
M  V30 1284 H 125.677 -2.56036 2.76993 0
M  V30 1285 H 128.064 -2.33543 1.80393 0
M  V30 1286 H 128.145 -0.694867 2.46181 0
M  V30 1287 H 127.789 -1.6415 4.80643 0
M  V30 1288 H 127.719 -3.2829 4.11744 0
M  V30 1289 H 130.21 -2.02685 3.18947 0
M  V30 1290 H 130.523 -3.60355 6.8364 0
M  V30 1291 H 128.868 -3.24692 6.14492 0
M  V30 1292 H 132.059 -2.43912 3.9953 0
M  V30 1293 H 132.232 -3.15831 5.65822 0
M  V30 1294 N 125.638 -1.25649 -0.95132 0
M  V30 1295 C 126.886 -1.10375 -1.69298 0
M  V30 1296 C 127.207 0.355339 -1.91735 0
M  V30 1297 O 126.477 1.25188 -1.50681 0
M  V30 1298 H 125.057 -0.405461 -0.627384 0
M  V30 1299 H 127.719 -1.57823 -1.14358 0
M  V30 1300 H 126.815 -1.61465 -2.67087 0
M  V30 1301 N 127.117 1.15442 -1.07289 0
M  V30 1302 C 128.363 1.86489 -0.796846 0
M  V30 1303 C 128.696 1.82078 0.675371 0
M  V30 1304 O 127.971 1.24346 1.4956 0
M  V30 1305 C 128.254 3.35626 -1.30489 0
M  V30 1306 C 128.107 3.48673 -2.84161 0
M  V30 1307 C 129.426 4.30357 -0.920907 0
M  V30 1308 H 126.545 0.677144 -0.290939 0
M  V30 1309 H 129.187 1.35633 -1.33056 0
M  V30 1310 H 127.337 3.79068 -0.850883 0
M  V30 1311 H 129.009 3.14099 -3.37846 0
M  V30 1312 H 127.252 2.90253 -3.22391 0
M  V30 1313 H 127.923 4.53453 -3.14777 0
M  V30 1314 H 130.399 3.94871 -1.3121 0
M  V30 1315 H 129.275 5.33193 -1.30372 0
M  V30 1316 H 129.536 4.4176 0.173226 0
M  V30 1317 N 128.595 0.856903 1.32268 0
M  V30 1318 C 130.006 0.515711 1.79436 0
M  V30 1319 C 130.357 -0.966586 1.70738 0
M  V30 1320 O 129.482 -1.75409 1.26731 0
M  V30 1321 C 130.077 0.929335 3.25805 0
M  V30 1322 C 128.636 0.640006 3.70919 0
M  V30 1323 C 127.783 1.12784 2.53328 0
M  V30 1324 H 130.734 1.04389 1.19535 0
M  V30 1325 H 130.755 0.246633 3.797 0
M  V30 1326 H 130.267 2.00821 3.32103 0
M  V30 1327 H 128.368 -0.428051 3.70133 0
M  V30 1328 H 128.481 1.20788 4.63624 0
M  V30 1329 H 126.845 0.548033 2.48734 0
M  V30 1330 H 127.628 2.21387 2.62379 0
M  V30 1331 N 130.073 -1.45103 0.615059 0
M  V30 1332 C 130.983 -2.34382 -0.101034 0
M  V30 1333 C 131.999 -1.51681 -0.852585 0
M  V30 1334 O 133.175 -1.8446 -0.808484 0
M  V30 1335 C 130.24 -3.29417 -1.08099 0
M  V30 1336 C 129.301 -4.28025 -0.330577 0
M  V30 1337 C 128.534 -5.1852 -1.26385 0
M  V30 1338 O 128.757 -5.12598 -2.50198 0
M  V30 1339 O 127.691 -5.97122 -0.756866 0
M  V30 1340 H 131.517 -2.97033 0.632855 0
M  V30 1341 H 129.102 -1.4461 0.375293 0
M  V30 1342 H 130.984 -3.87958 -1.6452 0
M  V30 1343 H 129.659 -2.69321 -1.79577 0
M  V30 1344 H 128.566 -3.73078 0.276283 0
M  V30 1345 H 129.899 -4.90997 0.343866 0
M  V30 1346 N 131.551 -0.354651 -1.53558 0
M  V30 1347 C 132.828 0.294281 -1.93374 0
M  V30 1348 C 133.208 1.67313 -1.28723 0
M  V30 1349 O 132.556 2.24179 -0.442247 0
M  V30 1350 C 132.766 0.355445 -3.47185 0
M  V30 1351 C 134.114 0.601007 -4.20325 0
M  V30 1352 O 135.138 0.437106 -3.53508 0
M  V30 1353 O 133.997 0.919322 -5.38712 0
M  V30 1354 H 131.091 0.174033 -0.808481 0
M  V30 1355 H 133.637 -0.406638 -1.64756 0
M  V30 1356 H 132.409 -0.611729 -3.86489 0
M  V30 1357 H 132.032 1.1027 -3.82003 0
M  V30 1358 N 133.029 1.57378 -0.0835403 0
M  V30 1359 C 133.959 2.1641 0.87686 0
M  V30 1360 C 134.94 1.09429 1.30228 0
M  V30 1361 O 136.125 1.37516 1.37124 0
M  V30 1362 C 133.255 2.73517 2.14022 0
M  V30 1363 C 132.209 3.85769 1.85381 0
M  V30 1364 C 131.535 4.29529 3.18448 0
M  V30 1365 C 132.835 5.09486 1.14984 0
M  V30 1366 H 134.529 2.96914 0.385059 0
M  V30 1367 H 132.075 1.42823 0.18377 0
M  V30 1368 H 134.028 3.13463 2.81636 0
M  V30 1369 H 132.752 1.90252 2.65465 0
M  V30 1370 H 131.411 3.46345 1.20169 0
M  V30 1371 H 131.059 3.43169 3.67755 0
M  V30 1372 H 130.759 5.05204 3.00071 0
M  V30 1373 H 132.283 4.72099 3.8724 0
M  V30 1374 H 133.697 5.46674 1.72687 0
M  V30 1375 H 132.094 5.90515 1.06826 0
M  V30 1376 H 133.164 4.84724 0.130749 0
M  V30 1377 N 134.507 -0.190092 1.56449 0
M  V30 1378 C 135.47 -1.21925 1.9408 0
M  V30 1379 C 136.47 -1.38176 0.822431 0
M  V30 1380 O 137.66 -1.35903 1.08977 0
M  V30 1381 C 134.792 -2.58773 2.21922 0
M  V30 1382 H 135.985 -0.897464 2.86157 0
M  V30 1383 H 133.538 -0.43181 1.50217 0
M  V30 1384 H 134.273 -2.95998 1.32499 0
M  V30 1385 H 134.058 -2.48348 3.03424 0
M  V30 1386 H 135.548 -3.32978 2.52022 0
M  V30 1387 N 135.985 -1.50799 -0.457987 0
M  V30 1388 C 137.233 -1.62121 -1.2067 0
M  V30 1389 C 137.554 -0.329793 -1.92191 0
M  V30 1390 O 136.824 0.653409 -1.84682 0
M  V30 1391 H 135.404 -0.597441 -0.448411 0
M  V30 1392 H 138.066 -1.87637 -0.527096 0
M  V30 1393 H 137.162 -2.43882 -1.94751 0
M  V30 1394 N 137.463 0.71206 -1.40597 0
M  V30 1395 C 138.393 1.83889 -1.43899 0
M  V30 1396 C 139.374 1.67442 -0.299504 0
M  V30 1397 O 140.559 1.87421 -0.508624 0
M  V30 1398 C 137.689 3.21877 -1.30431 0
M  V30 1399 C 136.643 3.53002 -2.42019 0
M  V30 1400 C 135.969 4.90172 -2.13626 0
M  V30 1401 C 137.269 3.53643 -3.84362 0
M  V30 1402 H 138.963 1.81383 -2.38203 0
M  V30 1403 H 136.509 0.871237 -1.14654 0
M  V30 1404 H 138.462 4.00404 -1.31357 0
M  V30 1405 H 137.186 3.24968 -0.326049 0
M  V30 1406 H 135.845 2.76818 -2.40349 0
M  V30 1407 H 135.493 4.89869 -1.14182 0
M  V30 1408 H 135.193 5.11962 -2.88389 0
M  V30 1409 H 136.717 5.71028 -2.1624 0
M  V30 1410 H 138.131 4.22203 -3.87837 0
M  V30 1411 H 136.528 3.86961 -4.58673 0
M  V30 1412 H 137.598 2.52954 -4.13693 0
M  V30 1413 N 138.941 1.26152 0.944643 0
M  V30 1414 C 140.352 1.10454 1.50522 0
M  V30 1415 C 140.703 -0.31635 1.93633 0
M  V30 1416 O 139.828 -1.20746 1.79581 0
M  V30 1417 C 140.423 1.99891 2.73549 0
M  V30 1418 C 138.982 1.88348 3.25886 0
M  V30 1419 C 138.129 1.93447 1.9868 0
M  V30 1420 H 141.08 1.39292 0.760489 0
M  V30 1421 H 141.101 1.54477 3.47732 0
M  V30 1422 H 140.613 3.03297 2.42141 0
M  V30 1423 H 138.714 0.878636 3.62092 0
M  V30 1424 H 138.827 2.73696 3.93227 0
M  V30 1425 H 137.191 1.37456 2.14425 0
M  V30 1426 H 137.974 2.98476 1.69607 0
M  V30 1427 N 140.419 -1.14872 1.07899 0
M  V30 1428 C 141.329 -2.2341 0.715915 0
M  V30 1429 C 142.345 -1.71808 -0.275306 0
M  V30 1430 O 143.521 -2.01039 -0.120545 0
M  V30 1431 C 140.586 -3.46474 0.125168 0
M  V30 1432 C 139.647 -4.13039 1.17034 0
M  V30 1433 C 138.88 -5.30229 0.607688 0
M  V30 1434 O 139.103 -5.675 -0.574497 0
M  V30 1435 O 138.037 -5.86444 1.35526 0
M  V30 1436 H 141.863 -2.56808 1.62121 0
M  V30 1437 H 139.448 -1.22702 0.852322 0
M  V30 1438 H 141.33 -4.20917 -0.201729 0
M  V30 1439 H 140.005 -3.14811 -0.753364 0
M  V30 1440 H 138.912 -3.40493 1.54968 0
M  V30 1441 H 140.245 -4.48796 2.02097 0
M  V30 1442 N 141.898 -0.863906 -1.31812 0
M  V30 1443 C 143.128 -0.485406 -2.00817 0
M  V30 1444 C 143.536 0.925007 -1.65046 0
M  V30 1445 O 142.879 1.61653 -0.872574 0
M  V30 1446 C 142.941 -0.555589 -3.55181 0
M  V30 1447 C 142.605 -1.92654 -4.14407 0
M  V30 1448 C 143.602 -2.89324 -4.31958 0
M  V30 1449 C 141.287 -2.2262 -4.50273 0
M  V30 1450 C 143.281 -4.14108 -4.84555 0
M  V30 1451 C 140.968 -3.47654 -5.02573 0
M  V30 1452 C 141.966 -4.43214 -5.19664 0
M  V30 1453 O 141.654 -5.66033 -5.70843 0
M  V30 1454 H 141.386 -0.188224 -0.649267 0
M  V30 1455 H 143.94 -1.16514 -1.69156 0
M  V30 1456 H 142.17 0.181037 -3.86276 0
M  V30 1457 H 143.859 -0.19138 -4.05449 0
M  V30 1458 H 144.625 -2.6748 -4.04573 0
M  V30 1459 H 140.504 -1.4902 -4.3625 0
M  V30 1460 H 144.048 -4.88703 -4.9781 0
M  V30 1461 H 139.945 -3.69345 -5.29391 0
M  V30 1462 H 140.713 -5.6812 -5.89222 0
M  V30 1463 N 143.376 1.44774 -0.622745 0
M  V30 1464 C 144.306 2.33382 0.0741861 0
M  V30 1465 C 145.287 1.47719 0.843387 0
M  V30 1466 O 146.472 1.76458 0.810934 0
M  V30 1467 C 143.602 3.30663 1.06204 0
M  V30 1468 C 142.556 4.26079 0.405037 0
M  V30 1469 C 141.882 5.13165 1.5022 0
M  V30 1470 C 143.182 5.1781 -0.683414 0
M  V30 1471 H 144.876 2.91905 -0.665713 0
M  V30 1472 H 142.422 1.40363 -0.321587 0
M  V30 1473 H 144.375 3.9153 1.55827 0
M  V30 1474 H 143.099 2.70331 1.83272 0
M  V30 1475 H 141.758 3.66532 -0.0704683 0
M  V30 1476 H 141.406 4.49191 2.26355 0
M  V30 1477 H 141.106 5.77812 1.06803 0
M  V30 1478 H 142.63 5.76902 2.00041 0
M  V30 1479 H 144.044 5.72661 -0.270631 0
M  V30 1480 H 142.441 5.91015 -1.04023 0
M  V30 1481 H 143.511 4.59326 -1.55395 0
M  V30 1482 N 144.854 0.36279 1.53368 0
M  V30 1483 C 146.079 -0.231226 2.06107 0
M  V30 1484 C 146.504 -1.419 1.23474 0
M  V30 1485 O 145.862 -1.79524 0.253128 0
M  V30 1486 C 145.91 -0.605523 3.5548 0
M  V30 1487 O 145.014 -1.70312 3.7559 0
M  V30 1488 H 144.355 -0.034327 0.663112 0
M  V30 1489 H 146.885 0.522584 1.97814 0
M  V30 1490 H 146.895 -0.877314 3.98456 0
M  V30 1491 H 145.57 0.263004 4.15068 0
M  V30 1492 H 144.147 -1.4271 3.44512 0
M  V30 1493 N 146.332 -1.57332 0.0918853 0
M  V30 1494 C 147.279 -2.13847 -0.868211 0
M  V30 1495 C 148.249 -1.05618 -1.28196 0
M  V30 1496 O 149.434 -1.33387 -1.36427 0
M  V30 1497 C 146.574 -2.72062 -2.12312 0
M  V30 1498 C 145.687 -3.94514 -1.7602 0
M  V30 1499 C 144.822 -4.40903 -2.96273 0
M  V30 1500 C 143.861 -5.55953 -2.56092 0
M  V30 1501 N 142.998 -5.97209 -3.69169 0
M  V30 1502 H 147.838 -2.95575 -0.379406 0
M  V30 1503 H 145.375 -1.46048 -0.175606 0
M  V30 1504 H 147.333 -3.03931 -2.858 0
M  V30 1505 H 145.963 -1.93068 -2.58698 0
M  V30 1506 H 145.015 -3.68979 -0.925135 0
M  V30 1507 H 146.327 -4.7802 -1.42472 0
M  V30 1508 H 145.481 -4.74539 -3.78018 0
M  V30 1509 H 144.22 -3.56291 -3.33029 0
M  V30 1510 H 143.225 -5.21948 -1.72773 0
M  V30 1511 H 144.45 -6.42311 -2.20484 0
M  V30 1512 H 142.396 -5.15543 -4.05649 0
M  V30 1513 H 142.313 -6.75504 -3.39456 0
M  V30 1514 H 143.581 -6.35475 -4.51434 0
M  V30 1515 N 147.81 0.181792 -1.56548 0
M  V30 1516 C 149.038 0.915947 -1.85521 0
M  V30 1517 C 149.453 1.76282 -0.676016 0
M  V30 1518 O 148.81 1.79012 0.355077 0
M  V30 1519 C 148.861 1.80126 -3.13427 0
M  V30 1520 O 148.582 0.988562 -4.26801 0
M  V30 1521 C 150.083 2.64597 -3.55673 0
M  V30 1522 H 147.303 0.26661 -0.61576 0
M  V30 1523 H 149.847 0.185039 -2.03661 0
M  V30 1524 H 148.002 2.48563 -2.97145 0
M  V30 1525 H 148.416 1.59308 -4.99721 0
M  V30 1526 H 149.89 3.2235 -4.48101 0
M  V30 1527 H 150.367 3.38958 -2.79292 0
M  V30 1528 H 150.973 2.0151 -3.74532 0
M  V30 1529 N 149.288 1.51039 0.449983 0
M  V30 1530 C 150.513 1.6715 1.22783 0
M  V30 1531 C 150.938 0.363081 1.84563 0
M  V30 1532 O 150.296 -0.675433 1.68249 0
M  V30 1533 C 150.344 2.77985 2.29689 0
M  V30 1534 O 149.448 2.40707 3.34864 0
M  V30 1535 H 148.789 0.557746 0.360299 0
M  V30 1536 H 151.319 1.97535 0.533005 0
M  V30 1537 H 151.329 3.01693 2.74673 0
M  V30 1538 H 150.004 3.72935 1.84098 0
M  V30 1539 H 148.581 2.27523 2.95445 0
M  V30 1540 N 150.766 -0.704594 1.40972 0
M  V30 1541 C 151.713 -1.81862 1.42109 0
M  V30 1542 C 152.683 -1.63781 0.276593 0
M  V30 1543 O 153.868 -1.84759 0.4763 0
M  V30 1544 C 151.008 -3.19669 1.30022 0
M  V30 1545 C 150.121 -3.49246 2.54267 0
M  V30 1546 C 149.256 -4.76618 2.3454 0
M  V30 1547 C 148.295 -4.99133 3.54306 0
M  V30 1548 N 147.432 -6.17726 3.33706 0
M  V30 1549 H 152.272 -1.80226 2.37324 0
M  V30 1550 H 149.809 -0.880238 1.17857 0
M  V30 1551 H 151.767 -3.99263 1.21018 0
M  V30 1552 H 150.397 -3.20506 0.384192 0
M  V30 1553 H 149.449 -2.64125 2.73756 0
M  V30 1554 H 150.761 -3.61788 3.43381 0
M  V30 1555 H 149.915 -5.64249 2.22952 0
M  V30 1556 H 148.654 -4.66305 1.42867 0
M  V30 1557 H 147.659 -4.09953 3.66359 0
M  V30 1558 H 148.884 -5.11311 4.4692 0
M  V30 1559 H 146.83 -6.08642 2.44725 0
M  V30 1560 H 146.747 -6.30995 4.16391 0
M  V30 1561 H 148.015 -7.08115 3.25873 0
M  V30 1562 N 152.244 -1.26651 -0.937939 0
M  V30 1563 C 153.474 -1.15006 -1.71631 0
M  V30 1564 C 153.882 0.297026 -1.86854 0
M  V30 1565 O 153.225 1.21493 -1.37786 0
M  V30 1566 C 153.287 -1.74984 -3.14039 0
M  V30 1567 C 152.951 -3.24103 -3.2219 0
M  V30 1568 C 153.948 -4.20877 -3.05219 0
M  V30 1569 C 151.633 -3.64625 -3.45476 0
M  V30 1570 C 153.627 -5.56151 -3.11408 0
M  V30 1571 C 151.314 -5.00032 -3.513 0
M  V30 1572 C 152.312 -5.95604 -3.34282 0
M  V30 1573 O 152 -7.28545 -3.3982 0
M  V30 1574 H 151.732 -0.401183 -0.544085 0
M  V30 1575 H 154.286 -1.67832 -1.18413 0
M  V30 1576 H 152.516 -1.16624 -3.68695 0
M  V30 1577 H 154.205 -1.58199 -3.73802 0
M  V30 1578 H 154.971 -3.90908 -2.87081 0
M  V30 1579 H 150.85 -2.90718 -3.57777 0
M  V30 1580 H 154.394 -6.30727 -2.98043 0
M  V30 1581 H 150.291 -5.29659 -3.68959 0
M  V30 1582 H 151.059 -7.3686 -3.56343 0
M  V30 1583 N 153.722 1.14298 -1.08507 0
M  V30 1584 C 154.652 2.21542 -0.737646 0
M  V30 1585 C 155.633 1.67773 0.280377 0
M  V30 1586 O 156.818 1.93616 0.150521 0
M  V30 1587 C 153.948 3.46988 -0.147259 0
M  V30 1588 C 152.902 4.13789 -1.09374 0
M  V30 1589 C 152.228 5.33449 -0.365524 0
M  V30 1590 C 153.528 4.62208 -2.4323 0
M  V30 1591 H 155.222 2.5086 -1.6343 0
M  V30 1592 H 152.768 1.20576 -0.787243 0
M  V30 1593 H 154.721 4.21262 0.107808 0
M  V30 1594 H 153.445 3.17037 0.784538 0
M  V30 1595 H 152.104 3.4147 -1.33393 0
M  V30 1596 H 151.752 4.99759 0.57011 0
M  V30 1597 H 151.452 5.79088 -0.996512 0
M  V30 1598 H 152.976 6.10485 -0.118534 0
M  V30 1599 H 154.39 5.27952 -2.23472 0
M  V30 1600 H 152.787 5.18553 -3.02031 0
M  V30 1601 H 153.857 3.77224 -3.04681 0
M  V30 1602 N 155.201 0.870884 1.31352 0
M  V30 1603 C 156.429 0.49677 2.00848 0
M  V30 1604 C 156.844 -0.910998 1.65367 0
M  V30 1605 O 156.201 -1.59696 0.883374 0
M  V30 1606 C 156.252 0.645308 3.55694 0
M  V30 1607 O 155.973 1.99764 3.89905 0
M  V30 1608 C 157.474 0.272326 4.42463 0
M  V30 1609 H 154.694 0.193462 0.642506 0
M  V30 1610 H 157.238 1.1723 1.67563 0
M  V30 1611 H 155.393 0.0173176 3.87396 0
M  V30 1612 H 155.807 2.00607 4.84621 0
M  V30 1613 H 157.281 0.427208 5.50344 0
M  V30 1614 H 157.758 -0.788587 4.32062 0
M  V30 1615 H 158.364 0.876054 4.1618 0
M  V30 1616 N 156.679 -1.44442 0.630414 0
M  V30 1617 C 157.956 -1.9549 0.0655657 0
M  V30 1618 C 158.336 -1.5724 -1.40851 0
M  V30 1619 O 157.684 -0.846116 -2.12257 0
M  V30 1620 C 157.894 -3.47812 0.287691 0
M  V30 1621 C 159.242 -4.24216 0.180513 0
M  V30 1622 O 160.266 -3.55526 0.219019 0
M  V30 1623 O 159.125 -5.46434 0.0848493 0
M  V30 1624 H 156.219 -0.826688 -0.0227177 0
M  V30 1625 H 158.765 -1.54496 0.702068 0
M  V30 1626 H 157.537 -3.687 1.31056 0
M  V30 1627 H 157.16 -3.95751 -0.382984 0
M  V30 1628 N 158.157 -0.370918 -1.53173 0
M  V30 1629 C 159.382 0.220293 -2.06227 0
M  V30 1630 C 159.807 1.41243 -1.24225 0
M  V30 1631 O 159.165 1.79387 -0.262645 0
M  V30 1632 C 159.213 0.586663 -3.55796 0
M  V30 1633 O 158.317 1.68317 -3.76488 0
M  V30 1634 H 157.658 0.0308099 -0.663285 0
M  V30 1635 H 160.188 -0.533068 -1.97534 0
M  V30 1636 H 160.198 0.85617 -3.98916 0
M  V30 1637 H 158.873 -0.285013 -4.14922 0
M  V30 1638 H 157.45 1.40881 -3.45264 0
M  V30 1639 N 159.635 1.57281 -0.100228 0
M  V30 1640 C 160.545 2.17833 0.870965 0
M  V30 1641 C 161.561 1.14921 1.30649 0
M  V30 1642 O 162.737 1.47313 1.37335 0
M  V30 1643 C 159.802 2.75085 2.1102 0
M  V30 1644 C 158.863 3.9297 1.72838 0
M  V30 1645 C 158.096 4.47482 2.90854 0
M  V30 1646 O 158.319 4.00922 4.05731 0
M  V30 1647 O 157.253 5.38433 2.69023 0
M  V30 1648 H 161.079 3.0124 0.38575 0
M  V30 1649 H 158.664 1.48881 0.124397 0
M  V30 1650 H 160.546 3.11656 2.83634 0
M  V30 1651 H 159.221 1.94721 2.58584 0
M  V30 1652 H 158.128 3.61201 0.973883 0
M  V30 1653 H 159.461 4.74713 1.30033 0
M  V30 1654 N 161.113 -0.173488 1.56642 0
M  V30 1655 C 162.343 -0.904781 1.85734 0
M  V30 1656 C 162.751 -1.76431 0.68328 0
M  V30 1657 O 162.094 -1.802 -0.356865 0
M  V30 1658 C 162.156 -1.83382 3.09211 0
M  V30 1659 C 161.82 -1.15411 4.42187 0
M  V30 1660 C 162.817 -0.520609 5.17287 0
M  V30 1661 C 160.502 -1.15151 4.88923 0
M  V30 1662 C 162.496 0.106412 6.37311 0
M  V30 1663 C 160.183 -0.520664 6.08878 0
M  V30 1664 C 161.181 0.107196 6.82916 0
M  V30 1665 O 160.869 0.728102 8.00596 0
M  V30 1666 H 160.601 -0.268408 0.62043 0
M  V30 1667 H 163.155 -0.179096 2.04618 0
M  V30 1668 H 161.385 -2.59976 2.86268 0
M  V30 1669 H 163.074 -2.43476 3.24768 0
M  V30 1670 H 163.84 -0.514606 4.82262 0
M  V30 1671 H 159.719 -1.62961 4.31236 0
M  V30 1672 H 163.263 0.597081 6.9504 0
M  V30 1673 H 159.16 -0.524242 6.43368 0
M  V30 1674 H 159.928 0.627138 8.16094 0
M  V30 1675 N 162.591 -1.51276 -0.441967 0
M  V30 1676 C 163.819 -1.67516 -1.21434 0
M  V30 1677 C 164.234 -0.37055 -1.85128 0
M  V30 1678 O 163.591 0.650498 -1.70513 0
M  V30 1679 C 163.642 -2.78748 -2.30177 0
M  V30 1680 O 163.363 -4.04154 -1.69089 0
M  V30 1681 C 164.864 -3.06217 -3.20541 0
M  V30 1682 H 162.084 -0.562276 -0.366178 0
M  V30 1683 H 164.628 -1.97666 -0.524244 0
M  V30 1684 H 162.783 -2.5121 -2.94911 0
M  V30 1685 H 163.197 -4.65894 -2.40922 0
M  V30 1686 H 164.671 -3.8764 -3.92987 0
M  V30 1687 H 165.148 -2.18439 -3.81026 0
M  V30 1688 H 165.754 -3.35397 -2.61513 0
M  V30 1689 N 164.069 0.697108 -1.41344 0
M  V30 1690 C 164.979 1.84088 -1.45427 0
M  V30 1691 C 165.995 1.70545 -0.34501 0
M  V30 1692 O 167.171 1.92488 -0.592492 0
M  V30 1693 C 164.236 3.20056 -1.33286 0
M  V30 1694 C 163.297 3.45718 -2.54514 0
M  V30 1695 C 162.53 4.75199 -2.42944 0
M  V30 1696 O 162.753 5.51579 -1.45318 0
M  V30 1697 O 161.687 5.0161 -3.32672 0
M  V30 1698 H 165.513 1.836 -2.41919 0
M  V30 1699 H 163.098 0.849966 -1.22866 0
M  V30 1700 H 164.98 4.01236 -1.28794 0
M  V30 1701 H 163.655 3.2123 -0.39909 0
M  V30 1702 H 162.562 2.64474 -2.64583 0
M  V30 1703 H 163.895 3.49356 -3.46715 0
M  V30 1704 N 165.547 1.27147 0.931209 0
M  V30 1705 C 166.795 1.13055 1.6752 0
M  V30 1706 C 167.116 -0.324791 1.92276 0
M  V30 1707 O 166.386 -1.22775 1.52654 0
M  V30 1708 H 164.966 0.415391 0.620854 0
M  V30 1709 H 167.628 1.59623 1.11833 0
M  V30 1710 H 166.724 1.65694 2.64485 0
M  V30 1711 N 167.025 -1.13721 1.09112 0
M  V30 1712 C 168.25 -1.89314 0.847053 0
M  V30 1713 C 168.675 -1.78416 -0.595774 0
M  V30 1714 O 168.033 -1.12942 -1.41823 0
M  V30 1715 C 168.081 -3.3701 1.28284 0
M  V30 1716 O 167.185 -4.10054 0.439267 0
M  V30 1717 H 166.526 -0.588745 0.307044 0
M  V30 1718 H 169.056 -1.43902 1.45442 0
M  V30 1719 H 169.066 -3.87834 1.26683 0
M  V30 1720 H 167.741 -3.4426 2.33363 0
M  V30 1721 H 166.318 -3.69266 0.519312 0
M  V30 1722 N 168.503 -0.877838 -1.30888 0
M  V30 1723 C 169.731 -0.507414 -2.00581 0
M  V30 1724 C 170.146 0.902216 -1.65848 0
M  V30 1725 O 169.503 1.59225 -0.891831 0
M  V30 1726 C 169.554 -0.664162 -3.55347 0
M  V30 1727 O 169.275 -2.01829 -3.8884 0
M  V30 1728 C 170.776 -0.295787 -4.42312 0
M  V30 1729 H 167.996 -0.196866 -0.641471 0
M  V30 1730 H 170.54 -1.18117 -1.66939 0
M  V30 1731 H 168.695 -0.0378619 -3.87381 0
M  V30 1732 H 169.109 -2.03174 -4.8355 0
M  V30 1733 H 170.583 -0.456388 -5.5011 0
M  V30 1734 H 171.06 0.765663 -4.32475 0
M  V30 1735 H 171.666 -0.898113 -4.15709 0
M  V30 1736 N 169.982 1.44106 -0.638065 0
M  V30 1737 C 171.23 2.01579 -0.145043 0
M  V30 1738 C 171.551 1.50496 1.24 0
M  V30 1739 O 170.821 0.711374 1.82527 0
M  V30 1740 H 169.401 0.745282 -0.05063 0
M  V30 1741 H 172.063 1.76516 -0.826327 0
M  V30 1742 H 171.159 3.11877 -0.118039 0
M  V30 1743 N 171.46 0.379036 1.52974 0
M  V30 1744 C 172.407 -0.461048 2.26148 0
M  V30 1745 C 173.377 -1.06637 1.27349 0
M  V30 1746 O 174.562 -1.09633 1.56157 0
M  V30 1747 C 171.702 -1.58782 3.06402 0
M  V30 1748 C 170.815 -1.00636 4.20115 0
M  V30 1749 C 169.95 -2.10334 4.87784 0
M  V30 1750 C 168.989 -1.49724 5.93506 0
M  V30 1751 N 168.126 -2.5331 6.54812 0
M  V30 1752 H 172.966 0.169429 2.97518 0
M  V30 1753 H 170.503 0.0953806 1.4679 0
M  V30 1754 H 172.461 -2.25174 3.51215 0
M  V30 1755 H 171.091 -2.18876 2.37261 0
M  V30 1756 H 170.143 -0.232332 3.7969 0
M  V30 1757 H 171.455 -0.523343 4.96047 0
M  V30 1758 H 170.609 -2.84519 5.35849 0
M  V30 1759 H 169.348 -2.61992 4.11353 0
M  V30 1760 H 168.353 -0.740598 5.44789 0
M  V30 1761 H 169.578 -0.988732 6.71864 0
M  V30 1762 H 167.524 -3.04156 5.81227 0
M  V30 1763 H 167.441 -2.09734 7.26325 0
M  V30 1764 H 168.709 -3.27155 7.07524 0
M  V30 1765 N 172.938 -1.57226 0.108567 0
M  V30 1766 C 174.166 -1.99179 -0.559954 0
M  V30 1767 C 174.581 -0.988022 -1.60884 0
M  V30 1768 O 173.938 0.0205512 -1.82488 0
M  V30 1769 C 173.989 -3.41159 -1.19552 0
M  V30 1770 O 173.71 -4.37694 -0.188577 0
M  V30 1771 C 175.211 -3.98188 -1.94837 0
M  V30 1772 H 172.431 -0.654228 -0.149088 0
M  V30 1773 H 174.975 -2.03598 0.19183 0
M  V30 1774 H 173.13 -3.37711 -1.89815 0
M  V30 1775 H 173.544 -5.20469 -0.649014 0
M  V30 1776 H 175.018 -4.99644 -2.34648 0
M  V30 1777 H 175.495 -3.3675 -2.81951 0
M  V30 1778 H 176.101 -4.0515 -1.2936 0
M  V30 1779 N 174.416 0.165178 -1.56732 0
M  V30 1780 C 175.656 0.887231 -1.8414 0
M  V30 1781 C 176.02 1.79159 -0.690353 0
M  V30 1782 O 177.221 2.55172 -0.845032 0
M  V30 1783 C 175.492 1.65674 -3.16681 0
M  V30 1784 S 177.051 2.42671 -3.6559 0
M  V30 1785 H 173.869 0.297042 -0.645978 0
M  V30 1786 H 176.471 0.148439 -1.94936 0
M  V30 1787 H 175.175 0.983507 -3.98441 0
M  V30 1788 H 174.706 2.43679 -3.08843 0
M  V30 1789 H 176.721 3.67499 -3.33406 0
M  V30 1790 N 175.894 1.51508 0.433938 0
M  V30 1791 C 176.824 1.76016 1.53429 0
M  V30 1792 C 177.805 0.610112 1.58782 0
M  V30 1793 O 178.99 0.853177 1.74455 0
M  V30 1794 C 176.12 1.88831 2.9148 0
M  V30 1795 C 175.074 3.04288 3.00987 0
M  V30 1796 C 174.4 3.0229 4.4105 0
M  V30 1797 C 175.7 4.44193 2.74754 0
M  V30 1798 H 177.394 2.68152 1.33171 0
M  V30 1799 H 174.94 1.29035 0.639214 0
M  V30 1800 H 176.893 2.04559 3.6842 0
M  V30 1801 H 175.617 0.933455 3.12976 0
M  V30 1802 H 174.276 2.8827 2.26486 0
M  V30 1803 H 173.924 2.04576 4.59519 0
M  V30 1804 H 173.624 3.79822 4.4834 0
M  V30 1805 H 175.148 3.20116 5.1996 0
M  V30 1806 H 176.562 4.60544 3.41426 0
M  V30 1807 H 174.959 5.23457 2.9345 0
M  V30 1808 H 176.029 4.53996 1.70339 0
M  V30 1809 N 177.372 -0.689602 1.41712 0
M  V30 1810 C 178.305 -1.81403 1.3845 0
M  V30 1811 C 179.283 -1.60653 0.250874 0
M  V30 1812 O 180.467 -1.83323 0.43874 0
M  V30 1813 C 177.594 -3.18176 1.1611 0
M  V30 1814 C 176.64 -3.57705 2.3227 0
M  V30 1815 S 177.473 -3.61827 3.94767 0
M  V30 1816 C 178.629 -5.01318 3.74742 0
M  V30 1817 H 178.862 -1.83893 2.33603 0
M  V30 1818 H 176.395 -0.858878 1.28307 0
M  V30 1819 H 178.353 -3.97132 1.03907 0
M  V30 1820 H 177.014 -3.13288 0.225668 0
M  V30 1821 H 176.207 -4.57082 2.12349 0
M  V30 1822 H 175.809 -2.86073 2.40911 0
M  V30 1823 H 178.101 -5.88986 3.34817 0
M  V30 1824 H 179.044 -5.26283 4.73743 0
M  V30 1825 H 179.452 -4.73138 3.07898 0
M  V30 1826 N 178.85 -1.27639 -0.924453 0
M  V30 1827 C 179.797 -1.10644 -2.0255 0
M  V30 1828 C 180.767 -0.00658438 -1.66099 0
M  V30 1829 O 181.952 -0.16952 -1.90045 0
M  V30 1830 C 179.092 -0.76309 -3.36557 0
M  V30 1831 C 178.205 -1.94091 -3.85944 0
M  V30 1832 C 177.34 -1.53914 -5.08413 0
M  V30 1833 C 176.379 -2.68425 -5.50104 0
M  V30 1834 N 175.516 -2.28815 -6.63768 0
M  V30 1835 H 180.356 -2.04858 -2.16419 0
M  V30 1836 H 177.893 -1.01974 -1.06017 0
M  V30 1837 H 179.851 -0.544822 -4.13627 0
M  V30 1838 H 178.481 0.142102 -3.22487 0
M  V30 1839 H 177.533 -2.27162 -3.05125 0
M  V30 1840 H 178.845 -2.7998 -4.12811 0
M  V30 1841 H 177.999 -1.28231 -5.92994 0
M  V30 1842 H 176.738 -0.651391 -4.8333 0
M  V30 1843 H 175.743 -2.94819 -4.64071 0
M  V30 1844 H 176.968 -3.57826 -5.7718 0
M  V30 1845 H 174.914 -1.42495 -6.40337 0
M  V30 1846 H 174.831 -3.08242 -6.90306 0
M  V30 1847 H 176.099 -2.06387 -7.51681 0
M  V30 1848 N 180.328 1.1314 -1.09713 0
M  V30 1849 C 181.291 2.16831 -0.742751 0
M  V30 1850 C 182.291 1.59159 0.229129 0
M  V30 1851 O 183.481 1.74199 0.00693237 0
M  V30 1852 C 180.613 3.40756 -0.0989168 0
M  V30 1853 H 181.806 2.49695 -1.66109 0
M  V30 1854 H 179.359 1.2802 -0.896699 0
M  V30 1855 H 180.094 3.13485 0.830514 0
M  V30 1856 H 179.879 3.83888 -0.798265 0
M  V30 1857 H 181.369 4.17386 0.133524 0
M  V30 1858 N 181.806 0.884767 1.30421 0
M  V30 1859 C 183.052 0.503851 1.96441 0
M  V30 1860 C 183.385 -0.944518 1.69684 0
M  V30 1861 O 182.66 -1.66737 1.00145 0
M  V30 1862 C 182.943 0.779085 3.51571 0
M  V30 1863 C 182.796 2.27807 3.87846 0
M  V30 1864 C 184.115 0.255452 4.39358 0
M  V30 1865 H 181.234 0.184533 0.713524 0
M  V30 1866 H 183.876 1.10872 1.54297 0
M  V30 1867 H 182.026 0.264274 3.876 0
M  V30 1868 H 183.698 2.86127 3.61841 0
M  V30 1869 H 181.941 2.74479 3.35922 0
M  V30 1870 H 182.612 2.42125 4.96064 0
M  V30 1871 H 185.088 0.696079 4.10236 0
M  V30 1872 H 183.964 0.477361 5.4682 0
M  V30 1873 H 184.225 -0.843293 4.33983 0
M  V30 1874 N 183.284 -1.43765 0.645699 0
M  V30 1875 C 184.214 -2.33471 -0.0370477 0
M  V30 1876 C 185.195 -1.49042 -0.819779 0
M  V30 1877 O 186.38 -1.77726 -0.782758 0
M  V30 1878 C 183.51 -3.32311 -1.0093 0
M  V30 1879 C 182.464 -4.2667 -0.337201 0
M  V30 1880 C 181.79 -5.1549 -1.42037 0
M  V30 1881 C 183.09 -5.16657 0.765706 0
M  V30 1882 H 184.784 -2.90809 0.712069 0
M  V30 1883 H 182.33 -1.39834 0.343876 0
M  V30 1884 H 184.283 -3.9396 -1.49578 0
M  V30 1885 H 183.007 -2.73213 -1.78948 0
M  V30 1886 H 181.666 -3.66374 0.128771 0
M  V30 1887 H 181.314 -4.52735 -2.1918 0
M  V30 1888 H 181.014 -5.79438 -0.975966 0
M  V30 1889 H 182.538 -5.80012 -1.90838 0
M  V30 1890 H 183.952 -5.72158 0.361702 0
M  V30 1891 H 182.349 -5.89286 1.13413 0
M  V30 1892 H 183.419 -4.56796 1.62683 0
M  V30 1893 N 184.763 -0.387143 -1.52771 0
M  V30 1894 C 185.711 0.463953 -2.27926 0
M  V30 1895 C 186.705 1.06493 -1.31741 0
M  V30 1896 O 187.911 1.00565 -1.49287 0
M  V30 1897 H 184.286 0.16837 -0.732909 0
M  V30 1898 H 186.257 -0.19141 -2.97785 0
M  V30 1899 C 185.006 1.5803 -3.09713 0
M  V30 1900 H 184.329 1.12718 -3.83581 0
M  V30 1901 H 185.769 2.15008 -3.65442 0
M  V30 1902 C 184.228 2.53509 -2.2189 0
M  V30 1903 O 184.758 3.56863 -1.84422 0
M  V30 1904 N 182.964 2.23199 -1.86093 0
M  V30 1905 H 182.511 1.39185 -2.16761 0
M  V30 1906 H 182.469 2.87333 -1.27621 0
M  V30 1907 N 186.241 1.57166 -0.116904 0
M  V30 1908 C 187.171 2.18222 0.830759 0
M  V30 1909 C 188.152 1.12167 1.27877 0
M  V30 1910 O 189.337 1.40394 1.34176 0
M  V30 1911 C 186.467 2.77996 2.08172 0
M  V30 1912 C 185.421 3.89614 1.77157 0
M  V30 1913 C 184.747 4.36187 3.09265 0
M  V30 1914 C 186.047 5.1181 1.04151 0
M  V30 1915 H 187.741 2.97664 0.321992 0
M  V30 1916 H 185.287 1.4318 0.153434 0
M  V30 1917 H 187.24 3.19366 2.74924 0
M  V30 1918 H 185.964 1.9584 2.6137 0
M  V30 1919 H 184.623 3.48816 1.12796 0
M  V30 1920 H 184.271 3.50893 3.60393 0
M  V30 1921 H 183.971 5.11455 2.89288 0
M  V30 1922 H 185.495 4.80207 3.77139 0
M  V30 1923 H 186.909 5.50214 1.61052 0
M  V30 1924 H 185.306 5.92648 0.942762 0
M  V30 1925 H 186.376 4.84892 0.0279022 0
M  V30 1926 N 187.719 -0.156864 1.56817 0
M  V30 1927 C 188.666 -1.19394 1.97519 0
M  V30 1928 C 189.636 -1.4322 0.841265 0
M  V30 1929 O 190.821 -1.55719 1.10255 0
M  V30 1930 C 187.961 -2.52483 2.35258 0
M  V30 1931 C 187.074 -2.35914 3.61896 0
M  V30 1932 C 186.209 -3.61969 3.88782 0
M  V30 1933 C 185.248 -3.40395 5.08722 0
M  V30 1934 N 184.385 -4.58556 5.31668 0
M  V30 1935 H 189.225 -0.839845 2.85921 0
M  V30 1936 H 186.762 -0.403264 1.41464 0
M  V30 1937 H 188.72 -3.30071 2.55165 0
M  V30 1938 H 187.35 -2.85859 1.49949 0
M  V30 1939 H 186.402 -1.49429 3.49821 0
M  V30 1940 H 187.714 -2.15926 4.49641 0
M  V30 1941 H 186.868 -4.47989 4.09135 0
M  V30 1942 H 185.607 -3.84951 2.9944 0
M  V30 1943 H 184.612 -2.52763 4.88253 0
M  V30 1944 H 185.837 -3.18822 5.99608 0
M  V30 1945 H 183.783 -4.81729 4.45279 0
M  V30 1946 H 183.7 -4.41535 6.13664 0
M  V30 1947 H 184.968 -5.45817 5.5651 0
M  V30 1948 N 189.197 -1.51736 -0.425897 0
M  V30 1949 C 190.474 -1.55519 -1.1863 0
M  V30 1950 C 190.854 -0.326219 -2.08564 0
M  V30 1951 O 190.202 0.688012 -2.17896 0
M  V30 1952 C 190.412 -2.87521 -1.9782 0
M  V30 1953 C 191.76 -3.39899 -2.54468 0
M  V30 1954 O 192.784 -2.89148 -2.08019 0
M  V30 1955 O 191.643 -4.2848 -3.39215 0
M  V30 1956 H 188.737 -0.625739 -0.540721 0
M  V30 1957 H 191.283 -1.64055 -0.434038 0
M  V30 1958 H 190.055 -3.68422 -1.31836 0
M  V30 1959 H 189.678 -2.822 -2.80088 0
M  V30 1960 N 190.675 0.682077 -1.42076 0
M  V30 1961 C 191.923 1.4393 -1.41876 0
M  V30 1962 C 192.244 1.94971 -0.0335599 0
M  V30 1963 O 191.514 1.72591 0.926773 0
M  V30 1964 H 190.094 0.534085 -0.522267 0
M  V30 1965 H 192.756 0.806427 -1.77434 0
M  V30 1966 H 191.852 2.29588 -2.11414 0
M  V30 1967 N 192.153 1.28127 0.917671 0
M  V30 1968 C 193.399 1.15223 1.66888 0
M  V30 1969 C 193.732 -0.299293 1.9188 0
M  V30 1970 O 193.007 -1.21805 1.51637 0
M  V30 1971 C 193.29 1.94706 3.02922 0
M  V30 1972 C 193.143 3.47898 2.85109 0
M  V30 1973 C 194.462 1.75939 4.03402 0
M  V30 1974 H 191.581 0.419946 0.605652 0
M  V30 1975 H 194.223 1.57398 1.06423 0
M  V30 1976 H 192.373 1.58864 3.54534 0
M  V30 1977 H 194.045 3.93624 2.40537 0
M  V30 1978 H 192.288 3.7373 2.20246 0
M  V30 1979 H 192.959 3.98765 3.81694 0
M  V30 1980 H 195.435 2.07209 3.60837 0
M  V30 1981 H 194.311 2.33931 4.96556 0
M  V30 1982 H 194.572 0.709877 4.36364 0
M  V30 1983 N 193.631 -1.12557 1.10312 0
M  V30 1984 C 194.579 -2.20325 0.745629 0
M  V30 1985 C 195.573 -1.67429 -0.25763 0
M  V30 1986 O 196.779 -1.79612 -0.118132 0
M  V30 1987 H 193.154 -0.718118 0.223182 0
M  V30 1988 H 195.125 -2.47733 1.66346 0
M  V30 1989 C 193.874 -3.47168 0.192262 0
M  V30 1990 H 193.197 -3.88215 0.955475 0
M  V30 1991 H 194.637 -4.23995 -0.0198274 0
M  V30 1992 C 193.096 -3.19298 -1.07472 0
M  V30 1993 O 193.626 -3.3891 -2.15645 0
M  V30 1994 N 191.832 -2.73113 -0.992847 0
M  V30 1995 H 191.379 -2.57354 -0.112474 0
M  V30 1996 H 191.337 -2.54842 -1.84127 0
M  V30 1997 N 195.109 -0.891671 -1.2995 0
M  V30 1998 C 196.072 -0.36828 -2.26222 0
M  V30 1999 C 197.072 0.493014 -1.53056 0
M  V30 2000 O 198.262 0.299213 -1.71611 0
M  V30 2001 C 195.394 0.47442 -3.37583 0
M  V30 2002 H 196.587 -1.21844 -2.74033 0
M  V30 2003 H 194.14 -0.669107 -1.41254 0
M  V30 2004 H 194.875 1.34489 -2.95099 0
M  V30 2005 H 194.66 -0.142615 -3.91841 0
M  V30 2006 H 196.15 0.83218 -4.09224 0
M  V30 2007 N 196.587 1.43421 -0.653314 0
M  V30 2008 C 197.827 2.03689 -0.170346 0
M  V30 2009 C 198.191 1.50427 1.19314 0
M  V30 2010 O 199.392 2.0234 1.76952 0
M  V30 2011 C 197.663 3.56946 -0.180183 0
M  V30 2012 S 199.222 4.38171 0.234925 0
M  V30 2013 H 196.04 0.707345 -0.0719976 0
M  V30 2014 H 198.642 1.75486 -0.86167 0
M  V30 2015 H 197.346 3.93212 -1.17526 0
M  V30 2016 H 196.877 3.89791 0.531675 0
M  V30 2017 H 198.892 4.73808 1.47378 0
M  V30 2018 N 198.065 0.39524 1.52563 0
M  V30 2019 C 199.314 -0.186321 2.00838 0
M  V30 2020 C 199.627 -1.47402 1.28577 0
M  V30 2021 O 200.833 -2.13599 1.67593 0
M  V30 2022 C 199.289 -0.382595 3.57861 0
M  V30 2023 C 198.897 0.892202 4.39026 0
M  V30 2024 C 200.641 -0.9202 4.14406 0
M  V30 2025 C 198.548 0.66388 5.87662 0
M  V30 2026 H 197.478 -0.0734041 0.750418 0
M  V30 2027 H 200.129 0.518552 1.76021 0
M  V30 2028 H 198.511 -1.14946 3.7895 0
M  V30 2029 H 199.685 1.66414 4.29701 0
M  V30 2030 H 198 1.35519 3.9373 0
M  V30 2031 H 200.597 -1.10683 5.23119 0
M  V30 2032 H 200.94 -1.89096 3.70875 0
M  V30 2033 H 201.473 -0.212751 3.97231 0
M  V30 2034 H 198.212 1.6058 6.35527 0
M  V30 2035 H 197.732 -0.0690193 5.9976 0
M  V30 2036 H 199.411 0.300699 6.46301 0
M  V30 2037 N 199.544 -1.57102 0.125237 0
M  V30 2038 C 200.474 -2.18659 -0.819174 0
M  V30 2039 C 201.455 -1.12843 -1.27281 0
M  V30 2040 O 202.64 -1.41104 -1.33429 0
M  V30 2041 C 199.77 -2.79096 -2.06695 0
M  V30 2042 C 198.724 -3.90548 -1.75088 0
M  V30 2043 C 198.05 -4.37821 -3.06948 0
M  V30 2044 C 199.35 -5.12356 -1.01435 0
M  V30 2045 H 201.044 -2.9783 -0.306202 0
M  V30 2046 H 198.59 -1.4326 -0.145839 0
M  V30 2047 H 200.543 -3.2082 -2.73226 0
M  V30 2048 H 199.267 -1.97223 -2.60328 0
M  V30 2049 H 197.926 -3.49409 -1.10944 0
M  V30 2050 H 197.574 -3.52799 -3.58527 0
M  V30 2051 H 197.274 -5.12982 -2.86571 0
M  V30 2052 H 198.798 -4.822 -3.74587 0
M  V30 2053 H 200.212 -5.5106 -1.58132 0
M  V30 2054 H 198.609 -5.9314 -0.911319 0
M  V30 2055 H 199.679 -4.849 -0.00218681 0
M  V30 2056 N 201.022 0.148545 -1.56898 0
M  V30 2057 C 202.433 0.708766 -1.72723 0
M  V30 2058 C 202.784 1.81734 -0.739395 0
M  V30 2059 O 201.909 2.16194 0.0943169 0
M  V30 2060 C 202.504 1.29245 -3.13179 0
M  V30 2061 C 201.063 1.79925 -3.30611 0
M  V30 2062 C 200.21 0.687111 -2.68652 0
M  V30 2063 H 203.161 -0.0771063 -1.58513 0
M  V30 2064 H 203.182 2.16224 -3.13093 0
M  V30 2065 H 202.694 0.485382 -3.85053 0
M  V30 2066 H 200.795 2.63203 -2.63732 0
M  V30 2067 H 200.908 1.92903 -4.38549 0
M  V30 2068 H 199.272 1.11335 -2.29078 0
M  V30 2069 H 200.055 -0.108483 -3.43129 0
M  V30 2070 N 202.5 1.5196 0.417844 0
M  V30 2071 C 203.43 1.77634 1.51554 0
M  V30 2072 C 204.411 0.626918 1.58126 0
M  V30 2073 O 205.596 0.871632 1.7354 0
M  V30 2074 C 202.726 1.91911 2.8946 0
M  V30 2075 C 201.68 3.07463 2.97743 0
M  V30 2076 C 201.006 3.06951 4.37819 0
M  V30 2077 C 202.306 4.47082 2.70027 0
M  V30 2078 H 204 2.6955 1.3032 0
M  V30 2079 H 201.546 1.29706 0.625492 0
M  V30 2080 H 203.499 2.08455 3.6623 0
M  V30 2081 H 202.223 0.966598 3.11969 0
M  V30 2082 H 200.882 2.90656 2.23416 0
M  V30 2083 H 200.53 2.09438 4.57323 0
M  V30 2084 H 200.23 3.84556 4.44286 0
M  V30 2085 H 201.754 3.25613 5.16535 0
M  V30 2086 H 203.168 4.6414 3.36522 0
M  V30 2087 H 201.565 5.2654 2.87881 0
M  V30 2088 H 202.635 4.55777 1.65514 0
M  V30 2089 N 203.978 -0.674533 1.42435 0
M  V30 2090 C 204.908 -1.80009 1.48724 0
M  V30 2091 C 205.889 -1.6659 0.343793 0
M  V30 2092 O 207.074 -1.86007 0.558137 0
M  V30 2093 C 204.204 -3.18306 1.38919 0
M  V30 2094 C 203.158 -3.46461 2.51294 0
M  V30 2095 C 202.484 -4.84335 2.26547 0
M  V30 2096 C 203.784 -3.43328 3.93603 0
M  V30 2097 H 205.478 -1.75004 2.42928 0
M  V30 2098 H 203.024 -0.840533 1.16923 0
M  V30 2099 H 204.977 -3.9678 1.41927 0
M  V30 2100 H 203.701 -3.2399 0.412094 0
M  V30 2101 H 202.36 -2.70348 2.47604 0
M  V30 2102 H 202.008 -4.86669 1.2713 0
M  V30 2103 H 201.708 -5.04136 3.01861 0
M  V30 2104 H 203.232 -5.65094 2.31304 0
M  V30 2105 H 204.646 -4.11772 3.98894 0
M  V30 2106 H 203.043 -3.74664 4.68771 0
M  V30 2107 H 204.113 -2.41897 4.20255 0
M  V30 2108 N 205.456 -1.28612 -0.910864 0
M  V30 2109 C 206.388 -1.08589 -2.01844 0
M  V30 2110 C 207.401 -0.0367419 -1.62759 0
M  V30 2111 O 208.59 -0.280101 -1.76289 0
M  V30 2112 C 205.69 -0.628626 -3.33019 0
M  V30 2113 C 204.863 -1.75382 -4.00699 0
M  V30 2114 C 203.922 -1.28945 -5.10156 0
M  V30 2115 O 202.948 -1.9922 -5.33198 0
M  V30 2116 N 204.15 -0.154224 -5.80295 0
M  V30 2117 H 206.915 -2.03973 -2.19579 0
M  V30 2118 H 204.476 -1.20403 -1.08234 0
M  V30 2119 H 206.468 -0.301508 -4.03575 0
M  V30 2120 H 205.038 0.232451 -3.11735 0
M  V30 2121 H 204.258 -2.25039 -3.23653 0
M  V30 2122 H 205.546 -2.50854 -4.42662 0
M  V30 2123 H 204.944 0.43194 -5.64049 0
M  V30 2124 H 203.501 0.113599 -6.51701 0
M  V30 2125 N 206.934 1.1197 -1.10907 0
M  V30 2126 C 208.183 1.82947 -0.849302 0
M  V30 2127 C 208.496 1.85275 0.627112 0
M  V30 2128 O 209.702 2.52296 1.00295 0
M  V30 2129 C 208.158 3.28529 -1.46959 0
M  V30 2130 C 207.766 3.34546 -2.97965 0
M  V30 2131 C 209.51 4.04443 -1.28942 0
M  V30 2132 C 207.417 4.74491 -3.53004 0
M  V30 2133 H 206.347 0.685477 -0.314065 0
M  V30 2134 H 208.998 1.2604 -1.33365 0
M  V30 2135 H 207.38 3.85333 -0.912917 0
M  V30 2136 H 208.554 2.87654 -3.59989 0
M  V30 2137 H 206.869 2.72108 -3.15192 0
M  V30 2138 H 209.466 5.07787 -1.67502 0
M  V30 2139 H 209.809 4.15656 -0.231456 0
M  V30 2140 H 210.342 3.5401 -1.81443 0
M  V30 2141 H 207.081 4.68474 -4.58489 0
M  V30 2142 H 206.601 5.21816 -2.9575 0
M  V30 2143 H 208.28 5.4344 -3.51115 0
M  V30 2144 N 208.412 0.89855 1.29475 0
M  V30 2145 C 209.689 0.443416 1.90508 0
M  V30 2146 C 210.069 -1.07685 1.81569 0
M  V30 2147 O 209.417 -1.9182 1.24166 0
M  V30 2148 C 209.627 0.956708 3.35631 0
M  V30 2149 C 210.975 0.999728 4.12663 0
M  V30 2150 O 211.999 0.904299 3.4453 0
M  V30 2151 O 210.858 1.14289 5.34416 0
M  V30 2152 H 207.952 0.138025 0.815401 0
M  V30 2153 H 210.498 0.98834 1.37949 0
M  V30 2154 H 209.27 2.00067 3.36287 0
M  V30 2155 H 208.893 0.391728 3.95666 0
M  V30 2156 N 209.89 -1.43072 0.660911 0
M  V30 2157 C 211.306 -1.56169 0.329173 0
M  V30 2158 C 211.506 -1.64317 -1.16629 0
M  V30 2159 O 210.562 -1.60245 -1.95135 0
M  V30 2160 C 211.875 -2.81873 1.04729 0
M  V30 2161 C 213.423 -2.95627 1.02828 0
M  V30 2162 C 213.898 -4.24174 1.72744 0
M  V30 2163 N 215.389 -4.31055 1.69545 0
M  V30 2164 C 216.124 -5.29304 2.20511 0
M  V30 2165 N 215.62 -6.33786 2.79799 0
M  V30 2166 N 217.413 -5.21008 2.10966 0
M  V30 2167 H 209.564 -1.36027 1.63127 0
M  V30 2168 H 211.827 -0.653823 0.686454 0
M  V30 2169 H 211.533 -2.81942 2.10242 0
M  V30 2170 H 211.407 -3.72338 0.603702 0
M  V30 2171 H 213.794 -2.95094 -0.0184742 0
M  V30 2172 H 213.875 -2.06431 1.51063 0
M  V30 2173 H 213.519 -4.25467 2.7738 0
M  V30 2174 H 213.449 -5.1228 1.2197 0
M  V30 2175 H 215.94 -3.56174 1.26288 0
M  V30 2176 H 216.253 -7.05086 3.16344 0
M  V30 2177 H 214.598 -6.34387 2.83863 0
M  V30 2178 H 217.789 -4.38301 1.64347 0
M  V30 2179 H 217.962 -5.97416 2.50993 0
M  V30 2180 N 211.368 -0.403325 -1.52352 0
M  V30 2181 C 212.645 0.232611 -1.94212 0
M  V30 2182 C 213.025 1.63133 -1.33981 0
M  V30 2183 O 212.373 2.22659 -0.513344 0
M  V30 2184 C 212.583 0.244811 -3.4814 0
M  V30 2185 C 213.931 0.46698 -4.22024 0
M  V30 2186 O 214.955 0.324419 -3.5472 0
M  V30 2187 O 213.814 0.74747 -5.41364 0
M  V30 2188 H 210.908 0.148223 -0.813609 0
M  V30 2189 H 213.454 -0.458848 -1.63379 0
M  V30 2190 H 212.226 -0.734378 -3.84347 0
M  V30 2191 H 211.849 0.980611 -3.85318 0
M  V30 2192 N 212.846 1.57033 -0.133567 0
M  V30 2193 C 214.071 2.00475 0.531477 0
M  V30 2194 C 214.496 1.01291 1.58499 0
M  V30 2195 O 213.854 -0.0133279 1.81295 0
M  V30 2196 C 213.902 3.42729 1.12113 0
M  V30 2197 O 213.006 3.46498 2.23636 0
M  V30 2198 H 212.347 0.650876 0.131362 0
M  V30 2199 H 214.877 2.03344 -0.22634 0
M  V30 2200 H 214.887 3.81246 1.4531 0
M  V30 2201 H 213.562 4.14428 0.349557 0
M  V30 2202 H 212.139 3.19811 1.91769 0
M  V30 2203 N 214.325 -0.140222 1.56975 0
M  V30 2204 C 215.573 -0.850005 1.83356 0
M  V30 2205 C 215.894 -1.81399 0.71551 0
M  V30 2206 O 215.164 -1.94136 -0.262294 0
M  V30 2207 H 213.744 -0.316886 0.676456 0
M  V30 2208 H 216.406 -0.132608 1.94448 0
M  V30 2209 H 215.502 -1.40814 2.78528 0
M  V30 2210 N 215.803 -1.52179 -0.40978 0
M  V30 2211 C 216.751 -1.76086 -1.51975 0
M  V30 2212 C 217.745 -0.627964 -1.57331 0
M  V30 2213 O 218.951 -0.809993 -1.60745 0
M  V30 2214 H 215.326 -0.556829 -0.505416 0
M  V30 2215 H 217.297 -2.69077 -1.28996 0
M  V30 2216 C 216.046 -1.92799 -2.8935 0
M  V30 2217 H 215.369 -2.79392 -2.85972 0
M  V30 2218 H 216.809 -2.13527 -3.66309 0
M  V30 2219 C 215.268 -0.694923 -3.29655 0
M  V30 2220 O 215.798 0.13751 -4.01465 0
M  V30 2221 N 214.004 -0.53101 -2.85707 0
M  V30 2222 H 213.551 -1.20952 -2.27439 0
M  V30 2223 H 213.509 0.292718 -3.13034 0
M  V30 2224 N 217.281 0.66697 -1.42791 0
M  V30 2225 C 218.692 1.2478 -1.38877 0
M  V30 2226 C 219.043 1.96012 -0.0859426 0
M  V30 2227 O 218.168 2.00463 0.815081 0
M  V30 2228 C 218.763 2.26938 -2.51564 0
M  V30 2229 C 217.322 2.80529 -2.50959 0
M  V30 2230 C 216.469 1.54965 -2.29959 0
M  V30 2231 H 219.42 0.459853 -1.51892 0
M  V30 2232 H 219.441 3.08834 -2.22265 0
M  V30 2233 H 218.953 1.75065 -3.46372 0
M  V30 2234 H 217.054 3.36502 -1.59991 0
M  V30 2235 H 217.167 3.29012 -3.48265 0
M  V30 2236 H 215.531 1.81817 -1.78366 0
M  V30 2237 H 216.314 1.05047 -3.26833 0
M  V30 2238 N 218.759 1.29093 0.90403 0
M  V30 2239 C 219.691 1.09658 2.01266 0
M  V30 2240 C 220.704 0.0453729 1.62737 0
M  V30 2241 O 221.893 0.289446 1.76138 0
M  V30 2242 C 218.993 0.646278 3.32681 0
M  V30 2243 C 218.166 1.77505 3.99763 0
M  V30 2244 C 217.225 1.31649 5.09465 0
M  V30 2245 O 216.251 2.02045 5.32134 0
M  V30 2246 N 217.453 0.184997 5.80205 0
M  V30 2247 H 220.218 2.05135 2.18494 0
M  V30 2248 H 217.779 1.20975 1.07594 0
M  V30 2249 H 219.771 0.322906 4.0341 0
M  V30 2250 H 218.341 -0.215916 3.11853 0
M  V30 2251 H 217.561 2.26752 3.22455 0
M  V30 2252 H 218.849 2.53198 4.41325 0
M  V30 2253 H 218.247 -0.402021 5.6427 0
M  V30 2254 H 216.804 -0.0790358 6.51752 0
M  V30 2255 N 220.237 -1.11381 1.11499 0
M  V30 2256 C 221.648 -1.6465 0.880191 0
M  V30 2257 C 221.999 -1.87199 -0.587434 0
M  V30 2258 O 221.124 -1.60667 -1.44966 0
M  V30 2259 C 221.719 -2.99105 1.59128 0
M  V30 2260 C 220.278 -3.49279 1.40289 0
M  V30 2261 C 219.425 -2.24077 1.63354 0
M  V30 2262 H 222.376 -0.950123 1.27116 0
M  V30 2263 H 222.397 -3.66107 1.03664 0
M  V30 2264 H 221.909 -2.82661 2.65941 0
M  V30 2265 H 220.01 -3.70887 0.356888 0
M  V30 2266 H 220.123 -4.2803 2.15238 0
M  V30 2267 H 218.487 -2.31733 1.05698 0
M  V30 2268 H 219.27 -2.10175 2.71443 0
M  V30 2269 N 221.715 -0.905404 -1.28997 0
M  V30 2270 C 222.645 -0.404212 -2.29975 0
M  V30 2271 C 223.626 0.523784 -1.61835 0
M  V30 2272 O 224.811 0.433298 -1.89304 0
M  V30 2273 C 221.941 0.364042 -3.45387 0
M  V30 2274 C 220.895 -0.474048 -4.25367 0
M  V30 2275 C 220.221 0.422045 -5.33032 0
M  V30 2276 C 221.521 -1.72696 -4.92923 0
M  V30 2277 H 223.215 -1.24807 -2.72146 0
M  V30 2278 H 220.761 -0.601585 -1.30832 0
M  V30 2279 H 222.714 0.725447 -4.15109 0
M  V30 2280 H 221.438 1.24174 -3.02074 0
M  V30 2281 H 220.097 -0.81786 -3.57361 0
M  V30 2282 H 219.745 1.29804 -4.85963 0
M  V30 2283 H 219.445 -0.135057 -5.87445 0
M  V30 2284 H 220.969 0.779517 -6.05604 0
M  V30 2285 H 222.383 -1.43495 -5.55051 0
M  V30 2286 H 220.78 -2.22582 -5.57295 0
M  V30 2287 H 221.85 -2.45964 -4.17887 0
M  V30 2288 N 223.193 1.4272 -0.668489 0
M  V30 2289 C 224.439 2.01923 -0.188419 0
M  V30 2290 C 224.772 1.52704 1.19979 0
M  V30 2291 O 224.047 0.726566 1.8042 0
M  V30 2292 C 224.33 3.59451 -0.216085 0
M  V30 2293 C 224.183 4.18864 -1.6393 0
M  V30 2294 C 225.502 4.37903 0.439179 0
M  V30 2295 H 222.621 0.733674 -0.0699412 0
M  V30 2296 H 225.263 1.69822 -0.852076 0
M  V30 2297 H 223.413 3.86929 0.349012 0
M  V30 2298 H 225.085 4.02362 -2.25616 0
M  V30 2299 H 223.328 3.74933 -2.18193 0
M  V30 2300 H 223.999 5.27987 -1.61039 0
M  V30 2301 H 226.475 4.16079 -0.0417878 0
M  V30 2302 H 225.351 5.47519 0.389157 0
M  V30 2303 H 225.612 4.15303 1.51577 0
M  V30 2304 N 224.671 0.411399 1.52136 0
M  V30 2305 C 225.619 -0.427633 2.28635 0
M  V30 2306 C 226.613 -1.04383 1.33419 0
M  V30 2307 O 227.819 -0.981772 1.50868 0
M  V30 2308 H 224.194 -0.156689 0.735495 0
M  V30 2309 H 226.165 0.238761 2.97443 0
M  V30 2310 C 224.914 -1.53082 3.12188 0
M  V30 2311 H 224.237 -1.06601 3.85326 0
M  V30 2312 H 225.677 -2.09167 3.68816 0
M  V30 2313 C 224.136 -2.49946 2.25895 0
M  V30 2314 O 224.666 -3.53884 1.90076 0
M  V30 2315 N 222.872 -2.2021 1.8962 0
M  V30 2316 H 222.419 -1.35719 2.18948 0
M  V30 2317 H 222.377 -2.85266 1.32176 0
M  V30 2318 N 226.149 -1.5696 0.141893 0
M  V30 2319 C 227.112 -2.15316 -0.785587 0
M  V30 2320 C 228.112 -1.09366 -1.1788 0
M  V30 2321 O 229.302 -1.35031 -1.10056 0
M  V30 2322 C 226.434 -2.71211 -2.06537 0
M  V30 2323 H 227.627 -2.98608 -0.278041 0
M  V30 2324 H 225.18 -1.5593 -0.107519 0
M  V30 2325 H 225.915 -1.91571 -2.6167 0
M  V30 2326 H 225.7 -3.4872 -1.79268 0
M  V30 2327 H 227.19 -3.16189 -2.72789 0
M  V30 2328 N 227.627 0.131896 -1.57047 0
M  V30 2329 C 228.559 1.1878 -1.9602 0
M  V30 2330 C 229.572 1.38363 -0.857875 0
M  V30 2331 O 230.761 1.37666 -1.13623 0
M  V30 2332 C 227.861 2.55008 -2.23213 0
M  V30 2333 C 227.034 2.56201 -3.54513 0
M  V30 2334 C 226.093 3.7408 -3.70069 0
M  V30 2335 O 225.119 3.58258 -4.42312 0
M  V30 2336 N 226.321 4.92137 -3.07866 0
M  V30 2337 H 229.086 0.85639 -2.87204 0
M  V30 2338 H 226.647 0.321309 -1.5868 0
M  V30 2339 H 228.639 3.32404 -2.30846 0
M  V30 2340 H 227.209 2.80382 -1.3822 0
M  V30 2341 H 226.429 1.64613 -3.58185 0
M  V30 2342 H 227.717 2.54043 -4.4084 0
M  V30 2343 H 227.115 5.07895 -2.49116 0
M  V30 2344 H 225.672 5.67254 -3.21039 0
M  V30 2345 N 229.106 1.52395 0.401703 0
M  V30 2346 C 230.346 1.68498 1.15705 0
M  V30 2347 C 230.71 0.409748 1.87577 0
M  V30 2348 O 231.911 0.446983 2.65058 0
M  V30 2349 C 230.182 2.87789 2.11924 0
M  V30 2350 S 231.741 3.24415 2.95466 0
M  V30 2351 H 228.559 0.593267 0.391862 0
M  V30 2352 H 231.161 1.90408 0.443282 0
M  V30 2353 H 229.865 3.7884 1.57824 0
M  V30 2354 H 229.396 2.68175 2.87829 0
M  V30 2355 H 231.411 2.73614 4.13944 0
M  V30 2356 N 230.584 -0.659388 1.43143 0
M  V30 2357 C 231.812 -1.44723 1.47861 0
M  V30 2358 C 232.227 -1.88563 0.0945886 0
M  V30 2359 O 231.584 -1.59108 -0.893915 0
M  V30 2360 C 231.635 -2.68627 2.41913 0
M  V30 2361 O 231.356 -2.26623 3.74932 0
M  V30 2362 C 232.857 -3.62045 2.55809 0
M  V30 2363 H 230.077 -0.444801 0.502387 0
M  V30 2364 H 232.621 -0.808916 1.87821 0
M  V30 2365 H 230.776 -3.28613 2.05164 0
M  V30 2366 H 231.19 -3.06745 4.2545 0
M  V30 2367 H 232.664 -4.45666 3.25708 0
M  V30 2368 H 233.141 -4.08981 1.60099 0
M  V30 2369 H 233.747 -3.07944 2.93344 0
M  V30 2370 N 232.062 -1.29571 -0.897171 0
M  V30 2371 C 233.339 -1.08365 -1.62839 0
M  V30 2372 C 233.719 0.371331 -2.07808 0
M  V30 2373 O 233.067 1.3606 -1.83576 0
M  V30 2374 C 233.277 -2.0735 -2.80726 0
M  V30 2375 C 234.625 -2.38406 -3.51351 0
M  V30 2376 O 235.649 -2.05564 -2.90898 0
M  V30 2377 O 234.508 -2.9453 -4.60341 0
M  V30 2378 H 231.602 -0.415345 -0.715134 0
M  V30 2379 H 234.148 -1.40952 -0.945018 0
M  V30 2380 H 232.92 -3.05339 -2.44711 0
M  V30 2381 H 232.543 -1.75507 -3.56767 0
M  V30 2382 N 233.54 1.10788 -1.12088 0
M  V30 2383 C 234.817 1.79136 -0.785476 0
M  V30 2384 C 235.197 1.98246 0.725377 0
M  V30 2385 O 234.545 1.57258 1.65778 0
M  V30 2386 C 234.755 3.12375 -1.55636 0
M  V30 2387 C 236.103 3.8731 -1.74001 0
M  V30 2388 O 237.127 3.22085 -1.52117 0
M  V30 2389 O 235.986 5.04369 -2.10415 0
M  V30 2390 H 233.08 0.776226 -0.285311 0
M  V30 2391 H 235.626 1.1747 -1.2247 0
M  V30 2392 H 234.398 2.93863 -2.5838 0
M  V30 2393 H 234.021 3.81758 -1.11114 0
M  V30 2394 N 235.018 0.912232 1.28515 0
M  V30 2395 C 236.248 0.559604 1.98877 0
M  V30 2396 C 236.656 -0.863113 1.68366 0
M  V30 2397 O 235.999 -1.58304 0.931969 0
M  V30 2398 C 236.061 0.68703 3.52874 0
M  V30 2399 C 235.725 2.07901 4.06972 0
M  V30 2400 C 236.722 3.05157 4.20922 0
M  V30 2401 C 234.407 2.39178 4.417 0
M  V30 2402 C 236.401 4.31806 4.68852 0
M  V30 2403 C 234.088 3.66068 4.89324 0
M  V30 2404 C 235.086 4.62195 5.02856 0
M  V30 2405 O 234.774 5.86829 5.49442 0
M  V30 2406 H 234.506 0.212191 0.641834 0
M  V30 2407 H 237.06 1.22712 1.64715 0
M  V30 2408 H 235.29 -0.0375486 3.86682 0
M  V30 2409 H 236.979 0.341727 4.04459 0
M  V30 2410 H 237.745 2.82311 3.94367 0
M  V30 2411 H 233.624 1.65109 4.30418 0
M  V30 2412 H 237.168 5.06842 4.79329 0
M  V30 2413 H 233.065 3.88739 5.15318 0
M  V30 2414 H 233.833 5.89597 5.6773 0
M  V30 2415 N 236.496 -1.42363 0.676048 0
M  V30 2416 C 237.726 -2.05561 0.206967 0
M  V30 2417 C 238.134 -1.50887 -1.14148 0
M  V30 2418 O 237.477 -0.643933 -1.72044 0
M  V30 2419 C 237.539 -3.5944 0.0659508 0
M  V30 2420 C 237.203 -4.36812 1.34331 0
M  V30 2421 C 238.2 -4.67383 2.27704 0
M  V30 2422 C 235.885 -4.76429 1.59125 0
M  V30 2423 C 237.879 -5.36509 3.44147 0
M  V30 2424 C 235.566 -5.45294 2.75857 0
M  V30 2425 C 236.564 -5.75259 3.68193 0
M  V30 2426 O 236.252 -6.42712 4.82883 0
M  V30 2427 H 235.984 -0.668872 0.0979084 0
M  V30 2428 H 238.538 -1.83467 0.923531 0
M  V30 2429 H 236.768 -3.80197 -0.706204 0
M  V30 2430 H 238.457 -4.0427 -0.363418 0
M  V30 2431 H 239.223 -4.37275 2.09799 0
M  V30 2432 H 235.102 -4.52498 0.881258 0
M  V30 2433 H 238.646 -5.59814 4.16238 0
M  V30 2434 H 234.543 -5.7482 2.93688 0
M  V30 2435 H 235.311 -6.61204 4.82444 0
M  V30 2436 N 237.974 -0.419461 -1.51915 0
M  V30 2437 C 239.39 -0.0708431 -1.59443 0
M  V30 2438 C 239.59 1.41796 -1.43164 0
M  V30 2439 O 238.646 2.18596 -1.26381 0
M  V30 2440 C 239.959 -0.574991 -2.95151 0
M  V30 2441 C 241.507 -0.533867 -3.08413 0
M  V30 2442 C 241.982 -1.01469 -4.46618 0
M  V30 2443 N 243.473 -0.971939 -4.52888 0
M  V30 2444 C 244.208 -1.31505 -5.58116 0
M  V30 2445 N 243.704 -1.73014 -6.70849 0
M  V30 2446 N 245.497 -1.23436 -5.48379 0
M  V30 2447 H 237.648 -1.38836 -1.60743 0
M  V30 2448 H 239.911 -0.570998 -0.756747 0
M  V30 2449 H 239.617 -1.61597 -3.12377 0
M  V30 2450 H 239.491 0.00979777 -3.77199 0
M  V30 2451 H 241.878 0.498086 -2.90866 0
M  V30 2452 H 241.959 -1.15484 -2.28248 0
M  V30 2453 H 241.603 -2.04502 -4.6491 0
M  V30 2454 H 241.533 -0.370433 -5.25295 0
M  V30 2455 H 244.024 -0.666893 -3.71969 0
M  V30 2456 H 244.337 -1.97479 -7.47143 0
M  V30 2457 H 242.682 -1.76926 -6.72103 0
M  V30 2458 H 245.873 -0.908869 -4.59192 0
M  V30 2459 H 246.046 -1.50506 -6.30279 0
M  V30 2460 N 239.452 1.56882 -0.150215 0
M  V30 2461 C 240.7 1.9584 0.499105 0
M  V30 2462 C 241.021 1.03623 1.65188 0
M  V30 2463 O 240.291 0.0984084 1.95653 0
M  V30 2464 H 238.871 0.723119 0.187373 0
M  V30 2465 H 241.533 1.9358 -0.226466 0
M  V30 2466 H 240.629 2.99638 0.873122 0
M  V30 2467 N 240.93 -0.123565 1.57115 0
M  V30 2468 C 241.88 -1.1575 1.96433 0
M  V30 2469 C 242.864 -1.37313 0.838686 0
M  V30 2470 O 244.056 -1.38482 1.10235 0
M  V30 2471 C 241.185 -2.48526 2.36833 0
M  V30 2472 C 240.271 -2.30457 3.5602 0
M  V30 2473 N 240.662 -1.8219 4.71848 0
M  V30 2474 C 238.96 -2.61129 3.61563 0
M  V30 2475 C 239.661 -1.77721 5.53886 0
M  V30 2476 N 238.637 -2.21899 4.96248 0
M  V30 2477 H 242.439 -0.776797 2.83449 0
M  V30 2478 H 239.953 -0.331364 1.58983 0
M  V30 2479 H 241.95 -3.233 2.63216 0
M  V30 2480 H 240.61 -2.87358 1.5118 0
M  V30 2481 H 241.621 -1.51805 4.95152 0
M  V30 2482 H 238.298 -3.03678 2.86507 0
M  V30 2483 H 239.688 -1.41697 6.56789 0
M  V30 2484 N 242.408 -1.52605 -0.393616 0
M  V30 2485 C 243.633 -1.71592 -1.16495 0
M  V30 2486 C 244.058 -0.43133 -1.83088 0
M  V30 2487 O 243.416 0.612523 -1.7064 0
M  V30 2488 C 243.464 -2.86318 -2.19213 0
M  V30 2489 O 242.568 -2.52969 -3.257 0
M  V30 2490 H 241.909 -0.570734 -0.33935 0
M  V30 2491 H 244.439 -1.99377 -0.459324 0
M  V30 2492 H 244.449 -3.1168 -2.63286 0
M  V30 2493 H 243.124 -3.79511 -1.7013 0
M  V30 2494 H 241.701 -2.38332 -2.86797 0
M  V30 2495 N 243.887 0.651787 -1.4349 0
M  V30 2496 C 244.85 1.74647 -1.48429 0
M  V30 2497 C 245.85 1.56513 -0.368817 0
M  V30 2498 O 247.04 1.62385 -0.630623 0
M  V30 2499 C 244.172 3.13533 -1.33827 0
M  V30 2500 H 245.365 1.71649 -2.4592 0
M  V30 2501 H 242.918 0.863573 -1.30277 0
M  V30 2502 H 243.653 3.22142 -0.37349 0
M  V30 2503 H 243.438 3.28101 -2.14691 0
M  V30 2504 H 244.928 3.93356 -1.40218 0
M  V30 2505 N 245.365 1.30045 0.890287 0
M  V30 2506 C 246.295 1.18541 2.01172 0
M  V30 2507 C 247.276 0.0773356 1.69924 0
M  V30 2508 O 248.461 0.25845 1.92473 0
M  V30 2509 C 245.591 0.870941 3.36202 0
M  V30 2510 C 244.545 1.93637 3.81692 0
M  V30 2511 C 243.871 1.475 5.13953 0
M  V30 2512 C 245.171 3.34666 4.00994 0
M  V30 2513 H 246.865 2.12359 2.11054 0
M  V30 2514 H 244.411 1.02238 1.01407 0
M  V30 2515 H 246.364 0.777141 4.14172 0
M  V30 2516 H 245.088 -0.102926 3.26438 0
M  V30 2517 H 243.747 2.01972 3.05946 0
M  V30 2518 H 243.395 0.489551 5.00612 0
M  V30 2519 H 243.095 2.1876 5.4536 0
M  V30 2520 H 244.619 1.39489 5.94454 0
M  V30 2521 H 246.033 3.2912 4.69417 0
M  V30 2522 H 244.43 4.03966 4.43769 0
M  V30 2523 H 245.5 3.76949 3.05021 0
M  V30 2524 N 246.843 -1.10192 1.12674 0
M  V30 2525 C 247.793 -2.14754 0.765801 0
M  V30 2526 C 248.777 -1.59154 -0.236409 0
M  V30 2527 O 249.969 -1.76951 -0.0415261 0
M  V30 2528 C 247.098 -3.42563 0.224827 0
M  V30 2529 C 246.184 -4.05091 1.25548 0
M  V30 2530 N 246.575 -4.42287 2.4539 0
M  V30 2531 C 244.873 -4.32186 1.10142 0
M  V30 2532 C 245.574 -4.91441 3.11224 0
M  V30 2533 N 244.55 -4.88405 2.38666 0
M  V30 2534 H 248.352 -2.41309 1.67772 0
M  V30 2535 H 245.866 -1.27339 1.00789 0
M  V30 2536 H 247.863 -4.16868 -0.0519578 0
M  V30 2537 H 246.523 -3.17467 -0.681515 0
M  V30 2538 H 247.534 -4.33902 2.82754 0
M  V30 2539 H 244.211 -4.16735 0.252587 0
M  V30 2540 H 245.601 -5.29749 4.13298 0
M  V30 2541 N 248.321 -0.919034 -1.28029 0
M  V30 2542 C 249.57 -0.550802 -1.94034 0
M  V30 2543 C 249.883 0.910877 -1.73096 0
M  V30 2544 O 251.089 1.3875 -2.33368 0
M  V30 2545 C 249.545 -0.934249 -3.47563 0
M  V30 2546 C 249.153 -2.41602 -3.7727 0
M  V30 2547 C 250.897 -0.636854 -4.19696 0
M  V30 2548 C 248.804 -2.73932 -5.24133 0
M  V30 2549 H 247.734 -0.202273 -0.726362 0
M  V30 2550 H 250.385 -1.11867 -1.45458 0
M  V30 2551 H 248.767 -0.295115 -3.94899 0
M  V30 2552 H 249.941 -3.10233 -3.40723 0
M  V30 2553 H 248.256 -2.68441 -3.18321 0
M  V30 2554 H 250.853 -0.855005 -5.2782 0
M  V30 2555 H 251.196 0.425575 -4.14119 0
M  V30 2556 H 251.729 -1.23469 -3.78154 0
M  V30 2557 H 248.468 -3.79049 -5.34792 0
M  V30 2558 H 247.988 -2.09942 -5.61858 0
M  V30 2559 H 249.667 -2.61215 -5.91925 0
M  V30 2560 N 249.799 1.42003 -0.683588 0
M  V30 2561 C 250.762 2.29191 -0.0198243 0
M  V30 2562 C 251.762 1.43773 0.72013 0
M  V30 2563 O 252.952 1.65061 0.556815 0
M  V30 2564 C 250.084 3.26435 0.982487 0
M  V30 2565 H 251.277 2.8938 -0.787345 0
M  V30 2566 H 248.83 1.49789 -0.446418 0
M  V30 2567 H 249.565 2.71203 1.77819 0
M  V30 2568 H 249.35 3.89449 0.455182 0
M  V30 2569 H 250.84 3.918 1.44508 0
M  V30 2570 N 251.277 0.427512 1.51691 0
M  V30 2571 C 252.526 -0.143679 2.01188 0
M  V30 2572 C 252.839 -1.44642 1.31674 0
M  V30 2573 O 254.045 -2.09997 1.72086 0
M  V30 2574 C 252.501 -0.306602 3.58592 0
M  V30 2575 C 252.109 0.985125 4.37035 0
M  V30 2576 C 253.853 -0.832091 4.16265 0
M  V30 2577 C 251.76 0.788382 5.86122 0
M  V30 2578 H 250.69 -0.0574701 0.751807 0
M  V30 2579 H 253.341 0.555772 1.74881 0
M  V30 2580 H 251.723 -1.06882 3.81303 0
M  V30 2581 H 252.897 1.75492 4.26074 0
M  V30 2582 H 251.212 1.4384 3.90767 0
M  V30 2583 H 253.809 -0.995617 5.25349 0
M  V30 2584 H 254.152 -1.81186 3.74803 0
M  V30 2585 H 254.685 -0.128444 3.97593 0
M  V30 2586 H 251.424 1.74025 6.31978 0
M  V30 2587 H 250.944 0.0582143 5.99772 0
M  V30 2588 H 252.623 0.437722 6.45518 0
M  V30 2589 N 252.755 -1.56801 0.158532 0
M  V30 2590 C 253.665 -2.20916 -0.789518 0
M  V30 2591 C 254.681 -1.1969 -1.26294 0
M  V30 2592 O 255.857 -1.52308 -1.31773 0
M  V30 2593 C 252.922 -2.82727 -2.00665 0
M  V30 2594 C 251.983 -3.99114 -1.58134 0
M  V30 2595 C 251.216 -4.57968 -2.74045 0
M  V30 2596 O 251.439 -4.15704 -3.90572 0
M  V30 2597 O 250.373 -5.48047 -2.48855 0
M  V30 2598 H 254.199 -3.02464 -0.273681 0
M  V30 2599 H 251.784 -1.4924 -0.0690548 0
M  V30 2600 H 253.666 -3.21968 -2.71872 0
M  V30 2601 H 252.341 -2.04184 -2.51179 0
M  V30 2602 H 251.248 -3.64567 -0.839155 0
M  V30 2603 H 252.581 -4.79212 -1.12325 0
M  V30 2604 N 254.233 0.115231 -1.57178 0
M  V30 2605 C 255.18 1.14115 -2.00615 0
M  V30 2606 C 256.15 1.40939 -0.878941 0
M  V30 2607 O 257.335 1.52741 -1.14345 0
M  V30 2608 C 254.475 2.46156 -2.4187 0
M  V30 2609 C 253.588 2.26236 -3.68024 0
M  V30 2610 C 252.723 3.51534 -3.98243 0
M  V30 2611 C 251.762 3.26787 -5.17568 0
M  V30 2612 N 250.899 4.44298 -5.43639 0
M  V30 2613 H 255.739 0.763743 -2.88047 0
M  V30 2614 H 253.276 0.365615 -1.42484 0
M  V30 2615 H 255.234 3.23189 -2.63827 0
M  V30 2616 H 253.864 2.81783 -1.57475 0
M  V30 2617 H 252.916 1.40102 -3.5366 0
M  V30 2618 H 254.228 2.03929 -4.55208 0
M  V30 2619 H 253.382 4.36984 -4.20868 0
M  V30 2620 H 252.121 3.76876 -3.09541 0
M  V30 2621 H 251.126 2.39729 -4.94783 0
M  V30 2622 H 252.351 3.02812 -6.0785 0
M  V30 2623 H 250.297 4.69754 -4.57895 0
M  V30 2624 H 250.214 4.25109 -6.25154 0
M  V30 2625 H 251.482 5.3087 -5.70786 0
M  V30 2626 N 255.711 1.52812 0.385517 0
M  V30 2627 C 257.127 1.4214 0.725829 0
M  V30 2628 C 257.327 0.544589 1.94001 0
M  V30 2629 O 256.383 0.0193693 2.52493 0
M  V30 2630 C 257.696 2.85042 0.957668 0
M  V30 2631 C 259.244 2.94543 1.05892 0
M  V30 2632 C 259.719 4.38464 1.32337 0
M  V30 2633 N 261.21 4.41804 1.39151 0
M  V30 2634 C 261.945 5.5025 1.61285 0
M  V30 2635 N 261.441 6.68775 1.80866 0
M  V30 2636 N 263.234 5.37798 1.63492 0
M  V30 2637 H 255.385 2.08338 -0.413383 0
M  V30 2638 H 257.648 0.940016 -0.122775 0
M  V30 2639 H 257.354 3.51431 0.137568 0
M  V30 2640 H 257.228 3.27505 1.87137 0
M  V30 2641 H 259.615 2.28321 1.86959 0
M  V30 2642 H 259.696 2.55504 0.123057 0
M  V30 2643 H 259.34 5.05254 0.517793 0
M  V30 2644 H 259.27 4.75059 2.27214 0
M  V30 2645 H 261.761 3.56377 1.25713 0
M  V30 2646 H 262.074 7.47197 1.97271 0
M  V30 2647 H 260.419 6.71797 1.78083 0
M  V30 2648 H 263.61 4.44171 1.47749 0
M  V30 2649 H 263.783 6.22382 1.80402 0
M  V30 2650 N 257.189 -0.644168 1.43834 0
M  V30 2651 C 258.414 -1.43642 1.49605 0
M  V30 2652 C 258.839 -1.8773 0.117913 0
M  V30 2653 O 258.197 -1.57938 -0.890239 0
M  V30 2654 C 258.245 -2.6416 2.45463 0
M  V30 2655 O 257.349 -3.63538 1.94714 0
M  V30 2656 H 256.69 -0.430329 0.50568 0
M  V30 2657 H 259.22 -0.787448 1.8884 0
M  V30 2658 H 259.23 -3.11864 2.63068 0
M  V30 2659 H 257.905 -2.31414 3.45572 0
M  V30 2660 H 256.482 -3.2273 1.86814 0
M  V30 2661 N 258.668 -1.30515 -0.883378 0
M  V30 2662 C 259.598 -1.19607 -2.00541 0
M  V30 2663 C 260.579 -0.086346 -1.69881 0
M  V30 2664 O 261.764 -0.268654 -1.92333 0
M  V30 2665 C 258.894 -0.888758 -3.35736 0
M  V30 2666 C 257.848 -1.95659 -3.8066 0
M  V30 2667 C 257.174 -1.50224 -5.13164 0
M  V30 2668 C 258.474 -3.36788 -3.99213 0
M  V30 2669 H 260.168 -2.13476 -2.09925 0
M  V30 2670 H 257.714 -1.02775 -1.00863 0
M  V30 2671 H 259.667 -0.799094 -4.13754 0
M  V30 2672 H 258.391 0.0856125 -3.26488 0
M  V30 2673 H 257.05 -2.03591 -3.04871 0
M  V30 2674 H 256.698 -0.516092 -5.00345 0
M  V30 2675 H 256.398 -2.2165 -5.44192 0
M  V30 2676 H 257.922 -1.42639 -5.93706 0
M  V30 2677 H 259.336 -3.31605 -4.67665 0
M  V30 2678 H 257.733 -4.06314 -4.41621 0
M  V30 2679 H 258.803 -3.78561 -3.03017 0
M  V30 2680 N 260.146 1.09593 -1.13257 0
M  V30 2681 C 261.078 2.16015 -0.766167 0
M  V30 2682 C 262.091 1.61423 0.211303 0
M  V30 2683 O 263.28 1.78498 -0.00863946 0
M  V30 2684 C 260.38 3.38706 -0.114662 0
M  V30 2685 C 259.553 4.22717 -1.12379 0
M  V30 2686 C 258.612 5.23835 -0.498301 0
M  V30 2687 O 257.638 5.573 -1.15781 0
M  V30 2688 N 258.84 5.75886 0.730417 0
M  V30 2689 H 261.605 2.48055 -1.68193 0
M  V30 2690 H 259.166 1.25292 -1.02535 0
M  V30 2691 H 261.158 4.03464 0.315991 0
M  V30 2692 H 259.728 3.04569 0.704011 0
M  V30 2693 H 258.948 3.54122 -1.73179 0
M  V30 2694 H 260.236 4.75673 -1.80589 0
M  V30 2695 H 259.634 5.50911 1.28504 0
M  V30 2696 H 258.191 6.42387 1.10376 0
M  V30 2697 N 261.624 0.925811 1.2754 0
M  V30 2698 C 262.864 0.572521 1.96218 0
M  V30 2699 C 263.228 -0.869719 1.71172 0
M  V30 2700 O 264.429 -1.33119 2.33523 0
M  V30 2701 C 262.7 0.887325 3.4621 0
M  V30 2702 S 264.259 0.642266 4.34074 0
M  V30 2703 H 261.077 0.211403 0.678845 0
M  V30 2704 H 263.679 1.19384 1.54815 0
M  V30 2705 H 262.383 1.93469 3.61936 0
M  V30 2706 H 261.914 0.255123 3.92572 0
M  V30 2707 H 263.929 -0.500822 4.93666 0
M  V30 2708 N 263.102 -1.41638 0.69111 0
M  V30 2709 C 264.348 -2.01598 0.220519 0
M  V30 2710 C 264.681 -1.54594 -1.17535 0
M  V30 2711 O 263.956 -0.755177 -1.79241 0
M  V30 2712 C 264.239 -3.59062 0.273243 0
M  V30 2713 C 264.092 -4.16203 1.70573 0
M  V30 2714 C 265.411 -4.38546 -0.369457 0
M  V30 2715 H 262.53 -0.732468 0.0816045 0
M  V30 2716 H 265.172 -1.68445 0.878986 0
M  V30 2717 H 263.322 -3.87435 -0.287411 0
M  V30 2718 H 264.994 -3.98722 2.31989 0
M  V30 2719 H 263.237 -3.71414 2.2413 0
M  V30 2720 H 263.908 -5.25358 1.69419 0
M  V30 2721 H 266.384 -4.1596 0.107977 0
M  V30 2722 H 265.26 -5.48069 -0.302002 0
M  V30 2723 H 265.521 -4.17662 -1.44951 0
M  V30 2724 N 264.58 -0.43555 -1.51462 0
M  V30 2725 C 265.527 0.376797 -2.27703 0
M  V30 2726 C 266.497 1.01838 -1.31219 0
M  V30 2727 O 267.682 1.03762 -1.60119 0
M  V30 2728 C 264.822 1.47301 -3.12084 0
M  V30 2729 C 263.935 0.849744 -4.2356 0
M  V30 2730 C 263.07 1.92086 -4.95254 0
M  V30 2731 C 262.109 1.27593 -5.98654 0
M  V30 2732 N 261.246 2.28833 -6.63762 0
M  V30 2733 H 266.086 -0.279734 -2.96684 0
M  V30 2734 H 263.623 -0.149795 -1.46335 0
M  V30 2735 H 265.581 2.11984 -3.59331 0
M  V30 2736 H 264.211 2.0992 -2.45221 0
M  V30 2737 H 263.263 0.0912529 -3.80291 0
M  V30 2738 H 264.575 0.338878 -4.97648 0
M  V30 2739 H 263.729 2.64435 -5.46039 0
M  V30 2740 H 262.468 2.46545 -4.20793 0
M  V30 2741 H 261.473 0.537893 -5.47162 0
M  V30 2742 H 262.698 0.738693 -6.7507 0
M  V30 2743 H 260.644 2.82375 -5.92115 0
M  V30 2744 H 260.561 1.82632 -7.33608 0
M  V30 2745 H 261.829 3.00671 -7.19178 0
M  V30 2746 N 266.058 1.56714 -0.166846 0
M  V30 2747 C 266.988 2.20754 0.760913 0
M  V30 2748 C 267.969 1.16178 1.24244 0
M  V30 2749 O 269.154 1.44592 1.29641 0
M  V30 2750 C 266.284 2.84478 1.99223 0
M  V30 2751 C 265.238 3.95053 1.64672 0
M  V30 2752 C 264.564 4.45805 2.95232 0
M  V30 2753 C 265.864 5.14865 0.878155 0
M  V30 2754 H 267.558 2.98537 0.22713 0
M  V30 2755 H 265.104 1.43596 0.107805 0
M  V30 2756 H 267.057 3.27951 2.64624 0
M  V30 2757 H 265.781 2.04056 2.55007 0
M  V30 2758 H 264.44 3.52228 1.01641 0
M  V30 2759 H 264.088 3.62181 3.49047 0
M  V30 2760 H 263.788 5.204 2.7287 0
M  V30 2761 H 265.312 4.91962 3.6167 0
M  V30 2762 H 266.726 5.55059 1.43466 0
M  V30 2763 H 265.123 5.95348 0.753738 0
M  V30 2764 H 266.193 4.84735 -0.126377 0
M  V30 2765 N 267.536 -0.106894 1.57237 0
M  V30 2766 C 268.466 -1.13148 2.04254 0
M  V30 2767 C 269.447 -1.42476 0.929224 0
M  V30 2768 O 270.632 -1.52709 1.19973 0
M  V30 2769 C 267.762 -2.4545 2.45706 0
M  V30 2770 C 266.716 -2.30558 3.60592 0
M  V30 2771 C 266.042 -3.67931 3.87983 0
M  V30 2772 C 267.342 -1.75597 4.91897 0
M  V30 2773 H 269.036 -0.740374 2.90101 0
M  V30 2774 H 266.582 -0.354696 1.39563 0
M  V30 2775 H 268.535 -3.17389 2.77205 0
M  V30 2776 H 267.259 -2.86475 1.56843 0
M  V30 2777 H 265.918 -1.61067 3.29322 0
M  V30 2778 H 265.566 -4.06462 2.96306 0
M  V30 2779 H 265.266 -3.58817 4.65322 0
M  V30 2780 H 266.79 -4.41356 4.21945 0
M  V30 2781 H 268.204 -2.37364 5.21854 0
M  V30 2782 H 266.601 -1.77272 5.73319 0
M  V30 2783 H 267.671 -0.714451 4.79608 0
M  V30 2784 N 269.014 -1.53014 -0.377408 0
M  V30 2785 C 270.26 -1.68872 -1.12294 0
M  V30 2786 C 270.593 -0.433224 -1.89306 0
M  V30 2787 O 269.868 0.569258 -1.85983 0
M  V30 2788 C 270.151 -2.93115 -2.09179 0
M  V30 2789 C 270.004 -4.28794 -1.35853 0
M  V30 2790 C 271.323 -3.12928 -3.09458 0
M  V30 2791 H 268.442 -0.614518 -0.406862 0
M  V30 2792 H 271.084 -1.85633 -0.40503 0
M  V30 2793 H 269.234 -2.78956 -2.70399 0
M  V30 2794 H 270.906 -4.54742 -0.775082 0
M  V30 2795 H 269.149 -4.28744 -0.660364 0
M  V30 2796 H 269.82 -5.11837 -2.06706 0
M  V30 2797 H 272.296 -3.26194 -2.58334 0
M  V30 2798 H 271.172 -4.01316 -3.74482 0
M  V30 2799 H 271.433 -2.27669 -3.78971 0
M  V30 2800 N 270.492 0.636531 -1.44174 0
M  V30 2801 C 271.402 1.77754 -1.53103 0
M  V30 2802 C 272.418 1.68928 -0.417034 0
M  V30 2803 O 273.594 1.89801 -0.6736 0
M  V30 2804 C 270.659 3.14115 -1.46741 0
M  V30 2805 C 269.72 3.34612 -2.68948 0
M  V30 2806 C 268.953 4.64467 -2.6288 0
M  V30 2807 O 269.176 5.44919 -1.68581 0
M  V30 2808 O 268.11 4.87049 -3.53648 0
M  V30 2809 H 271.936 1.73174 -2.49489 0
M  V30 2810 H 269.521 0.79709 -1.2636 0
M  V30 2811 H 271.403 3.95412 -1.45696 0
M  V30 2812 H 270.078 3.19249 -0.534975 0
M  V30 2813 H 268.985 2.53014 -2.75562 0
M  V30 2814 H 270.318 3.34336 -3.61221 0
M  V30 2815 N 271.97 1.30982 0.876444 0
M  V30 2816 C 272.918 1.18006 2.00443 0
M  V30 2817 C 273.912 0.0898871 1.69161 0
M  V30 2818 O 275.118 0.251333 1.78237 0
M  V30 2819 H 271.493 0.365196 0.65737 0
M  V30 2820 H 273.464 2.13453 2.0852 0
M  V30 2821 C 272.213 0.897521 3.35916 0
M  V30 2822 H 271.536 1.7285 3.60504 0
M  V30 2823 H 272.976 0.846874 4.15456 0
M  V30 2824 C 271.435 -0.399674 3.34521 0
M  V30 2825 O 271.965 -1.41852 3.7582 0
M  V30 2826 N 270.171 -0.413893 2.87637 0
M  V30 2827 H 269.718 0.41571 2.54224 0
M  V30 2828 H 269.676 -1.28175 2.87086 0
M  V30 2829 N 273.449 -1.08991 1.13837 0
M  V30 2830 C 274.697 -1.80899 0.901098 0
M  V30 2831 C 275.018 -1.86356 -0.574134 0
M  V30 2832 O 274.288 -1.35235 -1.41733 0
M  V30 2833 H 272.868 -0.669966 0.330386 0
M  V30 2834 H 275.53 -1.318 1.43578 0
M  V30 2835 H 274.626 -2.83929 1.29578 0
M  V30 2836 N 274.927 -0.932562 -1.27047 0
M  V30 2837 C 275.89 -0.440064 -2.24936 0
M  V30 2838 C 276.89 0.444071 -1.54547 0
M  V30 2839 O 278.08 0.244465 -1.72476 0
M  V30 2840 C 275.212 0.36678 -3.38921 0
M  V30 2841 H 276.405 -1.305 -2.70018 0
M  V30 2842 H 273.958 -0.713707 -1.39054 0
M  V30 2843 H 274.693 1.25033 -2.99228 0
M  V30 2844 H 274.478 -0.267204 -3.91188 0
M  V30 2845 H 275.968 0.701567 -4.11665 0
M  V30 2846 N 276.405 1.4127 -0.698611 0
M  V30 2847 C 277.353 2.32588 -0.023855 0
M  V30 2848 C 278.347 1.51128 0.765292 0
M  V30 2849 O 279.553 1.67043 0.670571 0
M  V30 2850 H 275.928 0.751918 0.0110871 0
M  V30 2851 H 277.899 2.87167 -0.811031 0
M  V30 2852 C 276.648 3.35947 0.896369 0
M  V30 2853 H 275.971 3.98684 0.298548 0
M  V30 2854 H 277.411 4.02376 1.33676 0
M  V30 2855 C 275.87 2.70076 2.01396 0
M  V30 2856 O 276.4 2.55093 3.10307 0
M  V30 2857 N 274.606 2.28724 1.79259 0
M  V30 2858 H 274.153 2.4111 0.906841 0
M  V30 2859 H 274.111 1.84986 2.54219 0
M  V30 2860 N 277.883 0.443576 1.51229 0
M  V30 2861 C 279.129 -0.120975 2.02439 0
M  V30 2862 C 279.462 -1.41815 1.32674 0
M  V30 2863 O 278.737 -1.89373 0.443622 0
M  V30 2864 C 279.02 -0.333291 3.58554 0
M  V30 2865 C 278.873 0.982968 4.38928 0
M  V30 2866 C 280.192 -1.10028 4.26124 0
M  V30 2867 H 277.311 -0.0424923 0.735774 0
M  V30 2868 H 279.953 0.583794 1.80809 0
M  V30 2869 H 278.103 -0.933614 3.77115 0
M  V30 2870 H 279.775 1.61775 4.32003 0
M  V30 2871 H 278.018 1.58611 4.03763 0
M  V30 2872 H 278.689 0.788379 5.46341 0
M  V30 2873 H 281.165 -0.591711 4.11871 0
M  V30 2874 H 280.041 -1.21761 5.35225 0
M  V30 2875 H 280.302 -2.12996 3.87408 0
M  V30 2876 N 279.361 -1.56624 0.175154 0
M  V30 2877 C 280.311 -2.14747 -0.766004 0
M  V30 2878 C 281.295 -1.08275 -1.19018 0
M  V30 2879 O 282.487 -1.34388 -1.15191 0
M  V30 2880 C 279.616 -2.79478 -1.99366 0
M  V30 2881 C 278.702 -3.93114 -1.5913 0
M  V30 2882 N 279.093 -4.97752 -0.89872 0
M  V30 2883 C 277.391 -4.04345 -1.88204 0
M  V30 2884 C 278.092 -5.77473 -0.700012 0
M  V30 2885 N 277.068 -5.29207 -1.24263 0
M  V30 2886 H 280.87 -2.93015 -0.22793 0
M  V30 2887 H 278.384 -1.6238 -0.0253843 0
M  V30 2888 H 280.381 -3.19498 -2.67818 0
M  V30 2889 H 279.041 -2.02692 -2.53665 0
M  V30 2890 H 280.052 -5.14903 -0.556347 0
M  V30 2891 H 276.729 -3.38667 -2.44153 0
M  V30 2892 H 278.119 -6.71728 -0.152047 0
M  V30 2893 N 280.839 0.0985539 -1.57292 0
M  V30 2894 C 281.802 1.10402 -2.00858 0
M  V30 2895 C 282.802 1.33146 -0.901593 0
M  V30 2896 O 283.992 1.29318 -1.16716 0
M  V30 2897 C 281.124 2.45394 -2.36632 0
M  V30 2898 H 282.317 0.729099 -2.90902 0
M  V30 2899 H 279.87 0.343495 -1.52479 0
M  V30 2900 H 280.605 2.87769 -1.49531 0
M  V30 2901 H 280.39 2.30235 -3.17387 0
M  V30 2902 H 281.88 3.17718 -2.71007 0
M  V30 2903 N 282.317 1.53212 0.369288 0
M  V30 2904 C 283.733 1.42902 0.710712 0
M  V30 2905 C 283.933 0.565135 1.93413 0
M  V30 2906 O 282.989 0.0461484 2.52458 0
M  V30 2907 C 284.302 2.86042 0.927382 0
M  V30 2908 C 285.85 2.9565 1.02762 0
M  V30 2909 C 286.325 4.39843 1.27679 0
M  V30 2910 N 287.816 4.43256 1.34457 0
M  V30 2911 C 288.551 5.51929 1.55439 0
M  V30 2912 N 288.047 6.70655 1.73762 0
M  V30 2913 N 289.84 5.39502 1.57779 0
M  V30 2914 H 281.991 2.07888 -0.435457 0
M  V30 2915 H 284.254 0.938661 -0.132739 0
M  V30 2916 H 283.96 3.51557 0.100287 0
M  V30 2917 H 283.834 3.29472 1.83653 0
M  V30 2918 H 286.221 2.30291 1.84527 0
M  V30 2919 H 286.302 2.5562 0.0959504 0
M  V30 2920 H 285.946 5.05774 0.464175 0
M  V30 2921 H 285.876 4.77443 2.22162 0
M  V30 2922 H 288.367 3.5769 1.21926 0
M  V30 2923 H 288.68 7.49248 1.89335 0
M  V30 2924 H 287.025 6.73648 1.70948 0
M  V30 2925 H 290.216 4.45713 1.43029 0
M  V30 2926 H 290.389 6.2426 1.7379 0
M  V30 2927 N 283.795 -0.628877 1.44509 0
M  V30 2928 C 284.758 -1.72263 1.51188 0
M  V30 2929 C 285.758 -1.55907 0.39367 0
M  V30 2930 O 286.948 -1.61361 0.656377 0
M  V30 2931 C 284.08 -3.11365 1.38798 0
M  V30 2932 H 285.273 -1.67714 2.4862 0
M  V30 2933 H 282.826 -0.842737 1.31634 0
M  V30 2934 H 283.561 -3.21507 0.424693 0
M  V30 2935 H 283.346 -3.24644 2.19884 0
M  V30 2936 H 284.836 -3.91075 1.46458 0
M  V30 2937 N 285.273 -1.31445 -0.869486 0
M  V30 2938 C 286.513 -1.22458 -1.63656 0
M  V30 2939 C 286.877 0.213846 -1.90805 0
M  V30 2940 O 288.078 0.427212 -2.65383 0
M  V30 2941 C 286.349 -2.04564 -2.93067 0
M  V30 2942 S 287.908 -2.12445 -3.83944 0
M  V30 2943 H 284.726 -0.436145 -0.561514 0
M  V30 2944 H 287.328 -1.66114 -1.03085 0
M  V30 2945 H 286.032 -3.0816 -2.71045 0
M  V30 2946 H 285.563 -1.6163 -3.58663 0
M  V30 2947 H 287.578 -1.26312 -4.79854 0
M  V30 2948 N 286.751 1.08385 -1.14413 0
M  V30 2949 C 287.999 1.80419 -0.910679 0
M  V30 2950 C 288.32 1.86658 0.564243 0
M  V30 2951 O 287.59 1.35985 1.41014 0
M  V30 2952 H 286.17 0.668204 -0.333934 0
M  V30 2953 H 288.832 1.31037 -1.44275 0
M  V30 2954 H 287.928 2.83238 -1.31082 0
M  V30 2955 N 288.23 0.939286 1.26551 0
M  V30 2956 C 289.646 0.641304 1.46149 0
M  V30 2957 C 289.846 -0.805964 1.84679 0
M  V30 2958 O 288.902 -1.58278 1.96734 0
M  V30 2959 C 290.215 1.6011 2.54529 0
M  V30 2960 C 291.763 1.6106 2.68382 0
M  V30 2961 C 292.238 2.55765 3.79932 0
M  V30 2962 N 293.729 2.5404 3.87322 0
M  V30 2963 C 294.464 3.24004 4.73085 0
M  V30 2964 N 293.96 4.03388 5.63249 0
M  V30 2965 N 295.753 3.12965 4.66914 0
M  V30 2966 H 287.904 1.87478 0.998285 0
M  V30 2967 H 290.167 0.805559 0.499779 0
M  V30 2968 H 289.873 2.63412 2.33039 0
M  V30 2969 H 289.747 1.35171 3.52149 0
M  V30 2970 H 292.134 0.584835 2.89247 0
M  V30 2971 H 292.215 1.90053 1.71212 0
M  V30 2972 H 291.859 3.58458 3.5982 0
M  V30 2973 H 291.789 2.24063 4.76554 0
M  V30 2974 H 294.28 1.96396 3.22858 0
M  V30 2975 H 294.593 4.5373 6.25579 0
M  V30 2976 H 292.938 4.07489 5.63008 0
M  V30 2977 H 296.129 2.50432 3.95476 0
M  V30 2978 H 296.302 3.67759 5.33533 0
M  V30 2979 N 289.708 -1.40897 0.706093 0
M  V30 2980 C 290.955 -2.01054 0.241531 0
M  V30 2981 C 291.283 -1.55956 -1.16223 0
M  V30 2982 O 290.538 -0.766336 -1.80072 0
M  V30 2983 C 290.837 -3.5646 0.259099 0
M  V30 2984 C 290.503 -4.21106 1.61184 0
M  V30 2985 C 289.165 -4.38479 1.98216 0
M  V30 2986 C 291.517 -4.57256 2.50132 0
M  V30 2987 C 288.845 -4.89282 3.2376 0
M  V30 2988 C 291.197 -5.09454 3.7502 0
M  V30 2989 C 289.861 -5.25037 4.12181 0
M  V30 2990 H 289.131 -0.73571 0.0883825 0
M  V30 2991 H 291.778 -1.68645 0.907257 0
M  V30 2992 H 290.083 -3.88721 -0.490189 0
M  V30 2993 H 291.78 -4.00826 -0.11804 0
M  V30 2994 H 288.37 -4.07966 1.31384 0
M  V30 2995 H 292.554 -4.43479 2.228 0
M  V30 2996 H 287.81 -4.99531 3.52532 0
M  V30 2997 H 291.984 -5.36404 4.44121 0
M  V30 2998 H 289.611 -5.64164 5.09532 0
M  V30 2999 N 291.186 -0.45159 -1.50991 0
M  V30 3000 C 292.433 0.110074 -2.02201 0
M  V30 3001 C 292.761 1.4146 -1.33489 0
M  V30 3002 O 292.016 1.90617 -0.443125 0
M  V30 3003 C 292.315 0.361728 -3.55565 0
M  V30 3004 C 291.981 -0.858717 -4.42648 0
M  V30 3005 C 290.643 -1.19338 -4.66167 0
M  V30 3006 C 292.995 -1.67221 -4.93646 0
M  V30 3007 C 290.323 -2.34195 -5.37931 0
M  V30 3008 C 292.675 -2.8119 -5.6667 0
M  V30 3009 C 291.339 -3.15094 -5.88449 0
M  V30 3010 H 290.609 0.040279 -0.739904 0
M  V30 3011 H 293.256 -0.601696 -1.81802 0
M  V30 3012 H 291.561 1.15554 -3.74372 0
M  V30 3013 H 293.258 0.80996 -3.92735 0
M  V30 3014 H 289.848 -0.58796 -4.24548 0
M  V30 3015 H 294.032 -1.42686 -4.75347 0
M  V30 3016 H 289.288 -2.6076 -5.53005 0
M  V30 3017 H 293.462 -3.44585 -6.05173 0
M  V30 3018 H 291.089 -4.04204 -6.43835 0
M  V30 3019 N 292.664 1.56529 -0.183458 0
M  V30 3020 C 293.596 2.15747 0.773697 0
M  V30 3021 C 294.609 1.1162 1.1851 0
M  V30 3022 O 295.798 1.3876 1.12285 0
M  V30 3023 C 292.898 2.6952 2.05456 0
M  V30 3024 C 292.071 3.98429 1.8048 0
M  V30 3025 C 291.13 4.37145 2.92901 0
M  V30 3026 O 290.156 5.04791 2.6301 0
M  V30 3027 N 291.358 3.99695 4.2098 0
M  V30 3028 H 294.123 2.98505 0.26736 0
M  V30 3029 H 291.684 1.619 -0.0010878 0
M  V30 3030 H 293.676 2.92412 2.79781 0
M  V30 3031 H 292.246 1.91282 2.47245 0
M  V30 3032 H 291.466 3.8379 0.899947 0
M  V30 3033 H 292.754 4.82597 1.61175 0
M  V30 3034 H 292.152 3.4526 4.48121 0
M  V30 3035 H 290.709 4.27562 4.9197 0
M  V30 3036 N 294.142 -0.090211 1.57342 0
M  V30 3037 C 295.089 -1.10909 2.02405 0
M  V30 3038 C 296.059 -1.39523 0.901252 0
M  V30 3039 O 297.244 -1.50903 1.1676 0
M  V30 3040 C 294.384 -2.42277 2.45755 0
M  V30 3041 C 293.497 -2.20352 3.71576 0
M  V30 3042 C 292.632 -3.45154 4.03785 0
M  V30 3043 C 291.671 -3.18512 5.22701 0
M  V30 3044 N 290.808 -4.35593 5.50639 0
M  V30 3045 H 295.648 -0.71782 2.89225 0
M  V30 3046 H 293.185 -0.342901 1.43048 0
M  V30 3047 H 295.143 -3.18951 2.68935 0
M  V30 3048 H 293.773 -2.79242 1.61938 0
M  V30 3049 H 292.825 -1.34458 3.55844 0
M  V30 3050 H 294.137 -1.96661 4.58395 0
M  V30 3051 H 293.291 -4.30233 4.27767 0
M  V30 3052 H 292.03 -3.71904 3.15498 0
M  V30 3053 H 291.035 -2.31827 4.98534 0
M  V30 3054 H 292.26 -2.93103 6.12591 0
M  V30 3055 H 290.206 -4.6241 4.6531 0
M  V30 3056 H 290.123 -4.1511 6.31838 0
M  V30 3057 H 291.391 -5.21723 5.7916 0
M  V30 3058 N 295.62 -1.53406 -0.361157 0
M  V30 3059 C 296.868 -1.69467 -1.10115 0
M  V30 3060 C 297.189 -0.451352 -1.89705 0
M  V30 3061 O 296.459 0.534636 -1.88463 0
M  V30 3062 H 295.039 -0.624749 -0.409508 0
M  V30 3063 H 297.701 -1.90609 -0.406699 0
M  V30 3064 H 296.797 -2.55774 -1.78847 0
M  V30 3065 N 297.098 0.621204 -1.44841 0
M  V30 3066 C 298.03 1.74615 -1.48466 0
M  V30 3067 C 299.043 1.58377 -0.37691 0
M  V30 3068 O 300.232 1.66508 -0.643215 0
M  V30 3069 C 297.332 3.12459 -1.31236 0
M  V30 3070 C 296.505 3.55064 -2.55438 0
M  V30 3071 C 295.564 4.71821 -2.32963 0
M  V30 3072 O 294.59 4.79628 -3.06505 0
M  V30 3073 N 295.792 5.64186 -1.36654 0
M  V30 3074 H 298.557 1.71973 -2.45449 0
M  V30 3075 H 296.118 0.806077 -1.40407 0
M  V30 3076 H 298.11 3.88302 -1.14032 0
M  V30 3077 H 296.68 3.09686 -0.4258 0
M  V30 3078 H 295.9 2.69324 -2.87851 0
M  V30 3079 H 297.188 3.80284 -3.38026 0
M  V30 3080 H 296.586 5.6058 -0.759344 0
M  V30 3081 H 295.143 6.39618 -1.25425 0
M  V30 3082 N 298.576 1.31904 0.862503 0
M  V30 3083 C 299.824 1.21776 1.61292 0
M  V30 3084 C 300.145 -0.222413 1.93727 0
M  V30 3085 O 299.415 -1.1451 1.58947 0
M  V30 3086 H 297.995 0.447717 0.597962 0
M  V30 3087 H 300.657 1.65326 1.03215 0
M  V30 3088 H 299.753 1.7948 2.5533 0
M  V30 3089 N 300.054 -1.07777 1.14986 0
M  V30 3090 C 301.282 -1.84018 0.945773 0
M  V30 3091 C 301.697 -1.81897 -0.505863 0
M  V30 3092 O 301.054 -1.22726 -1.35072 0
M  V30 3093 C 301.105 -3.31287 1.44677 0
M  V30 3094 O 300.826 -3.33449 2.84154 0
M  V30 3095 C 302.327 -4.24311 1.28355 0
M  V30 3096 H 299.547 -0.580716 0.336169 0
M  V30 3097 H 302.091 -1.36077 1.52654 0
M  V30 3098 H 300.246 -3.76594 0.908625 0
M  V30 3099 H 300.66 -4.25427 3.06777 0
M  V30 3100 H 302.134 -5.2573 1.68261 0
M  V30 3101 H 302.611 -4.38612 0.227184 0
M  V30 3102 H 303.217 -3.84836 1.81056 0
M  V30 3103 N 301.532 -0.945985 -1.26051 0
M  V30 3104 C 302.772 -0.603665 -1.95282 0
M  V30 3105 C 303.136 0.842377 -1.72534 0
M  V30 3106 O 304.337 1.29387 -2.35611 0
M  V30 3107 C 302.608 -0.942292 -3.44754 0
M  V30 3108 S 304.167 -0.711242 -4.32997 0
M  V30 3109 H 300.985 -0.222176 -0.675395 0
M  V30 3110 H 303.587 -1.21832 -1.52896 0
M  V30 3111 H 302.291 -1.99203 -3.58812 0
M  V30 3112 H 301.822 -0.317546 -3.92116 0
M  V30 3113 H 303.837 0.422221 -4.944 0
M  V30 3114 N 303.011 1.40521 -0.713556 0
M  V30 3115 C 304.258 2.00923 -0.25219 0
M  V30 3116 C 304.586 1.56571 1.15395 0
M  V30 3117 O 303.841 0.775874 1.79663 0
M  V30 3118 C 304.14 3.56317 -0.278 0
M  V30 3119 C 303.806 4.20246 -1.63415 0
M  V30 3120 C 302.468 4.37422 -2.00538 0
M  V30 3121 C 304.82 4.55923 -2.52554 0
M  V30 3122 C 302.148 4.87558 -3.2635 0
M  V30 3123 C 304.5 5.07458 -3.77716 0
M  V30 3124 C 303.164 5.22843 -4.14959 0
M  V30 3125 H 302.434 0.735231 -0.0922829 0
M  V30 3126 H 305.081 1.68161 -0.916188 0
M  V30 3127 H 303.386 3.88976 0.469567 0
M  V30 3128 H 305.083 4.00883 0.0967819 0
M  V30 3129 H 301.673 4.07263 -1.33546 0
M  V30 3130 H 305.857 4.42291 -2.25149 0
M  V30 3131 H 301.113 4.97654 -3.55176 0
M  V30 3132 H 305.287 5.34041 -4.4696 0
M  V30 3133 H 302.914 5.61454 -5.12516 0
M  V30 3134 N 304.489 0.459591 1.5075 0
M  V30 3135 C 305.719 -0.0972338 2.06371 0
M  V30 3136 C 306.127 -1.35074 1.32483 0
M  V30 3137 O 305.47 -1.79637 0.384226 0
M  V30 3138 C 305.532 -0.462759 3.56509 0
M  V30 3139 C 305.196 0.687084 4.51805 0
M  V30 3140 C 306.193 1.56578 4.95761 0
M  V30 3141 C 303.878 0.874144 4.94635 0
M  V30 3142 C 305.872 2.61604 5.81242 0
M  V30 3143 C 303.559 1.92765 5.79901 0
M  V30 3144 C 304.557 2.79697 6.23104 0
M  V30 3145 O 304.245 3.83235 7.06673 0
M  V30 3146 H 303.977 -0.00140687 0.675999 0
M  V30 3147 H 306.531 0.644011 1.95043 0
M  V30 3148 H 304.761 -1.25703 3.65699 0
M  V30 3149 H 306.45 -0.953323 3.94546 0
M  V30 3150 H 307.216 1.4329 4.6335 0
M  V30 3151 H 303.095 0.207006 4.60535 0
M  V30 3152 H 306.639 3.29489 6.14884 0
M  V30 3153 H 302.536 2.06064 6.11725 0
M  V30 3154 H 303.304 3.80084 7.24899 0
M  V30 3155 N 305.967 -1.56429 0.191757 0
M  V30 3156 C 307.214 -1.97485 -0.447891 0
M  V30 3157 C 307.542 -1.07852 -1.61859 0
M  V30 3158 O 306.797 -0.116903 -1.95351 0
M  V30 3159 C 307.096 -3.44449 -0.953384 0
M  V30 3160 C 306.762 -4.50781 0.103586 0
M  V30 3161 C 305.424 -4.79584 0.394023 0
M  V30 3162 C 307.776 -5.1471 0.819946 0
M  V30 3163 C 305.104 -5.69607 1.40585 0
M  V30 3164 C 307.456 -6.05827 1.8209 0
M  V30 3165 C 306.12 -6.32987 2.11857 0
M  V30 3166 H 305.39 -0.722648 -0.163895 0
M  V30 3167 H 308.037 -1.89322 0.28802 0
M  V30 3168 H 306.342 -3.49666 -1.76751 0
M  V30 3169 H 308.039 -3.73569 -1.45765 0
M  V30 3170 H 304.629 -4.28394 -0.132951 0
M  V30 3171 H 308.813 -4.92552 0.608789 0
M  V30 3172 H 304.069 -5.88926 1.64243 0
M  V30 3173 H 308.243 -6.54424 2.38123 0
M  V30 3174 H 305.87 -7.02544 2.90407 0
M  V30 3175 N 307.445 0.0818655 -1.57387 0
M  V30 3176 C 308.693 0.781368 -1.86384 0
M  V30 3177 C 309.014 1.78618 -0.782342 0
M  V30 3178 O 308.284 1.94976 0.190061 0
M  V30 3179 H 306.864 0.291562 -0.687751 0
M  V30 3180 H 309.526 0.060348 -1.94807 0
M  V30 3181 H 308.622 1.3038 -2.83562 0
M  V30 3182 N 308.923 1.53595 0.353017 0
M  V30 3183 C 309.833 1.83897 1.45667 0
M  V30 3184 C 310.849 0.728334 1.58023 0
M  V30 3185 O 312.025 1.01968 1.73679 0
M  V30 3186 C 309.09 2.03383 2.80778 0
M  V30 3187 C 308.151 3.27262 2.77845 0
M  V30 3188 C 307.384 3.45809 4.06512 0
M  V30 3189 O 307.607 2.68387 5.03314 0
M  V30 3190 O 306.541 4.39207 4.11559 0
M  V30 3191 H 310.367 2.77686 1.2298 0
M  V30 3192 H 307.952 1.39132 0.544308 0
M  V30 3193 H 309.834 2.17698 3.60812 0
M  V30 3194 H 308.509 1.12783 3.03417 0
M  V30 3195 H 307.416 3.18359 1.96465 0
M  V30 3196 H 308.749 4.17824 2.60161 0
M  V30 3197 N 310.401 -0.613514 1.45168 0
M  V30 3198 C 311.331 -1.7354 1.56225 0
M  V30 3199 C 312.312 -1.64981 0.41414 0
M  V30 3200 O 313.497 -1.83472 0.636526 0
M  V30 3201 C 310.627 -3.12128 1.52295 0
M  V30 3202 C 309.581 -3.35491 2.65762 0
M  V30 3203 C 308.907 -4.74291 2.46885 0
M  V30 3204 C 310.207 -3.26325 4.0781 0
M  V30 3205 H 311.901 -1.64543 2.50132 0
M  V30 3206 H 309.447 -0.790185 1.20383 0
M  V30 3207 H 311.4 -3.90404 1.58628 0
M  V30 3208 H 310.124 -3.2195 0.549139 0
M  V30 3209 H 308.783 -2.59603 2.58847 0
M  V30 3210 H 308.431 -4.80839 1.47657 0
M  V30 3211 H 308.131 -4.9088 3.22972 0
M  V30 3212 H 309.655 -5.54775 2.55063 0
M  V30 3213 H 311.069 -3.94483 4.16 0
M  V30 3214 H 309.466 -3.54445 4.8424 0
M  V30 3215 H 310.536 -2.23855 4.30136 0
M  V30 3216 N 311.879 -1.3236 -0.855495 0
M  V30 3217 C 313.29 -1.2056 -1.42556 0
M  V30 3218 C 313.641 0.182209 -1.95352 0
M  V30 3219 O 312.766 1.08088 -1.87472 0
M  V30 3220 C 313.361 -2.1826 -2.59129 0
M  V30 3221 C 311.92 -2.10351 -3.12137 0
M  V30 3222 C 311.067 -2.06674 -1.84882 0
M  V30 3223 H 314.018 -1.442 -0.662727 0
M  V30 3224 H 314.039 -1.78064 -3.36264 0
M  V30 3225 H 313.551 -3.19257 -2.20673 0
M  V30 3226 H 311.652 -1.12599 -3.55179 0
M  V30 3227 H 311.765 -3.00135 -3.73438 0
M  V30 3228 H 310.129 -1.51901 -2.04446 0
M  V30 3229 H 310.912 -3.09451 -1.48643 0
M  V30 3230 N 313.357 1.07166 -1.15556 0
M  V30 3231 C 314.287 2.16403 -0.877046 0
M  V30 3232 C 315.268 1.69217 0.173111 0
M  V30 3233 O 316.453 1.94181 0.027084 0
M  V30 3234 C 313.583 3.45349 -0.367632 0
M  V30 3235 C 312.537 4.05995 -1.35468 0
M  V30 3236 C 311.863 5.30045 -0.704038 0
M  V30 3237 C 313.163 4.45804 -2.72132 0
M  V30 3238 H 314.857 2.39959 -1.79053 0
M  V30 3239 H 312.403 1.15325 -0.862331 0
M  V30 3240 H 314.356 4.21095 -0.160317 0
M  V30 3241 H 313.08 3.21385 0.581326 0
M  V30 3242 H 311.739 3.32296 -1.54839 0
M  V30 3243 H 311.387 5.02373 0.251128 0
M  V30 3244 H 311.087 5.71579 -1.36277 0
M  V30 3245 H 312.611 6.08495 -0.50654 0
M  V30 3246 H 314.025 5.12671 -2.56595 0
M  V30 3247 H 312.422 4.98296 -3.34397 0
M  V30 3248 H 313.492 3.57083 -3.28054 0
M  V30 3249 N 314.835 0.952656 1.25548 0
M  V30 3250 C 316.06 0.623025 1.97821 0
M  V30 3251 C 316.485 -0.7976 1.70352 0
M  V30 3252 O 315.843 -1.53905 0.958283 0
M  V30 3253 C 315.891 0.885532 3.49558 0
M  V30 3254 O 314.995 -0.0366641 4.12384 0
M  V30 3255 H 314.336 0.237082 0.620232 0
M  V30 3256 H 316.866 1.27871 1.59719 0
M  V30 3257 H 316.876 0.811009 3.99858 0
M  V30 3258 H 315.551 1.92094 3.6888 0
M  V30 3259 H 314.128 0.0898954 3.72792 0
M  V30 3260 N 316.313 -1.40141 0.720998 0
M  V30 3261 C 317.243 -2.33339 0.0867621 0
M  V30 3262 C 318.224 -1.53178 -0.739622 0
M  V30 3263 O 319.409 -1.81625 -0.687449 0
M  V30 3264 C 316.539 -3.37194 -0.831728 0
M  V30 3265 C 315.493 -4.27857 -0.110558 0
M  V30 3266 C 314.819 -5.22294 -1.14513 0
M  V30 3267 C 316.119 -5.11872 1.0385 0
M  V30 3268 H 317.813 -2.86626 0.865219 0
M  V30 3269 H 315.359 -1.37814 0.417516 0
M  V30 3270 H 317.312 -4.01335 -1.28485 0
M  V30 3271 H 316.036 -2.82314 -1.64214 0
M  V30 3272 H 314.695 -3.65176 0.322797 0
M  V30 3273 H 314.343 -4.63717 -1.94874 0
M  V30 3274 H 314.043 -5.83797 -0.667446 0
M  V30 3275 H 315.567 -5.89312 -1.59824 0
M  V30 3276 H 316.981 -5.69436 0.664482 0
M  V30 3277 H 315.378 -5.82445 1.4449 0
M  V30 3278 H 316.448 -4.4753 1.86668 0
M  V30 3279 N 317.792 -0.46758 -1.50504 0
M  V30 3280 C 318.755 0.317059 -2.26996 0
M  V30 3281 C 319.755 0.923513 -1.31635 0
M  V30 3282 O 320.945 0.793239 -1.55091 0
M  V30 3283 C 318.077 1.45134 -3.08462 0
M  V30 3284 H 319.27 -0.353723 -2.97807 0
M  V30 3285 H 316.823 -0.221545 -1.54722 0
M  V30 3286 H 317.558 2.15728 -2.4214 0
M  V30 3287 H 317.343 1.02232 -3.78538 0
M  V30 3288 H 318.833 2.00493 -3.66323 0
M  V30 3289 N 319.27 1.56325 -0.20005 0
M  V30 3290 C 320.233 2.18084 0.705132 0
M  V30 3291 C 321.233 1.13666 1.1374 0
M  V30 3292 O 322.423 1.39023 1.04968 0
M  V30 3293 C 319.555 2.78689 1.96329 0
M  V30 3294 H 320.748 2.99435 0.167023 0
M  V30 3295 H 318.301 1.56221 0.0495725 0
M  V30 3296 H 319.036 2.0115 2.5438 0
M  V30 3297 H 318.821 3.55133 1.66202 0
M  V30 3298 H 320.311 3.26096 2.60866 0
M  V30 3299 N 320.748 -0.0735177 1.57428 0
M  V30 3300 C 321.988 -0.778363 1.89 0
M  V30 3301 C 322.352 -1.7483 0.793634 0
M  V30 3302 O 323.553 -2.49811 0.992367 0
M  V30 3303 C 321.824 -1.46929 3.25802 0
M  V30 3304 S 323.383 -2.20943 3.79117 0
M  V30 3305 H 320.201 -0.258874 0.662197 0
M  V30 3306 H 322.803 -0.0345338 1.95469 0
M  V30 3307 H 321.507 -0.749532 4.03497 0
M  V30 3308 H 321.038 -2.25258 3.22525 0
M  V30 3309 H 323.053 -3.47435 3.54265 0
M  V30 3310 N 322.226 -1.5378 -0.344866 0
M  V30 3311 C 323.454 -1.74899 -1.10534 0
M  V30 3312 C 323.869 -0.487534 -1.82397 0
M  V30 3313 O 323.226 0.540741 -1.74305 0
M  V30 3314 C 323.277 -2.92822 -2.11984 0
M  V30 3315 O 322.998 -4.14089 -1.43044 0
M  V30 3316 C 324.499 -3.25982 -3.00417 0
M  V30 3317 H 321.719 -0.584426 -0.329678 0
M  V30 3318 H 324.263 -2.006 -0.397474 0
M  V30 3319 H 322.418 -2.69457 -2.78338 0
M  V30 3320 H 322.832 -4.80272 -2.10805 0
M  V30 3321 H 324.306 -4.11848 -3.67539 0
M  V30 3322 H 324.783 -2.42228 -3.66363 0
M  V30 3323 H 325.389 -3.51349 -2.39654 0
M  V30 3324 N 323.704 0.605807 -1.45491 0
M  V30 3325 C 324.651 1.7164 -1.54299 0
M  V30 3326 C 325.621 1.61486 -0.388761 0
M  V30 3327 O 326.806 1.81039 -0.602445 0
M  V30 3328 C 323.946 3.09953 -1.51734 0
M  V30 3329 C 323.059 3.309 -2.77721 0
M  V30 3330 C 322.194 4.59329 -2.66816 0
M  V30 3331 C 321.233 4.7354 -3.87848 0
M  V30 3332 N 320.37 5.9327 -3.75467 0
M  V30 3333 H 325.21 1.63449 -2.49176 0
M  V30 3334 H 322.747 0.796957 -1.23641 0
M  V30 3335 H 324.705 3.89977 -1.48235 0
M  V30 3336 H 323.335 3.17098 -0.604068 0
M  V30 3337 H 322.387 2.44639 -2.913 0
M  V30 3338 H 323.699 3.37274 -3.67488 0
M  V30 3339 H 322.853 5.4755 -2.61292 0
M  V30 3340 H 321.592 4.55355 -1.74651 0
M  V30 3341 H 320.597 3.83741 -3.93729 0
M  V30 3342 H 321.822 4.79309 -4.81082 0
M  V30 3343 H 319.768 5.90338 -2.86072 0
M  V30 3344 H 319.685 6.00811 -4.5887 0
M  V30 3345 H 320.953 6.83984 -3.73879 0
M  V30 3346 N 325.182 1.32811 0.848464 0
M  V30 3347 C 326.114 1.18095 1.96433 0
M  V30 3348 C 327.127 0.114354 1.62398 0
M  V30 3349 O 328.316 0.363892 1.74751 0
M  V30 3350 C 325.416 0.786798 3.2964 0
M  V30 3351 C 324.589 1.943 3.91875 0
M  V30 3352 C 323.648 1.53138 5.03423 0
M  V30 3353 O 322.674 2.24432 5.23086 0
M  V30 3354 N 323.876 0.430915 5.78898 0
M  V30 3355 H 326.641 2.14218 2.09597 0
M  V30 3356 H 324.202 1.2543 1.02367 0
M  V30 3357 H 326.194 0.493715 4.01677 0
M  V30 3358 H 324.764 -0.0834541 3.12489 0
M  V30 3359 H 323.984 2.40224 3.12547 0
M  V30 3360 H 325.272 2.71689 4.30189 0
M  V30 3361 H 324.67 -0.162333 5.65467 0
M  V30 3362 H 323.227 0.197466 6.51501 0
M  V30 3363 N 326.66 -1.06551 1.16123 0
M  V30 3364 C 327.906 -1.79719 0.952505 0
M  V30 3365 C 328.261 -1.85396 -0.514385 0
M  V30 3366 O 327.554 -1.33263 -1.37665 0
M  V30 3367 C 327.748 -3.23911 1.51052 0
M  V30 3368 C 327.577 -3.32284 3.03013 0
M  V30 3369 C 326.347 -3.42371 3.71632 0
M  V30 3370 C 328.545 -3.22363 4.00732 0
M  V30 3371 N 326.527 -3.39732 5.11327 0
M  V30 3372 C 327.898 -3.26937 5.26794 0
M  V30 3373 C 329.953 -3.0623 3.92591 0
M  V30 3374 C 328.656 -3.17035 6.45663 0
M  V30 3375 C 330.682 -2.97665 5.11028 0
M  V30 3376 C 330.044 -3.02858 6.35969 0
M  V30 3377 H 326.143 -0.670585 0.402293 0
M  V30 3378 H 328.727 -1.27125 1.4747 0
M  V30 3379 H 326.898 -3.74907 1.01484 0
M  V30 3380 H 328.63 -3.85242 1.2398 0
M  V30 3381 H 325.385 -3.47058 3.22254 0
M  V30 3382 H 325.809 -3.41919 5.84312 0
M  V30 3383 H 330.451 -3.01063 2.96852 0
M  V30 3384 H 328.169 -3.2096 7.41627 0
M  V30 3385 H 331.755 -2.86273 5.06497 0
M  V30 3386 H 330.635 -2.96286 7.26075 0
M  V30 3387 N 328.138 -0.959301 -1.25041 0
M  V30 3388 C 329.415 -0.533805 -1.88175 0
M  V30 3389 C 329.795 0.988994 -1.865 0
M  V30 3390 O 329.143 1.85677 -1.33177 0
M  V30 3391 C 329.353 -1.11575 -3.30684 0
M  V30 3392 C 330.701 -1.19548 -4.07423 0
M  V30 3393 O 331.725 -1.06765 -3.39823 0
M  V30 3394 O 330.584 -1.39656 -5.28354 0
M  V30 3395 H 327.678 -0.176772 -0.807887 0
M  V30 3396 H 330.224 -1.05303 -1.33076 0
M  V30 3397 H 328.996 -2.15884 -3.26358 0
M  V30 3398 H 328.619 -0.580059 -3.93346 0
M  V30 3399 N 329.616 1.39756 -0.72842 0
M  V30 3400 C 330.862 2.00942 -0.273892 0
M  V30 3401 C 331.195 1.57656 1.13394 0
M  V30 3402 O 330.47 0.802434 1.77176 0
M  V30 3403 C 330.753 3.58211 -0.368346 0
M  V30 3404 C 330.606 4.11534 -1.81548 0
M  V30 3405 C 331.925 4.39372 0.253054 0
M  V30 3406 H 329.044 0.730047 -0.100996 0
M  V30 3407 H 331.686 1.66056 -0.923337 0
M  V30 3408 H 329.836 3.88061 0.184588 0
M  V30 3409 H 331.508 3.92431 -2.42478 0
M  V30 3410 H 329.751 3.65341 -2.33898 0
M  V30 3411 H 330.422 5.20682 -1.83288 0
M  V30 3412 H 332.898 4.15527 -0.218224 0
M  V30 3413 H 331.774 5.48677 0.156585 0
M  V30 3414 H 332.035 4.21358 1.33826 0
M  V30 3415 N 331.094 0.475555 1.50254 0
M  V30 3416 C 332.34 -0.0780073 2.0265 0
M  V30 3417 C 332.673 -1.38968 1.35652 0
M  V30 3418 O 331.948 -1.8839 0.483691 0
M  V30 3419 C 332.231 -0.257161 3.59181 0
M  V30 3420 C 332.084 1.07585 4.36744 0
M  V30 3421 C 333.403 -1.00965 4.28362 0
M  V30 3422 H 330.522 -0.0268758 0.73651 0
M  V30 3423 H 333.164 0.622015 1.7953 0
M  V30 3424 H 331.314 -0.853412 3.79011 0
M  V30 3425 H 332.986 1.70902 4.28474 0
M  V30 3426 H 331.229 1.6714 4.00308 0
M  V30 3427 H 331.9 0.904088 5.44546 0
M  V30 3428 H 334.376 -0.504214 4.13034 0
M  V30 3429 H 333.252 -1.10381 5.37687 0
M  V30 3430 H 333.513 -2.04731 3.91839 0
M  V30 3431 N 332.573 -1.56217 0.208337 0
M  V30 3432 C 333.798 -2.02782 -0.435222 0
M  V30 3433 C 334.223 -1.08738 -1.53485 0
M  V30 3434 O 333.581 -0.0731855 -1.81152 0
M  V30 3435 C 333.629 -3.47687 -0.956335 0
M  V30 3436 O 332.733 -3.56773 -2.06849 0
M  V30 3437 H 332.074 -0.656403 -0.100158 0
M  V30 3438 H 334.604 -2.02033 0.3231 0
M  V30 3439 H 334.614 -3.87745 -1.26955 0
M  V30 3440 H 333.289 -4.15624 -0.15143 0
M  V30 3441 H 331.866 -3.28597 -1.76292 0
M  V30 3442 N 334.051 0.0651679 -1.57465 0
M  V30 3443 C 335.281 0.774683 -1.91526 0
M  V30 3444 C 335.689 1.71305 -0.803196 0
M  V30 3445 O 335.032 1.82231 0.231881 0
M  V30 3446 C 335.094 1.61645 -3.21109 0
M  V30 3447 C 334.758 0.846753 -4.49087 0
M  V30 3448 C 335.755 0.163024 -5.19644 0
M  V30 3449 C 333.44 0.811966 -4.95694 0
M  V30 3450 C 335.434 -0.54519 -6.35064 0
M  V30 3451 C 333.121 0.0999836 -6.11018 0
M  V30 3452 C 334.119 -0.577388 -6.80555 0
M  V30 3453 O 333.807 -1.27789 -7.93678 0
M  V30 3454 H 333.539 0.225031 -0.637446 0
M  V30 3455 H 336.093 0.0377134 -2.05365 0
M  V30 3456 H 334.323 2.39638 -3.03497 0
M  V30 3457 H 336.012 2.20525 -3.40769 0
M  V30 3458 H 336.778 0.181163 -4.84662 0
M  V30 3459 H 332.657 1.32867 -4.41438 0
M  V30 3460 H 336.201 -1.07446 -6.89276 0
M  V30 3461 H 332.098 0.0797945 -6.45451 0
M  V30 3462 H 332.866 -1.18784 -8.09835 0
M  V30 3463 N 335.529 1.53961 0.336706 0
M  V30 3464 C 336.459 1.85417 1.41925 0
M  V30 3465 C 337.44 0.709856 1.5458 0
M  V30 3466 O 338.625 0.962396 1.68676 0
M  V30 3467 C 335.755 2.06985 2.78881 0
M  V30 3468 C 334.709 3.22813 2.81026 0
M  V30 3469 C 334.035 3.29727 4.20932 0
M  V30 3470 C 335.335 4.60767 2.45949 0
M  V30 3471 H 337.029 2.76079 1.15848 0
M  V30 3472 H 334.575 1.32839 0.555859 0
M  V30 3473 H 336.528 2.27575 3.54665 0
M  V30 3474 H 335.252 1.13061 3.06406 0
M  V30 3475 H 333.911 3.0209 2.07695 0
M  V30 3476 H 333.559 2.33385 4.45579 0
M  V30 3477 H 333.259 4.07566 4.23277 0
M  V30 3478 H 334.783 3.52536 4.98549 0
M  V30 3479 H 336.197 4.81325 3.11446 0
M  V30 3480 H 334.594 5.4106 2.59566 0
M  V30 3481 H 335.664 4.6391 1.41122 0
M  V30 3482 N 337.007 -0.598083 1.45811 0
M  V30 3483 C 337.937 -1.71873 1.58057 0
M  V30 3484 C 338.918 -1.64533 0.431615 0
M  V30 3485 O 340.103 -1.82787 0.65595 0
M  V30 3486 C 337.233 -3.10495 1.55597 0
M  V30 3487 C 336.187 -3.32654 2.69305 0
M  V30 3488 C 335.513 -4.71646 2.51902 0
M  V30 3489 C 336.813 -3.21981 4.11248 0
M  V30 3490 H 338.507 -1.61881 2.51863 0
M  V30 3491 H 336.053 -0.777372 1.21214 0
M  V30 3492 H 338.006 -3.88699 1.6276 0
M  V30 3493 H 336.73 -3.2135 0.583255 0
M  V30 3494 H 335.389 -2.56843 2.61586 0
M  V30 3495 H 335.037 -4.79246 1.52748 0
M  V30 3496 H 334.737 -4.87426 3.2816 0
M  V30 3497 H 336.261 -5.52038 2.60933 0
M  V30 3498 H 337.675 -3.90049 4.20161 0
M  V30 3499 H 336.072 -3.49289 4.87972 0
M  V30 3500 H 337.142 -2.1928 4.32486 0
M  V30 3501 N 338.485 -1.33259 -0.841409 0
M  V30 3502 C 339.395 -1.25332 -1.98316 0
M  V30 3503 C 340.411 -0.164364 -1.73222 0
M  V30 3504 O 341.587 -0.387486 -1.97637 0
M  V30 3505 C 338.652 -0.990078 -3.32262 0
M  V30 3506 C 337.713 -2.16879 -3.70489 0
M  V30 3507 C 336.946 -1.91801 -4.98044 0
M  V30 3508 O 337.169 -0.867075 -5.63771 0
M  V30 3509 O 336.103 -2.78267 -5.33714 0
M  V30 3510 H 339.929 -2.21344 -2.07944 0
M  V30 3511 H 337.514 -1.1328 -0.974058 0
M  V30 3512 H 339.396 -0.860321 -4.12524 0
M  V30 3513 H 338.071 -0.0602155 -3.23644 0
M  V30 3514 H 336.978 -2.35407 -2.90748 0
M  V30 3515 H 338.311 -3.0819 -3.8377 0
M  V30 3516 N 339.963 1.05934 -1.16686 0
M  V30 3517 C 340.911 2.15603 -0.872817 0
M  V30 3518 C 341.905 1.68647 0.159576 0
M  V30 3519 O 343.111 1.79995 0.0132125 0
M  V30 3520 H 339.486 0.703885 -0.264671 0
M  V30 3521 H 341.457 2.37613 -1.80507 0
M  V30 3522 C 340.206 3.45457 -0.394344 0
M  V30 3523 H 339.529 3.81984 -1.18019 0
M  V30 3524 H 340.969 4.2339 -0.227408 0
M  V30 3525 C 339.428 3.25021 0.88673 0
M  V30 3526 O 339.958 3.50906 1.95519 0
M  V30 3527 N 338.164 2.78437 0.831925 0
M  V30 3528 H 337.711 2.57572 -0.0377619 0
M  V30 3529 H 337.669 2.65144 1.68956 0
M  V30 3530 N 341.441 0.965919 1.2453 0
M  V30 3531 C 342.852 0.665929 1.7442 0
M  V30 3532 C 343.203 -0.818407 1.78316 0
M  V30 3533 O 342.328 -1.64037 1.41141 0
M  V30 3534 C 342.923 1.20211 3.16757 0
M  V30 3535 C 341.482 0.952059 3.6416 0
M  V30 3536 C 340.629 1.33848 2.42858 0
M  V30 3537 H 343.58 1.14144 1.10258 0
M  V30 3538 H 343.601 0.567544 3.76244 0
M  V30 3539 H 343.113 2.28244 3.13889 0
M  V30 3540 H 341.214 -0.112821 3.72429 0
M  V30 3541 H 341.327 1.59645 4.51719 0
M  V30 3542 H 339.691 0.756864 2.43195 0
M  V30 3543 H 340.474 2.42827 2.42673 0
M  V30 3544 N 342.919 -1.39368 0.735821 0
M  V30 3545 C 343.869 -2.27885 0.0724287 0
M  V30 3546 C 344.853 -1.44301 -0.711756 0
M  V30 3547 O 346.045 -1.67206 -0.58063 0
M  V30 3548 C 343.174 -3.33029 -0.833454 0
M  V30 3549 C 342.26 -4.24078 -0.0433749 0
M  V30 3550 N 342.651 -4.96138 0.983903 0
M  V30 3551 C 340.949 -4.45164 -0.272905 0
M  V30 3552 C 341.65 -5.63069 1.4604 0
M  V30 3553 N 340.626 -5.37991 0.778857 0
M  V30 3554 H 344.428 -2.81052 0.859467 0
M  V30 3555 H 341.942 -1.5206 0.570227 0
M  V30 3556 H 343.939 -3.95311 -1.32419 0
M  V30 3557 H 342.599 -2.81421 -1.61964 0
M  V30 3558 H 343.61 -4.9958 1.36528 0
M  V30 3559 H 340.287 -4.04497 -1.03383 0
M  V30 3560 H 341.677 -6.30755 2.31511 0
M  V30 3561 N 344.397 -0.483516 -1.5 0
M  V30 3562 C 345.329 0.340634 -2.26655 0
M  V30 3563 C 346.342 0.946152 -1.32483 0
M  V30 3564 O 347.531 0.832453 -1.579 0
M  V30 3565 C 344.631 1.4929 -3.04246 0
M  V30 3566 C 343.804 0.997903 -4.25865 0
M  V30 3567 C 342.863 2.02569 -4.85646 0
M  V30 3568 O 341.889 1.60128 -5.46212 0
M  V30 3569 N 343.091 3.3548 -4.73744 0
M  V30 3570 H 345.856 -0.316577 -2.98023 0
M  V30 3571 H 343.417 -0.315024 -1.58806 0
M  V30 3572 H 345.409 2.17766 -3.41116 0
M  V30 3573 H 343.979 2.05458 -2.35597 0
M  V30 3574 H 343.199 0.138617 -3.93956 0
M  V30 3575 H 344.487 0.645305 -5.04691 0
M  V30 3576 H 343.885 3.72661 -4.25605 0
M  V30 3577 H 342.442 3.99718 -5.14848 0
M  V30 3578 N 345.875 1.56104 -0.216619 0
M  V30 3579 C 347.286 1.844 0.292128 0
M  V30 3580 C 347.637 1.13788 1.59833 0
M  V30 3581 O 346.762 0.405888 2.12559 0
M  V30 3582 C 347.357 3.3452 0.53681 0
M  V30 3583 C 345.916 3.63151 0.989876 0
M  V30 3584 C 345.063 2.77255 0.0502302 0
M  V30 3585 H 348.014 1.52481 -0.439926 0
M  V30 3586 H 348.035 3.54459 1.38345 0
M  V30 3587 H 347.547 3.85885 -0.414031 0
M  V30 3588 H 345.648 3.17238 1.95425 0
M  V30 3589 H 345.761 4.71177 0.867698 0
M  V30 3590 H 344.125 2.48555 0.556117 0
M  V30 3591 H 344.908 3.31416 -0.89544 0
M  V30 3592 N 347.353 -0.0568162 1.57498 0
M  V30 3593 C 348.316 -1.05038 2.03715 0
M  V30 3594 C 349.316 -1.30709 0.936577 0
M  V30 3595 O 350.506 -1.26178 1.20103 0
M  V30 3596 C 347.638 -2.39034 2.43055 0
M  V30 3597 H 348.831 -0.651715 2.92733 0
M  V30 3598 H 346.384 -0.302947 1.53336 0
M  V30 3599 H 347.119 -2.83703 1.57108 0
M  V30 3600 H 346.904 -2.21739 3.2338 0
M  V30 3601 H 348.394 -3.10421 2.79336 0
M  V30 3602 N 348.832 -1.54138 -0.328536 0
M  V30 3603 C 350.057 -1.76378 -1.09112 0
M  V30 3604 C 350.482 -0.508596 -1.81094 0
M  V30 3605 O 349.84 0.539598 -1.73084 0
M  V30 3606 C 349.888 -2.95358 -2.06872 0
M  V30 3607 O 348.992 -2.66556 -3.14677 0
M  V30 3608 H 348.333 -0.584614 -0.314838 0
M  V30 3609 H 350.863 -2.01146 -0.374348 0
M  V30 3610 H 350.873 -3.22566 -2.4983 0
M  V30 3611 H 349.548 -3.86385 -1.5388 0
M  V30 3612 H 348.125 -2.50282 -2.7643 0
M  V30 3613 N 350.31 0.590341 -1.46126 0
M  V30 3614 C 351.24 1.71032 -1.58966 0
M  V30 3615 C 352.221 1.64302 -0.440335 0
M  V30 3616 O 353.406 1.82436 -0.665634 0
M  V30 3617 C 350.536 3.09665 -1.57241 0
M  V30 3618 C 349.49 3.31221 -2.71066 0
M  V30 3619 C 348.816 4.70303 -2.54399 0
M  V30 3620 C 350.116 3.19796 -4.1295 0
M  V30 3621 H 351.81 1.60543 -2.52718 0
M  V30 3622 H 349.356 0.770933 -1.21625 0
M  V30 3623 H 351.309 3.87831 -1.64819 0
M  V30 3624 H 350.033 3.21036 -0.600289 0
M  V30 3625 H 348.692 2.55452 -2.62944 0
M  V30 3626 H 348.34 4.78429 -1.55288 0
M  V30 3627 H 348.04 4.85679 -3.30741 0
M  V30 3628 H 349.564 5.50647 -2.63857 0
M  V30 3629 H 350.978 3.87815 -4.22223 0
M  V30 3630 H 349.375 3.46696 -4.89818 0
M  V30 3631 H 350.445 2.16983 -4.33643 0
M  V30 3632 N 351.788 1.33704 0.83433 0
M  V30 3633 C 352.72 1.20172 1.9517 0
M  V30 3634 C 353.733 0.131572 1.62267 0
M  V30 3635 O 354.922 0.382406 1.74356 0
M  V30 3636 C 352.022 0.821716 3.28787 0
M  V30 3637 C 351.195 1.98446 3.89792 0
M  V30 3638 C 350.254 1.58469 5.01771 0
M  V30 3639 O 349.28 2.29968 5.20676 0
M  V30 3640 N 350.482 0.492291 5.78409 0
M  V30 3641 H 353.247 2.16429 2.07313 0
M  V30 3642 H 350.808 1.26509 1.0103 0
M  V30 3643 H 352.8 0.536291 4.01131 0
M  V30 3644 H 351.37 -0.0503058 3.1256 0
M  V30 3645 H 350.59 2.43526 3.09982 0
M  V30 3646 H 351.878 2.76236 4.27283 0
M  V30 3647 H 351.276 -0.102349 5.65607 0
M  V30 3648 H 349.833 0.266555 6.51255 0
M  V30 3649 N 353.266 -1.05314 1.17247 0
M  V30 3650 C 354.229 -2.112 0.890357 0
M  V30 3651 C 355.229 -1.60359 -0.118943 0
M  V30 3652 O 356.419 -1.73833 0.113086 0
M  V30 3653 C 353.551 -3.39266 0.333422 0
M  V30 3654 H 354.744 -2.37659 1.82916 0
M  V30 3655 H 352.297 -1.21538 0.982758 0
M  V30 3656 H 353.032 -3.18462 -0.612587 0
M  V30 3657 H 352.817 -3.77477 1.06082 0
M  V30 3658 H 354.307 -4.17315 0.154322 0
M  V30 3659 N 354.744 -0.972509 -1.24016 0
M  V30 3660 C 355.972 -0.654803 -1.96265 0
M  V30 3661 C 356.387 0.776708 -1.72083 0
M  V30 3662 O 355.744 1.52171 -1.00748 0
M  V30 3663 C 355.795 -0.92592 -3.49441 0
M  V30 3664 O 355.516 -2.30116 -3.72798 0
M  V30 3665 C 357.017 -0.623068 -4.38899 0
M  V30 3666 H 354.237 -0.243907 -0.6251 0
M  V30 3667 H 356.781 -1.30175 -1.57717 0
M  V30 3668 H 354.936 -0.325108 -3.86033 0
M  V30 3669 H 355.35 -2.38483 -4.67147 0
M  V30 3670 H 356.824 -0.863189 -5.45209 0
M  V30 3671 H 357.301 0.442754 -4.36963 0
M  V30 3672 H 357.907 -1.204 -4.07902 0
M  V30 3673 N 356.222 1.38976 -0.743202 0
M  V30 3674 C 357.499 1.94351 -0.220705 0
M  V30 3675 C 357.879 1.67935 1.2791 0
M  V30 3676 O 357.227 1.01211 2.04862 0
M  V30 3677 C 357.437 3.44426 -0.563171 0
M  V30 3678 C 358.785 4.2144 -0.517046 0
M  V30 3679 O 359.809 3.52661 -0.500846 0
M  V30 3680 O 358.668 5.44032 -0.518806 0
M  V30 3681 H 355.762 0.825879 -0.043047 0
M  V30 3682 H 358.308 1.48429 -0.822618 0
M  V30 3683 H 357.08 3.5712 -1.59941 0
M  V30 3684 H 356.703 3.97543 0.0672883 0
M  V30 3685 N 357.7 0.491464 1.49741 0
M  V30 3686 C 358.925 -0.0557177 2.07325 0
M  V30 3687 C 359.35 -1.30925 1.35056 0
M  V30 3688 O 358.708 -1.76733 0.404365 0
M  V30 3689 C 358.756 -0.302074 3.59333 0
M  V30 3690 O 357.86 -1.37868 3.88672 0
M  V30 3691 H 357.201 0.0219956 0.663636 0
M  V30 3692 H 359.731 0.688352 1.92673 0
M  V30 3693 H 359.741 -0.536464 4.04458 0
M  V30 3694 H 358.416 0.61383 4.11345 0
M  V30 3695 H 356.993 -1.12999 3.55367 0
M  V30 3696 N 359.178 -1.55987 0.224894 0
M  V30 3697 C 360.11 -2.17722 -0.716224 0
M  V30 3698 C 361.123 -1.14723 -1.15509 0
M  V30 3699 O 362.312 -1.41688 -1.08567 0
M  V30 3700 C 359.412 -2.74873 -1.98238 0
M  V30 3701 C 358.585 -4.03074 -1.69853 0
M  V30 3702 C 357.644 -4.44757 -2.81208 0
M  V30 3703 O 356.67 -5.11587 -2.49534 0
M  V30 3704 N 357.872 -4.10716 -4.10235 0
M  V30 3705 H 360.637 -2.99109 -0.188123 0
M  V30 3706 H 358.198 -1.6184 0.0440123 0
M  V30 3707 H 360.19 -2.99727 -2.7193 0
M  V30 3708 H 358.76 -1.9777 -2.42086 0
M  V30 3709 H 357.98 -3.86041 -0.797875 0
M  V30 3710 H 359.268 -4.86701 -1.48324 0
M  V30 3711 H 358.666 -3.57019 -4.38809 0
M  V30 3712 H 357.223 -4.40455 -4.80461 0
M  V30 3713 N 360.656 0.0484629 -1.57525 0
M  V30 3714 C 361.904 0.741657 -1.88 0
M  V30 3715 C 362.225 1.76918 -0.820054 0
M  V30 3716 O 361.495 1.95335 0.148661 0
M  V30 3717 H 360.075 0.276908 -0.69378 0
M  V30 3718 H 362.737 0.019013 -1.94891 0
M  V30 3719 H 361.833 1.24336 -2.86264 0
M  V30 3720 N 362.134 1.5431 0.320358 0
M  V30 3721 C 363.082 1.84647 1.4145 0
M  V30 3722 C 364.076 0.718624 1.53402 0
M  V30 3723 O 365.282 0.902335 1.5575 0
M  V30 3724 H 361.657 0.585349 0.472091 0
M  V30 3725 H 363.628 2.7614 1.13089 0
M  V30 3726 C 362.377 2.09341 2.77617 0
M  V30 3727 H 361.7 2.9559 2.69196 0
M  V30 3728 H 363.14 2.3452 3.53237 0
M  V30 3729 C 361.599 0.885939 3.25043 0
M  V30 3730 O 362.129 0.0967891 4.01583 0
M  V30 3731 N 360.335 0.696682 2.82125 0
M  V30 3732 H 359.882 1.34006 2.2 0
M  V30 3733 H 359.84 -0.109712 3.14209 0
M  V30 3734 N 363.613 -0.582584 1.46437 0
M  V30 3735 C 364.841 -1.36682 1.55324 0
M  V30 3736 C 365.256 -1.87796 0.194409 0
M  V30 3737 O 364.613 -1.63623 -0.808318 0
M  V30 3738 C 364.664 -2.55426 2.55812 0
M  V30 3739 O 364.385 -2.0643 3.86417 0
M  V30 3740 C 365.886 -3.47976 2.74641 0
M  V30 3741 H 363.106 -0.417545 0.525259 0
M  V30 3742 H 365.65 -0.708219 1.91845 0
M  V30 3743 H 363.805 -3.17275 2.22295 0
M  V30 3744 H 364.219 -2.83762 4.41111 0
M  V30 3745 H 365.693 -4.27775 3.48874 0
M  V30 3746 H 366.17 -3.99919 1.81553 0
M  V30 3747 H 366.776 -2.91962 3.09255 0
M  V30 3748 N 365.091 -1.34144 -0.827227 0
M  V30 3749 C 366.337 -1.26446 -1.58554 0
M  V30 3750 C 366.67 0.1664 -1.93486 0
M  V30 3751 O 365.945 1.1107 -1.59667 0
M  V30 3752 C 366.228 -2.15111 -2.8879 0
M  V30 3753 C 366.081 -3.66712 -2.60465 0
M  V30 3754 C 367.4 -2.03311 -3.90324 0
M  V30 3755 H 364.519 -0.46067 -0.575284 0
M  V30 3756 H 367.161 -1.64356 -0.953269 0
M  V30 3757 H 365.311 -1.8291 -3.42748 0
M  V30 3758 H 366.983 -4.09259 -2.1285 0
M  V30 3759 H 365.226 -3.88014 -1.93978 0
M  V30 3760 H 365.897 -4.24112 -3.53317 0
M  V30 3761 H 368.373 -2.31574 -3.45706 0
M  V30 3762 H 367.249 -2.67582 -4.79261 0
M  V30 3763 H 367.51 -1.00879 -4.30437 0
M  V30 3764 N 366.569 1.04691 -1.17803 0
M  V30 3765 C 367.499 2.14494 -0.92275 0
M  V30 3766 C 368.48 1.69546 0.137179 0
M  V30 3767 O 369.665 1.94195 -0.0141108 0
M  V30 3768 C 366.795 3.44491 -0.440803 0
M  V30 3769 C 365.749 4.03031 -1.4405 0
M  V30 3770 C 365.075 5.28432 -0.81631 0
M  V30 3771 C 366.375 4.39932 -2.81527 0
M  V30 3772 H 368.069 2.36107 -1.84103 0
M  V30 3773 H 365.615 1.1347 -0.886599 0
M  V30 3774 H 367.568 4.2066 -0.249602 0
M  V30 3775 H 366.292 3.22546 0.513025 0
M  V30 3776 H 364.951 3.28937 -1.61853 0
M  V30 3777 H 364.599 5.02792 0.144511 0
M  V30 3778 H 364.299 5.68559 -1.48371 0
M  V30 3779 H 365.823 6.07284 -0.635496 0
M  V30 3780 H 367.237 5.07113 -2.67412 0
M  V30 3781 H 365.634 4.9109 -3.44892 0
M  V30 3782 H 366.704 3.50045 -3.35554 0
M  V30 3783 N 368.047 0.979072 1.23499 0
M  V30 3784 C 368.997 0.489378 2.22686 0
M  V30 3785 C 369.981 -0.434871 1.54912 0
M  V30 3786 O 371.173 -0.263941 1.75021 0
M  V30 3787 C 368.302 -0.208178 3.42668 0
M  V30 3788 C 367.388 0.735563 4.17672 0
M  V30 3789 N 367.779 1.87763 4.69658 0
M  V30 3790 C 366.077 0.548625 4.42613 0
M  V30 3791 C 366.778 2.46886 5.26709 0
M  V30 3792 N 365.754 1.75287 5.14563 0
M  V30 3793 H 369.556 1.36062 2.60508 0
M  V30 3794 H 367.07 0.83958 1.39014 0
M  V30 3795 H 369.067 -0.576295 4.12898 0
M  V30 3796 H 367.727 -1.07572 3.06363 0
M  V30 3797 H 368.738 2.25885 4.66043 0
M  V30 3798 H 365.415 -0.274006 4.166 0
M  V30 3799 H 366.805 3.43326 5.77561 0
M  V30 3800 N 369.525 -1.3858 0.750561 0
M  V30 3801 C 370.488 -2.28836 0.129152 0
M  V30 3802 C 371.488 -1.47045 -0.650714 0
M  V30 3803 O 372.678 -1.6753 -0.477428 0
M  V30 3804 C 369.81 -3.30751 -0.825622 0
M  V30 3805 H 371.003 -2.85294 0.924516 0
M  V30 3806 H 368.556 -1.47489 0.517376 0
M  V30 3807 H 369.291 -2.79378 -1.64677 0
M  V30 3808 H 369.076 -3.91177 -0.268852 0
M  V30 3809 H 370.566 -3.98249 -1.2565 0
M  V30 3810 N 371.003 -0.499398 -1.49478 0
M  V30 3811 C 371.933 0.269244 -2.31943 0
M  V30 3812 C 372.914 0.964054 -1.40143 0
M  V30 3813 O 374.099 0.955767 -1.69052 0
M  V30 3814 C 371.229 1.33504 -3.20615 0
M  V30 3815 C 370.183 0.760202 -4.21195 0
M  V30 3816 C 369.509 1.9264 -4.98792 0
M  V30 3817 C 370.809 -0.247661 -5.21712 0
M  V30 3818 H 372.503 -0.419082 -2.96452 0
M  V30 3819 H 370.049 -0.202988 -1.42562 0
M  V30 3820 H 372.002 1.88048 -3.77115 0
M  V30 3821 H 370.726 2.05253 -2.54045 0
M  V30 3822 H 369.385 0.23653 -3.65836 0
M  V30 3823 H 369.033 2.63154 -4.28671 0
M  V30 3824 H 368.733 1.54785 -5.66847 0
M  V30 3825 H 370.257 2.4762 -5.58137 0
M  V30 3826 H 371.671 0.209579 -5.72917 0
M  V30 3827 H 370.068 -0.541962 -5.97648 0
M  V30 3828 H 371.138 -1.16409 -4.7072 0
M  V30 3829 N 372.481 1.55866 -0.233164 0
M  V30 3830 C 373.727 1.98897 0.395959 0
M  V30 3831 C 374.06 1.12091 1.58585 0
M  V30 3832 O 373.335 0.181182 1.93654 0
M  V30 3833 C 373.618 3.50658 0.819224 0
M  V30 3834 C 373.471 4.48233 -0.375109 0
M  V30 3835 C 374.79 4.07135 1.67121 0
M  V30 3836 H 371.909 0.723102 0.142451 0
M  V30 3837 H 374.551 1.87082 -0.331725 0
M  V30 3838 H 372.701 3.60857 1.43925 0
M  V30 3839 H 374.373 4.50031 -1.01341 0
M  V30 3840 H 372.616 4.21624 -1.02058 0
M  V30 3841 H 373.287 5.51988 -0.0358328 0
M  V30 3842 H 375.763 3.99952 1.14795 0
M  V30 3843 H 374.639 5.13615 1.93625 0
M  V30 3844 H 374.9 3.54736 2.63846 0
M  V30 3845 N 373.959 -0.0401083 1.57549 0
M  V30 3846 C 374.892 -1.07689 2.01192 0
M  V30 3847 C 375.87 -1.358 0.894273 0
M  V30 3848 O 377.054 -1.48642 1.15921 0
M  V30 3849 C 374.181 -2.41418 2.3756 0
M  V30 3850 C 373.227 -2.29237 3.59656 0
M  V30 3851 S 374.06 -1.65628 5.09242 0
M  V30 3852 C 375.216 -3.0087 5.48843 0
M  V30 3853 H 375.449 -0.705108 2.88817 0
M  V30 3854 H 372.982 -0.249724 1.52367 0
M  V30 3855 H 374.94 -3.18329 2.59186 0
M  V30 3856 H 373.601 -2.75747 1.50407 0
M  V30 3857 H 372.794 -3.27932 3.82722 0
M  V30 3858 H 372.396 -1.60469 3.37825 0
M  V30 3859 H 374.688 -3.97201 5.48851 0
M  V30 3860 H 375.631 -2.82549 6.49286 0
M  V30 3861 H 376.039 -3.02934 4.76331 0
M  V30 3862 N 375.437 -1.54477 -0.31217 0
M  V30 3863 C 376.686 -1.72438 -1.04633 0
M  V30 3864 C 376.999 -0.511163 -1.88803 0
M  V30 3865 O 378.205 -0.572341 -2.65399 0
M  V30 3866 C 376.661 -3.05043 -1.9099 0
M  V30 3867 C 376.269 -4.33806 -1.11877 0
M  V30 3868 C 378.013 -3.32364 -2.64073 0
M  V30 3869 C 375.92 -5.57467 -1.97445 0
M  V30 3870 H 374.85 -0.642647 -0.394361 0
M  V30 3871 H 377.501 -1.80966 -0.303929 0
M  V30 3872 H 375.883 -2.90451 -2.69173 0
M  V30 3873 H 377.057 -4.59199 -0.383843 0
M  V30 3874 H 375.372 -4.13336 -0.504252 0
M  V30 3875 H 377.969 -4.21951 -3.28423 0
M  V30 3876 H 378.312 -2.50745 -3.32314 0
M  V30 3877 H 378.845 -3.47875 -1.92944 0
M  V30 3878 H 375.584 -6.41722 -1.33692 0
M  V30 3879 H 375.104 -5.36277 -2.6864 0
M  V30 3880 H 376.783 -5.94303 -2.5576 0
M  V30 3881 N 376.915 0.57481 -1.46744 0
M  V30 3882 C 378.14 1.36341 -1.56288 0
M  V30 3883 C 378.565 1.86954 -0.207347 0
M  V30 3884 O 377.923 1.62006 0.813871 0
M  V30 3885 C 377.971 2.52147 -2.57787 0
M  V30 3886 O 377.075 3.53834 -2.11838 0
M  V30 3887 H 376.416 0.405713 -0.525636 0
M  V30 3888 H 378.946 0.696453 -1.92382 0
M  V30 3889 H 378.956 2.98958 -2.77648 0
M  V30 3890 H 377.631 2.14663 -3.5622 0
M  V30 3891 H 376.208 3.1345 -2.01999 0
M  V30 3892 N 378.394 1.34581 0.820102 0
M  V30 3893 C 379.671 1.17675 1.56244 0
M  V30 3894 C 380.051 -0.249541 2.0962 0
M  V30 3895 O 379.399 -1.25125 1.91196 0
M  V30 3896 C 379.609 2.23364 2.6816 0
M  V30 3897 C 380.957 2.58485 3.36854 0
M  V30 3898 O 381.981 2.22175 2.78418 0
M  V30 3899 O 380.84 3.20868 4.42386 0
M  V30 3900 H 377.934 0.456333 0.689702 0
M  V30 3901 H 380.48 1.46222 0.861231 0
M  V30 3902 H 379.252 3.19087 2.26493 0
M  V30 3903 H 378.875 1.96009 3.45928 0
M  V30 3904 N 379.872 -1.04064 1.18357 0
M  V30 3905 C 380.82 -2.14187 0.907007 0
M  V30 3906 C 381.814 -1.68879 -0.132725 0
M  V30 3907 O 383.02 -1.79993 0.0154248 0
M  V30 3908 H 379.395 -0.699585 0.275835 0
M  V30 3909 H 381.366 -2.34711 1.84264 0
M  V30 3910 C 380.115 -3.44785 0.449254 0
M  V30 3911 H 379.438 -3.80058 1.24081 0
M  V30 3912 H 380.878 -4.22974 0.294737 0
M  V30 3913 C 379.337 -3.26391 -0.834909 0
M  V30 3914 O 379.867 -3.53973 -1.89911 0
M  V30 3915 N 378.073 -2.79726 -0.787523 0
M  V30 3916 H 377.62 -2.5748 0.0787347 0
M  V30 3917 H 377.578 -2.67798 -1.64716 0
M  V30 3918 N 381.35 -0.985608 -1.22978 0
M  V30 3919 C 382.575 -0.675254 -1.961 0
M  V30 3920 C 383 0.752154 -1.72407 0
M  V30 3921 O 382.358 1.5131 -0.998751 0
M  V30 3922 C 382.406 -0.977899 -3.47087 0
M  V30 3923 O 381.51 -0.072685 -4.12336 0
M  V30 3924 H 380.851 -0.253443 -0.613728 0
M  V30 3925 H 383.381 -1.32061 -1.56272 0
M  V30 3926 H 383.391 -0.916739 -3.97567 0
M  V30 3927 H 382.066 -2.01807 -3.63657 0
M  V30 3928 H 380.643 -0.188703 -3.72422 0
M  V30 3929 N 382.828 1.3818 -0.7579 0
M  V30 3930 C 383.791 2.28764 -0.141286 0
M  V30 3931 C 384.791 1.47388 0.642907 0
M  V30 3932 O 385.981 1.67781 0.468536 0
M  V30 3933 C 383.113 3.31184 0.808069 0
M  V30 3934 H 384.306 2.848 -0.939633 0
M  V30 3935 H 381.859 1.47212 -0.525191 0
M  V30 3936 H 382.594 2.80247 1.63193 0
M  V30 3937 H 382.379 3.91314 0.248104 0
M  V30 3938 H 383.869 3.98909 1.23536 0
M  V30 3939 N 384.306 0.507319 1.49211 0
M  V30 3940 C 385.216 -0.272136 2.33016 0
M  V30 3941 C 386.232 -0.961206 1.45041 0
M  V30 3942 O 387.408 -0.941191 1.78055 0
M  V30 3943 C 384.473 -1.31895 3.20631 0
M  V30 3944 C 383.534 -0.642648 4.24463 0
M  V30 3945 C 382.767 -1.63959 5.07891 0
M  V30 3946 O 382.99 -2.87007 4.92933 0
M  V30 3947 O 381.924 -1.19143 5.8999 0
M  V30 3948 H 385.75 0.413982 3.00865 0
M  V30 3949 H 383.335 0.268556 1.46966 0
M  V30 3950 H 385.217 -1.92446 3.7489 0
M  V30 3951 H 383.892 -1.98788 2.5547 0
M  V30 3952 H 382.799 0.00276252 3.741 0
M  V30 3953 H 384.132 -0.0160534 4.92197 0
M  V30 3954 N 385.784 -1.5574 0.241426 0
M  V30 3955 C 386.732 -2.22538 -0.676718 0
M  V30 3956 C 387.726 -1.21117 -1.18436 0
M  V30 3957 O 388.932 -1.39144 -1.14188 0
M  V30 3958 H 385.307 -0.713776 -0.236701 0
M  V30 3959 H 387.278 -2.98264 -0.0901187 0
M  V30 3960 C 386.027 -2.93439 -1.86518 0
M  V30 3961 H 385.35 -3.7125 -1.4837 0
M  V30 3962 H 386.79 -3.43549 -2.48495 0
M  V30 3963 C 385.249 -1.97008 -2.73294 0
M  V30 3964 O 385.779 -1.49965 -3.72657 0
M  V30 3965 N 383.985 -1.64227 -2.39745 0
M  V30 3966 H 383.532 -2.02677 -1.58996 0
M  V30 3967 H 383.49 -0.999708 -2.98083 0
M  V30 3968 N 387.262 0.0317525 -1.57568 0
M  V30 3969 C 388.511 0.722131 -1.8833 0
M  V30 3970 C 388.824 1.76664 -0.839587 0
M  V30 3971 O 390.03 2.50942 -1.03635 0
M  V30 3972 C 388.486 1.33544 -3.34207 0
M  V30 3973 C 388.094 0.327415 -4.46802 0
M  V30 3974 C 389.838 2.00585 -3.7412 0
M  V30 3975 C 387.745 0.948915 -5.83738 0
M  V30 3976 H 386.675 0.273466 -0.702661 0
M  V30 3977 H 389.326 -0.0235811 -1.83485 0
M  V30 3978 H 387.708 2.13077 -3.33788 0
M  V30 3979 H 388.882 -0.441006 -4.58685 0
M  V30 3980 H 387.197 -0.240758 -4.15703 0
M  V30 3981 H 389.794 2.47932 -4.73744 0
M  V30 3982 H 390.137 2.82285 -3.05975 0
M  V30 3983 H 390.67 1.27831 -3.76702 0
M  V30 3984 H 387.409 0.171387 -6.55276 0
M  V30 3985 H 386.929 1.68724 -5.7558 0
M  V30 3986 H 388.608 1.45705 -6.3038 0
M  V30 3987 N 388.74 1.54641 0.303973 0
M  V30 3988 C 389.703 1.84646 1.35789 0
M  V30 3989 C 390.703 0.7192 1.4382 0
M  V30 3990 O 391.893 0.987491 1.43507 0
M  V30 3991 C 389.025 2.02407 2.74307 0
M  V30 3992 H 390.218 2.78829 1.10429 0
M  V30 3993 H 387.771 1.46658 0.540487 0
M  V30 3994 H 388.506 1.10502 3.04893 0
M  V30 3995 H 388.291 2.84453 2.69868 0
M  V30 3996 H 389.781 2.27002 3.50514 0
M  V30 3997 N 390.218 -0.567019 1.47046 0
M  V30 3998 C 391.148 -1.68482 1.61667 0
M  V30 3999 C 392.129 -1.6358 0.466418 0
M  V30 4000 O 393.314 -1.81354 0.694574 0
M  V30 4001 C 390.444 -3.07124 1.62148 0
M  V30 4002 C 389.398 -3.26867 2.76301 0
M  V30 4003 C 388.724 -4.66196 2.61849 0
M  V30 4004 C 390.024 -3.13186 4.17986 0
M  V30 4005 H 391.718 -1.56502 2.5524 0
M  V30 4006 H 389.264 -0.751486 1.22836 0
M  V30 4007 H 391.217 -3.8516 1.70968 0
M  V30 4008 H 389.941 -3.2004 0.651287 0
M  V30 4009 H 388.6 -2.51237 2.66975 0
M  V30 4010 H 388.248 -4.75898 1.62879 0
M  V30 4011 H 387.948 -4.80356 3.38425 0
M  V30 4012 H 389.472 -5.46379 2.72584 0
M  V30 4013 H 390.886 -3.81049 4.2834 0
M  V30 4014 H 389.283 -3.3886 4.95272 0
M  V30 4015 H 390.353 -2.10057 4.3704 0
M  V30 4016 N 391.696 -1.35014 -0.812953 0
M  V30 4017 C 392.942 -1.2812 -1.57204 0
M  V30 4018 C 393.275 0.145869 -1.93651 0
M  V30 4019 O 392.55 1.0937 -1.60836 0
M  V30 4020 C 392.833 -2.18162 -2.86492 0
M  V30 4021 C 392.686 -3.69454 -2.56561 0
M  V30 4022 C 394.005 -2.07439 -3.88145 0
M  V30 4023 H 391.124 -0.466746 -0.570366 0
M  V30 4024 H 393.766 -1.65357 -0.935783 0
M  V30 4025 H 391.916 -1.86535 -3.40789 0
M  V30 4026 H 393.588 -4.11493 -2.08497 0
M  V30 4027 H 391.831 -3.9005 -1.89851 0
M  V30 4028 H 392.502 -4.27835 -3.48799 0
M  V30 4029 H 394.978 -2.35228 -3.4323 0
M  V30 4030 H 393.854 -2.7265 -4.76396 0
M  V30 4031 H 394.115 -1.05439 -4.29343 0
M  V30 4032 N 393.175 1.03435 -1.18907 0
M  V30 4033 C 394.403 1.80381 -1.01342 0
M  V30 4034 C 394.818 1.83649 0.438005 0
M  V30 4035 O 394.175 1.27655 1.30424 0
M  V30 4036 C 394.226 3.25689 -1.56873 0
M  V30 4037 O 393.947 3.22673 -2.96334 0
M  V30 4038 C 395.448 4.19255 -1.44014 0
M  V30 4039 H 392.668 0.56784 -0.35749 0
M  V30 4040 H 395.212 1.30317 -1.576 0
M  V30 4041 H 393.367 3.72962 -1.04777 0
M  V30 4042 H 393.781 4.13748 -3.22355 0
M  V30 4043 H 395.255 5.19123 -1.87657 0
M  V30 4044 H 395.732 4.37467 -0.389815 0
M  V30 4045 H 396.338 3.77851 -1.95214 0
M  V30 4046 N 394.653 0.992116 1.22453 0
M  V30 4047 C 395.878 0.685644 1.95739 0
M  V30 4048 C 396.303 -0.743 1.72804 0
M  V30 4049 O 395.661 -1.50778 1.00676 0
M  V30 4050 C 395.709 0.996293 3.46564 0
M  V30 4051 O 394.813 0.0945512 4.12292 0
M  V30 4052 H 394.154 0.256694 0.612376 0
M  V30 4053 H 396.684 1.32888 1.5557 0
M  V30 4054 H 396.694 0.93781 3.97076 0
M  V30 4055 H 395.369 2.03733 3.62582 0
M  V30 4056 H 393.946 0.208451 3.72317 0
M  V30 4057 N 396.131 -1.37776 0.765217 0
M  V30 4058 C 397.064 -2.28008 0.0935025 0
M  V30 4059 C 398.042 -1.45985 -0.716047 0
M  V30 4060 O 399.226 -1.75331 -0.692203 0
M  V30 4061 C 396.353 -3.27228 -0.874052 0
M  V30 4062 C 395.399 -4.26239 -0.149307 0
M  V30 4063 S 396.232 -5.22827 1.15809 0
M  V30 4064 C 397.388 -6.256 0.193906 0
M  V30 4065 H 397.621 -2.84631 0.858637 0
M  V30 4066 H 395.154 -1.43952 0.558313 0
M  V30 4067 H 397.112 -3.84902 -1.42691 0
M  V30 4068 H 395.773 -2.69565 -1.61225 0
M  V30 4069 H 394.966 -4.96213 -0.88254 0
M  V30 4070 H 394.568 -3.7252 0.332366 0
M  V30 4071 H 396.86 -6.74508 -0.636011 0
M  V30 4072 H 397.803 -7.02838 0.861638 0
M  V30 4073 H 398.211 -5.64173 -0.191975 0
M  V30 4074 N 397.609 -0.515225 -1.4894 0
M  V30 4075 C 398.839 0.0205735 -2.0659 0
M  V30 4076 C 399.247 1.30064 -1.37405 0
M  V30 4077 O 398.59 1.78087 -0.450632 0
M  V30 4078 C 398.652 0.330124 -3.57981 0
M  V30 4079 C 398.316 -0.854295 -4.48944 0
M  V30 4080 C 399.313 -1.7487 -4.89609 0
M  V30 4081 C 396.998 -1.05712 -4.9105 0
M  V30 4082 C 398.992 -2.82996 -5.71132 0
M  V30 4083 C 396.679 -2.14154 -5.72347 0
M  V30 4084 C 397.677 -3.0263 -6.12294 0
M  V30 4085 O 397.365 -4.09198 -6.91962 0
M  V30 4086 H 397.097 -0.0236833 -0.675585 0
M  V30 4087 H 399.651 -0.715956 -1.92518 0
M  V30 4088 H 397.881 1.12044 -3.70112 0
M  V30 4089 H 399.57 0.806233 -3.97812 0
M  V30 4090 H 400.336 -1.60388 -4.57712 0
M  V30 4091 H 396.215 -0.377788 -4.59449 0
M  V30 4092 H 399.759 -3.52083 -6.02232 0
M  V30 4093 H 395.656 -2.28626 -6.03656 0
M  V30 4094 H 396.424 -4.06726 -7.10293 0
M  V30 4095 N 399.087 1.5561 -0.249682 0
M  V30 4096 C 400.364 1.90932 0.424761 0
M  V30 4097 C 400.744 1.17078 1.75658 0
M  V30 4098 O 400.092 0.289176 2.26663 0
M  V30 4099 C 400.302 3.43975 0.590109 0
M  V30 4100 C 401.65 4.15281 0.884714 0
M  V30 4101 O 402.674 3.49729 0.67587 0
M  V30 4102 O 401.533 5.31236 1.28259 0
M  V30 4103 H 398.627 0.794815 0.228468 0
M  V30 4104 H 401.173 1.67135 -0.293954 0
M  V30 4105 H 399.945 3.89748 -0.34818 0
M  V30 4106 H 399.568 3.73644 1.35926 0
M  V30 4107 N 400.565 -0.0233959 1.57583 0
M  V30 4108 C 401.813 -0.711654 1.89156 0
M  V30 4109 C 402.134 -1.75591 0.848096 0
M  V30 4110 O 401.404 -1.95547 -0.117566 0
M  V30 4111 H 399.984 -0.265835 0.698098 0
M  V30 4112 H 402.646 0.0119948 1.94896 0
M  V30 4113 H 401.742 -1.19766 2.88206 0
M  V30 4114 N 402.043 -1.548 -0.295768 0
M  V30 4115 C 402.973 -1.89115 -1.36959 0
M  V30 4116 C 403.954 -0.75059 -1.52644 0
M  V30 4117 O 405.139 -1.00678 -1.66065 0
M  V30 4118 C 402.269 -2.14307 -2.73295 0
M  V30 4119 C 401.223 -3.30151 -2.72368 0
M  V30 4120 C 400.549 -3.40772 -4.12042 0
M  V30 4121 C 401.849 -4.67126 -2.33646 0
M  V30 4122 H 403.543 -2.79053 -1.08488 0
M  V30 4123 H 401.089 -1.34266 -0.520443 0
M  V30 4124 H 403.042 -2.36898 -3.48507 0
M  V30 4125 H 401.766 -1.21145 -3.03301 0
M  V30 4126 H 400.425 -3.0749 -1.99613 0
M  V30 4127 H 400.073 -2.45117 -4.39234 0
M  V30 4128 H 399.773 -4.18645 -4.12322 0
M  V30 4129 H 401.297 -3.6563 -4.89027 0
M  V30 4130 H 402.711 -4.89414 -2.98575 0
M  V30 4131 H 401.108 -5.47751 -2.45129 0
M  V30 4132 H 402.178 -4.67489 -1.28772 0
M  V30 4133 N 403.521 0.559213 -1.47345 0
M  V30 4134 C 404.451 1.67622 -1.62558 0
M  V30 4135 C 405.432 1.63331 -0.475087 0
M  V30 4136 O 406.617 1.80983 -0.704182 0
M  V30 4137 C 403.747 3.0626 -1.63774 0
M  V30 4138 C 402.701 3.25397 -2.7803 0
M  V30 4139 C 402.027 4.64801 -2.64318 0
M  V30 4140 C 403.327 3.10965 -4.19641 0
M  V30 4141 H 405.021 1.55146 -2.56067 0
M  V30 4142 H 402.567 0.744961 -1.23233 0
M  V30 4143 H 404.52 3.84247 -1.73008 0
M  V30 4144 H 403.244 3.1969 -0.66825 0
M  V30 4145 H 401.903 2.49817 -2.68304 0
M  V30 4146 H 401.551 4.75028 -1.65401 0
M  V30 4147 H 401.251 4.78555 -3.40968 0
M  V30 4148 H 402.775 5.44926 -2.75478 0
M  V30 4149 H 404.189 3.78772 -4.30354 0
M  V30 4150 H 402.586 3.36229 -4.97062 0
M  V30 4151 H 403.656 2.07736 -4.38148 0
M  V30 4152 N 404.999 1.35443 0.805782 0
M  V30 4153 C 405.931 1.24285 1.92577 0
M  V30 4154 C 406.944 0.165962 1.61952 0
M  V30 4155 O 408.133 0.419303 1.73505 0
M  V30 4156 C 405.233 0.891272 3.2697 0
M  V30 4157 C 404.406 2.06669 3.85495 0
M  V30 4158 C 403.465 1.69077 4.98297 0
M  V30 4159 O 402.491 2.4096 5.15681 0
M  V30 4160 N 403.693 0.614869 5.77234 0
M  V30 4161 H 406.458 2.20777 2.02676 0
M  V30 4162 H 404.019 1.28623 0.983243 0
M  V30 4163 H 406.011 0.621256 3.99903 0
M  V30 4164 H 404.581 0.016004 3.12596 0
M  V30 4165 H 403.801 2.50046 3.04747 0
M  V30 4166 H 405.089 2.85237 4.21328 0
M  V30 4167 H 404.487 0.017648 5.65697 0
M  V30 4168 H 403.044 0.404636 6.50543 0
M  V30 4169 N 406.477 -1.02803 1.19454 0
M  V30 4170 C 407.44 -2.09264 0.934955 0
M  V30 4171 C 408.44 -1.60576 -0.0849015 0
M  V30 4172 O 409.63 -1.73554 0.149933 0
M  V30 4173 C 406.762 -3.38482 0.40531 0
M  V30 4174 H 407.955 -2.33726 1.87916 0
M  V30 4175 H 405.508 -1.19426 1.00832 0
M  V30 4176 H 406.243 -3.19689 -0.544899 0
M  V30 4177 H 406.028 -3.75142 1.14065 0
M  V30 4178 H 407.518 -4.16894 0.242806 0
M  V30 4179 N 407.956 -0.998596 -1.21925 0
M  V30 4180 C 409.204 -0.676325 -1.90448 0
M  V30 4181 C 409.525 0.794719 -1.78071 0
M  V30 4182 O 408.795 1.5701 -1.17152 0
M  V30 4183 H 407.375 -0.247165 -0.704925 0
M  V30 4184 H 410.037 -1.26633 -1.48156 0
M  V30 4185 H 409.133 -0.943858 -2.97486 0
M  V30 4186 N 409.434 1.37368 -0.772513 0
M  V30 4187 C 410.397 2.28601 -0.165541 0
M  V30 4188 C 411.397 1.48062 0.627238 0
M  V30 4189 O 412.587 1.68268 0.450715 0
M  V30 4190 C 409.719 3.32023 0.772897 0
M  V30 4191 H 410.912 2.83787 -0.969787 0
M  V30 4192 H 408.465 1.46647 -0.540775 0
M  V30 4193 H 409.2 2.81962 1.60212 0
M  V30 4194 H 408.985 3.91555 0.206585 0
M  V30 4195 H 410.475 4.00197 1.19298 0
M  V30 4196 N 410.912 0.523116 1.48665 0
M  V30 4197 C 412.328 0.180511 1.58576 0
M  V30 4198 C 412.528 -1.31597 1.52592 0
M  V30 4199 O 411.584 -2.0937 1.4114 0
M  V30 4200 C 412.897 0.776949 2.90489 0
M  V30 4201 C 414.445 0.745058 3.04003 0
M  V30 4202 C 414.92 1.31995 4.38567 0
M  V30 4203 N 416.411 1.28162 4.45117 0
M  V30 4204 C 417.146 1.6964 5.47731 0
M  V30 4205 N 416.642 2.18816 6.57337 0
M  V30 4206 N 418.435 1.6092 5.38573 0
M  V30 4207 H 410.586 1.4958 1.50797 0
M  V30 4208 H 412.849 0.621772 0.715614 0
M  V30 4209 H 412.555 1.82732 3.00503 0
M  V30 4210 H 412.429 0.25007 3.7637 0
M  V30 4211 H 414.816 -0.296532 2.93606 0
M  V30 4212 H 414.897 1.30933 2.1975 0
M  V30 4213 H 414.541 2.36043 4.49718 0
M  V30 4214 H 414.471 0.731418 5.21496 0
M  V30 4215 H 416.962 0.92155 3.66491 0
M  V30 4216 H 417.275 2.48478 7.31764 0
M  V30 4217 H 415.62 2.22805 6.58318 0
M  V30 4218 H 418.811 1.22304 4.5184 0
M  V30 4219 H 418.984 1.93567 6.18414 0
M  V30 4220 N 412.39 -1.55475 0.257931 0
M  V30 4221 C 413.32 -2.24815 -0.630912 0
M  V30 4222 C 414.301 -1.23224 -1.17259 0
M  V30 4223 O 415.486 -1.51904 -1.20991 0
M  V30 4224 C 412.616 -2.95609 -1.82298 0
M  V30 4225 C 411.57 -4.03982 -1.41359 0
M  V30 4226 C 410.896 -4.6226 -2.68738 0
M  V30 4227 C 412.196 -5.19109 -0.57648 0
M  V30 4228 H 413.89 -2.99354 -0.0526878 0
M  V30 4229 H 411.436 -1.4398 -0.023901 0
M  V30 4230 H 413.389 -3.42822 -2.45054 0
M  V30 4231 H 412.113 -2.18577 -2.42676 0
M  V30 4232 H 410.772 -3.57555 -0.809324 0
M  V30 4233 H 410.42 -3.81915 -3.27338 0
M  V30 4234 H 410.12 -5.35424 -2.42065 0
M  V30 4235 H 411.644 -5.12212 -3.32372 0
M  V30 4236 H 413.058 -5.62479 -1.10861 0
M  V30 4237 H 411.455 -5.98729 -0.405351 0
M  V30 4238 H 412.525 -4.83174 0.408776 0
M  V30 4239 N 413.868 0.0150385 -1.57593 0
M  V30 4240 C 415.108 0.70768 -1.91758 0
M  V30 4241 C 415.472 1.71764 -0.857974 0
M  V30 4242 O 416.673 2.45956 -1.0844 0
M  V30 4243 C 414.944 1.34736 -3.3103 0
M  V30 4244 S 416.503 2.06721 -3.87056 0
M  V30 4245 H 413.321 0.234119 -0.671349 0
M  V30 4246 H 415.923 -0.0380373 -1.95463 0
M  V30 4247 H 414.627 0.59926 -4.06001 0
M  V30 4248 H 414.158 2.13133 -3.30663 0
M  V30 4249 H 416.173 3.34047 -3.66915 0
M  V30 4250 N 415.346 1.54954 0.287554 0
M  V30 4251 C 416.757 1.65732 0.859634 0
M  V30 4252 C 417.108 0.574767 1.87592 0
M  V30 4253 O 416.233 -0.286299 2.14498 0
M  V30 4254 C 416.828 3.00438 1.56597 0
M  V30 4255 C 415.387 3.13292 2.08627 0
M  V30 4256 C 414.534 2.61473 0.923416 0
M  V30 4257 H 417.485 1.5857 0.0642338 0
M  V30 4258 H 417.506 2.92613 2.43224 0
M  V30 4259 H 417.018 3.79207 0.826053 0
M  V30 4260 H 415.119 2.39268 2.85625 0
M  V30 4261 H 415.232 4.19647 2.31157 0
M  V30 4262 H 413.596 2.18264 1.31275 0
M  V30 4263 H 414.379 3.42733 0.197241 0
M  V30 4264 N 416.824 -0.551391 1.4764 0
M  V30 4265 C 418.052 -1.33357 1.58189 0
M  V30 4266 C 418.467 -1.87342 0.234199 0
M  V30 4267 O 417.824 -1.65301 -0.77343 0
M  V30 4268 C 417.875 -2.49942 2.61173 0
M  V30 4269 O 417.596 -1.98187 3.90709 0
M  V30 4270 C 419.097 -3.42072 2.8196 0
M  V30 4271 H 416.317 -0.40631 0.533998 0
M  V30 4272 H 418.861 -0.667367 1.93304 0
M  V30 4273 H 417.016 -3.12489 2.28975 0
M  V30 4274 H 417.43 -2.74342 4.47031 0
M  V30 4275 H 418.904 -4.20278 3.57869 0
M  V30 4276 H 419.381 -3.95978 1.89995 0
M  V30 4277 H 419.987 -2.85336 3.15378 0
M  V30 4278 N 418.302 -1.35869 -0.798587 0
M  V30 4279 C 419.548 -1.2978 -1.55836 0
M  V30 4280 C 419.881 0.125322 -1.93795 0
M  V30 4281 O 419.156 1.07658 -1.61987 0
M  V30 4282 C 419.439 -2.21188 -2.84162 0
M  V30 4283 C 419.292 -3.72155 -2.52628 0
M  V30 4284 C 420.611 -2.11545 -3.85923 0
M  V30 4285 H 417.73 -0.472769 -0.565383 0
M  V30 4286 H 420.372 -1.66341 -0.918192 0
M  V30 4287 H 418.522 -1.90139 -3.38791 0
M  V30 4288 H 420.194 -4.13682 -2.04121 0
M  V30 4289 H 418.437 -3.92042 -1.85704 0
M  V30 4290 H 419.108 -4.31511 -3.44242 0
M  V30 4291 H 421.584 -2.38855 -3.40716 0
M  V30 4292 H 420.46 -2.77688 -4.73477 0
M  V30 4293 H 420.721 -1.09987 -4.282 0
M  V30 4294 N 419.78 1.02168 -1.19998 0
M  V30 4295 C 420.712 2.10705 -0.901994 0
M  V30 4296 C 421.725 1.6244 0.108216 0
M  V30 4297 O 422.914 1.78082 -0.12214 0
M  V30 4298 C 420.014 3.37291 -0.329834 0
M  V30 4299 C 419.187 4.14714 -1.39035 0
M  V30 4300 C 418.246 5.19606 -0.830432 0
M  V30 4301 O 417.272 5.48809 -1.50989 0
M  V30 4302 N 418.474 5.79366 0.362696 0
M  V30 4303 H 421.239 2.36856 -1.83628 0
M  V30 4304 H 418.8 1.18518 -1.10296 0
M  V30 4305 H 420.792 4.04657 0.0587633 0
M  V30 4306 H 419.362 3.0843 0.508891 0
M  V30 4307 H 418.582 3.42392 -1.9535 0
M  V30 4308 H 419.87 4.63226 -2.10474 0
M  V30 4309 H 419.268 5.57968 0.932081 0
M  V30 4310 H 417.825 6.48106 0.69299 0
M  V30 4311 N 421.258 1.00505 1.21394 0
M  V30 4312 C 422.188 0.585684 2.26035 0
M  V30 4313 C 423.169 -0.393525 1.65485 0
M  V30 4314 O 424.354 -0.281497 1.92149 0
M  V30 4315 C 421.484 -0.0884283 3.47187 0
M  V30 4316 C 420.438 0.810567 4.20254 0
M  V30 4317 C 419.764 0.00286382 5.347 0
M  V30 4318 C 421.064 2.1132 4.77641 0
M  V30 4319 H 422.758 1.46039 2.61368 0
M  V30 4320 H 420.304 0.703648 1.25638 0
M  V30 4321 H 422.257 -0.393286 4.19561 0
M  V30 4322 H 420.981 -0.997766 3.10986 0
M  V30 4323 H 419.64 1.09925 3.49731 0
M  V30 4324 H 419.288 -0.907765 4.94741 0
M  V30 4325 H 418.988 0.601444 5.84514 0
M  V30 4326 H 420.512 -0.295808 6.09883 0
M  V30 4327 H 421.926 1.87148 5.41893 0
M  V30 4328 H 420.323 2.66164 5.37845 0
M  V30 4329 H 421.393 2.78393 3.9702 0
M  V30 4330 N 422.737 -1.36956 0.779787 0
M  V30 4331 C 423.647 -2.33965 0.172491 0
M  V30 4332 C 424.663 -1.60574 -0.670222 0
M  V30 4333 O 425.839 -1.92617 -0.588263 0
M  V30 4334 C 422.904 -3.39761 -0.690173 0
M  V30 4335 C 421.965 -4.28964 0.169924 0
M  V30 4336 C 421.198 -5.29707 -0.651662 0
M  V30 4337 O 421.421 -5.38238 -1.88827 0
M  V30 4338 O 420.355 -6.01873 -0.0566264 0
M  V30 4339 H 424.181 -2.87647 0.974321 0
M  V30 4340 H 421.766 -1.39258 0.541078 0
M  V30 4341 H 423.648 -4.04471 -1.1824 0
M  V30 4342 H 422.323 -2.88394 -1.47006 0
M  V30 4343 H 421.23 -3.67326 0.708696 0
M  V30 4344 H 422.563 -4.83656 0.913085 0
M  V30 4345 N 424.215 -0.530993 -1.48385 0
M  V30 4346 C 425.492 0.0671788 -1.95485 0
M  V30 4347 C 425.872 1.51191 -1.47324 0
M  V30 4348 O 425.22 2.17507 -0.700202 0
M  V30 4349 C 425.43 -0.0511206 -3.48963 0
M  V30 4350 C 426.778 0.107632 -4.24464 0
M  V30 4351 O 427.802 0.0226248 -3.56193 0
M  V30 4352 O 426.661 0.285972 -5.45751 0
M  V30 4353 H 423.755 0.0787365 -0.823243 0
M  V30 4354 H 426.301 -0.595662 -1.58902 0
M  V30 4355 H 425.073 -1.05747 -3.7674 0
M  V30 4356 H 424.696 0.650525 -3.92242 0
M  V30 4357 N 425.693 1.55336 -0.266172 0
M  V30 4358 C 426.942 1.98574 0.353749 0
M  V30 4359 C 427.255 1.15789 1.57646 0
M  V30 4360 O 428.461 1.49129 2.26876 0
M  V30 4361 C 426.917 3.53403 0.680747 0
M  V30 4362 C 426.525 4.44953 -0.52165 0
M  V30 4363 C 428.269 4.05251 1.26379 0
M  V30 4364 C 426.176 5.91156 -0.169736 0
M  V30 4365 H 425.106 0.741643 0.135949 0
M  V30 4366 H 427.757 1.79743 -0.369421 0
M  V30 4367 H 426.139 3.68001 1.46257 0
M  V30 4368 H 427.313 4.42121 -1.29869 0
M  V30 4369 H 425.628 4.03691 -1.02093 0
M  V30 4370 H 428.225 5.12021 1.54074 0
M  V30 4371 H 428.568 3.53749 2.19471 0
M  V30 4372 H 429.101 3.94057 0.544447 0
M  V30 4373 H 425.84 6.46736 -1.0683 0
M  V30 4374 H 425.36 5.97079 0.570717 0
M  V30 4375 H 427.039 6.4655 0.241245 0
M  V30 4376 N 427.171 -0.0066808 1.57599 0
M  V30 4377 C 428.587 -0.36267 1.55425 0
M  V30 4378 C 428.787 -1.75209 0.995187 0
M  V30 4379 O 427.843 -2.44616 0.626058 0
M  V30 4380 C 429.156 -0.244017 2.99708 0
M  V30 4381 C 430.704 -0.319451 3.11366 0
M  V30 4382 C 431.179 -0.229998 4.57422 0
M  V30 4383 N 432.67 -0.288105 4.62303 0
M  V30 4384 C 433.405 -0.242127 5.72889 0
M  V30 4385 N 432.901 -0.147133 6.92644 0
M  V30 4386 N 434.694 -0.293502 5.61333 0
M  V30 4387 H 426.845 0.902314 1.92281 0
M  V30 4388 H 429.108 0.34525 0.882896 0
M  V30 4389 H 428.814 0.711678 3.44424 0
M  V30 4390 H 428.688 -1.02877 3.629 0
M  V30 4391 H 431.075 -1.26559 2.66584 0
M  V30 4392 H 431.156 0.495055 2.50964 0
M  V30 4393 H 430.8 0.712566 5.02877 0
M  V30 4394 H 430.73 -1.0629 5.15761 0
M  V30 4395 H 433.221 -0.363126 3.76151 0
M  V30 4396 H 433.534 -0.117763 7.7271 0
M  V30 4397 H 431.879 -0.112857 6.94908 0
M  V30 4398 H 435.07 -0.365864 4.66668 0
M  V30 4399 H 435.243 -0.254204 6.47501 0
M  V30 4400 N 428.649 -1.55105 -0.279332 0
M  V30 4401 C 429.597 -1.88333 -1.36505 0
M  V30 4402 C 430.591 -0.759043 -1.51443 0
M  V30 4403 O 431.797 -0.943312 -1.53302 0
M  V30 4404 H 428.172 -0.59766 -0.456406 0
M  V30 4405 H 430.143 -2.79041 -1.05728 0
M  V30 4406 C 428.892 -2.16628 -2.7197 0
M  V30 4407 H 428.215 -3.02624 -2.61264 0
M  V30 4408 H 429.655 -2.43803 -3.46895 0
M  V30 4409 C 428.114 -0.971807 -3.22579 0
M  V30 4410 O 428.644 -0.203228 -4.01186 0
M  V30 4411 N 426.85 -0.771238 -2.80179 0
M  V30 4412 H 426.397 -1.39792 -2.1637 0
M  V30 4413 H 426.355 0.0263667 -3.14389 0
M  V30 4414 N 430.127 0.543554 -1.4793 0
M  V30 4415 C 431.057 1.65888 -1.64327 0
M  V30 4416 C 432.038 1.62818 -0.492383 0
M  V30 4417 O 433.223 1.80226 -0.723338 0
M  V30 4418 C 430.353 3.04506 -1.67013 0
M  V30 4419 C 429.307 3.2243 -2.81466 0
M  V30 4420 C 428.633 4.61972 -2.69233 0
M  V30 4421 C 429.933 3.06496 -4.22915 0
M  V30 4422 H 431.627 1.52421 -2.57698 0
M  V30 4423 H 429.173 0.731849 -1.24016 0
M  V30 4424 H 431.126 3.82391 -1.77074 0
M  V30 4425 H 429.85 3.18964 -0.70212 0
M  V30 4426 H 428.509 2.46957 -2.70938 0
M  V30 4427 H 428.157 4.73247 -1.7043 0
M  V30 4428 H 427.857 4.74911 -3.46025 0
M  V30 4429 H 429.381 5.41974 -2.81242 0
M  V30 4430 H 430.795 3.74186 -4.34348 0
M  V30 4431 H 429.192 3.30938 -5.006 0
M  V30 4432 H 430.262 2.03077 -4.40327 0
M  V30 4433 N 431.605 1.3629 0.791371 0
M  V30 4434 C 432.537 1.26321 1.91248 0
M  V30 4435 C 433.55 0.18313 1.61767 0
M  V30 4436 O 434.739 0.437682 1.73051 0
M  V30 4437 C 431.839 0.925901 3.26007 0
M  V30 4438 C 431.012 2.10746 3.83281 0
M  V30 4439 C 430.071 1.74352 4.96475 0
M  V30 4440 O 429.097 2.46416 5.13096 0
M  V30 4441 N 430.299 0.676058 5.7655 0
M  V30 4442 H 433.064 2.22915 2.00323 0
M  V30 4443 H 430.625 1.29659 0.969546 0
M  V30 4444 H 432.617 0.663636 3.99222 0
M  V30 4445 H 431.187 0.0491581 3.12561 0
M  V30 4446 H 430.407 2.53264 3.02077 0
M  V30 4447 H 431.695 2.8969 4.18279 0
M  V30 4448 H 431.093 0.0776467 5.65647 0
M  V30 4449 H 429.65 0.473612 6.50077 0
M  V30 4450 N 433.083 -1.0153 1.20538 0
M  V30 4451 C 434.36 -1.72327 0.925343 0
M  V30 4452 C 434.74 -2.03383 -0.565547 0
M  V30 4453 O 434.088 -1.69934 -1.52757 0
M  V30 4454 C 434.298 -2.9902 1.79967 0
M  V30 4455 C 435.646 -3.72258 2.04228 0
M  V30 4456 O 436.67 -3.08979 1.77231 0
M  V30 4457 O 435.529 -4.86053 2.4983 0
M  V30 4458 H 432.623 -0.751099 0.346092 0
M  V30 4459 H 435.169 -1.07366 1.31417 0
M  V30 4460 H 433.941 -2.72402 2.80915 0
M  V30 4461 H 433.564 -3.71721 1.41099 0
M  V30 4462 N 434.561 -1.01147 -1.20859 0
M  V30 4463 C 435.491 -0.597663 -2.25722 0
M  V30 4464 C 436.472 0.384744 -1.65692 0
M  V30 4465 O 437.657 0.271303 -1.92296 0
M  V30 4466 C 434.787 0.0700149 -3.47229 0
M  V30 4467 C 433.741 -0.832843 -4.19819 0
M  V30 4468 C 433.067 -0.0312202 -5.34691 0
M  V30 4469 C 434.367 -2.1385 -4.76514 0
M  V30 4470 H 436.061 -1.47423 -2.60589 0
M  V30 4471 H 433.607 -0.710301 -1.25263 0
M  V30 4472 H 435.56 0.37103 -4.19763 0
M  V30 4473 H 434.284 0.981259 -3.11511 0
M  V30 4474 H 432.943 -1.11778 -3.49144 0
M  V30 4475 H 432.591 0.881515 -4.95215 0
M  V30 4476 H 432.291 -0.632434 -5.84187 0
M  V30 4477 H 433.815 0.26346 -6.10031 0
M  V30 4478 H 435.229 -1.9002 -5.40893 0
M  V30 4479 H 433.626 -2.69012 -5.36426 0
M  V30 4480 H 434.696 -2.80495 -3.95538 0
M  V30 4481 N 436.039 1.36541 -0.78704 0
M  V30 4482 C 437.267 2.03561 -0.370199 0
M  V30 4483 C 437.682 1.59347 1.01263 0
M  V30 4484 O 437.039 0.781781 1.64907 0
M  V30 4485 C 437.09 3.59033 -0.421614 0
M  V30 4486 O 436.811 4.01634 -1.7499 0
M  V30 4487 C 438.312 4.433 0.00489763 0
M  V30 4488 H 435.532 0.653346 -0.152904 0
M  V30 4489 H 438.076 1.74566 -1.06522 0
M  V30 4490 H 436.231 3.86746 0.224971 0
M  V30 4491 H 436.645 4.96217 -1.69909 0
M  V30 4492 H 438.119 5.51939 -0.0822184 0
M  V30 4493 H 438.596 4.26285 1.05723 0
M  V30 4494 H 439.202 4.20843 -0.614085 0
M  V30 4495 N 437.518 0.538854 1.48102 0
M  V30 4496 C 438.929 0.100679 1.86428 0
M  V30 4497 C 439.28 -1.32447 1.44749 0
M  V30 4498 O 438.405 -1.99339 0.842199 0
M  V30 4499 C 439 0.175933 3.38343 0
M  V30 4500 C 437.559 -0.207098 3.7583 0
M  V30 4501 C 436.706 0.531741 2.72154 0
M  V30 4502 H 439.657 0.749614 1.3988 0
M  V30 4503 H 439.678 -0.610144 3.75576 0
M  V30 4504 H 439.19 1.21328 3.68648 0
M  V30 4505 H 437.291 -1.24626 3.5114 0
M  V30 4506 H 437.404 0.138687 4.78899 0
M  V30 4507 H 435.768 -0.0230462 2.5469 0
M  V30 4508 H 436.551 1.56989 3.05302 0
M  V30 4509 N 438.996 -1.55193 0.274407 0
M  V30 4510 C 439.926 -2.25471 -0.607032 0
M  V30 4511 C 440.907 -1.24461 -1.15946 0
M  V30 4512 O 442.092 -1.53179 -1.19373 0
M  V30 4513 C 439.222 -2.97526 -1.79153 0
M  V30 4514 C 438.176 -4.05459 -1.37067 0
M  V30 4515 C 437.502 -4.65084 -2.6382 0
M  V30 4516 C 438.802 -5.19691 -0.521389 0
M  V30 4517 H 440.496 -2.99393 -0.0209343 0
M  V30 4518 H 438.042 -1.43997 -0.00862866 0
M  V30 4519 H 439.995 -3.45402 -2.41404 0
M  V30 4520 H 438.719 -2.21138 -2.40344 0
M  V30 4521 H 437.378 -3.58393 -0.771355 0
M  V30 4522 H 437.026 -3.85365 -3.23268 0
M  V30 4523 H 436.726 -5.37961 -2.36372 0
M  V30 4524 H 438.25 -5.15708 -3.26921 0
M  V30 4525 H 439.664 -5.63623 -1.04889 0
M  V30 4526 H 438.061 -5.99126 -0.341825 0
M  V30 4527 H 439.131 -4.82713 0.46 0
M  V30 4528 N 440.474 -0.00167713 -1.576 0
M  V30 4529 C 441.421 0.989195 -2.08527 0
M  V30 4530 C 442.391 1.34031 -0.981065 0
M  V30 4531 O 443.576 1.43839 -1.2536 0
M  V30 4532 C 440.716 2.27537 -2.59463 0
M  V30 4533 C 439.829 1.98314 -3.83791 0
M  V30 4534 C 438.964 3.21025 -4.23222 0
M  V30 4535 C 438.003 2.87495 -5.40382 0
M  V30 4536 N 437.14 4.02749 -5.75098 0
M  V30 4537 H 441.98 0.547973 -2.92919 0
M  V30 4538 H 439.517 0.258917 -1.44803 0
M  V30 4539 H 441.475 3.02729 -2.87073 0
M  V30 4540 H 440.105 2.69325 -1.77943 0
M  V30 4541 H 439.157 1.13482 -3.63078 0
M  V30 4542 H 440.469 1.69601 -4.69081 0
M  V30 4543 H 439.623 4.04561 -4.52123 0
M  V30 4544 H 438.362 3.52877 -3.36644 0
M  V30 4545 H 437.367 2.02367 -5.11202 0
M  V30 4546 H 438.592 2.56889 -6.28637 0
M  V30 4547 H 436.538 4.34494 -4.91478 0
M  V30 4548 H 436.455 3.77566 -6.54966 0
M  V30 4549 H 437.723 4.87068 -6.08592 0
M  V30 4550 N 441.952 1.55251 0.271103 0
M  V30 4551 C 442.882 1.9127 1.33933 0
M  V30 4552 C 443.863 0.77478 1.5143 0
M  V30 4553 O 445.048 1.03307 1.64442 0
M  V30 4554 C 442.178 2.18627 2.69851 0
M  V30 4555 C 441.132 3.34442 2.67081 0
M  V30 4556 C 440.458 3.47284 4.06569 0
M  V30 4557 C 441.758 4.70784 2.26185 0
M  V30 4558 H 443.452 2.80744 1.04035 0
M  V30 4559 H 440.998 1.35077 0.499017 0
M  V30 4560 H 442.951 2.42413 3.44694 0
M  V30 4561 H 441.675 1.25955 3.01335 0
M  V30 4562 H 440.334 3.10627 1.94695 0
M  V30 4563 H 439.982 2.52074 4.35279 0
M  V30 4564 H 439.682 4.25152 4.0561 0
M  V30 4565 H 441.206 3.73363 4.83148 0
M  V30 4566 H 442.62 4.94102 2.90751 0
M  V30 4567 H 441.017 5.51582 2.36384 0
M  V30 4568 H 442.087 4.69478 1.21319 0
M  V30 4569 N 443.43 -0.535701 1.48216 0
M  V30 4570 C 444.393 -1.623 1.61838 0
M  V30 4571 C 445.393 -1.53087 0.492024 0
M  V30 4572 O 446.583 -1.5686 0.757668 0
M  V30 4573 C 443.715 -3.01907 1.58319 0
M  V30 4574 H 444.908 -1.51564 2.58783 0
M  V30 4575 H 442.461 -0.757317 1.36727 0
M  V30 4576 H 443.196 -3.18155 0.628299 0
M  V30 4577 H 442.981 -3.10003 2.40085 0
M  V30 4578 H 444.471 -3.80969 1.71033 0
M  V30 4579 N 444.908 -1.36708 -0.784132 0
M  V30 4580 C 445.871 -1.31307 -1.87859 0
M  V30 4581 C 446.871 -0.219654 -1.59293 0
M  V30 4582 O 448.061 -0.47476 -1.67606 0
M  V30 4583 C 445.193 -1.03679 -3.24751 0
M  V30 4584 H 446.386 -2.28647 -1.94064 0
M  V30 4585 H 443.939 -1.21558 -0.98252 0
M  V30 4586 H 444.674 -0.0681936 -3.24228 0
M  V30 4587 H 444.459 -1.82811 -3.46876 0
M  V30 4588 H 445.949 -1.02518 -4.04821 0
M  V30 4589 N 446.386 1.0089 -1.21074 0
M  V30 4590 C 447.333 2.09588 -0.966512 0
M  V30 4591 C 448.303 1.65761 0.106089 0
M  V30 4592 O 449.488 1.90758 -0.0402287 0
M  V30 4593 C 446.628 3.40958 -0.533058 0
M  V30 4594 C 445.741 3.9822 -1.67467 0
M  V30 4595 C 444.876 5.17682 -1.19076 0
M  V30 4596 C 443.915 5.67043 -2.30496 0
M  V30 4597 N 443.052 6.77759 -1.83267 0
M  V30 4598 H 447.892 2.29815 -1.89708 0
M  V30 4599 H 445.429 1.12689 -0.945489 0
M  V30 4600 H 447.387 4.1637 -0.263019 0
M  V30 4601 H 446.017 3.20781 0.360505 0
M  V30 4602 H 445.069 3.1983 -2.05944 0
M  V30 4603 H 446.381 4.3085 -2.51336 0
M  V30 4604 H 445.535 6.00326 -0.877151 0
M  V30 4605 H 444.274 4.86635 -0.322066 0
M  V30 4606 H 443.279 4.82999 -2.62664 0
M  V30 4607 H 444.504 6.00121 -3.17855 0
M  V30 4608 H 442.45 6.48527 -0.987356 0
M  V30 4609 H 442.367 7.09624 -2.60711 0
M  V30 4610 H 443.635 7.63949 -1.54928 0
M  V30 4611 N 447.864 1.01787 1.20321 0
M  V30 4612 C 448.774 0.598898 2.26827 0
M  V30 4613 C 449.79 -0.36418 1.70146 0
M  V30 4614 O 450.966 -0.224812 2.00141 0
M  V30 4615 C 448.031 -0.0549769 3.46656 0
M  V30 4616 C 447.092 0.954205 4.18561 0
M  V30 4617 C 446.325 0.331439 5.3267 0
M  V30 4618 O 446.548 -0.86851 5.63749 0
M  V30 4619 O 445.482 1.0488 5.92692 0
M  V30 4620 H 449.308 1.48562 2.64883 0
M  V30 4621 H 446.893 0.787434 1.26964 0
M  V30 4622 H 448.775 -0.420102 4.19301 0
M  V30 4623 H 447.45 -0.915876 3.10473 0
M  V30 4624 H 446.357 1.37072 3.48083 0
M  V30 4625 H 447.69 1.78511 4.58688 0
M  V30 4626 N 449.342 -1.36122 0.79427 0
M  V30 4627 C 450.59 -1.98718 0.368177 0
M  V30 4628 C 450.911 -1.63345 -1.06506 0
M  V30 4629 O 450.181 -0.909825 -1.73491 0
M  V30 4630 H 448.761 -0.735038 0.133146 0
M  V30 4631 H 451.423 -1.66239 1.01739 0
M  V30 4632 H 450.519 -3.08633 0.463923 0
M  V30 4633 N 450.82 -0.546701 -1.47814 0
M  V30 4634 C 451.767 0.206854 -2.29871 0
M  V30 4635 C 452.737 0.918235 -1.38411 0
M  V30 4636 O 453.922 0.915991 -1.67375 0
M  V30 4637 C 451.062 1.23746 -3.22151 0
M  V30 4638 C 450.175 0.533216 -4.28697 0
M  V30 4639 C 449.31 1.5482 -5.08138 0
M  V30 4640 C 448.349 0.828347 -6.06469 0
M  V30 4641 N 447.486 1.78966 -6.78908 0
M  V30 4642 H 452.326 -0.499037 -2.93792 0
M  V30 4643 H 449.863 -0.25793 -1.44821 0
M  V30 4644 H 451.821 1.84746 -3.74065 0
M  V30 4645 H 450.451 1.91151 -2.60117 0
M  V30 4646 H 449.503 -0.191089 -3.7992 0
M  V30 4647 H 450.815 -0.0311987 -4.9879 0
M  V30 4648 H 449.969 2.23202 -5.6415 0
M  V30 4649 H 448.708 2.14652 -4.37922 0
M  V30 4650 H 447.713 0.130539 -5.49645 0
M  V30 4651 H 448.938 0.235907 -6.7869 0
M  V30 4652 H 446.884 2.37675 -6.1143 0
M  V30 4653 H 446.801 1.27712 -7.45135 0
M  V30 4654 H 448.069 2.46496 -7.395 0
M  V30 4655 N 452.299 1.55045 -0.282633 0
M  V30 4656 C 453.548 1.98938 0.332667 0
M  V30 4657 C 453.861 1.17455 1.56409 0
M  V30 4658 O 455.067 1.51527 2.25282 0
M  V30 4659 C 453.523 3.54105 0.643226 0
M  V30 4660 C 453.131 4.44374 -0.568814 0
M  V30 4661 C 454.875 4.06569 1.22074 0
M  V30 4662 C 452.782 5.90943 -0.232426 0
M  V30 4663 H 451.712 0.743043 0.128075 0
M  V30 4664 H 454.363 1.79341 -0.388464 0
M  V30 4665 H 452.745 3.69532 1.42346 0
M  V30 4666 H 453.919 4.40718 -1.34551 0
M  V30 4667 H 452.234 4.02585 -1.06369 0
M  V30 4668 H 454.831 5.13626 1.48635 0
M  V30 4669 H 455.174 3.56057 2.15707 0
M  V30 4670 H 455.707 3.94612 0.502621 0
M  V30 4671 H 452.446 6.45567 -1.13683 0
M  V30 4672 H 451.966 5.9765 0.507357 0
M  V30 4673 H 453.645 6.4677 0.172657 0
M  V30 4674 N 453.777 0.010035 1.57597 0
M  V30 4675 C 454.687 -0.994226 2.12491 0
M  V30 4676 C 455.703 -1.37013 1.07254 0
M  V30 4677 O 456.879 -1.45542 1.3921 0
M  V30 4678 C 453.944 -2.2642 2.62555 0
M  V30 4679 C 453.005 -1.95049 3.82432 0
M  V30 4680 C 452.238 -3.15991 4.30099 0
M  V30 4681 O 452.461 -4.28015 3.7704 0
M  V30 4682 O 451.395 -2.99403 5.22151 0
M  V30 4683 H 455.221 -0.557549 2.98538 0
M  V30 4684 H 452.806 -0.209413 1.47925 0
M  V30 4685 H 454.688 -3.01009 2.9491 0
M  V30 4686 H 453.363 -2.69306 1.796 0
M  V30 4687 H 452.27 -1.17904 3.55034 0
M  V30 4688 H 453.603 -1.56992 4.66491 0
M  V30 4689 N 455.255 -1.55392 -0.262866 0
M  V30 4690 C 456.504 -1.75679 -0.990943 0
M  V30 4691 C 456.817 -0.57097 -1.87081 0
M  V30 4692 O 458.023 -0.656486 -2.63444 0
M  V30 4693 C 456.479 -3.10964 -1.81188 0
M  V30 4694 C 456.087 -4.37146 -0.980188 0
M  V30 4695 C 457.831 -3.40597 -2.53365 0
M  V30 4696 C 455.738 -5.63466 -1.7961 0
M  V30 4697 H 454.668 -0.654868 -0.373716 0
M  V30 4698 H 457.319 -1.81841 -0.246203 0
M  V30 4699 H 455.701 -2.98867 -2.59797 0
M  V30 4700 H 456.875 -4.60187 -0.237558 0
M  V30 4701 H 455.19 -4.14731 -0.372497 0
M  V30 4702 H 457.787 -4.32186 -3.14833 0
M  V30 4703 H 458.13 -2.6119 -3.24169 0
M  V30 4704 H 458.663 -3.53838 -1.81779 0
M  V30 4705 H 455.402 -6.4565 -1.13209 0
M  V30 4706 H 454.922 -5.44552 -2.51443 0
M  V30 4707 H 456.601 -6.02139 -2.36723 0
M  V30 4708 N 456.733 0.527833 -1.48498 0
M  V30 4709 C 457.98 1.28354 -1.56625 0
M  V30 4710 C 458.308 1.93 -0.241096 0
M  V30 4711 O 457.563 1.79967 0.768798 0
M  V30 4712 C 457.862 2.39275 -2.65485 0
M  V30 4713 C 457.528 1.92268 -4.07853 0
M  V30 4714 C 456.19 1.79166 -4.46602 0
M  V30 4715 C 458.542 1.56771 -4.97064 0
M  V30 4716 C 455.87 1.28905 -5.72364 0
M  V30 4717 C 458.222 1.07972 -6.23318 0
M  V30 4718 C 456.886 0.934887 -6.60921 0
M  V30 4719 H 456.156 0.469682 -0.573131 0
M  V30 4720 H 458.803 0.588781 -1.82224 0
M  V30 4721 H 457.108 3.1443 -2.33754 0
M  V30 4722 H 458.805 2.974 -2.68988 0
M  V30 4723 H 455.395 2.03417 -3.77252 0
M  V30 4724 H 459.579 1.65753 -4.67803 0
M  V30 4725 H 454.835 1.16381 -6.00221 0
M  V30 4726 H 459.009 0.795775 -6.91838 0
M  V30 4727 H 456.636 0.543231 -7.58257 0
M  V30 4728 N 458.211 1.37122 0.776871 0
M  V30 4729 C 459.627 1.1781 1.07671 0
M  V30 4730 C 459.827 0.0107454 2.01497 0
M  V30 4731 O 458.883 -0.650756 2.4397 0
M  V30 4732 C 460.196 2.49451 1.67913 0
M  V30 4733 C 461.744 2.55927 1.80195 0
M  V30 4734 C 462.219 3.87686 2.43851 0
M  V30 4735 N 463.71 3.891 2.51307 0
M  V30 4736 C 464.445 4.87797 3.014 0
M  V30 4737 N 463.941 5.96888 3.51705 0
M  V30 4738 N 465.734 4.75205 3.00227 0
M  V30 4739 H 457.885 2.11843 0.153778 0
M  V30 4740 H 460.148 0.938927 0.130844 0
M  V30 4741 H 459.854 3.35207 1.06439 0
M  V30 4742 H 459.728 2.66169 2.67271 0
M  V30 4743 H 462.115 1.70582 2.40803 0
M  V30 4744 H 462.196 2.43097 0.796069 0
M  V30 4745 H 461.84 4.73444 1.83884 0
M  V30 4746 H 461.77 3.97817 3.45035 0
M  V30 4747 H 464.261 3.10293 2.157 0
M  V30 4748 H 464.574 6.68155 3.88316 0
M  V30 4749 H 462.919 6.0054 3.49824 0
M  V30 4750 H 466.11 3.89103 2.60224 0
M  V30 4751 H 466.283 5.52279 3.38957 0
M  V30 4752 N 459.689 -1.00246 1.21608 0
M  V30 4753 C 460.639 -2.07492 0.945051 0
M  V30 4754 C 461.623 -1.60585 -0.100675 0
M  V30 4755 O 462.815 -1.76667 0.10859 0
M  V30 4756 C 459.944 -3.39425 0.514342 0
M  V30 4757 C 459.03 -3.92993 1.59428 0
M  V30 4758 N 459.421 -4.19898 2.81991 0
M  V30 4759 C 457.719 -4.21297 1.46374 0
M  V30 4760 C 458.42 -4.63297 3.51754 0
M  V30 4761 N 457.396 -4.66421 2.79199 0
M  V30 4762 H 461.198 -2.26222 1.87619 0
M  V30 4763 H 458.712 -1.18339 1.11219 0
M  V30 4764 H 460.709 -4.15808 0.301527 0
M  V30 4765 H 459.369 -3.22101 -0.410008 0
M  V30 4766 H 460.38 -4.08377 3.1851 0
M  V30 4767 H 457.057 -4.13095 0.604863 0
M  V30 4768 H 458.447 -4.92816 4.56708 0
M  V30 4769 N 461.167 -1.02423 -1.1978 0
M  V30 4770 C 462.416 -0.713265 -1.88667 0
M  V30 4771 C 462.729 0.7609 -1.80193 0
M  V30 4772 O 463.935 1.18473 -2.44288 0
M  V30 4773 C 462.391 -1.22545 -3.38394 0
M  V30 4774 C 461.999 -2.72706 -3.55437 0
M  V30 4775 C 463.743 -0.990257 -4.12788 0
M  V30 4776 C 461.65 -3.17367 -4.99031 0
M  V30 4777 H 460.58 -0.263105 -0.706606 0
M  V30 4778 H 463.231 -1.23792 -1.35454 0
M  V30 4779 H 461.613 -0.628732 -3.90977 0
M  V30 4780 H 462.787 -3.37993 -3.13205 0
M  V30 4781 H 461.102 -2.94453 -2.94425 0
M  V30 4782 H 463.699 -1.29926 -5.18675 0
M  V30 4783 H 464.042 0.0730761 -4.16236 0
M  V30 4784 H 464.575 -1.55074 -3.66329 0
M  V30 4785 H 461.314 -4.23009 -5.00743 0
M  V30 4786 H 460.834 -2.56805 -5.42044 0
M  V30 4787 H 462.513 -3.10441 -5.67658 0
M  V30 4788 N 462.645 1.35699 -0.801477 0
M  V30 4789 C 463.575 2.32436 -0.222658 0
M  V30 4790 C 464.556 1.5723 0.649057 0
M  V30 4791 O 465.741 1.85324 0.580387 0
M  V30 4792 C 462.871 3.41469 0.633719 0
M  V30 4793 C 461.825 4.27774 -0.139083 0
M  V30 4794 C 461.151 5.28082 0.838666 0
M  V30 4795 C 462.451 5.04946 -1.33517 0
M  V30 4796 H 464.145 2.81094 -1.03086 0
M  V30 4797 H 461.691 1.35146 -0.497155 0
M  V30 4798 H 463.644 4.08143 1.04868 0
M  V30 4799 H 462.368 2.91408 1.47475 0
M  V30 4800 H 461.027 3.62673 -0.535156 0
M  V30 4801 H 460.675 4.7429 1.67506 0
M  V30 4802 H 460.375 5.86695 0.32594 0
M  V30 4803 H 461.899 5.97628 1.25194 0
M  V30 4804 H 463.313 5.64593 -0.995349 0
M  V30 4805 H 461.71 5.7303 -1.78202 0
M  V30 4806 H 462.78 4.35886 -2.12442 0
M  V30 4807 N 464.123 0.554532 1.47522 0
M  V30 4808 C 465.055 -0.232106 2.28022 0
M  V30 4809 C 466.068 -0.881865 1.36847 0
M  V30 4810 O 467.257 -0.756168 1.61692 0
M  V30 4811 C 464.357 -1.34604 3.11022 0
M  V30 4812 C 463.53 -0.793582 4.30141 0
M  V30 4813 C 462.589 -1.79168 4.94758 0
M  V30 4814 O 461.615 -1.33886 5.5323 0
M  V30 4815 N 462.817 -3.12495 4.89211 0
M  V30 4816 H 465.582 0.458407 2.96173 0
M  V30 4817 H 463.143 0.390433 1.57122 0
M  V30 4818 H 465.135 -2.01243 3.51118 0
M  V30 4819 H 463.705 -1.93983 2.45131 0
M  V30 4820 H 462.925 0.0495025 3.94169 0
M  V30 4821 H 464.213 -0.403776 5.07195 0
M  V30 4822 H 463.611 -3.51931 4.42901 0
M  V30 4823 H 462.168 -3.74698 5.33333 0
M  V30 4824 N 465.601 -1.54893 0.290851 0
M  V30 4825 C 467.017 -1.59476 -0.0628432 0
M  V30 4826 C 467.217 -1.30795 -1.5328 0
M  V30 4827 O 466.273 -1.07644 -2.28406 0
M  V30 4828 C 467.586 -2.98928 0.325962 0
M  V30 4829 C 469.134 -3.11799 0.273882 0
M  V30 4830 C 469.609 -4.53544 0.637359 0
M  V30 4831 N 471.1 -4.59433 0.589507 0
M  V30 4832 C 471.835 -5.67164 0.84335 0
M  V30 4833 N 471.331 -6.82975 1.16263 0
M  V30 4834 N 473.124 -5.56786 0.771091 0
M  V30 4835 H 465.275 -1.71798 1.24896 0
M  V30 4836 H 467.538 -0.801879 0.505663 0
M  V30 4837 H 467.244 -3.24805 1.34887 0
M  V30 4838 H 467.118 -3.75793 -0.325441 0
M  V30 4839 H 469.505 -2.85677 -0.739765 0
M  V30 4840 H 469.586 -2.37112 0.959766 0
M  V30 4841 H 469.23 -4.80394 1.64877 0
M  V30 4842 H 469.16 -5.26553 -0.0704866 0
M  V30 4843 H 471.651 -3.76245 0.353252 0
M  V30 4844 H 471.964 -7.61048 1.34257 0
M  V30 4845 H 470.309 -6.84552 1.20057 0
M  V30 4846 H 473.5 -4.65187 0.521383 0
M  V30 4847 H 473.673 -6.40664 0.972295 0
M  V30 4848 N 467.08 -0.0183926 -1.57589 0
M  V30 4849 C 467.99 0.982943 -2.13015 0
M  V30 4850 C 469.006 1.36443 -1.07979 0
M  V30 4851 O 470.182 1.44802 -1.3998 0
M  V30 4852 C 467.247 2.25024 -2.63752 0
M  V30 4853 C 466.308 1.93018 -3.83461 0
M  V30 4854 C 465.541 3.13706 -4.31769 0
M  V30 4855 O 465.764 4.2601 -3.79305 0
M  V30 4856 O 464.698 2.96629 -5.23732 0
M  V30 4857 H 468.524 0.541709 -2.9883 0
M  V30 4858 H 466.109 0.201565 -1.48034 0
M  V30 4859 H 467.991 2.99441 -2.96502 0
M  V30 4860 H 466.666 2.68349 -1.81026 0
M  V30 4861 H 465.573 1.16019 -3.55655 0
M  V30 4862 H 466.906 1.54516 -4.67317 0
M  V30 4863 N 468.558 1.5553 0.254621 0
M  V30 4864 C 469.805 1.77 0.983736 0
M  V30 4865 C 470.133 0.58133 1.85609 0
M  V30 4866 O 469.388 -0.435621 1.9079 0
M  V30 4867 C 469.687 3.03891 1.88109 0
M  V30 4868 C 469.353 4.35597 1.16472 0
M  V30 4869 C 468.015 4.7139 0.966714 0
M  V30 4870 C 470.367 5.1705 0.656387 0
M  V30 4871 C 467.695 5.86176 0.247942 0
M  V30 4872 C 470.047 6.32581 -0.0488807 0
M  V30 4873 C 468.711 6.67 -0.258438 0
M  V30 4874 H 467.981 0.647688 0.359974 0
M  V30 4875 H 470.628 1.89802 0.254463 0
M  V30 4876 H 468.933 2.86068 2.67717 0
M  V30 4877 H 470.63 3.17701 2.44677 0
M  V30 4878 H 467.22 4.07475 1.32899 0
M  V30 4879 H 471.404 4.8986 0.796933 0
M  V30 4880 H 466.66 6.11354 0.075035 0
M  V30 4881 H 470.834 6.94942 -0.450444 0
M  V30 4882 H 468.461 7.55793 -0.817358 0
M  V30 4883 N 470.036 -0.519951 1.48776 0
M  V30 4884 C 471.261 -1.30447 1.6124 0
M  V30 4885 C 471.686 -1.86055 0.276591 0
M  V30 4886 O 471.044 -1.64915 -0.753183 0
M  V30 4887 C 471.092 -2.42406 2.66967 0
M  V30 4888 O 470.196 -3.45728 2.24824 0
M  V30 4889 H 469.537 -0.385924 0.540332 0
M  V30 4890 H 472.067 -0.624572 1.94834 0
M  V30 4891 H 472.077 -2.88447 2.88552 0
M  V30 4892 H 470.752 -2.01294 3.63941 0
M  V30 4893 H 469.329 -3.05737 2.13494 0
M  V30 4894 N 471.514 -1.37532 -0.769588 0
M  V30 4895 C 472.762 -1.32597 -1.5252 0
M  V30 4896 C 473.083 0.0884294 -1.94799 0
M  V30 4897 O 472.353 1.03289 -1.66458 0
M  V30 4898 H 470.933 -0.487846 -0.565699 0
M  V30 4899 H 473.595 -1.72044 -0.915806 0
M  V30 4900 H 472.691 -1.96643 -2.42359 0
M  V30 4901 N 472.992 0.995999 -1.22138 0
M  V30 4902 C 473.922 2.10387 -1.01289 0
M  V30 4903 C 474.903 1.69975 0.0651454 0
M  V30 4904 O 476.088 1.9396 -0.0964628 0
M  V30 4905 C 473.218 3.42312 -0.586517 0
M  V30 4906 C 472.172 3.96558 -1.61014 0
M  V30 4907 C 471.498 5.24494 -1.0397 0
M  V30 4908 C 472.798 4.27595 -2.99933 0
M  V30 4909 H 474.492 2.28086 -1.93951 0
M  V30 4910 H 472.038 1.09607 -0.933928 0
M  V30 4911 H 473.991 4.19223 -0.427793 0
M  V30 4912 H 472.715 3.24431 0.375761 0
M  V30 4913 H 471.374 3.21776 -1.75658 0
M  V30 4914 H 471.022 5.02953 -0.0688703 0
M  V30 4915 H 470.722 5.61755 -1.72352 0
M  V30 4916 H 472.246 6.04042 -0.892494 0
M  V30 4917 H 473.66 4.95315 -2.8868 0
M  V30 4918 H 472.057 4.76021 -3.6541 0
M  V30 4919 H 473.127 3.35498 -3.50099 0
M  V30 4920 N 474.47 1.03057 1.19235 0
M  V30 4921 C 475.695 0.74757 1.93458 0
M  V30 4922 C 476.12 -0.687648 1.7508 0
M  V30 4923 O 475.478 -1.47499 1.05422 0
M  V30 4924 C 475.526 1.10604 3.43219 0
M  V30 4925 O 474.63 0.225671 4.11782 0
M  V30 4926 H 473.971 0.276047 0.603899 0
M  V30 4927 H 476.501 1.3777 1.51263 0
M  V30 4928 H 476.511 1.06366 3.93891 0
M  V30 4929 H 475.186 2.15165 3.55917 0
M  V30 4930 H 473.763 0.326795 3.71465 0
M  V30 4931 N 475.948 -1.35272 0.808662 0
M  V30 4932 C 476.898 -2.27181 0.193124 0
M  V30 4933 C 477.882 -1.47871 -0.634265 0
M  V30 4934 O 479.074 -1.70048 -0.491182 0
M  V30 4935 C 476.203 -3.36979 -0.655751 0
M  V30 4936 C 475.289 -4.23712 0.181481 0
M  V30 4937 N 475.68 -4.90225 1.24551 0
M  V30 4938 C 473.978 -4.45985 -0.0365493 0
M  V30 4939 C 474.679 -5.54537 1.75682 0
M  V30 4940 N 473.655 -5.33107 1.06294 0
M  V30 4941 H 477.457 -2.76101 1.00724 0
M  V30 4942 H 474.971 -1.48823 0.650029 0
M  V30 4943 H 476.968 -4.01774 -1.11279 0
M  V30 4944 H 475.628 -2.89611 -1.46819 0
M  V30 4945 H 476.639 -4.91641 1.62818 0
M  V30 4946 H 473.316 -4.09409 -0.817964 0
M  V30 4947 H 474.706 -6.17597 2.64621 0
M  V30 4948 N 477.426 -0.562348 -1.47226 0
M  V30 4949 C 478.356 0.170627 -2.32876 0
M  V30 4950 C 479.337 0.903748 -1.44106 0
M  V30 4951 O 480.522 0.883206 -1.72954 0
M  V30 4952 C 477.652 1.19786 -3.25989 0
M  V30 4953 C 476.606 0.580875 -4.2404 0
M  V30 4954 C 475.932 1.71311 -5.06514 0
M  V30 4955 C 477.232 -0.468714 -5.20193 0
M  V30 4956 H 478.926 -0.544441 -2.94408 0
M  V30 4957 H 476.472 -0.263271 -1.41573 0
M  V30 4958 H 478.425 1.71884 -3.84752 0
M  V30 4959 H 477.149 1.94294 -2.62521 0
M  V30 4960 H 475.808 0.0811538 -3.6651 0
M  V30 4961 H 475.456 2.44736 -4.39447 0
M  V30 4962 H 475.156 1.30604 -5.72902 0
M  V30 4963 H 476.68 2.23725 -5.68137 0
M  V30 4964 H 478.094 -0.0336028 -5.7329 0
M  V30 4965 H 476.491 -0.794957 -5.94811 0
M  V30 4966 H 477.561 -1.36269 -4.65359 0
M  V30 4967 N 478.904 1.54736 -0.299062 0
M  V30 4968 C 480.129 2.04975 0.316254 0
M  V30 4969 C 480.554 1.17501 1.46885 0
M  V30 4970 O 479.912 0.178678 1.80417 0
M  V30 4971 C 479.96 3.52672 0.751997 0
M  V30 4972 O 479.064 3.68226 1.85697 0
M  V30 4973 H 478.405 0.661126 0.0617175 0
M  V30 4974 H 480.935 1.99805 -0.440341 0
M  V30 4975 H 480.945 3.94488 1.04133 0
M  V30 4976 H 479.62 4.158 -0.0911482 0
M  V30 4977 H 478.197 3.38316 1.56834 0
M  V30 4978 N 480.382 0.0267497 1.57577 0
M  V30 4979 C 481.798 -0.32962 1.56159 0
M  V30 4980 C 481.998 -1.73059 1.03213 0
M  V30 4981 O 481.054 -2.43233 0.677804 0
M  V30 4982 C 482.367 -0.18039 3.00158 0
M  V30 4983 C 483.915 -0.253334 3.11973 0
M  V30 4984 C 484.39 -0.132921 4.57807 0
M  V30 4985 N 485.881 -0.189979 4.6281 0
M  V30 4986 C 486.616 -0.120554 5.73273 0
M  V30 4987 N 486.112 -0.000180315 6.928 0
M  V30 4988 N 487.905 -0.174369 5.61829 0
M  V30 4989 H 480.056 0.942896 1.90324 0
M  V30 4990 H 482.319 0.3639 0.875375 0
M  V30 4991 H 482.025 0.784576 3.42837 0
M  V30 4992 H 481.899 -0.951565 3.65 0
M  V30 4993 H 484.286 -1.20876 2.69208 0
M  V30 4994 H 484.367 0.548177 2.49857 0
M  V30 4995 H 484.011 0.819073 5.01252 0
M  V30 4996 H 483.941 -0.953264 5.179 0
M  V30 4997 H 486.432 -0.283257 3.76837 0
M  V30 4998 H 486.745 0.0461666 7.72786 0
M  V30 4999 H 485.09 0.034569 6.94991 0
M  V30 5000 H 488.281 -0.266794 4.67339 0
M  V30 5001 H 488.454 -0.116802 6.47895 0
M  V30 5002 N 481.861 -1.55662 -0.24637 0
M  V30 5003 C 482.808 -1.90361 -1.30504 0
M  V30 5004 C 483.778 -0.757905 -1.47801 0
M  V30 5005 O 484.963 -1.01161 -1.61775 0
M  V30 5006 C 482.103 -2.2042 -2.65535 0
M  V30 5007 C 481.216 -3.47799 -2.56242 0
M  V30 5008 C 480.351 -3.67426 -3.8363 0
M  V30 5009 C 479.39 -4.88403 -3.68956 0
M  V30 5010 N 478.527 -5.04548 -4.88237 0
M  V30 5011 H 483.367 -2.80645 -1.00213 0
M  V30 5012 H 480.904 -1.38924 -0.483577 0
M  V30 5013 H 482.862 -2.35853 -3.44135 0
M  V30 5014 H 481.492 -1.3334 -2.93973 0
M  V30 5015 H 480.544 -3.40694 -1.69208 0
M  V30 5016 H 481.856 -4.36544 -2.4131 0
M  V30 5017 H 481.01 -3.82821 -4.70673 0
M  V30 5018 H 479.749 -2.76914 -4.01459 0
M  V30 5019 H 478.754 -4.72984 -2.80296 0
M  V30 5020 H 479.979 -5.80375 -3.52621 0
M  V30 5021 H 477.925 -4.16974 -5.06427 0
M  V30 5022 H 477.842 -5.87384 -4.75937 0
M  V30 5023 H 479.11 -5.24355 -5.76777 0
M  V30 5024 N 483.339 0.512053 -1.4905 0
M  V30 5025 C 484.586 1.26686 -1.57978 0
M  V30 5026 C 484.914 1.92733 -0.261553 0
M  V30 5027 O 484.169 1.80772 0.749667 0
M  V30 5028 C 484.468 2.36446 -2.68008 0
M  V30 5029 C 484.134 1.87932 -4.09869 0
M  V30 5030 C 482.796 1.74419 -4.48477 0
M  V30 5031 C 485.148 1.5149 -4.98698 0
M  V30 5032 C 482.476 1.22827 -5.73699 0
M  V30 5033 C 484.828 1.01355 -6.24428 0
M  V30 5034 C 483.492 0.864735 -6.61875 0
M  V30 5035 H 482.762 0.463577 -0.578081 0
M  V30 5036 H 485.409 0.569421 -1.82838 0
M  V30 5037 H 483.714 3.11933 -2.37076 0
M  V30 5038 H 485.411 2.9453 -2.72127 0
M  V30 5039 H 482.001 1.99405 -3.79389 0
M  V30 5040 H 486.185 1.60782 -4.69535 0
M  V30 5041 H 481.441 1.10008 -6.01422 0
M  V30 5042 H 485.615 0.722351 -6.92644 0
M  V30 5043 H 483.242 0.462777 -7.5879 0
M  V30 5044 N 484.817 1.37938 0.762283 0
M  V30 5045 C 486.045 1.36883 1.55147 0
M  V30 5046 C 486.46 -0.0435348 1.8875 0
M  V30 5047 O 485.817 -1.00786 1.52146 0
M  V30 5048 C 485.868 2.21624 2.85596 0
M  V30 5049 O 485.589 3.57358 2.5343 0
M  V30 5050 C 487.09 2.28653 3.7978 0
M  V30 5051 H 484.31 0.468521 0.480343 0
M  V30 5052 H 486.854 1.81404 0.944079 0
M  V30 5053 H 485.009 1.80588 3.42734 0
M  V30 5054 H 485.423 4.01883 3.37032 0
M  V30 5055 H 486.897 2.9225 4.68288 0
M  V30 5056 H 487.374 1.29767 4.19592 0
M  V30 5057 H 487.98 2.70043 3.28568 0
M  V30 5058 N 486.295 -0.989507 1.22664 0
M  V30 5059 C 487.205 -2.11449 1.01619 0
M  V30 5060 C 488.221 -1.73962 -0.036545 0
M  V30 5061 O 489.397 -2.00788 0.156924 0
M  V30 5062 C 486.462 -3.41465 0.600204 0
M  V30 5063 C 485.523 -3.93033 1.72695 0
M  V30 5064 C 484.756 -5.16844 1.33071 0
M  V30 5065 O 484.979 -5.7001 0.210975 0
M  V30 5066 O 483.913 -5.6225 2.14845 0
M  V30 5067 H 487.739 -2.32088 1.9588 0
M  V30 5068 H 485.324 -1.09823 1.01289 0
M  V30 5069 H 487.206 -4.19695 0.37873 0
M  V30 5070 H 485.881 -3.22178 -0.313511 0
M  V30 5071 H 484.788 -3.15961 2.00298 0
M  V30 5072 H 486.121 -4.16758 2.61865 0
M  V30 5073 N 487.773 -1.03688 -1.18687 0
M  V30 5074 C 489.019 -0.74888 -1.89112 0
M  V30 5075 C 489.374 0.715345 -1.78607 0
M  V30 5076 O 488.667 1.51498 -1.17299 0
M  V30 5077 C 488.861 -1.14477 -3.3857 0
M  V30 5078 C 488.69 -2.64594 -3.63621 0
M  V30 5079 C 487.46 -3.31685 -3.812 0
M  V30 5080 C 489.658 -3.62811 -3.64517 0
M  V30 5081 N 487.64 -4.70822 -3.93955 0
M  V30 5082 C 489.011 -4.87603 -3.8294 0
M  V30 5083 C 491.066 -3.56495 -3.47585 0
M  V30 5084 C 489.769 -6.0684 -3.86184 0
M  V30 5085 C 491.795 -4.75155 -3.52111 0
M  V30 5086 C 491.157 -5.98765 -3.71026 0
M  V30 5087 H 487.256 -0.32603 -0.710794 0
M  V30 5088 H 489.84 -1.3258 -1.42586 0
M  V30 5089 H 488.011 -0.595974 -3.838 0
M  V30 5090 H 489.743 -0.808187 -3.96548 0
M  V30 5091 H 486.498 -2.82091 -3.80423 0
M  V30 5092 H 486.922 -5.43122 -4.04163 0
M  V30 5093 H 491.564 -2.61907 -3.31911 0
M  V30 5094 H 489.282 -7.01788 -4.00648 0
M  V30 5095 H 492.868 -4.71905 -3.40289 0
M  V30 5096 H 491.748 -6.89047 -3.74412 0
M  V30 5097 N 489.251 1.34841 -0.815825 0
M  V30 5098 C 490.491 2.00321 -0.406297 0
M  V30 5099 C 490.855 1.63293 1.00992 0
M  V30 5100 O 492.056 2.21563 1.52195 0
M  V30 5101 C 490.327 3.52421 -0.594469 0
M  V30 5102 S 491.886 4.37926 -0.276735 0
M  V30 5103 H 488.704 0.694155 -0.153848 0
M  V30 5104 H 491.306 1.64263 -1.06009 0
M  V30 5105 H 490.01 3.76858 -1.625 0
M  V30 5106 H 489.541 3.9333 0.0743157 0
M  V30 5107 H 491.556 4.87743 0.912215 0
M  V30 5108 N 490.729 0.570148 1.46925 0
M  V30 5109 C 491.959 0.0561151 2.06524 0
M  V30 5110 C 492.367 -1.24874 1.42137 0
M  V30 5111 O 491.71 -1.76292 0.516417 0
M  V30 5112 C 491.772 -0.197035 3.5896 0
M  V30 5113 C 491.436 1.02033 4.45464 0
M  V30 5114 C 492.433 1.92921 4.82781 0
M  V30 5115 C 490.118 1.23864 4.86788 0
M  V30 5116 C 492.112 3.03999 5.60235 0
M  V30 5117 C 489.799 2.35249 5.64004 0
M  V30 5118 C 490.797 3.25146 6.0064 0
M  V30 5119 O 490.485 4.34598 6.76299 0
M  V30 5120 H 490.217 0.0487409 0.674241 0
M  V30 5121 H 492.771 0.786915 1.89728 0
M  V30 5122 H 491.001 -0.982299 3.74016 0
M  V30 5123 H 492.69 -0.658032 4.00531 0
M  V30 5124 H 493.456 1.77265 4.51444 0
M  V30 5125 H 489.335 0.54805 4.57731 0
M  V30 5126 H 492.879 3.74192 5.8875 0
M  V30 5127 H 488.776 2.50873 5.94755 0
M  V30 5128 H 489.544 4.32808 6.94708 0
M  V30 5129 N 492.207 -1.54576 0.307264 0
M  V30 5130 C 493.455 -1.99867 -0.299574 0
M  V30 5131 C 493.776 -1.19714 -1.53927 0
M  V30 5132 O 493.046 -0.29472 -1.9367 0
M  V30 5133 H 491.626 -0.738299 -0.113683 0
M  V30 5134 H 494.288 -1.9032 0.420042 0
M  V30 5135 H 493.384 -3.06901 -0.567283 0
M  V30 5136 N 493.685 -0.035106 -1.57561 0
M  V30 5137 C 495.096 0.502885 -1.798 0
M  V30 5138 C 495.447 1.71892 -0.945921 0
M  V30 5139 O 494.572 2.15822 -0.157991 0
M  V30 5140 C 495.167 0.919097 -3.26095 0
M  V30 5141 C 493.726 1.40216 -3.49308 0
M  V30 5142 C 492.873 0.369709 -2.74824 0
M  V30 5143 H 495.824 -0.261102 -1.56537 0
M  V30 5144 H 495.845 1.78308 -3.36135 0
M  V30 5145 H 495.357 0.0338526 -3.88085 0
M  V30 5146 H 493.458 2.30714 -2.92578 0
M  V30 5147 H 493.571 1.40541 -4.58023 0
M  V30 5148 H 491.935 0.839113 -2.40481 0
M  V30 5149 H 492.718 -0.507173 -3.39533 0
M  V30 5150 N 495.163 1.55791 0.238111 0
M  V30 5151 C 496.409 1.78297 0.966337 0
M  V30 5152 C 496.742 0.601903 1.84637 0
M  V30 5153 O 496.017 -0.399499 1.90353 0
M  V30 5154 C 496.3 3.10758 1.81939 0
M  V30 5155 C 496.153 4.39283 0.966958 0
M  V30 5156 C 497.472 3.39519 2.80027 0
M  V30 5157 H 494.591 0.648654 0.349882 0
M  V30 5158 H 497.233 1.88525 0.236253 0
M  V30 5159 H 495.383 3.02168 2.44185 0
M  V30 5160 H 497.055 4.59873 0.362514 0
M  V30 5161 H 495.298 4.32948 0.271669 0
M  V30 5162 H 495.969 5.28368 1.59784 0
M  V30 5163 H 498.445 3.48128 2.27917 0
M  V30 5164 H 497.321 4.33402 3.36829 0
M  V30 5165 H 497.582 2.60864 3.56934 0
M  V30 5166 N 496.642 -0.504142 1.49319 0
M  V30 5167 C 498.058 -0.835039 1.36012 0
M  V30 5168 C 498.258 -1.97674 0.390808 0
M  V30 5169 O 497.314 -2.51867 -0.178655 0
M  V30 5170 C 498.627 -1.17821 2.76656 0
M  V30 5171 C 500.175 -1.2866 2.85334 0
M  V30 5172 C 500.65 -1.66307 4.26739 0
M  V30 5173 N 502.141 -1.73362 4.29534 0
M  V30 5174 C 502.876 -2.0393 5.35911 0
M  V30 5175 N 502.372 -2.32744 6.52535 0
M  V30 5176 N 504.165 -2.05155 5.23324 0
M  V30 5177 H 496.316 0.248764 2.10938 0
M  V30 5178 H 498.579 0.0486962 0.946748 0
M  V30 5179 H 498.285 -0.412682 3.4927 0
M  V30 5180 H 498.159 -2.12239 3.11825 0
M  V30 5181 H 500.546 -2.04285 2.1296 0
M  V30 5182 H 500.627 -0.323004 2.53752 0
M  V30 5183 H 500.271 -0.91234 4.99639 0
M  V30 5184 H 500.201 -2.63761 4.55782 0
M  V30 5185 H 502.692 -1.53268 3.45424 0
M  V30 5186 H 503.005 -2.55248 7.2943 0
M  V30 5187 H 501.35 -2.30207 6.55767 0
M  V30 5188 H 504.541 -1.82119 4.3122 0
M  V30 5189 H 504.714 -2.28644 6.06322 0
M  V30 5190 N 498.12 -1.38341 -0.754957 0
M  V30 5191 C 499.366 -1.34672 -1.51628 0
M  V30 5192 C 499.699 0.0636036 -1.94096 0
M  V30 5193 O 498.974 1.0245 -1.6533 0
M  V30 5194 C 499.257 -2.30116 -2.76981 0
M  V30 5195 C 499.11 -3.80003 -2.4066 0
M  V30 5196 C 500.429 -2.23715 -3.78998 0
M  V30 5197 H 497.548 -0.490517 -0.550056 0
M  V30 5198 H 500.19 -1.69178 -0.864807 0
M  V30 5199 H 498.34 -2.00821 -3.3257 0
M  V30 5200 H 500.012 -4.19966 -1.90856 0
M  V30 5201 H 498.255 -3.97751 -1.73137 0
M  V30 5202 H 498.926 -4.42244 -3.30339 0
M  V30 5203 H 501.402 -2.49574 -3.32945 0
M  V30 5204 H 500.278 -2.9261 -4.64403 0
M  V30 5205 H 500.539 -1.23554 -4.24484 0
M  V30 5206 N 499.598 0.982988 -1.23187 0
M  V30 5207 C 500.823 1.76455 -1.08988 0
M  V30 5208 C 501.248 1.84726 0.354691 0
M  V30 5209 O 500.606 1.30699 1.25649 0
M  V30 5210 C 500.654 3.17094 -1.71708 0
M  V30 5211 O 499.758 4.00648 -0.977477 0
M  V30 5212 H 499.099 0.542988 -0.382177 0
M  V30 5213 H 501.629 1.23413 -1.63188 0
M  V30 5214 H 501.639 3.67684 -1.76841 0
M  V30 5215 H 500.314 3.10389 -2.76823 0
M  V30 5216 H 498.891 3.59161 -1.0029 0
M  V30 5217 N 501.076 1.04316 1.18135 0
M  V30 5218 C 502.006 0.657299 2.24058 0
M  V30 5219 C 502.987 -0.340678 1.66654 0
M  V30 5220 O 504.172 -0.220223 1.92947 0
M  V30 5221 C 501.302 0.0220715 3.47293 0
M  V30 5222 C 500.256 0.943857 4.17463 0
M  V30 5223 C 499.582 0.172973 5.3442 0
M  V30 5224 C 500.882 2.26409 4.70677 0
M  V30 5225 H 502.576 1.5428 2.56589 0
M  V30 5226 H 500.122 0.743263 1.23335 0
M  V30 5227 H 502.075 -0.259607 4.206 0
M  V30 5228 H 500.799 -0.898323 3.14003 0
M  V30 5229 H 499.458 1.20996 3.46057 0
M  V30 5230 H 499.106 -0.749907 4.97379 0
M  V30 5231 H 498.806 0.787098 5.82304 0
M  V30 5232 H 500.33 -0.101628 6.10515 0
M  V30 5233 H 501.744 2.04294 5.35665 0
M  V30 5234 H 500.141 2.8314 5.29105 0
M  V30 5235 H 501.211 2.90883 3.87962 0
M  V30 5236 N 502.554 -1.34406 0.822964 0
M  V30 5237 C 503.784 -2.02214 0.423424 0
M  V30 5238 C 504.192 -1.62124 -0.975322 0
M  V30 5239 O 503.535 -0.822452 -1.6426 0
M  V30 5240 C 503.597 -3.56721 0.446107 0
M  V30 5241 C 503.261 -4.20136 1.79819 0
M  V30 5242 C 504.258 -4.4065 2.75904 0
M  V30 5243 C 501.943 -4.56906 2.08669 0
M  V30 5244 C 503.937 -4.9706 3.99012 0
M  V30 5245 C 501.624 -5.13026 3.32036 0
M  V30 5246 C 502.622 -5.33047 4.27024 0
M  V30 5247 O 502.31 -5.87979 5.48211 0
M  V30 5248 H 502.042 -0.654748 0.168169 0
M  V30 5249 H 504.596 -1.72659 1.11257 0
M  V30 5250 H 502.826 -3.85537 -0.299734 0
M  V30 5251 H 504.515 -4.05845 0.0666114 0
M  V30 5252 H 505.281 -4.12607 2.54912 0
M  V30 5253 H 501.16 -4.40626 1.35535 0
M  V30 5254 H 504.704 -5.12603 4.73164 0
M  V30 5255 H 500.601 -5.40498 3.52891 0
M  V30 5256 H 501.369 -6.06413 5.49732 0
M  V30 5257 N 504.032 -0.577932 -1.46621 0
M  V30 5258 C 505.309 0.00495287 -1.95599 0
M  V30 5259 C 505.689 1.46428 -1.5206 0
M  V30 5260 O 505.037 2.1517 -0.769046 0
M  V30 5261 C 505.247 -0.162114 -3.48623 0
M  V30 5262 C 506.595 -0.0274623 -4.24591 0
M  V30 5263 O 507.619 -0.0907067 -3.56084 0
M  V30 5264 O 506.478 0.1122 -5.46385 0
M  V30 5265 H 503.572 0.0525057 -0.825332 0
M  V30 5266 H 506.118 -0.645914 -1.56927 0
M  V30 5267 H 504.89 -1.17679 -3.73185 0
M  V30 5268 H 504.513 0.525407 -3.94113 0
M  V30 5269 N 505.51 1.54411 -0.315457 0
M  V30 5270 C 506.44 2.27002 0.547039 0
M  V30 5271 C 507.421 1.27492 1.12605 0
M  V30 5272 O 508.606 1.5629 1.15269 0
M  V30 5273 C 505.736 3.02171 1.71201 0
M  V30 5274 C 504.69 4.0895 1.26268 0
M  V30 5275 C 504.016 4.71915 2.51396 0
M  V30 5276 C 505.316 5.20891 0.383419 0
M  V30 5277 H 507.01 2.99343 -0.0584517 0
M  V30 5278 H 504.556 1.4397 -0.0295527 0
M  V30 5279 H 506.509 3.51681 2.32161 0
M  V30 5280 H 505.233 2.27433 2.34397 0
M  V30 5281 H 503.892 3.60312 0.676062 0
M  V30 5282 H 503.54 3.93801 3.12937 0
M  V30 5283 H 503.24 5.44039 2.22026 0
M  V30 5284 H 504.764 5.24195 3.13133 0
M  V30 5285 H 506.178 5.66206 0.899082 0
M  V30 5286 H 504.575 5.99821 0.182857 0
M  V30 5287 H 505.645 4.81324 -0.587821 0
M  V30 5288 N 506.988 0.0434614 1.5754 0
M  V30 5289 C 507.951 -0.918696 2.09982 0
M  V30 5290 C 508.951 -1.24488 1.01781 0
M  V30 5291 O 510.141 -1.18284 1.27885 0
M  V30 5292 C 507.273 -2.23093 2.57764 0
M  V30 5293 H 508.466 -0.464229 2.96285 0
M  V30 5294 H 506.019 -0.204818 1.54952 0
M  V30 5295 H 506.754 -2.73137 1.74832 0
M  V30 5296 H 506.539 -2.00724 3.36827 0
M  V30 5297 H 508.029 -2.92028 2.98512 0
M  V30 5298 N 508.466 -1.55915 -0.229846 0
M  V30 5299 C 509.691 -1.8296 -0.976743 0
M  V30 5300 C 510.116 -0.622735 -1.77493 0
M  V30 5301 O 509.474 0.428431 -1.76165 0
M  V30 5302 C 509.522 -3.07916 -1.8767 0
M  V30 5303 O 508.626 -2.86028 -2.97088 0
M  V30 5304 H 507.967 -0.603453 -0.277021 0
M  V30 5305 H 510.497 -2.0312 -0.245669 0
M  V30 5306 H 510.507 -3.37802 -2.2881 0
M  V30 5307 H 509.182 -3.95389 -1.28996 0
M  V30 5308 H 507.759 -2.67355 -2.59954 0
M  V30 5309 N 509.944 0.496216 -1.49584 0
M  V30 5310 C 511.19 1.25189 -1.59548 0
M  V30 5311 C 511.523 1.9212 -0.283466 0
M  V30 5312 O 510.798 1.80947 0.713324 0
M  V30 5313 C 511.081 2.31516 -2.75812 0
M  V30 5314 C 510.934 1.69054 -4.16822 0
M  V30 5315 C 512.253 3.3304 -2.87702 0
M  V30 5316 H 509.372 0.45379 -0.580727 0
M  V30 5317 H 512.014 0.549327 -1.81886 0
M  V30 5318 H 510.164 2.91438 -2.56897 0
M  V30 5319 H 511.836 1.12923 -4.47265 0
M  V30 5320 H 510.079 0.994485 -4.22247 0
M  V30 5321 H 510.75 2.462 -4.94054 0
M  V30 5322 H 513.226 2.83114 -3.04936 0
M  V30 5323 H 512.102 4.04794 -3.7072 0
M  V30 5324 H 512.363 3.95655 -1.97255 0
M  V30 5325 N 511.423 1.38739 0.74761 0
M  V30 5326 C 512.7 1.25791 1.49786 0
M  V30 5327 C 513.08 -0.138075 2.10648 0
M  V30 5328 O 512.428 -1.14815 1.9756 0
M  V30 5329 C 512.638 2.37265 2.55942 0
M  V30 5330 C 513.986 2.75978 3.22679 0
M  V30 5331 O 515.01 2.36621 2.6625 0
M  V30 5332 O 513.869 3.43867 4.24756 0
M  V30 5333 H 510.963 0.492251 0.664543 0
M  V30 5334 H 513.509 1.50582 0.782511 0
M  V30 5335 H 512.281 3.30644 2.0926 0
M  V30 5336 H 511.904 2.14071 3.35051 0
M  V30 5337 N 512.901 -0.976442 1.23707 0
M  V30 5338 C 514.126 -1.75875 1.09922 0
M  V30 5339 C 514.551 -1.84911 -0.34489 0
M  V30 5340 O 513.909 -1.31363 -1.24954 0
M  V30 5341 C 513.957 -3.16179 1.73388 0
M  V30 5342 O 513.061 -4.00124 0.99871 0
M  V30 5343 H 512.402 -0.540954 0.385052 0
M  V30 5344 H 514.932 -1.22546 1.6384 0
M  V30 5345 H 514.942 -3.66741 1.78788 0
M  V30 5346 H 513.617 -3.08917 2.78466 0
M  V30 5347 H 512.194 -3.58624 1.02193 0
M  V30 5348 N 514.379 -1.04941 -1.1758 0
M  V30 5349 C 515.619 -0.766996 -1.89464 0
M  V30 5350 C 515.983 0.693123 -1.79053 0
M  V30 5351 O 517.184 1.08953 -2.45729 0
M  V30 5352 C 515.455 -1.23108 -3.35528 0
M  V30 5353 S 517.014 -1.07565 -4.25412 0
M  V30 5354 H 513.832 -0.278616 -0.654136 0
M  V30 5355 H 516.434 -1.34352 -1.4202 0
M  V30 5356 H 515.138 -2.28896 -3.40639 0
M  V30 5357 H 514.669 -0.648724 -3.88014 0
M  V30 5358 H 516.684 0.00169467 -4.962 0
M  V30 5359 N 515.857 1.33968 -0.830081 0
M  V30 5360 C 516.767 2.33164 -0.259207 0
M  V30 5361 C 517.783 1.62951 0.610164 0
M  V30 5362 O 518.959 1.94668 0.516369 0
M  V30 5363 C 516.024 3.42088 0.563598 0
M  V30 5364 C 515.085 4.28037 -0.329014 0
M  V30 5365 C 514.318 5.3176 0.454616 0
M  V30 5366 O 514.541 5.44876 1.6872 0
M  V30 5367 O 513.475 6.01669 -0.166794 0
M  V30 5368 H 517.301 2.83832 -1.08041 0
M  V30 5369 H 514.886 1.37154 -0.59239 0
M  V30 5370 H 516.768 4.08581 1.03147 0
M  V30 5371 H 515.443 2.93651 1.36201 0
M  V30 5372 H 514.35 3.64443 -0.844538 0
M  V30 5373 H 515.683 4.79934 -1.09196 0
M  V30 5374 N 517.335 0.585699 1.46312 0
M  V30 5375 C 518.245 -0.148236 2.34131 0
M  V30 5376 C 519.261 -0.882972 1.49932 0
M  V30 5377 O 520.437 -0.845484 1.82794 0
M  V30 5378 C 517.502 -1.14714 3.27172 0
M  V30 5379 C 516.563 -0.416746 4.27272 0
M  V30 5380 C 515.796 -1.36806 5.15868 0
M  V30 5381 O 516.019 -2.60475 5.07454 0
M  V30 5382 O 514.953 -0.877018 5.95476 0
M  V30 5383 H 518.779 0.572882 2.98248 0
M  V30 5384 H 516.364 0.346082 1.45336 0
M  V30 5385 H 518.246 -1.72303 3.84564 0
M  V30 5386 H 516.921 -1.84967 2.65648 0
M  V30 5387 H 515.828 0.201061 3.73559 0
M  V30 5388 H 517.161 0.244872 4.9159 0
M  V30 5389 N 518.813 -1.54241 0.323641 0
M  V30 5390 C 519.761 -2.25813 -0.557804 0
M  V30 5391 C 520.755 -1.27225 -1.11849 0
M  V30 5392 O 521.961 -1.45001 -1.06652 0
M  V30 5393 H 518.336 -0.72532 -0.198532 0
M  V30 5394 H 520.307 -2.98322 0.0681112 0
M  V30 5395 C 519.056 -3.02913 -1.70701 0
M  V30 5396 H 518.379 -3.78593 -1.28482 0
M  V30 5397 H 519.819 -3.56238 -2.29935 0
M  V30 5398 C 518.278 -2.11217 -2.62467 0
M  V30 5399 O 518.808 -1.69508 -3.64184 0
M  V30 5400 N 517.014 -1.76704 -2.30703 0
M  V30 5401 H 516.561 -2.1082 -1.48029 0
M  V30 5402 H 516.519 -1.15631 -2.92364 0
M  V30 5403 N 520.291 -0.0518155 -1.57515 0
M  V30 5404 C 521.516 0.634896 -1.97443 0
M  V30 5405 C 521.941 1.63546 -0.929207 0
M  V30 5406 O 521.299 1.80981 0.107484 0
M  V30 5407 C 521.347 1.29765 -3.36442 0
M  V30 5408 O 520.451 2.41333 -3.34413 0
M  V30 5409 H 519.792 0.164994 -0.643174 0
M  V30 5410 H 522.322 -0.120407 -2.04245 0
M  V30 5411 H 522.332 1.64918 -3.73184 0
M  V30 5412 H 521.007 0.564361 -4.12053 0
M  V30 5413 H 519.584 2.08122 -3.09418 0
M  V30 5414 N 521.769 1.56035 0.221574 0
M  V30 5415 C 523.015 1.79312 0.947372 0
M  V30 5416 C 523.348 0.621453 1.83988 0
M  V30 5417 O 522.623 -0.379287 1.90766 0
M  V30 5418 C 522.906 3.1267 1.78633 0
M  V30 5419 C 522.759 4.40284 0.920312 0
M  V30 5420 C 524.078 3.4247 2.7641 0
M  V30 5421 H 521.197 0.652328 0.342982 0
M  V30 5422 H 523.839 1.88765 0.216244 0
M  V30 5423 H 521.989 3.04741 2.40967 0
M  V30 5424 H 523.661 4.60232 0.313718 0
M  V30 5425 H 521.904 4.33212 0.225734 0
M  V30 5426 H 522.575 5.30033 1.54171 0
M  V30 5427 H 525.051 3.50526 2.24211 0
M  V30 5428 H 523.927 4.3695 3.32213 0
M  V30 5429 H 524.188 2.64635 3.54148 0
M  V30 5430 N 523.247 -0.488276 1.49845 0
M  V30 5431 C 524.177 -1.59675 1.70371 0
M  V30 5432 C 525.158 -1.60878 0.552473 0
M  V30 5433 O 526.343 -1.77417 0.78973 0
M  V30 5434 C 523.473 -2.98098 1.782 0
M  V30 5435 C 522.427 -3.11761 2.93239 0
M  V30 5436 C 521.753 -4.51661 2.86193 0
M  V30 5437 C 523.053 -2.90589 4.33999 0
M  V30 5438 H 524.747 -1.42752 2.63177 0
M  V30 5439 H 522.293 -0.685317 1.26647 0
M  V30 5440 H 524.246 -3.75555 1.91144 0
M  V30 5441 H 522.97 -3.16138 0.820018 0
M  V30 5442 H 521.629 -2.36732 2.79917 0
M  V30 5443 H 521.277 -4.66595 1.87877 0
M  V30 5444 H 520.977 -4.61742 3.63412 0
M  V30 5445 H 522.501 -5.31162 3.01163 0
M  V30 5446 H 523.915 -3.57807 4.47936 0
M  V30 5447 H 522.312 -3.1213 5.12538 0
M  V30 5448 H 523.382 -1.86595 4.4756 0
M  V30 5449 N 524.725 -1.39134 -0.740242 0
M  V30 5450 C 525.635 -1.39697 -1.88473 0
M  V30 5451 C 526.651 -0.292403 -1.71526 0
M  V30 5452 O 527.827 -0.533021 -1.94219 0
M  V30 5453 C 524.892 -1.23382 -3.24003 0
M  V30 5454 C 523.953 -2.43763 -3.53381 0
M  V30 5455 C 523.186 -2.28216 -4.82445 0
M  V30 5456 O 523.409 -1.28288 -5.55786 0
M  V30 5457 O 522.343 -3.1709 -5.11603 0
M  V30 5458 H 526.169 -2.36159 -1.90952 0
M  V30 5459 H 523.754 -1.20194 -0.887346 0
M  V30 5460 H 525.636 -1.16395 -4.05006 0
M  V30 5461 H 524.311 -0.300121 -3.22306 0
M  V30 5462 H 523.218 -2.56325 -2.72485 0
M  V30 5463 H 524.551 -3.35808 -3.59852 0
M  V30 5464 N 526.204 0.969867 -1.24223 0
M  V30 5465 C 527.453 1.70687 -1.07466 0
M  V30 5466 C 527.766 1.91736 0.386861 0
M  V30 5467 O 528.972 2.62986 0.674581 0
M  V30 5468 C 527.428 3.07217 -1.87472 0
M  V30 5469 C 527.036 2.94018 -3.3802 0
M  V30 5470 C 528.78 3.84804 -1.79237 0
M  V30 5471 C 526.687 4.25844 -4.10379 0
M  V30 5472 H 525.617 0.640067 -0.398536 0
M  V30 5473 H 528.268 1.08092 -1.48285 0
M  V30 5474 H 526.65 3.70628 -1.39466 0
M  V30 5475 H 527.824 2.39632 -3.9359 0
M  V30 5476 H 526.139 2.29898 -3.47183 0
M  V30 5477 H 528.736 4.82417 -2.30603 0
M  V30 5478 H 529.079 4.09356 -0.757197 0
M  V30 5479 H 529.612 3.28115 -2.24912 0
M  V30 5480 H 526.351 4.06486 -5.14246 0
M  V30 5481 H 525.871 4.80054 -3.59594 0
M  V30 5482 H 527.55 4.94475 -4.17257 0
M  V30 5483 N 527.682 1.05563 1.17022 0
M  V30 5484 C 528.931 0.763036 1.8671 0
M  V30 5485 C 529.244 -0.712857 1.82147 0
M  V30 5486 O 530.45 -1.11955 2.47343 0
M  V30 5487 C 528.906 1.31474 3.35026 0
M  V30 5488 C 528.514 2.82034 3.48081 0
M  V30 5489 C 530.258 1.09935 4.10018 0
M  V30 5490 C 528.165 3.30486 4.90442 0
M  V30 5491 H 527.095 0.281747 0.699382 0
M  V30 5492 H 529.746 1.2734 1.32124 0
M  V30 5493 H 528.128 0.732171 3.89173 0
M  V30 5494 H 529.302 3.46178 3.04133 0
M  V30 5495 H 527.617 3.02156 2.86515 0
M  V30 5496 H 530.214 1.43632 5.15048 0
M  V30 5497 H 530.557 0.0373072 4.16283 0
M  V30 5498 H 531.09 1.64732 3.62089 0
M  V30 5499 H 527.829 4.36137 4.89352 0
M  V30 5500 H 527.349 2.71086 5.35044 0
M  V30 5501 H 529.028 3.25382 5.59227 0
M  V30 5502 N 529.16 -1.33526 0.837174 0
M  V30 5503 C 530.123 -2.27551 0.274421 0
M  V30 5504 C 531.123 -1.50886 -0.555881 0
M  V30 5505 O 532.313 -1.70227 -0.369918 0
M  V30 5506 C 529.445 -3.35332 -0.613605 0
M  V30 5507 H 530.638 -2.78837 1.10408 0
M  V30 5508 H 528.191 -1.439 0.610126 0
M  V30 5509 H 528.926 -2.89285 -1.46577 0
M  V30 5510 H 528.711 -3.92095 -0.0195341 0
M  V30 5511 H 530.201 -4.05433 -1.00068 0
M  V30 5512 N 530.638 -0.59345 -1.46 0
M  V30 5513 C 531.885 -0.0831523 -2.02329 0
M  V30 5514 C 532.213 1.28093 -1.46364 0
M  V30 5515 O 531.468 1.85526 -0.622793 0
M  V30 5516 C 531.767 0.021178 -3.57394 0
M  V30 5517 C 531.433 -1.27671 -4.32448 0
M  V30 5518 C 530.095 -1.63227 -4.5267 0
M  V30 5519 C 532.447 -2.13511 -4.7546 0
M  V30 5520 C 529.775 -2.84401 -5.1316 0
M  V30 5521 C 532.127 -3.33922 -5.37289 0
M  V30 5522 C 530.791 -3.69747 -5.55737 0
M  V30 5523 H 530.061 -0.0304276 -0.740375 0
M  V30 5524 H 532.708 -0.772239 -1.75239 0
M  V30 5525 H 531.013 0.793454 -3.83682 0
M  V30 5526 H 532.71 0.431942 -3.98667 0
M  V30 5527 H 529.3 -0.989937 -4.17011 0
M  V30 5528 H 533.484 -1.87344 -4.59582 0
M  V30 5529 H 528.74 -3.12282 -5.25633 0
M  V30 5530 H 532.914 -4.00698 -5.69574 0
M  V30 5531 H 530.541 -4.6373 -6.02377 0
M  V30 5532 N 532.116 1.54067 -0.331816 0
M  V30 5533 C 533.066 2.21363 0.546101 0
M  V30 5534 C 534.05 1.19698 1.07523 0
M  V30 5535 O 535.242 1.45293 1.01088 0
M  V30 5536 C 532.371 2.98115 1.70242 0
M  V30 5537 C 531.457 4.07127 1.18779 0
M  V30 5538 N 531.848 5.04267 0.393465 0
M  V30 5539 C 530.146 4.21226 1.46576 0
M  V30 5540 C 530.847 5.81585 0.115572 0
M  V30 5541 N 529.823 5.39022 0.703987 0
M  V30 5542 H 533.625 2.93821 -0.0679751 0
M  V30 5543 H 531.139 1.61812 -0.138085 0
M  V30 5544 H 533.136 3.44818 2.34321 0
M  V30 5545 H 531.796 2.27181 2.31989 0
M  V30 5546 H 532.807 5.17888 0.0355757 0
M  V30 5547 H 529.484 3.61509 2.08848 0
M  V30 5548 H 530.874 6.6985 -0.524426 0
M  V30 5549 N 533.594 0.0601682 1.57485 0
M  V30 5550 C 534.834 -0.615384 1.94916 0
M  V30 5551 C 535.198 -1.67475 0.938948 0
M  V30 5552 O 536.399 -2.40502 1.20051 0
M  V30 5553 C 534.67 -1.18788 3.37082 0
M  V30 5554 S 536.229 -1.88018 3.96478 0
M  V30 5555 H 533.047 -0.201821 0.681754 0
M  V30 5556 H 535.649 0.131252 1.95059 0
M  V30 5557 H 534.353 -0.404869 4.08398 0
M  V30 5558 H 533.884 -1.97114 3.40455 0
M  V30 5559 H 535.899 -3.16161 3.82435 0
M  V30 5560 N 535.072 -1.5615 -0.213296 0
M  V30 5561 C 536.019 -1.93086 -1.26437 0
M  V30 5562 C 536.989 -0.789086 -1.4616 0
M  V30 5563 O 538.174 -1.04569 -1.59593 0
M  V30 5564 C 535.314 -2.26003 -2.608 0
M  V30 5565 C 534.427 -3.53156 -2.48807 0
M  V30 5566 C 533.562 -3.7548 -3.7575 0
M  V30 5567 C 532.601 -4.96119 -3.58514 0
M  V30 5568 N 531.738 -5.14791 -4.77425 0
M  V30 5569 H 536.578 -2.82707 -0.942376 0
M  V30 5570 H 534.115 -1.39919 -0.454001 0
M  V30 5571 H 536.073 -2.431 -3.39055 0
M  V30 5572 H 534.703 -1.39546 -2.91079 0
M  V30 5573 H 533.755 -3.44207 -1.61944 0
M  V30 5574 H 535.067 -4.41565 -2.31996 0
M  V30 5575 H 534.221 -3.92718 -4.62447 0
M  V30 5576 H 532.96 -2.85368 -3.95495 0
M  V30 5577 H 531.965 -4.78823 -2.70201 0
M  V30 5578 H 533.19 -5.87724 -3.40231 0
M  V30 5579 H 531.136 -4.27623 -4.97468 0
M  V30 5580 H 531.053 -5.97347 -4.63371 0
M  V30 5581 H 532.321 -5.36471 -5.65525 0
M  V30 5582 N 536.55 0.480323 -1.50102 0
M  V30 5583 C 537.775 1.26126 -1.64642 0
M  V30 5584 C 538.2 1.85257 -0.325823 0
M  V30 5585 O 537.558 1.66854 0.709194 0
M  V30 5586 C 537.606 2.35243 -2.73301 0
M  V30 5587 O 536.71 3.39646 -2.33911 0
M  V30 5588 H 536.051 0.371463 -0.550374 0
M  V30 5589 H 538.581 0.572696 -1.96421 0
M  V30 5590 H 538.591 2.80695 -2.96098 0
M  V30 5591 H 537.266 1.91574 -3.6915 0
M  V30 5592 H 535.843 2.99969 -2.21525 0
M  V30 5593 N 538.028 1.39524 0.732853 0
M  V30 5594 C 539.439 1.32905 1.31122 0
M  V30 5595 C 539.79 -0.00558708 1.96199 0
M  V30 5596 O 538.915 -0.907706 1.96443 0
M  V30 5597 C 539.51 2.40704 2.38426 0
M  V30 5598 C 538.069 2.37599 2.91931 0
M  V30 5599 C 537.216 2.2248 1.65523 0
M  V30 5600 H 540.167 1.49581 0.530207 0
M  V30 5601 H 540.188 2.07616 3.18867 0
M  V30 5602 H 539.7 3.37829 1.91033 0
M  V30 5603 H 537.801 1.44119 3.43599 0
M  V30 5604 H 537.914 3.32538 3.44899 0
M  V30 5605 H 536.278 1.69691 1.8994 0
M  V30 5606 H 537.061 3.21577 1.20178 0
M  V30 5607 N 539.506 -0.963266 1.24736 0
M  V30 5608 C 540.456 -2.0438 1.01058 0
M  V30 5609 C 541.44 -1.60824 -0.0495354 0
M  V30 5610 O 542.632 -1.76232 0.164741 0
M  V30 5611 C 539.761 -3.37617 0.622067 0
M  V30 5612 C 538.847 -3.87722 1.7185 0
M  V30 5613 N 539.238 -4.10715 2.95207 0
M  V30 5614 C 537.536 -4.16426 1.59703 0
M  V30 5615 C 538.237 -4.51872 3.66315 0
M  V30 5616 N 537.213 -4.57302 2.93897 0
M  V30 5617 H 541.015 -2.20138 1.94721 0
M  V30 5618 H 538.529 -1.14741 1.14927 0
M  V30 5619 H 540.526 -4.14638 0.43366 0
M  V30 5620 H 539.186 -3.23242 -0.307327 0
M  V30 5621 H 540.197 -3.98037 3.31341 0
M  V30 5622 H 536.874 -4.10962 0.73598 0
M  V30 5623 H 538.264 -4.78037 4.72155 0
M  V30 5624 N 540.985 -1.06182 -1.16461 0
M  V30 5625 C 542.401 -0.785065 -1.38956 0
M  V30 5626 C 542.601 0.616103 -1.9185 0
M  V30 5627 O 541.657 1.37686 -2.11657 0
M  V30 5628 C 542.97 -1.84902 -2.37132 0
M  V30 5629 C 544.518 -1.8724 -2.50819 0
M  V30 5630 C 544.993 -2.92686 -3.52277 0
M  V30 5631 N 546.484 -2.91712 -3.59803 0
M  V30 5632 C 547.219 -3.69949 -4.38093 0
M  V30 5633 N 546.715 -4.58 -5.19815 0
M  V30 5634 N 548.508 -3.58346 -4.33064 0
M  V30 5635 H 540.659 -1.96569 -0.804634 0
M  V30 5636 H 542.922 -0.851747 -0.416211 0
M  V30 5637 H 542.628 -2.85518 -2.0536 0
M  V30 5638 H 542.502 -1.69908 -3.36766 0
M  V30 5639 H 544.889 -0.872827 -2.81897 0
M  V30 5640 H 544.97 -2.06311 -1.51226 0
M  V30 5641 H 544.614 -3.92835 -3.21937 0
M  V30 5642 H 544.544 -2.70864 -4.51598 0
M  V30 5643 H 547.035 -2.27876 -3.01464 0
M  V30 5644 H 547.348 -5.14357 -5.76764 0
M  V30 5645 H 545.693 -4.62056 -5.19162 0
M  V30 5646 H 548.884 -2.88943 -3.68279 0
M  V30 5647 H 549.057 -4.19563 -4.93833 0
M  V30 5648 N 542.463 1.3308 -0.844243 0
M  V30 5649 C 543.413 2.26589 -0.253289 0
M  V30 5650 C 544.397 1.49501 0.594836 0
M  V30 5651 O 545.589 1.71291 0.445924 0
M  V30 5652 C 542.718 3.38599 0.566176 0
M  V30 5653 C 541.804 4.23081 -0.293756 0
M  V30 5654 N 542.195 4.86751 -1.37505 0
M  V30 5655 C 540.493 4.45925 -0.0817086 0
M  V30 5656 C 541.194 5.49684 -1.90323 0
M  V30 5657 N 540.17 5.30101 -1.20391 0
M  V30 5658 H 543.972 2.73334 -1.08009 0
M  V30 5659 H 541.486 1.47048 -0.689258 0
M  V30 5660 H 543.483 4.04584 1.00587 0
M  V30 5661 H 542.143 2.93401 1.39089 0
M  V30 5662 H 543.154 4.87151 -1.75796 0
M  V30 5663 H 539.831 4.11434 0.709129 0
M  V30 5664 H 541.221 6.10363 -2.80902 0
M  V30 5665 N 543.941 0.601185 1.45683 0
M  V30 5666 C 545.357 0.264315 1.57396 0
M  V30 5667 C 545.557 -1.23324 1.59353 0
M  V30 5668 O 544.613 -2.01594 1.52039 0
M  V30 5669 C 545.926 0.929839 2.85962 0
M  V30 5670 C 547.474 0.905156 2.99626 0
M  V30 5671 C 547.949 1.55057 4.30954 0
M  V30 5672 N 549.44 1.51576 4.37697 0
M  V30 5673 C 550.175 1.98436 5.37969 0
M  V30 5674 N 549.671 2.53352 6.44813 0
M  V30 5675 N 551.464 1.89242 5.29286 0
M  V30 5676 H 543.615 1.57363 1.42656 0
M  V30 5677 H 545.878 0.658831 0.681649 0
M  V30 5678 H 545.584 1.98404 2.90394 0
M  V30 5679 H 545.458 0.449224 3.74515 0
M  V30 5680 H 547.845 -0.14048 2.94765 0
M  V30 5681 H 547.926 1.42397 2.12501 0
M  V30 5682 H 547.57 2.5955 4.36573 0
M  V30 5683 H 547.5 1.00682 5.16886 0
M  V30 5684 H 549.991 1.11452 3.61091 0
M  V30 5685 H 550.304 2.86918 7.17564 0
M  V30 5686 H 548.649 2.57388 6.45582 0
M  V30 5687 H 551.84 1.46083 4.44722 0
M  V30 5688 H 552.013 2.26075 6.07284 0
M  V30 5689 N 545.419 -1.53889 0.339982 0
M  V30 5690 C 546.352 -2.21187 -0.561405 0
M  V30 5691 C 547.33 -1.19463 -1.10306 0
M  V30 5692 O 548.514 -1.48268 -1.164 0
M  V30 5693 C 545.641 -2.8865 -1.77198 0
M  V30 5694 C 544.687 -4.04232 -1.3601 0
M  V30 5695 S 545.52 -5.34129 -0.382909 0
M  V30 5696 C 546.676 -6.05094 -1.60039 0
M  V30 5697 H 546.909 -2.97298 0.0102092 0
M  V30 5698 H 544.442 -1.53901 0.124056 0
M  V30 5699 H 546.4 -3.28138 -2.4665 0
M  V30 5700 H 545.061 -2.12311 -2.3148 0
M  V30 5701 H 544.254 -4.50358 -2.2626 0
M  V30 5702 H 543.856 -3.66503 -0.745098 0
M  V30 5703 H 546.148 -6.2827 -2.53541 0
M  V30 5704 H 547.091 -6.98182 -1.18099 0
M  V30 5705 H 547.499 -5.35207 -1.79483 0
M  V30 5706 N 546.897 -0.0685191 -1.57451 0
M  V30 5707 C 548.143 0.602239 -1.93652 0
M  V30 5708 C 548.476 1.6946 -0.948526 0
M  V30 5709 O 547.751 1.94487 0.022782 0
M  V30 5710 C 548.034 1.18223 -3.4014 0
M  V30 5711 C 547.887 0.0967431 -4.49696 0
M  V30 5712 C 549.206 2.08872 -3.87377 0
M  V30 5713 H 546.325 0.217453 -0.70419 0
M  V30 5714 H 548.967 -0.133821 -1.89528 0
M  V30 5715 H 547.117 1.80953 -3.43785 0
M  V30 5716 H 548.789 -0.536155 -4.58174 0
M  V30 5717 H 547.032 -0.573063 -4.29998 0
M  V30 5718 H 547.703 0.542894 -5.49324 0
M  V30 5719 H 550.179 1.56081 -3.85717 0
M  V30 5720 H 549.055 2.46389 -4.90493 0
M  V30 5721 H 549.316 2.99572 -3.25129 0
M  V30 5722 N 548.375 1.56261 0.205012 0
M  V30 5723 C 549.621 1.80306 0.9283 0
M  V30 5724 C 549.954 0.640932 1.83319 0
M  V30 5725 O 549.229 -0.359032 1.91158 0
M  V30 5726 C 549.512 3.14547 1.75306 0
M  V30 5727 C 549.365 4.41236 0.873562 0
M  V30 5728 C 550.684 3.45382 2.72762 0
M  V30 5729 H 547.803 0.655929 0.336044 0
M  V30 5730 H 550.445 1.88984 0.196211 0
M  V30 5731 H 548.595 3.0728 2.37721 0
M  V30 5732 H 550.267 4.60539 0.264887 0
M  V30 5733 H 548.51 4.33427 0.179773 0
M  V30 5734 H 549.181 5.31639 1.48541 0
M  V30 5735 H 551.657 3.52884 2.20481 0
M  V30 5736 H 550.533 4.40449 3.2756 0
M  V30 5737 H 550.794 2.68377 3.51321 0
M  V30 5738 N 549.853 -0.472356 1.50355 0
M  V30 5739 C 550.783 -1.57859 1.72055 0
M  V30 5740 C 551.764 -1.60283 0.569505 0
M  V30 5741 O 552.949 -1.7657 0.808503 0
M  V30 5742 C 550.079 -2.96191 1.81351 0
M  V30 5743 C 549.033 -3.08633 2.96529 0
M  V30 5744 C 548.359 -4.486 2.90968 0
M  V30 5745 C 549.659 -2.85969 4.37057 0
M  V30 5746 H 551.353 -1.39953 2.64676 0
M  V30 5747 H 548.899 -0.671846 1.27367 0
M  V30 5748 H 550.852 -3.73507 1.95117 0
M  V30 5749 H 549.576 -3.15251 0.853502 0
M  V30 5750 H 548.235 -2.33749 2.82413 0
M  V30 5751 H 547.883 -4.64577 1.92815 0
M  V30 5752 H 547.583 -4.57861 3.68289 0
M  V30 5753 H 549.107 -5.27938 3.0678 0
M  V30 5754 H 550.521 -3.53036 4.51706 0
M  V30 5755 H 548.918 -3.06677 5.15819 0
M  V30 5756 H 549.988 -1.81838 4.49514 0
M  V30 5757 N 551.331 -1.39911 -0.725443 0
M  V30 5758 C 552.241 -1.41688 -1.8698 0
M  V30 5759 C 553.257 -0.310579 -1.71206 0
M  V30 5760 O 554.433 -0.55359 -1.93642 0
M  V30 5761 C 551.498 -1.26811 -3.22676 0
M  V30 5762 C 550.559 -2.47497 -3.50776 0
M  V30 5763 C 549.792 -2.3332 -4.79997 0
M  V30 5764 O 550.015 -1.34175 -5.54394 0
M  V30 5765 O 548.949 -3.22498 -5.08211 0
M  V30 5766 H 552.775 -2.38171 -1.88436 0
M  V30 5767 H 550.36 -1.21128 -0.874548 0
M  V30 5768 H 552.242 -1.20684 -4.03749 0
M  V30 5769 H 550.917 -0.334289 -3.21969 0
M  V30 5770 H 549.824 -2.59201 -2.69751 0
M  V30 5771 H 551.157 -3.39606 -3.5627 0
M  V30 5772 N 552.809 0.956637 -1.25245 0
M  V30 5773 C 554.22 1.51569 -1.09012 0
M  V30 5774 C 554.571 1.93322 0.334813 0
M  V30 5775 O 553.696 1.78421 1.22454 0
M  V30 5776 C 554.291 2.75444 -1.97271 0
M  V30 5777 C 552.85 3.27669 -1.8523 0
M  V30 5778 C 551.997 2.00517 -1.91542 0
M  V30 5779 H 554.948 0.773746 -1.3856 0
M  V30 5780 H 554.969 3.4919 -1.51151 0
M  V30 5781 H 554.481 2.45024 -3.00973 0
M  V30 5782 H 552.582 3.62914 -0.844045 0
M  V30 5783 H 552.695 3.9582 -2.69932 0
M  V30 5784 H 551.059 2.15727 -1.35404 0
M  V30 5785 H 551.842 1.72448 -2.96844 0
M  V30 5786 N 554.287 1.06798 1.15896 0
M  V30 5787 C 555.217 0.704677 2.22613 0
M  V30 5788 C 556.198 -0.305252 1.67339 0
M  V30 5789 O 557.383 -0.179247 1.93371 0
M  V30 5790 C 554.513 0.0957325 3.47168 0
M  V30 5791 C 553.467 1.0322 4.15367 0
M  V30 5792 C 552.793 0.286293 5.33933 0
M  V30 5793 C 554.093 2.36341 4.65768 0
M  V30 5794 H 555.787 1.59688 2.53259 0
M  V30 5795 H 553.333 0.769257 1.21731 0
M  V30 5796 H 555.286 -0.170333 4.21056 0
M  V30 5797 H 554.01 -0.831516 3.15838 0
M  V30 5798 H 552.669 1.28309 3.43413 0
M  V30 5799 H 552.317 -0.644237 4.98857 0
M  V30 5800 H 552.017 0.910436 5.80504 0
M  V30 5801 H 553.541 0.0278938 6.10594 0
M  V30 5802 H 554.955 2.1561 5.31211 0
M  V30 5803 H 553.352 2.94299 5.2298 0
M  V30 5804 H 554.422 2.99047 3.81705 0
M  V30 5805 N 555.766 -1.3263 0.851289 0
M  V30 5806 C 556.714 -2.30882 0.282202 0
M  V30 5807 C 557.708 -1.58697 -0.592589 0
M  V30 5808 O 558.914 -1.73461 -0.480768 0
M  V30 5809 H 555.289 -0.748492 0.0725487 0
M  V30 5810 H 557.26 -2.76374 1.12516 0
M  V30 5811 C 556.009 -3.43828 -0.517449 0
M  V30 5812 H 555.332 -3.99532 0.146392 0
M  V30 5813 H 556.772 -4.1474 -0.88128 0
M  V30 5814 C 555.231 -2.90786 -1.70133 0
M  V30 5815 O 555.761 -2.88 -2.80034 0
M  V30 5816 N 553.967 -2.4723 -1.52728 0
M  V30 5817 H 553.514 -2.49695 -0.633257 0
M  V30 5818 H 553.472 -2.12094 -2.32085 0
M  V30 5819 N 557.244 -0.608902 -1.45362 0
M  V30 5820 C 558.191 0.109172 -2.30542 0
M  V30 5821 C 559.161 0.858704 -1.42181 0
M  V30 5822 O 560.346 0.844178 -1.71109 0
M  V30 5823 C 557.486 1.09971 -3.27109 0
M  V30 5824 C 556.599 0.350911 -4.30572 0
M  V30 5825 C 555.734 1.33129 -5.14247 0
M  V30 5826 C 554.773 0.570377 -6.09437 0
M  V30 5827 N 553.91 1.5001 -6.85887 0
M  V30 5828 H 558.75 -0.623195 -2.91411 0
M  V30 5829 H 556.287 -0.319122 -1.43597 0
M  V30 5830 H 558.245 1.68714 -3.81564 0
M  V30 5831 H 556.875 1.79947 -2.67991 0
M  V30 5832 H 555.927 -0.352054 -3.78767 0
M  V30 5833 H 557.239 -0.242725 -4.98209 0
M  V30 5834 H 556.393 1.99074 -5.73109 0
M  V30 5835 H 555.132 1.95885 -4.46632 0
M  V30 5836 H 554.137 -0.102702 -5.49704 0
M  V30 5837 H 555.362 -0.0521607 -6.7908 0
M  V30 5838 H 553.308 2.11529 -6.2096 0
M  V30 5839 H 553.225 0.959934 -7.49881 0
M  V30 5840 H 554.493 2.14909 -7.49289 0
M  V30 5841 N 558.722 1.53707 -0.348139 0
M  V30 5842 C 559.652 2.28111 0.498766 0
M  V30 5843 C 560.633 1.29851 1.09876 0
M  V30 5844 O 561.818 1.587 1.11928 0
M  V30 5845 C 558.948 3.05735 1.64753 0
M  V30 5846 C 557.902 4.11537 1.17565 0
M  V30 5847 C 557.228 4.77142 2.4133 0
M  V30 5848 C 558.528 5.21587 0.272844 0
M  V30 5849 H 560.222 2.99152 -0.121934 0
M  V30 5850 H 557.768 1.43875 -0.0600842 0
M  V30 5851 H 559.721 3.56526 2.24649 0
M  V30 5852 H 558.445 2.32354 2.2952 0
M  V30 5853 H 557.104 3.61665 0.599483 0
M  V30 5854 H 556.752 4.0035 3.04514 0
M  V30 5855 H 556.452 5.48626 2.10436 0
M  V30 5856 H 557.976 5.30719 3.01943 0
M  V30 5857 H 559.39 5.67986 0.778779 0
M  V30 5858 H 557.787 6.00074 0.0555849 0
M  V30 5859 H 558.857 4.79969 -0.689785 0
M  V30 5860 N 560.2 0.0768682 1.57412 0
M  V30 5861 C 561.13 -0.886026 2.16037 0
M  V30 5862 C 562.111 -1.30691 1.08876 0
M  V30 5863 O 563.296 -1.37705 1.36934 0
M  V30 5864 C 560.426 -2.1518 2.72608 0
M  V30 5865 C 559.38 -1.87015 3.8498 0
M  V30 5866 C 558.706 -3.20266 4.28175 0
M  V30 5867 C 560.006 -1.17143 5.08994 0
M  V30 5868 H 561.7 -0.397642 2.96748 0
M  V30 5869 H 559.246 -0.189823 1.42743 0
M  V30 5870 H 561.199 -2.82962 3.12266 0
M  V30 5871 H 559.923 -2.66269 1.89125 0
M  V30 5872 H 558.582 -1.21636 3.45833 0
M  V30 5873 H 558.23 -3.69207 3.41607 0
M  V30 5874 H 557.93 -3.0221 5.03927 0
M  V30 5875 H 559.454 -3.89237 4.70454 0
M  V30 5876 H 560.868 -1.75003 5.45937 0
M  V30 5877 H 559.265 -1.09328 5.90057 0
M  V30 5878 H 560.335 -0.151295 4.84664 0
M  V30 5879 N 561.678 -1.56367 -0.196722 0
M  V30 5880 C 562.61 -1.90941 -1.26784 0
M  V30 5881 C 563.623 -0.799928 -1.41792 0
M  V30 5882 O 564.812 -1.07833 -1.42247 0
M  V30 5883 C 561.912 -2.12477 -2.6402 0
M  V30 5884 C 561.085 -3.43616 -2.70641 0
M  V30 5885 C 560.144 -3.54284 -3.89062 0
M  V30 5886 O 559.17 -4.2712 -3.76241 0
M  V30 5887 N 560.372 -2.87252 -5.04447 0
M  V30 5888 H 563.137 -2.83417 -0.974417 0
M  V30 5889 H 560.698 -1.57215 -0.386649 0
M  V30 5890 H 562.69 -2.16904 -3.41665 0
M  V30 5891 H 561.26 -1.26508 -2.85857 0
M  V30 5892 H 560.48 -3.51072 -1.79283 0
M  V30 5893 H 561.768 -4.29958 -2.72054 0
M  V30 5894 H 561.166 -2.27901 -5.17762 0
M  V30 5895 H 559.723 -2.97308 -5.80044 0
M  V30 5896 N 563.156 0.464375 -1.50603 0
M  V30 5897 C 564.119 1.54393 -1.69397 0
M  V30 5898 C 565.119 1.50566 -0.564504 0
M  V30 5899 O 566.309 1.53066 -0.831645 0
M  V30 5900 C 563.441 2.9401 -1.72543 0
M  V30 5901 H 564.634 1.39044 -2.65719 0
M  V30 5902 H 562.187 0.69122 -1.40185 0
M  V30 5903 H 562.922 3.14795 -0.77938 0
M  V30 5904 H 562.707 2.98195 -2.54602 0
M  V30 5905 H 564.197 3.72375 -1.89015 0
M  V30 5906 N 564.634 1.40294 0.718013 0
M  V30 5907 C 565.581 1.40367 1.8321 0
M  V30 5908 C 566.551 0.260952 1.64037 0
M  V30 5909 O 567.736 0.458648 1.85205 0
M  V30 5910 C 564.876 1.26965 3.20895 0
M  V30 5911 C 563.989 2.50922 3.51656 0
M  V30 5912 C 563.124 2.29981 4.78834 0
M  V30 5913 C 562.163 3.49527 5.02491 0
M  V30 5914 N 561.3 3.27796 6.20882 0
M  V30 5915 H 566.14 2.35593 1.82482 0
M  V30 5916 H 563.677 1.17012 0.891444 0
M  V30 5917 H 565.635 1.17202 4.00399 0
M  V30 5918 H 564.265 0.353591 3.20858 0
M  V30 5919 H 563.317 2.71223 2.66725 0
M  V30 5920 H 564.629 3.39913 3.65048 0
M  V30 5921 H 563.783 2.17558 5.66351 0
M  V30 5922 H 562.522 1.38411 4.67647 0
M  V30 5923 H 561.527 3.6243 4.1343 0
M  V30 5924 H 562.752 4.42021 5.15553 0
M  V30 5925 H 560.698 2.38906 6.1095 0
M  V30 5926 H 560.615 4.10351 6.34939 0
M  V30 5927 H 561.883 3.19101 7.11193 0
M  V30 5928 N 566.112 -0.949982 1.2575 0
M  V30 5929 C 567.358 -1.69822 1.11947 0
M  V30 5930 C 567.713 -1.89455 -0.335334 0
M  V30 5931 O 567.006 -1.45778 -1.24336 0
M  V30 5932 C 567.2 -3.08039 1.81237 0
M  V30 5933 C 567.029 -3.0189 3.33305 0
M  V30 5934 C 565.799 -3.05391 4.02573 0
M  V30 5935 C 567.997 -2.827 4.29634 0
M  V30 5936 N 565.979 -2.89449 5.4138 0
M  V30 5937 C 567.35 -2.75237 5.55558 0
M  V30 5938 C 569.405 -2.67416 4.19992 0
M  V30 5939 C 568.108 -2.54051 6.72942 0
M  V30 5940 C 570.134 -2.47602 5.37073 0
M  V30 5941 C 569.496 -2.40863 6.6194 0
M  V30 5942 H 565.595 -0.629188 0.464378 0
M  V30 5943 H 568.179 -1.1249 1.58916 0
M  V30 5944 H 566.35 -3.63528 1.36756 0
M  V30 5945 H 568.082 -3.71671 1.60134 0
M  V30 5946 H 564.837 -3.14763 3.53866 0
M  V30 5947 H 565.261 -2.84669 6.14241 0
M  V30 5948 H 569.903 -2.71398 3.24196 0
M  V30 5949 H 567.621 -2.48811 7.68842 0
M  V30 5950 H 571.207 -2.36694 5.31477 0
M  V30 5951 H 570.087 -2.25732 7.51009 0
M  V30 5952 N 567.59 -1.07411 -1.15328 0
M  V30 5953 C 568.867 -0.710732 -1.82231 0
M  V30 5954 C 569.247 0.806732 -1.95077 0
M  V30 5955 O 568.595 1.72139 -1.50268 0
M  V30 5956 C 568.805 -1.42586 -3.18544 0
M  V30 5957 C 570.153 -1.57836 -3.94174 0
M  V30 5958 O 571.177 -1.38669 -3.281 0
M  V30 5959 O 570.036 -1.8938 -5.12638 0
M  V30 5960 H 567.13 -0.25297 -0.78736 0
M  V30 5961 H 569.676 -1.17508 -1.22434 0
M  V30 5962 H 568.448 -2.46008 -3.04296 0
M  V30 5963 H 568.071 -0.952332 -3.86026 0
M  V30 5964 N 569.068 1.32177 -0.85831 0
M  V30 5965 C 569.998 2.31282 -0.321041 0
M  V30 5966 C 570.979 1.59841 0.581786 0
M  V30 5967 O 572.164 1.87619 0.501262 0
M  V30 5968 C 569.294 3.4385 0.48832 0
M  V30 5969 C 568.248 4.26799 -0.320391 0
M  V30 5970 C 567.574 5.31164 0.613934 0
M  V30 5971 C 568.874 4.98829 -1.54813 0
M  V30 5972 H 570.568 2.76469 -1.14915 0
M  V30 5973 H 568.114 1.32916 -0.554028 0
M  V30 5974 H 570.067 4.12224 0.874626 0
M  V30 5975 H 568.791 2.97401 1.34983 0
M  V30 5976 H 567.45 3.60077 -0.688497 0
M  V30 5977 H 567.098 4.80967 1.47239 0
M  V30 5978 H 566.798 5.8755 0.0768097 0
M  V30 5979 H 568.322 6.024 0.997336 0
M  V30 5980 H 569.736 5.59864 -1.23392 0
M  V30 5981 H 568.133 5.64957 -2.02346 0
M  V30 5982 H 569.203 4.26483 -2.30739 0
M  V30 5983 N 570.547 0.616602 1.45037 0
M  V30 5984 C 571.477 -0.0840787 2.33349 0
M  V30 5985 C 572.458 -0.849641 1.4736 0
M  V30 5986 O 573.643 -0.818407 1.76113 0
M  V30 5987 C 570.773 -1.07604 3.3021 0
M  V30 5988 C 569.727 -0.423096 4.25904 0
M  V30 5989 C 569.053 -1.52394 5.12523 0
M  V30 5990 C 570.353 0.661457 5.18095 0
M  V30 5991 H 572.047 0.653333 2.92185 0
M  V30 5992 H 569.593 0.315634 1.40498 0
M  V30 5993 H 571.546 -1.57485 3.90866 0
M  V30 5994 H 570.27 -1.84416 2.69552 0
M  V30 5995 H 568.929 0.05493 3.66559 0
M  V30 5996 H 568.577 -2.28257 4.48227 0
M  V30 5997 H 568.277 -1.09251 5.77354 0
M  V30 5998 H 569.801 -2.02485 5.76049 0
M  V30 5999 H 571.215 0.246353 5.7277 0
M  V30 6000 H 569.612 1.01517 5.91451 0
M  V30 6001 H 570.682 1.53446 4.59981 0
M  V30 6002 N 572.025 -1.5352 0.356285 0
M  V30 6003 C 573.274 -2.00298 -0.237373 0
M  V30 6004 C 573.587 -1.24784 -1.50627 0
M  V30 6005 O 574.793 -1.62103 -2.17795 0
M  V30 6006 C 573.249 -3.56771 -0.473545 0
M  V30 6007 C 572.857 -4.41154 0.780183 0
M  V30 6008 C 574.601 -4.1193 -1.02537 0
M  V30 6009 C 572.508 -5.89161 0.514108 0
M  V30 6010 H 571.438 -0.748307 -0.092478 0
M  V30 6011 H 574.089 -1.77283 0.473588 0
M  V30 6012 H 572.471 -3.75902 -1.24553 0
M  V30 6013 H 573.645 -4.33797 1.55425 0
M  V30 6014 H 571.96 -3.97052 1.25455 0
M  V30 6015 H 574.557 -5.20133 -1.2396 0
M  V30 6016 H 574.9 -3.65943 -1.98473 0
M  V30 6017 H 575.433 -3.96561 -0.313775 0
M  V30 6018 H 572.172 -6.39408 1.44355 0
M  V30 6019 H 571.692 -5.9939 -0.221632 0
M  V30 6020 H 573.371 -6.46857 0.136122 0
M  V30 6021 N 573.503 -0.0852151 -1.57369 0
M  V30 6022 C 574.914 0.445428 -1.81309 0
M  V30 6023 C 575.265 1.68795 -1.00013 0
M  V30 6024 O 574.39 2.15211 -0.226573 0
M  V30 6025 C 574.985 0.814887 -3.28854 0
M  V30 6026 C 573.544 1.29032 -3.53592 0
M  V30 6027 C 572.691 0.282089 -2.75861 0
M  V30 6028 H 575.642 -0.310771 -1.55627 0
M  V30 6029 H 575.663 1.67524 -3.41637 0
M  V30 6030 H 575.175 -0.0896309 -3.87996 0
M  V30 6031 H 573.276 2.21289 -2.9977 0
M  V30 6032 H 573.389 1.25898 -4.62262 0
M  V30 6033 H 571.753 0.762182 -2.43029 0
M  V30 6034 H 572.536 -0.614936 -3.37748 0
M  V30 6035 N 574.981 1.5647 0.188427 0
M  V30 6036 C 575.928 1.95073 1.23349 0
M  V30 6037 C 576.898 0.812238 1.44886 0
M  V30 6038 O 578.083 1.07095 1.57909 0
M  V30 6039 C 575.223 2.30124 2.57171 0
M  V30 6040 C 574.336 3.57069 2.43157 0
M  V30 6041 C 573.471 3.81411 3.69729 0
M  V30 6042 C 572.51 5.0176 3.50575 0
M  V30 6043 N 571.647 5.22321 4.69175 0
M  V30 6044 H 576.487 2.84171 0.89728 0
M  V30 6045 H 574.024 1.40623 0.431683 0
M  V30 6046 H 575.982 2.48463 3.35145 0
M  V30 6047 H 574.612 1.44159 2.88822 0
M  V30 6048 H 573.664 3.4674 1.56447 0
M  V30 6049 H 574.976 4.452 2.24942 0
M  V30 6050 H 574.13 4.00026 4.56141 0
M  V30 6051 H 572.869 2.91624 3.90905 0
M  V30 6052 H 571.874 4.83061 2.62549 0
M  V30 6053 H 573.099 5.93063 3.30837 0
M  V30 6054 H 571.045 4.35483 4.90602 0
M  V30 6055 H 570.962 6.04643 4.53809 0
M  V30 6056 H 572.23 5.45401 5.56919 0
M  V30 6057 N 576.459 -0.456382 1.50847 0
M  V30 6058 C 577.706 -1.20736 1.62571 0
M  V30 6059 C 578.034 -1.9163 0.332904 0
M  V30 6060 O 577.289 -1.8343 -0.682058 0
M  V30 6061 C 577.588 -2.26336 2.76599 0
M  V30 6062 C 577.254 -1.7259 4.16562 0
M  V30 6063 C 575.916 -1.57654 4.54641 0
M  V30 6064 C 578.268 -1.32877 5.03977 0
M  V30 6065 C 575.596 -1.0145 5.77862 0
M  V30 6066 C 577.948 -0.7811 6.27759 0
M  V30 6067 C 576.612 -0.618488 6.64628 0
M  V30 6068 H 575.882 -0.441803 0.594888 0
M  V30 6069 H 578.529 -0.501169 1.84826 0
M  V30 6070 H 576.834 -3.0292 2.48489 0
M  V30 6071 H 578.531 -2.84227 2.82871 0
M  V30 6072 H 575.121 -1.85187 3.86528 0
M  V30 6073 H 579.305 -1.43245 4.75179 0
M  V30 6074 H 574.561 -0.876109 6.0509 0
M  V30 6075 H 578.735 -0.464783 6.94847 0
M  V30 6076 H 576.362 -0.180838 7.59985 0
M  V30 6077 N 577.937 -1.40673 -0.710563 0
M  V30 6078 C 579.184 -1.39222 -1.47049 0
M  V30 6079 C 579.512 0.0037691 -1.945 0
M  V30 6080 O 578.767 0.989224 -1.68857 0
M  V30 6081 C 579.066 -2.33253 -2.70791 0
M  V30 6082 C 578.732 -3.80406 -2.42079 0
M  V30 6083 C 577.394 -4.20496 -2.33959 0
M  V30 6084 C 579.746 -4.73375 -2.18094 0
M  V30 6085 C 577.074 -5.51584 -1.99929 0
M  V30 6086 C 579.426 -6.04768 -1.85576 0
M  V30 6087 C 578.09 -6.43895 -1.75941 0
M  V30 6088 H 577.36 -0.509449 -0.538092 0
M  V30 6089 H 580.007 -1.73363 -0.81348 0
M  V30 6090 H 578.312 -1.92314 -3.41354 0
M  V30 6091 H 580.009 -2.29412 -3.28894 0
M  V30 6092 H 576.599 -3.48645 -2.49288 0
M  V30 6093 H 580.783 -4.43217 -2.23321 0
M  V30 6094 H 576.039 -5.80797 -1.91011 0
M  V30 6095 H 580.213 -6.76318 -1.66033 0
M  V30 6096 H 577.84 -7.45387 -1.4934 0
M  V30 6097 N 579.415 0.9433 -1.26252 0
M  V30 6098 C 580.345 2.05902 -1.10122 0
M  V30 6099 C 581.326 1.70099 -0.00700552 0
M  V30 6100 O 582.511 1.93377 -0.178641 0
M  V30 6101 C 579.641 3.39516 -0.731175 0
M  V30 6102 C 578.595 3.89372 -1.77688 0
M  V30 6103 C 577.921 5.19613 -1.26122 0
M  V30 6104 C 579.221 4.14489 -3.17799 0
M  V30 6105 H 580.915 2.19655 -2.03451 0
M  V30 6106 H 578.461 1.05548 -0.979576 0
M  V30 6107 H 580.414 4.17031 -0.605215 0
M  V30 6108 H 579.138 3.25733 0.23782 0
M  V30 6109 H 577.797 3.14036 -1.89148 0
M  V30 6110 H 577.445 5.02208 -0.282128 0
M  V30 6111 H 577.145 5.53939 -1.96023 0
M  V30 6112 H 578.669 5.99713 -1.14789 0
M  V30 6113 H 580.083 4.82625 -3.09428 0
M  V30 6114 H 578.48 4.60094 -3.85271 0
M  V30 6115 H 579.55 3.20347 -3.64014 0
M  V30 6116 N 580.893 1.08022 1.14757 0
M  V30 6117 C 581.841 0.701088 2.21783 0
M  V30 6118 C 582.835 -0.291311 1.66876 0
M  V30 6119 O 584.041 -0.154296 1.79337 0
M  V30 6120 H 580.416 0.208668 0.722469 0
M  V30 6121 H 582.387 1.61321 2.51034 0
M  V30 6122 C 581.136 0.122278 3.47485 0
M  V30 6123 H 580.459 0.877065 3.90061 0
M  V30 6124 H 581.899 -0.105248 4.23869 0
M  V30 6125 C 580.358 -1.13883 3.17068 0
M  V30 6126 O 580.888 -2.22429 3.34497 0
M  V30 6127 N 579.094 -1.04767 2.71058 0
M  V30 6128 H 578.641 -0.164302 2.57075 0
M  V30 6129 H 578.599 -1.89224 2.51081 0
M  V30 6130 N 582.371 -1.3172 0.865308 0
M  V30 6131 C 583.618 -1.96876 0.473931 0
M  V30 6132 C 583.946 -1.68425 -0.972786 0
M  V30 6133 O 583.201 -0.970742 -1.69927 0
M  V30 6134 C 583.5 -3.5102 0.672283 0
M  V30 6135 C 583.166 -3.9948 2.09108 0
M  V30 6136 C 581.828 -4.12425 2.4791 0
M  V30 6137 C 584.18 -4.2503 3.0166 0
M  V30 6138 C 581.508 -4.48267 3.78515 0
M  V30 6139 C 583.86 -4.62335 4.31774 0
M  V30 6140 C 582.524 -4.73486 4.70497 0
M  V30 6141 H 581.794 -0.72042 0.173424 0
M  V30 6142 H 584.441 -1.56937 1.0974 0
M  V30 6143 H 582.746 -3.91785 -0.034356 0
M  V30 6144 H 584.443 -3.99475 0.349353 0
M  V30 6145 H 581.033 -3.89898 1.77981 0
M  V30 6146 H 585.217 -4.14529 2.7291 0
M  V30 6147 H 580.473 -4.55097 4.08285 0
M  V30 6148 H 584.647 -4.81058 5.03543 0
M  V30 6149 H 582.274 -5.01016 5.71741 0
M  V30 6150 N 583.85 -0.624285 -1.44708 0
M  V30 6151 C 584.779 0.0717025 -2.3339 0
M  V30 6152 C 585.76 0.841814 -1.47809 0
M  V30 6153 O 586.946 0.809056 -1.76544 0
M  V30 6154 C 584.076 1.05852 -3.30776 0
M  V30 6155 C 583.029 0.400503 -4.26122 0
M  V30 6156 C 582.356 1.49674 -5.13324 0
M  V30 6157 C 583.656 -0.688924 -5.17737 0
M  V30 6158 H 585.35 -0.668819 -2.91834 0
M  V30 6159 H 582.896 -0.32308 -1.40329 0
M  V30 6160 H 584.849 1.5541 -3.91696 0
M  V30 6161 H 583.572 1.82984 -2.70526 0
M  V30 6162 H 582.231 -0.0743687 -3.66525 0
M  V30 6163 H 581.88 2.25877 -4.49431 0
M  V30 6164 H 581.58 1.06188 -5.77926 0
M  V30 6165 H 583.104 1.99427 -5.77115 0
M  V30 6166 H 584.518 -0.276724 -5.72632 0
M  V30 6167 H 582.915 -1.04652 -5.90904 0
M  V30 6168 H 583.985 -1.55884 -4.5916 0
M  V30 6169 N 585.328 1.53329 -0.364422 0
M  V30 6170 C 586.568 2.0315 0.22572 0
M  V30 6171 C 586.932 1.24589 1.46087 0
M  V30 6172 O 588.133 1.64411 2.12656 0
M  V30 6173 C 586.404 3.53718 0.511663 0
M  V30 6174 S 587.963 4.25412 1.07564 0
M  V30 6175 H 584.781 0.70795 0.0657843 0
M  V30 6176 H 587.383 1.88811 -0.507019 0
M  V30 6177 H 586.087 4.08497 -0.394784 0
M  V30 6178 H 585.618 3.72217 1.27351 0
M  V30 6179 H 587.633 4.36486 2.35997 0
M  V30 6180 N 586.806 0.0935595 1.57322 0
M  V30 6181 C 587.754 -0.883457 2.15169 0
M  V30 6182 C 588.748 -1.29324 1.09415 0
M  V30 6183 O 589.954 -1.26795 1.27762 0
M  V30 6184 H 586.329 -0.302923 0.688289 0
M  V30 6185 H 588.3 -0.370845 2.96087 0
M  V30 6186 C 587.049 -2.13345 2.74552 0
M  V30 6187 H 586.372 -1.82702 3.55612 0
M  V30 6188 H 587.812 -2.7977 3.18598 0
M  V30 6189 C 586.271 -2.90646 1.70371 0
M  V30 6190 O 586.801 -3.85133 1.14173 0
M  V30 6191 N 585.007 -2.54157 1.40899 0
M  V30 6192 H 584.554 -1.77391 1.86789 0
M  V30 6193 H 584.512 -3.06178 0.714301 0
M  V30 6194 N 588.284 -1.56567 -0.180126 0
M  V30 6195 C 589.214 -1.98753 -1.22553 0
M  V30 6196 C 590.195 -0.86175 -1.46656 0
M  V30 6197 O 591.38 -1.12719 -1.58139 0
M  V30 6198 C 588.51 -2.33988 -2.56645 0
M  V30 6199 C 587.464 -3.49445 -2.47128 0
M  V30 6200 C 586.79 -3.70397 -3.8563 0
M  V30 6201 C 588.09 -4.83171 -1.98352 0
M  V30 6202 H 589.784 -2.86332 -0.874896 0
M  V30 6203 H 587.33 -1.37757 -0.419414 0
M  V30 6204 H 589.283 -2.62097 -3.29974 0
M  V30 6205 H 588.007 -1.43309 -2.93479 0
M  V30 6206 H 586.666 -3.2145 -1.76254 0
M  V30 6207 H 586.314 -2.77023 -4.19842 0
M  V30 6208 H 586.014 -4.48077 -3.80132 0
M  V30 6209 H 587.538 -4.00897 -4.60558 0
M  V30 6210 H 588.952 -5.10213 -2.61449 0
M  V30 6211 H 587.349 -5.64425 -2.03823 0
M  V30 6212 H 588.419 -4.75753 -0.937402 0
M  V30 6213 N 589.762 0.448376 -1.51087 0
M  V30 6214 C 591.011 1.19561 -1.62444 0
M  V30 6215 C 591.324 1.92602 -0.341151 0
M  V30 6216 O 592.53 2.69439 -0.333936 0
M  V30 6217 C 590.986 2.17373 -2.8684 0
M  V30 6218 C 590.594 1.5003 -4.22131 0
M  V30 6219 C 592.338 2.92597 -3.0755 0
M  V30 6220 C 590.245 2.46262 -5.37689 0
M  V30 6221 H 589.175 0.449975 -0.605011 0
M  V30 6222 H 591.826 0.463735 -1.77544 0
M  V30 6223 H 590.208 2.93948 -2.65349 0
M  V30 6224 H 591.382 0.790886 -4.53962 0
M  V30 6225 H 589.697 0.870011 -4.0721 0
M  V30 6226 H 592.294 3.64663 -3.91056 0
M  V30 6227 H 592.637 3.53306 -2.20183 0
M  V30 6228 H 593.17 2.23131 -3.29329 0
M  V30 6229 H 589.909 1.90258 -6.27281 0
M  V30 6230 H 589.429 3.15289 -5.10248 0
M  V30 6231 H 591.108 3.07623 -5.6919 0
M  V30 6232 N 591.24 1.41047 0.703093 0
M  V30 6233 C 592.47 1.43133 1.48985 0
M  V30 6234 C 592.878 0.0328537 1.89171 0
M  V30 6235 O 592.221 -0.956469 1.56835 0
M  V30 6236 C 592.283 2.26991 2.78775 0
M  V30 6237 C 591.947 3.7525 2.60837 0
M  V30 6238 C 592.944 4.67591 2.27276 0
M  V30 6239 C 590.629 4.19208 2.76712 0
M  V30 6240 C 592.623 6.01877 2.09817 0
M  V30 6241 C 590.31 5.53561 2.5887 0
M  V30 6242 C 591.308 6.4471 2.25472 0
M  V30 6243 O 590.996 7.76584 2.07778 0
M  V30 6244 H 590.728 0.489788 0.465922 0
M  V30 6245 H 593.282 1.85886 0.873822 0
M  V30 6246 H 591.512 1.79038 3.42757 0
M  V30 6247 H 593.201 2.20867 3.40547 0
M  V30 6248 H 593.967 4.34923 2.14633 0
M  V30 6249 H 589.846 3.48572 3.01693 0
M  V30 6250 H 593.39 6.72986 1.83671 0
M  V30 6251 H 589.287 5.85811 2.71102 0
M  V30 6252 H 590.055 7.87649 2.22601 0
M  V30 6253 N 592.718 -0.936591 1.26751 0
M  V30 6254 C 593.651 -2.03619 1.03027 0
M  V30 6255 C 594.629 -1.62534 -0.0464619 0
M  V30 6256 O 595.813 -1.88251 0.0968873 0
M  V30 6257 C 592.94 -3.3402 0.561072 0
M  V30 6258 C 591.986 -3.9408 1.63105 0
M  V30 6259 S 592.819 -4.27782 3.22122 0
M  V30 6260 C 593.975 -5.61277 2.76982 0
M  V30 6261 H 594.208 -2.23429 1.96129 0
M  V30 6262 H 591.741 -1.07857 1.10482 0
M  V30 6263 H 593.699 -4.09424 0.297031 0
M  V30 6264 H 592.36 -3.12147 -0.349741 0
M  V30 6265 H 591.553 -4.88154 1.25386 0
M  V30 6266 H 591.155 -3.25227 1.84671 0
M  V30 6267 H 593.447 -6.40189 2.21731 0
M  V30 6268 H 594.39 -6.03887 3.69766 0
M  V30 6269 H 594.798 -5.21374 2.16402 0
M  V30 6270 N 594.196 -1.08629 -1.14182 0
M  V30 6271 C 595.443 -0.817345 -1.85272 0
M  V30 6272 C 595.771 0.656917 -1.83071 0
M  V30 6273 O 595.026 1.49897 -1.25815 0
M  V30 6274 C 595.325 -1.28734 -3.3341 0
M  V30 6275 C 594.991 -2.76981 -3.55798 0
M  V30 6276 C 593.653 -3.17469 -3.61617 0
M  V30 6277 C 596.005 -3.72605 -3.64438 0
M  V30 6278 C 593.333 -4.52371 -3.736 0
M  V30 6279 C 595.685 -5.07286 -3.77947 0
M  V30 6280 C 594.349 -5.47376 -3.82016 0
M  V30 6281 H 593.619 -0.299088 -0.677958 0
M  V30 6282 H 596.266 -1.35962 -1.34857 0
M  V30 6283 H 594.571 -0.664702 -3.8612 0
M  V30 6284 H 596.268 -1.05598 -3.86846 0
M  V30 6285 H 592.858 -2.44644 -3.51919 0
M  V30 6286 H 597.042 -3.42443 -3.5923 0
M  V30 6287 H 592.298 -4.82882 -3.75013 0
M  V30 6288 H 596.472 -5.81243 -3.83575 0
M  V30 6289 H 594.099 -6.51906 -3.91054 0
M  V30 6290 N 595.674 1.31259 -0.872281 0
M  V30 6291 C 596.923 1.95893 -0.480493 0
M  V30 6292 C 597.236 1.697 0.972688 0
M  V30 6293 O 598.442 2.28214 1.47073 0
M  V30 6294 C 596.898 3.50705 -0.808342 0
M  V30 6295 C 596.506 3.85735 -2.27844 0
M  V30 6296 C 598.25 4.21719 -0.485136 0
M  V30 6297 C 596.157 5.33668 -2.54858 0
M  V30 6298 H 595.087 0.733182 -0.175955 0
M  V30 6299 H 597.738 1.49396 -1.0655 0
M  V30 6300 H 596.12 3.95706 -0.152558 0
M  V30 6301 H 597.294 3.51686 -2.97748 0
M  V30 6302 H 595.609 3.27792 -2.56791 0
M  V30 6303 H 598.206 5.30559 -0.664166 0
M  V30 6304 H 598.549 4.12316 0.574592 0
M  V30 6305 H 599.082 3.82359 -1.09756 0
M  V30 6306 H 595.821 5.48109 -3.59523 0
M  V30 6307 H 595.341 5.69061 -1.8955 0
M  V30 6308 H 597.02 6.00958 -2.39706 0
M  V30 6309 N 597.152 0.631951 1.44375 0
M  V30 6310 C 598.399 0.136767 2.02038 0
M  V30 6311 C 598.727 -1.24168 1.49709 0
M  V30 6312 O 597.982 -1.83809 0.671763 0
M  V30 6313 C 598.281 0.0735861 3.57324 0
M  V30 6314 C 597.947 1.39092 4.28911 0
M  V30 6315 C 596.609 1.75171 4.48184 0
M  V30 6316 C 598.961 2.26042 4.69632 0
M  V30 6317 C 596.289 2.97907 5.05439 0
M  V30 6318 C 598.641 3.4805 5.28246 0
M  V30 6319 C 597.305 3.84351 5.45738 0
M  V30 6320 H 596.575 0.0500466 0.739308 0
M  V30 6321 H 599.222 0.818429 1.7313 0
M  V30 6322 H 597.527 -0.691449 3.8565 0
M  V30 6323 H 599.224 -0.326091 3.99672 0
M  V30 6324 H 595.814 1.10015 4.1424 0
M  V30 6325 H 599.998 1.99463 4.54454 0
M  V30 6326 H 595.254 3.26108 5.17169 0
M  V30 6327 H 599.428 4.15658 5.5875 0
M  V30 6328 H 597.055 4.79538 5.8987 0
M  V30 6329 N 598.631 -1.53133 0.372548 0
M  V30 6330 C 599.859 -2.05774 -0.215515 0
M  V30 6331 C 600.274 -1.24555 -1.41886 0
M  V30 6332 O 599.631 -0.287951 -1.80214 0
M  V30 6333 C 599.682 -3.5645 -0.602161 0
M  V30 6334 O 599.403 -4.34591 0.553359 0
M  V30 6335 C 600.904 -4.25374 -1.24787 0
M  V30 6336 H 598.124 -0.670009 -0.0364529 0
M  V30 6337 H 600.668 -1.97434 0.532934 0
M  V30 6338 H 598.823 -3.64918 -1.30052 0
M  V30 6339 H 599.237 -5.23954 0.239336 0
M  V30 6340 H 600.711 -5.32097 -1.46891 0
M  V30 6341 H 601.188 -3.79531 -2.21026 0
M  V30 6342 H 601.794 -4.21177 -0.590752 0
M  V30 6343 N 600.109 -0.101901 -1.5727 0
M  V30 6344 C 601.072 0.840129 -2.13247 0
M  V30 6345 C 602.072 1.20625 -1.06331 0
M  V30 6346 O 603.262 1.13456 -1.32186 0
M  V30 6347 C 600.394 2.13372 -2.65867 0
M  V30 6348 H 601.587 0.353945 -2.97804 0
M  V30 6349 H 599.14 0.147167 -1.55606 0
M  V30 6350 H 599.875 2.66461 -1.84849 0
M  V30 6351 H 599.66 1.88085 -3.44044 0
M  V30 6352 H 601.15 2.80748 -3.09145 0
M  V30 6353 N 601.587 1.56661 0.17182 0
M  V30 6354 C 602.833 1.82235 0.889845 0
M  V30 6355 C 603.166 0.679673 1.81918 0
M  V30 6356 O 602.441 -0.318404 1.91876 0
M  V30 6357 C 602.724 3.18195 1.68595 0
M  V30 6358 C 602.577 4.42989 0.779773 0
M  V30 6359 C 603.896 3.5109 2.65375 0
M  V30 6360 H 601.015 0.66291 0.322056 0
M  V30 6361 H 603.657 1.89358 0.15608 0
M  V30 6362 H 601.807 3.12253 2.3115 0
M  V30 6363 H 603.479 4.60997 0.16714 0
M  V30 6364 H 601.722 4.33711 0.0877964 0
M  V30 6365 H 602.393 5.3467 1.3723 0
M  V30 6366 H 604.869 3.57482 2.12946 0
M  V30 6367 H 603.745 4.47298 3.18144 0
M  V30 6368 H 604.006 2.75768 3.45549 0
M  V30 6369 N 603.065 -0.440357 1.51323 0
M  V30 6370 C 604.028 -1.51679 1.71832 0
M  V30 6371 C 605.028 -1.49648 0.588386 0
M  V30 6372 O 606.218 -1.51724 0.855891 0
M  V30 6373 C 603.35 -2.91228 1.77199 0
M  V30 6374 H 604.543 -1.34799 2.67898 0
M  V30 6375 H 602.096 -0.66883 1.41267 0
M  V30 6376 H 602.831 -3.13516 0.829363 0
M  V30 6377 H 602.616 -2.94107 2.59314 0
M  V30 6378 H 604.106 -3.69321 1.94915 0
M  V30 6379 N 604.543 -1.41418 -0.695603 0
M  V30 6380 C 605.773 -1.43921 -1.48224 0
M  V30 6381 C 606.181 -0.0428855 -1.89151 0
M  V30 6382 O 605.524 0.948138 -1.5734 0
M  V30 6383 C 605.586 -2.28466 -2.77567 0
M  V30 6384 C 605.25 -3.76629 -2.58844 0
M  V30 6385 C 606.247 -4.6879 -2.24793 0
M  V30 6386 C 603.932 -4.2067 -2.74485 0
M  V30 6387 C 605.926 -6.02981 -2.06622 0
M  V30 6388 C 603.613 -5.54926 -2.55931 0
M  V30 6389 C 604.611 -6.45897 -2.2205 0
M  V30 6390 O 604.299 -7.77675 -2.03657 0
M  V30 6391 H 604.031 -0.492252 -0.463318 0
M  V30 6392 H 606.585 -1.86347 -0.863952 0
M  V30 6393 H 604.815 -1.80853 -3.41802 0
M  V30 6394 H 606.504 -2.2267 -3.39371 0
M  V30 6395 H 607.27 -4.36055 -2.12323 0
M  V30 6396 H 603.149 -3.50167 -2.9984 0
M  V30 6397 H 606.693 -6.73951 -1.80099 0
M  V30 6398 H 602.59 -5.8724 -2.67991 0
M  V30 6399 H 603.358 -7.88819 -2.1842 0
M  V30 6400 N 606.021 0.929856 -1.27246 0
M  V30 6401 C 606.971 2.01629 -1.06442 0
M  V30 6402 C 607.955 1.60899 0.00687842 0
M  V30 6403 O 609.147 1.75733 -0.211407 0
M  V30 6404 C 606.276 3.35849 -0.711361 0
M  V30 6405 C 605.362 3.8303 -1.82069 0
M  V30 6406 N 605.753 4.02743 -3.05993 0
M  V30 6407 C 604.051 4.12046 -1.70687 0
M  V30 6408 C 604.752 4.42001 -3.78167 0
M  V30 6409 N 603.728 4.4935 -3.05918 0
M  V30 6410 H 607.53 2.14898 -2.00489 0
M  V30 6411 H 605.044 1.11654 -1.17929 0
M  V30 6412 H 607.041 4.13343 -0.543442 0
M  V30 6413 H 605.701 3.23944 0.221517 0
M  V30 6414 H 606.712 3.89112 -3.41778 0
M  V30 6415 H 603.389 4.08866 -0.844681 0
M  V30 6416 H 604.779 4.6535 -4.84664 0
M  V30 6417 N 607.499 1.09233 1.13605 0
M  V30 6418 C 608.431 0.687794 2.18637 0
M  V30 6419 C 609.444 -0.26936 1.60556 0
M  V30 6420 O 610.633 -0.0557162 1.78413 0
M  V30 6421 C 607.733 -0.00751901 3.38899 0
M  V30 6422 C 606.906 0.97067 4.26494 0
M  V30 6423 C 605.965 0.309129 5.25291 0
M  V30 6424 O 604.991 0.956149 5.61112 0
M  V30 6425 N 606.193 -0.937555 5.72879 0
M  V30 6426 H 608.958 1.59141 2.53957 0
M  V30 6427 H 606.519 0.979515 1.28907 0
M  V30 6428 H 608.511 -0.461238 4.02063 0
M  V30 6429 H 607.081 -0.813353 3.01833 0
M  V30 6430 H 606.301 1.603 3.60135 0
M  V30 6431 H 607.589 1.63323 4.81875 0
M  V30 6432 H 606.987 -1.48281 5.4592 0
M  V30 6433 H 605.544 -1.33463 6.3799 0
M  V30 6434 N 608.977 -1.30795 0.87923 0
M  V30 6435 C 610.388 -1.78535 0.546093 0
M  V30 6436 C 610.739 -1.72354 -0.937467 0
M  V30 6437 O 609.864 -1.2969 -1.73233 0
M  V30 6438 C 610.459 -3.24181 0.9845 0
M  V30 6439 C 609.018 -3.69779 0.702871 0
M  V30 6440 C 608.165 -2.51377 1.17068 0
M  V30 6441 H 611.116 -1.17746 1.06403 0
M  V30 6442 H 611.137 -3.79227 0.311045 0
M  V30 6443 H 610.649 -3.28647 2.06429 0
M  V30 6444 H 608.75 -3.70806 -0.365166 0
M  V30 6445 H 608.863 -4.61507 1.28639 0
M  V30 6446 H 607.227 -2.47768 0.590172 0
M  V30 6447 H 608.01 -2.58584 2.25808 0
M  V30 6448 N 610.455 -0.639598 -1.44038 0
M  V30 6449 C 611.683 -0.154811 -2.0632 0
M  V30 6450 C 612.098 1.17406 -1.47856 0
M  V30 6451 O 611.455 1.72193 -0.604638 0
M  V30 6452 C 611.506 -0.0429958 -3.61474 0
M  V30 6453 O 611.227 -1.31932 -4.17763 0
M  V30 6454 C 612.728 0.469486 -4.40807 0
M  V30 6455 H 609.948 -0.0835862 -0.665773 0
M  V30 6456 H 612.492 -0.876397 -1.84769 0
M  V30 6457 H 610.647 0.629075 -3.82258 0
M  V30 6458 H 611.061 -1.16965 -5.11292 0
M  V30 6459 H 612.535 0.496712 -5.49761 0
M  V30 6460 H 613.012 1.49819 -4.12857 0
M  V30 6461 H 613.618 -0.169624 -4.24962 0
M  V30 6462 N 611.933 1.52934 -0.380664 0
M  V30 6463 C 612.863 2.29118 0.450268 0
M  V30 6464 C 613.844 1.32153 1.07096 0
M  V30 6465 O 615.029 1.61038 1.08537 0
M  V30 6466 C 612.159 3.09161 1.58231 0
M  V30 6467 C 611.113 4.13938 1.0881 0
M  V30 6468 C 610.439 4.82153 2.31155 0
M  V30 6469 C 611.739 5.22048 0.162146 0
M  V30 6470 H 613.433 2.98826 -0.185361 0
M  V30 6471 H 610.979 1.43715 -0.0905886 0
M  V30 6472 H 612.932 3.61211 2.17036 0
M  V30 6473 H 611.656 2.3717 2.2454 0
M  V30 6474 H 610.315 3.62855 0.522633 0
M  V30 6475 H 609.963 4.06719 2.95953 0
M  V30 6476 H 609.663 5.52966 1.98752 0
M  V30 6477 H 611.187 5.37004 2.90618 0
M  V30 6478 H 612.601 5.6951 0.658126 0
M  V30 6479 H 610.998 6.00057 -0.0717122 0
M  V30 6480 H 612.068 4.78398 -0.791438 0
M  V30 6481 N 613.412 0.11024 1.57214 0
M  V30 6482 C 614.359 -0.843195 2.14846 0
M  V30 6483 C 615.329 -1.26954 1.07107 0
M  V30 6484 O 616.514 -1.34861 1.34971 0
M  V30 6485 C 613.654 -2.09123 2.74521 0
M  V30 6486 C 612.767 -1.71404 3.96541 0
M  V30 6487 C 611.902 -2.91107 4.44331 0
M  V30 6488 C 610.941 -2.49586 5.58903 0
M  V30 6489 N 610.078 -3.62175 6.01477 0
M  V30 6490 H 614.918 -0.344886 2.95998 0
M  V30 6491 H 612.455 -0.15855 1.46243 0
M  V30 6492 H 614.413 -2.82234 3.07246 0
M  V30 6493 H 613.043 -2.56427 1.96074 0
M  V30 6494 H 612.095 -0.88201 3.70033 0
M  V30 6495 H 613.407 -1.36884 4.7965 0
M  V30 6496 H 612.561 -3.72454 4.78919 0
M  V30 6497 H 611.3 -3.28848 3.60153 0
M  V30 6498 H 610.305 -1.6667 5.23929 0
M  V30 6499 H 611.53 -2.12973 6.4484 0
M  V30 6500 H 609.476 -3.99605 5.20242 0
M  V30 6501 H 609.393 -3.3155 6.79419 0
M  V30 6502 H 610.661 -4.43987 6.407 0
M  V30 6503 N 614.89 -1.56749 -0.16351 0
M  V30 6504 C 615.837 -1.97011 -1.2023 0
M  V30 6505 C 616.807 -0.835186 -1.43575 0
M  V30 6506 O 617.992 -1.09594 -1.56185 0
M  V30 6507 C 615.132 -2.34186 -2.53478 0
M  V30 6508 C 614.245 -3.60893 -2.37446 0
M  V30 6509 C 613.38 -3.87245 -3.63614 0
M  V30 6510 C 612.419 -5.07274 -3.42548 0
M  V30 6511 N 611.556 -5.29719 -4.60806 0
M  V30 6512 H 616.396 -2.85562 -0.851958 0
M  V30 6513 H 613.933 -1.41292 -0.409257 0
M  V30 6514 H 615.891 -2.53764 -3.31149 0
M  V30 6515 H 614.521 -1.48736 -2.86492 0
M  V30 6516 H 613.573 -3.49185 -1.50911 0
M  V30 6517 H 614.885 -4.48722 -2.1783 0
M  V30 6518 H 614.039 -4.07232 -4.49719 0
M  V30 6519 H 612.778 -2.97806 -3.86216 0
M  V30 6520 H 611.783 -4.87177 -2.5483 0
M  V30 6521 H 613.008 -5.98251 -3.2136 0
M  V30 6522 H 610.954 -4.43233 -4.83612 0
M  V30 6523 H 610.871 -6.11786 -4.44132 0
M  V30 6524 H 612.139 -5.54192 -5.48171 0
M  V30 6525 N 616.368 0.432326 -1.51554 0
M  V30 6526 C 617.3 1.54357 -1.6943 0
M  V30 6527 C 618.313 1.52311 -0.574897 0
M  V30 6528 O 619.502 1.56997 -0.849369 0
M  V30 6529 C 616.602 2.93273 -1.69836 0
M  V30 6530 C 615.775 3.19768 -2.98442 0
M  V30 6531 C 614.834 4.38433 -2.90969 0
M  V30 6532 O 613.86 4.36842 -3.64908 0
M  V30 6533 N 615.062 5.42276 -2.07163 0
M  V30 6534 H 617.827 1.39426 -2.65293 0
M  V30 6535 H 615.388 0.621331 -1.49503 0
M  V30 6536 H 617.38 3.70687 -1.62399 0
M  V30 6537 H 615.95 3.01777 -0.815456 0
M  V30 6538 H 615.17 2.30607 -3.19709 0
M  V30 6539 H 616.458 3.343 -3.83563 0
M  V30 6540 H 615.856 5.46407 -1.46477 0
M  V30 6541 H 614.413 6.18524 -2.05601 0
M  V30 6542 N 617.846 1.41785 0.688094 0
M  V30 6543 C 618.809 1.43936 1.78368 0
M  V30 6544 C 619.809 0.328866 1.57401 0
M  V30 6545 O 620.999 0.589093 1.63937 0
M  V30 6546 C 618.131 1.25804 3.16838 0
M  V30 6547 H 619.324 2.41472 1.77852 0
M  V30 6548 H 616.877 1.28037 0.896448 0
M  V30 6549 H 617.612 0.291386 3.22988 0
M  V30 6550 H 617.397 2.06272 3.33458 0
M  V30 6551 H 618.887 1.30162 3.96797 0
M  V30 6552 N 619.324 -0.923095 1.27737 0
M  V30 6553 C 620.287 -2.00587 1.10894 0
M  V30 6554 C 621.287 -1.60718 0.0514927 0
M  V30 6555 O 622.477 -1.71658 0.296481 0
M  V30 6556 C 619.609 -3.33829 0.690717 0
M  V30 6557 H 620.802 -2.16959 2.07048 0
M  V30 6558 H 618.355 -1.10451 1.1059 0
M  V30 6559 H 619.09 -3.23157 -0.272 0
M  V30 6560 H 618.875 -3.64125 1.45448 0
M  V30 6561 H 620.365 -4.13336 0.595252 0
M  V30 6562 N 620.802 -1.09834 -1.13024 0
M  V30 6563 C 622.213 -0.855651 -1.65938 0
M  V30 6564 C 622.564 0.615159 -1.86307 0
M  V30 6565 O 621.689 1.47335 -1.58497 0
M  V30 6566 C 622.284 -1.5467 -3.01434 0
M  V30 6567 C 620.843 -1.35088 -3.51323 0
M  V30 6568 C 619.99 -1.6001 -2.26478 0
M  V30 6569 H 622.941 -1.25691 -0.968889 0
M  V30 6570 H 622.962 -0.982179 -3.67605 0
M  V30 6571 H 622.474 -2.61715 -2.86578 0
M  V30 6572 H 620.575 -0.30179 -3.71376 0
M  V30 6573 H 620.688 -2.0886 -4.31178 0
M  V30 6574 H 619.052 -1.02246 -2.33276 0
M  V30 6575 H 619.835 -2.68293 -2.14182 0
M  V30 6576 N 622.28 1.30327 -0.886154 0
M  V30 6577 C 623.23 2.25668 -0.325248 0
M  V30 6578 C 624.214 1.51318 0.546972 0
M  V30 6579 O 625.406 1.72623 0.391203 0
M  V30 6580 C 622.535 3.40229 0.458167 0
M  V30 6581 C 621.621 4.21933 -0.428208 0
M  V30 6582 N 622.012 4.82129 -1.52921 0
M  V30 6583 C 620.31 4.45439 -0.223535 0
M  V30 6584 C 621.011 5.43351 -2.07714 0
M  V30 6585 N 619.987 5.26002 -1.37195 0
M  V30 6586 H 623.789 2.69759 -1.1665 0
M  V30 6587 H 621.303 1.4478 -0.735691 0
M  V30 6588 H 623.3 4.07579 0.876648 0
M  V30 6589 H 621.96 2.97678 1.29684 0
M  V30 6590 H 622.971 4.81312 -1.91205 0
M  V30 6591 H 619.648 4.13481 0.577875 0
M  V30 6592 H 621.038 6.01118 -3.00178 0
M  V30 6593 N 623.758 0.647228 1.43697 0
M  V30 6594 C 624.688 -0.0345631 2.33474 0
M  V30 6595 C 625.669 -0.818193 1.4913 0
M  V30 6596 O 626.854 -0.780867 1.77809 0
M  V30 6597 C 623.984 -1.00576 3.32418 0
M  V30 6598 C 622.938 -0.33266 4.26705 0
M  V30 6599 C 622.264 -1.41489 5.1564 0
M  V30 6600 C 623.564 0.771204 5.16575 0
M  V30 6601 H 625.258 0.715163 2.90733 0
M  V30 6602 H 622.804 0.345364 1.39797 0
M  V30 6603 H 624.757 -1.49159 3.94119 0
M  V30 6604 H 623.481 -1.78657 2.73403 0
M  V30 6605 H 622.14 0.13267 3.6636 0
M  V30 6606 H 621.788 -2.18698 4.52968 0
M  V30 6607 H 621.488 -0.969799 5.79542 0
M  V30 6608 H 623.012 -1.9022 5.80214 0
M  V30 6609 H 624.426 0.36779 5.72119 0
M  V30 6610 H 622.823 1.1404 5.89165 0
M  V30 6611 H 623.893 1.63169 4.56622 0
M  V30 6612 N 625.236 -1.5273 0.388769 0
M  V30 6613 C 626.183 -2.26437 -0.446639 0
M  V30 6614 C 627.153 -1.28025 -1.05824 0
M  V30 6615 O 628.338 -1.56852 -1.08637 0
M  V30 6616 C 625.478 -3.07407 -1.56828 0
M  V30 6617 C 624.591 -4.20747 -0.979589 0
M  V30 6618 C 623.726 -4.89113 -2.07224 0
M  V30 6619 C 622.765 -5.94447 -1.45942 0
M  V30 6620 N 621.902 -6.56411 -2.49135 0
M  V30 6621 H 626.742 -2.97404 0.18837 0
M  V30 6622 H 624.279 -1.46727 0.104725 0
M  V30 6623 H 626.237 -3.52642 -2.22934 0
M  V30 6624 H 624.867 -2.3865 -2.17361 0
M  V30 6625 H 623.919 -3.7983 -0.208151 0
M  V30 6626 H 625.231 -4.9637 -0.491747 0
M  V30 6627 H 624.385 -5.3765 -2.81101 0
M  V30 6628 H 623.124 -4.13013 -2.59368 0
M  V30 6629 H 622.129 -5.4525 -0.705894 0
M  V30 6630 H 623.354 -6.7248 -0.945932 0
M  V30 6631 H 621.3 -5.83152 -3.00449 0
M  V30 6632 H 621.217 -7.27645 -2.05105 0
M  V30 6633 H 622.485 -7.09592 -3.22644 0
M  V30 6634 N 626.714 -0.118576 -1.57153 0
M  V30 6635 C 627.677 0.817464 -2.14127 0
M  V30 6636 C 628.677 1.1949 -1.07604 0
M  V30 6637 O 629.867 1.12048 -1.33382 0
M  V30 6638 C 626.999 2.10541 -2.68115 0
M  V30 6639 H 628.192 0.322339 -2.98163 0
M  V30 6640 H 625.745 0.130655 -1.55753 0
M  V30 6641 H 626.48 2.64485 -1.87665 0
M  V30 6642 H 626.265 1.84425 -3.4602 0
M  V30 6643 H 627.755 2.77453 -3.12105 0
M  V30 6644 N 628.193 1.56834 0.155195 0
M  V30 6645 C 629.103 2.009 1.21146 0
M  V30 6646 C 630.119 0.923029 1.475 0
M  V30 6647 O 631.295 1.23189 1.59331 0
M  V30 6648 C 628.36 2.37378 2.52691 0
M  V30 6649 C 627.421 3.59883 2.34057 0
M  V30 6650 C 626.654 3.94612 3.59329 0
M  V30 6651 O 626.877 3.30104 4.65175 0
M  V30 6652 O 625.811 4.87895 3.52479 0
M  V30 6653 H 629.637 2.9105 0.867371 0
M  V30 6654 H 627.222 1.44916 0.363298 0
M  V30 6655 H 629.104 2.61737 3.3026 0
M  V30 6656 H 627.779 1.50385 2.86646 0
M  V30 6657 H 626.686 3.40722 1.54465 0
M  V30 6658 H 628.019 4.47468 2.0502 0
M  V30 6659 N 629.671 -0.424282 1.51781 0
M  V30 6660 C 630.917 -1.17434 1.6534 0
M  V30 6661 C 631.25 -1.90549 0.374806 0
M  V30 6662 O 630.525 -1.84145 -0.626179 0
M  V30 6663 C 630.808 -2.18093 2.86544 0
M  V30 6664 C 630.661 -1.48975 4.24413 0
M  V30 6665 C 631.98 -3.18934 3.03264 0
M  V30 6666 H 629.099 -0.425566 0.601716 0
M  V30 6667 H 631.741 -0.461921 1.84299 0
M  V30 6668 H 629.891 -2.78849 2.7051 0
M  V30 6669 H 631.563 -0.914551 4.52143 0
M  V30 6670 H 629.806 -0.791893 4.26511 0
M  V30 6671 H 630.477 -2.22347 5.05238 0
M  V30 6672 H 632.953 -2.68243 3.18096 0
M  V30 6673 H 631.829 -3.86645 3.89611 0
M  V30 6674 H 632.09 -3.85793 2.15908 0
M  V30 6675 N 631.149 -1.42148 -0.680565 0
M  V30 6676 C 632.397 -1.42029 -1.43779 0
M  V30 6677 C 632.718 -0.0356347 -1.94967 0
M  V30 6678 O 631.988 0.924936 -1.7269 0
M  V30 6679 H 630.568 -0.522835 -0.533529 0
M  V30 6680 H 633.23 -1.7752 -0.804538 0
M  V30 6681 H 632.326 -2.11658 -2.29363 0
M  V30 6682 N 632.627 0.916307 -1.28225 0
M  V30 6683 C 633.575 2.03977 -1.11786 0
M  V30 6684 C 634.569 1.69358 -0.0378265 0
M  V30 6685 O 635.775 1.78925 -0.196405 0
M  V30 6686 H 632.15 0.66829 -0.344809 0
M  V30 6687 H 634.121 2.14985 -2.06939 0
M  V30 6688 C 632.87 3.38518 -0.7938 0
M  V30 6689 H 632.193 3.65649 -1.61682 0
M  V30 6690 H 633.633 4.17864 -0.718719 0
M  V30 6691 C 632.092 3.33134 0.502353 0
M  V30 6692 O 632.622 3.71281 1.53341 0
M  V30 6693 N 630.828 2.86229 0.502147 0
M  V30 6694 H 630.375 2.55382 -0.337338 0
M  V30 6695 H 630.333 2.83009 1.36942 0
M  V30 6696 N 634.105 1.10431 1.1244 0
M  V30 6697 C 635.33 0.869089 1.88313 0
M  V30 6698 C 635.755 -0.574912 1.79099 0
M  V30 6699 O 635.113 -1.40496 1.14589 0
M  V30 6700 C 635.161 1.32208 3.3549 0
M  V30 6701 O 634.265 0.487092 4.09513 0
M  V30 6702 H 633.606 0.313894 0.585121 0
M  V30 6703 H 636.136 1.47111 1.42195 0
M  V30 6704 H 636.146 1.31201 3.86329 0
M  V30 6705 H 634.821 2.37364 3.41513 0
M  V30 6706 H 633.398 0.562372 3.68635 0
M  V30 6707 N 635.583 -1.29855 0.893053 0
M  V30 6708 C 636.516 -2.26079 0.3104 0
M  V30 6709 C 637.494 -1.52145 -0.573644 0
M  V30 6710 O 638.678 -1.8113 -0.521937 0
M  V30 6711 C 635.805 -3.34069 -0.558179 0
M  V30 6712 C 634.851 -4.25721 0.257638 0
M  V30 6713 S 635.684 -5.09409 1.65114 0
M  V30 6714 C 636.84 -6.20903 0.789307 0
M  V30 6715 H 637.073 -2.75151 1.12602 0
M  V30 6716 H 634.606 -1.37975 0.692978 0
M  V30 6717 H 636.564 -3.9675 -1.05355 0
M  V30 6718 H 635.225 -2.83705 -1.34797 0
M  V30 6719 H 634.418 -5.02366 -0.405562 0
M  V30 6720 H 634.02 -3.67656 0.685917 0
M  V30 6721 H 636.312 -6.77499 0.00978451 0
M  V30 6722 H 637.255 -6.91426 1.52762 0
M  V30 6723 H 637.663 -5.63435 0.346634 0
M  V30 6724 N 637.061 -0.65484 -1.43351 0
M  V30 6725 C 637.991 0.0221809 -2.33489 0
M  V30 6726 C 638.972 0.810272 -1.49561 0
M  V30 6727 O 640.157 0.771426 -1.78221 0
M  V30 6728 C 637.287 0.988117 -3.32947 0
M  V30 6729 C 636.241 0.310026 -4.26876 0
M  V30 6730 C 635.567 1.38752 -5.16384 0
M  V30 6731 C 636.867 -0.798589 -5.16159 0
M  V30 6732 H 638.561 -0.730571 -2.9035 0
M  V30 6733 H 636.107 -0.352773 -1.39612 0
M  V30 6734 H 638.06 1.47067 -3.94904 0
M  V30 6735 H 636.784 1.77205 -2.74346 0
M  V30 6736 H 635.443 -0.152097 -3.66284 0
M  V30 6737 H 635.091 2.16293 -4.54121 0
M  V30 6738 H 634.791 0.939051 -5.80048 0
M  V30 6739 H 636.315 1.87141 -5.81215 0
M  V30 6740 H 637.729 -0.398126 -5.71916 0
M  V30 6741 H 636.126 -1.17163 -5.88552 0
M  V30 6742 H 637.196 -1.65588 -4.55751 0
M  V30 6743 N 638.539 1.52521 -0.396863 0
M  V30 6744 C 639.469 2.29582 0.425941 0
M  V30 6745 C 640.45 1.33281 1.05689 0
M  V30 6746 O 641.635 1.62181 1.06823 0
M  V30 6747 C 638.765 3.10821 1.54943 0
M  V30 6748 C 637.719 4.15069 1.04413 0
M  V30 6749 C 637.045 4.84578 2.26028 0
M  V30 6750 C 638.345 5.22191 0.106767 0
M  V30 6751 H 640.039 2.98612 -0.217045 0
M  V30 6752 H 637.585 1.43611 -0.105826 0
M  V30 6753 H 639.538 3.63492 2.13193 0
M  V30 6754 H 638.262 2.39538 2.22011 0
M  V30 6755 H 636.921 3.63389 0.484118 0
M  V30 6756 H 636.569 4.09835 2.91623 0
M  V30 6757 H 636.269 5.55043 1.92876 0
M  V30 6758 H 637.793 5.40056 2.84906 0
M  V30 6759 H 639.207 5.70176 0.597685 0
M  V30 6760 H 637.604 5.99947 -0.135352 0
M  V30 6761 H 638.674 4.77531 -0.842134 0
M  V30 6762 N 640.017 0.126909 1.57088 0
M  V30 6763 C 641.245 -0.53667 1.99819 0
M  V30 6764 C 641.66 -1.5972 1.00673 0
M  V30 6765 O 641.017 -1.825 0.000747365 0
M  V30 6766 C 641.068 -1.15563 3.42531 0
M  V30 6767 O 640.789 -0.137483 4.37884 0
M  V30 6768 C 642.29 -1.90176 4.00435 0
M  V30 6769 H 639.51 -0.141443 0.655923 0
M  V30 6770 H 642.054 0.215578 2.03361 0
M  V30 6771 H 640.209 -1.85861 3.39904 0
M  V30 6772 H 640.623 -0.588229 5.21191 0
M  V30 6773 H 642.097 -2.28801 5.02349 0
M  V30 6774 H 642.574 -2.78002 3.40017 0
M  V30 6775 H 643.18 -1.24623 4.06632 0
M  V30 6776 N 641.495 -1.56914 -0.146875 0
M  V30 6777 C 642.743 -1.82994 -0.85777 0
M  V30 6778 C 643.064 -0.707814 -1.817 0
M  V30 6779 O 642.334 0.270521 -1.94023 0
M  V30 6780 H 640.914 -0.675106 -0.319751 0
M  V30 6781 H 643.576 -1.9439 -0.140849 0
M  V30 6782 H 642.672 -2.77928 -1.41994 0
M  V30 6783 N 642.974 0.416227 -1.52004 0
M  V30 6784 C 643.924 1.50558 -1.7122 0
M  V30 6785 C 644.908 1.50613 -0.56609 0
M  V30 6786 O 646.1 1.56709 -0.822874 0
M  V30 6787 C 643.229 2.88556 -1.85984 0
M  V30 6788 C 642.315 2.93177 -3.06445 0
M  V30 6789 N 642.706 2.67505 -4.29272 0
M  V30 6790 C 641.004 3.24343 -3.06133 0
M  V30 6791 C 641.705 2.78511 -5.10692 0
M  V30 6792 N 640.681 3.11087 -4.45787 0
M  V30 6793 H 644.483 1.29494 -2.63834 0
M  V30 6794 H 641.997 0.62384 -1.4994 0
M  V30 6795 H 643.994 3.66954 -1.97865 0
M  V30 6796 H 642.654 3.10624 -0.945654 0
M  V30 6797 H 643.665 2.42033 -4.57865 0
M  V30 6798 H 640.342 3.52051 -2.24425 0
M  V30 6799 H 641.732 2.62438 -6.18527 0
M  V30 6800 N 644.452 1.42507 0.673017 0
M  V30 6801 C 645.701 1.42364 1.42883 0
M  V30 6802 C 646.014 0.0441598 1.9555 0
M  V30 6803 O 647.22 -0.0798679 2.71382 0
M  V30 6804 C 645.676 2.5043 2.58482 0
M  V30 6805 C 645.284 3.94392 2.12506 0
M  V30 6806 C 647.028 2.59455 3.35981 0
M  V30 6807 C 644.935 4.93964 3.25198 0
M  V30 6808 H 643.865 0.52951 0.536782 0
M  V30 6809 H 646.516 1.68422 0.728448 0
M  V30 6810 H 644.898 2.1754 3.30896 0
M  V30 6811 H 646.072 4.36645 1.47233 0
M  V30 6812 H 644.387 3.89233 1.4794 0
M  V30 6813 H 646.984 3.31025 4.19912 0
M  V30 6814 H 647.327 1.63869 3.82691 0
M  V30 6815 H 647.86 2.91549 2.70637 0
M  V30 6816 H 644.599 5.91034 2.83477 0
M  V30 6817 H 644.119 4.56341 3.89247 0
M  V30 6818 H 645.798 5.15763 3.90637 0
M  V30 6819 N 645.93 -0.909495 1.28709 0
M  V30 6820 C 646.86 -2.0291 1.15542 0
M  V30 6821 C 647.841 -1.7002 0.0521017 0
M  V30 6822 O 649.026 -1.92835 0.229849 0
M  V30 6823 C 646.156 -3.37458 0.820935 0
M  V30 6824 C 645.11 -3.84524 1.87949 0
M  V30 6825 C 644.436 -5.16086 1.39854 0
M  V30 6826 C 645.736 -4.05918 3.28676 0
M  V30 6827 H 647.43 -2.14183 2.09203 0
M  V30 6828 H 644.976 -1.02913 1.00722 0
M  V30 6829 H 646.929 -4.1528 0.715571 0
M  V30 6830 H 645.653 -3.26249 -0.151374 0
M  V30 6831 H 644.312 -3.08911 1.97408 0
M  V30 6832 H 643.96 -5.01284 0.41518 0
M  V30 6833 H 643.66 -5.48547 2.1064 0
M  V30 6834 H 645.184 -5.96459 1.30649 0
M  V30 6835 H 646.598 -4.74252 3.22115 0
M  V30 6836 H 644.995 -4.49717 3.97334 0
M  V30 6837 H 646.065 -3.10583 3.72379 0
M  V30 6838 N 647.408 -1.11026 -1.11852 0
M  V30 6839 C 648.657 -0.851249 -1.82857 0
M  V30 6840 C 648.97 0.62514 -1.85341 0
M  V30 6841 O 650.176 1.00026 -2.52403 0
M  V30 6842 C 648.632 -1.47309 -3.28372 0
M  V30 6843 C 648.24 -2.9832 -3.34229 0
M  V30 6844 C 649.984 -1.29373 -4.04306 0
M  V30 6845 C 647.891 -3.53509 -4.74115 0
M  V30 6846 H 646.821 -0.314794 -0.685143 0
M  V30 6847 H 649.472 -1.33499 -1.25898 0
M  V30 6848 H 647.854 -0.917017 -3.85236 0
M  V30 6849 H 649.028 -3.60295 -2.87271 0
M  V30 6850 H 647.343 -3.15482 -2.71772 0
M  V30 6851 H 649.94 -1.68042 -5.07608 0
M  V30 6852 H 650.283 -0.235879 -4.15631 0
M  V30 6853 H 650.816 -1.8182 -3.53817 0
M  V30 6854 H 647.555 -4.58987 -4.67986 0
M  V30 6855 H 647.075 -2.96305 -5.21501 0
M  V30 6856 H 648.754 -3.51693 -5.43066 0
M  V30 6857 N 648.886 1.2938 -0.899927 0
M  V30 6858 C 649.816 2.30144 -0.39446 0
M  V30 6859 C 650.797 1.61611 0.530639 0
M  V30 6860 O 651.982 1.89119 0.441319 0
M  V30 6861 C 649.112 3.45229 0.37868 0
M  V30 6862 C 648.066 4.25564 -0.456012 0
M  V30 6863 C 647.392 5.32848 0.444637 0
M  V30 6864 C 648.692 4.93651 -1.70605 0
M  V30 6865 H 650.386 2.72673 -1.23653 0
M  V30 6866 H 647.932 1.31086 -0.596034 0
M  V30 6867 H 649.885 4.14797 0.743037 0
M  V30 6868 H 648.609 3.01545 1.25453 0
M  V30 6869 H 647.268 3.57704 -0.802704 0
M  V30 6870 H 646.916 4.85408 1.31863 0
M  V30 6871 H 646.616 5.87497 -0.110154 0
M  V30 6872 H 648.14 6.05268 0.805182 0
M  V30 6873 H 649.554 5.55655 -1.41141 0
M  V30 6874 H 647.951 5.58233 -2.20217 0
M  V30 6875 H 649.021 4.18926 -2.4419 0
M  V30 6876 N 650.364 0.662433 1.43002 0
M  V30 6877 C 651.294 -0.00979809 2.33498 0
M  V30 6878 C 652.275 -0.802329 1.49989 0
M  V30 6879 O 653.46 -0.761964 1.78627 0
M  V30 6880 C 650.59 -0.970446 3.33466 0
M  V30 6881 C 649.544 -0.287383 4.27034 0
M  V30 6882 C 648.87 -1.36012 5.17112 0
M  V30 6883 C 650.17 0.82595 5.15728 0
M  V30 6884 H 651.864 0.745959 2.89958 0
M  V30 6885 H 649.41 0.360172 1.39423 0
M  V30 6886 H 651.363 -1.44971 3.95679 0
M  V30 6887 H 650.087 -1.75748 2.75282 0
M  V30 6888 H 648.746 0.17152 3.66199 0
M  V30 6889 H 648.394 -2.13882 4.55262 0
M  V30 6890 H 648.094 -0.908276 5.80538 0
M  V30 6891 H 649.618 -1.84056 5.82199 0
M  V30 6892 H 651.032 0.42845 5.71697 0
M  V30 6893 H 649.429 1.20282 5.87922 0
M  V30 6894 H 650.499 1.68003 4.54866 0
M  V30 6895 N 651.842 -1.52309 0.404946 0
M  V30 6896 C 653.09 -2.01368 -0.17186 0
M  V30 6897 C 653.411 -1.29261 -1.46002 0
M  V30 6898 O 652.681 -0.41729 -1.91404 0
M  V30 6899 H 651.261 -0.744034 -0.0664993 0
M  V30 6900 H 653.923 -1.87263 0.540228 0
M  V30 6901 H 653.019 -3.09888 -0.370957 0
M  V30 6902 N 653.32 -0.135238 -1.57019 0
M  V30 6903 C 654.568 0.51777 -1.95355 0
M  V30 6904 C 654.889 1.6617 -1.02042 0
M  V30 6905 O 654.159 1.95738 -0.0797343 0
M  V30 6906 H 652.739 0.194264 -0.721298 0
M  V30 6907 H 655.401 -0.207983 -1.93787 0
M  V30 6908 H 654.497 0.901675 -2.98791 0
M  V30 6909 N 654.798 1.5699 0.138552 0
M  V30 6910 C 656.047 1.82998 0.848205 0
M  V30 6911 C 656.36 0.717829 1.81952 0
M  V30 6912 O 657.566 0.863756 2.57394 0
M  V30 6913 C 656.022 3.24379 1.55904 0
M  V30 6914 C 655.63 4.43552 0.62971 0
M  V30 6915 C 657.374 3.59654 2.25498 0
M  V30 6916 C 655.281 5.75957 1.34266 0
M  V30 6917 H 654.211 0.682495 0.320495 0
M  V30 6918 H 656.862 1.83222 0.100924 0
M  V30 6919 H 655.244 3.18567 2.35226 0
M  V30 6920 H 656.418 4.6062 -0.128882 0
M  V30 6921 H 654.733 4.16379 0.0417526 0
M  V30 6922 H 657.33 4.55837 2.79493 0
M  V30 6923 H 657.673 2.86124 3.02388 0
M  V30 6924 H 658.206 3.67164 1.53087 0
M  V30 6925 H 654.945 6.52604 0.615441 0
M  V30 6926 H 654.465 5.62811 2.07375 0
M  V30 6927 H 656.144 6.19046 1.88126 0
M  V30 6928 N 656.276 -0.40816 1.52223 0
M  V30 6929 C 657.506 -1.17501 1.69932 0
M  V30 6930 C 657.914 -1.84729 0.408874 0
M  V30 6931 O 657.257 -1.7274 -0.625025 0
M  V30 6932 C 657.319 -2.27994 2.77955 0
M  V30 6933 C 656.983 -1.80894 4.19674 0
M  V30 6934 C 657.98 -1.29618 5.03483 0
M  V30 6935 C 655.665 -1.87698 4.65913 0
M  V30 6936 C 657.659 -0.857695 6.31603 0
M  V30 6937 C 655.346 -1.43461 5.94022 0
M  V30 6938 C 656.344 -0.925822 6.76696 0
M  V30 6939 O 656.032 -0.489841 8.02406 0
M  V30 6940 H 655.764 -0.359065 0.572755 0
M  V30 6941 H 658.318 -0.486188 1.99563 0
M  V30 6942 H 656.548 -3.00243 2.43703 0
M  V30 6943 H 658.237 -2.89749 2.84254 0
M  V30 6944 H 659.003 -1.23733 4.68951 0
M  V30 6945 H 654.882 -2.26244 4.01665 0
M  V30 6946 H 658.426 -0.459879 6.96083 0
M  V30 6947 H 654.323 -1.49026 6.28062 0
M  V30 6948 H 655.091 -0.613062 8.16201 0
M  V30 6949 N 657.755 -1.42862 -0.66545 0
M  V30 6950 C 658.685 -1.49867 -1.79059 0
M  V30 6951 C 659.666 -0.354394 -1.66367 0
M  V30 6952 O 660.851 -0.569969 -1.85647 0
M  V30 6953 C 657.981 -1.40943 -3.17415 0
M  V30 6954 C 656.935 -2.53495 -3.44854 0
M  V30 6955 C 656.261 -2.29626 -4.82883 0
M  V30 6956 C 657.561 -3.95781 -3.40815 0
M  V30 6957 H 659.255 -2.44037 -1.73453 0
M  V30 6958 H 656.801 -1.17456 -0.833071 0
M  V30 6959 H 658.754 -1.4445 -3.95869 0
M  V30 6960 H 657.478 -0.432716 -3.23721 0
M  V30 6961 H 656.137 -2.4932 -2.68766 0
M  V30 6962 H 655.785 -1.30226 -4.8585 0
M  V30 6963 H 655.485 -3.05065 -5.02204 0
M  V30 6964 H 657.009 -2.34897 -5.63609 0
M  V30 6965 H 658.423 -4.01508 -4.09224 0
M  V30 6966 H 656.82 -4.71148 -3.71672 0
M  V30 6967 H 657.89 -4.21786 -2.39216 0
M  V30 6968 N 659.233 0.902656 -1.29189 0
M  V30 6969 C 660.163 2.02294 -1.16616 0
M  V30 6970 C 661.144 1.6999 -0.0611175 0
M  V30 6971 O 662.329 1.9271 -0.240072 0
M  V30 6972 C 659.459 3.37018 -0.83882 0
M  V30 6973 C 658.413 3.83522 -1.89986 0
M  V30 6974 C 657.739 5.15337 -1.42589 0
M  V30 6975 C 659.039 4.04169 -3.30824 0
M  V30 6976 H 660.733 2.13071 -2.10336 0
M  V30 6977 H 658.279 1.02378 -1.01266 0
M  V30 6978 H 660.232 4.14895 -0.737584 0
M  V30 6979 H 658.956 3.26325 0.134071 0
M  V30 6980 H 657.615 3.07859 -1.99043 0
M  V30 6981 H 657.263 5.01056 -0.441759 0
M  V30 6982 H 656.963 5.47423 -2.13547 0
M  V30 6983 H 658.487 5.95758 -1.3381 0
M  V30 6984 H 659.901 4.72537 -3.24626 0
M  V30 6985 H 658.298 4.47604 -3.99713 0
M  V30 6986 H 659.368 3.08604 -3.74021 0
M  V30 6987 N 660.711 1.11618 1.11262 0
M  V30 6988 C 661.957 0.867463 1.83311 0
M  V30 6989 C 662.29 -0.605366 1.84524 0
M  V30 6990 O 661.565 -1.44704 1.29965 0
M  V30 6991 C 661.848 1.43207 3.30399 0
M  V30 6992 C 661.701 2.97265 3.3757 0
M  V30 6993 C 663.02 1.08454 4.26528 0
M  V30 6994 H 660.139 0.316578 0.665543 0
M  V30 6995 H 662.781 1.38137 1.30454 0
M  V30 6996 H 660.931 0.994982 3.75543 0
M  V30 6997 H 662.603 3.49591 3.00971 0
M  V30 6998 H 660.846 3.33237 2.77733 0
M  V30 6999 H 661.517 3.31859 4.41105 0
M  V30 7000 H 663.993 1.4619 3.89574 0
M  V30 7001 H 662.869 1.50633 5.27826 0
M  V30 7002 H 663.13 -0.00444568 4.421 0
M  V30 7003 N 662.189 -1.289 0.906776 0
M  V30 7004 C 663.437 -1.94883 0.535266 0
M  V30 7005 C 663.758 -1.71784 -0.922791 0
M  V30 7006 O 663.028 -1.05359 -1.65156 0
M  V30 7007 H 661.608 -0.721109 0.194962 0
M  V30 7008 H 664.27 -1.57018 1.15461 0
M  V30 7009 H 663.366 -3.03591 0.723821 0
M  V30 7010 N 663.667 -0.670007 -1.42649 0
M  V30 7011 C 664.599 0.0501746 -2.29145 0
M  V30 7012 C 665.612 0.770331 -1.43422 0
M  V30 7013 O 666.801 0.625288 -1.6719 0
M  V30 7014 C 663.901 1.09463 -3.20735 0
M  V30 7015 C 663.074 0.44926 -4.35087 0
M  V30 7016 C 662.133 1.39285 -5.07431 0
M  V30 7017 O 661.159 0.894997 -5.6212 0
M  V30 7018 N 662.361 2.72631 -5.12496 0
M  V30 7019 H 665.126 -0.692312 -2.91594 0
M  V30 7020 H 662.687 -0.514056 -1.53522 0
M  V30 7021 H 664.679 1.72705 -3.65999 0
M  V30 7022 H 663.249 1.73891 -2.59771 0
M  V30 7023 H 662.469 -0.362573 -3.92529 0
M  V30 7024 H 663.757 -0.000544776 -5.088 0
M  V30 7025 H 663.155 3.15623 -4.69467 0
M  V30 7026 H 661.712 3.31132 -5.61422 0
M  V30 7027 N 665.145 1.52092 -0.413018 0
M  V30 7028 C 666.075 2.30021 0.401567 0
M  V30 7029 C 667.056 1.34395 1.04269 0
M  V30 7030 O 668.241 1.63304 1.05097 0
M  V30 7031 C 665.371 3.12447 1.51638 0
M  V30 7032 C 664.325 4.16153 1.00005 0
M  V30 7033 C 663.651 4.86948 2.20875 0
M  V30 7034 C 664.951 5.22275 0.0513757 0
M  V30 7035 H 666.645 2.98365 -0.248704 0
M  V30 7036 H 664.191 1.4349 -0.121052 0
M  V30 7037 H 666.144 3.65733 2.09326 0
M  V30 7038 H 664.868 2.41879 2.19458 0
M  V30 7039 H 663.527 3.63882 0.445549 0
M  V30 7040 H 663.175 4.12905 2.8726 0
M  V30 7041 H 662.875 5.57057 1.86978 0
M  V30 7042 H 664.399 5.43048 2.79162 0
M  V30 7043 H 665.813 5.70778 0.537176 0
M  V30 7044 H 664.21 5.9977 -0.198977 0
M  V30 7045 H 665.28 4.76611 -0.892736 0
M  V30 7046 N 666.623 0.143563 1.56945 0
M  V30 7047 C 667.869 -0.502787 1.97088 0
M  V30 7048 C 668.224 -1.62703 1.02691 0
M  V30 7049 O 667.517 -1.91502 0.0613323 0
M  V30 7050 C 667.711 -1.05885 3.41355 0
M  V30 7051 C 667.54 0.00998209 4.49699 0
M  V30 7052 C 666.31 0.450229 5.0329 0
M  V30 7053 C 668.508 0.800174 5.08037 0
M  V30 7054 N 666.49 1.50227 5.95235 0
M  V30 7055 C 667.861 1.70279 5.96158 0
M  V30 7056 C 669.916 0.848344 4.9062 0
M  V30 7057 C 668.619 2.64945 6.68728 0
M  V30 7058 C 670.645 1.78281 5.63888 0
M  V30 7059 C 670.007 2.67296 6.51715 0
M  V30 7060 H 666.106 -0.152891 0.766908 0
M  V30 7061 H 668.69 0.23737 1.93248 0
M  V30 7062 H 666.861 -1.76863 3.45795 0
M  V30 7063 H 668.593 -1.67154 3.68567 0
M  V30 7064 H 665.348 0.0531355 4.7357 0
M  V30 7065 H 665.772 2.02795 6.45913 0
M  V30 7066 H 670.414 0.174228 4.22441 0
M  V30 7067 H 668.132 3.33358 7.36137 0
M  V30 7068 H 671.718 1.82584 5.52408 0
M  V30 7069 H 670.598 3.38428 7.07415 0
M  V30 7070 N 668.101 -1.57061 -0.130224 0
M  V30 7071 C 669.331 -1.88159 -0.853217 0
M  V30 7072 C 669.739 -0.731675 -1.7448 0
M  V30 7073 O 669.082 0.307035 -1.81116 0
M  V30 7074 C 669.144 -3.1415 -1.74785 0
M  V30 7075 C 668.808 -4.45202 -1.03173 0
M  V30 7076 C 669.805 -5.18526 -0.377759 0
M  V30 7077 C 667.49 -4.91912 -1.01624 0
M  V30 7078 C 669.484 -6.36775 0.282123 0
M  V30 7079 C 667.171 -6.10082 -0.352555 0
M  V30 7080 C 668.169 -6.82361 0.295483 0
M  V30 7081 O 667.857 -7.98284 0.948606 0
M  V30 7082 H 667.589 -0.627596 -0.251197 0
M  V30 7083 H 670.143 -2.05034 -0.1226 0
M  V30 7084 H 668.373 -2.93328 -2.51983 0
M  V30 7085 H 670.062 -3.31359 -2.34427 0
M  V30 7086 H 670.828 -4.83498 -0.381417 0
M  V30 7087 H 666.707 -4.35566 -1.51007 0
M  V30 7088 H 670.251 -6.93129 0.788525 0
M  V30 7089 H 666.148 -6.44569 -0.346621 0
M  V30 7090 H 666.916 -8.14054 0.851954 0
M  V30 7091 N 669.579 0.400081 -1.52437 0
M  V30 7092 C 670.826 1.14619 -1.6694 0
M  V30 7093 C 671.154 1.90262 -0.403797 0
M  V30 7094 O 670.409 1.85835 0.61351 0
M  V30 7095 C 670.708 2.15914 -2.84808 0
M  V30 7096 C 670.374 1.57011 -4.2268 0
M  V30 7097 C 669.036 1.40672 -4.60179 0
M  V30 7098 C 671.388 1.14081 -5.08562 0
M  V30 7099 C 668.716 0.799335 -5.81229 0
M  V30 7100 C 671.068 0.547573 -6.30226 0
M  V30 7101 C 669.732 0.371389 -6.66466 0
M  V30 7102 H 669.002 0.419419 -0.610875 0
M  V30 7103 H 671.649 0.432227 -1.86558 0
M  V30 7104 H 669.954 2.93488 -2.59561 0
M  V30 7105 H 671.651 2.73533 -2.93225 0
M  V30 7106 H 668.241 1.70713 -3.93135 0
M  V30 7107 H 672.425 1.2551 -4.80168 0
M  V30 7108 H 667.681 0.65093 -6.07925 0
M  V30 7109 H 671.855 0.206575 -6.96094 0
M  V30 7110 H 669.482 -0.10135 -7.60132 0
M  V30 7111 N 671.057 1.43213 0.657864 0
M  V30 7112 C 672.303 1.45795 1.41829 0
M  V30 7113 C 672.658 0.0792176 1.92237 0
M  V30 7114 O 671.951 -0.901406 1.69072 0
M  V30 7115 C 672.145 2.43143 2.61947 0
M  V30 7116 C 671.974 3.90345 2.23295 0
M  V30 7117 C 670.744 4.58749 2.11843 0
M  V30 7118 C 672.942 4.80308 1.83873 0
M  V30 7119 N 670.924 5.90898 1.66473 0
M  V30 7120 C 672.295 6.01693 1.49549 0
M  V30 7121 C 674.35 4.67609 1.71015 0
M  V30 7122 C 673.053 7.11792 1.03657 0
M  V30 7123 C 675.079 5.77707 1.26527 0
M  V30 7124 C 674.441 6.98215 0.931379 0
M  V30 7125 H 670.54 0.588628 0.514822 0
M  V30 7126 H 673.124 1.7936 0.7575 0
M  V30 7127 H 671.295 2.11612 3.25692 0
M  V30 7128 H 673.027 2.36193 3.28626 0
M  V30 7129 H 669.782 4.1319 2.31453 0
M  V30 7130 H 670.206 6.61034 1.46163 0
M  V30 7131 H 674.848 3.74902 1.95469 0
M  V30 7132 H 672.566 8.04332 0.779502 0
M  V30 7133 H 676.152 5.69899 1.17074 0
M  V30 7134 H 675.032 7.81959 0.592379 0
M  V30 7135 N 672.536 -0.895792 1.29666 0
M  V30 7136 C 673.952 -1.17726 1.07763 0
M  V30 7137 C 674.152 -2.00794 -0.168576 0
M  V30 7138 O 673.208 -2.37213 -0.865244 0
M  V30 7139 C 674.521 -1.89441 2.33522 0
M  V30 7140 C 676.069 -2.02251 2.3888 0
M  V30 7141 C 676.544 -2.77378 3.64452 0
M  V30 7142 N 678.035 -2.8493 3.65198 0
M  V30 7143 C 678.77 -3.43606 4.59045 0
M  V30 7144 N 678.266 -4.03417 5.63228 0
M  V30 7145 N 680.059 -3.41317 4.46608 0
M  V30 7146 H 672.21 -0.341652 2.09634 0
M  V30 7147 H 674.473 -0.213865 0.923561 0
M  V30 7148 H 674.179 -1.35842 3.24407 0
M  V30 7149 H 674.053 -2.89893 2.41334 0
M  V30 7150 H 676.44 -2.55025 1.4848 0
M  V30 7151 H 676.521 -1.0092 2.3505 0
M  V30 7152 H 676.165 -2.25279 4.55205 0
M  V30 7153 H 676.095 -3.79062 3.65541 0
M  V30 7154 H 678.586 -2.42453 2.89871 0
M  V30 7155 H 678.899 -4.46224 6.30955 0
M  V30 7156 H 677.244 -4.01868 5.67033 0
M  V30 7157 H 680.435 -2.93812 3.64407 0
M  V30 7158 H 680.608 -3.86751 5.1993 0
M  V30 7159 N 674.014 -1.12206 -1.10668 0
M  V30 7160 C 675.43 -0.857619 -1.346 0
M  V30 7161 C 675.63 0.513542 -1.94846 0
M  V30 7162 O 674.686 1.26273 -2.18658 0
M  V30 7163 C 675.999 -1.97212 -2.26998 0
M  V30 7164 C 677.547 -2.00272 -2.40542 0
M  V30 7165 C 678.022 -3.10948 -3.36267 0
M  V30 7166 N 679.513 -3.10375 -3.43834 0
M  V30 7167 C 680.248 -3.92651 -4.17867 0
M  V30 7168 N 679.744 -4.84911 -4.94807 0
M  V30 7169 N 681.537 -3.80798 -4.1346 0
M  V30 7170 H 673.688 -2.00558 -0.699306 0
M  V30 7171 H 675.951 -0.872612 -0.370477 0
M  V30 7172 H 675.657 -2.96002 -1.89936 0
M  V30 7173 H 675.531 -1.87521 -3.27286 0
M  V30 7174 H 677.918 -1.02103 -2.76874 0
M  V30 7175 H 677.999 -2.14037 -1.40077 0
M  V30 7176 H 677.643 -4.09348 -3.00661 0
M  V30 7177 H 677.573 -2.94421 -4.36605 0
M  V30 7178 H 680.064 -2.43536 -2.88961 0
M  V30 7179 H 680.377 -5.44207 -5.48688 0
M  V30 7180 H 678.722 -4.88926 -4.93939 0
M  V30 7181 H 681.913 -3.08058 -3.52445 0
M  V30 7182 H 682.086 -4.4515 -4.70898 0
M  V30 7183 N 675.492 1.28418 -0.913599 0
M  V30 7184 C 676.442 2.24928 -0.373042 0
M  V30 7185 C 677.426 1.52444 0.514753 0
M  V30 7186 O 678.618 1.73414 0.3545 0
M  V30 7187 C 675.747 3.41124 0.385896 0
M  V30 7188 C 674.833 4.20929 -0.51761 0
M  V30 7189 N 675.224 4.78777 -1.63113 0
M  V30 7190 C 673.522 4.44865 -0.317969 0
M  V30 7191 C 674.223 5.38822 -2.19193 0
M  V30 7192 N 673.199 5.22974 -1.48321 0
M  V30 7193 H 677.001 2.67224 -1.22346 0
M  V30 7194 H 674.515 1.43187 -0.766236 0
M  V30 7195 H 676.512 4.09347 0.789997 0
M  V30 7196 H 675.172 3.00362 1.23341 0
M  V30 7197 H 676.183 4.77148 -2.01372 0
M  V30 7198 H 672.86 4.14614 0.49004 0
M  V30 7199 H 674.25 5.94615 -3.12861 0
M  V30 7200 N 676.97 0.677563 1.42291 0
M  V30 7201 C 678.216 0.201272 2.01799 0
M  V30 7202 C 678.549 -1.19004 1.53465 0
M  V30 7203 O 677.824 -1.79953 0.738039 0
M  V30 7204 C 678.107 0.238968 3.59306 0
M  V30 7205 C 677.96 1.66594 4.17812 0
M  V30 7206 C 679.279 -0.411287 4.38174 0
M  V30 7207 H 676.398 0.0746114 0.733214 0
M  V30 7208 H 679.04 0.862872 1.69276 0
M  V30 7209 H 677.19 -0.324368 3.87144 0
M  V30 7210 H 678.862 2.28173 4.00917 0
M  V30 7211 H 677.105 2.20576 3.73536 0
M  V30 7212 H 677.776 1.64398 5.26951 0
M  V30 7213 H 680.252 0.0682804 4.16044 0
M  V30 7214 H 679.128 -0.354286 5.47755 0
M  V30 7215 H 679.389 -1.4893 4.1626 0
M  V30 7216 N 678.448 -1.51871 0.421078 0
M  V30 7217 C 679.695 -2.01938 -0.15079 0
M  V30 7218 C 680.023 -1.30611 -1.44121 0
M  V30 7219 O 679.278 -0.404631 -1.91471 0
M  V30 7220 C 679.577 -3.54764 -0.433292 0
M  V30 7221 C 679.243 -4.44288 0.76936 0
M  V30 7222 C 677.905 -4.68477 1.09921 0
M  V30 7223 C 680.257 -4.96915 1.57242 0
M  V30 7224 C 677.585 -5.4254 2.2331 0
M  V30 7225 C 679.937 -5.7222 2.69716 0
M  V30 7226 C 678.601 -5.94678 3.03174 0
M  V30 7227 H 677.871 -0.738943 -0.0551781 0
M  V30 7228 H 680.518 -1.82977 0.564945 0
M  V30 7229 H 678.823 -3.71968 -1.23074 0
M  V30 7230 H 680.52 -3.91023 -0.888922 0
M  V30 7231 H 677.11 -4.25646 0.502305 0
M  V30 7232 H 681.294 -4.78125 1.3308 0
M  V30 7233 H 676.55 -5.58146 2.49565 0
M  V30 7234 H 680.724 -6.11992 3.32323 0
M  V30 7235 H 678.351 -6.51848 3.9115 0
M  V30 7236 N 679.926 -0.151884 -1.56866 0
M  V30 7237 C 681.175 0.497992 -1.95456 0
M  V30 7238 C 681.488 1.6569 -1.03953 0
M  V30 7239 O 682.694 2.37173 -1.32142 0
M  V30 7240 C 681.15 0.93732 -3.4748 0
M  V30 7241 C 680.758 -0.194921 -4.47576 0
M  V30 7242 C 682.502 1.55671 -3.94926 0
M  V30 7243 C 680.409 0.26295 -5.90815 0
M  V30 7244 H 679.339 0.189811 -0.729717 0
M  V30 7245 H 681.99 -0.237011 -1.81963 0
M  V30 7246 H 680.372 1.72773 -3.56322 0
M  V30 7247 H 681.546 -0.971951 -4.50433 0
M  V30 7248 H 679.861 -0.72303 -4.10075 0
M  V30 7249 H 682.458 1.91099 -4.99385 0
M  V30 7250 H 682.801 2.44748 -3.36755 0
M  V30 7251 H 683.334 0.831109 -3.89021 0
M  V30 7252 H 680.073 -0.592568 -6.52816 0
M  V30 7253 H 679.593 1.00575 -5.91308 0
M  V30 7254 H 681.272 0.713333 -6.43056 0
M  V30 7255 N 681.404 1.57128 0.121893 0
M  V30 7256 C 682.65 1.85853 0.826451 0
M  V30 7257 C 683.005 0.739262 1.77631 0
M  V30 7258 O 682.298 -0.260959 1.89815 0
M  V30 7259 C 682.492 3.1874 1.61677 0
M  V30 7260 C 682.321 4.43487 0.744944 0
M  V30 7261 C 681.091 5.03707 0.400891 0
M  V30 7262 C 683.289 5.1426 0.0638779 0
M  V30 7263 N 681.271 6.12006 -0.481902 0
M  V30 7264 C 682.642 6.16281 -0.678033 0
M  V30 7265 C 684.697 4.97898 -0.0128424 0
M  V30 7266 C 683.4 7.0371 -1.48946 0
M  V30 7267 C 685.426 5.85812 -0.81108 0
M  V30 7268 C 684.788 6.87333 -1.54119 0
M  V30 7269 H 680.887 0.730367 0.279442 0
M  V30 7270 H 683.471 1.9449 0.0903486 0
M  V30 7271 H 681.642 3.11204 2.32393 0
M  V30 7272 H 683.374 3.35283 2.26644 0
M  V30 7273 H 680.129 4.67744 0.742469 0
M  V30 7274 H 680.553 6.70787 -0.915063 0
M  V30 7275 H 685.195 4.19372 0.537278 0
M  V30 7276 H 682.913 7.81646 -2.05074 0
M  V30 7277 H 686.499 5.75217 -0.872764 0
M  V30 7278 H 685.379 7.54182 -2.14893 0
M  V30 7279 N 682.882 -0.391992 1.52647 0
M  V30 7280 C 684.131 -1.13449 1.6677 0
M  V30 7281 C 684.444 -1.91203 0.412399 0
M  V30 7282 O 685.65 -2.68013 0.433707 0
M  V30 7283 C 684.106 -2.06577 2.9471 0
M  V30 7284 C 683.714 -1.3426 4.27409 0
M  V30 7285 C 685.458 -2.80981 3.18198 0
M  V30 7286 C 683.365 -2.26136 5.46458 0
M  V30 7287 H 682.295 -0.427211 0.621295 0
M  V30 7288 H 684.946 -0.397522 1.79142 0
M  V30 7289 H 683.328 -2.83898 2.76076 0
M  V30 7290 H 684.502 -0.621856 4.56585 0
M  V30 7291 H 682.817 -0.718279 4.10158 0
M  V30 7292 H 685.414 -3.49898 4.04321 0
M  V30 7293 H 685.757 -3.44891 2.33144 0
M  V30 7294 H 686.29 -2.10754 3.37383 0
M  V30 7295 H 683.029 -1.66846 6.33911 0
M  V30 7296 H 682.549 -2.96134 5.21598 0
M  V30 7297 H 684.228 -2.86286 5.80215 0
M  V30 7298 N 684.36 -1.4356 -0.65026 0
M  V30 7299 C 685.585 -1.48995 -1.44275 0
M  V30 7300 C 686.01 -0.109954 -1.87778 0
M  V30 7301 O 685.368 0.896926 -1.57559 0
M  V30 7302 C 685.416 -2.44341 -2.65198 0
M  V30 7303 O 684.52 -1.93172 -3.6436 0
M  V30 7304 H 683.861 -0.503852 -0.432469 0
M  V30 7305 H 686.391 -1.88504 -0.795446 0
M  V30 7306 H 686.401 -2.61743 -3.12977 0
M  V30 7307 H 685.076 -3.44588 -2.32877 0
M  V30 7308 H 683.653 -1.85445 -3.23519 0
M  V30 7309 N 685.838 0.888903 -1.30139 0
M  V30 7310 C 687.085 1.64037 -1.18736 0
M  V30 7311 C 687.413 1.92771 0.258801 0
M  V30 7312 O 686.668 1.54427 1.20212 0
M  V30 7313 C 686.967 2.99041 -1.95728 0
M  V30 7314 C 686.633 2.89874 -3.45375 0
M  V30 7315 C 685.295 2.87082 -3.86183 0
M  V30 7316 C 687.647 2.78289 -4.40687 0
M  V30 7317 C 684.975 2.70536 -5.20603 0
M  V30 7318 C 687.327 2.63282 -5.75209 0
M  V30 7319 C 685.991 2.58861 -6.15262 0
M  V30 7320 H 685.261 0.600253 -0.434485 0
M  V30 7321 H 687.908 1.0338 -1.61198 0
M  V30 7322 H 686.213 3.63626 -1.45888 0
M  V30 7323 H 687.91 3.56139 -1.843 0
M  V30 7324 H 684.5 2.92856 -3.12943 0
M  V30 7325 H 688.684 2.79516 -4.10103 0
M  V30 7326 H 683.94 2.65526 -5.50732 0
M  V30 7327 H 688.114 2.5329 -6.48704 0
M  V30 7328 H 685.741 2.45799 -7.19366 0
M  V30 7329 N 687.317 1.12792 1.10072 0
M  V30 7330 C 688.566 0.880232 1.81479 0
M  V30 7331 C 688.879 -0.595575 1.86312 0
M  V30 7332 O 690.085 -0.959979 2.53962 0
M  V30 7333 C 688.541 1.52514 3.25987 0
M  V30 7334 C 688.149 3.036 3.29441 0
M  V30 7335 C 689.893 1.35788 4.02196 0
M  V30 7336 C 687.8 3.61007 4.68431 0
M  V30 7337 H 686.73 0.325654 0.680048 0
M  V30 7338 H 689.381 1.35485 1.23758 0
M  V30 7339 H 687.763 0.978188 3.83728 0
M  V30 7340 H 688.937 3.64819 2.81502 0
M  V30 7341 H 687.252 3.19765 2.66719 0
M  V30 7342 H 689.849 1.76096 5.0487 0
M  V30 7343 H 690.192 0.301972 4.15203 0
M  V30 7344 H 690.725 1.87426 3.50879 0
M  V30 7345 H 687.464 4.66375 4.60625 0
M  V30 7346 H 686.984 3.04564 5.16721 0
M  V30 7347 H 688.663 3.60289 5.37402 0
M  V30 7348 N 688.795 -1.27931 0.920396 0
M  V30 7349 C 690.072 -1.89728 0.475687 0
M  V30 7350 C 690.452 -1.8337 -1.04588 0
M  V30 7351 O 689.8 -1.27404 -1.89685 0
M  V30 7352 C 690.01 -3.33959 1.01354 0
M  V30 7353 C 691.358 -4.10907 1.06963 0
M  V30 7354 O 692.382 -3.42945 0.962646 0
M  V30 7355 O 691.241 -5.32399 1.23343 0
M  V30 7356 H 688.335 -0.81294 0.151845 0
M  V30 7357 H 690.881 -1.36252 1.01161 0
M  V30 7358 H 689.653 -3.32843 2.05746 0
M  V30 7359 H 689.276 -3.94944 0.458829 0
M  V30 7360 N 690.273 -0.685099 -1.4193 0
M  V30 7361 C 691.498 -0.218842 -2.06242 0
M  V30 7362 C 691.923 1.11923 -1.51178 0
M  V30 7363 O 691.281 1.69837 -0.634446 0
M  V30 7364 C 691.329 -0.175592 -3.60172 0
M  V30 7365 O 690.433 0.852776 -4.03487 0
M  V30 7366 H 689.774 -0.109531 -0.654904 0
M  V30 7367 H 692.304 -0.937013 -1.81882 0
M  V30 7368 H 692.314 -0.00291151 -4.08 0
M  V30 7369 H 690.989 -1.15222 -3.99621 0
M  V30 7370 H 689.566 0.650301 -3.67186 0
M  V30 7371 N 691.751 1.51645 -0.429126 0
M  V30 7372 C 692.981 2.06133 0.138793 0
M  V30 7373 C 693.389 1.29735 1.37716 0
M  V30 7374 O 692.732 0.347955 1.80375 0
M  V30 7375 C 692.794 3.55504 0.534493 0
M  V30 7376 C 692.458 4.53098 -0.595917 0
M  V30 7377 C 693.455 4.98815 -1.46558 0
M  V30 7378 C 691.14 4.96296 -0.774309 0
M  V30 7379 C 693.134 5.86394 -2.4984 0
M  V30 7380 C 690.821 5.83667 -1.81042 0
M  V30 7381 C 691.819 6.28613 -2.67086 0
M  V30 7382 O 691.507 7.14251 -3.68919 0
M  V30 7383 H 691.239 0.675833 0.0150263 0
M  V30 7384 H 693.793 1.96301 -0.604584 0
M  V30 7385 H 692.023 3.63092 1.33045 0
M  V30 7386 H 693.712 3.92545 1.03262 0
M  V30 7387 H 694.478 4.66143 -1.33925 0
M  V30 7388 H 690.357 4.60859 -0.114178 0
M  V30 7389 H 693.901 6.21398 -3.17034 0
M  V30 7390 H 689.798 6.15753 -1.93698 0
M  V30 7391 H 690.566 7.3241 -3.65402 0
M  V30 7392 N 693.229 0.160201 1.56784 0
M  V30 7393 C 694.476 -0.487588 1.96542 0
M  V30 7394 C 694.804 -1.63999 1.04569 0
M  V30 7395 O 694.059 -1.95546 0.0775211 0
M  V30 7396 C 694.358 -1.02259 3.42459 0
M  V30 7397 C 694.024 0.0127436 4.50898 0
M  V30 7398 C 692.686 0.297318 4.80281 0
M  V30 7399 C 695.038 0.716078 5.16257 0
M  V30 7400 C 692.366 1.29081 5.72324 0
M  V30 7401 C 694.718 1.69847 6.09372 0
M  V30 7402 C 693.382 1.99061 6.37127 0
M  V30 7403 H 692.652 -0.178421 0.719199 0
M  V30 7404 H 695.299 0.249818 1.89864 0
M  V30 7405 H 693.604 -1.8376 3.46034 0
M  V30 7406 H 695.301 -1.53261 3.70556 0
M  V30 7407 H 691.891 -0.219235 4.28039 0
M  V30 7408 H 696.075 0.509428 4.93679 0
M  V30 7409 H 691.331 1.52344 5.92116 0
M  V30 7410 H 695.505 2.2489 6.59088 0
M  V30 7411 H 693.132 2.76194 7.08252 0
M  V30 7412 N 694.707 -1.5719 -0.113559 0
M  V30 7413 C 695.617 -2.04041 -1.15777 0
M  V30 7414 C 696.633 -0.961812 -1.45001 0
M  V30 7415 O 697.809 -1.2737 -1.56009 0
M  V30 7416 C 694.874 -2.43994 -2.46308 0
M  V30 7417 C 693.935 -3.65962 -2.24433 0
M  V30 7418 C 693.168 -4.04 -3.4874 0
M  V30 7419 O 693.391 -3.42321 -4.56259 0
M  V30 7420 O 692.325 -4.97069 -3.3942 0
M  V30 7421 H 696.151 -2.93248 -0.789899 0
M  V30 7422 H 693.736 -1.45828 -0.324748 0
M  V30 7423 H 695.618 -2.70401 -3.23204 0
M  V30 7424 H 694.293 -1.57932 -2.82558 0
M  V30 7425 H 693.2 -3.44697 -1.45377 0
M  V30 7426 H 694.533 -4.52746 -1.93084 0
M  V30 7427 N 696.185 0.383891 -1.52853 0
M  V30 7428 C 697.434 1.12563 -1.67369 0
M  V30 7429 C 697.747 1.90982 -0.422533 0
M  V30 7430 O 698.953 2.6778 -0.447914 0
M  V30 7431 C 697.409 2.05011 -2.95801 0
M  V30 7432 C 697.017 1.31991 -4.28115 0
M  V30 7433 C 698.761 2.79289 -3.19684 0
M  V30 7434 C 696.668 2.23235 -5.4765 0
M  V30 7435 H 695.598 0.42391 -0.623552 0
M  V30 7436 H 698.249 0.388016 -1.79351 0
M  V30 7437 H 696.631 2.82429 -2.77578 0
M  V30 7438 H 697.805 0.597633 -4.56908 0
M  V30 7439 H 696.12 0.696517 -4.10533 0
M  V30 7440 H 698.717 3.47749 -4.06171 0
M  V30 7441 H 699.06 3.43649 -2.3497 0
M  V30 7442 H 699.593 2.08962 -3.38496 0
M  V30 7443 H 696.332 1.63482 -6.34786 0
M  V30 7444 H 695.852 2.93364 -5.23161 0
M  V30 7445 H 697.531 2.83205 -5.81725 0
M  V30 7446 N 697.663 1.43903 0.642637 0
M  V30 7447 C 698.593 1.52697 1.76652 0
M  V30 7448 C 699.574 0.380816 1.65782 0
M  V30 7449 O 700.759 0.599432 1.84717 0
M  V30 7450 C 697.889 1.45975 3.15133 0
M  V30 7451 C 696.843 2.58949 3.40778 0
M  V30 7452 C 696.169 2.37279 4.79169 0
M  V30 7453 C 697.469 4.01153 3.34475 0
M  V30 7454 H 699.163 2.46766 1.69549 0
M  V30 7455 H 696.709 1.18767 0.814279 0
M  V30 7456 H 698.662 1.5073 3.93521 0
M  V30 7457 H 697.386 0.484162 3.22991 0
M  V30 7458 H 696.045 2.53564 2.64765 0
M  V30 7459 H 695.693 1.37939 4.83717 0
M  V30 7460 H 695.393 3.13016 4.97287 0
M  V30 7461 H 696.917 2.43834 5.59801 0
M  V30 7462 H 698.331 4.07968 4.02784 0
M  V30 7463 H 696.728 4.77001 3.64129 0
M  V30 7464 H 697.798 4.25539 2.32475 0
M  V30 7465 N 699.141 -0.881989 1.30609 0
M  V30 7466 C 700.388 -1.63405 1.19604 0
M  V30 7467 C 700.716 -1.92905 -0.248574 0
M  V30 7468 O 699.971 -1.55062 -1.19391 0
M  V30 7469 C 700.27 -2.97999 1.97311 0
M  V30 7470 C 699.936 -2.88039 3.46907 0
M  V30 7471 C 698.598 -2.85029 3.877 0
M  V30 7472 C 700.95 -2.75948 4.42156 0
M  V30 7473 C 698.278 -2.67772 5.2203 0
M  V30 7474 C 700.63 -2.60228 5.76597 0
M  V30 7475 C 699.294 -2.55595 6.16626 0
M  V30 7476 H 698.564 -0.597941 0.437662 0
M  V30 7477 H 701.211 -1.02524 1.61744 0
M  V30 7478 H 699.516 -3.62847 1.47815 0
M  V30 7479 H 701.213 -3.55156 1.86186 0
M  V30 7480 H 697.803 -2.91192 3.14492 0
M  V30 7481 H 701.987 -2.77337 4.1158 0
M  V30 7482 H 697.243 -2.62601 5.52133 0
M  V30 7483 H 701.417 -2.49847 6.50038 0
M  V30 7484 H 699.044 -2.41981 7.20659 0
M  V30 7485 N 700.619 -1.13374 -1.09472 0
M  V30 7486 C 701.549 -0.833268 -2.18126 0
M  V30 7487 C 702.53 0.207169 -1.68834 0
M  V30 7488 O 703.715 0.0662012 -1.94087 0
M  V30 7489 C 700.845 -0.297979 -3.46019 0
M  V30 7490 C 699.799 -1.27261 -4.08642 0
M  V30 7491 C 699.125 -0.597104 -5.31356 0
M  V30 7492 C 700.425 -2.63095 -4.51197 0
M  V30 7493 H 702.119 -1.74182 -2.43518 0
M  V30 7494 H 699.665 -0.838921 -1.17039 0
M  V30 7495 H 701.618 -0.0754444 -4.21332 0
M  V30 7496 H 700.342 0.645959 -3.20148 0
M  V30 7497 H 699.001 -1.48113 -3.35348 0
M  V30 7498 H 698.649 0.352293 -5.01765 0
M  V30 7499 H 698.349 -1.24734 -5.74208 0
M  V30 7500 H 699.873 -0.38384 -6.09392 0
M  V30 7501 H 701.287 -2.46214 -5.17737 0
M  V30 7502 H 699.684 -3.2429 -5.04932 0
M  V30 7503 H 700.754 -3.20793 -3.6362 0
M  V30 7504 N 702.098 1.27442 -0.927168 0
M  V30 7505 C 703.345 1.94391 -0.567324 0
M  V30 7506 C 703.673 1.72875 0.891321 0
M  V30 7507 O 702.928 1.05071 1.65102 0
M  V30 7508 C 703.227 3.47413 -0.838994 0
M  V30 7509 C 702.893 3.89049 -2.2793 0
M  V30 7510 C 701.555 4.00127 -2.67305 0
M  V30 7511 C 703.907 4.10154 -3.21595 0
M  V30 7512 C 701.235 4.29697 -3.99471 0
M  V30 7513 C 703.587 4.41208 -4.53341 0
M  V30 7514 C 702.251 4.50499 -4.92551 0
M  V30 7515 H 701.521 0.711325 -0.207598 0
M  V30 7516 H 704.168 1.51523 -1.17103 0
M  V30 7517 H 702.473 3.91503 -0.152609 0
M  V30 7518 H 704.17 3.97354 -0.53955 0
M  V30 7519 H 700.76 3.80962 -1.96381 0
M  V30 7520 H 704.944 4.01036 -2.92377 0
M  V30 7521 H 700.2 4.35099 -4.29533 0
M  V30 7522 H 704.374 4.56486 -5.25922 0
M  V30 7523 H 702.001 4.73167 -5.94994 0
M  V30 7524 N 703.576 0.692616 1.41565 0
M  V30 7525 C 704.508 -0.0137132 2.29196 0
M  V30 7526 C 705.521 -0.747417 1.44629 0
M  V30 7527 O 706.71 -0.598611 1.68163 0
M  V30 7528 C 703.81 -1.04347 3.22436 0
M  V30 7529 C 702.983 -0.379985 4.35746 0
M  V30 7530 C 702.042 -1.31195 5.09583 0
M  V30 7531 O 701.068 -0.805455 5.63472 0
M  V30 7532 N 702.27 -2.64443 5.16769 0
M  V30 7533 H 705.035 0.738614 2.90456 0
M  V30 7534 H 702.596 0.538415 1.52685 0
M  V30 7535 H 704.588 -1.6686 3.687 0
M  V30 7536 H 703.158 -1.69736 2.62504 0
M  V30 7537 H 702.378 0.424975 3.91903 0
M  V30 7538 H 703.666 0.0814904 5.08735 0
M  V30 7539 H 703.064 -3.08114 4.74428 0
M  V30 7540 H 701.621 -3.22159 5.66619 0
M  V30 7541 N 705.054 -1.51416 0.437162 0
M  V30 7542 C 706.017 -2.26312 -0.362729 0
M  V30 7543 C 707.017 -1.29748 -0.949847 0
M  V30 7544 O 708.207 -1.53462 -0.824325 0
M  V30 7545 C 705.339 -3.05475 -1.5132 0
M  V30 7546 H 706.532 -2.98459 0.29365 0
M  V30 7547 H 704.085 -1.55137 0.190327 0
M  V30 7548 H 704.82 -2.37744 -2.20563 0
M  V30 7549 H 704.605 -3.76401 -1.09838 0
M  V30 7550 H 706.095 -3.62209 -2.07833 0
M  V30 7551 N 706.532 -0.168513 -1.56696 0
M  V30 7552 C 707.462 0.758563 -2.20835 0
M  V30 7553 C 708.443 1.24121 -1.1631 0
M  V30 7554 O 709.628 1.29487 -1.4473 0
M  V30 7555 C 706.758 1.9892 -2.8469 0
M  V30 7556 C 705.712 1.64252 -3.95228 0
M  V30 7557 C 705.038 2.94757 -4.46119 0
M  V30 7558 C 706.338 0.872675 -5.14958 0
M  V30 7559 H 708.032 0.223953 -2.98561 0
M  V30 7560 H 705.578 0.106277 -1.43607 0
M  V30 7561 H 707.531 2.64275 -3.28233 0
M  V30 7562 H 706.255 2.5479 -2.04327 0
M  V30 7563 H 704.914 1.01266 -3.52336 0
M  V30 7564 H 704.562 3.48662 -3.62552 0
M  V30 7565 H 704.262 2.72316 -5.2069 0
M  V30 7566 H 705.786 3.61147 -4.92347 0
M  V30 7567 H 707.2 1.42875 -5.55211 0
M  V30 7568 H 705.597 0.747402 -5.95428 0
M  V30 7569 H 706.667 -0.131535 -4.84722 0
M  V30 7570 N 708.01 1.57248 0.105221 0
M  V30 7571 C 708.94 2.04374 1.12931 0
M  V30 7572 C 709.921 0.93074 1.42377 0
M  V30 7573 O 711.106 1.20136 1.52581 0
M  V30 7574 C 708.236 2.45967 2.45189 0
M  V30 7575 C 707.19 3.60838 2.30174 0
M  V30 7576 C 706.516 3.88374 3.67518 0
M  V30 7577 C 707.816 4.92084 1.75073 0
M  V30 7578 H 709.51 2.9018 0.737287 0
M  V30 7579 H 707.056 1.39601 0.353211 0
M  V30 7580 H 709.009 2.77542 3.17094 0
M  V30 7581 H 707.733 1.57148 2.86308 0
M  V30 7582 H 706.392 3.29493 1.60716 0
M  V30 7583 H 706.04 2.96739 4.06147 0
M  V30 7584 H 705.74 4.65703 3.58321 0
M  V30 7585 H 707.264 4.22415 4.40906 0
M  V30 7586 H 708.678 5.22106 2.36809 0
M  V30 7587 H 707.075 5.73507 1.76662 0
M  V30 7588 H 708.145 4.79684 0.709347 0
M  V30 7589 N 709.488 -0.375779 1.53054 0
M  V30 7590 C 710.716 -1.14036 1.72637 0
M  V30 7591 C 711.131 -1.83342 0.450687 0
M  V30 7592 O 710.488 -1.7318 -0.575749 0
M  V30 7593 C 710.539 -2.17841 2.88492 0
M  V30 7594 O 710.26 -1.51358 4.11123 0
M  V30 7595 C 711.761 -3.06924 3.19863 0
M  V30 7596 H 708.981 -0.341386 0.577665 0
M  V30 7597 H 711.525 -0.437809 1.99759 0
M  V30 7598 H 709.68 -2.8371 2.63794 0
M  V30 7599 H 710.094 -2.20439 4.75928 0
M  V30 7600 H 711.568 -3.75763 4.04359 0
M  V30 7601 H 712.045 -3.71169 2.34798 0
M  V30 7602 H 712.651 -2.46684 3.46449 0
M  V30 7603 N 710.966 -1.44241 -0.634997 0
M  V30 7604 C 712.212 -1.47038 -1.39669 0
M  V30 7605 C 712.545 -0.101122 -1.93937 0
M  V30 7606 O 711.82 0.880699 -1.73418 0
M  V30 7607 C 712.103 -2.52763 -2.56482 0
M  V30 7608 C 711.956 -3.99032 -2.07589 0
M  V30 7609 C 713.275 -2.55031 -3.58674 0
M  V30 7610 H 710.394 -0.53537 -0.506506 0
M  V30 7611 H 713.036 -1.75898 -0.718317 0
M  V30 7612 H 711.186 -2.28284 -3.14354 0
M  V30 7613 H 712.858 -4.3463 -1.54577 0
M  V30 7614 H 711.101 -4.10994 -1.38804 0
M  V30 7615 H 711.772 -4.68649 -2.91671 0
M  V30 7616 H 714.248 -2.76893 -3.10595 0
M  V30 7617 H 713.124 -3.30916 -4.37934 0
M  V30 7618 H 713.385 -1.59085 -4.12486 0
M  V30 7619 N 712.444 0.87505 -1.31075 0
M  V30 7620 C 713.69 1.63009 -1.20647 0
M  V30 7621 C 714.023 1.9276 0.236045 0
M  V30 7622 O 713.298 1.55559 1.16754 0
M  V30 7623 C 713.581 2.96357 -2.0456 0
M  V30 7624 C 713.434 2.73516 -3.57084 0
M  V30 7625 C 714.753 3.974 -1.89107 0
M  V30 7626 H 711.872 0.591518 -0.439631 0
M  V30 7627 H 714.514 1.0119 -1.60812 0
M  V30 7628 H 712.664 3.49119 -1.70435 0
M  V30 7629 H 714.336 2.27465 -4.01319 0
M  V30 7630 H 712.579 2.0784 -3.80769 0
M  V30 7631 H 713.25 3.68377 -4.11099 0
M  V30 7632 H 715.726 3.5383 -2.18961 0
M  V30 7633 H 714.602 4.88596 -2.5013 0
M  V30 7634 H 714.863 4.33794 -0.85296 0
M  V30 7635 N 713.922 1.13953 1.08869 0
M  V30 7636 C 715.147 0.928559 1.85452 0
M  V30 7637 C 715.572 -0.517642 1.80837 0
M  V30 7638 O 714.93 -1.36779 1.19001 0
M  V30 7639 C 714.978 1.42814 3.31114 0
M  V30 7640 O 714.082 0.617129 4.07756 0
M  V30 7641 H 713.423 0.33235 0.574839 0
M  V30 7642 H 715.953 1.5156 1.37443 0
M  V30 7643 H 715.963 1.43425 3.8196 0
M  V30 7644 H 714.638 2.48109 3.33788 0
M  V30 7645 H 713.215 0.679365 3.66659 0
M  V30 7646 N 715.4 -1.26948 0.933913 0
M  V30 7647 C 716.332 -2.25768 0.395137 0
M  V30 7648 C 717.345 -1.55637 -0.477585 0
M  V30 7649 O 718.534 -1.76142 -0.289204 0
M  V30 7650 C 715.634 -3.35874 -0.451882 0
M  V30 7651 C 714.807 -4.3554 0.40299 0
M  V30 7652 C 713.866 -5.24809 -0.3824 0
M  V30 7653 O 712.892 -5.68805 0.212057 0
M  V30 7654 N 714.094 -5.55636 -1.68072 0
M  V30 7655 H 716.859 -2.72634 1.24463 0
M  V30 7656 H 714.42 -1.40639 0.802008 0
M  V30 7657 H 716.412 -3.92542 -0.984516 0
M  V30 7658 H 714.982 -2.8856 -1.20215 0
M  V30 7659 H 714.202 -3.78047 1.11688 0
M  V30 7660 H 715.49 -4.99131 0.987201 0
M  V30 7661 H 714.888 -5.2176 -2.18592 0
M  V30 7662 H 713.445 -6.14978 -2.15975 0
M  V30 7663 N 716.879 -0.700114 -1.41195 0
M  V30 7664 C 718.125 -0.233351 -2.01453 0
M  V30 7665 C 718.458 1.16548 -1.55339 0
M  V30 7666 O 717.733 1.78756 -0.766575 0
M  V30 7667 C 718.016 -0.2961 -3.58881 0
M  V30 7668 C 717.869 -1.7322 -4.15108 0
M  V30 7669 C 719.188 0.341525 -4.38773 0
M  V30 7670 H 716.307 -0.0862667 -0.731934 0
M  V30 7671 H 718.949 -0.889693 -1.67882 0
M  V30 7672 H 717.099 0.262736 -3.87611 0
M  V30 7673 H 718.771 -2.34523 -3.97236 0
M  V30 7674 H 717.014 -2.2649 -3.69979 0
M  V30 7675 H 717.685 -1.7276 -5.24269 0
M  V30 7676 H 720.161 -0.134461 -4.15883 0
M  V30 7677 H 719.037 0.267098 -5.4825 0
M  V30 7678 H 719.298 1.42289 -4.18577 0
M  V30 7679 N 718.357 1.51182 -0.445186 0
M  V30 7680 C 719.287 2.30821 0.352686 0
M  V30 7681 C 720.268 1.36576 1.01395 0
M  V30 7682 O 721.453 1.65497 1.01609 0
M  V30 7683 C 718.583 3.15593 1.44976 0
M  V30 7684 C 717.537 4.1818 0.911553 0
M  V30 7685 C 716.863 4.91523 2.10497 0
M  V30 7686 C 718.163 5.22266 -0.059418 0
M  V30 7687 H 719.857 2.97771 -0.311936 0
M  V30 7688 H 717.403 1.43201 -0.151461 0
M  V30 7689 H 719.356 3.70091 2.01521 0
M  V30 7690 H 718.08 2.4648 2.14278 0
M  V30 7691 H 716.739 3.64746 0.368264 0
M  V30 7692 H 716.387 4.18906 2.78437 0
M  V30 7693 H 716.087 5.60898 1.7512 0
M  V30 7694 H 717.611 5.48847 2.6758 0
M  V30 7695 H 719.025 5.71789 0.415985 0
M  V30 7696 H 717.422 5.99213 -0.326152 0
M  V30 7697 H 718.492 4.7461 -0.993631 0
M  V30 7698 N 719.835 0.176821 1.56605 0
M  V30 7699 C 721.075 -0.469104 1.98944 0
M  V30 7700 C 721.439 -1.60048 1.06059 0
M  V30 7701 O 722.64 -2.30934 1.3756 0
M  V30 7702 C 720.911 -0.934571 3.44965 0
M  V30 7703 S 722.47 -1.58091 4.09332 0
M  V30 7704 H 719.288 -0.150695 0.694847 0
M  V30 7705 H 721.89 0.27558 1.93548 0
M  V30 7706 H 720.594 -0.100814 4.10276 0
M  V30 7707 H 720.125 -1.71316 3.54139 0
M  V30 7708 H 722.14 -2.86922 4.04834 0
M  V30 7709 N 721.313 -1.57302 -0.09688 0
M  V30 7710 C 722.56 -1.85997 -0.800699 0
M  V30 7711 C 722.888 -0.765089 -1.7882 0
M  V30 7712 O 722.143 0.241492 -1.94204 0
M  V30 7713 C 722.442 -3.21272 -1.56586 0
M  V30 7714 C 722.108 -4.45104 -0.72064 0
M  V30 7715 C 720.77 -4.78723 -0.487632 0
M  V30 7716 C 723.122 -5.2103 -0.132948 0
M  V30 7717 C 720.45 -5.85697 0.34296 0
M  V30 7718 C 722.802 -6.28881 0.684957 0
M  V30 7719 C 721.466 -6.61017 0.928073 0
M  V30 7720 H 720.736 -0.680613 -0.292997 0
M  V30 7721 H 723.383 -1.91399 -0.0622474 0
M  V30 7722 H 721.688 -3.11547 -2.37583 0
M  V30 7723 H 723.385 -3.40702 -2.11478 0
M  V30 7724 H 719.975 -4.18777 -0.912359 0
M  V30 7725 H 724.159 -4.95392 -0.300132 0
M  V30 7726 H 719.415 -6.09008 0.540317 0
M  V30 7727 H 723.589 -6.86886 1.14721 0
M  V30 7728 H 721.216 -7.43738 1.57348 0
M  V30 7729 N 722.791 0.367657 -1.53252 0
M  V30 7730 C 723.721 1.45632 -1.8252 0
M  V30 7731 C 724.702 1.55979 -0.678568 0
M  V30 7732 O 725.887 1.70581 -0.928217 0
M  V30 7733 C 723.017 2.82994 -2.01325 0
M  V30 7734 C 721.971 2.87473 -3.17086 0
M  V30 7735 C 721.297 4.2749 -3.21179 0
M  V30 7736 C 722.597 2.55182 -4.55719 0
M  V30 7737 H 724.291 1.21387 -2.73689 0
M  V30 7738 H 721.837 0.58251 -1.31692 0
M  V30 7739 H 723.79 3.59179 -2.20383 0
M  V30 7740 H 722.514 3.08622 -1.06864 0
M  V30 7741 H 721.173 2.13739 -2.97844 0
M  V30 7742 H 720.821 4.5019 -2.24361 0
M  V30 7743 H 720.521 4.31403 -3.98955 0
M  V30 7744 H 722.045 5.0555 -3.42419 0
M  V30 7745 H 723.459 3.21081 -4.74953 0
M  V30 7746 H 721.856 2.70414 -5.3572 0
M  V30 7747 H 722.926 1.5044 -4.60973 0
M  V30 7748 N 724.269 1.44576 0.627338 0
M  V30 7749 C 725.232 1.51372 1.72102 0
M  V30 7750 C 726.232 0.395329 1.55865 0
M  V30 7751 O 727.422 0.658094 1.61291 0
M  V30 7752 C 724.554 1.39129 3.11217 0
M  V30 7753 H 725.747 2.48798 1.6745 0
M  V30 7754 H 723.3 1.31724 0.841336 0
M  V30 7755 H 724.035 0.428114 3.21462 0
M  V30 7756 H 723.82 2.20229 3.24409 0
M  V30 7757 H 725.31 1.46874 3.90919 0
M  V30 7758 N 725.747 -0.868086 1.31537 0
M  V30 7759 C 726.996 -1.61607 1.20689 0
M  V30 7760 C 727.309 -1.94204 -0.233275 0
M  V30 7761 O 728.515 -2.67515 -0.463465 0
M  V30 7762 C 726.971 -2.91348 2.11292 0
M  V30 7763 C 726.579 -2.66227 3.60315 0
M  V30 7764 C 728.323 -3.69344 2.09249 0
M  V30 7765 C 726.23 -3.91887 4.42921 0
M  V30 7766 H 725.16 -0.606373 0.448138 0
M  V30 7767 H 727.811 -0.959666 1.56405 0
M  V30 7768 H 726.193 -3.58374 1.68477 0
M  V30 7769 H 727.367 -2.07597 4.11388 0
M  V30 7770 H 725.682 -2.01582 3.64354 0
M  V30 7771 H 728.279 -4.62567 2.68209 0
M  V30 7772 H 728.622 -4.02044 1.0801 0
M  V30 7773 H 729.155 -3.09205 2.50274 0
M  V30 7774 H 725.894 -3.64336 5.44922 0
M  V30 7775 H 725.414 -4.49961 3.96605 0
M  V30 7776 H 727.093 -4.59754 4.55231 0
M  V30 7777 N 727.225 -1.14528 -1.08264 0
M  V30 7778 C 728.135 -0.84728 -2.18765 0
M  V30 7779 C 729.151 0.172826 -1.7314 0
M  V30 7780 O 730.327 0.000985336 -2.014 0
M  V30 7781 C 727.392 -0.330633 -3.4512 0
M  V30 7782 C 726.453 -1.41348 -4.05363 0
M  V30 7783 C 725.686 -0.921387 -5.25686 0
M  V30 7784 O 725.909 0.236587 -5.69909 0
M  V30 7785 O 724.843 -1.70101 -5.77364 0
M  V30 7786 H 728.669 -1.7708 -2.46731 0
M  V30 7787 H 726.254 -0.923661 -1.17426 0
M  V30 7788 H 728.136 -0.0485053 -4.21372 0
M  V30 7789 H 726.811 0.565147 -3.18728 0
M  V30 7790 H 725.718 -1.74908 -3.30693 0
M  V30 7791 H 727.051 -2.28383 -4.36007 0
M  V30 7792 N 728.703 1.26451 -0.940633 0
M  V30 7793 C 729.949 1.94401 -0.598303 0
M  V30 7794 C 730.304 1.72449 0.853178 0
M  V30 7795 O 729.597 1.0506 1.60228 0
M  V30 7796 C 729.791 3.46503 -0.875794 0
M  V30 7797 C 729.62 3.83247 -2.3527 0
M  V30 7798 C 728.39 4.06032 -3.00776 0
M  V30 7799 C 730.588 3.91841 -3.33114 0
M  V30 7800 N 728.57 4.29656 -4.38485 0
M  V30 7801 C 729.941 4.19991 -4.56078 0
M  V30 7802 C 731.996 3.74466 -3.28146 0
M  V30 7803 C 730.699 4.32574 -5.74693 0
M  V30 7804 C 732.725 3.88281 -4.46085 0
M  V30 7805 C 732.087 4.16829 -5.67831 0
M  V30 7806 H 728.186 0.734168 -0.269297 0
M  V30 7807 H 730.77 1.52541 -1.20992 0
M  V30 7808 H 728.941 3.87292 -0.293223 0
M  V30 7809 H 730.673 4.01664 -0.494788 0
M  V30 7810 H 727.428 4.01369 -2.51396 0
M  V30 7811 H 727.852 4.45501 -5.09762 0
M  V30 7812 H 732.494 3.51424 -2.35077 0
M  V30 7813 H 730.212 4.54438 -6.68215 0
M  V30 7814 H 733.798 3.76241 -4.43773 0
M  V30 7815 H 732.678 4.27284 -6.5757 0
M  V30 7816 N 730.181 0.707592 1.40822 0
M  V30 7817 C 731.411 0.252706 2.05049 0
M  V30 7818 C 731.819 -1.10758 1.53393 0
M  V30 7819 O 731.162 -1.70567 0.682097 0
M  V30 7820 C 731.224 0.146001 3.59203 0
M  V30 7821 C 730.888 1.44027 4.33711 0
M  V30 7822 C 731.885 2.38058 4.62195 0
M  V30 7823 C 729.57 1.69698 4.72766 0
M  V30 7824 C 731.564 3.56013 5.28709 0
M  V30 7825 C 729.251 2.87936 5.39014 0
M  V30 7826 C 730.249 3.80915 5.66915 0
M  V30 7827 O 729.937 4.9708 6.31796 0
M  V30 7828 H 729.669 0.112784 0.666525 0
M  V30 7829 H 732.223 0.96417 1.81364 0
M  V30 7830 H 730.453 -0.621338 3.81676 0
M  V30 7831 H 732.142 -0.273275 4.04979 0
M  V30 7832 H 732.908 2.19487 4.32493 0
M  V30 7833 H 728.787 0.981835 4.50423 0
M  V30 7834 H 732.331 4.28604 5.50404 0
M  V30 7835 H 728.228 3.06419 5.68135 0
M  V30 7836 H 728.996 4.97053 6.50293 0
M  V30 7837 N 731.66 -1.50943 0.453197 0
M  V30 7838 C 732.59 -2.31005 -0.34044 0
M  V30 7839 C 733.571 -1.37112 -1.00669 0
M  V30 7840 O 734.756 -1.66033 -1.0073 0
M  V30 7841 C 731.886 -3.16358 -1.433 0
M  V30 7842 C 730.84 -4.18658 -0.889363 0
M  V30 7843 C 730.166 -4.92633 -2.07887 0
M  V30 7844 C 731.466 -5.22227 0.0871142 0
M  V30 7845 H 733.16 -2.97601 0.327723 0
M  V30 7846 H 730.706 -1.43119 0.159054 0
M  V30 7847 H 732.659 -3.71155 -1.99555 0
M  V30 7848 H 731.383 -2.47613 -2.12968 0
M  V30 7849 H 730.042 -3.64936 -0.348915 0
M  V30 7850 H 729.69 -4.20376 -2.76211 0
M  V30 7851 H 729.39 -5.61819 -1.72143 0
M  V30 7852 H 730.914 -5.50258 -2.64666 0
M  V30 7853 H 732.328 -5.72001 -0.385656 0
M  V30 7854 H 730.725 -5.99032 0.357926 0
M  V30 7855 H 731.795 -4.74077 1.01879 0
M  V30 7856 N 733.138 -0.185124 -1.56509 0
M  V30 7857 C 734.549 0.329221 -1.83774 0
M  V30 7858 C 734.9 1.62093 -1.10545 0
M  V30 7859 O 734.025 2.13334 -0.36298 0
M  V30 7860 C 734.62 0.604099 -3.33371 0
M  V30 7861 C 733.179 1.06284 -3.61083 0
M  V30 7862 C 732.326 0.10608 -2.77097 0
M  V30 7863 H 735.277 -0.409116 -1.53336 0
M  V30 7864 H 735.298 1.45458 -3.51599 0
M  V30 7865 H 734.81 -0.336201 -3.86641 0
M  V30 7866 H 732.911 2.01777 -3.13236 0
M  V30 7867 H 733.024 0.962453 -4.69333 0
M  V30 7868 H 731.388 0.606082 -2.47384 0
M  V30 7869 H 732.171 -0.828486 -3.33153 0
M  V30 7870 N 734.616 1.57351 0.0885366 0
M  V30 7871 C 735.546 2.05561 1.10757 0
M  V30 7872 C 736.527 0.945789 1.41382 0
M  V30 7873 O 737.712 1.21747 1.51299 0
M  V30 7874 C 734.842 2.48554 2.42566 0
M  V30 7875 C 733.796 3.63259 2.26334 0
M  V30 7876 C 733.122 3.9225 3.63378 0
M  V30 7877 C 734.422 4.93913 1.69844 0
M  V30 7878 H 736.116 2.90946 0.706468 0
M  V30 7879 H 733.662 1.39968 0.338385 0
M  V30 7880 H 735.615 2.8089 3.14132 0
M  V30 7881 H 734.339 1.60176 2.84625 0
M  V30 7882 H 732.998 3.31179 1.57213 0
M  V30 7883 H 732.646 3.0103 4.02976 0
M  V30 7884 H 732.346 4.69478 3.53362 0
M  V30 7885 H 733.87 4.27067 4.36401 0
M  V30 7886 H 735.284 5.24588 2.31258 0
M  V30 7887 H 733.681 5.75349 1.70569 0
M  V30 7888 H 734.751 4.80409 0.65843 0
M  V30 7889 N 736.094 -0.359525 1.53444 0
M  V30 7890 C 737.024 -1.44662 1.8329 0
M  V30 7891 C 738.005 -1.55617 0.68683 0
M  V30 7892 O 739.19 -1.70086 0.93725 0
M  V30 7893 C 736.32 -2.81923 2.02822 0
M  V30 7894 C 735.274 -2.85787 3.18606 0
M  V30 7895 C 734.6 -4.25781 3.23442 0
M  V30 7896 C 735.9 -2.52762 4.57065 0
M  V30 7897 H 737.594 -1.19934 2.74329 0
M  V30 7898 H 735.14 -0.575517 1.31999 0
M  V30 7899 H 737.093 -3.58005 2.22285 0
M  V30 7900 H 735.817 -3.08051 1.085 0
M  V30 7901 H 734.476 -2.12157 2.98973 0
M  V30 7902 H 734.124 -4.48994 2.26745 0
M  V30 7903 H 733.824 -4.29281 4.01238 0
M  V30 7904 H 735.348 -5.03727 3.45096 0
M  V30 7905 H 736.762 -3.18557 4.76649 0
M  V30 7906 H 735.159 -2.67569 5.37147 0
M  V30 7907 H 736.229 -1.47993 4.61764 0
M  V30 7908 N 737.572 -1.44907 -0.619662 0
M  V30 7909 C 738.818 -1.48512 -1.38102 0
M  V30 7910 C 739.151 -0.121686 -1.93818 0
M  V30 7911 O 738.426 0.862256 -1.74343 0
M  V30 7912 C 738.709 -2.55469 -2.53787 0
M  V30 7913 C 738.562 -4.01212 -2.03345 0
M  V30 7914 C 739.881 -2.58821 -3.55949 0
M  V30 7915 H 737 -0.540712 -0.500799 0
M  V30 7916 H 739.642 -1.7665 -0.69962 0
M  V30 7917 H 737.792 -2.31606 -3.11915 0
M  V30 7918 H 739.464 -4.36245 -1.49959 0
M  V30 7919 H 737.707 -4.12443 -1.34438 0
M  V30 7920 H 738.378 -4.71717 -2.86683 0
M  V30 7921 H 740.854 -2.80172 -3.07641 0
M  V30 7922 H 739.73 -3.35542 -4.34399 0
M  V30 7923 H 739.991 -1.63451 -4.10775 0
M  V30 7924 N 739.05 0.861098 -1.31996 0
M  V30 7925 C 740.275 1.65264 -1.2531 0
M  V30 7926 C 740.7 1.87265 0.177007 0
M  V30 7927 O 740.058 1.4208 1.12619 0
M  V30 7928 C 740.106 2.99284 -2.0115 0
M  V30 7929 O 739.21 3.89508 -1.3549 0
M  V30 7930 H 738.551 0.50409 -0.432192 0
M  V30 7931 H 741.081 1.07297 -1.74208 0
M  V30 7932 H 741.091 3.49154 -2.11081 0
M  V30 7933 H 739.766 2.82591 -3.05148 0
M  V30 7934 H 738.343 3.47966 -1.34066 0
M  V30 7935 N 740.528 1.15101 1.07655 0
M  V30 7936 C 741.491 0.847625 2.12951 0
M  V30 7937 C 742.491 -0.151227 1.60087 0
M  V30 7938 O 743.681 0.0780399 1.74025 0
M  V30 7939 C 740.813 0.265 3.39868 0
M  V30 7940 H 742.006 1.7809 2.41296 0
M  V30 7941 H 739.559 0.958072 1.23494 0
M  V30 7942 H 740.294 -0.676625 3.17163 0
M  V30 7943 H 740.079 0.984554 3.79538 0
M  V30 7944 H 741.569 0.0702121 4.17541 0
M  V30 7945 N 742.006 -1.2595 0.947325 0
M  V30 7946 C 742.936 -2.28521 0.479604 0
M  V30 7947 C 743.917 -1.63469 -0.470293 0
M  V30 7948 O 745.102 -1.90627 -0.370824 0
M  V30 7949 C 742.232 -3.46397 -0.250289 0
M  V30 7950 C 741.186 -4.23578 0.613643 0
M  V30 7951 C 740.512 -5.34131 -0.246568 0
M  V30 7952 C 741.812 -4.86979 1.88809 0
M  V30 7953 H 743.506 -2.67895 1.33688 0
M  V30 7954 H 741.052 -1.28783 0.644274 0
M  V30 7955 H 743.005 -4.17269 -0.588576 0
M  V30 7956 H 741.729 -3.05993 -1.14175 0
M  V30 7957 H 740.388 -3.54478 0.93491 0
M  V30 7958 H 740.036 -4.89968 -1.13756 0
M  V30 7959 H 739.736 -5.86683 0.328123 0
M  V30 7960 H 741.26 -6.07839 -0.579986 0
M  V30 7961 H 742.674 -5.50034 1.61666 0
M  V30 7962 H 741.071 -5.49675 2.40784 0
M  V30 7963 H 742.141 -4.09575 2.5957 0
M  V30 7964 N 743.484 -0.715051 -1.40445 0
M  V30 7965 C 744.73 -0.254705 -2.01194 0
M  V30 7966 C 745.063 1.14894 -1.56567 0
M  V30 7967 O 744.338 1.77933 -0.785491 0
M  V30 7968 C 744.621 -0.334148 -3.58546 0
M  V30 7969 C 744.474 -1.77613 -4.13248 0
M  V30 7970 C 745.793 0.294968 -4.3911 0
M  V30 7971 H 742.912 -0.094025 -0.730978 0
M  V30 7972 H 745.554 -0.907449 -1.66929 0
M  V30 7973 H 743.704 0.221609 -3.87867 0
M  V30 7974 H 745.376 -2.38723 -3.94727 0
M  V30 7975 H 743.619 -2.30402 -3.67556 0
M  V30 7976 H 744.29 -1.78311 -5.22407 0
M  V30 7977 H 746.766 -0.178563 -4.15717 0
M  V30 7978 H 745.642 0.208934 -5.48502 0
M  V30 7979 H 745.903 1.37841 -4.20062 0
M  V30 7980 N 744.962 1.50701 -0.461195 0
M  V30 7981 C 745.892 2.31182 0.328184 0
M  V30 7982 C 746.873 1.37644 0.999408 0
M  V30 7983 O 748.058 1.66565 0.99848 0
M  V30 7984 C 745.188 3.17113 1.41621 0
M  V30 7985 C 744.142 4.19124 0.867148 0
M  V30 7986 C 743.468 4.93728 2.05272 0
M  V30 7987 C 744.768 5.22174 -0.114808 0
M  V30 7988 H 746.462 2.97423 -0.343501 0
M  V30 7989 H 744.008 1.43033 -0.166641 0
M  V30 7990 H 745.961 3.72208 1.97584 0
M  V30 7991 H 744.685 2.48739 2.11652 0
M  V30 7992 H 743.344 3.65116 0.329557 0
M  V30 7993 H 742.992 4.21835 2.73978 0
M  V30 7994 H 742.692 5.62724 1.69161 0
M  V30 7995 H 744.216 5.51654 2.61744 0
M  V30 7996 H 745.63 5.72198 0.355316 0
M  V30 7997 H 744.027 5.98833 -0.389689 0
M  V30 7998 H 745.097 4.7353 -1.04391 0
M  V30 7999 N 746.441 0.193421 1.56409 0
M  V30 8000 C 747.689 -0.444908 1.97142 0
M  V30 8001 C 748.01 -1.62268 1.08139 0
M  V30 8002 O 747.28 -1.95307 0.152326 0
M  V30 8003 H 745.86 -0.16736 0.728011 0
M  V30 8004 H 748.522 0.279763 1.92882 0
M  V30 8005 H 747.618 -0.790159 3.01932 0
M  V30 8006 N 747.919 -1.57396 -0.0801906 0
M  V30 8007 C 749.165 -1.87979 -0.776884 0
M  V30 8008 C 749.52 -0.786098 -1.75608 0
M  V30 8009 O 748.813 0.210541 -1.9044 0
M  V30 8010 C 749.007 -3.22915 -1.53169 0
M  V30 8011 C 748.836 -4.45306 -0.627099 0
M  V30 8012 C 747.606 -5.04593 -0.267201 0
M  V30 8013 C 749.804 -5.14249 0.0724916 0
M  V30 8014 N 747.786 -6.10513 0.643995 0
M  V30 8015 C 749.157 -6.14267 0.841191 0
M  V30 8016 C 751.212 -4.97689 0.144847 0
M  V30 8017 C 749.915 -6.99514 1.67551 0
M  V30 8018 C 751.941 -5.83455 0.966112 0
M  V30 8019 C 751.303 -6.83005 1.72288 0
M  V30 8020 H 747.402 -0.737519 -0.259979 0
M  V30 8021 H 749.986 -1.94661 -0.0387512 0
M  V30 8022 H 748.157 -3.17256 -2.2406 0
M  V30 8023 H 749.889 -3.41174 -2.17675 0
M  V30 8024 H 746.644 -4.69548 -0.618194 0
M  V30 8025 H 747.068 -6.68125 1.09259 0
M  V30 8026 H 751.71 -4.20649 -0.4259 0
M  V30 8027 H 749.428 -7.75934 2.25726 0
M  V30 8028 H 753.014 -5.727 1.02497 0
M  V30 8029 H 751.894 -7.48219 2.34813 0
M  V30 8030 N 749.397 0.351382 -1.53633 0
M  V30 8031 C 750.327 1.43688 -1.84055 0
M  V30 8032 C 751.308 1.55251 -0.695073 0
M  V30 8033 O 752.493 1.69587 -0.946257 0
M  V30 8034 C 749.623 2.80843 -2.04315 0
M  V30 8035 C 748.577 2.84094 -3.20117 0
M  V30 8036 C 747.903 4.2406 -3.25696 0
M  V30 8037 C 749.203 2.50334 -4.58399 0
M  V30 8038 H 750.897 1.18478 -2.74961 0
M  V30 8039 H 748.443 0.568509 -1.32303 0
M  V30 8040 H 750.396 3.56821 -2.2418 0
M  V30 8041 H 749.12 3.07471 -1.10132 0
M  V30 8042 H 747.779 2.10568 -3.00094 0
M  V30 8043 H 747.427 4.47785 -2.29123 0
M  V30 8044 H 747.127 4.27147 -4.03509 0
M  V30 8045 H 748.651 5.0189 -3.47762 0
M  V30 8046 H 750.065 3.16025 -4.78332 0
M  V30 8047 H 748.462 2.64717 -5.38558 0
M  V30 8048 H 749.532 1.45542 -4.62543 0
M  V30 8049 N 750.875 1.45233 0.611969 0
M  V30 8050 C 751.823 1.53898 1.74408 0
M  V30 8051 C 752.817 0.409254 1.64382 0
M  V30 8052 O 754.023 0.584988 1.70229 0
M  V30 8053 H 750.398 0.483303 0.576127 0
M  V30 8054 H 752.369 2.49143 1.64227 0
M  V30 8055 C 751.118 1.51865 3.12782 0
M  V30 8056 H 750.441 2.38118 3.21154 0
M  V30 8057 H 751.881 1.61986 3.91838 0
M  V30 8058 C 750.34 0.242374 3.36027 0
M  V30 8059 O 750.87 -0.679587 3.9591 0
M  V30 8060 N 749.076 0.139448 2.90265 0
M  V30 8061 H 748.623 0.890571 2.41716 0
M  V30 8062 H 748.581 -0.713686 3.06193 0
M  V30 8063 N 752.353 -0.854086 1.3245 0
M  V30 8064 C 753.283 -1.97827 1.24044 0
M  V30 8065 C 754.264 -1.69646 0.124166 0
M  V30 8066 O 755.449 -1.91687 0.31143 0
M  V30 8067 C 752.579 -3.33673 0.963324 0
M  V30 8068 C 751.533 -3.76207 2.04089 0
M  V30 8069 C 750.859 -5.0969 1.61618 0
M  V30 8070 C 752.159 -3.91612 3.45597 0
M  V30 8071 H 753.853 -2.05118 2.18099 0
M  V30 8072 H 751.399 -0.985489 1.04996 0
M  V30 8073 H 753.352 -4.11871 0.891061 0
M  V30 8074 H 752.076 -3.26597 -0.0128649 0
M  V30 8075 H 750.735 -3.0026 2.10332 0
M  V30 8076 H 750.383 -4.99072 0.627418 0
M  V30 8077 H 750.083 -5.3912 2.33717 0
M  V30 8078 H 751.607 -5.90381 1.55829 0
M  V30 8079 H 753.021 -4.60163 3.4194 0
M  V30 8080 H 751.418 -4.3246 4.16051 0
M  V30 8081 H 752.488 -2.9451 3.85217 0
M  V30 8082 N 753.831 -1.1567 -1.07043 0
M  V30 8083 C 754.761 -0.879348 -2.16309 0
M  V30 8084 C 755.742 0.171311 -1.69235 0
M  V30 8085 O 756.927 0.0250175 -1.94184 0
M  V30 8086 C 754.057 -0.371307 -3.45309 0
M  V30 8087 C 753.011 -1.359 -4.05851 0
M  V30 8088 C 752.337 -0.709678 -5.29969 0
M  V30 8089 C 753.637 -2.72606 -4.45514 0
M  V30 8090 H 755.331 -1.79308 -2.39768 0
M  V30 8091 H 752.877 -0.863558 -1.15233 0
M  V30 8092 H 754.83 -0.164798 -4.21078 0
M  V30 8093 H 753.554 0.577906 -3.21446 0
M  V30 8094 H 752.213 -1.55193 -3.32131 0
M  V30 8095 H 751.861 0.245782 -5.02399 0
M  V30 8096 H 751.561 -1.36886 -5.71433 0
M  V30 8097 H 753.085 -0.513015 -6.08441 0
M  V30 8098 H 754.499 -2.57141 -5.12398 0
M  V30 8099 H 752.896 -3.34927 -4.97939 0
M  V30 8100 H 753.966 -3.28434 -3.56734 0
M  V30 8101 N 755.309 1.25446 -0.953992 0
M  V30 8102 C 756.539 1.96929 -0.624688 0
M  V30 8103 C 756.947 1.71112 0.807292 0
M  V30 8104 O 756.29 0.983512 1.55154 0
M  V30 8105 C 756.352 3.50425 -0.802676 0
M  V30 8106 C 756.016 3.99916 -2.21169 0
M  V30 8107 C 757.013 4.10662 -3.18831 0
M  V30 8108 C 754.698 4.33598 -2.53571 0
M  V30 8109 C 756.692 4.54401 -4.46988 0
M  V30 8110 C 754.379 4.77024 -3.81958 0
M  V30 8111 C 755.377 4.87388 -4.78478 0
M  V30 8112 O 755.065 5.29851 -6.04577 0
M  V30 8113 H 754.797 0.634511 -0.233179 0
M  V30 8114 H 757.351 1.60591 -1.28061 0
M  V30 8115 H 755.581 3.86596 -0.0896044 0
M  V30 8116 H 757.27 4.03117 -0.47452 0
M  V30 8117 H 758.036 3.84872 -2.95124 0
M  V30 8118 H 753.915 4.24757 -1.79171 0
M  V30 8119 H 757.459 4.62406 -5.22328 0
M  V30 8120 H 753.356 5.02258 -4.05471 0
M  V30 8121 H 754.124 5.48039 -6.07944 0
M  V30 8122 N 756.787 0.722489 1.40064 0
M  V30 8123 C 758.017 0.274439 2.04769 0
M  V30 8124 C 758.425 -1.09125 1.54559 0
M  V30 8125 O 757.768 -1.69834 0.700149 0
M  V30 8126 C 757.83 0.184091 3.59028 0
M  V30 8127 C 757.494 1.48619 4.32159 0
M  V30 8128 C 758.491 2.42947 4.59644 0
M  V30 8129 C 756.176 1.74703 4.7094 0
M  V30 8130 C 758.17 3.616 5.24904 0
M  V30 8131 C 755.857 2.93636 5.3593 0
M  V30 8132 C 756.855 3.86907 5.62843 0
M  V30 8133 O 756.543 5.03753 6.26489 0
M  V30 8134 H 756.275 0.119847 0.665292 0
M  V30 8135 H 758.829 0.983352 1.80331 0
M  V30 8136 H 757.059 -0.580821 3.82313 0
M  V30 8137 H 758.748 -0.230306 4.05246 0
M  V30 8138 H 759.514 2.24062 4.30141 0
M  V30 8139 H 755.393 1.02955 4.49356 0
M  V30 8140 H 758.937 4.34418 5.45827 0
M  V30 8141 H 754.834 3.12428 5.64853 0
M  V30 8142 H 755.602 5.03922 6.44984 0
M  V30 8143 N 758.265 -1.50454 0.469181 0
M  V30 8144 C 759.493 -2.06729 -0.0842134 0
M  V30 8145 C 759.908 -1.33326 -1.33677 0
M  V30 8146 O 759.265 -0.401977 -1.78018 0
M  V30 8147 C 759.316 -3.59557 -0.374253 0
M  V30 8148 O 759.037 -4.30192 0.828622 0
M  V30 8149 C 760.538 -4.32449 -0.974824 0
M  V30 8150 H 757.758 -0.670971 0.006231 0
M  V30 8151 H 760.302 -1.93645 0.657415 0
M  V30 8152 H 758.457 -3.7245 -1.06581 0
M  V30 8153 H 758.871 -5.21371 0.572066 0
M  V30 8154 H 760.345 -5.40361 -1.12755 0
M  V30 8155 H 760.822 -3.92819 -1.96442 0
M  V30 8156 H 761.428 -4.24082 -0.321703 0
M  V30 8157 N 759.743 -0.201713 -1.56304 0
M  V30 8158 C 761.159 0.154025 -1.58855 0
M  V30 8159 C 761.359 1.60516 -1.21807 0
M  V30 8160 O 760.415 2.34193 -0.94393 0
M  V30 8161 C 761.728 -0.154319 -3.00304 0
M  V30 8162 C 763.276 -0.0949578 -3.12856 0
M  V30 8163 C 763.751 -0.376703 -4.56448 0
M  V30 8164 N 765.242 -0.325558 -4.62054 0
M  V30 8165 C 765.977 -0.51732 -5.71062 0
M  V30 8166 N 765.473 -0.769789 -6.8851 0
M  V30 8167 N 767.266 -0.45112 -5.60287 0
M  V30 8168 H 759.417 -1.14858 -1.78666 0
M  V30 8169 H 761.68 -0.458934 -0.829508 0
M  V30 8170 H 761.386 -1.16074 -3.31994 0
M  V30 8171 H 761.26 0.540014 -3.73314 0
M  V30 8172 H 763.647 0.902075 -2.80974 0
M  V30 8173 H 763.728 -0.822468 -2.42217 0
M  V30 8174 H 763.372 -1.37108 -4.89044 0
M  V30 8175 H 763.302 0.371772 -5.25286 0
M  V30 8176 H 765.793 -0.137308 -3.7765 0
M  V30 8177 H 766.106 -0.904744 -7.67486 0
M  V30 8178 H 764.451 -0.806758 -6.90302 0
M  V30 8179 H 767.642 -0.254253 -4.67409 0
M  V30 8180 H 767.815 -0.603982 -6.45179 0
M  V30 8181 N 761.222 1.57436 0.0718424 0
M  V30 8182 C 762.47 1.86878 0.769484 0
M  V30 8183 C 762.791 0.7937 1.78116 0
M  V30 8184 O 762.061 -0.177642 1.95093 0
M  V30 8185 H 760.641 0.689593 0.287177 0
M  V30 8186 H 763.303 1.94841 0.0479427 0
M  V30 8187 H 762.399 2.84387 1.28572 0
M  V30 8188 N 762.7 -0.34323 1.53817 0
M  V30 8189 C 763.947 -1.08344 1.71079 0
M  V30 8190 C 764.275 -1.88633 0.474133 0
M  V30 8191 O 763.53 -1.87984 -0.544116 0
M  V30 8192 C 763.829 -2.05195 2.92626 0
M  V30 8193 C 763.495 -1.41215 4.28216 0
M  V30 8194 C 762.157 -1.23495 4.65083 0
M  V30 8195 C 764.509 -0.951273 5.12445 0
M  V30 8196 C 761.837 -0.583065 5.83796 0
M  V30 8197 C 764.189 -0.313292 6.31824 0
M  V30 8198 C 762.853 -0.123779 6.67385 0
M  V30 8199 H 762.123 -0.396458 0.626021 0
M  V30 8200 H 764.77 -0.362689 1.88034 0
M  V30 8201 H 763.075 -2.83653 2.70275 0
M  V30 8202 H 764.772 -2.62462 3.03175 0
M  V30 8203 H 761.362 -1.56005 3.992 0
M  V30 8204 H 765.546 -1.07602 4.84495 0
M  V30 8205 H 760.802 -0.424854 6.09922 0
M  V30 8206 H 764.976 0.0519179 6.96381 0
M  V30 8207 H 762.603 0.383398 7.59233 0
M  V30 8208 N 764.178 -1.45556 -0.604258 0
M  V30 8209 C 765.11 -1.50494 -1.72871 0
M  V30 8210 C 766.123 -0.395368 -1.57926 0
M  V30 8211 O 767.312 -0.662603 -1.65746 0
M  V30 8212 C 764.412 -1.34874 -3.10906 0
M  V30 8213 C 763.585 -2.59564 -3.52058 0
M  V30 8214 C 762.644 -2.38453 -4.6907 0
M  V30 8215 O 761.67 -3.12082 -4.76018 0
M  V30 8216 N 762.872 -1.43229 -5.62553 0
M  V30 8217 H 765.637 -2.4744 -1.69097 0
M  V30 8218 H 763.198 -1.41338 -0.789636 0
M  V30 8219 H 765.19 -1.18556 -3.86945 0
M  V30 8220 H 763.76 -0.461913 -3.09168 0
M  V30 8221 H 762.98 -2.90974 -2.65946 0
M  V30 8222 H 764.268 -3.42441 -3.76313 0
M  V30 8223 H 763.666 -0.824714 -5.59656 0
M  V30 8224 H 762.223 -1.32882 -6.38111 0
M  V30 8225 N 765.656 0.84705 -1.32902 0
M  V30 8226 C 766.606 1.94451 -1.19049 0
M  V30 8227 C 767.59 1.60617 -0.095461 0
M  V30 8228 O 768.782 1.74033 -0.322739 0
M  V30 8229 C 765.911 3.30645 -0.923509 0
M  V30 8230 C 764.997 3.70675 -2.0606 0
M  V30 8231 N 765.388 3.82468 -3.30986 0
M  V30 8232 C 763.686 4.00357 -1.96547 0
M  V30 8233 C 764.387 4.17056 -4.05511 0
M  V30 8234 N 763.363 4.28985 -3.33876 0
M  V30 8235 H 767.165 2.01713 -2.1375 0
M  V30 8236 H 764.679 1.03928 -1.24791 0
M  V30 8237 H 766.676 4.0905 -0.805212 0
M  V30 8238 H 765.336 3.24697 0.0150523 0
M  V30 8239 H 766.347 3.66589 -3.65832 0
M  V30 8240 H 763.024 4.02666 -1.10299 0
M  V30 8241 H 764.414 4.33585 -5.13277 0
M  V30 8242 N 767.134 1.16236 1.06428 0
M  V30 8243 C 768.362 0.967184 1.82902 0
M  V30 8244 C 768.777 -0.484601 1.82475 0
M  V30 8245 O 768.134 -1.33631 1.24294 0
M  V30 8246 C 768.185 1.48534 3.29576 0
M  V30 8247 O 767.906 2.88026 3.3011 0
M  V30 8248 C 769.407 1.33298 4.22784 0
M  V30 8249 H 766.627 0.342923 0.576754 0
M  V30 8250 H 769.171 1.54232 1.34286 0
M  V30 8251 H 767.326 0.952513 3.75508 0
M  V30 8252 H 767.74 3.11721 4.21818 0
M  V30 8253 H 769.214 1.74385 5.23731 0
M  V30 8254 H 769.691 0.278356 4.38317 0
M  V30 8255 H 770.297 1.85535 3.82697 0
M  V30 8256 N 768.612 -1.24939 0.960631 0
M  V30 8257 C 769.86 -1.92437 0.617441 0
M  V30 8258 C 770.181 -1.75543 -0.849101 0
M  V30 8259 O 769.451 -1.12269 -1.60538 0
M  V30 8260 H 768.031 -0.712192 0.225371 0
M  V30 8261 H 770.693 -1.5198 1.22017 0
M  V30 8262 H 769.789 -3.00247 0.851933 0
M  V30 8263 N 770.09 -0.729906 -1.39679 0
M  V30 8264 C 771.339 -0.272534 -1.9985 0
M  V30 8265 C 771.652 1.14519 -1.58571 0
M  V30 8266 O 772.858 1.70182 -2.11543 0
M  V30 8267 C 771.314 -0.436322 -3.57245 0
M  V30 8268 C 770.922 -1.86161 -4.0749 0
M  V30 8269 C 772.666 -0.0404679 -4.24481 0
M  V30 8270 C 770.573 -1.97522 -5.5744 0
M  V30 8271 H 769.503 -0.0981428 -0.747585 0
M  V30 8272 H 772.154 -0.903056 -1.59741 0
M  V30 8273 H 770.536 0.263015 -3.95126 0
M  V30 8274 H 771.71 -2.59248 -3.80955 0
M  V30 8275 H 770.025 -2.21021 -3.529 0
M  V30 8276 H 772.622 -0.104437 -5.34598 0
M  V30 8277 H 772.965 1.00357 -4.04023 0
M  V30 8278 H 773.498 -0.690774 -3.91757 0
M  V30 8279 H 770.237 -3.00096 -5.82771 0
M  V30 8280 H 769.757 -1.28864 -5.85794 0
M  V30 8281 H 771.436 -1.754 -6.22771 0
M  V30 8282 N 771.568 1.50203 -0.477153 0
M  V30 8283 C 772.798 2.0647 0.0731427 0
M  V30 8284 C 773.206 1.3405 1.33518 0
M  V30 8285 O 772.549 0.405164 1.79176 0
M  V30 8286 C 772.611 3.57025 0.421121 0
M  V30 8287 C 772.275 4.50973 -0.739765 0
M  V30 8288 C 773.272 4.939 -1.62353 0
M  V30 8289 C 770.957 4.93581 -0.93181 0
M  V30 8290 C 772.951 5.78149 -2.6837 0
M  V30 8291 C 770.638 5.77612 -1.99519 0
M  V30 8292 C 771.636 6.19798 -2.86949 0
M  V30 8293 O 771.324 7.02152 -3.91456 0
M  V30 8294 H 771.056 0.675969 -0.00648243 0
M  V30 8295 H 773.61 1.94278 -0.66673 0
M  V30 8296 H 771.84 3.67141 1.21426 0
M  V30 8297 H 773.529 3.95632 0.907213 0
M  V30 8298 H 774.295 4.61646 -1.48687 0
M  V30 8299 H 770.174 4.60262 -0.260739 0
M  V30 8300 H 773.718 6.10997 -3.36643 0
M  V30 8301 H 769.615 6.09279 -2.13189 0
M  V30 8302 H 770.383 7.20414 -3.88518 0
M  V30 8303 N 773.046 0.209999 1.56195 0
M  V30 8304 C 774.271 -0.433064 2.02828 0
M  V30 8305 C 774.696 -1.5337 1.08901 0
M  V30 8306 O 774.054 -1.81144 0.0751132 0
M  V30 8307 C 774.102 -0.952635 3.47789 0
M  V30 8308 O 773.206 -2.0647 3.56993 0
M  V30 8309 H 772.547 -0.0994594 0.656509 0
M  V30 8310 H 775.077 0.32525 2.01998 0
M  V30 8311 H 775.087 -1.26542 3.8788 0
M  V30 8312 H 773.762 -0.147007 4.1564 0
M  V30 8313 H 772.339 -1.75942 3.28784 0
M  V30 8314 N 774.524 -1.57472 -0.0634922 0
M  V30 8315 C 775.77 -1.87932 -0.762194 0
M  V30 8316 C 776.103 -0.803377 -1.76804 0
M  V30 8317 O 775.378 0.185468 -1.93614 0
M  V30 8318 C 775.661 -3.29053 -1.46275 0
M  V30 8319 C 775.514 -4.47309 -0.472755 0
M  V30 8320 C 776.833 -3.68537 -2.40558 0
M  V30 8321 H 773.952 -0.683521 -0.275624 0
M  V30 8322 H 776.594 -1.89983 -0.0252651 0
M  V30 8323 H 774.744 -3.27435 -2.0909 0
M  V30 8324 H 776.416 -4.61053 0.150828 0
M  V30 8325 H 774.659 -4.33286 0.211187 0
M  V30 8326 H 775.33 -5.42853 -1.00072 0
M  V30 8327 H 777.806 -3.71302 -1.87814 0
M  V30 8328 H 776.682 -4.68152 -2.86574 0
M  V30 8329 H 776.943 -2.98917 -3.25731 0
M  V30 8330 N 776.003 0.335068 -1.53997 0
M  V30 8331 C 776.936 1.43533 -1.77407 0
M  V30 8332 C 777.914 1.5017 -0.623529 0
M  V30 8333 O 779.098 1.67756 -0.85966 0
M  V30 8334 C 776.225 2.81712 -1.88033 0
M  V30 8335 C 775.271 2.92661 -3.10245 0
M  V30 8336 S 776.104 2.58254 -4.69111 0
M  V30 8337 C 777.26 3.98525 -4.82627 0
M  V30 8338 H 777.493 1.2346 -2.70453 0
M  V30 8339 H 775.026 0.531234 -1.44973 0
M  V30 8340 H 776.984 3.61314 -1.9484 0
M  V30 8341 H 775.645 2.99075 -0.959849 0
M  V30 8342 H 774.838 3.93931 -3.14379 0
M  V30 8343 H 774.44 2.21017 -3.01708 0
M  V30 8344 H 776.732 4.93146 -4.64557 0
M  V30 8345 H 777.675 3.9938 -5.84723 0
M  V30 8346 H 778.083 3.86945 -4.11016 0
M  V30 8347 N 777.481 1.45874 0.596531 0
M  V30 8348 C 778.73 1.49737 1.35135 0
M  V30 8349 C 779.043 0.147755 1.95041 0
M  V30 8350 O 780.249 0.0640984 2.71424 0
M  V30 8351 C 778.705 2.6378 2.44843 0
M  V30 8352 C 778.313 4.05102 1.91301 0
M  V30 8353 C 780.057 2.769 3.21755 0
M  V30 8354 C 777.964 5.10508 2.98557 0
M  V30 8355 H 776.894 0.557219 0.507959 0
M  V30 8356 H 779.545 1.72046 0.638147 0
M  V30 8357 H 777.927 2.34774 3.189 0
M  V30 8358 H 779.101 4.43836 1.2388 0
M  V30 8359 H 777.416 3.96528 1.271 0
M  V30 8360 H 780.013 3.52819 4.01775 0
M  V30 8361 H 780.356 1.83924 3.73467 0
M  V30 8362 H 780.889 3.05485 2.54802 0
M  V30 8363 H 777.628 6.0523 2.51749 0
M  V30 8364 H 777.148 4.76332 3.6451 0
M  V30 8365 H 778.827 5.35745 3.62748 0
M  V30 8366 N 778.959 -0.83999 1.33349 0
M  V30 8367 C 779.891 -1.95678 1.19344 0
M  V30 8368 C 780.904 -1.62322 0.124692 0
M  V30 8369 O 782.093 -1.74516 0.375012 0
M  V30 8370 C 779.193 -3.29133 0.807771 0
M  V30 8371 C 778.366 -3.9063 1.96792 0
M  V30 8372 C 777.425 -5.02438 1.56341 0
M  V30 8373 O 776.451 -5.21646 2.27759 0
M  V30 8374 N 777.653 -5.78612 0.467767 0
M  V30 8375 H 780.418 -2.08229 2.15548 0
M  V30 8376 H 777.979 -1.01566 1.26079 0
M  V30 8377 H 779.971 -4.01355 0.519282 0
M  V30 8378 H 778.541 -3.12535 -0.063555 0
M  V30 8379 H 777.761 -3.11011 2.4221 0
M  V30 8380 H 779.049 -4.2845 2.74422 0
M  V30 8381 H 778.447 -5.65559 -0.126324 0
M  V30 8382 H 777.004 -6.51362 0.238945 0
M  V30 8383 N 780.437 -1.16799 -1.0581 0
M  V30 8384 C 781.384 -0.87902 -2.13405 0
M  V30 8385 C 782.354 0.174541 -1.6518 0
M  V30 8386 O 783.539 0.0386843 -1.90761 0
M  V30 8387 C 780.679 -0.391616 -3.42871 0
M  V30 8388 C 779.792 -1.50857 -4.04804 0
M  V30 8389 C 778.927 -0.975682 -5.22163 0
M  V30 8390 C 777.966 -2.06851 -5.76089 0
M  V30 8391 N 777.103 -1.55085 -6.84758 0
M  V30 8392 H 781.943 -1.80043 -2.37463 0
M  V30 8393 H 779.48 -0.898083 -1.16503 0
M  V30 8394 H 781.438 -0.0906247 -4.17102 0
M  V30 8395 H 780.068 0.49284 -3.19016 0
M  V30 8396 H 779.12 -1.92542 -3.28073 0
M  V30 8397 H 780.432 -2.33305 -4.40874 0
M  V30 8398 H 779.586 -0.628165 -6.03439 0
M  V30 8399 H 778.325 -0.120566 -4.87551 0
M  V30 8400 H 777.33 -2.42467 -4.93447 0
M  V30 8401 H 778.555 -2.92768 -6.12751 0
M  V30 8402 H 776.501 -0.718345 -6.52055 0
M  V30 8403 H 776.418 -2.31145 -7.19797 0
M  V30 8404 H 777.686 -1.23206 -7.69702 0
M  V30 8405 N 781.915 1.24427 -0.967243 0
M  V30 8406 C 783.161 1.92772 -0.629812 0
M  V30 8407 C 783.494 1.75436 0.832827 0
M  V30 8408 O 782.769 1.10716 1.59913 0
M  V30 8409 C 783.052 3.45798 -1.00477 0
M  V30 8410 C 782.905 3.72304 -2.52407 0
M  V30 8411 C 784.224 4.36787 -0.538999 0
M  V30 8412 H 781.343 0.700099 -0.230282 0
M  V30 8413 H 783.985 1.46805 -1.20616 0
M  V30 8414 H 782.135 3.8508 -0.514336 0
M  V30 8415 H 783.807 3.42584 -3.08924 0
M  V30 8416 H 782.05 3.17472 -2.95625 0
M  V30 8417 H 782.721 4.7937 -2.73693 0
M  V30 8418 H 785.197 4.04877 -0.959874 0
M  V30 8419 H 784.073 5.4259 -0.829926 0
M  V30 8420 H 784.334 4.38527 0.560923 0
M  V30 8421 N 783.393 0.737304 1.3929 0
M  V30 8422 C 784.642 0.283129 1.99703 0
M  V30 8423 C 784.955 -1.13677 1.59176 0
M  V30 8424 O 786.161 -1.69058 2.12442 0
M  V30 8425 C 784.617 0.455262 3.57009 0
M  V30 8426 C 784.225 1.88319 4.06497 0
M  V30 8427 C 785.969 0.0629786 4.24453 0
M  V30 8428 C 783.876 2.00475 5.56385 0
M  V30 8429 H 782.806 0.102106 0.747054 0
M  V30 8430 H 785.457 0.911515 1.5926 0
M  V30 8431 H 783.839 -0.242057 3.9526 0
M  V30 8432 H 785.013 2.61265 3.79575 0
M  V30 8433 H 783.328 2.2289 3.51723 0
M  V30 8434 H 785.925 0.132787 5.34535 0
M  V30 8435 H 786.268 -0.982128 4.04549 0
M  V30 8436 H 786.801 0.71154 3.91385 0
M  V30 8437 H 783.54 3.03182 5.81172 0
M  V30 8438 H 783.06 1.31969 5.85102 0
M  V30 8439 H 784.739 1.787 6.21832 0
M  V30 8440 N 784.871 -1.49948 0.485112 0
M  V30 8441 C 785.801 -2.31675 -0.291364 0
M  V30 8442 C 786.782 -1.39216 -0.977383 0
M  V30 8443 O 787.967 -1.68133 -0.971855 0
M  V30 8444 C 785.097 -3.19326 -1.36558 0
M  V30 8445 C 784.051 -4.2045 -0.800359 0
M  V30 8446 C 783.377 -4.96931 -1.97391 0
M  V30 8447 C 784.677 -5.21925 0.197867 0
M  V30 8448 H 786.371 -2.96839 0.390775 0
M  V30 8449 H 783.917 -1.42749 0.189375 0
M  V30 8450 H 785.87 -3.75304 -1.91638 0
M  V30 8451 H 784.594 -2.52074 -2.07668 0
M  V30 8452 H 783.253 -3.65594 -0.271428 0
M  V30 8453 H 782.901 -4.26141 -2.67232 0
M  V30 8454 H 782.601 -5.65344 -1.60187 0
M  V30 8455 H 784.125 -5.55749 -2.52935 0
M  V30 8456 H 785.539 -5.72691 -0.264239 0
M  V30 8457 H 783.936 -5.98138 0.484908 0
M  V30 8458 H 785.006 -4.71809 1.11912 0
M  V30 8459 N 786.349 -0.21828 -1.56081 0
M  V30 8460 C 787.765 0.137168 -1.59009 0
M  V30 8461 C 787.965 1.59215 -1.23503 0
M  V30 8462 O 787.021 2.33178 -0.968716 0
M  V30 8463 C 788.334 -0.186162 -3.00123 0
M  V30 8464 C 789.882 -0.128135 -3.12738 0
M  V30 8465 C 790.357 -0.425094 -4.56023 0
M  V30 8466 N 791.848 -0.374547 -4.61683 0
M  V30 8467 C 792.583 -0.57786 -5.70481 0
M  V30 8468 N 792.079 -0.842771 -6.87655 0
M  V30 8469 N 793.872 -0.510521 -5.59777 0
M  V30 8470 H 786.023 -1.16746 -1.77437 0
M  V30 8471 H 788.286 -0.467706 -0.824594 0
M  V30 8472 H 787.992 -1.19589 -3.30744 0
M  V30 8473 H 787.866 0.500388 -3.73866 0
M  V30 8474 H 790.253 0.872224 -2.81915 0
M  V30 8475 H 790.334 -0.848112 -2.41331 0
M  V30 8476 H 789.978 -1.42288 -4.87562 0
M  V30 8477 H 789.908 0.316038 -5.25651 0
M  V30 8478 H 792.399 -0.177356 -3.77484 0
M  V30 8479 H 792.712 -0.986095 -7.66483 0
M  V30 8480 H 791.057 -0.879929 -6.89407 0
M  V30 8481 H 794.248 -0.303813 -4.67113 0
M  V30 8482 H 794.421 -0.672378 -6.44502 0
M  V30 8483 N 787.827 1.57504 0.0551401 0
M  V30 8484 C 789.104 1.79155 0.785048 0
M  V30 8485 C 789.484 0.809995 1.94942 0
M  V30 8486 O 788.832 -0.153432 2.27984 0
M  V30 8487 C 789.042 3.26134 1.24247 0
M  V30 8488 C 790.39 3.90419 1.66908 0
M  V30 8489 O 791.414 3.30126 1.33772 0
M  V30 8490 O 790.273 4.96523 2.28314 0
M  V30 8491 H 787.367 0.735825 0.377479 0
M  V30 8492 H 789.913 1.69666 0.0339285 0
M  V30 8493 H 788.685 3.89145 0.410089 0
M  V30 8494 H 788.308 3.40411 2.05441 0
M  V30 8495 N 789.305 -0.326896 1.54172 0
M  V30 8496 C 790.235 -1.40741 1.86317 0
M  V30 8497 C 791.216 -1.54125 0.719684 0
M  V30 8498 O 792.401 -1.6806 0.973117 0
M  V30 8499 C 789.531 -2.77557 2.08757 0
M  V30 8500 C 788.485 -2.78965 3.24596 0
M  V30 8501 C 787.811 -4.18824 3.32401 0
M  V30 8502 C 789.111 -2.4301 4.62324 0
M  V30 8503 H 790.805 -1.14088 2.76811 0
M  V30 8504 H 788.351 -0.547389 1.3319 0
M  V30 8505 H 790.304 -3.53209 2.29829 0
M  V30 8506 H 789.028 -3.0568 1.15009 0
M  V30 8507 H 787.687 -2.05767 3.03406 0
M  V30 8508 H 787.335 -4.44083 2.36218 0
M  V30 8509 H 787.035 -4.20673 4.10253 0
M  V30 8510 H 788.559 -4.96294 3.55703 0
M  V30 8511 H 789.973 -3.08375 4.83299 0
M  V30 8512 H 788.37 -2.56116 5.42701 0
M  V30 8513 H 789.44 -1.38165 4.64799 0
M  V30 8514 N 790.784 -1.46188 -0.588786 0
M  V30 8515 C 791.714 -1.59148 -1.70863 0
M  V30 8516 C 792.695 -0.442083 -1.64255 0
M  V30 8517 O 793.88 -0.667575 -1.82365 0
M  V30 8518 C 791.01 -1.5757 -3.09498 0
M  V30 8519 C 789.964 -2.71418 -3.30932 0
M  V30 8520 C 789.29 -2.549 -4.70032 0
M  V30 8521 C 790.59 -4.1329 -3.19356 0
M  V30 8522 H 792.284 -2.52889 -1.60274 0
M  V30 8523 H 789.83 -1.21707 -0.769638 0
M  V30 8524 H 791.783 -1.65231 -3.87655 0
M  V30 8525 H 790.507 -0.603705 -3.20972 0
M  V30 8526 H 789.166 -2.63216 -2.55172 0
M  V30 8527 H 788.814 -1.55797 -4.78264 0
M  V30 8528 H 788.514 -3.31257 -4.85327 0
M  V30 8529 H 790.038 -2.64443 -5.50366 0
M  V30 8530 H 791.452 -4.22636 -3.87365 0
M  V30 8531 H 789.849 -4.90187 -3.46175 0
M  V30 8532 H 790.919 -4.33874 -2.16522 0
M  V30 8533 N 792.262 0.832906 -1.33792 0
M  V30 8534 C 793.678 1.1245 -1.13257 0
M  V30 8535 C 793.878 2.01369 0.0725832 0
M  V30 8536 O 792.934 2.41071 0.751082 0
M  V30 8537 C 794.247 1.78084 -2.42294 0
M  V30 8538 C 795.795 1.90624 -2.48257 0
M  V30 8539 C 796.27 2.59673 -3.77271 0
M  V30 8540 N 797.761 2.67181 -3.78376 0
M  V30 8541 C 798.496 3.21313 -4.74916 0
M  V30 8542 N 797.992 3.76086 -5.81835 0
M  V30 8543 N 799.785 3.19621 -4.62384 0
M  V30 8544 H 791.936 0.241244 -2.11026 0
M  V30 8545 H 794.199 0.169557 -0.932713 0
M  V30 8546 H 793.905 1.20209 -3.30519 0
M  V30 8547 H 793.779 2.78049 -2.5489 0
M  V30 8548 H 796.166 2.4765 -1.60478 0
M  V30 8549 H 796.247 0.89591 -2.39598 0
M  V30 8550 H 795.891 2.03304 -4.65435 0
M  V30 8551 H 795.821 3.61189 -3.8321 0
M  V30 8552 H 798.312 2.28346 -3.01108 0
M  V30 8553 H 798.625 4.15612 -6.51526 0
M  V30 8554 H 796.97 3.74357 -5.85561 0
M  V30 8555 H 800.161 2.76091 -3.7801 0
M  V30 8556 H 800.334 3.61504 -5.37791 0
M  V30 8557 N 793.74 1.17359 1.05189 0
M  V30 8558 C 794.987 0.961987 1.78191 0
M  V30 8559 C 795.315 -0.509363 1.87712 0
M  V30 8560 O 794.57 -1.39425 1.37329 0
M  V30 8561 C 794.869 1.54821 3.22126 0
M  V30 8562 C 794.535 3.04378 3.32663 0
M  V30 8563 C 793.197 3.45201 3.35246 0
M  V30 8564 C 795.549 4.00387 3.33677 0
M  V30 8565 C 792.877 4.80629 3.36471 0
M  V30 8566 C 795.229 5.35715 3.36441 0
M  V30 8567 C 793.893 5.76002 3.37311 0
M  V30 8568 H 793.163 0.352016 0.652047 0
M  V30 8569 H 795.81 1.46249 1.23627 0
M  V30 8570 H 794.115 0.969432 3.79617 0
M  V30 8571 H 795.812 1.36004 3.77232 0
M  V30 8572 H 792.402 2.71836 3.31366 0
M  V30 8573 H 796.586 3.69906 3.30882 0
M  V30 8574 H 791.842 5.11155 3.35455 0
M  V30 8575 H 796.016 6.09886 3.36173 0
M  V30 8576 H 793.643 6.80919 3.38013 0
M  V30 8577 N 795.218 -1.23913 0.973828 0
M  V30 8578 C 796.148 -2.27453 0.527969 0
M  V30 8579 C 797.129 -1.6443 -0.435513 0
M  V30 8580 O 798.314 -1.9137 -0.330306 0
M  V30 8581 C 795.444 -3.4685 -0.176757 0
M  V30 8582 C 794.398 -4.22181 0.703352 0
M  V30 8583 C 793.724 -5.34534 -0.133215 0
M  V30 8584 C 795.024 -4.82865 1.99096 0
M  V30 8585 H 796.718 -2.65 1.3934 0
M  V30 8586 H 794.264 -1.27388 0.671446 0
M  V30 8587 H 796.217 -4.18424 -0.499934 0
M  V30 8588 H 794.941 -3.08346 -1.07659 0
M  V30 8589 H 793.6 -3.52416 1.00989 0
M  V30 8590 H 793.248 -4.92271 -1.03338 0
M  V30 8591 H 792.948 -5.85855 0.452494 0
M  V30 8592 H 794.472 -6.08933 -0.450924 0
M  V30 8593 H 795.886 -5.46481 1.73297 0
M  V30 8594 H 794.283 -5.44444 2.52389 0
M  V30 8595 H 795.353 -4.03977 2.68199 0
M  V30 8596 N 796.696 -0.74468 -1.38897 0
M  V30 8597 C 797.626 -0.126355 -2.33158 0
M  V30 8598 C 798.607 0.713517 -1.54412 0
M  V30 8599 O 799.792 0.656523 -1.82766 0
M  V30 8600 C 796.922 0.774375 -3.38557 0
M  V30 8601 C 795.876 0.0379214 -4.27983 0
M  V30 8602 C 795.202 1.05631 -5.24162 0
M  V30 8603 C 796.502 -1.12523 -5.10035 0
M  V30 8604 H 798.196 -0.913744 -2.85116 0
M  V30 8605 H 795.742 -0.440847 -1.37086 0
M  V30 8606 H 797.695 1.21655 -4.03458 0
M  V30 8607 H 796.419 1.59399 -2.85061 0
M  V30 8608 H 795.078 -0.384733 -3.64576 0
M  V30 8609 H 794.726 1.86975 -4.66958 0
M  V30 8610 H 794.426 0.568261 -5.84846 0
M  V30 8611 H 795.95 1.49799 -5.9194 0
M  V30 8612 H 797.364 -0.761037 -5.68226 0
M  V30 8613 H 795.761 -1.54355 -5.79909 0
M  V30 8614 H 796.831 -1.94237 -4.44297 0
M  V30 8615 N 798.174 1.49689 -0.493057 0
M  V30 8616 C 799.423 2.01622 0.0560733 0
M  V30 8617 C 799.736 1.37838 1.3878 0
M  V30 8618 O 800.942 1.81054 2.02316 0
M  V30 8619 C 799.398 3.59586 0.150409 0
M  V30 8620 C 799.006 4.32338 -1.1742 0
M  V30 8621 C 800.75 4.19489 0.650327 0
M  V30 8622 C 798.657 5.8214 -1.04246 0
M  V30 8623 H 797.587 0.753594 0.0247297 0
M  V30 8624 H 800.238 1.723 -0.631279 0
M  V30 8625 H 798.62 3.8559 0.902035 0
M  V30 8626 H 799.794 4.18042 -1.9385 0
M  V30 8627 H 798.109 3.84144 -1.60694 0
M  V30 8628 H 800.706 5.29181 0.766272 0
M  V30 8629 H 801.049 3.82326 1.6472 0
M  V30 8630 H 801.582 3.97775 -0.0445371 0
M  V30 8631 H 798.321 6.23814 -2.01336 0
M  V30 8632 H 797.841 5.98952 -0.31892 0
M  V30 8633 H 799.52 6.43004 -0.717957 0
M  V30 8634 N 799.652 0.226554 1.55963 0
M  V30 8635 C 800.882 -0.407915 2.02533 0
M  V30 8636 C 801.29 -1.53539 1.10554 0
M  V30 8637 O 800.633 -1.8338 0.108409 0
M  V30 8638 C 800.695 -0.996081 3.45425 0
M  V30 8639 C 800.359 -0.00341651 4.57 0
M  V30 8640 C 801.356 0.798782 5.13727 0
M  V30 8641 C 799.041 0.116786 5.02164 0
M  V30 8642 C 801.035 1.70784 6.14094 0
M  V30 8643 C 798.722 1.02937 6.02368 0
M  V30 8644 C 799.72 1.82344 6.5821 0
M  V30 8645 O 799.408 2.72067 7.56462 0
M  V30 8646 H 799.14 -0.103524 0.668026 0
M  V30 8647 H 801.694 0.341937 2.02534 0
M  V30 8648 H 799.924 -1.79512 3.42509 0
M  V30 8649 H 801.613 -1.53848 3.75614 0
M  V30 8650 H 802.379 0.716393 4.7968 0
M  V30 8651 H 798.258 -0.491172 4.58376 0
M  V30 8652 H 801.802 2.32807 6.57607 0
M  V30 8653 H 797.699 1.11276 6.35836 0
M  V30 8654 H 798.467 2.66199 7.74003 0
M  V30 8655 N 801.13 -1.57531 -0.0467866 0
M  V30 8656 C 802.06 -2.08425 -1.05268 0
M  V30 8657 C 803.041 -0.982941 -1.38825 0
M  V30 8658 O 804.226 -1.25716 -1.48018 0
M  V30 8659 C 801.356 -2.54897 -2.35891 0
M  V30 8660 C 800.31 -3.69132 -2.16623 0
M  V30 8661 C 799.636 -4.01747 -3.52851 0
M  V30 8662 C 800.936 -4.98243 -1.56689 0
M  V30 8663 H 802.63 -2.92716 -0.62908 0
M  V30 8664 H 800.176 -1.40816 -0.301156 0
M  V30 8665 H 802.129 -2.8912 -3.06574 0
M  V30 8666 H 800.853 -1.67666 -2.80278 0
M  V30 8667 H 799.512 -3.35231 -1.48377 0
M  V30 8668 H 799.16 -3.11608 -3.94853 0
M  V30 8669 H 798.86 -4.78681 -3.4079 0
M  V30 8670 H 800.384 -4.38487 -4.24925 0
M  V30 8671 H 801.798 -5.30535 -2.17268 0
M  V30 8672 H 800.195 -5.79669 -1.55255 0
M  V30 8673 H 801.265 -4.81986 -0.530827 0
M  V30 8674 N 802.608 0.318715 -1.54344 0
M  V30 8675 C 803.854 1.05765 -1.73037 0
M  V30 8676 C 804.187 1.87514 -0.505181 0
M  V30 8677 O 803.462 1.88021 0.497838 0
M  V30 8678 C 803.745 1.97836 -3.00887 0
M  V30 8679 C 803.598 1.19384 -4.33668 0
M  V30 8680 C 804.917 2.97285 -3.24514 0
M  V30 8681 H 802.036 0.383104 -0.629603 0
M  V30 8682 H 804.678 0.333864 -1.87044 0
M  V30 8683 H 802.828 2.59552 -2.89076 0
M  V30 8684 H 804.5 0.600906 -4.57369 0
M  V30 8685 H 802.743 0.496198 -4.30953 0
M  V30 8686 H 803.414 1.87014 -5.19355 0
M  V30 8687 H 805.89 2.45693 -3.35819 0
M  V30 8688 H 804.766 3.58887 -4.15321 0
M  V30 8689 H 805.027 3.70003 -2.41971 0
M  V30 8690 N 804.086 1.46499 0.581025 0
M  V30 8691 C 805.333 1.51896 1.33918 0
M  V30 8692 C 805.661 0.171361 1.93744 0
M  V30 8693 O 804.916 -0.833178 1.77078 0
M  V30 8694 C 805.215 2.56686 2.48691 0
M  V30 8695 C 804.881 4.00656 2.06847 0
M  V30 8696 C 803.543 4.39852 1.9515 0
M  V30 8697 C 805.895 4.91089 1.74589 0
M  V30 8698 C 803.223 5.67345 1.49456 0
M  V30 8699 C 805.575 6.1902 1.30373 0
M  V30 8700 C 804.239 6.57121 1.17255 0
M  V30 8701 H 803.509 0.555826 0.490039 0
M  V30 8702 H 806.156 1.79983 0.654092 0
M  V30 8703 H 804.461 2.22266 3.22653 0
M  V30 8704 H 806.158 2.58091 3.06904 0
M  V30 8705 H 802.748 3.69674 2.16886 0
M  V30 8706 H 806.932 4.61523 1.8251 0
M  V30 8707 H 802.188 5.95635 1.37944 0
M  V30 8708 H 806.362 6.8852 1.04467 0
M  V30 8709 H 803.989 7.55805 0.816236 0
M  V30 8710 N 805.565 -0.825799 1.34232 0
M  V30 8711 C 806.495 -1.95151 1.28212 0
M  V30 8712 C 807.476 -1.69345 0.160123 0
M  V30 8713 O 808.661 -1.90983 0.352019 0
M  V30 8714 C 805.791 -3.31554 1.03388 0
M  V30 8715 C 804.745 -3.71793 2.12023 0
M  V30 8716 C 804.071 -5.06147 1.72392 0
M  V30 8717 C 805.371 -3.84193 3.53826 0
M  V30 8718 H 807.065 -2.00445 2.22401 0
M  V30 8719 H 804.611 -0.962996 1.07063 0
M  V30 8720 H 806.564 -4.09889 0.978225 0
M  V30 8721 H 805.288 -3.26551 0.0564142 0
M  V30 8722 H 803.947 -2.95731 2.16654 0
M  V30 8723 H 803.595 -4.97628 0.733137 0
M  V30 8724 H 803.295 -5.34041 2.451 0
M  V30 8725 H 804.819 -5.86943 1.68317 0
M  V30 8726 H 806.233 -4.52806 3.51624 0
M  V30 8727 H 804.63 -4.23538 4.2513 0
M  V30 8728 H 805.7 -2.86272 3.91377 0
M  V30 8729 N 807.043 -1.17915 -1.04565 0
M  V30 8730 C 808.29 -0.971424 -1.77678 0
M  V30 8731 C 808.618 0.499401 -1.87979 0
M  V30 8732 O 807.873 1.38695 -1.38066 0
M  V30 8733 C 808.172 -1.56528 -3.213 0
M  V30 8734 C 807.838 -3.06138 -3.31044 0
M  V30 8735 C 806.5 -3.46974 -3.33411 0
M  V30 8736 C 808.852 -4.02151 -3.31548 0
M  V30 8737 C 806.18 -4.82406 -3.33918 0
M  V30 8738 C 808.532 -5.37492 -3.33595 0
M  V30 8739 C 807.196 -5.77782 -3.34251 0
M  V30 8740 H 806.466 -0.355469 -0.650171 0
M  V30 8741 H 809.113 -1.46902 -1.22849 0
M  V30 8742 H 807.418 -0.98955 -3.79098 0
M  V30 8743 H 809.115 -1.38003 -3.76505 0
M  V30 8744 H 805.705 -2.73589 -3.29919 0
M  V30 8745 H 809.889 -3.71656 -3.28916 0
M  V30 8746 H 805.145 -5.12927 -3.3274 0
M  V30 8747 H 809.319 -6.1166 -3.32934 0
M  V30 8748 H 806.946 -6.82702 -3.34397 0
M  V30 8749 N 808.521 1.23394 -0.980386 0
M  V30 8750 C 809.769 1.91431 -0.647978 0
M  V30 8751 C 810.09 1.76871 0.821066 0
M  V30 8752 O 809.36 1.14808 1.58732 0
M  V30 8753 H 807.94 0.708516 -0.236673 0
M  V30 8754 H 810.602 1.50019 -1.2442 0
M  V30 8755 H 809.698 2.98854 -0.899592 0
M  V30 8756 N 809.999 0.752036 1.385 0
M  V30 8757 C 811.246 0.307503 2.00152 0
M  V30 8758 C 811.574 -1.11033 1.59693 0
M  V30 8759 O 810.829 -1.77455 0.825125 0
M  V30 8760 C 811.128 0.376155 3.55415 0
M  V30 8761 C 810.794 1.74942 4.15579 0
M  V30 8762 C 809.456 2.12525 4.31725 0
M  V30 8763 C 811.808 2.65031 4.48785 0
M  V30 8764 C 809.136 3.39671 4.78373 0
M  V30 8765 C 811.488 3.91567 4.96848 0
M  V30 8766 C 810.152 4.2922 5.11201 0
M  V30 8767 H 809.422 0.112523 0.732407 0
M  V30 8768 H 812.069 0.962213 1.65571 0
M  V30 8769 H 810.374 -0.362121 3.90123 0
M  V30 8770 H 812.071 0.0138065 4.00998 0
M  V30 8771 H 808.661 1.44726 4.03426 0
M  V30 8772 H 812.845 2.3726 4.35914 0
M  V30 8773 H 808.101 3.68765 4.8767 0
M  V30 8774 H 812.275 4.61517 5.21512 0
M  V30 8775 H 809.902 5.27805 5.47107 0
M  V30 8776 N 811.477 -1.49425 0.500989 0
M  V30 8777 C 812.44 -2.27646 -0.266416 0
M  V30 8778 C 813.44 -1.3366 -0.893961 0
M  V30 8779 O 814.63 -1.5682 -0.758495 0
M  V30 8780 C 811.762 -3.11618 -1.38227 0
M  V30 8781 H 812.955 -2.96945 0.419973 0
M  V30 8782 H 810.508 -1.5419 0.255954 0
M  V30 8783 H 811.243 -2.46885 -2.10281 0
M  V30 8784 H 811.028 -3.80721 -0.937746 0
M  V30 8785 H 812.518 -3.70698 -1.92283 0
M  V30 8786 N 812.955 -0.234822 -1.55841 0
M  V30 8787 C 814.201 0.393843 -1.98939 0
M  V30 8788 C 814.534 1.58466 -1.1226 0
M  V30 8789 O 813.809 1.93635 -0.183242 0
M  V30 8790 C 814.092 0.815492 -3.50745 0
M  V30 8791 C 813.945 -0.379878 -4.48193 0
M  V30 8792 C 815.264 1.66687 -4.07312 0
M  V30 8793 H 812.383 0.141681 -0.723253 0
M  V30 8794 H 815.025 -0.333716 -1.87046 0
M  V30 8795 H 813.175 1.43541 -3.6101 0
M  V30 8796 H 814.847 -1.0182 -4.49923 0
M  V30 8797 H 813.09 -1.02507 -4.21515 0
M  V30 8798 H 813.761 -0.0417069 -5.51984 0
M  V30 8799 H 816.237 1.14369 -4.00074 0
M  V30 8800 H 815.113 1.93078 -5.13821 0
M  V30 8801 H 815.374 2.63468 -3.55017 0
M  V30 8802 N 814.433 1.57553 0.0384317 0
M  V30 8803 C 815.396 2.04927 1.02653 0
M  V30 8804 C 816.396 0.951768 1.29607 0
M  V30 8805 O 817.586 1.21568 1.24768 0
M  V30 8806 C 814.718 2.45828 2.36181 0
M  V30 8807 H 815.911 2.93474 0.617508 0
M  V30 8808 H 813.464 1.53679 0.285031 0
M  V30 8809 H 814.199 1.60408 2.8185 0
M  V30 8810 H 813.984 3.25945 2.1795 0
M  V30 8811 H 815.474 2.82939 3.0714 0
M  V30 8812 N 815.911 -0.310526 1.54511 0
M  V30 8813 C 816.841 -1.38757 1.878 0
M  V30 8814 C 817.822 -1.53353 0.735991 0
M  V30 8815 O 819.007 -1.67018 0.990887 0
M  V30 8816 C 816.137 -2.75327 2.11689 0
M  V30 8817 C 815.091 -2.75506 3.27537 0
M  V30 8818 C 814.417 -4.15275 3.36824 0
M  V30 8819 C 815.717 -2.38093 4.64875 0
M  V30 8820 H 817.411 -1.11146 2.78005 0
M  V30 8821 H 814.957 -0.533232 1.33763 0
M  V30 8822 H 816.91 -3.50752 2.33562 0
M  V30 8823 H 815.634 -3.04443 1.18245 0
M  V30 8824 H 814.293 -2.02538 3.05572 0
M  V30 8825 H 813.941 -4.41553 2.40915 0
M  V30 8826 H 813.641 -4.16299 4.14692 0
M  V30 8827 H 815.165 -4.92493 3.60947 0
M  V30 8828 H 816.579 -3.03232 4.86542 0
M  V30 8829 H 814.976 -2.50345 5.45387 0
M  V30 8830 H 816.046 -1.33227 4.66239 0
M  V30 8831 N 817.389 -1.46805 -0.573248 0
M  V30 8832 C 818.635 -1.5283 -1.33307 0
M  V30 8833 C 818.968 -0.183287 -1.93333 0
M  V30 8834 O 818.243 0.806354 -1.76998 0
M  V30 8835 C 818.526 -2.63414 -2.45531 0
M  V30 8836 C 818.379 -4.07478 -1.90478 0
M  V30 8837 C 819.698 -2.70014 -3.47535 0
M  V30 8838 H 816.817 -0.556371 -0.483343 0
M  V30 8839 H 819.459 -1.78787 -0.643066 0
M  V30 8840 H 817.609 -2.41412 -3.04389 0
M  V30 8841 H 819.281 -4.40795 -1.36004 0
M  V30 8842 H 817.524 -4.16511 -1.21248 0
M  V30 8843 H 818.195 -4.80598 -2.71531 0
M  V30 8844 H 820.671 -2.89817 -2.98572 0
M  V30 8845 H 819.547 -3.49192 -4.23504 0
M  V30 8846 H 819.808 -1.76436 -4.05367 0
M  V30 8847 N 818.867 0.818669 -1.34668 0
M  V30 8848 C 820.092 1.61193 -1.30505 0
M  V30 8849 C 820.517 1.87734 0.117341 0
M  V30 8850 O 819.875 1.45591 1.08042 0
M  V30 8851 C 819.923 2.92733 -2.1057 0
M  V30 8852 O 819.027 3.85 -1.47813 0
M  V30 8853 H 818.368 0.490085 -0.44801 0
M  V30 8854 H 820.898 1.01701 -1.77534 0
M  V30 8855 H 820.908 3.42262 -2.22082 0
M  V30 8856 H 819.583 2.7274 -3.13984 0
M  V30 8857 H 818.16 3.43525 -1.45069 0
M  V30 8858 N 820.346 1.18468 1.03938 0
M  V30 8859 C 821.276 0.936389 2.13902 0
M  V30 8860 C 822.257 -0.126381 1.6963 0
M  V30 8861 O 823.442 0.0264757 1.94182 0
M  V30 8862 C 820.572 0.462729 3.44204 0
M  V30 8863 C 819.526 1.46613 4.02105 0
M  V30 8864 C 818.852 0.84994 5.27902 0
M  V30 8865 C 820.152 2.84323 4.3813 0
M  V30 8866 H 821.846 1.85602 2.3493 0
M  V30 8867 H 819.392 0.893806 1.12903 0
M  V30 8868 H 821.345 0.276382 4.20493 0
M  V30 8869 H 820.069 -0.492477 3.22866 0
M  V30 8870 H 818.728 1.63944 3.27899 0
M  V30 8871 H 818.376 -0.112493 5.02874 0
M  V30 8872 H 818.076 1.51988 5.67603 0
M  V30 8873 H 819.6 0.674152 6.06867 0
M  V30 8874 H 821.014 2.70636 5.054 0
M  V30 8875 H 819.411 3.48012 4.88884 0
M  V30 8876 H 820.481 3.37776 3.47901 0
M  V30 8877 N 821.824 -1.22873 0.986916 0
M  V30 8878 C 823.049 -1.96028 0.677341 0
M  V30 8879 C 823.474 -1.72487 -0.750319 0
M  V30 8880 O 822.832 -1.00036 -1.51203 0
M  V30 8881 C 822.88 -3.46983 0.981593 0
M  V30 8882 O 821.984 -4.12328 0.0770729 0
M  V30 8883 H 821.325 -0.613458 0.254096 0
M  V30 8884 H 823.855 -1.56132 1.32227 0
M  V30 8885 H 823.865 -3.9747 0.920969 0
M  V30 8886 H 822.54 -3.63442 2.02194 0
M  V30 8887 H 821.117 -3.72402 0.192666 0
M  V30 8888 N 823.302 -0.75937 -1.38099 0
M  V30 8889 C 824.234 -0.0956547 -2.29 0
M  V30 8890 C 825.247 0.677561 -1.4803 0
M  V30 8891 O 826.436 0.517696 -1.70828 0
M  V30 8892 C 823.536 0.88844 -3.27047 0
M  V30 8893 C 822.709 0.171652 -4.37063 0
M  V30 8894 C 821.768 1.06733 -5.15262 0
M  V30 8895 O 820.794 0.535698 -5.66674 0
M  V30 8896 N 821.996 2.39486 -5.28797 0
M  V30 8897 H 824.761 -0.876354 -2.86601 0
M  V30 8898 H 822.322 -0.61065 -1.49942 0
M  V30 8899 H 824.314 1.49079 -3.76241 0
M  V30 8900 H 822.884 1.57018 -2.70304 0
M  V30 8901 H 822.104 -0.611473 -3.89429 0
M  V30 8902 H 823.392 -0.324121 -5.07767 0
M  V30 8903 H 822.79 2.85127 -4.88589 0
M  V30 8904 H 821.347 2.94758 -5.81344 0
M  V30 8905 N 824.78 1.49157 -0.508906 0
M  V30 8906 C 825.69 2.33045 0.269656 0
M  V30 8907 C 826.706 1.45143 0.959662 0
M  V30 8908 O 827.882 1.78155 0.939295 0
M  V30 8909 C 824.947 3.20772 1.31554 0
M  V30 8910 C 824.008 4.24531 0.638131 0
M  V30 8911 C 823.241 5.08065 1.63418 0
M  V30 8912 O 823.464 4.93238 2.86483 0
M  V30 8913 O 822.398 5.90117 1.18516 0
M  V30 8914 H 826.224 3.00821 -0.417183 0
M  V30 8915 H 823.809 1.46938 -0.270119 0
M  V30 8916 H 825.691 3.75095 1.92047 0
M  V30 8917 H 824.366 2.55681 1.98516 0
M  V30 8918 H 823.273 3.74099 -0.00674357 0
M  V30 8919 H 824.606 4.92199 0.0108155 0
M  V30 8920 N 826.258 0.243083 1.55714 0
M  V30 8921 C 827.221 -0.644723 2.19945 0
M  V30 8922 C 828.221 -1.10562 1.16759 0
M  V30 8923 O 829.411 -1.01095 1.41865 0
M  V30 8924 C 826.543 -1.88569 2.83997 0
M  V30 8925 H 827.736 -0.0843839 2.99781 0
M  V30 8926 H 825.289 -0.00647246 1.56299 0
M  V30 8927 H 826.024 -2.48736 2.08089 0
M  V30 8928 H 825.809 -1.56345 3.59581 0
M  V30 8929 H 827.299 -2.51774 3.33166 0
M  V30 8930 N 827.736 -1.57571 -0.0300757 0
M  V30 8931 C 828.982 -1.90355 -0.716687 0
M  V30 8932 C 829.337 -0.841568 -1.73018 0
M  V30 8933 O 828.63 0.149847 -1.91013 0
M  V30 8934 C 828.824 -3.27624 -1.42818 0
M  V30 8935 C 828.653 -4.47076 -0.485111 0
M  V30 8936 C 827.423 -5.05188 -0.106533 0
M  V30 8937 C 829.621 -5.13758 0.236059 0
M  V30 8938 N 827.603 -6.08155 0.837899 0
M  V30 8939 C 828.974 -6.1128 1.03619 0
M  V30 8940 C 831.029 -4.96977 0.30311 0
M  V30 8941 C 829.732 -6.93829 1.89721 0
M  V30 8942 C 831.758 -5.80086 1.15125 0
M  V30 8943 C 831.12 -6.77178 1.9393 0
M  V30 8944 H 827.219 -0.745417 -0.236384 0
M  V30 8945 H 829.803 -1.94686 0.0231985 0
M  V30 8946 H 827.974 -3.24224 -2.13854 0
M  V30 8947 H 829.706 -3.47927 -2.0671 0
M  V30 8948 H 826.461 -4.71277 -0.468498 0
M  V30 8949 H 826.885 -6.64311 1.30459 0
M  V30 8950 H 831.527 -4.21791 -0.291858 0
M  V30 8951 H 829.245 -7.6836 2.50298 0
M  V30 8952 H 832.831 -5.6915 1.20665 0
M  V30 8953 H 831.711 -7.4037 2.58499 0
M  V30 8954 N 829.214 0.302327 -1.54673 0
M  V30 8955 C 830.63 0.647911 -1.45857 0
M  V30 8956 C 830.83 1.90773 -0.64869 0
M  V30 8957 O 829.886 2.52018 -0.155865 0
M  V30 8958 C 831.199 0.802144 -2.89804 0
M  V30 8959 C 832.747 0.898114 -2.99838 0
M  V30 8960 C 833.222 1.08436 -4.44978 0
M  V30 8961 N 834.713 1.15059 -4.48682 0
M  V30 8962 C 835.448 1.31296 -5.58166 0
M  V30 8963 N 834.944 1.4444 -6.77576 0
M  V30 8964 N 836.737 1.34174 -5.45851 0
M  V30 8965 H 828.888 -0.525428 -2.05798 0
M  V30 8966 H 831.151 -0.173423 -0.932002 0
M  V30 8967 H 830.857 -0.0526531 -3.51661 0
M  V30 8968 H 830.731 1.69155 -3.37145 0
M  V30 8969 H 833.118 1.7434 -2.38096 0
M  V30 8970 H 833.199 -0.0152752 -2.55795 0
M  V30 8971 H 832.843 0.243843 -5.07314 0
M  V30 8972 H 832.773 2.01195 -4.8665 0
M  V30 8973 H 835.264 1.0626 -3.62653 0
M  V30 8974 H 835.577 1.56582 -7.56771 0
M  V30 8975 H 833.922 1.41499 -6.80443 0
M  V30 8976 H 837.113 1.23516 -4.5151 0
M  V30 8977 H 837.286 1.46485 -6.31226 0
M  V30 8978 N 830.692 1.47107 0.565454 0
M  V30 8979 C 832.103 1.47266 1.1476 0
M  V30 8980 C 832.454 0.222841 1.9493 0
M  V30 8981 O 831.579 -0.672862 2.05673 0
M  V30 8982 C 832.174 2.66822 2.08785 0
M  V30 8983 C 830.733 2.69967 2.62288 0
M  V30 8984 C 829.88 2.40236 1.38499 0
M  V30 8985 H 832.831 1.54736 0.352479 0
M  V30 8986 H 832.852 2.43323 2.92531 0
M  V30 8987 H 832.364 3.5777 1.50408 0
M  V30 8988 H 830.465 1.83137 3.24487 0
M  V30 8989 H 830.578 3.70426 3.03845 0
M  V30 8990 H 828.942 1.90648 1.68895 0
M  V30 8991 H 829.725 3.33381 0.819274 0
M  V30 8992 N 832.17 -0.811516 1.35101 0
M  V30 8993 C 833.08 -1.95475 1.29718 0
M  V30 8994 C 834.096 -1.72813 0.202909 0
M  V30 8995 O 835.272 -1.96725 0.431414 0
M  V30 8996 C 832.337 -3.29975 1.06385 0
M  V30 8997 C 831.398 -3.65566 2.25077 0
M  V30 8998 C 830.631 -4.93648 2.02848 0
M  V30 8999 O 830.854 -5.617 0.992442 0
M  V30 9000 O 829.788 -5.27384 2.90087 0
M  V30 9001 H 833.614 -2.02961 2.25921 0
M  V30 9002 H 831.199 -0.948583 1.15422 0
M  V30 9003 H 833.081 -4.10506 0.951999 0
M  V30 9004 H 831.756 -3.2343 0.132294 0
M  V30 9005 H 830.663 -2.85432 2.41825 0
M  V30 9006 H 831.996 -3.7681 3.16662 0
M  V30 9007 N 833.648 -1.19017 -1.03309 0
M  V30 9008 C 834.611 -0.926076 -2.09658 0
M  V30 9009 C 835.611 0.0917077 -1.60538 0
M  V30 9010 O 836.801 -0.142574 -1.73616 0
M  V30 9011 C 833.933 -0.390958 -3.38651 0
M  V30 9012 H 835.126 -1.86923 -2.3452 0
M  V30 9013 H 832.679 -1.00325 -1.19853 0
M  V30 9014 H 833.414 0.558446 -3.19456 0
M  V30 9015 H 833.199 -1.12474 -3.75622 0
M  V30 9016 H 834.689 -0.225131 -4.16993 0
M  V30 9017 N 835.127 1.22348 -0.993418 0
M  V30 9018 C 836.538 1.72893 -0.704616 0
M  V30 9019 C 836.889 1.80095 0.778483 0
M  V30 9020 O 836.014 1.4476 1.60853 0
M  V30 9021 C 836.609 3.14 -1.27237 0
M  V30 9022 C 835.168 3.61949 -1.03294 0
M  V30 9023 C 834.315 2.39816 -1.39225 0
M  V30 9024 H 837.266 1.07688 -1.16572 0
M  V30 9025 H 837.287 3.74886 -0.651212 0
M  V30 9026 H 836.799 3.08727 -2.3518 0
M  V30 9027 H 834.9 3.72588 0.0298329 0
M  V30 9028 H 835.013 4.48051 -1.69668 0
M  V30 9029 H 833.377 2.41448 -0.810849 0
M  V30 9030 H 834.16 2.37203 -2.48172 0
M  V30 9031 N 836.605 0.766683 1.37694 0
M  V30 9032 C 837.833 0.339939 2.04088 0
M  V30 9033 C 838.248 -1.03617 1.57826 0
M  V30 9034 O 837.605 -1.6605 0.757214 0
M  V30 9035 C 837.656 0.368269 3.59619 0
M  V30 9036 O 837.377 1.69009 4.04188 0
M  V30 9037 C 838.878 -0.0707053 4.43244 0
M  V30 9038 H 836.098 0.143189 0.655544 0
M  V30 9039 H 838.642 1.03919 1.76128 0
M  V30 9040 H 836.797 -0.282359 3.8637 0
M  V30 9041 H 837.211 1.62523 4.98685 0
M  V30 9042 H 838.685 0.000273538 5.52 0
M  V30 9043 H 839.162 -1.1204 4.24669 0
M  V30 9044 H 839.768 0.551543 4.21709 0
M  V30 9045 N 838.083 -1.48885 0.516809 0
M  V30 9046 C 839.331 -2.02088 -0.0220166 0
M  V30 9047 C 839.652 -1.39735 -1.36011 0
M  V30 9048 O 838.922 -0.558119 -1.87781 0
M  V30 9049 H 837.502 -0.746917 -0.0111255 0
M  V30 9050 H 840.164 -1.8274 0.677647 0
M  V30 9051 H 839.26 -3.11786 -0.140067 0
M  V30 9052 N 839.561 -0.251338 -1.55583 0
M  V30 9053 C 840.972 0.25098 -1.85005 0
M  V30 9054 C 841.323 1.57259 -1.17321 0
M  V30 9055 O 840.448 2.11603 -0.453136 0
M  V30 9056 C 841.043 0.462161 -3.35633 0
M  V30 9057 C 839.602 0.908737 -3.65266 0
M  V30 9058 C 838.749 -0.0115418 -2.77298 0
M  V30 9059 H 841.7 -0.473782 -1.51463 0
M  V30 9060 H 841.721 1.30415 -3.57452 0
M  V30 9061 H 841.233 -0.499886 -3.84867 0
M  V30 9062 H 839.334 1.8831 -3.21512 0
M  V30 9063 H 839.447 0.762526 -4.72993 0
M  V30 9064 H 837.811 0.500612 -2.49732 0
M  V30 9065 H 838.594 -0.969042 -3.29339 0
M  V30 9066 N 841.039 1.57585 0.0217189 0
M  V30 9067 C 841.987 2.08134 1.03842 0
M  V30 9068 C 842.981 0.996662 1.36978 0
M  V30 9069 O 844.187 1.18149 1.35797 0
M  V30 9070 H 840.562 0.664298 0.352438 0
M  V30 9071 H 842.533 2.92583 0.58634 0
M  V30 9072 C 841.282 2.58218 2.32849 0
M  V30 9073 H 840.605 3.41302 2.08214 0
M  V30 9074 H 842.045 2.97289 3.02316 0
M  V30 9075 C 840.504 1.48664 3.02325 0
M  V30 9076 O 841.034 0.857075 3.9245 0
M  V30 9077 N 839.24 1.21938 2.63779 0
M  V30 9078 H 838.787 1.73319 1.90574 0
M  V30 9079 H 838.745 0.488523 3.10581 0
M  V30 9080 N 842.517 -0.29412 1.54831 0
M  V30 9081 C 843.48 -1.3461 1.85507 0
M  V30 9082 C 844.48 -1.43359 0.728343 0
M  V30 9083 O 845.67 -1.42875 0.996609 0
M  V30 9084 C 842.802 -2.73012 2.0415 0
M  V30 9085 H 843.995 -1.08651 2.79526 0
M  V30 9086 H 841.548 -0.531138 1.46999 0
M  V30 9087 H 842.283 -3.04183 1.12441 0
M  V30 9088 H 842.068 -2.68051 2.86166 0
M  V30 9089 H 843.558 -3.49061 2.29229 0
M  V30 9090 N 843.995 -1.47404 -0.557645 0
M  V30 9091 C 845.223 -1.57622 -1.34026 0
M  V30 9092 C 845.638 -0.226256 -1.87439 0
M  V30 9093 O 844.995 0.78043 -1.64971 0
M  V30 9094 C 845.046 -2.60111 -2.51047 0
M  V30 9095 O 844.767 -3.89866 -1.99841 0
M  V30 9096 C 846.268 -2.80508 -3.43264 0
M  V30 9097 H 843.488 -0.532271 -0.40857 0
M  V30 9098 H 846.032 -1.93019 -0.675555 0
M  V30 9099 H 844.187 -2.27648 -3.13457 0
M  V30 9100 H 844.601 -4.45864 -2.76234 0
M  V30 9101 H 846.075 -3.56084 -4.21792 0
M  V30 9102 H 846.552 -1.88314 -3.9678 0
M  V30 9103 H 847.158 -3.14166 -2.86671 0
M  V30 9104 N 845.473 0.80434 -1.35529 0
M  V30 9105 C 846.383 1.94784 -1.30753 0
M  V30 9106 C 847.399 1.72703 -0.212071 0
M  V30 9107 O 848.575 1.96494 -0.441841 0
M  V30 9108 C 845.64 3.29406 -1.08133 0
M  V30 9109 C 844.701 3.64367 -2.27013 0
M  V30 9110 C 843.934 4.92566 -2.05463 0
M  V30 9111 O 844.157 5.61166 -1.02222 0
M  V30 9112 O 843.091 5.25838 -2.92879 0
M  V30 9113 H 846.917 2.01761 -2.26994 0
M  V30 9114 H 844.502 0.942448 -1.15924 0
M  V30 9115 H 846.384 4.09995 -0.973756 0
M  V30 9116 H 845.059 3.23355 -0.149444 0
M  V30 9117 H 843.966 2.84146 -2.43335 0
M  V30 9118 H 845.299 3.75125 -3.18656 0
M  V30 9119 N 846.951 1.19563 1.02676 0
M  V30 9120 C 848.176 1.02556 1.80269 0
M  V30 9121 C 848.601 -0.421056 1.83327 0
M  V30 9122 O 847.959 -1.30279 1.26084 0
M  V30 9123 C 848.007 1.60165 3.23078 0
M  V30 9124 O 847.111 0.832404 4.03912 0
M  V30 9125 H 846.452 0.362354 0.556413 0
M  V30 9126 H 848.982 1.58633 1.29216 0
M  V30 9127 H 848.992 1.6347 3.7382 0
M  V30 9128 H 847.667 2.65454 3.20167 0
M  V30 9129 H 846.244 0.872768 3.62543 0
M  V30 9130 N 848.429 -1.21819 0.999893 0
M  V30 9131 C 849.675 -1.91035 0.680701 0
M  V30 9132 C 850.008 -1.77582 -0.786021 0
M  V30 9133 O 849.283 -1.14917 -1.56921 0
M  V30 9134 C 849.566 -3.43013 1.0961 0
M  V30 9135 C 849.419 -3.65481 2.6219 0
M  V30 9136 C 850.738 -4.35204 0.654616 0
M  V30 9137 H 847.857 -0.693748 0.248763 0
M  V30 9138 H 850.499 -1.43555 1.24466 0
M  V30 9139 H 848.649 -3.83581 0.616253 0
M  V30 9140 H 850.321 -3.34273 3.17899 0
M  V30 9141 H 848.564 -3.09522 3.03938 0
M  V30 9142 H 849.235 -4.71945 2.86307 0
M  V30 9143 H 851.711 -4.0219 1.06688 0
M  V30 9144 H 850.587 -5.40198 0.973492 0
M  V30 9145 H 850.848 -4.3986 -0.444458 0
M  V30 9146 N 849.908 -0.773975 -1.37286 0
M  V30 9147 C 850.84 -0.119938 -2.28886 0
M  V30 9148 C 851.853 0.661822 -1.48741 0
M  V30 9149 O 853.042 0.499548 -1.71367 0
M  V30 9150 C 850.142 0.853703 -3.27971 0
M  V30 9151 C 849.315 0.125286 -4.37221 0
M  V30 9152 C 848.374 1.01261 -5.16365 0
M  V30 9153 O 847.4 0.475565 -5.6721 0
M  V30 9154 N 848.602 2.33864 -5.31308 0
M  V30 9155 H 851.367 -0.906702 -2.85655 0
M  V30 9156 H 848.928 -0.626519 -1.49286 0
M  V30 9157 H 850.92 1.4508 -3.77801 0
M  V30 9158 H 849.49 1.54142 -2.71954 0
M  V30 9159 H 848.71 -0.652742 -3.88758 0
M  V30 9160 H 849.998 -0.377959 -5.07394 0
M  V30 9161 H 849.396 2.79929 -4.91585 0
M  V30 9162 H 847.953 2.88575 -5.84438 0
M  V30 9163 N 851.386 1.48609 -0.524698 0
M  V30 9164 C 852.797 1.86516 -0.0828846 0
M  V30 9165 C 853.148 1.43478 1.33822 0
M  V30 9166 O 852.273 0.823139 2.00133 0
M  V30 9167 C 852.868 3.38495 -0.143639 0
M  V30 9168 C 851.427 3.75615 0.242951 0
M  V30 9169 C 850.574 2.72649 -0.505747 0
M  V30 9170 H 853.525 1.40589 -0.736233 0
M  V30 9171 H 853.546 3.74977 0.645955 0
M  V30 9172 H 853.058 3.69789 -1.17805 0
M  V30 9173 H 851.159 3.49935 1.27971 0
M  V30 9174 H 851.272 4.7901 -0.0929834 0
M  V30 9175 H 849.636 2.54656 0.0473482 0
M  V30 9176 H 850.419 3.06786 -1.54069 0
M  V30 9177 N 852.864 0.259585 1.55447 0
M  V30 9178 C 853.797 -0.675542 2.17972 0
M  V30 9179 C 854.775 -1.16362 1.13572 0
M  V30 9180 O 855.959 -1.23944 1.42021 0
M  V30 9181 C 853.086 -1.91952 2.79056 0
M  V30 9182 C 852.132 -1.56824 3.96621 0
M  V30 9183 S 852.965 -0.659846 5.31419 0
M  V30 9184 C 854.121 -1.91255 5.95963 0
M  V30 9185 H 854.354 -0.144236 2.9695 0
M  V30 9186 H 851.887 0.0439448 1.54337 0
M  V30 9187 H 853.845 -2.63362 3.14882 0
M  V30 9188 H 852.506 -2.42196 2 0
M  V30 9189 H 851.699 -2.49348 4.37997 0
M  V30 9190 H 851.301 -0.934472 3.62138 0
M  V30 9191 H 853.593 -2.85834 6.14252 0
M  V30 9192 H 854.536 -1.54207 6.91105 0
M  V30 9193 H 854.944 -2.07042 5.25161 0
M  V30 9194 N 854.342 -1.57594 -0.0133615 0
M  V30 9195 C 855.252 -2.10991 -1.02566 0
M  V30 9196 C 856.268 -1.05208 -1.3859 0
M  V30 9197 O 857.444 -1.37034 -1.47593 0
M  V30 9198 C 854.509 -2.59165 -2.30292 0
M  V30 9199 C 853.57 -3.79495 -2.00704 0
M  V30 9200 C 852.803 -4.25361 -3.22341 0
M  V30 9201 O 853.026 -3.70645 -4.33565 0
M  V30 9202 O 851.96 -5.17649 -3.07121 0
M  V30 9203 H 855.786 -2.97678 -0.601806 0
M  V30 9204 H 853.371 -1.47598 -0.23135 0
M  V30 9205 H 855.253 -2.90409 -3.05354 0
M  V30 9206 H 853.928 -1.75582 -2.71942 0
M  V30 9207 H 852.835 -3.53245 -1.23161 0
M  V30 9208 H 854.168 -4.64109 -1.639 0
M  V30 9209 N 855.82 0.285905 -1.54985 0
M  V30 9210 C 857.068 1.01718 -1.74636 0
M  V30 9211 C 857.389 1.87277 -0.543342 0
M  V30 9212 O 856.659 1.90847 0.442078 0
M  V30 9213 H 855.239 0.378549 -0.643979 0
M  V30 9214 H 857.901 0.313247 -1.92366 0
M  V30 9215 H 856.997 1.66159 -2.64192 0
M  V30 9216 N 857.298 1.47698 0.54982 0
M  V30 9217 C 858.23 1.56806 1.67166 0
M  V30 9218 C 859.243 0.453709 1.5635 0
M  V30 9219 O 860.432 0.723663 1.63173 0
M  V30 9220 C 857.532 1.4632 3.05686 0
M  V30 9221 C 856.705 2.72452 3.42182 0
M  V30 9222 C 855.764 2.55698 4.59897 0
M  V30 9223 O 854.79 3.29534 4.64108 0
M  V30 9224 N 855.992 1.64009 5.56849 0
M  V30 9225 H 858.757 2.53545 1.59797 0
M  V30 9226 H 856.318 1.44171 0.736635 0
M  V30 9227 H 858.31 1.32835 3.82279 0
M  V30 9228 H 856.88 0.57634 3.07241 0
M  V30 9229 H 856.1 3.00644 2.54964 0
M  V30 9230 H 857.388 3.56172 3.63344 0
M  V30 9231 H 856.786 1.03186 5.5621 0
M  V30 9232 H 855.343 1.56473 6.3274 0
M  V30 9233 N 858.776 -0.797141 1.35954 0
M  V30 9234 C 859.686 -1.94088 1.31784 0
M  V30 9235 C 860.702 -1.72588 0.221227 0
M  V30 9236 O 861.878 -1.96256 0.452255 0
M  V30 9237 C 858.943 -3.28828 1.09878 0
M  V30 9238 C 858.004 -3.63158 2.28942 0
M  V30 9239 C 857.237 -4.91469 2.08072 0
M  V30 9240 O 857.46 -5.60616 1.05196 0
M  V30 9241 O 856.394 -5.24277 2.95664 0
M  V30 9242 H 860.22 -2.00554 2.28061 0
M  V30 9243 H 857.805 -0.936288 1.16422 0
M  V30 9244 H 859.687 -4.09473 0.995485 0
M  V30 9245 H 858.362 -3.23271 0.16659 0
M  V30 9246 H 857.269 -2.82851 2.44839 0
M  V30 9247 H 858.602 -3.7343 3.20641 0
M  V30 9248 N 860.254 -1.20106 -1.0204 0
M  V30 9249 C 861.531 -0.918029 -1.72718 0
M  V30 9250 C 861.911 0.574163 -2.03142 0
M  V30 9251 O 861.259 1.53476 -1.69285 0
M  V30 9252 C 861.469 -1.78698 -2.9978 0
M  V30 9253 C 862.817 -2.02648 -3.7312 0
M  V30 9254 O 863.841 -1.75919 -3.09727 0
M  V30 9255 O 862.7 -2.47767 -4.87107 0
M  V30 9256 H 859.794 -0.342904 -0.752559 0
M  V30 9257 H 862.34 -1.30961 -1.07923 0
M  V30 9258 H 861.112 -2.79757 -2.7359 0
M  V30 9259 H 860.735 -1.39522 -3.72316 0
M  V30 9260 N 861.732 1.21287 -1.00634 0
M  V30 9261 C 862.642 2.27388 -0.577226 0
M  V30 9262 C 863.658 1.69791 0.380399 0
M  V30 9263 O 864.834 1.99918 0.2439 0
M  V30 9264 C 861.899 3.46588 0.0880532 0
M  V30 9265 C 860.96 4.19453 -0.914222 0
M  V30 9266 C 860.193 5.32962 -0.280596 0
M  V30 9267 O 860.416 5.62895 0.922265 0
M  V30 9268 O 859.35 5.93666 -0.992196 0
M  V30 9269 H 863.176 2.66289 -1.46028 0
M  V30 9270 H 860.761 1.2771 -0.775283 0
M  V30 9271 H 862.643 4.18881 0.460094 0
M  V30 9272 H 861.318 3.09585 0.945461 0
M  V30 9273 H 860.225 3.49376 -1.33744 0
M  V30 9274 H 861.558 4.6037 -1.74126 0
M  V30 9275 N 863.21 0.781244 1.36873 0
M  V30 9276 C 864.458 0.349198 1.9906 0
M  V30 9277 C 864.779 -1.0806 1.62321 0
M  V30 9278 O 864.049 -1.74351 0.893229 0
M  V30 9279 H 862.629 0.126126 0.736275 0
M  V30 9280 H 865.291 1.00148 1.67202 0
M  V30 9281 H 864.387 0.434451 3.09061 0
M  V30 9282 N 864.689 -1.48329 0.532571 0
M  V30 9283 C 865.637 -2.31336 -0.242133 0
M  V30 9284 C 866.631 -1.41391 -0.933006 0
M  V30 9285 O 867.837 -1.58284 -0.857096 0
M  V30 9286 H 864.212 -0.745724 -0.0969536 0
M  V30 9287 H 866.183 -2.94555 0.477504 0
M  V30 9288 C 864.932 -3.23501 -1.27446 0
M  V30 9289 H 864.255 -3.92659 -0.752261 0
M  V30 9290 H 865.695 -3.84461 -1.78789 0
M  V30 9291 C 864.154 -2.45288 -2.30944 0
M  V30 9292 O 864.684 -2.17955 -3.37429 0
M  V30 9293 N 862.89 -2.06737 -2.04226 0
M  V30 9294 H 862.437 -2.29166 -1.17647 0
M  V30 9295 H 862.395 -1.54719 -2.73696 0
M  V30 9296 N 866.167 -0.267825 -1.55308 0
M  V30 9297 C 867.415 0.350343 -1.9904 0
M  V30 9298 C 867.736 1.56924 -1.15758 0
M  V30 9299 O 867.006 1.94358 -0.245336 0
M  V30 9300 H 865.586 0.132435 -0.735167 0
M  V30 9301 H 868.248 -0.371471 -1.91327 0
M  V30 9302 H 867.344 0.645203 -3.05358 0
M  V30 9303 N 867.645 1.57599 0.00500368 0
M  V30 9304 C 868.608 2.07058 0.982832 0
M  V30 9305 C 869.608 0.979045 1.27559 0
M  V30 9306 O 870.798 1.24187 1.22161 0
M  V30 9307 C 867.93 2.50782 2.30914 0
M  V30 9308 H 869.123 2.94718 0.555119 0
M  V30 9309 H 866.676 1.54249 0.25237 0
M  V30 9310 H 867.411 1.66351 2.78385 0
M  V30 9311 H 867.196 3.30495 2.10987 0
M  V30 9312 H 868.686 2.89391 3.0107 0
M  V30 9313 N 869.123 -0.277682 1.55134 0
M  V30 9314 C 870.055 -1.36531 1.84098 0
M  V30 9315 C 871.068 -1.45756 0.725194 0
M  V30 9316 O 872.257 -1.47656 1.00299 0
M  V30 9317 C 869.357 -2.74701 1.98476 0
M  V30 9318 C 868.53 -2.88125 3.29094 0
M  V30 9319 C 867.589 -4.0694 3.33596 0
M  V30 9320 O 866.615 -3.9792 4.06999 0
M  V30 9321 N 867.817 -5.18687 2.60661 0
M  V30 9322 H 870.582 -1.12032 2.77973 0
M  V30 9323 H 868.143 -0.467793 1.54995 0
M  V30 9324 H 870.135 -3.52471 1.98863 0
M  V30 9325 H 868.705 -2.92043 1.11488 0
M  V30 9326 H 867.925 -1.97277 3.41285 0
M  V30 9327 H 869.213 -2.94021 4.15246 0
M  V30 9328 H 868.611 -5.28901 2.00699 0
M  V30 9329 H 867.168 -5.94705 2.66776 0
M  V30 9330 N 870.601 -1.47988 -0.541979 0
M  V30 9331 C 871.831 -1.58804 -1.32155 0
M  V30 9332 C 872.239 -0.242893 -1.87634 0
M  V30 9333 O 871.582 0.776239 -1.66494 0
M  V30 9334 C 871.644 -2.56567 -2.51821 0
M  V30 9335 C 871.308 -4.01915 -2.17517 0
M  V30 9336 C 872.305 -4.89954 -1.73901 0
M  V30 9337 C 869.99 -4.47365 -2.28408 0
M  V30 9338 C 871.984 -6.21467 -1.41625 0
M  V30 9339 C 869.671 -5.78902 -1.95745 0
M  V30 9340 C 870.669 -6.65775 -1.52423 0
M  V30 9341 O 870.357 -7.94866 -1.20183 0
M  V30 9342 H 870.089 -0.538536 -0.408601 0
M  V30 9343 H 872.643 -1.94446 -0.661818 0
M  V30 9344 H 870.873 -2.16023 -3.20735 0
M  V30 9345 H 872.562 -2.57347 -3.13891 0
M  V30 9346 H 873.328 -4.56082 -1.64966 0
M  V30 9347 H 869.207 -3.79942 -2.61084 0
M  V30 9348 H 872.751 -6.8923 -1.07738 0
M  V30 9349 H 868.648 -6.12311 -2.04316 0
M  V30 9350 H 869.416 -8.07509 -1.33683 0
M  V30 9351 N 872.079 0.78992 -1.36375 0
M  V30 9352 C 873.495 1.0879 -1.16777 0
M  V30 9353 C 873.695 2.01498 0.00848236 0
M  V30 9354 O 872.751 2.43338 0.674007 0
M  V30 9355 C 874.064 1.70285 -2.47837 0
M  V30 9356 C 875.612 1.82629 -2.54196 0
M  V30 9357 C 876.087 2.47539 -3.85342 0
M  V30 9358 N 877.578 2.55008 -3.86685 0
M  V30 9359 C 878.313 3.06041 -4.84898 0
M  V30 9360 N 877.809 3.57385 -5.93505 0
M  V30 9361 N 879.602 3.04748 -4.72319 0
M  V30 9362 H 871.753 0.173985 -2.11686 0
M  V30 9363 H 874.016 0.139798 -0.937636 0
M  V30 9364 H 873.722 1.09633 -3.34176 0
M  V30 9365 H 873.596 2.69799 -2.63607 0
M  V30 9366 H 875.983 2.42419 -1.68276 0
M  V30 9367 H 876.064 0.81923 -2.42327 0
M  V30 9368 H 875.708 1.88393 -4.71668 0
M  V30 9369 H 875.638 3.48815 -3.94507 0
M  V30 9370 H 878.129 2.18651 -3.08221 0
M  V30 9371 H 878.442 3.94674 -6.64419 0
M  V30 9372 H 876.787 3.55538 -5.97175 0
M  V30 9373 H 879.978 2.63925 -3.86602 0
M  V30 9374 H 880.151 3.44212 -5.49019 0
M  V30 9375 N 873.557 1.20646 1.01402 0
M  V30 9376 C 874.805 1.01618 1.74695 0
M  V30 9377 C 875.126 -0.452438 1.89679 0
M  V30 9378 O 874.396 -1.32693 1.44116 0
M  V30 9379 H 872.976 0.373013 0.647202 0
M  V30 9380 H 875.638 1.518 1.22241 0
M  V30 9381 H 874.734 1.47666 2.74957 0
M  V30 9382 N 875.035 -1.20752 1.01276 0
M  V30 9383 C 876.284 -1.8934 0.695229 0
M  V30 9384 C 876.597 -1.79459 -0.77806 0
M  V30 9385 O 877.803 -2.43146 -1.20799 0
M  V30 9386 C 876.259 -3.39548 1.1931 0
M  V30 9387 C 875.867 -3.58023 2.69302 0
M  V30 9388 C 877.611 -4.13714 0.950823 0
M  V30 9389 C 875.518 -5.02037 3.1259 0
M  V30 9390 H 874.448 -0.709084 0.25635 0
M  V30 9391 H 877.099 -1.36629 1.22494 0
M  V30 9392 H 875.481 -3.91559 0.591395 0
M  V30 9393 H 876.655 -3.16416 3.34989 0
M  V30 9394 H 874.97 -2.97222 2.9163 0
M  V30 9395 H 877.567 -5.19891 1.24971 0
M  V30 9396 H 877.91 -4.16147 -0.112791 0
M  V30 9397 H 878.443 -3.67792 1.51571 0
M  V30 9398 H 875.182 -5.04757 4.18211 0
M  V30 9399 H 874.702 -5.44469 2.51621 0
M  V30 9400 H 876.381 -5.70594 3.0501 0
M  V30 9401 N 876.513 -0.788492 -1.36457 0
M  V30 9402 C 877.443 -0.200468 -2.32638 0
M  V30 9403 C 878.424 0.664031 -1.56603 0
M  V30 9404 O 879.609 0.598045 -1.84762 0
M  V30 9405 C 876.739 0.666274 -3.40849 0
M  V30 9406 C 875.693 -0.0982574 -4.27887 0
M  V30 9407 C 875.019 0.889018 -5.27258 0
M  V30 9408 C 876.319 -1.28692 -5.06197 0
M  V30 9409 H 878.013 -1.00399 -2.82065 0
M  V30 9410 H 875.559 -0.484237 -1.35614 0
M  V30 9411 H 877.512 1.08757 -4.07124 0
M  V30 9412 H 876.236 1.50249 -2.89987 0
M  V30 9413 H 874.895 -0.500525 -3.63167 0
M  V30 9414 H 874.543 1.72024 -4.7267 0
M  V30 9415 H 874.243 0.381909 -5.86358 0
M  V30 9416 H 875.767 1.30891 -5.96406 0
M  V30 9417 H 877.181 -0.941429 -5.65517 0
M  V30 9418 H 875.578 -1.72726 -5.74705 0
M  V30 9419 H 876.648 -2.08273 -4.37893 0
M  V30 9420 N 877.991 1.48044 -0.54043 0
M  V30 9421 C 878.901 2.33565 0.220163 0
M  V30 9422 C 879.917 1.47146 0.928659 0
M  V30 9423 O 881.093 1.80107 0.901295 0
M  V30 9424 C 878.158 3.2349 1.2472 0
M  V30 9425 C 877.219 4.25789 0.547938 0
M  V30 9426 C 876.452 5.11417 1.52605 0
M  V30 9427 O 876.675 4.99204 2.75956 0
M  V30 9428 O 875.609 5.92498 1.05972 0
M  V30 9429 H 879.435 2.99868 -0.480898 0
M  V30 9430 H 877.02 1.46332 -0.301226 0
M  V30 9431 H 878.902 3.79084 1.84047 0
M  V30 9432 H 877.577 2.59835 1.93048 0
M  V30 9433 H 876.484 3.74001 -0.0860941 0
M  V30 9434 H 877.817 4.92111 -0.0935896 0
M  V30 9435 N 879.47 0.276058 1.55163 0
M  V30 9436 C 880.433 -0.597924 2.21263 0
M  V30 9437 C 881.433 -1.0806 1.19078 0
M  V30 9438 O 882.623 -0.980626 1.43977 0
M  V30 9439 C 879.755 -1.82503 2.87933 0
M  V30 9440 H 880.948 -0.0207769 2.99893 0
M  V30 9441 H 878.501 0.0266823 1.56277 0
M  V30 9442 H 879.236 -2.44266 2.13318 0
M  V30 9443 H 879.021 -1.48683 3.62816 0
M  V30 9444 H 880.511 -2.44651 3.38431 0
M  V30 9445 N 880.948 -1.576 0.00335426 0
M  V30 9446 C 882.173 -1.95398 -0.695311 0
M  V30 9447 C 882.598 -0.878476 -1.66326 0
M  V30 9448 O 881.956 0.163086 -1.80565 0
M  V30 9449 C 882.004 -3.32293 -1.40049 0
M  V30 9450 O 881.108 -3.26834 -2.51502 0
M  V30 9451 H 880.449 -0.637796 -0.184694 0
M  V30 9452 H 882.979 -2.04519 0.057543 0
M  V30 9453 H 882.989 -3.67936 -1.76316 0
M  V30 9454 H 881.664 -4.10123 -0.690803 0
M  V30 9455 H 880.241 -3.02872 -2.17539 0
M  V30 9456 N 882.426 0.269451 -1.5528 0
M  V30 9457 C 883.356 1.33729 -1.91413 0
M  V30 9458 C 884.337 1.51348 -0.776391 0
M  V30 9459 O 885.522 1.64332 -1.03482 0
M  V30 9460 C 882.652 2.69618 -2.18914 0
M  V30 9461 C 881.606 2.66725 -3.34726 0
M  V30 9462 C 880.932 4.06199 -3.47716 0
M  V30 9463 C 882.232 2.25684 -4.71025 0
M  V30 9464 H 883.926 1.03736 -2.80854 0
M  V30 9465 H 881.472 0.497579 -1.3513 0
M  V30 9466 H 883.425 3.44436 -2.42779 0
M  V30 9467 H 882.149 3.01201 -1.26275 0
M  V30 9468 H 880.808 1.94365 -3.10834 0
M  V30 9469 H 880.456 4.3501 -2.52537 0
M  V30 9470 H 880.156 4.05157 -4.25583 0
M  V30 9471 H 881.68 4.8275 -3.73877 0
M  V30 9472 H 883.094 2.90225 -4.94411 0
M  V30 9473 H 881.491 2.35797 -5.51833 0
M  V30 9474 H 882.561 1.20819 -4.69607 0
M  V30 9475 N 883.904 1.48273 0.534124 0
M  V30 9476 C 884.814 1.65162 1.66609 0
M  V30 9477 C 885.83 0.534177 1.65598 0
M  V30 9478 O 887.006 0.804715 1.84625 0
M  V30 9479 C 884.071 1.68354 3.03081 0
M  V30 9480 C 883.132 2.91696 3.1498 0
M  V30 9481 C 882.365 2.94725 4.44941 0
M  V30 9482 O 882.588 2.06285 5.31792 0
M  V30 9483 O 881.522 3.8685 4.61119 0
M  V30 9484 H 885.348 2.60991 1.55298 0
M  V30 9485 H 882.933 1.31626 0.706749 0
M  V30 9486 H 884.815 1.72998 3.84252 0
M  V30 9487 H 883.49 0.756978 3.14725 0
M  V30 9488 H 882.397 2.92586 2.33119 0
M  V30 9489 H 883.73 3.83722 3.0825 0
M  V30 9490 N 885.382 -0.782676 1.36792 0
M  V30 9491 C 886.312 -1.90973 1.34356 0
M  V30 9492 C 887.293 -1.6875 0.213917 0
M  V30 9493 O 888.478 -1.89766 0.412601 0
M  V30 9494 C 885.608 -3.28097 1.13884 0
M  V30 9495 C 884.562 -3.6486 2.23744 0
M  V30 9496 C 883.888 -5.00406 1.88408 0
M  V30 9497 C 885.188 -3.72742 3.6587 0
M  V30 9498 H 886.882 -1.93268 2.28665 0
M  V30 9499 H 884.428 -0.928447 1.10072 0
M  V30 9500 H 886.381 -4.06569 1.10813 0
M  V30 9501 H 885.105 -3.26206 0.160275 0
M  V30 9502 H 883.764 -2.88689 2.25952 0
M  V30 9503 H 883.412 -4.95044 0.891083 0
M  V30 9504 H 883.112 -5.25973 2.61966 0
M  V30 9505 H 884.636 -5.81291 1.86905 0
M  V30 9506 H 886.05 -4.4139 3.65852 0
M  V30 9507 H 884.447 -4.09798 4.38389 0
M  V30 9508 H 885.517 -2.73676 4.00287 0
M  V30 9509 N 886.86 -1.21182 -1.00761 0
M  V30 9510 C 888.107 -1.02746 -1.74498 0
M  V30 9511 C 888.435 0.439344 -1.89473 0
M  V30 9512 O 887.69 1.34232 -1.42409 0
M  V30 9513 C 887.989 -1.6667 -3.16158 0
M  V30 9514 C 887.655 -3.16515 -3.21137 0
M  V30 9515 C 886.317 -3.57405 -3.22203 0
M  V30 9516 C 888.669 -4.12495 -3.18587 0
M  V30 9517 C 885.997 -4.92786 -3.18401 0
M  V30 9518 C 888.349 -5.47833 -3.16326 0
M  V30 9519 C 887.013 -5.88124 -3.157 0
M  V30 9520 H 886.283 -0.375974 -0.638533 0
M  V30 9521 H 888.93 -1.50736 -1.18114 0
M  V30 9522 H 887.235 -1.10966 -3.75758 0
M  V30 9523 H 888.932 -1.49911 -3.71924 0
M  V30 9524 H 885.522 -2.83947 -3.21048 0
M  V30 9525 H 889.706 -3.81932 -3.16925 0
M  V30 9526 H 884.962 -5.23253 -3.16253 0
M  V30 9527 H 889.136 -6.21942 -3.13306 0
M  V30 9528 H 886.763 -6.92995 -3.12508 0
M  V30 9529 N 888.338 1.20213 -1.01915 0
M  V30 9530 C 889.285 2.2309 -0.591571 0
M  V30 9531 C 890.255 1.61465 0.389649 0
M  V30 9532 O 891.44 1.88606 0.288511 0
M  V30 9533 C 888.58 3.45045 0.0614028 0
M  V30 9534 C 887.693 4.21091 -0.964688 0
M  V30 9535 C 886.828 5.30448 -0.282499 0
M  V30 9536 C 885.867 5.98241 -1.29517 0
M  V30 9537 N 885.004 6.99182 -0.639472 0
M  V30 9538 H 889.844 2.59023 -1.47347 0
M  V30 9539 H 887.381 1.27274 -0.737547 0
M  V30 9540 H 889.339 4.14688 0.45714 0
M  V30 9541 H 887.969 3.09797 0.906937 0
M  V30 9542 H 887.021 3.50489 -1.47857 0
M  V30 9543 H 888.333 4.67662 -1.73475 0
M  V30 9544 H 887.487 6.06466 0.168603 0
M  V30 9545 H 886.226 4.84922 0.519843 0
M  V30 9546 H 885.231 5.20982 -1.75663 0
M  V30 9547 H 886.456 6.45853 -2.09884 0
M  V30 9548 H 884.402 6.55844 0.142955 0
M  V30 9549 H 884.319 7.43893 -1.34756 0
M  V30 9550 H 885.587 7.79212 -0.212047 0
M  V30 9551 N 889.816 0.795718 1.36037 0
M  V30 9552 C 891.063 0.371024 1.99072 0
M  V30 9553 C 891.391 -1.05896 1.63145 0
M  V30 9554 O 890.646 -1.7474 0.881163 0
M  V30 9555 C 890.945 0.489038 3.54038 0
M  V30 9556 C 890.611 1.88075 4.09803 0
M  V30 9557 C 889.273 2.26152 4.24745 0
M  V30 9558 C 891.625 2.79174 4.40126 0
M  V30 9559 C 888.953 3.54718 4.67324 0
M  V30 9560 C 891.305 4.07175 4.8414 0
M  V30 9561 C 889.969 4.45266 4.97287 0
M  V30 9562 H 889.239 0.135767 0.728456 0
M  V30 9563 H 891.886 1.0144 1.62426 0
M  V30 9564 H 890.191 -0.237823 3.91078 0
M  V30 9565 H 891.888 0.141374 4.00751 0
M  V30 9566 H 888.478 1.57488 3.98617 0
M  V30 9567 H 892.662 2.51009 4.28145 0
M  V30 9568 H 887.918 3.84093 4.75691 0
M  V30 9569 H 892.092 4.77875 5.06565 0
M  V30 9570 H 889.719 5.44943 5.30038 0
M  V30 9571 N 891.294 -1.47756 0.548274 0
M  V30 9572 C 892.522 -2.06884 0.0254873 0
M  V30 9573 C 892.937 -1.40225 -1.26422 0
M  V30 9574 O 892.294 -0.495776 -1.75637 0
M  V30 9575 C 892.345 -3.61036 -0.183134 0
M  V30 9576 O 892.066 -4.25195 1.05549 0
M  V30 9577 C 893.567 -4.37008 -0.744222 0
M  V30 9578 H 890.787 -0.669697 0.041789 0
M  V30 9579 H 893.331 -1.89888 0.759138 0
M  V30 9580 H 891.486 -3.77576 -0.866886 0
M  V30 9581 H 891.9 -5.17606 0.847629 0
M  V30 9582 H 893.374 -5.45579 -0.839529 0
M  V30 9583 H 893.851 -4.0268 -1.75344 0
M  V30 9584 H 894.457 -4.25191 -0.0964542 0
M  V30 9585 N 892.772 -0.284283 -1.55015 0
M  V30 9586 C 894.021 0.33055 -1.98973 0
M  V30 9587 C 894.334 1.56284 -1.17621 0
M  V30 9588 O 895.54 2.2512 -1.51767 0
M  V30 9589 C 893.996 0.639457 -3.54174 0
M  V30 9590 C 893.604 -0.573543 -4.44313 0
M  V30 9591 C 895.348 1.21641 -4.06699 0
M  V30 9592 C 893.255 -0.238715 -5.90918 0
M  V30 9593 H 892.185 0.127285 -0.743179 0
M  V30 9594 H 894.836 -0.390372 -1.793 0
M  V30 9595 H 893.218 1.41953 -3.69683 0
M  V30 9596 H 894.392 -1.3502 -4.40575 0
M  V30 9597 H 892.707 -1.06797 -4.02472 0
M  V30 9598 H 895.304 1.48088 -5.13784 0
M  V30 9599 H 895.647 2.15328 -3.56286 0
M  V30 9600 H 896.18 0.498422 -3.94665 0
M  V30 9601 H 892.919 -1.1437 -6.45445 0
M  V30 9602 H 892.439 0.500997 -5.97704 0
M  V30 9603 H 894.118 0.165774 -6.46788 0
M  V30 9604 N 894.251 1.57596 -0.0117121 0
M  V30 9605 C 895.499 1.90694 0.669342 0
M  V30 9606 C 895.82 0.886999 1.73659 0
M  V30 9607 O 895.09 -0.0739779 1.9576 0
M  V30 9608 H 893.67 0.703846 0.250219 0
M  V30 9609 H 896.332 1.94821 -0.0554057 0
M  V30 9610 H 895.428 2.90802 1.13316 0
M  V30 9611 N 895.729 -0.261212 1.5542 0
M  V30 9612 C 896.662 -1.34906 1.84054 0
M  V30 9613 C 897.64 -1.47024 0.694466 0
M  V30 9614 O 898.824 -1.63463 0.938719 0
M  V30 9615 C 895.951 -2.7242 2.01259 0
M  V30 9616 C 894.997 -2.77526 3.23855 0
M  V30 9617 S 895.83 -2.35578 4.80898 0
M  V30 9618 C 896.986 -3.75045 5.01091 0
M  V30 9619 H 897.219 -1.10416 2.76035 0
M  V30 9620 H 894.752 -0.461461 1.47343 0
M  V30 9621 H 896.71 -3.51606 2.11857 0
M  V30 9622 H 895.371 -2.94155 1.10145 0
M  V30 9623 H 894.564 -3.78483 3.32816 0
M  V30 9624 H 894.166 -2.0637 3.11909 0
M  V30 9625 H 896.458 -4.7042 4.87556 0
M  V30 9626 H 897.401 -3.71027 6.03112 0
M  V30 9627 H 897.809 -3.66894 4.29009 0
M  V30 9628 N 897.207 -1.48554 -0.526253 0
M  V30 9629 C 898.455 -1.56452 -1.27935 0
M  V30 9630 C 898.776 -0.24184 -1.93495 0
M  V30 9631 O 898.046 0.736917 -1.81511 0
M  V30 9632 H 896.626 -0.576379 -0.47518 0
M  V30 9633 H 899.288 -1.85039 -0.612083 0
M  V30 9634 H 898.384 -2.34751 -2.05666 0
M  V30 9635 N 898.685 0.775411 -1.37205 0
M  V30 9636 C 899.595 1.91967 -1.34855 0
M  V30 9637 C 900.611 1.72214 -0.248656 0
M  V30 9638 O 901.787 1.95512 -0.483421 0
M  V30 9639 C 898.852 3.27038 -1.15096 0
M  V30 9640 C 897.913 3.5947 -2.34691 0
M  V30 9641 C 897.146 4.88097 -2.15865 0
M  V30 9642 O 897.369 5.58871 -1.14102 0
M  V30 9643 O 896.303 5.19507 -3.03967 0
M  V30 9644 H 900.129 1.969 -2.31223 0
M  V30 9645 H 897.714 0.917647 -1.17897 0
M  V30 9646 H 899.596 4.07837 -1.0605 0
M  V30 9647 H 898.271 3.22965 -0.217999 0
M  V30 9648 H 897.178 2.7892 -2.49308 0
M  V30 9649 H 898.511 3.68282 -3.26541 0
M  V30 9650 N 900.163 1.21714 1.00117 0
M  V30 9651 C 901.093 1.00397 2.10815 0
M  V30 9652 C 902.074 -0.0723502 1.69946 0
M  V30 9653 O 903.259 0.0882398 1.93999 0
M  V30 9654 C 900.389 0.572001 3.42557 0
M  V30 9655 C 899.343 1.59331 3.97237 0
M  V30 9656 C 898.669 1.01746 5.2493 0
M  V30 9657 C 899.969 2.98117 4.28863 0
M  V30 9658 H 901.663 1.92983 2.28906 0
M  V30 9659 H 899.209 0.929273 1.10002 0
M  V30 9660 H 901.162 0.410018 4.19401 0
M  V30 9661 H 899.886 -0.38951 3.24269 0
M  V30 9662 H 898.545 1.74293 3.22518 0
M  V30 9663 H 898.193 0.0475491 5.02978 0
M  V30 9664 H 897.893 1.69969 5.62481 0
M  V30 9665 H 899.417 0.866881 6.04415 0
M  V30 9666 H 900.831 2.86578 4.96534 0
M  V30 9667 H 899.228 3.63389 4.77565 0
M  V30 9668 H 900.298 3.48674 3.36979 0
M  V30 9669 N 901.641 -1.19671 1.02551 0
M  V30 9670 C 902.604 -2.20987 0.608055 0
M  V30 9671 C 903.604 -1.5745 -0.326534 0
M  V30 9672 O 904.794 -1.73827 -0.114003 0
M  V30 9673 C 901.926 -3.4072 -0.11074 0
M  V30 9674 H 903.119 -2.59434 1.50446 0
M  V30 9675 H 900.672 -1.3329 0.816307 0
M  V30 9676 H 901.407 -3.07787 -1.02165 0
M  V30 9677 H 901.192 -3.88069 0.560772 0
M  V30 9678 H 902.682 -4.15776 -0.389848 0
M  V30 9679 N 903.119 -0.802921 -1.35613 0
M  V30 9680 C 904.366 -0.381576 -1.98872 0
M  V30 9681 C 904.694 1.0503 -1.63704 0
M  V30 9682 O 903.949 1.7427 -0.890418 0
M  V30 9683 C 904.248 -0.507806 -3.53774 0
M  V30 9684 C 903.914 -1.90245 -4.088 0
M  V30 9685 C 902.576 -2.28401 -4.2354 0
M  V30 9686 C 904.928 -2.81504 -4.3864 0
M  V30 9687 C 902.256 -3.57192 -4.65436 0
M  V30 9688 C 904.608 -4.09737 -4.81973 0
M  V30 9689 C 903.272 -4.47897 -4.94919 0
M  V30 9690 H 902.542 -0.139629 -0.727726 0
M  V30 9691 H 905.189 -1.023 -1.61886 0
M  V30 9692 H 903.494 0.21708 -3.91198 0
M  V30 9693 H 905.191 -0.162625 -4.0067 0
M  V30 9694 H 901.781 -1.596 -3.97776 0
M  V30 9695 H 905.965 -2.53276 -4.26808 0
M  V30 9696 H 901.221 -3.86611 -4.73648 0
M  V30 9697 H 905.395 -4.80555 -5.04024 0
M  V30 9698 H 903.022 -5.47747 -5.27141 0
M  V30 9699 N 904.597 1.47463 -0.556102 0
M  V30 9700 C 905.529 2.28046 0.22968 0
M  V30 9701 C 906.542 1.3694 0.880409 0
M  V30 9702 O 907.731 1.61773 0.754447 0
M  V30 9703 C 904.831 3.11165 1.34273 0
M  V30 9704 C 904.004 4.30225 0.789004 0
M  V30 9705 C 903.063 4.94948 1.78641 0
M  V30 9706 O 902.089 5.53372 1.33297 0
M  V30 9707 N 903.291 4.89543 3.11974 0
M  V30 9708 H 906.056 2.96125 -0.461558 0
M  V30 9709 H 903.617 1.5708 -0.392105 0
M  V30 9710 H 905.609 3.51331 2.00869 0
M  V30 9711 H 904.179 2.45337 1.93722 0
M  V30 9712 H 903.399 3.94163 -0.0536971 0
M  V30 9713 H 904.687 5.07238 0.398378 0
M  V30 9714 H 904.085 4.43275 3.51459 0
M  V30 9715 H 902.642 5.33732 3.74131 0
M  V30 9716 N 906.075 0.2925 1.54862 0
M  V30 9717 C 906.985 -0.597036 2.26876 0
M  V30 9718 C 908.001 -1.15558 1.30086 0
M  V30 9719 O 909.177 -1.18217 1.63054 0
M  V30 9720 C 906.242 -1.75664 2.98903 0
M  V30 9721 C 905.303 -1.23303 4.11212 0
M  V30 9722 C 904.536 -2.33736 4.79795 0
M  V30 9723 O 904.759 -3.53459 4.47686 0
M  V30 9724 O 903.693 -2.00908 5.67379 0
M  V30 9725 H 907.519 -0.0131242 3.03697 0
M  V30 9726 H 905.104 0.0592642 1.49282 0
M  V30 9727 H 906.986 -2.43241 3.4411 0
M  V30 9728 H 905.661 -2.32731 2.24984 0
M  V30 9729 H 904.568 -0.523222 3.70423 0
M  V30 9730 H 905.901 -0.707887 4.87083 0
M  V30 9731 N 907.553 -1.57587 0.0200696 0
M  V30 9732 C 908.485 -2.06555 -0.993359 0
M  V30 9733 C 909.498 -0.987227 -1.29451 0
M  V30 9734 O 910.687 -1.26361 -1.26075 0
M  V30 9735 C 907.787 -2.4675 -2.3231 0
M  V30 9736 C 906.96 -3.77554 -2.20843 0
M  V30 9737 C 906.019 -4.04397 -3.36674 0
M  V30 9738 O 905.045 -4.7478 -3.13963 0
M  V30 9739 N 906.247 -3.53861 -4.60176 0
M  V30 9740 H 909.012 -2.9412 -0.575617 0
M  V30 9741 H 906.573 -1.61038 -0.166889 0
M  V30 9742 H 908.565 -2.61806 -3.08609 0
M  V30 9743 H 907.135 -1.64598 -2.65756 0
M  V30 9744 H 906.355 -3.72382 -1.29327 0
M  V30 9745 H 907.643 -4.63271 -2.10375 0
M  V30 9746 H 907.041 -2.96904 -4.81523 0
M  V30 9747 H 905.598 -3.74213 -5.33674 0
M  V30 9748 N 909.032 0.252966 -1.55557 0
M  V30 9749 C 909.962 1.31691 -1.9282 0
M  V30 9750 C 910.943 1.50516 -0.7924 0
M  V30 9751 O 912.128 1.63225 -1.05219 0
M  V30 9752 C 909.258 2.67281 -2.21762 0
M  V30 9753 C 908.212 2.6316 -3.37536 0
M  V30 9754 C 907.538 4.02488 -3.52005 0
M  V30 9755 C 908.838 2.20675 -4.73392 0
M  V30 9756 H 910.532 1.00751 -2.81939 0
M  V30 9757 H 908.078 0.483219 -1.3565 0
M  V30 9758 H 910.031 3.41842 -2.46419 0
M  V30 9759 H 908.755 2.99845 -1.29463 0
M  V30 9760 H 907.414 1.91057 -3.12878 0
M  V30 9761 H 907.062 4.32307 -2.57137 0
M  V30 9762 H 906.762 4.00621 -4.29857 0
M  V30 9763 H 908.286 4.78758 -3.78977 0
M  V30 9764 H 909.7 2.84965 -4.97461 0
M  V30 9765 H 908.097 2.29931 -5.54303 0
M  V30 9766 H 909.167 1.15831 -4.70862 0
M  V30 9767 N 910.51 1.48831 0.518367 0
M  V30 9768 C 911.46 1.60614 1.61824 0
M  V30 9769 C 912.444 0.462631 1.54106 0
M  V30 9770 O 913.636 0.714689 1.6193 0
M  V30 9771 C 910.765 1.65984 3.00507 0
M  V30 9772 C 909.851 2.85854 3.13286 0
M  V30 9773 N 910.242 4.1014 2.96005 0
M  V30 9774 C 908.54 2.83429 3.4436 0
M  V30 9775 C 909.241 4.90626 3.12508 0
M  V30 9776 N 908.217 4.2366 3.40607 0
M  V30 9777 H 912.019 2.54443 1.47091 0
M  V30 9778 H 909.533 1.45363 0.724102 0
M  V30 9779 H 911.53 1.72521 3.79529 0
M  V30 9780 H 910.19 0.732792 3.16323 0
M  V30 9781 H 911.201 4.40395 2.72531 0
M  V30 9782 H 907.878 2.0003 3.66462 0
M  V30 9783 H 909.268 5.99302 3.03786 0
M  V30 9784 N 911.988 -0.768124 1.37614 0
M  V30 9785 C 913.235 -1.5268 1.33022 0
M  V30 9786 C 913.563 -1.94318 -0.0841918 0
M  V30 9787 O 912.818 -1.64623 -1.0582 0
M  V30 9788 C 913.117 -2.80204 2.21856 0
M  V30 9789 C 912.783 -2.57602 3.7007 0
M  V30 9790 C 911.445 -2.51146 4.10462 0
M  V30 9791 C 913.797 -2.37482 4.63952 0
M  V30 9792 C 911.125 -2.22566 5.42846 0
M  V30 9793 C 913.477 -2.10425 5.96577 0
M  V30 9794 C 912.141 -2.02416 6.36069 0
M  V30 9795 H 911.411 -0.558697 0.486763 0
M  V30 9796 H 914.058 -0.88447 1.69851 0
M  V30 9797 H 912.363 -3.49014 1.78034 0
M  V30 9798 H 914.06 -3.38099 2.15615 0
M  V30 9799 H 910.65 -2.63491 3.38039 0
M  V30 9800 H 914.834 -2.41457 4.33604 0
M  V30 9801 H 910.09 -2.14863 5.72402 0
M  V30 9802 H 914.264 -1.93857 6.68874 0
M  V30 9803 H 911.891 -1.80034 7.38574 0
M  V30 9804 N 913.466 -1.22244 -0.994698 0
M  V30 9805 C 914.882 -0.982006 -1.25813 0
M  V30 9806 C 915.082 0.325488 -1.98854 0
M  V30 9807 O 914.138 1.04857 -2.29698 0
M  V30 9808 C 915.451 -2.1795 -2.07167 0
M  V30 9809 C 916.999 -2.22287 -2.20358 0
M  V30 9810 C 917.474 -3.41583 -3.05098 0
M  V30 9811 N 918.965 -3.41734 -3.12686 0
M  V30 9812 C 919.7 -4.30692 -3.78539 0
M  V30 9813 N 919.196 -5.29865 -4.46335 0
M  V30 9814 N 920.989 -4.18473 -3.75283 0
M  V30 9815 H 913.14 -2.0631 -0.504963 0
M  V30 9816 H 915.403 -0.90395 -0.285618 0
M  V30 9817 H 915.109 -3.12758 -1.60858 0
M  V30 9818 H 914.983 -2.17862 -3.07922 0
M  V30 9819 H 917.37 -1.28028 -2.65881 0
M  V30 9820 H 917.451 -2.26414 -1.19039 0
M  V30 9821 H 917.095 -4.36141 -2.60275 0
M  V30 9822 H 917.025 -3.34695 -4.06555 0
M  V30 9823 H 919.516 -2.69969 -2.64433 0
M  V30 9824 H 919.829 -5.94027 -4.9432 0
M  V30 9825 H 918.174 -5.3378 -4.45089 0
M  V30 9826 H 921.365 -3.40249 -3.21478 0
M  V30 9827 H 921.538 -4.88007 -4.26326 0
M  V30 9828 N 914.944 1.19125 -1.03184 0
M  V30 9829 C 916.192 1.8851 -0.728587 0
M  V30 9830 C 916.513 1.80195 0.74531 0
M  V30 9831 O 915.783 1.21437 1.5372 0
M  V30 9832 H 914.363 0.69784 -0.266511 0
M  V30 9833 H 917.025 1.44607 -1.3067 0
M  V30 9834 H 916.121 2.9477 -1.02554 0
M  V30 9835 N 916.422 0.810101 1.35185 0
M  V30 9836 C 917.355 0.168416 2.27578 0
M  V30 9837 C 918.333 -0.667664 1.4826 0
M  V30 9838 O 919.517 -0.634184 1.77512 0
M  V30 9839 C 916.644 -0.765994 3.29925 0
M  V30 9840 C 915.69 -0.00908802 4.26499 0
M  V30 9841 S 916.523 1.32936 5.18737 0
M  V30 9842 C 917.679 0.399485 6.24624 0
M  V30 9843 H 917.912 0.951753 2.81654 0
M  V30 9844 H 915.445 0.60534 1.42039 0
M  V30 9845 H 917.403 -1.2996 3.89385 0
M  V30 9846 H 916.064 -1.52275 2.7472 0
M  V30 9847 H 915.257 -0.718919 4.98846 0
M  V30 9848 H 914.859 0.454663 3.71226 0
M  V30 9849 H 917.151 -0.413904 6.76234 0
M  V30 9850 H 918.094 1.09225 6.99625 0
M  V30 9851 H 918.502 -0.00638358 5.645 0
M  V30 9852 N 917.9 -1.47166 0.563914 0
M  V30 9853 C 919.146 -2.02756 0.0424338 0
M  V30 9854 C 919.479 -1.43662 -1.3067 0
M  V30 9855 O 918.754 -0.594676 -1.85186 0
M  V30 9856 C 919.037 -3.60074 -0.0434793 0
M  V30 9857 C 918.89 -4.29587 1.33323 0
M  V30 9858 C 920.209 -4.336 -0.753568 0
M  V30 9859 H 917.328 -0.736806 0.0168946 0
M  V30 9860 H 919.97 -1.75521 0.727496 0
M  V30 9861 H 918.12 -3.83409 -0.626906 0
M  V30 9862 H 919.792 -4.17573 1.96037 0
M  V30 9863 H 918.035 -3.8968 1.9061 0
M  V30 9864 H 918.706 -5.38218 1.22576 0
M  V30 9865 H 921.182 -4.15299 -0.258126 0
M  V30 9866 H 920.058 -5.43291 -0.782659 0
M  V30 9867 H 920.319 -4.03302 -1.81108 0
M  V30 9868 N 919.378 -0.300708 -1.54705 0
M  V30 9869 C 920.308 0.568675 -2.26469 0
M  V30 9870 C 921.289 1.13817 -1.26411 0
M  V30 9871 O 922.474 1.16756 -1.55183 0
M  V30 9872 C 919.604 1.74077 -3.00524 0
M  V30 9873 C 918.558 1.30165 -4.07727 0
M  V30 9874 C 917.884 2.55888 -4.69495 0
M  V30 9875 C 919.184 0.433106 -5.20501 0
M  V30 9876 H 920.878 -0.0298851 -2.99385 0
M  V30 9877 H 918.424 -0.0158135 -1.43991 0
M  V30 9878 H 920.377 2.35506 -3.49449 0
M  V30 9879 H 919.101 2.36556 -2.25186 0
M  V30 9880 H 917.76 0.710414 -3.59651 0
M  V30 9881 H 917.408 3.16681 -3.90797 0
M  V30 9882 H 917.108 2.27207 -5.41895 0
M  V30 9883 H 918.632 3.18121 -5.21183 0
M  V30 9884 H 920.046 0.95307 -5.65322 0
M  V30 9885 H 918.443 0.240085 -5.9962 0
M  V30 9886 H 919.513 -0.541866 -4.81863 0
M  V30 9887 N 920.856 1.57574 -0.0284266 0
M  V30 9888 C 921.786 2.1321 0.952039 0
M  V30 9889 C 922.767 1.04806 1.33977 0
M  V30 9890 O 923.952 1.32635 1.41851 0
M  V30 9891 C 921.082 2.65862 2.23461 0
M  V30 9892 C 920.036 3.79047 1.98765 0
M  V30 9893 C 919.362 4.18124 3.33281 0
M  V30 9894 C 920.662 5.05151 1.32739 0
M  V30 9895 H 922.356 2.95385 0.488705 0
M  V30 9896 H 919.902 1.42092 0.233628 0
M  V30 9897 H 921.855 3.03417 2.92431 0
M  V30 9898 H 920.579 1.80848 2.71959 0
M  V30 9899 H 919.238 3.41929 1.32213 0
M  V30 9900 H 918.886 3.30092 3.79537 0
M  V30 9901 H 918.586 4.94396 3.17563 0
M  V30 9902 H 920.11 4.58262 4.0352 0
M  V30 9903 H 921.524 5.40297 1.91708 0
M  V30 9904 H 919.921 5.86416 1.27421 0
M  V30 9905 H 920.991 4.83969 0.300261 0
M  V30 9906 N 922.334 -0.244713 1.55689 0
M  V30 9907 C 923.264 -1.30667 1.93516 0
M  V30 9908 C 924.245 -1.50094 0.800371 0
M  V30 9909 O 925.43 -1.62665 1.06083 0
M  V30 9910 C 922.56 -2.66101 2.23176 0
M  V30 9911 C 921.514 -2.61366 3.38927 0
M  V30 9912 C 920.84 -4.00616 3.54134 0
M  V30 9913 C 922.14 -2.18161 4.74555 0
M  V30 9914 H 923.834 -0.992546 2.82469 0
M  V30 9915 H 921.38 -0.476018 1.35905 0
M  V30 9916 H 923.333 -3.4053 2.48228 0
M  V30 9917 H 922.057 -2.99154 1.31051 0
M  V30 9918 H 920.716 -1.89395 3.13887 0
M  V30 9919 H 920.364 -4.30938 2.59426 0
M  V30 9920 H 920.064 -3.98335 4.31975 0
M  V30 9921 H 921.588 -4.76741 3.8151 0
M  V30 9922 H 923.002 -2.82323 4.98965 0
M  V30 9923 H 921.399 -2.26988 5.55515 0
M  V30 9924 H 922.469 -1.13333 4.7147 0
M  V30 9925 N 923.813 -1.49104 -0.510467 0
M  V30 9926 C 924.743 -1.67981 -1.62187 0
M  V30 9927 C 925.724 -0.528529 -1.6168 0
M  V30 9928 O 926.909 -0.763305 -1.7857 0
M  V30 9929 C 924.039 -1.73755 -3.0071 0
M  V30 9930 C 922.993 -2.88579 -3.1608 0
M  V30 9931 C 922.319 -2.79457 -4.5586 0
M  V30 9932 C 923.619 -4.29638 -2.97 0
M  V30 9933 H 925.313 -2.61029 -1.46643 0
M  V30 9934 H 922.859 -1.25615 -0.704042 0
M  V30 9935 H 924.812 -1.85548 -3.78352 0
M  V30 9936 H 923.536 -0.772996 -3.17321 0
M  V30 9937 H 922.195 -2.76372 -2.40861 0
M  V30 9938 H 921.843 -1.80929 -4.69333 0
M  V30 9939 H 921.543 -3.56518 -4.67086 0
M  V30 9940 H 923.067 -2.93245 -5.35574 0
M  V30 9941 H 924.481 -4.42575 -3.64418 0
M  V30 9942 H 922.878 -5.07847 -3.19704 0
M  V30 9943 H 923.948 -4.44741 -1.93219 0
M  V30 9944 N 925.291 0.760815 -1.38019 0
M  V30 9945 C 926.221 1.88811 -1.37377 0
M  V30 9946 C 927.202 1.68388 -0.240737 0
M  V30 9947 O 928.387 1.89086 -0.442739 0
M  V30 9948 C 925.517 3.26244 -1.1909 0
M  V30 9949 C 924.471 3.61254 -2.29521 0
M  V30 9950 C 923.797 4.97346 -1.96345 0
M  V30 9951 C 925.097 3.66874 -3.71753 0
M  V30 9952 H 926.791 1.89606 -2.31711 0
M  V30 9953 H 924.337 0.910818 -1.11535 0
M  V30 9954 H 926.29 4.04755 -1.17267 0
M  V30 9955 H 925.014 3.2591 -0.212152 0
M  V30 9956 H 923.673 2.85057 -2.30517 0
M  V30 9957 H 923.321 4.93564 -0.969728 0
M  V30 9958 H 923.021 5.21739 -2.703 0
M  V30 9959 H 924.545 5.78244 -1.96129 0
M  V30 9960 H 925.959 4.35514 -3.72828 0
M  V30 9961 H 924.356 4.02772 -4.44853 0
M  V30 9962 H 925.426 2.67273 -4.0459 0
M  V30 9963 N 926.769 1.22769 0.988202 0
M  V30 9964 C 927.732 1.00325 2.06076 0
M  V30 9965 C 928.732 -0.0320618 1.60768 0
M  V30 9966 O 929.922 0.206912 1.72967 0
M  V30 9967 C 927.054 0.516376 3.36966 0
M  V30 9968 H 928.247 1.95499 2.27421 0
M  V30 9969 H 925.8 1.04704 1.16047 0
M  V30 9970 H 926.535 -0.439498 3.21308 0
M  V30 9971 H 926.32 1.26337 3.71189 0
M  V30 9972 H 927.81 0.37974 4.1587 0
M  V30 9973 N 928.247 -1.18576 1.03814 0
M  V30 9974 C 929.477 -1.92158 0.758864 0
M  V30 9975 C 929.885 -1.76267 -0.687498 0
M  V30 9976 O 929.228 -1.08806 -1.4801 0
M  V30 9977 C 929.29 -3.44063 1.04217 0
M  V30 9978 C 928.954 -3.8373 2.48193 0
M  V30 9979 C 929.951 -3.87722 3.46363 0
M  V30 9980 C 927.636 -4.151 2.82838 0
M  V30 9981 C 929.63 -4.2253 4.77229 0
M  V30 9982 C 927.317 -4.49578 4.13911 0
M  V30 9983 C 928.315 -4.53269 5.10917 0
M  V30 9984 O 928.003 -4.86945 6.39641 0
M  V30 9985 H 927.735 -0.61694 0.276335 0
M  V30 9986 H 930.289 -1.51388 1.38819 0
M  V30 9987 H 928.519 -3.85061 0.355709 0
M  V30 9988 H 930.208 -3.9889 0.751091 0
M  V30 9989 H 930.974 -3.63627 3.20936 0
M  V30 9990 H 926.853 -4.11406 2.08006 0
M  V30 9991 H 930.397 -4.25326 5.52941 0
M  V30 9992 H 926.294 -4.73133 4.39107 0
M  V30 9993 H 927.062 -5.04857 6.44253 0
M  V30 9994 N 929.725 -0.817259 -1.34754 0
M  V30 9995 C 930.971 -0.403244 -1.98751 0
M  V30 9996 C 931.304 1.02963 -1.64658 0
M  V30 9997 O 930.579 1.71617 -0.915314 0
M  V30 9998 C 930.862 -0.599188 -3.5508 0
M  V30 9999 C 930.715 -2.07777 -3.98934 0
M  V30 10000 C 932.034 -0.0315656 -4.40089 0
M  V30 10001 H 929.153 -0.147988 -0.721989 0
M  V30 10002 H 931.795 -1.02877 -1.59738 0
M  V30 10003 H 929.945 -0.0667116 -3.88443 0
M  V30 10004 H 931.617 -2.67345 -3.75931 0
M  V30 10005 H 929.86 -2.57031 -3.49453 0
M  V30 10006 H 930.531 -2.16571 -5.07741 0
M  V30 10007 H 933.007 -0.48644 -4.13247 0
M  V30 10008 H 931.883 -0.198507 -5.48541 0
M  V30 10009 H 932.144 1.06302 -4.2913 0
M  V30 10010 N 931.203 1.46865 -0.571711 0
M  V30 10011 C 932.133 2.3298 0.155795 0
M  V30 10012 C 933.114 1.44678 0.894553 0
M  V30 10013 O 934.299 1.73513 0.872176 0
M  V30 10014 C 931.429 3.26745 1.17708 0
M  V30 10015 C 930.383 4.24401 0.553863 0
M  V30 10016 C 929.709 5.07595 1.68083 0
M  V30 10017 C 931.009 5.19884 -0.501827 0
M  V30 10018 H 932.703 2.94056 -0.563176 0
M  V30 10019 H 930.249 1.41402 -0.27228 0
M  V30 10020 H 932.202 3.85838 1.6943 0
M  V30 10021 H 930.926 2.63753 1.92618 0
M  V30 10022 H 929.585 3.66554 0.057815 0
M  V30 10023 H 929.233 4.40996 2.41933 0
M  V30 10024 H 928.933 5.73722 1.26953 0
M  V30 10025 H 930.457 5.6955 2.20103 0
M  V30 10026 H 931.871 5.73257 -0.0701057 0
M  V30 10027 H 930.268 5.94293 -0.832815 0
M  V30 10028 H 931.338 4.64482 -1.39229 0
M  V30 10029 N 932.681 0.308908 1.54543 0
M  V30 10030 C 933.611 -0.556657 2.26768 0
M  V30 10031 C 934.592 -1.13145 1.27013 0
M  V30 10032 O 935.777 -1.15931 1.558 0
M  V30 10033 C 932.907 -1.72481 3.01443 0
M  V30 10034 C 931.861 -1.28001 4.08411 0
M  V30 10035 C 931.187 -2.53395 4.70845 0
M  V30 10036 C 932.487 -0.405497 5.20724 0
M  V30 10037 H 934.181 0.0457618 2.99365 0
M  V30 10038 H 931.727 0.0234495 1.43981 0
M  V30 10039 H 933.68 -2.3365 3.50693 0
M  V30 10040 H 932.404 -2.35359 2.26437 0
M  V30 10041 H 931.063 -0.69133 3.60022 0
M  V30 10042 H 930.711 -3.14604 3.92471 0
M  V30 10043 H 930.411 -2.2433 5.43093 0
M  V30 10044 H 931.935 -3.15352 5.22863 0
M  V30 10045 H 933.349 -0.923076 5.6582 0
M  V30 10046 H 931.746 -0.208282 5.99738 0
M  V30 10047 H 932.816 0.567412 4.81569 0
M  V30 10048 N 934.159 -1.57557 0.0367827 0
M  V30 10049 C 935.387 -1.96419 -0.650168 0
M  V30 10050 C 935.802 -0.913656 -1.6522 0
M  V30 10051 O 935.159 0.103718 -1.82205 0
M  V30 10052 C 935.21 -3.35355 -1.3498 0
M  V30 10053 O 934.931 -4.36379 -0.387905 0
M  V30 10054 C 936.432 -3.88892 -2.12786 0
M  V30 10055 H 933.652 -0.646751 -0.178756 0
M  V30 10056 H 936.196 -2.04261 0.0988197 0
M  V30 10057 H 934.351 -3.28708 -2.05012 0
M  V30 10058 H 934.765 -5.16969 -0.885596 0
M  V30 10059 H 936.239 -4.88428 -2.5718 0
M  V30 10060 H 936.716 -3.23547 -2.97008 0
M  V30 10061 H 937.322 -3.98831 -1.47694 0
M  V30 10062 N 935.637 0.236453 -1.55816 0
M  V30 10063 C 936.867 0.978873 -1.81939 0
M  V30 10064 C 937.275 1.79041 -0.611647 0
M  V30 10065 O 936.618 1.78616 0.429172 0
M  V30 10066 C 936.68 1.9569 -3.01572 0
M  V30 10067 C 936.344 1.33131 -4.37178 0
M  V30 10068 C 937.341 0.728585 -5.1477 0
M  V30 10069 C 935.026 1.34755 -4.83887 0
M  V30 10070 C 937.02 0.150427 -6.37222 0
M  V30 10071 C 934.707 0.765539 -6.06286 0
M  V30 10072 C 935.705 0.168017 -6.82793 0
M  V30 10073 O 935.393 -0.404976 -8.02879 0
M  V30 10074 H 935.125 0.293186 -0.609113 0
M  V30 10075 H 937.679 0.261384 -2.0373 0
M  V30 10076 H 935.909 2.71298 -2.75562 0
M  V30 10077 H 937.598 2.56362 -3.14695 0
M  V30 10078 H 938.364 0.708477 -4.79797 0
M  V30 10079 H 934.243 1.80202 -4.24321 0
M  V30 10080 H 937.787 -0.316586 -6.96881 0
M  V30 10081 H 933.684 0.78301 -6.40733 0
M  V30 10082 H 934.452 -0.29785 -8.17958 0
M  V30 10083 N 937.115 1.49373 0.502552 0
M  V30 10084 C 938.364 1.58028 1.25339 0
M  V30 10085 C 938.677 0.271494 1.93707 0
M  V30 10086 O 939.883 0.236584 2.70467 0
M  V30 10087 C 938.339 2.78817 2.27572 0
M  V30 10088 C 937.947 4.16448 1.65151 0
M  V30 10089 C 939.691 2.96802 3.03494 0
M  V30 10090 C 937.598 5.28461 2.65486 0
M  V30 10091 H 936.528 0.588396 0.471494 0
M  V30 10092 H 939.179 1.75756 0.52744 0
M  V30 10093 H 937.561 2.5458 3.03323 0
M  V30 10094 H 938.735 4.50816 0.954029 0
M  V30 10095 H 937.05 4.03809 1.01625 0
M  V30 10096 H 939.647 3.77656 3.78524 0
M  V30 10097 H 939.99 2.07303 3.61014 0
M  V30 10098 H 940.523 3.21071 2.34858 0
M  V30 10099 H 937.262 6.20015 2.12749 0
M  V30 10100 H 936.782 4.9855 3.33479 0
M  V30 10101 H 938.461 5.5773 3.27943 0
M  V30 10102 N 938.594 -0.753485 1.38421 0
M  V30 10103 C 939.524 -1.8808 1.38377 0
M  V30 10104 C 940.505 -1.68258 0.249664 0
M  V30 10105 O 941.69 -1.88848 0.45276 0
M  V30 10106 C 938.82 -3.25608 1.20818 0
M  V30 10107 C 937.774 -3.60032 2.31433 0
M  V30 10108 C 937.1 -4.96297 1.9898 0
M  V30 10109 C 938.4 -3.64898 3.73694 0
M  V30 10110 H 940.094 -1.88375 2.32713 0
M  V30 10111 H 937.64 -0.90489 1.12017 0
M  V30 10112 H 939.593 -4.04127 1.19412 0
M  V30 10113 H 938.317 -3.25793 0.229433 0
M  V30 10114 H 936.976 -2.83831 2.32025 0
M  V30 10115 H 936.624 -4.93043 0.995889 0
M  V30 10116 H 936.324 -5.20298 2.73063 0
M  V30 10117 H 937.848 -5.77196 1.99193 0
M  V30 10118 H 939.262 -4.33531 3.75132 0
M  V30 10119 H 937.659 -4.00407 4.46983 0
M  V30 10120 H 938.729 -2.65124 4.06002 0
M  V30 10121 N 940.072 -1.23292 -0.981677 0
M  V30 10122 C 941.002 -1.03738 -2.09191 0
M  V30 10123 C 941.983 0.0453041 -1.7004 0
M  V30 10124 O 943.168 -0.119092 -1.93834 0
M  V30 10125 C 940.298 -0.626426 -3.41604 0
M  V30 10126 C 939.252 -1.65631 -3.94652 0
M  V30 10127 C 938.578 -1.10084 -5.23245 0
M  V30 10128 C 939.878 -3.04903 -4.24066 0
M  V30 10129 H 941.572 -1.966 -2.25807 0
M  V30 10130 H 939.118 -0.946656 -1.0851 0
M  V30 10131 H 941.071 -0.476689 -4.18695 0
M  V30 10132 H 939.795 0.337873 -3.24848 0
M  V30 10133 H 938.454 -1.79402 -3.19704 0
M  V30 10134 H 938.102 -0.127562 -5.02838 0
M  V30 10135 H 937.802 -1.78896 -5.59705 0
M  V30 10136 H 939.326 -0.962928 -6.02959 0
M  V30 10137 H 940.74 -2.94441 -4.91912 0
M  V30 10138 H 939.137 -3.70941 -4.71724 0
M  V30 10139 H 940.207 -3.53991 -3.31389 0
M  V30 10140 N 941.55 1.18024 -1.04442 0
M  V30 10141 C 942.48 2.23988 -0.659683 0
M  V30 10142 C 943.461 1.6669 0.338904 0
M  V30 10143 O 944.646 1.92971 0.21817 0
M  V30 10144 C 941.776 3.4729 -0.0257672 0
M  V30 10145 C 940.73 4.17362 -0.948299 0
M  V30 10146 C 940.056 5.34401 -0.17866 0
M  V30 10147 C 941.356 4.70435 -2.26909 0
M  V30 10148 H 943.05 2.56425 -1.54553 0
M  V30 10149 H 940.596 1.23256 -0.744575 0
M  V30 10150 H 942.549 4.20627 0.255131 0
M  V30 10151 H 941.273 3.14098 0.894981 0
M  V30 10152 H 939.932 3.45928 -1.21364 0
M  V30 10153 H 939.58 4.97458 0.744614 0
M  V30 10154 H 939.28 5.8222 -0.793294 0
M  V30 10155 H 940.804 6.10526 0.0951315 0
M  V30 10156 H 942.218 5.35447 -2.04864 0
M  V30 10157 H 940.615 5.28803 -2.83703 0
M  V30 10158 H 941.685 3.87653 -2.91296 0
M  V30 10159 N 943.028 0.824394 1.34319 0
M  V30 10160 C 943.976 0.235628 2.31403 0
M  V30 10161 C 944.97 -0.624443 1.57471 0
M  V30 10162 O 946.176 -0.515618 1.72457 0
M  V30 10163 H 942.551 0.0574537 0.749802 0
M  V30 10164 H 944.522 1.06925 2.78585 0
M  V30 10165 C 943.271 -0.586617 3.42716 0
M  V30 10166 H 942.594 0.0658669 3.99746 0
M  V30 10167 H 944.034 -0.964661 4.1288 0
M  V30 10168 C 942.493 -1.75957 2.87299 0
M  V30 10169 O 943.023 -2.8578 2.82299 0
M  V30 10170 N 941.229 -1.57678 2.44102 0
M  V30 10171 H 940.776 -0.683436 2.48369 0
M  V30 10172 H 940.734 -2.36311 2.07375 0
M  V30 10173 N 944.506 -1.46559 0.579492 0
M  V30 10174 C 945.439 -2.27287 -0.203894 0
M  V30 10175 C 946.417 -1.3543 -0.899865 0
M  V30 10176 O 947.601 -1.64836 -0.914398 0
M  V30 10177 C 944.728 -3.13077 -1.2923 0
M  V30 10178 C 943.774 -4.20675 -0.702505 0
M  V30 10179 S 944.607 -5.3345 0.468136 0
M  V30 10180 C 945.763 -6.22806 -0.621544 0
M  V30 10181 H 945.996 -2.93382 0.481083 0
M  V30 10182 H 943.529 -1.49992 0.366311 0
M  V30 10183 H 945.487 -3.63069 -1.91548 0
M  V30 10184 H 944.148 -2.46302 -1.94921 0
M  V30 10185 H 943.341 -4.80516 -1.52053 0
M  V30 10186 H 942.943 -3.73678 -0.155046 0
M  V30 10187 H 945.235 -6.60503 -1.50803 0
M  V30 10188 H 946.178 -7.08075 -0.059961 0
M  V30 10189 H 946.586 -5.56882 -0.924242 0
M  V30 10190 N 945.984 -0.3171 -1.54377 0
M  V30 10191 C 946.914 0.544623 -2.2706 0
M  V30 10192 C 947.895 1.12469 -1.27611 0
M  V30 10193 O 949.08 1.15103 -1.56413 0
M  V30 10194 C 946.21 1.70879 -3.02353 0
M  V30 10195 C 945.164 1.25833 -4.09084 0
M  V30 10196 C 944.49 2.50894 -4.72182 0
M  V30 10197 C 945.79 0.377876 -5.20931 0
M  V30 10198 H 947.484 -0.0616372 -2.99337 0
M  V30 10199 H 945.03 -0.0310848 -1.43966 0
M  V30 10200 H 946.983 2.31787 -3.51927 0
M  V30 10201 H 945.707 2.34155 -2.27682 0
M  V30 10202 H 944.366 0.672228 -3.60384 0
M  V30 10203 H 944.014 3.12518 -3.94134 0
M  V30 10204 H 943.714 2.21447 -5.44275 0
M  V30 10205 H 945.238 3.12575 -5.24528 0
M  V30 10206 H 946.652 0.893056 -5.66302 0
M  V30 10207 H 945.049 0.176474 -5.9984 0
M  V30 10208 H 946.119 -0.592943 -4.81261 0
M  V30 10209 N 947.462 1.57535 -0.0451378 0
M  V30 10210 C 948.711 1.91628 0.629415 0
M  V30 10211 C 949.024 0.924754 1.72359 0
M  V30 10212 O 950.23 1.15751 2.45589 0
M  V30 10213 C 948.686 3.40322 1.17084 0
M  V30 10214 C 948.294 4.47867 0.109101 0
M  V30 10215 C 950.038 3.83458 1.82099 0
M  V30 10216 C 947.945 5.87671 0.663072 0
M  V30 10217 H 946.875 0.715163 0.238868 0
M  V30 10218 H 949.526 1.83151 -0.113046 0
M  V30 10219 H 947.908 3.43783 1.96543 0
M  V30 10220 H 949.082 4.55988 -0.664201 0
M  V30 10221 H 947.397 4.14034 -0.443227 0
M  V30 10222 H 949.994 4.85273 2.2453 0
M  V30 10223 H 950.337 3.19379 2.67026 0
M  V30 10224 H 950.87 3.82488 1.09305 0
M  V30 10225 H 947.609 6.55332 -0.148423 0
M  V30 10226 H 947.129 5.83124 1.4045 0
M  V30 10227 H 948.808 6.36737 1.14785 0
M  V30 10228 N 948.94 -0.228186 1.55939 0
M  V30 10229 C 949.903 -1.26621 1.91049 0
M  V30 10230 C 950.903 -1.40141 0.788491 0
M  V30 10231 O 952.093 -1.3852 1.05631 0
M  V30 10232 C 949.225 -2.64108 2.15545 0
M  V30 10233 H 950.418 -0.966978 2.83883 0
M  V30 10234 H 947.971 -0.468313 1.49119 0
M  V30 10235 H 948.706 -2.99141 1.25241 0
M  V30 10236 H 948.491 -2.55673 2.97277 0
M  V30 10237 H 949.981 -3.39025 2.43827 0
M  V30 10238 N 950.418 -1.49637 -0.494624 0
M  V30 10239 C 951.348 -1.69692 -1.60396 0
M  V30 10240 C 952.329 -0.545648 -1.61111 0
M  V30 10241 O 953.514 -0.782202 -1.77751 0
M  V30 10242 C 950.644 -1.76934 -2.9885 0
M  V30 10243 C 949.598 -2.91915 -3.13001 0
M  V30 10244 C 948.924 -2.84276 -4.5287 0
M  V30 10245 C 950.224 -4.32764 -2.92426 0
M  V30 10246 H 951.918 -2.6257 -1.43866 0
M  V30 10247 H 949.464 -1.26355 -0.690679 0
M  V30 10248 H 951.417 -1.8955 -3.76362 0
M  V30 10249 H 950.141 -0.806609 -3.16483 0
M  V30 10250 H 948.8 -2.78911 -2.37916 0
M  V30 10251 H 948.448 -1.85897 -4.67388 0
M  V30 10252 H 948.148 -3.61452 -4.63278 0
M  V30 10253 H 949.672 -2.98909 -5.32434 0
M  V30 10254 H 951.086 -4.46415 -3.59703 0
M  V30 10255 H 949.483 -5.1121 -3.143 0
M  V30 10256 H 950.553 -4.46765 -1.88491 0
M  V30 10257 N 951.896 0.746133 -1.38819 0
M  V30 10258 C 952.829 1.86833 -1.31029 0
M  V30 10259 C 953.807 1.61533 -0.185948 0
M  V30 10260 O 954.991 1.84942 -0.364529 0
M  V30 10261 C 952.118 3.22596 -1.03198 0
M  V30 10262 C 951.164 3.66772 -2.17671 0
M  V30 10263 S 951.997 3.77438 -3.7987 0
M  V30 10264 C 953.153 5.16008 -3.54241 0
M  V30 10265 H 953.386 1.93155 -2.26005 0
M  V30 10266 H 950.919 0.909872 -1.24742 0
M  V30 10267 H 952.877 4.00995 -0.878237 0
M  V30 10268 H 951.538 3.13943 -0.0992704 0
M  V30 10269 H 950.731 4.65266 -1.93762 0
M  V30 10270 H 950.333 2.95547 -2.2919 0
M  V30 10271 H 952.625 6.01996 -3.10816 0
M  V30 10272 H 953.568 5.44941 -4.52156 0
M  V30 10273 H 953.976 4.85158 -2.88587 0
M  V30 10274 N 953.375 1.23811 0.975125 0
M  V30 10275 C 954.6 1.10109 1.75757 0
M  V30 10276 C 955.025 -0.342922 1.84948 0
M  V30 10277 O 954.383 -1.24814 1.31496 0
M  V30 10278 C 954.431 1.73724 3.15994 0
M  V30 10279 O 953.535 1.00297 4.00018 0
M  V30 10280 H 952.876 0.385627 0.540544 0
M  V30 10281 H 955.406 1.63971 1.22372 0
M  V30 10282 H 955.416 1.79178 3.6655 0
M  V30 10283 H 954.091 2.78794 3.0862 0
M  V30 10284 H 952.668 1.02575 3.58515 0
M  V30 10285 N 954.853 -1.17469 1.05066 0
M  V30 10286 C 955.763 -2.25089 0.661222 0
M  V30 10287 C 956.779 -1.71086 -0.31712 0
M  V30 10288 O 957.955 -2.00685 -0.169534 0
M  V30 10289 C 955.02 -3.46676 0.0406415 0
M  V30 10290 C 954.081 -4.15771 1.06927 0
M  V30 10291 C 953.314 -5.31553 0.478208 0
M  V30 10292 O 953.537 -5.6593 -0.712714 0
M  V30 10293 O 952.471 -5.89574 1.21185 0
M  V30 10294 H 956.297 -2.60685 1.5581 0
M  V30 10295 H 953.882 -1.24744 0.822147 0
M  V30 10296 H 955.764 -4.203 -0.304312 0
M  V30 10297 H 954.439 -3.1288 -0.829909 0
M  V30 10298 H 953.346 -3.44171 1.46619 0
M  V30 10299 H 954.679 -4.53591 1.91092 0
M  V30 10300 N 956.331 -0.831506 -1.3388 0
M  V30 10301 C 957.559 -0.436925 -2.02234 0
M  V30 10302 C 957.974 0.959689 -1.6259 0
M  V30 10303 O 957.331 1.62248 -0.835576 0
M  V30 10304 C 957.382 -0.539429 -3.57453 0
M  V30 10305 O 957.103 -1.88101 -3.95664 0
M  V30 10306 C 958.604 -0.140852 -4.43076 0
M  V30 10307 H 955.824 -0.174302 -0.647966 0
M  V30 10308 H 958.368 -1.12204 -1.70969 0
M  V30 10309 H 956.523 0.0976959 -3.87277 0
M  V30 10310 H 956.937 -1.86131 -4.90363 0
M  V30 10311 H 958.411 -0.26364 -5.5137 0
M  V30 10312 H 958.888 0.916505 -4.29531 0
M  V30 10313 H 959.494 -0.752117 -4.18597 0
M  V30 10314 N 957.809 1.4625 -0.587256 0
M  V30 10315 C 959.055 2.02662 -0.0746851 0
M  V30 10316 C 959.388 1.45723 1.28368 0
M  V30 10317 O 958.663 0.624062 1.84216 0
M  V30 10318 C 958.946 3.60097 -0.0138109 0
M  V30 10319 C 958.799 4.27412 -1.4014 0
M  V30 10320 C 960.118 4.34744 0.684491 0
M  V30 10321 H 957.237 0.736444 -0.0286144 0
M  V30 10322 H 959.879 1.74341 -0.755328 0
M  V30 10323 H 958.029 3.84357 0.56583 0
M  V30 10324 H 959.701 4.14401 -2.02656 0
M  V30 10325 H 957.944 3.86598 -1.96785 0
M  V30 10326 H 958.615 5.362 -1.31124 0
M  V30 10327 H 961.091 4.15657 0.192023 0
M  V30 10328 H 959.967 5.44468 0.696127 0
M  V30 10329 H 960.228 4.06132 1.74669 0
M  V30 10330 N 959.287 0.325282 1.54207 0
M  V30 10331 C 960.235 -0.5554 2.25872 0
M  V30 10332 C 961.229 -1.11714 1.27344 0
M  V30 10333 O 962.435 -1.06498 1.45115 0
M  V30 10334 H 958.81 -0.19776 0.725531 0
M  V30 10335 H 960.781 0.0712858 2.98315 0
M  V30 10336 C 959.53 -1.70379 3.03095 0
M  V30 10337 H 958.853 -1.2808 3.78729 0
M  V30 10338 H 960.293 -2.29556 3.56483 0
M  V30 10339 C 958.752 -2.62242 2.11496 0
M  V30 10340 O 959.282 -3.64003 1.69895 0
M  V30 10341 N 957.488 -2.30515 1.7695 0
M  V30 10342 H 957.035 -1.47805 2.10978 0
M  V30 10343 H 956.993 -2.92241 1.15942 0
M  V30 10344 N 960.765 -1.57509 0.0534917 0
M  V30 10345 C 961.99 -1.97511 -0.632794 0
M  V30 10346 C 962.415 -0.930947 -1.63447 0
M  V30 10347 O 961.773 0.105558 -1.80992 0
M  V30 10348 C 961.821 -3.3658 -1.29407 0
M  V30 10349 O 960.925 -3.3467 -2.40977 0
M  V30 10350 H 960.266 -0.643349 -0.16431 0
M  V30 10351 H 962.796 -2.04232 0.12258 0
M  V30 10352 H 962.806 -3.73359 -1.64521 0
M  V30 10353 H 961.481 -4.12113 -0.559976 0
M  V30 10354 H 960.058 -3.09639 -2.07793 0
M  V30 10355 N 962.243 0.219913 -1.56058 0
M  V30 10356 C 963.489 0.945463 -1.79412 0
M  V30 10357 C 963.822 1.83922 -0.62341 0
M  V30 10358 O 963.097 1.90806 0.377256 0
M  V30 10359 C 963.38 1.783 -3.1286 0
M  V30 10360 C 963.233 0.915626 -4.40382 0
M  V30 10361 C 964.552 2.76045 -3.42764 0
M  V30 10362 H 961.671 0.342288 -0.652693 0
M  V30 10363 H 964.313 0.214235 -1.88788 0
M  V30 10364 H 962.463 2.40642 -3.04998 0
M  V30 10365 H 964.135 0.30882 -4.60265 0
M  V30 10366 H 962.378 0.221124 -4.33236 0
M  V30 10367 H 963.049 1.53607 -5.30197 0
M  V30 10368 H 965.525 2.23838 -3.50764 0
M  V30 10369 H 964.401 3.31748 -4.37304 0
M  V30 10370 H 964.662 3.53866 -2.65012 0
M  V30 10371 N 963.721 1.49897 0.486681 0
M  V30 10372 C 964.684 1.67086 1.56891 0
M  V30 10373 C 965.684 0.54209 1.51387 0
M  V30 10374 O 966.874 0.80883 1.54284 0
M  V30 10375 C 964.006 1.68159 2.96539 0
M  V30 10376 H 965.199 2.63626 1.42974 0
M  V30 10377 H 962.752 1.39143 0.711954 0
M  V30 10378 H 963.487 0.732562 3.15918 0
M  V30 10379 H 963.272 2.50147 3.01942 0
M  V30 10380 H 964.762 1.83466 3.7514 0
M  V30 10381 N 965.199 -0.738761 1.39212 0
M  V30 10382 C 966.427 -1.52801 1.39497 0
M  V30 10383 C 966.842 -1.88797 -0.0114917 0
M  V30 10384 O 966.199 -1.53835 -0.981887 0
M  V30 10385 C 966.25 -2.81793 2.2644 0
M  V30 10386 O 965.971 -2.47328 3.61608 0
M  V30 10387 C 967.472 -3.75844 2.35067 0
M  V30 10388 H 964.692 -0.472322 0.476606 0
M  V30 10389 H 967.236 -0.913153 1.8298 0
M  V30 10390 H 965.391 -3.3962 1.8638 0
M  V30 10391 H 965.805 -3.30162 4.07545 0
M  V30 10392 H 967.279 -4.6326 3.00157 0
M  V30 10393 H 967.756 -4.17329 1.3687 0
M  V30 10394 H 968.362 -3.23937 2.75581 0
M  V30 10395 N 966.677 -1.24326 -0.968545 0
M  V30 10396 C 967.954 -0.990459 -1.68669 0
M  V30 10397 C 968.334 0.487487 -2.05394 0
M  V30 10398 O 967.682 1.46158 -1.75642 0
M  V30 10399 C 967.892 -1.91251 -2.91931 0
M  V30 10400 C 969.24 -2.18291 -3.6419 0
M  V30 10401 O 970.264 -1.88897 -3.01987 0
M  V30 10402 O 969.123 -2.68204 -4.76161 0
M  V30 10403 H 966.217 -0.374515 -0.737338 0
M  V30 10404 H 968.763 -1.35421 -1.02271 0
M  V30 10405 H 967.535 -2.9111 -2.61478 0
M  V30 10406 H 967.158 -1.55188 -3.66064 0
M  V30 10407 N 968.156 1.1691 -1.05688 0
M  V30 10408 C 969.381 1.91745 -0.790478 0
M  V30 10409 C 969.806 1.76568 0.648478 0
M  V30 10410 O 969.164 1.08682 1.45114 0
M  V30 10411 C 969.212 3.4067 -1.18222 0
M  V30 10412 O 968.316 4.11177 -0.317341 0
M  V30 10413 H 967.657 0.5976 -0.28943 0
M  V30 10414 H 970.187 1.48157 -1.41105 0
M  V30 10415 H 970.197 3.91424 -1.15114 0
M  V30 10416 H 968.872 3.51036 -2.2304 0
M  V30 10417 H 967.449 3.70645 -0.409459 0
M  V30 10418 N 969.634 0.838594 1.33437 0
M  V30 10419 C 970.88 0.444042 1.98494 0
M  V30 10420 C 971.235 -0.985759 1.65229 0
M  V30 10421 O 970.528 -1.67972 0.921736 0
M  V30 10422 C 970.722 0.601425 3.52303 0
M  V30 10423 C 970.551 2.04497 4.00513 0
M  V30 10424 C 969.321 2.68015 4.28364 0
M  V30 10425 C 971.519 3.01367 4.16752 0
M  V30 10426 N 969.501 4.03448 4.62713 0
M  V30 10427 C 970.872 4.21745 4.54457 0
M  V30 10428 C 972.927 2.97776 3.99041 0
M  V30 10429 C 971.63 5.39009 4.76301 0
M  V30 10430 C 973.656 4.14269 4.22061 0
M  V30 10431 C 973.018 5.33402 4.60067 0
M  V30 10432 H 969.117 0.210906 0.753022 0
M  V30 10433 H 971.701 1.0866 1.61558 0
M  V30 10434 H 969.872 -0.0113326 3.88398 0
M  V30 10435 H 971.604 0.178343 4.04307 0
M  V30 10436 H 968.359 2.19153 4.19844 0
M  V30 10437 H 968.783 4.73264 4.84098 0
M  V30 10438 H 973.425 2.06801 3.68773 0
M  V30 10439 H 971.143 6.30529 5.0543 0
M  V30 10440 H 974.729 4.12908 4.09876 0
M  V30 10441 H 973.609 6.22045 4.77525 0
M  V30 10442 N 971.112 -1.45937 0.595003 0
M  V30 10443 C 972.337 -2.07207 0.0894416 0
M  V30 10444 C 972.762 -1.43884 -1.21157 0
M  V30 10445 O 972.12 -0.526998 -1.73472 0
M  V30 10446 C 972.168 -3.60565 -0.0499828 0
M  V30 10447 O 971.272 -3.97364 -1.10342 0
M  V30 10448 H 970.613 -0.660471 0.0683627 0
M  V30 10449 H 973.143 -1.87386 0.82144 0
M  V30 10450 H 973.153 -4.0722 -0.252234 0
M  V30 10451 H 971.828 -4.06044 0.90006 0
M  V30 10452 H 970.405 -3.62401 -0.878645 0
M  V30 10453 N 972.59 -0.333456 -1.54032 0
M  V30 10454 C 973.839 0.267081 -1.99924 0
M  V30 10455 C 974.152 1.52463 -1.22534 0
M  V30 10456 O 975.358 2.20178 -1.58852 0
M  V30 10457 C 973.814 0.526456 -3.56029 0
M  V30 10458 C 973.422 -0.714607 -4.42264 0
M  V30 10459 C 975.166 1.0864 -4.10363 0
M  V30 10460 C 973.073 -0.42659 -5.89859 0
M  V30 10461 H 972.003 0.103577 -0.746852 0
M  V30 10462 H 974.654 -0.447218 -1.77967 0
M  V30 10463 H 973.036 1.3012 -3.74012 0
M  V30 10464 H 974.21 -1.48968 -4.36056 0
M  V30 10465 H 972.525 -1.19547 -3.9887 0
M  V30 10466 H 975.122 1.31668 -5.18235 0
M  V30 10467 H 975.465 2.03884 -3.62956 0
M  V30 10468 H 975.998 0.37261 -3.96051 0
M  V30 10469 H 972.737 -1.34847 -6.4148 0
M  V30 10470 H 972.257 0.310588 -5.98995 0
M  V30 10471 H 973.936 -0.0400807 -6.46988 0
M  V30 10472 N 974.068 1.57479 -0.061844 0
M  V30 10473 C 975.314 1.9421 0.604485 0
M  V30 10474 C 975.669 0.941011 1.67818 0
M  V30 10475 O 974.962 -0.0382264 1.91562 0
M  V30 10476 C 975.156 3.35394 1.23474 0
M  V30 10477 C 974.985 4.49144 0.223628 0
M  V30 10478 C 973.755 5.04949 -0.188187 0
M  V30 10479 C 975.953 5.11508 -0.535193 0
M  V30 10480 N 973.935 6.02235 -1.19105 0
M  V30 10481 C 975.306 6.04199 -1.39082 0
M  V30 10482 C 977.361 4.94364 -0.592346 0
M  V30 10483 C 976.064 6.81587 -2.2985 0
M  V30 10484 C 978.09 5.72388 -1.48749 0
M  V30 10485 C 977.452 6.6472 -2.33082 0
M  V30 10486 H 973.551 0.757931 0.192522 0
M  V30 10487 H 976.135 1.9422 -0.136667 0
M  V30 10488 H 974.306 3.36141 1.94587 0
M  V30 10489 H 976.038 3.59387 1.86073 0
M  V30 10490 H 972.793 4.73207 0.192933 0
M  V30 10491 H 973.217 6.55575 -1.68969 0
M  V30 10492 H 977.859 4.22776 0.045445 0
M  V30 10493 H 975.577 7.5246 -2.94669 0
M  V30 10494 H 979.163 5.61146 -1.53642 0
M  V30 10495 H 978.043 7.2404 -3.01225 0
M  V30 10496 N 975.546 -0.211634 1.56173 0
M  V30 10497 C 976.493 -1.26231 1.93221 0
M  V30 10498 C 977.463 -1.46076 0.790641 0
M  V30 10499 O 978.648 -1.59482 1.04739 0
M  V30 10500 C 975.788 -2.60559 2.26281 0
M  V30 10501 C 974.901 -2.48431 3.5342 0
M  V30 10502 C 974.036 -3.7535 3.7588 0
M  V30 10503 C 973.075 -3.57985 4.96501 0
M  V30 10504 N 972.212 -4.76877 5.15299 0
M  V30 10505 H 977.052 -0.939367 2.82807 0
M  V30 10506 H 974.589 -0.452511 1.39967 0
M  V30 10507 H 976.547 -3.38796 2.43461 0
M  V30 10508 H 975.177 -2.9093 1.39855 0
M  V30 10509 H 974.229 -1.61577 3.44379 0
M  V30 10510 H 975.541 -2.31526 4.41811 0
M  V30 10511 H 974.695 -4.62029 3.9321 0
M  V30 10512 H 973.434 -3.95191 2.85788 0
M  V30 10513 H 972.439 -2.69691 4.79111 0
M  V30 10514 H 973.664 -3.39605 5.88086 0
M  V30 10515 H 971.61 -4.97013 4.28152 0
M  V30 10516 H 971.527 -4.62735 5.9784 0
M  V30 10517 H 972.795 -5.64954 5.37073 0
M  V30 10518 N 977.024 -1.50153 -0.478725 0
M  V30 10519 C 977.954 -1.71384 -1.58587 0
M  V30 10520 C 978.935 -0.562705 -1.60523 0
M  V30 10521 O 980.12 -0.80101 -1.76911 0
M  V30 10522 C 977.25 -1.80094 -2.96957 0
M  V30 10523 C 976.204 -2.95218 -3.09888 0
M  V30 10524 C 975.53 -2.89063 -4.49829 0
M  V30 10525 C 976.83 -4.35841 -2.8782 0
M  V30 10526 H 978.524 -2.64081 -1.41073 0
M  V30 10527 H 976.07 -1.27081 -0.677239 0
M  V30 10528 H 978.023 -1.93531 -3.74331 0
M  V30 10529 H 976.747 -0.840131 -3.1561 0
M  V30 10530 H 975.406 -2.81419 -2.34944 0
M  V30 10531 H 975.054 -1.90844 -4.6539 0
M  V30 10532 H 974.754 -3.66345 -4.59418 0
M  V30 10533 H 976.278 -3.04539 -5.29234 0
M  V30 10534 H 977.692 -4.50205 -3.54948 0
M  V30 10535 H 976.089 -5.14515 -3.0886 0
M  V30 10536 H 977.159 -4.48739 -1.83742 0
M  V30 10537 N 978.502 0.731368 -1.39602 0
M  V30 10538 C 979.434 1.85575 -1.34516 0
M  V30 10539 C 980.447 1.60818 -0.253287 0
M  V30 10540 O 981.636 1.70984 -0.512505 0
M  V30 10541 C 978.736 3.21673 -1.06676 0
M  V30 10542 C 977.909 3.73757 -2.27211 0
M  V30 10543 C 976.968 4.88426 -1.95773 0
M  V30 10544 O 975.994 5.01898 -2.68491 0
M  V30 10545 N 977.196 5.73065 -0.926083 0
M  V30 10546 H 979.961 1.90442 -2.31413 0
M  V30 10547 H 977.522 0.912258 -1.33752 0
M  V30 10548 H 979.514 3.95959 -0.836577 0
M  V30 10549 H 978.084 3.12052 -0.185003 0
M  V30 10550 H 977.304 2.90781 -2.66158 0
M  V30 10551 H 978.592 4.05289 -3.07601 0
M  V30 10552 H 977.99 5.64774 -0.323497 0
M  V30 10553 H 976.547 6.47403 -0.755795 0
M  V30 10554 N 979.98 1.24838 0.961938 0
M  V30 10555 C 980.927 1.04582 2.05745 0
M  V30 10556 C 981.897 -0.0427281 1.66045 0
M  V30 10557 O 983.082 0.113026 1.90465 0
M  V30 10558 C 980.222 0.66284 3.38675 0
M  V30 10559 C 979.335 1.82548 3.91536 0
M  V30 10560 C 978.47 1.38753 5.12758 0
M  V30 10561 C 977.509 2.51976 5.5783 0
M  V30 10562 N 976.646 2.09009 6.70268 0
M  V30 10563 H 981.486 1.98343 2.22405 0
M  V30 10564 H 979.023 0.987822 1.08998 0
M  V30 10565 H 980.981 0.421788 4.15062 0
M  V30 10566 H 979.611 -0.237776 3.21923 0
M  V30 10567 H 978.663 2.18004 3.11735 0
M  V30 10568 H 979.975 2.67601 4.20941 0
M  V30 10569 H 979.129 1.1057 5.96539 0
M  V30 10570 H 977.868 0.507618 4.85051 0
M  V30 10571 H 976.873 2.80912 4.72619 0
M  V30 10572 H 978.098 3.40534 5.87549 0
M  V30 10573 H 976.044 1.23423 6.44285 0
M  V30 10574 H 975.961 2.87613 6.99153 0
M  V30 10575 H 977.229 1.83981 7.57477 0
M  V30 10576 N 981.458 -1.16348 1.06306 0
M  V30 10577 C 982.421 -2.18941 0.678053 0
M  V30 10578 C 983.421 -1.58409 -0.276277 0
M  V30 10579 O 984.611 -1.74101 -0.0586435 0
M  V30 10580 C 981.743 -3.409 -0.00228684 0
M  V30 10581 H 982.936 -2.54516 1.58624 0
M  V30 10582 H 980.489 -1.30625 0.858298 0
M  V30 10583 H 981.224 -3.10881 -0.923212 0
M  V30 10584 H 981.009 -3.86089 0.683949 0
M  V30 10585 H 982.499 -4.16806 -0.257374 0
M  V30 10586 N 982.937 -0.845659 -1.3299 0
M  V30 10587 C 984.186 -0.440928 -1.96822 0
M  V30 10588 C 984.499 1.00668 -1.67706 0
M  V30 10589 O 985.705 1.51641 -2.25205 0
M  V30 10590 C 984.161 -0.73752 -3.52262 0
M  V30 10591 C 983.769 -2.20026 -3.90247 0
M  V30 10592 C 985.513 -0.400072 -4.22611 0
M  V30 10593 C 983.42 -2.44054 -5.38694 0
M  V30 10594 H 982.35 -0.161148 -0.736578 0
M  V30 10595 H 985.001 -1.03519 -1.51513 0
M  V30 10596 H 983.383 -0.0728025 -3.95933 0
M  V30 10597 H 984.557 -2.90602 -3.57613 0
M  V30 10598 H 982.872 -2.50135 -3.32899 0
M  V30 10599 H 985.469 -0.557136 -5.3179 0
M  V30 10600 H 985.812 0.657547 -4.11074 0
M  V30 10601 H 986.345 -1.0203 -3.84493 0
M  V30 10602 H 983.084 -3.48407 -5.55241 0
M  V30 10603 H 982.604 -1.78047 -5.72765 0
M  V30 10604 H 984.283 -2.27549 -6.05665 0
M  V30 10605 N 984.415 1.45619 -0.602734 0
M  V30 10606 C 985.64 2.07157 -0.100429 0
M  V30 10607 C 986.065 1.44524 1.20393 0
M  V30 10608 O 985.423 0.536191 1.7319 0
M  V30 10609 C 985.471 3.60587 0.0308604 0
M  V30 10610 O 984.575 3.97944 1.08234 0
M  V30 10611 H 983.916 0.6601 -0.0718643 0
M  V30 10612 H 986.446 1.86948 -0.831366 0
M  V30 10613 H 986.456 4.07348 0.230634 0
M  V30 10614 H 985.131 4.05561 -0.921581 0
M  V30 10615 H 983.708 3.62862 0.859414 0
M  V30 10616 N 985.893 0.34162 1.53853 0
M  V30 10617 C 987.139 -0.255862 2.01179 0
M  V30 10618 C 987.472 -1.50356 1.22909 0
M  V30 10619 O 986.747 -1.91913 0.316198 0
M  V30 10620 C 987.03 -0.571934 3.55529 0
M  V30 10621 C 986.883 0.687727 4.44511 0
M  V30 10622 C 988.202 -1.38233 4.17827 0
M  V30 10623 H 985.321 -0.091521 0.731295 0
M  V30 10624 H 987.963 0.461775 1.84303 0
M  V30 10625 H 986.113 -1.18331 3.70041 0
M  V30 10626 H 987.785 1.32572 4.4184 0
M  V30 10627 H 986.028 1.313 4.13452 0
M  V30 10628 H 986.699 0.421858 5.50386 0
M  V30 10629 H 989.175 -0.865374 4.07002 0
M  V30 10630 H 988.051 -1.57223 5.25901 0
M  V30 10631 H 988.312 -2.38386 3.72323 0
M  V30 10632 N 987.371 -1.57444 0.0701946 0
M  V30 10633 C 988.301 -2.15659 -0.895176 0
M  V30 10634 C 989.282 -1.08321 -1.31151 0
M  V30 10635 O 990.467 -1.36349 -1.38284 0
M  V30 10636 C 987.597 -2.71693 -2.16334 0
M  V30 10637 C 986.551 -3.84183 -1.88645 0
M  V30 10638 C 985.877 -4.26814 -3.22078 0
M  V30 10639 C 987.177 -5.08493 -1.19299 0
M  V30 10640 H 988.871 -2.96576 -0.410217 0
M  V30 10641 H 986.417 -1.42662 -0.195872 0
M  V30 10642 H 988.37 -3.11064 -2.84284 0
M  V30 10643 H 987.094 -1.87994 -2.67069 0
M  V30 10644 H 985.753 -3.45314 -1.23101 0
M  V30 10645 H 985.401 -3.40039 -3.70651 0
M  V30 10646 H 985.101 -5.02642 -3.04344 0
M  V30 10647 H 986.625 -4.68799 -3.91228 0
M  V30 10648 H 988.039 -5.4519 -1.77316 0
M  V30 10649 H 986.436 -5.89588 -1.11828 0
M  V30 10650 H 987.506 -4.84595 -0.171839 0
M  V30 10651 N 988.849 0.203349 -1.56283 0
M  V30 10652 C 989.759 1.27266 -1.9708 0
M  V30 10653 C 990.775 1.50268 -0.877236 0
M  V30 10654 O 991.951 1.63044 -1.18231 0
M  V30 10655 C 989.016 2.59871 -2.29495 0
M  V30 10656 C 988.077 2.45012 -3.52516 0
M  V30 10657 C 987.31 3.71293 -3.83376 0
M  V30 10658 O 987.533 4.75106 -3.15643 0
M  V30 10659 O 986.467 3.67316 -4.76826 0
M  V30 10660 H 990.293 0.956461 -2.88246 0
M  V30 10661 H 987.878 0.407688 -1.4373 0
M  V30 10662 H 989.76 3.38152 -2.51458 0
M  V30 10663 H 988.435 2.91135 -1.415 0
M  V30 10664 H 987.342 1.6487 -3.35811 0
M  V30 10665 H 988.675 2.18683 -4.40952 0
M  V30 10666 N 990.327 1.50405 0.470755 0
M  V30 10667 C 991.26 1.63933 1.58749 0
M  V30 10668 C 992.238 0.487444 1.55122 0
M  V30 10669 O 993.422 0.706992 1.74739 0
M  V30 10670 C 990.549 1.62222 2.97324 0
M  V30 10671 C 989.595 2.82975 3.19104 0
M  V30 10672 S 990.428 4.44272 2.98969 0
M  V30 10673 C 991.584 4.45254 4.39886 0
M  V30 10674 H 991.817 2.58396 1.47034 0
M  V30 10675 H 989.35 1.39672 0.658115 0
M  V30 10676 H 991.308 1.6192 3.77217 0
M  V30 10677 H 989.969 0.689944 3.06429 0
M  V30 10678 H 989.162 2.78083 4.2034 0
M  V30 10679 H 988.764 2.80846 2.46984 0
M  V30 10680 H 991.056 4.18837 5.32524 0
M  V30 10681 H 991.999 5.4687 4.49821 0
M  V30 10682 H 992.407 3.74958 4.2198 0
M  V30 10683 N 991.805 -0.723954 1.39988 0
M  V30 10684 C 992.715 -1.86829 1.41887 0
M  V30 10685 C 993.731 -1.71173 0.312401 0
M  V30 10686 O 994.907 -1.93583 0.555651 0
M  V30 10687 C 991.972 -3.22541 1.27154 0
M  V30 10688 C 991.033 -3.50512 2.47871 0
M  V30 10689 C 990.266 -4.79749 2.33831 0
M  V30 10690 O 990.489 -5.54251 1.34765 0
M  V30 10691 O 989.423 -5.07868 3.23039 0
M  V30 10692 H 993.249 -1.88183 2.38371 0
M  V30 10693 H 990.834 -0.873259 1.21221 0
M  V30 10694 H 992.716 -4.0362 1.21114 0
M  V30 10695 H 991.391 -3.21933 0.337715 0
M  V30 10696 H 990.298 -2.69475 2.59488 0
M  V30 10697 H 991.631 -3.55909 3.39985 0
M  V30 10698 N 993.283 -1.25346 -0.955304 0
M  V30 10699 C 994.231 -1.05461 -2.07318 0
M  V30 10700 C 995.225 0.0142699 -1.69394 0
M  V30 10701 O 996.431 -0.141292 -1.79445 0
M  V30 10702 H 992.806 -0.324095 -0.678577 0
M  V30 10703 H 994.777 -2.00231 -2.21247 0
M  V30 10704 C 993.526 -0.689329 -3.40798 0
M  V30 10705 H 992.849 -1.50362 -3.70447 0
M  V30 10706 H 994.289 -0.589883 -4.19877 0
M  V30 10707 C 992.748 0.604556 -3.31431 0
M  V30 10708 O 993.278 1.64686 -3.6639 0
M  V30 10709 N 991.484 0.589927 -2.84549 0
M  V30 10710 H 991.031 -0.258647 -2.56298 0
M  V30 10711 H 990.989 1.4558 -2.78664 0
M  V30 10712 N 994.761 1.15782 -1.06922 0
M  V30 10713 C 996.009 1.86097 -0.788192 0
M  V30 10714 C 996.33 1.82475 0.687606 0
M  V30 10715 O 995.6 1.26266 1.49778 0
M  V30 10716 H 994.18 0.689008 -0.288577 0
M  V30 10717 H 996.842 1.40377 -1.35205 0
M  V30 10718 H 995.938 2.91358 -1.1188 0
M  V30 10719 N 996.239 0.8527 1.3254 0
M  V30 10720 C 997.469 0.468363 2.01221 0
M  V30 10721 C 997.877 -0.938966 1.64256 0
M  V30 10722 O 997.22 -1.62387 0.858837 0
M  V30 10723 C 997.282 0.525457 3.55639 0
M  V30 10724 C 996.946 1.89133 4.16026 0
M  V30 10725 C 997.943 2.85652 4.34395 0
M  V30 10726 C 995.628 2.18795 4.52144 0
M  V30 10727 C 997.622 4.09985 4.88048 0
M  V30 10728 C 995.309 3.43381 5.05502 0
M  V30 10729 C 996.307 4.38792 5.23403 0
M  V30 10730 O 995.995 5.61173 5.75622 0
M  V30 10731 H 995.727 0.182712 0.65084 0
M  V30 10732 H 998.281 1.15076 1.70138 0
M  V30 10733 H 996.511 -0.213779 3.86109 0
M  V30 10734 H 998.2 0.156999 4.05596 0
M  V30 10735 H 998.966 2.6404 4.06827 0
M  V30 10736 H 994.845 1.45317 4.37498 0
M  V30 10737 H 998.389 4.84465 5.01936 0
M  V30 10738 H 994.286 3.64844 5.32503 0
M  V30 10739 H 995.054 5.63104 5.94017 0
M  V30 10740 N 997.718 -1.45297 0.610449 0
M  V30 10741 C 998.964 -2.03073 0.115358 0
M  V30 10742 C 999.319 -1.47 -1.24132 0
M  V30 10743 O 998.612 -0.636326 -1.80725 0
M  V30 10744 C 998.806 -3.57394 0.0205329 0
M  V30 10745 C 998.635 -4.28436 1.36647 0
M  V30 10746 C 997.405 -4.66245 1.94791 0
M  V30 10747 C 999.603 -4.60211 2.29587 0
M  V30 10748 N 997.585 -5.22159 3.22835 0
M  V30 10749 C 998.956 -5.16989 3.42232 0
M  V30 10750 C 1001.01 -4.42152 2.28923 0
M  V30 10751 C 999.714 -5.5761 4.54382 0
M  V30 10752 C 1001.74 -4.83808 3.40123 0
M  V30 10753 C 1001.1 -5.40681 4.5149 0
M  V30 10754 H 997.201 -0.777296 0.0856485 0
M  V30 10755 H 999.785 -1.77077 0.809426 0
M  V30 10756 H 997.956 -3.83045 -0.642763 0
M  V30 10757 H 999.688 -4.01826 -0.481481 0
M  V30 10758 H 996.443 -4.49893 1.47965 0
M  V30 10759 H 996.867 -5.54613 3.88245 0
M  V30 10760 H 1001.51 -3.97493 1.44081 0
M  V30 10761 H 999.227 -6.01234 5.39947 0
M  V30 10762 H 1002.81 -4.71565 3.40761 0
M  V30 10763 H 1001.69 -5.72321 5.36114 0
M  V30 10764 N 999.196 -0.349774 -1.5367 0
M  V30 10765 C 1000.44 0.237837 -2.02005 0
M  V30 10766 C 1000.8 1.477 -1.23298 0
M  V30 10767 O 1000.09 1.8901 -0.313947 0
M  V30 10768 C 1000.28 0.598311 -3.52356 0
M  V30 10769 C 1000.11 -0.604368 -4.4562 0
M  V30 10770 C 998.883 -1.1116 -4.92922 0
M  V30 10771 C 1001.08 -1.46474 -4.93001 0
M  V30 10772 N 999.063 -2.27595 -5.70152 0
M  V30 10773 C 1000.43 -2.47593 -5.68417 0
M  V30 10774 C 1002.49 -1.48947 -4.75099 0
M  V30 10775 C 1001.19 -3.51021 -6.27835 0
M  V30 10776 C 1003.22 -2.51259 -5.35372 0
M  V30 10777 C 1002.58 -3.51103 -6.1066 0
M  V30 10778 H 998.679 0.0501688 -0.780389 0
M  V30 10779 H 1001.26 -0.490748 -1.88414 0
M  V30 10780 H 999.434 1.29599 -3.6614 0
M  V30 10781 H 1001.17 1.16965 -3.87429 0
M  V30 10782 H 997.921 -0.678699 -4.68712 0
M  V30 10783 H 998.345 -2.864 -6.13436 0
M  V30 10784 H 1002.99 -0.731138 -4.1643 0
M  V30 10785 H 1000.7 -4.27745 -6.85609 0
M  V30 10786 H 1004.29 -2.54006 -5.23423 0
M  V30 10787 H 1003.17 -4.28974 -6.56469 0
M  V30 10788 N 1000.67 1.57404 -0.0785433 0
M  V30 10789 C 1001.91 1.95621 0.592595 0
M  V30 10790 C 1002.28 0.958429 1.66367 0
M  V30 10791 O 1003.48 1.2285 2.39084 0
M  V30 10792 C 1001.75 3.38445 1.14846 0
M  V30 10793 S 1003.31 3.98645 1.83378 0
M  V30 10794 H 1000.13 0.684063 0.193851 0
M  V30 10795 H 1002.73 1.94892 -0.154007 0
M  V30 10796 H 1001.43 4.08843 0.357179 0
M  V30 10797 H 1000.96 3.42733 1.93127 0
M  V30 10798 H 1002.98 3.86099 3.11676 0
M  V30 10799 N 1002.15 -0.195058 1.56388 0
M  V30 10800 C 1003.57 -0.545894 1.49974 0
M  V30 10801 C 1003.77 -1.85851 0.778568 0
M  V30 10802 O 1002.82 -2.50346 0.329105 0
M  V30 10803 C 1004.14 -0.600599 2.94641 0
M  V30 10804 C 1005.68 -0.689429 3.05313 0
M  V30 10805 C 1006.16 -0.775243 4.51391 0
M  V30 10806 N 1007.65 -0.838769 4.55542 0
M  V30 10807 C 1008.39 -0.925337 5.65884 0
M  V30 10808 N 1007.88 -0.974204 6.85916 0
M  V30 10809 N 1009.67 -0.962528 5.53798 0
M  V30 10810 H 1001.83 0.66595 2.0169 0
M  V30 10811 H 1004.09 0.237215 0.917842 0
M  V30 10812 H 1003.79 0.29478 3.50462 0
M  V30 10813 H 1003.67 -1.45528 3.47996 0
M  V30 10814 H 1006.06 -1.57524 2.4954 0
M  V30 10815 H 1006.14 0.191451 2.55083 0
M  V30 10816 H 1005.78 0.106215 5.07789 0
M  V30 10817 H 1005.71 -1.67193 4.99354 0
M  V30 10818 H 1008.2 -0.810249 3.69112 0
M  V30 10819 H 1008.51 -1.04077 7.6576 0
M  V30 10820 H 1006.86 -0.942881 6.88574 0
M  V30 10821 H 1010.05 -0.921188 4.58946 0
M  V30 10822 H 1010.22 -1.02653 6.39817 0
M  V30 10823 N 1003.63 -1.50653 -0.462772 0
M  V30 10824 C 1004.58 -1.70122 -1.55971 0
M  V30 10825 C 1005.55 -0.542581 -1.56988 0
M  V30 10826 O 1006.73 -0.774114 -1.74391 0
M  V30 10827 C 1003.87 -1.80899 -2.93887 0
M  V30 10828 C 1002.98 -3.08318 -3.02595 0
M  V30 10829 C 1002.12 -3.09841 -4.31477 0
M  V30 10830 C 1001.16 -4.3168 -4.33957 0
M  V30 10831 N 1000.3 -4.30894 -5.54323 0
M  V30 10832 H 1005.14 -2.63768 -1.38674 0
M  V30 10833 H 1002.67 -1.30746 -0.674091 0
M  V30 10834 H 1004.63 -1.85128 -3.73876 0
M  V30 10835 H 1003.26 -0.906854 -3.098 0
M  V30 10836 H 1002.31 -3.13521 -2.15427 0
M  V30 10837 H 1003.62 -3.98282 -3.00288 0
M  V30 10838 H 1002.78 -3.12845 -5.1982 0
M  V30 10839 H 1001.52 -2.17722 -4.36404 0
M  V30 10840 H 1000.52 -4.28879 -3.4401 0
M  V30 10841 H 1001.75 -5.25035 -4.30715 0
M  V30 10842 H 999.694 -3.41633 -5.6002 0
M  V30 10843 H 999.611 -5.14636 -5.53792 0
M  V30 10844 H 1000.88 -4.38056 -6.44769 0
M  V30 10845 N 1005.11 0.71652 -1.4037 0
M  V30 10846 C 1006.06 1.8306 -1.40562 0
M  V30 10847 C 1007.03 1.64009 -0.262697 0
M  V30 10848 O 1008.21 1.85157 -0.460619 0
M  V30 10849 C 1005.35 3.2076 -1.27307 0
M  V30 10850 C 1004.46 3.51389 -2.51296 0
M  V30 10851 C 1003.6 4.78589 -2.30491 0
M  V30 10852 C 1002.64 5.02119 -3.50061 0
M  V30 10853 N 1001.77 6.20533 -3.28457 0
M  V30 10854 H 1006.61 1.82231 -2.35788 0
M  V30 10855 H 1004.15 0.890198 -1.17106 0
M  V30 10856 H 1006.11 4.00274 -1.17628 0
M  V30 10857 H 1004.74 3.2082 -0.357005 0
M  V30 10858 H 1003.79 2.66436 -2.71507 0
M  V30 10859 H 1005.1 3.64686 -3.40302 0
M  V30 10860 H 1004.26 5.66119 -2.1816 0
M  V30 10861 H 1003 4.67499 -1.38909 0
M  V30 10862 H 1002 4.13044 -3.6287 0
M  V30 10863 H 1003.23 5.15082 -4.42569 0
M  V30 10864 H 1001.17 6.10695 -2.39556 0
M  V30 10865 H 1001.09 6.34502 -4.11027 0
M  V30 10866 H 1002.36 7.10853 -3.19857 0
M  V30 10867 N 1006.59 1.25851 0.948643 0
M  V30 10868 C 1007.52 1.02549 2.04979 0
M  V30 10869 C 1008.53 -0.0115923 1.62796 0
M  V30 10870 O 1009.72 0.227643 1.77042 0
M  V30 10871 C 1006.82 0.529486 3.34738 0
M  V30 10872 C 1005.99 1.6341 4.05729 0
M  V30 10873 C 1005.05 1.13743 5.1376 0
M  V30 10874 O 1004.08 1.83303 5.38877 0
M  V30 10875 N 1005.28 -0.0181151 5.80497 0
M  V30 10876 H 1008.05 1.97365 2.25537 0
M  V30 10877 H 1005.61 1.17137 1.11761 0
M  V30 10878 H 1007.6 0.181566 4.04293 0
M  V30 10879 H 1006.17 -0.324893 3.10907 0
M  V30 10880 H 1005.39 2.15331 3.30191 0
M  V30 10881 H 1006.68 2.37603 4.49914 0
M  V30 10882 H 1006.07 -0.599198 5.62518 0
M  V30 10883 H 1004.63 -0.307019 6.51077 0
M  V30 10884 N 1008.06 -1.15214 1.07534 0
M  V30 10885 C 1009.48 -1.38031 0.801228 0
M  V30 10886 C 1009.68 -1.92556 -0.593672 0
M  V30 10887 O 1008.74 -2.1325 -1.35206 0
M  V30 10888 C 1010.05 -2.34958 1.87657 0
M  V30 10889 C 1011.6 -2.48617 1.90154 0
M  V30 10890 C 1012.07 -3.48837 2.96777 0
M  V30 10891 N 1013.56 -3.56374 2.95892 0
M  V30 10892 C 1014.3 -4.33746 3.75036 0
M  V30 10893 N 1013.79 -5.14435 4.64036 0
M  V30 10894 N 1015.59 -4.28853 3.63375 0
M  V30 10895 H 1007.74 -0.781639 1.97495 0
M  V30 10896 H 1010 -0.406243 0.856546 0
M  V30 10897 H 1009.71 -2.02013 2.87895 0
M  V30 10898 H 1009.58 -3.3476 1.73827 0
M  V30 10899 H 1011.97 -2.80859 0.905666 0
M  V30 10900 H 1012.05 -1.48808 2.08062 0
M  V30 10901 H 1011.69 -3.1733 3.96565 0
M  V30 10902 H 1011.62 -4.48406 2.76116 0
M  V30 10903 H 1014.11 -2.98784 2.31379 0
M  V30 10904 H 1014.43 -5.70722 5.21053 0
M  V30 10905 H 1012.77 -5.13734 4.68084 0
M  V30 10906 H 1015.96 -3.64882 2.93221 0
M  V30 10907 H 1016.14 -4.88903 4.25298 0
M  V30 10908 N 1009.54 -0.859717 -1.32086 0
M  V30 10909 C 1010.51 -0.313005 -2.27053 0
M  V30 10910 C 1011.51 0.530191 -1.51808 0
M  V30 10911 O 1012.7 0.340972 -1.7083 0
M  V30 10912 C 1009.83 0.5566 -3.36325 0
M  V30 10913 H 1011.02 -1.15125 -2.76923 0
M  V30 10914 H 1008.57 -0.634463 -1.42843 0
M  V30 10915 H 1009.31 1.41645 -2.91731 0
M  V30 10916 H 1009.09 -0.0470197 -3.92072 0
M  V30 10917 H 1010.58 0.931725 -4.07073 0
M  V30 10918 N 1011.02 1.44971 -0.618145 0
M  V30 10919 C 1012.27 2.0176 -0.11725 0
M  V30 10920 C 1012.59 1.48773 1.26062 0
M  V30 10921 O 1011.86 0.686152 1.83491 0
M  V30 10922 H 1010.44 0.745909 -0.0403545 0
M  V30 10923 H 1013.1 1.77638 -0.801923 0
M  V30 10924 H 1012.2 3.1201 -0.0750477 0
M  V30 10925 N 1012.5 0.357919 1.53482 0
M  V30 10926 C 1013.74 -0.23451 2.0144 0
M  V30 10927 C 1014.08 -1.49044 1.24497 0
M  V30 10928 O 1013.35 -1.91566 0.336535 0
M  V30 10929 C 1013.64 -0.534193 3.56116 0
M  V30 10930 C 1013.49 0.734834 4.43757 0
M  V30 10931 C 1014.81 -1.33793 4.1927 0
M  V30 10932 H 1011.93 -0.0837595 0.732225 0
M  V30 10933 H 1014.57 0.481297 1.83803 0
M  V30 10934 H 1012.72 -1.144 3.71275 0
M  V30 10935 H 1014.39 1.37251 4.40409 0
M  V30 10936 H 1012.63 1.35678 4.12036 0
M  V30 10937 H 1013.3 0.48021 5.49907 0
M  V30 10938 H 1015.78 -0.822158 4.07897 0
M  V30 10939 H 1014.66 -1.51636 5.27539 0
M  V30 10940 H 1014.92 -2.34423 3.74831 0
M  V30 10941 N 1013.98 -1.5736 0.0868897 0
M  V30 10942 C 1014.91 -2.09211 -0.911382 0
M  V30 10943 C 1015.89 -1.00072 -1.28157 0
M  V30 10944 O 1017.07 -1.27514 -1.38825 0
M  V30 10945 C 1014.2 -2.56229 -2.21504 0
M  V30 10946 C 1013.24 -3.76948 -1.99531 0
M  V30 10947 S 1014.08 -5.20926 -1.24083 0
M  V30 10948 C 1015.23 -5.71288 -2.55697 0
M  V30 10949 H 1015.47 -2.93557 -0.470245 0
M  V30 10950 H 1013 -1.53883 -0.126218 0
M  V30 10951 H 1014.96 -2.83978 -2.96424 0
M  V30 10952 H 1013.62 -1.72123 -2.6274 0
M  V30 10953 H 1012.81 -4.07887 -2.96048 0
M  V30 10954 H 1012.41 -3.4965 -1.32744 0
M  V30 10955 H 1014.71 -5.79054 -3.51714 0
M  V30 10956 H 1015.65 -6.6993 -2.29347 0
M  V30 10957 H 1016.06 -4.99178 -2.63594 0
M  V30 10958 N 1015.45 0.186762 -1.56489 0
M  V30 10959 C 1016.38 1.23395 -1.98232 0
M  V30 10960 C 1017.37 1.4702 -0.855526 0
M  V30 10961 O 1018.55 1.58616 -1.12048 0
M  V30 10962 C 1015.68 2.57635 -2.32898 0
M  V30 10963 C 1014.63 2.48607 -3.48394 0
M  V30 10964 C 1013.96 3.87196 -3.68759 0
M  V30 10965 C 1015.26 2.00398 -4.82325 0
M  V30 10966 H 1016.95 0.887026 -2.85958 0
M  V30 10967 H 1014.5 0.42525 -1.37578 0
M  V30 10968 H 1016.45 3.31082 -2.60696 0
M  V30 10969 H 1015.18 2.94084 -1.42064 0
M  V30 10970 H 1013.84 1.77615 -3.207 0
M  V30 10971 H 1013.48 4.21012 -2.75241 0
M  V30 10972 H 1013.18 3.82029 -4.46462 0
M  V30 10973 H 1014.71 4.62253 -3.98941 0
M  V30 10974 H 1016.12 2.6361 -5.091 0
M  V30 10975 H 1014.52 2.06214 -5.63556 0
M  V30 10976 H 1015.59 0.957562 -4.75351 0
M  V30 10977 N 1016.93 1.50896 0.454776 0
M  V30 10978 C 1018.16 1.6648 1.22849 0
M  V30 10979 C 1018.58 0.354841 1.85435 0
M  V30 10980 O 1017.93 -0.664931 1.69956 0
M  V30 10981 C 1017.98 2.76787 2.32532 0
M  V30 10982 O 1017.7 4.02706 1.72509 0
M  V30 10983 C 1019.21 3.03488 3.23125 0
M  V30 10984 H 1016.43 0.559152 0.370932 0
M  V30 10985 H 1018.97 1.97215 0.540983 0
M  V30 10986 H 1017.12 2.48701 2.9703 0
M  V30 10987 H 1017.54 4.63834 2.44863 0
M  V30 10988 H 1019.01 3.84294 3.9626 0
M  V30 10989 H 1019.49 2.152 3.82865 0
M  V30 10990 H 1020.1 3.33167 2.64347 0
M  V30 10991 N 1018.41 -0.709066 1.40748 0
M  V30 10992 C 1019.66 -1.47119 1.39585 0
M  V30 10993 C 1019.99 -1.942 0.000245323 0
M  V30 10994 O 1019.26 -1.68609 -0.969593 0
M  V30 10995 C 1019.55 -2.69266 2.39099 0
M  V30 10996 C 1019.4 -2.28037 3.8771 0
M  V30 10997 C 1020.72 -3.71438 2.36055 0
M  V30 10998 H 1017.84 -0.533632 0.508336 0
M  V30 10999 H 1020.48 -0.808718 1.7193 0
M  V30 11000 H 1018.63 -3.25788 2.11647 0
M  V30 11001 H 1020.3 -1.76946 4.26014 0
M  V30 11002 H 1018.55 -1.59966 4.03229 0
M  V30 11003 H 1019.22 -3.15621 4.52866 0
M  V30 11004 H 1021.69 -3.24559 2.60385 0
M  V30 11005 H 1020.57 -4.54532 3.07721 0
M  V30 11006 H 1020.83 -4.20193 1.37443 0
M  V30 11007 N 1019.89 -1.26353 -0.941956 0
M  V30 11008 C 1021.14 -1.1163 -1.68473 0
M  V30 11009 C 1021.46 0.34108 -1.91994 0
M  V30 11010 O 1020.73 1.24065 -1.51607 0
M  V30 11011 H 1019.31 -0.410113 -0.624353 0
M  V30 11012 H 1021.97 -1.58669 -1.13182 0
M  V30 11013 H 1021.07 -1.63445 -2.6588 0
M  V30 11014 N 1021.37 1.14642 -1.08144 0
M  V30 11015 C 1022.6 1.89484 -0.830864 0
M  V30 11016 C 1023.01 1.78443 0.616722 0
M  V30 11017 O 1022.37 1.14191 1.42361 0
M  V30 11018 C 1022.42 3.39554 -1.24039 0
M  V30 11019 O 1022.14 3.50286 -2.63119 0
M  V30 11020 C 1023.64 4.31399 -1.02029 0
M  V30 11021 H 1020.86 0.600283 -0.299835 0
M  V30 11022 H 1023.4 1.45204 -1.44001 0
M  V30 11023 H 1021.56 3.81467 -0.675407 0
M  V30 11024 H 1021.97 4.43481 -2.80045 0
M  V30 11025 H 1023.45 5.35079 -1.35625 0
M  V30 11026 H 1023.92 4.39179 0.0428697 0
M  V30 11027 H 1024.53 3.95238 -1.57057 0
M  V30 11028 N 1022.85 0.866709 1.31628 0
M  V30 11029 C 1023.79 0.318169 2.28596 0
M  V30 11030 C 1024.76 -0.581558 1.55586 0
M  V30 11031 O 1025.95 -0.513895 1.83749 0
M  V30 11032 C 1023.09 -0.477137 3.41786 0
M  V30 11033 C 1022.2 0.449739 4.29653 0
M  V30 11034 C 1021.34 -0.359373 5.29983 0
M  V30 11035 C 1020.37 0.564138 6.09495 0
M  V30 11036 N 1019.51 -0.208526 7.0179 0
M  V30 11037 H 1024.35 1.15029 2.74904 0
M  V30 11038 H 1021.89 0.578649 1.35241 0
M  V30 11039 H 1023.85 -0.953985 4.06146 0
M  V30 11040 H 1022.48 -1.27398 2.96597 0
M  V30 11041 H 1021.53 1.04502 3.65764 0
M  V30 11042 H 1022.84 1.158 4.85172 0
M  V30 11043 H 1021.99 -0.89887 6.00004 0
M  V30 11044 H 1020.73 -1.10094 4.75111 0
M  V30 11045 H 1019.74 1.11542 5.38366 0
M  V30 11046 H 1020.96 1.30451 6.66453 0
M  V30 11047 H 1018.91 -0.932969 6.49332 0
M  V30 11048 H 1018.83 0.440463 7.54716 0
M  V30 11049 H 1020.09 -0.72936 7.7608 0
M  V30 11050 N 1024.32 -1.44642 0.625825 0
M  V30 11051 C 1025.73 -1.85502 0.211175 0
M  V30 11052 C 1026.09 -1.52356 -1.2362 0
M  V30 11053 O 1025.21 -0.959051 -1.93988 0
M  V30 11054 C 1025.81 -3.36702 0.37648 0
M  V30 11055 C 1024.36 -3.76396 0.0163795 0
M  V30 11056 C 1023.51 -2.68517 0.692368 0
M  V30 11057 H 1026.46 -1.35183 0.831333 0
M  V30 11058 H 1026.48 -3.78536 -0.386106 0
M  V30 11059 H 1026 -3.60795 1.42999 0
M  V30 11060 H 1024.1 -3.57919 -1.0356 0
M  V30 11061 H 1024.21 -4.77231 0.422742 0
M  V30 11062 H 1022.57 -2.54377 0.128191 0
M  V30 11063 H 1023.36 -2.95444 1.74837 0
M  V30 11064 N 1025.8 -0.366053 -1.5329 0
M  V30 11065 C 1027.08 0.279902 -1.93587 0
M  V30 11066 C 1027.46 1.66352 -1.29963 0
M  V30 11067 O 1026.81 2.23845 -0.458895 0
M  V30 11068 C 1027.02 0.329634 -3.4744 0
M  V30 11069 C 1028.36 0.569754 -4.2076 0
M  V30 11070 O 1029.39 0.410823 -3.53823 0
M  V30 11071 O 1028.25 0.879262 -5.3938 0
M  V30 11072 H 1025.34 0.16802 -0.809752 0
M  V30 11073 H 1027.89 -0.418871 -1.64449 0
M  V30 11074 H 1026.66 -0.640434 -3.86023 0
M  V30 11075 H 1026.28 1.07428 -3.82812 0
M  V30 11076 N 1027.28 1.57312 -0.0952337 0
M  V30 11077 C 1028.53 1.93974 0.567319 0
M  V30 11078 C 1028.85 0.977805 1.68713 0
M  V30 11079 O 1028.12 0.0298944 1.95877 0
M  V30 11080 H 1026.7 0.71612 0.212558 0
M  V30 11081 H 1029.36 1.94254 -0.158598 0
M  V30 11082 H 1028.46 2.964 0.977423 0
M  V30 11083 N 1028.76 -0.17846 1.56586 0
M  V30 11084 C 1029.98 -0.916061 1.86073 0
M  V30 11085 C 1030.41 -1.75349 0.680754 0
M  V30 11086 O 1029.77 -1.77479 -0.37028 0
M  V30 11087 C 1029.81 -1.77445 3.1392 0
M  V30 11088 O 1028.92 -2.87524 2.95641 0
M  V30 11089 H 1028.26 -0.257031 0.612234 0
M  V30 11090 H 1030.79 -0.178755 2.03818 0
M  V30 11091 H 1030.8 -2.1758 3.45142 0
M  V30 11092 H 1029.47 -1.15927 3.99417 0
M  V30 11093 H 1028.05 -2.51023 2.75757 0
M  V30 11094 N 1030.24 -1.51135 -0.446768 0
M  V30 11095 C 1031.65 -1.55919 -1.02694 0
M  V30 11096 C 1032 -0.377038 -1.92543 0
M  V30 11097 O 1031.12 0.507295 -2.1037 0
M  V30 11098 C 1031.72 -2.8257 -1.86922 0
M  V30 11099 C 1030.28 -2.89956 -2.40005 0
M  V30 11100 C 1029.42 -2.50482 -1.18971 0
M  V30 11101 H 1032.37 -1.57048 -0.228403 0
M  V30 11102 H 1032.4 -2.65799 -2.7227 0
M  V30 11103 H 1031.91 -3.6859 -1.21502 0
M  V30 11104 H 1030.01 -2.08343 -3.08907 0
M  V30 11105 H 1030.12 -3.93399 -2.73448 0
M  V30 11106 H 1028.49 -2.03466 -1.53211 0
M  V30 11107 H 1029.27 -3.38837 -0.551762 0
M  V30 11108 N 1031.71 0.701592 -1.41122 0
M  V30 11109 C 1032.99 1.45569 -1.30648 0
M  V30 11110 C 1033.37 2.10988 0.068744 0
M  V30 11111 O 1032.72 2.01228 1.08257 0
M  V30 11112 C 1032.93 2.48003 -2.45551 0
M  V30 11113 C 1034.28 3.13431 -2.86437 0
M  V30 11114 O 1035.3 2.58327 -2.45247 0
M  V30 11115 O 1034.16 4.13221 -3.57646 0
M  V30 11116 H 1031.25 0.648 -0.513834 0
M  V30 11117 H 1033.8 0.73258 -1.53073 0
M  V30 11118 H 1032.57 1.98276 -3.37346 0
M  V30 11119 H 1032.19 3.27832 -2.24971 0
M  V30 11120 N 1033.19 1.2685 0.935242 0
M  V30 11121 C 1034.1 1.10716 2.06831 0
M  V30 11122 C 1035.12 0.0391222 1.73956 0
M  V30 11123 O 1036.29 0.244071 1.99916 0
M  V30 11124 C 1033.36 0.748093 3.38533 0
M  V30 11125 C 1032.42 1.89619 3.85153 0
M  V30 11126 C 1031.65 1.55416 5.1057 0
M  V30 11127 O 1031.88 0.458596 5.68553 0
M  V30 11128 O 1030.81 2.39087 5.52378 0
M  V30 11129 H 1034.64 2.05785 2.23352 0
M  V30 11130 H 1032.22 1.05967 1.05315 0
M  V30 11131 H 1034.1 0.560841 4.17651 0
M  V30 11132 H 1032.78 -0.173142 3.23237 0
M  V30 11133 H 1031.68 2.13845 3.06954 0
M  V30 11134 H 1033.02 2.79737 4.04979 0
M  V30 11135 N 1034.67 -1.14067 1.0875 0
M  V30 11136 C 1036.09 -1.37173 0.815823 0
M  V30 11137 C 1036.29 -1.93175 -0.573215 0
M  V30 11138 O 1035.34 -2.14672 -1.32937 0
M  V30 11139 C 1036.66 -2.32955 1.90138 0
M  V30 11140 C 1038.2 -2.46586 1.9278 0
M  V30 11141 C 1038.68 -3.4567 3.0046 0
M  V30 11142 N 1040.17 -3.53216 2.99655 0
M  V30 11143 C 1040.9 -4.29743 3.79616 0
M  V30 11144 N 1040.4 -5.09484 4.69466 0
M  V30 11145 N 1042.19 -4.24975 3.67903 0
M  V30 11146 H 1034.34 -0.760648 1.98313 0
M  V30 11147 H 1036.61 -0.397135 0.860807 0
M  V30 11148 H 1036.31 -1.98949 2.90021 0
M  V30 11149 H 1036.19 -3.32897 1.77368 0
M  V30 11150 H 1038.57 -2.79882 0.935404 0
M  V30 11151 H 1038.66 -1.46593 2.09629 0
M  V30 11152 H 1038.3 -3.13106 3.99909 0
M  V30 11153 H 1038.23 -4.45452 2.80856 0
M  V30 11154 H 1040.72 -2.96314 2.34535 0
M  V30 11155 H 1041.03 -5.65163 5.27077 0
M  V30 11156 H 1039.38 -5.08741 4.73506 0
M  V30 11157 H 1042.57 -3.61751 2.97075 0
M  V30 11158 H 1042.74 -4.84364 4.30459 0
M  V30 11159 N 1036.15 -0.873678 -1.31166 0
M  V30 11160 C 1037.39 -0.496513 -1.97247 0
M  V30 11161 C 1037.75 0.941605 -1.67784 0
M  V30 11162 O 1037.04 1.65469 -0.965947 0
M  V30 11163 C 1037.24 -0.69462 -3.50585 0
M  V30 11164 C 1037.07 -2.15044 -3.94951 0
M  V30 11165 C 1035.84 -2.79278 -4.21108 0
M  V30 11166 C 1038.03 -3.1231 -4.08616 0
M  V30 11167 N 1036.02 -4.15574 -4.51853 0
M  V30 11168 C 1037.39 -4.33646 -4.43115 0
M  V30 11169 C 1039.44 -3.08251 -3.91006 0
M  V30 11170 C 1038.14 -5.51447 -4.61842 0
M  V30 11171 C 1040.17 -4.25314 -4.10929 0
M  V30 11172 C 1039.53 -5.45413 -4.45763 0
M  V30 11173 H 1035.63 -0.230797 -0.747166 0
M  V30 11174 H 1038.22 -1.12905 -1.58621 0
M  V30 11175 H 1036.39 -0.0916484 -3.88292 0
M  V30 11176 H 1038.12 -0.285475 -4.03692 0
M  V30 11177 H 1034.87 -2.30207 -4.13886 0
M  V30 11178 H 1035.3 -4.85932 -4.7138 0
M  V30 11179 H 1039.94 -2.16505 -3.6316 0
M  V30 11180 H 1037.66 -6.43707 -4.88535 0
M  V30 11181 H 1041.24 -4.2363 -3.98785 0
M  V30 11182 H 1040.12 -6.34487 -4.60865 0
M  V30 11183 N 1037.63 1.44308 -0.633487 0
M  V30 11184 C 1038.87 2.03904 -0.14226 0
M  V30 11185 C 1039.23 1.48768 1.21376 0
M  V30 11186 O 1040.43 1.99882 1.79724 0
M  V30 11187 C 1038.7 3.5716 -0.130975 0
M  V30 11188 S 1040.26 4.37805 0.295287 0
M  V30 11189 H 1037.08 0.70827 -0.0622429 0
M  V30 11190 H 1039.68 1.76657 -0.837405 0
M  V30 11191 H 1038.39 3.94794 -1.12096 0
M  V30 11192 H 1037.92 3.89021 0.585342 0
M  V30 11193 H 1039.93 4.71732 1.53894 0
M  V30 11194 N 1039.1 0.374177 1.53094 0
M  V30 11195 C 1040.35 -0.212816 2.01379 0
M  V30 11196 C 1040.68 -1.48069 1.26118 0
M  V30 11197 O 1039.93 -1.92625 0.345561 0
M  V30 11198 C 1040.23 -0.542179 3.53264 0
M  V30 11199 C 1039.9 0.632375 4.46444 0
M  V30 11200 C 1038.56 0.954635 4.71636 0
M  V30 11201 C 1040.91 1.41887 5.01515 0
M  V30 11202 C 1038.24 2.06521 5.4915 0
M  V30 11203 C 1040.59 2.51993 5.80243 0
M  V30 11204 C 1039.26 2.84744 6.03719 0
M  V30 11205 H 1038.53 -0.0778749 0.736897 0
M  V30 11206 H 1041.17 0.508412 1.84628 0
M  V30 11207 H 1039.48 -1.34454 3.68007 0
M  V30 11208 H 1041.18 -1.00874 3.88105 0
M  V30 11209 H 1037.77 0.371179 4.2699 0
M  V30 11210 H 1041.95 1.18315 4.81991 0
M  V30 11211 H 1037.21 2.32284 5.65557 0
M  V30 11212 H 1041.38 3.13346 6.21922 0
M  V30 11213 H 1039.01 3.70921 6.63568 0
M  V30 11214 N 1040.58 -1.57259 0.103575 0
M  V30 11215 C 1042 -1.57581 -0.253062 0
M  V30 11216 C 1042.2 -1.11531 -1.67819 0
M  V30 11217 O 1041.25 -0.795632 -2.39637 0
M  V30 11218 C 1042.57 -3.00681 -0.0337753 0
M  V30 11219 C 1044.12 -3.12837 -0.10087 0
M  V30 11220 C 1044.59 -4.57911 0.0905295 0
M  V30 11221 N 1046.08 -4.63186 0.0359789 0
M  V30 11222 C 1046.82 -5.73179 0.159199 0
M  V30 11223 N 1046.31 -6.91976 0.337728 0
M  V30 11224 N 1048.11 -5.62011 0.0998662 0
M  V30 11225 H 1040.26 -1.85499 1.0346 0
M  V30 11226 H 1042.52 -0.856584 0.406163 0
M  V30 11227 H 1042.23 -3.38602 0.950858 0
M  V30 11228 H 1042.1 -3.69207 -0.772406 0
M  V30 11229 H 1044.49 -2.74783 -1.07601 0
M  V30 11230 H 1044.57 -2.46886 0.66939 0
M  V30 11231 H 1044.21 -4.9666 1.06258 0
M  V30 11232 H 1044.14 -5.21933 -0.699528 0
M  V30 11233 H 1046.63 -3.7777 -0.099121 0
M  V30 11234 H 1046.95 -7.71641 0.423032 0
M  V30 11235 H 1045.29 -6.93996 0.373504 0
M  V30 11236 H 1048.48 -4.68084 -0.0385356 0
M  V30 11237 H 1048.65 -6.47693 0.199342 0
M  V30 11238 N 1042.06 0.170153 -1.56679 0
M  V30 11239 C 1043.31 0.887906 -1.8233 0
M  V30 11240 C 1043.64 1.81845 -0.681608 0
M  V30 11241 O 1042.91 1.9191 0.316362 0
M  V30 11242 C 1043.2 1.68256 -3.18374 0
M  V30 11243 C 1043.05 0.775059 -4.43072 0
M  V30 11244 C 1044.37 2.65001 -3.51372 0
M  V30 11245 H 1041.49 0.32135 -0.663252 0
M  V30 11246 H 1044.13 0.154065 -1.89374 0
M  V30 11247 H 1042.28 2.30817 -3.12499 0
M  V30 11248 H 1043.95 0.162234 -4.61015 0
M  V30 11249 H 1042.2 0.0831809 -4.3372 0
M  V30 11250 H 1042.87 1.36661 -5.34816 0
M  V30 11251 H 1045.34 2.12566 -3.57708 0
M  V30 11252 H 1044.22 3.17667 -4.47637 0
M  V30 11253 H 1044.48 3.45255 -2.76136 0
M  V30 11254 N 1043.54 1.5137 0.438746 0
M  V30 11255 C 1044.45 1.75424 1.55768 0
M  V30 11256 C 1045.46 0.638409 1.61865 0
M  V30 11257 O 1046.64 0.9205 1.79133 0
M  V30 11258 C 1043.71 1.87288 2.9176 0
M  V30 11259 C 1042.77 3.11137 2.95791 0
M  V30 11260 C 1042 3.22425 4.25297 0
M  V30 11261 O 1042.22 2.39688 5.17596 0
M  V30 11262 O 1041.16 4.15393 4.35583 0
M  V30 11263 H 1044.98 2.70339 1.38386 0
M  V30 11264 H 1042.57 1.35854 0.621609 0
M  V30 11265 H 1044.45 1.97085 3.72472 0
M  V30 11266 H 1043.12 0.955599 3.09273 0
M  V30 11267 H 1042.03 3.06819 2.1404 0
M  V30 11268 H 1043.36 4.02549 2.83223 0
M  V30 11269 N 1045.02 -0.694098 1.41492 0
M  V30 11270 C 1045.93 -1.83778 1.45818 0
M  V30 11271 C 1046.94 -1.70471 0.348639 0
M  V30 11272 O 1048.12 -1.92361 0.596588 0
M  V30 11273 C 1045.18 -3.19771 1.33967 0
M  V30 11274 C 1044.24 -3.45175 2.5525 0
M  V30 11275 C 1043.48 -4.74681 2.43955 0
M  V30 11276 O 1043.7 -5.51268 1.46491 0
M  V30 11277 O 1042.63 -5.00901 3.33739 0
M  V30 11278 H 1046.46 -1.83084 2.42309 0
M  V30 11279 H 1044.05 -0.847349 1.23046 0
M  V30 11280 H 1045.93 -4.00961 1.29648 0
M  V30 11281 H 1044.6 -3.21145 0.405926 0
M  V30 11282 H 1043.51 -2.6391 2.65146 0
M  V30 11283 H 1044.84 -3.48617 3.47458 0
M  V30 11284 N 1046.49 -1.27344 -0.928501 0
M  V30 11285 C 1047.74 -1.13804 -1.67859 0
M  V30 11286 C 1048.07 0.31555 -1.91619 0
M  V30 11287 O 1047.35 1.23087 -1.50599 0
M  V30 11288 C 1047.63 -1.9213 -3.04562 0
M  V30 11289 C 1047.48 -3.45468 -2.88048 0
M  V30 11290 C 1048.8 -1.72513 -4.04879 0
M  V30 11291 H 1045.92 -0.414796 -0.609191 0
M  V30 11292 H 1048.56 -1.5649 -1.07753 0
M  V30 11293 H 1046.71 -1.55853 -3.55868 0
M  V30 11294 H 1048.39 -3.9157 -2.43865 0
M  V30 11295 H 1046.63 -3.71849 -2.23407 0
M  V30 11296 H 1047.3 -3.95515 -3.85061 0
M  V30 11297 H 1049.78 -2.04143 -3.62581 0
M  V30 11298 H 1048.65 -2.29713 -4.98521 0
M  V30 11299 H 1048.91 -0.672856 -4.3695 0
M  V30 11300 N 1047.97 1.13488 -1.09353 0
M  V30 11301 C 1048.92 2.20949 -0.726923 0
M  V30 11302 C 1049.91 1.67205 0.271816 0
M  V30 11303 O 1051.12 1.79505 0.133356 0
M  V30 11304 H 1047.5 0.719985 -0.217086 0
M  V30 11305 H 1049.47 2.49134 -1.6424 0
M  V30 11306 C 1048.22 3.47319 -0.162822 0
M  V30 11307 H 1047.54 3.89011 -0.922527 0
M  V30 11308 H 1048.98 4.23963 0.0557734 0
M  V30 11309 C 1047.44 3.18376 1.10175 0
M  V30 11310 O 1047.97 3.3707 2.18511 0
M  V30 11311 N 1046.17 2.72262 1.01597 0
M  V30 11312 H 1045.72 2.5725 0.134289 0
M  V30 11313 H 1045.68 2.53272 1.86281 0
M  V30 11314 N 1049.45 0.880621 1.30701 0
M  V30 11315 C 1050.7 0.506967 1.96981 0
M  V30 11316 C 1051.05 -0.932694 1.68281 0
M  V30 11317 O 1050.35 -1.64954 0.974709 0
M  V30 11318 C 1050.54 0.713203 3.50212 0
M  V30 11319 C 1050.37 2.17136 3.93805 0
M  V30 11320 C 1049.14 2.81508 4.19621 0
M  V30 11321 C 1051.34 3.14473 4.06954 0
M  V30 11322 N 1049.32 4.17965 4.49643 0
M  V30 11323 C 1050.69 4.3599 4.40809 0
M  V30 11324 C 1052.74 3.1032 3.89366 0
M  V30 11325 C 1051.45 5.53889 4.58911 0
M  V30 11326 C 1053.47 4.27487 4.08667 0
M  V30 11327 C 1052.84 5.47769 4.42864 0
M  V30 11328 H 1048.93 0.234756 0.745931 0
M  V30 11329 H 1051.52 1.13745 1.5802 0
M  V30 11330 H 1049.69 0.112239 3.88238 0
M  V30 11331 H 1051.42 0.30688 4.03535 0
M  V30 11332 H 1048.18 2.32399 4.12659 0
M  V30 11333 H 1048.6 4.88425 4.68796 0
M  V30 11334 H 1053.24 2.18428 3.62007 0
M  V30 11335 H 1050.96 6.46289 4.85114 0
M  V30 11336 H 1054.55 4.25738 3.96533 0
M  V30 11337 H 1053.43 6.36922 4.57493 0
M  V30 11338 N 1050.93 -1.4397 0.641131 0
M  V30 11339 C 1051.89 -2.29149 -0.0482243 0
M  V30 11340 C 1052.89 -1.41572 -0.762495 0
M  V30 11341 O 1054.08 -1.63335 -0.605571 0
M  V30 11342 C 1051.21 -3.23375 -1.07896 0
M  V30 11343 H 1052.41 -2.9159 0.70109 0
M  V30 11344 H 1049.96 -1.51048 0.401754 0
M  V30 11345 H 1050.7 -2.65804 -1.85792 0
M  V30 11346 H 1050.48 -3.87926 -0.570597 0
M  V30 11347 H 1051.97 -3.87337 -1.56075 0
M  V30 11348 N 1052.41 -0.382291 -1.52893 0
M  V30 11349 C 1053.63 0.204961 -2.06385 0
M  V30 11350 C 1054.06 1.40316 -1.25271 0
M  V30 11351 O 1053.42 1.79187 -0.275969 0
M  V30 11352 C 1053.46 0.560205 -3.56222 0
M  V30 11353 O 1052.57 1.65515 -3.77728 0
M  V30 11354 H 1051.91 0.0258798 -0.663495 0
M  V30 11355 H 1054.44 -0.547733 -1.97132 0
M  V30 11356 H 1054.45 0.826501 -3.99541 0
M  V30 11357 H 1053.12 -0.31584 -4.14699 0
M  V30 11358 H 1051.7 1.38311 -3.46301 0
M  V30 11359 N 1053.89 1.57202 -0.111913 0
M  V30 11360 C 1055.13 1.96035 0.542393 0
M  V30 11361 C 1055.49 0.993925 1.64739 0
M  V30 11362 O 1054.78 0.0227369 1.91587 0
M  V30 11363 C 1054.97 3.39152 1.12741 0
M  V30 11364 C 1054.8 4.49628 0.0806232 0
M  V30 11365 C 1053.57 5.04095 -0.348737 0
M  V30 11366 C 1055.77 5.09546 -0.697655 0
M  V30 11367 N 1053.75 5.98141 -1.38204 0
M  V30 11368 C 1055.12 5.99468 -1.58234 0
M  V30 11369 C 1057.18 4.92229 -0.749324 0
M  V30 11370 C 1055.88 6.7393 -2.51418 0
M  V30 11371 C 1057.91 5.67366 -1.66884 0
M  V30 11372 C 1057.27 6.56968 -2.54112 0
M  V30 11373 H 1053.37 0.763672 0.168311 0
M  V30 11374 H 1055.95 1.93687 -0.198387 0
M  V30 11375 H 1054.12 3.42161 1.83794 0
M  V30 11376 H 1055.86 3.65125 1.74546 0
M  V30 11377 H 1052.61 4.73581 0.042288 0
M  V30 11378 H 1053.03 6.49868 -1.8974 0
M  V30 11379 H 1057.68 4.22706 -0.0890808 0
M  V30 11380 H 1055.39 7.42704 -3.18459 0
M  V30 11381 H 1058.98 5.55974 -1.71417 0
M  V30 11382 H 1057.86 7.1409 -3.24107 0
M  V30 11383 N 1055.36 -0.161842 1.56767 0
M  V30 11384 C 1056.27 -1.21996 2.00385 0
M  V30 11385 C 1057.29 -1.4789 0.916768 0
M  V30 11386 O 1058.47 -1.59852 1.22513 0
M  V30 11387 C 1055.53 -2.53695 2.36305 0
M  V30 11388 C 1054.59 -2.3558 3.58888 0
M  V30 11389 C 1053.82 -3.60998 3.93085 0
M  V30 11390 O 1054.05 -4.6657 3.28129 0
M  V30 11391 O 1052.98 -3.54544 4.86397 0
M  V30 11392 H 1056.81 -0.879701 2.9068 0
M  V30 11393 H 1054.39 -0.369437 1.4476 0
M  V30 11394 H 1056.27 -3.31366 2.60335 0
M  V30 11395 H 1054.95 -2.87281 1.49169 0
M  V30 11396 H 1053.86 -1.55908 3.40064 0
M  V30 11397 H 1055.19 -2.06915 4.46595 0
M  V30 11398 N 1056.84 -1.516 -0.430713 0
M  V30 11399 C 1057.77 -1.69594 -1.54177 0
M  V30 11400 C 1058.79 -0.576518 -1.5225 0
M  V30 11401 O 1059.98 -0.85104 -1.56906 0
M  V30 11402 C 1057.08 -1.70148 -2.93092 0
M  V30 11403 C 1056.25 -2.98782 -3.1945 0
M  V30 11404 C 1055.31 -2.91435 -4.38123 0
M  V30 11405 O 1054.33 -3.65372 -4.36454 0
M  V30 11406 N 1055.54 -2.0774 -5.42056 0
M  V30 11407 H 1058.3 -2.65442 -1.39143 0
M  V30 11408 H 1055.86 -1.49569 -0.61974 0
M  V30 11409 H 1057.85 -1.62793 -3.70514 0
M  V30 11410 H 1056.42 -0.818667 -3.0169 0
M  V30 11411 H 1055.64 -3.19954 -2.30267 0
M  V30 11412 H 1056.93 -3.83919 -3.33892 0
M  V30 11413 H 1056.33 -1.47059 -5.46251 0
M  V30 11414 H 1054.89 -2.06259 -6.18305 0
M  V30 11415 N 1058.32 0.686584 -1.41858 0
M  V30 11416 C 1059.55 1.47519 -1.45072 0
M  V30 11417 C 1059.96 1.88709 -0.0585868 0
M  V30 11418 O 1059.32 1.57373 0.924116 0
M  V30 11419 C 1059.37 2.73195 -2.36742 0
M  V30 11420 O 1059.09 2.33736 -3.70539 0
M  V30 11421 C 1060.59 3.66861 -2.48854 0
M  V30 11422 H 1057.81 0.454307 -0.493808 0
M  V30 11423 H 1060.36 0.844612 -1.86243 0
M  V30 11424 H 1058.51 3.32468 -1.98856 0
M  V30 11425 H 1058.93 3.14809 -4.19518 0
M  V30 11426 H 1060.4 4.51801 -3.17143 0
M  V30 11427 H 1060.88 4.11961 -1.52265 0
M  V30 11428 H 1061.48 3.13486 -2.87414 0
M  V30 11429 N 1059.8 1.27835 0.921735 0
M  V30 11430 C 1060.73 1.136 2.04003 0
M  V30 11431 C 1061.71 0.0358756 1.70062 0
M  V30 11432 O 1062.89 0.211438 1.93046 0
M  V30 11433 C 1060.02 0.788697 3.38226 0
M  V30 11434 C 1058.98 1.84272 3.863 0
M  V30 11435 C 1058.3 1.34923 5.17397 0
M  V30 11436 C 1059.6 3.24788 4.09035 0
M  V30 11437 H 1061.3 2.07149 2.1617 0
M  V30 11438 H 1058.84 0.997349 1.0387 0
M  V30 11439 H 1060.8 0.675911 4.15944 0
M  V30 11440 H 1059.52 -0.182499 3.2609 0
M  V30 11441 H 1058.18 1.94451 3.1078 0
M  V30 11442 H 1057.83 0.367328 5.01657 0
M  V30 11443 H 1057.53 2.05397 5.50532 0
M  V30 11444 H 1059.05 1.24951 5.97678 0
M  V30 11445 H 1060.47 3.17575 4.77304 0
M  V30 11446 H 1058.86 3.93025 4.53488 0
M  V30 11447 H 1059.93 3.69398 3.14122 0
M  V30 11448 N 1061.28 -1.12907 1.09954 0
M  V30 11449 C 1062.69 -1.65847 0.857417 0
M  V30 11450 C 1063.04 -1.86372 -0.613176 0
M  V30 11451 O 1062.16 -1.58654 -1.47166 0
M  V30 11452 C 1062.76 -3.01269 1.54991 0
M  V30 11453 C 1061.32 -3.51179 1.35462 0
M  V30 11454 C 1060.46 -2.26307 1.60251 0
M  V30 11455 H 1063.41 -0.96755 1.25794 0
M  V30 11456 H 1063.44 -3.675 0.986091 0
M  V30 11457 H 1062.95 -2.86299 2.6202 0
M  V30 11458 H 1061.05 -3.71343 0.305742 0
M  V30 11459 H 1061.16 -4.30955 2.09318 0
M  V30 11460 H 1059.53 -2.33167 1.02494 0
M  V30 11461 H 1060.31 -2.13896 2.68521 0
M  V30 11462 N 1062.75 -0.88754 -1.30232 0
M  V30 11463 C 1063.98 -0.522306 -2.00199 0
M  V30 11464 C 1064.4 0.889866 -1.66514 0
M  V30 11465 O 1063.75 1.58558 -0.903639 0
M  V30 11466 C 1063.8 -0.690551 -3.54843 0
M  V30 11467 O 1063.53 -2.04713 -3.8733 0
M  V30 11468 C 1065.03 -0.328649 -4.4208 0
M  V30 11469 H 1062.25 -0.201628 -0.63999 0
M  V30 11470 H 1064.79 -1.19355 -1.66056 0
M  V30 11471 H 1062.95 -0.0666493 -3.87343 0
M  V30 11472 H 1063.36 -2.06762 -4.82027 0
M  V30 11473 H 1064.83 -0.497257 -5.49756 0
M  V30 11474 H 1065.31 0.733502 -4.33032 0
M  V30 11475 H 1065.92 -0.928982 -4.1503 0
M  V30 11476 N 1064.23 1.43628 -0.648757 0
M  V30 11477 C 1065.16 2.33478 0.0320785 0
M  V30 11478 C 1066.14 1.49217 0.816605 0
M  V30 11479 O 1067.33 1.77892 0.778974 0
M  V30 11480 C 1064.46 3.32525 1.00222 0
M  V30 11481 C 1063.41 4.2674 0.328119 0
M  V30 11482 C 1062.74 5.15791 1.4094 0
M  V30 11483 C 1064.04 5.16493 -0.776701 0
M  V30 11484 H 1065.73 2.90657 -0.718257 0
M  V30 11485 H 1063.28 1.3976 -0.346852 0
M  V30 11486 H 1065.23 3.94277 1.4874 0
M  V30 11487 H 1063.96 2.73593 1.78366 0
M  V30 11488 H 1062.61 3.66346 -0.136569 0
M  V30 11489 H 1062.26 4.53201 2.18216 0
M  V30 11490 H 1061.96 5.79645 0.963631 0
M  V30 11491 H 1063.49 5.80416 1.89603 0
M  V30 11492 H 1064.9 5.7208 -0.373878 0
M  V30 11493 H 1063.3 5.89043 -1.14667 0
M  V30 11494 H 1064.37 4.56448 -1.63654 0
M  V30 11495 N 1065.71 0.390394 1.52688 0
M  V30 11496 C 1066.95 -0.191207 2.03504 0
M  V30 11497 C 1067.31 -1.43952 1.27051 0
M  V30 11498 O 1068.52 -2.09835 1.67996 0
M  V30 11499 C 1066.79 -0.451552 3.54536 0
M  V30 11500 S 1068.35 -1.00328 4.27176 0
M  V30 11501 H 1065.16 -0.0537587 0.708965 0
M  V30 11502 H 1067.77 0.538993 1.87923 0
M  V30 11503 H 1066.47 0.464061 4.07768 0
M  V30 11504 H 1066 -1.21015 3.74325 0
M  V30 11505 H 1068.02 -2.28555 4.40428 0
M  V30 11506 N 1067.19 -1.57141 0.120249 0
M  V30 11507 C 1068.1 -2.18925 -0.843155 0
M  V30 11508 C 1069.11 -1.16575 -1.29175 0
M  V30 11509 O 1070.29 -1.4905 -1.35448 0
M  V30 11510 C 1067.36 -2.7775 -2.075 0
M  V30 11511 C 1066.42 -3.95139 -1.6782 0
M  V30 11512 C 1065.65 -4.51149 -2.85132 0
M  V30 11513 O 1065.87 -4.06056 -4.00593 0
M  V30 11514 O 1064.81 -5.41815 -2.62145 0
M  V30 11515 H 1068.63 -3.01707 -0.347357 0
M  V30 11516 H 1066.22 -1.49028 -0.105427 0
M  V30 11517 H 1068.1 -3.15243 -2.79643 0
M  V30 11518 H 1066.77 -1.97998 -2.56083 0
M  V30 11519 H 1065.68 -3.62412 -0.927807 0
M  V30 11520 H 1067.01 -4.7633 -1.23977 0
M  V30 11521 N 1068.67 0.153526 -1.5685 0
M  V30 11522 C 1069.94 0.895545 -1.73895 0
M  V30 11523 C 1070.32 1.99625 -0.686504 0
M  V30 11524 O 1069.67 2.26579 0.2957 0
M  V30 11525 C 1069.88 1.44399 -3.17726 0
M  V30 11526 C 1071.23 1.90996 -3.79217 0
M  V30 11527 O 1072.25 1.54155 -3.21115 0
M  V30 11528 O 1071.11 2.58917 -4.81274 0
M  V30 11529 H 1068.21 0.422755 -0.710779 0
M  V30 11530 H 1070.75 0.139961 -1.69122 0
M  V30 11531 H 1069.52 0.652635 -3.85819 0
M  V30 11532 H 1069.15 2.26326 -3.26898 0
M  V30 11533 N 1070.14 1.51827 0.422667 0
M  V30 11534 C 1071.56 1.57533 1.00201 0
M  V30 11535 C 1071.91 0.407623 1.91919 0
M  V30 11536 O 1071.03 -0.473763 2.1115 0
M  V30 11537 C 1071.63 2.85508 1.82403 0
M  V30 11538 C 1070.19 2.93737 2.35362 0
M  V30 11539 C 1069.33 2.52343 1.14971 0
M  V30 11540 H 1072.28 1.57391 0.20339 0
M  V30 11541 H 1072.3 2.70097 2.68007 0
M  V30 11542 H 1071.82 3.70477 1.15623 0
M  V30 11543 H 1069.92 2.13231 3.05554 0
M  V30 11544 H 1070.03 3.977 2.67155 0
M  V30 11545 H 1068.39 2.05878 1.49955 0
M  V30 11546 H 1069.18 3.39672 0.497786 0
M  V30 11547 N 1071.62 -0.679052 1.4222 0
M  V30 11548 C 1072.85 -1.47248 1.46058 0
M  V30 11549 C 1073.27 -1.87962 0.0720987 0
M  V30 11550 O 1072.63 -1.5572 -0.928488 0
M  V30 11551 C 1072.68 -2.70067 2.38948 0
M  V30 11552 O 1071.78 -3.68178 1.85791 0
M  V30 11553 H 1071.12 -0.442533 0.495036 0
M  V30 11554 H 1073.65 -0.833263 1.86863 0
M  V30 11555 H 1073.66 -3.18187 2.55385 0
M  V30 11556 H 1072.34 -2.39773 3.39826 0
M  V30 11557 H 1070.92 -3.2719 1.78889 0
M  V30 11558 N 1073.1 -1.28322 -0.914942 0
M  V30 11559 C 1074.35 -1.15179 -1.66067 0
M  V30 11560 C 1074.67 0.300279 -1.92674 0
M  V30 11561 O 1073.94 1.20821 -1.54205 0
M  V30 11562 H 1072.52 -0.423264 -0.615513 0
M  V30 11563 H 1075.18 -1.61034 -1.09791 0
M  V30 11564 H 1074.28 -1.69048 -2.62353 0
M  V30 11565 N 1074.58 1.12322 -1.10551 0
M  V30 11566 C 1075.54 2.16273 -0.758844 0
M  V30 11567 C 1076.54 1.59325 0.217294 0
M  V30 11568 O 1077.73 1.74199 -0.00601346 0
M  V30 11569 C 1074.86 3.40674 -0.124238 0
M  V30 11570 H 1076.06 2.48454 -1.6796 0
M  V30 11571 H 1073.61 1.2735 -0.906188 0
M  V30 11572 H 1074.34 3.14094 0.807194 0
M  V30 11573 H 1074.13 3.83284 -0.826772 0
M  V30 11574 H 1075.62 4.17474 0.102502 0
M  V30 11575 N 1076.06 0.894434 1.2976 0
M  V30 11576 C 1077.3 0.516646 1.95385 0
M  V30 11577 C 1077.63 -0.939141 1.70895 0
M  V30 11578 O 1076.9 -1.66153 1.03778 0
M  V30 11579 H 1075.48 0.188072 0.722937 0
M  V30 11580 H 1078.14 1.13958 1.58113 0
M  V30 11581 H 1077.23 0.694819 3.04267 0
M  V30 11582 N 1077.53 -1.43282 0.656365 0
M  V30 11583 C 1078.78 -2.02075 0.171293 0
M  V30 11584 C 1079.11 -1.51682 -1.21269 0
M  V30 11585 O 1078.39 -0.711243 -1.81029 0
M  V30 11586 C 1078.67 -3.59621 0.185602 0
M  V30 11587 C 1078.52 -4.20239 1.60373 0
M  V30 11588 C 1079.84 -4.37515 -0.476289 0
M  V30 11589 H 1076.96 -0.73424 0.0637185 0
M  V30 11590 H 1079.6 -1.70539 0.837648 0
M  V30 11591 H 1077.75 -3.86619 -0.381804 0
M  V30 11592 H 1079.43 -4.0426 2.22197 0
M  V30 11593 H 1077.67 -3.76769 2.15006 0
M  V30 11594 H 1078.34 -5.29333 1.56557 0
M  V30 11595 H 1080.82 -4.16099 0.00651073 0
M  V30 11596 H 1079.69 -5.47169 -0.435562 0
M  V30 11597 H 1079.95 -4.14003 -1.55093 0
M  V30 11598 N 1079.01 -0.398486 -1.52479 0
M  V30 11599 C 1080.42 0.0735015 -1.86555 0
M  V30 11600 C 1080.78 1.45361 -1.31775 0
M  V30 11601 O 1079.9 2.0632 -0.652759 0
M  V30 11602 C 1080.5 0.140152 -3.3851 0
M  V30 11603 C 1079.05 0.556451 -3.72264 0
M  V30 11604 C 1078.2 -0.275792 -2.75925 0
M  V30 11605 H 1081.15 -0.615991 -1.46257 0
M  V30 11606 H 1081.17 0.957507 -3.68255 0
M  V30 11607 H 1080.69 -0.864442 -3.7835 0
M  V30 11608 H 1078.79 1.56808 -3.37997 0
M  V30 11609 H 1078.9 0.308227 -4.78107 0
M  V30 11610 H 1077.26 0.260304 -2.53366 0
M  V30 11611 H 1078.05 -1.27854 -3.18604 0
M  V30 11612 N 1080.49 1.57075 -0.12858 0
M  V30 11613 C 1081.91 1.57964 0.227961 0
M  V30 11614 C 1082.11 1.14186 1.66023 0
M  V30 11615 O 1081.16 0.833655 2.38341 0
M  V30 11616 C 1082.48 3.00697 -0.0140648 0
M  V30 11617 C 1084.02 3.12958 0.0510876 0
M  V30 11618 C 1084.5 4.57709 -0.163368 0
M  V30 11619 N 1085.99 4.6307 -0.109663 0
M  V30 11620 C 1086.73 5.72853 -0.250366 0
M  V30 11621 N 1086.22 6.91351 -0.447772 0
M  V30 11622 N 1088.01 5.61781 -0.189265 0
M  V30 11623 H 1080.17 1.83829 -1.06398 0
M  V30 11624 H 1082.43 0.850014 -0.419739 0
M  V30 11625 H 1082.13 3.37047 -1.00461 0
M  V30 11626 H 1082.01 3.70389 0.713571 0
M  V30 11627 H 1084.4 2.7646 1.03216 0
M  V30 11628 H 1084.48 2.4579 -0.708583 0
M  V30 11629 H 1084.12 4.94907 -1.14146 0
M  V30 11630 H 1084.05 5.2298 0.616405 0
M  V30 11631 H 1086.54 3.7788 0.0390086 0
M  V30 11632 H 1086.85 7.70871 -0.54574 0
M  V30 11633 H 1085.2 6.93314 -0.483866 0
M  V30 11634 H 1088.39 4.68086 -0.0359374 0
M  V30 11635 H 1088.56 6.47294 -0.302359 0
M  V30 11636 N 1081.97 -0.145205 1.5693 0
M  V30 11637 C 1083.2 -0.872398 1.87608 0
M  V30 11638 C 1083.61 -1.74657 0.716975 0
M  V30 11639 O 1082.97 -1.79792 -0.3132 0
M  V30 11640 C 1083.02 -1.72762 3.17546 0
M  V30 11641 O 1082.74 -0.888681 4.28992 0
M  V30 11642 C 1084.24 -2.56224 3.61751 0
M  V30 11643 H 1081.46 -0.252166 0.621815 0
M  V30 11644 H 1084.01 -0.137456 2.04038 0
M  V30 11645 H 1082.16 -2.41561 3.02865 0
M  V30 11646 H 1082.58 -1.47601 5.03303 0
M  V30 11647 H 1084.05 -3.11804 4.55502 0
M  V30 11648 H 1084.53 -3.32347 2.87127 0
M  V30 11649 H 1085.13 -1.92714 3.79133 0
M  V30 11650 N 1083.45 -1.52049 -0.414609 0
M  V30 11651 C 1084.38 -1.77956 -1.51175 0
M  V30 11652 C 1085.36 -0.630282 -1.57992 0
M  V30 11653 O 1086.54 -0.875324 -1.73354 0
M  V30 11654 C 1083.67 -1.92527 -2.89051 0
M  V30 11655 C 1082.63 -3.08096 -2.97087 0
M  V30 11656 C 1081.95 -3.07882 -4.37164 0
M  V30 11657 C 1083.25 -4.47656 -2.69075 0
M  V30 11658 H 1084.95 -2.69827 -1.29746 0
M  V30 11659 H 1082.49 -1.29839 -0.62273 0
M  V30 11660 H 1084.45 -2.09234 -3.65786 0
M  V30 11661 H 1083.17 -0.973235 -3.11762 0
M  V30 11662 H 1081.83 -2.91131 -2.22797 0
M  V30 11663 H 1081.48 -2.10411 -4.56877 0
M  V30 11664 H 1081.18 -3.85501 -4.43467 0
M  V30 11665 H 1082.7 -3.26712 -5.15841 0
M  V30 11666 H 1084.12 -4.64855 -3.35534 0
M  V30 11667 H 1082.51 -5.27151 -2.8676 0
M  V30 11668 H 1083.58 -4.56129 -1.64544 0
M  V30 11669 N 1084.93 0.6715 -1.42579 0
M  V30 11670 C 1085.84 1.81435 -1.48723 0
M  V30 11671 C 1086.85 1.69895 -0.375716 0
M  V30 11672 O 1088.03 1.91388 -0.627115 0
M  V30 11673 C 1085.09 3.17599 -1.39038 0
M  V30 11674 C 1084.15 3.41071 -2.60709 0
M  V30 11675 C 1083.39 4.7074 -2.51476 0
M  V30 11676 O 1083.61 5.48868 -1.55243 0
M  V30 11677 O 1082.54 4.95528 -3.41666 0
M  V30 11678 H 1086.37 1.79206 -2.45191 0
M  V30 11679 H 1083.95 0.827666 -1.24379 0
M  V30 11680 H 1085.84 3.98847 -1.3601 0
M  V30 11681 H 1084.51 3.20458 -0.456966 0
M  V30 11682 H 1083.42 2.59659 -2.69311 0
M  V30 11683 H 1084.75 3.43045 -3.5296 0
M  V30 11684 N 1086.4 1.28806 0.908124 0
M  V30 11685 C 1087.35 1.13083 2.03261 0
M  V30 11686 C 1088.35 0.0486094 1.6933 0
M  V30 11687 O 1089.55 0.207794 1.78797 0
M  V30 11688 H 1085.93 0.349057 0.666081 0
M  V30 11689 H 1087.9 2.08304 2.13663 0
M  V30 11690 C 1086.65 0.815339 3.38005 0
M  V30 11691 H 1085.97 1.64007 3.64612 0
M  V30 11692 H 1087.41 0.745311 4.17398 0
M  V30 11693 C 1085.87 -0.48113 3.33447 0
M  V30 11694 O 1086.4 -1.50974 3.7225 0
M  V30 11695 N 1084.6 -0.483912 2.86543 0
M  V30 11696 H 1084.15 0.353593 2.55162 0
M  V30 11697 H 1084.11 -1.35138 2.83875 0
M  V30 11698 N 1087.88 -1.11734 1.11145 0
M  V30 11699 C 1089.29 -1.64928 0.874959 0
M  V30 11700 C 1089.64 -1.87012 -0.593375 0
M  V30 11701 O 1088.77 -1.60206 -1.45475 0
M  V30 11702 C 1089.36 -2.99608 1.58178 0
M  V30 11703 C 1087.92 -3.49723 1.39179 0
M  V30 11704 C 1087.07 -2.24595 1.62642 0
M  V30 11705 H 1090.02 -0.954154 1.26813 0
M  V30 11706 H 1090.04 -3.66434 1.02501 0
M  V30 11707 H 1089.55 -2.83504 2.65042 0
M  V30 11708 H 1087.65 -3.70998 0.345111 0
M  V30 11709 H 1087.77 -4.28711 2.13878 0
M  V30 11710 H 1086.13 -2.32067 1.04961 0
M  V30 11711 H 1086.91 -2.11036 2.70774 0
M  V30 11712 N 1089.36 -0.901303 -1.29284 0
M  V30 11713 C 1090.61 -0.528826 -1.95784 0
M  V30 11714 C 1090.94 0.922833 -1.70873 0
M  V30 11715 O 1090.21 1.65448 -1.0226 0
M  V30 11716 C 1090.5 -0.823793 -3.50551 0
M  V30 11717 C 1090.35 -2.32727 -3.84913 0
M  V30 11718 C 1091.67 -0.311382 -4.38997 0
M  V30 11719 H 1088.79 -0.193604 -0.711116 0
M  V30 11720 H 1091.43 -1.12828 -1.52872 0
M  V30 11721 H 1089.58 -0.313612 -3.87232 0
M  V30 11722 H 1091.25 -2.90712 -3.58168 0
M  V30 11723 H 1089.49 -2.78735 -3.32399 0
M  V30 11724 H 1090.17 -2.48423 -4.9294 0
M  V30 11725 H 1092.64 -0.748265 -4.09317 0
M  V30 11726 H 1091.52 -0.546957 -5.46168 0
M  V30 11727 H 1091.78 0.787959 -4.35021 0
M  V30 11728 N 1090.84 1.42931 -0.663954 0
M  V30 11729 C 1091.77 2.33499 0.00731327 0
M  V30 11730 C 1092.75 1.50074 0.800733 0
M  V30 11731 O 1093.93 1.78708 0.760062 0
M  V30 11732 C 1091.06 3.33569 0.966897 0
M  V30 11733 C 1090.02 4.27064 0.282839 0
M  V30 11734 C 1089.34 5.17257 1.35461 0
M  V30 11735 C 1090.64 5.1564 -0.831438 0
M  V30 11736 H 1092.34 2.89879 -0.749044 0
M  V30 11737 H 1089.88 1.39385 -0.361656 0
M  V30 11738 H 1091.84 3.95833 1.44549 0
M  V30 11739 H 1090.56 2.75469 1.75455 0
M  V30 11740 H 1089.22 3.6618 -0.175417 0
M  V30 11741 H 1088.87 4.5549 2.13397 0
M  V30 11742 H 1088.57 5.80634 0.902098 0
M  V30 11743 H 1090.09 5.82395 1.83436 0
M  V30 11744 H 1091.51 5.71651 -0.434534 0
M  V30 11745 H 1089.9 5.87794 -1.20908 0
M  V30 11746 H 1090.97 4.54687 -1.68487 0
M  V30 11747 N 1092.32 0.406567 1.52266 0
M  V30 11748 C 1093.28 -0.408251 2.25535 0
M  V30 11749 C 1094.28 -0.975795 1.27808 0
M  V30 11750 O 1095.47 -0.855077 1.5177 0
M  V30 11751 C 1092.6 -1.57443 3.02365 0
M  V30 11752 H 1093.79 0.233459 2.9899 0
M  V30 11753 H 1091.35 0.159032 1.55489 0
M  V30 11754 H 1092.08 -2.25308 2.33252 0
M  V30 11755 H 1091.87 -1.17399 3.74112 0
M  V30 11756 H 1093.36 -2.15088 3.57948 0
M  V30 11757 N 1093.79 -1.57004 0.136909 0
M  V30 11758 C 1095.02 -2.00587 -0.527209 0
M  V30 11759 C 1095.44 -1.01628 -1.58283 0
M  V30 11760 O 1094.8 0.00946934 -1.81298 0
M  V30 11761 C 1094.85 -3.42967 -1.11384 0
M  V30 11762 O 1093.95 -3.46973 -2.22898 0
M  V30 11763 H 1093.3 -0.651155 -0.129976 0
M  V30 11764 H 1095.83 -2.03296 0.230667 0
M  V30 11765 H 1095.84 -3.81555 -1.44499 0
M  V30 11766 H 1094.51 -4.14502 -0.340736 0
M  V30 11767 H 1093.09 -3.20219 -1.91087 0
M  V30 11768 N 1095.27 0.136881 -1.57004 0
M  V30 11769 C 1096.68 0.695911 -1.73245 0
M  V30 11770 C 1097.03 1.8118 -0.75288 0
M  V30 11771 O 1096.16 2.16258 0.0782477 0
M  V30 11772 C 1096.75 1.26914 -3.14131 0
M  V30 11773 C 1095.31 1.77463 -3.31939 0
M  V30 11774 C 1094.46 0.667128 -2.69156 0
M  V30 11775 H 1097.41 -0.0888841 -1.58451 0
M  V30 11776 H 1097.43 2.13892 -3.14691 0
M  V30 11777 H 1096.94 0.456754 -3.85403 0
M  V30 11778 H 1095.05 2.61236 -2.65681 0
M  V30 11779 H 1095.16 1.89638 -4.39971 0
M  V30 11780 H 1093.52 1.09629 -2.29899 0
M  V30 11781 H 1094.31 -0.13398 -3.43038 0
M  V30 11782 N 1096.75 1.52266 0.40654 0
M  V30 11783 C 1098.16 1.58587 0.985241 0
M  V30 11784 C 1098.51 0.427955 1.91476 0
M  V30 11785 O 1097.64 -0.451341 2.11641 0
M  V30 11786 C 1098.23 2.87426 1.79365 0
M  V30 11787 C 1096.79 2.96217 2.32233 0
M  V30 11788 C 1095.94 2.53548 1.12288 0
M  V30 11789 H 1098.89 1.57598 0.186685 0
M  V30 11790 H 1098.91 2.72925 2.65127 0
M  V30 11791 H 1098.42 3.71682 1.11687 0
M  V30 11792 H 1096.52 2.1646 3.03275 0
M  V30 11793 H 1096.64 4.00511 2.62922 0
M  V30 11794 H 1095 2.07457 1.47763 0
M  V30 11795 H 1095.78 3.40181 0.461731 0
M  V30 11796 N 1098.23 -0.663929 1.42933 0
M  V30 11797 C 1099.18 -1.77717 1.47259 0
M  V30 11798 C 1100.15 -1.62922 0.323387 0
M  V30 11799 O 1101.33 -1.83319 0.529021 0
M  V30 11800 C 1098.47 -3.15814 1.39124 0
M  V30 11801 C 1097.58 -3.4182 2.64165 0
M  V30 11802 C 1096.72 -4.69705 2.48094 0
M  V30 11803 C 1095.76 -4.88781 3.68456 0
M  V30 11804 N 1094.89 -6.07915 3.51261 0
M  V30 11805 H 1099.73 -1.73355 2.42388 0
M  V30 11806 H 1097.27 -0.846121 1.2033 0
M  V30 11807 H 1099.23 -3.95633 1.32403 0
M  V30 11808 H 1097.86 -3.19274 0.475829 0
M  V30 11809 H 1096.91 -2.56176 2.81208 0
M  V30 11810 H 1098.22 -3.51805 3.53602 0
M  V30 11811 H 1097.38 -5.57632 2.39021 0
M  V30 11812 H 1096.12 -4.62022 1.56164 0
M  V30 11813 H 1095.12 -3.99292 3.7795 0
M  V30 11814 H 1096.35 -4.98301 4.61381 0
M  V30 11815 H 1094.29 -6.01384 2.62057 0
M  V30 11816 H 1094.21 -6.1881 4.34293 0
M  V30 11817 H 1095.48 -6.98492 3.4602 0
M  V30 11818 N 1099.71 -1.29285 -0.901281 0
M  V30 11819 C 1100.62 -1.16161 -2.03823 0
M  V30 11820 C 1101.63 -0.0852298 -1.73791 0
M  V30 11821 O 1102.81 -0.29699 -1.99198 0
M  V30 11822 C 1099.87 -0.837586 -3.3643 0
M  V30 11823 C 1098.93 -1.99764 -3.7999 0
M  V30 11824 C 1098.17 -1.68898 -5.0627 0
M  V30 11825 O 1098.39 -0.609177 -5.67138 0
M  V30 11826 O 1097.32 -2.53648 -5.45845 0
M  V30 11827 H 1101.15 -2.11635 -2.17817 0
M  V30 11828 H 1098.74 -1.08722 -1.02468 0
M  V30 11829 H 1100.62 -0.671376 -4.16017 0
M  V30 11830 H 1099.29 0.0873811 -3.23582 0
M  V30 11831 H 1098.2 -2.21908 -3.01177 0
M  V30 11832 H 1099.53 -2.90376 -3.9742 0
M  V30 11833 N 1101.18 1.11143 -1.11736 0
M  V30 11834 C 1102.46 1.79384 -0.779785 0
M  V30 11835 C 1102.84 1.98015 0.731668 0
M  V30 11836 O 1102.19 1.56731 1.66276 0
M  V30 11837 C 1102.4 3.12868 -1.54643 0
M  V30 11838 C 1103.75 3.8786 -1.7277 0
M  V30 11839 O 1104.77 3.22566 -1.51094 0
M  V30 11840 O 1103.63 5.05034 -2.08813 0
M  V30 11841 H 1100.72 0.777128 -0.282845 0
M  V30 11842 H 1103.27 1.17858 -1.22096 0
M  V30 11843 H 1102.04 2.94682 -2.57446 0
M  V30 11844 H 1101.67 3.82109 -1.09901 0
M  V30 11845 N 1102.66 0.908147 1.28804 0
M  V30 11846 C 1103.57 0.397167 2.31214 0
M  V30 11847 C 1104.59 -0.512352 1.66286 0
M  V30 11848 O 1105.76 -0.399893 1.9739 0
M  V30 11849 C 1102.83 -0.359522 3.44831 0
M  V30 11850 C 1101.89 0.582539 4.25329 0
M  V30 11851 C 1101.12 -0.138133 5.33521 0
M  V30 11852 O 1101.35 -1.36076 5.53931 0
M  V30 11853 O 1100.28 0.523682 5.99618 0
M  V30 11854 H 1104.11 1.247 2.76918 0
M  V30 11855 H 1101.69 0.672766 1.33395 0
M  V30 11856 H 1103.57 -0.787098 4.13984 0
M  V30 11857 H 1102.25 -1.18528 3.01219 0
M  V30 11858 H 1101.16 1.0594 3.58786 0
M  V30 11859 H 1102.49 1.37495 4.72605 0
M  V30 11860 N 1104.14 -1.42577 0.671525 0
M  V30 11861 C 1105.42 -1.95222 0.121529 0
M  V30 11862 C 1105.8 -1.61209 -1.36289 0
M  V30 11863 O 1105.15 -0.906561 -2.09747 0
M  V30 11864 C 1105.36 -3.46846 0.387189 0
M  V30 11865 C 1106.7 -4.23525 0.301938 0
M  V30 11866 O 1107.73 -3.54753 0.320755 0
M  V30 11867 O 1106.59 -5.45967 0.241317 0
M  V30 11868 H 1103.68 -0.826999 0.000968615 0
M  V30 11869 H 1106.23 -1.52422 0.746029 0
M  V30 11870 H 1105 -3.64795 1.41563 0
M  V30 11871 H 1104.62 -3.96686 -0.26948 0
M  V30 11872 N 1105.62 -0.414636 -1.52048 0
M  V30 11873 C 1106.87 0.159034 -2.01473 0
M  V30 11874 C 1107.19 1.45176 -1.30188 0
M  V30 11875 O 1106.46 1.91134 -0.429469 0
M  V30 11876 H 1105.04 0.0617604 -0.744443 0
M  V30 11877 H 1107.7 -0.552141 -1.86916 0
M  V30 11878 H 1106.8 0.351217 -3.10118 0
M  V30 11879 N 1107.1 1.56929 -0.145233 0
M  V30 11880 C 1108.06 2.15483 0.781002 0
M  V30 11881 C 1109.06 1.09617 1.17647 0
M  V30 11882 O 1110.25 1.35265 1.09768 0
M  V30 11883 C 1107.38 2.7165 2.05959 0
M  V30 11884 H 1108.57 2.98667 0.271685 0
M  V30 11885 H 1106.13 1.55952 0.1042 0
M  V30 11886 H 1106.86 1.92127 2.61262 0
M  V30 11887 H 1106.65 3.491 1.78526 0
M  V30 11888 H 1108.14 3.16769 2.72116 0
M  V30 11889 N 1108.58 -0.128553 1.57075 0
M  V30 11890 C 1109.8 -0.8564 1.88893 0
M  V30 11891 C 1110.23 -1.73095 0.736196 0
M  V30 11892 O 1109.58 -1.78567 -0.313629 0
M  V30 11893 C 1109.63 -1.67368 3.19406 0
M  V30 11894 O 1108.74 -2.77973 3.04639 0
M  V30 11895 H 1108.08 -0.237424 0.620102 0
M  V30 11896 H 1110.61 -0.113821 2.04283 0
M  V30 11897 H 1110.62 -2.0649 3.51889 0
M  V30 11898 H 1109.29 -1.03161 4.02903 0
M  V30 11899 H 1107.87 -2.42123 2.83603 0
M  V30 11900 N 1110.05 -1.5248 -0.398459 0
M  V30 11901 C 1110.96 -1.79492 -1.51062 0
M  V30 11902 C 1111.98 -0.681101 -1.60116 0
M  V30 11903 O 1113.16 -0.967671 -1.7663 0
M  V30 11904 C 1110.22 -1.94958 -2.86692 0
M  V30 11905 C 1109.28 -3.1887 -2.87438 0
M  V30 11906 C 1108.51 -3.33588 -4.16599 0
M  V30 11907 O 1108.74 -2.53327 -5.11059 0
M  V30 11908 O 1107.67 -4.26795 -4.24416 0
M  V30 11909 H 1111.5 -2.73913 -1.31169 0
M  V30 11910 H 1109.08 -1.37455 -0.585372 0
M  V30 11911 H 1110.96 -2.06891 -3.67116 0
M  V30 11912 H 1109.64 -1.03726 -3.06631 0
M  V30 11913 H 1108.55 -3.12386 -2.0583 0
M  V30 11914 H 1109.88 -4.09917 -2.7245 0
M  V30 11915 N 1111.53 0.65634 -1.43283 0
M  V30 11916 C 1112.44 1.79847 -1.50639 0
M  V30 11917 C 1113.46 1.69487 -0.393714 0
M  V30 11918 O 1114.63 1.90712 -0.647379 0
M  V30 11919 C 1111.7 3.16107 -1.42398 0
M  V30 11920 C 1110.76 3.38287 -2.64312 0
M  V30 11921 C 1109.99 4.68046 -2.56454 0
M  V30 11922 O 1110.22 5.4719 -1.61056 0
M  V30 11923 O 1109.15 4.91877 -3.46902 0
M  V30 11924 H 1112.98 1.76596 -2.47078 0
M  V30 11925 H 1110.56 0.814428 -1.25249 0
M  V30 11926 H 1112.44 3.97382 -1.40233 0
M  V30 11927 H 1111.12 3.19956 -0.490929 0
M  V30 11928 H 1110.02 2.56788 -2.72049 0
M  V30 11929 H 1111.36 3.39282 -3.56579 0
M  V30 11930 N 1113.01 1.29761 0.894412 0
M  V30 11931 C 1113.96 1.15232 2.0205 0
M  V30 11932 C 1114.95 0.0665664 1.69269 0
M  V30 11933 O 1116.16 0.226746 1.78566 0
M  V30 11934 H 1112.53 0.356102 0.662341 0
M  V30 11935 H 1114.5 2.10559 2.11442 0
M  V30 11936 C 1113.25 0.851143 3.37121 0
M  V30 11937 H 1112.58 1.67865 3.62852 0
M  V30 11938 H 1114.02 0.78954 4.16584 0
M  V30 11939 C 1112.47 -0.445737 3.33938 0
M  V30 11940 O 1113 -1.47017 3.7383 0
M  V30 11941 N 1111.21 -0.453493 2.8704 0
M  V30 11942 H 1110.76 0.380636 2.54772 0
M  V30 11943 H 1110.72 -1.32119 2.85293 0
M  V30 11944 N 1114.49 -1.10549 1.12324 0
M  V30 11945 C 1115.72 -1.86 0.899312 0
M  V30 11946 C 1116.13 -1.80881 -0.554854 0
M  V30 11947 O 1115.47 -1.19485 -1.39531 0
M  V30 11948 C 1115.53 -3.35384 1.29452 0
M  V30 11949 C 1115.19 -3.64263 2.75974 0
M  V30 11950 C 1116.19 -3.60962 3.74169 0
M  V30 11951 C 1113.88 -3.92976 3.1285 0
M  V30 11952 C 1115.87 -3.85966 5.07256 0
M  V30 11953 C 1113.56 -4.17637 4.4612 0
M  V30 11954 C 1114.56 -4.14122 5.43132 0
M  V30 11955 O 1114.24 -4.38156 6.73999 0
M  V30 11956 H 1113.98 -0.594743 0.321337 0
M  V30 11957 H 1116.53 -1.40674 1.49667 0
M  V30 11958 H 1114.76 -3.81361 0.640358 0
M  V30 11959 H 1116.45 -3.9222 1.04491 0
M  V30 11960 H 1117.21 -3.38819 3.47025 0
M  V30 11961 H 1113.09 -3.94843 2.3795 0
M  V30 11962 H 1116.64 -3.83138 5.82967 0
M  V30 11963 H 1112.53 -4.39258 4.72993 0
M  V30 11964 H 1113.3 -4.55677 6.79927 0
M  V30 11965 N 1115.97 -0.914965 -1.28321 0
M  V30 11966 C 1117.21 -0.549562 -1.95212 0
M  V30 11967 C 1117.54 0.904658 -1.71842 0
M  V30 11968 O 1116.82 1.64354 -1.04009 0
M  V30 11969 C 1117.1 -0.860927 -3.49657 0
M  V30 11970 C 1116.96 -2.36797 -3.82423 0
M  V30 11971 C 1118.27 -0.357926 -4.38642 0
M  V30 11972 H 1115.39 -0.201136 -0.709023 0
M  V30 11973 H 1118.04 -1.14443 -1.51667 0
M  V30 11974 H 1116.19 -0.354665 -3.86878 0
M  V30 11975 H 1117.86 -2.94494 -3.55065 0
M  V30 11976 H 1116.1 -2.82245 -3.29424 0
M  V30 11977 H 1116.77 -2.53637 -4.90278 0
M  V30 11978 H 1119.25 -0.791636 -4.085 0
M  V30 11979 H 1118.12 -0.604855 -5.45557 0
M  V30 11980 H 1118.38 0.741775 -4.35833 0
M  V30 11981 N 1117.44 1.42219 -0.679077 0
M  V30 11982 C 1118.85 1.8459 -0.279877 0
M  V30 11983 C 1119.21 1.56839 1.17881 0
M  V30 11984 O 1118.33 1.03039 1.90294 0
M  V30 11985 C 1118.93 3.35072 -0.501185 0
M  V30 11986 C 1117.48 3.76076 -0.156065 0
M  V30 11987 C 1116.63 2.65763 -0.791549 0
M  V30 11988 H 1119.58 1.32005 -0.880932 0
M  V30 11989 H 1119.6 3.79708 0.245349 0
M  V30 11990 H 1119.12 3.55239 -1.56291 0
M  V30 11991 H 1117.22 3.61516 0.90205 0
M  V30 11992 H 1117.33 4.75334 -0.599572 0
M  V30 11993 H 1115.69 2.53726 -0.222514 0
M  V30 11994 H 1116.48 2.88751 -1.85682 0
M  V30 11995 N 1118.92 0.422693 1.51826 0
M  V30 11996 C 1120.17 -0.148861 2.02253 0
M  V30 11997 C 1120.5 -1.43629 1.30707 0
M  V30 11998 O 1119.78 -1.89967 0.417482 0
M  V30 11999 C 1120.06 -0.382672 3.58061 0
M  V30 12000 C 1119.91 0.922386 4.40241 0
M  V30 12001 C 1121.23 -1.1589 4.24567 0
M  V30 12002 H 1118.35 -0.0526279 0.735119 0
M  V30 12003 H 1120.99 0.558821 1.81596 0
M  V30 12004 H 1119.14 -0.985495 3.75793 0
M  V30 12005 H 1120.81 1.55806 4.34191 0
M  V30 12006 H 1119.06 1.53032 4.05911 0
M  V30 12007 H 1119.73 0.713012 5.47376 0
M  V30 12008 H 1122.2 -0.648415 4.11017 0
M  V30 12009 H 1121.08 -1.29125 5.33496 0
M  V30 12010 H 1121.34 -2.18315 3.84436 0
M  V30 12011 N 1120.4 -1.5685 0.153553 0
M  V30 12012 C 1121.33 -2.14231 -0.814729 0
M  V30 12013 C 1122.34 -1.09339 -1.20619 0
M  V30 12014 O 1123.53 -1.36592 -1.14913 0
M  V30 12015 C 1120.63 -2.6555 -2.10562 0
M  V30 12016 C 1119.81 -3.94912 -1.8805 0
M  V30 12017 C 1118.87 -4.31476 -3.0119 0
M  V30 12018 O 1117.89 -4.9968 -2.72596 0
M  V30 12019 N 1119.09 -3.91588 -4.28531 0
M  V30 12020 H 1121.86 -2.9794 -0.324277 0
M  V30 12021 H 1119.42 -1.61873 -0.0298087 0
M  V30 12022 H 1121.41 -2.87019 -2.85311 0
M  V30 12023 H 1119.98 -1.86529 -2.5085 0
M  V30 12024 H 1119.2 -3.82002 -0.973024 0
M  V30 12025 H 1120.49 -4.79433 -1.70356 0
M  V30 12026 H 1119.89 -3.36645 -4.54628 0
M  V30 12027 H 1118.44 -4.18095 -5.00039 0
M  V30 12028 N 1121.88 0.120221 -1.57141 0
M  V30 12029 C 1122.81 1.14876 -2.03287 0
M  V30 12030 C 1123.79 1.43259 -0.917112 0
M  V30 12031 O 1124.97 1.53721 -1.18674 0
M  V30 12032 C 1122.1 2.47525 -2.43616 0
M  V30 12033 C 1121.06 2.33607 -3.58625 0
M  V30 12034 C 1120.38 3.71207 -3.84849 0
M  V30 12035 C 1121.68 1.79761 -4.90391 0
M  V30 12036 H 1123.38 0.764943 -2.89463 0
M  V30 12037 H 1120.92 0.366516 -1.39258 0
M  V30 12038 H 1122.88 3.19728 -2.74504 0
M  V30 12039 H 1121.6 2.87794 -1.54409 0
M  V30 12040 H 1120.26 1.63853 -3.27945 0
M  V30 12041 H 1119.91 4.0896 -2.9285 0
M  V30 12042 H 1119.61 3.62749 -4.62263 0
M  V30 12043 H 1121.13 4.44917 -4.18188 0
M  V30 12044 H 1122.55 2.4178 -5.19822 0
M  V30 12045 H 1120.94 1.82126 -5.71795 0
M  V30 12046 H 1122.01 0.755087 -4.78985 0
M  V30 12047 N 1123.36 1.52689 0.390367 0
M  V30 12048 C 1124.29 1.80338 1.48325 0
M  V30 12049 C 1125.27 0.655338 1.56969 0
M  V30 12050 O 1126.45 0.902792 1.7194 0
M  V30 12051 C 1123.58 1.97101 2.85952 0
M  V30 12052 C 1122.54 3.12783 2.92148 0
M  V30 12053 C 1121.86 3.14798 4.32211 0
M  V30 12054 C 1123.16 4.5188 2.61919 0
M  V30 12055 H 1124.86 2.71857 1.25437 0
M  V30 12056 H 1122.4 1.30813 0.601995 0
M  V30 12057 H 1124.36 2.15027 3.62411 0
M  V30 12058 H 1123.08 1.02271 3.10174 0
M  V30 12059 H 1121.74 2.94638 2.18137 0
M  V30 12060 H 1121.39 2.17653 4.53471 0
M  V30 12061 H 1121.09 3.92507 4.37278 0
M  V30 12062 H 1122.61 3.34877 5.10578 0
M  V30 12063 H 1124.02 4.70134 3.28096 0
M  V30 12064 H 1122.42 5.31647 2.78337 0
M  V30 12065 H 1123.49 4.58689 1.57266 0
M  V30 12066 N 1124.83 -0.648732 1.43629 0
M  V30 12067 C 1125.77 -1.77417 1.45107 0
M  V30 12068 C 1126.78 -1.59067 0.346618 0
M  V30 12069 O 1127.97 -1.67705 0.611322 0
M  V30 12070 C 1125.07 -3.14906 1.25249 0
M  V30 12071 C 1124.24 -3.59874 2.48616 0
M  V30 12072 C 1123.3 -4.76181 2.23916 0
M  V30 12073 O 1122.33 -4.8539 2.97296 0
M  V30 12074 N 1123.53 -5.66691 1.25862 0
M  V30 12075 H 1126.29 -1.76626 2.42123 0
M  V30 12076 H 1123.85 -0.832725 1.38843 0
M  V30 12077 H 1125.85 -3.90408 1.06601 0
M  V30 12078 H 1124.42 -3.10443 0.366623 0
M  V30 12079 H 1123.64 -2.74768 2.82659 0
M  V30 12080 H 1124.92 -3.86665 3.30708 0
M  V30 12081 H 1124.32 -5.61927 0.652227 0
M  V30 12082 H 1122.88 -6.41895 1.13196 0
M  V30 12083 N 1126.31 -1.30234 -0.887518 0
M  V30 12084 C 1127.54 -1.21955 -1.67755 0
M  V30 12085 C 1127.96 0.214701 -1.86871 0
M  V30 12086 O 1127.32 1.15459 -1.39782 0
M  V30 12087 C 1127.37 -1.95079 -3.03276 0
M  V30 12088 O 1126.47 -1.27615 -3.92158 0
M  V30 12089 H 1125.81 -0.421948 -0.512695 0
M  V30 12090 H 1128.34 -1.72011 -1.10785 0
M  V30 12091 H 1128.35 -2.04004 -3.53336 0
M  V30 12092 H 1127.03 -2.99392 -2.88682 0
M  V30 12093 H 1125.61 -1.27029 -3.50597 0
M  V30 12094 N 1127.79 1.09952 -1.12909 0
M  V30 12095 C 1128.74 2.18525 -0.796849 0
M  V30 12096 C 1129.73 1.67985 0.218483 0
M  V30 12097 O 1130.94 1.79839 0.07618 0
M  V30 12098 H 1127.31 0.712714 -0.239882 0
M  V30 12099 H 1129.28 2.43783 -1.72083 0
M  V30 12100 C 1128.03 3.46625 -0.273237 0
M  V30 12101 H 1127.36 3.85879 -1.04582 0
M  V30 12102 H 1128.8 4.23926 -0.0791355 0
M  V30 12103 C 1127.26 3.2172 0.999903 0
M  V30 12104 O 1127.79 3.43851 2.07676 0
M  V30 12105 N 1125.99 2.75356 0.928833 0
M  V30 12106 H 1125.54 2.57547 0.052379 0
M  V30 12107 H 1125.5 2.5907 1.78129 0
M  V30 12108 O 1129.31 1.05328 1.22427 0
M  V30 12109 H 1130 0.730081 1.79414 0
M  V30 END ATOM
M  V30 BEGIN BOND
M  V30 END BOND
M  V30 END CTAB
M  END
$$$$
