drugbank_target|Q14680 Maternal embryonic leucine zipper kinase (DB12010)
 OpenBabel12092121173D

  0  0  0     0  0            999 V3000
M  V30 BEGIN CTAB
M  V30 COUNTS 10545 10657 0 0 0
M  V30 BEGIN ATOM
M  V30 1 H -0.908 1.98254 -0.117106 0
M  V30 2 N 0 1.576 0 0
M  V30 3 C 0.933 2.03868 1.02534 0
M  V30 4 C 1.911 0.928543 1.3348 0
M  V30 5 O 3.095 1.19667 1.45644 0
M  V30 6 C 0.222 2.43627 2.35294 0
M  V30 7 C -0.732 3.65373 2.2001 0
M  V30 8 S 0.101 5.13292 1.52614 0
M  V30 9 C 1.257 5.56322 2.86805 0
M  V30 10 H 1.49 2.90518 0.631377 0
M  V30 11 H -0.977 1.52953 0.210867 0
M  V30 12 H 0.981 2.67203 3.11629 0
M  V30 13 H -0.358 1.57376 2.7183 0
M  V30 14 H -1.165 3.90944 3.18086 0
M  V30 15 H -1.563 3.418 1.51819 0
M  V30 16 H 0.729 5.58782 3.83104 0
M  V30 17 H 1.672 6.56266 2.65933 0
M  V30 18 H 2.08 4.83886 2.90714 0
M  V30 19 N 1.4781 -0.272755 1.55222 0
M  V30 20 C 2.4251 -1.33716 1.88119 0
M  V30 21 C 3.3951 -1.49066 0.73271 0
M  V30 22 O 4.5801 -1.63469 0.984002 0
M  V30 23 C 1.7201 -2.69238 2.15882 0
M  V30 24 C 0.8331 -2.62108 3.43399 0
M  V30 25 C -0.0319 -3.89811 3.60861 0
M  V30 26 C -0.9929 -3.77193 4.8207 0
M  V30 27 N -1.8559 -4.9673 4.96189 0
M  V30 28 H 2.9841 -1.04962 2.78903 0
M  V30 29 H 0.5211 -0.507088 1.38083 0
M  V30 30 H 2.4791 -3.48089 2.29978 0
M  V30 31 H 1.1091 -2.96194 1.28331 0
M  V30 32 H 0.1611 -1.74967 3.37773 0
M  V30 33 H 1.4731 -2.48685 4.32386 0
M  V30 34 H 0.6271 -4.77103 3.74777 0
M  V30 35 H -0.6339 -4.06102 2.7006 0
M  V30 36 H -1.6289 -2.88284 4.68159 0
M  V30 37 H -0.4039 -3.62421 5.74307 0
M  V30 38 H -2.4579 -5.13431 4.08319 0
M  V30 39 H -2.5409 -4.85839 5.79221 0
M  V30 40 H -1.2729 -5.85594 5.1449 0
M  V30 41 N 2.9562 -1.48159 -0.537278 0
M  V30 42 C 4.2332 -1.46291 -1.29839 0
M  V30 43 C 4.6132 -0.170613 -2.10409 0
M  V30 44 O 3.9612 0.847746 -2.12192 0
M  V30 45 C 4.1712 -2.72055 -2.18603 0
M  V30 46 C 5.5192 -3.20087 -2.7898 0
M  V30 47 O 6.5432 -2.72921 -2.28894 0
M  V30 48 O 5.4022 -4.02138 -3.70064 0
M  V30 49 H 2.4962 -0.583906 -0.585647 0
M  V30 50 H 5.0422 -1.60384 -0.554534 0
M  V30 51 H 3.8142 -3.57628 -1.58801 0
M  V30 52 H 3.4372 -2.60646 -3.00249 0
M  V30 53 N 4.4343 0.785586 -1.36625 0
M  V30 54 C 5.6643 1.5722 -1.34036 0
M  V30 55 C 6.0723 1.89033 0.0795062 0
M  V30 56 O 5.4153 1.50881 1.04789 0
M  V30 57 C 5.4773 2.91759 -2.10041 0
M  V30 58 C 5.1413 2.82654 -3.59104 0
M  V30 59 C 6.1383 2.54634 -4.53274 0
M  V30 60 C 3.8233 3.01111 -4.02042 0
M  V30 61 C 5.8173 2.45177 -5.88359 0
M  V30 62 C 3.5043 2.91276 -5.37216 0
M  V30 63 C 4.5023 2.63348 -6.30188 0
M  V30 64 O 4.1903 2.53514 -7.6288 0
M  V30 65 H 3.9223 0.494177 -0.461265 0
M  V30 66 H 6.4763 0.982632 -1.8037 0
M  V30 67 H 4.7063 3.52781 -1.58375 0
M  V30 68 H 6.3953 3.53059 -2.00261 0
M  V30 69 H 7.1613 2.40073 -4.21414 0
M  V30 70 H 3.0403 3.21854 -3.30047 0
M  V30 71 H 6.5843 2.23299 -6.60896 0
M  V30 72 H 2.4813 3.054 -5.68684 0
M  V30 73 H 3.2493 2.68967 -7.73045 0
M  V30 74 N 5.9124 1.20967 1.01018 0
M  V30 75 C 7.1894 0.93264 1.71934 0
M  V30 76 C 7.5694 -0.55692 2.03621 0
M  V30 77 O 6.9174 -1.52035 1.7058 0
M  V30 78 C 7.1274 1.81233 2.98254 0
M  V30 79 C 8.4754 2.05804 3.71389 0
M  V30 80 O 9.4994 1.78539 3.08225 0
M  V30 81 O 8.3584 2.51888 4.84989 0
M  V30 82 H 5.4524 0.349272 0.749625 0
M  V30 83 H 7.9984 1.31871 1.06808 0
M  V30 84 H 6.7704 2.82067 2.71208 0
M  V30 85 H 6.3934 1.42674 3.7112 0
M  V30 86 N 7.3905 -1.2043 1.01659 0
M  V30 87 C 8.3005 -2.2689 0.596484 0
M  V30 88 C 9.3165 -1.70107 -0.36599 0
M  V30 89 O 10.4925 -2.00117 -0.226942 0
M  V30 90 C 7.5575 -3.4665 -0.0586659 0
M  V30 91 C 6.6185 -4.18662 0.949751 0
M  V30 92 C 5.8515 -5.32705 0.32577 0
M  V30 93 O 6.0745 -5.63656 -0.874509 0
M  V30 94 O 5.0085 -5.92803 1.04249 0
M  V30 95 H 8.8345 -2.65041 1.4828 0
M  V30 96 H 6.4195 -1.27048 0.786082 0
M  V30 97 H 8.3015 -4.19256 -0.424564 0
M  V30 98 H 6.9765 -3.10375 -0.91918 0
M  V30 99 H 5.8835 -3.48229 1.36702 0
M  V30 100 H 7.2165 -4.58878 1.78023 0
M  V30 101 N 8.8686 -0.792821 -1.36206 0
M  V30 102 C 9.7986 -0.207853 -2.32573 0
M  V30 103 C 10.7796 0.659055 -1.56813 0
M  V30 104 O 11.9646 0.592176 -1.84951 0
M  V30 105 C 9.0946 0.655449 -3.41059 0
M  V30 106 C 8.0486 -0.111842 -4.27854 0
M  V30 107 C 7.3746 0.872274 -5.27537 0
M  V30 108 C 8.6746 -1.30299 -5.05786 0
M  V30 109 H 10.3686 -1.01294 -2.81744 0
M  V30 110 H 7.9146 -0.48854 -1.3546 0
M  V30 111 H 9.8676 1.07464 -4.07467 0
M  V30 112 H 8.5916 1.49328 -2.90463 0
M  V30 113 H 7.2506 -0.512053 -3.63006 0
M  V30 114 H 6.8986 1.70523 -4.73214 0
M  V30 115 H 6.5986 0.363291 -5.86476 0
M  V30 116 H 8.1226 1.28996 -5.96818 0
M  V30 117 H 9.5366 -0.959379 -5.65216 0
M  V30 118 H 7.9336 -1.7455 -5.74154 0
M  V30 119 H 9.0036 -2.09663 -4.37229 0
M  V30 120 N 10.3467 1.47872 -0.545128 0
M  V30 121 C 11.2767 2.32661 0.197793 0
M  V30 122 C 12.2577 1.43041 0.920504 0
M  V30 123 O 13.4427 1.71912 0.90333 0
M  V30 124 C 10.5727 3.24569 1.23582 0
M  V30 125 C 9.5267 4.23333 0.630323 0
M  V30 126 C 8.8527 5.0448 1.77211 0
M  V30 127 C 10.1527 5.20704 -0.407974 0
M  V30 128 H 11.8467 2.95024 -0.510045 0
M  V30 129 H 9.3927 1.4187 -0.246731 0
M  V30 130 H 11.3457 3.8272 1.76362 0
M  V30 131 H 10.0697 2.60236 1.97344 0
M  V30 132 H 8.7287 3.6639 0.123922 0
M  V30 133 H 8.3767 4.36561 2.49847 0
M  V30 134 H 8.0767 5.71339 1.37281 0
M  V30 135 H 9.6007 5.65487 2.3034 0
M  V30 136 H 11.0147 5.7329 0.033305 0
M  V30 137 H 9.4117 5.95699 -0.725486 0
M  V30 138 H 10.4817 4.66917 -1.30828 0
M  V30 139 N 11.8248 0.280983 1.55075 0
M  V30 140 C 12.7718 -0.603937 2.22758 0
M  V30 141 C 13.7418 -1.1452 1.20309 0
M  V30 142 O 14.9268 -1.19343 1.48869 0
M  V30 143 C 12.0668 -1.77947 2.95684 0
M  V30 144 C 11.1798 -1.2715 4.12864 0
M  V30 145 C 10.3148 -2.4093 4.7342 0
M  V30 146 C 9.3538 -1.87165 5.82783 0
M  V30 147 N 8.4908 -2.94441 6.37377 0
M  V30 148 H 13.3308 -0.020124 2.97993 0
M  V30 149 H 10.8678 0.00183425 1.471 0
M  V30 150 H 12.8258 -2.47055 3.36184 0
M  V30 151 H 11.4558 -2.33522 2.22861 0
M  V30 152 H 10.5078 -0.473331 3.77444 0
M  V30 153 H 11.8198 -0.837751 4.91715 0
M  V30 154 H 10.9738 -3.18021 5.1667 0
M  V30 155 H 9.7128 -2.87623 3.93859 0
M  V30 156 H 8.7178 -1.08556 5.38976 0
M  V30 157 H 9.9428 -1.41401 6.64216 0
M  V30 158 H 7.8888 -3.40505 5.60707 0
M  V30 159 H 7.8058 -2.55501 7.11516 0
M  V30 160 H 9.0738 -3.71489 6.85285 0
M  V30 161 N 13.3029 -1.57598 0.00835791 0
M  V30 162 C 14.5329 -1.94931 -0.684496 0
M  V30 163 C 14.9409 -0.882233 -1.67372 0
M  V30 164 O 14.2839 0.146621 -1.83114 0
M  V30 165 C 14.3459 -3.283 -1.4649 0
M  V30 166 C 14.0099 -4.52548 -0.63634 0
M  V30 167 C 15.0069 -5.19839 0.0795586 0
M  V30 168 C 12.6919 -4.98942 -0.579849 0
M  V30 169 C 14.6859 -6.3183 0.840843 0
M  V30 170 C 12.3729 -6.10819 0.185155 0
M  V30 171 C 13.3709 -6.77121 0.894227 0
M  V30 172 O 13.0589 -7.86853 1.64673 0
M  V30 173 H 12.7909 -0.647249 -0.19505 0
M  V30 174 H 15.3449 -2.05318 0.0581272 0
M  V30 175 H 13.5749 -3.14345 -2.2522 0
M  V30 176 H 15.2639 -3.50685 -2.04389 0
M  V30 177 H 16.0299 -4.84979 0.0451202 0
M  V30 178 H 11.9089 -4.47155 -1.1213 0
M  V30 179 H 15.4529 -6.83513 1.39483 0
M  V30 180 H 11.3499 -6.4512 0.221384 0
M  V30 181 H 12.1179 -8.03412 1.56432 0
M  V30 182 N 14.781 0.264519 -1.55364 0
M  V30 183 C 16.011 1.01153 -1.80143 0
M  V30 184 C 16.419 1.80115 -0.579253 0
M  V30 185 O 15.762 1.77813 0.46132 0
M  V30 186 C 15.824 2.01098 -2.97993 0
M  V30 187 C 15.488 1.40995 -4.34706 0
M  V30 188 C 16.485 0.821316 -5.13372 0
M  V30 189 C 14.17 1.43461 -4.81378 0
M  V30 190 C 16.164 0.265339 -6.36847 0
M  V30 191 C 13.851 0.874771 -6.04807 0
M  V30 192 C 14.849 0.291146 -6.82379 0
M  V30 193 O 14.537 -0.260093 -8.03479 0
M  V30 194 H 14.269 0.304125 -0.603725 0
M  V30 195 H 16.823 0.298089 -2.03225 0
M  V30 196 H 15.053 2.76224 -2.70623 0
M  V30 197 H 16.742 2.61997 -3.1002 0
M  V30 198 H 17.508 0.794903 -4.78442 0
M  V30 199 H 13.387 1.87826 -4.21002 0
M  V30 200 H 16.931 -0.190837 -6.97339 0
M  V30 201 H 12.828 0.898452 -6.39217 0
M  V30 202 H 13.596 -0.150265 -8.18362 0
M  V30 203 N 16.2591 1.48442 0.529413 0
M  V30 204 C 17.1691 1.6569 1.66084 0
M  V30 205 C 18.1851 0.539432 1.65427 0
M  V30 206 O 19.3611 0.810572 1.84368 0
M  V30 207 C 16.4261 1.69315 3.02545 0
M  V30 208 C 15.4871 2.92694 3.14052 0
M  V30 209 C 14.7201 2.96137 4.44003 0
M  V30 210 O 14.9431 2.07973 5.31134 0
M  V30 211 O 13.8771 3.88312 4.59888 0
M  V30 212 H 17.7031 2.61483 1.54469 0
M  V30 213 H 15.2881 1.3185 0.702567 0
M  V30 214 H 17.1701 1.74217 3.83701 0
M  V30 215 H 15.8451 0.766966 3.14483 0
M  V30 216 H 14.7521 2.93324 2.32189 0
M  V30 217 H 16.0851 3.84699 3.0703 0
M  V30 218 N 17.7372 -0.778329 1.37039 0
M  V30 219 C 18.6672 -1.90546 1.34962 0
M  V30 220 C 19.6482 -1.68681 0.219274 0
M  V30 221 O 20.8332 -1.89634 0.418624 0
M  V30 222 C 17.9632 -3.27734 1.14925 0
M  V30 223 C 16.9172 -3.64147 2.24902 0
M  V30 224 C 16.2432 -4.99806 1.89996 0
M  V30 225 C 17.5432 -3.71579 3.67051 0
M  V30 226 H 19.2372 -1.92541 2.29277 0
M  V30 227 H 16.7832 -0.924948 1.10366 0
M  V30 228 H 18.7362 -4.06215 1.12104 0
M  V30 229 H 17.4602 -3.26154 0.170631 0
M  V30 230 H 16.1192 -2.8797 2.26868 0
M  V30 231 H 15.7672 -4.94759 0.906796 0
M  V30 232 H 15.4672 -5.25139 2.63634 0
M  V30 233 H 16.9912 -5.80694 1.88749 0
M  V30 234 H 18.4052 -4.40227 3.67251 0
M  V30 235 H 16.8022 -4.08405 4.39688 0
M  V30 236 H 17.8722 -2.72404 4.01154 0
M  V30 237 N 19.2153 -1.21501 -1.00376 0
M  V30 238 C 20.1653 -0.942843 -2.07592 0
M  V30 239 C 21.1493 0.102384 -1.60574 0
M  V30 240 O 22.3413 -0.10671 -1.76678 0
M  V30 241 C 19.4703 -0.510729 -3.3948 0
M  V30 242 C 18.5563 -1.59009 -3.93163 0
M  V30 243 N 18.9473 -2.81544 -4.20198 0
M  V30 244 C 17.2453 -1.45925 -4.21452 0
M  V30 245 C 17.9463 -3.51261 -4.63671 0
M  V30 246 N 16.9223 -2.78703 -4.66718 0
M  V30 247 H 20.7243 -1.87378 -2.26421 0
M  V30 248 H 18.2383 -1.11093 -1.18458 0
M  V30 249 H 20.2353 -0.297101 -4.1584 0
M  V30 250 H 18.8953 0.413436 -3.22057 0
M  V30 251 H 19.9063 -3.18075 -4.08716 0
M  V30 252 H 16.5833 -0.600467 -4.13159 0
M  V30 253 H 17.9733 -4.56183 -4.93302 0
M  V30 254 N 20.6934 1.19889 -1.02296 0
M  V30 255 C 21.6034 2.26571 -0.608508 0
M  V30 256 C 22.6194 1.70299 0.356964 0
M  V30 257 O 23.7954 2.00235 0.216326 0
M  V30 258 C 20.8604 3.46677 0.0402814 0
M  V30 259 C 19.9214 4.18153 -0.97194 0
M  V30 260 C 19.1544 5.32525 -0.354016 0
M  V30 261 O 19.3774 5.64112 0.844604 0
M  V30 262 O 18.3114 5.92242 -1.07391 0
M  V30 263 H 22.1374 2.64251 -1.49684 0
M  V30 264 H 19.7224 1.26629 -0.792809 0
M  V30 265 H 21.6044 4.19475 0.402324 0
M  V30 266 H 20.2794 3.10858 0.902707 0
M  V30 267 H 19.1864 3.47499 -1.38546 0
M  V30 268 H 20.5194 4.57927 -1.80454 0
M  V30 269 N 22.1715 0.800033 1.35784 0
M  V30 270 C 23.3995 0.389606 2.03199 0
M  V30 271 C 23.8145 -0.997375 1.60306 0
M  V30 272 O 23.1715 -1.64154 0.797481 0
M  V30 273 C 23.2225 0.455855 3.58614 0
M  V30 274 O 22.9435 1.78815 3.99946 0
M  V30 275 C 24.4445 0.0374032 4.43284 0
M  V30 276 H 21.6645 0.159132 0.651857 0
M  V30 277 H 24.2085 1.08183 1.73541 0
M  V30 278 H 22.3635 -0.188057 3.86943 0
M  V30 279 H 22.7775 1.74636 4.94573 0
M  V30 280 H 24.2515 0.134882 5.51835 0
M  V30 281 H 24.7285 -1.01651 4.27275 0
M  V30 282 H 25.3345 0.654215 4.20238 0
M  V30 283 N 23.6496 -1.47581 0.552962 0
M  V30 284 C 24.8986 -2.01684 0.0251995 0
M  V30 285 C 25.2116 -1.43317 -1.33115 0
M  V30 286 O 26.4176 -1.89057 -1.94858 0
M  V30 287 C 24.8736 -3.599 -0.00542052 0
M  V30 288 C 24.4816 -4.27257 1.34742 0
M  V30 289 C 26.2256 -4.21768 -0.4808 0
M  V30 290 C 24.1326 -5.77467 1.27614 0
M  V30 291 H 23.0626 -0.753979 0.00565033 0
M  V30 292 H 25.7136 -1.69616 0.70018 0
M  V30 293 H 24.0956 -3.88911 -0.745961 0
M  V30 294 H 25.2696 -4.09893 2.10534 0
M  V30 295 H 23.5846 -3.77358 1.76039 0
M  V30 296 H 26.1816 -5.31838 -0.55246 0
M  V30 297 H 26.5246 -3.88651 -1.49184 0
M  V30 298 H 27.0576 -3.97273 0.204752 0
M  V30 299 H 23.7966 -6.15196 2.26304 0
M  V30 300 H 23.3166 -5.9718 0.55996 0
M  V30 301 H 24.9956 -6.3959 0.976421 0
M  V30 302 N 25.1277 -0.289203 -1.54924 0
M  V30 303 C 26.3757 0.322879 -1.99504 0
M  V30 304 C 26.6967 1.55313 -1.1791 0
M  V30 305 O 25.9667 1.94001 -0.272097 0
M  V30 306 H 24.5467 0.122291 -0.736922 0
M  V30 307 H 27.2087 -0.397802 -1.90797 0
M  V30 308 H 26.3047 0.603061 -3.06218 0
M  V30 309 N 26.6058 1.57591 -0.0167156 0
M  V30 310 C 27.8338 1.95575 0.675128 0
M  V30 311 C 28.2488 0.892542 1.6637 0
M  V30 312 O 27.6058 -0.126912 1.82058 0
M  V30 313 C 27.6568 3.33608 1.39239 0
M  V30 314 O 27.3778 4.3585 0.443444 0
M  V30 315 C 28.8788 3.86151 2.17721 0
M  V30 316 H 26.0988 0.644423 0.186978 0
M  V30 317 H 28.6428 2.0437 -0.0728 0
M  V30 318 H 26.7978 3.2607 2.09182 0
M  V30 319 H 27.2118 5.158 0.951358 0
M  V30 320 H 28.6858 4.85114 2.63379 0
M  V30 321 H 29.1628 3.19738 3.01105 0
M  V30 322 H 29.7688 3.96918 1.52761 0
M  V30 323 N 28.0839 -0.256276 1.55502 0
M  V30 324 C 29.3319 -0.983672 1.76545 0
M  V30 325 C 29.6529 -1.86206 0.578982 0
M  V30 326 O 28.9229 -1.91656 -0.405577 0
M  V30 327 H 27.5029 -0.366191 0.651086 0
M  V30 328 H 30.1649 -0.276479 1.92929 0
M  V30 329 H 29.2609 -1.61087 2.67315 0
M  V30 330 N 29.562 -1.4872 -0.521534 0
M  V30 331 C 30.81 -1.56857 -1.27437 0
M  V30 332 C 31.131 -0.247982 -1.93417 0
M  V30 333 O 30.401 0.731151 -1.81744 0
M  V30 334 H 28.981 -0.577885 -0.473347 0
M  V30 335 H 31.643 -1.85233 -0.606205 0
M  V30 336 H 30.739 -2.35402 -2.0492 0
M  V30 337 N 31.0401 0.771051 -1.3745 0
M  V30 338 C 32.2871 1.52963 -1.32697 0
M  V30 339 C 32.6151 1.94299 0.0883274 0
M  V30 340 O 31.8701 1.64397 1.0617 0
M  V30 341 C 32.1691 2.80676 -2.2126 0
M  V30 342 C 31.8351 2.58389 -3.69521 0
M  V30 343 C 30.4971 2.52019 -4.09927 0
M  V30 344 C 32.8491 2.38469 -4.63446 0
M  V30 345 C 30.1771 2.23721 -5.42371 0
M  V30 346 C 32.5291 2.11694 -5.96128 0
M  V30 347 C 31.1931 2.03769 -6.35637 0
M  V30 348 H 30.4631 0.559732 -0.485573 0
M  V30 349 H 33.1101 0.888083 -1.69662 0
M  V30 350 H 31.4151 3.49392 -1.77291 0
M  V30 351 H 33.1121 3.38557 -2.14895 0
M  V30 352 H 29.7021 2.6421 -3.37478 0
M  V30 353 H 33.8861 2.4238 -4.33089 0
M  V30 354 H 29.1421 2.16081 -5.71943 0
M  V30 355 H 33.3161 1.9528 -6.6846 0
M  V30 356 H 30.9431 1.81606 -7.38189 0
M  V30 357 N 32.5182 1.22032 0.997298 0
M  V30 358 C 33.4812 0.987909 2.06816 0
M  V30 359 C 34.4812 -0.0440084 1.6074 0
M  V30 360 O 35.6712 0.194053 1.73116 0
M  V30 361 C 32.8032 0.49132 3.37341 0
M  V30 362 H 33.9962 1.93803 2.28868 0
M  V30 363 H 31.5492 1.03838 1.16822 0
M  V30 364 H 32.2842 -0.463364 3.20973 0
M  V30 365 H 32.0692 1.23575 3.72118 0
M  V30 366 H 33.5592 0.348824 4.16141 0
M  V30 367 N 33.9963 -1.19345 1.0293 0
M  V30 368 C 34.9433 -2.2258 0.610464 0
M  V30 369 C 35.9133 -1.6179 -0.375946 0
M  V30 370 O 37.0983 -1.88844 -0.272511 0
M  V30 371 C 34.2383 -3.45085 -0.0321473 0
M  V30 372 C 33.3513 -4.20258 1.00035 0
M  V30 373 C 32.4863 -5.3019 0.32746 0
M  V30 374 C 31.5253 -5.97121 1.34584 0
M  V30 375 N 30.6623 -6.98615 0.698726 0
M  V30 376 H 35.5023 -2.57764 1.49538 0
M  V30 377 H 33.0393 -1.26644 0.748311 0
M  V30 378 H 34.9973 -4.15061 -0.421966 0
M  V30 379 H 33.6273 -3.10555 -0.88064 0
M  V30 380 H 32.6793 -3.49223 1.50823 0
M  V30 381 H 33.9913 -4.66175 1.77433 0
M  V30 382 H 33.1453 -6.06587 -0.11718 0
M  V30 383 H 31.8843 -4.85345 -0.478713 0
M  V30 384 H 30.8893 -5.19474 1.80074 0
M  V30 385 H 32.1143 -6.4405 2.15352 0
M  V30 386 H 30.0603 -6.55942 -0.0873471 0
M  V30 387 H 29.9773 -7.42724 1.41058 0
M  V30 388 H 31.2453 -7.79004 0.278102 0
M  V30 389 N 35.4744 -0.807222 -1.35358 0
M  V30 390 C 36.7204 -0.388463 -1.99045 0
M  V30 391 C 37.0534 1.04184 -1.63888 0
M  V30 392 O 36.3284 1.72292 -0.902535 0
M  V30 393 C 36.6114 -0.572783 -3.55515 0
M  V30 394 C 36.4644 -2.04807 -4.00468 0
M  V30 395 C 37.7834 0.00114064 -4.401 0
M  V30 396 H 34.9024 -0.142619 -0.723069 0
M  V30 397 H 37.5444 -1.01687 -1.60498 0
M  V30 398 H 35.6944 -0.0378425 -3.88482 0
M  V30 399 H 37.3664 -2.64544 -3.77908 0
M  V30 400 H 35.6094 -2.54427 -3.51353 0
M  V30 401 H 36.2804 -2.12792 -5.09337 0
M  V30 402 H 38.7564 -0.455716 -4.13597 0
M  V30 403 H 37.6324 -0.157737 -5.48673 0
M  V30 404 H 37.8934 1.09488 -4.28328 0
M  V30 405 N 36.9525 1.47285 -0.560781 0
M  V30 406 C 37.8995 2.30058 0.18491 0
M  V30 407 C 38.8695 1.39281 0.904986 0
M  V30 408 O 40.0545 1.68241 0.899979 0
M  V30 409 C 37.1945 3.23317 1.20666 0
M  V30 410 C 36.3075 4.29186 0.492285 0
M  V30 411 C 35.4425 5.09592 1.49964 0
M  V30 412 C 34.4815 6.07232 0.770439 0
M  V30 413 N 33.6185 6.80584 1.72479 0
M  V30 414 H 38.4585 2.93302 -0.527048 0
M  V30 415 H 35.9955 1.44568 -0.271738 0
M  V30 416 H 37.9535 3.75811 1.81168 0
M  V30 417 H 36.5835 2.61929 1.88661 0
M  V30 418 H 35.6355 3.7972 -0.227333 0
M  V30 419 H 36.9475 4.98738 -0.0787929 0
M  V30 420 H 36.1015 5.66254 2.17809 0
M  V30 421 H 34.8405 4.3995 2.10464 0
M  V30 422 H 33.8455 5.49745 0.0780846 0
M  V30 423 H 35.0705 6.78884 0.171134 0
M  V30 424 H 33.0165 6.1367 2.3183 0
M  V30 425 H 32.9335 7.46319 1.20596 0
M  V30 426 H 34.2015 7.41818 2.39428 0
M  V30 427 N 38.4306 0.297415 1.54768 0
M  V30 428 C 39.3606 -0.573494 2.26348 0
M  V30 429 C 40.3416 -1.14085 1.26169 0
M  V30 430 O 41.5266 -1.17086 1.54934 0
M  V30 431 C 38.6566 -1.74716 3.00153 0
M  V30 432 C 37.6106 -1.31032 4.07449 0
M  V30 433 C 36.9366 -2.56887 4.68949 0
M  V30 434 C 38.2366 -0.444183 5.20408 0
M  V30 435 H 39.9306 0.0235131 2.99391 0
M  V30 436 H 37.4766 0.0127488 1.43994 0
M  V30 437 H 39.4296 -2.3625 3.48947 0
M  V30 438 H 38.1536 -2.37035 2.24682 0
M  V30 439 H 36.8126 -0.718066 3.59499 0
M  V30 440 H 36.4606 -3.17512 3.90122 0
M  V30 441 H 36.1606 -2.2836 5.41411 0
M  V30 442 H 37.6846 -3.19229 5.20505 0
M  V30 443 H 39.0986 -0.9651 5.65118 0
M  V30 444 H 37.4956 -0.252846 5.99567 0
M  V30 445 H 38.5656 0.531609 4.81977 0
M  V30 446 N 39.9087 -1.5758 0.0250728 0
M  V30 447 C 40.8717 -2.08896 -0.943139 0
M  V30 448 C 41.8717 -1.00321 -1.25668 0
M  V30 449 O 43.0617 -1.26495 -1.19769 0
M  V30 450 C 40.1937 -2.55143 -2.26086 0
M  V30 451 H 41.3867 -2.95723 -0.498775 0
M  V30 452 H 38.9397 -1.54703 -0.222888 0
M  V30 453 H 39.6747 -1.71633 -2.75159 0
M  V30 454 H 39.4597 -3.34461 -2.04641 0
M  V30 455 H 40.9497 -2.95083 -2.95492 0
M  V30 456 N 41.3868 0.248026 -1.55636 0
M  V30 457 C 42.6268 0.983592 -1.79178 0
M  V30 458 C 42.9908 1.82567 -0.594414 0
M  V30 459 O 44.1918 2.59292 -0.708583 0
M  V30 460 C 42.4628 1.82228 -3.07454 0
M  V30 461 S 44.0218 2.61709 -3.52213 0
M  V30 462 H 40.8398 0.330866 -0.629324 0
M  V30 463 H 43.4418 0.251562 -1.93875 0
M  V30 464 H 42.1458 1.19333 -3.92668 0
M  V30 465 H 41.6768 2.59708 -2.95492 0
M  V30 466 H 43.6918 3.84655 -3.13457 0
M  V30 467 N 42.8649 1.48995 0.513639 0
M  V30 468 C 43.8149 1.61127 1.61314 0
M  V30 469 C 44.7989 0.467521 1.53958 0
M  V30 470 O 45.9909 0.719826 1.61702 0
M  V30 471 C 43.1199 1.66937 2.99978 0
M  V30 472 C 42.2059 2.86847 3.12377 0
M  V30 473 N 42.5969 4.11078 2.94701 0
M  V30 474 C 40.8949 2.84521 3.43459 0
M  V30 475 C 41.5959 4.91615 3.10949 0
M  V30 476 N 40.5719 4.24739 3.3926 0
M  V30 477 H 44.3739 2.54909 1.46282 0
M  V30 478 H 41.8879 1.45593 0.719483 0
M  V30 479 H 43.8849 1.73725 3.78979 0
M  V30 480 H 42.5449 0.742831 3.16089 0
M  V30 481 H 43.5559 4.41258 2.71131 0
M  V30 482 H 40.2329 2.01192 3.65825 0
M  V30 483 H 41.6229 6.00264 3.01882 0
M  V30 484 N 44.343 -0.763751 1.37857 0
M  V30 485 C 45.592 -1.51789 1.32827 0
M  V30 486 C 45.905 -1.95426 -0.0823719 0
M  V30 487 O 47.111 -2.70298 -0.255172 0
M  V30 488 C 45.567 -2.74133 2.33193 0
M  V30 489 C 45.175 -2.37562 3.79827 0
M  V30 490 C 46.919 -3.52054 2.37188 0
M  V30 491 C 44.826 -3.56456 4.71904 0
M  V30 492 H 43.756 -0.569896 0.493695 0
M  V30 493 H 46.407 -0.835822 1.63359 0
M  V30 494 H 44.789 -3.4427 1.9569 0
M  V30 495 H 45.963 -1.75157 4.26212 0
M  V30 496 H 44.278 -1.72798 3.78853 0
M  V30 497 H 46.875 -4.40437 3.03182 0
M  V30 498 H 47.218 -3.92486 1.38782 0
M  V30 499 H 47.751 -2.88921 2.7344 0
M  V30 500 H 44.49 -3.21099 5.71468 0
M  V30 501 H 44.01 -4.17938 4.30218 0
M  V30 502 H 45.689 -4.23168 4.89426 0
M  V30 503 N 45.8211 -1.22559 -0.990812 0
M  V30 504 C 46.7511 -1.0218 -2.09956 0
M  V30 505 C 47.7321 0.0579394 -1.70001 0
M  V30 506 O 48.9171 -0.104684 -1.93918 0
M  V30 507 C 46.0471 -0.601023 -3.4206 0
M  V30 508 C 45.0011 -1.62694 -3.95872 0
M  V30 509 C 44.3271 -1.06193 -5.24049 0
M  V30 510 C 45.6271 -3.01743 -4.2632 0
M  V30 511 H 47.3211 -1.94916 -2.27262 0
M  V30 512 H 44.8671 -0.938566 -1.09211 0
M  V30 513 H 46.8201 -0.445561 -4.19038 0
M  V30 514 H 45.5441 0.362005 -3.24588 0
M  V30 515 H 44.2031 -1.77021 -3.21028 0
M  V30 516 H 43.8511 -0.0901903 -5.02919 0
M  V30 517 H 43.5511 -1.74732 -5.61019 0
M  V30 518 H 45.0751 -0.918092 -6.03658 0
M  V30 519 H 46.4891 -2.90777 -4.94087 0
M  V30 520 H 44.8861 -3.67425 -4.74467 0
M  V30 521 H 45.9561 -3.51518 -3.34011 0
M  V30 522 N 47.2992 1.18797 -1.03562 0
M  V30 523 C 48.5272 1.92599 -0.755869 0
M  V30 524 C 48.9422 1.75886 0.686271 0
M  V30 525 O 48.2992 1.08517 1.46732 0
M  V30 526 C 48.3502 3.44159 -1.10619 0
M  V30 527 O 48.0712 3.60341 -2.4917 0
M  V30 528 C 49.5722 4.3507 -0.850214 0
M  V30 529 H 46.7922 0.611587 -0.276048 0
M  V30 530 H 49.3362 1.50742 -1.38192 0
M  V30 531 H 47.4912 3.83823 -0.525194 0
M  V30 532 H 47.9052 4.54128 -2.62427 0
M  V30 533 H 49.3792 5.39989 -1.14523 0
M  V30 534 H 49.8562 4.38673 0.215176 0
M  V30 535 H 50.4622 4.01097 -1.41426 0
M  V30 536 N 48.7773 0.814389 1.34928 0
M  V30 537 C 50.0253 0.397636 1.9815 0
M  V30 538 C 50.3463 -1.04069 1.64908 0
M  V30 539 O 49.6163 -1.72121 0.93548 0
M  V30 540 H 48.1963 0.144043 0.732981 0
M  V30 541 H 50.8583 1.04195 1.6471 0
M  V30 542 H 49.9543 0.509688 3.0791 0
M  V30 543 N 50.2554 -1.46986 0.568584 0
M  V30 544 C 51.1654 -2.33942 -0.17555 0
M  V30 545 C 52.1814 -1.48891 -0.90041 0
M  V30 546 O 53.3574 -1.81794 -0.86676 0
M  V30 547 C 50.4224 -3.25811 -1.18524 0
M  V30 548 C 49.4834 -4.26757 -0.466582 0
M  V30 549 C 48.7164 -5.14236 -1.42817 0
M  V30 550 O 48.9394 -5.04379 -2.66379 0
M  V30 551 O 47.8734 -5.94412 -0.946453 0
M  V30 552 H 51.6994 -2.98896 0.538036 0
M  V30 553 H 49.2844 -1.4573 0.329097 0
M  V30 554 H 51.1664 -3.82527 -1.76779 0
M  V30 555 H 49.8414 -2.63471 -1.88055 0
M  V30 556 H 48.7484 -3.73769 0.157451 0
M  V30 557 H 50.0814 -4.91843 0.187485 0
M  V30 558 N 51.7335 -0.305618 -1.54608 0
M  V30 559 C 52.6665 0.610536 -2.19881 0
M  V30 560 C 53.6445 1.1294 -1.16976 0
M  V30 561 O 54.8285 1.19673 -1.45638 0
M  V30 562 C 51.9555 1.83583 -2.84631 0
M  V30 563 C 51.0015 1.4498 -4.01102 0
M  V30 564 S 51.8345 0.501793 -5.33144 0
M  V30 565 C 52.9905 1.73478 -6.01379 0
M  V30 566 H 53.2235 0.0560177 -2.97247 0
M  V30 567 H 50.7565 -0.0897434 -1.54139 0
M  V30 568 H 52.7145 2.53898 -3.22562 0
M  V30 569 H 51.3755 2.36152 -2.07102 0
M  V30 570 H 50.5685 2.36236 -4.45206 0
M  V30 571 H 50.1705 0.826553 -3.64752 0
M  V30 572 H 52.4625 2.67473 -6.22467 0
M  V30 573 H 53.4055 1.33622 -6.95378 0
M  V30 574 H 53.8135 1.9136 -5.31076 0
M  V30 575 N 53.2116 1.57565 -0.0334293 0
M  V30 576 C 54.4576 1.92262 0.645226 0
M  V30 577 C 54.7906 0.910543 1.71531 0
M  V30 578 O 54.0656 -0.066099 1.94388 0
M  V30 579 C 54.3486 3.37422 1.2577 0
M  V30 580 C 54.2016 4.49369 0.196891 0
M  V30 581 C 55.5206 3.82628 2.17449 0
M  V30 582 H 52.6396 0.699171 0.233085 0
M  V30 583 H 55.2816 1.89779 -0.0915694 0
M  V30 584 H 53.4316 3.39669 1.88566 0
M  V30 585 H 55.1036 4.59254 -0.433962 0
M  V30 586 H 53.3466 4.31168 -0.477137 0
M  V30 587 H 54.0176 5.47978 0.665124 0
M  V30 588 H 56.4936 3.82145 1.64634 0
M  V30 589 H 55.3696 4.84883 2.57254 0
M  V30 590 H 55.6306 3.18376 3.0674 0
M  V30 591 N 54.6897 -0.239769 1.55765 0
M  V30 592 C 55.6527 -1.28038 1.90103 0
M  V30 593 C 56.6527 -1.40723 0.778055 0
M  V30 594 O 57.8427 -1.39301 1.04599 0
M  V30 595 C 54.9747 -2.65702 2.13577 0
M  V30 596 H 56.1677 -0.988048 2.83157 0
M  V30 597 H 53.7207 -0.479382 1.48767 0
M  V30 598 H 54.4557 -3.00063 1.23015 0
M  V30 599 H 54.2407 -2.57875 2.95369 0
M  V30 600 H 55.7307 -3.40828 2.41301 0
M  V30 601 N 56.1678 -1.49265 -0.50573 0
M  V30 602 C 57.4168 -1.57761 -1.25675 0
M  V30 603 C 57.7298 -0.267371 -1.93764 0
M  V30 604 O 58.9358 -0.230827 -2.70517 0
M  V30 605 C 57.3918 -2.78332 -2.28165 0
M  V30 606 C 56.9998 -4.16096 -1.66037 0
M  V30 607 C 58.7438 -2.96155 -3.04125 0
M  V30 608 C 56.6508 -5.27895 -2.6661 0
M  V30 609 H 55.5808 -0.587391 -0.472745 0
M  V30 610 H 58.2318 -1.75644 -0.53118 0
M  V30 611 H 56.6138 -2.53934 -3.03865 0
M  V30 612 H 57.7878 -4.50612 -0.963622 0
M  V30 613 H 56.1028 -4.03591 -1.02484 0
M  V30 614 H 58.6998 -3.76849 -3.79327 0
M  V30 615 H 59.0428 -2.06534 -3.61455 0
M  V30 616 H 59.5758 -3.2057 -2.35541 0
M  V30 617 H 56.3148 -6.1956 -2.14068 0
M  V30 618 H 55.8348 -4.97839 -3.34539 0
M  V30 619 H 57.5138 -5.57031 -3.29129 0
M  V30 620 N 57.6459 0.756429 -1.3826 0
M  V30 621 C 58.5929 1.87011 -1.35261 0
M  V30 622 C 59.5629 1.64695 -0.215616 0
M  V30 623 O 60.7479 1.864 -0.407399 0
M  V30 624 C 57.8879 3.24275 -1.18068 0
M  V30 625 C 57.0009 3.58442 -2.41129 0
M  V30 626 C 56.1359 4.84994 -2.16689 0
M  V30 627 C 55.1749 5.11939 -3.35537 0
M  V30 628 N 54.3119 6.29685 -3.10549 0
M  V30 629 H 59.1519 1.8891 -2.30472 0
M  V30 630 H 56.6889 0.923373 -1.14509 0
M  V30 631 H 58.6469 4.03479 -1.06116 0
M  V30 632 H 57.2769 3.21711 -0.264973 0
M  V30 633 H 56.3289 2.74103 -2.63764 0
M  V30 634 H 57.6409 3.74283 -3.29717 0
M  V30 635 H 56.7949 5.72135 -2.01857 0
M  V30 636 H 55.5339 4.71286 -1.25462 0
M  V30 637 H 54.5389 4.23268 -3.50891 0
M  V30 638 H 55.7639 5.27546 -4.27635 0
M  V30 639 H 53.7099 6.17306 -2.21967 0
M  V30 640 H 53.6269 6.46014 -3.92686 0
M  V30 641 H 54.8949 7.19722 -2.99367 0
M  V30 642 N 59.124 1.23083 0.984299 0
M  V30 643 C 60.373 1.05466 1.71929 0
M  V30 644 C 60.686 -0.409211 1.91272 0
M  V30 645 O 61.892 -0.705226 2.62181 0
M  V30 646 C 60.348 1.83874 3.09384 0
M  V30 647 C 59.956 3.34566 2.97943 0
M  V30 648 C 61.7 1.74734 3.8687 0
M  V30 649 C 59.607 4.05381 4.30605 0
M  V30 650 H 58.537 0.391039 0.644674 0
M  V30 651 H 61.188 1.47013 1.09815 0
M  V30 652 H 59.57 1.35131 3.72231 0
M  V30 653 H 60.744 3.90767 2.44209 0
M  V30 654 H 59.059 3.44476 2.33934 0
M  V30 655 H 61.656 2.24957 4.85076 0
M  V30 656 H 61.999 0.709372 4.10212 0
M  V30 657 H 62.532 2.21067 3.30717 0
M  V30 658 H 59.271 5.09467 4.1246 0
M  V30 659 H 58.791 3.53967 4.84218 0
M  V30 660 H 60.47 4.11458 4.99311 0
M  V30 661 N 60.6021 -1.18246 1.0419 0
M  V30 662 C 61.5351 -2.20746 0.578474 0
M  V30 663 C 62.5131 -1.57912 -0.387624 0
M  V30 664 O 63.6971 -1.86071 -0.301634 0
M  V30 665 C 60.8241 -3.38346 -0.154762 0
M  V30 666 C 59.8701 -4.19587 0.764782 0
M  V30 667 S 60.7031 -4.86014 2.24835 0
M  V30 668 C 61.8591 -6.07012 1.526 0
M  V30 669 H 62.0921 -2.59715 1.44691 0
M  V30 670 H 59.6251 -1.287 0.85297 0
M  V30 671 H 61.5831 -4.065 -0.571641 0
M  V30 672 H 60.2441 -2.97786 -0.999105 0
M  V30 673 H 59.4371 -5.03611 0.197976 0
M  V30 674 H 59.0391 -3.56818 1.12057 0
M  V30 675 H 61.3311 -6.72523 0.819733 0
M  V30 676 H 62.2741 -6.68202 2.34333 0
M  V30 677 H 62.6821 -5.55249 1.01779 0
M  V30 678 N 62.0802 -0.821533 -1.34494 0
M  V30 679 C 63.3572 -0.33159 -1.92769 0
M  V30 680 C 63.7372 1.18088 -1.74981 0
M  V30 681 O 63.0852 1.98733 -1.12772 0
M  V30 682 C 63.2952 -0.759398 -3.40638 0
M  V30 683 C 64.6432 -0.757433 -4.1779 0
M  V30 684 O 65.6672 -0.70189 -3.49216 0
M  V30 685 O 64.5262 -0.829361 -5.4017 0
M  V30 686 H 61.6202 -0.0902502 -0.822061 0
M  V30 687 H 64.1662 -0.906231 -1.43477 0
M  V30 688 H 62.9382 -1.8012 -3.47379 0
M  V30 689 H 62.5612 -0.160378 -3.97276 0
M  V30 690 N 63.5583 1.46682 -0.576371 0
M  V30 691 C 64.5053 2.30241 0.160499 0
M  V30 692 C 65.4753 1.40233 0.890162 0
M  V30 693 O 66.6603 1.69186 0.882084 0
M  V30 694 C 63.8003 3.24578 1.1723 0
M  V30 695 C 62.9133 4.29684 0.446736 0
M  V30 696 C 62.0483 5.11154 1.44551 0
M  V30 697 C 61.0873 6.08015 0.70599 0
M  V30 698 N 60.2243 6.82376 1.65251 0
M  V30 699 H 65.0643 2.92727 -0.558127 0
M  V30 700 H 62.6013 1.44272 -0.287056 0
M  V30 701 H 64.5593 3.77711 1.77172 0
M  V30 702 H 63.1893 2.63916 1.85872 0
M  V30 703 H 62.2413 3.79458 -0.267594 0
M  V30 704 H 63.5533 4.98626 -0.131686 0
M  V30 705 H 62.7073 5.68533 2.11791 0
M  V30 706 H 61.4463 4.42158 2.05786 0
M  V30 707 H 60.4513 5.49796 0.0197725 0
M  V30 708 H 61.6763 6.79028 0.09912 0
M  V30 709 H 59.6223 6.16094 2.25308 0
M  V30 710 H 59.5393 7.47556 1.12673 0
M  V30 711 H 60.8073 7.44316 2.31546 0
M  V30 712 N 65.0364 0.313813 1.54444 0
M  V30 713 C 65.9844 -0.572171 2.25453 0
M  V30 714 C 66.9784 -1.12657 1.2651 0
M  V30 715 O 68.1844 -1.07573 1.44319 0
M  V30 716 H 64.5594 -0.203146 0.724041 0
M  V30 717 H 66.5304 0.0491145 2.9836 0
M  V30 718 C 65.2794 -1.72626 3.0182 0
M  V30 719 H 64.6024 -1.30891 3.77767 0
M  V30 720 H 66.0424 -2.32199 3.54767 0
M  V30 721 C 64.5014 -2.63806 2.09542 0
M  V30 722 O 65.0314 -3.65256 1.67185 0
M  V30 723 N 63.2374 -2.31824 1.75232 0
M  V30 724 H 62.7844 -1.49368 2.09873 0
M  V30 725 H 62.7424 -2.93095 1.13767 0
M  V30 726 N 66.5145 -1.57545 0.0417849 0
M  V30 727 C 67.7425 -1.96624 -0.643928 0
M  V30 728 C 68.1575 -0.918897 -1.64929 0
M  V30 729 O 67.5145 0.0979323 -1.82237 0
M  V30 730 C 67.5655 -3.35781 -1.33914 0
M  V30 731 O 67.2865 -4.365 -0.374048 0
M  V30 732 C 68.7875 -3.89566 -2.1155 0
M  V30 733 H 66.0075 -0.647316 -0.176702 0
M  V30 734 H 68.5515 -2.04229 0.105304 0
M  V30 735 H 66.7065 -3.29357 -2.03968 0
M  V30 736 H 67.1205 -5.17248 -0.869179 0
M  V30 737 H 68.5945 -4.89242 -2.55628 0
M  V30 738 H 69.0715 -3.24488 -2.9598 0
M  V30 739 H 69.6775 -3.99298 -1.46427 0
M  V30 740 N 67.9926 0.231505 -1.5589 0
M  V30 741 C 68.9226 1.29022 -1.94617 0
M  V30 742 C 69.9036 1.4941 -0.813067 0
M  V30 743 O 71.0886 1.6176 -1.07459 0
M  V30 744 C 68.2186 2.64199 -2.25424 0
M  V30 745 C 67.1726 2.58484 -3.41131 0
M  V30 746 C 66.4986 3.97599 -3.57518 0
M  V30 747 C 67.7986 2.1413 -4.76388 0
M  V30 748 H 69.4926 0.968563 -2.83301 0
M  V30 749 H 67.0386 0.464479 -1.36303 0
M  V30 750 H 68.9916 3.38413 -2.51107 0
M  V30 751 H 67.7156 2.98032 -1.33583 0
M  V30 752 H 66.3746 1.86727 -3.15481 0
M  V30 753 H 66.0226 4.28723 -2.6307 0
M  V30 754 H 65.7226 3.94659 -4.35337 0
M  V30 755 H 67.2466 4.7349 -3.85538 0
M  V30 756 H 68.6606 2.78083 -5.01341 0
M  V30 757 H 67.0576 2.2227 -5.57419 0
M  V30 758 H 68.1276 1.09331 -4.72414 0
M  V30 759 N 69.4707 1.49531 0.497807 0
M  V30 760 C 70.7187 1.58865 1.24926 0
M  V30 761 C 71.0397 0.278721 1.92998 0
M  V30 762 O 70.3097 -0.702144 1.82885 0
M  V30 763 H 68.8897 0.585343 0.464094 0
M  V30 764 H 71.5517 1.86174 0.57666 0
M  V30 765 H 70.6477 2.38633 2.01149 0
M  V30 766 N 70.9488 -0.749086 1.3866 0
M  V30 767 C 72.1738 -1.54344 1.38538 0
M  V30 768 C 72.5988 -1.88088 -0.0216655 0
M  V30 769 O 71.9568 -1.50899 -1.00494 0
M  V30 770 C 72.0048 -2.8164 2.25192 0
M  V30 771 O 71.1088 -3.7698 1.67212 0
M  V30 772 H 70.4498 -0.466654 0.472367 0
M  V30 773 H 72.9798 -0.925355 1.82478 0
M  V30 774 H 72.9898 -3.30519 2.3921 0
M  V30 775 H 71.6648 -2.56411 3.27454 0
M  V30 776 H 70.2418 -3.35699 1.6236 0
M  V30 777 N 72.4269 -1.23603 -0.977757 0
M  V30 778 C 73.7039 -0.977897 -1.69401 0
M  V30 779 C 74.0839 0.502738 -2.05026 0
M  V30 780 O 73.4319 1.47459 -1.74551 0
M  V30 781 C 73.6419 -1.89077 -2.93345 0
M  V30 782 C 74.9899 -2.15579 -3.65802 0
M  V30 783 O 76.0139 -1.86648 -3.03383 0
M  V30 784 O 74.8729 -2.64658 -4.78141 0
M  V30 785 H 71.9669 -0.369025 -0.740101 0
M  V30 786 H 74.5129 -1.34657 -1.03274 0
M  V30 787 H 73.2849 -2.89158 -2.63634 0
M  V30 788 H 72.9079 -1.52463 -3.67207 0
M  V30 789 N 73.905 1.17692 -1.04816 0
M  V30 790 C 74.835 2.23777 -0.666791 0
M  V30 791 C 75.816 1.66796 0.33361 0
M  V30 792 O 77.001 1.93039 0.212042 0
M  V30 793 C 74.131 3.47281 -0.0367933 0
M  V30 794 C 73.085 4.17059 -0.961546 0
M  V30 795 C 72.411 5.34342 -0.195626 0
M  V30 796 C 73.711 4.69713 -2.28402 0
M  V30 797 H 75.405 2.55933 -1.55367 0
M  V30 798 H 72.951 1.23019 -0.748484 0
M  V30 799 H 74.904 4.20706 0.241775 0
M  V30 800 H 73.628 3.14381 0.885004 0
M  V30 801 H 72.287 3.45541 -1.22462 0
M  V30 802 H 71.935 4.97692 0.728816 0
M  V30 803 H 71.635 5.81966 -0.811775 0
M  V30 804 H 73.159 6.10553 0.0757473 0
M  V30 805 H 74.573 5.34794 -2.06563 0
M  V30 806 H 72.97 5.279 -2.8538 0
M  V30 807 H 74.04 3.86726 -2.92525 0
M  V30 808 N 75.3831 0.828654 1.34056 0
M  V30 809 C 76.7941 0.477534 1.8049 0
M  V30 810 C 77.1451 -1.00258 1.6865 0
M  V30 811 O 76.2701 -1.78057 1.22982 0
M  V30 812 C 76.8651 0.860018 3.27703 0
M  V30 813 C 75.4241 0.561185 3.72193 0
M  V30 814 C 74.5711 1.07385 2.55663 0
M  V30 815 H 77.5221 1.0183 1.21722 0
M  V30 816 H 77.5431 0.166038 3.80138 0
M  V30 817 H 77.0551 1.93731 3.36288 0
M  V30 818 H 75.1561 -0.506465 3.69142 0
M  V30 819 H 75.2691 1.10926 4.66082 0
M  V30 820 H 73.6331 0.495149 2.49841 0
M  V30 821 H 74.4161 2.15771 2.67016 0
M  V30 822 N 76.8612 -1.46375 0.584142 0
M  V30 823 C 78.2772 -1.57694 0.245929 0
M  V30 824 C 78.4772 -1.57903 -1.25175 0
M  V30 825 O 77.5332 -1.49676 -2.03355 0
M  V30 826 C 78.8462 -2.87028 0.896402 0
M  V30 827 C 80.3942 -3.00662 0.870127 0
M  V30 828 C 80.8692 -4.32734 1.50017 0
M  V30 829 N 82.3602 -4.39436 1.46458 0
M  V30 830 C 83.0952 -5.40248 1.92144 0
M  V30 831 N 82.5912 -6.47726 2.4581 0
M  V30 832 N 84.3842 -5.31459 1.83052 0
M  V30 833 H 76.5352 -1.44483 1.55687 0
M  V30 834 H 78.7982 -0.689291 0.650831 0
M  V30 835 H 78.5042 -2.9269 1.95002 0
M  V30 836 H 78.3782 -3.75014 0.405486 0
M  V30 837 H 80.7652 -2.94581 -0.174871 0
M  V30 838 H 80.8462 -2.14148 1.39908 0
M  V30 839 H 80.4902 -4.39573 2.54437 0
M  V30 840 H 80.4202 -5.18025 0.946432 0
M  V30 841 H 82.9112 -3.62367 1.07231 0
M  V30 842 H 83.2242 -7.20863 2.78525 0
M  V30 843 H 81.5692 -6.48542 2.49836 0
M  V30 844 H 84.7602 -4.46396 1.40883 0
M  V30 845 H 84.9332 -6.09881 2.18973 0
M  V30 846 N 78.3393 -0.321999 -1.54275 0
M  V30 847 C 79.5883 0.281931 -1.9972 0
M  V30 848 C 79.9013 1.53369 -1.21397 0
M  V30 849 O 81.1073 2.21352 -1.57211 0
M  V30 850 C 79.5633 0.5529 -3.55628 0
M  V30 851 C 79.1713 -0.681721 -4.42783 0
M  V30 852 C 80.9153 1.11687 -4.09544 0
M  V30 853 C 78.8223 -0.382742 -5.9016 0
M  V30 854 H 77.7523 0.109124 -0.746062 0
M  V30 855 H 80.4033 -0.43398 -1.78294 0
M  V30 856 H 78.7853 1.32896 -3.73035 0
M  V30 857 H 79.9593 -1.45723 -4.37151 0
M  V30 858 H 78.2743 -1.1658 -3.99748 0
M  V30 859 H 80.8713 1.35515 -5.17242 0
M  V30 860 H 81.2143 2.06575 -3.61431 0
M  V30 861 H 81.7473 0.402032 -3.95763 0
M  V30 862 H 78.4863 -1.30076 -6.42464 0
M  V30 863 H 78.0063 0.355094 -5.98748 0
M  V30 864 H 79.6853 0.00800157 -6.47 0
M  V30 865 N 79.8174 1.5752 -0.0501392 0
M  V30 866 C 80.7644 2.1147 0.924603 0
M  V30 867 C 81.7344 1.02182 1.30951 0
M  V30 868 O 82.9194 1.29723 1.39916 0
M  V30 869 C 80.0594 2.66337 2.19451 0
M  V30 870 C 79.1724 3.89708 1.86418 0
M  V30 871 C 78.3074 4.32893 3.07859 0
M  V30 872 C 77.3464 5.48967 2.70742 0
M  V30 873 N 76.4834 5.87211 3.84874 0
M  V30 874 H 81.3234 2.94465 0.457639 0
M  V30 875 H 78.8604 1.45531 0.214266 0
M  V30 876 H 80.8184 2.96247 2.93758 0
M  V30 877 H 79.4484 1.86141 2.63726 0
M  V30 878 H 78.5004 3.66396 1.02264 0
M  V30 879 H 79.8124 4.74074 1.55096 0
M  V30 880 H 78.9664 4.6435 3.90466 0
M  V30 881 H 77.7054 3.47336 3.42358 0
M  V30 882 H 76.7104 5.17183 1.86551 0
M  V30 883 H 77.9354 6.3624 2.37436 0
M  V30 884 H 75.8814 5.04607 4.19175 0
M  V30 885 H 75.7984 6.66266 3.57247 0
M  V30 886 H 77.0664 6.23282 4.68123 0
M  V30 887 N 81.2955 -0.223234 1.56011 0
M  V30 888 C 82.5235 -0.964812 1.83027 0
M  V30 889 C 82.9385 -1.78013 0.62904 0
M  V30 890 O 82.2955 -1.78008 -0.402414 0
M  V30 891 C 82.3465 -1.88373 3.08542 0
M  V30 892 O 82.0675 -1.10137 4.2403 0
M  V30 893 C 83.5685 -2.73934 3.48533 0
M  V30 894 H 80.7885 -0.282842 0.608475 0
M  V30 895 H 83.3325 -0.238971 2.03099 0
M  V30 896 H 81.4875 -2.56354 2.9045 0
M  V30 897 H 81.9015 -1.72501 4.95322 0
M  V30 898 H 83.3755 -3.34117 4.39397 0
M  V30 899 H 83.8525 -3.46244 2.70207 0
M  V30 900 H 84.4585 -2.11369 3.69057 0
M  V30 901 N 82.7736 -1.49793 -0.48987 0
M  V30 902 C 83.6836 -1.70036 -1.61632 0
M  V30 903 C 84.6996 -0.583102 -1.63939 0
M  V30 904 O 85.8756 -0.859169 -1.82154 0
M  V30 905 C 82.9406 -1.77277 -2.97949 0
M  V30 906 C 82.0016 -3.00918 -3.06181 0
M  V30 907 C 81.2346 -3.07804 -4.35996 0
M  V30 908 O 81.4576 -2.21982 -5.25433 0
M  V30 909 O 80.3916 -4.00369 -4.49431 0
M  V30 910 H 84.2176 -2.65486 -1.47482 0
M  V30 911 H 81.8026 -1.33666 -0.667362 0
M  V30 912 H 83.6846 -1.84329 -3.78947 0
M  V30 913 H 82.3596 -0.850076 -3.12339 0
M  V30 914 H 81.2666 -2.99377 -2.2433 0
M  V30 915 H 82.5996 -3.92704 -2.96723 0
M  V30 916 N 84.2517 0.741722 -1.39055 0
M  V30 917 C 85.5007 1.49656 -1.35225 0
M  V30 918 C 85.8137 1.95533 0.0512708 0
M  V30 919 O 87.0197 2.7067 0.212138 0
M  V30 920 C 85.4757 2.70389 -2.37525 0
M  V30 921 C 85.0837 2.31489 -3.83558 0
M  V30 922 C 86.8277 3.48236 -2.42759 0
M  V30 923 C 84.7347 3.48903 -4.77515 0
M  V30 924 H 83.6647 0.56197 -0.502699 0
M  V30 925 H 86.3157 0.809727 -1.64668 0
M  V30 926 H 84.6977 3.41113 -2.01142 0
M  V30 927 H 85.8717 1.68354 -4.28945 0
M  V30 928 H 84.1867 1.66749 -3.81554 0
M  V30 929 H 86.7837 4.35558 -3.1015 0
M  V30 930 H 87.1267 3.90229 -1.45008 0
M  V30 931 H 87.6597 2.84535 -2.78002 0
M  V30 932 H 84.3987 3.11966 -5.76504 0
M  V30 933 H 83.9187 4.11041 -4.36813 0
M  V30 934 H 85.5977 4.15328 -4.96096 0
M  V30 935 N 85.7298 1.2412 0.971189 0
M  V30 936 C 86.6398 1.04747 2.09917 0
M  V30 937 C 87.6558 -0.0107162 1.73997 0
M  V30 938 O 88.8318 0.186714 2.00533 0
M  V30 939 C 85.8968 0.650828 3.40537 0
M  V30 940 C 84.9578 1.7851 3.90426 0
M  V30 941 C 84.1908 1.40729 5.14812 0
M  V30 942 O 84.4138 0.29557 5.69634 0
M  V30 943 O 83.3478 2.23168 5.58999 0
M  V30 944 H 87.1738 1.99304 2.29154 0
M  V30 945 H 84.7588 1.02908 1.08307 0
M  V30 946 H 86.6408 0.440992 4.19086 0
M  V30 947 H 85.3158 -0.265649 3.22608 0
M  V30 948 H 84.2228 2.04966 3.12953 0
M  V30 949 H 85.5558 2.68023 4.12825 0
M  V30 950 N 87.2079 -1.17134 1.05439 0
M  V30 951 C 88.1709 -2.19439 0.661764 0
M  V30 952 C 89.1709 -1.58199 -0.288042 0
M  V30 953 O 90.3609 -1.74053 -0.0715803 0
M  V30 954 C 87.4929 -3.40889 -0.0276209 0
M  V30 955 H 88.6859 -2.55688 1.56728 0
M  V30 956 H 86.2389 -1.31259 0.848567 0
M  V30 957 H 86.9739 -3.10187 -0.94629 0
M  V30 958 H 86.7589 -3.86586 0.655238 0
M  V30 959 H 88.2489 -4.16603 -0.288342 0
M  V30 960 N 88.686 -0.835752 -1.33615 0
M  V30 961 C 89.616 -0.281739 -2.31794 0
M  V30 962 C 90.597 0.608833 -1.58831 0
M  V30 963 O 91.782 0.533035 -1.86741 0
M  V30 964 C 88.912 0.546612 -3.42971 0
M  V30 965 C 87.866 -0.247904 -4.27281 0
M  V30 966 C 87.192 0.704001 -5.30045 0
M  V30 967 C 88.492 -1.46324 -5.01385 0
M  V30 968 H 90.186 -1.10206 -2.78379 0
M  V30 969 H 87.732 -0.531388 -1.33837 0
M  V30 970 H 89.685 0.944467 -4.1068 0
M  V30 971 H 88.409 1.40011 -2.95067 0
M  V30 972 H 87.068 -0.627281 -3.61194 0
M  V30 973 H 86.716 1.55381 -4.78399 0
M  V30 974 H 86.416 0.176524 -5.87335 0
M  V30 975 H 87.94 1.09944 -6.0062 0
M  V30 976 H 89.354 -1.13871 -5.61877 0
M  V30 977 H 87.751 -1.92728 -5.6831 0
M  V30 978 H 88.821 -2.23467 -4.30338 0
M  V30 979 N 90.1641 1.46063 -0.591896 0
M  V30 980 C 91.1111 2.30399 0.136069 0
M  V30 981 C 92.0811 1.41169 0.875238 0
M  V30 982 O 93.2661 1.70112 0.86409 0
M  V30 983 C 90.4061 3.25804 1.13781 0
M  V30 984 C 89.5191 4.30134 0.401137 0
M  V30 985 C 88.6541 5.12659 1.39121 0
M  V30 986 C 87.6931 6.0873 0.641462 0
M  V30 987 N 86.8301 6.8409 1.58004 0
M  V30 988 H 91.6701 2.92118 -0.589144 0
M  V30 989 H 89.2071 1.43959 -0.302342 0
M  V30 990 H 91.1651 3.79569 1.73156 0
M  V30 991 H 89.7951 2.65872 1.83062 0
M  V30 992 H 88.8471 3.79152 -0.307826 0
M  V30 993 H 90.1591 4.98458 -0.184565 0
M  V30 994 H 89.3131 5.70747 2.05749 0
M  V30 995 H 88.0521 4.44316 2.01084 0
M  V30 996 H 87.0571 5.49786 -0.0385419 0
M  V30 997 H 88.2821 6.79095 0.0270945 0
M  V30 998 H 86.2281 6.18449 2.18761 0
M  V30 999 H 86.1451 7.48709 1.04738 0
M  V30 1000 H 87.4131 7.4673 2.23639 0
M  V30 1001 N 91.6422 0.330177 1.54103 0
M  V30 1002 C 92.5902 -0.548226 2.26047 0
M  V30 1003 C 93.5842 -1.11309 1.27698 0
M  V30 1004 O 94.7902 -1.06036 1.45452 0
M  V30 1005 H 91.1652 -0.195456 0.726155 0
M  V30 1006 H 93.1362 0.0807567 2.98291 0
M  V30 1007 C 91.8852 -1.69415 3.03634 0
M  V30 1008 H 91.2082 -1.26876 3.79134 0
M  V30 1009 H 92.6482 -2.28423 3.5721 0
M  V30 1010 C 91.1072 -2.61569 2.12328 0
M  V30 1011 O 91.6372 -3.63462 1.7105 0
M  V30 1012 N 89.8432 -2.29952 1.77681 0
M  V30 1013 H 89.3902 -1.47134 2.11446 0
M  V30 1014 H 89.3482 -2.91871 1.16869 0
M  V30 1015 N 93.1203 -1.57491 0.0584922 0
M  V30 1016 C 94.0503 -2.14988 -0.911178 0
M  V30 1017 C 95.0313 -1.07343 -1.31952 0
M  V30 1018 O 96.2163 -1.35318 -1.39294 0
M  V30 1019 C 93.3463 -2.70078 -2.18347 0
M  V30 1020 C 92.3003 -3.82771 -1.91495 0
M  V30 1021 C 91.6263 -4.24408 -3.25241 0
M  V30 1022 C 92.9263 -5.07592 -1.23075 0
M  V30 1023 H 94.6203 -2.96263 -0.432246 0
M  V30 1024 H 92.1663 -1.42512 -0.206469 0
M  V30 1025 H 94.1193 -3.08943 -2.86587 0
M  V30 1026 H 92.8433 -1.86005 -2.68458 0
M  V30 1027 H 91.5023 -3.44389 -1.25664 0
M  V30 1028 H 91.1503 -3.37275 -3.73168 0
M  V30 1029 H 90.8503 -5.00366 -3.08071 0
M  V30 1030 H 92.3743 -4.65879 -3.94701 0
M  V30 1031 H 93.7883 -5.43857 -1.81362 0
M  V30 1032 H 92.1853 -5.88741 -1.16207 0
M  V30 1033 H 93.2553 -4.84454 -0.207847 0
M  V30 1034 N 94.5984 0.214957 -1.56127 0
M  V30 1035 C 96.0144 0.564948 -1.49267 0
M  V30 1036 C 96.2144 1.86827 -0.754838 0
M  V30 1037 O 95.2704 2.50745 -0.297198 0
M  V30 1038 C 96.5834 0.638071 -2.93852 0
M  V30 1039 C 98.1314 0.728253 -3.0441 0
M  V30 1040 C 98.6064 0.832663 -4.50367 0
M  V30 1041 N 100.097 0.896712 -4.54437 0
M  V30 1042 C 100.832 0.997324 -5.6466 0
M  V30 1043 N 100.328 1.06147 -6.8462 0
M  V30 1044 N 102.121 1.03297 -5.52527 0
M  V30 1045 H 94.2724 -0.640211 -2.02522 0
M  V30 1046 H 96.5354 -0.225507 -0.920788 0
M  V30 1047 H 96.2414 -0.250126 -3.50809 0
M  V30 1048 H 96.1154 1.49947 -3.46115 0
M  V30 1049 H 98.5024 1.60689 -2.47514 0
M  V30 1050 H 98.5834 -0.158952 -2.55306 0
M  V30 1051 H 98.2274 -0.0415417 -5.07883 0
M  V30 1052 H 98.1574 1.73538 -4.97184 0
M  V30 1053 H 100.648 0.857188 -3.6805 0
M  V30 1054 H 100.961 1.1382 -7.64372 0
M  V30 1055 H 99.3064 1.03049 -6.87318 0
M  V30 1056 H 102.497 0.979558 -4.57736 0
M  V30 1057 H 102.67 1.10793 -6.38458 0
M  V30 1058 N 96.0765 1.50051 0.48192 0
M  V30 1059 C 97.0265 1.64512 1.5786 0
M  V30 1060 C 98.0105 0.500073 1.52932 0
M  V30 1061 O 99.2025 0.753964 1.60139 0
M  V30 1062 C 96.3315 1.73263 2.9637 0
M  V30 1063 C 95.4175 2.93409 3.06222 0
M  V30 1064 N 95.8085 4.17236 2.85915 0
M  V30 1065 C 94.1065 2.91742 3.37346 0
M  V30 1066 C 94.8075 4.981 3.00451 0
M  V30 1067 N 93.7835 4.3184 3.30174 0
M  V30 1068 H 97.5855 2.57955 1.40842 0
M  V30 1069 H 95.0995 1.47086 0.688439 0
M  V30 1070 H 97.0965 1.81724 3.75209 0
M  V30 1071 H 95.7565 0.809711 3.14442 0
M  V30 1072 H 96.7675 4.46909 2.6171 0
M  V30 1073 H 93.4445 2.08907 3.61475 0
M  V30 1074 H 94.8345 6.06532 2.89082 0
M  V30 1075 N 97.5546 -0.734337 1.39446 0
M  V30 1076 C 98.4866 -1.85861 1.34121 0
M  V30 1077 C 99.4996 -1.60871 0.249864 0
M  V30 1078 O 100.689 -1.71093 0.508865 0
M  V30 1079 C 97.7886 -3.21899 1.05991 0
M  V30 1080 C 96.9616 -3.74239 2.26415 0
M  V30 1081 C 96.0206 -4.88841 1.94733 0
M  V30 1082 O 95.0466 -5.02468 2.67422 0
M  V30 1083 N 96.2486 -5.73261 0.913884 0
M  V30 1084 H 99.0136 -1.90934 2.31007 0
M  V30 1085 H 96.5746 -0.915102 1.33557 0
M  V30 1086 H 98.5666 -3.96136 0.828147 0
M  V30 1087 H 97.1366 -3.12091 0.178361 0
M  V30 1088 H 96.3566 -2.91347 2.65539 0
M  V30 1089 H 97.6446 -4.05942 3.06738 0
M  V30 1090 H 97.0426 -5.64842 0.311476 0
M  V30 1091 H 95.5996 -6.47563 0.742015 0
M  V30 1092 N 99.0327 -1.24633 -0.964593 0
M  V30 1093 C 99.9827 -1.00841 -2.04487 0
M  V30 1094 C 100.967 0.0512468 -1.60818 0
M  V30 1095 O 102.159 -0.162865 -1.76249 0
M  V30 1096 C 99.2877 -0.618474 -3.37683 0
M  V30 1097 C 98.3737 -1.71437 -3.87905 0
M  V30 1098 N 98.7647 -2.9477 -4.11029 0
M  V30 1099 C 97.0627 -1.5926 -4.16596 0
M  V30 1100 C 97.7637 -3.65834 -4.52261 0
M  V30 1101 N 96.7397 -2.9341 -4.57615 0
M  V30 1102 H 100.542 -1.94487 -2.20345 0
M  V30 1103 H 98.0557 -1.14805 -1.14863 0
M  V30 1104 H 100.053 -0.429247 -4.14684 0
M  V30 1105 H 98.7127 0.310766 -3.23209 0
M  V30 1106 H 99.7237 -3.30917 -3.9839 0
M  V30 1107 H 96.4007 -0.731606 -4.1104 0
M  V30 1108 H 97.7907 -4.71646 -4.78539 0
M  V30 1109 N 100.511 1.16574 -1.06058 0
M  V30 1110 C 101.76 1.86385 -0.770944 0
M  V30 1111 C 102.073 1.82448 0.705129 0
M  V30 1112 O 103.279 2.47815 1.10905 0
M  V30 1113 C 101.735 3.34466 -1.32893 0
M  V30 1114 C 101.343 3.46883 -2.83507 0
M  V30 1115 C 103.087 4.09548 -1.11672 0
M  V30 1116 C 100.994 4.89036 -3.32562 0
M  V30 1117 H 99.9238 0.698181 -0.284709 0
M  V30 1118 H 102.575 1.31583 -1.27899 0
M  V30 1119 H 100.957 3.88859 -0.748662 0
M  V30 1120 H 102.131 3.02663 -3.47465 0
M  V30 1121 H 100.446 2.85232 -3.03368 0
M  V30 1122 H 103.043 5.14434 -1.45814 0
M  V30 1123 H 103.386 4.16264 -0.0549535 0
M  V30 1124 H 103.919 3.61387 -1.66265 0
M  V30 1125 H 100.658 4.87499 -4.38207 0
M  V30 1126 H 100.178 5.3389 -2.73351 0
M  V30 1127 H 101.857 5.57843 -3.2775 0
M  V30 1128 N 101.989 0.842826 1.3317 0
M  V30 1129 C 103.229 0.446574 1.99462 0
M  V30 1130 C 103.593 -0.976818 1.65295 0
M  V30 1131 O 104.794 -1.477 2.24584 0
M  V30 1132 C 103.065 0.665353 3.51152 0
M  V30 1133 S 104.624 0.364911 4.3728 0
M  V30 1134 H 101.442 0.167803 0.690915 0
M  V30 1135 H 104.044 1.09297 1.62094 0
M  V30 1136 H 102.748 1.7006 3.73507 0
M  V30 1137 H 102.279 0.00494568 3.934 0
M  V30 1138 H 104.294 -0.813761 4.89482 0
M  V30 1139 N 103.467 -1.45747 0.599634 0
M  V30 1140 C 104.399 -2.28628 -0.161879 0
M  V30 1141 C 105.412 -1.39494 -0.839367 0
M  V30 1142 O 106.601 -1.63941 -0.706089 0
M  V30 1143 C 103.701 -3.15014 -1.24976 0
M  V30 1144 C 102.874 -4.32378 -0.660935 0
M  V30 1145 C 101.933 -5.00033 -1.63869 0
M  V30 1146 O 100.959 -5.57085 -1.1681 0
M  V30 1147 N 102.161 -4.98589 -2.97303 0
M  V30 1148 H 104.926 -2.94624 0.549265 0
M  V30 1149 H 102.487 -1.55847 0.438565 0
M  V30 1150 H 104.479 -3.5714 -1.9035 0
M  V30 1151 H 103.049 -2.5098 -1.86354 0
M  V30 1152 H 102.269 -3.9383 0.170688 0
M  V30 1153 H 103.557 -5.08197 -0.247619 0
M  V30 1154 H 102.955 -4.53514 -3.38145 0
M  V30 1155 H 101.512 -5.44603 -3.58121 0
M  V30 1156 N 104.945 -0.338344 -1.53925 0
M  V30 1157 C 105.875 0.51328 -2.27789 0
M  V30 1158 C 106.856 1.107 -1.29149 0
M  V30 1159 O 108.041 1.12937 -1.57984 0
M  V30 1160 C 105.171 1.66697 -3.04679 0
M  V30 1161 C 104.125 1.20183 -4.1078 0
M  V30 1162 C 103.451 2.44363 -4.75595 0
M  V30 1163 C 104.751 0.30605 -5.21403 0
M  V30 1164 H 106.445 -0.102883 -2.99223 0
M  V30 1165 H 103.991 -0.0509219 -1.4391 0
M  V30 1166 H 105.944 2.26915 -3.55088 0
M  V30 1167 H 104.668 2.30995 -2.30887 0
M  V30 1168 H 103.327 0.622499 -3.61276 0
M  V30 1169 H 102.975 3.07057 -3.98403 0
M  V30 1170 H 102.675 2.13925 -5.47275 0
M  V30 1171 H 104.199 3.05317 -5.28786 0
M  V30 1172 H 105.613 0.814929 -5.67478 0
M  V30 1173 H 104.01 0.0937929 -6.00027 0
M  V30 1174 H 105.08 -0.65921 -4.80398 0
M  V30 1175 N 106.423 1.57458 -0.0668435 0
M  V30 1176 C 107.653 1.97337 0.611677 0
M  V30 1177 C 108.061 0.943744 1.63982 0
M  V30 1178 O 107.404 -0.0785584 1.83532 0
M  V30 1179 C 107.466 3.33511 1.34205 0
M  V30 1180 C 107.13 4.54598 0.467941 0
M  V30 1181 C 108.127 5.19186 -0.272439 0
M  V30 1182 C 105.812 5.0075 0.39427 0
M  V30 1183 C 107.806 6.28274 -1.07476 0
M  V30 1184 C 105.493 6.09711 -0.411729 0
M  V30 1185 C 106.491 6.73335 -1.14492 0
M  V30 1186 O 106.179 7.80199 -1.93763 0
M  V30 1187 H 105.911 0.654042 0.170893 0
M  V30 1188 H 108.465 2.04961 -0.134289 0
M  V30 1189 H 106.695 3.22487 2.13398 0
M  V30 1190 H 108.384 3.58029 1.91233 0
M  V30 1191 H 109.15 4.84477 -0.225086 0
M  V30 1192 H 105.029 4.51009 0.954569 0
M  V30 1193 H 108.573 6.77866 -1.64755 0
M  V30 1194 H 104.47 6.43854 -0.460664 0
M  V30 1195 H 105.238 7.97053 -1.86142 0
M  V30 1196 N 107.901 -0.206675 1.56239 0
M  V30 1197 C 108.851 -1.26 1.90021 0
M  V30 1198 C 109.835 -1.41566 0.764721 0
M  V30 1199 O 111.027 -1.44131 1.02739 0
M  V30 1200 C 108.156 -2.6073 2.23326 0
M  V30 1201 C 107.242 -2.49005 3.43304 0
M  V30 1202 N 107.633 -2.06946 4.61527 0
M  V30 1203 C 105.931 -2.79927 3.47213 0
M  V30 1204 C 106.632 -2.06832 5.43687 0
M  V30 1205 N 105.608 -2.47892 4.83788 0
M  V30 1206 H 109.41 -0.925955 2.78932 0
M  V30 1207 H 106.924 -0.415172 1.57003 0
M  V30 1208 H 108.921 -3.36798 2.45708 0
M  V30 1209 H 107.581 -2.94968 1.35735 0
M  V30 1210 H 108.592 -1.77839 4.86409 0
M  V30 1211 H 105.269 -3.18438 2.70006 0
M  V30 1212 H 106.659 -1.76312 6.48354 0
M  V30 1213 N 109.379 -1.50304 -0.473955 0
M  V30 1214 C 110.625 -1.61389 -1.22806 0
M  V30 1215 C 110.958 -0.311955 -1.91678 0
M  V30 1216 O 110.233 0.686384 -1.81986 0
M  V30 1217 C 110.516 -2.79219 -2.27396 0
M  V30 1218 C 110.369 -4.19286 -1.62848 0
M  V30 1219 C 111.688 -2.92614 -3.28732 0
M  V30 1220 H 108.807 -0.587399 -0.445119 0
M  V30 1221 H 111.449 -1.82681 -0.522265 0
M  V30 1222 H 109.599 -2.61195 -2.87592 0
M  V30 1223 H 111.271 -4.48892 -1.06271 0
M  V30 1224 H 109.514 -4.23677 -0.931693 0
M  V30 1225 H 110.185 -4.97655 -2.38838 0
M  V30 1226 H 112.661 -3.09105 -2.78556 0
M  V30 1227 H 111.537 -3.76688 -3.99246 0
M  V30 1228 H 111.798 -2.03107 -3.92683 0
M  V30 1229 N 110.857 0.726932 -1.39834 0
M  V30 1230 C 111.787 1.85405 -1.41941 0
M  V30 1231 C 112.768 1.67751 -0.281728 0
M  V30 1232 O 113.953 1.8795 -0.488717 0
M  V30 1233 C 111.083 3.23243 -1.2701 0
M  V30 1234 C 110.037 3.55549 -2.38262 0
M  V30 1235 C 109.363 4.9241 -2.08415 0
M  V30 1236 C 110.663 3.577 -3.80589 0
M  V30 1237 H 112.357 1.83899 -2.36266 0
M  V30 1238 H 109.903 0.883349 -1.13723 0
M  V30 1239 H 111.856 4.01775 -1.27103 0
M  V30 1240 H 110.58 3.25296 -0.291564 0
M  V30 1241 H 109.239 2.79351 -2.37399 0
M  V30 1242 H 108.887 4.91052 -1.0898 0
M  V30 1243 H 108.587 5.14992 -2.82943 0
M  V30 1244 H 110.111 5.73289 -2.10171 0
M  V30 1245 H 111.525 4.26293 -3.83337 0
M  V30 1246 H 109.922 3.91804 -4.54543 0
M  V30 1247 H 110.992 2.57328 -4.10987 0
M  V30 1248 N 112.336 1.25143 0.95797 0
M  V30 1249 C 113.246 1.06968 2.08794 0
M  V30 1250 C 114.262 0.00773911 1.73998 0
M  V30 1251 O 115.438 0.207972 2.00323 0
M  V30 1252 C 112.503 0.68691 3.39827 0
M  V30 1253 C 111.564 1.82641 3.88511 0
M  V30 1254 C 110.797 1.46181 5.1329 0
M  V30 1255 O 111.02 0.355971 5.69288 0
M  V30 1256 O 109.954 2.29085 5.566 0
M  V30 1257 H 113.78 2.01723 2.27027 0
M  V30 1258 H 111.365 1.04051 1.07209 0
M  V30 1259 H 113.247 0.485417 4.18595 0
M  V30 1260 H 111.922 -0.231417 3.22872 0
M  V30 1261 H 110.829 2.08274 3.10762 0
M  V30 1262 H 112.162 2.72386 4.09959 0
M  V30 1263 N 113.814 -1.1601 1.06675 0
M  V30 1264 C 115.042 -1.90527 0.806667 0
M  V30 1265 C 115.457 -1.77643 -0.639396 0
M  V30 1266 O 114.814 -1.12369 -1.43803 0
M  V30 1267 C 114.865 -3.41106 1.19705 0
M  V30 1268 O 114.586 -3.53608 2.58636 0
M  V30 1269 C 116.087 -4.32663 0.965266 0
M  V30 1270 H 113.307 -0.604053 0.292166 0
M  V30 1271 H 115.851 -1.47026 1.4214 0
M  V30 1272 H 114.006 -3.82296 0.626774 0
M  V30 1273 H 114.42 -4.47011 2.74375 0
M  V30 1274 H 115.894 -5.36763 1.288 0
M  V30 1275 H 116.371 -4.39089 -0.0987936 0
M  V30 1276 H 116.977 -3.97206 1.52011 0
M  V30 1277 N 115.292 -0.849877 -1.32721 0
M  V30 1278 C 116.255 -0.296122 -2.27279 0
M  V30 1279 C 117.255 0.541458 -1.5141 0
M  V30 1280 O 118.445 0.353658 -1.70572 0
M  V30 1281 C 115.577 0.581579 -3.35902 0
M  V30 1282 H 116.77 -1.13064 -2.77771 0
M  V30 1283 H 114.323 -0.62383 -1.43311 0
M  V30 1284 H 115.058 1.43809 -2.9067 0
M  V30 1285 H 114.843 -0.0178814 -3.92096 0
M  V30 1286 H 116.333 0.961951 -4.0637 0
M  V30 1287 N 116.77 1.45427 -0.607355 0
M  V30 1288 C 117.718 2.32269 0.12411 0
M  V30 1289 C 118.712 1.45955 0.859854 0
M  V30 1290 O 119.918 1.6244 0.775447 0
M  V30 1291 H 116.293 0.749691 0.0588839 0
M  V30 1292 H 118.264 2.91743 -0.626762 0
M  V30 1293 C 117.013 3.29567 1.1082 0
M  V30 1294 H 116.336 3.95978 0.551492 0
M  V30 1295 H 117.776 3.93061 1.58995 0
M  V30 1296 C 116.235 2.56722 2.18164 0
M  V30 1297 O 116.765 2.34842 3.25902 0
M  V30 1298 N 114.971 2.16861 1.93442 0
M  V30 1299 H 114.518 2.34855 1.05834 0
M  V30 1300 H 114.476 1.68444 2.65469 0
M  V30 1301 N 118.248 0.346503 1.53744 0
M  V30 1302 C 119.195 -0.508914 2.25119 0
M  V30 1303 C 120.165 -1.09315 1.25058 0
M  V30 1304 O 121.35 -1.12921 1.53797 0
M  V30 1305 C 118.49 -1.65246 3.02965 0
M  V30 1306 C 117.603 -1.09525 4.17886 0
M  V30 1307 C 116.738 -2.20634 4.83212 0
M  V30 1308 C 115.777 -1.62279 5.90196 0
M  V30 1309 N 114.914 -2.67143 6.49291 0
M  V30 1310 H 119.754 0.106283 2.9781 0
M  V30 1311 H 117.291 0.0642227 1.4696 0
M  V30 1312 H 119.249 -2.32574 3.4636 0
M  V30 1313 H 117.879 -2.2386 2.32565 0
M  V30 1314 H 116.931 -0.312818 3.79112 0
M  V30 1315 H 118.243 -0.628444 4.94825 0
M  V30 1316 H 117.397 -2.95821 5.29693 0
M  V30 1317 H 116.136 -2.70659 4.05703 0
M  V30 1318 H 115.141 -0.855989 5.43096 0
M  V30 1319 H 116.366 -1.13102 6.69615 0
M  V30 1320 H 114.312 -3.16417 5.74645 0
M  V30 1321 H 114.229 -2.25093 7.21713 0
M  V30 1322 H 115.497 -3.4209 7.00425 0
M  V30 1323 N 119.726 -1.57421 0.075193 0
M  V30 1324 C 120.975 -1.92794 -0.592731 0
M  V30 1325 C 121.288 -0.957478 -1.70563 0
M  V30 1326 O 122.494 -1.20417 -2.43335 0
M  V30 1327 C 120.95 -3.42495 -1.10569 0
M  V30 1328 C 120.558 -4.47994 -0.0236121 0
M  V30 1329 C 122.302 -3.86864 -1.74748 0
M  V30 1330 C 120.209 -5.88829 -0.550803 0
M  V30 1331 H 119.139 -0.719591 -0.225177 0
M  V30 1332 H 121.79 -1.82902 0.147978 0
M  V30 1333 H 120.172 -3.47471 -1.89947 0
M  V30 1334 H 121.346 -4.54637 0.751099 0
M  V30 1335 H 119.661 -4.13113 0.522159 0
M  V30 1336 H 122.258 -4.8947 -2.15229 0
M  V30 1337 H 122.601 -3.24417 -2.60882 0
M  V30 1338 H 123.134 -3.84504 -1.01986 0
M  V30 1339 H 119.873 -6.54929 0.273457 0
M  V30 1340 H 119.393 -5.85698 -1.29296 0
M  V30 1341 H 121.072 -6.38811 -1.02613 0
M  V30 1342 N 121.204 0.198386 -1.56346 0
M  V30 1343 C 122.451 0.919286 -1.80431 0
M  V30 1344 C 122.779 1.83393 -0.647866 0
M  V30 1345 O 122.034 1.92236 0.366556 0
M  V30 1346 C 122.333 1.77031 -3.10475 0
M  V30 1347 C 121.999 1.00693 -4.39513 0
M  V30 1348 C 120.661 0.796145 -4.74568 0
M  V30 1349 C 123.013 0.469559 -5.19081 0
M  V30 1350 C 120.341 0.0364588 -5.86689 0
M  V30 1351 C 122.693 -0.2769 -6.31994 0
M  V30 1352 C 121.357 -0.49873 -6.65634 0
M  V30 1353 H 120.627 0.336391 -0.660244 0
M  V30 1354 H 123.274 0.185872 -1.90596 0
M  V30 1355 H 121.579 2.5723 -2.95533 0
M  V30 1356 H 123.276 2.33065 -3.26315 0
M  V30 1357 H 119.866 1.18122 -4.12001 0
M  V30 1358 H 124.05 0.619816 -4.92414 0
M  V30 1359 H 119.306 -0.145412 -6.11227 0
M  V30 1360 H 123.48 -0.700684 -6.92866 0
M  V30 1361 H 121.107 -1.0893 -7.52355 0
M  V30 1362 N 122.682 1.50554 0.465978 0
M  V30 1363 C 123.615 1.64436 1.58227 0
M  V30 1364 C 124.593 0.492367 1.54966 0
M  V30 1365 O 125.777 0.712536 1.74514 0
M  V30 1366 C 122.904 1.63165 2.96808 0
M  V30 1367 C 121.95 2.83987 3.18204 0
M  V30 1368 S 122.783 4.45219 2.97557 0
M  V30 1369 C 123.939 4.46649 4.3847 0
M  V30 1370 H 124.172 2.58861 1.46213 0
M  V30 1371 H 121.705 1.3988 0.653678 0
M  V30 1372 H 123.663 1.63116 3.76701 0
M  V30 1373 H 122.324 0.69967 3.06208 0
M  V30 1374 H 121.517 2.79416 4.19455 0
M  V30 1375 H 121.119 2.81629 2.46092 0
M  V30 1376 H 123.411 4.20526 5.31191 0
M  V30 1377 H 124.354 5.48295 4.48082 0
M  V30 1378 H 124.762 3.76296 4.20787 0
M  V30 1379 N 124.16 -0.719506 1.40217 0
M  V30 1380 C 125.406 -1.48152 1.38488 0
M  V30 1381 C 125.739 -1.94195 -0.0141867 0
M  V30 1382 O 125.014 -1.67884 -0.982096 0
M  V30 1383 C 125.297 -2.71035 2.37091 0
M  V30 1384 C 125.15 -2.30912 3.86005 0
M  V30 1385 C 126.469 -3.73182 2.33288 0
M  V30 1386 H 123.588 -0.537395 0.504357 0
M  V30 1387 H 126.23 -0.821472 1.71324 0
M  V30 1388 H 124.38 -3.27352 2.0922 0
M  V30 1389 H 126.052 -1.80107 4.24687 0
M  V30 1390 H 124.295 -1.62958 4.02029 0
M  V30 1391 H 124.966 -3.18978 4.50508 0
M  V30 1392 H 127.442 -3.26485 2.57966 0
M  V30 1393 H 126.318 -4.56806 3.04334 0
M  V30 1394 H 126.579 -4.21202 1.34317 0
M  V30 1395 N 125.638 -1.25649 -0.95132 0
M  V30 1396 C 126.568 -1.08808 -2.06599 0
M  V30 1397 C 127.549 0.00382547 -1.701 0
M  V30 1398 O 128.734 -0.166325 -1.93486 0
M  V30 1399 C 125.864 -0.709542 -3.39975 0
M  V30 1400 C 124.818 -1.75206 -3.90496 0
M  V30 1401 C 124.144 -1.22811 -5.20405 0
M  V30 1402 C 125.444 -3.15153 -4.16504 0
M  V30 1403 H 127.138 -2.02048 -2.20946 0
M  V30 1404 H 124.684 -0.972835 -1.06169 0
M  V30 1405 H 126.637 -0.578649 -4.17408 0
M  V30 1406 H 125.361 0.258556 -3.25575 0
M  V30 1407 H 124.02 -1.87145 -3.15234 0
M  V30 1408 H 123.668 -0.250145 -5.02378 0
M  V30 1409 H 123.368 -1.92492 -5.55176 0
M  V30 1410 H 124.892 -1.10968 -6.00432 0
M  V30 1411 H 126.306 -3.06349 -4.84586 0
M  V30 1412 H 124.703 -3.82333 -4.62538 0
M  V30 1413 H 125.773 -3.61966 -3.22658 0
M  V30 1414 N 127.117 1.15442 -1.07289 0
M  V30 1415 C 128.027 2.23786 -0.704057 0
M  V30 1416 C 129.043 1.7166 0.284413 0
M  V30 1417 O 130.219 2.00972 0.131205 0
M  V30 1418 C 127.284 3.46535 -0.106792 0
M  V30 1419 C 126.345 4.13654 -1.14842 0
M  V30 1420 C 125.578 5.30544 -0.57956 0
M  V30 1421 O 125.801 5.67187 0.604585 0
M  V30 1422 O 124.735 5.87154 -1.32414 0
M  V30 1423 H 128.561 2.57664 -1.60757 0
M  V30 1424 H 126.146 1.23152 -0.845803 0
M  V30 1425 H 128.028 4.20804 0.224048 0
M  V30 1426 H 126.703 3.14407 0.770049 0
M  V30 1427 H 125.61 3.4131 -1.5316 0
M  V30 1428 H 126.943 4.49861 -1.99714 0
M  V30 1429 N 128.595 0.856903 1.32268 0
M  V30 1430 C 129.825 0.47475 2.01071 0
M  V30 1431 C 130.233 -0.933746 1.64553 0
M  V30 1432 O 129.576 -1.62114 0.863989 0
M  V30 1433 C 129.638 0.536746 3.55471 0
M  V30 1434 C 129.302 1.90453 4.15423 0
M  V30 1435 C 130.299 2.87029 4.33486 0
M  V30 1436 C 127.984 2.20229 4.51447 0
M  V30 1437 C 129.978 4.11532 4.86744 0
M  V30 1438 C 127.665 3.44984 5.0441 0
M  V30 1439 C 128.663 4.40452 5.22007 0
M  V30 1440 O 128.351 5.62998 5.73837 0
M  V30 1441 H 128.083 0.184778 0.650256 0
M  V30 1442 H 130.637 1.15615 1.69771 0
M  V30 1443 H 128.867 -0.20152 3.86175 0
M  V30 1444 H 130.556 0.169875 4.05544 0
M  V30 1445 H 131.322 2.6533 4.05986 0
M  V30 1446 H 127.201 1.46705 4.37034 0
M  V30 1447 H 130.745 4.86056 5.00395 0
M  V30 1448 H 126.642 3.66532 5.31342 0
M  V30 1449 H 127.41 5.64987 5.92226 0
M  V30 1450 N 130.073 -1.45103 0.615059 0
M  V30 1451 C 131.313 -2.04069 0.116282 0
M  V30 1452 C 131.677 -1.4721 -1.2326 0
M  V30 1453 O 132.878 -1.97577 -1.82255 0
M  V30 1454 C 131.149 -3.57298 0.085482 0
M  V30 1455 S 132.708 -4.37394 -0.351015 0
M  V30 1456 H 129.526 -0.709006 0.0532183 0
M  V30 1457 H 132.128 -1.77709 0.81484 0
M  V30 1458 H 130.832 -3.9619 1.0706 0
M  V30 1459 H 130.363 -3.88244 -0.634835 0
M  V30 1460 H 132.378 -4.69734 -1.59889 0
M  V30 1461 N 131.551 -0.354651 -1.53558 0
M  V30 1462 C 132.962 0.126902 -1.86268 0
M  V30 1463 C 133.313 1.49075 -1.27558 0
M  V30 1464 O 132.438 2.08105 -0.5934 0
M  V30 1465 C 133.033 0.237046 -3.3797 0
M  V30 1466 C 131.592 0.662842 -3.70518 0
M  V30 1467 C 130.739 -0.196652 -2.76602 0
M  V30 1468 H 133.69 -0.573849 -1.47962 0
M  V30 1469 H 133.711 1.06259 -3.65362 0
M  V30 1470 H 133.223 -0.755725 -3.80671 0
M  V30 1471 H 131.324 1.66424 -3.33367 0
M  V30 1472 H 131.437 0.445034 -4.77029 0
M  V30 1473 H 129.801 0.332763 -2.52517 0
M  V30 1474 H 130.584 -1.18676 -3.22135 0
M  V30 1475 N 133.029 1.57378 -0.0835403 0
M  V30 1476 C 134.277 1.93547 0.581718 0
M  V30 1477 C 134.598 0.96524 1.69435 0
M  V30 1478 O 133.868 0.0153369 1.95894 0
M  V30 1479 H 132.448 0.714521 0.217874 0
M  V30 1480 H 135.11 1.94366 -0.144158 0
M  V30 1481 H 134.206 2.95665 0.999423 0
M  V30 1482 N 134.507 -0.190092 1.56449 0
M  V30 1483 C 135.755 -0.907908 1.80559 0
M  V30 1484 C 136.076 -1.83583 0.657438 0
M  V30 1485 O 135.346 -1.93203 -0.323924 0
M  V30 1486 H 133.926 -0.338247 0.666032 0
M  V30 1487 H 136.588 -0.194403 1.93928 0
M  V30 1488 H 135.684 -1.49604 2.73907 0
M  V30 1489 N 135.985 -1.50799 -0.457987 0
M  V30 1490 C 136.895 -1.73426 -1.57989 0
M  V30 1491 C 137.911 -0.617745 -1.62665 0
M  V30 1492 O 139.087 -0.897614 -1.80291 0
M  V30 1493 C 136.152 -1.83557 -2.94122 0
M  V30 1494 C 135.213 -3.07345 -2.99729 0
M  V30 1495 C 134.446 -3.16983 -4.29368 0
M  V30 1496 O 134.669 -2.33077 -5.20607 0
M  V30 1497 O 133.603 -4.09812 -4.40837 0
M  V30 1498 H 137.429 -2.68555 -1.41817 0
M  V30 1499 H 135.014 -1.35052 -0.638859 0
M  V30 1500 H 136.896 -1.92326 -3.74952 0
M  V30 1501 H 135.571 -0.916137 -3.10465 0
M  V30 1502 H 134.478 -3.04068 -2.1793 0
M  V30 1503 H 135.811 -3.9891 -2.88326 0
M  V30 1504 N 137.463 0.71206 -1.40597 0
M  V30 1505 C 138.393 1.83889 -1.43899 0
M  V30 1506 C 139.374 1.67442 -0.299504 0
M  V30 1507 O 140.559 1.87421 -0.508624 0
M  V30 1508 C 137.689 3.21877 -1.30431 0
M  V30 1509 C 136.643 3.53002 -2.42019 0
M  V30 1510 C 135.969 4.90172 -2.13626 0
M  V30 1511 C 137.269 3.53643 -3.84362 0
M  V30 1512 H 138.963 1.81383 -2.38203 0
M  V30 1513 H 136.509 0.871237 -1.14654 0
M  V30 1514 H 138.462 4.00404 -1.31357 0
M  V30 1515 H 137.186 3.24968 -0.326049 0
M  V30 1516 H 135.845 2.76818 -2.40349 0
M  V30 1517 H 135.493 4.89869 -1.14182 0
M  V30 1518 H 135.193 5.11962 -2.88389 0
M  V30 1519 H 136.717 5.71028 -2.1624 0
M  V30 1520 H 138.131 4.22203 -3.87837 0
M  V30 1521 H 136.528 3.86961 -4.58673 0
M  V30 1522 H 137.598 2.52954 -4.13693 0
M  V30 1523 N 138.941 1.26152 0.944643 0
M  V30 1524 C 140.188 1.11492 1.69044 0
M  V30 1525 C 140.516 -0.342366 1.91463 0
M  V30 1526 O 139.771 -1.26812 1.49054 0
M  V30 1527 C 140.07 1.82541 3.07268 0
M  V30 1528 C 139.736 3.32445 3.04616 0
M  V30 1529 C 138.398 3.73337 3.036 0
M  V30 1530 C 140.75 4.28171 2.97185 0
M  V30 1531 C 138.078 5.08348 2.92915 0
M  V30 1532 C 140.43 5.63218 2.88041 0
M  V30 1533 C 139.094 6.03426 2.85366 0
M  V30 1534 H 138.364 0.407977 0.618576 0
M  V30 1535 H 141.011 1.56551 1.10291 0
M  V30 1536 H 139.316 1.29941 3.69625 0
M  V30 1537 H 141.013 1.68642 3.63815 0
M  V30 1538 H 137.603 2.99915 3.06185 0
M  V30 1539 H 141.787 3.97563 2.97081 0
M  V30 1540 H 137.043 5.38667 2.89219 0
M  V30 1541 H 141.217 6.37078 2.81254 0
M  V30 1542 H 138.844 7.07999 2.76842 0
M  V30 1543 N 140.419 -1.14872 1.07899 0
M  V30 1544 C 141.696 -1.81928 0.71845 0
M  V30 1545 C 142.076 -1.95417 -0.798455 0
M  V30 1546 O 141.424 -1.50997 -1.715 0
M  V30 1547 C 141.634 -3.17937 1.43935 0
M  V30 1548 C 142.982 -3.93501 1.59506 0
M  V30 1549 O 144.006 -3.27509 1.40058 0
M  V30 1550 O 142.865 -5.1183 1.91551 0
M  V30 1551 H 139.959 -0.78628 0.256305 0
M  V30 1552 H 142.505 -1.21934 1.18026 0
M  V30 1553 H 141.277 -3.0325 2.47295 0
M  V30 1554 H 140.9 -3.85619 0.968687 0
M  V30 1555 N 141.898 -0.863906 -1.31812 0
M  V30 1556 C 143.128 -0.485406 -2.00817 0
M  V30 1557 C 143.536 0.925007 -1.65046 0
M  V30 1558 O 142.879 1.61653 -0.872574 0
M  V30 1559 C 142.941 -0.555589 -3.55181 0
M  V30 1560 C 142.605 -1.92654 -4.14407 0
M  V30 1561 C 143.602 -2.89324 -4.31958 0
M  V30 1562 C 141.287 -2.2262 -4.50273 0
M  V30 1563 C 143.281 -4.14108 -4.84555 0
M  V30 1564 C 140.968 -3.47654 -5.02573 0
M  V30 1565 C 141.966 -4.43214 -5.19664 0
M  V30 1566 O 141.654 -5.66033 -5.70843 0
M  V30 1567 H 141.386 -0.188224 -0.649267 0
M  V30 1568 H 143.94 -1.16514 -1.69156 0
M  V30 1569 H 142.17 0.181037 -3.86276 0
M  V30 1570 H 143.859 -0.19138 -4.05449 0
M  V30 1571 H 144.625 -2.6748 -4.04573 0
M  V30 1572 H 140.504 -1.4902 -4.3625 0
M  V30 1573 H 144.048 -4.88703 -4.9781 0
M  V30 1574 H 139.945 -3.69345 -5.29391 0
M  V30 1575 H 140.713 -5.6812 -5.89222 0
M  V30 1576 N 143.376 1.44774 -0.622745 0
M  V30 1577 C 144.625 2.01334 -0.121397 0
M  V30 1578 C 144.938 1.49505 1.26125 0
M  V30 1579 O 146.144 1.98139 1.85616 0
M  V30 1580 C 144.6 3.59516 -0.166298 0
M  V30 1581 C 144.208 4.20342 -1.54974 0
M  V30 1582 C 145.952 4.23582 0.279021 0
M  V30 1583 C 143.859 5.70721 -1.55021 0
M  V30 1584 H 142.789 0.752851 -0.0416172 0
M  V30 1585 H 145.44 1.66083 -0.780309 0
M  V30 1586 H 143.822 3.92027 0.559557 0
M  V30 1587 H 144.996 3.99381 -2.29851 0
M  V30 1588 H 143.311 3.68529 -1.93843 0
M  V30 1589 H 145.908 5.33868 0.298083 0
M  V30 1590 H 146.251 3.95327 1.30471 0
M  V30 1591 H 146.784 3.95843 -0.394063 0
M  V30 1592 H 143.523 6.03698 -2.55399 0
M  V30 1593 H 143.043 5.93829 -0.844245 0
M  V30 1594 H 144.722 6.34203 -1.28047 0
M  V30 1595 N 144.854 0.36279 1.53368 0
M  V30 1596 C 146.103 -0.22888 2.00397 0
M  V30 1597 C 146.416 -1.50096 1.25421 0
M  V30 1598 O 147.622 -2.17106 1.63025 0
M  V30 1599 C 146.078 -0.458417 3.56969 0
M  V30 1600 C 145.686 0.798877 4.4082 0
M  V30 1601 C 147.43 -1.00789 4.12361 0
M  V30 1602 C 145.337 0.539078 5.88938 0
M  V30 1603 H 144.267 -0.089305 0.748693 0
M  V30 1604 H 146.918 0.481099 1.77081 0
M  V30 1605 H 145.3 -1.22959 3.76427 0
M  V30 1606 H 146.474 1.57262 4.33134 0
M  V30 1607 H 144.789 1.27137 3.96516 0
M  V30 1608 H 147.386 -1.21754 5.20653 0
M  V30 1609 H 147.729 -1.9692 3.66781 0
M  V30 1610 H 148.262 -0.296961 3.9669 0
M  V30 1611 H 145.001 1.47064 6.3879 0
M  V30 1612 H 144.521 -0.196222 5.99479 0
M  V30 1613 H 146.2 0.163542 6.46793 0
M  V30 1614 N 146.332 -1.57332 0.0918853 0
M  V30 1615 C 147.557 -1.98995 -0.584442 0
M  V30 1616 C 147.982 -0.970528 -1.61128 0
M  V30 1617 O 147.34 0.0613904 -1.81196 0
M  V30 1618 C 147.388 -3.39636 -1.21161 0
M  V30 1619 O 146.492 -3.40447 -2.32744 0
M  V30 1620 H 145.833 -0.647165 -0.148572 0
M  V30 1621 H 148.363 -2.03873 0.172347 0
M  V30 1622 H 148.373 -3.7726 -1.55367 0
M  V30 1623 H 147.048 -4.13356 -0.459313 0
M  V30 1624 H 145.625 -3.14614 -2.0018 0
M  V30 1625 N 147.81 0.181792 -1.56548 0
M  V30 1626 C 148.742 1.24956 -1.92142 0
M  V30 1627 C 149.755 1.41022 -0.813422 0
M  V30 1628 O 150.944 1.41212 -1.09186 0
M  V30 1629 C 148.044 2.61981 -2.14987 0
M  V30 1630 C 147.217 2.6735 -3.46183 0
M  V30 1631 C 146.276 3.85664 -3.5798 0
M  V30 1632 O 145.302 3.72148 -4.30691 0
M  V30 1633 N 146.504 5.01683 -2.92053 0
M  V30 1634 H 149.269 0.947329 -2.84334 0
M  V30 1635 H 146.83 0.371629 -1.57577 0
M  V30 1636 H 148.822 3.3958 -2.20154 0
M  V30 1637 H 147.392 2.84637 -1.2923 0
M  V30 1638 H 146.612 1.75925 -3.52766 0
M  V30 1639 H 147.9 2.67939 -4.32534 0
M  V30 1640 H 147.298 5.15564 -2.32832 0
M  V30 1641 H 145.855 5.77181 -3.0283 0
M  V30 1642 N 149.288 1.51039 0.449983 0
M  V30 1643 C 150.565 1.53612 1.21089 0
M  V30 1644 C 150.945 0.292997 2.09057 0
M  V30 1645 O 150.293 -0.72259 2.16774 0
M  V30 1646 C 150.503 2.84337 2.0237 0
M  V30 1647 C 151.851 3.35807 2.59843 0
M  V30 1648 O 152.875 2.85802 2.12593 0
M  V30 1649 O 151.734 4.23029 3.45989 0
M  V30 1650 H 148.828 0.617057 0.550608 0
M  V30 1651 H 151.374 1.63344 0.460082 0
M  V30 1652 H 150.146 3.66278 1.37681 0
M  V30 1653 H 149.769 2.77708 2.84542 0
M  V30 1654 N 150.766 -0.704594 1.40972 0
M  V30 1655 C 152.182 -1.01406 1.23244 0
M  V30 1656 C 152.382 -2.01169 0.115399 0
M  V30 1657 O 151.438 -2.47021 -0.523147 0
M  V30 1658 C 152.751 -1.54728 2.57836 0
M  V30 1659 C 154.299 -1.66658 2.64942 0
M  V30 1660 C 154.774 -2.23383 3.9983 0
M  V30 1661 N 156.265 -2.30756 4.01629 0
M  V30 1662 C 157 -2.75655 5.02794 0
M  V30 1663 N 156.496 -3.20225 6.14352 0
M  V30 1664 N 158.289 -2.75138 4.90159 0
M  V30 1665 H 150.44 -0.0435285 2.12355 0
M  V30 1666 H 152.703 -0.0818951 0.944456 0
M  V30 1667 H 152.409 -0.888832 3.40283 0
M  V30 1668 H 152.283 -2.53084 2.79693 0
M  V30 1669 H 154.67 -2.31617 1.8286 0
M  V30 1670 H 154.751 -0.668717 2.46904 0
M  V30 1671 H 154.395 -1.59043 4.82357 0
M  V30 1672 H 154.325 -3.23904 4.15203 0
M  V30 1673 H 156.816 -1.99291 3.21079 0
M  V30 1674 H 157.129 -3.53084 6.87424 0
M  V30 1675 H 155.474 -3.18156 6.17901 0
M  V30 1676 H 158.665 -2.39661 4.02095 0
M  V30 1677 H 158.838 -3.09812 5.6914 0
M  V30 1678 N 152.244 -1.26651 -0.937939 0
M  V30 1679 C 153.174 -1.10993 -2.05433 0
M  V30 1680 C 154.155 -0.0142161 -1.70094 0
M  V30 1681 O 155.34 -0.186837 -1.93299 0
M  V30 1682 C 152.47 -0.745561 -3.39203 0
M  V30 1683 C 151.424 -1.79337 -3.88616 0
M  V30 1684 C 150.75 -1.28324 -5.19073 0
M  V30 1685 C 152.05 -3.19553 -4.13138 0
M  V30 1686 H 153.744 -2.0438 -2.1879 0
M  V30 1687 H 151.29 -0.984041 -1.05131 0
M  V30 1688 H 153.243 -0.622888 -4.16771 0
M  V30 1689 H 151.967 0.22401 -3.25831 0
M  V30 1690 H 150.626 -1.90477 -3.13231 0
M  V30 1691 H 150.274 -0.303414 -5.02084 0
M  V30 1692 H 149.974 -1.98369 -5.53103 0
M  V30 1693 H 151.498 -1.1733 -5.99221 0
M  V30 1694 H 152.912 -3.11471 -4.81309 0
M  V30 1695 H 151.309 -3.87218 -4.58457 0
M  V30 1696 H 152.379 -3.65368 -3.18801 0
M  V30 1697 N 153.722 1.14298 -1.08507 0
M  V30 1698 C 154.947 1.8976 -0.837001 0
M  V30 1699 C 155.372 1.78097 0.605228 0
M  V30 1700 O 154.73 1.12188 1.4242 0
M  V30 1701 C 154.778 3.37685 -1.26495 0
M  V30 1702 O 153.882 4.10281 -0.417514 0
M  V30 1703 H 153.223 0.590365 -0.303917 0
M  V30 1704 H 155.753 1.44672 -1.44676 0
M  V30 1705 H 155.763 3.88501 -1.24625 0
M  V30 1706 H 154.438 3.45492 -2.31534 0
M  V30 1707 H 153.015 3.69536 -0.499722 0
M  V30 1708 N 155.201 0.870884 1.31352 0
M  V30 1709 C 156.111 0.330783 2.32256 0
M  V30 1710 C 157.127 -0.559767 1.6475 0
M  V30 1711 O 158.303 -0.456263 1.96164 0
M  V30 1712 C 155.368 -0.458137 3.4366 0
M  V30 1713 C 154.429 0.460482 4.26823 0
M  V30 1714 C 153.662 -0.290881 5.32907 0
M  V30 1715 O 153.885 -1.51885 5.49806 0
M  V30 1716 O 152.819 0.351732 6.00871 0
M  V30 1717 H 156.645 1.16718 2.80376 0
M  V30 1718 H 154.23 0.634285 1.35267 0
M  V30 1719 H 156.112 -0.905343 4.1156 0
M  V30 1720 H 154.787 -1.27106 2.97701 0
M  V30 1721 H 153.694 0.956207 3.61673 0
M  V30 1722 H 155.027 1.23903 4.7635 0
M  V30 1723 N 156.679 -1.44442 0.630414 0
M  V30 1724 C 157.589 -2.34476 -0.0761693 0
M  V30 1725 C 158.605 -1.52576 -0.836449 0
M  V30 1726 O 159.781 -1.85307 -0.788874 0
M  V30 1727 C 156.846 -3.30545 -1.04599 0
M  V30 1728 C 155.907 -4.28352 -0.28516 0
M  V30 1729 C 155.14 -5.19831 -1.20878 0
M  V30 1730 O 155.363 -5.15223 -2.44747 0
M  V30 1731 O 154.297 -5.97892 -0.693491 0
M  V30 1732 H 158.123 -2.96345 0.664324 0
M  V30 1733 H 155.708 -1.44203 0.39061 0
M  V30 1734 H 157.59 -3.89681 -1.60396 0
M  V30 1735 H 156.265 -2.7121 -1.76711 0
M  V30 1736 H 155.172 -3.72764 0.315837 0
M  V30 1737 H 156.505 -4.90605 0.395924 0
M  V30 1738 N 158.157 -0.370918 -1.53173 0
M  V30 1739 C 159.067 0.480823 -2.2962 0
M  V30 1740 C 160.083 1.08789 -1.35798 0
M  V30 1741 O 161.259 1.09768 -1.68858 0
M  V30 1742 C 158.324 1.60227 -3.07454 0
M  V30 1743 C 157.385 1.0222 -4.16953 0
M  V30 1744 C 156.618 2.0902 -4.91066 0
M  V30 1745 O 156.841 3.30222 -4.65091 0
M  V30 1746 O 155.775 1.71778 -5.76867 0
M  V30 1747 H 159.601 -0.141421 -3.03371 0
M  V30 1748 H 157.186 -0.135146 -1.48787 0
M  V30 1749 H 159.068 2.25417 -3.56041 0
M  V30 1750 H 157.743 2.20982 -2.36535 0
M  V30 1751 H 156.65 0.334064 -3.72605 0
M  V30 1752 H 157.983 0.459131 -4.90054 0
M  V30 1753 N 159.635 1.57281 -0.100228 0
M  V30 1754 C 160.863 1.98879 0.570509 0
M  V30 1755 C 161.278 0.979476 1.61405 0
M  V30 1756 O 160.635 -0.0302288 1.82475 0
M  V30 1757 C 160.686 3.4052 1.2136 0
M  V30 1758 O 160.407 4.37588 0.211786 0
M  V30 1759 C 161.908 3.97149 1.96945 0
M  V30 1760 H 159.128 0.653428 0.152555 0
M  V30 1761 H 161.672 2.03697 -0.18103 0
M  V30 1762 H 159.827 3.367 1.91603 0
M  V30 1763 H 160.241 5.20118 0.676607 0
M  V30 1764 H 161.715 4.98393 2.37294 0
M  V30 1765 H 162.192 3.3525 2.83733 0
M  V30 1766 H 162.798 4.04458 1.31506 0
M  V30 1767 N 161.113 -0.173488 1.56642 0
M  V30 1768 C 162.529 -0.525174 1.50712 0
M  V30 1769 C 162.729 -1.8476 0.804107 0
M  V30 1770 O 161.785 -2.49869 0.363574 0
M  V30 1771 C 163.098 -0.559937 2.95441 0
M  V30 1772 C 164.646 -0.647288 3.06234 0
M  V30 1773 C 165.121 -0.712963 4.52417 0
M  V30 1774 N 166.612 -0.775911 4.56655 0
M  V30 1775 C 167.347 -0.847264 5.67106 0
M  V30 1776 N 166.843 -0.879585 6.87194 0
M  V30 1777 N 168.636 -0.886117 5.55071 0
M  V30 1778 H 160.787 0.693681 2.00753 0
M  V30 1779 H 163.05 0.249841 0.914485 0
M  V30 1780 H 162.756 0.343049 3.50023 0
M  V30 1781 H 162.63 -1.40718 3.49969 0
M  V30 1782 H 165.017 -1.5407 2.51687 0
M  V30 1783 H 165.098 0.226586 2.54794 0
M  V30 1784 H 164.742 0.176183 5.07594 0
M  V30 1785 H 164.672 -1.60295 5.0161 0
M  V30 1786 H 167.163 -0.759304 3.70193 0
M  V30 1787 H 167.476 -0.935144 7.67121 0
M  V30 1788 H 165.821 -0.847898 6.89808 0
M  V30 1789 H 169.012 -0.857853 4.60172 0
M  V30 1790 H 169.185 -0.938263 6.41171 0
M  V30 1791 N 162.591 -1.51276 -0.441967 0
M  V30 1792 C 163.837 -1.63958 -1.19355 0
M  V30 1793 C 164.17 -0.352543 -1.90973 0
M  V30 1794 O 163.445 0.647627 -1.83401 0
M  V30 1795 C 163.728 -2.83979 -2.21422 0
M  V30 1796 C 163.581 -4.22646 -1.53918 0
M  V30 1797 C 164.9 -2.99521 -3.22451 0
M  V30 1798 H 162.019 -0.596709 -0.432559 0
M  V30 1799 H 164.661 -1.83748 -0.483398 0
M  V30 1800 H 162.811 -2.67237 -2.81987 0
M  V30 1801 H 164.483 -4.51045 -0.967256 0
M  V30 1802 H 162.726 -4.25558 -0.841615 0
M  V30 1803 H 163.397 -5.02609 -2.28229 0
M  V30 1804 H 165.873 -3.14944 -2.71937 0
M  V30 1805 H 164.749 -3.85072 -3.91166 0
M  V30 1806 H 165.01 -2.11391 -3.88287 0
M  V30 1807 N 164.069 0.697108 -1.41344 0
M  V30 1808 C 165.315 1.4593 -1.40827 0
M  V30 1809 C 165.648 1.94193 -0.0167098 0
M  V30 1810 O 164.923 1.69425 0.955263 0
M  V30 1811 C 165.206 2.67229 -2.41373 0
M  V30 1812 C 165.059 2.24741 -3.8963 0
M  V30 1813 C 166.378 3.69423 -2.39196 0
M  V30 1814 H 163.497 0.529303 -0.512842 0
M  V30 1815 H 166.139 0.794112 -1.72609 0
M  V30 1816 H 164.289 3.23982 -2.14401 0
M  V30 1817 H 165.961 1.73327 -4.27499 0
M  V30 1818 H 164.204 1.56542 -4.0457 0
M  V30 1819 H 164.875 3.1177 -4.55525 0
M  V30 1820 H 167.351 3.2234 -2.63128 0
M  V30 1821 H 166.227 4.51907 -3.11563 0
M  V30 1822 H 166.488 4.19012 -1.41001 0
M  V30 1823 N 165.547 1.27147 0.931209 0
M  V30 1824 C 166.794 1.13278 1.67852 0
M  V30 1825 C 167.122 -0.32204 1.91815 0
M  V30 1826 O 166.377 -1.25224 1.50391 0
M  V30 1827 C 166.676 1.8579 3.05314 0
M  V30 1828 C 166.342 3.35657 3.01073 0
M  V30 1829 C 165.004 3.76536 2.99623 0
M  V30 1830 C 167.356 4.31299 2.92627 0
M  V30 1831 C 164.684 5.11426 2.87506 0
M  V30 1832 C 167.036 5.66242 2.82051 0
M  V30 1833 C 165.7 6.06418 2.7895 0
M  V30 1834 H 164.97 0.414515 0.614214 0
M  V30 1835 H 167.617 1.57712 1.08624 0
M  V30 1836 H 165.922 1.33854 3.68226 0
M  V30 1837 H 167.619 1.72491 3.62005 0
M  V30 1838 H 164.209 3.03146 3.02986 0
M  V30 1839 H 168.393 4.00692 2.92848 0
M  V30 1840 H 163.649 5.41705 2.83489 0
M  V30 1841 H 167.823 6.40026 2.74481 0
M  V30 1842 H 165.45 7.10895 2.69318 0
M  V30 1843 N 167.025 -1.13721 1.09112 0
M  V30 1844 C 168.441 -1.36914 0.820174 0
M  V30 1845 C 168.641 -1.93356 -0.567079 0
M  V30 1846 O 167.697 -2.15093 -1.32255 0
M  V30 1847 C 169.01 -2.3235 1.90877 0
M  V30 1848 C 170.558 -2.45973 1.93562 0
M  V30 1849 C 171.033 -3.44714 3.01556 0
M  V30 1850 N 172.524 -3.52263 3.00775 0
M  V30 1851 C 173.259 -4.28536 3.80978 0
M  V30 1852 N 172.755 -5.07991 4.71081 0
M  V30 1853 N 174.548 -4.23804 3.69251 0
M  V30 1854 H 166.699 -0.754348 1.98553 0
M  V30 1855 H 168.962 -0.3944 0.862063 0
M  V30 1856 H 168.668 -1.98027 2.90651 0
M  V30 1857 H 168.542 -3.32332 1.78424 0
M  V30 1858 H 170.929 -2.79584 0.944286 0
M  V30 1859 H 171.01 -1.45926 2.10093 0
M  V30 1860 H 170.654 -3.11835 4.00901 0
M  V30 1861 H 170.584 -4.44558 2.82269 0
M  V30 1862 H 173.075 -2.95567 2.35475 0
M  V30 1863 H 173.388 -5.63487 5.28869 0
M  V30 1864 H 171.733 -5.07235 4.75119 0
M  V30 1865 H 174.924 -3.60806 2.98222 0
M  V30 1866 H 175.097 -4.82995 4.31995 0
M  V30 1867 N 168.503 -0.877838 -1.30888 0
M  V30 1868 C 169.435 -0.296607 -2.27273 0
M  V30 1869 C 170.448 0.544799 -1.53414 0
M  V30 1870 O 171.637 0.365511 -1.74718 0
M  V30 1871 C 168.737 0.597481 -3.33592 0
M  V30 1872 C 167.91 -0.213251 -4.3688 0
M  V30 1873 C 166.969 0.610208 -5.2265 0
M  V30 1874 O 165.995 0.035441 -5.69189 0
M  V30 1875 N 167.197 1.92071 -5.47804 0
M  V30 1876 H 169.962 -1.12492 -2.77787 0
M  V30 1877 H 167.523 -0.740105 -1.43993 0
M  V30 1878 H 169.515 1.15425 -3.87891 0
M  V30 1879 H 168.085 1.32647 -2.83061 0
M  V30 1880 H 167.305 -0.951466 -3.82545 0
M  V30 1881 H 168.593 -0.769262 -5.02951 0
M  V30 1882 H 167.991 2.4107 -5.11763 0
M  V30 1883 H 166.548 2.42508 -6.05007 0
M  V30 1884 N 169.982 1.44106 -0.638065 0
M  V30 1885 C 171.231 2.01194 -0.142744 0
M  V30 1886 C 171.544 1.50835 1.24532 0
M  V30 1887 O 172.75 2.00096 1.83504 0
M  V30 1888 C 171.206 3.59319 -0.20442 0
M  V30 1889 C 170.814 4.18674 -1.59423 0
M  V30 1890 C 172.558 4.23854 0.234079 0
M  V30 1891 C 170.465 5.69045 -1.61065 0
M  V30 1892 H 169.395 0.752367 -0.0495998 0
M  V30 1893 H 172.046 1.65246 -0.797881 0
M  V30 1894 H 170.428 3.92598 0.517946 0
M  V30 1895 H 171.602 3.96921 -2.34074 0
M  V30 1896 H 169.917 3.66453 -1.97741 0
M  V30 1897 H 172.514 5.34155 0.241443 0
M  V30 1898 H 172.857 3.96688 1.2627 0
M  V30 1899 H 173.39 3.95403 -0.436025 0
M  V30 1900 H 170.129 6.00956 -2.61787 0
M  V30 1901 H 169.649 5.929 -0.90718 0
M  V30 1902 H 171.328 6.32809 -1.34766 0
M  V30 1903 N 171.46 0.379036 1.52974 0
M  V30 1904 C 172.706 -0.206727 2.01744 0
M  V30 1905 C 173.039 -1.47314 1.26539 0
M  V30 1906 O 172.314 -1.91084 0.362903 0
M  V30 1907 C 172.597 -0.485066 3.56818 0
M  V30 1908 C 172.45 0.795919 4.42702 0
M  V30 1909 C 173.769 -1.28003 4.21074 0
M  V30 1910 H 170.888 -0.0736607 0.73331 0
M  V30 1911 H 173.53 0.506581 1.83122 0
M  V30 1912 H 171.68 -1.09272 3.72816 0
M  V30 1913 H 173.352 1.43307 4.38476 0
M  V30 1914 H 171.595 1.41344 4.10127 0
M  V30 1915 H 172.266 0.555947 5.49193 0
M  V30 1916 H 174.742 -0.765867 4.08991 0
M  V30 1917 H 173.618 -1.44352 5.29579 0
M  V30 1918 H 173.879 -2.29236 3.78026 0
M  V30 1919 N 172.938 -1.57226 0.108567 0
M  V30 1920 C 174.163 -1.99604 -0.563303 0
M  V30 1921 C 174.588 -0.987563 -1.6009 0
M  V30 1922 O 173.946 0.0421687 -1.81251 0
M  V30 1923 C 173.994 -3.40902 -1.17552 0
M  V30 1924 O 173.098 -3.42896 -2.2912 0
M  V30 1925 H 172.439 -0.648704 -0.1417 0
M  V30 1926 H 174.969 -2.03679 0.193961 0
M  V30 1927 H 174.979 -3.78886 -1.51357 0
M  V30 1928 H 173.654 -4.1382 -0.415445 0
M  V30 1929 H 172.231 -3.1672 -1.96832 0
M  V30 1930 N 174.416 0.165178 -1.56732 0
M  V30 1931 C 175.379 1.18822 -1.95995 0
M  V30 1932 C 176.379 1.3685 -0.84431 0
M  V30 1933 O 177.569 1.34152 -1.11126 0
M  V30 1934 C 174.701 2.5521 -2.26011 0
M  V30 1935 H 175.894 0.851825 -2.87548 0
M  V30 1936 H 173.447 0.407857 -1.50885 0
M  V30 1937 H 174.182 2.93852 -1.37191 0
M  V30 1938 H 173.967 2.43489 -3.07336 0
M  V30 1939 H 175.457 3.28927 -2.57288 0
M  V30 1940 N 175.894 1.51508 0.433938 0
M  V30 1941 C 177.14 1.64588 1.18484 0
M  V30 1942 C 177.473 0.362666 1.90784 0
M  V30 1943 O 176.748 -0.637892 1.83742 0
M  V30 1944 C 177.031 2.85149 2.19913 0
M  V30 1945 C 176.884 4.23456 1.51674 0
M  V30 1946 C 178.203 3.01227 3.20858 0
M  V30 1947 H 175.322 0.598994 0.429389 0
M  V30 1948 H 177.964 1.84002 0.473647 0
M  V30 1949 H 176.114 2.68729 2.80566 0
M  V30 1950 H 177.786 4.51552 0.943322 0
M  V30 1951 H 176.029 4.25998 0.819035 0
M  V30 1952 H 176.7 5.03812 2.2556 0
M  V30 1953 H 179.176 3.16382 2.70263 0
M  V30 1954 H 178.052 3.87141 3.89118 0
M  V30 1955 H 178.313 2.13447 3.8716 0
M  V30 1956 N 177.372 -0.689602 1.41712 0
M  V30 1957 C 178.335 -1.78521 1.43746 0
M  V30 1958 C 179.335 -1.57436 0.327191 0
M  V30 1959 O 180.525 -1.64 0.587348 0
M  V30 1960 C 177.657 -3.16971 1.25467 0
M  V30 1961 H 178.85 -1.78108 2.41283 0
M  V30 1962 H 176.403 -0.89781 1.27942 0
M  V30 1963 H 177.138 -3.23019 0.287948 0
M  V30 1964 H 176.923 -3.33678 2.05917 0
M  V30 1965 H 178.413 -3.96935 1.2974 0
M  V30 1966 N 178.85 -1.27639 -0.924453 0
M  V30 1967 C 180.08 -1.16819 -1.70402 0
M  V30 1968 C 180.488 0.277191 -1.87158 0
M  V30 1969 O 179.831 1.20025 -1.39067 0
M  V30 1970 C 179.893 -1.78305 -3.12166 0
M  V30 1971 C 179.557 -3.27502 -3.18734 0
M  V30 1972 C 180.554 -4.2409 -3.00738 0
M  V30 1973 C 178.239 -3.68269 -3.4159 0
M  V30 1974 C 180.233 -5.59422 -3.05492 0
M  V30 1975 C 177.92 -5.0373 -3.45977 0
M  V30 1976 C 178.918 -5.99116 -3.27946 0
M  V30 1977 O 178.606 -7.32108 -3.32074 0
M  V30 1978 H 178.338 -0.406931 -0.539799 0
M  V30 1979 H 180.892 -1.69078 -1.16626 0
M  V30 1980 H 179.122 -1.20528 -3.67437 0
M  V30 1981 H 180.811 -1.62154 -3.72103 0
M  V30 1982 H 181.577 -3.93931 -2.82919 0
M  V30 1983 H 177.456 -2.94496 -3.54673 0
M  V30 1984 H 181 -6.33852 -2.91337 0
M  V30 1985 H 176.897 -5.33543 -3.63321 0
M  V30 1986 H 177.665 -7.40598 -3.48507 0
M  V30 1987 N 180.328 1.1314 -1.09713 0
M  V30 1988 C 181.574 1.84757 -0.836224 0
M  V30 1989 C 181.907 1.8347 0.636598 0
M  V30 1990 O 181.182 1.27491 1.46889 0
M  V30 1991 C 181.465 3.32782 -1.37578 0
M  V30 1992 C 181.318 3.42567 -2.91493 0
M  V30 1993 C 182.637 4.28307 -1.01198 0
M  V30 1994 H 179.756 0.67082 -0.305236 0
M  V30 1995 H 182.398 1.3278 -1.35903 0
M  V30 1996 H 180.548 3.77177 -0.931097 0
M  V30 1997 H 182.22 3.06862 -3.44432 0
M  V30 1998 H 180.463 2.83349 -3.28475 0
M  V30 1999 H 181.134 4.46674 -3.24324 0
M  V30 2000 H 183.61 3.91999 -1.39556 0
M  V30 2001 H 182.486 5.30307 -1.41653 0
M  V30 2002 H 182.747 4.42029 0.0794833 0
M  V30 2003 N 181.806 0.884767 1.30421 0
M  V30 2004 C 182.756 0.322846 2.25703 0
M  V30 2005 C 183.74 -0.548582 1.51259 0
M  V30 2006 O 184.932 -0.39304 1.72581 0
M  V30 2007 C 182.061 -0.461787 3.4018 0
M  V30 2008 C 181.147 0.423717 4.21978 0
M  V30 2009 N 181.538 1.52408 4.82292 0
M  V30 2010 C 179.836 0.218795 4.45463 0
M  V30 2011 C 180.537 2.07136 5.43571 0
M  V30 2012 N 179.513 1.36635 5.26148 0
M  V30 2013 H 183.315 1.16363 2.69883 0
M  V30 2014 H 180.829 0.73415 1.44859 0
M  V30 2015 H 182.826 -0.880985 4.07485 0
M  V30 2016 H 181.486 -1.30001 2.9754 0
M  V30 2017 H 182.497 1.90693 4.81515 0
M  V30 2018 H 179.174 -0.582275 4.1342 0
M  V30 2019 H 180.564 2.99538 6.01437 0
M  V30 2020 N 183.284 -1.43765 0.645699 0
M  V30 2021 C 184.509 -2.06767 0.161883 0
M  V30 2022 C 184.934 -1.48034 -1.16049 0
M  V30 2023 O 184.292 -0.587369 -1.71522 0
M  V30 2024 C 184.34 -3.60519 0.0762003 0
M  V30 2025 O 183.444 -4.00982 -0.963721 0
M  V30 2026 H 182.785 -0.657675 0.091429 0
M  V30 2027 H 185.315 -1.84397 0.886499 0
M  V30 2028 H 185.325 -4.07853 -0.109604 0
M  V30 2029 H 184 -4.02646 1.04157 0
M  V30 2030 H 182.577 -3.65253 -0.751312 0
M  V30 2031 N 184.763 -0.387143 -1.52771 0
M  V30 2032 C 185.695 0.484089 -2.2403 0
M  V30 2033 C 186.708 1.02849 -1.26198 0
M  V30 2034 O 187.897 0.931186 -1.52286 0
M  V30 2035 C 184.997 1.68337 -2.94136 0
M  V30 2036 C 184.17 1.26672 -4.18656 0
M  V30 2037 C 183.229 2.33045 -4.7178 0
M  V30 2038 O 182.255 1.94541 -5.34923 0
M  V30 2039 N 183.457 3.64929 -4.5145 0
M  V30 2040 H 186.222 -0.126404 -2.99433 0
M  V30 2041 H 183.783 -0.213392 -1.60488 0
M  V30 2042 H 185.775 2.39019 -3.26577 0
M  V30 2043 H 184.345 2.20025 -2.22053 0
M  V30 2044 H 183.565 0.388878 -3.92277 0
M  V30 2045 H 184.853 0.964964 -4.99566 0
M  V30 2046 H 184.251 3.98974 -4.01044 0
M  V30 2047 H 182.808 4.31651 -4.88386 0
M  V30 2048 N 186.241 1.57166 -0.116904 0
M  V30 2049 C 187.489 1.94737 0.540533 0
M  V30 2050 C 187.81 1.00096 1.67349 0
M  V30 2051 O 187.08 0.0568854 1.95817 0
M  V30 2052 H 185.66 0.718981 0.202669 0
M  V30 2053 H 188.322 1.94017 -0.185353 0
M  V30 2054 H 187.418 2.97719 0.936483 0
M  V30 2055 N 187.719 -0.156864 1.56817 0
M  V30 2056 C 188.949 -0.885031 1.86684 0
M  V30 2057 C 189.357 -1.75696 0.701954 0
M  V30 2058 O 188.7 -1.80569 -0.337732 0
M  V30 2059 C 188.762 -1.80092 3.11138 0
M  V30 2060 C 188.426 -1.10714 4.43386 0
M  V30 2061 C 189.423 -0.465714 5.1781 0
M  V30 2062 C 187.108 -1.09959 4.90117 0
M  V30 2063 C 189.102 0.174002 6.37162 0
M  V30 2064 C 186.789 -0.456055 6.09396 0
M  V30 2065 C 187.787 0.179622 6.82764 0
M  V30 2066 O 187.475 0.812975 7.99779 0
M  V30 2067 H 187.207 -0.261813 0.623242 0
M  V30 2068 H 189.761 -0.157383 2.04796 0
M  V30 2069 H 187.991 -2.56926 2.89009 0
M  V30 2070 H 189.68 -2.40018 3.27332 0
M  V30 2071 H 190.446 -0.463427 4.82781 0
M  V30 2072 H 186.325 -1.58378 4.3294 0
M  V30 2073 H 189.869 0.670765 6.94368 0
M  V30 2074 H 185.766 -0.455975 6.43888 0
M  V30 2075 H 186.534 0.71366 8.15383 0
M  V30 2076 N 189.197 -1.51736 -0.425897 0
M  V30 2077 C 190.16 -1.73271 -1.50032 0
M  V30 2078 C 191.16 -0.602639 -1.4908 0
M  V30 2079 O 192.35 -0.87033 -1.509 0
M  V30 2080 C 189.482 -1.79969 -2.89523 0
M  V30 2081 H 190.675 -2.69172 -1.32237 0
M  V30 2082 H 188.228 -1.41899 -0.65532 0
M  V30 2083 H 188.963 -0.859241 -3.1271 0
M  V30 2084 H 188.748 -2.62109 -2.91619 0
M  V30 2085 H 190.238 -1.9843 -3.67444 0
M  V30 2086 N 190.675 0.682077 -1.42076 0
M  V30 2087 C 191.625 1.78823 -1.41444 0
M  V30 2088 C 192.609 1.58323 -0.28681 0
M  V30 2089 O 193.801 1.68926 -0.528498 0
M  V30 2090 C 190.93 3.17232 -1.3122 0
M  V30 2091 C 190.016 3.4338 -2.489 0
M  V30 2092 N 190.407 3.40152 -3.7434 0
M  V30 2093 C 188.705 3.73986 -2.43003 0
M  V30 2094 C 189.406 3.65581 -4.52466 0
M  V30 2095 N 188.382 3.85989 -3.8277 0
M  V30 2096 H 192.184 1.7471 -2.36334 0
M  V30 2097 H 189.698 0.882622 -1.36321 0
M  V30 2098 H 191.695 3.96489 -1.2885 0
M  V30 2099 H 190.355 3.22547 -0.373263 0
M  V30 2100 H 191.366 3.20221 -4.07037 0
M  V30 2101 H 188.043 3.86591 -1.57651 0
M  V30 2102 H 189.433 3.69108 -5.61435 0
M  V30 2103 N 192.153 1.28127 0.917671 0
M  V30 2104 C 193.569 1.05749 1.19538 0
M  V30 2105 C 193.769 -0.202633 2.00479 0
M  V30 2106 O 192.825 -0.905382 2.3571 0
M  V30 2107 C 194.138 2.30273 1.93378 0
M  V30 2108 C 195.686 2.35412 2.06277 0
M  V30 2109 C 196.161 3.59692 2.83524 0
M  V30 2110 N 197.652 3.60309 2.91087 0
M  V30 2111 C 198.387 4.53147 3.51348 0
M  V30 2112 N 197.883 5.563 4.12919 0
M  V30 2113 N 199.676 4.40751 3.48849 0
M  V30 2114 H 191.827 2.09024 0.377184 0
M  V30 2115 H 194.09 0.919798 0.22951 0
M  V30 2116 H 193.796 3.22055 1.41328 0
M  V30 2117 H 193.67 2.36378 2.93947 0
M  V30 2118 H 196.057 1.4413 2.57508 0
M  V30 2119 H 196.138 2.33304 1.04895 0
M  V30 2120 H 195.782 4.51316 2.32973 0
M  V30 2121 H 195.712 3.59054 3.85211 0
M  V30 2122 H 198.203 2.85714 2.47338 0
M  V30 2123 H 198.516 6.2329 4.56869 0
M  V30 2124 H 196.861 5.60131 4.11435 0
M  V30 2125 H 200.052 3.59367 2.99955 0
M  V30 2126 H 200.225 5.13291 3.9552 0
M  V30 2127 N 193.631 -1.12557 1.10312 0
M  V30 2128 C 194.908 -1.80363 0.756878 0
M  V30 2129 C 195.288 -1.97067 -0.756824 0
M  V30 2130 O 194.636 -1.54601 -1.68259 0
M  V30 2131 C 194.846 -3.14812 1.50647 0
M  V30 2132 C 196.194 -3.90029 1.67817 0
M  V30 2133 O 197.218 -3.24464 1.46974 0
M  V30 2134 O 196.077 -5.07652 2.02365 0
M  V30 2135 H 193.171 -0.780667 0.272926 0
M  V30 2136 H 195.717 -1.19404 1.20586 0
M  V30 2137 H 194.489 -2.97936 2.53672 0
M  V30 2138 H 194.112 -3.83478 1.05026 0
M  V30 2139 N 195.109 -0.891671 -1.2995 0
M  V30 2140 C 196.039 -0.379797 -2.30391 0
M  V30 2141 C 197.02 0.540919 -1.6127 0
M  V30 2142 O 198.205 0.453352 -1.88834 0
M  V30 2143 C 195.335 0.400654 -3.44981 0
M  V30 2144 C 194.289 -0.428905 -4.25846 0
M  V30 2145 C 193.615 0.478557 -5.32554 0
M  V30 2146 C 194.915 -1.67458 -4.94727 0
M  V30 2147 H 196.609 -1.21914 -2.73454 0
M  V30 2148 H 194.155 -0.587675 -1.31462 0
M  V30 2149 H 196.108 0.769434 -4.14316 0
M  V30 2150 H 194.832 1.27371 -3.0074 0
M  V30 2151 H 193.491 -0.779911 -3.58208 0
M  V30 2152 H 193.139 1.34951 -4.84559 0
M  V30 2153 H 192.839 -0.0727433 -5.87555 0
M  V30 2154 H 194.363 0.843705 -6.04743 0
M  V30 2155 H 195.777 -1.376 -5.56542 0
M  V30 2156 H 194.174 -2.16659 -5.59624 0
M  V30 2157 H 195.244 -2.41518 -4.20473 0
M  V30 2158 N 196.587 1.43421 -0.653314 0
M  V30 2159 C 197.534 2.30768 0.0382271 0
M  V30 2160 C 198.504 1.44755 0.814576 0
M  V30 2161 O 199.689 1.73624 0.791162 0
M  V30 2162 C 196.829 3.30336 0.998599 0
M  V30 2163 C 195.942 4.31448 0.218342 0
M  V30 2164 C 195.077 5.18098 1.17252 0
M  V30 2165 C 194.116 6.10902 0.382702 0
M  V30 2166 N 193.253 6.90176 1.28848 0
M  V30 2167 H 198.093 2.89357 -0.712511 0
M  V30 2168 H 195.63 1.42548 -0.363128 0
M  V30 2169 H 197.588 3.86572 1.56901 0
M  V30 2170 H 196.218 2.73397 1.71621 0
M  V30 2171 H 195.27 3.77506 -0.46836 0
M  V30 2172 H 196.582 4.97227 -0.395812 0
M  V30 2173 H 195.736 5.7896 1.81356 0
M  V30 2174 H 194.475 4.52444 1.82058 0
M  V30 2175 H 193.48 5.49128 -0.27169 0
M  V30 2176 H 194.705 6.78598 -0.260957 0
M  V30 2177 H 192.651 6.27171 1.92334 0
M  V30 2178 H 192.568 7.52478 0.728887 0
M  V30 2179 H 193.836 7.55543 1.91766 0
M  V30 2180 N 198.065 0.39524 1.52563 0
M  V30 2181 C 199.476 -0.0774719 1.86539 0
M  V30 2182 C 199.827 -1.45641 1.31466 0
M  V30 2183 O 198.952 -2.06459 0.648367 0
M  V30 2184 C 199.547 -0.147356 3.38479 0
M  V30 2185 C 198.106 -0.564373 3.72145 0
M  V30 2186 C 197.253 0.269919 2.75983 0
M  V30 2187 H 200.204 0.612876 1.46388 0
M  V30 2188 H 200.225 -0.965343 3.68051 0
M  V30 2189 H 199.737 0.856387 3.78534 0
M  V30 2190 H 197.838 -1.57527 3.37663 0
M  V30 2191 H 197.951 -0.318402 4.78041 0
M  V30 2192 H 196.315 -0.265696 2.5331 0
M  V30 2193 H 197.098 1.27175 3.18875 0
M  V30 2194 N 199.544 -1.57102 0.125237 0
M  V30 2195 C 200.454 -2.19191 -0.8362 0
M  V30 2196 C 201.47 -1.16985 -1.28805 0
M  V30 2197 O 202.646 -1.49479 -1.34974 0
M  V30 2198 C 199.711 -2.78407 -2.06617 0
M  V30 2199 C 198.772 -3.9567 -1.66565 0
M  V30 2200 C 198.005 -4.52052 -2.83698 0
M  V30 2201 O 198.228 -4.07326 -3.99302 0
M  V30 2202 O 197.162 -5.42645 -2.60423 0
M  V30 2203 H 200.988 -3.01816 -0.337776 0
M  V30 2204 H 198.573 -1.4906 -0.100695 0
M  V30 2205 H 200.455 -3.16129 -2.7864 0
M  V30 2206 H 199.13 -1.9881 -2.55453 0
M  V30 2207 H 198.037 -3.62705 -0.916296 0
M  V30 2208 H 199.37 -4.76722 -1.22464 0
M  V30 2209 N 201.022 0.148545 -1.56898 0
M  V30 2210 C 201.97 1.20265 -1.99096 0
M  V30 2211 C 202.964 1.44559 -0.883123 0
M  V30 2212 O 204.17 1.4487 -1.0683 0
M  V30 2213 H 200.545 0.404786 -0.63376 0
M  V30 2214 H 202.516 0.82004 -2.86911 0
M  V30 2215 C 201.265 2.52886 -2.3863 0
M  V30 2216 H 200.588 2.35021 -3.23427 0
M  V30 2217 H 202.028 3.25274 -2.7198 0
M  V30 2218 C 200.487 3.13315 -1.23837 0
M  V30 2219 O 201.017 3.98077 -0.538268 0
M  V30 2220 N 199.223 2.72742 -1.00301 0
M  V30 2221 H 198.77 2.03912 -1.5741 0
M  V30 2222 H 198.728 3.13507 -0.236838 0
M  V30 2223 N 202.5 1.5196 0.417844 0
M  V30 2224 C 203.43 1.77634 1.51554 0
M  V30 2225 C 204.411 0.626918 1.58126 0
M  V30 2226 O 205.596 0.871632 1.7354 0
M  V30 2227 C 202.726 1.91911 2.8946 0
M  V30 2228 C 201.68 3.07463 2.97743 0
M  V30 2229 C 201.006 3.06951 4.37819 0
M  V30 2230 C 202.306 4.47082 2.70027 0
M  V30 2231 H 204 2.6955 1.3032 0
M  V30 2232 H 201.546 1.29706 0.625492 0
M  V30 2233 H 203.499 2.08455 3.6623 0
M  V30 2234 H 202.223 0.966598 3.11969 0
M  V30 2235 H 200.882 2.90656 2.23416 0
M  V30 2236 H 200.53 2.09438 4.57323 0
M  V30 2237 H 200.23 3.84556 4.44286 0
M  V30 2238 H 201.754 3.25613 5.16535 0
M  V30 2239 H 203.168 4.6414 3.36522 0
M  V30 2240 H 201.565 5.2654 2.87881 0
M  V30 2241 H 202.635 4.55777 1.65514 0
M  V30 2242 N 203.978 -0.674533 1.42435 0
M  V30 2243 C 204.908 -1.80009 1.48724 0
M  V30 2244 C 205.889 -1.6659 0.343793 0
M  V30 2245 O 207.074 -1.86007 0.558137 0
M  V30 2246 C 204.204 -3.18306 1.38919 0
M  V30 2247 C 203.158 -3.46461 2.51294 0
M  V30 2248 C 202.484 -4.84335 2.26547 0
M  V30 2249 C 203.784 -3.43328 3.93603 0
M  V30 2250 H 205.478 -1.75004 2.42928 0
M  V30 2251 H 203.024 -0.840533 1.16923 0
M  V30 2252 H 204.977 -3.9678 1.41927 0
M  V30 2253 H 203.701 -3.2399 0.412094 0
M  V30 2254 H 202.36 -2.70348 2.47604 0
M  V30 2255 H 202.008 -4.86669 1.2713 0
M  V30 2256 H 201.708 -5.04136 3.01861 0
M  V30 2257 H 203.232 -5.65094 2.31304 0
M  V30 2258 H 204.646 -4.11772 3.98894 0
M  V30 2259 H 203.043 -3.74664 4.68771 0
M  V30 2260 H 204.113 -2.41897 4.20255 0
M  V30 2261 N 205.456 -1.28612 -0.910864 0
M  V30 2262 C 206.703 -1.15934 -1.66029 0
M  V30 2263 C 207.031 0.291483 -1.92303 0
M  V30 2264 O 206.286 1.22816 -1.52364 0
M  V30 2265 C 206.585 -1.90624 -3.0232 0
M  V30 2266 C 206.251 -3.40405 -2.95695 0
M  V30 2267 C 204.913 -3.81255 -2.93595 0
M  V30 2268 C 207.265 -4.359 -2.85728 0
M  V30 2269 C 204.593 -5.15936 -2.79334 0
M  V30 2270 C 206.945 -5.70657 -2.73007 0
M  V30 2271 C 205.609 -6.10779 -2.69267 0
M  V30 2272 H 204.879 -0.424234 -0.607541 0
M  V30 2273 H 207.526 -1.5942 -1.06101 0
M  V30 2274 H 205.831 -1.39696 -3.6605 0
M  V30 2275 H 207.528 -1.78228 -3.59215 0
M  V30 2276 H 204.118 -3.07927 -2.98125 0
M  V30 2277 H 208.302 -4.053 -2.86436 0
M  V30 2278 H 203.558 -5.46146 -2.74835 0
M  V30 2279 H 207.732 -6.44311 -2.64264 0
M  V30 2280 H 205.359 -7.1509 -2.57974 0
M  V30 2281 N 206.934 1.1197 -1.10907 0
M  V30 2282 C 208.211 1.79959 -0.766432 0
M  V30 2283 C 208.591 1.97466 0.746363 0
M  V30 2284 O 207.939 1.55491 1.67436 0
M  V30 2285 C 208.149 3.14009 -1.52314 0
M  V30 2286 C 209.497 3.89134 -1.69883 0
M  V30 2287 O 210.521 3.2368 -1.48692 0
M  V30 2288 O 209.38 5.06572 -2.05054 0
M  V30 2289 H 206.474 0.779208 -0.277062 0
M  V30 2290 H 209.02 1.18762 -1.21217 0
M  V30 2291 H 207.792 2.96587 -2.55249 0
M  V30 2292 H 207.415 3.82915 -1.07059 0
M  V30 2293 N 208.412 0.89855 1.29475 0
M  V30 2294 C 209.322 0.379974 2.31502 0
M  V30 2295 C 210.338 -0.524695 1.659 0
M  V30 2296 O 211.514 -0.414551 1.97087 0
M  V30 2297 C 208.579 -0.385138 3.44554 0
M  V30 2298 C 207.64 0.550914 4.2575 0
M  V30 2299 C 206.873 -0.177778 5.33404 0
M  V30 2300 O 207.096 -1.40189 5.52904 0
M  V30 2301 O 206.03 0.479106 5.9999 0
M  V30 2302 H 209.856 1.22639 2.77837 0
M  V30 2303 H 207.441 0.662834 1.33891 0
M  V30 2304 H 209.323 -0.817841 4.13388 0
M  V30 2305 H 207.998 -1.20763 3.0033 0
M  V30 2306 H 206.905 1.03271 3.59564 0
M  V30 2307 H 208.238 1.33979 4.73614 0
M  V30 2308 N 209.89 -1.43072 0.660911 0
M  V30 2309 C 211.12 -2.05769 0.185153 0
M  V30 2310 C 211.528 -1.49668 -1.15742 0
M  V30 2311 O 210.871 -0.625649 -1.72717 0
M  V30 2312 C 210.933 -3.59489 0.0278237 0
M  V30 2313 C 210.597 -4.38212 1.2969 0
M  V30 2314 C 211.594 -4.69772 2.22734 0
M  V30 2315 C 209.279 -4.7809 1.54063 0
M  V30 2316 C 211.273 -5.40129 3.38437 0
M  V30 2317 C 208.96 -5.4819 2.70058 0
M  V30 2318 C 209.958 -5.79132 3.62071 0
M  V30 2319 O 209.646 -6.47798 4.76039 0
M  V30 2320 H 209.378 -0.669873 0.0908086 0
M  V30 2321 H 211.932 -1.84436 0.90402 0
M  V30 2322 H 210.162 -3.79426 -0.746489 0
M  V30 2323 H 211.851 -4.03862 -0.406275 0
M  V30 2324 H 212.617 -4.39476 2.05149 0
M  V30 2325 H 208.496 -4.53408 0.833215 0
M  V30 2326 H 212.04 -5.64198 4.10277 0
M  V30 2327 H 207.937 -5.77902 2.87574 0
M  V30 2328 H 208.705 -6.66283 4.75404 0
M  V30 2329 N 211.368 -0.403325 -1.52352 0
M  V30 2330 C 212.318 0.442244 -2.2367 0
M  V30 2331 C 213.302 1.01823 -1.24583 0
M  V30 2332 O 214.494 0.942005 -1.49851 0
M  V30 2333 C 211.623 1.5615 -3.05732 0
M  V30 2334 C 210.709 0.996575 -4.12225 0
M  V30 2335 N 211.1 0.157804 -5.05554 0
M  V30 2336 C 209.398 1.26767 -4.27605 0
M  V30 2337 C 210.099 -0.155853 -5.81491 0
M  V30 2338 N 209.075 0.451775 -5.41719 0
M  V30 2339 H 212.877 -0.204964 -2.93184 0
M  V30 2340 H 210.391 -0.213418 -1.60992 0
M  V30 2341 H 212.388 2.17981 -3.55373 0
M  V30 2342 H 211.048 2.21139 -2.37755 0
M  V30 2343 H 212.059 -0.206049 -5.1749 0
M  V30 2344 H 208.736 1.91757 -3.70858 0
M  V30 2345 H 210.126 -0.836329 -6.66675 0
M  V30 2346 N 212.846 1.57033 -0.133567 0
M  V30 2347 C 213.793 2.16074 0.811208 0
M  V30 2348 C 214.763 1.08979 1.2535 0
M  V30 2349 O 215.948 1.36958 1.32843 0
M  V30 2350 C 213.088 2.77595 2.05024 0
M  V30 2351 C 212.201 3.99042 1.65498 0
M  V30 2352 C 211.336 4.48603 2.84479 0
M  V30 2353 C 210.375 5.62547 2.41262 0
M  V30 2354 N 209.512 6.06787 3.53206 0
M  V30 2355 H 214.352 2.96477 0.300906 0
M  V30 2356 H 211.889 1.46462 0.136822 0
M  V30 2357 H 213.847 3.11402 2.77642 0
M  V30 2358 H 212.477 1.99859 2.53488 0
M  V30 2359 H 211.529 3.71302 0.826981 0
M  V30 2360 H 212.841 4.81629 1.29748 0
M  V30 2361 H 211.995 4.84395 3.65303 0
M  V30 2362 H 210.734 3.64995 3.23465 0
M  V30 2363 H 209.739 5.26345 1.58874 0
M  V30 2364 H 210.964 6.47931 2.03377 0
M  V30 2365 H 208.91 5.26117 3.91838 0
M  V30 2366 H 208.827 6.84266 3.21427 0
M  V30 2367 H 210.095 6.4722 4.34427 0
M  V30 2368 N 214.325 -0.140222 1.56975 0
M  V30 2369 C 215.255 -1.17456 2.01808 0
M  V30 2370 C 216.236 -1.44415 0.898794 0
M  V30 2371 O 217.421 -1.5522 1.16707 0
M  V30 2372 C 214.551 -2.50607 2.40444 0
M  V30 2373 C 213.505 -2.38155 3.55621 0
M  V30 2374 C 212.831 -3.76078 3.80091 0
M  V30 2375 C 214.131 -1.85991 4.88062 0
M  V30 2376 H 215.825 -0.801743 2.88466 0
M  V30 2377 H 213.371 -0.38422 1.38779 0
M  V30 2378 H 215.324 -3.23197 2.7041 0
M  V30 2379 H 214.048 -2.89737 1.50732 0
M  V30 2380 H 212.707 -1.68016 3.25832 0
M  V30 2381 H 212.355 -4.12656 2.87618 0
M  V30 2382 H 212.055 -3.68606 4.57606 0
M  V30 2383 H 213.579 -4.50206 4.12488 0
M  V30 2384 H 214.993 -2.4838 5.16701 0
M  V30 2385 H 213.39 -1.89393 5.6943 0
M  V30 2386 H 214.46 -0.816023 4.77984 0
M  V30 2387 N 215.803 -1.52179 -0.40978 0
M  V30 2388 C 216.75 -1.75475 -1.49924 0
M  V30 2389 C 217.72 -0.597175 -1.54994 0
M  V30 2390 O 218.905 -0.834655 -1.71575 0
M  V30 2391 C 216.045 -1.9107 -2.87378 0
M  V30 2392 C 215.158 -3.18717 -2.91622 0
M  V30 2393 C 214.293 -3.24747 -4.20372 0
M  V30 2394 C 213.332 -4.46598 -4.18588 0
M  V30 2395 N 212.469 -4.50025 -5.38908 0
M  V30 2396 H 217.309 -2.68458 -1.29361 0
M  V30 2397 H 214.846 -1.33024 -0.627934 0
M  V30 2398 H 216.804 -1.98096 -3.6717 0
M  V30 2399 H 215.434 -1.01469 -3.06437 0
M  V30 2400 H 214.486 -3.20866 -2.04326 0
M  V30 2401 H 215.798 -4.08544 -2.86169 0
M  V30 2402 H 214.952 -3.30841 -5.08556 0
M  V30 2403 H 213.691 -2.32857 -4.28519 0
M  V30 2404 H 212.696 -4.40652 -3.28794 0
M  V30 2405 H 213.921 -5.39783 -4.12081 0
M  V30 2406 H 211.867 -3.61017 -5.47725 0
M  V30 2407 H 211.784 -5.33697 -5.35447 0
M  V30 2408 H 213.052 -4.60347 -6.29048 0
M  V30 2409 N 217.281 0.66697 -1.42791 0
M  V30 2410 C 218.211 1.79218 -1.49677 0
M  V30 2411 C 219.192 1.66405 -0.352623 0
M  V30 2412 O 220.377 1.85708 -0.567993 0
M  V30 2413 C 217.507 3.17565 -1.40605 0
M  V30 2414 C 216.461 3.45124 -2.53127 0
M  V30 2415 C 215.787 4.83127 -2.29112 0
M  V30 2416 C 217.087 3.41236 -3.95418 0
M  V30 2417 H 218.781 1.73713 -2.43853 0
M  V30 2418 H 216.327 0.83432 -1.17367 0
M  V30 2419 H 218.28 3.96022 -1.44029 0
M  V30 2420 H 217.004 3.23767 -0.429271 0
M  V30 2421 H 215.663 2.69031 -2.49034 0
M  V30 2422 H 215.311 4.85988 -1.29709 0
M  V30 2423 H 215.011 5.02528 -3.04531 0
M  V30 2424 H 216.535 5.63859 -2.34297 0
M  V30 2425 H 217.949 4.09651 -4.01073 0
M  V30 2426 H 216.346 3.72173 -4.70752 0
M  V30 2427 H 217.416 2.39665 -4.21532 0
M  V30 2428 N 218.759 1.29093 0.90403 0
M  V30 2429 C 220.008 1.16187 1.64874 0
M  V30 2430 C 220.321 -0.286742 1.93487 0
M  V30 2431 O 221.527 -0.537062 2.66135 0
M  V30 2432 C 219.983 2.03177 2.97064 0
M  V30 2433 C 219.591 3.52836 2.76062 0
M  V30 2434 C 221.335 1.98984 3.74974 0
M  V30 2435 C 219.242 4.31945 4.03952 0
M  V30 2436 H 218.172 0.431246 0.618501 0
M  V30 2437 H 220.823 1.53699 1.00243 0
M  V30 2438 H 219.205 1.5853 3.62883 0
M  V30 2439 H 220.379 4.05507 2.18863 0
M  V30 2440 H 218.694 3.58656 2.11553 0
M  V30 2441 H 221.291 2.55351 4.69787 0
M  V30 2442 H 221.634 0.968815 4.0487 0
M  V30 2443 H 222.167 2.41652 3.15989 0
M  V30 2444 H 218.906 5.34667 3.79225 0
M  V30 2445 H 218.426 3.84045 4.60727 0
M  V30 2446 H 220.105 4.42379 4.72133 0
M  V30 2447 N 220.237 -1.11381 1.11499 0
M  V30 2448 C 221.514 -1.7955 0.775965 0
M  V30 2449 C 221.894 -1.97859 -0.73588 0
M  V30 2450 O 221.242 -1.56376 -1.66609 0
M  V30 2451 C 221.452 -3.13196 1.53977 0
M  V30 2452 C 222.8 -3.88227 1.71944 0
M  V30 2453 O 223.824 -3.22887 1.50407 0
M  V30 2454 O 222.683 -5.05477 2.07738 0
M  V30 2455 H 219.777 -0.777728 0.28119 0
M  V30 2456 H 222.323 -1.18118 1.21845 0
M  V30 2457 H 221.095 -2.95229 2.56818 0
M  V30 2458 H 220.718 -3.82342 1.09088 0
M  V30 2459 N 221.715 -0.905404 -1.28997 0
M  V30 2460 C 222.962 -0.534248 -1.95325 0
M  V30 2461 C 223.29 0.920535 -1.71337 0
M  V30 2462 O 222.545 1.66861 -1.02254 0
M  V30 2463 C 222.844 -0.779906 -3.48787 0
M  V30 2464 C 222.51 -2.21293 -3.92861 0
M  V30 2465 C 221.172 -2.60475 -4.04606 0
M  V30 2466 C 223.524 -3.14587 -4.15553 0
M  V30 2467 C 220.852 -3.9212 -4.36416 0
M  V30 2468 C 223.204 -4.45787 -4.48839 0
M  V30 2469 C 221.868 -4.84834 -4.58794 0
M  V30 2470 H 221.138 -0.195495 -0.714747 0
M  V30 2471 H 223.785 -1.14514 -1.53488 0
M  V30 2472 H 222.09 -0.0861365 -3.91705 0
M  V30 2473 H 223.787 -0.472029 -3.98212 0
M  V30 2474 H 220.377 -1.89887 -3.84241 0
M  V30 2475 H 224.561 -2.85528 -4.0594 0
M  V30 2476 H 219.817 -4.22086 -4.42327 0
M  V30 2477 H 223.991 -5.18098 -4.65346 0
M  V30 2478 H 221.618 -5.86877 -4.83197 0
M  V30 2479 N 223.193 1.4272 -0.668489 0
M  V30 2480 C 224.441 2.01226 -0.187769 0
M  V30 2481 C 224.762 1.53092 1.2078 0
M  V30 2482 O 224.032 0.74993 1.80977 0
M  V30 2483 H 222.612 0.744041 -0.0664272 0
M  V30 2484 H 225.274 1.74723 -0.863583 0
M  V30 2485 H 224.37 3.11556 -0.184166 0
M  V30 2486 N 224.671 0.411399 1.52136 0
M  V30 2487 C 225.601 -0.404015 2.29978 0
M  V30 2488 C 226.582 -1.04412 1.34284 0
M  V30 2489 O 227.767 -1.0527 1.63192 0
M  V30 2490 C 224.897 -1.5197 3.12286 0
M  V30 2491 C 223.851 -1.00448 4.16046 0
M  V30 2492 C 223.177 -2.21393 4.86712 0
M  V30 2493 C 224.477 -0.0569336 5.22269 0
M  V30 2494 H 226.171 0.245529 2.98392 0
M  V30 2495 H 223.717 0.119525 1.43503 0
M  V30 2496 H 225.67 -2.09715 3.6551 0
M  V30 2497 H 224.394 -2.19716 2.41646 0
M  V30 2498 H 223.053 -0.449421 3.63835 0
M  V30 2499 H 222.701 -2.87699 4.12599 0
M  V30 2500 H 222.401 -1.87571 5.56858 0
M  V30 2501 H 223.925 -2.7974 5.4275 0
M  V30 2502 H 225.339 -0.54325 5.7072 0
M  V30 2503 H 223.736 0.192594 5.99791 0
M  V30 2504 H 224.806 0.887663 4.76706 0
M  V30 2505 N 226.149 -1.5696 0.141893 0
M  V30 2506 C 227.389 -1.9785 -0.513304 0
M  V30 2507 C 227.753 -1.02467 -1.62371 0
M  V30 2508 O 228.954 -1.32382 -2.33941 0
M  V30 2509 C 227.225 -3.42797 -1.01118 0
M  V30 2510 S 228.784 -4.05709 -1.67169 0
M  V30 2511 H 225.602 -0.691318 -0.166135 0
M  V30 2512 H 228.204 -1.94114 0.232398 0
M  V30 2513 H 226.908 -4.0995 -0.192179 0
M  V30 2514 H 226.439 -3.50235 -1.79162 0
M  V30 2515 H 228.454 -3.98342 -2.95868 0
M  V30 2516 N 227.627 0.131896 -1.57047 0
M  V30 2517 C 228.59 1.14638 -1.98471 0
M  V30 2518 C 229.59 1.35029 -0.873148 0
M  V30 2519 O 230.78 1.31764 -1.13946 0
M  V30 2520 C 227.912 2.50358 -2.31373 0
M  V30 2521 H 229.105 0.79064 -2.8929 0
M  V30 2522 H 226.658 0.375761 -1.51716 0
M  V30 2523 H 227.393 2.90876 -1.43393 0
M  V30 2524 H 227.178 2.36915 -3.12432 0
M  V30 2525 H 228.668 3.23395 -2.64207 0
M  V30 2526 N 229.106 1.52395 0.401703 0
M  V30 2527 C 230.053 1.76268 1.48991 0
M  V30 2528 C 231.023 0.605386 1.54675 0
M  V30 2529 O 232.208 0.843742 1.7113 0
M  V30 2530 C 229.348 1.92592 2.86361 0
M  V30 2531 C 228.461 3.20259 2.89928 0
M  V30 2532 C 227.596 3.26972 4.18644 0
M  V30 2533 C 226.635 4.48812 4.16214 0
M  V30 2534 N 225.772 4.52877 5.36514 0
M  V30 2535 H 230.612 2.6914 1.27935 0
M  V30 2536 H 228.149 1.33355 0.620871 0
M  V30 2537 H 230.107 2.0004 3.66115 0
M  V30 2538 H 228.737 1.03093 3.05895 0
M  V30 2539 H 227.789 3.21945 2.02621 0
M  V30 2540 H 229.101 4.10056 2.83999 0
M  V30 2541 H 228.255 3.33533 5.06794 0
M  V30 2542 H 226.994 2.35126 4.27278 0
M  V30 2543 H 225.999 4.4239 3.26453 0
M  V30 2544 H 227.224 5.41961 4.09213 0
M  V30 2545 H 225.17 3.63917 5.45802 0
M  V30 2546 H 225.087 5.36529 5.32609 0
M  V30 2547 H 226.355 4.63676 6.26597 0
M  V30 2548 N 230.584 -0.659388 1.43143 0
M  V30 2549 C 231.995 -1.24041 1.39537 0
M  V30 2550 C 232.346 -1.95963 0.0963364 0
M  V30 2551 O 231.471 -2.00892 -0.804438 0
M  V30 2552 C 232.066 -2.25601 2.52764 0
M  V30 2553 C 230.625 -2.79195 2.52443 0
M  V30 2554 C 229.772 -1.53743 2.30778 0
M  V30 2555 H 232.723 -0.451792 1.52133 0
M  V30 2556 H 232.744 -3.07651 2.23899 0
M  V30 2557 H 232.256 -1.73226 3.47296 0
M  V30 2558 H 230.357 -3.35649 1.61773 0
M  V30 2559 H 230.47 -3.2716 3.50004 0
M  V30 2560 H 228.834 -1.80869 1.79328 0
M  V30 2561 H 229.617 -1.03312 3.27386 0
M  V30 2562 N 232.062 -1.29571 -0.897171 0
M  V30 2563 C 233.009 -1.14916 -2.00158 0
M  V30 2564 C 233.979 -0.0418149 -1.66047 0
M  V30 2565 O 235.164 -0.209793 -1.89643 0
M  V30 2566 C 232.304 -0.834307 -3.34863 0
M  V30 2567 C 231.417 -2.02234 -3.8174 0
M  V30 2568 C 230.552 -1.64664 -5.05034 0
M  V30 2569 C 229.591 -2.80033 -5.44286 0
M  V30 2570 N 228.728 -2.42843 -6.58765 0
M  V30 2571 H 233.568 -2.09403 -2.12025 0
M  V30 2572 H 231.105 -1.042 -1.0383 0
M  V30 2573 H 233.063 -0.632436 -4.12379 0
M  V30 2574 H 231.693 0.0736656 -3.22716 0
M  V30 2575 H 230.745 -2.33583 -3.00238 0
M  V30 2576 H 232.057 -2.88673 -4.06779 0
M  V30 2577 H 231.211 -1.4078 -5.9014 0
M  V30 2578 H 229.95 -0.753766 -4.8184 0
M  V30 2579 H 228.955 -3.04596 -4.57713 0
M  V30 2580 H 230.18 -3.69989 -5.6946 0
M  V30 2581 H 228.126 -1.56046 -6.3717 0
M  V30 2582 H 228.043 -3.22815 -6.83613 0
M  V30 2583 H 229.311 -2.22285 -7.47134 0
M  V30 2584 N 233.54 1.10788 -1.12088 0
M  V30 2585 C 234.788 1.8231 -0.872205 0
M  V30 2586 C 235.109 1.85419 0.603709 0
M  V30 2587 O 234.379 1.32963 1.43867 0
M  V30 2588 H 232.959 0.675137 -0.319686 0
M  V30 2589 H 235.621 1.34068 -1.41463 0
M  V30 2590 H 234.717 2.85955 -1.25045 0
M  V30 2591 N 235.018 0.912232 1.28515 0
M  V30 2592 C 235.966 0.389597 2.29314 0
M  V30 2593 C 236.96 -0.517915 1.61289 0
M  V30 2594 O 238.166 -0.399328 1.75515 0
M  V30 2595 H 234.541 0.107386 0.744293 0
M  V30 2596 H 236.512 1.25286 2.70825 0
M  V30 2597 C 235.261 -0.356496 3.45868 0
M  V30 2598 H 234.584 0.332608 3.98414 0
M  V30 2599 H 236.024 -0.686851 4.184 0
M  V30 2600 C 234.483 -1.56383 2.98406 0
M  V30 2601 O 235.013 -2.66294 3.00749 0
M  V30 2602 N 233.219 -1.41029 2.54085 0
M  V30 2603 H 232.766 -0.516089 2.52377 0
M  V30 2604 H 232.724 -2.21939 2.22689 0
M  V30 2605 N 236.496 -1.42363 0.676048 0
M  V30 2606 C 237.443 -2.308 -0.00150904 0
M  V30 2607 C 238.413 -1.46032 -0.791444 0
M  V30 2608 O 239.598 -1.74861 -0.76344 0
M  V30 2609 C 236.738 -3.31883 -0.945919 0
M  V30 2610 C 235.851 -4.31741 -0.149675 0
M  V30 2611 C 234.986 -5.19898 -1.08995 0
M  V30 2612 C 234.025 -6.11434 -0.285465 0
M  V30 2613 N 233.162 -6.92138 -1.17851 0
M  V30 2614 H 238.002 -2.88187 0.758455 0
M  V30 2615 H 235.539 -1.41952 0.38576 0
M  V30 2616 H 237.497 -3.89019 -1.50731 0
M  V30 2617 H 236.127 -2.76093 -1.6725 0
M  V30 2618 H 235.179 -3.76713 0.528359 0
M  V30 2619 H 236.491 -4.96534 0.474866 0
M  V30 2620 H 235.645 -5.81772 -1.72123 0
M  V30 2621 H 234.384 -4.55284 -1.74837 0
M  V30 2622 H 233.389 -5.48627 0.359018 0
M  V30 2623 H 234.614 -6.78097 0.368883 0
M  V30 2624 H 232.56 -6.30152 -1.82332 0
M  V30 2625 H 232.477 -7.53542 -0.609082 0
M  V30 2626 H 233.745 -7.58499 -1.79722 0
M  V30 2627 N 237.974 -0.419461 -1.51915 0
M  V30 2628 C 239.251 0.211999 -1.94448 0
M  V30 2629 C 239.631 1.61703 -1.35703 0
M  V30 2630 O 238.979 2.22102 -0.536931 0
M  V30 2631 C 239.189 0.207872 -3.4838 0
M  V30 2632 C 240.537 0.422192 -4.22496 0
M  V30 2633 O 241.561 0.286778 -3.55044 0
M  V30 2634 O 240.42 0.690009 -5.42126 0
M  V30 2635 H 237.514 0.139586 -0.815135 0
M  V30 2636 H 240.06 -0.476151 -1.62883 0
M  V30 2637 H 238.832 -0.775102 -3.83546 0
M  V30 2638 H 238.455 0.939688 -3.86336 0
M  V30 2639 N 239.452 1.56882 -0.150215 0
M  V30 2640 C 240.682 2.00302 0.506213 0
M  V30 2641 C 241.09 1.02934 1.58749 0
M  V30 2642 O 240.433 0.0188384 1.8369 0
M  V30 2643 C 240.495 3.40156 1.16337 0
M  V30 2644 C 240.159 4.56439 0.226311 0
M  V30 2645 C 241.156 5.17012 -0.547265 0
M  V30 2646 C 238.841 5.02136 0.128279 0
M  V30 2647 C 240.835 6.21693 -1.40629 0
M  V30 2648 C 238.522 6.06672 -0.734345 0
M  V30 2649 C 239.52 6.6632 -1.50023 0
M  V30 2650 O 239.208 7.68831 -2.34848 0
M  V30 2651 H 238.94 0.662182 0.135984 0
M  V30 2652 H 241.494 2.03961 -0.242746 0
M  V30 2653 H 239.724 3.33346 1.96004 0
M  V30 2654 H 241.413 3.67663 1.71985 0
M  V30 2655 H 242.179 4.82603 -0.48158 0
M  V30 2656 H 238.058 4.55435 0.714157 0
M  V30 2657 H 241.602 6.68179 -2.00455 0
M  V30 2658 H 237.499 6.40507 -0.801309 0
M  V30 2659 H 238.267 7.86065 -2.28131 0
M  V30 2660 N 240.93 -0.123565 1.57115 0
M  V30 2661 C 241.88 -1.1575 1.96433 0
M  V30 2662 C 242.864 -1.37313 0.838686 0
M  V30 2663 O 244.056 -1.38482 1.10235 0
M  V30 2664 C 241.185 -2.48526 2.36833 0
M  V30 2665 C 240.271 -2.30457 3.5602 0
M  V30 2666 N 240.662 -1.8219 4.71848 0
M  V30 2667 C 238.96 -2.61129 3.61563 0
M  V30 2668 C 239.661 -1.77721 5.53886 0
M  V30 2669 N 238.637 -2.21899 4.96248 0
M  V30 2670 H 242.439 -0.776797 2.83449 0
M  V30 2671 H 239.953 -0.331364 1.58983 0
M  V30 2672 H 241.95 -3.233 2.63216 0
M  V30 2673 H 240.61 -2.87358 1.5118 0
M  V30 2674 H 241.621 -1.51805 4.95152 0
M  V30 2675 H 238.298 -3.03678 2.86507 0
M  V30 2676 H 239.688 -1.41697 6.56789 0
M  V30 2677 N 242.408 -1.52605 -0.393616 0
M  V30 2678 C 243.338 -1.80022 -1.48709 0
M  V30 2679 C 244.319 -0.651995 -1.57108 0
M  V30 2680 O 245.504 -0.89913 -1.72132 0
M  V30 2681 C 242.634 -1.96492 -2.86371 0
M  V30 2682 C 241.588 -3.12161 -2.92813 0
M  V30 2683 C 240.914 -3.13877 -4.3288 0
M  V30 2684 C 242.214 -4.51322 -2.6288 0
M  V30 2685 H 243.908 -2.71589 -1.26015 0
M  V30 2686 H 241.454 -1.30684 -0.604778 0
M  V30 2687 H 243.407 -2.14255 -3.62867 0
M  V30 2688 H 242.131 -1.01611 -3.10391 0
M  V30 2689 H 240.79 -2.94173 -2.18764 0
M  V30 2690 H 240.438 -2.16687 -4.53933 0
M  V30 2691 H 240.138 -3.91576 -4.38112 0
M  V30 2692 H 241.662 -3.33789 -5.1129 0
M  V30 2693 H 243.076 -4.69435 -3.29096 0
M  V30 2694 H 241.473 -5.31053 -2.79468 0
M  V30 2695 H 242.543 -4.58353 -1.58242 0
M  V30 2696 N 243.887 0.651787 -1.4349 0
M  V30 2697 C 244.819 1.77725 -1.44729 0
M  V30 2698 C 245.832 1.59141 -0.343231 0
M  V30 2699 O 247.021 1.67835 -0.607751 0
M  V30 2700 C 244.121 3.15172 -1.24579 0
M  V30 2701 C 243.294 3.60402 -2.47849 0
M  V30 2702 C 242.353 4.76656 -2.22902 0
M  V30 2703 O 241.379 4.86022 -2.96263 0
M  V30 2704 N 242.581 5.66958 -1.24656 0
M  V30 2705 H 245.346 1.77141 -2.41746 0
M  V30 2706 H 242.907 0.835678 -1.38665 0
M  V30 2707 H 244.899 3.90634 -1.0577 0
M  V30 2708 H 243.469 3.1052 -0.360015 0
M  V30 2709 H 242.689 2.75369 -2.82073 0
M  V30 2710 H 243.977 3.87368 -3.29884 0
M  V30 2711 H 243.375 5.62065 -0.640265 0
M  V30 2712 H 241.932 6.42135 -1.1183 0
M  V30 2713 N 245.365 1.30045 0.890287 0
M  V30 2714 C 246.593 1.21472 1.67487 0
M  V30 2715 C 247.008 -0.223241 1.87476 0
M  V30 2716 O 246.365 -1.14828 1.41847 0
M  V30 2717 C 246.416 1.93394 3.05419 0
M  V30 2718 O 246.137 3.31576 2.86337 0
M  V30 2719 C 247.638 1.91414 3.99844 0
M  V30 2720 H 244.858 0.420604 0.522813 0
M  V30 2721 H 247.402 1.7158 1.11268 0
M  V30 2722 H 245.557 1.47099 3.58386 0
M  V30 2723 H 245.971 3.67929 3.73802 0
M  V30 2724 H 247.445 2.46285 4.94012 0
M  V30 2725 H 247.922 0.891833 4.3005 0
M  V30 2726 H 248.528 2.37496 3.52811 0
M  V30 2727 N 246.843 -1.10192 1.12674 0
M  V30 2728 C 248.083 -1.83825 0.893736 0
M  V30 2729 C 248.447 -1.83341 -0.570082 0
M  V30 2730 O 249.648 -2.52553 -0.920354 0
M  V30 2731 C 247.919 -3.26405 1.45582 0
M  V30 2732 S 249.478 -4.17136 1.36171 0
M  V30 2733 H 246.296 -0.633732 0.322342 0
M  V30 2734 H 248.898 -1.32581 1.43675 0
M  V30 2735 H 247.602 -3.24329 2.51473 0
M  V30 2736 H 247.133 -3.82721 0.910405 0
M  V30 2737 H 249.148 -4.95069 0.334863 0
M  V30 2738 N 248.321 -0.919034 -1.28029 0
M  V30 2739 C 249.561 -0.562107 -1.96519 0
M  V30 2740 C 249.925 0.878784 -1.70708 0
M  V30 2741 O 251.126 1.34355 -2.32813 0
M  V30 2742 C 249.397 -0.868953 -3.46676 0
M  V30 2743 S 250.956 -0.619237 -4.34409 0
M  V30 2744 H 247.774 -0.2078 -0.679956 0
M  V30 2745 H 250.376 -1.18562 -1.55446 0
M  V30 2746 H 249.08 -1.91547 -3.62957 0
M  V30 2747 H 248.611 -0.234301 -3.92702 0
M  V30 2748 H 250.626 0.526995 -4.93394 0
M  V30 2749 N 249.799 1.42003 -0.683588 0
M  V30 2750 C 251.047 2.01015 -0.209101 0
M  V30 2751 C 251.368 1.54365 1.19149 0
M  V30 2752 O 250.638 0.769083 1.80172 0
M  V30 2753 H 249.218 0.743294 -0.074315 0
M  V30 2754 H 251.88 1.73798 -0.882066 0
M  V30 2755 H 250.976 3.11343 -0.2172 0
M  V30 2756 N 251.277 0.427512 1.51691 0
M  V30 2757 C 252.502 -0.143601 2.06902 0
M  V30 2758 C 252.927 -1.36536 1.29382 0
M  V30 2759 O 252.285 -1.78289 0.329043 0
M  V30 2760 C 252.333 -0.454207 3.57728 0
M  V30 2761 O 251.437 -1.54228 3.82475 0
M  V30 2762 H 250.778 -0.00617128 0.663971 0
M  V30 2763 H 253.308 0.606014 1.95419 0
M  V30 2764 H 253.318 -0.707525 4.01818 0
M  V30 2765 H 251.993 0.438812 4.13579 0
M  V30 2766 H 250.57 -1.2797 3.50254 0
M  V30 2767 N 252.755 -1.56801 0.158532 0
M  V30 2768 C 253.685 -2.20347 -0.772609 0
M  V30 2769 C 254.666 -1.15518 -1.24859 0
M  V30 2770 O 255.851 -1.43902 -1.30406 0
M  V30 2771 C 252.981 -2.83417 -2.00729 0
M  V30 2772 C 251.935 -3.94174 -1.66765 0
M  V30 2773 C 251.261 -4.44233 -2.97592 0
M  V30 2774 C 252.561 -5.14392 -0.905447 0
M  V30 2775 H 254.255 -2.98413 -0.242959 0
M  V30 2776 H 251.801 -1.43537 -0.115419 0
M  V30 2777 H 253.754 -3.26543 -2.6636 0
M  V30 2778 H 252.478 -2.02701 -2.56086 0
M  V30 2779 H 251.137 -3.51684 -1.03508 0
M  V30 2780 H 250.785 -3.60325 -3.50963 0
M  V30 2781 H 250.485 -5.18945 -2.75626 0
M  V30 2782 H 252.009 -4.90037 -3.64274 0
M  V30 2783 H 253.423 -5.5429 -1.46408 0
M  V30 2784 H 251.82 -5.9494 -0.7853 0
M  V30 2785 H 252.89 -4.84795 0.100668 0
M  V30 2786 N 254.233 0.115231 -1.57178 0
M  V30 2787 C 255.196 1.12526 -1.99676 0
M  V30 2788 C 256.196 1.34095 -0.88742 0
M  V30 2789 O 257.386 1.30548 -1.15337 0
M  V30 2790 C 254.518 2.4789 -2.34015 0
M  V30 2791 H 255.711 0.759912 -2.90113 0
M  V30 2792 H 253.264 0.359648 -1.52106 0
M  V30 2793 H 253.999 2.89339 -1.4647 0
M  V30 2794 H 253.784 2.33588 -3.14927 0
M  V30 2795 H 255.274 3.20575 -2.67622 0
M  V30 2796 N 255.711 1.52812 0.385517 0
M  V30 2797 C 256.941 1.71658 1.14966 0
M  V30 2798 C 257.349 0.436253 1.84102 0
M  V30 2799 O 256.692 -0.599313 1.73649 0
M  V30 2800 C 256.754 2.81309 2.23843 0
M  V30 2801 C 256.418 4.22313 1.74644 0
M  V30 2802 C 257.415 5.05352 1.22129 0
M  V30 2803 C 255.1 4.68648 1.80761 0
M  V30 2804 C 257.094 6.32807 0.763838 0
M  V30 2805 C 254.781 5.96086 1.34627 0
M  V30 2806 C 255.779 6.77996 0.825264 0
M  V30 2807 O 255.467 8.03045 0.370669 0
M  V30 2808 H 255.199 0.578022 0.350523 0
M  V30 2809 H 257.753 2.00263 0.456509 0
M  V30 2810 H 255.983 2.48133 2.96592 0
M  V30 2811 H 257.672 2.88524 2.85497 0
M  V30 2812 H 258.438 4.70736 1.16758 0
M  V30 2813 H 254.317 4.04979 2.20256 0
M  V30 2814 H 257.861 6.96689 0.356494 0
M  V30 2815 H 253.758 6.30205 1.39686 0
M  V30 2816 H 254.526 8.17021 0.491829 0
M  V30 2817 N 257.189 -0.644168 1.43834 0
M  V30 2818 C 258.152 -1.73857 1.49353 0
M  V30 2819 C 259.152 -1.56315 0.377112 0
M  V30 2820 O 260.342 -1.62048 0.639226 0
M  V30 2821 C 257.474 -3.12819 1.35488 0
M  V30 2822 H 258.667 -1.70342 2.46827 0
M  V30 2823 H 256.22 -0.856652 1.30733 0
M  V30 2824 H 256.955 -3.2194 0.390569 0
M  V30 2825 H 256.74 -3.26958 2.16428 0
M  V30 2826 H 258.23 -3.92606 1.42302 0
M  V30 2827 N 258.668 -1.30515 -0.883378 0
M  V30 2828 C 259.631 -1.1701 -1.97082 0
M  V30 2829 C 260.631 -0.10089 -1.60483 0
M  V30 2830 O 261.821 -0.349127 -1.70666 0
M  V30 2831 C 258.953 -0.793045 -3.31547 0
M  V30 2832 H 260.146 -2.13622 -2.10489 0
M  V30 2833 H 257.699 -1.13935 -1.06998 0
M  V30 2834 H 258.434 0.172499 -3.23841 0
M  V30 2835 H 258.219 -1.56576 -3.5948 0
M  V30 2836 H 259.709 -0.722073 -4.1131 0
M  V30 2837 N 260.146 1.09593 -1.13257 0
M  V30 2838 C 261.557 1.63229 -0.906274 0
M  V30 2839 C 261.908 1.8811 0.557578 0
M  V30 2840 O 261.033 1.62953 1.42391 0
M  V30 2841 C 261.628 2.96535 -1.63867 0
M  V30 2842 C 260.187 3.47003 -1.45828 0
M  V30 2843 C 259.334 2.2145 -1.66898 0
M  V30 2844 H 262.285 0.92978 -1.28611 0
M  V30 2845 H 262.306 3.64411 -1.09476 0
M  V30 2846 H 261.818 2.78394 -2.70404 0
M  V30 2847 H 259.919 3.70272 -0.415848 0
M  V30 2848 H 260.032 4.24551 -2.2202 0
M  V30 2849 H 258.396 2.30022 -1.09371 0
M  V30 2850 H 259.179 2.0583 -2.74752 0
M  V30 2851 N 261.624 0.925811 1.2754 0
M  V30 2852 C 262.534 0.428993 2.30644 0
M  V30 2853 C 263.55 -0.489387 1.66976 0
M  V30 2854 O 264.726 -0.372653 1.97922 0
M  V30 2855 C 261.791 -0.311967 3.45294 0
M  V30 2856 C 260.852 0.641098 4.24486 0
M  V30 2857 C 260.085 -0.0645955 5.33661 0
M  V30 2858 O 260.308 -1.28429 5.55754 0
M  V30 2859 O 259.242 0.606265 5.98839 0
M  V30 2860 H 263.068 1.28504 2.75173 0
M  V30 2861 H 260.653 0.691086 1.32455 0
M  V30 2862 H 262.535 -0.729972 4.15029 0
M  V30 2863 H 261.21 -1.14365 3.02824 0
M  V30 2864 H 260.117 1.10874 3.57292 0
M  V30 2865 H 261.45 1.43995 4.70666 0
M  V30 2866 N 263.102 -1.41638 0.69111 0
M  V30 2867 C 264.032 -2.3347 0.037248 0
M  V30 2868 C 265.013 -1.51575 -0.771947 0
M  V30 2869 O 266.198 -1.80126 -0.72582 0
M  V30 2870 C 263.328 -3.35354 -0.903064 0
M  V30 2871 C 262.282 -4.27526 -0.201288 0
M  V30 2872 C 261.608 -5.19747 -1.25565 0
M  V30 2873 C 262.908 -5.13959 0.929689 0
M  V30 2874 H 264.602 -2.88397 0.804227 0
M  V30 2875 H 262.148 -1.38669 0.388189 0
M  V30 2876 H 264.101 -3.98519 -1.36969 0
M  V30 2877 H 262.825 -2.78767 -1.70166 0
M  V30 2878 H 261.484 -3.65779 0.245265 0
M  V30 2879 H 261.132 -4.59479 -2.04666 0
M  V30 2880 H 260.832 -5.8225 -0.791128 0
M  V30 2881 H 262.356 -5.85789 -1.72288 0
M  V30 2882 H 263.77 -5.70718 0.543546 0
M  V30 2883 H 262.167 -5.85379 1.32103 0
M  V30 2884 H 263.237 -4.51389 1.77133 0
M  V30 2885 N 264.58 -0.43555 -1.51462 0
M  V30 2886 C 265.829 0.133007 -2.01261 0
M  V30 2887 C 266.142 1.43942 -1.32439 0
M  V30 2888 O 267.348 2.09081 -1.73198 0
M  V30 2889 C 265.804 0.287581 -3.58749 0
M  V30 2890 C 265.412 -1.00829 -4.36506 0
M  V30 2891 C 267.156 0.810004 -4.167 0
M  V30 2892 C 265.063 -0.819454 -5.85695 0
M  V30 2893 H 263.993 0.0534822 -0.752101 0
M  V30 2894 H 266.644 -0.565038 -1.74584 0
M  V30 2895 H 265.026 1.04859 -3.81865 0
M  V30 2896 H 266.2 -1.77749 -4.25138 0
M  V30 2897 H 264.515 -1.45911 -3.89999 0
M  V30 2898 H 267.112 0.967743 -5.2587 0
M  V30 2899 H 267.455 1.79196 -3.75758 0
M  V30 2900 H 267.988 0.107357 -3.97655 0
M  V30 2901 H 264.727 -1.77374 -6.31046 0
M  V30 2902 H 264.247 -0.0900208 -5.99732 0
M  V30 2903 H 265.926 -0.471949 -6.45276 0
M  V30 2904 N 266.058 1.56714 -0.166846 0
M  V30 2905 C 266.99 2.14914 0.796537 0
M  V30 2906 C 268.003 1.10357 1.19688 0
M  V30 2907 O 269.192 1.37561 1.13751 0
M  V30 2908 C 266.292 2.67326 2.08303 0
M  V30 2909 C 265.465 3.96493 1.84696 0
M  V30 2910 C 264.524 4.34014 2.97521 0
M  V30 2911 O 263.55 5.01973 2.6835 0
M  V30 2912 N 264.752 3.95208 4.25196 0
M  V30 2913 H 267.517 2.98205 0.299006 0
M  V30 2914 H 265.078 1.61892 0.0160839 0
M  V30 2915 H 267.07 2.89428 2.82867 0
M  V30 2916 H 265.64 1.88649 2.4926 0
M  V30 2917 H 264.86 3.82814 0.940602 0
M  V30 2918 H 266.148 4.8086 1.66285 0
M  V30 2919 H 265.546 3.40487 4.51758 0
M  V30 2920 H 264.103 4.2232 4.96477 0
M  V30 2921 N 267.536 -0.106894 1.57237 0
M  V30 2922 C 268.784 -0.810921 1.85117 0
M  V30 2923 C 269.105 -1.7984 0.753827 0
M  V30 2924 O 268.375 -1.94649 -0.221056 0
M  V30 2925 H 266.955 -0.302466 0.683025 0
M  V30 2926 H 269.617 -0.0913324 1.94686 0
M  V30 2927 H 268.713 -1.34875 2.81452 0
M  V30 2928 N 269.014 -1.53014 -0.377408 0
M  V30 2929 C 269.961 -1.78616 -1.46168 0
M  V30 2930 C 270.931 -0.629917 -1.53692 0
M  V30 2931 O 272.116 -0.870861 -1.69766 0
M  V30 2932 C 269.256 -1.97123 -2.8326 0
M  V30 2933 C 268.369 -3.24831 -2.84796 0
M  V30 2934 C 267.504 -3.33591 -4.13389 0
M  V30 2935 C 266.543 -4.55377 -4.09021 0
M  V30 2936 N 265.68 -4.61355 -5.29241 0
M  V30 2937 H 270.52 -2.71142 -1.23637 0
M  V30 2938 H 268.057 -1.34326 -0.599577 0
M  V30 2939 H 270.015 -2.05839 -3.62886 0
M  V30 2940 H 268.645 -1.07946 -3.04216 0
M  V30 2941 H 267.697 -3.25128 -1.97474 0
M  V30 2942 H 269.009 -4.14523 -2.77439 0
M  V30 2943 H 268.163 -3.41554 -5.01424 0
M  V30 2944 H 266.902 -2.41894 -4.23484 0
M  V30 2945 H 265.907 -4.47527 -3.19373 0
M  V30 2946 H 267.132 -5.48402 -4.00539 0
M  V30 2947 H 265.078 -3.72554 -5.39944 0
M  V30 2948 H 264.995 -5.44935 -5.24006 0
M  V30 2949 H 266.263 -4.73586 -6.19141 0
M  V30 2950 N 270.492 0.636531 -1.44174 0
M  V30 2951 C 271.717 1.42847 -1.50364 0
M  V30 2952 C 272.142 1.87665 -0.127867 0
M  V30 2953 O 271.5 1.58408 0.88185 0
M  V30 2954 C 271.548 2.62854 -2.4686 0
M  V30 2955 O 270.652 3.62501 -1.9664 0
M  V30 2956 H 269.993 0.427642 -0.507955 0
M  V30 2957 H 272.523 0.777422 -1.89255 0
M  V30 2958 H 272.533 3.10465 -2.64718 0
M  V30 2959 H 271.208 2.29578 -3.46795 0
M  V30 2960 H 269.785 3.21735 -1.88523 0
M  V30 2961 N 271.97 1.30982 0.876444 0
M  V30 2962 C 273.2 1.23063 1.65949 0
M  V30 2963 C 273.608 -0.207537 1.88058 0
M  V30 2964 O 272.951 -1.14781 1.43426 0
M  V30 2965 C 273.013 1.89768 3.05333 0
M  V30 2966 C 272.677 3.39106 3.0636 0
M  V30 2967 C 273.674 4.3496 2.84791 0
M  V30 2968 C 271.359 3.80693 3.27686 0
M  V30 2969 C 273.353 5.70375 2.84519 0
M  V30 2970 C 271.04 5.16223 3.27043 0
M  V30 2971 C 272.038 6.10875 3.05485 0
M  V30 2972 O 271.726 7.43928 3.04674 0
M  V30 2973 H 271.458 0.426685 0.524324 0
M  V30 2974 H 274.012 1.7329 1.10271 0
M  V30 2975 H 272.242 1.34082 3.6271 0
M  V30 2976 H 273.931 1.75853 3.65829 0
M  V30 2977 H 274.697 4.0416 2.68103 0
M  V30 2978 H 270.576 3.07457 3.43499 0
M  V30 2979 H 274.12 6.44228 2.67611 0
M  V30 2980 H 270.017 5.4666 3.43269 0
M  V30 2981 H 270.785 7.53022 3.2078 0
M  V30 2982 N 273.449 -1.08991 1.13837 0
M  V30 2983 C 274.379 -2.17771 0.842507 0
M  V30 2984 C 275.36 -1.6892 -0.20001 0
M  V30 2985 O 276.545 -1.94113 -0.0579731 0
M  V30 2986 C 273.675 -3.4589 0.312644 0
M  V30 2987 C 272.629 -4.08099 1.28992 0
M  V30 2988 C 271.955 -5.31098 0.619623 0
M  V30 2989 C 273.255 -4.50077 2.65005 0
M  V30 2990 H 274.949 -2.42777 1.75213 0
M  V30 2991 H 272.495 -1.16682 0.843875 0
M  V30 2992 H 274.448 -4.21297 0.0933043 0
M  V30 2993 H 273.172 -3.20419 -0.632382 0
M  V30 2994 H 271.831 -3.34717 1.49533 0
M  V30 2995 H 271.479 -5.0191 -0.33102 0
M  V30 2996 H 271.179 -5.73674 1.27167 0
M  V30 2997 H 272.703 -6.09224 0.409669 0
M  V30 2998 H 274.117 -5.16688 2.48407 0
M  V30 2999 H 272.514 -5.03553 3.26427 0
M  V30 3000 H 273.584 -3.62257 3.22332 0
M  V30 3001 N 274.927 -0.932562 -1.27047 0
M  V30 3002 C 276.175 -0.574422 -1.93765 0
M  V30 3003 C 276.496 0.887993 -1.73608 0
M  V30 3004 O 275.766 1.62999 -1.08665 0
M  V30 3005 H 274.346 -0.209451 -0.717035 0
M  V30 3006 H 277.008 -1.18601 -1.5466 0
M  V30 3007 H 276.104 -0.784841 -3.02071 0
M  V30 3008 N 276.405 1.4127 -0.698611 0
M  V30 3009 C 277.63 2.06024 -0.238512 0
M  V30 3010 C 278.055 1.5224 1.10475 0
M  V30 3011 O 277.413 0.650623 1.69223 0
M  V30 3012 C 277.461 3.59988 -0.209952 0
M  V30 3013 O 276.565 4.04282 0.814235 0
M  V30 3014 H 275.906 0.653829 -0.115775 0
M  V30 3015 H 278.436 1.8098 -0.954326 0
M  V30 3016 H 278.446 4.07979 -0.0418436 0
M  V30 3017 H 277.121 3.98503 -1.1903 0
M  V30 3018 H 275.698 3.6779 0.615234 0
M  V30 3019 N 277.883 0.443576 1.51229 0
M  V30 3020 C 278.793 -0.370721 2.31652 0
M  V30 3021 C 279.809 -1.02186 1.40833 0
M  V30 3022 O 280.985 -1.01586 1.73903 0
M  V30 3023 C 278.05 -1.45376 3.14749 0
M  V30 3024 C 277.111 -0.822099 4.21355 0
M  V30 3025 C 276.344 -1.85353 5.0048 0
M  V30 3026 O 276.567 -3.07656 4.80316 0
M  V30 3027 O 275.501 -1.4406 5.84406 0
M  V30 3028 H 279.327 0.286002 3.0235 0
M  V30 3029 H 276.912 0.20598 1.47973 0
M  V30 3030 H 278.794 -2.08173 3.66391 0
M  V30 3031 H 277.469 -2.09445 2.46809 0
M  V30 3032 H 276.376 -0.155909 3.73775 0
M  V30 3033 H 277.709 -0.224797 4.91686 0
M  V30 3034 N 279.361 -1.56624 0.175154 0
M  V30 3035 C 280.324 -2.16934 -0.739738 0
M  V30 3036 C 281.324 -1.11842 -1.15533 0
M  V30 3037 O 282.514 -1.37335 -1.07167 0
M  V30 3038 C 279.646 -2.75531 -2.00738 0
M  V30 3039 H 280.839 -2.99131 -0.214639 0
M  V30 3040 H 278.392 -1.56123 -0.0744197 0
M  V30 3041 H 279.127 -1.97078 -2.57548 0
M  V30 3042 H 278.912 -3.52444 -1.71831 0
M  V30 3043 H 280.402 -3.21904 -2.66021 0
M  V30 3044 N 280.839 0.0985539 -1.57292 0
M  V30 3045 C 282.116 0.834155 -1.76921 0
M  V30 3046 C 282.496 1.97101 -0.755928 0
M  V30 3047 O 281.844 2.27474 0.216245 0
M  V30 3048 C 282.054 1.33194 -3.22584 0
M  V30 3049 C 283.402 1.77611 -3.85668 0
M  V30 3050 O 284.426 1.42825 -3.26312 0
M  V30 3051 O 283.285 2.4192 -4.90038 0
M  V30 3052 H 280.379 0.397628 -0.725135 0
M  V30 3053 H 282.925 0.0807044 -1.69508 0
M  V30 3054 H 281.697 0.517248 -3.87866 0
M  V30 3055 H 281.32 2.1475 -3.34616 0
M  V30 3056 N 282.317 1.53212 0.369288 0
M  V30 3057 C 283.563 1.69466 1.11397 0
M  V30 3058 C 283.896 0.443257 1.89074 0
M  V30 3059 O 283.171 -0.559386 1.86282 0
M  V30 3060 C 283.454 2.9422 2.07621 0
M  V30 3061 C 283.307 4.29508 1.33577 0
M  V30 3062 C 284.626 3.14565 3.07794 0
M  V30 3063 H 281.745 0.616667 0.403597 0
M  V30 3064 H 284.387 1.85845 0.395179 0
M  V30 3065 H 282.537 2.80387 2.68916 0
M  V30 3066 H 284.209 4.55147 0.750955 0
M  V30 3067 H 282.452 4.29088 0.637618 0
M  V30 3068 H 283.123 5.12926 2.03989 0
M  V30 3069 H 285.599 3.2756 2.56601 0
M  V30 3070 H 284.475 4.03297 3.72348 0
M  V30 3071 H 284.736 2.29675 3.77759 0
M  V30 3072 N 283.795 -0.628877 1.44509 0
M  V30 3073 C 285.041 -1.38863 1.48623 0
M  V30 3074 C 285.396 -1.92038 0.117933 0
M  V30 3075 O 284.689 -1.70853 -0.86716 0
M  V30 3076 C 284.883 -2.56995 2.48371 0
M  V30 3077 C 284.712 -2.15385 3.94765 0
M  V30 3078 C 283.482 -2.02558 4.62924 0
M  V30 3079 C 285.68 -1.74158 4.83915 0
M  V30 3080 N 283.662 -1.54534 5.94132 0
M  V30 3081 C 285.033 -1.37396 6.04584 0
M  V30 3082 C 287.088 -1.61559 4.7096 0
M  V30 3083 C 285.791 -0.892948 7.13736 0
M  V30 3084 C 287.817 -1.14862 5.80139 0
M  V30 3085 C 287.179 -0.790516 6.9995 0
M  V30 3086 H 283.278 -0.502858 0.59888 0
M  V30 3087 H 285.862 -0.72121 1.8085 0
M  V30 3088 H 284.033 -3.21362 2.1813 0
M  V30 3089 H 285.765 -3.23801 2.42766 0
M  V30 3090 H 282.52 -2.23082 4.1777 0
M  V30 3091 H 282.944 -1.32815 6.63844 0
M  V30 3092 H 287.586 -1.87876 3.78764 0
M  V30 3093 H 285.304 -0.617291 8.05739 0
M  V30 3094 H 288.89 -1.05569 5.72142 0
M  V30 3095 H 287.77 -0.434713 7.82994 0
M  V30 3096 N 285.273 -1.31445 -0.869486 0
M  V30 3097 C 286.498 -1.24256 -1.66058 0
M  V30 3098 C 286.923 0.188928 -1.87149 0
M  V30 3099 O 286.281 1.13522 -1.4136 0
M  V30 3100 C 286.329 -1.9924 -3.00559 0
M  V30 3101 O 285.433 -1.33007 -3.90362 0
M  V30 3102 H 284.774 -0.428973 -0.506831 0
M  V30 3103 H 287.304 -1.73521 -1.08404 0
M  V30 3104 H 287.314 -2.08854 -3.50491 0
M  V30 3105 H 285.989 -3.03342 -2.84528 0
M  V30 3106 H 284.566 -1.31848 -3.48813 0
M  V30 3107 N 286.751 1.08385 -1.14413 0
M  V30 3108 C 287.684 2.14642 -0.774871 0
M  V30 3109 C 288.662 1.60761 0.243876 0
M  V30 3110 O 289.846 1.88031 0.132883 0
M  V30 3111 C 286.973 3.38366 -0.150491 0
M  V30 3112 C 286.019 4.10997 -1.13945 0
M  V30 3113 S 286.852 4.63797 -2.67679 0
M  V30 3114 C 288.008 5.90808 -2.06631 0
M  V30 3115 H 288.241 2.45633 -1.67487 0
M  V30 3116 H 285.774 1.20498 -0.96538 0
M  V30 3117 H 287.732 4.09996 0.203334 0
M  V30 3118 H 286.393 3.05572 0.72694 0
M  V30 3119 H 285.586 4.99783 -0.65059 0
M  V30 3120 H 285.188 3.4528 -1.43727 0
M  V30 3121 H 287.48 6.62411 -1.4219 0
M  V30 3122 H 288.423 6.4439 -2.93542 0
M  V30 3123 H 288.831 5.4383 -1.51357 0
M  V30 3124 N 288.23 0.939286 1.26551 0
M  V30 3125 C 289.478 0.58469 1.93457 0
M  V30 3126 C 289.799 -0.878774 1.74076 0
M  V30 3127 O 289.069 -1.62421 1.09528 0
M  V30 3128 H 287.649 0.21325 0.715914 0
M  V30 3129 H 290.311 1.1942 1.54029 0
M  V30 3130 H 289.407 0.800849 3.0165 0
M  V30 3131 N 289.708 -1.40897 0.706093 0
M  V30 3132 C 290.957 -2.00284 0.238574 0
M  V30 3133 C 291.27 -1.56604 -1.17194 0
M  V30 3134 O 292.476 -2.08624 -1.73748 0
M  V30 3135 C 290.932 -3.57934 0.375623 0
M  V30 3136 C 290.54 -4.10591 1.79217 0
M  V30 3137 C 292.284 -4.24488 -0.0315857 0
M  V30 3138 C 290.191 -5.60712 1.88032 0
M  V30 3139 H 289.121 -0.749144 0.0854398 0
M  V30 3140 H 291.772 -1.61251 0.875813 0
M  V30 3141 H 290.154 -3.94622 -0.330042 0
M  V30 3142 H 291.328 -3.85301 2.52745 0
M  V30 3143 H 289.643 -3.56601 2.15 0
M  V30 3144 H 292.24 -5.34698 0.0136842 0
M  V30 3145 H 292.583 -4.02261 -1.072 0
M  V30 3146 H 293.116 -3.92873 0.624181 0
M  V30 3147 H 289.855 -5.87781 2.90161 0
M  V30 3148 H 289.375 -5.87896 1.18903 0
M  V30 3149 H 291.054 -6.25658 1.64805 0
M  V30 3150 N 291.186 -0.45159 -1.50991 0
M  V30 3151 C 292.116 0.342898 -2.30969 0
M  V30 3152 C 293.097 1.00815 -1.37005 0
M  V30 3153 O 294.282 1.00907 -1.65926 0
M  V30 3154 C 291.412 1.43637 -3.16205 0
M  V30 3155 C 290.366 0.893818 -4.18563 0
M  V30 3156 C 289.692 2.08411 -4.92411 0
M  V30 3157 C 290.992 -0.0815568 -5.22236 0
M  V30 3158 H 292.686 -0.324556 -2.97636 0
M  V30 3159 H 290.232 -0.157531 -1.43136 0
M  V30 3160 H 292.185 1.9995 -3.70942 0
M  V30 3161 H 290.909 2.13232 -2.47386 0
M  V30 3162 H 289.568 0.352798 -3.64898 0
M  V30 3163 H 289.216 2.76658 -4.20082 0
M  V30 3164 H 288.916 1.72741 -5.61636 0
M  V30 3165 H 290.44 2.65251 -5.49976 0
M  V30 3166 H 291.854 0.391742 -5.7196 0
M  V30 3167 H 290.251 -0.351551 -5.99069 0
M  V30 3168 H 291.321 -1.01374 -4.74185 0
M  V30 3169 N 292.664 1.56529 -0.183458 0
M  V30 3170 C 293.594 2.21549 0.737456 0
M  V30 3171 C 294.575 1.17489 1.23005 0
M  V30 3172 O 295.76 1.45959 1.281 0
M  V30 3173 C 292.89 2.86575 1.96194 0
M  V30 3174 C 291.844 3.96778 1.60473 0
M  V30 3175 C 291.17 4.48911 2.90487 0
M  V30 3176 C 292.47 5.15767 0.823497 0
M  V30 3177 H 294.164 2.98761 0.195453 0
M  V30 3178 H 291.71 1.43702 0.0925686 0
M  V30 3179 H 293.663 3.30739 2.61131 0
M  V30 3180 H 292.387 2.06749 2.52828 0
M  V30 3181 H 291.046 3.53286 0.978997 0
M  V30 3182 H 290.694 3.65862 3.45186 0
M  V30 3183 H 290.394 5.23265 2.67335 0
M  V30 3184 H 291.918 4.95771 3.56432 0
M  V30 3185 H 293.332 5.56549 1.37571 0
M  V30 3186 H 291.729 5.96114 0.690551 0
M  V30 3187 H 292.799 4.84574 -0.177782 0
M  V30 3188 N 294.142 -0.090211 1.57342 0
M  V30 3189 C 295.372 -0.805055 1.90269 0
M  V30 3190 C 295.78 -1.72561 0.775842 0
M  V30 3191 O 295.123 -1.81839 -0.260843 0
M  V30 3192 C 295.185 -1.66734 3.18497 0
M  V30 3193 C 294.849 -0.918092 4.47683 0
M  V30 3194 C 295.846 -0.245674 5.19319 0
M  V30 3195 C 293.531 -0.890724 4.94339 0
M  V30 3196 C 295.525 0.444088 6.35851 0
M  V30 3197 C 293.212 -0.197179 6.10782 0
M  V30 3198 C 294.21 0.469044 6.81388 0
M  V30 3199 O 293.898 1.15146 7.95611 0
M  V30 3200 H 293.63 -0.235143 0.633785 0
M  V30 3201 H 296.184 -0.0703805 2.05279 0
M  V30 3202 H 294.414 -2.44437 2.99646 0
M  V30 3203 H 296.103 -2.25919 3.37217 0
M  V30 3204 H 296.869 -0.258246 4.84312 0
M  V30 3205 H 292.748 -1.39873 4.39268 0
M  V30 3206 H 296.292 0.964667 6.90898 0
M  V30 3207 H 292.189 -0.18247 6.45242 0
M  V30 3208 H 292.957 1.05885 8.11622 0
M  V30 3209 N 295.62 -1.53406 -0.361157 0
M  V30 3210 C 296.866 -1.70054 -1.10496 0
M  V30 3211 C 297.199 -0.453278 -1.88836 0
M  V30 3212 O 296.474 0.5495 -1.86576 0
M  V30 3213 C 296.757 -2.95317 -2.06058 0
M  V30 3214 C 296.61 -4.3021 -1.31298 0
M  V30 3215 C 297.929 -3.16193 -3.06121 0
M  V30 3216 H 295.048 -0.618799 -0.400321 0
M  V30 3217 H 297.69 -1.86052 -0.385318 0
M  V30 3218 H 295.84 -2.81809 -2.67425 0
M  V30 3219 H 297.512 -4.55538 -0.726807 0
M  V30 3220 H 295.755 -4.29421 -0.614853 0
M  V30 3221 H 296.426 -5.14 -2.01265 0
M  V30 3222 H 298.902 -3.28916 -2.5486 0
M  V30 3223 H 297.778 -4.05266 -3.70204 0
M  V30 3224 H 298.039 -2.31676 -3.76535 0
M  V30 3225 N 297.098 0.621204 -1.44841 0
M  V30 3226 C 298.028 1.74366 -1.55303 0
M  V30 3227 C 299.009 1.65199 -0.405385 0
M  V30 3228 O 300.194 1.83807 -0.626787 0
M  V30 3229 C 297.324 3.12931 -1.50637 0
M  V30 3230 C 296.278 3.36896 -2.63979 0
M  V30 3231 C 295.604 4.75594 -2.44366 0
M  V30 3232 C 296.904 3.28483 -4.06074 0
M  V30 3233 H 298.598 1.65867 -2.49256 0
M  V30 3234 H 296.144 0.796558 -1.19962 0
M  V30 3235 H 298.097 3.9124 -1.56555 0
M  V30 3236 H 296.821 3.22237 -0.532057 0
M  V30 3237 H 295.48 2.60972 -2.57467 0
M  V30 3238 H 295.128 4.81616 -1.45105 0
M  V30 3239 H 294.828 4.92586 -3.20364 0
M  V30 3240 H 296.352 5.5612 -2.52117 0
M  V30 3241 H 297.766 3.96684 -4.13902 0
M  V30 3242 H 296.163 3.57008 -4.82354 0
M  V30 3243 H 297.233 2.26133 -4.28943 0
M  V30 3244 N 298.576 1.31904 0.862503 0
M  V30 3245 C 299.509 1.14514 1.97388 0
M  V30 3246 C 300.487 0.0466493 1.62533 0
M  V30 3247 O 301.671 0.204484 1.87388 0
M  V30 3248 C 298.798 0.751347 3.30261 0
M  V30 3249 C 297.844 1.85395 3.84098 0
M  V30 3250 S 298.677 3.46081 4.08642 0
M  V30 3251 C 299.833 3.08655 5.44502 0
M  V30 3252 H 300.066 2.08597 2.11836 0
M  V30 3253 H 297.599 1.16475 1.01356 0
M  V30 3254 H 299.557 0.530901 4.07052 0
M  V30 3255 H 298.218 -0.170493 3.13637 0
M  V30 3256 H 297.411 1.53122 4.80177 0
M  V30 3257 H 297.013 2.02984 3.14123 0
M  V30 3258 H 299.305 2.58012 6.26447 0
M  V30 3259 H 300.248 4.03726 5.81731 0
M  V30 3260 H 300.656 2.45891 5.08132 0
M  V30 3261 N 300.054 -1.07777 1.14986 0
M  V30 3262 C 301.294 -1.81888 0.932527 0
M  V30 3263 C 301.658 -1.84509 -0.531064 0
M  V30 3264 O 302.859 -2.54448 -0.866577 0
M  V30 3265 C 301.13 -3.23244 1.52473 0
M  V30 3266 S 302.689 -4.14154 1.44989 0
M  V30 3267 H 299.507 -0.626752 0.335712 0
M  V30 3268 H 302.109 -1.29503 1.46455 0
M  V30 3269 H 300.813 -3.18922 2.58296 0
M  V30 3270 H 300.344 -3.80704 0.991381 0
M  V30 3271 H 302.359 -4.94247 0.439799 0
M  V30 3272 N 301.532 -0.945985 -1.26051 0
M  V30 3273 C 302.78 -0.594941 -1.93145 0
M  V30 3274 C 303.101 0.86953 -1.7454 0
M  V30 3275 O 302.371 1.61838 -1.10387 0
M  V30 3276 H 300.951 -0.217044 -0.714773 0
M  V30 3277 H 303.613 -1.20235 -1.53393 0
M  V30 3278 H 302.709 -0.816835 -3.01221 0
M  V30 3279 N 303.011 1.40521 -0.713556 0
M  V30 3280 C 304.258 2.00923 -0.25219 0
M  V30 3281 C 304.586 1.56571 1.15395 0
M  V30 3282 O 303.841 0.775874 1.79663 0
M  V30 3283 C 304.14 3.56317 -0.278 0
M  V30 3284 C 303.806 4.20246 -1.63415 0
M  V30 3285 C 302.468 4.37422 -2.00538 0
M  V30 3286 C 304.82 4.55923 -2.52554 0
M  V30 3287 C 302.148 4.87558 -3.2635 0
M  V30 3288 C 304.5 5.07458 -3.77716 0
M  V30 3289 C 303.164 5.22843 -4.14959 0
M  V30 3290 H 302.434 0.735231 -0.0922829 0
M  V30 3291 H 305.081 1.68161 -0.916188 0
M  V30 3292 H 303.386 3.88976 0.469567 0
M  V30 3293 H 305.083 4.00883 0.0967819 0
M  V30 3294 H 301.673 4.07263 -1.33546 0
M  V30 3295 H 305.857 4.42291 -2.25149 0
M  V30 3296 H 301.113 4.97654 -3.55176 0
M  V30 3297 H 305.287 5.34041 -4.4696 0
M  V30 3298 H 302.914 5.61454 -5.12516 0
M  V30 3299 N 304.489 0.459591 1.5075 0
M  V30 3300 C 305.419 -0.330644 2.31147 0
M  V30 3301 C 306.4 -1.00087 1.37538 0
M  V30 3302 O 307.585 -1.00025 1.66459 0
M  V30 3303 C 304.715 -1.41958 3.16962 0
M  V30 3304 C 303.669 -0.871608 4.19031 0
M  V30 3305 C 302.995 -2.05797 4.9351 0
M  V30 3306 C 304.295 0.109251 5.22186 0
M  V30 3307 H 305.989 0.340336 2.97459 0
M  V30 3308 H 303.535 0.165119 1.4305 0
M  V30 3309 H 305.488 -1.9798 3.71997 0
M  V30 3310 H 304.212 -2.11917 2.48513 0
M  V30 3311 H 302.871 -0.333442 3.6508 0
M  V30 3312 H 302.519 -2.74427 4.21544 0
M  V30 3313 H 302.219 -1.6976 5.62544 0
M  V30 3314 H 303.743 -2.62331 5.51375 0
M  V30 3315 H 305.157 -0.361405 5.7216 0
M  V30 3316 H 303.554 0.383316 5.98875 0
M  V30 3317 H 304.624 1.03887 4.73641 0
M  V30 3318 N 305.967 -1.56429 0.191757 0
M  V30 3319 C 307.378 -1.83912 -0.321428 0
M  V30 3320 C 307.729 -1.11231 -1.61623 0
M  V30 3321 O 306.854 -0.37202 -2.13178 0
M  V30 3322 C 307.449 -3.33624 -0.589961 0
M  V30 3323 C 306.008 -3.6153 -1.04753 0
M  V30 3324 C 305.155 -2.7714 -0.0943327 0
M  V30 3325 H 308.106 -1.53161 0.415612 0
M  V30 3326 H 308.127 -3.52213 -1.43966 0
M  V30 3327 H 307.639 -3.86495 0.352588 0
M  V30 3328 H 305.74 -3.14089 -2.00447 0
M  V30 3329 H 305.853 -4.69737 -0.942549 0
M  V30 3330 H 304.217 -2.47638 -0.595589 0
M  V30 3331 H 305 -3.32799 0.842601 0
M  V30 3332 N 307.445 0.0818655 -1.57387 0
M  V30 3333 C 308.692 0.782914 -1.86753 0
M  V30 3334 C 309.02 1.78082 -0.782118 0
M  V30 3335 O 308.275 1.94426 0.22295 0
M  V30 3336 C 308.574 1.53513 -3.22752 0
M  V30 3337 C 308.24 0.678134 -4.45771 0
M  V30 3338 C 306.902 0.441929 -4.79166 0
M  V30 3339 C 309.254 0.0832243 -5.21134 0
M  V30 3340 C 306.582 -0.398833 -5.85343 0
M  V30 3341 C 308.934 -0.744935 -6.28199 0
M  V30 3342 C 307.598 -0.991107 -6.60101 0
M  V30 3343 H 306.868 0.286489 -0.683378 0
M  V30 3344 H 309.515 0.0439808 -1.91449 0
M  V30 3345 H 307.82 2.34599 -3.138 0
M  V30 3346 H 309.517 2.08218 -3.42705 0
M  V30 3347 H 306.107 0.872357 -4.19628 0
M  V30 3348 H 310.291 0.252847 -4.95655 0
M  V30 3349 H 305.547 -0.598405 -6.08465 0
M  V30 3350 H 309.721 -1.21271 -6.8576 0
M  V30 3351 H 307.348 -1.64437 -7.42202 0
M  V30 3352 N 308.923 1.53595 0.353017 0
M  V30 3353 C 310.2 1.61002 1.11075 0
M  V30 3354 C 310.58 0.425356 2.0677 0
M  V30 3355 O 309.928 -0.583267 2.2093 0
M  V30 3356 C 310.138 2.96631 1.83877 0
M  V30 3357 C 311.486 3.51653 2.37961 0
M  V30 3358 O 312.51 2.98743 1.93987 0
M  V30 3359 O 311.369 4.44177 3.18386 0
M  V30 3360 H 308.463 0.650825 0.510251 0
M  V30 3361 H 311.009 1.6594 0.35527 0
M  V30 3362 H 309.781 3.74293 1.14108 0
M  V30 3363 H 309.404 2.95242 2.66304 0
M  V30 3364 N 310.401 -0.613514 1.45168 0
M  V30 3365 C 311.678 -1.37263 1.39349 0
M  V30 3366 C 312.058 -2.11012 0.0610848 0
M  V30 3367 O 311.406 -2.07502 -0.956825 0
M  V30 3368 C 311.616 -2.3244 2.60332 0
M  V30 3369 C 312.964 -2.9523 3.05163 0
M  V30 3370 O 313.988 -2.42762 2.60663 0
M  V30 3371 O 312.847 -3.90454 3.82372 0
M  V30 3372 H 309.941 -0.615188 0.552696 0
M  V30 3373 H 312.487 -0.637097 1.57287 0
M  V30 3374 H 311.259 -1.77164 3.48896 0
M  V30 3375 H 310.882 -3.13383 2.44698 0
M  V30 3376 N 311.879 -1.3236 -0.855495 0
M  V30 3377 C 313.156 -1.13491 -1.59309 0
M  V30 3378 C 313.536 0.30503 -2.08885 0
M  V30 3379 O 312.884 1.30151 -1.87811 0
M  V30 3380 C 313.094 -2.16176 -2.73987 0
M  V30 3381 C 314.442 -2.49463 -3.43589 0
M  V30 3382 O 315.466 -2.14715 -2.84211 0
M  V30 3383 O 314.325 -3.09027 -4.50738 0
M  V30 3384 H 311.419 -0.437887 -0.701559 0
M  V30 3385 H 313.965 -1.43887 -0.899696 0
M  V30 3386 H 312.737 -3.1297 -2.34873 0
M  V30 3387 H 312.36 -1.86769 -3.51003 0
M  V30 3388 N 313.357 1.07166 -1.15556 0
M  V30 3389 C 314.305 2.16517 -0.8499 0
M  V30 3390 C 315.299 1.68468 0.177454 0
M  V30 3391 O 316.505 1.79971 0.0323026 0
M  V30 3392 H 312.88 0.706652 -0.25719 0
M  V30 3393 H 314.851 2.39514 -1.77976 0
M  V30 3394 C 313.6 3.45855 -0.357682 0
M  V30 3395 H 312.923 3.83214 -1.13961 0
M  V30 3396 H 314.363 4.23607 -0.182489 0
M  V30 3397 C 312.822 3.24062 0.921152 0
M  V30 3398 O 313.352 3.48813 1.9923 0
M  V30 3399 N 311.558 2.77539 0.86141 0
M  V30 3400 H 311.105 2.57598 -0.0104408 0
M  V30 3401 H 311.063 2.63337 1.71758 0
M  V30 3402 N 314.835 0.952656 1.25548 0
M  V30 3403 C 316.081 0.607272 1.93494 0
M  V30 3404 C 316.414 -0.853245 1.74452 0
M  V30 3405 O 315.689 -1.61194 1.08843 0
M  V30 3406 C 315.972 0.96435 3.46947 0
M  V30 3407 C 315.825 2.48045 3.75225 0
M  V30 3408 C 317.144 0.487987 4.37386 0
M  V30 3409 H 314.263 0.222096 0.702739 0
M  V30 3410 H 316.905 1.18895 1.48203 0
M  V30 3411 H 315.055 0.469361 3.85654 0
M  V30 3412 H 316.727 3.04905 3.46166 0
M  V30 3413 H 314.97 2.919 3.209 0
M  V30 3414 H 315.641 2.6808 4.82532 0
M  V30 3415 H 318.117 0.912558 4.0597 0
M  V30 3416 H 316.993 0.766547 5.43521 0
M  V30 3417 H 317.254 -0.612063 4.37843 0
M  V30 3418 N 316.313 -1.40141 0.720998 0
M  V30 3419 C 317.246 -2.2819 0.020916 0
M  V30 3420 C 318.224 -1.43633 -0.762129 0
M  V30 3421 O 319.408 -1.7304 -0.747633 0
M  V30 3422 C 316.535 -3.24281 -0.977715 0
M  V30 3423 C 315.581 -4.25548 -0.284836 0
M  V30 3424 S 316.414 -5.26247 0.991169 0
M  V30 3425 C 317.57 -6.259 -0.0052214 0
M  V30 3426 H 317.803 -2.87218 0.767649 0
M  V30 3427 H 315.336 -1.45656 0.512233 0
M  V30 3428 H 317.294 -3.80167 -1.54865 0
M  V30 3429 H 315.955 -2.643 -1.69719 0
M  V30 3430 H 315.148 -4.93154 -1.03996 0
M  V30 3431 H 314.75 -3.73389 0.213684 0
M  V30 3432 H 317.042 -6.72143 -0.850279 0
M  V30 3433 H 317.985 -7.05224 0.637599 0
M  V30 3434 H 318.393 -5.63277 -0.371366 0
M  V30 3435 N 317.792 -0.46758 -1.50504 0
M  V30 3436 C 318.755 0.317059 -2.26996 0
M  V30 3437 C 319.755 0.923513 -1.31635 0
M  V30 3438 O 320.945 0.793239 -1.55091 0
M  V30 3439 C 318.077 1.45134 -3.08462 0
M  V30 3440 H 319.27 -0.353723 -2.97807 0
M  V30 3441 H 316.823 -0.221545 -1.54722 0
M  V30 3442 H 317.558 2.15728 -2.4214 0
M  V30 3443 H 317.343 1.02232 -3.78538 0
M  V30 3444 H 318.833 2.00493 -3.66323 0
M  V30 3445 N 319.27 1.56325 -0.20005 0
M  V30 3446 C 320.2 2.22318 0.713916 0
M  V30 3447 C 321.181 1.18788 1.21752 0
M  V30 3448 O 322.366 1.47309 1.26545 0
M  V30 3449 C 319.496 2.88639 1.93144 0
M  V30 3450 C 318.45 3.98457 1.56255 0
M  V30 3451 C 317.776 4.51967 2.85709 0
M  V30 3452 C 319.076 5.16612 0.768747 0
M  V30 3453 H 320.77 2.98952 0.163755 0
M  V30 3454 H 318.316 1.43792 0.0773219 0
M  V30 3455 H 320.269 3.33491 2.57608 0
M  V30 3456 H 318.993 2.09419 2.50621 0
M  V30 3457 H 317.652 3.54305 0.941471 0
M  V30 3458 H 317.3 3.69503 3.41287 0
M  V30 3459 H 317 5.26071 2.6177 0
M  V30 3460 H 318.524 4.99523 3.51154 0
M  V30 3461 H 319.938 5.57977 1.3166 0
M  V30 3462 H 318.335 5.96812 0.627286 0
M  V30 3463 H 319.405 4.84358 -0.229168 0
M  V30 3464 N 320.748 -0.0735177 1.57428 0
M  V30 3465 C 321.978 -0.78483 1.91112 0
M  V30 3466 C 322.386 -1.71729 0.7941 0
M  V30 3467 O 321.729 -1.82105 -0.241542 0
M  V30 3468 C 321.791 -1.63346 3.20247 0
M  V30 3469 C 321.455 -0.870557 4.48632 0
M  V30 3470 C 322.452 -0.19058 5.19551 0
M  V30 3471 C 320.137 -0.838242 4.95256 0
M  V30 3472 C 322.131 0.511503 6.35344 0
M  V30 3473 C 319.818 -0.132386 6.10957 0
M  V30 3474 C 320.816 0.541288 6.80852 0
M  V30 3475 O 320.504 1.23578 7.94345 0
M  V30 3476 H 320.236 -0.228408 0.636244 0
M  V30 3477 H 322.79 -0.0486039 2.05342 0
M  V30 3478 H 321.02 -2.41245 3.02222 0
M  V30 3479 H 322.709 -2.22329 3.39595 0
M  V30 3480 H 323.475 -0.206864 4.84559 0
M  V30 3481 H 319.354 -1.35206 4.40727 0
M  V30 3482 H 322.898 1.03789 6.89836 0
M  V30 3483 H 318.795 -0.114023 6.45399 0
M  V30 3484 H 319.563 1.14487 8.10454 0
M  V30 3485 N 322.226 -1.5378 -0.344866 0
M  V30 3486 C 323.173 -1.81676 -1.42346 0
M  V30 3487 C 324.143 -0.662376 -1.52321 0
M  V30 3488 O 325.328 -0.906675 -1.67881 0
M  V30 3489 C 322.468 -2.03087 -2.79015 0
M  V30 3490 C 321.581 -3.30799 -2.77842 0
M  V30 3491 C 320.716 -3.42285 -4.0622 0
M  V30 3492 C 319.755 -4.6395 -3.9927 0
M  V30 3493 N 318.892 -4.72477 -5.19336 0
M  V30 3494 H 323.732 -2.73703 -1.17858 0
M  V30 3495 H 321.269 -1.35568 -0.570949 0
M  V30 3496 H 323.227 -2.1349 -3.58438 0
M  V30 3497 H 321.857 -1.14375 -3.01858 0
M  V30 3498 H 320.909 -3.29244 -1.90533 0
M  V30 3499 H 322.221 -4.20314 -2.68584 0
M  V30 3500 H 321.375 -3.52113 -4.94066 0
M  V30 3501 H 320.114 -2.50823 -4.18258 0
M  V30 3502 H 319.119 -4.54201 -3.09809 0
M  V30 3503 H 320.344 -5.56775 -3.88817 0
M  V30 3504 H 318.29 -3.83924 -5.3192 0
M  V30 3505 H 318.207 -5.55927 -5.12329 0
M  V30 3506 H 319.475 -4.86613 -6.08957 0
M  V30 3507 N 323.704 0.605807 -1.45491 0
M  V30 3508 C 324.651 1.7164 -1.54299 0
M  V30 3509 C 325.621 1.61486 -0.388761 0
M  V30 3510 O 326.806 1.81039 -0.602445 0
M  V30 3511 C 323.946 3.09953 -1.51734 0
M  V30 3512 C 323.059 3.309 -2.77721 0
M  V30 3513 C 322.194 4.59329 -2.66816 0
M  V30 3514 C 321.233 4.7354 -3.87848 0
M  V30 3515 N 320.37 5.9327 -3.75467 0
M  V30 3516 H 325.21 1.63449 -2.49176 0
M  V30 3517 H 322.747 0.796957 -1.23641 0
M  V30 3518 H 324.705 3.89977 -1.48235 0
M  V30 3519 H 323.335 3.17098 -0.604068 0
M  V30 3520 H 322.387 2.44639 -2.913 0
M  V30 3521 H 323.699 3.37274 -3.67488 0
M  V30 3522 H 322.853 5.4755 -2.61292 0
M  V30 3523 H 321.592 4.55355 -1.74651 0
M  V30 3524 H 320.597 3.83741 -3.93729 0
M  V30 3525 H 321.822 4.79309 -4.81082 0
M  V30 3526 H 319.768 5.90338 -2.86072 0
M  V30 3527 H 319.685 6.00811 -4.5887 0
M  V30 3528 H 320.953 6.83984 -3.73879 0
M  V30 3529 N 325.182 1.32811 0.848464 0
M  V30 3530 C 326.431 1.23075 1.59798 0
M  V30 3531 C 326.744 -0.204419 1.94529 0
M  V30 3532 O 327.95 -0.423701 2.68173 0
M  V30 3533 C 326.406 2.15594 2.88179 0
M  V30 3534 C 326.014 3.64228 2.60849 0
M  V30 3535 C 327.758 2.14709 3.66197 0
M  V30 3536 C 325.665 4.48689 3.85269 0
M  V30 3537 H 324.595 0.457091 0.599653 0
M  V30 3538 H 327.246 1.57813 0.936342 0
M  V30 3539 H 325.628 1.73778 3.55833 0
M  V30 3540 H 326.802 4.14424 2.01467 0
M  V30 3541 H 325.117 3.67306 1.96151 0
M  V30 3542 H 327.714 2.75046 4.58534 0
M  V30 3543 H 328.057 1.13966 4.00397 0
M  V30 3544 H 328.59 2.54837 3.05455 0
M  V30 3545 H 325.329 5.5027 3.56207 0
M  V30 3546 H 324.849 4.03241 4.44024 0
M  V30 3547 H 326.528 4.62006 4.52946 0
M  V30 3548 N 326.66 -1.06551 1.16123 0
M  V30 3549 C 327.593 -2.13382 0.80892 0
M  V30 3550 C 328.571 -1.61128 -0.21827 0
M  V30 3551 O 329.755 -1.88219 -0.102952 0
M  V30 3552 C 326.882 -3.38083 0.204303 0
M  V30 3553 C 325.928 -4.09133 1.20469 0
M  V30 3554 S 326.761 -4.5948 2.75024 0
M  V30 3555 C 327.917 -5.87446 2.16005 0
M  V30 3556 H 328.15 -2.42937 1.71373 0
M  V30 3557 H 325.683 -1.18947 0.984428 0
M  V30 3558 H 327.641 -4.10268 -0.138081 0
M  V30 3559 H 326.302 -3.0669 -0.678234 0
M  V30 3560 H 325.495 -4.98685 0.730019 0
M  V30 3561 H 325.097 -3.4295 1.49202 0
M  V30 3562 H 327.389 -6.60065 1.5271 0
M  V30 3563 H 328.332 -6.39639 3.03756 0
M  V30 3564 H 328.74 -5.41354 1.59989 0
M  V30 3565 N 328.138 -0.959301 -1.25041 0
M  V30 3566 C 329.554 -0.664474 -1.4511 0
M  V30 3567 C 329.754 0.776481 -1.85938 0
M  V30 3568 O 328.81 1.55128 -1.99227 0
M  V30 3569 C 330.123 -1.64139 -2.5195 0
M  V30 3570 C 331.671 -1.65309 -2.65786 0
M  V30 3571 C 332.146 -2.61777 -3.75815 0
M  V30 3572 N 333.637 -2.60169 -3.83231 0
M  V30 3573 C 334.372 -3.31489 -4.6787 0
M  V30 3574 N 333.868 -4.12298 -5.56761 0
M  V30 3575 N 335.661 -3.20354 -4.61876 0
M  V30 3576 H 327.812 -1.89043 -0.968332 0
M  V30 3577 H 330.075 -0.813408 -0.4869 0
M  V30 3578 H 329.781 -2.67086 -2.28819 0
M  V30 3579 H 329.655 -1.40756 -3.49954 0
M  V30 3580 H 332.042 -0.630778 -2.8828 0
M  V30 3581 H 332.123 -1.92753 -1.68167 0
M  V30 3582 H 331.767 -3.64137 -3.54071 0
M  V30 3583 H 331.697 -2.31616 -4.72929 0
M  V30 3584 H 334.188 -2.01507 -3.19692 0
M  V30 3585 H 334.501 -4.63625 -6.18281 0
M  V30 3586 H 332.846 -4.16395 -5.56454 0
M  V30 3587 H 336.037 -2.56692 -3.91442 0
M  V30 3588 H 336.21 -3.76201 -5.27614 0
M  V30 3589 N 329.616 1.39756 -0.72842 0
M  V30 3590 C 330.864 2.00248 -0.272946 0
M  V30 3591 C 331.185 1.58077 1.14178 0
M  V30 3592 O 330.455 0.826014 1.77634 0
M  V30 3593 H 329.035 0.740554 -0.0979247 0
M  V30 3594 H 331.697 1.70903 -0.936912 0
M  V30 3595 H 330.793 3.10495 -0.316142 0
M  V30 3596 N 331.094 0.475555 1.50254 0
M  V30 3597 C 332.041 -0.316293 2.28622 0
M  V30 3598 C 333.011 -0.983227 1.33873 0
M  V30 3599 O 334.196 -0.994805 1.62814 0
M  V30 3600 C 331.336 -1.38975 3.1588 0
M  V30 3601 C 330.449 -0.737146 4.25664 0
M  V30 3602 C 329.584 -1.78887 5.00173 0
M  V30 3603 C 328.623 -1.11676 6.01826 0
M  V30 3604 N 327.76 -2.11154 6.69596 0
M  V30 3605 H 332.6 0.358297 2.95838 0
M  V30 3606 H 330.137 0.188541 1.45887 0
M  V30 3607 H 332.095 -2.02383 3.64825 0
M  V30 3608 H 330.725 -2.03344 2.50701 0
M  V30 3609 H 329.777 0.0096065 3.80399 0
M  V30 3610 H 331.089 -0.206816 4.98371 0
M  V30 3611 H 330.243 -2.49865 5.52859 0
M  V30 3612 H 328.982 -2.35302 4.27182 0
M  V30 3613 H 327.987 -0.392633 5.48396 0
M  V30 3614 H 329.212 -0.55945 6.76792 0
M  V30 3615 H 327.158 -2.66577 5.99394 0
M  V30 3616 H 327.075 -1.63118 7.38193 0
M  V30 3617 H 328.343 -2.81497 7.26897 0
M  V30 3618 N 332.573 -1.56217 0.208337 0
M  V30 3619 C 333.803 -2.02043 -0.431523 0
M  V30 3620 C 334.211 -1.08755 -1.54819 0
M  V30 3621 O 333.554 -0.0870009 -1.83494 0
M  V30 3622 C 333.616 -3.44239 -1.03633 0
M  V30 3623 C 333.28 -4.56965 -0.0567502 0
M  V30 3624 C 334.277 -5.14624 0.738773 0
M  V30 3625 C 331.962 -5.02266 0.0581736 0
M  V30 3626 C 333.956 -6.16045 1.63605 0
M  V30 3627 C 331.643 -6.03528 0.959001 0
M  V30 3628 C 332.641 -6.60293 1.7465 0
M  V30 3629 O 332.329 -7.59586 2.6322 0
M  V30 3630 H 332.061 -0.666772 -0.111313 0
M  V30 3631 H 334.615 -2.02919 0.318277 0
M  V30 3632 H 332.845 -3.40391 -1.83497 0
M  V30 3633 H 334.534 -3.73793 -1.58221 0
M  V30 3634 H 335.3 -4.80483 0.660364 0
M  V30 3635 H 331.179 -4.57771 -0.544633 0
M  V30 3636 H 334.723 -6.60279 2.25116 0
M  V30 3637 H 330.62 -6.37092 1.03848 0
M  V30 3638 H 331.388 -7.77057 2.57148 0
M  V30 3639 N 334.051 0.0651679 -1.57465 0
M  V30 3640 C 335.328 0.79644 -1.78651 0
M  V30 3641 C 335.708 1.95454 -0.797566 0
M  V30 3642 O 335.056 2.27882 0.167946 0
M  V30 3643 C 335.266 1.26322 -3.25337 0
M  V30 3644 C 336.614 1.6939 -3.89348 0
M  V30 3645 O 337.638 1.35872 -3.29268 0
M  V30 3646 O 336.497 2.31471 -4.95059 0
M  V30 3647 H 333.591 0.382157 -0.733407 0
M  V30 3648 H 336.137 0.0447311 -1.69641 0
M  V30 3649 H 334.909 0.434859 -3.88876 0
M  V30 3650 H 334.532 2.07604 -3.39096 0
M  V30 3651 N 335.529 1.53961 0.336706 0
M  V30 3652 C 336.775 1.7179 1.07777 0
M  V30 3653 C 337.108 0.483263 1.88091 0
M  V30 3654 O 336.383 -0.519747 1.87427 0
M  V30 3655 C 336.666 2.98558 2.01334 0
M  V30 3656 C 336.519 4.32245 1.24437 0
M  V30 3657 C 337.838 3.21023 3.01052 0
M  V30 3658 H 334.957 0.625089 0.390426 0
M  V30 3659 H 337.599 1.86641 0.35567 0
M  V30 3660 H 335.749 2.86028 2.62908 0
M  V30 3661 H 337.421 4.56637 0.654243 0
M  V30 3662 H 335.664 4.30344 0.546458 0
M  V30 3663 H 336.335 5.17137 1.93063 0
M  V30 3664 H 338.811 3.32929 2.49595 0
M  V30 3665 H 337.687 4.11104 3.6371 0
M  V30 3666 H 337.948 2.37637 3.72802 0
M  V30 3667 N 337.007 -0.598083 1.45811 0
M  V30 3668 C 338.418 -1.18011 1.44673 0
M  V30 3669 C 338.769 -1.95378 0.179364 0
M  V30 3670 O 337.894 -2.04124 -0.718509 0
M  V30 3671 C 338.489 -2.14677 2.62105 0
M  V30 3672 C 337.048 -2.68236 2.64057 0
M  V30 3673 C 336.195 -1.43816 2.37091 0
M  V30 3674 H 339.146 -0.38686 1.53913 0
M  V30 3675 H 339.167 -2.97878 2.36746 0
M  V30 3676 H 338.679 -1.5834 3.5433 0
M  V30 3677 H 336.78 -3.28486 1.75864 0
M  V30 3678 H 336.893 -3.12021 3.63566 0
M  V30 3679 H 335.257 -1.731 1.86838 0
M  V30 3680 H 336.04 -0.893333 3.31473 0
M  V30 3681 N 338.485 -1.33259 -0.841409 0
M  V30 3682 C 339.432 -1.23302 -1.95103 0
M  V30 3683 C 340.402 -0.112204 -1.65721 0
M  V30 3684 O 341.587 -0.290038 -1.88583 0
M  V30 3685 C 338.727 -0.975583 -3.31023 0
M  V30 3686 C 337.84 -2.18243 -3.72819 0
M  V30 3687 C 336.975 -1.85936 -4.97595 0
M  V30 3688 C 336.014 -3.02866 -5.3192 0
M  V30 3689 N 335.151 -2.70565 -6.47873 0
M  V30 3690 H 339.991 -2.18207 -2.02952 0
M  V30 3691 H 337.528 -1.0851 -0.993173 0
M  V30 3692 H 339.486 -0.80677 -4.09325 0
M  V30 3693 H 338.116 -0.0632755 -3.22738 0
M  V30 3694 H 337.168 -2.46107 -2.90061 0
M  V30 3695 H 338.48 -3.05666 -3.94169 0
M  V30 3696 H 337.634 -1.65684 -5.83638 0
M  V30 3697 H 336.373 -0.957452 -4.78209 0
M  V30 3698 H 335.378 -3.23736 -4.44382 0
M  V30 3699 H 336.603 -3.93809 -5.53255 0
M  V30 3700 H 334.549 -1.8293 -6.29978 0
M  V30 3701 H 334.466 -3.51519 -6.69306 0
M  V30 3702 H 335.734 -2.53774 -7.37034 0
M  V30 3703 N 339.963 1.05934 -1.16686 0
M  V30 3704 C 341.209 1.79211 -0.962023 0
M  V30 3705 C 341.564 1.85667 0.504545 0
M  V30 3706 O 340.857 1.33991 1.36956 0
M  V30 3707 C 341.051 3.23105 -1.52767 0
M  V30 3708 C 340.88 3.30673 -3.04771 0
M  V30 3709 C 339.65 3.40395 -3.73442 0
M  V30 3710 C 341.848 3.20234 -4.02436 0
M  V30 3711 N 339.83 3.37015 -5.13122 0
M  V30 3712 C 341.201 3.24138 -5.28521 0
M  V30 3713 C 343.256 3.04143 -3.9421 0
M  V30 3714 C 341.959 3.13607 -6.47336 0
M  V30 3715 C 343.985 2.94951 -5.12599 0
M  V30 3716 C 343.347 2.99481 -6.37566 0
M  V30 3717 H 339.446 0.668442 -0.405844 0
M  V30 3718 H 342.03 1.26341 -1.48142 0
M  V30 3719 H 340.201 3.74364 -1.03471 0
M  V30 3720 H 341.933 3.84579 -1.26021 0
M  V30 3721 H 338.688 3.45344 -3.2409 0
M  V30 3722 H 339.112 3.38815 -5.86117 0
M  V30 3723 H 343.754 2.99484 -2.98445 0
M  V30 3724 H 341.472 3.17022 -7.43319 0
M  V30 3725 H 345.058 2.83583 -5.08008 0
M  V30 3726 H 343.938 2.92431 -7.27636 0
M  V30 3727 N 341.441 0.965919 1.2453 0
M  V30 3728 C 342.371 0.513476 2.27784 0
M  V30 3729 C 343.352 -0.445974 1.6415 0
M  V30 3730 O 344.537 -0.342485 1.91156 0
M  V30 3731 C 341.667 -0.198839 3.4673 0
M  V30 3732 C 340.621 0.676456 4.2262 0
M  V30 3733 C 339.947 -0.167248 5.34438 0
M  V30 3734 C 341.247 1.96017 4.84123 0
M  V30 3735 H 342.941 1.3765 2.65881 0
M  V30 3736 H 340.487 0.663321 1.27813 0
M  V30 3737 H 342.44 -0.526567 4.18097 0
M  V30 3738 H 341.164 -1.0962 3.07654 0
M  V30 3739 H 339.823 0.98743 3.53052 0
M  V30 3740 H 339.471 -1.0647 4.91603 0
M  V30 3741 H 339.171 0.415181 5.86131 0
M  V30 3742 H 340.695 -0.489688 6.08633 0
M  V30 3743 H 342.109 1.69814 5.47573 0
M  V30 3744 H 340.506 2.48918 5.4604 0
M  V30 3745 H 341.576 2.65622 4.05676 0
M  V30 3746 N 342.919 -1.39368 0.735821 0
M  V30 3747 C 344.144 -2.05319 0.293052 0
M  V30 3748 C 344.569 -1.55115 -1.064 0
M  V30 3749 O 343.927 -0.695261 -1.67439 0
M  V30 3750 C 343.975 -3.59305 0.305323 0
M  V30 3751 O 343.079 -4.06299 -0.706761 0
M  V30 3752 H 342.42 -0.650529 0.13307 0
M  V30 3753 H 344.95 -1.78386 1.00197 0
M  V30 3754 H 344.96 -4.07724 0.149997 0
M  V30 3755 H 343.635 -3.95207 1.29553 0
M  V30 3756 H 342.212 -3.69292 -0.517504 0
M  V30 3757 N 344.397 -0.483516 -1.5 0
M  V30 3758 C 345.808 -0.0314176 -1.86674 0
M  V30 3759 C 346.159 1.37728 -1.39733 0
M  V30 3760 O 345.284 2.02327 -0.767635 0
M  V30 3761 C 345.879 -0.0502376 -3.38763 0
M  V30 3762 C 344.438 0.346442 -3.74802 0
M  V30 3763 C 343.585 -0.430366 -2.7394 0
M  V30 3764 H 346.536 -0.697182 -1.42566 0
M  V30 3765 H 346.557 0.749116 -3.73053 0
M  V30 3766 H 346.069 -1.07563 -3.72897 0
M  V30 3767 H 344.17 1.37572 -3.46273 0
M  V30 3768 H 344.283 0.0391486 -4.79084 0
M  V30 3769 H 342.647 0.117557 -2.54429 0
M  V30 3770 H 343.43 -1.4555 -3.10918 0
M  V30 3771 N 345.875 1.56104 -0.216619 0
M  V30 3772 C 347.1 2.0301 0.424462 0
M  V30 3773 C 347.525 1.0955 1.52907 0
M  V30 3774 O 346.883 0.0827914 1.81111 0
M  V30 3775 C 346.931 3.4819 0.937883 0
M  V30 3776 O 346.035 3.57865 2.04955 0
M  V30 3777 H 345.376 0.656925 0.0966755 0
M  V30 3778 H 347.906 2.01859 -0.33381 0
M  V30 3779 H 347.916 3.88413 1.24897 0
M  V30 3780 H 346.591 4.15699 0.129387 0
M  V30 3781 H 345.168 3.29527 1.74546 0
M  V30 3782 N 347.353 -0.0568162 1.57498 0
M  V30 3783 C 348.578 -0.769402 1.92601 0
M  V30 3784 C 349.003 -1.69559 0.814336 0
M  V30 3785 O 348.361 -1.79811 -0.231903 0
M  V30 3786 C 348.409 -1.52634 3.26704 0
M  V30 3787 O 347.513 -2.63797 3.16994 0
M  V30 3788 H 346.854 -0.208909 0.63028 0
M  V30 3789 H 349.384 -0.0205798 2.0459 0
M  V30 3790 H 349.394 -1.90234 3.60936 0
M  V30 3791 H 348.069 -0.846875 4.07186 0
M  V30 3792 H 346.646 -2.28943 2.94346 0
M  V30 3793 N 348.832 -1.54138 -0.328536 0
M  V30 3794 C 350.081 -1.71318 -1.06456 0
M  V30 3795 C 350.394 -0.491109 -1.89334 0
M  V30 3796 O 351.6 -0.54416 -2.65991 0
M  V30 3797 C 350.056 -3.03 -1.94214 0
M  V30 3798 C 349.664 -4.32595 -1.16471 0
M  V30 3799 C 351.408 -3.29544 -2.67583 0
M  V30 3800 C 349.315 -5.55341 -2.03347 0
M  V30 3801 H 348.245 -0.638429 -0.401155 0
M  V30 3802 H 350.896 -1.80633 -0.323106 0
M  V30 3803 H 349.278 -2.87579 -2.72239 0
M  V30 3804 H 350.452 -4.58766 -0.432525 0
M  V30 3805 H 348.767 -4.12777 -0.548063 0
M  V30 3806 H 351.364 -4.18444 -3.3288 0
M  V30 3807 H 351.707 -2.47206 -3.34955 0
M  V30 3808 H 352.24 -3.45809 -1.96623 0
M  V30 3809 H 348.979 -6.40268 -1.40491 0
M  V30 3810 H 348.499 -5.33397 -2.74313 0
M  V30 3811 H 350.178 -5.91557 -2.62049 0
M  V30 3812 N 350.31 0.590341 -1.46126 0
M  V30 3813 C 351.24 1.71032 -1.58966 0
M  V30 3814 C 352.221 1.64302 -0.440335 0
M  V30 3815 O 353.406 1.82436 -0.665634 0
M  V30 3816 C 350.536 3.09665 -1.57241 0
M  V30 3817 C 349.49 3.31221 -2.71066 0
M  V30 3818 C 348.816 4.70303 -2.54399 0
M  V30 3819 C 350.116 3.19796 -4.1295 0
M  V30 3820 H 351.81 1.60543 -2.52718 0
M  V30 3821 H 349.356 0.770933 -1.21625 0
M  V30 3822 H 351.309 3.87831 -1.64819 0
M  V30 3823 H 350.033 3.21036 -0.600289 0
M  V30 3824 H 348.692 2.55452 -2.62944 0
M  V30 3825 H 348.34 4.78429 -1.55288 0
M  V30 3826 H 348.04 4.85679 -3.30741 0
M  V30 3827 H 349.564 5.50647 -2.63857 0
M  V30 3828 H 350.978 3.87815 -4.22223 0
M  V30 3829 H 349.375 3.46696 -4.89818 0
M  V30 3830 H 350.445 2.16983 -4.33643 0
M  V30 3831 N 351.788 1.33704 0.83433 0
M  V30 3832 C 352.718 1.26967 1.95963 0
M  V30 3833 C 353.699 0.149337 1.69443 0
M  V30 3834 O 354.884 0.339852 1.91203 0
M  V30 3835 C 352.014 1.01275 3.32206 0
M  V30 3836 C 350.968 2.09652 3.73136 0
M  V30 3837 C 350.294 1.69166 5.07235 0
M  V30 3838 C 351.594 3.51372 3.86439 0
M  V30 3839 H 353.288 2.2112 2.01857 0
M  V30 3840 H 350.834 1.06447 0.969793 0
M  V30 3841 H 352.787 0.952106 4.10503 0
M  V30 3842 H 351.511 0.0356203 3.26581 0
M  V30 3843 H 350.17 2.14766 2.97104 0
M  V30 3844 H 349.818 0.701437 4.98085 0
M  V30 3845 H 349.518 2.41694 5.35591 0
M  V30 3846 H 351.042 1.64576 5.88003 0
M  V30 3847 H 352.456 3.48734 4.55036 0
M  V30 3848 H 350.853 4.22425 4.26236 0
M  V30 3849 H 351.923 3.89546 2.88759 0
M  V30 3850 N 353.266 -1.05314 1.17247 0
M  V30 3851 C 354.196 -2.1498 0.911362 0
M  V30 3852 C 355.177 -1.69471 -0.146169 0
M  V30 3853 O 356.362 -1.942 0.003812 0
M  V30 3854 C 353.492 -3.4472 0.422528 0
M  V30 3855 C 352.446 -4.03789 1.4191 0
M  V30 3856 C 351.772 -5.28858 0.788274 0
M  V30 3857 C 353.072 -4.41418 2.7919 0
M  V30 3858 H 354.766 -2.3708 1.82848 0
M  V30 3859 H 352.312 -1.13938 0.880569 0
M  V30 3860 H 354.265 -4.20787 0.227289 0
M  V30 3861 H 352.989 -3.22269 -0.530123 0
M  V30 3862 H 351.648 -3.2979 1.60106 0
M  V30 3863 H 351.296 -5.02709 -0.171173 0
M  V30 3864 H 350.996 -5.69338 1.45353 0
M  V30 3865 H 352.52 -6.07612 0.603282 0
M  V30 3866 H 353.934 -5.08524 2.64719 0
M  V30 3867 H 352.331 -4.92913 3.42282 0
M  V30 3868 H 353.401 -3.51819 3.33693 0
M  V30 3869 N 354.744 -0.972509 -1.24016 0
M  V30 3870 C 355.676 -0.464375 -2.24446 0
M  V30 3871 C 356.689 0.4295 -1.57032 0
M  V30 3872 O 357.878 0.234902 -1.76948 0
M  V30 3873 C 354.978 0.348385 -3.37105 0
M  V30 3874 C 354.151 -0.53673 -4.34094 0
M  V30 3875 C 353.21 0.220838 -5.25736 0
M  V30 3876 O 352.236 -0.386867 -5.67884 0
M  V30 3877 N 353.438 1.50907 -5.60542 0
M  V30 3878 H 356.203 -1.32788 -2.68677 0
M  V30 3879 H 353.764 -0.844877 -1.38107 0
M  V30 3880 H 355.756 0.863341 -3.95384 0
M  V30 3881 H 354.326 1.11285 -2.92121 0
M  V30 3882 H 353.546 -1.23261 -3.74433 0
M  V30 3883 H 354.834 -1.14022 -4.95859 0
M  V30 3884 H 354.232 2.02444 -5.28236 0
M  V30 3885 H 352.789 1.96962 -6.21329 0
M  V30 3886 N 356.222 1.38976 -0.743202 0
M  V30 3887 C 357.154 2.29096 -0.0689228 0
M  V30 3888 C 358.167 1.47229 0.694791 0
M  V30 3889 O 359.356 1.70212 0.537597 0
M  V30 3890 C 356.456 3.25988 0.926548 0
M  V30 3891 C 355.629 4.36833 0.222647 0
M  V30 3892 C 354.688 5.13981 1.12739 0
M  V30 3893 O 353.714 5.6601 0.601795 0
M  V30 3894 N 354.916 5.25966 2.45641 0
M  V30 3895 H 357.681 2.87604 -0.842846 0
M  V30 3896 H 355.242 1.50645 -0.593109 0
M  V30 3897 H 357.234 3.74476 1.5346 0
M  V30 3898 H 355.804 2.68453 1.60162 0
M  V30 3899 H 355.024 3.90116 -0.565983 0
M  V30 3900 H 356.312 5.0811 -0.264841 0
M  V30 3901 H 355.71 4.85228 2.9081 0
M  V30 3902 H 354.267 5.77865 3.01522 0
M  V30 3903 N 357.7 0.491464 1.49741 0
M  V30 3904 C 358.633 -0.338464 2.25676 0
M  V30 3905 C 359.611 -0.978676 1.29849 0
M  V30 3906 O 360.795 -1.01064 1.59117 0
M  V30 3907 C 357.922 -1.47588 3.04853 0
M  V30 3908 C 356.968 -0.951 4.15762 0
M  V30 3909 S 357.801 0.150626 5.35288 0
M  V30 3910 C 358.957 -0.990178 6.18018 0
M  V30 3911 H 359.19 0.306068 2.9572 0
M  V30 3912 H 356.723 0.276622 1.51902 0
M  V30 3913 H 358.681 -2.12764 3.51058 0
M  V30 3914 H 357.342 -2.09199 2.34296 0
M  V30 3915 H 356.535 -1.80311 4.70642 0
M  V30 3916 H 356.137 -0.376607 3.72099 0
M  V30 3917 H 358.429 -1.89748 6.50386 0
M  V30 3918 H 359.372 -0.480205 7.0647 0
M  V30 3919 H 359.78 -1.25321 5.50413 0
M  V30 3920 N 359.178 -1.55987 0.224894 0
M  V30 3921 C 360.108 -2.23426 -0.678457 0
M  V30 3922 C 361.089 -1.20709 -1.19847 0
M  V30 3923 O 362.274 -1.49304 -1.24186 0
M  V30 3924 C 359.404 -2.91676 -1.88527 0
M  V30 3925 C 358.358 -4.00893 -1.49896 0
M  V30 3926 C 357.684 -4.56455 -2.78483 0
M  V30 3927 C 358.984 -5.17769 -0.686461 0
M  V30 3928 H 360.678 -2.99175 -0.116173 0
M  V30 3929 H 358.224 -1.43897 -0.054436 0
M  V30 3930 H 360.177 -3.37547 -2.5227 0
M  V30 3931 H 358.901 -2.1338 -2.47258 0
M  V30 3932 H 357.56 -3.55758 -0.884985 0
M  V30 3933 H 357.208 -3.74886 -3.35365 0
M  V30 3934 H 356.908 -5.30169 -2.53368 0
M  V30 3935 H 358.432 -5.05047 -3.43162 0
M  V30 3936 H 359.846 -5.60001 -1.22767 0
M  V30 3937 H 358.243 -5.97735 -0.532259 0
M  V30 3938 H 359.313 -4.83932 0.306196 0
M  V30 3939 N 360.656 0.0484629 -1.57525 0
M  V30 3940 C 361.588 1.08222 -2.02041 0
M  V30 3941 C 362.601 1.33621 -0.930012 0
M  V30 3942 O 363.79 1.3145 -1.20761 0
M  V30 3943 C 360.89 2.42818 -2.36416 0
M  V30 3944 C 360.063 2.37049 -3.67596 0
M  V30 3945 C 359.122 3.53937 -3.89378 0
M  V30 3946 O 358.148 3.34308 -4.60681 0
M  V30 3947 N 359.35 4.75126 -3.3352 0
M  V30 3948 H 362.115 0.702946 -2.9134 0
M  V30 3949 H 359.676 0.236745 -1.6016 0
M  V30 3950 H 361.668 3.197 -2.48141 0
M  V30 3951 H 360.238 2.72661 -1.52888 0
M  V30 3952 H 359.458 1.45395 -3.66407 0
M  V30 3953 H 360.746 2.30318 -4.53686 0
M  V30 3954 H 360.144 4.93976 -2.75688 0
M  V30 3955 H 358.701 5.49439 -3.50656 0
M  V30 3956 N 362.134 1.5431 0.320358 0
M  V30 3957 C 363.38 1.72924 1.05949 0
M  V30 3958 C 363.713 0.503185 1.87568 0
M  V30 3959 O 362.988 -0.499839 1.87968 0
M  V30 3960 C 363.271 3.00676 1.98156 0
M  V30 3961 C 363.124 4.3354 1.19845 0
M  V30 3962 C 364.443 3.24198 2.9763 0
M  V30 3963 H 361.562 0.629195 0.383774 0
M  V30 3964 H 364.204 1.87008 0.335854 0
M  V30 3965 H 362.354 2.888 2.59859 0
M  V30 3966 H 364.026 4.57305 0.605773 0
M  V30 3967 H 362.269 4.309 0.500784 0
M  V30 3968 H 362.94 5.19156 1.87567 0
M  V30 3969 H 365.416 3.35557 2.4605 0
M  V30 3970 H 364.292 4.14938 3.59329 0
M  V30 3971 H 364.553 2.41577 3.7026 0
M  V30 3972 N 363.613 -0.582584 1.46437 0
M  V30 3973 C 364.89 -1.34276 1.4223 0
M  V30 3974 C 365.27 -2.10835 0.10583 0
M  V30 3975 O 364.618 -2.09485 -0.912596 0
M  V30 3976 C 364.828 -2.26865 2.65204 0
M  V30 3977 C 366.176 -2.88691 3.11356 0
M  V30 3978 O 367.2 -2.37178 2.65753 0
M  V30 3979 O 366.059 -3.82255 3.90568 0
M  V30 3980 H 363.153 -0.603326 0.565621 0
M  V30 3981 H 365.699 -0.603591 1.58603 0
M  V30 3982 H 364.471 -1.69724 3.52576 0
M  V30 3983 H 364.094 -3.08122 2.5129 0
M  V30 3984 N 365.091 -1.34144 -0.827227 0
M  V30 3985 C 366.502 -1.23557 -1.39966 0
M  V30 3986 C 366.853 0.140731 -1.95695 0
M  V30 3987 O 365.978 1.04087 -1.89723 0
M  V30 3988 C 366.573 -2.23708 -2.54441 0
M  V30 3989 C 365.132 -2.16924 -3.07605 0
M  V30 3990 C 364.279 -2.10549 -1.80456 0
M  V30 3991 H 367.23 -1.45573 -0.631991 0
M  V30 3992 H 367.251 -1.85157 -3.32411 0
M  V30 3993 H 366.763 -3.23866 -2.13851 0
M  V30 3994 H 364.864 -1.20107 -3.52711 0
M  V30 3995 H 364.977 -3.07988 -3.66988 0
M  V30 3996 H 363.341 -1.56203 -2.01178 0
M  V30 3997 H 364.124 -3.12535 -1.42046 0
M  V30 3998 N 366.569 1.04691 -1.17803 0
M  V30 3999 C 367.516 2.12557 -0.899343 0
M  V30 4000 C 368.486 1.65339 0.158771 0
M  V30 4001 O 369.671 1.90789 0.0204797 0
M  V30 4002 C 366.811 3.42481 -0.424315 0
M  V30 4003 C 365.924 4.03346 -1.54713 0
M  V30 4004 C 365.059 5.21208 -1.02546 0
M  V30 4005 C 364.098 5.74089 -2.12339 0
M  V30 4006 N 363.235 6.83247 -1.61612 0
M  V30 4007 H 368.075 2.35734 -1.823 0
M  V30 4008 H 365.612 1.1564 -0.909159 0
M  V30 4009 H 367.57 4.16996 -0.130421 0
M  V30 4010 H 366.2 3.19471 0.462377 0
M  V30 4011 H 365.252 3.2622 -1.95664 0
M  V30 4012 H 366.564 4.38628 -2.37501 0
M  V30 4013 H 365.718 6.02812 -0.685718 0
M  V30 4014 H 364.457 4.87414 -0.167084 0
M  V30 4015 H 363.462 4.91111 -2.47165 0
M  V30 4016 H 364.687 6.0993 -2.98601 0
M  V30 4017 H 362.633 6.5134 -0.780533 0
M  V30 4018 H 362.55 7.17559 -2.38003 0
M  V30 4019 H 363.818 7.68491 -1.30545 0
M  V30 4020 N 368.047 0.979072 1.23499 0
M  V30 4021 C 368.994 0.517904 2.24914 0
M  V30 4022 C 369.964 -0.442525 1.60097 0
M  V30 4023 O 371.149 -0.350365 1.87556 0
M  V30 4024 C 368.289 -0.174813 3.44657 0
M  V30 4025 C 367.402 0.825721 4.24035 0
M  V30 4026 C 366.537 0.107946 5.3109 0
M  V30 4027 C 365.576 1.09778 6.02175 0
M  V30 4028 N 364.713 0.40925 7.00906 0
M  V30 4029 H 369.553 1.38751 2.63727 0
M  V30 4030 H 367.09 0.695303 1.2963 0
M  V30 4031 H 369.048 -0.593233 4.12961 0
M  V30 4032 H 367.678 -1.0083 3.06648 0
M  V30 4033 H 366.73 1.36253 3.55161 0
M  V30 4034 H 368.042 1.58005 4.73113 0
M  V30 4035 H 367.196 -0.367904 6.05583 0
M  V30 4036 H 365.935 -0.678994 4.8295 0
M  V30 4037 H 364.94 1.5844 5.26476 0
M  V30 4038 H 366.165 1.88536 6.52404 0
M  V30 4039 H 364.111 -0.358506 6.5502 0
M  V30 4040 H 364.028 1.10226 7.47921 0
M  V30 4041 H 365.296 -0.0442557 7.79487 0
M  V30 4042 N 369.525 -1.3858 0.750561 0
M  V30 4043 C 370.941 -1.53759 0.427824 0
M  V30 4044 C 371.141 -1.71401 -1.05943 0
M  V30 4045 O 370.197 -1.72331 -1.84549 0
M  V30 4046 C 371.51 -2.74642 1.22443 0
M  V30 4047 C 373.058 -2.88489 1.2142 0
M  V30 4048 C 373.533 -4.12329 1.9937 0
M  V30 4049 N 375.024 -4.194 1.96616 0
M  V30 4050 C 375.759 -5.14209 2.53727 0
M  V30 4051 N 375.255 -6.14709 3.19539 0
M  V30 4052 N 377.048 -5.06537 2.43673 0
M  V30 4053 H 369.199 -1.25377 1.71447 0
M  V30 4054 H 371.462 -0.608844 0.726645 0
M  V30 4055 H 371.168 -2.68 2.27747 0
M  V30 4056 H 371.042 -3.67745 0.839273 0
M  V30 4057 H 373.429 -2.94614 0.169232 0
M  V30 4058 H 373.51 -1.96406 1.63885 0
M  V30 4059 H 373.154 -4.06966 3.03877 0
M  V30 4060 H 373.084 -5.03486 1.54302 0
M  V30 4061 H 375.575 -3.47421 1.48684 0
M  V30 4062 H 375.888 -6.8354 3.60545 0
M  V30 4063 H 374.233 -6.1505 3.23633 0
M  V30 4064 H 377.424 -4.26962 1.91889 0
M  V30 4065 H 377.597 -5.80245 2.88479 0
M  V30 4066 N 371.003 -0.499398 -1.49478 0
M  V30 4067 C 372.252 0.0475259 -2.01644 0
M  V30 4068 C 372.565 1.38195 -1.38425 0
M  V30 4069 O 373.771 2.01547 -1.8191 0
M  V30 4070 C 372.227 0.135164 -3.59646 0
M  V30 4071 C 371.835 -1.19252 -4.31837 0
M  V30 4072 C 373.579 0.632538 -4.19761 0
M  V30 4073 C 371.486 -1.06713 -5.81693 0
M  V30 4074 H 370.416 0.0215349 -0.753692 0
M  V30 4075 H 373.067 -0.638577 -1.7203 0
M  V30 4076 H 371.449 0.885681 -3.85969 0
M  V30 4077 H 372.623 -1.9562 -4.17216 0
M  V30 4078 H 370.938 -1.62321 -3.83459 0
M  V30 4079 H 373.535 0.743833 -5.29501 0
M  V30 4080 H 373.878 1.63098 -3.83021 0
M  V30 4081 H 374.411 -0.0613987 -3.97753 0
M  V30 4082 H 371.15 -2.03979 -6.22955 0
M  V30 4083 H 370.67 -0.344307 -5.98811 0
M  V30 4084 H 372.349 -0.745208 -6.42694 0
M  V30 4085 N 372.481 1.55866 -0.233164 0
M  V30 4086 C 373.706 2.03449 0.402906 0
M  V30 4087 C 374.131 1.11166 1.51736 0
M  V30 4088 O 373.489 0.101996 1.81013 0
M  V30 4089 C 373.537 3.49165 0.9009 0
M  V30 4090 O 372.641 3.60019 2.01147 0
M  V30 4091 H 371.982 0.657913 0.0897025 0
M  V30 4092 H 374.512 2.01493 -0.355201 0
M  V30 4093 H 374.522 3.89716 1.2077 0
M  V30 4094 H 373.197 4.15813 0.0852889 0
M  V30 4095 H 371.774 3.3136 1.71042 0
M  V30 4096 N 373.959 -0.0401083 1.57549 0
M  V30 4097 C 374.892 -1.07689 2.01192 0
M  V30 4098 C 375.87 -1.358 0.894273 0
M  V30 4099 O 377.054 -1.48642 1.15921 0
M  V30 4100 C 374.181 -2.41418 2.3756 0
M  V30 4101 C 373.227 -2.29237 3.59656 0
M  V30 4102 S 374.06 -1.65628 5.09242 0
M  V30 4103 C 375.216 -3.0087 5.48843 0
M  V30 4104 H 375.449 -0.705108 2.88817 0
M  V30 4105 H 372.982 -0.249724 1.52367 0
M  V30 4106 H 374.94 -3.18329 2.59186 0
M  V30 4107 H 373.601 -2.75747 1.50407 0
M  V30 4108 H 372.794 -3.27932 3.82722 0
M  V30 4109 H 372.396 -1.60469 3.37825 0
M  V30 4110 H 374.688 -3.97201 5.48851 0
M  V30 4111 H 375.631 -2.82549 6.49286 0
M  V30 4112 H 376.039 -3.02934 4.76331 0
M  V30 4113 N 375.437 -1.54477 -0.31217 0
M  V30 4114 C 376.384 -1.84655 -1.38461 0
M  V30 4115 C 377.354 -0.694536 -1.50882 0
M  V30 4116 O 378.539 -0.942081 -1.6592 0
M  V30 4117 C 375.679 -2.0896 -2.74645 0
M  V30 4118 C 374.792 -3.36618 -2.70763 0
M  V30 4119 C 373.927 -3.50824 -3.98868 0
M  V30 4120 C 372.966 -4.72315 -3.89339 0
M  V30 4121 N 372.103 -4.83387 -5.09197 0
M  V30 4122 H 376.943 -2.76142 -1.12026 0
M  V30 4123 H 374.48 -1.36748 -0.542065 0
M  V30 4124 H 376.438 -2.21045 -3.53829 0
M  V30 4125 H 375.068 -1.20752 -2.99364 0
M  V30 4126 H 374.12 -3.33211 -1.83506 0
M  V30 4127 H 375.432 -4.25917 -2.59608 0
M  V30 4128 H 374.586 -3.62513 -4.86486 0
M  V30 4129 H 373.325 -2.59638 -4.12843 0
M  V30 4130 H 372.33 -4.6067 -3.00105 0
M  V30 4131 H 373.555 -5.64897 -3.76919 0
M  V30 4132 H 371.501 -3.9512 -5.23657 0
M  V30 4133 H 371.418 -5.66669 -5.00422 0
M  V30 4134 H 372.686 -4.9942 -5.98498 0
M  V30 4135 N 376.915 0.57481 -1.46744 0
M  V30 4136 C 377.863 1.70435 -1.58286 0
M  V30 4137 C 378.857 1.63287 -0.450956 0
M  V30 4138 O 380.063 1.68685 -0.628121 0
M  V30 4139 H 376.438 0.56364 -0.497809 0
M  V30 4140 H 378.409 1.57833 -2.53242 0
M  V30 4141 C 377.158 3.08815 -1.59776 0
M  V30 4142 H 376.481 3.1499 -2.46214 0
M  V30 4143 H 377.921 3.87588 -1.71905 0
M  V30 4144 C 376.38 3.35301 -0.327812 0
M  V30 4145 O 376.91 3.97511 0.57861 0
M  V30 4146 N 375.116 2.89816 -0.213274 0
M  V30 4147 H 374.663 2.39371 -0.951798 0
M  V30 4148 H 374.621 3.0791 0.63553 0
M  V30 4149 N 378.394 1.34581 0.820102 0
M  V30 4150 C 379.324 1.29038 1.94606 0
M  V30 4151 C 380.305 0.1673 1.69275 0
M  V30 4152 O 381.49 0.360112 1.90832 0
M  V30 4153 C 378.62 1.04793 3.31113 0
M  V30 4154 C 377.574 2.13597 3.70891 0
M  V30 4155 C 376.9 1.74537 5.05412 0
M  V30 4156 C 378.2 3.55451 3.8269 0
M  V30 4157 H 379.894 2.23248 1.99501 0
M  V30 4158 H 377.44 1.0747 0.958449 0
M  V30 4159 H 379.393 0.995592 4.0947 0
M  V30 4160 H 378.117 0.0702565 3.26524 0
M  V30 4161 H 376.776 2.17905 2.9481 0
M  V30 4162 H 376.424 0.754226 4.97313 0
M  V30 4163 H 376.124 2.47361 5.32997 0
M  V30 4164 H 377.648 1.70803 5.86224 0
M  V30 4165 H 379.062 3.5354 4.51312 0
M  V30 4166 H 377.459 4.26922 4.21732 0
M  V30 4167 H 378.529 3.92587 2.84611 0
M  V30 4168 N 379.872 -1.04064 1.18357 0
M  V30 4169 C 380.802 -2.14001 0.934113 0
M  V30 4170 C 381.783 -1.69616 -0.128186 0
M  V30 4171 O 382.968 -1.94185 0.0244093 0
M  V30 4172 C 380.098 -3.44253 0.459066 0
M  V30 4173 C 379.052 -4.02261 1.46185 0
M  V30 4174 C 378.378 -5.27992 0.844322 0
M  V30 4175 C 379.678 -4.38432 2.83856 0
M  V30 4176 H 381.372 -2.35127 1.85352 0
M  V30 4177 H 378.918 -1.12998 0.892604 0
M  V30 4178 H 380.871 -4.20522 0.271907 0
M  V30 4179 H 379.595 -3.22813 -0.495912 0
M  V30 4180 H 378.254 -3.28074 1.63595 0
M  V30 4181 H 377.902 -5.02862 -0.117845 0
M  V30 4182 H 377.602 -5.67765 1.51384 0
M  V30 4183 H 379.126 -6.06938 0.667693 0
M  V30 4184 H 380.54 -5.05688 2.70098 0
M  V30 4185 H 378.937 -4.89254 3.47491 0
M  V30 4186 H 380.007 -3.4826 3.37406 0
M  V30 4187 N 381.35 -0.985608 -1.22978 0
M  V30 4188 C 382.298 -0.522631 -2.26652 0
M  V30 4189 C 383.292 0.422998 -1.64034 0
M  V30 4190 O 384.498 0.296319 -1.77544 0
M  V30 4191 H 380.873 -0.150597 -0.736766 0
M  V30 4192 H 382.844 -1.40863 -2.63059 0
M  V30 4193 C 381.593 0.154238 -3.47358 0
M  V30 4194 H 380.916 -0.564329 -3.95797 0
M  V30 4195 H 382.356 0.441744 -4.21693 0
M  V30 4196 C 380.815 1.38719 -3.07016 0
M  V30 4197 O 381.345 2.48307 -3.15764 0
M  V30 4198 N 379.551 1.25975 -2.61875 0
M  V30 4199 H 379.098 0.368068 -2.54957 0
M  V30 4200 H 379.056 2.08578 -2.3525 0
M  V30 4201 N 382.828 1.3818 -0.7579 0
M  V30 4202 C 383.778 2.27741 -0.108674 0
M  V30 4203 C 384.762 1.45415 0.688709 0
M  V30 4204 O 385.954 1.68108 0.553956 0
M  V30 4205 C 383.083 3.34313 0.780367 0
M  V30 4206 C 382.169 4.24093 -0.0240977 0
M  V30 4207 N 382.56 4.9451 -1.06271 0
M  V30 4208 C 380.858 4.45542 0.202049 0
M  V30 4209 C 381.559 5.60675 -1.54979 0
M  V30 4210 N 380.535 5.36684 -0.864348 0
M  V30 4211 H 384.337 2.79649 -0.904071 0
M  V30 4212 H 381.851 1.51133 -0.594346 0
M  V30 4213 H 383.848 3.97368 1.26114 0
M  V30 4214 H 382.508 2.83962 1.57467 0
M  V30 4215 H 383.519 4.97345 -1.44459 0
M  V30 4216 H 380.196 4.06091 0.96935 0
M  V30 4217 H 381.586 6.26992 -2.41517 0
M  V30 4218 N 384.306 0.507319 1.49211 0
M  V30 4219 C 385.717 0.0611118 1.866 0
M  V30 4220 C 386.068 -1.35488 1.41907 0
M  V30 4221 O 385.193 -2.0108 0.799726 0
M  V30 4222 C 385.788 0.104125 3.3864 0
M  V30 4223 C 384.347 -0.28677 3.75306 0
M  V30 4224 C 383.494 0.473893 2.73221 0
M  V30 4225 H 386.445 0.719775 1.41439 0
M  V30 4226 H 386.466 -0.689672 3.74198 0
M  V30 4227 H 385.978 1.13482 3.71138 0
M  V30 4228 H 384.079 -1.32046 3.48417 0
M  V30 4229 H 384.192 0.0370745 4.79086 0
M  V30 4230 H 382.556 -0.0770644 2.54583 0
M  V30 4231 H 383.339 1.50478 3.08563 0
M  V30 4232 N 385.784 -1.5574 0.241426 0
M  V30 4233 C 387.03 -1.99846 -0.378555 0
M  V30 4234 C 387.385 -1.12665 -1.55963 0
M  V30 4235 O 386.678 -0.180966 -1.90743 0
M  V30 4236 C 386.872 -3.47308 -0.843317 0
M  V30 4237 C 386.701 -4.48756 0.291178 0
M  V30 4238 C 385.471 -4.9949 0.764077 0
M  V30 4239 C 387.669 -5.02039 1.11631 0
M  V30 4240 N 385.651 -5.84676 1.87156 0
M  V30 4241 C 387.022 -5.84343 2.07226 0
M  V30 4242 C 389.077 -4.84354 1.15349 0
M  V30 4243 C 387.78 -6.50851 3.06245 0
M  V30 4244 C 389.806 -5.51636 2.13195 0
M  V30 4245 C 389.168 -6.33724 3.07528 0
M  V30 4246 H 385.267 -0.774968 -0.104634 0
M  V30 4247 H 387.851 -1.91385 0.357751 0
M  V30 4248 H 386.022 -3.56178 -1.54893 0
M  V30 4249 H 387.754 -3.78299 -1.43779 0
M  V30 4250 H 384.509 -4.72311 0.349175 0
M  V30 4251 H 384.933 -6.31967 2.42789 0
M  V30 4252 H 389.575 -4.20525 0.438057 0
M  V30 4253 H 387.293 -7.1385 3.78739 0
M  V30 4254 H 390.879 -5.39909 2.16771 0
M  V30 4255 H 389.759 -6.84867 3.82003 0
M  V30 4256 N 387.262 0.0317525 -1.57568 0
M  V30 4257 C 388.511 0.722131 -1.8833 0
M  V30 4258 C 388.824 1.76664 -0.839587 0
M  V30 4259 O 390.03 2.50942 -1.03635 0
M  V30 4260 C 388.486 1.33544 -3.34207 0
M  V30 4261 C 388.094 0.327415 -4.46802 0
M  V30 4262 C 389.838 2.00585 -3.7412 0
M  V30 4263 C 387.745 0.948915 -5.83738 0
M  V30 4264 H 386.675 0.273466 -0.702661 0
M  V30 4265 H 389.326 -0.0235811 -1.83485 0
M  V30 4266 H 387.708 2.13077 -3.33788 0
M  V30 4267 H 388.882 -0.441006 -4.58685 0
M  V30 4268 H 387.197 -0.240758 -4.15703 0
M  V30 4269 H 389.794 2.47932 -4.73744 0
M  V30 4270 H 390.137 2.82285 -3.05975 0
M  V30 4271 H 390.67 1.27831 -3.76702 0
M  V30 4272 H 387.409 0.171387 -6.55276 0
M  V30 4273 H 386.929 1.68724 -5.7558 0
M  V30 4274 H 388.608 1.45705 -6.3038 0
M  V30 4275 N 388.74 1.54641 0.303973 0
M  V30 4276 C 389.673 1.80263 1.3993 0
M  V30 4277 C 390.651 0.653657 1.48883 0
M  V30 4278 O 391.835 0.893284 1.6599 0
M  V30 4279 C 388.962 1.9367 2.77866 0
M  V30 4280 C 388.008 3.16078 2.86351 0
M  V30 4281 S 388.841 4.74219 2.4875 0
M  V30 4282 C 389.997 4.90558 3.88721 0
M  V30 4283 H 390.23 2.72886 1.17986 0
M  V30 4284 H 387.763 1.46014 0.501918 0
M  V30 4285 H 389.721 2.0208 3.57315 0
M  V30 4286 H 388.382 1.01991 2.9708 0
M  V30 4287 H 387.575 3.22252 3.87517 0
M  V30 4288 H 387.177 3.06099 2.14893 0
M  V30 4289 H 389.469 4.74398 4.83687 0
M  V30 4290 H 390.412 5.92651 3.87518 0
M  V30 4291 H 390.82 4.18728 3.78585 0
M  V30 4292 N 390.218 -0.567019 1.47046 0
M  V30 4293 C 391.15 -1.68985 1.54844 0
M  V30 4294 C 392.163 -1.56869 0.435431 0
M  V30 4295 O 393.352 -1.64006 0.70457 0
M  V30 4296 C 390.452 -3.07373 1.42742 0
M  V30 4297 C 389.625 -3.45339 2.6844 0
M  V30 4298 C 388.684 -4.62849 2.50314 0
M  V30 4299 O 387.71 -4.67922 3.24095 0
M  V30 4300 N 388.912 -5.58726 1.57499 0
M  V30 4301 H 391.677 -1.62745 2.51663 0
M  V30 4302 H 389.238 -0.753411 1.43302 0
M  V30 4303 H 391.23 -3.83803 1.28365 0
M  V30 4304 H 389.8 -3.07893 0.540445 0
M  V30 4305 H 389.02 -2.58455 2.97648 0
M  V30 4306 H 390.308 -3.67476 3.51907 0
M  V30 4307 H 389.706 -5.57376 0.966876 0
M  V30 4308 H 388.263 -6.34523 1.49078 0
M  V30 4309 N 391.696 -1.35014 -0.812953 0
M  V30 4310 C 392.973 -1.18502 -1.55617 0
M  V30 4311 C 393.353 0.238421 -2.09749 0
M  V30 4312 O 392.701 1.2411 -1.91857 0
M  V30 4313 C 392.911 -2.24783 -2.66971 0
M  V30 4314 C 394.259 -2.60268 -3.35478 0
M  V30 4315 O 395.283 -2.23648 -2.77236 0
M  V30 4316 O 394.142 -3.2321 -4.40678 0
M  V30 4317 H 391.236 -0.459984 -0.687272 0
M  V30 4318 H 393.782 -1.46677 -0.853464 0
M  V30 4319 H 392.554 -3.20284 -2.24798 0
M  V30 4320 H 392.177 -1.97841 -3.44884 0
M  V30 4321 N 393.175 1.03435 -1.18907 0
M  V30 4322 C 394.405 1.8012 -1.01195 0
M  V30 4323 C 394.813 1.8395 0.442613 0
M  V30 4324 O 394.156 1.27836 1.31923 0
M  V30 4325 C 394.218 3.26792 -1.49823 0
M  V30 4326 C 393.882 3.46609 -2.97844 0
M  V30 4327 C 394.879 3.37278 -3.95651 0
M  V30 4328 C 392.564 3.73001 -3.36416 0
M  V30 4329 C 394.558 3.54054 -5.30023 0
M  V30 4330 C 392.245 3.89423 -4.70949 0
M  V30 4331 C 393.243 3.79951 -5.67562 0
M  V30 4332 O 392.931 3.95895 -6.99659 0
M  V30 4333 H 392.663 0.573865 -0.357289 0
M  V30 4334 H 395.217 1.31207 -1.58031 0
M  V30 4335 H 393.447 3.76703 -0.873578 0
M  V30 4336 H 395.136 3.85055 -1.28404 0
M  V30 4337 H 395.902 3.16846 -3.67197 0
M  V30 4338 H 391.781 3.79469 -2.61772 0
M  V30 4339 H 395.325 3.46577 -6.05417 0
M  V30 4340 H 391.222 4.09351 -4.99101 0
M  V30 4341 H 391.99 4.13019 -7.06653 0
M  V30 4342 N 394.653 0.992116 1.22453 0
M  V30 4343 C 395.601 0.534644 2.26372 0
M  V30 4344 C 396.595 -0.414293 1.64256 0
M  V30 4345 O 397.801 -0.286899 1.77699 0
M  V30 4346 H 394.176 0.154502 0.735957 0
M  V30 4347 H 396.147 1.42256 2.62309 0
M  V30 4348 C 394.896 -0.135815 3.47435 0
M  V30 4349 H 394.219 0.585311 3.95492 0
M  V30 4350 H 395.659 -0.419374 4.21921 0
M  V30 4351 C 394.118 -1.37089 3.07747 0
M  V30 4352 O 394.648 -2.46629 3.17076 0
M  V30 4353 N 392.854 -1.24585 2.62539 0
M  V30 4354 H 392.401 -0.354542 2.55149 0
M  V30 4355 H 392.359 -2.07327 2.36353 0
M  V30 4356 N 396.131 -1.37776 0.765217 0
M  V30 4357 C 397.361 -2.03828 0.337277 0
M  V30 4358 C 397.769 -1.57841 -1.04321 0
M  V30 4359 O 397.112 -0.752043 -1.67601 0
M  V30 4360 C 397.174 -3.58292 0.294407 0
M  V30 4361 C 396.838 -4.27384 1.61838 0
M  V30 4362 C 397.835 -4.51956 2.56967 0
M  V30 4363 C 395.52 -4.65345 1.89102 0
M  V30 4364 C 397.514 -5.13536 3.77571 0
M  V30 4365 C 395.201 -5.26647 3.09978 0
M  V30 4366 C 396.199 -5.50679 4.04032 0
M  V30 4367 O 395.887 -6.10702 5.2278 0
M  V30 4368 H 395.619 -0.661292 0.140248 0
M  V30 4369 H 398.173 -1.77222 1.03834 0
M  V30 4370 H 396.403 -3.83918 -0.462983 0
M  V30 4371 H 398.092 -4.05763 -0.105581 0
M  V30 4372 H 398.858 -4.23048 2.37183 0
M  V30 4373 H 394.737 -4.45978 1.16725 0
M  V30 4374 H 398.281 -5.3221 4.50997 0
M  V30 4375 H 394.178 -5.54979 3.29649 0
M  V30 4376 H 394.946 -6.29183 5.23517 0
M  V30 4377 N 397.609 -0.515225 -1.4894 0
M  V30 4378 C 399.02 -0.0710067 -1.86565 0
M  V30 4379 C 399.371 1.34733 -1.42623 0
M  V30 4380 O 398.496 2.00653 -0.810379 0
M  V30 4381 C 399.091 -0.122083 -3.3858 0
M  V30 4382 C 397.65 0.266863 -3.75453 0
M  V30 4383 C 396.797 -0.488376 -2.72966 0
M  V30 4384 H 399.748 -0.727266 -1.41055 0
M  V30 4385 H 399.769 0.669818 -3.74558 0
M  V30 4386 H 399.281 -1.15448 -3.70531 0
M  V30 4387 H 397.382 1.30196 -3.49113 0
M  V30 4388 H 397.495 -0.0624811 -4.79059 0
M  V30 4389 H 395.859 0.0635622 -2.54621 0
M  V30 4390 H 396.642 -1.52113 -3.07761 0
M  V30 4391 N 399.087 1.5561 -0.249682 0
M  V30 4392 C 400.333 1.99306 0.374841 0
M  V30 4393 C 400.666 1.13767 1.57387 0
M  V30 4394 O 399.941 0.201711 1.93451 0
M  V30 4395 C 400.224 3.51507 0.781986 0
M  V30 4396 C 400.077 4.4781 -0.422629 0
M  V30 4397 C 401.396 4.08884 1.62793 0
M  V30 4398 H 398.515 0.724572 0.134773 0
M  V30 4399 H 401.157 1.86719 -0.351549 0
M  V30 4400 H 399.307 3.62363 1.4009 0
M  V30 4401 H 400.979 4.48931 -1.06108 0
M  V30 4402 H 399.222 4.20518 -1.06524 0
M  V30 4403 H 399.893 5.51919 -0.0943766 0
M  V30 4404 H 402.369 4.01147 1.10547 0
M  V30 4405 H 401.245 5.1564 1.88166 0
M  V30 4406 H 401.506 3.57515 2.60068 0
M  V30 4407 N 400.565 -0.0233959 1.57583 0
M  V30 4408 C 401.475 -1.03907 2.10334 0
M  V30 4409 C 402.491 -1.39257 1.04323 0
M  V30 4410 O 403.667 -1.48462 1.36091 0
M  V30 4411 C 400.732 -2.31938 2.57693 0
M  V30 4412 C 399.793 -2.03117 3.78209 0
M  V30 4413 C 399.026 -3.25043 4.233 0
M  V30 4414 O 399.249 -4.35916 3.67876 0
M  V30 4415 O 398.183 -3.10411 5.15683 0
M  V30 4416 H 402.009 -0.620748 2.97288 0
M  V30 4417 H 399.594 -0.240743 1.47448 0
M  V30 4418 H 401.476 -3.07196 2.88458 0
M  V30 4419 H 400.151 -2.73055 1.73847 0
M  V30 4420 H 399.058 -1.25408 3.52454 0
M  V30 4421 H 400.391 -1.66852 4.63056 0
M  V30 4422 N 402.043 -1.548 -0.295768 0
M  V30 4423 C 403.289 -1.75517 -1.02789 0
M  V30 4424 C 403.644 -0.537266 -1.84746 0
M  V30 4425 O 402.937 0.470299 -1.85738 0
M  V30 4426 C 403.131 -2.98797 -1.961 0
M  V30 4427 C 402.96 -4.3246 -1.23321 0
M  V30 4428 C 401.73 -4.96131 -0.95822 0
M  V30 4429 C 403.928 -5.10365 -0.635024 0
M  V30 4430 N 401.91 -6.1357 -0.201257 0
M  V30 4431 C 403.281 -6.19999 -0.0110937 0
M  V30 4432 C 405.336 -4.94957 -0.540594 0
M  V30 4433 C 404.039 -7.15904 0.698136 0
M  V30 4434 C 406.065 -5.91197 0.154992 0
M  V30 4435 C 405.427 -7.00203 0.767752 0
M  V30 4436 H 401.526 -0.694786 -0.358882 0
M  V30 4437 H 404.11 -1.92281 -0.305943 0
M  V30 4438 H 402.281 -2.83448 -2.6554 0
M  V30 4439 H 404.013 -3.08017 -2.62502 0
M  V30 4440 H 400.768 -4.56595 -1.25771 0
M  V30 4441 H 401.192 -6.76802 0.16389 0
M  V30 4442 H 405.834 -4.10803 -1.00003 0
M  V30 4443 H 403.552 -7.99595 1.16933 0
M  V30 4444 H 407.138 -5.81353 0.228069 0
M  V30 4445 H 406.018 -7.73393 1.29743 0
M  V30 4446 N 403.521 0.559213 -1.47345 0
M  V30 4447 C 404.453 1.68161 -1.55738 0
M  V30 4448 C 405.466 1.56636 -0.443744 0
M  V30 4449 O 406.655 1.6363 -0.713258 0
M  V30 4450 C 403.755 3.06611 -1.4437 0
M  V30 4451 C 402.928 3.4391 -2.70268 0
M  V30 4452 C 401.987 4.61515 -2.52765 0
M  V30 4453 O 401.013 4.66197 -3.26572 0
M  V30 4454 N 402.215 5.57883 -1.6046 0
M  V30 4455 H 404.98 1.61408 -2.52522 0
M  V30 4456 H 402.541 0.7458 -1.43699 0
M  V30 4457 H 404.533 3.83117 -1.30398 0
M  V30 4458 H 403.103 3.07602 -0.556766 0
M  V30 4459 H 402.323 2.56873 -2.99015 0
M  V30 4460 H 403.611 3.65605 -3.53851 0
M  V30 4461 H 403.009 5.56855 -0.996422 0
M  V30 4462 H 401.566 6.33723 -1.52441 0
M  V30 4463 N 404.999 1.35443 0.805782 0
M  V30 4464 C 406.224 1.32037 1.59941 0
M  V30 4465 C 406.649 -0.0994215 1.87837 0
M  V30 4466 O 406.007 -1.06648 1.46615 0
M  V30 4467 C 406.055 2.13354 2.90711 0
M  V30 4468 O 405.159 1.5148 3.83572 0
M  V30 4469 H 404.5 0.452666 0.485787 0
M  V30 4470 H 407.03 1.78496 1.00002 0
M  V30 4471 H 407.04 2.25338 3.40128 0
M  V30 4472 H 405.715 3.16572 2.69732 0
M  V30 4473 H 404.292 1.4834 3.42125 0
M  V30 4474 N 406.477 -1.02803 1.19454 0
M  V30 4475 C 407.424 -2.11099 0.933046 0
M  V30 4476 C 408.394 -1.65571 -0.132447 0
M  V30 4477 O 409.579 -1.90797 0.00987576 0
M  V30 4478 C 406.719 -3.41763 0.478747 0
M  V30 4479 C 405.832 -4.00833 1.6111 0
M  V30 4480 C 404.967 -5.19511 1.10825 0
M  V30 4481 C 404.006 -5.70639 2.21445 0
M  V30 4482 N 403.143 -6.80589 1.72461 0
M  V30 4483 H 407.983 -2.32804 1.86028 0
M  V30 4484 H 405.52 -1.14179 0.927441 0
M  V30 4485 H 407.478 -4.16736 0.196745 0
M  V30 4486 H 406.108 -3.20166 -0.411493 0
M  V30 4487 H 405.16 -3.23066 2.00829 0
M  V30 4488 H 406.472 -4.34794 2.4445 0
M  V30 4489 H 405.626 -6.01645 0.781533 0
M  V30 4490 H 404.365 -4.87086 0.244606 0
M  V30 4491 H 403.37 -4.87116 2.54947 0
M  V30 4492 H 404.595 -6.05102 3.08267 0
M  V30 4493 H 402.541 -6.50016 0.884056 0
M  V30 4494 H 402.458 -7.13681 2.49389 0
M  V30 4495 H 403.726 -7.66317 1.42755 0
M  V30 4496 N 407.956 -0.998596 -1.21925 0
M  V30 4497 C 408.904 -0.546641 -2.26085 0
M  V30 4498 C 409.898 0.405576 -1.64473 0
M  V30 4499 O 411.104 0.277471 -1.77849 0
M  V30 4500 H 407.479 -0.158403 -0.735127 0
M  V30 4501 H 409.45 -1.43645 -2.61551 0
M  V30 4502 C 408.199 0.117388 -3.47502 0
M  V30 4503 H 407.522 -0.606277 -3.95176 0
M  V30 4504 H 408.962 0.396993 -4.22137 0
M  V30 4505 C 407.421 1.35455 -3.0847 0
M  V30 4506 O 407.951 2.44944 -3.18379 0
M  V30 4507 N 406.157 1.23191 -2.63196 0
M  V30 4508 H 405.704 0.341006 -2.55333 0
M  V30 4509 H 405.662 2.06071 -2.37449 0
M  V30 4510 N 409.434 1.37368 -0.772513 0
M  V30 4511 C 410.845 1.8231 -0.402493 0
M  V30 4512 C 411.196 1.6436 1.07146 0
M  V30 4513 O 410.321 1.15514 1.82991 0
M  V30 4514 C 410.916 3.30979 -0.723776 0
M  V30 4515 C 409.475 3.74195 -0.406802 0
M  V30 4516 C 408.622 2.59885 -0.967218 0
M  V30 4517 H 411.573 1.25829 -0.967099 0
M  V30 4518 H 411.594 3.80499 -0.00870832 0
M  V30 4519 H 411.106 3.44011 -1.7966 0
M  V30 4520 H 409.207 3.66732 0.658673 0
M  V30 4521 H 409.32 4.7027 -0.915588 0
M  V30 4522 H 407.684 2.51674 -0.391416 0
M  V30 4523 H 408.467 2.7571 -2.04546 0
M  V30 4524 N 410.912 0.523116 1.48665 0
M  V30 4525 C 412.159 -0.0134763 2.02496 0
M  V30 4526 C 412.487 -1.3493 1.40086 0
M  V30 4527 O 411.742 -1.88286 0.533567 0
M  V30 4528 C 412.041 -0.191671 3.56886 0
M  V30 4529 C 411.707 1.06893 4.38046 0
M  V30 4530 C 410.369 1.41443 4.59943 0
M  V30 4531 C 412.721 1.90584 4.85106 0
M  V30 4532 C 410.049 2.59594 5.26144 0
M  V30 4533 C 412.401 3.07907 5.52609 0
M  V30 4534 C 411.065 3.42811 5.72745 0
M  V30 4535 H 410.335 -0.00493133 0.740984 0
M  V30 4536 H 412.982 0.687751 1.78724 0
M  V30 4537 H 411.287 -0.97561 3.79459 0
M  V30 4538 H 412.984 -0.621659 3.96152 0
M  V30 4539 H 409.574 0.789848 4.21259 0
M  V30 4540 H 413.758 1.65203 4.67997 0
M  V30 4541 H 409.014 2.86847 5.39934 0
M  V30 4542 H 413.188 3.73066 5.88043 0
M  V30 4543 H 410.815 4.34462 6.23816 0
M  V30 4544 N 412.39 -1.55475 0.257931 0
M  V30 4545 C 413.639 -1.98383 -0.364275 0
M  V30 4546 C 413.952 -1.14952 -1.58258 0
M  V30 4547 O 415.158 -1.47924 -2.27664 0
M  V30 4548 C 413.614 -3.53037 -0.699479 0
M  V30 4549 C 413.222 -4.45223 0.498046 0
M  V30 4550 C 414.966 -4.04575 -1.28526 0
M  V30 4551 C 412.873 -5.91238 0.138383 0
M  V30 4552 H 411.803 -0.740911 -0.13988 0
M  V30 4553 H 414.454 -1.79936 0.359883 0
M  V30 4554 H 412.836 -3.6722 -1.48207 0
M  V30 4555 H 414.01 -4.42803 1.27522 0
M  V30 4556 H 412.325 -4.04226 0.999503 0
M  V30 4557 H 414.922 -5.11196 -1.56788 0
M  V30 4558 H 415.265 -3.5258 -2.21344 0
M  V30 4559 H 415.798 -3.93762 -0.565337 0
M  V30 4560 H 412.537 -6.47294 1.03398 0
M  V30 4561 H 412.057 -5.96768 -0.602374 0
M  V30 4562 H 413.736 -6.46413 -0.27553 0
M  V30 4563 N 413.868 0.0150385 -1.57593 0
M  V30 4564 C 414.818 1.01943 -2.0394 0
M  V30 4565 C 415.802 1.31209 -0.931286 0
M  V30 4566 O 416.994 1.30559 -1.19513 0
M  V30 4567 C 414.123 2.31621 -2.53391 0
M  V30 4568 C 413.209 2.05384 -3.7105 0
M  V30 4569 N 413.6 1.49253 -4.83278 0
M  V30 4570 C 411.898 2.35601 -3.78693 0
M  V30 4571 C 412.599 1.39143 -5.64813 0
M  V30 4572 N 411.575 1.87187 -5.10355 0
M  V30 4573 H 415.377 0.57969 -2.88126 0
M  V30 4574 H 412.891 0.221056 -1.60888 0
M  V30 4575 H 414.888 3.044 -2.84862 0
M  V30 4576 H 413.548 2.76261 -1.70616 0
M  V30 4577 H 414.559 1.17334 -5.04433 0
M  V30 4578 H 411.236 2.8322 -3.06746 0
M  V30 4579 H 412.626 0.961153 -6.6499 0
M  V30 4580 N 415.346 1.54954 0.287554 0
M  V30 4581 C 416.276 1.89839 1.35954 0
M  V30 4582 C 417.257 0.758675 1.52244 0
M  V30 4583 O 418.442 1.01557 1.65529 0
M  V30 4584 C 415.572 2.15753 2.72154 0
M  V30 4585 C 414.526 3.3159 2.70614 0
M  V30 4586 C 413.852 3.42952 4.10229 0
M  V30 4587 C 415.152 4.68359 2.31165 0
M  V30 4588 H 416.846 2.79625 1.07007 0
M  V30 4589 H 414.392 1.3454 0.513316 0
M  V30 4590 H 416.345 2.38743 3.47246 0
M  V30 4591 H 415.069 1.22752 3.02654 0
M  V30 4592 H 413.728 3.08545 1.97979 0
M  V30 4593 H 413.376 2.47443 4.37928 0
M  V30 4594 H 413.076 4.20826 4.10097 0
M  V30 4595 H 414.6 3.68218 4.87081 0
M  V30 4596 H 416.014 4.9099 2.95976 0
M  V30 4597 H 414.411 5.49044 2.42221 0
M  V30 4598 H 415.481 4.68165 1.26291 0
M  V30 4599 N 416.824 -0.551391 1.4764 0
M  V30 4600 C 418.101 -1.31229 1.45046 0
M  V30 4601 C 418.481 -2.10563 0.150527 0
M  V30 4602 O 417.829 -2.11374 -0.867956 0
M  V30 4603 C 418.039 -2.21189 2.69956 0
M  V30 4604 C 419.387 -2.82021 3.1741 0
M  V30 4605 O 420.411 -2.31488 2.70724 0
M  V30 4606 O 419.27 -3.73885 3.98588 0
M  V30 4607 H 416.364 -0.591193 0.578291 0
M  V30 4608 H 418.91 -0.569813 1.59847 0
M  V30 4609 H 417.682 -1.62207 3.56096 0
M  V30 4610 H 417.305 -3.02722 2.57769 0
M  V30 4611 N 418.302 -1.35869 -0.798587 0
M  V30 4612 C 419.579 -1.20145 -1.54352 0
M  V30 4613 C 419.959 0.216161 -2.0999 0
M  V30 4614 O 419.307 1.22068 -1.93162 0
M  V30 4615 C 419.517 -2.27602 -2.64572 0
M  V30 4616 C 420.865 -2.63811 -3.32699 0
M  V30 4617 O 421.889 -2.26576 -2.74849 0
M  V30 4618 O 420.748 -3.27866 -4.37226 0
M  V30 4619 H 417.842 -0.467248 -0.682355 0
M  V30 4620 H 420.388 -1.47574 -0.837859 0
M  V30 4621 H 419.16 -3.2265 -2.21388 0
M  V30 4622 H 418.783 -2.01488 -3.42766 0
M  V30 4623 N 419.78 1.02168 -1.19998 0
M  V30 4624 C 421.057 1.72816 -0.916191 0
M  V30 4625 C 421.437 2.03081 0.576325 0
M  V30 4626 O 420.785 1.69122 1.53656 0
M  V30 4627 C 420.995 2.9997 -1.78378 0
M  V30 4628 C 422.343 3.73336 -2.02251 0
M  V30 4629 O 423.367 3.09914 -1.75589 0
M  V30 4630 O 422.226 4.87371 -2.47249 0
M  V30 4631 H 419.32 0.752924 -0.342103 0
M  V30 4632 H 421.866 1.08062 -1.30846 0
M  V30 4633 H 420.638 2.73888 -2.79466 0
M  V30 4634 H 420.261 3.72464 -1.39126 0
M  V30 4635 N 421.258 1.00505 1.21394 0
M  V30 4636 C 422.498 0.696149 1.9218 0
M  V30 4637 C 422.862 -0.759099 1.76357 0
M  V30 4638 O 424.063 -1.17998 2.41516 0
M  V30 4639 C 422.334 1.10571 3.39866 0
M  V30 4640 S 423.893 0.91702 4.29111 0
M  V30 4641 H 420.711 0.254147 0.664026 0
M  V30 4642 H 423.313 1.28988 1.46909 0
M  V30 4643 H 422.017 2.16096 3.489 0
M  V30 4644 H 421.548 0.504268 3.90155 0
M  V30 4645 H 423.563 -0.185855 4.95852 0
M  V30 4646 N 422.737 -1.36956 0.779787 0
M  V30 4647 C 423.983 -1.99787 0.348281 0
M  V30 4648 C 424.316 -1.61756 -1.07465 0
M  V30 4649 O 423.591 -0.867639 -1.74075 0
M  V30 4650 C 423.874 -3.56597 0.50104 0
M  V30 4651 C 423.727 -4.04513 1.96697 0
M  V30 4652 C 425.046 -4.40008 -0.0898097 0
M  V30 4653 H 422.165 -0.725796 0.128022 0
M  V30 4654 H 424.807 -1.62514 0.984331 0
M  V30 4655 H 422.957 -3.88479 -0.0404347 0
M  V30 4656 H 424.629 -3.83161 2.56876 0
M  V30 4657 H 422.872 -3.56408 2.47297 0
M  V30 4658 H 423.543 -5.1352 2.02486 0
M  V30 4659 H 426.019 -4.14431 0.372293 0
M  V30 4660 H 424.895 -5.4888 0.0471605 0
M  V30 4661 H 425.156 -4.26035 -1.18096 0
M  V30 4662 N 424.215 -0.530993 -1.48385 0
M  V30 4663 C 425.443 -0.00134122 -2.069 0
M  V30 4664 C 425.858 1.2805 -1.3874 0
M  V30 4665 O 425.215 1.76204 -0.475244 0
M  V30 4666 C 425.266 0.225256 -3.60798 0
M  V30 4667 O 424.987 -1.0058 -4.26398 0
M  V30 4668 C 426.488 0.795172 -4.3611 0
M  V30 4669 H 423.708 -0.0339704 -0.67014 0
M  V30 4670 H 426.252 -0.736926 -1.90761 0
M  V30 4671 H 424.407 0.910891 -3.76539 0
M  V30 4672 H 424.821 -0.787165 -5.1856 0
M  V30 4673 H 426.295 0.903143 -5.44562 0
M  V30 4674 H 426.772 1.80031 -4.00606 0
M  V30 4675 H 427.378 0.146069 -4.25049 0
M  V30 4676 N 425.693 1.55336 -0.266172 0
M  V30 4677 C 426.603 2.2583 0.635458 0
M  V30 4678 C 427.619 1.28106 1.17749 0
M  V30 4679 O 428.795 1.61024 1.20968 0
M  V30 4680 C 425.86 2.95879 1.80712 0
M  V30 4681 C 424.921 4.09059 1.30265 0
M  V30 4682 C 424.154 4.75759 2.41846 0
M  V30 4683 O 424.377 4.41622 3.61007 0
M  V30 4684 O 423.311 5.63888 2.1051 0
M  V30 4685 H 427.137 3.03631 0.0646693 0
M  V30 4686 H 424.722 1.49361 -0.0339177 0
M  V30 4687 H 426.604 3.39932 2.49047 0
M  V30 4688 H 425.279 2.21002 2.36516 0
M  V30 4689 H 424.186 3.69482 0.586019 0
M  V30 4690 H 425.519 4.85811 0.790458 0
M  V30 4691 N 427.171 -0.0066808 1.57599 0
M  V30 4692 C 428.101 -0.999296 2.11036 0
M  V30 4693 C 429.082 -1.36278 1.01795 0
M  V30 4694 O 430.267 -1.4477 1.29442 0
M  V30 4695 C 427.397 -2.29328 2.60818 0
M  V30 4696 C 426.351 -2.07159 3.74525 0
M  V30 4697 C 425.677 -3.42512 4.10596 0
M  V30 4698 C 426.977 -1.43959 5.02069 0
M  V30 4699 H 428.671 -0.554382 2.94223 0
M  V30 4700 H 426.217 -0.265221 1.41536 0
M  V30 4701 H 428.17 -2.99117 2.96828 0
M  V30 4702 H 426.894 -2.7592 1.74745 0
M  V30 4703 H 425.553 -1.39797 3.38899 0
M  V30 4704 H 425.201 -3.86795 3.21556 0
M  V30 4705 H 424.901 -3.28498 4.87199 0
M  V30 4706 H 426.425 -4.13628 4.4916 0
M  V30 4707 H 427.839 -2.03696 5.35893 0
M  V30 4708 H 426.236 -1.40452 5.83432 0
M  V30 4709 H 427.306 -0.407992 4.83181 0
M  V30 4710 N 428.649 -1.55105 -0.279332 0
M  V30 4711 C 429.874 -1.7976 -1.03446 0
M  V30 4712 C 430.299 -0.565952 -1.79384 0
M  V30 4713 O 429.657 0.484259 -1.74713 0
M  V30 4714 C 429.705 -3.0179 -1.97371 0
M  V30 4715 O 428.809 -2.76432 -3.06038 0
M  V30 4716 H 428.15 -0.594334 -0.29608 0
M  V30 4717 H 430.68 -2.02235 -0.310165 0
M  V30 4718 H 430.69 -3.30351 -2.39441 0
M  V30 4719 H 429.365 -3.91085 -1.4151 0
M  V30 4720 H 427.942 -2.58949 -2.68328 0
M  V30 4721 N 430.127 0.543554 -1.4793 0
M  V30 4722 C 431.373 1.30201 -1.55485 0
M  V30 4723 C 431.706 1.92925 -0.222201 0
M  V30 4724 O 430.981 1.78586 0.77053 0
M  V30 4725 C 431.264 2.40174 -2.68307 0
M  V30 4726 C 431.117 1.8223 -4.11233 0
M  V30 4727 C 432.436 3.42024 -2.76961 0
M  V30 4728 H 429.555 0.472036 -0.565996 0
M  V30 4729 H 432.197 0.606914 -1.80046 0
M  V30 4730 H 430.347 2.99463 -2.47495 0
M  V30 4731 H 432.019 1.27096 -4.43446 0
M  V30 4732 H 430.262 1.12832 -4.18869 0
M  V30 4733 H 430.933 2.61793 -4.85972 0
M  V30 4734 H 433.409 2.92672 -2.95774 0
M  V30 4735 H 432.285 4.16383 -3.57654 0
M  V30 4736 H 432.546 4.0173 -1.84568 0
M  V30 4737 N 431.605 1.3629 0.791371 0
M  V30 4738 C 432.555 1.26988 1.89362 0
M  V30 4739 C 433.539 0.161795 1.60084 0
M  V30 4740 O 434.731 0.394426 1.72549 0
M  V30 4741 C 431.86 1.05944 3.26544 0
M  V30 4742 C 430.946 2.21211 3.61838 0
M  V30 4743 N 431.337 3.46518 3.68455 0
M  V30 4744 C 429.635 2.12933 3.91887 0
M  V30 4745 C 430.336 4.2241 3.99931 0
M  V30 4746 N 429.312 3.51329 4.14812 0
M  V30 4747 H 433.114 2.21908 1.92702 0
M  V30 4748 H 430.628 1.28982 0.986787 0
M  V30 4749 H 432.625 0.973666 4.05371 0
M  V30 4750 H 431.285 0.119223 3.24481 0
M  V30 4751 H 432.296 3.80677 3.51148 0
M  V30 4752 H 428.973 1.26855 3.97761 0
M  V30 4753 H 430.363 5.30767 4.1199 0
M  V30 4754 N 433.083 -1.0153 1.20538 0
M  V30 4755 C 434.033 -2.08482 0.922991 0
M  V30 4756 C 435.017 -1.60469 -0.117702 0
M  V30 4757 O 436.209 -1.76772 0.0898465 0
M  V30 4758 C 433.338 -3.39952 0.478312 0
M  V30 4759 C 432.424 -3.94662 1.5525 0
M  V30 4760 N 432.815 -4.22866 2.77521 0
M  V30 4761 C 431.113 -4.22825 1.41897 0
M  V30 4762 C 431.814 -4.67002 3.4682 0
M  V30 4763 N 430.79 -4.69356 2.74237 0
M  V30 4764 H 434.592 -2.28199 1.85209 0
M  V30 4765 H 432.106 -1.19512 1.09957 0
M  V30 4766 H 434.103 -4.16105 0.257408 0
M  V30 4767 H 432.763 -3.21648 -0.444148 0
M  V30 4768 H 433.774 -4.11732 3.1416 0
M  V30 4769 H 430.451 -4.13714 0.561015 0
M  V30 4770 H 431.841 -4.97632 4.51455 0
M  V30 4771 N 434.561 -1.01147 -1.20859 0
M  V30 4772 C 435.977 -0.725422 -1.42161 0
M  V30 4773 C 436.177 0.696919 -1.89064 0
M  V30 4774 O 435.233 1.46539 -2.05627 0
M  V30 4775 C 436.546 -1.74678 -2.44761 0
M  V30 4776 C 438.094 -1.76433 -2.58535 0
M  V30 4777 C 438.569 -2.77481 -3.64374 0
M  V30 4778 N 440.06 -2.76189 -3.71852 0
M  V30 4779 C 440.795 -3.51035 -4.53389 0
M  V30 4780 N 440.291 -4.35541 -5.38773 0
M  V30 4781 N 442.084 -3.39655 -4.47873 0
M  V30 4782 H 434.235 -1.92979 -0.887282 0
M  V30 4783 H 436.498 -0.833327 -0.451962 0
M  V30 4784 H 436.204 -2.76551 -2.17285 0
M  V30 4785 H 436.078 -1.55472 -3.43669 0
M  V30 4786 H 438.465 -0.75248 -2.85345 0
M  V30 4787 H 438.546 -1.99712 -1.5984 0
M  V30 4788 H 438.19 -3.78827 -3.38308 0
M  V30 4789 H 438.12 -2.51466 -4.6268 0
M  V30 4790 H 440.611 -2.14885 -3.10858 0
M  V30 4791 H 440.924 -4.89432 -5.98061 0
M  V30 4792 H 439.269 -4.39621 -5.38292 0
M  V30 4793 H 442.46 -2.73063 -3.80203 0
M  V30 4794 H 442.633 -3.9824 -5.11184 0
M  V30 4795 N 436.039 1.36541 -0.78704 0
M  V30 4796 C 436.987 2.31965 -0.171724 0
M  V30 4797 C 437.981 1.55689 0.667631 0
M  V30 4798 O 439.187 1.70969 0.562981 0
M  V30 4799 H 435.562 0.751101 -0.0367545 0
M  V30 4800 H 437.533 2.81428 -0.992017 0
M  V30 4801 C 436.282 3.40968 0.680904 0
M  V30 4802 H 435.605 3.99775 0.0443961 0
M  V30 4803 H 437.045 4.10063 1.07815 0
M  V30 4804 C 435.504 2.82338 1.83813 0
M  V30 4805 O 436.034 2.74311 2.93456 0
M  V30 4806 N 434.24 2.39661 1.6435 0
M  V30 4807 H 433.787 2.46389 0.751668 0
M  V30 4808 H 433.745 2.00779 2.4194 0
M  V30 4809 N 437.518 0.538854 1.48102 0
M  V30 4810 C 438.466 -0.232325 2.31437 0
M  V30 4811 C 439.46 -0.927004 1.41785 0
M  V30 4812 O 440.666 -0.850378 1.58646 0
M  V30 4813 H 437.041 -0.0937916 0.746128 0
M  V30 4814 H 439.012 0.489986 2.9435 0
M  V30 4815 C 437.761 -1.26074 3.24038 0
M  V30 4816 H 437.084 -0.735609 3.92974 0
M  V30 4817 H 438.524 -1.77157 3.85216 0
M  V30 4818 C 436.983 -2.29902 2.46265 0
M  V30 4819 O 437.513 -3.36502 2.19384 0
M  V30 4820 N 435.719 -2.03348 2.07601 0
M  V30 4821 H 435.266 -1.16675 2.29662 0
M  V30 4822 H 435.224 -2.73038 1.55877 0
M  V30 4823 N 438.996 -1.55193 0.274407 0
M  V30 4824 C 440.412 -1.59401 -0.0797543 0
M  V30 4825 C 440.612 -1.29162 -1.54659 0
M  V30 4826 O 439.668 -1.05215 -2.29534 0
M  V30 4827 C 440.981 -2.99257 0.294238 0
M  V30 4828 C 442.529 -3.12072 0.240796 0
M  V30 4829 C 443.004 -4.54194 0.589218 0
M  V30 4830 N 444.495 -4.60033 0.540744 0
M  V30 4831 C 445.23 -5.68027 0.783147 0
M  V30 4832 N 444.726 -6.8417 1.09013 0
M  V30 4833 N 446.519 -5.57572 0.711993 0
M  V30 4834 H 438.67 -1.73113 1.23067 0
M  V30 4835 H 440.933 -0.807197 0.497129 0
M  V30 4836 H 440.639 -3.26217 1.31435 0
M  V30 4837 H 440.513 -3.75427 -0.365281 0
M  V30 4838 H 442.9 -2.84877 -0.770024 0
M  V30 4839 H 442.981 -2.38117 0.934563 0
M  V30 4840 H 442.625 -4.82115 1.59772 0
M  V30 4841 H 442.555 -5.26448 -0.126331 0
M  V30 4842 H 445.046 -3.76599 0.313327 0
M  V30 4843 H 445.359 -7.6243 1.26178 0
M  V30 4844 H 443.704 -6.85787 1.12789 0
M  V30 4845 H 446.895 -4.65714 0.472014 0
M  V30 4846 H 447.068 -6.41659 0.90429 0
M  V30 4847 N 440.474 -0.00167713 -1.576 0
M  V30 4848 C 441.406 1.0174 -2.05382 0
M  V30 4849 C 442.419 1.30595 -0.972052 0
M  V30 4850 O 443.608 1.27542 -1.24882 0
M  V30 4851 C 440.708 2.35174 -2.44022 0
M  V30 4852 C 439.881 2.25234 -3.74951 0
M  V30 4853 C 438.94 3.4137 -4.00441 0
M  V30 4854 O 437.966 3.19483 -4.71083 0
M  V30 4855 N 439.168 4.64275 -3.48467 0
M  V30 4856 H 441.933 0.609902 -2.93428 0
M  V30 4857 H 439.494 0.185672 -1.60832 0
M  V30 4858 H 441.486 3.11643 -2.58187 0
M  V30 4859 H 440.056 2.67659 -1.61485 0
M  V30 4860 H 439.276 1.33664 -3.70847 0
M  V30 4861 H 440.564 2.15767 -4.60784 0
M  V30 4862 H 439.962 4.84955 -2.91264 0
M  V30 4863 H 438.519 5.38005 -3.67959 0
M  V30 4864 N 441.952 1.55251 0.271103 0
M  V30 4865 C 443.18 1.79974 1.02064 0
M  V30 4866 C 443.595 0.574003 1.79863 0
M  V30 4867 O 442.952 -0.456962 1.76686 0
M  V30 4868 C 443.003 3.02603 1.97772 0
M  V30 4869 O 442.724 4.20443 1.23124 0
M  V30 4870 C 444.225 3.39944 2.84522 0
M  V30 4871 H 441.445 0.599489 0.301419 0
M  V30 4872 H 443.989 2.02268 0.301313 0
M  V30 4873 H 442.144 2.8243 2.65165 0
M  V30 4874 H 442.558 4.89783 1.87651 0
M  V30 4875 H 444.032 4.28915 3.47471 0
M  V30 4876 H 444.509 2.59432 3.54389 0
M  V30 4877 H 445.115 3.62383 2.22618 0
M  V30 4878 N 443.43 -0.535701 1.48216 0
M  V30 4879 C 444.363 -1.65726 1.56876 0
M  V30 4880 C 445.341 -1.57094 0.419542 0
M  V30 4881 O 446.525 -1.77648 0.630352 0
M  V30 4882 C 443.652 -3.04096 1.49142 0
M  V30 4883 C 442.698 -3.31105 2.68834 0
M  V30 4884 S 443.531 -3.18001 4.30854 0
M  V30 4885 C 444.687 -4.58828 4.25709 0
M  V30 4886 H 444.92 -1.58129 2.51759 0
M  V30 4887 H 442.453 -0.718218 1.36678 0
M  V30 4888 H 444.411 -3.839 1.45366 0
M  V30 4889 H 443.072 -3.09139 0.556067 0
M  V30 4890 H 442.265 -4.32033 2.59545 0
M  V30 4891 H 441.867 -2.58961 2.69843 0
M  V30 4892 H 444.159 -5.5023 3.95289 0
M  V30 4893 H 445.102 -4.73172 5.26796 0
M  V30 4894 H 445.51 -4.37883 3.56257 0
M  V30 4895 N 444.908 -1.36708 -0.784132 0
M  V30 4896 C 445.818 -1.3363 -1.92822 0
M  V30 4897 C 446.834 -0.237686 -1.72369 0
M  V30 4898 O 448.01 -0.470962 -1.95816 0
M  V30 4899 C 445.075 -1.13011 -3.27764 0
M  V30 4900 C 444.136 -2.32397 -3.60957 0
M  V30 4901 C 443.369 -2.12752 -4.89461 0
M  V30 4902 O 443.592 -1.10541 -5.59586 0
M  V30 4903 O 442.526 -3.00653 -5.21432 0
M  V30 4904 H 446.352 -2.29964 -1.98369 0
M  V30 4905 H 443.937 -1.1731 -0.925136 0
M  V30 4906 H 445.819 -1.03451 -4.08504 0
M  V30 4907 H 444.494 -0.19743 -3.23097 0
M  V30 4908 H 443.401 -2.47527 -2.80502 0
M  V30 4909 H 444.734 -3.2419 -3.70354 0
M  V30 4910 N 446.386 1.0089 -1.21074 0
M  V30 4911 C 447.663 1.71834 -0.934469 0
M  V30 4912 C 448.043 2.0368 0.554753 0
M  V30 4913 O 447.391 1.70742 1.51854 0
M  V30 4914 C 447.601 2.98061 -1.8155 0
M  V30 4915 C 448.949 3.7117 -2.06199 0
M  V30 4916 O 449.973 3.08034 -1.78867 0
M  V30 4917 O 448.832 4.84721 -2.52404 0
M  V30 4918 H 445.926 0.749253 -0.35007 0
M  V30 4919 H 448.472 1.06668 -1.31985 0
M  V30 4920 H 447.244 2.70908 -2.82355 0
M  V30 4921 H 446.867 3.70968 -1.43068 0
M  V30 4922 N 447.864 1.01787 1.20321 0
M  V30 4923 C 448.794 0.609625 2.25401 0
M  V30 4924 C 449.775 -0.375951 1.65893 0
M  V30 4925 O 450.96 -0.261101 1.92437 0
M  V30 4926 C 448.09 -0.0515995 3.47262 0
M  V30 4927 C 447.044 0.855095 4.19371 0
M  V30 4928 C 446.37 0.0595757 5.34667 0
M  V30 4929 C 447.67 2.16374 4.75373 0
M  V30 4930 H 449.364 1.48803 2.59804 0
M  V30 4931 H 446.91 0.716934 1.24884 0
M  V30 4932 H 448.863 -0.348764 4.19954 0
M  V30 4933 H 447.587 -0.964726 3.12027 0
M  V30 4934 H 446.246 1.13628 3.48546 0
M  V30 4935 H 445.894 -0.85524 4.95676 0
M  V30 4936 H 445.594 0.663406 5.83843 0
M  V30 4937 H 447.118 -0.231105 6.10162 0
M  V30 4938 H 448.532 1.92885 5.39878 0
M  V30 4939 H 446.929 2.71853 5.34991 0
M  V30 4940 H 447.999 2.82589 3.94045 0
M  V30 4941 N 449.342 -1.36122 0.79427 0
M  V30 4942 C 450.591 -1.98361 0.365464 0
M  V30 4943 C 450.904 -1.6374 -1.06997 0
M  V30 4944 O 452.11 -2.19251 -1.60129 0
M  V30 4945 C 450.566 -3.54821 0.602496 0
M  V30 4946 C 450.174 -3.98362 2.04967 0
M  V30 4947 C 451.918 -4.2383 0.238437 0
M  V30 4948 C 449.825 -5.47619 2.2331 0
M  V30 4949 H 448.755 -0.742193 0.13291 0
M  V30 4950 H 451.406 -1.55354 0.976589 0
M  V30 4951 H 449.788 -3.95922 -0.078409 0
M  V30 4952 H 450.962 -3.68447 2.76737 0
M  V30 4953 H 449.277 -3.42206 2.37243 0
M  V30 4954 H 451.874 -5.33529 0.353705 0
M  V30 4955 H 452.217 -4.08264 -0.814006 0
M  V30 4956 H 452.75 -3.88108 0.872769 0
M  V30 4957 H 449.489 -5.68138 3.26955 0
M  V30 4958 H 449.009 -5.79145 1.5605 0
M  V30 4959 H 450.688 -6.13911 2.0426 0
M  V30 4960 N 450.82 -0.546701 -1.47814 0
M  V30 4961 C 452.045 -0.021268 -2.07389 0
M  V30 4962 C 452.47 1.25822 -1.39822 0
M  V30 4963 O 451.828 1.75111 -0.46968 0
M  V30 4964 C 451.876 0.168502 -3.60206 0
M  V30 4965 O 450.98 1.23347 -3.93522 0
M  V30 4966 H 450.321 -0.0466108 -0.662362 0
M  V30 4967 H 452.851 -0.759387 -1.89985 0
M  V30 4968 H 452.861 0.385982 -4.0617 0
M  V30 4969 H 451.536 -0.766075 -4.08784 0
M  V30 4970 H 450.113 0.997319 -3.59316 0
M  V30 4971 N 452.299 1.55045 -0.282633 0
M  V30 4972 C 453.229 2.2579 0.595066 0
M  V30 4973 C 454.21 1.25074 1.15284 0
M  V30 4974 O 455.395 1.5381 1.18559 0
M  V30 4975 C 452.525 2.98472 1.77572 0
M  V30 4976 C 451.479 4.0618 1.34914 0
M  V30 4977 C 450.805 4.66477 2.6135 0
M  V30 4978 C 452.105 5.1996 0.493821 0
M  V30 4979 H 453.799 2.994 0.00505653 0
M  V30 4980 H 451.345 1.44 0.000992001 0
M  V30 4981 H 453.298 3.46677 2.39568 0
M  V30 4982 H 452.022 2.2241 2.39168 0
M  V30 4983 H 450.681 3.58797 0.752338 0
M  V30 4984 H 450.329 3.87074 3.2122 0
M  V30 4985 H 450.029 5.39207 2.33516 0
M  V30 4986 H 451.553 5.17435 3.24181 0
M  V30 4987 H 452.967 5.64172 1.01898 0
M  V30 4988 H 451.364 5.99299 0.310047 0
M  V30 4989 H 452.434 4.82462 -0.485593 0
M  V30 4990 N 453.777 0.010035 1.57597 0
M  V30 4991 C 455.023 -0.668011 1.92118 0
M  V30 4992 C 455.378 -1.70821 0.885328 0
M  V30 4993 O 454.671 -1.91333 -0.101187 0
M  V30 4994 C 454.865 -1.34434 3.31153 0
M  V30 4995 C 454.694 -0.371176 4.48166 0
M  V30 4996 C 453.464 0.0220686 5.05295 0
M  V30 4997 C 455.662 0.366731 5.12991 0
M  V30 4998 N 453.644 0.9924 6.05826 0
M  V30 4999 C 455.015 1.19142 6.08445 0
M  V30 5000 C 457.07 0.429489 4.96044 0
M  V30 5001 C 455.773 2.07317 6.88776 0
M  V30 5002 C 457.799 1.2985 5.76969 0
M  V30 5003 C 457.161 2.11101 6.72023 0
M  V30 5004 H 453.26 -0.217337 0.751192 0
M  V30 5005 H 455.844 0.0727375 1.94564 0
M  V30 5006 H 454.015 -2.05533 3.29561 0
M  V30 5007 H 455.747 -1.97789 3.53075 0
M  V30 5008 H 452.502 -0.348409 4.72317 0
M  V30 5009 H 452.926 1.47324 6.60776 0
M  V30 5010 H 457.568 -0.18442 4.22398 0
M  V30 5011 H 455.286 2.69771 7.61741 0
M  V30 5012 H 458.872 1.3511 5.65894 0
M  V30 5013 H 457.752 2.77257 7.33552 0
M  V30 5014 N 455.255 -1.55392 -0.262866 0
M  V30 5015 C 456.187 -1.85392 -1.34768 0
M  V30 5016 C 457.2 -0.739069 -1.45057 0
M  V30 5017 O 458.389 -1.01703 -1.46693 0
M  V30 5018 C 455.489 -2.01088 -2.72795 0
M  V30 5019 C 454.662 -3.31828 -2.84972 0
M  V30 5020 C 453.721 -3.37464 -4.03738 0
M  V30 5021 O 452.747 -4.10778 -3.94018 0
M  V30 5022 N 453.949 -2.65599 -5.16176 0
M  V30 5023 H 456.714 -2.79029 -1.09375 0
M  V30 5024 H 454.275 -1.55434 -0.452981 0
M  V30 5025 H 456.267 -2.02217 -3.50557 0
M  V30 5026 H 454.837 -1.1427 -2.90966 0
M  V30 5027 H 454.057 -3.43152 -1.94012 0
M  V30 5028 H 455.345 -4.18032 -2.90045 0
M  V30 5029 H 454.743 -2.05736 -5.26962 0
M  V30 5030 H 453.3 -2.72439 -5.92132 0
M  V30 5031 N 456.733 0.527833 -1.48498 0
M  V30 5032 C 457.963 1.30633 -1.60058 0
M  V30 5033 C 458.371 1.87394 -0.260786 0
M  V30 5034 O 457.714 1.67227 0.760317 0
M  V30 5035 C 457.776 2.49361 -2.58958 0
M  V30 5036 C 457.44 2.13671 -4.03972 0
M  V30 5037 C 458.437 1.69217 -4.91591 0
M  V30 5038 C 456.122 2.24129 -4.49524 0
M  V30 5039 C 458.116 1.35689 -6.2279 0
M  V30 5040 C 455.803 1.90212 -5.80743 0
M  V30 5041 C 456.801 1.46063 -6.67199 0
M  V30 5042 O 456.489 1.12593 -7.95976 0
M  V30 5043 H 456.221 0.403444 -0.54241 0
M  V30 5044 H 458.775 0.643233 -1.95068 0
M  V30 5045 H 457.005 3.18659 -2.19073 0
M  V30 5046 H 458.694 3.11421 -2.6033 0
M  V30 5047 H 459.46 1.60607 -4.57636 0
M  V30 5048 H 455.339 2.57447 -3.82416 0
M  V30 5049 H 458.883 1.01157 -6.90227 0
M  V30 5050 H 454.78 1.98464 -6.14233 0
M  V30 5051 H 455.548 1.25972 -8.08748 0
M  V30 5052 N 458.211 1.37122 0.776871 0
M  V30 5053 C 459.488 1.22586 1.52421 0
M  V30 5054 C 459.868 -0.182726 2.10308 0
M  V30 5055 O 459.216 -1.18979 1.9508 0
M  V30 5056 C 459.426 2.31782 2.60918 0
M  V30 5057 C 460.774 2.69071 3.2846 0
M  V30 5058 O 461.798 2.3092 2.71209 0
M  V30 5059 O 460.657 3.3478 4.31954 0
M  V30 5060 H 457.751 0.478045 0.674835 0
M  V30 5061 H 460.297 1.48888 0.814275 0
M  V30 5062 H 459.069 3.26131 2.16227 0
M  V30 5063 H 458.692 2.06916 3.39517 0
M  V30 5064 N 459.689 -1.00246 1.21608 0
M  V30 5065 C 460.639 -2.07492 0.945051 0
M  V30 5066 C 461.623 -1.60585 -0.100675 0
M  V30 5067 O 462.815 -1.76667 0.10859 0
M  V30 5068 C 459.944 -3.39425 0.514342 0
M  V30 5069 C 459.03 -3.92993 1.59428 0
M  V30 5070 N 459.421 -4.19898 2.81991 0
M  V30 5071 C 457.719 -4.21297 1.46374 0
M  V30 5072 C 458.42 -4.63297 3.51754 0
M  V30 5073 N 457.396 -4.66421 2.79199 0
M  V30 5074 H 461.198 -2.26222 1.87619 0
M  V30 5075 H 458.712 -1.18339 1.11219 0
M  V30 5076 H 460.709 -4.15808 0.301527 0
M  V30 5077 H 459.369 -3.22101 -0.410008 0
M  V30 5078 H 460.38 -4.08377 3.1851 0
M  V30 5079 H 457.057 -4.13095 0.604863 0
M  V30 5080 H 458.447 -4.92816 4.56708 0
M  V30 5081 N 461.167 -1.02423 -1.1978 0
M  V30 5082 C 462.097 -0.62157 -2.25075 0
M  V30 5083 C 463.078 0.367148 -1.6609 0
M  V30 5084 O 464.263 0.250892 -1.92573 0
M  V30 5085 C 461.393 0.0331826 -3.47284 0
M  V30 5086 C 460.347 -0.877323 -4.18912 0
M  V30 5087 C 459.673 -0.0879296 -5.34628 0
M  V30 5088 C 460.973 -2.18892 -4.74219 0
M  V30 5089 H 462.667 -1.50179 -2.59011 0
M  V30 5090 H 460.213 -0.723547 -1.24502 0
M  V30 5091 H 462.166 0.326488 -4.20133 0
M  V30 5092 H 460.89 0.948164 -3.12534 0
M  V30 5093 H 459.549 -1.15475 -3.47938 0
M  V30 5094 H 459.197 0.828941 -4.96123 0
M  V30 5095 H 458.897 -0.694359 -5.83483 0
M  V30 5096 H 460.421 0.198743 -6.10276 0
M  V30 5097 H 461.835 -1.95746 -5.38847 0
M  V30 5098 H 460.232 -2.74686 -5.33542 0
M  V30 5099 H 461.302 -2.84674 -3.92541 0
M  V30 5100 N 462.645 1.35699 -0.801477 0
M  V30 5101 C 463.873 2.03157 -0.391768 0
M  V30 5102 C 464.288 1.60412 0.995668 0
M  V30 5103 O 463.645 0.799228 1.64069 0
M  V30 5104 C 463.696 3.58566 -0.459671 0
M  V30 5105 O 463.417 3.99756 -1.7924 0
M  V30 5106 C 464.918 4.4328 -0.0421205 0
M  V30 5107 H 462.138 0.651688 -0.159825 0
M  V30 5108 H 464.682 1.73426 -1.08368 0
M  V30 5109 H 462.837 3.86963 0.183939 0
M  V30 5110 H 463.251 4.94387 -1.75162 0
M  V30 5111 H 464.725 5.51821 -0.140754 0
M  V30 5112 H 465.202 4.27383 1.01196 0
M  V30 5113 H 465.808 4.20168 -0.658687 0
M  V30 5114 N 464.123 0.554532 1.47522 0
M  V30 5115 C 465.086 -0.184174 2.28459 0
M  V30 5116 C 466.086 -0.845195 1.36796 0
M  V30 5117 O 467.276 -0.701467 1.59452 0
M  V30 5118 C 464.408 -1.26903 3.16399 0
M  V30 5119 H 465.601 0.526751 2.95238 0
M  V30 5120 H 463.154 0.311375 1.53167 0
M  V30 5121 H 463.889 -2.01244 2.54306 0
M  V30 5122 H 463.674 -0.799883 3.83854 0
M  V30 5123 H 465.164 -1.78794 3.77389 0
M  V30 5124 N 465.601 -1.54893 0.290851 0
M  V30 5125 C 466.829 -2.04343 -0.324288 0
M  V30 5126 C 467.244 -1.16859 -1.48289 0
M  V30 5127 O 466.601 -0.192018 -1.81487 0
M  V30 5128 C 466.652 -3.52756 -0.79026 0
M  V30 5129 O 466.373 -4.36913 0.322213 0
M  V30 5130 C 467.874 -4.18161 -1.4716 0
M  V30 5131 H 465.094 -0.667135 -0.0719173 0
M  V30 5132 H 467.638 -1.99981 0.427529 0
M  V30 5133 H 465.793 -3.57511 -1.49213 0
M  V30 5134 H 466.207 -5.24486 -0.0387372 0
M  V30 5135 H 467.681 -5.23562 -1.7489 0
M  V30 5136 H 468.158 -3.67282 -2.40834 0
M  V30 5137 H 468.764 -4.17454 -0.813178 0
M  V30 5138 N 467.08 -0.0183926 -1.57589 0
M  V30 5139 C 468.31 0.67207 -1.95363 0
M  V30 5140 C 468.718 1.66807 -0.892872 0
M  V30 5141 O 468.061 1.83204 0.134958 0
M  V30 5142 C 468.123 1.44397 -3.29226 0
M  V30 5143 C 467.787 0.607511 -4.52944 0
M  V30 5144 C 468.784 -0.112657 -5.19778 0
M  V30 5145 C 466.469 0.548068 -4.99301 0
M  V30 5146 C 468.463 -0.881057 -6.31281 0
M  V30 5147 C 466.15 -0.224044 -6.10689 0
M  V30 5148 C 467.148 -0.937323 -6.76538 0
M  V30 5149 O 466.836 -1.6968 -7.85789 0
M  V30 5150 H 466.568 0.190925 -0.648478 0
M  V30 5151 H 469.122 -0.0711994 -2.05277 0
M  V30 5152 H 467.352 2.23214 -3.15773 0
M  V30 5153 H 469.041 2.02152 -3.51979 0
M  V30 5154 H 469.807 -0.0759998 -4.8494 0
M  V30 5155 H 465.686 1.09281 -4.4786 0
M  V30 5156 H 469.23 -1.43832 -6.82611 0
M  V30 5157 H 465.127 -0.262457 -6.44966 0
M  V30 5158 H 465.895 -1.61544 -8.024 0
M  V30 5159 N 468.558 1.5553 0.254621 0
M  V30 5160 C 469.488 1.9268 1.31897 0
M  V30 5161 C 470.469 0.790797 1.506 0
M  V30 5162 O 471.654 1.05045 1.63337 0
M  V30 5163 C 468.784 2.21477 2.67517 0
M  V30 5164 C 467.738 3.37256 2.63519 0
M  V30 5165 C 467.064 3.51576 4.02862 0
M  V30 5166 C 468.364 4.73157 2.21179 0
M  V30 5167 H 470.058 2.81832 1.01051 0
M  V30 5168 H 467.604 1.35599 0.484662 0
M  V30 5169 H 469.557 2.46055 3.42104 0
M  V30 5170 H 468.281 1.29144 2.99982 0
M  V30 5171 H 466.94 3.12675 1.9139 0
M  V30 5172 H 466.588 2.56676 4.32581 0
M  V30 5173 H 466.288 4.2943 4.01078 0
M  V30 5174 H 467.812 3.78467 4.79161 0
M  V30 5175 H 469.226 4.97158 2.85494 0
M  V30 5176 H 467.623 5.54058 2.30521 0
M  V30 5177 H 468.693 4.70739 1.16332 0
M  V30 5178 N 470.036 -0.519951 1.48776 0
M  V30 5179 C 470.966 -1.63253 1.66945 0
M  V30 5180 C 471.947 -1.62014 0.518224 0
M  V30 5181 O 473.132 -1.79053 0.751919 0
M  V30 5182 C 470.262 -3.0181 1.71836 0
M  V30 5183 C 469.216 -3.17911 2.8656 0
M  V30 5184 C 468.542 -4.5763 2.76548 0
M  V30 5185 C 469.842 -2.99729 4.27738 0
M  V30 5186 H 471.536 -1.48302 2.6009 0
M  V30 5187 H 469.082 -0.712026 1.25165 0
M  V30 5188 H 471.035 -3.79525 1.83135 0
M  V30 5189 H 469.759 -3.17806 0.752775 0
M  V30 5190 H 468.418 -2.42616 2.74833 0
M  V30 5191 H 468.066 -4.70476 1.77937 0
M  V30 5192 H 467.766 -4.69346 3.53536 0
M  V30 5193 H 469.29 -5.37431 2.89828 0
M  V30 5194 H 470.704 -3.67228 4.40246 0
M  V30 5195 H 469.101 -3.22932 5.05801 0
M  V30 5196 H 470.171 -1.96047 4.43502 0
M  V30 5197 N 471.514 -1.37532 -0.769588 0
M  V30 5198 C 472.444 -1.36172 -1.89682 0
M  V30 5199 C 473.425 -0.23001 -1.68538 0
M  V30 5200 O 474.61 -0.43069 -1.89364 0
M  V30 5201 C 471.74 -1.1701 -3.26995 0
M  V30 5202 C 470.694 -2.27216 -3.62708 0
M  V30 5203 C 470.02 -1.93174 -4.98586 0
M  V30 5204 C 471.32 -3.6941 -3.69234 0
M  V30 5205 H 473.014 -2.30499 -1.91078 0
M  V30 5206 H 470.56 -1.10953 -0.917902 0
M  V30 5207 H 472.513 -1.14688 -4.05493 0
M  V30 5208 H 471.237 -0.191395 -3.26039 0
M  V30 5209 H 469.896 -2.28697 -2.86519 0
M  V30 5210 H 469.544 -0.938281 -4.94171 0
M  V30 5211 H 469.244 -2.66973 -5.23449 0
M  V30 5212 H 470.768 -1.92443 -5.79481 0
M  V30 5213 H 472.182 -3.70047 -4.37879 0
M  V30 5214 H 470.579 -4.4228 -4.05597 0
M  V30 5215 H 471.649 -4.0288 -2.69844 0
M  V30 5216 N 472.992 0.995999 -1.22138 0
M  V30 5217 C 473.922 2.10387 -1.01289 0
M  V30 5218 C 474.903 1.69975 0.0651454 0
M  V30 5219 O 476.088 1.9396 -0.0964628 0
M  V30 5220 C 473.218 3.42312 -0.586517 0
M  V30 5221 C 472.172 3.96558 -1.61014 0
M  V30 5222 C 471.498 5.24494 -1.0397 0
M  V30 5223 C 472.798 4.27595 -2.99933 0
M  V30 5224 H 474.492 2.28086 -1.93951 0
M  V30 5225 H 472.038 1.09607 -0.933928 0
M  V30 5226 H 473.991 4.19223 -0.427793 0
M  V30 5227 H 472.715 3.24431 0.375761 0
M  V30 5228 H 471.374 3.21776 -1.75658 0
M  V30 5229 H 471.022 5.02953 -0.0688703 0
M  V30 5230 H 470.722 5.61755 -1.72352 0
M  V30 5231 H 472.246 6.04042 -0.892494 0
M  V30 5232 H 473.66 4.95315 -2.8868 0
M  V30 5233 H 472.057 4.76021 -3.6541 0
M  V30 5234 H 473.127 3.35498 -3.50099 0
M  V30 5235 N 474.47 1.03057 1.19235 0
M  V30 5236 C 475.433 0.617418 2.20727 0
M  V30 5237 C 476.433 -0.319856 1.57587 0
M  V30 5238 O 477.623 -0.106633 1.73873 0
M  V30 5239 C 474.755 -0.096296 3.40764 0
M  V30 5240 H 475.948 1.51544 2.58794 0
M  V30 5241 H 473.501 0.821949 1.32942 0
M  V30 5242 H 474.236 -1.00859 3.08217 0
M  V30 5243 H 474.021 0.577217 3.87828 0
M  V30 5244 H 475.511 -0.372219 4.15938 0
M  V30 5245 N 475.948 -1.35272 0.808662 0
M  V30 5246 C 476.895 -2.29764 0.218482 0
M  V30 5247 C 477.865 -1.52911 -0.648652 0
M  V30 5248 O 479.05 -1.81341 -0.593297 0
M  V30 5249 C 476.19 -3.39388 -0.625282 0
M  V30 5250 C 475.303 -4.31202 0.262516 0
M  V30 5251 C 474.438 -5.27919 -0.589451 0
M  V30 5252 C 473.477 -6.11371 0.298617 0
M  V30 5253 N 472.614 -7.0022 -0.513443 0
M  V30 5254 H 477.454 -2.79645 1.02968 0
M  V30 5255 H 474.991 -1.37629 0.519303 0
M  V30 5256 H 476.949 -4.01615 -1.12966 0
M  V30 5257 H 475.579 -2.90777 -1.40173 0
M  V30 5258 H 474.631 -3.69962 0.885013 0
M  V30 5259 H 475.943 -4.89748 0.945971 0
M  V30 5260 H 475.097 -5.95529 -1.15888 0
M  V30 5261 H 473.836 -4.69875 -1.30647 0
M  V30 5262 H 472.841 -5.42707 0.880301 0
M  V30 5263 H 474.066 -6.71494 1.01352 0
M  V30 5264 H 472.012 -6.44662 -1.21439 0
M  V30 5265 H 471.929 -7.55917 0.111922 0
M  V30 5266 H 473.197 -7.72175 -1.06608 0
M  V30 5267 N 477.426 -0.562348 -1.47226 0
M  V30 5268 C 478.373 0.182461 -2.30078 0
M  V30 5269 C 479.343 0.903503 -1.39377 0
M  V30 5270 O 480.528 0.898188 -1.68337 0
M  V30 5271 C 477.668 1.20322 -3.23445 0
M  V30 5272 C 476.781 0.487717 -4.29238 0
M  V30 5273 C 475.916 1.49422 -5.09752 0
M  V30 5274 C 474.955 0.763976 -6.07314 0
M  V30 5275 N 474.092 1.71755 -6.80768 0
M  V30 5276 H 478.932 -0.530169 -2.93246 0
M  V30 5277 H 476.469 -0.273276 -1.44539 0
M  V30 5278 H 478.427 1.80768 -3.76004 0
M  V30 5279 H 477.057 1.88382 -2.6213 0
M  V30 5280 H 476.109 -0.231374 -3.79696 0
M  V30 5281 H 477.421 -0.0841003 -4.98729 0
M  V30 5282 H 476.575 2.17206 -5.66486 0
M  V30 5283 H 475.314 2.09995 -4.40174 0
M  V30 5284 H 474.319 0.0722344 -5.49753 0
M  V30 5285 H 475.544 0.16391 -6.78902 0
M  V30 5286 H 473.49 2.31177 -6.13916 0
M  V30 5287 H 473.407 1.19802 -7.46447 0
M  V30 5288 H 474.675 2.38638 -7.42073 0
M  V30 5289 N 478.904 1.54736 -0.299062 0
M  V30 5290 C 479.867 2.22127 0.565012 0
M  V30 5291 C 480.867 1.20669 1.06281 0
M  V30 5292 O 482.057 1.45417 0.959145 0
M  V30 5293 C 479.189 2.90611 1.78208 0
M  V30 5294 H 480.382 2.99891 -0.0237448 0
M  V30 5295 H 477.935 1.5622 -0.0498788 0
M  V30 5296 H 478.67 2.16921 2.41072 0
M  V30 5297 H 478.455 3.64984 1.43281 0
M  V30 5298 H 479.945 3.42026 2.396 0
M  V30 5299 N 480.382 0.0267497 1.57577 0
M  V30 5300 C 481.798 -0.32962 1.56159 0
M  V30 5301 C 481.998 -1.73059 1.03213 0
M  V30 5302 O 481.054 -2.43233 0.677804 0
M  V30 5303 C 482.367 -0.18039 3.00158 0
M  V30 5304 C 483.915 -0.253334 3.11973 0
M  V30 5305 C 484.39 -0.132921 4.57807 0
M  V30 5306 N 485.881 -0.189979 4.6281 0
M  V30 5307 C 486.616 -0.120554 5.73273 0
M  V30 5308 N 486.112 -0.000180315 6.928 0
M  V30 5309 N 487.905 -0.174369 5.61829 0
M  V30 5310 H 480.056 0.942896 1.90324 0
M  V30 5311 H 482.319 0.3639 0.875375 0
M  V30 5312 H 482.025 0.784576 3.42837 0
M  V30 5313 H 481.899 -0.951565 3.65 0
M  V30 5314 H 484.286 -1.20876 2.69208 0
M  V30 5315 H 484.367 0.548177 2.49857 0
M  V30 5316 H 484.011 0.819073 5.01252 0
M  V30 5317 H 483.941 -0.953264 5.179 0
M  V30 5318 H 486.432 -0.283257 3.76837 0
M  V30 5319 H 486.745 0.0461666 7.72786 0
M  V30 5320 H 485.09 0.034569 6.94991 0
M  V30 5321 H 488.281 -0.266794 4.67339 0
M  V30 5322 H 488.454 -0.116802 6.47895 0
M  V30 5323 N 481.861 -1.55662 -0.24637 0
M  V30 5324 C 483.109 -1.77168 -0.972411 0
M  V30 5325 C 483.43 -0.590827 -1.85834 0
M  V30 5326 O 482.7 0.393365 -1.9191 0
M  V30 5327 H 481.28 -0.653405 -0.362038 0
M  V30 5328 H 483.942 -1.93101 -0.264189 0
M  V30 5329 H 483.038 -2.68335 -1.59382 0
M  V30 5330 N 483.339 0.512053 -1.4905 0
M  V30 5331 C 484.286 1.6148 -1.64902 0
M  V30 5332 C 485.256 1.58687 -0.490673 0
M  V30 5333 O 486.441 1.76842 -0.71636 0
M  V30 5334 C 483.581 2.99676 -1.71139 0
M  V30 5335 C 482.694 3.12568 -2.98203 0
M  V30 5336 C 481.829 4.4143 -2.95487 0
M  V30 5337 C 480.868 4.47916 -4.17179 0
M  V30 5338 N 480.005 5.68191 -4.12437 0
M  V30 5339 H 484.845 1.47271 -2.59066 0
M  V30 5340 H 482.382 0.716713 -1.28459 0
M  V30 5341 H 484.34 3.79761 -1.72736 0
M  V30 5342 H 482.97 3.12614 -0.804508 0
M  V30 5343 H 482.022 2.25618 -3.06269 0
M  V30 5344 H 483.334 3.1322 -3.88194 0
M  V30 5345 H 482.488 5.29825 -2.95585 0
M  V30 5346 H 481.227 4.43326 -2.03256 0
M  V30 5347 H 480.232 3.57925 -4.17337 0
M  V30 5348 H 481.457 4.47744 -5.1059 0
M  V30 5349 H 479.403 5.7095 -3.23036 0
M  V30 5350 H 479.32 5.70413 -4.96151 0
M  V30 5351 H 480.588 6.58823 -4.16621 0
M  V30 5352 N 484.817 1.37938 0.762283 0
M  V30 5353 C 486.228 1.30094 1.33912 0
M  V30 5354 C 486.579 -0.0472026 1.96143 0
M  V30 5355 O 485.704 -0.94917 1.94473 0
M  V30 5356 C 486.299 2.35592 2.43478 0
M  V30 5357 C 484.858 2.31353 2.96905 0
M  V30 5358 C 484.005 2.18919 1.70205 0
M  V30 5359 H 486.956 1.48423 0.561816 0
M  V30 5360 H 486.977 2.00806 3.23199 0
M  V30 5361 H 486.489 3.33701 1.98155 0
M  V30 5362 H 484.59 1.36799 3.46579 0
M  V30 5363 H 484.703 3.25147 3.51875 0
M  V30 5364 H 483.067 1.65624 1.93496 0
M  V30 5365 H 483.85 3.18956 1.26973 0
M  V30 5366 N 486.295 -0.989507 1.22664 0
M  V30 5367 C 487.541 -1.7321 1.05481 0
M  V30 5368 C 487.874 -1.89852 -0.408635 0
M  V30 5369 O 487.149 -1.44416 -1.30285 0
M  V30 5370 C 487.432 -3.1357 1.77047 0
M  V30 5371 C 487.285 -3.04555 3.31008 0
M  V30 5372 C 488.604 -4.12812 1.5256 0
M  V30 5373 H 485.723 -0.628697 0.384589 0
M  V30 5374 H 488.365 -1.15258 1.51049 0
M  V30 5375 H 486.515 -3.63046 1.3831 0
M  V30 5376 H 488.187 -2.62674 3.7921 0
M  V30 5377 H 486.43 -2.41278 3.6051 0
M  V30 5378 H 487.101 -4.03894 3.76263 0
M  V30 5379 H 489.577 -3.72106 1.86215 0
M  V30 5380 H 488.453 -5.09132 2.05124 0
M  V30 5381 H 488.714 -4.39711 0.458936 0
M  V30 5382 N 487.773 -1.03688 -1.18687 0
M  V30 5383 C 489.189 -0.755413 -1.4059 0
M  V30 5384 C 489.389 0.656659 -1.905 0
M  V30 5385 O 488.445 1.42144 -2.08689 0
M  V30 5386 C 489.758 -1.7983 -2.41001 0
M  V30 5387 C 491.306 -1.81877 -2.54735 0
M  V30 5388 C 491.781 -2.85148 -3.58406 0
M  V30 5389 N 493.272 -2.84015 -3.6591 0
M  V30 5390 C 494.007 -3.60573 -4.45841 0
M  V30 5391 N 493.503 -4.46871 -5.29413 0
M  V30 5392 N 495.296 -3.49079 -4.40568 0
M  V30 5393 H 487.447 -1.94818 -0.846148 0
M  V30 5394 H 489.71 -0.842727 -0.434184 0
M  V30 5395 H 489.416 -2.81097 -2.1137 0
M  V30 5396 H 489.29 -1.62727 -3.40294 0
M  V30 5397 H 491.677 -0.812836 -2.83685 0
M  V30 5398 H 491.758 -2.03057 -1.55568 0
M  V30 5399 H 491.402 -3.85918 -3.30197 0
M  V30 5400 H 491.332 -2.61224 -4.57241 0
M  V30 5401 H 493.823 -2.21431 -3.0623 0
M  V30 5402 H 494.136 -5.02007 -5.87545 0
M  V30 5403 H 492.481 -4.5094 -5.28846 0
M  V30 5404 H 495.672 -2.81066 -3.74325 0
M  V30 5405 H 495.845 -4.08994 -5.02621 0
M  V30 5406 N 489.251 1.34841 -0.815825 0
M  V30 5407 C 490.181 2.32187 -0.247298 0
M  V30 5408 C 491.162 1.5791 0.632344 0
M  V30 5409 O 492.347 1.8593 0.560698 0
M  V30 5410 C 489.477 3.42122 0.597466 0
M  V30 5411 C 488.431 4.27602 -0.184446 0
M  V30 5412 C 487.757 5.28942 0.782609 0
M  V30 5413 C 489.057 5.03502 -1.38865 0
M  V30 5414 H 490.751 2.79985 -1.06061 0
M  V30 5415 H 488.297 1.34611 -0.511461 0
M  V30 5416 H 490.25 4.09232 1.00533 0
M  V30 5417 H 488.974 2.92956 1.44376 0
M  V30 5418 H 487.633 3.62085 -0.573592 0
M  V30 5419 H 487.281 4.7604 1.62466 0
M  V30 5420 H 486.981 5.87008 0.263695 0
M  V30 5421 H 488.505 5.98922 1.18848 0
M  V30 5422 H 489.919 5.63506 -1.05518 0
M  V30 5423 H 488.316 5.71108 -1.8427 0
M  V30 5424 H 489.386 4.33608 -2.17054 0
M  V30 5425 N 490.729 0.570148 1.46925 0
M  V30 5426 C 492.145 0.23087 1.57921 0
M  V30 5427 C 492.345 -1.26676 1.56702 0
M  V30 5428 O 491.401 -2.04774 1.47729 0
M  V30 5429 C 492.714 0.868973 2.8787 0
M  V30 5430 C 494.262 0.841397 3.01479 0
M  V30 5431 C 494.737 1.45881 4.34146 0
M  V30 5432 N 496.228 1.42258 4.40814 0
M  V30 5433 C 496.963 1.8698 5.42057 0
M  V30 5434 N 496.459 2.39618 6.50042 0
M  V30 5435 N 498.252 1.77972 5.33181 0
M  V30 5436 H 490.403 1.54301 1.45962 0
M  V30 5437 H 492.666 0.644224 0.69547 0
M  V30 5438 H 492.372 1.922 2.94537 0
M  V30 5439 H 492.246 0.369682 3.75384 0
M  V30 5440 H 494.633 -0.202973 2.94401 0
M  V30 5441 H 494.714 1.37858 2.15474 0
M  V30 5442 H 494.358 2.50231 4.4198 0
M  V30 5443 H 494.288 0.896958 5.18905 0
M  V30 5444 H 496.779 1.03768 3.63374 0
M  V30 5445 H 497.092 2.71633 7.23488 0
M  V30 5446 H 495.437 2.43636 6.50897 0
M  V30 5447 H 498.628 1.36617 4.4772 0
M  V30 5448 H 498.801 2.13143 6.11943 0
M  V30 5449 N 492.207 -1.54576 0.307264 0
M  V30 5450 C 493.137 -2.26708 -0.55907 0
M  V30 5451 C 494.118 -1.26893 -1.1328 0
M  V30 5452 O 495.303 -1.55677 -1.16097 0
M  V30 5453 C 492.433 -3.01259 -1.72801 0
M  V30 5454 C 491.387 -4.08275 -1.28435 0
M  V30 5455 C 490.713 -4.70575 -2.53895 0
M  V30 5456 C 492.013 -5.2068 -0.411038 0
M  V30 5457 H 493.707 -2.9937 0.042576 0
M  V30 5458 H 491.253 -1.43983 0.0219173 0
M  V30 5459 H 493.206 -3.50444 -2.34023 0
M  V30 5460 H 491.93 -2.26187 -2.356 0
M  V30 5461 H 490.589 -3.59949 -0.695161 0
M  V30 5462 H 490.237 -3.92136 -3.15021 0
M  V30 5463 H 489.937 -5.42854 -2.24908 0
M  V30 5464 H 491.461 -5.22527 -3.15908 0
M  V30 5465 H 492.875 -5.65721 -0.929097 0
M  V30 5466 H 491.272 -5.99716 -0.214664 0
M  V30 5467 H 492.342 -4.81629 0.562287 0
M  V30 5468 N 493.685 -0.035106 -1.57561 0
M  V30 5469 C 494.91 0.655802 -1.96759 0
M  V30 5470 C 495.335 1.64523 -0.911809 0
M  V30 5471 O 494.693 1.80857 0.126673 0
M  V30 5472 C 494.741 1.33326 -3.35047 0
M  V30 5473 O 493.845 2.44866 -3.31835 0
M  V30 5474 H 493.186 0.171807 -0.641388 0
M  V30 5475 H 495.716 -0.0987369 -2.04362 0
M  V30 5476 H 495.726 1.68867 -3.71413 0
M  V30 5477 H 494.401 0.608033 -4.11431 0
M  V30 5478 H 492.978 2.11392 -3.07193 0
M  V30 5479 N 495.163 1.55791 0.238111 0
M  V30 5480 C 496.388 1.8244 0.986432 0
M  V30 5481 C 496.813 0.613314 1.7782 0
M  V30 5482 O 496.171 -0.437767 1.75935 0
M  V30 5483 C 496.219 3.06917 1.893 0
M  V30 5484 O 495.323 2.84449 2.98601 0
M  V30 5485 H 494.664 0.601975 0.280218 0
M  V30 5486 H 497.194 2.02987 0.256437 0
M  V30 5487 H 497.204 3.36583 2.30598 0
M  V30 5488 H 495.879 3.947 1.31091 0
M  V30 5489 H 494.456 2.65972 2.61368 0
M  V30 5490 N 496.642 -0.504142 1.49319 0
M  V30 5491 C 497.889 -1.25846 1.58647 0
M  V30 5492 C 498.217 -1.92592 0.27177 0
M  V30 5493 O 497.472 -1.81167 -0.74007 0
M  V30 5494 C 497.771 -2.35021 2.69258 0
M  V30 5495 C 497.437 -1.85755 4.1086 0
M  V30 5496 C 496.099 -1.72038 4.49395 0
M  V30 5497 C 498.451 -1.48844 4.99495 0
M  V30 5498 C 495.779 -1.19783 5.74342 0
M  V30 5499 C 498.131 -0.980422 6.24956 0
M  V30 5500 C 496.795 -0.829622 6.62324 0
M  V30 5501 H 496.065 -0.460505 0.580531 0
M  V30 5502 H 498.712 -0.559716 1.83138 0
M  V30 5503 H 497.017 -3.10672 2.38726 0
M  V30 5504 H 498.714 -2.93083 2.73685 0
M  V30 5505 H 495.304 -1.9739 3.80441 0
M  V30 5506 H 499.488 -1.5829 4.70381 0
M  V30 5507 H 494.744 -1.06817 6.01997 0
M  V30 5508 H 498.918 -0.685608 6.93017 0
M  V30 5509 H 496.545 -0.42253 7.59025 0
M  V30 5510 N 498.12 -1.38341 -0.754957 0
M  V30 5511 C 499.345 -1.37882 -1.5493 0
M  V30 5512 C 499.77 0.0296385 -1.88077 0
M  V30 5513 O 499.128 1.01133 -1.50472 0
M  V30 5514 C 499.176 -2.23996 -2.82592 0
M  V30 5515 O 498.28 -1.65612 -3.77686 0
M  V30 5516 H 497.621 -0.470384 -0.468652 0
M  V30 5517 H 500.151 -1.82084 -0.933082 0
M  V30 5518 H 500.161 -2.37806 -3.3153 0
M  V30 5519 H 498.836 -3.26365 -2.57796 0
M  V30 5520 H 497.413 -1.60936 -3.36384 0
M  V30 5521 N 499.598 0.982988 -1.23187 0
M  V30 5522 C 500.838 1.73903 -1.07412 0
M  V30 5523 C 501.202 1.88146 0.382764 0
M  V30 5524 O 502.403 2.6053 0.661638 0
M  V30 5525 C 500.674 3.10105 -1.77678 0
M  V30 5526 S 502.233 4.01323 -1.77441 0
M  V30 5527 H 499.051 0.598093 -0.384456 0
M  V30 5528 H 501.653 1.17456 -1.56283 0
M  V30 5529 H 500.357 2.97388 -2.82822 0
M  V30 5530 H 499.888 3.71622 -1.29077 0
M  V30 5531 H 501.903 4.89189 -0.831162 0
M  V30 5532 N 501.076 1.04316 1.18135 0
M  V30 5533 C 502.324 0.746542 1.87806 0
M  V30 5534 C 502.645 -0.728082 1.80898 0
M  V30 5535 O 501.915 -1.52554 1.22899 0
M  V30 5536 H 500.495 0.273157 0.695265 0
M  V30 5537 H 503.157 1.32044 1.43354 0
M  V30 5538 H 502.253 1.05362 2.93778 0
M  V30 5539 N 502.554 -1.34406 0.822964 0
M  V30 5540 C 503.486 -2.28305 0.202375 0
M  V30 5541 C 504.499 -1.5103 -0.60777 0
M  V30 5542 O 505.688 -1.73057 -0.437444 0
M  V30 5543 C 502.788 -3.30836 -0.734911 0
M  V30 5544 C 501.961 -4.37388 0.0324177 0
M  V30 5545 C 501.02 -5.1968 -0.825803 0
M  V30 5546 O 500.046 -5.68556 -0.270771 0
M  V30 5547 N 501.248 -5.39393 -2.14558 0
M  V30 5548 H 504.013 -2.82201 1.00909 0
M  V30 5549 H 501.574 -1.4693 0.67993 0
M  V30 5550 H 503.566 -3.82786 -1.31365 0
M  V30 5551 H 502.136 -2.77334 -1.44238 0
M  V30 5552 H 501.356 -3.86152 0.792469 0
M  V30 5553 H 502.644 -5.05702 0.560633 0
M  V30 5554 H 502.042 -5.01357 -2.62025 0
M  V30 5555 H 500.599 -5.94461 -2.67318 0
M  V30 5556 N 504.032 -0.577932 -1.46621 0
M  V30 5557 C 504.995 0.147805 -2.28723 0
M  V30 5558 C 505.995 0.823325 -1.38123 0
M  V30 5559 O 507.185 0.676011 -1.60548 0
M  V30 5560 C 504.317 1.21853 -3.18378 0
M  V30 5561 H 505.51 -0.573654 -2.94362 0
M  V30 5562 H 503.063 -0.335703 -1.52652 0
M  V30 5563 H 503.798 1.97173 -2.57475 0
M  V30 5564 H 503.583 0.738714 -3.85078 0
M  V30 5565 H 505.073 1.72768 -3.80186 0
M  V30 5566 N 505.51 1.54411 -0.315457 0
M  V30 5567 C 506.735 2.05299 0.294496 0
M  V30 5568 C 507.16 1.19052 1.4563 0
M  V30 5569 O 506.518 0.197804 1.80218 0
M  V30 5570 C 506.566 3.5345 0.714549 0
M  V30 5571 O 505.67 3.70175 1.81781 0
M  V30 5572 H 505.011 0.661743 0.0547019 0
M  V30 5573 H 507.541 1.99327 -0.461508 0
M  V30 5574 H 507.551 3.9557 0.999426 0
M  V30 5575 H 506.226 4.1568 -0.135244 0
M  V30 5576 H 504.803 3.3996 1.53236 0
M  V30 5577 N 506.988 0.0434614 1.5754 0
M  V30 5578 C 507.951 -0.918696 2.09982 0
M  V30 5579 C 508.951 -1.24488 1.01781 0
M  V30 5580 O 510.141 -1.18284 1.27885 0
M  V30 5581 C 507.273 -2.23093 2.57764 0
M  V30 5582 H 508.466 -0.464229 2.96285 0
M  V30 5583 H 506.019 -0.204818 1.54952 0
M  V30 5584 H 506.754 -2.73137 1.74832 0
M  V30 5585 H 506.539 -2.00724 3.36827 0
M  V30 5586 H 508.029 -2.92028 2.98512 0
M  V30 5587 N 508.466 -1.55915 -0.229846 0
M  V30 5588 C 509.694 -1.82617 -0.972562 0
M  V30 5589 C 510.109 -0.621488 -1.78278 0
M  V30 5590 O 509.466 0.409956 -1.77836 0
M  V30 5591 C 509.517 -3.0774 -1.89679 0
M  V30 5592 O 509.238 -4.23559 -1.11934 0
M  V30 5593 C 510.739 -3.47368 -2.75409 0
M  V30 5594 H 507.959 -0.60727 -0.285419 0
M  V30 5595 H 510.503 -2.02996 -0.247579 0
M  V30 5596 H 508.658 -2.89361 -2.57583 0
M  V30 5597 H 509.072 -4.94586 -1.74599 0
M  V30 5598 H 510.546 -4.37977 -3.35977 0
M  V30 5599 H 511.023 -2.68737 -3.47386 0
M  V30 5600 H 511.629 -3.68158 -2.12931 0
M  V30 5601 N 509.944 0.496216 -1.49584 0
M  V30 5602 C 511.355 1.07765 -1.52459 0
M  V30 5603 C 511.706 1.93679 -0.31353 0
M  V30 5604 O 510.831 2.08588 0.576186 0
M  V30 5605 C 511.426 1.96111 -2.76271 0
M  V30 5606 C 509.985 2.49409 -2.81908 0
M  V30 5607 C 509.132 1.27142 -2.46435 0
M  V30 5608 H 512.083 0.279914 -1.56212 0
M  V30 5609 H 512.104 2.80862 -2.56704 0
M  V30 5610 H 511.616 1.33555 -3.64396 0
M  V30 5611 H 509.717 3.1559 -1.98074 0
M  V30 5612 H 509.83 2.86234 -3.84196 0
M  V30 5613 H 508.194 1.59818 -1.98319 0
M  V30 5614 H 508.977 0.662866 -3.3684 0
M  V30 5615 N 511.423 1.38739 0.74761 0
M  V30 5616 C 512.67 1.35274 1.50689 0
M  V30 5617 C 512.998 -0.0553359 1.94421 0
M  V30 5618 O 512.253 -1.03365 1.66175 0
M  V30 5619 C 512.552 2.25992 2.7688 0
M  V30 5620 C 512.218 3.73854 2.5208 0
M  V30 5621 C 510.88 4.14145 2.45025 0
M  V30 5622 C 513.232 4.67427 2.30568 0
M  V30 5623 C 510.56 5.4609 2.14483 0
M  V30 5624 C 512.912 5.99635 2.01545 0
M  V30 5625 C 511.576 6.39004 1.92951 0
M  V30 5626 H 510.846 0.495003 0.55141 0
M  V30 5627 H 513.493 1.71145 0.859158 0
M  V30 5628 H 511.798 1.83196 3.46333 0
M  V30 5629 H 513.495 2.20611 3.34861 0
M  V30 5630 H 510.085 3.41913 2.58444 0
M  V30 5631 H 514.269 4.3714 2.34994 0
M  V30 5632 H 509.525 5.75528 2.06342 0
M  V30 5633 H 513.699 6.71678 1.83906 0
M  V30 5634 H 511.326 7.41165 1.6905 0
M  V30 5635 N 512.901 -0.976442 1.23707 0
M  V30 5636 C 514.129 -1.75341 1.09833 0
M  V30 5637 C 514.544 -1.8553 -0.349885 0
M  V30 5638 O 513.901 -1.33732 -1.24185 0
M  V30 5639 C 513.952 -3.17833 1.72233 0
M  V30 5640 O 513.673 -3.08167 3.11391 0
M  V30 5641 C 515.174 -4.11906 1.63853 0
M  V30 5642 H 512.394 -0.550137 0.384175 0
M  V30 5643 H 514.938 -1.2265 1.63638 0
M  V30 5644 H 513.093 -3.67538 1.22452 0
M  V30 5645 H 513.507 -3.97897 3.41729 0
M  V30 5646 H 514.981 -5.09579 2.12211 0
M  V30 5647 H 515.458 -4.35109 0.598092 0
M  V30 5648 H 516.064 -3.68107 2.13019 0
M  V30 5649 N 514.379 -1.04941 -1.1758 0
M  V30 5650 C 515.656 -0.671918 -1.83697 0
M  V30 5651 C 516.036 0.847929 -1.93322 0
M  V30 5652 O 515.384 1.75287 -1.46583 0
M  V30 5653 C 515.594 -1.35797 -3.21497 0
M  V30 5654 C 516.942 -1.4944 -3.97433 0
M  V30 5655 O 517.966 -1.31678 -3.30967 0
M  V30 5656 O 516.825 -1.78463 -5.1654 0
M  V30 5657 H 513.919 -0.236212 -0.792548 0
M  V30 5658 H 516.465 -1.14884 -1.24899 0
M  V30 5659 H 515.237 -2.39498 -3.09446 0
M  V30 5660 H 514.86 -0.870236 -3.8796 0
M  V30 5661 N 515.857 1.33968 -0.830081 0
M  V30 5662 C 517.106 1.97323 -0.417928 0
M  V30 5663 C 517.419 1.6652 1.02618 0
M  V30 5664 O 518.625 2.2342 1.54259 0
M  V30 5665 C 517.081 3.53099 -0.696359 0
M  V30 5666 C 516.689 3.92788 -2.15457 0
M  V30 5667 C 518.433 4.23049 -0.350724 0
M  V30 5668 C 516.34 5.41506 -2.37751 0
M  V30 5669 H 515.27 0.738409 -0.152541 0
M  V30 5670 H 517.921 1.52711 -1.01744 0
M  V30 5671 H 516.303 3.95991 -0.0265904 0
M  V30 5672 H 517.477 3.6098 -2.86408 0
M  V30 5673 H 515.792 3.35795 -2.46232 0
M  V30 5674 H 518.389 5.32403 -0.495036 0
M  V30 5675 H 518.732 4.10279 0.705476 0
M  V30 5676 H 519.265 3.85657 -0.975362 0
M  V30 5677 H 516.004 5.5927 -3.41903 0
M  V30 5678 H 515.524 5.74804 -1.7135 0
M  V30 5679 H 517.203 6.0828 -2.20465 0
M  V30 5680 N 517.335 0.585699 1.46312 0
M  V30 5681 C 518.282 -0.145835 2.30339 0
M  V30 5682 C 519.252 -0.881215 1.40797 0
M  V30 5683 O 520.437 -0.871293 1.69744 0
M  V30 5684 C 517.577 -1.15161 3.25318 0
M  V30 5685 C 516.69 -0.419367 4.2996 0
M  V30 5686 C 515.825 -1.41293 5.12064 0
M  V30 5687 C 514.864 -0.667261 6.08452 0
M  V30 5688 N 514.001 -1.60903 6.83414 0
M  V30 5689 H 518.841 0.576755 2.92365 0
M  V30 5690 H 516.378 0.296237 1.44086 0
M  V30 5691 H 518.336 -1.74763 3.78832 0
M  V30 5692 H 516.966 -1.84188 2.65094 0
M  V30 5693 H 516.018 0.291751 3.7928 0
M  V30 5694 H 517.33 0.163433 4.98532 0
M  V30 5695 H 516.484 -2.08167 5.6987 0
M  V30 5696 H 515.223 -2.02966 4.43459 0
M  V30 5697 H 514.228 0.0152356 5.49798 0
M  V30 5698 H 515.453 -0.0558817 6.79077 0
M  V30 5699 H 513.399 -2.21381 6.17516 0
M  V30 5700 H 513.316 -1.07911 7.48259 0
M  V30 5701 H 514.584 -2.26802 7.45775 0
M  V30 5702 N 518.813 -1.54241 0.323641 0
M  V30 5703 C 520.038 -2.05452 -0.283605 0
M  V30 5704 C 520.463 -1.19823 -1.44997 0
M  V30 5705 O 519.821 -0.207358 -1.8011 0
M  V30 5706 C 519.869 -3.53823 -0.695795 0
M  V30 5707 O 518.973 -3.71134 -1.79815 0
M  V30 5708 H 518.314 -0.662024 -0.0511917 0
M  V30 5709 H 520.844 -1.99079 0.472073 0
M  V30 5710 H 520.854 -3.96094 -0.978434 0
M  V30 5711 H 519.529 -4.15602 0.157287 0
M  V30 5712 H 518.106 -3.40768 -1.51431 0
M  V30 5713 N 520.291 -0.0518155 -1.57515 0
M  V30 5714 C 521.239 0.940195 -2.12751 0
M  V30 5715 C 522.233 1.3218 -1.05948 0
M  V30 5716 O 523.439 1.30138 -1.24355 0
M  V30 5717 H 519.814 0.321066 -0.680015 0
M  V30 5718 H 521.785 0.449217 -2.94999 0
M  V30 5719 C 520.534 2.2055 -2.68799 0
M  V30 5720 H 519.857 1.92066 -3.50643 0
M  V30 5721 H 521.297 2.88119 -3.11068 0
M  V30 5722 C 519.756 2.95061 -1.62605 0
M  V30 5723 O 520.286 3.88025 -1.03921 0
M  V30 5724 N 518.492 2.57804 -1.34111 0
M  V30 5725 H 518.039 1.82281 -1.8202 0
M  V30 5726 H 517.997 3.07964 -0.632872 0
M  V30 5727 N 521.769 1.56035 0.221574 0
M  V30 5728 C 522.717 1.93269 1.29421 0
M  V30 5729 C 523.711 0.814727 1.48521 0
M  V30 5730 O 524.917 0.999559 1.49696 0
M  V30 5731 H 521.292 0.614188 0.43391 0
M  V30 5732 H 523.263 2.82773 0.952987 0
M  V30 5733 C 522.012 2.26573 2.63742 0
M  V30 5734 H 521.335 3.12112 2.49853 0
M  V30 5735 H 522.775 2.5651 3.37607 0
M  V30 5736 C 521.234 1.09086 3.1875 0
M  V30 5737 O 521.764 0.351985 4.00155 0
M  V30 5738 N 519.97 0.874693 2.77124 0
M  V30 5739 H 519.517 1.47726 2.11033 0
M  V30 5740 H 519.475 0.0903349 3.1427 0
M  V30 5741 N 523.247 -0.488276 1.49845 0
M  V30 5742 C 524.493 -1.24065 1.61182 0
M  V30 5743 C 524.848 -1.9004 0.300435 0
M  V30 5744 O 524.141 -1.78341 -0.700365 0
M  V30 5745 C 524.335 -2.32152 2.71735 0
M  V30 5746 C 524.164 -1.76778 4.13497 0
M  V30 5747 C 522.934 -1.57513 4.80123 0
M  V30 5748 C 525.132 -1.27242 4.98311 0
M  V30 5749 N 523.114 -0.972015 6.06156 0
M  V30 5750 C 524.485 -0.791457 6.14928 0
M  V30 5751 C 526.54 -1.15934 4.84214 0
M  V30 5752 C 525.243 -0.208593 7.18997 0
M  V30 5753 C 527.269 -0.590436 5.88445 0
M  V30 5754 C 526.631 -0.119767 7.04298 0
M  V30 5755 H 522.73 -0.443487 0.644083 0
M  V30 5756 H 525.314 -0.545551 1.86901 0
M  V30 5757 H 523.485 -2.99108 2.47768 0
M  V30 5758 H 525.217 -2.99187 2.72523 0
M  V30 5759 H 521.972 -1.82247 4.37131 0
M  V30 5760 H 522.396 -0.689367 6.73481 0
M  V30 5761 H 527.038 -1.5092 3.94947 0
M  V30 5762 H 524.756 0.153501 8.07954 0
M  V30 5763 H 528.342 -0.505548 5.79599 0
M  V30 5764 H 527.222 0.313568 7.83573 0
M  V30 5765 N 524.725 -1.39134 -0.740242 0
M  V30 5766 C 525.95 -1.39518 -1.53459 0
M  V30 5767 C 526.375 0.00968883 -1.88098 0
M  V30 5768 O 525.733 0.995312 -1.51536 0
M  V30 5769 C 525.781 -2.26981 -2.802 0
M  V30 5770 O 524.885 -1.69609 -3.75908 0
M  V30 5771 H 524.226 -0.475328 -0.463637 0
M  V30 5772 H 526.756 -1.83064 -0.913717 0
M  V30 5773 H 526.766 -2.41309 -3.28989 0
M  V30 5774 H 525.441 -3.29081 -2.5432 0
M  V30 5775 H 524.018 -1.64495 -3.34658 0
M  V30 5776 N 526.204 0.969867 -1.24223 0
M  V30 5777 C 527.134 2.08191 -1.05729 0
M  V30 5778 C 528.115 1.70075 0.0290765 0
M  V30 5779 O 529.3 1.93712 -0.137583 0
M  V30 5780 C 526.43 3.40991 -0.658995 0
M  V30 5781 C 525.384 3.93054 -1.69389 0
M  V30 5782 C 524.71 5.22171 -1.15072 0
M  V30 5783 C 526.01 4.21137 -3.08935 0
M  V30 5784 H 527.704 2.23921 -1.98746 0
M  V30 5785 H 525.25 1.07602 -0.956967 0
M  V30 5786 H 527.203 4.18221 -0.51662 0
M  V30 5787 H 525.927 3.25155 0.30686 0
M  V30 5788 H 524.586 3.17977 -1.82444 0
M  V30 5789 H 524.234 5.02694 -0.175539 0
M  V30 5790 H 523.934 5.57973 -1.84229 0
M  V30 5791 H 525.458 6.02013 -1.02042 0
M  V30 5792 H 526.872 4.8908 -2.99121 0
M  V30 5793 H 525.269 4.68163 -3.75425 0
M  V30 5794 H 526.339 3.27996 -3.57137 0
M  V30 5795 N 527.682 1.05563 1.17022 0
M  V30 5796 C 528.592 0.670758 2.24807 0
M  V30 5797 C 529.608 -0.309865 1.71219 0
M  V30 5798 O 530.784 -0.161025 2.00755 0
M  V30 5799 C 527.849 0.055337 3.46656 0
M  V30 5800 C 526.91 1.08688 4.15314 0
M  V30 5801 C 526.143 0.500736 5.31346 0
M  V30 5802 O 526.366 -0.688718 5.66227 0
M  V30 5803 O 525.3 1.23683 5.89055 0
M  V30 5804 H 529.126 1.56914 2.60023 0
M  V30 5805 H 526.711 0.827428 1.24395 0
M  V30 5806 H 528.593 -0.286492 4.20425 0
M  V30 5807 H 527.268 -0.816638 3.13229 0
M  V30 5808 H 526.175 1.48077 3.43546 0
M  V30 5809 H 527.508 1.93014 4.52777 0
M  V30 5810 N 529.16 -1.33526 0.837174 0
M  V30 5811 C 530.437 -1.92369 0.354065 0
M  V30 5812 C 530.817 -1.76348 -1.16038 0
M  V30 5813 O 530.165 -1.15083 -1.97403 0
M  V30 5814 C 530.375 -3.39728 0.799101 0
M  V30 5815 C 531.723 -4.16877 0.806139 0
M  V30 5816 O 532.747 -3.48373 0.742597 0
M  V30 5817 O 531.606 -5.39166 0.892345 0
M  V30 5818 H 528.7 -0.820952 0.0998378 0
M  V30 5819 H 531.246 -1.42409 0.922913 0
M  V30 5820 H 530.018 -3.45254 1.84162 0
M  V30 5821 H 529.641 -3.97062 0.206731 0
M  V30 5822 N 530.638 -0.59345 -1.46 0
M  V30 5823 C 531.884 -0.0832754 -2.02629 0
M  V30 5824 C 532.217 1.27749 -1.46266 0
M  V30 5825 O 531.492 1.8395 -0.631866 0
M  V30 5826 C 531.775 -0.0290756 -3.60088 0
M  V30 5827 C 531.628 -1.41951 -4.26814 0
M  V30 5828 C 532.947 0.666055 -4.35031 0
M  V30 5829 H 530.066 -0.031736 -0.736316 0
M  V30 5830 H 532.708 -0.762711 -1.74019 0
M  V30 5831 H 530.858 0.549532 -3.84594 0
M  V30 5832 H 532.53 -2.04411 -4.13538 0
M  V30 5833 H 530.773 -1.98422 -3.8576 0
M  V30 5834 H 531.444 -1.33395 -5.3564 0
M  V30 5835 H 533.92 0.174401 -4.15734 0
M  V30 5836 H 532.796 0.673041 -5.44758 0
M  V30 5837 H 533.057 1.72946 -4.06869 0
M  V30 5838 N 532.116 1.54067 -0.331816 0
M  V30 5839 C 533.344 2.05131 0.269996 0
M  V30 5840 C 533.759 1.20749 1.45138 0
M  V30 5841 O 533.116 0.240069 1.80914 0
M  V30 5842 C 533.167 3.54728 0.696456 0
M  V30 5843 O 532.888 4.35906 -0.43794 0
M  V30 5844 C 534.389 4.21916 1.36021 0
M  V30 5845 H 531.609 0.668807 0.0542042 0
M  V30 5846 H 534.153 1.98777 -0.4804 0
M  V30 5847 H 532.308 3.61342 1.39681 0
M  V30 5848 H 532.722 5.24404 -0.100334 0
M  V30 5849 H 534.196 5.28015 1.60947 0
M  V30 5850 H 534.673 3.73538 2.31011 0
M  V30 5851 H 535.279 4.19463 0.702212 0
M  V30 5852 N 533.594 0.0601682 1.57485 0
M  V30 5853 C 534.557 -0.896373 2.10945 0
M  V30 5854 C 535.557 -1.23402 1.03095 0
M  V30 5855 O 536.747 -1.16921 1.29132 0
M  V30 5856 C 533.879 -2.20346 2.60116 0
M  V30 5857 H 535.072 -0.432778 2.96761 0
M  V30 5858 H 532.625 -0.188372 1.55161 0
M  V30 5859 H 533.36 -2.71268 1.7772 0
M  V30 5860 H 533.145 -1.9714 3.38937 0
M  V30 5861 H 534.635 -2.88846 3.01592 0
M  V30 5862 N 535.072 -1.5615 -0.213296 0
M  V30 5863 C 536.297 -1.83986 -0.957282 0
M  V30 5864 C 536.722 -0.641526 -1.76822 0
M  V30 5865 O 536.08 0.409722 -1.7661 0
M  V30 5866 C 536.128 -3.09889 -1.84393 0
M  V30 5867 O 535.232 -2.89163 -2.94038 0
M  V30 5868 H 534.573 -0.606357 -0.270605 0
M  V30 5869 H 537.103 -2.03369 -0.224111 0
M  V30 5870 H 537.113 -3.40209 -2.25215 0
M  V30 5871 H 535.788 -3.96735 -1.24795 0
M  V30 5872 H 534.365 -2.70097 -2.57103 0
M  V30 5873 N 536.55 0.480323 -1.50102 0
M  V30 5874 C 537.827 1.24159 -1.51142 0
M  V30 5875 C 538.207 2.09605 -0.250818 0
M  V30 5876 O 537.555 2.15274 0.766118 0
M  V30 5877 C 537.765 2.08057 -2.80202 0
M  V30 5878 C 539.113 2.66556 -3.30504 0
M  V30 5879 O 540.137 2.18308 -2.81461 0
M  V30 5880 O 538.996 3.54442 -4.15973 0
M  V30 5881 H 536.09 0.562928 -0.605839 0
M  V30 5882 H 538.636 0.492899 -1.62384 0
M  V30 5883 H 537.408 1.45032 -3.6343 0
M  V30 5884 H 537.031 2.90079 -2.71919 0
M  V30 5885 N 538.028 1.39524 0.732853 0
M  V30 5886 C 538.975 1.38416 1.84688 0
M  V30 5887 C 539.945 0.243539 1.64305 0
M  V30 5888 O 541.13 0.438979 1.85681 0
M  V30 5889 C 538.27 1.23555 3.22224 0
M  V30 5890 C 537.383 2.47179 3.54298 0
M  V30 5891 C 536.518 2.2489 4.81246 0
M  V30 5892 C 535.557 3.44178 5.0617 0
M  V30 5893 N 534.694 3.21192 6.24323 0
M  V30 5894 H 539.534 2.33645 1.84971 0
M  V30 5895 H 537.071 1.16059 0.903804 0
M  V30 5896 H 539.029 1.12949 4.0162 0
M  V30 5897 H 537.659 0.31954 3.21215 0
M  V30 5898 H 536.711 2.68379 2.69587 0
M  V30 5899 H 538.023 3.36022 3.68633 0
M  V30 5900 H 537.177 2.11538 5.68627 0
M  V30 5901 H 535.916 1.33443 4.69089 0
M  V30 5902 H 534.921 3.58025 4.17251 0
M  V30 5903 H 536.146 4.36528 5.20212 0
M  V30 5904 H 534.092 2.32413 6.1345 0
M  V30 5905 H 534.009 4.03594 6.39256 0
M  V30 5906 H 535.277 3.1154 7.14537 0
M  V30 5907 N 539.506 -0.963266 1.24736 0
M  V30 5908 C 540.454 -2.07985 1.04139 0
M  V30 5909 C 541.448 -1.69381 -0.0250556 0
M  V30 5910 O 542.654 -1.79531 0.129863 0
M  V30 5911 H 539.029 -0.680627 0.319768 0
M  V30 5912 H 541 -2.22517 1.98818 0
M  V30 5913 C 539.749 -3.4123 0.667615 0
M  V30 5914 H 539.072 -3.71397 1.48 0
M  V30 5915 H 540.512 -4.20244 0.563136 0
M  V30 5916 C 538.971 -3.3104 -0.625647 0
M  V30 5917 O 539.501 -3.65334 -1.67016 0
M  V30 5918 N 537.707 -2.84168 -0.608033 0
M  V30 5919 H 537.254 -2.56458 0.242323 0
M  V30 5920 H 537.212 -2.77732 -1.47352 0
M  V30 5921 N 540.985 -1.06182 -1.16461 0
M  V30 5922 C 542.215 -0.797425 -1.9059 0
M  V30 5923 C 542.623 0.651845 -1.77616 0
M  V30 5924 O 541.966 1.45788 -1.11766 0
M  V30 5925 C 542.028 -1.11128 -3.41893 0
M  V30 5926 C 541.692 -2.55874 -3.78652 0
M  V30 5927 C 542.689 -3.54104 -3.80665 0
M  V30 5928 C 540.374 -2.91144 -4.09317 0
M  V30 5929 C 542.368 -4.85645 -4.12829 0
M  V30 5930 C 540.055 -4.22885 -4.41148 0
M  V30 5931 C 541.053 -5.19945 -4.42883 0
M  V30 5932 O 540.741 -6.49322 -4.73959 0
M  V30 5933 H 540.473 -0.288709 -0.611247 0
M  V30 5934 H 543.027 -1.41841 -1.4856 0
M  V30 5935 H 541.257 -0.433217 -3.84266 0
M  V30 5936 H 542.946 -0.831306 -3.97296 0
M  V30 5937 H 543.712 -3.28197 -3.57088 0
M  V30 5938 H 539.591 -2.16252 -4.07131 0
M  V30 5939 H 543.135 -5.61398 -4.14099 0
M  V30 5940 H 539.032 -4.48551 -4.6419 0
M  V30 5941 H 539.8 -6.54294 -4.91774 0
M  V30 5942 N 542.463 1.3308 -0.844243 0
M  V30 5943 C 543.709 1.97898 -0.443206 0
M  V30 5944 C 544.042 1.66699 0.99625 0
M  V30 5945 O 543.317 0.949704 1.69738 0
M  V30 5946 C 543.6 3.53801 -0.670606 0
M  V30 5947 C 543.453 3.94667 -2.15772 0
M  V30 5948 C 544.772 4.39936 -0.120226 0
M  V30 5949 H 541.891 0.718861 -0.162504 0
M  V30 5950 H 544.533 1.57633 -1.06075 0
M  V30 5951 H 542.683 3.88229 -0.14496 0
M  V30 5952 H 544.355 3.70469 -2.74865 0
M  V30 5953 H 542.598 3.44203 -2.6402 0
M  V30 5954 H 543.269 5.03275 -2.26757 0
M  V30 5955 H 545.745 4.12183 -0.5696 0
M  V30 5956 H 544.621 5.4803 -0.308984 0
M  V30 5957 H 544.882 4.31184 0.976347 0
M  V30 5958 N 543.941 0.601185 1.45683 0
M  V30 5959 C 544.904 -0.111398 2.28929 0
M  V30 5960 C 545.904 -0.801246 1.39416 0
M  V30 5961 O 547.094 -0.650383 1.61603 0
M  V30 5962 C 544.226 -1.16773 3.20276 0
M  V30 5963 H 545.419 0.620412 2.93413 0
M  V30 5964 H 542.972 0.359946 1.52099 0
M  V30 5965 H 543.707 -1.93051 2.60579 0
M  V30 5966 H 543.492 -0.677358 3.86205 0
M  V30 5967 H 544.982 -1.66698 3.82886 0
M  V30 5968 N 545.419 -1.53889 0.339982 0
M  V30 5969 C 546.667 -2.00458 -0.257112 0
M  V30 5970 C 546.988 -1.22953 -1.51353 0
M  V30 5971 O 546.258 -0.335734 -1.93002 0
M  V30 5972 H 544.838 -0.740544 -0.0979965 0
M  V30 5973 H 547.5 -1.89386 0.460317 0
M  V30 5974 H 546.596 -3.08035 -0.502057 0
M  V30 5975 N 546.897 -0.0685191 -1.57451 0
M  V30 5976 C 547.827 0.89747 -2.15564 0
M  V30 5977 C 548.808 1.31266 -1.08181 0
M  V30 5978 O 549.993 1.38429 -1.36202 0
M  V30 5979 C 547.123 2.16623 -2.71463 0
M  V30 5980 C 546.077 1.89054 -3.83982 0
M  V30 5981 C 545.403 3.22532 -4.26471 0
M  V30 5982 C 546.703 1.1984 -5.08366 0
M  V30 5983 H 548.397 0.413373 -2.96533 0
M  V30 5984 H 545.943 0.197391 -1.42641 0
M  V30 5985 H 547.896 2.84614 -3.10761 0
M  V30 5986 H 546.62 2.67269 -1.8771 0
M  V30 5987 H 545.279 1.23469 -3.45183 0
M  V30 5988 H 544.927 3.71013 -3.39644 0
M  V30 5989 H 544.627 3.04879 -5.02317 0
M  V30 5990 H 546.151 3.91727 -4.68383 0
M  V30 5991 H 547.565 1.77896 -5.45001 0
M  V30 5992 H 545.962 1.12456 -5.89469 0
M  V30 5993 H 547.032 0.176996 -4.84577 0
M  V30 5994 N 548.375 1.56261 0.205012 0
M  V30 5995 C 549.624 1.79236 0.925058 0
M  V30 5996 C 549.937 0.640011 1.84833 0
M  V30 5997 O 551.143 0.753809 2.60826 0
M  V30 5998 C 549.599 3.17475 1.69522 0
M  V30 5999 C 549.207 4.40482 0.817269 0
M  V30 6000 C 550.951 3.49766 2.4055 0
M  V30 6001 C 548.858 5.69744 1.58573 0
M  V30 6002 H 547.788 0.668287 0.349153 0
M  V30 6003 H 550.439 1.82629 0.178544 0
M  V30 6004 H 548.821 3.08304 2.48526 0
M  V30 6005 H 549.995 4.60752 0.0665988 0
M  V30 6006 H 548.31 4.15827 0.218316 0
M  V30 6007 H 550.907 4.43573 2.98575 0
M  V30 6008 H 551.25 2.73041 3.14252 0
M  V30 6009 H 551.783 3.60341 1.68522 0
M  V30 6010 H 548.522 6.49407 0.891679 0
M  V30 6011 H 548.042 5.53509 2.31059 0
M  V30 6012 H 549.721 6.1051 2.14212 0
M  V30 6013 N 549.853 -0.472356 1.50355 0
M  V30 6014 C 551.13 -1.23356 1.51798 0
M  V30 6015 C 551.51 -2.09469 0.26193 0
M  V30 6016 O 550.858 -2.15677 -0.754691 0
M  V30 6017 C 551.068 -2.06568 2.81302 0
M  V30 6018 C 552.416 -2.648 3.31913 0
M  V30 6019 O 553.44 -2.16812 2.82614 0
M  V30 6020 O 552.299 -3.52231 4.17846 0
M  V30 6021 H 549.393 -0.559707 0.608816 0
M  V30 6022 H 551.939 -0.48428 1.62643 0
M  V30 6023 H 550.711 -1.43103 3.64194 0
M  V30 6024 H 550.334 -2.88633 2.73454 0
M  V30 6025 N 551.331 -1.39911 -0.725443 0
M  V30 6026 C 552.561 -1.40744 -1.51244 0
M  V30 6027 C 552.969 -0.00275403 -1.892 0
M  V30 6028 O 552.312 0.981299 -1.55294 0
M  V30 6029 C 552.374 -2.22527 -2.82351 0
M  V30 6030 C 552.038 -3.71053 -2.66774 0
M  V30 6031 C 553.035 -4.63916 -2.34686 0
M  V30 6032 C 550.72 -4.14753 -2.83347 0
M  V30 6033 C 552.714 -5.98463 -2.19366 0
M  V30 6034 C 550.401 -5.49372 -2.67644 0
M  V30 6035 C 551.399 -6.41042 -2.357 0
M  V30 6036 O 551.087 -7.73181 -2.20107 0
M  V30 6037 H 550.819 -0.482314 -0.473655 0
M  V30 6038 H 553.373 -1.84472 -0.903284 0
M  V30 6039 H 551.603 -1.73563 -3.45562 0
M  V30 6040 H 553.292 -2.15421 -3.44018 0
M  V30 6041 H 554.058 -4.31453 -2.21525 0
M  V30 6042 H 549.937 -3.43728 -3.072 0
M  V30 6043 H 553.481 -6.69979 -1.94354 0
M  V30 6044 H 549.378 -5.81424 -2.80387 0
M  V30 6045 H 550.146 -7.84008 -2.35103 0
M  V30 6046 N 552.809 0.956637 -1.25245 0
M  V30 6047 C 554.086 1.67716 -1.00651 0
M  V30 6048 C 554.466 2.0585 0.467866 0
M  V30 6049 O 553.814 1.77029 1.44475 0
M  V30 6050 C 554.024 2.90093 -1.94028 0
M  V30 6051 C 555.372 3.6209 -2.21756 0
M  V30 6052 O 556.396 3.00171 -1.9177 0
M  V30 6053 O 555.255 4.7358 -2.72735 0
M  V30 6054 H 552.349 0.733731 -0.381533 0
M  V30 6055 H 554.895 1.00974 -1.3639 0
M  V30 6056 H 553.667 2.58689 -2.93591 0
M  V30 6057 H 553.29 3.64566 -1.58674 0
M  V30 6058 N 554.287 1.06798 1.15896 0
M  V30 6059 C 555.533 0.798757 1.8706 0
M  V30 6060 C 555.888 -0.667739 1.80441 0
M  V30 6061 O 555.181 -1.48334 1.21274 0
M  V30 6062 C 555.375 1.23414 3.35416 0
M  V30 6063 C 555.204 2.74142 3.56478 0
M  V30 6064 C 553.974 3.41675 3.72272 0
M  V30 6065 C 556.172 3.72348 3.5477 0
M  V30 6066 N 554.154 4.81101 3.81333 0
M  V30 6067 C 555.525 4.97585 3.69877 0
M  V30 6068 C 557.58 3.65585 3.38011 0
M  V30 6069 C 556.283 6.16866 3.69959 0
M  V30 6070 C 558.309 4.84323 3.39389 0
M  V30 6071 C 557.671 6.08391 3.5502 0
M  V30 6072 H 553.77 0.344761 0.7019 0
M  V30 6073 H 556.354 1.36314 1.3902 0
M  V30 6074 H 554.525 0.697522 3.82085 0
M  V30 6075 H 556.257 0.91304 3.94266 0
M  V30 6076 H 553.012 2.92078 3.7281 0
M  V30 6077 H 553.436 5.53647 3.8962 0
M  V30 6078 H 558.078 2.70615 3.2485 0
M  V30 6079 H 555.796 7.12164 3.819 0
M  V30 6080 H 559.382 4.80762 3.27658 0
M  V30 6081 H 558.262 6.98731 3.56012 0
M  V30 6082 N 555.766 -1.3263 0.851289 0
M  V30 6083 C 557.006 -1.99174 0.459266 0
M  V30 6084 C 557.37 -1.65913 -0.966273 0
M  V30 6085 O 558.571 -2.2552 -1.46267 0
M  V30 6086 C 556.842 -3.50721 0.687698 0
M  V30 6087 S 558.401 -4.37039 0.392746 0
M  V30 6088 H 555.219 -0.689832 0.172199 0
M  V30 6089 H 557.821 -1.61395 1.10327 0
M  V30 6090 H 556.525 -3.72417 1.72435 0
M  V30 6091 H 556.056 -3.93389 0.0299949 0
M  V30 6092 H 558.071 -4.8999 -0.782578 0
M  V30 6093 N 557.244 -0.608902 -1.45362 0
M  V30 6094 C 558.154 0.110969 -2.34337 0
M  V30 6095 C 559.17 0.859007 -1.51318 0
M  V30 6096 O 560.346 0.816296 -1.84116 0
M  V30 6097 C 557.411 1.09494 -3.28956 0
M  V30 6098 C 556.472 0.348718 -4.27881 0
M  V30 6099 C 555.705 1.28582 -5.17979 0
M  V30 6100 O 555.928 2.52369 -5.11533 0
M  V30 6101 O 554.862 0.782172 -5.96796 0
M  V30 6102 H 558.688 -0.620258 -2.97299 0
M  V30 6103 H 556.273 -0.36916 -1.44767 0
M  V30 6104 H 558.155 1.66163 -3.87257 0
M  V30 6105 H 556.83 1.80717 -2.68557 0
M  V30 6106 H 555.737 -0.260465 -3.73192 0
M  V30 6107 H 557.07 -0.323049 -4.91139 0
M  V30 6108 N 558.722 1.53707 -0.348139 0
M  V30 6109 C 559.999 1.93247 0.302475 0
M  V30 6110 C 560.379 1.28012 1.67857 0
M  V30 6111 O 559.727 0.43274 2.24365 0
M  V30 6112 C 559.937 3.47031 0.370159 0
M  V30 6113 C 561.285 4.20066 0.61882 0
M  V30 6114 O 562.309 3.53319 0.452087 0
M  V30 6115 O 561.168 5.38318 0.94215 0
M  V30 6116 H 558.262 0.807736 0.177458 0
M  V30 6117 H 560.808 1.64927 -0.399651 0
M  V30 6118 H 559.58 3.86745 -0.59534 0
M  V30 6119 H 559.203 3.81532 1.11888 0
M  V30 6120 N 560.2 0.0768682 1.57412 0
M  V30 6121 C 561.477 -0.632359 1.85096 0
M  V30 6122 C 561.857 -1.87479 0.9703 0
M  V30 6123 O 561.205 -2.28469 0.0379062 0
M  V30 6124 C 561.415 -0.965174 3.35388 0
M  V30 6125 C 562.763 -1.33648 4.03018 0
M  V30 6126 O 563.787 -1.05675 3.40164 0
M  V30 6127 O 562.646 -1.85959 5.13889 0
M  V30 6128 H 559.74 -0.314574 0.764835 0
M  V30 6129 H 562.286 0.108184 1.69355 0
M  V30 6130 H 561.058 -0.0829745 3.91212 0
M  V30 6131 H 560.681 -1.76231 3.5641 0
M  V30 6132 N 561.678 -1.56367 -0.196722 0
M  V30 6133 C 562.608 -1.97442 -1.24655 0
M  V30 6134 C 563.589 -0.846147 -1.47561 0
M  V30 6135 O 564.774 -1.11035 -1.59326 0
M  V30 6136 C 561.904 -2.31253 -2.59112 0
M  V30 6137 C 560.858 -3.46804 -2.50821 0
M  V30 6138 C 560.184 -3.66286 -3.89536 0
M  V30 6139 C 561.484 -4.8104 -2.03465 0
M  V30 6140 H 563.178 -2.85388 -0.905216 0
M  V30 6141 H 560.724 -1.37304 -0.434002 0
M  V30 6142 H 562.677 -2.58583 -3.32736 0
M  V30 6143 H 561.401 -1.40188 -2.94983 0
M  V30 6144 H 560.06 -3.19563 -1.79653 0
M  V30 6145 H 559.708 -2.72555 -4.22756 0
M  V30 6146 H 559.408 -4.4402 -3.84864 0
M  V30 6147 H 560.932 -3.9599 -4.64784 0
M  V30 6148 H 562.346 -5.07411 -2.66846 0
M  V30 6149 H 560.743 -5.62232 -2.09798 0
M  V30 6150 H 561.813 -4.74732 -0.98781 0
M  V30 6151 N 563.156 0.464375 -1.50603 0
M  V30 6152 C 564.381 1.24372 -1.65971 0
M  V30 6153 C 564.806 1.84901 -0.345453 0
M  V30 6154 O 564.164 1.67596 0.691457 0
M  V30 6155 C 564.212 2.32331 -2.7578 0
M  V30 6156 O 563.316 3.37146 -2.375 0
M  V30 6157 H 562.657 0.365604 -0.554283 0
M  V30 6158 H 565.187 0.55183 -1.97018 0
M  V30 6159 H 565.197 2.77539 -2.99059 0
M  V30 6160 H 563.872 1.87648 -3.71162 0
M  V30 6161 H 562.449 2.97602 -2.24694 0
M  V30 6162 N 564.634 1.40294 0.718013 0
M  V30 6163 C 565.862 1.4175 1.50714 0
M  V30 6164 C 566.277 0.0165366 1.88793 0
M  V30 6165 O 565.634 -0.958942 1.55276 0
M  V30 6166 C 565.685 2.30598 2.784 0
M  V30 6167 O 565.406 3.6524 2.41932 0
M  V30 6168 C 566.907 2.4062 3.72313 0
M  V30 6169 H 564.127 0.483565 0.465194 0
M  V30 6170 H 566.671 1.84316 0.885889 0
M  V30 6171 H 564.826 1.91401 3.36815 0
M  V30 6172 H 565.24 4.12402 3.24076 0
M  V30 6173 H 566.714 3.07001 4.58753 0
M  V30 6174 H 567.191 1.4305 4.15251 0
M  V30 6175 H 567.797 2.80359 3.19811 0
M  V30 6176 N 566.112 -0.949982 1.2575 0
M  V30 6177 C 567.36 -1.6918 1.10555 0
M  V30 6178 C 567.681 -1.91773 -0.353298 0
M  V30 6179 O 566.951 -1.50814 -1.25027 0
M  V30 6180 H 565.531 -0.626952 0.406129 0
M  V30 6181 H 568.193 -1.1419 1.57945 0
M  V30 6182 H 567.289 -2.66915 1.61749 0
M  V30 6183 N 567.59 -1.07411 -1.15328 0
M  V30 6184 C 568.553 -0.698914 -2.18284 0
M  V30 6185 C 569.553 0.261149 -1.58665 0
M  V30 6186 O 570.743 0.0420277 -1.74149 0
M  V30 6187 C 567.875 -0.0302427 -3.40887 0
M  V30 6188 H 569.068 -1.61045 -2.52991 0
M  V30 6189 H 566.621 -0.870724 -1.298 0
M  V30 6190 H 567.356 0.893505 -3.11748 0
M  V30 6191 H 567.141 -0.720759 -3.85419 0
M  V30 6192 H 568.631 0.21759 -4.17033 0
M  V30 6193 N 569.068 1.32177 -0.85831 0
M  V30 6194 C 570.031 2.27086 -0.310588 0
M  V30 6195 C 571.031 1.51751 0.531806 0
M  V30 6196 O 572.221 1.70794 0.34279 0
M  V30 6197 C 569.353 3.36266 0.560179 0
M  V30 6198 H 570.546 2.77045 -1.1483 0
M  V30 6199 H 568.099 1.42911 -0.632942 0
M  V30 6200 H 568.834 2.9158 1.41956 0
M  V30 6201 H 568.619 3.92077 -0.0428473 0
M  V30 6202 H 570.109 4.06974 0.936056 0
M  V30 6203 N 570.547 0.616602 1.45037 0
M  V30 6204 C 571.775 0.121968 2.0654 0
M  V30 6205 C 572.19 -1.19743 1.45969 0
M  V30 6206 O 571.547 -1.73133 0.577168 0
M  V30 6207 C 571.598 -0.0145171 3.61497 0
M  V30 6208 O 571.319 1.25269 4.19809 0
M  V30 6209 C 572.82 -0.539555 4.40004 0
M  V30 6210 H 570.04 0.0729837 0.667019 0
M  V30 6211 H 572.584 0.846891 1.8614 0
M  V30 6212 H 570.739 -0.689809 3.81209 0
M  V30 6213 H 571.153 1.08816 5.13088 0
M  V30 6214 H 572.627 -0.584112 5.48901 0
M  V30 6215 H 573.104 -1.56368 4.10421 0
M  V30 6216 H 573.71 0.101995 4.25178 0
M  V30 6217 N 572.025 -1.5352 0.356285 0
M  V30 6218 C 573.436 -1.86282 -0.12492 0
M  V30 6219 C 573.787 -1.27717 -1.48939 0
M  V30 6220 O 572.912 -0.595614 -2.08042 0
M  V30 6221 C 573.507 -3.37995 -0.23345 0
M  V30 6222 C 572.066 -3.70588 -0.658899 0
M  V30 6223 C 571.213 -2.76581 0.199596 0
M  V30 6224 H 574.164 -1.47901 0.575423 0
M  V30 6225 H 574.185 -3.65475 -1.0587 0
M  V30 6226 H 573.697 -3.8059 0.759776 0
M  V30 6227 H 571.798 -3.33544 -1.66069 0
M  V30 6228 H 571.911 -4.77076 -0.439957 0
M  V30 6229 H 570.275 -2.52552 -0.330076 0
M  V30 6230 H 571.058 -3.22008 1.19019 0
M  V30 6231 N 573.503 -0.0852151 -1.57369 0
M  V30 6232 C 574.919 0.271436 -1.57275 0
M  V30 6233 C 575.119 1.69109 -1.09565 0
M  V30 6234 O 574.175 2.40549 -0.767611 0
M  V30 6235 C 575.488 0.0688638 -3.00621 0
M  V30 6236 C 577.036 0.137373 -3.12698 0
M  V30 6237 C 577.511 -0.0370832 -4.57985 0
M  V30 6238 N 579.002 0.0180794 -4.63196 0
M  V30 6239 C 579.737 -0.0922953 -5.73326 0
M  V30 6240 N 579.233 -0.256948 -6.92323 0
M  V30 6241 N 581.026 -0.0342702 -5.6209 0
M  V30 6242 H 573.177 -1.01288 -1.86693 0
M  V30 6243 H 575.44 -0.396138 -0.861266 0
M  V30 6244 H 575.146 -0.911277 -3.39689 0
M  V30 6245 H 575.02 0.815442 -3.6828 0
M  V30 6246 H 577.407 1.10801 -2.73509 0
M  V30 6247 H 577.488 -0.640532 -2.47651 0
M  V30 6248 H 577.132 -1.00455 -4.97867 0
M  V30 6249 H 577.062 0.760392 -5.21081 0
M  V30 6250 H 579.553 0.143202 -3.77629 0
M  V30 6251 H 579.866 -0.332949 -7.72082 0
M  V30 6252 H 578.211 -0.292487 -6.94384 0
M  V30 6253 H 581.402 0.0931605 -4.68007 0
M  V30 6254 H 581.575 -0.12374 -6.47882 0
M  V30 6255 N 574.981 1.5647 0.188427 0
M  V30 6256 C 576.209 1.85131 0.923803 0
M  V30 6257 C 576.624 0.668537 1.76567 0
M  V30 6258 O 575.981 -0.362662 1.7886 0
M  V30 6259 C 576.032 3.12661 1.81453 0
M  V30 6260 O 575.753 4.26378 1.00665 0
M  V30 6261 C 577.254 3.54548 2.66103 0
M  V30 6262 H 574.474 0.614624 0.269218 0
M  V30 6263 H 577.018 2.03581 0.193671 0
M  V30 6264 H 575.173 2.96088 2.49821 0
M  V30 6265 H 575.587 4.99041 1.61425 0
M  V30 6266 H 577.061 4.4673 3.24247 0
M  V30 6267 H 577.538 2.77853 3.40139 0
M  V30 6268 H 578.144 3.73674 2.03096 0
M  V30 6269 N 576.459 -0.456382 1.50847 0
M  V30 6270 C 577.684 -1.2349 1.66628 0
M  V30 6271 C 578.109 -1.84715 0.355254 0
M  V30 6272 O 577.467 -1.67961 -0.682559 0
M  V30 6273 C 577.515 -2.30865 2.77009 0
M  V30 6274 O 576.619 -3.35882 2.39285 0
M  V30 6275 H 575.96 -0.36266 0.556214 0
M  V30 6276 H 578.49 -0.541374 1.97308 0
M  V30 6277 H 578.5 -2.75949 3.00526 0
M  V30 6278 H 577.175 -1.85677 3.72152 0
M  V30 6279 H 575.752 -2.96406 2.26269 0
M  V30 6280 N 577.937 -1.40673 -0.710563 0
M  V30 6281 C 578.869 -1.37256 -1.83558 0
M  V30 6282 C 579.882 -0.277133 -1.60424 0
M  V30 6283 O 581.071 -0.537831 -1.70205 0
M  V30 6284 C 578.171 -1.1144 -3.20054 0
M  V30 6285 C 577.344 -2.32734 -3.70342 0
M  V30 6286 C 576.403 -2.03002 -4.85465 0
M  V30 6287 O 575.429 -2.75912 -4.97857 0
M  V30 6288 N 576.631 -1.01105 -5.71627 0
M  V30 6289 H 579.396 -2.34215 -1.86985 0
M  V30 6290 H 576.957 -1.35091 -0.892301 0
M  V30 6291 H 578.949 -0.895265 -3.94673 0
M  V30 6292 H 577.519 -0.231307 -3.11743 0
M  V30 6293 H 576.739 -2.70446 -2.86798 0
M  V30 6294 H 578.027 -3.13584 -4.00678 0
M  V30 6295 H 577.425 -0.407303 -5.64232 0
M  V30 6296 H 575.982 -0.85182 -6.4621 0
M  V30 6297 N 579.415 0.9433 -1.26252 0
M  V30 6298 C 580.662 1.68925 -1.11672 0
M  V30 6299 C 580.99 1.91499 0.340329 0
M  V30 6300 O 580.245 1.49189 1.26653 0
M  V30 6301 C 580.544 3.07073 -1.82868 0
M  V30 6302 C 580.21 3.04262 -3.32769 0
M  V30 6303 C 578.872 3.03203 -3.7366 0
M  V30 6304 C 581.224 2.96729 -4.28487 0
M  V30 6305 C 578.552 2.92373 -5.0866 0
M  V30 6306 C 580.904 2.87442 -5.63525 0
M  V30 6307 C 579.568 2.84724 -6.03729 0
M  V30 6308 H 578.838 0.618141 -0.408635 0
M  V30 6309 H 581.485 1.10124 -1.56668 0
M  V30 6310 H 579.79 3.69486 -1.30335 0
M  V30 6311 H 581.487 3.63635 -1.69029 0
M  V30 6312 H 578.077 3.05865 -3.00241 0
M  V30 6313 H 582.261 2.96658 -3.97879 0
M  V30 6314 H 577.517 2.88645 -5.38975 0
M  V30 6315 H 581.691 2.80576 -6.37377 0
M  V30 6316 H 579.318 2.76089 -7.08293 0
M  V30 6317 N 580.893 1.08022 1.14757 0
M  V30 6318 C 582.121 0.828847 1.89572 0
M  V30 6319 C 582.536 -0.618621 1.78377 0
M  V30 6320 O 581.893 -1.42482 1.1404 0
M  V30 6321 C 581.944 1.23677 3.39685 0
M  V30 6322 O 581.665 2.62746 3.50566 0
M  V30 6323 C 583.166 1.01569 4.31507 0
M  V30 6324 H 580.386 0.299196 0.600602 0
M  V30 6325 H 582.93 1.43846 1.45357 0
M  V30 6326 H 581.085 0.671347 3.81539 0
M  V30 6327 H 581.499 2.79573 4.43778 0
M  V30 6328 H 582.973 1.35055 5.35223 0
M  V30 6329 H 583.45 -0.0475433 4.39174 0
M  V30 6330 H 584.056 1.56636 3.95405 0
M  V30 6331 N 582.371 -1.3172 0.865308 0
M  V30 6332 C 583.318 -2.2863 0.315736 0
M  V30 6333 C 584.288 -1.55524 -0.583213 0
M  V30 6334 O 585.473 -1.83694 -0.51585 0
M  V30 6335 C 582.613 -3.41735 -0.480773 0
M  V30 6336 C 581.726 -4.297 0.445167 0
M  V30 6337 C 580.861 -5.29944 -0.365012 0
M  V30 6338 C 579.9 -6.09554 0.557651 0
M  V30 6339 N 579.037 -7.01768 -0.215994 0
M  V30 6340 H 583.877 -2.75026 1.14736 0
M  V30 6341 H 581.414 -1.35302 0.577209 0
M  V30 6342 H 583.372 -4.06045 -0.958306 0
M  V30 6343 H 582.002 -2.96461 -1.27714 0
M  V30 6344 H 581.054 -3.65875 1.04113 0
M  V30 6345 H 582.366 -4.85295 1.15284 0
M  V30 6346 H 581.52 -5.99908 -0.905255 0
M  V30 6347 H 580.259 -4.74994 -1.106 0
M  V30 6348 H 579.264 -5.38485 1.10969 0
M  V30 6349 H 580.489 -6.66591 1.29742 0
M  V30 6350 H 578.435 -6.49232 -0.939878 0
M  V30 6351 H 578.352 -7.54762 0.432431 0
M  V30 6352 H 579.62 -7.76002 -0.737618 0
M  V30 6353 N 583.85 -0.624285 -1.44708 0
M  V30 6354 C 585.08 -0.132726 -2.06173 0
M  V30 6355 C 585.488 1.19513 -1.46674 0
M  V30 6356 O 584.831 1.74254 -0.581491 0
M  V30 6357 C 584.893 0.0636732 -3.59444 0
M  V30 6358 C 584.557 -1.18496 -4.4137 0
M  V30 6359 C 585.553 -2.10706 -4.75288 0
M  V30 6360 C 583.239 -1.41846 -4.81856 0
M  V30 6361 C 585.233 -3.24582 -5.48567 0
M  V30 6362 C 582.92 -2.5602 -5.54885 0
M  V30 6363 C 583.918 -3.47215 -5.88159 0
M  V30 6364 O 583.606 -4.59399 -6.59703 0
M  V30 6365 H 583.338 -0.0737313 -0.671967 0
M  V30 6366 H 585.892 -0.856789 -1.86677 0
M  V30 6367 H 584.122 0.842809 -3.77404 0
M  V30 6368 H 585.811 0.508924 -4.02697 0
M  V30 6369 H 586.577 -1.93898 -4.44554 0
M  V30 6370 H 582.456 -0.717556 -4.55381 0
M  V30 6371 H 586 -3.95785 -5.74456 0
M  V30 6372 H 581.897 -2.72774 -5.85034 0
M  V30 6373 H 582.665 -4.58293 -6.78166 0
M  V30 6374 N 585.328 1.53329 -0.364422 0
M  V30 6375 C 586.574 2.02222 0.21855 0
M  V30 6376 C 586.929 1.24702 1.46517 0
M  V30 6377 O 586.222 0.331969 1.88702 0
M  V30 6378 C 586.416 3.52911 0.564661 0
M  V30 6379 C 586.245 4.45023 -0.646862 0
M  V30 6380 C 585.015 4.91838 -1.15858 0
M  V30 6381 C 587.213 4.91581 -1.51172 0
M  V30 6382 N 585.195 5.67955 -2.33025 0
M  V30 6383 C 586.566 5.66028 -2.53006 0
M  V30 6384 C 588.621 4.73656 -1.53473 0
M  V30 6385 C 587.324 6.24457 -3.56996 0
M  V30 6386 C 589.35 5.3295 -2.56356 0
M  V30 6387 C 588.712 6.07282 -3.56914 0
M  V30 6388 H 584.811 0.780832 0.0427199 0
M  V30 6389 H 587.395 1.87937 -0.508704 0
M  V30 6390 H 585.566 3.6736 1.26099 0
M  V30 6391 H 587.298 3.88528 1.13262 0
M  V30 6392 H 584.053 4.68043 -0.723393 0
M  V30 6393 H 584.477 6.10675 -2.92241 0
M  V30 6394 H 589.119 4.15714 -0.770842 0
M  V30 6395 H 586.837 6.81496 -4.34268 0
M  V30 6396 H 590.423 5.20976 -2.58989 0
M  V30 6397 H 589.303 6.52345 -4.35218 0
M  V30 6398 N 586.806 0.0935595 1.57322 0
M  V30 6399 C 588.034 -0.578934 1.98635 0
M  V30 6400 C 588.449 -1.61819 0.972626 0
M  V30 6401 O 587.806 -1.82461 -0.0379638 0
M  V30 6402 C 587.857 -1.22802 3.40003 0
M  V30 6403 O 587.578 -0.230334 4.37494 0
M  V30 6404 C 589.079 -1.98627 3.96311 0
M  V30 6405 H 586.299 -0.155324 0.652775 0
M  V30 6406 H 588.843 0.172393 2.03772 0
M  V30 6407 H 586.998 -1.93029 3.35885 0
M  V30 6408 H 587.412 -0.698649 5.19826 0
M  V30 6409 H 588.886 -2.39405 4.97382 0
M  V30 6410 H 589.363 -2.85151 3.34044 0
M  V30 6411 H 589.969 -1.3322 4.03897 0
M  V30 6412 N 588.284 -1.56567 -0.180126 0
M  V30 6413 C 589.194 -1.98947 -1.24327 0
M  V30 6414 C 590.21 -0.899446 -1.4895 0
M  V30 6415 O 591.386 -1.20639 -1.61271 0
M  V30 6416 C 588.451 -2.33328 -2.56435 0
M  V30 6417 C 587.512 -3.56114 -2.39752 0
M  V30 6418 C 586.745 -3.88845 -3.65561 0
M  V30 6419 O 586.968 -3.22662 -4.70368 0
M  V30 6420 O 585.902 -4.82226 -3.60197 0
M  V30 6421 H 589.728 -2.89634 -0.913565 0
M  V30 6422 H 587.313 -1.44319 -0.386306 0
M  V30 6423 H 589.195 -2.5645 -3.34382 0
M  V30 6424 H 587.87 -1.45806 -2.89002 0
M  V30 6425 H 586.777 -3.38221 -1.59866 0
M  V30 6426 H 588.11 -4.4415 -2.12113 0
M  V30 6427 N 589.762 0.448376 -1.51087 0
M  V30 6428 C 590.987 1.22605 -1.6728 0
M  V30 6429 C 591.412 1.84524 -0.365045 0
M  V30 6430 O 590.77 1.6832 0.673642 0
M  V30 6431 C 590.818 2.29393 -2.78229 0
M  V30 6432 O 589.922 3.34608 -2.41063 0
M  V30 6433 H 589.263 0.359705 -0.558129 0
M  V30 6434 H 591.793 0.530903 -1.97592 0
M  V30 6435 H 591.803 2.74352 -3.01986 0
M  V30 6436 H 590.478 1.83701 -3.73131 0
M  V30 6437 H 589.055 2.95202 -2.27838 0
M  V30 6438 N 591.24 1.41047 0.703093 0
M  V30 6439 C 592.188 1.42494 1.83843 0
M  V30 6440 C 593.182 0.303885 1.66652 0
M  V30 6441 O 594.388 0.475544 1.73605 0
M  V30 6442 H 590.763 0.445685 0.605697 0
M  V30 6443 H 592.734 2.38194 1.79739 0
M  V30 6444 C 591.483 1.31666 3.21807 0
M  V30 6445 H 590.806 2.17212 3.35647 0
M  V30 6446 H 592.246 1.36738 4.01346 0
M  V30 6447 C 590.705 0.0281828 3.36888 0
M  V30 6448 O 591.235 -0.929995 3.90786 0
M  V30 6449 N 589.441 -0.0454322 2.90564 0
M  V30 6450 H 588.988 0.735046 2.4689 0
M  V30 6451 H 588.946 -0.906968 3.01034 0
M  V30 6452 N 592.718 -0.936591 1.26751 0
M  V30 6453 C 593.966 -1.67998 1.12343 0
M  V30 6454 C 594.287 -1.92137 -0.332938 0
M  V30 6455 O 593.557 -1.52132 -1.23421 0
M  V30 6456 H 592.137 -0.622609 0.412756 0
M  V30 6457 H 594.799 -1.12509 1.59147 0
M  V30 6458 H 593.895 -2.65185 1.64571 0
M  V30 6459 N 594.196 -1.08629 -1.14182 0
M  V30 6460 C 595.442 -0.818556 -1.85546 0
M  V30 6461 C 595.775 0.654076 -1.82854 0
M  V30 6462 O 595.05 1.48099 -1.26083 0
M  V30 6463 C 595.333 -1.34397 -3.3408 0
M  V30 6464 C 595.186 -2.8821 -3.45333 0
M  V30 6465 C 596.505 -0.971069 -4.29253 0
M  V30 6466 H 593.624 -0.298821 -0.673702 0
M  V30 6467 H 596.266 -1.34629 -1.34071 0
M  V30 6468 H 594.416 -0.895064 -3.78049 0
M  V30 6469 H 596.088 -3.41488 -3.10134 0
M  V30 6470 H 594.331 -3.25756 -2.86471 0
M  V30 6471 H 595.002 -3.20047 -4.49749 0
M  V30 6472 H 597.478 -1.35809 -3.93313 0
M  V30 6473 H 596.354 -1.36586 -5.31635 0
M  V30 6474 H 596.615 0.121659 -4.41933 0
M  V30 6475 N 595.674 1.31259 -0.872281 0
M  V30 6476 C 596.584 2.32221 -0.333255 0
M  V30 6477 C 597.6 1.6481 0.558013 0
M  V30 6478 O 598.776 1.96212 0.454175 0
M  V30 6479 C 595.841 3.43708 0.454479 0
M  V30 6480 C 594.902 4.26774 -0.465024 0
M  V30 6481 C 594.135 5.32937 0.28521 0
M  V30 6482 O 594.358 5.49968 1.513 0
M  V30 6483 O 593.292 6.00834 -0.358126 0
M  V30 6484 H 597.118 2.80252 -1.17016 0
M  V30 6485 H 594.703 1.352 -0.635724 0
M  V30 6486 H 596.585 4.11656 0.900963 0
M  V30 6487 H 595.26 2.97836 1.26789 0
M  V30 6488 H 594.167 3.61571 -0.960055 0
M  V30 6489 H 595.5 4.76217 -1.2441 0
M  V30 6490 N 597.152 0.631951 1.44375 0
M  V30 6491 C 598.377 0.142146 2.06912 0
M  V30 6492 C 598.802 -1.17456 1.4692 0
M  V30 6493 O 598.16 -1.72074 0.570975 0
M  V30 6494 C 598.208 0.0417952 3.60576 0
M  V30 6495 O 597.312 -1.00194 4.00044 0
M  V30 6496 H 596.653 0.0851491 0.658518 0
M  V30 6497 H 599.183 0.868863 1.85235 0
M  V30 6498 H 599.193 -0.148517 4.0773 0
M  V30 6499 H 597.868 1.0031 4.03622 0
M  V30 6500 H 596.445 -0.786131 3.64519 0
M  V30 6501 N 598.631 -1.53133 0.372548 0
M  V30 6502 C 599.578 -2.25951 -0.470631 0
M  V30 6503 C 600.548 -1.26895 -1.07176 0
M  V30 6504 O 601.733 -1.55691 -1.10294 0
M  V30 6505 C 598.873 -3.05726 -1.6008 0
M  V30 6506 C 597.986 -4.19684 -1.02416 0
M  V30 6507 C 597.121 -4.86888 -2.124 0
M  V30 6508 C 596.16 -5.92866 -1.52238 0
M  V30 6509 N 595.297 -6.53732 -2.56084 0
M  V30 6510 H 600.137 -2.97587 0.156816 0
M  V30 6511 H 597.674 -1.4683 0.0891571 0
M  V30 6512 H 599.632 -3.50258 -2.26661 0
M  V30 6513 H 598.262 -2.36331 -2.1988 0
M  V30 6514 H 597.314 -3.79588 -0.248426 0
M  V30 6515 H 598.626 -4.95821 -0.544366 0
M  V30 6516 H 597.78 -5.34638 -2.86787 0
M  V30 6517 H 596.519 -4.10239 -2.63734 0
M  V30 6518 H 595.524 -5.4447 -0.763685 0
M  V30 6519 H 596.749 -6.71439 -1.0172 0
M  V30 6520 H 594.695 -5.79932 -3.06618 0
M  V30 6521 H 594.612 -7.25429 -2.12811 0
M  V30 6522 H 595.88 -7.0613 -3.30152 0
M  V30 6523 N 600.109 -0.101901 -1.5727 0
M  V30 6524 C 601.334 0.571759 -1.99363 0
M  V30 6525 C 601.759 1.60507 -0.980768 0
M  V30 6526 O 601.117 1.81231 0.0498517 0
M  V30 6527 C 601.165 1.18996 -3.404 0
M  V30 6528 O 600.269 2.30572 -3.41922 0
M  V30 6529 H 599.61 0.144449 -0.648098 0
M  V30 6530 H 602.14 -0.185325 -2.03759 0
M  V30 6531 H 602.15 1.52962 -3.78241 0
M  V30 6532 H 600.825 0.432984 -4.1364 0
M  V30 6533 H 599.402 1.98173 -3.15883 0
M  V30 6534 N 601.587 1.56661 0.17182 0
M  V30 6535 C 602.517 1.99401 1.21498 0
M  V30 6536 C 603.498 0.869516 1.46197 0
M  V30 6537 O 604.683 1.13556 1.57539 0
M  V30 6538 C 601.813 2.35346 2.55401 0
M  V30 6539 C 600.767 3.5075 2.45272 0
M  V30 6540 C 600.093 3.72437 3.8366 0
M  V30 6541 C 601.393 4.84216 1.95787 0
M  V30 6542 H 603.087 2.86792 0.859699 0
M  V30 6543 H 600.633 1.37977 0.412103 0
M  V30 6544 H 602.586 2.63843 3.2858 0
M  V30 6545 H 601.31 1.44864 2.92715 0
M  V30 6546 H 599.969 3.2238 1.74547 0
M  V30 6547 H 599.617 2.79246 4.18367 0
M  V30 6548 H 599.317 4.50087 3.77751 0
M  V30 6549 H 600.841 4.03334 4.58426 0
M  V30 6550 H 602.255 5.11592 2.5874 0
M  V30 6551 H 600.652 5.65498 2.00827 0
M  V30 6552 H 601.722 4.76243 0.912159 0
M  V30 6553 N 603.065 -0.440357 1.51323 0
M  V30 6554 C 604.293 -1.21255 1.67645 0
M  V30 6555 C 604.708 -1.85088 0.37252 0
M  V30 6556 O 604.065 -1.70582 -0.648683 0
M  V30 6557 C 604.116 -2.29881 2.78993 0
M  V30 6558 O 603.837 -1.68659 4.04334 0
M  V30 6559 C 605.338 -3.20214 3.06558 0
M  V30 6560 H 602.558 -0.36558 0.562666 0
M  V30 6561 H 605.102 -0.52214 1.97722 0
M  V30 6562 H 603.257 -2.94643 2.51524 0
M  V30 6563 H 603.671 -2.40426 4.6615 0
M  V30 6564 H 605.145 -3.92575 3.88058 0
M  V30 6565 H 605.622 -3.80794 2.18844 0
M  V30 6566 H 606.228 -2.61156 3.35675 0
M  V30 6567 N 604.543 -1.41418 -0.695603 0
M  V30 6568 C 605.954 -1.36335 -1.27552 0
M  V30 6569 C 606.305 -0.0464336 -1.96145 0
M  V30 6570 O 605.43 0.855304 -1.9878 0
M  V30 6571 C 606.025 -2.46941 -2.3196 0
M  V30 6572 C 604.584 -2.45256 -2.85529 0
M  V30 6573 C 603.731 -2.2679 -1.59566 0
M  V30 6574 H 606.682 -1.50934 -0.490362 0
M  V30 6575 H 606.703 -2.15997 -3.1325 0
M  V30 6576 H 606.215 -3.42775 -1.82008 0
M  V30 6577 H 604.316 -1.53179 -3.39657 0
M  V30 6578 H 604.429 -3.41565 -3.35961 0
M  V30 6579 H 602.793 -1.74667 -1.85374 0
M  V30 6580 H 603.576 -3.24651 -1.1161 0
M  V30 6581 N 606.021 0.929856 -1.27246 0
M  V30 6582 C 606.984 2.01172 -1.09829 0
M  V30 6583 C 607.984 1.60743 -0.0429687 0
M  V30 6584 O 609.174 1.71813 -0.287373 0
M  V30 6585 C 606.306 3.34191 -0.673003 0
M  V30 6586 H 607.499 2.18054 -2.05895 0
M  V30 6587 H 605.052 1.11036 -1.10003 0
M  V30 6588 H 605.787 3.23009 0.289134 0
M  V30 6589 H 605.572 3.64892 -1.43515 0
M  V30 6590 H 607.062 4.13646 -0.573323 0
M  V30 6591 N 607.499 1.09233 1.13605 0
M  V30 6592 C 608.429 0.751738 2.21068 0
M  V30 6593 C 609.41 -0.269688 1.67948 0
M  V30 6594 O 610.595 -0.13819 1.93708 0
M  V30 6595 C 607.725 0.16935 3.46887 0
M  V30 6596 C 606.679 1.12007 4.13084 0
M  V30 6597 C 606.005 0.399483 5.33206 0
M  V30 6598 C 607.305 2.46168 4.6065 0
M  V30 6599 H 608.999 1.65024 2.49815 0
M  V30 6600 H 606.545 0.794905 1.20072 0
M  V30 6601 H 608.498 -0.0809824 4.21322 0
M  V30 6602 H 607.222 -0.764335 3.1753 0
M  V30 6603 H 605.881 1.35564 3.40614 0
M  V30 6604 H 605.529 -0.538277 5.00112 0
M  V30 6605 H 605.229 1.03337 5.78442 0
M  V30 6606 H 606.753 0.157403 6.10397 0
M  V30 6607 H 608.167 2.26829 5.26518 0
M  V30 6608 H 606.564 3.05326 5.1662 0
M  V30 6609 H 607.634 3.07076 3.75276 0
M  V30 6610 N 608.977 -1.30795 0.87923 0
M  V30 6611 C 610.217 -1.98155 0.50141 0
M  V30 6612 C 610.581 -1.67925 -0.930863 0
M  V30 6613 O 611.782 -2.28572 -1.41451 0
M  V30 6614 C 610.053 -3.49184 0.761937 0
M  V30 6615 S 611.612 -4.36107 0.485361 0
M  V30 6616 H 608.43 -0.686025 0.186792 0
M  V30 6617 H 611.032 -1.59018 1.13726 0
M  V30 6618 H 609.736 -3.68676 1.80295 0
M  V30 6619 H 609.267 -3.93236 0.113432 0
M  V30 6620 H 611.282 -4.9154 -0.678467 0
M  V30 6621 N 610.455 -0.639598 -1.44038 0
M  V30 6622 C 611.871 -0.305953 -1.5664 0
M  V30 6623 C 612.071 1.19055 -1.62567 0
M  V30 6624 O 611.127 1.97492 -1.57331 0
M  V30 6625 C 612.44 -1.00533 -2.83397 0
M  V30 6626 C 613.988 -0.984278 -2.97121 0
M  V30 6627 C 614.463 -1.66428 -4.26691 0
M  V30 6628 N 615.954 -1.63127 -4.33525 0
M  V30 6629 C 616.689 -2.12629 -5.32519 0
M  V30 6630 N 616.185 -2.70359 -6.3787 0
M  V30 6631 N 617.978 -2.03208 -5.24083 0
M  V30 6632 H 610.129 -1.6109 -1.38434 0
M  V30 6633 H 612.392 -0.676672 -0.663942 0
M  V30 6634 H 612.098 -2.06034 -2.85032 0
M  V30 6635 H 611.972 -0.548362 -3.73193 0
M  V30 6636 H 614.359 0.0622792 -2.95034 0
M  V30 6637 H 614.44 -1.47981 -2.08651 0
M  V30 6638 H 614.084 -2.71034 -4.29538 0
M  V30 6639 H 614.014 -1.14351 -5.14034 0
M  V30 6640 H 616.505 -1.20987 -3.58009 0
M  V30 6641 H 616.818 -3.05842 -7.09704 0
M  V30 6642 H 615.163 -2.74414 -6.38531 0
M  V30 6643 H 618.354 -1.57823 -4.40692 0
M  V30 6644 H 618.527 -2.42097 -6.01077 0
M  V30 6645 N 611.933 1.52934 -0.380664 0
M  V30 6646 C 613.161 2.05886 0.204599 0
M  V30 6647 C 613.576 1.25305 1.41223 0
M  V30 6648 O 612.933 0.297504 1.80059 0
M  V30 6649 C 612.984 3.56764 0.583249 0
M  V30 6650 O 612.705 4.34292 -0.576398 0
M  V30 6651 C 614.206 4.2603 1.2253 0
M  V30 6652 H 611.426 0.670193 0.0328991 0
M  V30 6653 H 613.97 1.97148 -0.543397 0
M  V30 6654 H 612.125 3.65603 1.28115 0
M  V30 6655 H 612.539 5.23819 -0.267119 0
M  V30 6656 H 614.013 5.32868 1.44068 0
M  V30 6657 H 614.49 3.80698 2.19011 0
M  V30 6658 H 615.096 4.21485 0.568407 0
M  V30 6659 N 613.412 0.11024 1.57214 0
M  V30 6660 C 614.823 -0.416527 1.81994 0
M  V30 6661 C 615.174 -1.67183 1.02686 0
M  V30 6662 O 614.299 -2.14823 0.260782 0
M  V30 6663 C 614.894 -0.762466 3.30109 0
M  V30 6664 C 613.453 -1.23391 3.556 0
M  V30 6665 C 612.6 -0.238166 2.76275 0
M  V30 6666 H 615.551 0.335491 1.55113 0
M  V30 6667 H 615.572 -1.62068 3.44259 0
M  V30 6668 H 615.084 0.151346 3.87805 0
M  V30 6669 H 613.185 -2.16492 3.03253 0
M  V30 6670 H 613.298 -1.18528 4.64207 0
M  V30 6671 H 611.662 -0.723421 2.4421 0
M  V30 6672 H 612.445 0.668591 3.36727 0
M  V30 6673 N 614.89 -1.56749 -0.16351 0
M  V30 6674 C 615.853 -1.96121 -1.18613 0
M  V30 6675 C 616.853 -0.845765 -1.36761 0
M  V30 6676 O 618.043 -1.11268 -1.34033 0
M  V30 6677 C 615.175 -2.26282 -2.54969 0
M  V30 6678 H 616.368 -2.87639 -0.848764 0
M  V30 6679 H 613.921 -1.50928 -0.406251 0
M  V30 6680 H 614.656 -1.37504 -2.93706 0
M  V30 6681 H 614.441 -3.07595 -2.43162 0
M  V30 6682 H 615.931 -2.57638 -3.28653 0
M  V30 6683 N 616.368 0.432326 -1.51554 0
M  V30 6684 C 617.316 1.54572 -1.73811 0
M  V30 6685 C 618.31 1.58246 -0.604539 0
M  V30 6686 O 619.516 1.6193 -0.786041 0
M  V30 6687 H 615.891 0.513626 -0.549265 0
M  V30 6688 H 617.862 1.32977 -2.67132 0
M  V30 6689 C 616.611 2.92181 -1.88483 0
M  V30 6690 H 615.934 2.90088 -2.75116 0
M  V30 6691 H 617.374 3.69439 -2.08065 0
M  V30 6692 C 615.833 3.3065 -0.645909 0
M  V30 6693 O 616.363 4.01216 0.197093 0
M  V30 6694 N 614.569 2.86464 -0.488538 0
M  V30 6695 H 614.116 2.29209 -1.17562 0
M  V30 6696 H 614.074 3.12565 0.339156 0
M  V30 6697 N 617.846 1.41785 0.688094 0
M  V30 6698 C 618.793 1.44221 1.80191 0
M  V30 6699 C 619.763 0.295688 1.63447 0
M  V30 6700 O 620.948 0.49783 1.84191 0
M  V30 6701 C 618.088 1.33743 3.1813 0
M  V30 6702 C 617.201 2.58325 3.46254 0
M  V30 6703 C 616.336 2.40086 4.73848 0
M  V30 6704 C 615.375 3.60107 4.94964 0
M  V30 6705 N 614.512 3.40892 6.13789 0
M  V30 6706 H 619.352 2.39411 1.77444 0
M  V30 6707 H 616.889 1.18876 0.866423 0
M  V30 6708 H 618.847 1.25669 3.97823 0
M  V30 6709 H 617.477 0.42157 3.20035 0
M  V30 6710 H 616.529 2.7682 2.60912 0
M  V30 6711 H 617.841 3.4758 3.57756 0
M  V30 6712 H 616.995 2.29522 5.61609 0
M  V30 6713 H 615.734 1.483 4.64606 0
M  V30 6714 H 614.739 3.71118 4.05649 0
M  V30 6715 H 615.964 4.52857 5.06061 0
M  V30 6716 H 613.91 2.51812 6.05745 0
M  V30 6717 H 613.827 4.23727 6.26092 0
M  V30 6718 H 615.095 3.34114 7.04264 0
M  V30 6719 N 619.324 -0.923095 1.27737 0
M  V30 6720 C 620.254 -2.04124 1.13383 0
M  V30 6721 C 621.235 -1.70066 0.0340658 0
M  V30 6722 O 622.42 -1.93068 0.209383 0
M  V30 6723 C 619.55 -3.3831 0.785097 0
M  V30 6724 C 618.504 -3.86496 1.8386 0
M  V30 6725 C 617.83 -5.1754 1.34373 0
M  V30 6726 C 619.13 -4.09381 3.24353 0
M  V30 6727 H 620.824 -2.1639 2.06919 0
M  V30 6728 H 618.37 -1.03976 0.996243 0
M  V30 6729 H 620.323 -4.16016 0.671485 0
M  V30 6730 H 619.047 -3.2607 -0.185969 0
M  V30 6731 H 617.706 -3.10987 1.9412 0
M  V30 6732 H 617.354 -5.01696 0.361989 0
M  V30 6733 H 617.054 -5.50751 2.04811 0
M  V30 6734 H 618.578 -5.97811 1.24315 0
M  V30 6735 H 619.992 -4.77641 3.17067 0
M  V30 6736 H 618.389 -4.53906 3.92542 0
M  V30 6737 H 619.459 -3.14515 3.69064 0
M  V30 6738 N 620.802 -1.09834 -1.13024 0
M  V30 6739 C 621.749 -0.741522 -2.18564 0
M  V30 6740 C 622.719 0.279236 -1.63736 0
M  V30 6741 O 623.904 0.159923 -1.90129 0
M  V30 6742 C 621.044 -0.17277 -3.44667 0
M  V30 6743 C 620.157 -1.24808 -4.13578 0
M  V30 6744 C 619.292 -0.641631 -5.27311 0
M  V30 6745 C 618.331 -1.69795 -5.88078 0
M  V30 6746 N 617.468 -1.11223 -6.93234 0
M  V30 6747 H 622.308 -1.64576 -2.48432 0
M  V30 6748 H 619.845 -0.822174 -1.21978 0
M  V30 6749 H 621.803 0.17482 -4.16834 0
M  V30 6750 H 620.433 0.694725 -3.15235 0
M  V30 6751 H 619.485 -1.71288 -3.39653 0
M  V30 6752 H 620.797 -2.04795 -4.54819 0
M  V30 6753 H 619.951 -0.243128 -6.06213 0
M  V30 6754 H 618.69 0.189742 -4.87331 0
M  V30 6755 H 617.695 -2.10595 -5.07868 0
M  V30 6756 H 618.92 -2.53206 -6.3013 0
M  V30 6757 H 616.866 -0.302208 -6.55304 0
M  V30 6758 H 616.783 -1.84901 -7.3304 0
M  V30 6759 H 618.051 -0.740068 -7.75979 0
M  V30 6760 N 622.28 1.30327 -0.886154 0
M  V30 6761 C 623.228 2.30052 -0.343317 0
M  V30 6762 C 624.222 1.60212 0.550305 0
M  V30 6763 O 625.428 1.74674 0.434609 0
M  V30 6764 H 621.803 0.746306 -0.0923681 0
M  V30 6765 H 623.774 2.73294 -1.19804 0
M  V30 6766 C 622.523 3.45079 0.426107 0
M  V30 6767 H 621.846 3.99003 -0.25227 0
M  V30 6768 H 623.286 4.16931 0.771009 0
M  V30 6769 C 621.745 2.95195 1.62363 0
M  V30 6770 O 622.275 2.95323 2.723 0
M  V30 6771 N 620.481 2.51192 1.4612 0
M  V30 6772 H 620.028 2.51286 0.566832 0
M  V30 6773 H 619.986 2.18173 2.2638 0
M  V30 6774 N 623.758 0.647228 1.43697 0
M  V30 6775 C 624.705 -0.0480092 2.3075 0
M  V30 6776 C 625.675 -0.820705 1.44408 0
M  V30 6777 O 626.86 -0.798515 1.73287 0
M  V30 6778 C 624 -1.01259 3.2991 0
M  V30 6779 C 623.113 -0.236629 4.31351 0
M  V30 6780 C 622.248 -1.19447 5.17596 0
M  V30 6781 C 621.287 -0.408595 6.10735 0
M  V30 6782 N 620.424 -1.31772 6.89623 0
M  V30 6783 H 625.264 0.700238 2.89656 0
M  V30 6784 H 622.801 0.357082 1.427 0
M  V30 6785 H 624.759 -1.58538 3.85903 0
M  V30 6786 H 623.389 -1.72778 2.72667 0
M  V30 6787 H 622.441 0.452353 3.77701 0
M  V30 6788 H 623.753 0.374731 4.9739 0
M  V30 6789 H 622.907 -1.83809 5.78186 0
M  V30 6790 H 621.646 -1.83975 4.51669 0
M  V30 6791 H 620.651 0.24841 5.49239 0
M  V30 6792 H 621.876 0.232188 6.78703 0
M  V30 6793 H 619.822 -1.94991 6.2635 0
M  V30 6794 H 619.739 -0.760779 7.52162 0
M  V30 6795 H 621.007 -1.94967 7.54724 0
M  V30 6796 N 625.236 -1.5273 0.388769 0
M  V30 6797 C 626.146 -2.30165 -0.453993 0
M  V30 6798 C 627.162 -1.37058 -1.07197 0
M  V30 6799 O 628.338 -1.70127 -1.0779 0
M  V30 6800 C 625.403 -3.09303 -1.56628 0
M  V30 6801 C 624.464 -4.18117 -0.973467 0
M  V30 6802 C 623.697 -4.93472 -2.03275 0
M  V30 6803 O 623.92 -4.68913 -3.24772 0
M  V30 6804 O 622.854 -5.78833 -1.65034 0
M  V30 6805 H 626.68 -3.03185 0.176816 0
M  V30 6806 H 624.265 -1.4862 0.152501 0
M  V30 6807 H 626.147 -3.58648 -2.21246 0
M  V30 6808 H 624.822 -2.39098 -2.18206 0
M  V30 6809 H 623.729 -3.7297 -0.290556 0
M  V30 6810 H 625.062 -4.90556 -0.401908 0
M  V30 6811 N 626.714 -0.118576 -1.57153 0
M  V30 6812 C 627.662 0.849114 -2.16547 0
M  V30 6813 C 628.656 1.27567 -1.11458 0
M  V30 6814 O 629.862 1.24746 -1.29763 0
M  V30 6815 H 626.237 0.291935 -0.693021 0
M  V30 6816 H 628.208 0.323693 -2.96639 0
M  V30 6817 C 626.957 2.08951 -2.77912 0
M  V30 6818 H 626.28 1.77021 -3.58474 0
M  V30 6819 H 627.72 2.74666 -3.23008 0
M  V30 6820 C 626.179 2.87899 -1.74974 0
M  V30 6821 O 626.709 3.83268 -1.20285 0
M  V30 6822 N 624.915 2.51884 -1.44924 0
M  V30 6823 H 624.462 1.74397 -1.89587 0
M  V30 6824 H 624.42 3.05003 -0.762921 0
M  V30 6825 N 628.193 1.56834 0.155195 0
M  V30 6826 C 629.439 1.83169 0.870467 0
M  V30 6827 C 629.772 0.698929 1.81187 0
M  V30 6828 O 629.047 -0.298035 1.92203 0
M  V30 6829 C 629.33 3.19965 1.65211 0
M  V30 6830 C 629.183 4.43792 0.732744 0
M  V30 6831 C 630.502 3.53885 2.61636 0
M  V30 6832 H 627.621 0.666288 0.315006 0
M  V30 6833 H 630.263 1.89513 0.135988 0
M  V30 6834 H 628.413 3.14687 2.27825 0
M  V30 6835 H 630.085 4.61148 0.118236 0
M  V30 6836 H 628.328 4.3378 0.0417906 0
M  V30 6837 H 628.999 5.36095 1.31552 0
M  V30 6838 H 631.475 3.5972 2.09143 0
M  V30 6839 H 630.351 4.50648 3.13381 0
M  V30 6840 H 630.612 2.79418 3.42605 0
M  V30 6841 N 629.671 -0.424282 1.51781 0
M  V30 6842 C 630.901 -1.19297 1.68677 0
M  V30 6843 C 631.309 -1.85152 0.389258 0
M  V30 6844 O 630.652 -1.72067 -0.643311 0
M  V30 6845 C 630.714 -2.30929 2.75521 0
M  V30 6846 C 630.378 -1.85335 4.17732 0
M  V30 6847 C 631.375 -1.34951 5.0208 0
M  V30 6848 C 629.06 -1.92629 4.63896 0
M  V30 6849 C 631.054 -0.924636 6.30658 0
M  V30 6850 C 628.741 -1.49754 5.92467 0
M  V30 6851 C 629.739 -0.997543 6.75676 0
M  V30 6852 O 629.427 -0.57492 8.01842 0
M  V30 6853 H 629.159 -0.36512 0.568914 0
M  V30 6854 H 631.713 -0.507327 1.99036 0
M  V30 6855 H 629.943 -3.02811 2.40505 0
M  V30 6856 H 631.632 -2.92748 2.81165 0
M  V30 6857 H 632.398 -1.287 4.67612 0
M  V30 6858 H 628.277 -2.30491 3.99243 0
M  V30 6859 H 631.821 -0.533682 6.95556 0
M  V30 6860 H 627.718 -1.55679 6.26446 0
M  V30 6861 H 628.486 -0.699597 8.15505 0
M  V30 6862 N 631.149 -1.42148 -0.680565 0
M  V30 6863 C 632.377 -1.45696 -1.46902 0
M  V30 6864 C 632.792 -0.0665858 -1.88683 0
M  V30 6865 O 632.149 0.917436 -1.57764 0
M  V30 6866 C 632.2 -2.37898 -2.72188 0
M  V30 6867 O 631.921 -3.71526 -2.32163 0
M  V30 6868 C 633.422 -2.50407 -3.65802 0
M  V30 6869 H 630.642 -0.495729 -0.45221 0
M  V30 6870 H 633.186 -1.866 -0.836709 0
M  V30 6871 H 631.341 -2.00263 -3.31622 0
M  V30 6872 H 631.755 -4.20849 -3.13027 0
M  V30 6873 H 633.229 -3.19056 -4.50452 0
M  V30 6874 H 633.706 -1.5401 -4.11312 0
M  V30 6875 H 634.312 -2.8874 -3.12265 0
M  V30 6876 N 632.627 0.916307 -1.28225 0
M  V30 6877 C 634.038 1.48024 -1.13779 0
M  V30 6878 C 634.389 1.94289 0.273139 0
M  V30 6879 O 633.514 1.82226 1.16716 0
M  V30 6880 C 634.109 2.69029 -2.05935 0
M  V30 6881 C 632.668 3.2161 -1.95561 0
M  V30 6882 C 631.815 1.94321 -1.97825 0
M  V30 6883 H 634.766 0.729272 -1.40951 0
M  V30 6884 H 634.787 3.44204 -1.62184 0
M  V30 6885 H 634.299 2.35325 -3.08616 0
M  V30 6886 H 632.4 3.60045 -0.959076 0
M  V30 6887 H 632.513 3.87032 -2.82388 0
M  V30 6888 H 630.877 2.1131 -1.42198 0
M  V30 6889 H 631.66 1.62917 -3.0218 0
M  V30 6890 N 634.105 1.10431 1.1244 0
M  V30 6891 C 635.052 0.753103 2.18167 0
M  V30 6892 C 636.022 -0.270549 1.63882 0
M  V30 6893 O 637.207 -0.149837 1.90211 0
M  V30 6894 C 634.347 0.191046 3.44571 0
M  V30 6895 C 633.46 1.26999 4.12911 0
M  V30 6896 C 632.595 0.669586 5.26963 0
M  V30 6897 C 631.634 1.72912 5.87169 0
M  V30 6898 N 630.771 1.14898 6.92635 0
M  V30 6899 H 635.611 1.65892 2.47556 0
M  V30 6900 H 633.148 0.828631 1.21541 0
M  V30 6901 H 635.106 -0.152712 4.1692 0
M  V30 6902 H 633.736 -0.677997 3.15599 0
M  V30 6903 H 632.788 1.73087 3.3874 0
M  V30 6904 H 634.1 2.07204 4.53727 0
M  V30 6905 H 633.254 0.275274 6.06075 0
M  V30 6906 H 631.993 -0.163895 4.87425 0
M  V30 6907 H 630.998 2.13286 5.06744 0
M  V30 6908 H 632.223 2.56544 6.28778 0
M  V30 6909 H 630.169 0.336956 6.55134 0
M  V30 6910 H 630.086 1.88786 7.32049 0
M  V30 6911 H 631.354 0.78121 7.75576 0
M  V30 6912 N 635.583 -1.29855 0.893053 0
M  V30 6913 C 636.808 -2.00512 0.530066 0
M  V30 6914 C 637.233 -1.66446 -0.876199 0
M  V30 6915 O 636.591 -0.885446 -1.58207 0
M  V30 6916 C 636.639 -3.53308 0.721505 0
M  V30 6917 O 635.743 -4.11764 -0.228994 0
M  V30 6918 H 635.084 -0.630617 0.207891 0
M  V30 6919 H 637.614 -1.6551 1.20282 0
M  V30 6920 H 637.624 -4.03206 0.623599 0
M  V30 6921 H 636.299 -3.77439 1.74678 0
M  V30 6922 H 634.876 -3.72805 -0.0841034 0
M  V30 6923 N 637.061 -0.65484 -1.43351 0
M  V30 6924 C 638.024 0.0263562 -2.29185 0
M  V30 6925 C 639.024 0.748951 -1.42293 0
M  V30 6926 O 640.214 0.589957 -1.63906 0
M  V30 6927 C 637.346 1.04806 -3.2439 0
M  V30 6928 H 638.539 -0.728883 -2.90908 0
M  V30 6929 H 636.092 -0.416149 -1.50658 0
M  V30 6930 H 636.827 1.83247 -2.67565 0
M  V30 6931 H 636.612 0.533554 -3.88453 0
M  V30 6932 H 638.102 1.52372 -3.88809 0
M  V30 6933 N 638.539 1.52521 -0.396863 0
M  V30 6934 C 639.785 2.01971 0.183169 0
M  V30 6935 C 640.118 1.2825 1.45827 0
M  V30 6936 O 639.393 0.385179 1.90648 0
M  V30 6937 C 639.676 3.5736 0.443391 0
M  V30 6938 C 639.529 4.41743 -0.84753 0
M  V30 6939 C 640.848 4.22539 1.2308 0
M  V30 6940 H 637.967 0.734119 0.0650976 0
M  V30 6941 H 640.609 1.82519 -0.527918 0
M  V30 6942 H 638.759 3.74066 1.04914 0
M  V30 6943 H 640.431 4.36773 -1.48414 0
M  V30 6944 H 638.674 4.0845 -1.4612 0
M  V30 6945 H 639.345 5.48507 -0.620003 0
M  V30 6946 H 641.821 4.09857 0.718084 0
M  V30 6947 H 640.697 5.31227 1.38162 0
M  V30 6948 H 640.958 3.80675 2.24808 0
M  V30 6949 N 640.017 0.126909 1.57088 0
M  V30 6950 C 640.964 -0.82036 2.15728 0
M  V30 6951 C 641.934 -1.25811 1.08447 0
M  V30 6952 O 643.119 -1.33422 1.36393 0
M  V30 6953 C 640.259 -2.06199 2.76724 0
M  V30 6954 C 639.372 -1.67188 3.98337 0
M  V30 6955 C 638.507 -2.86378 4.47393 0
M  V30 6956 C 637.546 -2.43644 5.61519 0
M  V30 6957 N 636.683 -3.55775 6.05284 0
M  V30 6958 H 641.523 -0.313472 2.96347 0
M  V30 6959 H 639.06 -0.14303 1.46403 0
M  V30 6960 H 641.018 -2.78959 3.10222 0
M  V30 6961 H 639.648 -2.54333 1.98782 0
M  V30 6962 H 638.7 -0.842714 3.70948 0
M  V30 6963 H 640.012 -1.31789 4.81075 0
M  V30 6964 H 639.166 -3.67353 4.82842 0
M  V30 6965 H 637.905 -3.25009 3.63621 0
M  V30 6966 H 636.91 -1.61104 5.25667 0
M  V30 6967 H 638.135 -2.06122 6.47063 0
M  V30 6968 H 636.081 -3.94065 5.24451 0
M  V30 6969 H 635.998 -3.24325 6.82898 0
M  V30 6970 H 637.266 -4.37166 6.45373 0
M  V30 6971 N 641.495 -1.56914 -0.146875 0
M  V30 6972 C 642.443 -1.99224 -1.20053 0
M  V30 6973 C 643.437 -0.884661 -1.44465 0
M  V30 6974 O 644.643 -1.06984 -1.44756 0
M  V30 6975 H 641.018 -0.634191 -0.404112 0
M  V30 6976 H 642.989 -2.86998 -0.816987 0
M  V30 6977 C 641.738 -2.38899 -2.52632 0
M  V30 6978 H 641.061 -3.23677 -2.34677 0
M  V30 6979 H 642.501 -2.72326 -3.24984 0
M  V30 6980 C 640.96 -1.2417 -3.13183 0
M  V30 6981 O 641.49 -0.542503 -3.9802 0
M  V30 6982 N 639.696 -1.00592 -2.72635 0
M  V30 6983 H 639.243 -1.57627 -2.03744 0
M  V30 6984 H 639.201 -0.240174 -3.13481 0
M  V30 6985 N 642.974 0.416227 -1.52004 0
M  V30 6986 C 643.884 1.53147 -1.77717 0
M  V30 6987 C 644.9 1.609 -0.662368 0
M  V30 6988 O 646.076 1.77747 -0.946991 0
M  V30 6989 C 643.141 2.88948 -1.91598 0
M  V30 6990 C 642.202 2.9114 -3.15493 0
M  V30 6991 C 641.435 4.20464 -3.28703 0
M  V30 6992 O 641.658 5.13981 -2.47345 0
M  V30 6993 O 640.592 4.29368 -4.21813 0
M  V30 6994 H 644.418 1.34357 -2.72363 0
M  V30 6995 H 642.003 0.601373 -1.36762 0
M  V30 6996 H 643.885 3.69505 -2.02593 0
M  V30 6997 H 642.56 3.07821 -1.00141 0
M  V30 6998 H 641.467 2.09461 -3.09962 0
M  V30 6999 H 642.8 2.77216 -4.06709 0
M  V30 7000 N 644.452 1.42507 0.673017 0
M  V30 7001 C 645.362 1.4853 1.81593 0
M  V30 7002 C 646.378 0.373907 1.69935 0
M  V30 7003 O 647.554 0.625078 1.91454 0
M  V30 7004 C 644.619 1.387 3.17747 0
M  V30 7005 C 643.68 2.60346 3.41348 0
M  V30 7006 C 642.913 2.50975 4.71007 0
M  V30 7007 O 643.136 1.54659 5.49033 0
M  V30 7008 O 642.07 3.41138 4.95892 0
M  V30 7009 H 645.896 2.45001 1.79467 0
M  V30 7010 H 643.481 1.2429 0.82899 0
M  V30 7011 H 645.363 1.35586 3.98992 0
M  V30 7012 H 644.038 0.453555 3.20507 0
M  V30 7013 H 642.945 2.69034 2.59945 0
M  V30 7014 H 644.278 3.52595 3.43421 0
M  V30 7015 N 645.93 -0.909495 1.28709 0
M  V30 7016 C 647.16 -1.69027 1.188 0
M  V30 7017 C 647.568 -1.87469 -0.255329 0
M  V30 7018 O 646.911 -1.40458 -1.18394 0
M  V30 7019 C 646.973 -3.10064 1.81936 0
M  V30 7020 C 646.637 -3.14891 3.31199 0
M  V30 7021 C 647.634 -2.95768 4.27571 0
M  V30 7022 C 645.319 -3.37269 3.7223 0
M  V30 7023 C 647.313 -2.98942 5.6295 0
M  V30 7024 C 645 -3.40074 5.07733 0
M  V30 7025 C 645.998 -3.20932 6.02903 0
M  V30 7026 O 645.686 -3.23507 7.35934 0
M  V30 7027 H 645.418 -0.535014 0.413203 0
M  V30 7028 H 647.972 -1.14645 1.70428 0
M  V30 7029 H 646.202 -3.66005 1.24808 0
M  V30 7030 H 647.891 -3.70185 1.66486 0
M  V30 7031 H 648.657 -2.78302 3.97206 0
M  V30 7032 H 644.536 -3.51212 2.98615 0
M  V30 7033 H 648.08 -2.83919 6.37209 0
M  V30 7034 H 643.977 -3.5707 5.37747 0
M  V30 7035 H 644.745 -3.3984 7.44615 0
M  V30 7036 N 647.408 -1.11026 -1.11852 0
M  V30 7037 C 648.655 -0.85646 -1.83497 0
M  V30 7038 C 648.983 0.617938 -1.84423 0
M  V30 7039 O 648.238 1.47194 -1.28966 0
M  V30 7040 C 648.537 -1.35777 -3.30604 0
M  V30 7041 C 648.203 -2.84465 -3.49843 0
M  V30 7042 C 646.865 -3.25068 -3.54802 0
M  V30 7043 C 649.217 -3.80251 -3.56453 0
M  V30 7044 C 646.545 -4.60194 -3.63921 0
M  V30 7045 C 648.897 -5.15188 -3.67102 0
M  V30 7046 C 647.561 -5.55356 -3.70319 0
M  V30 7047 H 646.831 -0.313401 -0.671462 0
M  V30 7048 H 649.478 -1.38792 -1.31943 0
M  V30 7049 H 647.783 -0.746455 -3.84624 0
M  V30 7050 H 649.48 -1.13779 -3.8452 0
M  V30 7051 H 646.07 -2.52054 -3.46651 0
M  V30 7052 H 650.254 -3.49986 -3.51886 0
M  V30 7053 H 645.51 -4.90728 -3.64686 0
M  V30 7054 H 649.684 -5.89248 -3.71159 0
M  V30 7055 H 647.311 -6.60054 -3.77138 0
M  V30 7056 N 648.886 1.2938 -0.899927 0
M  V30 7057 C 649.819 2.25911 -0.322386 0
M  V30 7058 C 650.797 1.52447 0.565567 0
M  V30 7059 O 651.981 1.81404 0.512324 0
M  V30 7060 C 649.108 3.3436 0.540455 0
M  V30 7061 C 648.154 4.25579 -0.280211 0
M  V30 7062 S 648.987 5.08526 -1.67814 0
M  V30 7063 C 650.143 6.20476 -0.822224 0
M  V30 7064 H 650.376 2.7455 -1.1406 0
M  V30 7065 H 647.909 1.37606 -0.700285 0
M  V30 7066 H 649.867 3.97303 1.0325 0
M  V30 7067 H 648.528 2.84416 1.33291 0
M  V30 7068 H 647.721 5.02574 0.378915 0
M  V30 7069 H 647.323 3.67287 -0.705405 0
M  V30 7070 H 649.615 6.77485 -0.0457138 0
M  V30 7071 H 650.558 6.90606 -1.56426 0
M  V30 7072 H 650.966 5.63243 -0.37651 0
M  V30 7073 N 650.364 0.662433 1.43002 0
M  V30 7074 C 651.611 0.179591 2.01702 0
M  V30 7075 C 651.939 -1.20964 1.52309 0
M  V30 7076 O 651.194 -1.82343 0.7106 0
M  V30 7077 C 651.493 0.149363 3.57088 0
M  V30 7078 C 651.159 1.48158 4.25864 0
M  V30 7079 C 649.821 1.84638 4.44367 0
M  V30 7080 C 652.173 2.35953 4.64732 0
M  V30 7081 C 649.501 3.08561 4.99006 0
M  V30 7082 C 651.853 3.59176 5.20745 0
M  V30 7083 C 650.517 3.95841 5.37463 0
M  V30 7084 H 649.787 0.0657172 0.73808 0
M  V30 7085 H 652.434 0.854968 1.71355 0
M  V30 7086 H 650.739 -0.609491 3.8703 0
M  V30 7087 H 652.436 -0.241241 4.00274 0
M  V30 7088 H 649.026 1.18777 4.11813 0
M  V30 7089 H 653.21 2.09058 4.50121 0
M  V30 7090 H 648.466 3.37005 5.10135 0
M  V30 7091 H 652.64 4.27417 5.49807 0
M  V30 7092 H 650.267 4.91942 5.79566 0
M  V30 7093 N 651.842 -1.52309 0.404946 0
M  V30 7094 C 653.253 -1.86585 -0.0655926 0
M  V30 7095 C 653.604 -1.3239 -1.44801 0
M  V30 7096 O 652.729 -0.6615 -2.06042 0
M  V30 7097 C 653.324 -3.38566 -0.125801 0
M  V30 7098 C 651.883 -3.72497 -0.540666 0
M  V30 7099 C 651.03 -2.75806 0.287487 0
M  V30 7100 H 653.981 -1.45995 0.622185 0
M  V30 7101 H 654.002 -3.68658 -0.941888 0
M  V30 7102 H 653.514 -3.77981 0.880473 0
M  V30 7103 H 651.615 -3.38659 -1.55373 0
M  V30 7104 H 651.728 -4.78234 -0.287956 0
M  V30 7105 H 650.092 -2.53474 -0.249561 0
M  V30 7106 H 650.875 -3.18059 1.29203 0
M  V30 7107 N 653.32 -0.135238 -1.57019 0
M  V30 7108 C 654.23 0.822226 -2.19719 0
M  V30 7109 C 655.246 1.28057 -1.17802 0
M  V30 7110 O 656.422 1.3402 -1.50335 0
M  V30 7111 C 653.487 2.0484 -2.79717 0
M  V30 7112 C 652.548 1.64042 -3.96723 0
M  V30 7113 C 651.781 2.80814 -4.53849 0
M  V30 7114 O 652.004 3.967 -4.0986 0
M  V30 7115 O 650.938 2.56963 -5.44292 0
M  V30 7116 H 654.764 0.318552 -3.02025 0
M  V30 7117 H 652.349 0.0912021 -1.49121 0
M  V30 7118 H 654.231 2.76622 -3.17897 0
M  V30 7119 H 652.906 2.54182 -2.00432 0
M  V30 7120 H 651.813 0.893182 -3.63281 0
M  V30 7121 H 653.146 1.19426 -4.77492 0
M  V30 7122 N 654.798 1.5699 0.138552 0
M  V30 7123 C 656.209 1.73171 0.697754 0
M  V30 7124 C 656.56 0.750952 1.8126 0
M  V30 7125 O 655.685 -0.080549 2.1625 0
M  V30 7126 C 656.28 3.13996 1.27248 0
M  V30 7127 C 654.839 3.3175 1.77816 0
M  V30 7128 C 653.986 2.69084 0.669991 0
M  V30 7129 H 656.937 1.5846 -0.0871979 0
M  V30 7130 H 656.958 3.14463 2.14227 0
M  V30 7131 H 656.47 3.85354 0.460855 0
M  V30 7132 H 654.571 2.65403 2.61519 0
M  V30 7133 H 654.684 4.39768 1.90107 0
M  V30 7134 H 653.048 2.29782 1.09874 0
M  V30 7135 H 653.831 3.43053 -0.130329 0
M  V30 7136 N 656.276 -0.40816 1.52223 0
M  V30 7137 C 657.223 -1.49737 1.75635 0
M  V30 7138 C 658.193 -1.5493 0.598824 0
M  V30 7139 O 659.378 -1.71487 0.83648 0
M  V30 7140 C 656.518 -2.87174 1.91376 0
M  V30 7141 C 655.631 -2.91283 3.19027 0
M  V30 7142 C 654.766 -4.20026 3.25195 0
M  V30 7143 C 653.805 -4.18113 4.47044 0
M  V30 7144 N 652.942 -5.38429 4.50598 0
M  V30 7145 H 657.782 -1.29075 2.68596 0
M  V30 7146 H 655.319 -0.626518 1.33091 0
M  V30 7147 H 657.277 -3.66959 1.98486 0
M  V30 7148 H 655.907 -3.06329 1.01795 0
M  V30 7149 H 654.959 -2.03984 3.21084 0
M  V30 7150 H 656.271 -2.85734 4.08849 0
M  V30 7151 H 655.425 -5.08204 3.31382 0
M  V30 7152 H 654.164 -4.28271 2.33313 0
M  V30 7153 H 653.169 -3.28325 4.41002 0
M  V30 7154 H 654.394 -4.11507 5.40221 0
M  V30 7155 H 652.34 -5.4734 3.616 0
M  V30 7156 H 652.257 -5.34879 5.34266 0
M  V30 7157 H 653.525 -6.28557 4.61016 0
M  V30 7158 N 657.755 -1.42862 -0.66545 0
M  V30 7159 C 658.983 -1.47246 -1.45349 0
M  V30 7160 C 659.398 -0.0865944 -1.88601 0
M  V30 7161 O 658.755 0.900652 -1.58728 0
M  V30 7162 C 658.806 -2.40772 -2.6965 0
M  V30 7163 O 658.527 -3.73968 -2.2821 0
M  V30 7164 C 660.028 -2.54272 -3.63126 0
M  V30 7165 H 657.248 -0.500497 -0.446927 0
M  V30 7166 H 659.792 -1.87477 -0.816871 0
M  V30 7167 H 657.947 -2.0377 -3.29479 0
M  V30 7168 H 658.361 -4.24146 -3.08546 0
M  V30 7169 H 659.835 -3.23815 -4.47043 0
M  V30 7170 H 660.312 -1.58364 -4.09656 0
M  V30 7171 H 660.918 -2.92036 -3.09185 0
M  V30 7172 N 659.233 0.902656 -1.29189 0
M  V30 7173 C 660.644 1.46809 -1.15343 0
M  V30 7174 C 660.995 1.94568 0.252517 0
M  V30 7175 O 660.12 1.83454 1.14777 0
M  V30 7176 C 660.715 2.66829 -2.08776 0
M  V30 7177 C 659.274 3.19518 -1.98961 0
M  V30 7178 C 658.421 1.92212 -1.99874 0
M  V30 7179 H 661.372 0.714282 -1.41717 0
M  V30 7180 H 661.393 3.42465 -1.65826 0
M  V30 7181 H 660.905 2.32039 -3.11094 0
M  V30 7182 H 659.006 3.59008 -0.99721 0
M  V30 7183 H 659.119 3.84016 -2.86477 0
M  V30 7184 H 657.483 2.0979 -1.44431 0
M  V30 7185 H 658.266 1.59702 -3.03891 0
M  V30 7186 N 660.711 1.11618 1.11262 0
M  V30 7187 C 661.957 0.867463 1.83311 0
M  V30 7188 C 662.29 -0.605366 1.84524 0
M  V30 7189 O 661.565 -1.44704 1.29965 0
M  V30 7190 C 661.848 1.43207 3.30399 0
M  V30 7191 C 661.701 2.97265 3.3757 0
M  V30 7192 C 663.02 1.08454 4.26528 0
M  V30 7193 H 660.139 0.316578 0.665543 0
M  V30 7194 H 662.781 1.38137 1.30454 0
M  V30 7195 H 660.931 0.994982 3.75543 0
M  V30 7196 H 662.603 3.49591 3.00971 0
M  V30 7197 H 660.846 3.33237 2.77733 0
M  V30 7198 H 661.517 3.31859 4.41105 0
M  V30 7199 H 663.993 1.4619 3.89574 0
M  V30 7200 H 662.869 1.50633 5.27826 0
M  V30 7201 H 663.13 -0.00444568 4.421 0
M  V30 7202 N 662.189 -1.289 0.906776 0
M  V30 7203 C 663.137 -2.29477 0.379873 0
M  V30 7204 C 664.131 -1.61068 -0.524747 0
M  V30 7205 O 665.337 -1.75344 -0.406765 0
M  V30 7206 H 661.712 -0.744742 0.10423 0
M  V30 7207 H 663.683 -2.71353 1.24137 0
M  V30 7208 C 662.432 -3.45713 -0.371154 0
M  V30 7209 H 661.755 -3.98551 0.315716 0
M  V30 7210 H 663.195 -4.18105 -0.704581 0
M  V30 7211 C 661.654 -2.9774 -1.57646 0
M  V30 7212 O 662.184 -2.99618 -2.67567 0
M  V30 7213 N 660.39 -2.53485 -1.42105 0
M  V30 7214 H 659.937 -2.52156 -0.526783 0
M  V30 7215 H 659.895 -2.21747 -2.22881 0
M  V30 7216 N 663.667 -0.670007 -1.42649 0
M  V30 7217 C 664.614 0.0112928 -2.30797 0
M  V30 7218 C 665.584 0.797627 -1.45695 0
M  V30 7219 O 666.769 0.770845 -1.74535 0
M  V30 7220 C 663.909 0.95998 -3.31479 0
M  V30 7221 C 663.022 0.167975 -4.31673 0
M  V30 7222 C 662.157 1.11198 -5.19431 0
M  V30 7223 C 661.196 0.311381 -6.11307 0
M  V30 7224 N 660.333 1.20784 -6.91633 0
M  V30 7225 H 665.173 -0.746231 -2.88505 0
M  V30 7226 H 662.71 -0.379739 -1.42114 0
M  V30 7227 H 664.668 1.52379 -3.88377 0
M  V30 7228 H 663.298 1.68419 -2.75382 0
M  V30 7229 H 662.35 -0.512385 -3.76933 0
M  V30 7230 H 663.662 -0.453814 -4.96731 0
M  V30 7231 H 662.816 1.74587 -5.81037 0
M  V30 7232 H 661.555 1.76766 -4.54538 0
M  V30 7233 H 660.56 -0.335758 -5.48774 0
M  V30 7234 H 661.785 -0.340135 -6.78248 0
M  V30 7235 H 659.731 1.85001 -6.29373 0
M  V30 7236 H 659.648 0.64102 -7.53277 0
M  V30 7237 H 660.916 1.82936 -7.5773 0
M  V30 7238 N 665.145 1.52092 -0.413018 0
M  V30 7239 C 666.093 2.28681 0.425199 0
M  V30 7240 C 667.087 1.3353 1.04241 0
M  V30 7241 O 668.293 1.50973 0.980166 0
M  V30 7242 H 664.668 0.735661 0.155906 0
M  V30 7243 H 666.639 2.97418 -0.241926 0
M  V30 7244 C 665.388 3.1235 1.5275 0
M  V30 7245 H 664.711 3.85439 1.06191 0
M  V30 7246 H 666.151 3.69038 2.08774 0
M  V30 7247 C 664.61 2.26161 2.49706 0
M  V30 7248 O 665.14 1.90452 3.53682 0
M  V30 7249 N 663.346 1.89854 2.20008 0
M  V30 7250 H 662.893 2.19092 1.35486 0
M  V30 7251 H 662.851 1.3248 2.85125 0
M  V30 7252 N 666.623 0.143563 1.56945 0
M  V30 7253 C 667.555 -0.828353 2.13708 0
M  V30 7254 C 668.568 -1.21313 1.08568 0
M  V30 7255 O 669.757 -1.1578 1.35857 0
M  V30 7256 C 666.857 -2.12248 2.64204 0
M  V30 7257 C 666.03 -1.90561 3.93707 0
M  V30 7258 C 665.089 -3.03931 4.29549 0
M  V30 7259 O 664.115 -2.75772 4.97934 0
M  V30 7260 N 665.317 -4.31016 3.88852 0
M  V30 7261 H 668.082 -0.343242 2.97728 0
M  V30 7262 H 665.643 -0.0401152 1.6185 0
M  V30 7263 H 667.635 -2.87132 2.85197 0
M  V30 7264 H 666.205 -2.52033 1.84928 0
M  V30 7265 H 665.425 -0.997327 3.81375 0
M  V30 7266 H 666.713 -1.73405 4.78339 0
M  V30 7267 H 666.111 -4.56762 3.33743 0
M  V30 7268 H 664.668 -5.02691 4.14903 0
M  V30 7269 N 668.101 -1.57061 -0.130224 0
M  V30 7270 C 669.051 -1.95941 -1.16582 0
M  V30 7271 C 670.035 -0.832858 -1.37667 0
M  V30 7272 O 671.227 -1.09647 -1.38948 0
M  V30 7273 C 668.356 -2.35777 -2.49528 0
M  V30 7274 C 667.442 -3.5504 -2.31964 0
M  V30 7275 N 667.833 -4.71071 -1.84189 0
M  V30 7276 C 666.131 -3.60453 -2.62659 0
M  V30 7277 C 666.832 -5.53128 -1.80068 0
M  V30 7278 N 665.808 -4.95303 -2.24001 0
M  V30 7279 H 669.61 -2.83117 -0.788806 0
M  V30 7280 H 667.124 -1.58842 -0.3381 0
M  V30 7281 H 669.121 -2.61843 -3.24413 0
M  V30 7282 H 667.781 -1.49961 -2.87996 0
M  V30 7283 H 668.792 -4.94504 -1.53903 0
M  V30 7284 H 665.469 -2.85217 -3.0489 0
M  V30 7285 H 666.859 -6.56182 -1.4448 0
M  V30 7286 N 669.579 0.400081 -1.52437 0
M  V30 7287 C 670.526 1.48803 -1.76426 0
M  V30 7288 C 671.496 1.5461 -0.607032 0
M  V30 7289 O 672.681 1.71041 -0.845563 0
M  V30 7290 C 669.821 2.86156 -1.92896 0
M  V30 7291 C 668.934 2.89587 -3.20567 0
M  V30 7292 C 668.069 4.18296 -3.27417 0
M  V30 7293 C 667.108 4.15736 -4.49255 0
M  V30 7294 N 666.245 5.36032 -4.53447 0
M  V30 7295 H 671.085 1.27649 -2.69276 0
M  V30 7296 H 668.622 0.619451 -1.33421 0
M  V30 7297 H 670.58 3.65901 -2.00429 0
M  V30 7298 H 669.21 3.05785 -1.03418 0
M  V30 7299 H 668.262 2.02278 -3.22161 0
M  V30 7300 H 669.574 2.83562 -4.10358 0
M  V30 7301 H 668.728 5.06439 -3.34072 0
M  V30 7302 H 667.467 4.27028 -2.35581 0
M  V30 7303 H 666.472 3.25982 -4.42737 0
M  V30 7304 H 667.697 4.08636 -5.42396 0
M  V30 7305 H 665.643 5.45415 -3.64498 0
M  V30 7306 H 665.56 5.32038 -5.37096 0
M  V30 7307 H 666.828 6.26104 -4.64343 0
M  V30 7308 N 671.057 1.43213 0.657864 0
M  V30 7309 C 672.473 1.26511 0.972992 0
M  V30 7310 C 672.673 0.181477 2.00681 0
M  V30 7311 O 671.729 -0.441649 2.48608 0
M  V30 7312 C 673.042 2.62784 1.46168 0
M  V30 7313 C 674.59 2.70278 1.57857 0
M  V30 7314 C 675.065 4.06958 2.10117 0
M  V30 7315 N 676.556 4.08999 2.17426 0
M  V30 7316 C 677.291 5.11585 2.58975 0
M  V30 7317 N 676.787 6.24548 2.99853 0
M  V30 7318 N 678.58 4.9894 2.58873 0
M  V30 7319 H 670.731 2.12384 -0.0263129 0
M  V30 7320 H 672.994 0.946638 0.0507992 0
M  V30 7321 H 672.7 3.43022 0.776474 0
M  V30 7322 H 672.574 2.87863 2.43751 0
M  V30 7323 H 674.961 1.90376 2.25479 0
M  V30 7324 H 675.042 2.4897 0.587179 0
M  V30 7325 H 674.686 4.87325 1.43098 0
M  V30 7326 H 674.616 4.25628 3.10078 0
M  V30 7327 H 677.107 3.27457 1.88627 0
M  V30 7328 H 677.42 6.98661 3.30292 0
M  V30 7329 H 675.765 6.28027 2.97669 0
M  V30 7330 H 678.956 4.09757 2.26311 0
M  V30 7331 H 679.129 5.79019 2.90932 0
M  V30 7332 N 672.536 -0.895792 1.29666 0
M  V30 7333 C 673.446 -2.03329 1.17024 0
M  V30 7334 C 674.462 -1.73753 0.0925962 0
M  V30 7335 O 675.638 -1.99071 0.305431 0
M  V30 7336 C 672.703 -3.36072 0.851841 0
M  V30 7337 C 671.764 -3.7914 2.01373 0
M  V30 7338 C 670.997 -5.05549 1.71043 0
M  V30 7339 O 671.22 -5.66874 0.633213 0
M  V30 7340 O 670.154 -5.44764 2.5596 0
M  V30 7341 H 673.98 -2.16918 2.12556 0
M  V30 7342 H 671.565 -1.02007 1.09156 0
M  V30 7343 H 673.447 -4.15729 0.689006 0
M  V30 7344 H 672.122 -3.23616 -0.0736634 0
M  V30 7345 H 671.029 -3.00233 2.23183 0
M  V30 7346 H 672.362 -3.96186 2.92058 0
M  V30 7347 N 674.014 -1.12206 -1.10668 0
M  V30 7348 C 675.263 -0.870595 -1.81944 0
M  V30 7349 C 675.576 0.605447 -1.85994 0
M  V30 7350 O 676.782 0.973433 -2.53449 0
M  V30 7351 C 675.238 -1.50783 -3.26791 0
M  V30 7352 C 674.846 -3.01849 -3.31046 0
M  V30 7353 C 676.59 -1.33653 -4.02911 0
M  V30 7354 C 674.497 -3.58518 -4.70339 0
M  V30 7355 H 673.427 -0.322043 -0.681765 0
M  V30 7356 H 676.078 -1.34827 -1.24475 0
M  V30 7357 H 674.46 -0.957825 -3.84242 0
M  V30 7358 H 675.634 -3.63321 -2.83433 0
M  V30 7359 H 673.949 -3.18346 -2.68411 0
M  V30 7360 H 676.546 -1.73416 -5.05797 0
M  V30 7361 H 676.889 -0.279949 -4.15358 0
M  V30 7362 H 677.422 -1.85562 -3.51868 0
M  V30 7363 H 674.161 -4.63925 -4.63091 0
M  V30 7364 H 673.681 -3.01819 -5.18329 0
M  V30 7365 H 675.36 -3.57434 -5.39305 0
M  V30 7366 N 675.492 1.28418 -0.913599 0
M  V30 7367 C 676.422 2.29713 -0.418847 0
M  V30 7368 C 677.403 1.62165 0.513469 0
M  V30 7369 O 678.588 1.89576 0.421235 0
M  V30 7370 C 675.718 3.45612 0.342042 0
M  V30 7371 C 674.672 4.25056 -0.501123 0
M  V30 7372 C 673.998 5.3329 0.388097 0
M  V30 7373 C 675.298 4.91814 -1.75831 0
M  V30 7374 H 676.992 2.71346 -1.26538 0
M  V30 7375 H 674.538 1.30446 -0.609903 0
M  V30 7376 H 676.491 4.15562 0.699 0
M  V30 7377 H 675.215 3.02858 1.22248 0
M  V30 7378 H 673.874 3.56833 -0.840598 0
M  V30 7379 H 673.522 4.8678 1.26707 0
M  V30 7380 H 673.222 5.87347 -0.172459 0
M  V30 7381 H 674.746 6.06088 0.74094 0
M  V30 7382 H 676.16 5.54126 -1.47026 0
M  V30 7383 H 674.557 5.55866 -2.26126 0
M  V30 7384 H 675.627 4.16313 -2.4862 0
M  V30 7385 N 676.97 0.677563 1.42291 0
M  V30 7386 C 678.198 0.209459 2.05837 0
M  V30 7387 C 678.613 -1.13444 1.50917 0
M  V30 7388 O 677.97 -1.70529 0.65008 0
M  V30 7389 C 678.021 0.138819 3.61233 0
M  V30 7390 O 677.742 1.42962 4.14118 0
M  V30 7391 C 679.243 -0.352449 4.41897 0
M  V30 7392 H 676.463 0.101209 0.663323 0
M  V30 7393 H 679.007 0.925077 1.8238 0
M  V30 7394 H 677.162 -0.527505 3.83792 0
M  V30 7395 H 677.576 1.3048 5.08011 0
M  V30 7396 H 679.05 -0.350778 5.50884 0
M  V30 7397 H 679.527 -1.3882 4.16684 0
M  V30 7398 H 680.133 0.282236 4.24362 0
M  V30 7399 N 678.448 -1.51871 0.421078 0
M  V30 7400 C 679.676 -2.06356 -0.14994 0
M  V30 7401 C 680.091 -1.29006 -1.37851 0
M  V30 7402 O 679.448 -0.345139 -1.79207 0
M  V30 7403 C 679.499 -3.58185 -0.488454 0
M  V30 7404 O 679.22 -4.32611 0.691341 0
M  V30 7405 C 680.721 -4.29129 -1.11191 0
M  V30 7406 H 677.941 -0.67083 -0.0151186 0
M  V30 7407 H 680.485 -1.95638 0.595476 0
M  V30 7408 H 678.64 -3.68871 -1.18376 0
M  V30 7409 H 679.054 -5.22927 0.405906 0
M  V30 7410 H 680.528 -5.36501 -1.29889 0
M  V30 7411 H 681.005 -3.86371 -2.0884 0
M  V30 7412 H 681.611 -4.22843 -0.456458 0
M  V30 7413 N 679.926 -0.151884 -1.56866 0
M  V30 7414 C 681.337 0.368128 -1.83035 0
M  V30 7415 C 681.688 1.64402 -1.07082 0
M  V30 7416 O 680.813 2.14056 -0.317647 0
M  V30 7417 C 681.408 0.674676 -3.32014 0
M  V30 7418 C 679.967 1.13919 -3.58747 0
M  V30 7419 C 679.114 0.164833 -2.7681 0
M  V30 7420 H 682.065 -0.376499 -1.54169 0
M  V30 7421 H 682.086 1.52883 -3.48435 0
M  V30 7422 H 681.598 -0.254113 -3.87267 0
M  V30 7423 H 679.699 2.08375 -3.08886 0
M  V30 7424 H 679.812 1.06179 -4.67186 0
M  V30 7425 H 678.176 0.658419 -2.46043 0
M  V30 7426 H 678.959 -0.757633 -3.34836 0
M  V30 7427 N 681.404 1.57128 0.121893 0
M  V30 7428 C 682.352 2.01109 1.16868 0
M  V30 7429 C 683.346 0.907532 1.43039 0
M  V30 7430 O 684.552 1.09274 1.43036 0
M  V30 7431 H 680.927 0.640539 0.393971 0
M  V30 7432 H 682.898 2.88261 0.771224 0
M  V30 7433 C 681.647 2.42887 2.48799 0
M  V30 7434 H 680.97 3.2737 2.29498 0
M  V30 7435 H 682.41 2.77461 3.20611 0
M  V30 7436 C 680.869 1.29137 3.11168 0
M  V30 7437 O 681.399 0.605756 3.97106 0
M  V30 7438 N 679.605 1.04916 2.71 0
M  V30 7439 H 679.152 1.60848 2.01211 0
M  V30 7440 H 679.11 0.290016 3.1306 0
M  V30 7441 N 682.882 -0.391992 1.52647 0
M  V30 7442 C 684.298 -0.731848 1.41831 0
M  V30 7443 C 684.498 -1.9423 0.536361 0
M  V30 7444 O 683.554 -2.52499 0.00866571 0
M  V30 7445 C 684.867 -0.969743 2.84634 0
M  V30 7446 C 686.415 -1.0714 2.94092 0
M  V30 7447 C 686.89 -1.34195 4.37899 0
M  V30 7448 N 688.381 -1.41023 4.41211 0
M  V30 7449 C 689.116 -1.63616 5.49561 0
M  V30 7450 N 688.612 -1.83699 6.68002 0
M  V30 7451 N 690.405 -1.65771 5.371 0
M  V30 7452 H 682.556 0.404547 2.08512 0
M  V30 7453 H 684.819 0.11879 0.940528 0
M  V30 7454 H 684.525 -0.152465 3.51369 0
M  V30 7455 H 684.399 -1.88523 3.26709 0
M  V30 7456 H 686.786 -1.87925 2.27526 0
M  V30 7457 H 686.867 -0.133887 2.55449 0
M  V30 7458 H 686.511 -0.539207 5.0503 0
M  V30 7459 H 686.441 -2.29226 4.74092 0
M  V30 7460 H 688.932 -1.27223 3.55841 0
M  V30 7461 H 689.245 -2.00437 7.46354 0
M  V30 7462 H 687.59 -1.8093 6.71036 0
M  V30 7463 H 690.781 -1.4963 4.43541 0
M  V30 7464 H 690.954 -1.83038 6.21612 0
M  V30 7465 N 684.36 -1.4356 -0.65026 0
M  V30 7466 C 685.59 -1.48563 -1.4357 0
M  V30 7467 C 685.998 -0.103041 -1.88919 0
M  V30 7468 O 685.341 0.897602 -1.60277 0
M  V30 7469 C 685.403 -2.37181 -2.70158 0
M  V30 7470 C 685.067 -3.84673 -2.4673 0
M  V30 7471 C 686.064 -4.75704 -2.09765 0
M  V30 7472 C 683.749 -4.29189 -2.60963 0
M  V30 7473 C 685.743 -6.09249 -1.87334 0
M  V30 7474 C 683.43 -5.62787 -2.38147 0
M  V30 7475 C 684.428 -6.52634 -2.01389 0
M  V30 7476 O 684.116 -7.83761 -1.78813 0
M  V30 7477 H 683.848 -0.506743 -0.447423 0
M  V30 7478 H 686.402 -1.89001 -0.80423 0
M  V30 7479 H 684.632 -1.91636 -3.35876 0
M  V30 7480 H 686.321 -2.33354 -3.32116 0
M  V30 7481 H 687.087 -4.42589 -1.98343 0
M  V30 7482 H 682.966 -3.59529 -2.88548 0
M  V30 7483 H 686.51 -6.7934 -1.58567 0
M  V30 7484 H 682.407 -5.95469 -2.49173 0
M  V30 7485 H 683.175 -7.95368 -1.93214 0
M  V30 7486 N 685.838 0.888903 -1.30139 0
M  V30 7487 C 687.066 1.67358 -1.21651 0
M  V30 7488 C 687.481 1.87499 0.221246 0
M  V30 7489 O 686.838 1.41969 1.14677 0
M  V30 7490 C 686.889 3.05213 -1.93719 0
M  V30 7491 O 686.61 2.85984 -3.31881 0
M  V30 7492 C 688.111 3.9964 -1.9184 0
M  V30 7493 H 685.331 0.522365 -0.42116 0
M  V30 7494 H 687.875 1.11086 -1.71698 0
M  V30 7495 H 686.03 3.5823 -1.4748 0
M  V30 7496 H 686.444 3.73411 -3.68327 0
M  V30 7497 H 687.918 4.93749 -2.46811 0
M  V30 7498 H 688.395 4.29955 -0.896409 0
M  V30 7499 H 689.001 3.52558 -2.37872 0
M  V30 7500 N 687.317 1.12792 1.10072 0
M  V30 7501 C 688.545 0.908506 1.85886 0
M  V30 7502 C 688.96 -0.542408 1.80841 0
M  V30 7503 O 688.317 -1.37517 1.1998 0
M  V30 7504 C 688.368 1.37973 3.34134 0
M  V30 7505 O 688.089 2.77378 3.39106 0
M  V30 7506 C 689.59 1.1978 4.26811 0
M  V30 7507 H 686.81 0.3244 0.587372 0
M  V30 7508 H 689.354 1.49882 1.39125 0
M  V30 7509 H 687.509 0.832566 3.78348 0
M  V30 7510 H 687.923 2.98144 4.31521 0
M  V30 7511 H 689.397 1.57635 5.29014 0
M  V30 7512 H 689.874 0.138768 4.38981 0
M  V30 7513 H 690.48 1.73266 3.88406 0
M  V30 7514 N 688.795 -1.27931 0.920396 0
M  V30 7515 C 690.206 -1.76707 0.602616 0
M  V30 7516 C 690.557 -1.75249 -0.882159 0
M  V30 7517 O 689.682 -1.35135 -1.69019 0
M  V30 7518 C 690.277 -3.20884 1.08714 0
M  V30 7519 C 688.836 -3.67356 0.820157 0
M  V30 7520 C 687.983 -2.47525 1.25006 0
M  V30 7521 H 690.934 -1.14301 1.10095 0
M  V30 7522 H 690.955 -3.78045 0.431535 0
M  V30 7523 H 690.467 -3.21913 2.1678 0
M  V30 7524 H 688.568 -3.7178 -0.247012 0
M  V30 7525 H 688.681 -4.57181 1.43257 0
M  V30 7526 H 687.045 -2.45765 0.668698 0
M  V30 7527 H 687.828 -2.51269 2.3392 0
M  V30 7528 N 690.273 -0.685099 -1.4193 0
M  V30 7529 C 691.498 -0.218842 -2.06242 0
M  V30 7530 C 691.923 1.11923 -1.51178 0
M  V30 7531 O 691.281 1.69837 -0.634446 0
M  V30 7532 C 691.329 -0.175592 -3.60172 0
M  V30 7533 O 690.433 0.852776 -4.03487 0
M  V30 7534 H 689.774 -0.109531 -0.654904 0
M  V30 7535 H 692.304 -0.937013 -1.81882 0
M  V30 7536 H 692.314 -0.00291151 -4.08 0
M  V30 7537 H 690.989 -1.15222 -3.99621 0
M  V30 7538 H 689.566 0.650301 -3.67186 0
M  V30 7539 N 691.751 1.51645 -0.429126 0
M  V30 7540 C 692.698 2.27542 0.386446 0
M  V30 7541 C 693.668 1.30786 1.02393 0
M  V30 7542 O 694.853 1.59678 1.0444 0
M  V30 7543 C 691.993 3.11457 1.48623 0
M  V30 7544 C 691.106 4.23196 0.867691 0
M  V30 7545 C 690.241 4.94435 1.94183 0
M  V30 7546 C 689.28 5.98108 1.30129 0
M  V30 7547 N 688.417 6.62786 2.31644 0
M  V30 7548 H 693.257 2.968 -0.267155 0
M  V30 7549 H 690.794 1.46397 -0.143591 0
M  V30 7550 H 692.752 3.58429 2.13506 0
M  V30 7551 H 691.382 2.44329 2.10957 0
M  V30 7552 H 690.434 3.80248 0.107373 0
M  V30 7553 H 691.746 4.97499 0.35997 0
M  V30 7554 H 690.9 5.44914 2.66747 0
M  V30 7555 H 689.639 4.19744 2.48326 0
M  V30 7556 H 688.644 5.4693 0.561082 0
M  V30 7557 H 689.869 6.74751 0.767303 0
M  V30 7558 H 687.815 5.90913 2.84883 0
M  V30 7559 H 687.732 7.32828 1.85741 0
M  V30 7560 H 689 7.17897 3.03717 0
M  V30 7561 N 693.229 0.160201 1.56784 0
M  V30 7562 C 694.192 -0.760405 2.16219 0
M  V30 7563 C 695.192 -1.16595 1.10735 0
M  V30 7564 O 696.382 -1.08472 1.36306 0
M  V30 7565 C 693.514 -2.03358 2.73603 0
M  V30 7566 H 694.707 -0.243173 2.98912 0
M  V30 7567 H 692.26 -0.0893139 1.56045 0
M  V30 7568 H 692.995 -2.59416 1.94612 0
M  V30 7569 H 692.78 -1.75186 3.50788 0
M  V30 7570 H 694.27 -2.69081 3.19351 0
M  V30 7571 N 694.707 -1.5719 -0.113559 0
M  V30 7572 C 696.123 -1.52607 -0.467253 0
M  V30 7573 C 696.323 -0.874058 -1.81556 0
M  V30 7574 O 695.379 -0.458703 -2.48299 0
M  V30 7575 C 696.692 -2.97363 -0.446736 0
M  V30 7576 C 698.24 -3.08482 -0.529903 0
M  V30 7577 C 698.715 -4.54809 -0.539721 0
M  V30 7578 N 700.206 -4.59284 -0.601005 0
M  V30 7579 C 700.941 -5.69927 -0.630138 0
M  V30 7580 N 700.437 -6.90051 -0.616589 0
M  V30 7581 N 702.23 -5.5805 -0.673558 0
M  V30 7582 H 694.381 -1.97958 0.769819 0
M  V30 7583 H 696.644 -0.90428 0.284572 0
M  V30 7584 H 696.35 -3.48458 0.47643 0
M  V30 7585 H 696.224 -3.55086 -1.27254 0
M  V30 7586 H 698.611 -2.57386 -1.44349 0
M  V30 7587 H 698.692 -2.53744 0.323695 0
M  V30 7588 H 698.336 -5.06552 0.369843 0
M  V30 7589 H 698.266 -5.07364 -1.41028 0
M  V30 7590 H 700.757 -3.72822 -0.617419 0
M  V30 7591 H 701.07 -7.70132 -0.641592 0
M  V30 7592 H 699.415 -6.92543 -0.583927 0
M  V30 7593 H 702.606 -4.63112 -0.681544 0
M  V30 7594 H 702.779 -6.44286 -0.692794 0
M  V30 7595 N 696.185 0.383891 -1.52853 0
M  V30 7596 C 697.133 1.48965 -1.7864 0
M  V30 7597 C 698.127 1.56242 -0.654577 0
M  V30 7598 O 699.333 1.59347 -0.83716 0
M  V30 7599 H 695.708 0.495892 -0.565328 0
M  V30 7600 H 697.679 1.24411 -2.71228 0
M  V30 7601 C 696.428 2.86036 -1.97683 0
M  V30 7602 H 695.751 2.81188 -2.84206 0
M  V30 7603 H 697.191 3.62632 -2.19713 0
M  V30 7604 C 695.65 3.28428 -0.750776 0
M  V30 7605 O 696.18 4.0164 0.0693491 0
M  V30 7606 N 694.386 2.84765 -0.579427 0
M  V30 7607 H 693.933 2.25353 -1.24795 0
M  V30 7608 H 693.891 3.13486 0.239544 0
M  V30 7609 N 697.663 1.43903 0.642637 0
M  V30 7610 C 698.595 1.45857 1.768 0
M  V30 7611 C 699.608 0.353358 1.58919 0
M  V30 7612 O 700.797 0.618426 1.67445 0
M  V30 7613 C 697.897 1.26583 3.14372 0
M  V30 7614 C 697.07 2.50139 3.58817 0
M  V30 7615 C 696.129 2.25933 4.75227 0
M  V30 7616 O 695.155 2.99351 4.84125 0
M  V30 7617 N 696.357 1.28263 5.66153 0
M  V30 7618 H 699.122 2.42869 1.75598 0
M  V30 7619 H 696.683 1.39194 0.826832 0
M  V30 7620 H 698.675 1.08255 3.89953 0
M  V30 7621 H 697.245 0.37978 3.10284 0
M  V30 7622 H 696.465 2.83821 2.73568 0
M  V30 7623 H 697.753 3.32344 3.8526 0
M  V30 7624 H 697.151 0.676041 5.61646 0
M  V30 7625 H 695.708 1.15916 6.4141 0
M  V30 7626 N 699.141 -0.881989 1.30609 0
M  V30 7627 C 700.381 -1.64817 1.20891 0
M  V30 7628 C 700.745 -1.90593 -0.232043 0
M  V30 7629 O 701.946 -2.64964 -0.452516 0
M  V30 7630 C 700.217 -2.95006 2.01758 0
M  V30 7631 S 701.776 -3.85953 2.08771 0
M  V30 7632 H 698.594 -0.565651 0.430767 0
M  V30 7633 H 701.196 -1.04665 1.65122 0
M  V30 7634 H 699.9 -2.73973 3.0556 0
M  V30 7635 H 699.431 -3.60189 1.582 0
M  V30 7636 H 701.446 -4.81037 1.21727 0
M  V30 7637 N 700.619 -1.13374 -1.09472 0
M  V30 7638 C 701.549 -0.833268 -2.18126 0
M  V30 7639 C 702.53 0.207169 -1.68834 0
M  V30 7640 O 703.715 0.0662012 -1.94087 0
M  V30 7641 C 700.845 -0.297979 -3.46019 0
M  V30 7642 C 699.799 -1.27261 -4.08642 0
M  V30 7643 C 699.125 -0.597104 -5.31356 0
M  V30 7644 C 700.425 -2.63095 -4.51197 0
M  V30 7645 H 702.119 -1.74182 -2.43518 0
M  V30 7646 H 699.665 -0.838921 -1.17039 0
M  V30 7647 H 701.618 -0.0754444 -4.21332 0
M  V30 7648 H 700.342 0.645959 -3.20148 0
M  V30 7649 H 699.001 -1.48113 -3.35348 0
M  V30 7650 H 698.649 0.352293 -5.01765 0
M  V30 7651 H 698.349 -1.24734 -5.74208 0
M  V30 7652 H 699.873 -0.38384 -6.09392 0
M  V30 7653 H 701.287 -2.46214 -5.17737 0
M  V30 7654 H 699.684 -3.2429 -5.04932 0
M  V30 7655 H 700.754 -3.20793 -3.6362 0
M  V30 7656 N 702.098 1.27442 -0.927168 0
M  V30 7657 C 703.045 2.26863 -0.424459 0
M  V30 7658 C 704.015 1.5813 0.508346 0
M  V30 7659 O 705.2 1.85946 0.42762 0
M  V30 7660 C 702.34 3.43639 0.31718 0
M  V30 7661 C 701.453 4.27087 -0.649675 0
M  V30 7662 C 700.588 5.31082 0.111753 0
M  V30 7663 C 699.627 6.062 -0.847843 0
M  V30 7664 N 698.764 7.01999 -0.119074 0
M  V30 7665 H 703.604 2.69239 -1.27728 0
M  V30 7666 H 701.141 1.32394 -0.641106 0
M  V30 7667 H 703.099 4.10155 0.763486 0
M  V30 7668 H 701.729 3.02217 1.13424 0
M  V30 7669 H 700.781 3.60491 -1.21451 0
M  V30 7670 H 702.093 4.79242 -1.38307 0
M  V30 7671 H 701.247 6.03544 0.618 0
M  V30 7672 H 699.986 4.7973 0.878114 0
M  V30 7673 H 698.991 5.32577 -1.36534 0
M  V30 7674 H 700.216 6.59642 -1.61398 0
M  V30 7675 H 698.162 6.52977 0.629051 0
M  V30 7676 H 698.079 7.5184 -0.792046 0
M  V30 7677 H 699.347 7.78638 0.366537 0
M  V30 7678 N 703.576 0.692616 1.41565 0
M  V30 7679 C 704.486 0.0258451 2.34586 0
M  V30 7680 C 705.502 -0.769324 1.56069 0
M  V30 7681 O 706.678 -0.707563 1.88562 0
M  V30 7682 C 703.743 -0.901289 3.3478 0
M  V30 7683 C 702.804 -0.0986579 4.29187 0
M  V30 7684 C 702.037 -0.981634 5.24595 0
M  V30 7685 O 702.26 -2.22115 5.25377 0
M  V30 7686 O 701.194 -0.432892 6.00341 0
M  V30 7687 H 705.02 0.792537 2.93177 0
M  V30 7688 H 702.605 0.452935 1.42369 0
M  V30 7689 H 704.487 -1.43302 3.96286 0
M  V30 7690 H 703.162 -1.64752 2.78637 0
M  V30 7691 H 702.069 0.477604 3.71039 0
M  V30 7692 H 703.402 0.608848 4.8842 0
M  V30 7693 N 705.054 -1.51416 0.437162 0
M  V30 7694 C 706.282 -2.06503 -0.128045 0
M  V30 7695 C 706.697 -1.30461 -1.36475 0
M  V30 7696 O 706.054 -0.364127 -1.78831 0
M  V30 7697 C 706.105 -3.58683 -0.450437 0
M  V30 7698 O 705.826 -4.31853 0.737186 0
M  V30 7699 C 707.327 -4.30284 -1.06633 0
M  V30 7700 H 704.547 -0.670952 -0.00800269 0
M  V30 7701 H 707.091 -1.94996 0.616193 0
M  V30 7702 H 705.246 -3.70106 -1.14457 0
M  V30 7703 H 705.66 -5.22467 0.461347 0
M  V30 7704 H 707.134 -5.37848 -1.24191 0
M  V30 7705 H 707.611 -3.88564 -2.0473 0
M  V30 7706 H 708.217 -4.23304 -0.411585 0
M  V30 7707 N 706.532 -0.168513 -1.56696 0
M  V30 7708 C 707.943 0.348694 -1.83415 0
M  V30 7709 C 708.294 1.63257 -1.0882 0
M  V30 7710 O 707.419 2.13707 -0.340333 0
M  V30 7711 C 708.014 0.639423 -3.32711 0
M  V30 7712 C 706.573 1.10108 -3.59935 0
M  V30 7713 C 705.72 0.135464 -2.76969 0
M  V30 7714 H 708.671 -0.392829 -1.53761 0
M  V30 7715 H 708.692 1.49179 -3.50037 0
M  V30 7716 H 708.204 -0.295173 -3.86976 0
M  V30 7717 H 706.305 2.05088 -3.11079 0
M  V30 7718 H 706.418 1.01218 -4.68286 0
M  V30 7719 H 704.782 0.632286 -2.46727 0
M  V30 7720 H 705.565 -0.793104 -3.34013 0
M  V30 7721 N 708.01 1.57248 0.105221 0
M  V30 7722 C 709.259 1.84756 0.809198 0
M  V30 7723 C 709.572 0.756262 1.80389 0
M  V30 7724 O 710.778 0.918158 2.55504 0
M  V30 7725 C 709.234 3.27613 1.48989 0
M  V30 7726 C 708.842 4.44788 0.535484 0
M  V30 7727 C 710.586 3.64356 2.17819 0
M  V30 7728 C 708.493 5.78676 1.22019 0
M  V30 7729 H 707.423 0.689139 0.305946 0
M  V30 7730 H 710.074 1.83395 0.0620371 0
M  V30 7731 H 708.456 3.23485 2.28415 0
M  V30 7732 H 709.63 4.60243 -0.226557 0
M  V30 7733 H 707.945 4.16374 -0.0465769 0
M  V30 7734 H 710.542 4.61663 2.69761 0
M  V30 7735 H 710.885 2.92474 2.96251 0
M  V30 7736 H 711.418 3.70328 1.45264 0
M  V30 7737 H 708.157 6.53763 0.476875 0
M  V30 7738 H 707.677 5.67083 1.9539 0
M  V30 7739 H 709.356 6.22897 1.74952 0
M  V30 7740 N 709.488 -0.375779 1.53054 0
M  V30 7741 C 710.435 -1.45978 1.78771 0
M  V30 7742 C 711.405 -1.53625 0.631552 0
M  V30 7743 O 712.59 -1.69674 0.872667 0
M  V30 7744 C 709.73 -2.8305 1.97425 0
M  V30 7745 C 708.843 -2.84451 3.25134 0
M  V30 7746 C 707.978 -4.13034 3.34031 0
M  V30 7747 C 707.017 -4.08536 4.55812 0
M  V30 7748 N 706.154 -5.2875 4.61918 0
M  V30 7749 H 710.994 -1.23349 2.71273 0
M  V30 7750 H 708.531 -0.598147 1.3439 0
M  V30 7751 H 710.489 -3.62666 2.06225 0
M  V30 7752 H 709.119 -3.04101 1.0827 0
M  V30 7753 H 708.171 -1.97127 3.25338 0
M  V30 7754 H 709.483 -2.76998 4.14818 0
M  V30 7755 H 708.637 -5.0106 3.42087 0
M  V30 7756 H 707.376 -4.23226 2.42345 0
M  V30 7757 H 706.381 -3.18897 4.47867 0
M  V30 7758 H 707.606 -3.99955 5.48828 0
M  V30 7759 H 705.552 -5.39547 3.73129 0
M  V30 7760 H 705.469 -5.23426 5.45492 0
M  V30 7761 H 706.737 -6.18637 4.74245 0
M  V30 7762 N 710.966 -1.44241 -0.634997 0
M  V30 7763 C 712.215 -1.46102 -1.39058 0
M  V30 7764 C 712.528 -0.0959909 -1.95364 0
M  V30 7765 O 713.734 0.00788751 -2.71499 0
M  V30 7766 C 712.19 -2.57195 -2.51751 0
M  V30 7767 C 711.798 -3.99888 -2.01974 0
M  V30 7768 C 713.542 -2.68272 -3.28984 0
M  V30 7769 C 711.449 -5.02412 -3.11987 0
M  V30 7770 H 710.379 -0.543556 -0.522554 0
M  V30 7771 H 713.03 -1.70294 -0.683538 0
M  V30 7772 H 711.412 -2.26237 -3.25012 0
M  V30 7773 H 712.586 -4.40396 -1.35604 0
M  V30 7774 H 710.901 -3.93019 -1.37568 0
M  V30 7775 H 713.498 -3.42042 -4.10988 0
M  V30 7776 H 713.841 -1.73957 -3.78212 0
M  V30 7777 H 714.374 -2.98622 -2.62812 0
M  V30 7778 H 711.113 -5.98342 -2.67707 0
M  V30 7779 H 710.633 -4.66501 -3.77011 0
M  V30 7780 H 712.312 -5.25939 -3.76825 0
M  V30 7781 N 712.444 0.87505 -1.31075 0
M  V30 7782 C 713.855 1.4433 -1.18431 0
M  V30 7783 C 714.206 1.9506 0.211189 0
M  V30 7784 O 713.331 1.85847 1.10859 0
M  V30 7785 C 713.926 2.62341 -2.14389 0
M  V30 7786 C 712.485 3.15225 -2.05694 0
M  V30 7787 C 711.632 1.87929 -2.03907 0
M  V30 7788 H 714.583 0.684061 -1.432 0
M  V30 7789 H 714.604 3.3887 -1.73053 0
M  V30 7790 H 714.116 2.25388 -3.15946 0
M  V30 7791 H 712.217 3.56812 -1.07314 0
M  V30 7792 H 712.33 3.77853 -2.94558 0
M  V30 7793 H 710.694 2.06679 -1.48849 0
M  V30 7794 H 711.477 1.53221 -3.07211 0
M  V30 7795 N 713.922 1.13953 1.08869 0
M  V30 7796 C 715.168 0.906151 1.8143 0
M  V30 7797 C 715.501 -0.566089 1.85766 0
M  V30 7798 O 714.776 -1.41915 1.33006 0
M  V30 7799 C 715.059 1.50183 3.27287 0
M  V30 7800 C 714.912 3.04359 3.31189 0
M  V30 7801 C 716.231 1.17477 4.24131 0
M  V30 7802 H 713.35 0.330624 0.658678 0
M  V30 7803 H 715.992 1.40873 1.27495 0
M  V30 7804 H 714.142 1.07442 3.73348 0
M  V30 7805 H 715.814 3.55896 2.93488 0
M  V30 7806 H 714.057 3.39053 2.70602 0
M  V30 7807 H 714.728 3.41141 4.33966 0
M  V30 7808 H 717.204 1.5442 3.86385 0
M  V30 7809 H 716.08 1.61795 5.24513 0
M  V30 7810 H 716.341 0.0893312 4.4201 0
M  V30 7811 N 715.4 -1.26948 0.933913 0
M  V30 7812 C 716.348 -2.2862 0.428463 0
M  V30 7813 C 717.342 -1.62144 -0.490464 0
M  V30 7814 O 718.548 -1.76167 -0.36948 0
M  V30 7815 H 714.923 -0.742363 0.120003 0
M  V30 7816 H 716.894 -2.68659 1.29865 0
M  V30 7817 C 715.643 -3.46423 -0.29774 0
M  V30 7818 H 714.966 -3.97792 0.400183 0
M  V30 7819 H 716.406 -4.19505 -0.615736 0
M  V30 7820 C 714.865 -3.01017 -1.51295 0
M  V30 7821 O 715.395 -3.05226 -2.61151 0
M  V30 7822 N 713.601 -2.56442 -1.36696 0
M  V30 7823 H 713.148 -2.53217 -0.473178 0
M  V30 7824 H 713.106 -2.26424 -2.18127 0
M  V30 7825 N 716.879 -0.700114 -1.41195 0
M  V30 7826 C 718.104 -0.240704 -2.05998 0
M  V30 7827 C 718.529 1.10313 -1.52357 0
M  V30 7828 O 717.887 1.69154 -0.652424 0
M  V30 7829 C 717.935 -0.213783 -3.59966 0
M  V30 7830 O 717.039 0.809933 -4.04368 0
M  V30 7831 H 716.38 -0.116471 -0.653705 0
M  V30 7832 H 718.91 -0.956251 -1.80878 0
M  V30 7833 H 718.92 -0.0461852 -4.07974 0
M  V30 7834 H 717.595 -1.19454 -3.98376 0
M  V30 7835 H 716.172 0.611319 -3.67855 0
M  V30 7836 N 718.357 1.51182 -0.445186 0
M  V30 7837 C 719.585 2.06568 0.117091 0
M  V30 7838 C 720 1.31182 1.35781 0
M  V30 7839 O 719.357 0.373605 1.78635 0
M  V30 7840 C 719.408 3.58917 0.431408 0
M  V30 7841 O 719.129 4.31456 -0.760078 0
M  V30 7842 C 720.63 4.30843 1.0435 0
M  V30 7843 H 717.85 0.670985 0.00444436 0
M  V30 7844 H 720.394 1.94666 -0.626525 0
M  V30 7845 H 718.549 3.70708 1.12493 0
M  V30 7846 H 718.963 5.22215 -0.489048 0
M  V30 7847 H 720.437 5.38499 1.21337 0
M  V30 7848 H 720.914 3.89644 2.02667 0
M  V30 7849 H 721.52 4.23516 0.38913 0
M  V30 7850 N 719.835 0.176821 1.56605 0
M  V30 7851 C 721.083 -0.465793 1.96659 0
M  V30 7852 C 721.404 -1.63406 1.06412 0
M  V30 7853 O 720.674 -1.95457 0.131603 0
M  V30 7854 H 719.254 -0.175072 0.726195 0
M  V30 7855 H 721.916 0.25929 1.93168 0
M  V30 7856 H 721.012 -0.822138 3.01077 0
M  V30 7857 N 721.313 -1.57302 -0.09688 0
M  V30 7858 C 722.541 -1.90202 -0.814295 0
M  V30 7859 C 722.956 -0.770344 -1.72369 0
M  V30 7860 O 722.313 0.257764 -1.8067 0
M  V30 7861 C 722.364 -3.22708 -1.62916 0
M  V30 7862 O 722.085 -4.31522 -0.756343 0
M  V30 7863 C 723.586 -3.69459 -2.44979 0
M  V30 7864 H 720.806 -0.629275 -0.232925 0
M  V30 7865 H 723.35 -2.04364 -0.0746482 0
M  V30 7866 H 721.505 -3.1015 -2.32133 0
M  V30 7867 H 721.919 -5.07604 -1.32054 0
M  V30 7868 H 723.393 -4.64875 -2.9765 0
M  V30 7869 H 723.87 -2.97211 -3.23361 0
M  V30 7870 H 724.476 -3.84879 -1.80964 0
M  V30 7871 N 722.791 0.367657 -1.53252 0
M  V30 7872 C 724.068 1.12606 -1.59935 0
M  V30 7873 C 724.448 2.07167 -0.405606 0
M  V30 7874 O 723.796 2.20364 0.604323 0
M  V30 7875 C 724.006 1.86699 -2.94863 0
M  V30 7876 C 725.354 2.41306 -3.49366 0
M  V30 7877 O 726.378 1.96828 -2.96879 0
M  V30 7878 O 725.237 3.2261 -4.41118 0
M  V30 7879 H 722.331 0.516438 -0.645926 0
M  V30 7880 H 724.877 0.371088 -1.65593 0
M  V30 7881 H 723.649 1.17674 -3.73187 0
M  V30 7882 H 723.272 2.6911 -2.92687 0
M  V30 7883 N 724.269 1.44576 0.627338 0
M  V30 7884 C 725.216 1.51734 1.73912 0
M  V30 7885 C 726.186 0.364745 1.62046 0
M  V30 7886 O 727.371 0.575503 1.81914 0
M  V30 7887 C 724.511 1.47116 3.12171 0
M  V30 7888 C 723.624 2.72778 3.34986 0
M  V30 7889 C 722.759 2.59968 4.63239 0
M  V30 7890 C 721.798 3.80776 4.79245 0
M  V30 7891 N 720.935 3.66618 5.98778 0
M  V30 7892 H 725.775 2.46722 1.6713 0
M  V30 7893 H 723.312 1.22444 0.815224 0
M  V30 7894 H 725.27 1.42429 3.92135 0
M  V30 7895 H 723.9 0.556928 3.17959 0
M  V30 7896 H 722.952 2.87637 2.48936 0
M  V30 7897 H 724.264 3.62441 3.42692 0
M  V30 7898 H 723.418 2.53135 5.51369 0
M  V30 7899 H 722.157 1.67872 4.57898 0
M  V30 7900 H 721.162 3.87989 3.89544 0
M  V30 7901 H 722.387 4.73913 4.86398 0
M  V30 7902 H 720.333 2.77277 5.9452 0
M  V30 7903 H 720.25 4.499 6.07557 0
M  V30 7904 H 721.518 3.63684 6.89459 0
M  V30 7905 N 725.747 -0.868086 1.31537 0
M  V30 7906 C 726.677 -1.99131 1.21939 0
M  V30 7907 C 727.658 -1.69768 0.106166 0
M  V30 7908 O 728.843 -1.92006 0.291081 0
M  V30 7909 C 725.973 -3.34676 0.927879 0
M  V30 7910 C 724.927 -3.7835 2.00088 0
M  V30 7911 C 724.253 -5.11375 1.56203 0
M  V30 7912 C 725.553 -3.95256 3.41424 0
M  V30 7913 H 727.247 -2.07419 2.15911 0
M  V30 7914 H 724.793 -0.996569 1.03945 0
M  V30 7915 H 726.746 -4.12793 0.847327 0
M  V30 7916 H 725.47 -3.26565 -0.0475042 0
M  V30 7917 H 724.129 -3.02474 2.07135 0
M  V30 7918 H 723.777 -4.99709 0.57445 0
M  V30 7919 H 723.477 -5.41568 2.27985 0
M  V30 7920 H 725.001 -5.92001 1.49558 0
M  V30 7921 H 726.415 -4.63764 3.3704 0
M  V30 7922 H 724.812 -4.36849 4.1144 0
M  V30 7923 H 725.882 -2.98579 3.82072 0
M  V30 7924 N 727.225 -1.14528 -1.08264 0
M  V30 7925 C 728.158 -0.777154 -2.14559 0
M  V30 7926 C 729.136 0.242165 -1.60787 0
M  V30 7927 O 730.32 0.130882 -1.88045 0
M  V30 7928 C 727.447 -0.154092 -3.38349 0
M  V30 7929 C 726.493 -1.14382 -4.10876 0
M  V30 7930 S 727.326 -2.68173 -4.63512 0
M  V30 7931 C 728.482 -2.0726 -5.90588 0
M  V30 7932 H 728.715 -1.67748 -2.45454 0
M  V30 7933 H 726.248 -0.966661 -1.20395 0
M  V30 7934 H 728.206 0.19897 -4.10018 0
M  V30 7935 H 726.867 0.723688 -3.05649 0
M  V30 7936 H 726.06 -0.655908 -4.99714 0
M  V30 7937 H 725.662 -1.44095 -3.45127 0
M  V30 7938 H 727.954 -1.42895 -6.62259 0
M  V30 7939 H 728.897 -2.94227 -6.44078 0
M  V30 7940 H 729.305 -1.51935 -5.43669 0
M  V30 7941 N 728.703 1.26451 -0.940633 0
M  V30 7942 C 729.931 1.97868 -0.604642 0
M  V30 7943 C 730.346 1.70051 0.820251 0
M  V30 7944 O 729.703 0.96843 1.54686 0
M  V30 7945 C 729.754 3.51684 -0.836689 0
M  V30 7946 O 729.475 3.78533 -2.20554 0
M  V30 7947 C 730.976 4.40343 -0.511169 0
M  V30 7948 H 728.196 0.631105 -0.227919 0
M  V30 7949 H 730.74 1.60979 -1.26119 0
M  V30 7950 H 728.895 3.86736 -0.226759 0
M  V30 7951 H 729.309 4.73065 -2.26517 0
M  V30 7952 H 730.783 5.47229 -0.724157 0
M  V30 7953 H 731.26 4.35694 0.553815 0
M  V30 7954 H 731.866 4.10834 -1.0998 0
M  V30 7955 N 730.181 0.707592 1.40822 0
M  V30 7956 C 731.429 0.243189 2.00632 0
M  V30 7957 C 731.75 -1.16512 1.56365 0
M  V30 7958 O 731.02 -1.78841 0.799553 0
M  V30 7959 H 729.6 0.0869203 0.741926 0
M  V30 7960 H 732.262 0.911438 1.72275 0
M  V30 7961 H 731.358 0.270014 3.1093 0
M  V30 7962 N 731.66 -1.50943 0.453197 0
M  V30 7963 C 732.906 -2.02512 -0.108082 0
M  V30 7964 C 733.239 -1.33574 -1.40967 0
M  V30 7965 O 732.514 -0.455671 -1.89087 0
M  V30 7966 C 732.797 -3.58759 -0.310453 0
M  V30 7967 C 732.65 -4.38293 1.0109 0
M  V30 7968 C 733.969 -4.26816 -1.07313 0
M  V30 7969 H 731.088 -0.73603 -0.0378064 0
M  V30 7970 H 733.73 -1.80433 0.595295 0
M  V30 7971 H 731.88 -3.77702 -0.909582 0
M  V30 7972 H 733.552 -4.30964 1.64523 0
M  V30 7973 H 731.795 -4.02745 1.61179 0
M  V30 7974 H 732.466 -5.45828 0.82315 0
M  V30 7975 H 734.942 -4.1224 -0.565473 0
M  V30 7976 H 733.818 -5.35989 -1.1835 0
M  V30 7977 H 734.079 -3.88757 -2.10525 0
M  V30 7978 N 733.138 -0.185124 -1.56509 0
M  V30 7979 C 734.387 0.456421 -1.96468 0
M  V30 7980 C 734.7 1.63448 -1.07444 0
M  V30 7981 O 735.906 2.34316 -1.37143 0
M  V30 7982 C 734.362 0.863404 -3.4939 0
M  V30 7983 C 733.97 -0.289815 -4.47062 0
M  V30 7984 C 735.714 1.47259 -3.98139 0
M  V30 7985 C 733.621 0.137571 -5.9124 0
M  V30 7986 H 732.551 0.17429 -0.733579 0
M  V30 7987 H 735.202 -0.275554 -1.81419 0
M  V30 7988 H 733.584 1.65176 -3.59907 0
M  V30 7989 H 734.758 -1.06728 -4.4827 0
M  V30 7990 H 733.073 -0.809851 -4.08449 0
M  V30 7991 H 735.67 1.80463 -5.03326 0
M  V30 7992 H 736.013 2.3755 -3.41871 0
M  V30 7993 H 736.546 0.748405 -3.90696 0
M  V30 7994 H 733.285 -0.730907 -6.51412 0
M  V30 7995 H 732.805 0.8801 -5.93308 0
M  V30 7996 H 734.484 0.576771 -6.44424 0
M  V30 7997 N 734.616 1.57351 0.0885366 0
M  V30 7998 C 735.841 1.91011 0.80805 0
M  V30 7999 C 736.266 0.780009 1.71165 0
M  V30 8000 O 735.624 -0.268083 1.79307 0
M  V30 8001 C 735.672 3.23562 1.59185 0
M  V30 8002 O 734.776 3.11615 2.7013 0
M  V30 8003 H 734.117 0.625943 0.221565 0
M  V30 8004 H 736.647 2.04507 0.0617954 0
M  V30 8005 H 736.657 3.5703 1.97468 0
M  V30 8006 H 735.332 4.05398 0.928741 0
M  V30 8007 H 733.909 2.89673 2.34827 0
M  V30 8008 N 736.094 -0.359525 1.53444 0
M  V30 8009 C 737.505 -0.936009 1.61542 0
M  V30 8010 C 737.856 -1.90069 0.486633 0
M  V30 8011 O 736.981 -2.12929 -0.386047 0
M  V30 8012 C 737.576 -1.70441 2.92806 0
M  V30 8013 C 736.135 -2.23015 3.03218 0
M  V30 8014 C 735.282 -1.04438 2.56881 0
M  V30 8015 H 738.233 -0.138134 1.58098 0
M  V30 8016 H 738.254 -2.56609 2.80948 0
M  V30 8017 H 737.766 -1.00205 3.74941 0
M  V30 8018 H 735.867 -2.96475 2.25684 0
M  V30 8019 H 735.98 -2.50481 4.08407 0
M  V30 8020 H 734.344 -1.41314 2.11902 0
M  V30 8021 H 735.127 -0.356905 3.4144 0
M  V30 8022 N 737.572 -1.44907 -0.619662 0
M  V30 8023 C 738.482 -1.55168 -1.75955 0
M  V30 8024 C 739.498 -0.43672 -1.6843 0
M  V30 8025 O 740.674 -0.695704 -1.89002 0
M  V30 8026 C 737.739 -1.50397 -3.12381 0
M  V30 8027 C 736.8 -2.72835 -3.31451 0
M  V30 8028 C 736.033 -2.68283 -4.61368 0
M  V30 8029 O 736.256 -1.74929 -5.42914 0
M  V30 8030 O 735.19 -3.59308 -4.82889 0
M  V30 8031 H 739.016 -2.51493 -1.7025 0
M  V30 8032 H 736.601 -1.27282 -0.782289 0
M  V30 8033 H 738.483 -1.50301 -3.93685 0
M  V30 8034 H 737.158 -0.572197 -3.18603 0
M  V30 8035 H 736.065 -2.78496 -2.49781 0
M  V30 8036 H 737.398 -3.65098 -3.30098 0
M  V30 8037 N 739.05 0.861098 -1.31996 0
M  V30 8038 C 740.466 1.14827 -1.10846 0
M  V30 8039 C 740.666 2.0117 0.11528 0
M  V30 8040 O 739.722 2.39423 0.802048 0
M  V30 8041 C 741.035 1.83183 -2.38462 0
M  V30 8042 C 742.583 1.95847 -2.44158 0
M  V30 8043 C 743.058 2.67617 -3.71679 0
M  V30 8044 N 744.549 2.75147 -3.72624 0
M  V30 8045 C 745.284 3.31314 -4.67994 0
M  V30 8046 N 744.78 3.88343 -5.73726 0
M  V30 8047 N 746.573 3.29356 -4.55501 0
M  V30 8048 H 738.724 0.285951 -2.10466 0
M  V30 8049 H 740.987 0.189303 -0.928907 0
M  V30 8050 H 740.693 1.27193 -3.27895 0
M  V30 8051 H 740.567 2.83393 -2.48935 0
M  V30 8052 H 742.954 2.50999 -1.55189 0
M  V30 8053 H 743.035 0.94653 -2.37644 0
M  V30 8054 H 742.679 2.13131 -4.61018 0
M  V30 8055 H 742.609 3.69237 -3.75462 0
M  V30 8056 H 745.1 2.34682 -2.96197 0
M  V30 8057 H 745.413 4.29338 -6.42564 0
M  V30 8058 H 743.758 3.86693 -5.77489 0
M  V30 8059 H 746.949 2.84047 -3.72069 0
M  V30 8060 H 747.122 3.7283 -5.30001 0
M  V30 8061 N 740.528 1.15101 1.07655 0
M  V30 8062 C 741.944 0.893004 1.32279 0
M  V30 8063 C 742.144 -0.461701 1.96139 0
M  V30 8064 O 741.2 -1.20431 2.21929 0
M  V30 8065 C 742.513 2.03161 2.21689 0
M  V30 8066 C 744.061 2.06579 2.35147 0
M  V30 8067 C 744.536 3.19754 3.27905 0
M  V30 8068 N 746.027 3.19382 3.35484 0
M  V30 8069 C 746.762 4.03592 4.07309 0
M  V30 8070 N 746.258 4.97859 4.81776 0
M  V30 8071 N 748.051 3.91626 4.03219 0
M  V30 8072 H 740.202 2.02341 0.645886 0
M  V30 8073 H 742.465 0.882127 0.347211 0
M  V30 8074 H 742.171 3.00934 1.82021 0
M  V30 8075 H 742.045 1.96132 3.22199 0
M  V30 8076 H 744.432 1.09408 2.74069 0
M  V30 8077 H 744.513 2.17676 1.34353 0
M  V30 8078 H 744.157 4.17175 2.89702 0
M  V30 8079 H 744.087 3.05893 4.28645 0
M  V30 8080 H 746.578 2.51112 2.82403 0
M  V30 8081 H 746.891 5.58563 5.34067 0
M  V30 8082 H 745.236 5.0185 4.80803 0
M  V30 8083 H 748.427 3.17295 3.44154 0
M  V30 8084 H 748.6 4.57479 4.5893 0
M  V30 8085 N 742.006 -1.2595 0.947325 0
M  V30 8086 C 743.246 -1.95218 0.605743 0
M  V30 8087 C 743.61 -1.72624 -0.84054 0
M  V30 8088 O 744.811 -2.35748 -1.29136 0
M  V30 8089 C 743.082 -3.44654 0.94596 0
M  V30 8090 S 744.641 -4.32922 0.715849 0
M  V30 8091 H 741.459 -0.675159 0.222894 0
M  V30 8092 H 744.061 -1.52766 1.21995 0
M  V30 8093 H 742.765 -3.586 1.99585 0
M  V30 8094 H 742.296 -3.92082 0.321718 0
M  V30 8095 H 744.311 -4.94445 -0.416959 0
M  V30 8096 N 743.484 -0.715051 -1.40445 0
M  V30 8097 C 744.9 -0.388555 -1.54798 0
M  V30 8098 C 745.1 1.10271 -1.68649 0
M  V30 8099 O 744.156 1.88875 -1.67578 0
M  V30 8100 C 745.469 -1.15414 -2.77669 0
M  V30 8101 C 747.017 -1.14039 -2.91486 0
M  V30 8102 C 747.492 -1.88812 -4.1727 0
M  V30 8103 N 748.983 -1.85878 -4.24268 0
M  V30 8104 C 749.718 -2.40558 -5.20499 0
M  V30 8105 N 749.214 -3.03791 -6.22642 0
M  V30 8106 N 751.007 -2.30703 -5.12574 0
M  V30 8107 H 743.158 -1.68201 -1.297 0
M  V30 8108 H 745.421 -0.710915 -0.627139 0
M  V30 8109 H 745.127 -2.20853 -2.7371 0
M  V30 8110 H 745.001 -0.745412 -3.69761 0
M  V30 8111 H 747.388 -0.0941996 -2.9495 0
M  V30 8112 H 747.469 -1.58834 -2.00513 0
M  V30 8113 H 747.113 -2.93422 -4.14568 0
M  V30 8114 H 747.043 -1.41438 -5.0725 0
M  V30 8115 H 749.534 -1.39794 -3.51093 0
M  V30 8116 H 749.847 -3.43032 -6.92495 0
M  V30 8117 H 748.192 -3.07875 -6.23087 0
M  V30 8118 H 751.383 -1.80961 -4.31707 0
M  V30 8119 H 751.556 -2.73618 -5.87398 0
M  V30 8120 N 744.962 1.50701 -0.461195 0
M  V30 8121 C 746.187 2.07171 0.0974773 0
M  V30 8122 C 746.612 1.32391 1.3362 0
M  V30 8123 O 745.97 0.368676 1.77512 0
M  V30 8124 C 746.018 3.58651 0.374409 0
M  V30 8125 O 745.122 3.85816 1.4567 0
M  V30 8126 H 744.463 0.663944 -0.00862047 0
M  V30 8127 H 746.993 1.94021 -0.649394 0
M  V30 8128 H 747.003 4.03295 0.617843 0
M  V30 8129 H 745.678 4.12498 -0.530829 0
M  V30 8130 H 744.255 3.53018 1.20136 0
M  V30 8131 N 746.441 0.193421 1.56409 0
M  V30 8132 C 747.687 -0.446449 1.97825 0
M  V30 8133 C 748.02 -1.61386 1.08019 0
M  V30 8134 O 747.295 -1.94053 0.131839 0
M  V30 8135 C 747.578 -0.908199 3.48459 0
M  V30 8136 C 747.431 0.260914 4.49043 0
M  V30 8137 C 748.75 -1.77428 4.0275 0
M  V30 8138 H 745.869 -0.160807 0.719243 0
M  V30 8139 H 748.511 0.284006 1.87865 0
M  V30 8140 H 746.661 -1.53062 3.57077 0
M  V30 8141 H 748.333 0.898548 4.52464 0
M  V30 8142 H 746.576 0.912949 4.24085 0
M  V30 8143 H 747.247 -0.104657 5.51901 0
M  V30 8144 H 749.723 -1.24936 3.96901 0
M  V30 8145 H 748.599 -2.06633 5.08521 0
M  V30 8146 H 748.86 -2.72788 3.47907 0
M  V30 8147 N 747.919 -1.57396 -0.0801906 0
M  V30 8148 C 748.829 -2.06451 -1.11423 0
M  V30 8149 C 749.845 -0.992352 -1.42928 0
M  V30 8150 O 751.021 -1.30651 -1.53272 0
M  V30 8151 C 748.086 -2.49164 -2.41077 0
M  V30 8152 C 747.147 -3.70641 -2.16619 0
M  V30 8153 C 746.38 -4.11307 -3.40092 0
M  V30 8154 O 746.603 -3.51922 -4.48895 0
M  V30 8155 O 745.537 -5.04157 -3.288 0
M  V30 8156 H 749.363 -2.94857 -0.727519 0
M  V30 8157 H 746.948 -1.46484 -0.293743 0
M  V30 8158 H 748.83 -2.77196 -3.17396 0
M  V30 8159 H 747.505 -1.6389 -2.79145 0
M  V30 8160 H 746.412 -3.47703 -1.38033 0
M  V30 8161 H 747.745 -4.5674 -1.83437 0
M  V30 8162 N 749.397 0.351382 -1.53633 0
M  V30 8163 C 750.327 1.43688 -1.84055 0
M  V30 8164 C 751.308 1.55251 -0.695073 0
M  V30 8165 O 752.493 1.69587 -0.946257 0
M  V30 8166 C 749.623 2.80843 -2.04315 0
M  V30 8167 C 748.577 2.84094 -3.20117 0
M  V30 8168 C 747.903 4.2406 -3.25696 0
M  V30 8169 C 749.203 2.50334 -4.58399 0
M  V30 8170 H 750.897 1.18478 -2.74961 0
M  V30 8171 H 748.443 0.568509 -1.32303 0
M  V30 8172 H 750.396 3.56821 -2.2418 0
M  V30 8173 H 749.12 3.07471 -1.10132 0
M  V30 8174 H 747.779 2.10568 -3.00094 0
M  V30 8175 H 747.427 4.47785 -2.29123 0
M  V30 8176 H 747.127 4.27147 -4.03509 0
M  V30 8177 H 748.651 5.0189 -3.47762 0
M  V30 8178 H 750.065 3.16025 -4.78332 0
M  V30 8179 H 748.462 2.64717 -5.38558 0
M  V30 8180 H 749.532 1.45542 -4.62543 0
M  V30 8181 N 750.875 1.45233 0.611969 0
M  V30 8182 C 752.152 1.39495 1.37115 0
M  V30 8183 C 752.532 0.0633303 2.11005 0
M  V30 8184 O 751.88 -0.954617 2.07604 0
M  V30 8185 C 752.09 2.60579 2.32163 0
M  V30 8186 C 753.438 3.05477 2.94905 0
M  V30 8187 O 754.462 2.60921 2.42485 0
M  V30 8188 O 753.321 3.82787 3.90047 0
M  V30 8189 H 750.415 0.55335 0.614599 0
M  V30 8190 H 752.961 1.57355 0.635423 0
M  V30 8191 H 751.733 3.49085 1.76793 0
M  V30 8192 H 751.356 2.45031 3.13122 0
M  V30 8193 N 752.353 -0.854086 1.3245 0
M  V30 8194 C 753.283 -1.97827 1.24044 0
M  V30 8195 C 754.264 -1.69646 0.124166 0
M  V30 8196 O 755.449 -1.91687 0.31143 0
M  V30 8197 C 752.579 -3.33673 0.963324 0
M  V30 8198 C 751.533 -3.76207 2.04089 0
M  V30 8199 C 750.859 -5.0969 1.61618 0
M  V30 8200 C 752.159 -3.91612 3.45597 0
M  V30 8201 H 753.853 -2.05118 2.18099 0
M  V30 8202 H 751.399 -0.985489 1.04996 0
M  V30 8203 H 753.352 -4.11871 0.891061 0
M  V30 8204 H 752.076 -3.26597 -0.0128649 0
M  V30 8205 H 750.735 -3.0026 2.10332 0
M  V30 8206 H 750.383 -4.99072 0.627418 0
M  V30 8207 H 750.083 -5.3912 2.33717 0
M  V30 8208 H 751.607 -5.90381 1.55829 0
M  V30 8209 H 753.021 -4.60163 3.4194 0
M  V30 8210 H 751.418 -4.3246 4.16051 0
M  V30 8211 H 752.488 -2.9451 3.85217 0
M  V30 8212 N 753.831 -1.1567 -1.07043 0
M  V30 8213 C 754.779 -0.852204 -2.16426 0
M  V30 8214 C 755.773 0.175661 -1.68487 0
M  V30 8215 O 756.979 0.0303874 -1.79974 0
M  V30 8216 H 753.354 -0.257942 -0.706378 0
M  V30 8217 H 755.325 -1.78231 -2.39324 0
M  V30 8218 C 754.074 -0.361362 -3.45817 0
M  V30 8219 H 753.397 -1.14369 -3.83092 0
M  V30 8220 H 754.837 -0.186997 -4.23587 0
M  V30 8221 C 753.296 0.917703 -3.2416 0
M  V30 8222 O 753.826 1.98858 -3.49025 0
M  V30 8223 N 752.032 0.858456 -2.77631 0
M  V30 8224 H 751.579 -0.0131821 -2.57597 0
M  V30 8225 H 751.537 1.71478 -2.6352 0
M  V30 8226 N 755.309 1.25446 -0.953992 0
M  V30 8227 C 756.241 2.25111 -0.431004 0
M  V30 8228 C 757.254 1.56377 0.452764 0
M  V30 8229 O 758.443 1.76579 0.261144 0
M  V30 8230 C 755.543 3.3655 0.39839 0
M  V30 8231 C 754.716 4.34843 -0.472229 0
M  V30 8232 C 753.775 5.25351 0.29886 0
M  V30 8233 O 752.801 5.68396 -0.302522 0
M  V30 8234 N 754.003 5.5824 1.59211 0
M  V30 8235 H 756.768 2.70619 -1.28785 0
M  V30 8236 H 754.329 1.39346 -0.824281 0
M  V30 8237 H 756.321 3.94059 0.921941 0
M  V30 8238 H 754.891 2.90436 1.15609 0
M  V30 8239 H 754.111 3.76222 -1.17689 0
M  V30 8240 H 755.399 4.97497 -1.06648 0
M  V30 8241 H 754.797 5.25172 2.10264 0
M  V30 8242 H 753.354 6.18336 2.06164 0
M  V30 8243 N 756.787 0.722489 1.40064 0
M  V30 8244 C 757.75 0.0830209 2.2905 0
M  V30 8245 C 758.75 -0.680208 1.45705 0
M  V30 8246 O 759.94 -0.511084 1.66534 0
M  V30 8247 C 757.072 -0.892092 3.29021 0
M  V30 8248 H 758.265 0.866848 2.87099 0
M  V30 8249 H 755.818 0.487556 1.48501 0
M  V30 8250 H 756.553 -1.70273 2.76003 0
M  V30 8251 H 756.338 -0.34761 3.90556 0
M  V30 8252 H 757.828 -1.33648 3.95636 0
M  V30 8253 N 758.265 -1.50454 0.469181 0
M  V30 8254 C 759.215 -2.25381 -0.344582 0
M  V30 8255 C 760.199 -1.28892 -0.963098 0
M  V30 8256 O 761.391 -1.53805 -0.875964 0
M  V30 8257 C 758.52 -3.12232 -1.4271 0
M  V30 8258 C 757.606 -4.16168 -0.816411 0
M  V30 8259 N 757.997 -5.05762 0.0621424 0
M  V30 8260 C 756.295 -4.32712 -1.08056 0
M  V30 8261 C 756.996 -5.80264 0.408519 0
M  V30 8262 N 755.972 -5.43171 -0.215827 0
M  V30 8263 H 759.774 -2.92016 0.332237 0
M  V30 8264 H 757.288 -1.59911 0.283209 0
M  V30 8265 H 759.285 -3.64514 -2.02324 0
M  V30 8266 H 757.945 -2.47145 -2.10593 0
M  V30 8267 H 758.956 -5.16105 0.430841 0
M  V30 8268 H 755.633 -3.78844 -1.75452 0
M  V30 8269 H 757.023 -6.62408 1.12539 0
M  V30 8270 N 759.743 -0.201713 -1.56304 0
M  V30 8271 C 760.676 0.755976 -2.15314 0
M  V30 8272 C 761.654 1.20497 -1.09175 0
M  V30 8273 O 762.838 1.2913 -1.37323 0
M  V30 8274 C 759.965 2.02177 -2.71739 0
M  V30 8275 C 759.011 1.71436 -3.90528 0
M  V30 8276 S 759.844 0.856624 -5.28604 0
M  V30 8277 C 761 2.13242 -5.88455 0
M  V30 8278 H 761.233 0.254348 -2.9621 0
M  V30 8279 H 758.766 0.0133669 -1.54394 0
M  V30 8280 H 760.724 2.74867 -3.04891 0
M  V30 8281 H 759.385 2.49452 -1.90873 0
M  V30 8282 H 758.578 2.65433 -4.28441 0
M  V30 8283 H 758.18 1.06823 -3.5842 0
M  V30 8284 H 760.472 3.08435 -6.0322 0
M  V30 8285 H 761.415 1.7975 -6.84905 0
M  V30 8286 H 761.823 2.2639 -5.17115 0
M  V30 8287 N 761.222 1.57436 0.0718424 0
M  V30 8288 C 762.132 2.07039 1.10326 0
M  V30 8289 C 763.148 0.999918 1.424 0
M  V30 8290 O 764.324 1.31462 1.52577 0
M  V30 8291 C 761.389 2.50439 2.39752 0
M  V30 8292 C 760.45 3.71784 2.14651 0
M  V30 8293 C 759.683 4.13104 3.37906 0
M  V30 8294 O 759.906 3.54298 4.47023 0
M  V30 8295 O 758.84 5.05894 3.26121 0
M  V30 8296 H 762.666 2.95239 0.711872 0
M  V30 8297 H 760.251 1.46638 0.28597 0
M  V30 8298 H 762.133 2.78876 3.15921 0
M  V30 8299 H 760.808 1.65368 2.78271 0
M  V30 8300 H 759.715 3.48431 1.36187 0
M  V30 8301 H 761.048 4.57707 1.81012 0
M  V30 8302 N 762.7 -0.34323 1.53817 0
M  V30 8303 C 763.61 -1.44493 1.84821 0
M  V30 8304 C 764.626 -1.57556 0.738381 0
M  V30 8305 O 765.802 -1.73026 1.03072 0
M  V30 8306 C 762.867 -2.79478 2.05166 0
M  V30 8307 C 761.928 -2.75756 3.29025 0
M  V30 8308 C 761.161 -4.04302 3.4839 0
M  V30 8309 O 761.384 -5.01595 2.71586 0
M  V30 8310 O 760.318 -4.08754 4.41819 0
M  V30 8311 H 764.144 -1.21209 2.78464 0
M  V30 8312 H 761.729 -0.535437 1.39476 0
M  V30 8313 H 763.611 -3.59419 2.19991 0
M  V30 8314 H 762.286 -3.02692 1.14713 0
M  V30 8315 H 761.193 -1.94434 3.19603 0
M  V30 8316 H 762.526 -2.57495 4.19472 0
M  V30 8317 N 764.178 -1.45556 -0.604258 0
M  V30 8318 C 765.406 -1.53278 -1.38973 0
M  V30 8319 C 765.821 -0.166509 -1.88064 0
M  V30 8320 O 765.178 0.832519 -1.62405 0
M  V30 8321 C 765.229 -2.51992 -2.59195 0
M  V30 8322 O 764.95 -3.8331 -2.12143 0
M  V30 8323 C 766.451 -2.69445 -3.52015 0
M  V30 8324 H 763.671 -0.519003 -0.425297 0
M  V30 8325 H 766.215 -1.90773 -0.736621 0
M  V30 8326 H 764.37 -2.17561 -3.2054 0
M  V30 8327 H 764.784 -4.3685 -2.90279 0
M  V30 8328 H 766.258 -3.42485 -4.32907 0
M  V30 8329 H 766.735 -1.75596 -4.0257 0
M  V30 8330 H 767.341 -3.04886 -2.9652 0
M  V30 8331 N 765.656 0.84705 -1.32902 0
M  V30 8332 C 767.067 1.41785 -1.21466 0
M  V30 8333 C 767.418 1.95464 0.169767 0
M  V30 8334 O 766.543 1.88157 1.06892 0
M  V30 8335 C 767.138 2.57734 -2.19906 0
M  V30 8336 C 765.697 3.10791 -2.12334 0
M  V30 8337 C 764.844 1.83562 -2.07847 0
M  V30 8338 H 767.795 0.653532 -1.44619 0
M  V30 8339 H 767.816 3.35123 -1.80202 0
M  V30 8340 H 767.328 2.18635 -3.20656 0
M  V30 8341 H 765.429 3.54455 -1.14858 0
M  V30 8342 H 765.542 3.71519 -3.02506 0
M  V30 8343 H 763.906 2.03475 -1.53199 0
M  V30 8344 H 764.689 1.4667 -3.10392 0
M  V30 8345 N 767.134 1.16236 1.06428 0
M  V30 8346 C 768.081 0.86769 2.13869 0
M  V30 8347 C 769.051 -0.183298 1.65086 0
M  V30 8348 O 770.236 -0.0488002 1.90738 0
M  V30 8349 C 767.376 0.373427 3.43074 0
M  V30 8350 C 766.489 1.48708 4.05598 0
M  V30 8351 C 765.624 0.947977 5.22673 0
M  V30 8352 C 764.663 2.03793 5.77178 0
M  V30 8353 N 763.8 1.51451 6.85571 0
M  V30 8354 H 768.64 1.78781 2.38414 0
M  V30 8355 H 766.177 0.891892 1.16977 0
M  V30 8356 H 768.135 0.0685035 4.17144 0
M  V30 8357 H 766.765 -0.509752 3.1875 0
M  V30 8358 H 765.817 1.908 3.29089 0
M  V30 8359 H 767.129 2.30964 4.42105 0
M  V30 8360 H 766.283 0.596154 6.03764 0
M  V30 8361 H 765.022 0.0947081 4.87608 0
M  V30 8362 H 764.027 2.39847 4.94726 0
M  V30 8363 H 765.252 2.89514 6.14295 0
M  V30 8364 H 763.198 0.683755 6.52427 0
M  V30 8365 H 763.115 2.27325 7.21013 0
M  V30 8366 H 764.383 1.19123 7.70344 0
M  V30 8367 N 768.612 -1.24939 0.960631 0
M  V30 8368 C 770.028 -1.45039 0.666018 0
M  V30 8369 C 770.228 -1.86021 -0.774501 0
M  V30 8370 O 769.284 -1.99392 -1.54916 0
M  V30 8371 C 770.597 -2.51775 1.64408 0
M  V30 8372 C 772.145 -2.6561 1.65592 0
M  V30 8373 C 772.62 -3.75536 2.62177 0
M  V30 8374 N 774.111 -3.82954 2.60577 0
M  V30 8375 C 774.846 -4.67517 3.31987 0
M  V30 8376 N 774.342 -5.56321 4.1289 0
M  V30 8377 N 776.135 -4.61535 3.20845 0
M  V30 8378 H 768.286 -0.96632 1.89145 0
M  V30 8379 H 770.549 -0.486034 0.813926 0
M  V30 8380 H 770.255 -2.28534 2.67329 0
M  V30 8381 H 770.129 -3.49804 1.41128 0
M  V30 8382 H 772.516 -2.88212 0.633846 0
M  V30 8383 H 772.597 -1.67962 1.92931 0
M  V30 8384 H 772.241 -3.53684 3.64514 0
M  V30 8385 H 772.171 -4.72682 2.32119 0
M  V30 8386 H 774.662 -3.19478 2.01847 0
M  V30 8387 H 774.975 -6.17787 4.64283 0
M  V30 8388 H 773.32 -5.5601 4.16987 0
M  V30 8389 H 776.511 -3.91169 2.57108 0
M  V30 8390 H 776.684 -5.27214 3.76762 0
M  V30 8391 N 770.09 -0.729906 -1.39679 0
M  V30 8392 C 771.037 -0.0866063 -2.30637 0
M  V30 8393 C 772.007 0.735115 -1.48947 0
M  V30 8394 O 773.192 0.696125 -1.77648 0
M  V30 8395 C 770.332 0.818524 -3.35252 0
M  V30 8396 C 769.445 -0.0152635 -4.31997 0
M  V30 8397 C 768.58 0.890669 -5.2368 0
M  V30 8398 C 767.619 0.0518246 -6.12078 0
M  V30 8399 N 766.756 0.913411 -6.96133 0
M  V30 8400 H 771.596 -0.867925 -2.85081 0
M  V30 8401 H 769.133 -0.439673 -1.40376 0
M  V30 8402 H 771.091 1.3577 -3.9449 0
M  V30 8403 H 769.721 1.56587 -2.82277 0
M  V30 8404 H 768.773 -0.671794 -3.74421 0
M  V30 8405 H 770.085 -0.664086 -4.9436 0
M  V30 8406 H 769.239 1.49787 -5.87919 0
M  V30 8407 H 767.978 1.57328 -4.61627 0
M  V30 8408 H 766.983 -0.568209 -5.46856 0
M  V30 8409 H 768.208 -0.627497 -6.76195 0
M  V30 8410 H 766.154 1.58141 -6.36653 0
M  V30 8411 H 766.071 0.320952 -7.55318 0
M  V30 8412 H 767.339 1.50633 -7.64807 0
M  V30 8413 N 771.568 1.50203 -0.477153 0
M  V30 8414 C 772.816 2.01959 0.0755889 0
M  V30 8415 C 773.137 1.3608 1.39668 0
M  V30 8416 O 772.407 0.508136 1.89195 0
M  V30 8417 H 770.987 0.74636 0.0309248 0
M  V30 8418 H 773.649 1.84473 -0.628959 0
M  V30 8419 H 772.745 3.11305 0.222683 0
M  V30 8420 N 773.046 0.209999 1.56195 0
M  V30 8421 C 774.009 -0.691232 2.18528 0
M  V30 8422 C 775.009 -1.13013 1.14388 0
M  V30 8423 O 776.199 -1.04081 1.39688 0
M  V30 8424 C 773.331 -1.94551 2.79934 0
M  V30 8425 H 774.524 -0.147953 2.99535 0
M  V30 8426 H 772.077 -0.0396243 1.5625 0
M  V30 8427 H 772.812 -2.53094 2.02766 0
M  V30 8428 H 772.597 -1.63938 3.56184 0
M  V30 8429 H 774.087 -2.58785 3.2775 0
M  V30 8430 N 774.524 -1.57472 -0.0634922 0
M  V30 8431 C 775.471 -2.04258 -1.07457 0
M  V30 8432 C 776.441 -0.924804 -1.37973 0
M  V30 8433 O 777.626 -1.19305 -1.48899 0
M  V30 8434 C 774.766 -2.49832 -2.38071 0
M  V30 8435 C 773.879 -3.75263 -2.14014 0
M  V30 8436 C 773.014 -4.09585 -3.38251 0
M  V30 8437 C 772.053 -5.28032 -3.09594 0
M  V30 8438 N 771.19 -5.57953 -4.26185 0
M  V30 8439 H 776.03 -2.90402 -0.668626 0
M  V30 8440 H 773.567 -1.43609 -0.318572 0
M  V30 8441 H 775.525 -2.7431 -3.14341 0
M  V30 8442 H 774.155 -1.66654 -2.76453 0
M  V30 8443 H 773.207 -3.58075 -1.28399 0
M  V30 8444 H 774.519 -4.61667 -1.88852 0
M  V30 8445 H 773.673 -4.35008 -4.2291 0
M  V30 8446 H 772.412 -3.21765 -3.66495 0
M  V30 8447 H 771.417 -5.02397 -2.23332 0
M  V30 8448 H 772.642 -6.17477 -2.82663 0
M  V30 8449 H 770.588 -4.73092 -4.54445 0
M  V30 8450 H 770.505 -6.38793 -4.04326 0
M  V30 8451 H 771.773 -5.87931 -5.11817 0
M  V30 8452 N 776.003 0.335068 -1.53997 0
M  V30 8453 C 777.249 1.07594 -1.71905 0
M  V30 8454 C 777.582 1.88039 -0.485264 0
M  V30 8455 O 776.857 1.87482 0.517752 0
M  V30 8456 C 777.14 2.01016 -2.98772 0
M  V30 8457 C 776.993 1.23977 -4.32377 0
M  V30 8458 C 778.312 3.0071 -3.21343 0
M  V30 8459 H 775.431 0.38976 -0.625505 0
M  V30 8460 H 778.073 0.353684 -1.86679 0
M  V30 8461 H 776.223 2.62603 -2.86307 0
M  V30 8462 H 777.895 0.649383 -4.56706 0
M  V30 8463 H 776.138 0.541878 -4.30402 0
M  V30 8464 H 776.809 1.92512 -5.17342 0
M  V30 8465 H 779.285 2.4924 -3.33194 0
M  V30 8466 H 778.161 3.63272 -4.11491 0
M  V30 8467 H 778.422 3.72549 -2.38033 0
M  V30 8468 N 777.481 1.45874 0.596531 0
M  V30 8469 C 778.728 1.50467 1.35521 0
M  V30 8470 C 779.056 0.150802 1.93915 0
M  V30 8471 O 778.311 -0.851913 1.76184 0
M  V30 8472 C 778.61 2.54034 2.51399 0
M  V30 8473 C 778.276 3.9844 2.11085 0
M  V30 8474 C 776.938 4.37758 1.99804 0
M  V30 8475 C 779.29 4.89209 1.79788 0
M  V30 8476 C 776.618 5.65727 1.55465 0
M  V30 8477 C 778.97 6.17602 1.36931 0
M  V30 8478 C 777.634 6.5584 1.24218 0
M  V30 8479 H 776.904 0.550597 0.495907 0
M  V30 8480 H 779.551 1.79279 0.673145 0
M  V30 8481 H 777.856 2.18832 3.24992 0
M  V30 8482 H 779.553 2.54822 3.09624 0
M  V30 8483 H 776.143 3.67353 2.20794 0
M  V30 8484 H 780.327 4.59562 1.87395 0
M  V30 8485 H 775.583 5.94139 1.44253 0
M  V30 8486 H 779.757 6.87373 1.11764 0
M  V30 8487 H 777.384 7.54897 0.896353 0
M  V30 8488 N 778.959 -0.83999 1.33349 0
M  V30 8489 C 780.207 -1.59202 1.24496 0
M  V30 8490 C 780.528 -1.94077 -0.189499 0
M  V30 8491 O 779.798 -1.60868 -1.11796 0
M  V30 8492 H 778.378 -0.590276 0.457802 0
M  V30 8493 H 781.04 -1.00394 1.67054 0
M  V30 8494 H 780.136 -2.52247 1.83788 0
M  V30 8495 N 780.437 -1.16799 -1.0581 0
M  V30 8496 C 781.662 -0.977402 -1.82925 0
M  V30 8497 C 782.087 0.469514 -1.82146 0
M  V30 8498 O 781.445 1.33576 -1.22585 0
M  V30 8499 C 781.493 -1.51543 -3.27211 0
M  V30 8500 O 780.597 -0.725021 -4.05977 0
M  V30 8501 H 779.938 -0.347474 -0.565825 0
M  V30 8502 H 782.468 -1.55151 -1.33376 0
M  V30 8503 H 782.478 -1.53502 -3.78023 0
M  V30 8504 H 781.153 -2.56872 -3.27093 0
M  V30 8505 H 779.73 -0.77634 -3.64729 0
M  V30 8506 N 781.915 1.24427 -0.967243 0
M  V30 8507 C 782.845 2.2773 -0.515899 0
M  V30 8508 C 783.826 1.64197 0.444227 0
M  V30 8509 O 785.011 1.91193 0.340451 0
M  V30 8510 C 782.141 3.46751 0.195149 0
M  V30 8511 C 781.095 4.22548 -0.680953 0
M  V30 8512 C 780.421 5.34456 0.161561 0
M  V30 8513 C 781.721 4.83914 -1.96532 0
M  V30 8514 H 783.415 2.65735 -1.37933 0
M  V30 8515 H 780.961 1.27742 -0.664681 0
M  V30 8516 H 782.914 4.18153 0.522117 0
M  V30 8517 H 781.638 3.07771 1.09292 0
M  V30 8518 H 780.297 3.52946 -0.991186 0
M  V30 8519 H 779.945 4.91716 1.05947 0
M  V30 8520 H 779.645 5.86087 -0.421418 0
M  V30 8521 H 781.169 6.08685 0.483211 0
M  V30 8522 H 782.583 5.47392 -1.70396 0
M  V30 8523 H 780.98 5.45775 -2.49499 0
M  V30 8524 H 782.05 4.05393 -2.66053 0
M  V30 8525 N 783.393 0.737304 1.3929 0
M  V30 8526 C 784.303 0.100464 2.34385 0
M  V30 8527 C 785.319 -0.719282 1.58437 0
M  V30 8528 O 786.495 -0.647216 1.90717 0
M  V30 8529 C 783.56 -0.794325 3.37478 0
M  V30 8530 C 782.621 0.0379345 4.29283 0
M  V30 8531 C 781.854 -0.814241 5.27452 0
M  V30 8532 O 782.077 -2.05288 5.32177 0
M  V30 8533 O 781.011 -0.241679 6.01415 0
M  V30 8534 H 784.837 0.885407 2.90507 0
M  V30 8535 H 782.422 0.497999 1.40856 0
M  V30 8536 H 784.304 -1.30622 4.00644 0
M  V30 8537 H 782.979 -1.55804 2.83737 0
M  V30 8538 H 781.886 0.595405 3.69331 0
M  V30 8539 H 783.219 0.763926 4.86236 0
M  V30 8540 N 784.871 -1.49948 0.485112 0
M  V30 8541 C 786.287 -1.58984 0.140096 0
M  V30 8542 C 786.487 -1.49194 -1.35438 0
M  V30 8543 O 785.543 -1.35765 -2.12894 0
M  V30 8544 C 786.856 -2.92372 0.702769 0
M  V30 8545 C 788.404 -3.05801 0.66745 0
M  V30 8546 C 788.879 -4.41785 1.20791 0
M  V30 8547 N 790.37 -4.48234 1.16792 0
M  V30 8548 C 791.105 -5.51871 1.55646 0
M  V30 8549 N 790.601 -6.62692 2.02016 0
M  V30 8550 N 792.394 -5.42494 1.47161 0
M  V30 8551 H 784.545 -1.54555 1.45693 0
M  V30 8552 H 786.808 -0.731206 0.603359 0
M  V30 8553 H 786.514 -3.05056 1.75025 0
M  V30 8554 H 786.388 -3.76885 0.154205 0
M  V30 8555 H 788.775 -2.92757 -0.371157 0
M  V30 8556 H 788.856 -2.23011 1.25298 0
M  V30 8557 H 788.5 -4.55579 2.24522 0
M  V30 8558 H 788.43 -5.23188 0.598464 0
M  V30 8559 H 790.921 -3.68718 0.827982 0
M  V30 8560 H 791.234 -7.3785 2.29775 0
M  V30 8561 H 789.579 -6.63775 2.05979 0
M  V30 8562 H 792.77 -4.54806 1.10765 0
M  V30 8563 H 792.943 -6.2314 1.77766 0
M  V30 8564 N 786.349 -0.21828 -1.56081 0
M  V30 8565 C 787.597 0.413488 -1.97825 0
M  V30 8566 C 787.918 1.60527 -1.10707 0
M  V30 8567 O 787.188 1.9504 -0.183378 0
M  V30 8568 H 785.768 0.155757 -0.730581 0
M  V30 8569 H 788.43 -0.310413 -1.92412 0
M  V30 8570 H 787.526 0.742024 -3.03151 0
M  V30 8571 N 787.827 1.57504 0.0551401 0
M  V30 8572 C 788.757 2.07864 1.06372 0
M  V30 8573 C 789.738 0.975565 1.39344 0
M  V30 8574 O 790.923 1.24929 1.48682 0
M  V30 8575 C 788.053 2.53643 2.3724 0
M  V30 8576 C 787.007 3.67978 2.18578 0
M  V30 8577 C 786.333 3.9987 3.54976 0
M  V30 8578 C 787.633 4.97405 1.59329 0
M  V30 8579 H 789.327 2.92379 0.644595 0
M  V30 8580 H 786.873 1.40654 0.308619 0
M  V30 8581 H 788.826 2.8749 3.08103 0
M  V30 8582 H 787.55 1.66177 2.81163 0
M  V30 8583 H 786.209 3.3444 1.50152 0
M  V30 8584 H 785.857 3.0951 3.965 0
M  V30 8585 H 785.557 4.76867 3.43324 0
M  V30 8586 H 787.081 4.36228 4.27244 0
M  V30 8587 H 788.495 5.29375 2.20078 0
M  V30 8588 H 786.892 5.78837 1.58327 0
M  V30 8589 H 787.962 4.81697 0.55638 0
M  V30 8590 N 789.305 -0.326896 1.54172 0
M  V30 8591 C 790.582 -1.08326 1.62864 0
M  V30 8592 C 790.962 -2.06018 0.46039 0
M  V30 8593 O 790.31 -2.21889 -0.545685 0
M  V30 8594 C 790.52 -1.78816 2.9971 0
M  V30 8595 C 791.868 -2.31958 3.55641 0
M  V30 8596 O 792.892 -1.88888 3.01993 0
M  V30 8597 O 791.751 -3.10801 4.49517 0
M  V30 8598 H 788.845 -0.499131 0.659392 0
M  V30 8599 H 791.391 -0.327054 1.66519 0
M  V30 8600 H 790.163 -1.07739 3.76176 0
M  V30 8601 H 789.786 -2.61255 2.99719 0
M  V30 8602 N 790.784 -1.46188 -0.588786 0
M  V30 8603 C 791.731 -1.56292 -1.69828 0
M  V30 8604 C 792.701 -0.407581 -1.61022 0
M  V30 8605 O 793.886 -0.623532 -1.80324 0
M  V30 8606 C 791.026 -1.55341 -3.08161 0
M  V30 8607 C 790.139 -2.81564 -3.27636 0
M  V30 8608 C 789.274 -2.72158 -4.56183 0
M  V30 8609 C 788.313 -3.93348 -4.68981 0
M  V30 8610 N 787.45 -3.82365 -5.88848 0
M  V30 8611 H 792.29 -2.51066 -1.6053 0
M  V30 8612 H 789.827 -1.24562 -0.782474 0
M  V30 8613 H 791.785 -1.52776 -3.88221 0
M  V30 8614 H 790.415 -0.641034 -3.16371 0
M  V30 8615 H 789.467 -2.94136 -2.41223 0
M  V30 8616 H 790.779 -3.714 -3.32962 0
M  V30 8617 H 789.933 -2.67665 -5.44464 0
M  V30 8618 H 788.672 -1.79953 -4.53286 0
M  V30 8619 H 787.677 -3.98181 -3.7912 0
M  V30 8620 H 788.902 -4.86643 -4.73662 0
M  V30 8621 H 786.848 -2.92942 -5.86959 0
M  V30 8622 H 786.765 -4.65851 -5.95415 0
M  V30 8623 H 788.033 -3.81836 -6.79575 0
M  V30 8624 N 792.262 0.832906 -1.33792 0
M  V30 8625 C 793.508 1.59089 -1.25772 0
M  V30 8626 C 793.841 1.93414 0.174601 0
M  V30 8627 O 793.116 1.59195 1.11746 0
M  V30 8628 C 793.399 2.89699 -2.13885 0
M  V30 8629 C 793.252 2.62017 -3.65605 0
M  V30 8630 C 794.571 3.91182 -2.01654 0
M  V30 8631 H 791.69 0.577232 -0.458227 0
M  V30 8632 H 794.332 0.960227 -1.6395 0
M  V30 8633 H 792.482 3.4352 -1.81456 0
M  V30 8634 H 794.154 2.14582 -4.08353 0
M  V30 8635 H 792.397 1.95621 -3.87189 0
M  V30 8636 H 793.068 3.55112 -4.2261 0
M  V30 8637 H 795.544 3.46684 -2.30107 0
M  V30 8638 H 794.42 4.80391 -2.65548 0
M  V30 8639 H 794.681 4.30861 -0.990536 0
M  V30 8640 N 793.74 1.17359 1.05189 0
M  V30 8641 C 794.989 0.956412 1.77583 0
M  V30 8642 C 795.302 -0.516018 1.88671 0
M  V30 8643 O 796.508 -0.851401 2.57805 0
M  V30 8644 C 794.964 1.66203 3.19225 0
M  V30 8645 C 794.572 3.17299 3.16267 0
M  V30 8646 C 796.316 1.52725 3.96075 0
M  V30 8647 C 794.223 3.8055 4.52698 0
M  V30 8648 H 793.153 0.354204 0.665624 0
M  V30 8649 H 795.804 1.40612 1.17901 0
M  V30 8650 H 794.186 1.14006 3.79234 0
M  V30 8651 H 795.36 3.76431 2.65776 0
M  V30 8652 H 793.675 3.3079 2.52917 0
M  V30 8653 H 796.272 1.97351 4.96947 0
M  V30 8654 H 796.615 0.477803 4.13549 0
M  V30 8655 H 797.148 2.02139 3.42614 0
M  V30 8656 H 793.887 4.85492 4.4043 0
M  V30 8657 H 793.407 3.26206 5.03339 0
M  V30 8658 H 795.086 3.82757 5.21638 0
M  V30 8659 N 795.218 -1.23913 0.973828 0
M  V30 8660 C 796.446 -1.96195 0.656891 0
M  V30 8661 C 796.861 -1.72166 -0.774876 0
M  V30 8662 O 796.218 -1.0091 -1.52064 0
M  V30 8663 C 796.269 -3.49342 0.929638 0
M  V30 8664 O 795.99 -3.72553 2.30512 0
M  V30 8665 C 797.491 -4.38833 0.627739 0
M  V30 8666 H 794.711 -0.624841 0.244572 0
M  V30 8667 H 797.255 -1.57579 1.30343 0
M  V30 8668 H 795.41 -3.85999 0.329216 0
M  V30 8669 H 795.824 -4.66893 2.3898 0
M  V30 8670 H 797.298 -5.45117 0.868991 0
M  V30 8671 H 797.775 -4.37009 -0.438104 0
M  V30 8672 H 798.381 -4.07773 1.20834 0
M  V30 8673 N 796.696 -0.74468 -1.38897 0
M  V30 8674 C 797.942 -0.297324 -2.00609 0
M  V30 8675 C 798.275 1.11547 -1.58968 0
M  V30 8676 O 797.55 1.76227 -0.823057 0
M  V30 8677 C 797.833 -0.410125 -3.57757 0
M  V30 8678 C 797.686 -1.86338 -4.09387 0
M  V30 8679 C 799.005 0.20176 -4.39637 0
M  V30 8680 H 796.124 -0.109509 -0.728819 0
M  V30 8681 H 798.766 -0.942653 -1.64967 0
M  V30 8682 H 796.916 0.139287 -3.8825 0
M  V30 8683 H 798.588 -2.47042 -3.89574 0
M  V30 8684 H 796.831 -2.38146 -3.62586 0
M  V30 8685 H 797.502 -1.89352 -5.18507 0
M  V30 8686 H 799.978 -0.266703 -4.15244 0
M  V30 8687 H 798.854 0.0925415 -5.48822 0
M  V30 8688 H 799.115 1.289 -4.22891 0
M  V30 8689 N 798.174 1.49689 -0.493057 0
M  V30 8690 C 799.104 2.31826 0.279073 0
M  V30 8691 C 800.085 1.39733 0.969987 0
M  V30 8692 O 801.27 1.68646 0.962925 0
M  V30 8693 C 798.4 3.20046 1.34862 0
M  V30 8694 C 797.354 4.20869 0.77805 0
M  V30 8695 C 796.68 4.97971 1.94753 0
M  V30 8696 C 797.98 5.21813 -0.225543 0
M  V30 8697 H 799.674 2.96627 -0.406512 0
M  V30 8698 H 797.22 1.42647 -0.196943 0
M  V30 8699 H 799.173 3.76315 1.89645 0
M  V30 8700 H 797.897 2.53172 2.06328 0
M  V30 8701 H 796.556 3.65733 0.252036 0
M  V30 8702 H 796.204 4.27552 2.64969 0
M  V30 8703 H 795.904 5.66186 1.57187 0
M  V30 8704 H 797.428 5.57082 2.49984 0
M  V30 8705 H 798.842 5.72823 0.233864 0
M  V30 8706 H 797.239 5.97872 -0.516622 0
M  V30 8707 H 798.309 4.71209 -1.14412 0
M  V30 8708 N 799.652 0.226554 1.55963 0
M  V30 8709 C 800.88 -0.408507 2.02827 0
M  V30 8710 C 801.295 -1.52994 1.10627 0
M  V30 8711 O 800.652 -1.82126 0.116809 0
M  V30 8712 C 800.703 -0.93545 3.49187 0
M  V30 8713 O 800.424 0.141273 4.37872 0
M  V30 8714 C 801.925 -1.64325 4.11719 0
M  V30 8715 H 799.145 -0.099442 0.66359 0
M  V30 8716 H 801.689 0.344471 2.01578 0
M  V30 8717 H 799.844 -1.63868 3.51036 0
M  V30 8718 H 800.258 -0.25558 5.23877 0
M  V30 8719 H 801.732 -1.9639 5.15883 0
M  V30 8720 H 802.209 -2.55815 3.57009 0
M  V30 8721 H 802.815 -0.9851 4.13734 0
M  V30 8722 N 801.13 -1.57531 -0.0467866 0
M  V30 8723 C 802.546 -1.54451 -0.402107 0
M  V30 8724 C 802.746 -0.950275 -1.77685 0
M  V30 8725 O 801.802 -0.563602 -2.4613 0
M  V30 8726 C 803.115 -2.9899 -0.320212 0
M  V30 8727 C 804.663 -3.10452 -0.398588 0
M  V30 8728 C 805.138 -4.56689 -0.346335 0
M  V30 8729 N 806.629 -4.6142 -0.405666 0
M  V30 8730 C 807.364 -5.72087 -0.387845 0
M  V30 8731 N 806.86 -6.92045 -0.32336 0
M  V30 8732 N 808.653 -5.60404 -0.436263 0
M  V30 8733 H 800.804 -1.94515 0.853087 0
M  V30 8734 H 803.067 -0.891397 0.322669 0
M  V30 8735 H 802.773 -3.46124 0.623794 0
M  V30 8736 H 802.647 -3.60164 -1.1208 0
M  V30 8737 H 805.034 -2.63276 -1.33302 0
M  V30 8738 H 805.115 -2.52142 0.431026 0
M  V30 8739 H 804.759 -5.04527 0.584356 0
M  V30 8740 H 804.689 -5.12889 -1.19382 0
M  V30 8741 H 807.18 -3.75105 -0.458737 0
M  V30 8742 H 807.493 -7.7216 -0.314375 0
M  V30 8743 H 805.838 -6.94396 -0.28967 0
M  V30 8744 H 809.029 -4.65586 -0.48451 0
M  V30 8745 H 809.202 -6.46645 -0.418907 0
M  V30 8746 N 802.608 0.318715 -1.54344 0
M  V30 8747 C 803.833 1.07987 -1.77069 0
M  V30 8748 C 804.258 1.80766 -0.520117 0
M  V30 8749 O 803.616 1.73424 0.528566 0
M  V30 8750 C 803.664 2.04987 -2.96669 0
M  V30 8751 O 802.768 3.12974 -2.68554 0
M  V30 8752 H 802.109 0.311109 -0.586606 0
M  V30 8753 H 804.639 0.361533 -2.0138 0
M  V30 8754 H 804.649 2.47771 -3.2415 0
M  V30 8755 H 803.324 1.51417 -3.87357 0
M  V30 8756 H 801.901 2.74831 -2.52037 0
M  V30 8757 N 804.086 1.46499 0.581025 0
M  V30 8758 C 805.033 1.5719 1.68997 0
M  V30 8759 C 806.003 0.416114 1.60803 0
M  V30 8760 O 807.188 0.633086 1.79991 0
M  V30 8761 C 804.328 1.56973 3.07333 0
M  V30 8762 C 803.441 2.83298 3.26139 0
M  V30 8763 C 802.576 2.74574 4.54734 0
M  V30 8764 C 801.615 3.9583 4.66889 0
M  V30 8765 N 800.752 3.85482 5.86811 0
M  V30 8766 H 805.592 2.51914 1.59196 0
M  V30 8767 H 803.129 1.24975 0.775857 0
M  V30 8768 H 805.087 1.54832 3.87405 0
M  V30 8769 H 803.717 0.657803 3.16027 0
M  V30 8770 H 802.769 2.95411 2.3966 0
M  V30 8771 H 804.081 3.7316 3.30988 0
M  V30 8772 H 803.235 2.70548 5.43036 0
M  V30 8773 H 801.974 1.82354 4.52325 0
M  V30 8774 H 800.979 4.00186 3.77003 0
M  V30 8775 H 802.204 4.89148 4.71075 0
M  V30 8776 H 800.15 2.96051 5.85397 0
M  V30 8777 H 800.067 4.69002 5.92936 0
M  V30 8778 H 801.335 3.85434 6.7754 0
M  V30 8779 N 805.565 -0.825799 1.34232 0
M  V30 8780 C 806.981 -1.11848 1.13851 0
M  V30 8781 C 807.181 -2.01405 -0.0619031 0
M  V30 8782 O 806.237 -2.41465 -0.738287 0
M  V30 8783 C 807.55 -1.76797 2.43235 0
M  V30 8784 C 809.098 -1.89304 2.49265 0
M  V30 8785 C 809.573 -2.57669 3.78643 0
M  V30 8786 N 811.064 -2.65171 3.79788 0
M  V30 8787 C 811.799 -3.1879 4.76614 0
M  V30 8788 N 811.295 -3.72995 5.83821 0
M  V30 8789 N 813.088 -3.17164 4.64073 0
M  V30 8790 H 805.239 -0.230049 2.11151 0
M  V30 8791 H 807.502 -0.164609 0.9336 0
M  V30 8792 H 807.208 -1.18455 3.31152 0
M  V30 8793 H 807.082 -2.76693 2.56361 0
M  V30 8794 H 809.469 -2.46796 1.6179 0
M  V30 8795 H 809.55 -0.883191 2.4007 0
M  V30 8796 H 809.194 -2.00833 4.66507 0
M  V30 8797 H 809.124 -3.59152 3.8512 0
M  V30 8798 H 811.615 -2.26746 3.02315 0
M  V30 8799 H 811.928 -4.12151 6.53721 0
M  V30 8800 H 810.273 -3.71246 5.87538 0
M  V30 8801 H 813.464 -2.74082 3.79469 0
M  V30 8802 H 813.637 -3.58647 5.397 0
M  V30 8803 N 807.043 -1.17915 -1.04565 0
M  V30 8804 C 807.99 -0.901605 -2.12461 0
M  V30 8805 C 808.96 0.157011 -1.65356 0
M  V30 8806 O 810.145 0.0184494 -1.90791 0
M  V30 8807 C 807.285 -0.42796 -3.42436 0
M  V30 8808 C 806.398 -1.55142 -4.03181 0
M  V30 8809 C 805.533 -1.03101 -5.21098 0
M  V30 8810 C 804.572 -2.1295 -5.73863 0
M  V30 8811 N 803.709 -1.62339 -6.83074 0
M  V30 8812 H 808.549 -1.82551 -2.3554 0
M  V30 8813 H 806.086 -0.910389 -1.15544 0
M  V30 8814 H 808.044 -0.134859 -4.16982 0
M  V30 8815 H 806.674 0.458977 -3.1952 0
M  V30 8816 H 805.726 -1.96011 -3.26012 0
M  V30 8817 H 807.038 -2.37968 -4.38375 0
M  V30 8818 H 806.192 -0.692132 -6.02739 0
M  V30 8819 H 804.931 -0.17227 -4.87396 0
M  V30 8820 H 803.936 -2.47687 -4.90847 0
M  V30 8821 H 805.161 -2.9925 -6.09611 0
M  V30 8822 H 803.107 -0.787464 -6.51256 0
M  V30 8823 H 803.024 -2.38767 -7.17305 0
M  V30 8824 H 804.292 -1.31363 -7.68351 0
M  V30 8825 N 808.521 1.23394 -0.980386 0
M  V30 8826 C 809.769 1.91431 -0.647978 0
M  V30 8827 C 810.09 1.76871 0.821066 0
M  V30 8828 O 809.36 1.14808 1.58732 0
M  V30 8829 H 807.94 0.708516 -0.236673 0
M  V30 8830 H 810.602 1.50019 -1.2442 0
M  V30 8831 H 809.698 2.98854 -0.899592 0
M  V30 8832 N 809.999 0.752036 1.385 0
M  V30 8833 C 811.224 0.316993 2.04963 0
M  V30 8834 C 811.649 -1.04582 1.56346 0
M  V30 8835 O 811.007 -1.66616 0.714755 0
M  V30 8836 C 811.055 0.347235 3.58924 0
M  V30 8837 O 810.159 -0.659296 4.07096 0
M  V30 8838 H 809.5 0.140652 0.648932 0
M  V30 8839 H 812.03 1.02272 1.77205 0
M  V30 8840 H 812.04 0.19757 4.07521 0
M  V30 8841 H 810.715 1.34157 3.93668 0
M  V30 8842 H 809.292 -0.474371 3.6987 0
M  V30 8843 N 811.477 -1.49425 0.500989 0
M  V30 8844 C 812.44 -2.27646 -0.266416 0
M  V30 8845 C 813.44 -1.3366 -0.893961 0
M  V30 8846 O 814.63 -1.5682 -0.758495 0
M  V30 8847 C 811.762 -3.11618 -1.38227 0
M  V30 8848 H 812.955 -2.96945 0.419973 0
M  V30 8849 H 810.508 -1.5419 0.255954 0
M  V30 8850 H 811.243 -2.46885 -2.10281 0
M  V30 8851 H 811.028 -3.80721 -0.937746 0
M  V30 8852 H 812.518 -3.70698 -1.92283 0
M  V30 8853 N 812.955 -0.234822 -1.55841 0
M  V30 8854 C 814.371 0.120295 -1.59146 0
M  V30 8855 C 814.571 1.57896 -1.25184 0
M  V30 8856 O 813.627 2.32138 -0.993393 0
M  V30 8857 C 814.94 -0.217984 -2.99909 0
M  V30 8858 C 816.488 -0.161298 -3.12584 0
M  V30 8859 C 816.963 -0.473438 -4.55546 0
M  V30 8860 N 818.454 -0.423494 -4.6126 0
M  V30 8861 C 819.189 -0.638334 -5.69836 0
M  V30 8862 N 818.685 -0.915659 -6.86722 0
M  V30 8863 N 820.478 -0.569864 -5.59204 0
M  V30 8864 H 812.629 -1.18622 -1.76189 0
M  V30 8865 H 814.892 -0.476426 -0.819587 0
M  V30 8866 H 814.598 -1.2309 -3.29457 0
M  V30 8867 H 814.472 0.460707 -3.74376 0
M  V30 8868 H 816.859 0.842274 -2.82825 0
M  V30 8869 H 816.94 -0.873661 -2.40418 0
M  V30 8870 H 816.584 -1.47451 -4.86025 0
M  V30 8871 H 816.514 0.260268 -5.25956 0
M  V30 8872 H 819.005 -0.217383 -3.77274 0
M  V30 8873 H 819.318 -1.06734 -7.65394 0
M  V30 8874 H 817.663 -0.953 -6.88435 0
M  V30 8875 H 820.854 -0.35334 -4.66765 0
M  V30 8876 H 821.027 -0.740698 -6.43753 0
M  V30 8877 N 814.433 1.57553 0.0384317 0
M  V30 8878 C 815.71 1.79977 0.766002 0
M  V30 8879 C 816.09 0.830625 1.94072 0
M  V30 8880 O 815.438 -0.129243 2.28134 0
M  V30 8881 C 815.648 3.27434 1.20781 0
M  V30 8882 C 816.996 3.92167 1.62758 0
M  V30 8883 O 818.02 3.31527 1.30263 0
M  V30 8884 O 816.879 4.98917 2.23035 0
M  V30 8885 H 813.973 0.739787 0.369654 0
M  V30 8886 H 816.519 1.69693 0.0159312 0
M  V30 8887 H 815.291 3.89558 0.368792 0
M  V30 8888 H 814.914 3.42571 2.01819 0
M  V30 8889 N 815.911 -0.310526 1.54511 0
M  V30 8890 C 817.159 -1.04484 1.72996 0
M  V30 8891 C 817.48 -1.88118 0.513479 0
M  V30 8892 O 816.75 -1.90119 -0.472384 0
M  V30 8893 H 815.33 -0.388747 0.637875 0
M  V30 8894 H 817.992 -0.343811 1.91844 0
M  V30 8895 H 817.088 -1.70341 2.61515 0
M  V30 8896 N 817.389 -1.46805 -0.573248 0
M  V30 8897 C 818.8 -1.46655 -1.15539 0
M  V30 8898 C 819.151 -0.2125 -1.95046 0
M  V30 8899 O 818.276 0.683759 -2.05314 0
M  V30 8900 C 818.871 -2.65711 -2.10198 0
M  V30 8901 C 817.43 -2.68572 -2.63716 0
M  V30 8902 C 816.577 -2.39498 -1.39772 0
M  V30 8903 H 819.528 -1.54547 -0.36068 0
M  V30 8904 H 819.549 -2.41768 -2.93817 0
M  V30 8905 H 819.061 -3.56967 -1.52303 0
M  V30 8906 H 817.162 -1.81414 -3.25453 0
M  V30 8907 H 817.275 -3.68809 -3.05805 0
M  V30 8908 H 815.639 -1.89749 -1.69904 0
M  V30 8909 H 816.422 -3.32942 -0.836943 0
M  V30 8910 N 818.867 0.818669 -1.34668 0
M  V30 8911 C 820.283 1.11243 -1.14443 0
M  V30 8912 C 820.483 2.01435 0.0512212 0
M  V30 8913 O 819.539 2.41854 0.725471 0
M  V30 8914 C 820.852 1.75504 -2.4417 0
M  V30 8915 C 822.4 1.8798 -2.50265 0
M  V30 8916 C 822.875 2.55657 -3.80004 0
M  V30 8917 N 824.366 2.63153 -3.81189 0
M  V30 8918 C 825.101 3.16258 -4.78298 0
M  V30 8919 N 824.597 3.69893 -5.85791 0
M  V30 8920 N 826.39 3.14698 -4.65748 0
M  V30 8921 H 818.541 0.218848 -2.1127 0
M  V30 8922 H 820.804 0.159655 -0.934459 0
M  V30 8923 H 820.51 1.16697 -3.31775 0
M  V30 8924 H 820.384 2.75329 -2.57825 0
M  V30 8925 H 822.771 2.45934 -1.63096 0
M  V30 8926 H 822.852 0.870447 -2.40535 0
M  V30 8927 H 822.496 1.98356 -4.67565 0
M  V30 8928 H 822.426 3.57105 -3.87019 0
M  V30 8929 H 824.917 2.2514 -3.03513 0
M  V30 8930 H 825.23 4.08678 -6.55898 0
M  V30 8931 H 823.575 3.68125 -5.89499 0
M  V30 8932 H 826.766 2.72066 -3.80917 0
M  V30 8933 H 826.939 3.5578 -5.41594 0
M  V30 8934 N 820.346 1.18468 1.03938 0
M  V30 8935 C 821.762 0.934635 1.29371 0
M  V30 8936 C 821.962 -0.399067 1.97509 0
M  V30 8937 O 821.018 -1.13309 2.25648 0
M  V30 8938 C 822.331 2.10111 2.15114 0
M  V30 8939 C 823.879 2.13955 2.28456 0
M  V30 8940 C 824.354 3.30024 3.17566 0
M  V30 8941 N 825.845 3.29893 3.25153 0
M  V30 8942 C 826.58 4.16346 3.94263 0
M  V30 8943 N 826.076 5.12934 4.65693 0
M  V30 8944 N 827.869 4.04256 3.90556 0
M  V30 8945 H 820.02 2.04294 0.581185 0
M  V30 8946 H 822.283 0.892727 0.318971 0
M  V30 8947 H 821.989 3.06572 1.72355 0
M  V30 8948 H 821.863 2.06283 3.15796 0
M  V30 8949 H 824.25 1.18072 2.7045 0
M  V30 8950 H 824.331 2.2184 1.2736 0
M  V30 8951 H 823.975 4.26181 2.76283 0
M  V30 8952 H 823.905 3.19376 4.18697 0
M  V30 8953 H 826.396 2.59969 2.74271 0
M  V30 8954 H 826.709 5.75271 5.16026 0
M  V30 8955 H 825.054 5.16893 4.64593 0
M  V30 8956 H 828.245 3.28083 3.33885 0
M  V30 8957 H 828.418 4.71848 4.44144 0
M  V30 8958 N 821.824 -1.22873 0.986916 0
M  V30 8959 C 822.754 -2.2688 0.552064 0
M  V30 8960 C 823.735 -1.64883 -0.418048 0
M  V30 8961 O 824.92 -1.9171 -0.30999 0
M  V30 8962 C 822.05 -3.47018 -0.139959 0
M  V30 8963 C 821.004 -4.21411 0.748091 0
M  V30 8964 C 820.33 -5.34645 -0.0765132 0
M  V30 8965 C 821.63 -4.80726 2.04206 0
M  V30 8966 H 823.324 -2.63507 1.42143 0
M  V30 8967 H 820.87 -1.26668 0.68492 0
M  V30 8968 H 822.823 -4.18931 -0.455527 0
M  V30 8969 H 821.547 -3.0947 -1.04382 0
M  V30 8970 H 820.206 -3.51325 1.04721 0
M  V30 8971 H 819.854 -4.93339 -0.981109 0
M  V30 8972 H 819.554 -5.85342 0.514606 0
M  V30 8973 H 821.078 -6.09377 -0.386313 0
M  V30 8974 H 822.492 -5.44612 1.79083 0
M  V30 8975 H 820.889 -5.41737 2.5815 0
M  V30 8976 H 821.959 -4.01109 2.72469 0
M  V30 8977 N 823.302 -0.75937 -1.38099 0
M  V30 8978 C 824.249 -0.135508 -2.30402 0
M  V30 8979 C 825.219 0.703356 -1.50473 0
M  V30 8980 O 826.404 0.658287 -1.79084 0
M  V30 8981 C 823.544 0.747228 -3.36913 0
M  V30 8982 C 822.657 -0.106893 -4.31868 0
M  V30 8983 C 821.792 0.779388 -5.25451 0
M  V30 8984 C 820.831 -0.0780179 -6.1205 0
M  V30 8985 N 819.968 0.765545 -6.97914 0
M  V30 8986 H 824.808 -0.9282 -2.83176 0
M  V30 8987 H 822.345 -0.46935 -1.39411 0
M  V30 8988 H 824.303 1.27371 -3.97281 0
M  V30 8989 H 822.933 1.50565 -2.85535 0
M  V30 8990 H 821.985 -0.751063 -3.72912 0
M  V30 8991 H 823.297 -0.768798 -4.9284 0
M  V30 8992 H 822.451 1.37282 -5.90964 0
M  V30 8993 H 821.19 1.47501 -4.6486 0
M  V30 8994 H 820.195 -0.684078 -5.45528 0
M  V30 8995 H 821.42 -0.770786 -6.74712 0
M  V30 8996 H 819.366 1.44601 -6.39864 0
M  V30 8997 H 819.283 0.160666 -7.55829 0
M  V30 8998 H 820.551 1.34377 -7.6783 0
M  V30 8999 N 824.78 1.49157 -0.508906 0
M  V30 9000 C 825.71 2.32109 0.254469 0
M  V30 9001 C 826.691 1.40754 0.955111 0
M  V30 9002 O 827.876 1.69658 0.944983 0
M  V30 9003 C 825.006 3.21458 1.3146 0
M  V30 9004 C 823.96 4.2167 0.733368 0
M  V30 9005 C 823.286 5.00009 1.8946 0
M  V30 9006 C 824.586 5.21544 -0.280875 0
M  V30 9007 H 826.28 2.9618 -0.43795 0
M  V30 9008 H 823.826 1.4243 -0.212062 0
M  V30 9009 H 825.779 3.78305 1.85643 0
M  V30 9010 H 824.503 2.55346 2.03632 0
M  V30 9011 H 823.162 3.65979 0.213231 0
M  V30 9012 H 822.81 4.30338 2.60419 0
M  V30 9013 H 822.51 5.67821 1.51173 0
M  V30 9014 H 824.034 5.59702 2.44061 0
M  V30 9015 H 825.448 5.73039 0.173095 0
M  V30 9016 H 823.845 5.97291 -0.580006 0
M  V30 9017 H 824.915 4.69969 -1.19404 0
M  V30 9018 N 826.258 0.243083 1.55714 0
M  V30 9019 C 827.208 -0.671915 2.17875 0
M  V30 9020 C 828.192 -1.14199 1.13347 0
M  V30 9021 O 829.384 -1.09239 1.39269 0
M  V30 9022 C 826.513 -1.87027 2.87881 0
M  V30 9023 C 825.599 -1.41888 3.99661 0
M  V30 9024 N 825.99 -0.681465 5.01188 0
M  V30 9025 C 824.288 -1.70447 4.12145 0
M  V30 9026 C 824.989 -0.448285 5.7997 0
M  V30 9027 N 823.965 -1.01137 5.34109 0
M  V30 9028 H 827.767 -0.100321 2.93729 0
M  V30 9029 H 825.281 0.0452371 1.62337 0
M  V30 9030 H 827.278 -2.53674 3.3084 0
M  V30 9031 H 825.938 -2.44613 2.13529 0
M  V30 9032 H 826.949 -0.331959 5.16835 0
M  V30 9033 H 823.626 -2.29198 3.48962 0
M  V30 9034 H 825.016 0.140141 6.71754 0
M  V30 9035 N 827.736 -1.57571 -0.0300757 0
M  V30 9036 C 828.966 -1.93204 -0.731828 0
M  V30 9037 C 829.374 -0.841156 -1.69473 0
M  V30 9038 O 828.717 0.191231 -1.82702 0
M  V30 9039 C 828.779 -3.2463 -1.54453 0
M  V30 9040 C 828.443 -4.50862 -0.746507 0
M  V30 9041 C 829.44 -5.19879 -0.0472309 0
M  V30 9042 C 827.125 -4.9738 -0.701347 0
M  V30 9043 C 829.119 -6.33692 0.686518 0
M  V30 9044 C 826.806 -6.11089 0.036148 0
M  V30 9045 C 827.804 -6.791 0.728841 0
M  V30 9046 O 827.492 -7.90635 1.45436 0
M  V30 9047 H 827.224 -0.6423 -0.210775 0
M  V30 9048 H 829.778 -2.05398 0.00804194 0
M  V30 9049 H 828.008 -3.0876 -2.32818 0
M  V30 9050 H 829.697 -3.45597 -2.1288 0
M  V30 9051 H 830.463 -4.84945 -0.0731582 0
M  V30 9052 H 826.342 -4.44288 -1.23001 0
M  V30 9053 H 829.886 -6.86711 1.22773 0
M  V30 9054 H 825.783 -6.45468 0.064002 0
M  V30 9055 H 826.551 -8.06988 1.36794 0
M  V30 9056 N 829.214 0.302327 -1.54673 0
M  V30 9057 C 830.162 1.39286 -1.86285 0
M  V30 9058 C 831.156 1.52553 -0.736478 0
M  V30 9059 O 832.362 1.54686 -0.92045 0
M  V30 9060 H 828.737 0.465228 -0.590819 0
M  V30 9061 H 830.708 1.09859 -2.77441 0
M  V30 9062 C 829.457 2.75155 -2.12567 0
M  V30 9063 H 828.78 2.65728 -2.98712 0
M  V30 9064 H 830.22 3.50476 -2.38627 0
M  V30 9065 C 828.679 3.23987 -0.923813 0
M  V30 9066 O 829.209 4.01443 -0.143649 0
M  V30 9067 N 827.415 2.81293 -0.72956 0
M  V30 9068 H 826.962 2.18421 -1.36565 0
M  V30 9069 H 826.92 3.14315 0.0730351 0
M  V30 9070 N 830.692 1.47107 0.565454 0
M  V30 9071 C 831.938 1.53535 1.32495 0
M  V30 9072 C 832.271 0.193537 1.93233 0
M  V30 9073 O 831.546 -0.796956 1.77423 0
M  V30 9074 C 831.829 2.64712 2.4413 0
M  V30 9075 C 831.682 4.08482 1.88314 0
M  V30 9076 C 833.001 2.71853 3.46098 0
M  V30 9077 H 830.12 0.558926 0.480386 0
M  V30 9078 H 832.762 1.79125 0.633575 0
M  V30 9079 H 830.912 2.43023 3.03104 0
M  V30 9080 H 832.584 4.4151 1.33665 0
M  V30 9081 H 830.827 4.17148 1.19037 0
M  V30 9082 H 831.498 4.82032 2.68978 0
M  V30 9083 H 833.974 2.91397 2.97031 0
M  V30 9084 H 832.85 3.51433 4.21646 0
M  V30 9085 H 833.111 1.78584 4.04426 0
M  V30 9086 N 832.17 -0.811516 1.35101 0
M  V30 9087 C 833.398 -1.59981 1.31201 0
M  V30 9088 C 833.813 -1.8847 -0.111552 0
M  V30 9089 O 833.17 -1.48414 -1.06205 0
M  V30 9090 C 833.221 -2.934 2.11184 0
M  V30 9091 O 832.942 -2.66148 3.4799 0
M  V30 9092 C 834.443 -3.87776 2.14813 0
M  V30 9093 H 831.663 -0.496921 0.450899 0
M  V30 9094 H 834.207 -1.00886 1.77883 0
M  V30 9095 H 832.362 -3.49022 1.68115 0
M  V30 9096 H 832.776 -3.51301 3.89471 0
M  V30 9097 H 834.25 -4.7852 2.75178 0
M  V30 9098 H 834.727 -4.23997 1.14556 0
M  V30 9099 H 835.333 -3.3809 2.58022 0
M  V30 9100 N 833.648 -1.19017 -1.03309 0
M  V30 9101 C 834.876 -1.01534 -1.80273 0
M  V30 9102 C 835.291 0.43605 -1.83696 0
M  V30 9103 O 834.648 1.30288 -1.27794 0
M  V30 9104 C 834.699 -1.5722 -3.25522 0
M  V30 9105 O 834.42 -2.96677 -3.22358 0
M  V30 9106 C 835.921 -1.4446 -4.19102 0
M  V30 9107 H 833.141 -0.358094 -0.567459 0
M  V30 9108 H 835.685 -1.57738 -1.3015 0
M  V30 9109 H 833.84 -1.05174 -3.7285 0
M  V30 9110 H 834.254 -3.22795 -4.13405 0
M  V30 9111 H 835.728 -1.88209 -5.18923 0
M  V30 9112 H 836.205 -0.394471 -4.37425 0
M  V30 9113 H 836.811 -1.95616 -3.77643 0
M  V30 9114 N 835.127 1.22348 -0.993418 0
M  V30 9115 C 836.355 1.95125 -0.688021 0
M  V30 9116 C 836.77 1.73377 0.747388 0
M  V30 9117 O 836.127 1.03317 1.50439 0
M  V30 9118 C 836.178 3.47819 -0.985097 0
M  V30 9119 O 835.899 3.68838 -2.3641 0
M  V30 9120 C 837.4 4.37779 -0.697474 0
M  V30 9121 H 834.62 0.62087 -0.254481 0
M  V30 9122 H 837.164 1.55485 -1.32833 0
M  V30 9123 H 835.319 3.85426 -0.390583 0
M  V30 9124 H 835.733 4.63032 -2.46377 0
M  V30 9125 H 837.207 5.43666 -0.955604 0
M  V30 9126 H 837.684 4.37651 0.368524 0
M  V30 9127 H 838.29 4.05799 -1.27306 0
M  V30 9128 N 836.605 0.766683 1.37694 0
M  V30 9129 C 838.021 0.445739 1.53249 0
M  V30 9130 C 838.221 -1.03935 1.72626 0
M  V30 9131 O 837.277 -1.82525 1.74473 0
M  V30 9132 C 838.59 1.2564 2.73194 0
M  V30 9133 C 840.138 1.24779 2.87053 0
M  V30 9134 C 840.613 2.04169 4.09974 0
M  V30 9135 N 842.104 2.01497 4.17077 0
M  V30 9136 C 842.839 2.5971 5.11212 0
M  V30 9137 N 842.335 3.26691 6.10938 0
M  V30 9138 N 844.128 2.49568 5.03659 0
M  V30 9139 H 836.279 1.72899 1.23368 0
M  V30 9140 H 838.542 0.733701 0.600322 0
M  V30 9141 H 838.248 2.30859 2.65324 0
M  V30 9142 H 838.122 0.882133 3.6674 0
M  V30 9143 H 840.509 0.203603 2.94397 0
M  V30 9144 H 840.59 1.66166 1.9448 0
M  V30 9145 H 840.234 3.08606 4.03392 0
M  V30 9146 H 840.164 1.60167 5.01651 0
M  V30 9147 H 842.655 1.52728 3.45662 0
M  V30 9148 H 842.968 3.68497 6.79286 0
M  V30 9149 H 841.313 3.30789 6.11231 0
M  V30 9150 H 844.504 1.96859 4.24693 0
M  V30 9151 H 844.677 2.95231 5.76839 0
M  V30 9152 N 838.083 -1.48885 0.516809 0
M  V30 9153 C 839.013 -2.32241 -0.242157 0
M  V30 9154 C 839.994 -1.41258 -0.947633 0
M  V30 9155 O 841.179 -1.70156 -0.935973 0
M  V30 9156 C 838.309 -3.22151 -1.29754 0
M  V30 9157 C 837.263 -4.22053 -0.710995 0
M  V30 9158 C 836.589 -5.01007 -1.86806 0
M  V30 9159 C 837.889 -5.21388 0.30853 0
M  V30 9160 H 839.583 -2.95943 0.453651 0
M  V30 9161 H 837.129 -1.42316 0.219612 0
M  V30 9162 H 839.082 -3.79284 -1.83634 0
M  V30 9163 H 837.806 -2.56423 -2.02274 0
M  V30 9164 H 836.465 -3.66087 -0.193819 0
M  V30 9165 H 836.113 -4.31713 -2.58133 0
M  V30 9166 H 835.813 -5.68615 -1.48159 0
M  V30 9167 H 837.337 -5.60989 -2.4109 0
M  V30 9168 H 838.751 -5.73122 -0.142703 0
M  V30 9169 H 837.148 -5.96975 0.611673 0
M  V30 9170 H 838.218 -4.69329 1.21894 0
M  V30 9171 N 839.561 -0.251338 -1.55583 0
M  V30 9172 C 840.807 0.37272 -1.99346 0
M  V30 9173 C 841.14 1.57266 -1.13934 0
M  V30 9174 O 840.415 1.9343 -0.20377 0
M  V30 9175 C 840.698 0.778245 -3.5159 0
M  V30 9176 C 840.551 -0.427394 -4.47765 0
M  V30 9177 C 841.87 1.62358 -4.09057 0
M  V30 9178 H 838.989 0.134002 -0.724715 0
M  V30 9179 H 841.631 -0.353536 -1.86682 0
M  V30 9180 H 839.781 1.39704 -3.62512 0
M  V30 9181 H 841.453 -1.06586 -4.48818 0
M  V30 9182 H 839.696 -1.06972 -4.20404 0
M  V30 9183 H 840.367 -0.10025 -5.51909 0
M  V30 9184 H 842.843 1.1012 -4.01264 0
M  V30 9185 H 841.719 1.87617 -5.1584 0
M  V30 9186 H 841.98 2.59688 -3.57791 0
M  V30 9187 N 841.039 1.57585 0.0217189 0
M  V30 9188 C 841.987 2.08134 1.03842 0
M  V30 9189 C 842.981 0.996662 1.36978 0
M  V30 9190 O 844.187 1.18149 1.35797 0
M  V30 9191 H 840.562 0.664298 0.352438 0
M  V30 9192 H 842.533 2.92583 0.58634 0
M  V30 9193 C 841.282 2.58218 2.32849 0
M  V30 9194 H 840.605 3.41302 2.08214 0
M  V30 9195 H 842.045 2.97289 3.02316 0
M  V30 9196 C 840.504 1.48664 3.02325 0
M  V30 9197 O 841.034 0.857075 3.9245 0
M  V30 9198 N 839.24 1.21938 2.63779 0
M  V30 9199 H 838.787 1.73319 1.90574 0
M  V30 9200 H 838.745 0.488523 3.10581 0
M  V30 9201 N 842.517 -0.29412 1.54831 0
M  V30 9202 C 843.928 -0.866651 1.65366 0
M  V30 9203 C 844.279 -1.87834 0.56681 0
M  V30 9204 O 843.404 -2.14374 -0.295389 0
M  V30 9205 C 843.999 -1.57869 2.99771 0
M  V30 9206 C 842.558 -2.09954 3.12404 0
M  V30 9207 C 841.705 -0.934492 2.6108 0
M  V30 9208 H 844.656 -0.0709551 1.58541 0
M  V30 9209 H 844.677 -2.44462 2.91579 0
M  V30 9210 H 844.189 -0.84212 3.78853 0
M  V30 9211 H 842.29 -2.86637 2.38055 0
M  V30 9212 H 842.403 -2.32934 4.18663 0
M  V30 9213 H 840.767 -1.32199 2.17705 0
M  V30 9214 H 841.55 -0.211768 3.42646 0
M  V30 9215 N 843.995 -1.47404 -0.557645 0
M  V30 9216 C 845.272 -1.44488 -1.31843 0
M  V30 9217 C 845.652 -0.1416 -2.10625 0
M  V30 9218 O 845 0.876908 -2.11004 0
M  V30 9219 C 845.21 -2.69016 -2.22331 0
M  V30 9220 C 846.558 -3.16212 -2.83364 0
M  V30 9221 O 847.582 -2.69741 -2.32634 0
M  V30 9222 O 846.441 -3.96999 -3.75571 0
M  V30 9223 H 843.535 -0.57578 -0.593639 0
M  V30 9224 H 846.081 -1.59605 -0.576584 0
M  V30 9225 H 844.853 -3.55406 -1.63715 0
M  V30 9226 H 844.476 -2.56484 -3.03812 0
M  V30 9227 N 845.473 0.80434 -1.35529 0
M  V30 9228 C 846.405 1.92445 -1.2449 0
M  V30 9229 C 847.418 1.61934 -0.167685 0
M  V30 9230 O 848.607 1.73461 -0.42115 0
M  V30 9231 C 845.707 3.26875 -0.894751 0
M  V30 9232 C 844.88 3.85275 -2.07079 0
M  V30 9233 C 843.939 4.98116 -1.69607 0
M  V30 9234 O 842.965 5.15424 -2.41509 0
M  V30 9235 N 844.167 5.77169 -0.621012 0
M  V30 9236 H 846.932 2.02441 -2.20993 0
M  V30 9237 H 844.493 0.981874 -1.28728 0
M  V30 9238 H 846.485 3.99837 -0.625511 0
M  V30 9239 H 845.055 3.12594 -0.0193306 0
M  V30 9240 H 844.275 3.0448 -2.5037 0
M  V30 9241 H 845.563 4.21024 -2.85685 0
M  V30 9242 H 844.961 5.65695 -0.0236679 0
M  V30 9243 H 843.518 6.50499 -0.411558 0
M  V30 9244 N 846.951 1.19563 1.02676 0
M  V30 9245 C 847.881 0.959024 2.12897 0
M  V30 9246 C 848.862 -0.108382 1.69754 0
M  V30 9247 O 850.047 0.0470698 1.94143 0
M  V30 9248 C 847.177 0.499211 3.43693 0
M  V30 9249 C 846.131 1.5087 4.00528 0
M  V30 9250 C 845.457 0.905884 5.2697 0
M  V30 9251 C 846.757 2.88954 4.3509 0
M  V30 9252 H 848.451 1.88084 2.32948 0
M  V30 9253 H 845.997 0.905731 1.11949 0
M  V30 9254 H 847.95 0.320965 4.20176 0
M  V30 9255 H 846.674 -0.458205 3.2337 0
M  V30 9256 H 845.333 1.67413 3.26142 0
M  V30 9257 H 844.981 -0.0591506 5.02965 0
M  V30 9258 H 844.681 1.58 5.65959 0
M  V30 9259 H 846.205 0.73848 6.06118 0
M  V30 9260 H 847.619 2.75981 5.02501 0
M  V30 9261 H 846.016 3.53177 4.85166 0
M  V30 9262 H 847.086 3.41447 3.44299 0
M  V30 9263 N 848.429 -1.21819 0.999893 0
M  V30 9264 C 849.359 -2.26282 0.576096 0
M  V30 9265 C 850.34 -1.65317 -0.400537 0
M  V30 9266 O 851.525 -1.92028 -0.28964 0
M  V30 9267 C 848.655 -3.47147 -0.103145 0
M  V30 9268 C 847.609 -4.20594 0.792745 0
M  V30 9269 C 846.935 -5.34696 -0.0198026 0
M  V30 9270 C 848.235 -4.78533 2.09293 0
M  V30 9271 H 849.929 -2.61984 1.4493 0
M  V30 9272 H 847.475 -1.25935 0.698316 0
M  V30 9273 H 849.428 -4.1939 -0.411068 0
M  V30 9274 H 848.152 -3.1056 -1.01094 0
M  V30 9275 H 846.811 -3.50194 1.08442 0
M  V30 9276 H 846.459 -4.94352 -0.928729 0
M  V30 9277 H 846.159 -5.84764 0.576661 0
M  V30 9278 H 847.683 -6.09752 -0.321659 0
M  V30 9279 H 849.097 -5.42682 1.8485 0
M  V30 9280 H 847.494 -5.38968 2.63881 0
M  V30 9281 H 848.564 -3.98197 2.76708 0
M  V30 9282 N 849.908 -0.773975 -1.37286 0
M  V30 9283 C 850.856 -0.149581 -2.32119 0
M  V30 9284 C 851.85 0.682457 -1.55045 0
M  V30 9285 O 853.056 0.579269 -1.70424 0
M  V30 9286 H 849.431 -0.0295857 -0.751418 0
M  V30 9287 H 851.402 -0.965117 -2.82362 0
M  V30 9288 C 850.151 0.713409 -3.40302 0
M  V30 9289 H 849.474 0.0825416 -3.99715 0
M  V30 9290 H 850.914 1.11723 -4.09016 0
M  V30 9291 C 849.373 1.86498 -2.80571 0
M  V30 9292 O 849.903 2.9606 -2.71498 0
M  V30 9293 N 848.109 1.66629 -2.38082 0
M  V30 9294 H 847.656 0.775145 -2.45661 0
M  V30 9295 H 847.614 2.43845 -1.98461 0
M  V30 9296 N 851.386 1.48609 -0.524698 0
M  V30 9297 C 852.296 2.33318 0.244923 0
M  V30 9298 C 853.312 1.46153 0.944214 0
M  V30 9299 O 854.488 1.79141 0.920347 0
M  V30 9300 C 851.553 3.22149 1.28144 0
M  V30 9301 C 850.614 4.25184 0.593068 0
M  V30 9302 C 849.847 5.0977 1.5802 0
M  V30 9303 O 850.07 4.96249 2.81235 0
M  V30 9304 O 849.004 5.9134 1.1225 0
M  V30 9305 H 852.83 3.00362 -0.449066 0
M  V30 9306 H 850.415 1.46643 -0.285689 0
M  V30 9307 H 852.297 3.77111 1.88057 0
M  V30 9308 H 850.972 2.57772 1.95793 0
M  V30 9309 H 849.879 3.74071 -0.0464214 0
M  V30 9310 H 851.212 4.92183 -0.0413893 0
M  V30 9311 N 852.864 0.259585 1.55447 0
M  V30 9312 C 854.113 -0.362163 1.98422 0
M  V30 9313 C 854.426 -1.58135 1.1512 0
M  V30 9314 O 855.632 -2.27506 1.48166 0
M  V30 9315 C 854.088 -0.695722 3.53111 0
M  V30 9316 C 853.696 0.502784 4.4517 0
M  V30 9317 C 855.44 -1.28096 4.04712 0
M  V30 9318 C 853.347 0.144674 5.91223 0
M  V30 9319 H 852.277 -0.139092 0.74106 0
M  V30 9320 H 854.928 0.361798 1.79898 0
M  V30 9321 H 853.31 -1.47816 3.67378 0
M  V30 9322 H 854.484 1.27994 4.42667 0
M  V30 9323 H 852.799 1.0038 4.0412 0
M  V30 9324 H 855.396 -1.56243 5.11363 0
M  V30 9325 H 855.739 -2.20969 3.52815 0
M  V30 9326 H 856.272 -0.561146 3.93822 0
M  V30 9327 H 853.011 1.04087 6.47183 0
M  V30 9328 H 852.531 -0.596023 5.96831 0
M  V30 9329 H 854.21 -0.268651 6.46442 0
M  V30 9330 N 854.342 -1.57594 -0.0133615 0
M  V30 9331 C 855.275 -2.02991 -1.04259 0
M  V30 9332 C 856.253 -0.917193 -1.34262 0
M  V30 9333 O 857.437 -1.18428 -1.46653 0
M  V30 9334 C 854.564 -2.41624 -2.37351 0
M  V30 9335 C 853.61 -3.63495 -2.231 0
M  V30 9336 S 854.443 -5.1198 -1.5696 0
M  V30 9337 C 855.599 -5.5387 -2.91511 0
M  V30 9338 H 855.832 -2.89973 -0.655985 0
M  V30 9339 H 853.365 -1.52769 -0.223827 0
M  V30 9340 H 855.323 -2.64551 -3.13884 0
M  V30 9341 H 853.984 -1.55065 -2.73155 0
M  V30 9342 H 853.177 -3.88233 -3.21389 0
M  V30 9343 H 852.779 -3.405 -1.54711 0
M  V30 9344 H 855.071 -5.55514 -3.87828 0
M  V30 9345 H 856.014 -6.53988 -2.71488 0
M  V30 9346 H 856.422 -4.81404 -2.94806 0
M  V30 9347 N 855.82 0.285905 -1.54985 0
M  V30 9348 C 857.045 1.04207 -1.7932 0
M  V30 9349 C 857.47 1.79622 -0.558343 0
M  V30 9350 O 856.828 1.74506 0.491661 0
M  V30 9351 C 856.876 1.98648 -3.0095 0
M  V30 9352 O 855.98 3.07207 -2.75132 0
M  V30 9353 H 855.321 0.298596 -0.593074 0
M  V30 9354 H 857.851 0.318736 -2.02102 0
M  V30 9355 H 857.861 2.4084 -3.29333 0
M  V30 9356 H 856.536 1.43167 -3.90482 0
M  V30 9357 H 855.113 2.69423 -2.57809 0
M  V30 9358 N 857.298 1.47698 0.54982 0
M  V30 9359 C 858.547 1.53961 1.30303 0
M  V30 9360 C 858.86 0.209731 1.94472 0
M  V30 9361 O 860.066 0.150418 2.71083 0
M  V30 9362 C 858.522 2.71436 2.36328 0
M  V30 9363 C 858.13 4.10983 1.78316 0
M  V30 9364 C 859.874 2.86996 3.12783 0
M  V30 9365 C 857.781 5.19747 2.82164 0
M  V30 9366 H 856.711 0.573098 0.489975 0
M  V30 9367 H 859.362 1.73989 0.583089 0
M  V30 9368 H 857.744 2.44801 3.11269 0
M  V30 9369 H 858.918 4.47552 1.09697 0
M  V30 9370 H 857.233 4.00371 1.1442 0
M  V30 9371 H 859.83 3.65422 3.90347 0
M  V30 9372 H 860.173 1.95712 3.67427 0
M  V30 9373 H 860.706 3.13436 2.44954 0
M  V30 9374 H 857.445 6.12932 2.32366 0
M  V30 9375 H 856.965 4.87688 3.49171 0
M  V30 9376 H 858.644 5.47014 3.4552 0
M  V30 9377 N 858.776 -0.797141 1.35954 0
M  V30 9378 C 859.706 -1.92387 1.32323 0
M  V30 9379 C 860.687 -1.68967 0.196007 0
M  V30 9380 O 861.872 -1.90193 0.39245 0
M  V30 9381 C 859.002 -3.29286 1.10398 0
M  V30 9382 C 857.956 -3.67212 2.19862 0
M  V30 9383 C 857.282 -5.02377 1.8309 0
M  V30 9384 C 858.582 -3.76602 3.61896 0
M  V30 9385 H 860.276 -1.95683 2.26602 0
M  V30 9386 H 857.822 -0.94007 1.09081 0
M  V30 9387 H 859.775 -4.07721 1.06495 0
M  V30 9388 H 858.499 -3.26358 0.125668 0
M  V30 9389 H 857.158 -2.91069 2.22878 0
M  V30 9390 H 856.806 -4.95961 0.838527 0
M  V30 9391 H 856.506 -5.28722 2.56372 0
M  V30 9392 H 858.03 -5.8324 1.80729 0
M  V30 9393 H 859.444 -4.45246 3.6115 0
M  V30 9394 H 857.841 -4.14425 4.34018 0
M  V30 9395 H 858.911 -2.77906 3.97361 0
M  V30 9396 N 860.254 -1.20106 -1.0204 0
M  V30 9397 C 861.665 -1.00992 -1.57027 0
M  V30 9398 C 862.016 0.434782 -1.91322 0
M  V30 9399 O 861.141 1.31557 -1.71819 0
M  V30 9400 C 861.736 -1.82697 -2.85319 0
M  V30 9401 C 860.295 -1.67959 -3.36848 0
M  V30 9402 C 859.442 -1.80868 -2.10195 0
M  V30 9403 H 862.393 -1.34354 -0.844676 0
M  V30 9404 H 862.414 -1.32809 -3.5657 0
M  V30 9405 H 861.926 -2.87839 -2.60328 0
M  V30 9406 H 860.027 -0.654389 -3.66809 0
M  V30 9407 H 860.14 -2.49006 -4.09308 0
M  V30 9408 H 858.504 -1.24015 -2.22469 0
M  V30 9409 H 859.287 -2.87486 -1.87635 0
M  V30 9410 N 861.732 1.21287 -1.00634 0
M  V30 9411 C 862.679 2.23705 -0.567876 0
M  V30 9412 C 863.649 1.61043 0.406753 0
M  V30 9413 O 864.834 1.88289 0.308499 0
M  V30 9414 C 861.974 3.44961 0.097996 0
M  V30 9415 C 861.087 4.22091 -0.919972 0
M  V30 9416 C 860.222 5.30718 -0.226222 0
M  V30 9417 C 859.261 5.99581 -1.23165 0
M  V30 9418 N 858.398 6.99821 -0.565278 0
M  V30 9419 H 863.238 2.60571 -1.44592 0
M  V30 9420 H 860.775 1.28049 -0.724006 0
M  V30 9421 H 862.733 4.1418 0.501097 0
M  V30 9422 H 861.363 3.08818 0.939744 0
M  V30 9423 H 860.415 3.52038 -1.44131 0
M  V30 9424 H 861.727 4.69476 -1.68505 0
M  V30 9425 H 860.881 6.06253 0.232917 0
M  V30 9426 H 859.62 4.84343 0.571247 0
M  V30 9427 H 858.625 5.22816 -1.70128 0
M  V30 9428 H 859.85 6.48042 -2.03022 0
M  V30 9429 H 857.796 6.55656 0.212508 0
M  V30 9430 H 857.713 7.4528 -1.26858 0
M  V30 9431 H 858.981 7.79393 -0.129389 0
M  V30 9432 N 863.21 0.781244 1.36873 0
M  V30 9433 C 864.157 0.172146 2.30157 0
M  V30 9434 C 865.127 -0.679328 1.51573 0
M  V30 9435 O 866.312 -0.629713 1.80109 0
M  V30 9436 C 863.452 -0.693534 3.38059 0
M  V30 9437 C 862.565 0.175586 4.31643 0
M  V30 9438 C 861.7 -0.695695 5.26625 0
M  V30 9439 C 860.739 0.17538 6.11849 0
M  V30 9440 N 859.876 -0.654416 6.99043 0
M  V30 9441 H 864.716 0.973133 2.81663 0
M  V30 9442 H 862.253 0.491469 1.38647 0
M  V30 9443 H 864.211 -1.21035 3.99257 0
M  V30 9444 H 862.841 -1.46003 2.87894 0
M  V30 9445 H 861.893 0.810295 3.7167 0
M  V30 9446 H 863.205 0.847107 4.91554 0
M  V30 9447 H 862.359 -1.27863 5.93073 0
M  V30 9448 H 861.098 -1.40087 4.67148 0
M  V30 9449 H 860.103 0.77078 5.4437 0
M  V30 9450 H 861.328 0.87803 6.734 0
M  V30 9451 H 859.274 -1.34403 6.42084 0
M  V30 9452 H 859.191 -0.0403998 7.55989 0
M  V30 9453 H 860.459 -1.22144 7.69871 0
M  V30 9454 N 864.689 -1.48329 0.532571 0
M  V30 9455 C 865.639 -2.2664 -0.24868 0
M  V30 9456 C 866.623 -1.32861 -0.907563 0
M  V30 9457 O 867.815 -1.57382 -0.809942 0
M  V30 9458 C 864.944 -3.18004 -1.29339 0
M  V30 9459 C 864.03 -4.19256 -0.639166 0
M  V30 9460 N 864.421 -5.05043 0.276597 0
M  V30 9461 C 862.719 -4.36906 -0.896062 0
M  V30 9462 C 863.42 -5.78009 0.654261 0
M  V30 9463 N 862.396 -5.43598 0.0147447 0
M  V30 9464 H 866.198 -2.90344 0.455792 0
M  V30 9465 H 863.712 -1.58566 0.350778 0
M  V30 9466 H 865.709 -3.72767 -1.86682 0
M  V30 9467 H 864.369 -2.55855 -1.99921 0
M  V30 9468 H 865.38 -5.13813 0.649351 0
M  V30 9469 H 862.057 -3.85945 -1.59226 0
M  V30 9470 H 863.447 -6.57039 1.40532 0
M  V30 9471 N 866.167 -0.267825 -1.55308 0
M  V30 9472 C 867.413 0.351556 -1.9973 0
M  V30 9473 C 867.746 1.56049 -1.15596 0
M  V30 9474 O 867.021 1.93203 -0.224274 0
M  V30 9475 C 867.304 0.74091 -3.52395 0
M  V30 9476 C 867.157 -0.474861 -4.47286 0
M  V30 9477 C 868.476 1.5801 -4.10756 0
M  V30 9478 H 865.595 0.126308 -0.726096 0
M  V30 9479 H 868.237 -0.373316 -1.86296 0
M  V30 9480 H 866.387 1.35851 -3.63973 0
M  V30 9481 H 868.059 -1.1134 -4.47662 0
M  V30 9482 H 866.302 -1.11425 -4.19246 0
M  V30 9483 H 866.973 -0.158782 -5.51772 0
M  V30 9484 H 869.449 1.05857 -4.0241 0
M  V30 9485 H 868.325 1.82135 -5.17801 0
M  V30 9486 H 868.586 2.55878 -3.60526 0
M  V30 9487 N 867.645 1.57599 0.00500368 0
M  V30 9488 C 868.922 1.81561 0.727654 0
M  V30 9489 C 869.302 0.871604 1.92266 0
M  V30 9490 O 868.65 -0.0808232 2.28357 0
M  V30 9491 C 868.86 3.29922 1.13809 0
M  V30 9492 C 870.208 3.95531 1.54403 0
M  V30 9493 O 871.232 3.34215 1.23202 0
M  V30 9494 O 870.091 5.03535 2.12402 0
M  V30 9495 H 867.185 0.747462 0.353878 0
M  V30 9496 H 869.731 1.69688 -0.0200667 0
M  V30 9497 H 868.503 3.90253 0.286078 0
M  V30 9498 H 868.126 3.46775 1.94507 0
M  V30 9499 N 869.123 -0.277682 1.55134 0
M  V30 9500 C 870.37 -1.0099 1.7552 0
M  V30 9501 C 870.698 -1.86452 0.553712 0
M  V30 9502 O 869.953 -1.90122 -0.463896 0
M  V30 9503 C 870.252 -1.92599 3.01065 0
M  V30 9504 C 869.918 -1.22926 4.3382 0
M  V30 9505 C 868.58 -1.03659 4.69902 0
M  V30 9506 C 870.932 -0.733071 5.16019 0
M  V30 9507 C 868.26 -0.334933 5.85743 0
M  V30 9508 C 870.612 -0.0450319 6.32584 0
M  V30 9509 C 869.276 0.159393 6.6731 0
M  V30 9510 H 868.546 -0.36955 0.642273 0
M  V30 9511 H 871.193 -0.282611 1.89403 0
M  V30 9512 H 869.498 -2.71934 2.82062 0
M  V30 9513 H 871.195 -2.49367 3.14034 0
M  V30 9514 H 867.785 -1.38933 4.05457 0
M  V30 9515 H 871.969 -0.869565 4.88623 0
M  V30 9516 H 867.225 -0.165783 6.11175 0
M  V30 9517 H 871.399 0.34723 6.95534 0
M  V30 9518 H 869.026 0.70507 7.56923 0
M  V30 9519 N 870.601 -1.47988 -0.541979 0
M  V30 9520 C 871.847 -1.55623 -1.30036 0
M  V30 9521 C 872.18 -0.224254 -1.92901 0
M  V30 9522 O 871.455 0.768629 -1.78668 0
M  V30 9523 C 871.738 -2.68562 -2.39888 0
M  V30 9524 C 871.591 -4.11426 -1.81792 0
M  V30 9525 C 872.91 -2.77325 -3.41729 0
M  V30 9526 H 870.029 -0.566498 -0.471433 0
M  V30 9527 H 872.671 -1.8011 -0.604998 0
M  V30 9528 H 870.821 -2.47814 -2.992 0
M  V30 9529 H 872.493 -4.43581 -1.26624 0
M  V30 9530 H 870.736 -4.18989 -1.12386 0
M  V30 9531 H 871.407 -4.8625 -2.61276 0
M  V30 9532 H 873.883 -2.96085 -2.92357 0
M  V30 9533 H 872.759 -3.58097 -4.16002 0
M  V30 9534 H 873.02 -1.84995 -4.01534 0
M  V30 9535 N 872.079 0.78992 -1.36375 0
M  V30 9536 C 873.011 1.91113 -1.26524 0
M  V30 9537 C 874.024 1.61747 -0.184851 0
M  V30 9538 O 875.213 1.73004 -0.439524 0
M  V30 9539 C 872.313 3.25908 -0.92937 0
M  V30 9540 C 871.486 3.83057 -2.11154 0
M  V30 9541 C 870.545 4.96289 -1.74881 0
M  V30 9542 O 869.571 5.12834 -2.46962 0
M  V30 9543 N 870.773 5.76478 -0.682193 0
M  V30 9544 H 873.538 2.00085 -2.23128 0
M  V30 9545 H 871.099 0.968165 -1.29762 0
M  V30 9546 H 873.091 3.99151 -0.667884 0
M  V30 9547 H 871.661 3.12556 -0.0524843 0
M  V30 9548 H 870.881 3.01808 -2.53586 0
M  V30 9549 H 872.169 4.1797 -2.90135 0
M  V30 9550 H 871.567 5.65638 -0.0836661 0
M  V30 9551 H 870.124 6.50026 -0.480529 0
M  V30 9552 N 873.557 1.20646 1.01402 0
M  V30 9553 C 874.504 0.957618 2.09996 0
M  V30 9554 C 875.474 -0.113115 1.65714 0
M  V30 9555 O 876.659 0.032142 1.90773 0
M  V30 9556 C 873.799 0.5186 3.41181 0
M  V30 9557 C 872.912 1.65777 3.98926 0
M  V30 9558 C 872.047 1.16881 5.18182 0
M  V30 9559 C 871.086 2.2809 5.68015 0
M  V30 9560 N 870.223 1.80392 6.7853 0
M  V30 9561 H 875.063 1.88732 2.30617 0
M  V30 9562 H 872.6 0.940703 1.13089 0
M  V30 9563 H 874.558 0.245367 4.16478 0
M  V30 9564 H 873.188 -0.3741 3.20625 0
M  V30 9565 H 872.24 2.04586 3.207 0
M  V30 9566 H 873.552 2.49507 4.31912 0
M  V30 9567 H 872.706 0.851694 6.00692 0
M  V30 9568 H 871.445 0.301434 4.86768 0
M  V30 9569 H 870.45 2.60614 4.84108 0
M  V30 9570 H 871.675 3.15308 6.01463 0
M  V30 9571 H 869.621 0.959856 6.4894 0
M  V30 9572 H 869.538 2.57701 7.10722 0
M  V30 9573 H 870.806 1.51688 7.64598 0
M  V30 9574 N 875.035 -1.20752 1.01276 0
M  V30 9575 C 876.283 -1.89645 0.698505 0
M  V30 9576 C 876.604 -1.78986 -0.773883 0
M  V30 9577 O 875.874 -1.18977 -1.55632 0
M  V30 9578 H 874.454 -0.701992 0.255375 0
M  V30 9579 H 877.116 -1.46668 1.28353 0
M  V30 9580 H 876.212 -2.96364 0.978512 0
M  V30 9581 N 876.513 -0.788492 -1.36457 0
M  V30 9582 C 877.743 -0.371825 -2.03227 0
M  V30 9583 C 878.151 1.01627 -1.59589 0
M  V30 9584 O 877.494 1.663 -0.780382 0
M  V30 9585 C 877.556 -0.355179 -3.57741 0
M  V30 9586 C 877.22 -1.69069 -4.24576 0
M  V30 9587 C 878.217 -2.64601 -4.47529 0
M  V30 9588 C 875.902 -1.96973 -4.62068 0
M  V30 9589 C 877.896 -3.86232 -5.07054 0
M  V30 9590 C 875.583 -3.18872 -5.2131 0
M  V30 9591 C 876.581 -4.1332 -5.43742 0
M  V30 9592 O 876.269 -5.3307 -6.0174 0
M  V30 9593 H 876.001 -0.151452 -0.658816 0
M  V30 9594 H 878.555 -1.06827 -1.75434 0
M  V30 9595 H 876.785 0.397753 -3.84649 0
M  V30 9596 H 878.474 0.0366955 -4.05883 0
M  V30 9597 H 879.24 -2.44329 -4.18961 0
M  V30 9598 H 875.119 -1.24277 -4.43933 0
M  V30 9599 H 878.663 -4.59965 -5.24478 0
M  V30 9600 H 874.56 -3.39022 -5.49304 0
M  V30 9601 H 875.328 -5.34121 -6.20207 0
M  V30 9602 N 877.991 1.48044 -0.54043 0
M  V30 9603 C 879.219 2.06895 -0.0145153 0
M  V30 9604 C 879.634 1.39552 1.27164 0
M  V30 9605 O 878.991 0.486454 1.75897 0
M  V30 9606 C 879.042 3.60934 0.202278 0
M  V30 9607 O 878.763 4.25749 -1.03293 0
M  V30 9608 C 880.264 4.36607 0.767387 0
M  V30 9609 H 877.484 0.66991 -0.0382368 0
M  V30 9610 H 880.028 1.90288 -0.749057 0
M  V30 9611 H 878.183 3.77111 0.886897 0
M  V30 9612 H 878.597 5.18048 -0.820167 0
M  V30 9613 H 880.071 5.45126 0.86845 0
M  V30 9614 H 880.548 4.01745 1.77477 0
M  V30 9615 H 881.154 4.25133 0.119002 0
M  V30 9616 N 879.47 0.276058 1.55163 0
M  V30 9617 C 880.4 -0.604633 2.25536 0
M  V30 9618 C 881.381 -1.15813 1.24585 0
M  V30 9619 O 882.566 -1.1921 1.53306 0
M  V30 9620 C 879.696 -1.78836 2.97716 0
M  V30 9621 C 878.65 -1.36635 4.05604 0
M  V30 9622 C 877.976 -2.63325 4.65364 0
M  V30 9623 C 879.276 -0.515858 5.19746 0
M  V30 9624 H 880.97 -0.0177483 2.99395 0
M  V30 9625 H 878.516 -0.00709627 1.43998 0
M  V30 9626 H 880.469 -2.41036 3.45658 0
M  V30 9627 H 879.193 -2.40109 2.21394 0
M  V30 9628 H 877.852 -0.767541 3.58475 0
M  V30 9629 H 877.5 -3.22858 3.85709 0
M  V30 9630 H 877.2 -2.358 5.38212 0
M  V30 9631 H 878.724 -3.26372 5.16056 0
M  V30 9632 H 880.138 -1.04289 5.63735 0
M  V30 9633 H 878.535 -0.335449 5.99162 0
M  V30 9634 H 879.605 0.465137 4.82664 0
M  V30 9635 N 880.948 -1.576 0.00335426 0
M  V30 9636 C 881.895 -2.08632 -0.986975 0
M  V30 9637 C 882.865 -0.982491 -1.33927 0
M  V30 9638 O 884.05 -1.25513 -1.43705 0
M  V30 9639 C 881.19 -2.59705 -2.27261 0
M  V30 9640 C 880.303 -3.84002 -1.97905 0
M  V30 9641 C 879.438 -4.23563 -3.20574 0
M  V30 9642 C 878.477 -5.40688 -2.8692 0
M  V30 9643 N 877.614 -5.75526 -4.02136 0
M  V30 9644 H 882.454 -2.92977 -0.544855 0
M  V30 9645 H 879.991 -1.44831 -0.257376 0
M  V30 9646 H 881.949 -2.87395 -3.02423 0
M  V30 9647 H 880.579 -1.7823 -2.69136 0
M  V30 9648 H 879.631 -3.63199 -1.13096 0
M  V30 9649 H 880.943 -4.69261 -1.69102 0
M  V30 9650 H 880.097 -4.52554 -4.04079 0
M  V30 9651 H 878.836 -3.37019 -3.52518 0
M  V30 9652 H 877.841 -5.11417 -2.01822 0
M  V30 9653 H 879.066 -6.2891 -2.5622 0
M  V30 9654 H 877.012 -4.9194 -4.33971 0
M  V30 9655 H 876.929 -6.55367 -3.76869 0
M  V30 9656 H 878.197 -6.0911 -4.8642 0
M  V30 9657 N 882.426 0.269451 -1.5528 0
M  V30 9658 C 883.666 1.00819 -1.77806 0
M  V30 9659 C 884.03 1.83369 -0.569198 0
M  V30 9660 O 885.231 2.60244 -0.672783 0
M  V30 9661 C 883.502 1.86447 -3.04913 0
M  V30 9662 S 885.061 2.66538 -3.48573 0
M  V30 9663 H 881.879 0.339508 -0.624704 0
M  V30 9664 H 884.481 0.278256 -1.9351 0
M  V30 9665 H 883.185 1.24733 -3.90986 0
M  V30 9666 H 882.716 2.63755 -2.91885 0
M  V30 9667 H 884.731 3.88938 -3.08126 0
M  V30 9668 N 883.904 1.48273 0.534124 0
M  V30 9669 C 884.836 1.5857 1.65494 0
M  V30 9670 C 885.849 0.470266 1.5586 0
M  V30 9671 O 887.038 0.740928 1.62396 0
M  V30 9672 C 884.138 1.49554 3.04117 0
M  V30 9673 C 883.311 2.76066 3.39273 0
M  V30 9674 C 882.37 2.60562 4.57159 0
M  V30 9675 O 881.396 3.34438 4.60587 0
M  V30 9676 N 882.598 1.69906 5.55079 0
M  V30 9677 H 885.363 2.55226 1.57099 0
M  V30 9678 H 882.924 1.44944 0.721303 0
M  V30 9679 H 884.916 1.36882 3.80848 0
M  V30 9680 H 883.486 0.608895 3.06613 0
M  V30 9681 H 882.706 3.03332 2.51761 0
M  V30 9682 H 883.994 3.60006 3.59546 0
M  V30 9683 H 883.392 1.09079 5.55084 0
M  V30 9684 H 881.949 1.63175 6.31044 0
M  V30 9685 N 885.382 -0.782676 1.36792 0
M  V30 9686 C 886.61 -1.57162 1.34565 0
M  V30 9687 C 887.025 -1.88664 -0.0715501 0
M  V30 9688 O 886.382 -1.50633 -1.03033 0
M  V30 9689 C 886.433 -2.88854 2.1736 0
M  V30 9690 O 886.154 -2.58707 3.53557 0
M  V30 9691 C 887.655 -3.83132 2.2299 0
M  V30 9692 H 884.875 -0.487245 0.461338 0
M  V30 9693 H 887.419 -0.970905 1.79982 0
M  V30 9694 H 885.574 -3.45377 1.7548 0
M  V30 9695 H 885.988 -3.42961 3.96835 0
M  V30 9696 H 887.462 -4.72575 2.85266 0
M  V30 9697 H 887.939 -4.21472 1.23524 0
M  V30 9698 H 888.545 -3.32541 2.65135 0
M  V30 9699 N 886.86 -1.21182 -1.00761 0
M  V30 9700 C 887.792 -0.926523 -2.09638 0
M  V30 9701 C 888.805 0.0892511 -1.62555 0
M  V30 9702 O 889.994 -0.142915 -1.77927 0
M  V30 9703 C 887.094 -0.369175 -3.36883 0
M  V30 9704 C 886.267 -1.43866 -4.13063 0
M  V30 9705 C 885.326 -0.891015 -5.18601 0
M  V30 9706 O 884.352 -1.57384 -5.47009 0
M  V30 9707 N 885.554 0.295057 -5.7975 0
M  V30 9708 H 888.319 -1.8638 -2.34697 0
M  V30 9709 H 885.88 -1.11671 -1.17223 0
M  V30 9710 H 887.872 0.011534 -4.04698 0
M  V30 9711 H 886.442 0.472861 -3.09003 0
M  V30 9712 H 885.662 -1.99332 -3.40089 0
M  V30 9713 H 886.95 -2.15866 -4.60738 0
M  V30 9714 H 886.348 0.8669 -5.59018 0
M  V30 9715 H 884.905 0.617306 -6.4887 0
M  V30 9716 N 888.338 1.20213 -1.01915 0
M  V30 9717 C 889.563 1.94163 -0.729076 0
M  V30 9718 C 889.988 1.74416 0.704323 0
M  V30 9719 O 889.346 1.0401 1.48498 0
M  V30 9720 C 889.394 3.44258 -1.07324 0
M  V30 9721 O 888.498 4.11979 -0.186367 0
M  V30 9722 H 887.839 0.606506 -0.270272 0
M  V30 9723 H 890.369 1.52571 -1.3632 0
M  V30 9724 H 890.379 3.94888 -1.02603 0
M  V30 9725 H 889.054 3.57954 -2.11759 0
M  V30 9726 H 887.631 3.7176 -0.291334 0
M  V30 9727 N 889.816 0.795718 1.36037 0
M  V30 9728 C 891.093 0.294743 1.93367 0
M  V30 9729 C 891.473 -1.21406 1.72696 0
M  V30 9730 O 890.821 -2.00849 1.08959 0
M  V30 9731 C 891.031 0.694254 3.42025 0
M  V30 9732 C 892.379 0.677566 4.19159 0
M  V30 9733 O 893.403 0.635119 3.50492 0
M  V30 9734 O 892.262 0.726127 5.41655 0
M  V30 9735 H 889.356 0.0745459 0.823633 0
M  V30 9736 H 891.902 0.878685 1.4518 0
M  V30 9737 H 890.674 1.73458 3.50753 0
M  V30 9738 H 890.297 0.0845338 3.9751 0
M  V30 9739 N 891.294 -1.47756 0.548274 0
M  V30 9740 C 892.541 -2.02489 0.0208955 0
M  V30 9741 C 892.869 -1.42356 -1.32533 0
M  V30 9742 O 892.124 -0.565448 -1.87353 0
M  V30 9743 C 892.423 -3.5716 -0.131069 0
M  V30 9744 C 892.089 -4.36169 1.14313 0
M  V30 9745 C 890.751 -4.57476 1.4923 0
M  V30 9746 C 893.103 -4.81801 1.9879 0
M  V30 9747 C 890.431 -5.21662 2.68487 0
M  V30 9748 C 892.783 -5.47303 3.17242 0
M  V30 9749 C 891.447 -5.66844 3.52483 0
M  V30 9750 H 890.717 -0.740961 0.00764621 0
M  V30 9751 H 893.364 -1.77531 0.717987 0
M  V30 9752 H 891.669 -3.8106 -0.911063 0
M  V30 9753 H 893.366 -3.9715 -0.55433 0
M  V30 9754 H 889.956 -4.19858 0.861235 0
M  V30 9755 H 894.14 -4.65126 1.73123 0
M  V30 9756 H 889.396 -5.34987 2.95971 0
M  V30 9757 H 893.57 -5.81626 3.82994 0
M  V30 9758 H 891.197 -6.16352 4.44988 0
M  V30 9759 N 892.772 -0.284283 -1.55015 0
M  V30 9760 C 894.02 0.329212 -1.99401 0
M  V30 9761 C 894.341 1.55687 -1.17416 0
M  V30 9762 O 893.611 1.94087 -0.265937 0
M  V30 9763 H 892.191 0.12463 -0.73653 0
M  V30 9764 H 894.853 -0.391743 -1.90922 0
M  V30 9765 H 893.949 0.61278 -3.06025 0
M  V30 9766 N 894.251 1.57596 -0.0117121 0
M  V30 9767 C 895.198 2.09153 0.975897 0
M  V30 9768 C 896.168 0.989579 1.33404 0
M  V30 9769 O 897.353 1.26273 1.43038 0
M  V30 9770 C 894.493 2.60906 2.2588 0
M  V30 9771 C 893.606 3.85046 1.95866 0
M  V30 9772 C 892.741 4.25257 3.18323 0
M  V30 9773 C 891.78 5.42202 2.84049 0
M  V30 9774 N 890.917 5.77651 3.99079 0
M  V30 9775 H 895.757 2.93261 0.52931 0
M  V30 9776 H 893.294 1.44965 0.249691 0
M  V30 9777 H 895.252 2.88995 3.00895 0
M  V30 9778 H 893.882 1.79654 2.68187 0
M  V30 9779 H 892.934 3.63794 1.11168 0
M  V30 9780 H 894.246 4.70151 1.66611 0
M  V30 9781 H 893.4 4.5469 4.01674 0
M  V30 9782 H 892.139 3.38884 3.50726 0
M  V30 9783 H 891.144 5.1248 1.99107 0
M  V30 9784 H 892.369 6.3026 2.52881 0
M  V30 9785 H 890.315 4.94235 4.31356 0
M  V30 9786 H 890.232 6.57356 3.73388 0
M  V30 9787 H 891.5 6.11681 4.83183 0
M  V30 9788 N 895.729 -0.261212 1.5542 0
M  V30 9789 C 896.975 -0.992699 1.76843 0
M  V30 9790 C 897.308 -1.8551 0.574428 0
M  V30 9791 O 896.583 -1.89739 -0.427713 0
M  V30 9792 C 896.866 -1.86532 3.08022 0
M  V30 9793 C 896.719 -1.03206 4.378 0
M  V30 9794 C 898.038 -2.85036 3.35324 0
M  V30 9795 H 895.157 -0.359473 0.643388 0
M  V30 9796 H 897.799 -0.264214 1.88154 0
M  V30 9797 H 895.949 -2.48644 2.9851 0
M  V30 9798 H 897.621 -0.430743 4.59285 0
M  V30 9799 H 895.864 -0.335911 4.32497 0
M  V30 9800 H 896.535 -1.6761 5.25938 0
M  V30 9801 H 899.011 -2.3306 3.44706 0
M  V30 9802 H 897.887 -3.43226 4.28354 0
M  V30 9803 H 898.148 -3.60768 2.55537 0
M  V30 9804 N 897.207 -1.48554 -0.526253 0
M  V30 9805 C 898.435 -1.60429 -1.30652 0
M  V30 9806 C 898.85 -0.265963 -1.86917 0
M  V30 9807 O 898.207 0.745262 -1.6659 0
M  V30 9808 C 898.258 -2.65377 -2.45473 0
M  V30 9809 O 897.979 -3.94017 -1.91527 0
M  V30 9810 C 899.48 -2.87726 -3.37237 0
M  V30 9811 H 896.7 -0.540817 -0.397187 0
M  V30 9812 H 899.244 -1.94409 -0.634461 0
M  V30 9813 H 897.399 -2.34246 -3.08557 0
M  V30 9814 H 897.813 -4.51623 -2.66715 0
M  V30 9815 H 899.287 -3.64951 -4.14144 0
M  V30 9816 H 899.764 -1.96688 -3.92696 0
M  V30 9817 H 900.37 -3.20176 -2.79942 0
M  V30 9818 N 898.685 0.775411 -1.37205 0
M  V30 9819 C 899.618 1.8957 -1.27037 0
M  V30 9820 C 900.596 1.61891 -0.151643 0
M  V30 9821 O 901.78 1.85673 -0.325218 0
M  V30 9822 C 898.907 3.24712 -0.963316 0
M  V30 9823 C 897.953 3.71306 -2.09842 0
M  V30 9824 S 898.786 3.8541 -3.71778 0
M  V30 9825 C 899.942 5.23406 -3.43216 0
M  V30 9826 H 900.175 1.97905 -2.21857 0
M  V30 9827 H 897.708 0.936127 -1.22784 0
M  V30 9828 H 899.666 4.02768 -0.792983 0
M  V30 9829 H 898.327 3.14083 -0.0326561 0
M  V30 9830 H 897.52 4.69271 -1.83849 0
M  V30 9831 H 897.122 3.00341 -2.2287 0
M  V30 9832 H 899.414 6.08454 -2.97977 0
M  V30 9833 H 900.357 5.54409 -4.40495 0
M  V30 9834 H 900.765 4.9117 -2.78231 0
M  V30 9835 N 900.163 1.21714 1.00117 0
M  V30 9836 C 901.095 0.937627 2.09144 0
M  V30 9837 C 902.108 -0.0806291 1.626 0
M  V30 9838 O 903.297 0.152348 1.77849 0
M  V30 9839 C 900.397 0.387036 3.36683 0
M  V30 9840 C 899.57 1.46054 4.12295 0
M  V30 9841 C 898.629 0.918505 5.18122 0
M  V30 9842 O 897.655 1.60282 5.46167 0
M  V30 9843 N 898.857 -0.264308 5.79898 0
M  V30 9844 H 901.622 1.87622 2.33705 0
M  V30 9845 H 899.183 1.12291 1.16629 0
M  V30 9846 H 901.175 0.00992825 4.04699 0
M  V30 9847 H 899.745 -0.456467 3.09249 0
M  V30 9848 H 898.965 2.01133 3.39027 0
M  V30 9849 H 900.253 2.18306 4.59587 0
M  V30 9850 H 899.651 -0.837242 5.5947 0
M  V30 9851 H 898.208 -0.582886 6.49188 0
M  V30 9852 N 901.641 -1.19671 1.02551 0
M  V30 9853 C 902.888 -1.89268 0.720002 0
M  V30 9854 C 903.216 -1.79411 -0.751127 0
M  V30 9855 O 902.471 -1.17859 -1.5623 0
M  V30 9856 C 902.77 -3.39647 1.11241 0
M  V30 9857 C 902.436 -3.69706 2.58125 0
M  V30 9858 C 901.098 -3.7762 2.98256 0
M  V30 9859 C 903.45 -3.83301 3.53171 0
M  V30 9860 C 900.778 -3.96594 4.32354 0
M  V30 9861 C 903.13 -4.03788 4.86968 0
M  V30 9862 C 901.794 -4.09934 5.26793 0
M  V30 9863 H 901.064 -0.692579 0.263467 0
M  V30 9864 H 903.711 -1.41738 1.28774 0
M  V30 9865 H 902.016 -3.89052 0.463234 0
M  V30 9866 H 903.713 -3.91809 0.853602 0
M  V30 9867 H 900.303 -3.64152 2.26033 0
M  V30 9868 H 904.487 -3.76534 3.2332 0
M  V30 9869 H 899.743 -3.9959 4.6275 0
M  V30 9870 H 903.917 -4.1325 5.60533 0
M  V30 9871 H 901.544 -4.24389 6.30712 0
M  V30 9872 N 903.119 -0.802921 -1.35613 0
M  V30 9873 C 904.029 -0.212177 -2.33639 0
M  V30 9874 C 905.045 0.642871 -1.61689 0
M  V30 9875 O 906.221 0.555485 -1.93588 0
M  V30 9876 C 903.286 0.632406 -3.40883 0
M  V30 9877 C 902.347 -0.242708 -4.28613 0
M  V30 9878 C 901.58 0.56166 -5.30736 0
M  V30 9879 O 901.803 1.79664 -5.41366 0
M  V30 9880 O 900.737 -0.0455387 -6.01883 0
M  V30 9881 H 904.563 -1.023 -2.85952 0
M  V30 9882 H 902.148 -0.564636 -1.38319 0
M  V30 9883 H 904.03 1.11358 -4.0642 0
M  V30 9884 H 902.705 1.42089 -2.90848 0
M  V30 9885 H 901.612 -0.77094 -3.6607 0
M  V30 9886 H 902.945 -0.995046 -4.82037 0
M  V30 9887 N 904.597 1.47463 -0.556102 0
M  V30 9888 C 905.527 2.32801 0.180497 0
M  V30 9889 C 906.508 1.43721 0.909848 0
M  V30 9890 O 907.693 1.72578 0.89053 0
M  V30 9891 C 904.823 3.25478 1.21167 0
M  V30 9892 C 903.777 4.2379 0.598846 0
M  V30 9893 C 903.103 5.05783 1.73457 0
M  V30 9894 C 904.403 5.20387 -0.446659 0
M  V30 9895 H 906.097 2.94636 -0.531956 0
M  V30 9896 H 903.643 1.41683 -0.257267 0
M  V30 9897 H 905.596 3.8402 1.73513 0
M  V30 9898 H 904.32 2.61695 1.95405 0
M  V30 9899 H 902.979 3.66472 0.0966897 0
M  V30 9900 H 902.627 4.38405 2.46596 0
M  V30 9901 H 902.327 5.72343 1.33031 0
M  V30 9902 H 903.851 5.67183 2.26131 0
M  V30 9903 H 905.265 5.73299 -0.00930019 0
M  V30 9904 H 903.662 5.95143 -0.769735 0
M  V30 9905 H 904.732 4.65932 -1.34295 0
M  V30 9906 N 906.075 0.2925 1.54862 0
M  V30 9907 C 906.985 -0.597036 2.26876 0
M  V30 9908 C 908.001 -1.15558 1.30086 0
M  V30 9909 O 909.177 -1.18217 1.63054 0
M  V30 9910 C 906.242 -1.75664 2.98903 0
M  V30 9911 C 905.303 -1.23303 4.11212 0
M  V30 9912 C 904.536 -2.33736 4.79795 0
M  V30 9913 O 904.759 -3.53459 4.47686 0
M  V30 9914 O 903.693 -2.00908 5.67379 0
M  V30 9915 H 907.519 -0.0131242 3.03697 0
M  V30 9916 H 905.104 0.0592642 1.49282 0
M  V30 9917 H 906.986 -2.43241 3.4411 0
M  V30 9918 H 905.661 -2.32731 2.24984 0
M  V30 9919 H 904.568 -0.523222 3.70423 0
M  V30 9920 H 905.901 -0.707887 4.87083 0
M  V30 9921 N 907.553 -1.57587 0.0200696 0
M  V30 9922 C 908.799 -1.91708 -0.661503 0
M  V30 9923 C 909.132 -0.895968 -1.72296 0
M  V30 9924 O 908.407 0.082577 -1.94325 0
M  V30 9925 C 908.69 -3.36344 -1.28627 0
M  V30 9926 C 908.543 -4.49186 -0.234982 0
M  V30 9927 C 909.862 -3.80771 -2.20685 0
M  V30 9928 H 906.981 -0.69717 -0.239005 0
M  V30 9929 H 909.623 -1.8985 0.0754764 0
M  V30 9930 H 907.773 -3.38058 -1.91439 0
M  V30 9931 H 909.445 -4.59606 0.395011 0
M  V30 9932 H 907.688 -4.31557 0.440565 0
M  V30 9933 H 908.359 -5.47395 -0.711558 0
M  V30 9934 H 910.835 -3.80735 -1.67868 0
M  V30 9935 H 909.711 -4.82685 -2.61356 0
M  V30 9936 H 909.972 -3.15764 -3.09428 0
M  V30 9937 N 909.032 0.252966 -1.55557 0
M  V30 9938 C 910.272 0.989276 -1.78865 0
M  V30 9939 C 910.636 1.82755 -0.588615 0
M  V30 9940 O 911.837 2.59516 -0.700347 0
M  V30 9941 C 910.108 1.83203 -3.06874 0
M  V30 9942 S 911.667 2.62826 -3.5138 0
M  V30 9943 H 908.485 0.332863 -0.62827 0
M  V30 9944 H 911.087 0.257716 -1.93794 0
M  V30 9945 H 909.791 1.20579 -3.92287 0
M  V30 9946 H 909.322 2.60644 -2.94666 0
M  V30 9947 H 911.337 3.85648 -3.12234 0
M  V30 9948 N 910.51 1.48831 0.518367 0
M  V30 9949 C 911.442 1.60317 1.63802 0
M  V30 9950 C 912.455 0.486771 1.55352 0
M  V30 9951 O 913.644 0.758111 1.61601 0
M  V30 9952 C 910.744 1.52771 3.02513 0
M  V30 9953 C 909.917 2.79649 3.36326 0
M  V30 9954 C 908.976 2.65396 4.54369 0
M  V30 9955 O 908.002 3.39304 4.57013 0
M  V30 9956 N 909.204 1.75784 5.53245 0
M  V30 9957 H 911.969 2.56878 1.54383 0
M  V30 9958 H 909.53 1.45701 0.705889 0
M  V30 9959 H 911.522 1.40914 3.79375 0
M  V30 9960 H 910.092 0.641381 3.05949 0
M  V30 9961 H 909.312 3.05985 2.48529 0
M  V30 9962 H 910.6 3.63799 3.55707 0
M  V30 9963 H 909.998 1.14961 5.53896 0
M  V30 9964 H 908.555 1.69859 6.29278 0
M  V30 9965 N 911.988 -0.768124 1.37614 0
M  V30 9966 C 912.918 -1.89537 1.36374 0
M  V30 9967 C 913.899 -1.68513 0.231803 0
M  V30 9968 O 915.084 -1.89318 0.432705 0
M  V30 9969 C 912.214 -3.26871 1.17358 0
M  V30 9970 C 911.168 -3.62466 2.27602 0
M  V30 9971 C 910.494 -4.9838 1.93705 0
M  V30 9972 C 911.794 -3.68841 3.69802 0
M  V30 9973 H 913.488 -1.90832 2.30702 0
M  V30 9974 H 911.034 -0.91672 1.11051 0
M  V30 9975 H 912.987 -4.05371 1.15119 0
M  V30 9976 H 911.711 -3.26018 0.194865 0
M  V30 9977 H 910.37 -2.86276 2.29002 0
M  V30 9978 H 910.018 -4.94071 0.943539 0
M  V30 9979 H 909.718 -5.23165 2.6753 0
M  V30 9980 H 911.242 -5.79276 1.93059 0
M  V30 9981 H 912.656 -4.37485 3.70513 0
M  V30 9982 H 911.053 -4.05126 4.42711 0
M  V30 9983 H 912.123 -2.69415 4.03167 0
M  V30 9984 N 913.466 -1.22244 -0.994698 0
M  V30 9985 C 914.398 -0.948706 -2.08644 0
M  V30 9986 C 915.411 0.0720049 -1.62641 0
M  V30 9987 O 916.6 -0.161778 -1.77765 0
M  V30 9988 C 913.7 -0.404885 -3.36473 0
M  V30 9989 C 912.873 -1.48239 -4.11514 0
M  V30 9990 C 911.932 -0.94597 -5.17627 0
M  V30 9991 O 910.958 -1.63177 -5.45309 0
M  V30 9992 N 912.16 0.23355 -5.8003 0
M  V30 9993 H 914.925 -1.88858 -2.32707 0
M  V30 9994 H 912.486 -1.12908 -1.16032 0
M  V30 9995 H 914.478 -0.0313903 -4.04688 0
M  V30 9996 H 913.048 0.440061 -3.09487 0
M  V30 9997 H 912.268 -2.02928 -3.37955 0
M  V30 9998 H 913.556 -2.20741 -4.58422 0
M  V30 9999 H 912.954 0.80756 -5.59906 0
M  V30 10000 H 911.511 0.54845 -6.49488 0
M  V30 10001 N 914.944 1.19125 -1.03184 0
M  V30 10002 C 915.891 2.2245 -0.6152 0
M  V30 10003 C 916.861 1.61869 0.372502 0
M  V30 10004 O 918.046 1.88901 0.268491 0
M  V30 10005 C 915.186 3.45091 0.0248027 0
M  V30 10006 C 914.299 4.20044 -1.0093 0
M  V30 10007 C 913.434 5.30119 -0.338744 0
M  V30 10008 C 912.473 5.96833 -1.35855 0
M  V30 10009 N 911.61 6.98464 -0.713594 0
M  V30 10010 H 916.45 2.57445 -1.50086 0
M  V30 10011 H 913.987 1.26485 -0.751005 0
M  V30 10012 H 915.945 4.15149 0.413131 0
M  V30 10013 H 914.575 3.10742 0.874028 0
M  V30 10014 H 913.627 3.48901 -1.51566 0
M  V30 10015 H 914.939 4.65796 -1.78425 0
M  V30 10016 H 914.093 6.0661 0.104269 0
M  V30 10017 H 912.832 4.85446 0.468382 0
M  V30 10018 H 911.837 5.1909 -1.81179 0
M  V30 10019 H 913.062 6.4359 -2.16722 0
M  V30 10020 H 911.008 6.55959 0.0733863 0
M  V30 10021 H 910.925 7.42422 -1.42638 0
M  V30 10022 H 912.193 7.78943 -0.294681 0
M  V30 10023 N 916.422 0.810101 1.35185 0
M  V30 10024 C 917.833 0.452616 1.81131 0
M  V30 10025 C 918.184 -1.02573 1.67252 0
M  V30 10026 O 917.309 -1.79735 1.20516 0
M  V30 10027 C 917.904 0.814775 3.28857 0
M  V30 10028 C 916.463 0.509839 3.72931 0
M  V30 10029 C 915.61 1.03852 2.57119 0
M  V30 10030 H 918.561 1.00143 1.23114 0
M  V30 10031 H 918.582 0.113635 3.8033 0
M  V30 10032 H 918.094 1.89078 3.38926 0
M  V30 10033 H 916.195 -0.557289 3.68409 0
M  V30 10034 H 916.308 1.04493 4.67566 0
M  V30 10035 H 914.672 0.460671 2.50499 0
M  V30 10036 H 915.455 2.12071 2.69964 0
M  V30 10037 N 917.9 -1.47166 0.563914 0
M  V30 10038 C 919.177 -1.95586 -0.0236172 0
M  V30 10039 C 919.557 -1.50655 -1.47872 0
M  V30 10040 O 918.905 -0.748479 -2.15894 0
M  V30 10041 C 919.115 -3.48762 0.128841 0
M  V30 10042 C 920.463 -4.24598 -0.0130544 0
M  V30 10043 O 921.487 -3.56155 0.0567242 0
M  V30 10044 O 920.346 -5.46253 -0.164332 0
M  V30 10045 H 917.44 -0.824793 -0.0603789 0
M  V30 10046 H 919.986 -1.57536 0.63091 0
M  V30 10047 H 918.758 -3.74291 1.14113 0
M  V30 10048 H 918.381 -3.93594 -0.56299 0
M  V30 10049 N 919.378 -0.300708 -1.54705 0
M  V30 10050 C 920.624 0.309111 -2.0043 0
M  V30 10051 C 920.957 1.53562 -1.1888 0
M  V30 10052 O 920.232 1.92683 -0.265205 0
M  V30 10053 C 920.515 0.665995 -3.53888 0
M  V30 10054 C 920.368 -0.56963 -4.46178 0
M  V30 10055 C 921.687 1.49262 -4.14016 0
M  V30 10056 H 918.806 0.110878 -0.728612 0
M  V30 10057 H 921.448 -0.412748 -1.85463 0
M  V30 10058 H 919.598 1.281 -3.66773 0
M  V30 10059 H 921.27 -1.20811 -4.45199 0
M  V30 10060 H 919.513 -1.20292 -4.16788 0
M  V30 10061 H 920.184 -0.275785 -5.51311 0
M  V30 10062 H 922.66 0.972979 -4.04564 0
M  V30 10063 H 921.536 1.71111 -5.21548 0
M  V30 10064 H 921.797 2.48174 -3.65872 0
M  V30 10065 N 920.856 1.57574 -0.0284266 0
M  V30 10066 C 922.102 1.92056 0.651327 0
M  V30 10067 C 922.435 0.905092 1.71819 0
M  V30 10068 O 921.71 -0.0722703 1.94366 0
M  V30 10069 C 921.993 3.37021 1.26841 0
M  V30 10070 C 921.846 4.49304 0.211157 0
M  V30 10071 C 923.165 3.81936 2.18662 0
M  V30 10072 H 920.284 0.698428 0.235304 0
M  V30 10073 H 922.926 1.89807 -0.0855435 0
M  V30 10074 H 921.076 3.39068 1.89644 0
M  V30 10075 H 922.748 4.5939 -0.419379 0
M  V30 10076 H 920.991 4.31317 -0.463445 0
M  V30 10077 H 921.662 5.47764 0.682518 0
M  V30 10078 H 924.138 3.8162 1.65847 0
M  V30 10079 H 923.014 4.84064 2.58792 0
M  V30 10080 H 923.275 3.174 3.07749 0
M  V30 10081 N 922.334 -0.244713 1.55689 0
M  V30 10082 C 923.582 -0.970525 1.77272 0
M  V30 10083 C 923.903 -1.85771 0.592804 0
M  V30 10084 O 923.173 -1.91952 -0.391323 0
M  V30 10085 H 921.753 -0.361342 0.653789 0
M  V30 10086 H 924.415 -0.262134 1.93129 0
M  V30 10087 H 923.511 -1.59096 2.68505 0
M  V30 10088 N 923.813 -1.49104 -0.510467 0
M  V30 10089 C 925.062 -1.57362 -1.26175 0
M  V30 10090 C 925.375 -0.261218 -1.93848 0
M  V30 10091 O 926.581 -0.222238 -2.70589 0
M  V30 10092 C 925.037 -2.77606 -2.29048 0
M  V30 10093 C 924.645 -4.15567 -1.67357 0
M  V30 10094 C 926.389 -2.95188 -3.05064 0
M  V30 10095 C 924.296 -5.27046 -2.68285 0
M  V30 10096 H 923.226 -0.585887 -0.474608 0
M  V30 10097 H 925.877 -1.75474 -0.536753 0
M  V30 10098 H 924.259 -2.52968 -3.04669 0
M  V30 10099 H 925.433 -4.50304 -0.977924 0
M  V30 10100 H 923.748 -4.03264 -1.03765 0
M  V30 10101 H 926.345 -3.75643 -3.80521 0
M  V30 10102 H 926.688 -2.05385 -3.62108 0
M  V30 10103 H 927.221 -3.19821 -2.36558 0
M  V30 10104 H 923.96 -6.18878 -2.16034 0
M  V30 10105 H 923.48 -4.96774 -3.36118 0
M  V30 10106 H 925.159 -5.55983 -3.30896 0
M  V30 10107 N 925.291 0.760815 -1.38019 0
M  V30 10108 C 926.707 1.06289 -1.19058 0
M  V30 10109 C 926.907 2.01471 -0.0342603 0
M  V30 10110 O 925.963 2.44713 0.62224 0
M  V30 10111 C 927.276 1.6499 -2.51394 0
M  V30 10112 C 928.824 1.77196 -2.58013 0
M  V30 10113 C 929.299 2.3931 -3.90506 0
M  V30 10114 N 930.79 2.46749 -3.92007 0
M  V30 10115 C 931.525 2.95687 -4.91281 0
M  V30 10116 N 931.021 3.44715 -6.00952 0
M  V30 10117 N 932.814 2.94661 -4.78677 0
M  V30 10118 H 924.965 0.129045 -2.12008 0
M  V30 10119 H 927.228 0.119878 -0.94039 0
M  V30 10120 H 926.934 1.0252 -3.36426 0
M  V30 10121 H 926.808 2.64146 -2.6927 0
M  V30 10122 H 929.195 2.38796 -1.7338 0
M  V30 10123 H 929.276 0.767645 -2.4401 0
M  V30 10124 H 928.92 1.78346 -4.75558 0
M  V30 10125 H 928.85 3.40369 -4.01817 0
M  V30 10126 H 931.341 2.12064 -3.12789 0
M  V30 10127 H 931.654 3.80492 -6.72641 0
M  V30 10128 H 929.999 3.42791 -6.04582 0
M  V30 10129 H 933.19 2.55665 -3.92113 0
M  V30 10130 H 933.363 3.32489 -5.56197 0
M  V30 10131 N 926.769 1.22769 0.988202 0
M  V30 10132 C 928.185 0.988665 1.2529 0
M  V30 10133 C 928.385 -0.314938 1.99024 0
M  V30 10134 O 927.441 -1.03637 2.30251 0
M  V30 10135 C 928.754 2.19046 2.06009 0
M  V30 10136 C 930.302 2.23452 2.19176 0
M  V30 10137 C 930.777 3.43196 3.03283 0
M  V30 10138 N 932.268 3.43387 3.10869 0
M  V30 10139 C 933.003 4.32693 3.7625 0
M  V30 10140 N 932.499 5.32224 4.43519 0
M  V30 10141 N 934.292 4.20457 3.73058 0
M  V30 10142 H 926.443 2.06575 0.494014 0
M  V30 10143 H 928.706 0.905452 0.28082 0
M  V30 10144 H 928.412 3.13607 1.59197 0
M  V30 10145 H 928.286 2.19492 3.06763 0
M  V30 10146 H 930.673 1.29436 2.65199 0
M  V30 10147 H 930.754 2.27042 1.17836 0
M  V30 10148 H 930.398 4.37515 2.57959 0
M  V30 10149 H 930.328 3.36847 4.04774 0
M  V30 10150 H 932.819 2.71368 2.62998 0
M  V30 10151 H 933.132 5.9664 4.91163 0
M  V30 10152 H 931.477 5.36133 4.42252 0
M  V30 10153 H 934.668 3.41949 3.19669 0
M  V30 10154 H 934.841 4.90261 4.23731 0
M  V30 10155 N 928.247 -1.18576 1.03814 0
M  V30 10156 C 929.179 -2.21607 0.585055 0
M  V30 10157 C 930.192 -1.59125 -0.343963 0
M  V30 10158 O 931.381 -1.77959 -0.138882 0
M  V30 10159 C 928.481 -3.38495 -0.165602 0
M  V30 10160 C 927.654 -4.30557 0.770662 0
M  V30 10161 C 926.713 -5.26161 0.0637534 0
M  V30 10162 O 925.739 -5.64961 0.693359 0
M  V30 10163 N 926.941 -5.67882 -1.20377 0
M  V30 10164 H 929.706 -2.61104 1.47121 0
M  V30 10165 H 927.267 -1.33336 0.918316 0
M  V30 10166 H 929.259 -3.99474 -0.648292 0
M  V30 10167 H 927.829 -2.97711 -0.953268 0
M  V30 10168 H 927.049 -3.67221 1.43326 0
M  V30 10169 H 928.337 -4.88969 1.40667 0
M  V30 10170 H 927.735 -5.38409 -1.73586 0
M  V30 10171 H 926.292 -6.31069 -1.63079 0
M  V30 10172 N 929.725 -0.817259 -1.34754 0
M  V30 10173 C 931.141 -0.502309 -1.51489 0
M  V30 10174 C 931.341 0.974568 -1.76364 0
M  V30 10175 O 930.397 1.75924 -1.81127 0
M  V30 10176 C 931.71 -1.35693 -2.68343 0
M  V30 10177 C 933.258 -1.35347 -2.82224 0
M  V30 10178 C 933.733 -2.19244 -4.02114 0
M  V30 10179 N 935.224 -2.16837 -4.09311 0
M  V30 10180 C 935.959 -2.78505 -5.01221 0
M  V30 10181 N 935.455 -3.4914 -5.98392 0
M  V30 10182 N 937.248 -2.68089 -4.94049 0
M  V30 10183 H 929.399 -1.77359 -1.16866 0
M  V30 10184 H 931.662 -0.755476 -0.572678 0
M  V30 10185 H 931.368 -2.40548 -2.56573 0
M  V30 10186 H 931.242 -1.01764 -3.63213 0
M  V30 10187 H 933.629 -0.312727 -2.93438 0
M  V30 10188 H 933.71 -1.7327 -1.88179 0
M  V30 10189 H 933.354 -3.23365 -3.9166 0
M  V30 10190 H 933.284 -1.78675 -4.95361 0
M  V30 10191 H 935.775 -1.65452 -3.39756 0
M  V30 10192 H 936.088 -3.93455 -6.65141 0
M  V30 10193 H 934.433 -3.53246 -5.98533 0
M  V30 10194 H 937.624 -2.12485 -4.17094 0
M  V30 10195 H 937.797 -3.16436 -5.65484 0
M  V30 10196 N 931.203 1.46865 -0.571711 0
M  V30 10197 C 932.133 2.3298 0.155795 0
M  V30 10198 C 933.114 1.44678 0.894553 0
M  V30 10199 O 934.299 1.73513 0.872176 0
M  V30 10200 C 931.429 3.26745 1.17708 0
M  V30 10201 C 930.383 4.24401 0.553863 0
M  V30 10202 C 929.709 5.07595 1.68083 0
M  V30 10203 C 931.009 5.19884 -0.501827 0
M  V30 10204 H 932.703 2.94056 -0.563176 0
M  V30 10205 H 930.249 1.41402 -0.27228 0
M  V30 10206 H 932.202 3.85838 1.6943 0
M  V30 10207 H 930.926 2.63753 1.92618 0
M  V30 10208 H 929.585 3.66554 0.057815 0
M  V30 10209 H 929.233 4.40996 2.41933 0
M  V30 10210 H 928.933 5.73722 1.26953 0
M  V30 10211 H 930.457 5.6955 2.20103 0
M  V30 10212 H 931.871 5.73257 -0.0701057 0
M  V30 10213 H 930.268 5.94293 -0.832815 0
M  V30 10214 H 931.338 4.64482 -1.39229 0
M  V30 10215 N 932.681 0.308908 1.54543 0
M  V30 10216 C 933.628 -0.563659 2.23811 0
M  V30 10217 C 934.598 -1.12332 1.22355 0
M  V30 10218 O 935.783 -1.16638 1.50997 0
M  V30 10219 C 932.923 -1.72585 2.98845 0
M  V30 10220 C 932.036 -1.19682 4.1509 0
M  V30 10221 C 931.171 -2.32351 4.77688 0
M  V30 10222 C 930.21 -1.76623 5.86064 0
M  V30 10223 N 929.347 -2.82896 6.42584 0
M  V30 10224 H 934.187 0.0336288 2.97981 0
M  V30 10225 H 931.724 0.0283666 1.47073 0
M  V30 10226 H 933.682 -2.40951 3.40586 0
M  V30 10227 H 932.312 -2.29464 2.27037 0
M  V30 10228 H 931.364 -0.405173 3.78236 0
M  V30 10229 H 932.676 -0.748923 4.93146 0
M  V30 10230 H 931.83 -3.0865 5.22322 0
M  V30 10231 H 930.569 -2.80472 3.98982 0
M  V30 10232 H 929.574 -0.988171 5.40847 0
M  V30 10233 H 930.799 -1.29398 6.66658 0
M  V30 10234 H 928.745 -3.30336 5.66758 0
M  V30 10235 H 928.662 -2.42626 7.16009 0
M  V30 10236 H 929.93 -3.59068 6.91875 0
M  V30 10237 N 934.159 -1.57557 0.0367827 0
M  V30 10238 C 935.407 -1.91735 -0.63892 0
M  V30 10239 C 935.728 -0.914515 -1.72226 0
M  V30 10240 O 934.998 0.0428248 -1.95853 0
M  V30 10241 H 933.578 -0.707738 -0.23899 0
M  V30 10242 H 936.24 -1.94708 0.0863931 0
M  V30 10243 H 935.336 -2.92568 -1.08676 0
M  V30 10244 N 935.637 0.236453 -1.55816 0
M  V30 10245 C 936.914 0.986463 -1.68903 0
M  V30 10246 C 937.294 2.02984 -0.579722 0
M  V30 10247 O 936.642 2.24693 0.415389 0
M  V30 10248 C 936.852 1.61038 -3.09625 0
M  V30 10249 C 938.2 2.10829 -3.6856 0
M  V30 10250 O 939.224 1.7096 -3.12492 0
M  V30 10251 O 938.083 2.84064 -4.66873 0
M  V30 10252 H 935.177 0.459837 -0.687371 0
M  V30 10253 H 937.723 0.229412 -1.68142 0
M  V30 10254 H 936.495 0.856232 -3.81817 0
M  V30 10255 H 936.118 2.43336 -3.14441 0
M  V30 10256 N 937.115 1.49373 0.502552 0
M  V30 10257 C 938.078 1.65413 1.58654 0
M  V30 10258 C 939.078 0.526003 1.51953 0
M  V30 10259 O 940.268 0.792421 1.55133 0
M  V30 10260 C 937.4 1.65005 2.98306 0
M  V30 10261 H 938.593 2.62095 1.45762 0
M  V30 10262 H 936.146 1.38381 0.726672 0
M  V30 10263 H 936.881 0.699014 3.16677 0
M  V30 10264 H 936.666 2.46931 3.04578 0
M  V30 10265 H 938.156 1.79477 3.77065 0
M  V30 10266 N 938.594 -0.753485 1.38421 0
M  V30 10267 C 939.84 -1.51391 1.35839 0
M  V30 10268 C 940.195 -1.92331 -0.0513518 0
M  V30 10269 O 939.488 -1.62568 -1.01401 0
M  V30 10270 C 939.682 -2.77836 2.24816 0
M  V30 10271 C 939.511 -2.49257 3.74301 0
M  V30 10272 C 938.281 -2.42471 4.43324 0
M  V30 10273 C 940.479 -2.16027 4.6673 0
M  V30 10274 N 938.461 -2.06168 5.78246 0
M  V30 10275 C 939.832 -1.90016 5.90164 0
M  V30 10276 C 941.887 -2.02337 4.54933 0
M  V30 10277 C 940.59 -1.51696 7.03122 0
M  V30 10278 C 942.616 -1.65419 5.67794 0
M  V30 10279 C 941.978 -1.40281 6.9029 0
M  V30 10280 H 938.077 -0.553561 0.552354 0
M  V30 10281 H 940.661 -0.877409 1.73809 0
M  V30 10282 H 938.832 -3.39295 1.89034 0
M  V30 10283 H 940.564 -3.43889 2.13359 0
M  V30 10284 H 937.319 -2.58946 3.9654 0
M  V30 10285 H 937.743 -1.90662 6.49598 0
M  V30 10286 H 942.385 -2.20447 3.60781 0
M  V30 10287 H 940.103 -1.32325 7.97192 0
M  V30 10288 H 943.689 -1.55459 5.60646 0
M  V30 10289 H 942.569 -1.12139 7.76141 0
M  V30 10290 N 940.072 -1.23292 -0.981677 0
M  V30 10291 C 941.318 -1.06582 -1.72535 0
M  V30 10292 C 941.651 0.396538 -1.90108 0
M  V30 10293 O 940.926 1.29363 -1.45243 0
M  V30 10294 C 941.209 -1.7904 -3.12437 0
M  V30 10295 C 941.062 -3.32941 -3.02441 0
M  V30 10296 C 942.381 -1.55185 -4.11832 0
M  V30 10297 H 939.5 -0.388585 -0.626236 0
M  V30 10298 H 942.142 -1.51779 -1.14293 0
M  V30 10299 H 940.292 -1.40619 -3.62158 0
M  V30 10300 H 941.964 -3.80875 -2.60254 0
M  V30 10301 H 940.207 -3.62039 -2.38977 0
M  V30 10302 H 940.878 -3.78827 -4.0149 0
M  V30 10303 H 943.354 -1.88581 -3.70913 0
M  V30 10304 H 942.23 -2.08362 -5.07815 0
M  V30 10305 H 942.491 -0.486925 -4.3941 0
M  V30 10306 N 941.55 1.18024 -1.04442 0
M  V30 10307 C 942.78 1.91753 -0.769044 0
M  V30 10308 C 943.188 1.76629 0.678141 0
M  V30 10309 O 942.531 1.09589 1.47431 0
M  V30 10310 C 942.593 3.43505 -1.0604 0
M  V30 10311 C 942.257 3.82409 -2.50225 0
M  V30 10312 C 943.254 3.8588 -3.48414 0
M  V30 10313 C 940.939 4.13594 -2.85036 0
M  V30 10314 C 942.933 4.19993 -4.79463 0
M  V30 10315 C 940.62 4.47377 -4.1629 0
M  V30 10316 C 941.618 4.50553 -5.13314 0
M  V30 10317 O 941.306 4.83546 -6.42214 0
M  V30 10318 H 941.038 0.615466 -0.279603 0
M  V30 10319 H 943.592 1.5065 -1.3962 0
M  V30 10320 H 941.822 3.84866 -0.376125 0
M  V30 10321 H 943.511 3.98486 -0.772235 0
M  V30 10322 H 944.277 3.6192 -3.2286 0
M  V30 10323 H 940.156 4.10297 -2.10185 0
M  V30 10324 H 943.7 4.22387 -5.55189 0
M  V30 10325 H 939.597 4.70798 -4.4161 0
M  V30 10326 H 940.365 5.01433 -6.46921 0
M  V30 10327 N 943.028 0.824394 1.34319 0
M  V30 10328 C 943.975 0.245282 2.29493 0
M  V30 10329 C 944.945 -0.630762 1.53657 0
M  V30 10330 O 946.13 -0.572094 1.82021 0
M  V30 10331 C 943.27 -0.585631 3.40095 0
M  V30 10332 C 942.383 0.312821 4.30866 0
M  V30 10333 C 941.518 -0.527801 5.28571 0
M  V30 10334 C 940.557 0.369946 6.10981 0
M  V30 10335 N 939.694 -0.43169 7.00772 0
M  V30 10336 H 944.534 1.06225 2.78425 0
M  V30 10337 H 942.071 0.53533 1.37013 0
M  V30 10338 H 944.029 -1.08271 4.02906 0
M  V30 10339 H 942.659 -1.3677 2.92393 0
M  V30 10340 H 941.711 0.928129 3.68904 0
M  V30 10341 H 943.023 1.00306 4.8861 0
M  V30 10342 H 942.177 -1.0893 5.96841 0
M  V30 10343 H 940.916 -1.25154 4.71368 0
M  V30 10344 H 939.921 0.943577 5.41643 0
M  V30 10345 H 941.146 1.09182 6.70266 0
M  V30 10346 H 939.092 -1.13908 6.46035 0
M  V30 10347 H 939.009 0.200133 7.55735 0
M  V30 10348 H 940.277 -0.975894 7.73367 0
M  V30 10349 N 944.506 -1.46559 0.579492 0
M  V30 10350 C 945.922 -1.57771 0.240921 0
M  V30 10351 C 946.122 -1.57505 -1.25676 0
M  V30 10352 O 945.178 -1.4903 -2.03829 0
M  V30 10353 C 946.491 -2.87311 0.887285 0
M  V30 10354 C 948.039 -3.00937 0.860576 0
M  V30 10355 C 948.514 -4.33208 1.48642 0
M  V30 10356 N 950.005 -4.39899 1.45062 0
M  V30 10357 C 950.74 -5.40856 1.90428 0
M  V30 10358 N 950.236 -6.48503 2.43752 0
M  V30 10359 N 952.029 -5.32037 1.81364 0
M  V30 10360 H 944.18 -1.44976 1.55228 0
M  V30 10361 H 946.443 -0.691354 0.648639 0
M  V30 10362 H 946.149 -2.93307 1.94071 0
M  V30 10363 H 946.023 -3.75141 0.393577 0
M  V30 10364 H 948.41 -2.94524 -0.184223 0
M  V30 10365 H 948.491 -2.14591 1.39227 0
M  V30 10366 H 948.135 -4.40378 2.5304 0
M  V30 10367 H 948.065 -5.18323 0.92998 0
M  V30 10368 H 950.556 -3.62706 1.0608 0
M  V30 10369 H 950.869 -7.21744 2.76234 0
M  V30 10370 H 949.214 -6.49332 2.47776 0
M  V30 10371 H 952.405 -4.46841 1.39465 0
M  V30 10372 H 952.578 -6.10573 2.17035 0
M  V30 10373 N 945.984 -0.3171 -1.54377 0
M  V30 10374 C 946.914 0.544623 -2.2706 0
M  V30 10375 C 947.895 1.12469 -1.27611 0
M  V30 10376 O 949.08 1.15103 -1.56413 0
M  V30 10377 C 946.21 1.70879 -3.02353 0
M  V30 10378 C 945.164 1.25833 -4.09084 0
M  V30 10379 C 944.49 2.50894 -4.72182 0
M  V30 10380 C 945.79 0.377876 -5.20931 0
M  V30 10381 H 947.484 -0.0616372 -2.99337 0
M  V30 10382 H 945.03 -0.0310848 -1.43966 0
M  V30 10383 H 946.983 2.31787 -3.51927 0
M  V30 10384 H 945.707 2.34155 -2.27682 0
M  V30 10385 H 944.366 0.672228 -3.60384 0
M  V30 10386 H 944.014 3.12518 -3.94134 0
M  V30 10387 H 943.714 2.21447 -5.44275 0
M  V30 10388 H 945.238 3.12575 -5.24528 0
M  V30 10389 H 946.652 0.893056 -5.66302 0
M  V30 10390 H 945.049 0.176474 -5.9984 0
M  V30 10391 H 946.119 -0.592943 -4.81261 0
M  V30 10392 N 947.462 1.57535 -0.0451378 0
M  V30 10393 C 948.708 1.92736 0.630921 0
M  V30 10394 C 949.041 0.923265 1.70849 0
M  V30 10395 O 948.316 -0.0516512 1.94431 0
M  V30 10396 C 948.599 3.38348 1.23259 0
M  V30 10397 C 948.452 4.49503 0.16349 0
M  V30 10398 C 949.771 3.84233 2.14599 0
M  V30 10399 H 946.89 0.700884 0.227883 0
M  V30 10400 H 949.532 1.89706 -0.10567 0
M  V30 10401 H 947.682 3.41061 1.86037 0
M  V30 10402 H 949.354 4.58919 -0.46808 0
M  V30 10403 H 947.597 4.30802 -0.509166 0
M  V30 10404 H 948.268 5.48457 0.624382 0
M  V30 10405 H 950.744 3.83358 1.6179 0
M  V30 10406 H 949.62 4.86781 2.53644 0
M  V30 10407 H 949.881 3.20646 3.04366 0
M  V30 10408 N 948.94 -0.228186 1.55939 0
M  V30 10409 C 949.85 -1.30386 1.9503 0
M  V30 10410 C 950.866 -1.51645 0.853218 0
M  V30 10411 O 952.042 -1.64904 1.15623 0
M  V30 10412 C 949.107 -2.63489 2.25332 0
M  V30 10413 C 948.168 -2.5059 3.48573 0
M  V30 10414 C 947.401 -3.77345 3.7742 0
M  V30 10415 O 947.624 -4.80067 3.08045 0
M  V30 10416 O 946.558 -3.74855 4.70922 0
M  V30 10417 H 950.384 -1.0022 2.86687 0
M  V30 10418 H 947.969 -0.430503 1.43063 0
M  V30 10419 H 949.851 -3.4211 2.46046 0
M  V30 10420 H 948.526 -2.93349 1.3685 0
M  V30 10421 H 947.433 -1.70191 3.33145 0
M  V30 10422 H 948.766 -2.2567 4.37417 0
M  V30 10423 N 950.418 -1.49637 -0.494624 0
M  V30 10424 C 951.695 -1.4995 -1.25596 0
M  V30 10425 C 952.075 -0.230805 -2.09834 0
M  V30 10426 O 951.423 0.786625 -2.14533 0
M  V30 10427 C 951.633 -2.78204 -2.10721 0
M  V30 10428 C 952.981 -3.27946 -2.69698 0
M  V30 10429 O 954.005 -2.79365 -2.20984 0
M  V30 10430 O 952.864 -4.12571 -3.58395 0
M  V30 10431 H 949.958 -0.60044 -0.568684 0
M  V30 10432 H 952.504 -1.61906 -0.508371 0
M  V30 10433 H 951.276 -3.62029 -1.48494 0
M  V30 10434 H 950.899 -2.69139 -2.92661 0
M  V30 10435 N 951.896 0.746133 -1.38819 0
M  V30 10436 C 953.145 1.50085 -1.34749 0
M  V30 10437 C 953.458 1.95516 0.0574786 0
M  V30 10438 O 954.664 2.70601 0.22073 0
M  V30 10439 C 953.12 2.71141 -2.36665 0
M  V30 10440 C 952.728 2.32706 -3.82821 0
M  V30 10441 C 954.472 3.49005 -2.41652 0
M  V30 10442 C 952.379 3.50418 -4.76405 0
M  V30 10443 H 951.309 0.563563 -0.500912 0
M  V30 10444 H 953.96 0.814951 -1.6441 0
M  V30 10445 H 952.342 3.4175 -2.00058 0
M  V30 10446 H 953.516 1.69715 -4.28408 0
M  V30 10447 H 951.831 1.67959 -3.81023 0
M  V30 10448 H 954.428 4.36541 -3.08766 0
M  V30 10449 H 954.771 3.90687 -1.43769 0
M  V30 10450 H 955.304 2.85416 -2.77097 0
M  V30 10451 H 952.043 3.13795 -5.75511 0
M  V30 10452 H 951.563 4.12426 -4.35505 0
M  V30 10453 H 953.242 4.16901 -4.94775 0
M  V30 10454 N 953.375 1.23811 0.975125 0
M  V30 10455 C 954.305 1.04846 2.08638 0
M  V30 10456 C 955.286 -0.0362859 1.70061 0
M  V30 10457 O 956.471 0.12937 1.93769 0
M  V30 10458 C 953.601 0.644534 3.41267 0
M  V30 10459 C 952.555 1.67722 3.93768 0
M  V30 10460 C 951.881 1.12857 5.22654 0
M  V30 10461 C 953.181 3.07147 4.22443 0
M  V30 10462 H 954.875 1.97795 2.24761 0
M  V30 10463 H 952.421 0.952397 1.08006 0
M  V30 10464 H 954.374 0.498887 4.18436 0
M  V30 10465 H 953.098 -0.320641 3.25022 0
M  V30 10466 H 951.757 1.81095 3.18748 0
M  V30 10467 H 951.405 0.154227 5.02764 0
M  V30 10468 H 951.105 1.81862 5.58749 0
M  V30 10469 H 952.629 0.994891 6.0244 0
M  V30 10470 H 954.043 2.97045 4.90344 0
M  V30 10471 H 952.44 3.73437 4.6975 0
M  V30 10472 H 953.51 3.55743 3.29507 0
M  V30 10473 N 954.853 -1.17469 1.05066 0
M  V30 10474 C 956.078 -1.92162 0.780298 0
M  V30 10475 C 956.503 -1.76222 -0.657832 0
M  V30 10476 O 955.861 -1.0791 -1.45688 0
M  V30 10477 C 955.909 -3.41292 1.16414 0
M  V30 10478 O 955.013 -4.1134 0.295531 0
M  V30 10479 H 954.354 -0.599127 0.286257 0
M  V30 10480 H 956.884 -1.48903 1.40318 0
M  V30 10481 H 956.894 -3.92029 1.13036 0
M  V30 10482 H 955.569 -3.52214 2.21175 0
M  V30 10483 H 954.146 -3.70857 0.389797 0
M  V30 10484 N 956.331 -0.831506 -1.3388 0
M  V30 10485 C 957.556 -0.435954 -2.02766 0
M  V30 10486 C 957.981 0.952889 -1.62178 0
M  V30 10487 O 957.339 1.62166 -0.810681 0
M  V30 10488 C 957.387 -0.555907 -3.56289 0
M  V30 10489 O 956.491 0.420826 -4.10247 0
M  V30 10490 H 955.832 -0.178248 -0.639628 0
M  V30 10491 H 958.362 -1.1243 -1.70941 0
M  V30 10492 H 958.372 -0.434831 -4.05676 0
M  V30 10493 H 957.047 -1.56881 -3.85177 0
M  V30 10494 H 955.624 0.257919 -3.72007 0
M  V30 10495 N 957.809 1.4625 -0.587256 0
M  V30 10496 C 959.049 2.04254 -0.0773169 0
M  V30 10497 C 959.413 1.44831 1.26047 0
M  V30 10498 O 960.614 1.94063 1.85992 0
M  V30 10499 C 958.885 3.57396 -0.0172813 0
M  V30 10500 S 960.444 4.36644 0.434422 0
M  V30 10501 H 957.262 0.709892 -0.0396783 0
M  V30 10502 H 959.864 1.79232 -0.780779 0
M  V30 10503 H 958.568 3.98161 -0.994795 0
M  V30 10504 H 958.099 3.86962 0.70881 0
M  V30 10505 H 960.114 4.66597 1.68824 0
M  V30 10506 N 959.287 0.325282 1.54207 0
M  V30 10507 C 960.234 -0.539889 2.24397 0
M  V30 10508 C 961.204 -1.11028 1.2354 0
M  V30 10509 O 962.389 -1.1503 1.52226 0
M  V30 10510 C 959.529 -1.69405 3.00659 0
M  V30 10511 C 958.642 -1.15273 4.16337 0
M  V30 10512 C 957.777 -2.27272 4.80126 0
M  V30 10513 C 956.816 -1.70397 5.87904 0
M  V30 10514 N 955.953 -2.76065 6.45548 0
M  V30 10515 H 960.793 0.0652318 2.97929 0
M  V30 10516 H 958.33 0.043964 1.47034 0
M  V30 10517 H 960.288 -2.37325 3.43122 0
M  V30 10518 H 958.918 -2.27043 2.29458 0
M  V30 10519 H 957.97 -0.365034 3.78645 0
M  V30 10520 H 959.282 -0.696576 4.93912 0
M  V30 10521 H 958.436 -3.03092 5.25566 0
M  V30 10522 H 957.175 -2.76224 4.01935 0
M  V30 10523 H 956.18 -0.930752 5.41864 0
M  V30 10524 H 957.405 -1.22319 6.67993 0
M  V30 10525 H 955.351 -3.24306 5.7023 0
M  V30 10526 H 955.268 -2.35018 7.18542 0
M  V30 10527 H 956.536 -3.5171 6.95644 0
M  V30 10528 N 960.765 -1.57509 0.0534917 0
M  V30 10529 C 962.011 -1.93068 -0.62069 0
M  V30 10530 C 962.344 -0.932313 -1.70357 0
M  V30 10531 O 961.619 0.0413393 -1.94456 0
M  V30 10532 C 961.902 -3.38997 -1.21463 0
M  V30 10533 C 961.755 -4.49583 -0.13965 0
M  V30 10534 C 963.074 -3.85366 -2.12558 0
M  V30 10535 H 960.193 -0.702083 -0.224163 0
M  V30 10536 H 962.835 -1.89647 0.115729 0
M  V30 10537 H 960.985 -3.42043 -1.84226 0
M  V30 10538 H 962.657 -4.58664 0.492411 0
M  V30 10539 H 960.9 -4.30525 0.532006 0
M  V30 10540 H 961.571 -5.48781 -0.595287 0
M  V30 10541 H 964.047 -3.8421 -1.59755 0
M  V30 10542 H 962.923 -4.8812 -2.51058 0
M  V30 10543 H 963.184 -3.22256 -3.02661 0
M  V30 10544 O 962.282 0.08758 -1.61262 0
M  V30 10545 H 962.973 0.715334 -1.80007 0
M  V30 END ATOM
M  V30 BEGIN BOND
M  V30 END BOND
M  V30 END CTAB
M  END
$$$$
