drugbank_target|P00091 Cytochrome c2 (DB03088; DB03317)
 OpenBabel12092120263D

  0  0  0     0  0            999 V3000
M  V30 BEGIN CTAB
M  V30 COUNTS 2085 2099 0 0 0
M  V30 BEGIN ATOM
M  V30 1 H -0.908 1.98254 -0.117106 0
M  V30 2 N 0 1.576 0 0
M  V30 3 C 0.933 2.03868 1.02534 0
M  V30 4 C 1.911 0.928543 1.3348 0
M  V30 5 O 3.095 1.19667 1.45644 0
M  V30 6 C 0.222 2.43627 2.35294 0
M  V30 7 C -0.732 3.65373 2.2001 0
M  V30 8 S 0.101 5.13292 1.52614 0
M  V30 9 C 1.257 5.56322 2.86805 0
M  V30 10 H 1.49 2.90518 0.631377 0
M  V30 11 H -0.977 1.52953 0.210867 0
M  V30 12 H 0.981 2.67203 3.11629 0
M  V30 13 H -0.358 1.57376 2.7183 0
M  V30 14 H -1.165 3.90944 3.18086 0
M  V30 15 H -1.563 3.418 1.51819 0
M  V30 16 H 0.729 5.58782 3.83104 0
M  V30 17 H 1.672 6.56266 2.65933 0
M  V30 18 H 2.08 4.83886 2.90714 0
M  V30 19 N 1.4781 -0.272755 1.55222 0
M  V30 20 C 2.7241 -1.00581 1.761 0
M  V30 21 C 3.0571 -1.85932 0.560625 0
M  V30 22 O 2.3321 -1.89416 -0.441801 0
M  V30 23 C 2.6151 -1.88816 3.06628 0
M  V30 24 C 2.4681 -1.06457 4.37021 0
M  V30 25 C 3.7871 -2.8752 3.33197 0
M  V30 26 H 0.9061 -0.364244 0.640699 0
M  V30 27 H 3.5481 -0.278189 1.87952 0
M  V30 28 H 1.6981 -2.50856 2.96654 0
M  V30 29 H 3.3701 -0.464863 4.58952 0
M  V30 30 H 1.6131 -0.368043 4.32236 0
M  V30 31 H 2.2841 -1.71514 5.24678 0
M  V30 32 H 4.7601 -2.35615 3.42965 0
M  V30 33 H 3.6361 -3.46399 4.25792 0
M  V30 34 H 3.8971 -3.62657 2.52849 0
M  V30 35 N 2.9562 -1.48159 -0.537278 0
M  V30 36 C 3.9032 -1.62138 -1.64256 0
M  V30 37 C 4.8732 -0.463668 -1.59497 0
M  V30 38 O 6.0582 -0.686241 -1.78032 0
M  V30 39 C 3.1982 -1.66028 -3.02537 0
M  V30 40 C 2.3112 -2.92855 -3.17585 0
M  V30 41 C 1.4462 -2.87952 -4.46382 0
M  V30 42 C 0.4852 -4.09516 -4.54932 0
M  V30 43 N -0.3778 -4.02733 -5.75109 0
M  V30 44 H 4.4622 -2.56529 -1.51647 0
M  V30 45 H 1.9992 -1.27224 -0.738414 0
M  V30 46 H 3.9572 -1.66265 -3.82638 0
M  V30 47 H 2.5872 -0.751331 -3.13934 0
M  V30 48 H 1.6392 -3.02395 -2.30784 0
M  V30 49 H 2.9512 -3.82822 -3.19764 0
M  V30 50 H 2.1052 -2.8655 -5.34765 0
M  V30 51 H 0.8442 -1.95702 -4.46712 0
M  V30 52 H -0.1508 -4.11201 -3.64957 0
M  V30 53 H 1.0742 -5.02917 -4.56346 0
M  V30 54 H -0.9798 -3.13299 -5.76351 0
M  V30 55 H -1.0628 -4.86397 -5.78752 0
M  V30 56 H 0.2052 -4.05379 -6.65799 0
M  V30 57 N 4.4343 0.785586 -1.36625 0
M  V30 58 C 5.3813 1.89838 -1.31264 0
M  V30 59 C 6.3513 1.65115 -0.180633 0
M  V30 60 O 7.5363 1.87222 -0.36777 0
M  V30 61 C 4.6763 3.26706 -1.11163 0
M  V30 62 C 3.7893 3.63476 -2.33472 0
M  V30 63 C 2.9243 4.89481 -2.06353 0
M  V30 64 C 1.9633 5.18941 -3.24602 0
M  V30 65 N 1.1003 6.36131 -2.97123 0
M  V30 66 H 5.9403 1.93756 -2.26413 0
M  V30 67 H 3.4773 0.947454 -1.12524 0
M  V30 68 H 5.4353 4.05639 -0.975337 0
M  V30 69 H 4.0653 3.222 -0.196674 0
M  V30 70 H 3.1173 2.79636 -2.57891 0
M  V30 71 H 4.4293 3.81193 -3.21704 0
M  V30 72 H 3.5833 5.76288 -1.89675 0
M  V30 73 H 2.3223 4.73841 -1.15437 0
M  V30 74 H 1.3273 4.30615 -3.41834 0
M  V30 75 H 2.5523 5.36498 -4.16349 0
M  V30 76 H 0.4983 6.21875 -2.08823 0
M  V30 77 H 0.4153 6.54198 -3.78894 0
M  V30 78 H 1.6833 7.2591 -2.84033 0
M  V30 79 N 5.9124 1.20967 1.01018 0
M  V30 80 C 6.8424 0.988272 2.11555 0
M  V30 81 C 7.8234 -0.0849778 1.69888 0
M  V30 82 O 9.0084 0.0738202 1.9406 0
M  V30 83 C 6.1384 0.546528 3.42973 0
M  V30 84 C 5.0924 1.56375 3.9841 0
M  V30 85 C 4.4184 0.97842 5.25672 0
M  V30 86 C 5.7184 2.94922 4.31066 0
M  V30 87 H 7.4124 1.91276 2.30334 0
M  V30 88 H 4.9584 0.921073 1.1069 0
M  V30 89 H 6.9114 0.378839 4.19694 0
M  V30 90 H 5.6354 -0.413598 3.23971 0
M  V30 91 H 4.2944 1.71891 3.23804 0
M  V30 92 H 3.9424 0.0101688 5.02999 0
M  V30 93 H 3.6424 1.65784 5.63728 0
M  V30 94 H 5.1664 0.821939 6.05043 0
M  V30 95 H 6.5804 2.8288 4.9865 0
M  V30 96 H 4.9774 3.5983 4.80253 0
M  V30 97 H 6.0474 3.4616 3.39561 0
M  V30 98 N 7.3905 -1.2043 1.01659 0
M  V30 99 C 8.3205 -2.25466 0.607226 0
M  V30 100 C 9.3015 -1.65853 -0.377716 0
M  V30 101 O 10.4865 -1.92409 -0.263149 0
M  V30 102 C 7.6165 -3.47256 -0.0552949 0
M  V30 103 C 6.5705 -4.19462 0.850632 0
M  V30 104 C 5.8965 -5.34673 0.0538859 0
M  V30 105 C 7.1965 -4.75603 2.15868 0
M  V30 106 H 8.8905 -2.59962 1.48526 0
M  V30 107 H 6.4365 -1.2496 0.715605 0
M  V30 108 H 8.3895 -4.19917 -0.353233 0
M  V30 109 H 7.1135 -3.11924 -0.968045 0
M  V30 110 H 5.7725 -3.48667 1.13257 0
M  V30 111 H 5.4205 -4.95585 -0.860514 0
M  V30 112 H 5.1205 -5.83913 0.657192 0
M  V30 113 H 6.6445 -6.10138 -0.237598 0
M  V30 114 H 8.0585 -5.40083 1.92311 0
M  V30 115 H 6.4555 -5.3528 2.71284 0
M  V30 116 H 7.5255 -3.94346 2.82169 0
M  V30 117 N 8.8686 -0.792821 -1.36206 0
M  V30 118 C 10.0966 -0.378825 -2.03402 0
M  V30 119 C 10.5116 1.00586 -1.59774 0
M  V30 120 O 9.8686 1.64574 -0.788764 0
M  V30 121 C 9.9196 -0.43683 -3.58851 0
M  V30 122 O 9.6406 -1.76691 -4.00889 0
M  V30 123 C 11.1416 -0.0138943 -4.43298 0
M  V30 124 H 8.3616 -0.155673 -0.652692 0
M  V30 125 H 10.9056 -1.07261 -1.74113 0
M  V30 126 H 9.0606 0.208575 -3.86838 0
M  V30 127 H 9.4746 -1.72011 -4.95492 0
M  V30 128 H 10.9486 -0.105615 -5.51899 0
M  V30 129 H 11.4256 1.03915 -4.2673 0
M  V30 130 H 12.0316 -0.63192 -4.20579 0
M  V30 131 N 10.3467 1.47872 -0.545128 0
M  V30 132 C 11.5957 2.01695 -0.0145033 0
M  V30 133 C 11.9087 1.42609 1.33873 0
M  V30 134 O 13.1147 1.88021 1.95858 0
M  V30 135 C 11.5707 3.59892 0.0245068 0
M  V30 136 C 11.1787 4.27966 -1.32475 0
M  V30 137 C 12.9227 4.21507 0.50316 0
M  V30 138 C 10.8297 5.78136 -1.2455 0
M  V30 139 H 9.7597 0.753998 -0.00165172 0
M  V30 140 H 12.4107 1.69985 -0.691175 0
M  V30 141 H 10.7927 3.88509 0.766575 0
M  V30 142 H 11.9667 4.11003 -2.08357 0
M  V30 143 H 10.2817 3.78286 -1.74036 0
M  V30 144 H 12.8787 5.31538 0.580656 0
M  V30 145 H 13.2217 3.87855 1.51243 0
M  V30 146 H 13.7547 3.97376 -0.183681 0
M  V30 147 H 10.4937 6.16388 -2.23039 0
M  V30 148 H 10.0137 5.97469 -0.528282 0
M  V30 149 H 11.6927 6.40099 -0.942488 0
M  V30 150 N 11.8248 0.280983 1.55075 0
M  V30 151 C 12.7548 -0.597469 2.25727 0
M  V30 152 C 13.7358 -1.15417 1.24952 0
M  V30 153 O 14.9208 -1.18722 1.53684 0
M  V30 154 C 12.0508 -1.7789 2.98283 0
M  V30 155 C 11.0048 -1.35347 4.06036 0
M  V30 156 C 10.3308 -2.61846 4.66198 0
M  V30 157 C 11.6308 -0.499354 5.19907 0
M  V30 158 H 13.3248 -0.00824265 2.99399 0
M  V30 159 H 10.8708 -0.0025244 1.44 0
M  V30 160 H 12.8238 -2.39937 3.46422 0
M  V30 161 H 11.5478 -2.39405 2.22155 0
M  V30 162 H 10.2068 -0.756156 3.58717 0
M  V30 163 H 9.8548 -3.21632 3.86732 0
M  V30 164 H 9.5548 -2.3409 5.38958 0
M  V30 165 H 11.0788 -3.24732 5.1709 0
M  V30 166 H 12.4928 -1.02498 5.64063 0
M  V30 167 H 10.8898 -0.316424 5.99265 0
M  V30 168 H 11.9598 0.480459 4.82514 0
M  V30 169 N 13.3029 -1.57598 0.00835791 0
M  V30 170 C 14.5279 -1.95617 -0.689103 0
M  V30 171 C 14.9529 -0.883753 -1.66046 0
M  V30 172 O 14.3109 0.157352 -1.80616 0
M  V30 173 C 14.3589 -3.32736 -1.38994 0
M  V30 174 O 13.4629 -3.27631 -2.50463 0
M  V30 175 H 12.8039 -0.638379 -0.182668 0
M  V30 176 H 15.3339 -2.045 0.064036 0
M  V30 177 H 15.3439 -3.68494 -1.75147 0
M  V30 178 H 14.0189 -4.1034 -0.677778 0
M  V30 179 H 12.5959 -3.03561 -2.16576 0
M  V30 180 N 14.781 0.264519 -1.55364 0
M  V30 181 C 16.03 0.992812 -1.75574 0
M  V30 182 C 16.343 1.87142 -0.568979 0
M  V30 183 O 17.549 2.63513 -0.653682 0
M  V30 184 C 16.005 1.81519 -3.10771 0
M  V30 185 C 15.613 0.984839 -4.37041 0
M  V30 186 C 17.357 2.53727 -3.40327 0
M  V30 187 C 15.264 1.80209 -5.63275 0
M  V30 188 H 14.194 0.374412 -0.65447 0
M  V30 189 H 16.845 0.248138 -1.81815 0
M  V30 190 H 15.227 2.60115 -2.98591 0
M  V30 191 H 16.401 0.242455 -4.60162 0
M  V30 192 H 14.716 0.37691 -4.14691 0
M  V30 193 H 17.313 3.15292 -4.3185 0
M  V30 194 H 17.656 3.24447 -2.60845 0
M  V30 195 H 18.189 1.82156 -3.53644 0
M  V30 196 H 14.928 1.13896 -6.45529 0
M  V30 197 H 14.448 2.52022 -5.44284 0
M  V30 198 H 16.127 2.37364 -6.01887 0
M  V30 199 N 16.2591 1.48442 0.529413 0
M  V30 200 C 17.2221 1.62524 1.61612 0
M  V30 201 C 18.2221 0.498509 1.52877 0
M  V30 202 O 19.4121 0.76431 1.56537 0
M  V30 203 C 16.5441 1.59597 3.01233 0
M  V30 204 H 17.7371 2.59423 1.50465 0
M  V30 205 H 15.2901 1.37047 0.751514 0
M  V30 206 H 16.0251 0.641781 3.17886 0
M  V30 207 H 15.8101 2.41397 3.08982 0
M  V30 208 H 17.3001 1.72646 3.80241 0
M  V30 209 N 17.7372 -0.778329 1.37039 0
M  V30 210 C 18.7002 -1.87301 1.32102 0
M  V30 211 C 19.7002 -1.59198 0.226405 0
M  V30 212 O 20.8902 -1.67403 0.481861 0
M  V30 213 C 18.0222 -3.24309 1.05055 0
M  V30 214 H 19.2152 -1.93093 2.29467 0
M  V30 215 H 16.7682 -0.977358 1.21973 0
M  V30 216 H 17.5032 -3.24196 0.0819373 0
M  V30 217 H 17.2882 -3.46098 1.84279 0
M  V30 218 H 18.7782 -4.04382 1.04234 0
M  V30 219 N 19.2153 -1.21501 -1.00376 0
M  V30 220 C 20.4433 -1.059 -1.77744 0
M  V30 221 C 20.8583 0.391125 -1.84704 0
M  V30 222 O 20.2153 1.27133 -1.30933 0
M  V30 223 C 20.2663 -1.65111 -3.21591 0
M  V30 224 O 19.9873 -3.0445 -3.15027 0
M  V30 225 C 21.4883 -1.54637 -4.15454 0
M  V30 226 H 18.7083 -0.371825 -0.558558 0
M  V30 227 H 21.2523 -1.60865 -1.26264 0
M  V30 228 H 19.4073 -1.14235 -3.70175 0
M  V30 229 H 19.8213 -3.3278 -4.0541 0
M  V30 230 H 21.2953 -2.00808 -5.14179 0
M  V30 231 H 21.7723 -0.501022 -4.36333 0
M  V30 232 H 22.3783 -2.04767 -3.72761 0
M  V30 233 N 20.6934 1.19889 -1.02296 0
M  V30 234 C 21.6564 2.21116 -0.603351 0
M  V30 235 C 22.6564 1.5738 0.329884 0
M  V30 236 O 23.8464 1.73802 0.117702 0
M  V30 237 C 20.9784 3.40696 0.117992 0
M  V30 238 H 22.1714 2.59754 -1.49893 0
M  V30 239 H 19.7244 1.33463 -0.813468 0
M  V30 240 H 20.4594 3.07569 1.0282 0
M  V30 241 H 20.2444 3.88188 -0.552511 0
M  V30 242 H 21.7344 4.15692 0.398696 0
M  V30 243 N 22.1715 0.800033 1.35784 0
M  V30 244 C 23.4195 0.376597 1.9856 0
M  V30 245 C 23.7405 -1.05812 1.63795 0
M  V30 246 O 23.0105 -1.73103 0.917171 0
M  V30 247 H 21.5905 0.136261 0.734467 0
M  V30 248 H 24.2525 1.02442 1.65806 0
M  V30 249 H 23.3485 0.477002 3.08433 0
M  V30 250 N 23.6496 -1.47581 0.552962 0
M  V30 251 C 24.8746 -2.07378 0.0300593 0
M  V30 252 C 25.2996 -1.40355 -1.25229 0
M  V30 253 O 24.6576 -0.477099 -1.7491 0
M  V30 254 C 24.7056 -3.60274 -0.153231 0
M  V30 255 O 23.8096 -3.94041 -1.21678 0
M  V30 256 H 23.1506 -0.662158 0.0494182 0
M  V30 257 H 25.6806 -1.89662 0.767434 0
M  V30 258 H 25.6906 -4.0633 -0.368761 0
M  V30 259 H 24.3656 -4.08455 0.783397 0
M  V30 260 H 22.9426 -3.59735 -0.982079 0
M  V30 261 N 25.1277 -0.289203 -1.54924 0
M  V30 262 C 26.0577 0.58549 -2.2604 0
M  V30 263 C 27.0387 1.14753 -1.25562 0
M  V30 264 O 28.2237 1.17906 -1.54311 0
M  V30 265 C 25.3537 1.76305 -2.99222 0
M  V30 266 C 24.3077 1.33191 -4.06748 0
M  V30 267 C 23.6337 2.5937 -4.6758 0
M  V30 268 C 24.9337 0.471775 -5.20165 0
M  V30 269 H 26.6277 -0.00763532 -2.99399 0
M  V30 270 H 24.1737 -0.00511229 -1.43999 0
M  V30 271 H 26.1267 2.38097 -3.47689 0
M  V30 272 H 24.8507 2.38223 -2.23422 0
M  V30 273 H 23.5097 0.737121 -3.59113 0
M  V30 274 H 23.1577 3.19576 -3.88433 0
M  V30 275 H 22.8577 2.31228 -5.40192 0
M  V30 276 H 24.3817 3.21985 -5.18804 0
M  V30 277 H 25.7957 0.995056 -5.64599 0
M  V30 278 H 24.1927 0.284639 -5.99425 0
M  V30 279 H 25.2627 -0.506041 -4.82252 0
M  V30 280 N 26.6058 1.57591 -0.0167156 0
M  V30 281 C 27.8308 1.9598 0.67872 0
M  V30 282 C 28.2558 0.892546 1.65575 0
M  V30 283 O 27.6138 -0.147772 1.80697 0
M  V30 284 C 27.6618 3.33468 1.37227 0
M  V30 285 O 26.7658 3.28954 2.48722 0
M  V30 286 H 26.1068 0.639339 0.17928 0
M  V30 287 H 28.6368 2.04463 -0.0748802 0
M  V30 288 H 28.6468 3.69417 1.7319 0
M  V30 289 H 27.3218 4.10694 0.656007 0
M  V30 290 H 25.8988 3.04705 2.14963 0
M  V30 291 N 28.0839 -0.256276 1.55502 0
M  V30 292 C 29.3329 -0.983486 1.76098 0
M  V30 293 C 29.6459 -1.86837 0.578896 0
M  V30 294 O 30.8519 -2.63163 0.667648 0
M  V30 295 C 29.3079 -1.79868 3.1173 0
M  V30 296 C 28.9159 -0.961648 4.37557 0
M  V30 297 C 30.6599 -2.51919 3.41668 0
M  V30 298 C 28.5669 -1.77219 5.64223 0
M  V30 299 H 27.4969 -0.370936 0.656447 0
M  V30 300 H 30.1479 -0.238492 1.81944 0
M  V30 301 H 28.5299 -2.58527 2.99966 0
M  V30 302 H 29.7039 -0.218048 4.60284 0
M  V30 303 H 28.0189 -0.354913 4.14885 0
M  V30 304 H 30.6159 -3.12998 4.33516 0
M  V30 305 H 30.9589 -3.23059 2.62562 0
M  V30 306 H 31.4919 -1.80278 3.54605 0
M  V30 307 H 28.2309 -1.10471 6.46124 0
M  V30 308 H 27.7509 -2.49132 5.45613 0
M  V30 309 H 29.4299 -2.34169 6.03137 0
M  V30 310 N 29.562 -1.4872 -0.521534 0
M  V30 311 C 30.81 -1.56857 -1.27437 0
M  V30 312 C 31.131 -0.247982 -1.93417 0
M  V30 313 O 30.401 0.731151 -1.81744 0
M  V30 314 H 28.981 -0.577885 -0.473347 0
M  V30 315 H 31.643 -1.85233 -0.606205 0
M  V30 316 H 30.739 -2.35402 -2.0492 0
M  V30 317 N 31.0401 0.771051 -1.3745 0
M  V30 318 C 32.2681 1.56015 -1.35893 0
M  V30 319 C 32.6831 1.88718 0.0555523 0
M  V30 320 O 32.0401 1.51502 1.01752 0
M  V30 321 C 32.0911 2.87001 -2.19801 0
M  V30 322 O 31.8121 2.557 -3.55738 0
M  V30 323 C 33.3131 3.81228 -2.26231 0
M  V30 324 H 30.5331 0.483317 -0.465453 0
M  V30 325 H 33.0771 0.955611 -1.80799 0
M  V30 326 H 31.2321 3.43877 -1.78402 0
M  V30 327 H 31.6461 3.39584 -3.99729 0
M  V30 328 H 33.1201 4.70139 -2.89263 0
M  V30 329 H 33.5971 4.20409 -1.27093 0
M  V30 330 H 34.2031 3.30281 -2.67945 0
M  V30 331 N 32.5182 1.22032 0.997298 0
M  V30 332 C 33.4812 0.987909 2.06816 0
M  V30 333 C 34.4812 -0.0440084 1.6074 0
M  V30 334 O 35.6712 0.194053 1.73116 0
M  V30 335 C 32.8032 0.49132 3.37341 0
M  V30 336 H 33.9962 1.93803 2.28868 0
M  V30 337 H 31.5492 1.03838 1.16822 0
M  V30 338 H 32.2842 -0.463364 3.20973 0
M  V30 339 H 32.0692 1.23575 3.72118 0
M  V30 340 H 33.5592 0.348824 4.16141 0
M  V30 341 N 33.9963 -1.19345 1.0293 0
M  V30 342 C 35.2213 -1.93538 0.745511 0
M  V30 343 C 35.6463 -1.75007 -0.689511 0
M  V30 344 O 35.0043 -1.05265 -1.47611 0
M  V30 345 C 35.0523 -3.43336 1.10239 0
M  V30 346 O 34.1563 -4.11806 0.221289 0
M  V30 347 H 33.4973 -0.604193 0.275404 0
M  V30 348 H 36.0273 -1.5141 1.37609 0
M  V30 349 H 36.0373 -3.94004 1.05947 0
M  V30 350 H 34.7123 -3.56146 2.14786 0
M  V30 351 H 33.2893 -3.715 0.322842 0
M  V30 352 N 35.4744 -0.807222 -1.35358 0
M  V30 353 C 36.4374 -0.223665 -2.28106 0
M  V30 354 C 37.4374 0.589354 -1.4961 0
M  V30 355 O 38.6274 0.407745 -1.69361 0
M  V30 356 C 35.7594 0.688149 -3.33882 0
M  V30 357 H 36.9524 -1.04169 -2.81227 0
M  V30 358 H 34.5054 -0.577921 -1.45223 0
M  V30 359 H 35.2404 1.52984 -2.85948 0
M  V30 360 H 35.0254 0.10687 -3.91954 0
M  V30 361 H 36.5154 1.09075 -4.03104 0
M  V30 362 N 36.9525 1.47285 -0.560781 0
M  V30 363 C 37.8845 2.28118 0.222438 0
M  V30 364 C 38.8975 1.37219 0.876056 0
M  V30 365 O 40.0865 1.62011 0.749307 0
M  V30 366 C 37.1865 3.1159 1.33285 0
M  V30 367 C 36.3595 4.30473 0.77534 0
M  V30 368 C 35.4185 4.95513 1.77069 0
M  V30 369 O 34.4445 5.53792 1.31539 0
M  V30 370 N 35.6465 4.90531 3.10418 0
M  V30 371 H 38.4115 2.95976 -0.470958 0
M  V30 372 H 35.9725 1.56955 -0.39709 0
M  V30 373 H 37.9645 3.51967 1.99752 0
M  V30 374 H 36.5345 2.45951 1.92943 0
M  V30 375 H 35.7545 3.94144 -0.0662113 0
M  V30 376 H 37.0425 5.07362 0.382272 0
M  V30 377 H 36.4405 4.44389 3.5005 0
M  V30 378 H 34.9975 5.34917 3.72434 0
M  V30 379 N 38.4306 0.297415 1.54768 0
M  V30 380 C 39.7076 -0.365847 1.92148 0
M  V30 381 C 40.0876 -1.71975 1.22424 0
M  V30 382 O 39.4356 -2.25666 0.358739 0
M  V30 383 C 39.6456 -0.484056 3.45627 0
M  V30 384 C 40.9936 -0.756594 4.17805 0
M  V30 385 O 42.0176 -0.568007 3.51642 0
M  V30 386 O 40.8766 -1.11863 5.34929 0
M  V30 387 H 37.9706 -0.203919 0.801465 0
M  V30 388 H 40.5166 0.34521 1.66152 0
M  V30 389 H 39.2886 0.467865 3.88493 0
M  V30 390 H 38.9116 -1.24372 3.77647 0
M  V30 391 N 39.9087 -1.5758 0.0250728 0
M  V30 392 C 40.8717 -2.08896 -0.943139 0
M  V30 393 C 41.8717 -1.00321 -1.25668 0
M  V30 394 O 43.0617 -1.26495 -1.19769 0
M  V30 395 C 40.1937 -2.55143 -2.26086 0
M  V30 396 H 41.3867 -2.95723 -0.498775 0
M  V30 397 H 38.9397 -1.54703 -0.222888 0
M  V30 398 H 39.6747 -1.71633 -2.75159 0
M  V30 399 H 39.4597 -3.34461 -2.04641 0
M  V30 400 H 40.9497 -2.95083 -2.95492 0
M  V30 401 N 41.3868 0.248026 -1.55636 0
M  V30 402 C 42.3338 1.30707 -1.90222 0
M  V30 403 C 43.3038 1.47881 -0.756332 0
M  V30 404 O 44.4888 1.61883 -1.00988 0
M  V30 405 C 41.6288 2.65769 -2.20138 0
M  V30 406 C 40.7418 2.56612 -3.47526 0
M  V30 407 C 39.8768 3.8402 -3.67017 0
M  V30 408 C 38.9158 3.69476 -4.8801 0
M  V30 409 N 38.0528 4.88774 -5.04029 0
M  V30 410 H 42.8928 1.00512 -2.80538 0
M  V30 411 H 40.4298 0.485055 -1.38873 0
M  V30 412 H 42.3878 3.44386 -2.35487 0
M  V30 413 H 41.0178 2.94115 -1.33027 0
M  V30 414 H 40.0698 1.69571 -3.40514 0
M  V30 415 H 41.3818 2.41774 -4.36287 0
M  V30 416 H 40.5358 4.7108 -3.8232 0
M  V30 417 H 39.2748 4.01754 -2.76487 0
M  V30 418 H 38.2798 2.80799 -4.72686 0
M  V30 419 H 39.5048 3.53238 -5.8 0
M  V30 420 H 37.4508 5.0687 -4.16435 0
M  V30 421 H 37.3678 4.76562 -5.86877 0
M  V30 422 H 38.6358 5.77335 -5.23741 0
M  V30 423 N 42.8649 1.48995 0.513639 0
M  V30 424 C 43.8279 1.64229 1.59879 0
M  V30 425 C 44.8279 0.514696 1.5234 0
M  V30 426 O 46.0179 0.78087 1.55718 0
M  V30 427 C 43.1499 1.62783 2.99524 0
M  V30 428 H 44.3429 2.61004 1.47705 0
M  V30 429 H 41.8959 1.37837 0.736936 0
M  V30 430 H 42.6309 0.675461 3.17188 0
M  V30 431 H 42.4159 2.4466 3.06404 0
M  V30 432 H 43.9059 1.76669 3.78388 0
M  V30 433 N 44.343 -0.763751 1.37857 0
M  V30 434 C 45.591 -1.51957 1.33243 0
M  V30 435 C 45.912 -1.94835 -0.0801709 0
M  V30 436 O 45.182 -1.66894 -1.02582 0
M  V30 437 H 43.762 -0.563626 0.49024 0
M  V30 438 H 46.424 -0.908504 1.7243 0
M  V30 439 H 45.52 -2.41523 1.97669 0
M  V30 440 N 45.8211 -1.22559 -0.990812 0
M  V30 441 C 46.7311 -1.01394 -2.11557 0
M  V30 442 C 47.7471 0.0383962 -1.73958 0
M  V30 443 O 48.9231 -0.154787 -2.00804 0
M  V30 444 C 45.9881 -0.596569 -3.41529 0
M  V30 445 C 45.0491 -1.72276 -3.93217 0
M  V30 446 C 44.2821 -1.32521 -5.16985 0
M  V30 447 O 44.5051 -0.204909 -5.70032 0
M  V30 448 O 43.4391 -2.14247 -5.62478 0
M  V30 449 H 47.2651 -1.95633 -2.32296 0
M  V30 450 H 44.8501 -1.01172 -1.0993 0
M  V30 451 H 46.7321 -0.374263 -4.19735 0
M  V30 452 H 45.4071 0.316939 -3.22145 0
M  V30 453 H 44.3141 -1.99961 -3.16174 0
M  V30 454 H 45.6471 -2.61421 -4.17037 0
M  V30 455 N 47.2992 1.18797 -1.03562 0
M  V30 456 C 48.2622 2.20464 -0.626769 0
M  V30 457 C 49.2622 1.57721 0.313173 0
M  V30 458 O 50.4522 1.73917 0.0992615 0
M  V30 459 C 47.5842 3.40802 0.0818498 0
M  V30 460 H 48.7772 2.58149 -1.5264 0
M  V30 461 H 46.3302 1.32593 -0.827578 0
M  V30 462 H 47.0652 3.08642 0.995518 0
M  V30 463 H 46.8502 3.8758 -0.593652 0
M  V30 464 H 48.3402 4.16092 0.354584 0
M  V30 465 N 48.7773 0.814389 1.34928 0
M  V30 466 C 50.0233 0.399013 1.98836 0
M  V30 467 C 50.3563 -1.03314 1.64438 0
M  V30 468 O 49.6313 -1.71811 0.911659 0
M  V30 469 C 49.9143 0.591629 3.55207 0
M  V30 470 C 49.7673 2.06928 3.99376 0
M  V30 471 C 51.0863 0.022199 4.40094 0
M  V30 472 H 48.2053 0.146451 0.722303 0
M  V30 473 H 50.8473 1.02537 1.59957 0
M  V30 474 H 48.9973 0.0584441 3.88456 0
M  V30 475 H 50.6693 2.66544 3.76499 0
M  V30 476 H 48.9123 2.56287 3.49999 0
M  V30 477 H 49.5833 2.1549 5.08201 0
M  V30 478 H 52.0593 0.477643 4.13349 0
M  V30 479 H 50.9353 0.186832 5.48582 0
M  V30 480 H 51.1963 -1.07215 4.28902 0
M  V30 481 N 50.2554 -1.46986 0.568584 0
M  V30 482 C 51.5024 -2.02441 0.0487986 0
M  V30 483 C 51.8304 -1.44169 -1.30559 0
M  V30 484 O 51.0854 -0.591213 -1.86556 0
M  V30 485 C 51.3844 -3.57306 -0.081836 0
M  V30 486 C 51.0504 -4.34552 1.20313 0
M  V30 487 C 49.7124 -4.55376 1.5552 0
M  V30 488 C 52.0644 -4.79016 2.05411 0
M  V30 489 C 49.3924 -5.17913 2.7565 0
M  V30 490 C 51.7444 -5.42879 3.24754 0
M  V30 491 C 50.4084 -5.61933 3.60261 0
M  V30 492 H 49.6784 -0.740785 0.0178567 0
M  V30 493 H 52.3254 -1.76525 0.742384 0
M  V30 494 H 50.6304 -3.8228 -0.858463 0
M  V30 495 H 52.3274 -3.97876 -0.499546 0
M  V30 496 H 48.9174 -4.18631 0.919014 0
M  V30 497 H 53.1014 -4.62696 1.79516 0
M  V30 498 H 48.3574 -5.30858 3.03315 0
M  V30 499 H 52.5314 -5.76293 3.90973 0
M  V30 500 H 50.1584 -6.10161 4.53439 0
M  V30 501 N 51.7335 -0.305618 -1.54608 0
M  V30 502 C 52.6805 0.568421 -2.23691 0
M  V30 503 C 53.6505 1.12592 -1.22116 0
M  V30 504 O 54.8355 1.16959 -1.50749 0
M  V30 505 C 51.9755 1.7322 -2.98477 0
M  V30 506 C 51.0885 1.20566 -4.14835 0
M  V30 507 C 50.2235 2.33368 -4.77193 0
M  V30 508 C 49.2625 1.7787 -5.85686 0
M  V30 509 N 48.3995 2.84263 -6.4198 0
M  V30 510 H 53.2395 -0.0272867 -2.97988 0
M  V30 511 H 50.7765 -0.0252363 -1.47078 0
M  V30 512 H 52.7345 2.41675 -3.40072 0
M  V30 513 H 51.3645 2.29947 -2.26548 0
M  V30 514 H 50.4165 0.413223 -3.78149 0
M  V30 515 H 51.7285 0.759417 -4.92985 0
M  V30 516 H 50.8825 3.09761 -5.21664 0
M  V30 517 H 49.6215 2.8132 -3.98385 0
M  V30 518 H 48.6265 0.99968 -5.40635 0
M  V30 519 H 49.8515 1.30816 -6.66381 0
M  V30 520 H 47.7975 3.31541 -5.66053 0
M  V30 521 H 47.7145 2.44149 -7.15491 0
M  V30 522 H 48.9825 3.6054 -6.91109 0
M  V30 523 N 53.2116 1.57565 -0.0334293 0
M  V30 524 C 54.1436 2.0739 0.975811 0
M  V30 525 C 55.1566 0.998166 1.2861 0
M  V30 526 O 56.3456 1.27426 1.25 0
M  V30 527 C 53.4456 2.4871 2.30209 0
M  V30 528 C 52.6186 3.79413 2.17634 0
M  V30 529 C 51.6776 4.07237 3.33233 0
M  V30 530 O 50.7036 4.77425 3.09927 0
M  V30 531 N 51.9056 3.5775 4.5716 0
M  V30 532 H 54.6706 2.94598 0.55066 0
M  V30 533 H 52.2316 1.61173 0.15323 0
M  V30 534 H 54.2236 2.64413 3.06378 0
M  V30 535 H 52.7936 1.66845 2.64351 0
M  V30 536 H 52.0136 3.73465 1.26165 0
M  V30 537 H 53.3016 4.65038 2.0644 0
M  V30 538 H 52.6996 3.00976 4.78989 0
M  V30 539 H 51.2566 3.78724 5.30482 0
M  V30 540 N 54.6897 -0.239769 1.55765 0
M  V30 541 C 55.9297 -0.974076 1.79697 0
M  V30 542 C 56.2937 -1.82249 0.604088 0
M  V30 543 O 57.4947 -2.58913 0.722324 0
M  V30 544 C 55.7657 -1.80595 3.08416 0
M  V30 545 S 57.3247 -2.59838 3.53596 0
M  V30 546 H 54.1427 -0.327524 0.63107 0
M  V30 547 H 56.7447 -0.241277 1.94005 0
M  V30 548 H 55.4487 -1.17249 3.93295 0
M  V30 549 H 54.9797 -2.58137 2.96865 0
M  V30 550 H 56.9947 -3.82987 3.15492 0
M  V30 551 N 56.1678 -1.49265 -0.50573 0
M  V30 552 C 57.1008 -1.60183 -1.62532 0
M  V30 553 C 58.0788 -0.451107 -1.56217 0
M  V30 554 O 59.2628 -0.666016 -1.76342 0
M  V30 555 C 56.3898 -1.55238 -3.01029 0
M  V30 556 C 55.4358 -2.7545 -3.25621 0
M  V30 557 S 56.2688 -4.37174 -3.09256 0
M  V30 558 C 57.4248 -4.34866 -4.50158 0
M  V30 559 H 57.6578 -2.54894 -1.53025 0
M  V30 560 H 55.1908 -1.38098 -0.690535 0
M  V30 561 H 57.1488 -1.53071 -3.80893 0
M  V30 562 H 55.8098 -0.618238 -3.07956 0
M  V30 563 H 55.0028 -2.68197 -4.26716 0
M  V30 564 H 54.6048 -2.75005 -2.53472 0
M  V30 565 H 56.8968 -4.06295 -5.42154 0
M  V30 566 H 57.8398 -5.36223 -4.62462 0
M  V30 567 H 58.2478 -3.65007 -4.30616 0
M  V30 568 N 57.6459 0.756429 -1.3826 0
M  V30 569 C 58.8739 1.54565 -1.3754 0
M  V30 570 C 59.2889 1.88767 0.0355331 0
M  V30 571 O 58.6459 1.52572 1.0014 0
M  V30 572 C 58.6969 2.84654 -2.22833 0
M  V30 573 O 58.4179 2.51912 -3.5843 0
M  V30 574 C 59.9189 3.78807 -2.30261 0
M  V30 575 H 57.1389 0.478353 -0.470553 0
M  V30 576 H 59.6829 0.936381 -1.81803 0
M  V30 577 H 57.8379 3.41965 -1.8204 0
M  V30 578 H 58.2519 3.35325 -4.03308 0
M  V30 579 H 59.7259 4.67045 -2.94233 0
M  V30 580 H 60.2029 4.19038 -1.31545 0
M  V30 581 H 60.8089 3.2742 -2.71433 0
M  V30 582 N 59.124 1.23083 0.984299 0
M  V30 583 C 60.364 1.07226 1.74017 0
M  V30 584 C 60.728 -0.384766 1.88105 0
M  V30 585 O 61.929 -0.664411 2.60459 0
M  V30 586 C 60.2 1.77348 3.10294 0
M  V30 587 S 61.759 1.77014 4.01512 0
M  V30 588 H 58.577 0.383819 0.598502 0
M  V30 589 H 61.179 1.56158 1.17622 0
M  V30 590 H 59.883 2.82506 2.97689 0
M  V30 591 H 59.414 1.28682 3.71759 0
M  V30 592 H 61.429 0.825956 4.89277 0
M  V30 593 N 60.6021 -1.18246 1.0419 0
M  V30 594 C 61.5521 -2.19843 0.604392 0
M  V30 595 C 62.5361 -1.56962 -0.353814 0
M  V30 596 O 63.7281 -1.76156 -0.17267 0
M  V30 597 C 60.8571 -3.43287 -0.0298975 0
M  V30 598 C 59.9431 -4.13288 0.951531 0
M  V30 599 N 60.3341 -4.59271 2.11906 0
M  V30 600 C 58.6321 -4.39165 0.7778 0
M  V30 601 C 59.3331 -5.13173 2.73912 0
M  V30 602 N 58.3091 -5.04763 2.01779 0
M  V30 603 H 62.1111 -2.53089 1.4941 0
M  V30 604 H 59.6251 -1.34465 0.910658 0
M  V30 605 H 61.6221 -4.15334 -0.361037 0
M  V30 606 H 60.2821 -3.11537 -0.915127 0
M  V30 607 H 61.2931 -4.5368 2.49789 0
M  V30 608 H 57.9701 -4.17461 -0.0572331 0
M  V30 609 H 59.3601 -5.58947 3.72864 0
M  V30 610 N 62.0802 -0.821533 -1.34494 0
M  V30 611 C 63.4962 -0.507117 -1.51329 0
M  V30 612 C 63.6962 0.968964 -1.76673 0
M  V30 613 O 62.7522 1.75348 -1.81685 0
M  V30 614 C 64.0652 -1.36544 -2.67911 0
M  V30 615 C 65.6132 -1.36242 -2.81793 0
M  V30 616 C 66.0882 -2.2052 -4.01416 0
M  V30 617 N 67.5792 -2.18136 -4.08621 0
M  V30 618 C 68.3142 -2.80095 -5.00334 0
M  V30 619 N 67.8102 -3.51039 -5.9728 0
M  V30 620 N 69.6032 -2.69656 -4.93196 0
M  V30 621 H 61.7542 -1.77729 -1.16302 0
M  V30 622 H 64.0172 -0.757291 -0.570276 0
M  V30 623 H 63.7232 -2.41361 -2.55808 0
M  V30 624 H 63.5972 -1.02917 -3.62888 0
M  V30 625 H 65.9842 -0.322041 -2.93338 0
M  V30 626 H 66.0652 -1.73866 -1.87628 0
M  V30 627 H 65.7092 -3.24607 -3.90631 0
M  V30 628 H 65.6392 -1.80247 -4.94791 0
M  V30 629 H 68.1302 -1.6653 -3.39229 0
M  V30 630 H 68.4432 -3.95565 -6.63889 0
M  V30 631 H 66.7882 -3.55145 -5.97409 0
M  V30 632 H 69.9792 -2.13808 -4.16418 0
M  V30 633 H 70.1522 -3.1823 -5.64476 0
M  V30 634 N 63.5583 1.46682 -0.576371 0
M  V30 635 C 64.5213 2.28707 0.150239 0
M  V30 636 C 65.5213 1.38035 0.824794 0
M  V30 637 O 66.7113 1.60476 0.677719 0
M  V30 638 C 63.8433 3.18248 1.22192 0
M  V30 639 H 65.0363 2.94423 -0.570521 0
M  V30 640 H 62.5893 1.52688 -0.334078 0
M  V30 641 H 63.3243 2.57265 1.97447 0
M  V30 642 H 63.1093 3.85 0.742812 0
M  V30 643 H 64.5993 3.80001 1.73172 0
M  V30 644 N 65.0364 0.313813 1.54444 0
M  V30 645 C 66.3134 -0.345447 1.92525 0
M  V30 646 C 66.6934 -1.70667 1.24242 0
M  V30 647 O 66.0414 -2.25273 0.382654 0
M  V30 648 C 66.2514 -0.44737 3.46121 0
M  V30 649 C 67.5994 -0.712238 4.18584 0
M  V30 650 O 68.6234 -0.530678 3.52225 0
M  V30 651 O 67.4824 -1.06183 5.36085 0
M  V30 652 H 64.5764 -0.195407 0.803583 0
M  V30 653 H 67.1224 0.362813 1.65776 0
M  V30 654 H 65.8944 0.509043 3.87975 0
M  V30 655 H 65.5174 -1.20359 3.78945 0
M  V30 656 N 66.5145 -1.57545 0.0417849 0
M  V30 657 C 67.4615 -2.10977 -0.935805 0
M  V30 658 C 68.4315 -1.01486 -1.31491 0
M  V30 659 O 69.6165 -1.2898 -1.40602 0
M  V30 660 C 66.7565 -2.65169 -2.2086 0
M  V30 661 C 65.8695 -3.88714 -1.88482 0
M  V30 662 C 65.0045 -4.31254 -3.1015 0
M  V30 663 C 64.0435 -5.47524 -2.7365 0
M  V30 664 N 63.1805 -5.85162 -3.87982 0
M  V30 665 H 68.0205 -2.94218 -0.473249 0
M  V30 666 H 65.5575 -1.45415 -0.221981 0
M  V30 667 H 67.5155 -2.94685 -2.95325 0
M  V30 668 H 66.1455 -1.8474 -2.64709 0
M  V30 669 H 65.1975 -3.65849 -1.04205 0
M  V30 670 H 66.5095 -4.73245 -1.57608 0
M  V30 671 H 65.6635 -4.62273 -3.92923 0
M  V30 672 H 64.4025 -3.45516 -3.44195 0
M  V30 673 H 63.4075 -5.16187 -1.89291 0
M  V30 674 H 64.6325 -6.34971 -2.40807 0
M  V30 675 H 62.5785 -5.02377 -4.21846 0
M  V30 676 H 62.4955 -6.64362 -3.60775 0
M  V30 677 H 63.7635 -6.20791 -4.71422 0
M  V30 678 N 67.9926 0.231505 -1.5589 0
M  V30 679 C 68.9406 1.30649 -1.92441 0
M  V30 680 C 69.9346 1.49037 -0.805254 0
M  V30 681 O 71.1406 1.50329 -0.990007 0
M  V30 682 H 67.5156 0.437812 -0.611412 0
M  V30 683 H 69.4866 0.970973 -2.82161 0
M  V30 684 C 68.2356 2.65179 -2.24889 0
M  V30 685 H 67.5586 2.51835 -3.10514 0
M  V30 686 H 68.9986 3.39234 -2.54355 0
M  V30 687 C 67.4576 3.19439 -1.07054 0
M  V30 688 O 67.9876 4.00371 -0.326499 0
M  V30 689 N 66.1936 2.77675 -0.85703 0
M  V30 690 H 65.7406 2.11969 -1.46379 0
M  V30 691 H 65.6986 3.14321 -0.0703223 0
M  V30 692 N 69.4707 1.49531 0.497807 0
M  V30 693 C 70.4037 1.61043 1.6168 0
M  V30 694 C 71.3817 0.459386 1.55976 0
M  V30 695 O 72.5657 0.675358 1.75986 0
M  V30 696 C 69.6927 1.56833 3.00202 0
M  V30 697 C 68.7387 2.77173 3.24156 0
M  V30 698 S 69.5717 4.38808 3.06933 0
M  V30 699 C 70.7277 4.37248 4.47845 0
M  V30 700 H 70.9607 2.55702 1.51671 0
M  V30 701 H 68.4937 1.38462 0.683201 0
M  V30 702 H 70.4517 1.55089 3.80076 0
M  V30 703 H 69.1127 0.634561 3.07623 0
M  V30 704 H 68.3057 2.70456 4.25288 0
M  V30 705 H 67.9077 2.76346 2.5201 0
M  V30 706 H 70.1997 4.09164 5.39992 0
M  V30 707 H 71.1427 5.38668 4.59612 0
M  V30 708 H 71.5507 3.67286 4.28674 0
M  V30 709 N 70.9488 -0.749086 1.3866 0
M  V30 710 C 72.1948 -1.51056 1.35314 0
M  V30 711 C 72.5278 -1.94121 -0.0553751 0
M  V30 712 O 71.8028 -1.65763 -1.01749 0
M  V30 713 C 72.0858 -2.76003 2.31288 0
M  V30 714 C 71.9388 -2.39047 3.8102 0
M  V30 715 C 73.2578 -3.78046 2.2532 0
M  V30 716 H 70.3768 -0.547972 0.492844 0
M  V30 717 H 73.0188 -0.857628 1.69543 0
M  V30 718 H 71.1688 -3.31716 2.02229 0
M  V30 719 H 72.8408 -1.89074 4.20771 0
M  V30 720 H 71.0838 -1.71449 3.98482 0
M  V30 721 H 71.7548 -3.28462 4.4364 0
M  V30 722 H 74.2308 -3.31884 2.50983 0
M  V30 723 H 73.1068 -4.63159 2.94576 0
M  V30 724 H 73.3678 -4.23957 1.25352 0
M  V30 725 N 72.4269 -1.23603 -0.977757 0
M  V30 726 C 73.6749 -1.06759 -1.71601 0
M  V30 727 C 73.9959 0.395929 -1.90938 0
M  V30 728 O 73.2659 1.28356 -1.47992 0
M  V30 729 H 71.8459 -0.392062 -0.635843 0
M  V30 730 H 74.5079 -1.55362 -1.1768 0
M  V30 731 H 73.6039 -1.55763 -2.70452 0
M  V30 732 N 73.905 1.17692 -1.04816 0
M  V30 733 C 75.316 1.69501 -0.782698 0
M  V30 734 C 75.667 1.83456 0.695577 0
M  V30 735 O 74.792 1.51942 1.54086 0
M  V30 736 C 75.387 3.07874 -1.41419 0
M  V30 737 C 73.946 3.56864 -1.19686 0
M  V30 738 C 73.093 2.3322 -1.50012 0
M  V30 739 H 76.044 1.02262 -1.2136 0
M  V30 740 H 76.065 3.71528 -0.821428 0
M  V30 741 H 75.577 2.97685 -2.49009 0
M  V30 742 H 73.678 3.72337 -0.140043 0
M  V30 743 H 73.791 4.39851 -1.89916 0
M  V30 744 H 72.155 2.37501 -0.920071 0
M  V30 745 H 72.938 2.25644 -2.58727 0
M  V30 746 N 75.3831 0.828654 1.34056 0
M  V30 747 C 76.3461 0.259927 2.27721 0
M  V30 748 C 77.3461 -0.565478 1.50529 0
M  V30 749 O 78.5361 -0.38075 1.69988 0
M  V30 750 C 75.6681 -0.634944 3.34935 0
M  V30 751 H 76.8611 1.0863 2.79534 0
M  V30 752 H 74.4141 0.600951 1.44285 0
M  V30 753 H 75.1491 -1.48416 2.88346 0
M  V30 754 H 74.9341 -0.0444999 3.92075 0
M  V30 755 H 76.4241 -1.02648 4.04788 0
M  V30 756 N 76.8612 -1.46375 0.584142 0
M  V30 757 C 77.7912 -2.33103 -0.136037 0
M  V30 758 C 78.7722 -1.45431 -0.882255 0
M  V30 759 O 79.9572 -1.74246 -0.857434 0
M  V30 760 C 77.0872 -3.27731 -1.14933 0
M  V30 761 C 76.0412 -4.24855 -0.517862 0
M  V30 762 C 75.3672 -5.09001 -1.63773 0
M  V30 763 C 76.6672 -5.19439 0.545886 0
M  V30 764 H 78.3612 -2.93568 0.588086 0
M  V30 765 H 75.9072 -1.41166 0.284259 0
M  V30 766 H 77.8602 -3.87261 -1.66153 0
M  V30 767 H 76.5842 -2.65377 -1.90375 0
M  V30 768 H 75.2432 -3.6659 -0.0267361 0
M  V30 769 H 74.8912 -4.43031 -2.38185 0
M  V30 770 H 74.5912 -5.74777 -1.22085 0
M  V30 771 H 76.1152 -5.71396 -2.15266 0
M  V30 772 H 77.5292 -5.73177 0.118704 0
M  V30 773 H 75.9262 -5.93566 0.88317 0
M  V30 774 H 76.9962 -4.63285 1.43162 0
M  V30 775 N 78.3393 -0.321999 -1.54275 0
M  V30 776 C 79.5873 0.280489 -2.00144 0
M  V30 777 C 79.9083 1.52777 -1.21178 0
M  V30 778 O 79.1783 1.9338 -0.313187 0
M  V30 779 H 77.7583 0.106632 -0.73935 0
M  V30 780 H 80.4203 -0.438184 -1.8991 0
M  V30 781 H 79.5163 0.537972 -3.07428 0
M  V30 782 N 79.8174 1.5752 -0.0501392 0
M  V30 783 C 81.0654 1.9227 0.622642 0
M  V30 784 C 81.3864 0.929083 1.71444 0
M  V30 785 O 80.6564 -0.0262186 1.95882 0
M  V30 786 H 79.2364 0.709739 0.232981 0
M  V30 787 H 81.8984 1.94628 -0.102898 0
M  V30 788 H 80.9944 2.93479 1.06191 0
M  V30 789 N 81.2955 -0.223234 1.56011 0
M  V30 790 C 82.5415 -0.949279 1.79211 0
M  V30 791 C 82.8745 -1.84054 0.619494 0
M  V30 792 O 82.1495 -1.90726 -0.381317 0
M  V30 793 C 82.4325 -1.78965 3.12479 0
M  V30 794 C 82.2855 -0.924997 4.40186 0
M  V30 795 C 83.6045 -2.76774 3.42175 0
M  V30 796 H 80.7235 -0.343676 0.651963 0
M  V30 797 H 83.3655 -0.218253 1.88742 0
M  V30 798 H 81.5155 -2.41291 3.04485 0
M  V30 799 H 83.1875 -0.318615 4.60198 0
M  V30 800 H 81.4305 -0.230344 4.33188 0
M  V30 801 H 82.1015 -1.54735 5.29869 0
M  V30 802 H 84.5775 -2.24584 3.50287 0
M  V30 803 H 83.4535 -3.32678 4.36597 0
M  V30 804 H 83.7145 -3.54429 2.64258 0
M  V30 805 N 82.7736 -1.49793 -0.48987 0
M  V30 806 C 84.0196 -1.60078 -1.24511 0
M  V30 807 C 84.3526 -0.291608 -1.91998 0
M  V30 808 O 83.6276 0.705647 -1.81248 0
M  V30 809 C 83.9106 -2.76791 -2.30345 0
M  V30 810 C 83.7636 -4.17535 -1.67286 0
M  V30 811 C 85.0826 -2.89111 -3.31817 0
M  V30 812 H 82.2016 -0.582645 -0.451324 0
M  V30 813 H 84.8436 -1.82117 -0.541612 0
M  V30 814 H 82.9936 -2.5813 -2.90346 0
M  V30 815 H 84.6656 -4.4774 -1.11026 0
M  V30 816 H 82.9086 -4.22665 -0.976577 0
M  V30 817 H 83.5796 -4.95094 -2.44103 0
M  V30 818 H 86.0556 -3.06133 -2.81819 0
M  V30 819 H 84.9316 -3.72433 -4.03219 0
M  V30 820 H 85.1926 -1.9893 -3.94815 0
M  V30 821 N 84.2517 0.741722 -1.39055 0
M  V30 822 C 85.4997 1.49818 -1.35643 0
M  V30 823 C 85.8207 1.94938 0.0491642 0
M  V30 824 O 85.0907 1.68505 0.999141 0
M  V30 825 H 83.6707 0.555755 -0.499144 0
M  V30 826 H 86.3327 0.880957 -1.73854 0
M  V30 827 H 85.4287 2.38348 -2.01486 0
M  V30 828 N 85.7298 1.2412 0.971189 0
M  V30 829 C 87.1458 1.00584 1.23916 0
M  V30 830 C 87.3458 -0.287481 1.99439 0
M  V30 831 O 86.4018 -1.00454 2.31658 0
M  V30 832 C 87.7148 2.21864 2.0297 0
M  V30 833 C 89.2628 2.26452 2.16076 0
M  V30 834 C 89.7378 3.47343 2.98524 0
M  V30 835 N 91.2288 3.47639 3.06107 0
M  V30 836 C 91.9638 4.37837 3.70251 0
M  V30 837 N 91.4598 5.38286 4.36142 0
M  V30 838 N 93.2528 4.25558 3.67228 0
M  V30 839 H 85.4038 2.07236 0.465499 0
M  V30 840 H 87.6668 0.909236 0.268315 0
M  V30 841 H 87.3728 3.15771 1.54861 0
M  V30 842 H 87.2468 2.23698 3.03709 0
M  V30 843 H 89.6338 1.33078 2.6339 0
M  V30 844 H 89.7148 2.28645 1.14696 0
M  V30 845 H 89.3588 4.41029 2.51905 0
M  V30 846 H 89.2888 3.42393 4.00093 0
M  V30 847 H 91.7798 2.74966 2.59233 0
M  V30 848 H 92.0928 6.03352 4.82894 0
M  V30 849 H 90.4378 5.42176 4.34822 0
M  V30 850 H 93.6288 3.46322 3.14927 0
M  V30 851 H 93.8018 4.96054 4.16935 0
M  V30 852 N 87.2079 -1.17134 1.05439 0
M  V30 853 C 88.1549 -2.21235 0.657539 0
M  V30 854 C 89.1249 -1.62551 -0.341543 0
M  V30 855 O 90.3099 -1.89379 -0.232393 0
M  V30 856 C 87.4499 -3.45076 0.0410575 0
M  V30 857 C 86.5629 -4.18042 1.08927 0
M  V30 858 C 85.6979 -5.29376 0.439848 0
M  V30 859 C 84.7369 -5.94132 1.4722 0
M  V30 860 N 83.8739 -6.96975 0.846756 0
M  V30 861 H 88.7139 -2.54534 1.54972 0
M  V30 862 H 86.2509 -1.25028 0.775006 0
M  V30 863 H 88.2089 -4.15862 -0.33383 0
M  V30 864 H 86.8389 -3.12353 -0.814568 0
M  V30 865 H 85.8909 -3.45945 1.58196 0
M  V30 866 H 87.2029 -4.62306 1.87282 0
M  V30 867 H 86.3569 -6.06699 0.0115125 0
M  V30 868 H 85.0959 -4.86251 -0.375656 0
M  V30 869 H 84.1009 -5.15538 1.91052 0
M  V30 870 H 85.3259 -6.39337 2.28965 0
M  V30 871 H 83.2719 -6.5598 0.0518075 0
M  V30 872 H 83.1889 -7.39565 1.5678 0
M  V30 873 H 84.4569 -7.78239 0.443277 0
M  V30 874 N 88.686 -0.835752 -1.33615 0
M  V30 875 C 89.649 -0.272 -2.2758 0
M  V30 876 C 90.649 0.557487 -1.50827 0
M  V30 877 O 91.839 0.37173 -1.70188 0
M  V30 878 C 88.971 0.617173 -3.35267 0
M  V30 879 H 90.164 -1.10111 -2.78954 0
M  V30 880 H 87.717 -0.608594 -1.43965 0
M  V30 881 H 88.452 1.46884 -2.89129 0
M  V30 882 H 88.237 0.0237066 -3.92093 0
M  V30 883 H 89.727 1.005 -4.05326 0
M  V30 884 N 90.1641 1.46063 -0.591896 0
M  V30 885 C 91.4121 2.01938 -0.0808391 0
M  V30 886 C 91.7331 1.46475 1.28725 0
M  V30 887 O 91.0031 0.652944 1.84698 0
M  V30 888 H 89.5831 0.746516 -0.0268938 0
M  V30 889 H 92.2451 1.79055 -0.769752 0
M  V30 890 H 91.3411 3.12094 -0.0187578 0
M  V30 891 N 91.6422 0.330177 1.54103 0
M  V30 892 C 92.8702 -0.272179 2.05102 0
M  V30 893 C 93.2852 -1.45267 1.20595 0
M  V30 894 O 92.6422 -1.8094 0.238144 0
M  V30 895 C 92.6932 -0.70023 3.54653 0
M  V30 896 O 92.4142 0.433301 4.35952 0
M  V30 897 C 93.9152 -1.3647 4.21771 0
M  V30 898 H 91.1352 -0.0549159 0.668749 0
M  V30 899 H 93.6792 0.478285 1.98828 0
M  V30 900 H 91.8342 -1.40066 3.61193 0
M  V30 901 H 92.2482 0.0947539 5.24414 0
M  V30 902 H 93.7222 -1.61509 5.27843 0
M  V30 903 H 94.1992 -2.31409 3.73292 0
M  V30 904 H 94.8052 -0.706675 4.19388 0
M  V30 905 N 93.1203 -1.57491 0.0584922 0
M  V30 906 C 94.0833 -2.1085 -0.898617 0
M  V30 907 C 95.0833 -1.02964 -1.23511 0
M  V30 908 O 96.2733 -1.29007 -1.17059 0
M  V30 909 C 93.4053 -2.59881 -2.20623 0
M  V30 910 H 94.5983 -2.96715 -0.435936 0
M  V30 911 H 92.1513 -1.55141 -0.190023 0
M  V30 912 H 92.8863 -1.77431 -2.71457 0
M  V30 913 H 92.6713 -3.38727 -1.97501 0
M  V30 914 H 94.1613 -3.01285 -2.89166 0
M  V30 915 N 94.5984 0.214957 -1.56127 0
M  V30 916 C 95.5614 1.24997 -1.92116 0
M  V30 917 C 96.5614 1.39467 -0.800344 0
M  V30 918 O 97.7514 1.37619 -1.06802 0
M  V30 919 C 94.8834 2.62271 -2.17777 0
M  V30 920 H 96.0764 0.942875 -2.84693 0
M  V30 921 H 93.6294 0.455654 -1.49511 0
M  V30 922 H 94.3644 2.98068 -1.27773 0
M  V30 923 H 94.1494 2.53143 -2.99434 0
M  V30 924 H 95.6394 3.36946 -2.46693 0
M  V30 925 N 96.0765 1.50051 0.48192 0
M  V30 926 C 97.3245 1.60181 1.23234 0
M  V30 927 C 97.6455 0.299176 1.92691 0
M  V30 928 O 96.9155 -0.682708 1.83619 0
M  V30 929 H 95.4955 0.590232 0.457859 0
M  V30 930 H 98.1575 1.86775 0.556881 0
M  V30 931 H 97.2535 2.40753 1.98607 0
M  V30 932 N 97.5546 -0.734337 1.39446 0
M  V30 933 C 98.8016 -1.49391 1.36706 0
M  V30 934 C 99.1296 -1.94465 -0.0367813 0
M  V30 935 O 98.3846 -1.67154 -1.01774 0
M  V30 936 C 98.6836 -2.74711 2.28623 0
M  V30 937 C 98.3496 -2.48501 3.76242 0
M  V30 938 C 97.0116 -2.41062 4.16464 0
M  V30 939 C 99.3636 -2.26098 4.69606 0
M  V30 940 C 96.6916 -2.09262 5.48112 0
M  V30 941 C 99.0436 -1.95814 6.01531 0
M  V30 942 C 97.7076 -1.86845 6.40816 0
M  V30 943 H 96.9776 -0.546661 0.500243 0
M  V30 944 H 99.6246 -0.842788 1.71957 0
M  V30 945 H 97.9296 -3.44569 1.86492 0
M  V30 946 H 99.6266 -3.32741 2.23796 0
M  V30 947 H 96.2166 -2.55169 3.44364 0
M  V30 948 H 100.401 -2.30812 4.39363 0
M  V30 949 H 95.6566 -2.00841 5.77471 0
M  V30 950 H 99.8306 -1.77488 6.73403 0
M  V30 951 H 97.4576 -1.6197 7.42745 0
M  V30 952 N 99.0327 -1.24633 -0.964593 0
M  V30 953 C 100.261 -1.11501 -1.74285 0
M  V30 954 C 100.676 0.332165 -1.85855 0
M  V30 955 O 100.033 1.22903 -1.34911 0
M  V30 956 C 100.084 -1.75258 -3.16175 0
M  V30 957 O 99.8047 -3.14318 -3.05182 0
M  V30 958 C 101.306 -1.67776 -4.10324 0
M  V30 959 H 98.5257 -0.389407 -0.546446 0
M  V30 960 H 101.07 -1.64801 -1.21083 0
M  V30 961 H 99.2247 -1.25954 -3.66353 0
M  V30 962 H 99.6387 -3.4551 -3.94618 0
M  V30 963 H 101.113 -2.17064 -5.0753 0
M  V30 964 H 101.59 -0.639584 -4.34518 0
M  V30 965 H 102.196 -2.16522 -3.66058 0
M  V30 966 N 100.511 1.16574 -1.06058 0
M  V30 967 C 101.741 1.90675 -0.795397 0
M  V30 968 C 102.149 1.77547 0.653735 0
M  V30 969 O 101.492 1.11611 1.45907 0
M  V30 970 C 101.554 3.42011 -1.10764 0
M  V30 971 C 101.218 3.78924 -2.55471 0
M  V30 972 C 102.215 3.81042 -3.53699 0
M  V30 973 C 99.8998 4.09626 -2.90708 0
M  V30 974 C 101.894 4.13346 -4.85205 0
M  V30 975 C 99.5808 4.41597 -4.22416 0
M  V30 976 C 100.579 4.43436 -5.19474 0
M  V30 977 O 100.267 4.74649 -6.48817 0
M  V30 978 H 99.9988 0.611554 -0.288058 0
M  V30 979 H 102.553 1.48711 -1.41683 0
M  V30 980 H 100.783 3.84312 -0.429128 0
M  V30 981 H 102.472 3.97384 -0.827077 0
M  V30 982 H 103.238 3.57437 -3.27817 0
M  V30 983 H 99.1168 4.07361 -2.15819 0
M  V30 984 H 102.661 4.14696 -5.60957 0
M  V30 985 H 98.5578 4.64667 -4.48056 0
M  V30 986 H 99.3258 4.9247 -6.5377 0
M  V30 987 N 101.989 0.842826 1.3317 0
M  V30 988 C 103.214 0.453129 2.02389 0
M  V30 989 C 103.639 -0.939105 1.6298 0
M  V30 990 O 102.997 -1.61472 0.8244 0
M  V30 991 C 103.045 0.586094 3.55805 0
M  V30 992 O 102.149 -0.386029 4.10589 0
M  V30 993 H 101.49 0.183664 0.638094 0
M  V30 994 H 104.02 1.13875 1.69981 0
M  V30 995 H 104.03 0.469209 4.05293 0
M  V30 996 H 102.705 1.6014 3.83833 0
M  V30 997 H 101.282 -0.226371 3.72212 0
M  V30 998 N 103.467 -1.45747 0.599634 0
M  V30 999 C 104.878 -1.85853 0.177681 0
M  V30 1000 C 105.229 -1.50102 -1.26348 0
M  V30 1001 O 104.354 -0.923905 -1.95686 0
M  V30 1002 C 104.949 -3.37326 0.315688 0
M  V30 1003 C 103.508 -3.76365 -0.0515144 0
M  V30 1004 C 102.655 -2.69722 0.643822 0
M  V30 1005 H 105.606 -1.36661 0.806814 0
M  V30 1006 H 105.627 -3.77778 -0.454321 0
M  V30 1007 H 105.139 -3.63315 1.36468 0
M  V30 1008 H 103.24 -3.55993 -1.09999 0
M  V30 1009 H 103.353 -4.77916 0.336594 0
M  V30 1010 H 101.717 -2.54567 0.0822881 0
M  V30 1011 H 102.5 -2.98549 1.6948 0
M  V30 1012 N 104.945 -0.338344 -1.53925 0
M  V30 1013 C 105.875 0.51328 -2.27789 0
M  V30 1014 C 106.856 1.107 -1.29149 0
M  V30 1015 O 108.041 1.12937 -1.57984 0
M  V30 1016 C 105.171 1.66697 -3.04679 0
M  V30 1017 C 104.125 1.20183 -4.1078 0
M  V30 1018 C 103.451 2.44363 -4.75595 0
M  V30 1019 C 104.751 0.30605 -5.21403 0
M  V30 1020 H 106.445 -0.102883 -2.99223 0
M  V30 1021 H 103.991 -0.0509219 -1.4391 0
M  V30 1022 H 105.944 2.26915 -3.55088 0
M  V30 1023 H 104.668 2.30995 -2.30887 0
M  V30 1024 H 103.327 0.622499 -3.61276 0
M  V30 1025 H 102.975 3.07057 -3.98403 0
M  V30 1026 H 102.675 2.13925 -5.47275 0
M  V30 1027 H 104.199 3.05317 -5.28786 0
M  V30 1028 H 105.613 0.814929 -5.67478 0
M  V30 1029 H 104.01 0.0937929 -6.00027 0
M  V30 1030 H 105.08 -0.65921 -4.80398 0
M  V30 1031 N 106.423 1.57458 -0.0668435 0
M  V30 1032 C 107.371 2.13639 0.919851 0
M  V30 1033 C 108.365 1.07204 1.31163 0
M  V30 1034 O 109.571 1.25591 1.28945 0
M  V30 1035 H 105.946 0.683048 0.314562 0
M  V30 1036 H 107.917 2.95415 0.421047 0
M  V30 1037 C 106.666 2.70892 2.17975 0
M  V30 1038 H 105.989 3.5246 1.88711 0
M  V30 1039 H 107.429 3.13803 2.85138 0
M  V30 1040 C 105.888 1.65414 2.93496 0
M  V30 1041 O 106.418 1.07619 3.87015 0
M  V30 1042 N 104.624 1.36564 2.56512 0
M  V30 1043 H 104.171 1.83751 1.80536 0
M  V30 1044 H 104.129 0.66223 3.07347 0
M  V30 1045 N 107.901 -0.206675 1.56239 0
M  V30 1046 C 108.851 -1.26 1.90021 0
M  V30 1047 C 109.835 -1.41566 0.764721 0
M  V30 1048 O 111.027 -1.44131 1.02739 0
M  V30 1049 C 108.156 -2.6073 2.23326 0
M  V30 1050 C 107.242 -2.49005 3.43304 0
M  V30 1051 N 107.633 -2.06946 4.61527 0
M  V30 1052 C 105.931 -2.79927 3.47213 0
M  V30 1053 C 106.632 -2.06832 5.43687 0
M  V30 1054 N 105.608 -2.47892 4.83788 0
M  V30 1055 H 109.41 -0.925955 2.78932 0
M  V30 1056 H 106.924 -0.415172 1.57003 0
M  V30 1057 H 108.921 -3.36798 2.45708 0
M  V30 1058 H 107.581 -2.94968 1.35735 0
M  V30 1059 H 108.592 -1.77839 4.86409 0
M  V30 1060 H 105.269 -3.18438 2.70006 0
M  V30 1061 H 106.659 -1.76312 6.48354 0
M  V30 1062 N 109.379 -1.50304 -0.473955 0
M  V30 1063 C 110.327 -1.69482 -1.59307 0
M  V30 1064 C 111.321 -0.560669 -1.59853 0
M  V30 1065 O 112.527 -0.741087 -1.64036 0
M  V30 1066 H 108.902 -0.534892 -0.528578 0
M  V30 1067 H 110.873 -2.63364 -1.40293 0
M  V30 1068 C 109.622 -1.80354 -2.97267 0
M  V30 1069 H 108.945 -2.67012 -2.97564 0
M  V30 1070 H 110.385 -1.97798 -3.75036 0
M  V30 1071 C 108.844 -0.55448 -3.32306 0
M  V30 1072 O 109.374 0.307661 -4.0052 0
M  V30 1073 N 107.58 -0.409354 -2.87702 0
M  V30 1074 H 107.127 -1.11196 -2.32364 0
M  V30 1075 H 107.085 0.425223 -3.11511 0
M  V30 1076 N 110.857 0.726932 -1.39834 0
M  V30 1077 C 112.082 1.52121 -1.40976 0
M  V30 1078 C 112.507 1.88098 -0.00826029 0
M  V30 1079 O 111.865 1.52479 0.980807 0
M  V30 1080 C 111.913 2.78021 -2.29644 0
M  V30 1081 O 111.017 3.74272 -1.73188 0
M  V30 1082 H 110.358 0.45908 -0.479731 0
M  V30 1083 H 112.888 0.896207 -1.83927 0
M  V30 1084 H 112.898 3.26671 -2.44438 0
M  V30 1085 H 111.573 2.51169 -3.31492 0
M  V30 1086 H 110.15 3.33073 -1.6768 0
M  V30 1087 N 112.336 1.25143 0.95797 0
M  V30 1088 C 113.584 1.09476 1.69881 0
M  V30 1089 C 113.905 -0.365502 1.91544 0
M  V30 1090 O 113.175 -1.25985 1.50015 0
M  V30 1091 H 111.755 0.402128 0.629525 0
M  V30 1092 H 114.417 1.57214 1.15194 0
M  V30 1093 H 113.513 1.60046 2.6794 0
M  V30 1094 N 113.814 -1.1601 1.06675 0
M  V30 1095 C 114.724 -2.24156 0.692179 0
M  V30 1096 C 115.74 -1.71507 -0.293513 0
M  V30 1097 O 116.916 -2.009 -0.141861 0
M  V30 1098 C 113.981 -3.46587 0.0884131 0
M  V30 1099 C 113.042 -4.14257 1.12646 0
M  V30 1100 C 112.275 -5.30844 0.551416 0
M  V30 1101 O 112.498 -5.66858 -0.634656 0
M  V30 1102 O 111.432 -5.87848 1.29298 0
M  V30 1103 H 115.258 -2.58513 1.59388 0
M  V30 1104 H 112.843 -1.23599 0.83926 0
M  V30 1105 H 114.725 -4.20679 -0.246361 0
M  V30 1106 H 113.4 -3.13994 -0.786712 0
M  V30 1107 H 112.307 -3.42118 1.51348 0
M  V30 1108 H 113.64 -4.50914 1.97325 0
M  V30 1109 N 115.292 -0.849877 -1.32721 0
M  V30 1110 C 116.255 -0.296122 -2.27279 0
M  V30 1111 C 117.255 0.541458 -1.5141 0
M  V30 1112 O 118.445 0.353658 -1.70572 0
M  V30 1113 C 115.577 0.581579 -3.35902 0
M  V30 1114 H 116.77 -1.13064 -2.77771 0
M  V30 1115 H 114.323 -0.62383 -1.43311 0
M  V30 1116 H 115.058 1.43809 -2.9067 0
M  V30 1117 H 114.843 -0.0178814 -3.92096 0
M  V30 1118 H 116.333 0.961951 -4.0637 0
M  V30 1119 N 116.77 1.45427 -0.607355 0
M  V30 1120 C 118.018 2.01841 -0.102253 0
M  V30 1121 C 118.339 1.47832 1.27164 0
M  V30 1122 O 117.609 0.672497 1.83995 0
M  V30 1123 H 116.189 0.746188 -0.0348101 0
M  V30 1124 H 118.851 1.78229 -0.7887 0
M  V30 1125 H 117.947 3.12057 -0.0518585 0
M  V30 1126 N 118.248 0.346503 1.53744 0
M  V30 1127 C 119.178 -0.501193 2.28058 0
M  V30 1128 C 120.159 -1.10014 1.29734 0
M  V30 1129 O 121.344 -1.12097 1.58581 0
M  V30 1130 C 118.474 -1.65078 3.05559 0
M  V30 1131 C 117.428 -1.18003 4.11411 0
M  V30 1132 C 116.754 -2.41837 4.76884 0
M  V30 1133 C 118.054 -0.278394 5.21558 0
M  V30 1134 H 119.748 0.11875 2.99164 0
M  V30 1135 H 117.294 0.0585531 1.43881 0
M  V30 1136 H 119.247 -2.25028 3.56287 0
M  V30 1137 H 117.971 -2.29767 2.32109 0
M  V30 1138 H 116.63 -0.603331 3.61601 0
M  V30 1139 H 116.278 -3.0494 4.00026 0
M  V30 1140 H 115.978 -2.1102 5.48402 0
M  V30 1141 H 117.502 -3.02508 5.30397 0
M  V30 1142 H 118.916 -0.784823 5.67903 0
M  V30 1143 H 117.313 -0.0619707 6.00068 0
M  V30 1144 H 118.383 0.684677 4.80042 0
M  V30 1145 N 119.726 -1.57421 0.075193 0
M  V30 1146 C 120.972 -1.93905 -0.594025 0
M  V30 1147 C 121.305 -0.955701 -1.69056 0
M  V30 1148 O 120.58 0.0145373 -1.94495 0
M  V30 1149 C 120.863 -3.40638 -1.1678 0
M  V30 1150 C 120.716 -4.49733 -0.0776792 0
M  V30 1151 C 122.035 -3.88259 -2.07228 0
M  V30 1152 H 119.154 -0.705105 -0.214466 0
M  V30 1153 H 121.796 -1.8947 0.141854 0
M  V30 1154 H 119.946 -3.44549 -1.79494 0
M  V30 1155 H 121.618 -4.57942 0.555573 0
M  V30 1156 H 119.861 -4.29751 0.591286 0
M  V30 1157 H 120.532 -5.49549 -0.519603 0
M  V30 1158 H 123.008 -3.86376 -1.54445 0
M  V30 1159 H 121.884 -4.91533 -2.44308 0
M  V30 1160 H 122.145 -3.26396 -2.98191 0
M  V30 1161 N 121.204 0.198386 -1.56346 0
M  V30 1162 C 122.45 0.916115 -1.81601 0
M  V30 1163 C 122.805 1.81025 -0.651744 0
M  V30 1164 O 122.098 1.88316 0.353229 0
M  V30 1165 C 122.292 1.77031 -3.10475 0
M  V30 1166 C 122.121 0.960365 -4.39326 0
M  V30 1167 C 120.891 0.646093 -5.01152 0
M  V30 1168 C 123.089 0.314628 -5.13337 0
M  V30 1169 N 121.071 -0.182828 -6.13628 0
M  V30 1170 C 122.442 -0.37664 -6.18855 0
M  V30 1171 C 124.497 0.230019 -4.97368 0
M  V30 1172 C 123.2 -1.14445 -7.10137 0
M  V30 1173 C 125.226 -0.524389 -5.89071 0
M  V30 1174 C 124.588 -1.20412 -6.94032 0
M  V30 1175 H 120.687 0.314732 -0.715868 0
M  V30 1176 H 123.271 0.185102 -1.93818 0
M  V30 1177 H 121.442 2.47295 -2.99499 0
M  V30 1178 H 123.174 2.42727 -3.2383 0
M  V30 1179 H 119.929 0.969724 -4.63566 0
M  V30 1180 H 120.353 -0.586802 -6.74452 0
M  V30 1181 H 124.995 0.741184 -4.16253 0
M  V30 1182 H 122.713 -1.66706 -7.90718 0
M  V30 1183 H 126.299 -0.591167 -5.78789 0
M  V30 1184 H 125.179 -1.77853 -7.63766 0
M  V30 1185 N 122.682 1.50554 0.465978 0
M  V30 1186 C 123.91 1.65563 1.24083 0
M  V30 1187 C 124.325 0.341051 1.85694 0
M  V30 1188 O 123.682 -0.677543 1.69457 0
M  V30 1189 C 123.733 2.75051 2.34583 0
M  V30 1190 O 123.454 4.01413 1.75497 0
M  V30 1191 C 124.955 3.01078 3.25372 0
M  V30 1192 H 122.175 0.55638 0.375077 0
M  V30 1193 H 124.719 1.96807 0.555624 0
M  V30 1194 H 122.874 2.46486 2.9887 0
M  V30 1195 H 123.288 4.62002 2.48303 0
M  V30 1196 H 124.762 3.81339 3.99105 0
M  V30 1197 H 125.239 2.12349 3.84453 0
M  V30 1198 H 125.845 3.31194 2.66816 0
M  V30 1199 N 124.16 -0.719506 1.40217 0
M  V30 1200 C 125.123 -1.8153 1.39927 0
M  V30 1201 C 126.123 -1.58095 0.293723 0
M  V30 1202 O 127.313 -1.65209 0.552429 0
M  V30 1203 C 124.445 -3.19561 1.18716 0
M  V30 1204 H 125.638 -1.83186 2.37451 0
M  V30 1205 H 123.191 -0.924746 1.26008 0
M  V30 1206 H 123.926 -3.23557 0.219366 0
M  V30 1207 H 123.711 -3.3797 1.98793 0
M  V30 1208 H 125.201 -3.99598 1.21291 0
M  V30 1209 N 125.638 -1.25649 -0.95132 0
M  V30 1210 C 126.915 -1.01361 -1.67288 0
M  V30 1211 C 127.295 0.459135 -2.06046 0
M  V30 1212 O 126.643 1.43723 -1.7764 0
M  V30 1213 C 126.853 -1.95256 -2.89268 0
M  V30 1214 C 128.201 -2.23289 -3.61147 0
M  V30 1215 O 129.225 -1.93041 -2.99355 0
M  V30 1216 O 128.084 -2.74741 -4.72419 0
M  V30 1217 H 125.178 -0.38464 -0.732107 0
M  V30 1218 H 127.724 -1.36817 -1.00395 0
M  V30 1219 H 126.496 -2.94685 -2.57442 0
M  V30 1220 H 126.119 -1.60218 -3.6389 0
M  V30 1221 N 127.117 1.15442 -1.07289 0
M  V30 1222 C 128.065 2.22225 -0.686952 0
M  V30 1223 C 129.059 1.66688 0.30193 0
M  V30 1224 O 130.265 1.79236 0.165712 0
M  V30 1225 H 126.64 0.723783 -0.204064 0
M  V30 1226 H 128.611 2.52056 -1.5972 0
M  V30 1227 C 127.36 3.47556 -0.100149 0
M  V30 1228 H 126.683 3.90612 -0.852211 0
M  V30 1229 H 128.123 4.23794 0.132235 0
M  V30 1230 C 126.582 3.16337 1.159 0
M  V30 1231 O 127.112 3.33074 2.24555 0
M  V30 1232 N 125.318 2.70385 1.06491 0
M  V30 1233 H 124.865 2.56966 0.180668 0
M  V30 1234 H 124.823 2.49871 1.90819 0
M  V30 1235 N 128.595 0.856903 1.32268 0
M  V30 1236 C 129.844 0.457599 1.96441 0
M  V30 1237 C 130.157 -0.992426 1.68553 0
M  V30 1238 O 131.363 -1.49727 2.26482 0
M  V30 1239 C 129.819 0.767358 3.51624 0
M  V30 1240 C 129.427 2.23326 3.88367 0
M  V30 1241 C 131.171 0.435887 4.22256 0
M  V30 1242 C 129.078 2.48613 5.36606 0
M  V30 1243 H 128.008 0.167387 0.735185 0
M  V30 1244 H 130.659 1.048 1.5063 0
M  V30 1245 H 129.041 0.106367 3.95857 0
M  V30 1246 H 130.215 2.93623 3.55137 0
M  V30 1247 H 128.53 2.52948 3.30766 0
M  V30 1248 H 131.127 0.602202 5.31298 0
M  V30 1249 H 131.47 -0.622672 4.11617 0
M  V30 1250 H 132.003 1.05286 3.83614 0
M  V30 1251 H 128.742 3.53101 5.52268 0
M  V30 1252 H 128.262 1.82896 5.71235 0
M  V30 1253 H 129.941 2.32676 6.03714 0
M  V30 1254 N 130.073 -1.45103 0.615059 0
M  V30 1255 C 131.322 -2.01396 0.110718 0
M  V30 1256 C 131.635 -1.48834 -1.26916 0
M  V30 1257 O 132.841 -1.97152 -1.86664 0
M  V30 1258 C 131.297 -3.59599 0.14723 0
M  V30 1259 C 130.905 -4.21158 1.52743 0
M  V30 1260 C 132.649 -4.23428 -0.30148 0
M  V30 1261 C 130.556 -5.71535 1.51992 0
M  V30 1262 H 129.486 -0.753061 0.0376241 0
M  V30 1263 H 132.137 -1.66494 0.77149 0
M  V30 1264 H 130.519 -3.91724 -0.580339 0
M  V30 1265 H 131.693 -4.00594 2.2773 0
M  V30 1266 H 130.008 -3.69552 1.91886 0
M  V30 1267 H 132.605 -5.33703 -0.326392 0
M  V30 1268 H 132.948 -3.94629 -1.32565 0
M  V30 1269 H 133.481 -3.96047 0.373065 0
M  V30 1270 H 130.22 -6.05044 2.52193 0
M  V30 1271 H 129.74 -5.94268 0.81274 0
M  V30 1272 H 131.419 -6.34873 1.24681 0
M  V30 1273 N 131.551 -0.354651 -1.53558 0
M  V30 1274 C 132.499 0.512195 -2.26891 0
M  V30 1275 C 133.493 1.09263 -1.29452 0
M  V30 1276 O 134.699 1.03709 -1.47121 0
M  V30 1277 H 131.074 0.183878 -0.729173 0
M  V30 1278 H 133.045 -0.128202 -2.98124 0
M  V30 1279 C 131.794 1.64563 -3.06291 0
M  V30 1280 H 131.117 1.20829 -3.81104 0
M  V30 1281 H 132.557 2.22711 -3.60799 0
M  V30 1282 C 131.016 2.58158 -2.16462 0
M  V30 1283 O 131.546 3.60695 -1.76811 0
M  V30 1284 N 129.752 2.27096 -1.81317 0
M  V30 1285 H 129.299 1.43751 -2.1376 0
M  V30 1286 H 129.257 2.89975 -1.21498 0
M  V30 1287 N 133.029 1.57378 -0.0835403 0
M  V30 1288 C 134.259 1.97975 0.590713 0
M  V30 1289 C 134.667 0.961083 1.62972 0
M  V30 1290 O 134.01 -0.0590879 1.83605 0
M  V30 1291 C 134.072 3.34915 1.3066 0
M  V30 1292 C 133.736 4.55069 0.419698 0
M  V30 1293 C 134.733 5.18868 -0.32749 0
M  V30 1294 C 132.418 5.0114 0.341137 0
M  V30 1295 C 134.412 6.27098 -1.14134 0
M  V30 1296 C 132.099 6.0924 -0.476374 0
M  V30 1297 C 133.097 6.72083 -1.21627 0
M  V30 1298 O 132.785 7.781 -2.02028 0
M  V30 1299 H 132.517 0.655818 0.163947 0
M  V30 1300 H 135.071 2.04807 -0.156021 0
M  V30 1301 H 133.301 3.24733 2.09966 0
M  V30 1302 H 134.99 3.60037 1.87424 0
M  V30 1303 H 135.756 4.84211 -0.276459 0
M  V30 1304 H 131.635 4.51996 0.90668 0
M  V30 1305 H 135.179 6.7608 -1.71935 0
M  V30 1306 H 131.076 6.43329 -0.528927 0
M  V30 1307 H 131.844 7.95034 -1.94586 0
M  V30 1308 N 134.507 -0.190092 1.56449 0
M  V30 1309 C 135.437 -1.23816 1.97969 0
M  V30 1310 C 136.418 -1.47201 0.852395 0
M  V30 1311 O 137.603 -1.58854 1.1171 0
M  V30 1312 C 134.733 -2.5813 2.3235 0
M  V30 1313 C 133.687 -2.49348 3.47864 0
M  V30 1314 C 133.013 -3.8798 3.67934 0
M  V30 1315 C 134.313 -2.01424 4.81898 0
M  V30 1316 H 136.007 -0.89311 2.85769 0
M  V30 1317 H 133.553 -0.428177 1.37487 0
M  V30 1318 H 135.506 -3.31637 2.59991 0
M  V30 1319 H 134.23 -2.94386 1.41438 0
M  V30 1320 H 132.889 -1.78297 3.20321 0
M  V30 1321 H 132.537 -4.21597 2.74344 0
M  V30 1322 H 132.237 -3.82978 4.45648 0
M  V30 1323 H 133.761 -4.63101 3.97957 0
M  V30 1324 H 135.175 -2.64693 5.08538 0
M  V30 1325 H 133.572 -2.07413 5.63116 0
M  V30 1326 H 134.642 -0.967677 4.75146 0
M  V30 1327 N 135.985 -1.50799 -0.457987 0
M  V30 1328 C 136.933 -1.71162 -1.575 0
M  V30 1329 C 137.927 -0.577592 -1.59249 0
M  V30 1330 O 139.133 -0.758443 -1.63241 0
M  V30 1331 H 135.508 -0.540468 -0.522875 0
M  V30 1332 H 137.479 -2.64837 -1.37492 0
M  V30 1333 C 136.228 -1.83496 -2.95338 0
M  V30 1334 H 135.551 -2.70153 -2.94716 0
M  V30 1335 H 136.991 -2.01765 -3.72917 0
M  V30 1336 C 135.45 -0.589694 -3.31699 0
M  V30 1337 O 135.98 0.265163 -4.00824 0
M  V30 1338 N 134.186 -0.439845 -2.87252 0
M  V30 1339 H 133.733 -1.13655 -2.31172 0
M  V30 1340 H 133.691 0.392159 -3.11945 0
M  V30 1341 N 137.463 0.71206 -1.40597 0
M  V30 1342 C 138.74 1.46536 -1.29563 0
M  V30 1343 C 139.12 2.10931 0.0844217 0
M  V30 1344 O 138.468 2.00418 1.0975 0
M  V30 1345 C 138.678 2.49821 -2.43701 0
M  V30 1346 C 140.026 3.15551 -2.841 0
M  V30 1347 O 141.05 2.60142 -2.4332 0
M  V30 1348 O 139.909 4.15867 -3.54566 0
M  V30 1349 H 137.003 0.651801 -0.509004 0
M  V30 1350 H 139.549 0.743935 -1.52524 0
M  V30 1351 H 138.321 2.00778 -3.35863 0
M  V30 1352 H 137.944 3.29495 -2.22528 0
M  V30 1353 N 138.941 1.26152 0.944643 0
M  V30 1354 C 140.352 1.10454 1.50522 0
M  V30 1355 C 140.703 -0.31635 1.93633 0
M  V30 1356 O 139.828 -1.20746 1.79581 0
M  V30 1357 C 140.423 1.99891 2.73549 0
M  V30 1358 C 138.982 1.88348 3.25886 0
M  V30 1359 C 138.129 1.93447 1.9868 0
M  V30 1360 H 141.08 1.39292 0.760489 0
M  V30 1361 H 141.101 1.54477 3.47732 0
M  V30 1362 H 140.613 3.03297 2.42141 0
M  V30 1363 H 138.714 0.878636 3.62092 0
M  V30 1364 H 138.827 2.73696 3.93227 0
M  V30 1365 H 137.191 1.37456 2.14425 0
M  V30 1366 H 137.974 2.98476 1.69607 0
M  V30 1367 N 140.419 -1.14872 1.07899 0
M  V30 1368 C 141.367 -2.21857 0.698727 0
M  V30 1369 C 142.361 -1.66845 -0.293086 0
M  V30 1370 O 143.567 -1.79321 -0.156204 0
M  V30 1371 H 139.942 -0.722691 0.207899 0
M  V30 1372 H 141.913 -2.51205 1.61054 0
M  V30 1373 C 140.662 -3.47498 0.11858 0
M  V30 1374 H 139.985 -3.90154 0.872914 0
M  V30 1375 H 141.425 -4.23858 -0.109759 0
M  V30 1376 C 139.884 -3.16947 -1.1422 0
M  V30 1377 O 140.414 -3.3426 -2.22785 0
M  V30 1378 N 138.62 -2.70946 -1.05055 0
M  V30 1379 H 138.167 -2.57058 -0.167038 0
M  V30 1380 H 138.125 -2.50879 -1.89491 0
M  V30 1381 N 141.898 -0.863906 -1.31812 0
M  V30 1382 C 142.861 -0.320212 -2.26952 0
M  V30 1383 C 143.861 0.525369 -1.51975 0
M  V30 1384 O 145.051 0.335547 -1.70938 0
M  V30 1385 C 142.183 0.545919 -3.365 0
M  V30 1386 H 143.376 -1.16004 -2.76556 0
M  V30 1387 H 140.929 -0.638995 -1.42641 0
M  V30 1388 H 141.664 1.40718 -2.92179 0
M  V30 1389 H 141.449 -0.0594674 -3.92055 0
M  V30 1390 H 142.939 0.918796 -4.07367 0
M  V30 1391 N 143.376 1.44774 -0.622745 0
M  V30 1392 C 144.623 2.02121 -0.1239 0
M  V30 1393 C 144.951 1.48915 1.25118 0
M  V30 1394 O 144.206 0.660045 1.84233 0
M  V30 1395 C 144.505 3.57364 -0.0508323 0
M  V30 1396 C 144.171 4.29787 -1.36358 0
M  V30 1397 C 142.833 4.4929 -1.72314 0
M  V30 1398 C 145.185 4.71062 -2.23048 0
M  V30 1399 C 142.513 5.07325 -2.94682 0
M  V30 1400 C 144.865 5.30452 -3.44679 0
M  V30 1401 C 143.529 5.48175 -3.80868 0
M  V30 1402 H 142.799 0.739612 -0.0453381 0
M  V30 1403 H 145.446 1.73648 -0.807389 0
M  V30 1404 H 143.751 3.85202 0.715991 0
M  V30 1405 H 145.448 3.99456 0.351533 0
M  V30 1406 H 142.038 4.14932 -1.07375 0
M  V30 1407 H 146.222 4.55715 -1.96565 0
M  V30 1408 H 141.478 5.19235 -3.22809 0
M  V30 1409 H 145.652 5.61385 -4.12092 0
M  V30 1410 H 143.279 5.92912 -4.75773 0
M  V30 1411 N 144.854 0.36279 1.53368 0
M  V30 1412 C 145.784 -0.476976 2.28576 0
M  V30 1413 C 146.765 -1.08631 1.30894 0
M  V30 1414 O 147.95 -1.10409 1.59761 0
M  V30 1415 C 145.08 -1.61828 3.07293 0
M  V30 1416 C 144.034 -1.13633 4.1264 0
M  V30 1417 C 143.36 -2.36766 4.79423 0
M  V30 1418 C 144.66 -0.223061 5.21823 0
M  V30 1419 H 146.354 0.150474 2.99022 0
M  V30 1420 H 143.9 0.0738103 1.43811 0
M  V30 1421 H 145.853 -2.21237 3.58653 0
M  V30 1422 H 144.577 -2.27292 2.34533 0
M  V30 1423 H 143.236 -0.564945 3.62221 0
M  V30 1424 H 142.884 -3.0068 4.03238 0
M  V30 1425 H 142.584 -2.05192 5.50609 0
M  V30 1426 H 144.108 -2.96865 5.33576 0
M  V30 1427 H 145.522 -0.724545 5.68703 0
M  V30 1428 H 143.919 0.001678 6.001 0
M  V30 1429 H 144.989 0.735553 4.79289 0
M  V30 1430 N 146.332 -1.57332 0.0918853 0
M  V30 1431 C 147.279 -2.13847 -0.868211 0
M  V30 1432 C 148.249 -1.05618 -1.28196 0
M  V30 1433 O 149.434 -1.33387 -1.36427 0
M  V30 1434 C 146.574 -2.72062 -2.12312 0
M  V30 1435 C 145.687 -3.94514 -1.7602 0
M  V30 1436 C 144.822 -4.40903 -2.96273 0
M  V30 1437 C 143.861 -5.55953 -2.56092 0
M  V30 1438 N 142.998 -5.97209 -3.69169 0
M  V30 1439 H 147.838 -2.95575 -0.379406 0
M  V30 1440 H 145.375 -1.46048 -0.175606 0
M  V30 1441 H 147.333 -3.03931 -2.858 0
M  V30 1442 H 145.963 -1.93068 -2.58698 0
M  V30 1443 H 145.015 -3.68979 -0.925135 0
M  V30 1444 H 146.327 -4.7802 -1.42472 0
M  V30 1445 H 145.481 -4.74539 -3.78018 0
M  V30 1446 H 144.22 -3.56291 -3.33029 0
M  V30 1447 H 143.225 -5.21948 -1.72773 0
M  V30 1448 H 144.45 -6.42311 -2.20484 0
M  V30 1449 H 142.396 -5.15543 -4.05649 0
M  V30 1450 H 142.313 -6.75504 -3.39456 0
M  V30 1451 H 143.581 -6.35475 -4.51434 0
M  V30 1452 N 147.81 0.181792 -1.56548 0
M  V30 1453 C 148.757 1.22521 -1.95595 0
M  V30 1454 C 149.727 1.4454 -0.818373 0
M  V30 1455 O 150.912 1.57454 -1.07763 0
M  V30 1456 C 148.052 2.56193 -2.31212 0
M  V30 1457 C 147.165 2.41641 -3.58097 0
M  V30 1458 C 146.3 3.68108 -3.82975 0
M  V30 1459 C 145.339 3.48445 -5.03242 0
M  V30 1460 N 144.476 4.66956 -5.24306 0
M  V30 1461 H 149.316 0.885226 -2.84548 0
M  V30 1462 H 146.853 0.425718 -1.40805 0
M  V30 1463 H 148.811 3.34088 -2.49882 0
M  V30 1464 H 147.441 2.88208 -1.45382 0
M  V30 1465 H 146.493 1.54976 -3.474 0
M  V30 1466 H 147.805 2.23052 -4.46149 0
M  V30 1467 H 146.959 4.54441 -4.01956 0
M  V30 1468 H 145.698 3.89666 -2.93278 0
M  V30 1469 H 144.703 2.60499 -4.8417 0
M  V30 1470 H 145.928 3.2832 -5.9446 0
M  V30 1471 H 143.874 4.88752 -4.37559 0
M  V30 1472 H 143.791 4.51242 -6.06561 0
M  V30 1473 H 145.059 5.54602 -5.47756 0
M  V30 1474 N 149.288 1.51039 0.449983 0
M  V30 1475 C 150.535 1.63081 1.20045 0
M  V30 1476 C 150.863 0.341024 1.91487 0
M  V30 1477 O 150.118 -0.674276 1.83717 0
M  V30 1478 C 150.417 2.77556 2.25161 0
M  V30 1479 C 150.083 4.17289 1.70823 0
M  V30 1480 C 148.745 4.55305 1.55725 0
M  V30 1481 C 151.097 5.04536 1.3074 0
M  V30 1482 C 148.425 5.78287 0.989999 0
M  V30 1483 C 150.777 6.28085 0.754482 0
M  V30 1484 C 149.441 6.64885 0.590308 0
M  V30 1485 H 148.711 0.596755 0.439277 0
M  V30 1486 H 151.358 1.85037 0.49333 0
M  V30 1487 H 149.663 2.49771 3.01863 0
M  V30 1488 H 151.36 2.84073 2.83026 0
M  V30 1489 H 147.95 3.8731 1.83546 0
M  V30 1490 H 152.134 4.75782 1.41229 0
M  V30 1491 H 147.39 6.05456 0.850451 0
M  V30 1492 H 151.564 6.95038 0.435324 0
M  V30 1493 H 149.191 7.60055 0.14862 0
M  V30 1494 N 150.766 -0.704594 1.40972 0
M  V30 1495 C 151.696 -1.83124 1.44872 0
M  V30 1496 C 152.677 -1.67281 0.30838 0
M  V30 1497 O 153.862 -1.87149 0.518556 0
M  V30 1498 C 150.992 -3.21181 1.32136 0
M  V30 1499 C 149.946 -3.51714 2.43888 0
M  V30 1500 C 149.272 -4.89032 2.16222 0
M  V30 1501 C 150.572 -3.516 3.86232 0
M  V30 1502 H 152.266 -1.80117 2.39161 0
M  V30 1503 H 149.812 -0.865145 1.15114 0
M  V30 1504 H 151.765 -3.99702 1.33479 0
M  V30 1505 H 150.489 -3.24791 0.343279 0
M  V30 1506 H 149.148 -2.75539 2.41813 0
M  V30 1507 H 148.796 -4.89256 1.16778 0
M  V30 1508 H 148.496 -5.10426 2.911 0
M  V30 1509 H 150.02 -5.69873 2.19265 0
M  V30 1510 H 151.434 -4.2014 3.9007 0
M  V30 1511 H 149.831 -3.84523 4.60719 0
M  V30 1512 H 150.901 -2.50757 4.15029 0
M  V30 1513 N 152.244 -1.26651 -0.937939 0
M  V30 1514 C 153.472 -1.15173 -1.7188 0
M  V30 1515 C 153.887 0.292668 -1.86518 0
M  V30 1516 O 153.244 1.20014 -1.37488 0
M  V30 1517 C 153.295 -1.81925 -3.12387 0
M  V30 1518 O 153.016 -3.2072 -2.98446 0
M  V30 1519 C 154.517 -1.76442 -4.06673 0
M  V30 1520 H 151.737 -0.400911 -0.538063 0
M  V30 1521 H 154.281 -1.67332 -1.1756 0
M  V30 1522 H 152.436 -1.33696 -3.63599 0
M  V30 1523 H 152.85 -3.53802 -3.872 0
M  V30 1524 H 154.324 -2.27781 -5.02812 0
M  V30 1525 H 154.801 -0.731608 -4.33064 0
M  V30 1526 H 155.407 -2.24238 -3.61382 0
M  V30 1527 N 153.722 1.14298 -1.08507 0
M  V30 1528 C 154.999 1.81544 -0.728088 0
M  V30 1529 C 155.379 1.95838 0.78808 0
M  V30 1530 O 154.727 1.51904 1.70697 0
M  V30 1531 C 154.937 3.17169 -1.45619 0
M  V30 1532 C 156.285 3.9265 -1.61591 0
M  V30 1533 O 157.309 3.26762 -1.41793 0
M  V30 1534 O 156.168 5.10807 -1.94263 0
M  V30 1535 H 153.262 0.78491 -0.260471 0
M  V30 1536 H 155.808 1.21307 -1.18671 0
M  V30 1537 H 154.58 3.01934 -2.489 0
M  V30 1538 H 154.203 3.851 -0.989124 0
M  V30 1539 N 155.201 0.870884 1.31352 0
M  V30 1540 C 156.148 0.325425 2.28494 0
M  V30 1541 C 157.118 -0.576615 1.5577 0
M  V30 1542 O 158.303 -0.508059 1.83911 0
M  V30 1543 C 155.443 -0.466283 3.41935 0
M  V30 1544 C 154.556 0.463378 4.29508 0
M  V30 1545 C 153.691 -0.342544 5.30094 0
M  V30 1546 C 152.73 0.583486 6.09313 0
M  V30 1547 N 151.867 -0.186244 7.01853 0
M  V30 1548 H 156.707 1.15901 2.74538 0
M  V30 1549 H 154.244 0.58294 1.35056 0
M  V30 1550 H 156.202 -0.941085 4.06447 0
M  V30 1551 H 154.832 -1.26456 2.97 0
M  V30 1552 H 153.884 1.05663 3.65431 0
M  V30 1553 H 155.196 1.1734 4.84802 0
M  V30 1554 H 154.35 -0.879816 6.00287 0
M  V30 1555 H 153.089 -1.08585 4.75458 0
M  V30 1556 H 152.094 1.13251 5.3801 0
M  V30 1557 H 153.319 1.32566 6.66035 0
M  V30 1558 H 151.265 -0.912348 6.49625 0
M  V30 1559 H 151.182 0.464422 7.54572 0
M  V30 1560 H 152.45 -0.704716 7.76308 0
M  V30 1561 N 156.679 -1.44442 0.630414 0
M  V30 1562 C 157.927 -2.01653 0.134351 0
M  V30 1563 C 158.248 -1.49836 -1.24796 0
M  V30 1564 O 157.518 -0.701684 -1.82902 0
M  V30 1565 H 156.098 -0.74554 0.0466769 0
M  V30 1566 H 158.76 -1.76952 0.816955 0
M  V30 1567 H 157.856 -3.11935 0.101498 0
M  V30 1568 N 158.157 -0.370918 -1.53173 0
M  V30 1569 C 159.104 0.473035 -2.259 0
M  V30 1570 C 160.074 1.07311 -1.26781 0
M  V30 1571 O 161.259 1.1046 -1.55574 0
M  V30 1572 C 158.399 1.60405 -3.05556 0
M  V30 1573 C 157.512 1.02863 -4.19575 0
M  V30 1574 C 156.647 2.12918 -4.86661 0
M  V30 1575 C 155.686 1.52869 -5.92704 0
M  V30 1576 N 154.823 2.56779 -6.53459 0
M  V30 1577 H 159.663 -0.153649 -2.97604 0
M  V30 1578 H 157.2 -0.0875946 -1.46839 0
M  V30 1579 H 159.158 2.27034 -3.50016 0
M  V30 1580 H 157.788 2.20131 -2.36097 0
M  V30 1581 H 156.84 0.252465 -3.79561 0
M  V30 1582 H 158.152 0.549642 -4.95762 0
M  V30 1583 H 157.306 2.87356 -5.34333 0
M  V30 1584 H 156.045 2.6417 -4.09958 0
M  V30 1585 H 155.05 0.769479 -5.44389 0
M  V30 1586 H 156.275 1.02435 -6.7133 0
M  V30 1587 H 154.221 3.07235 -5.79606 0
M  V30 1588 H 154.138 2.13583 -7.25202 0
M  V30 1589 H 155.406 3.30903 -7.05779 0
M  V30 1590 N 159.635 1.57281 -0.100228 0
M  V30 1591 C 160.598 2.13158 0.842398 0
M  V30 1592 C 161.598 1.06202 1.20738 0
M  V30 1593 O 162.788 1.32066 1.13597 0
M  V30 1594 C 159.92 2.65639 2.13655 0
M  V30 1595 H 161.113 2.97766 0.357114 0
M  V30 1596 H 158.666 1.5559 0.148823 0
M  V30 1597 H 159.401 1.84566 2.66657 0
M  V30 1598 H 159.186 3.43844 1.88451 0
M  V30 1599 H 160.676 3.08846 2.81077 0
M  V30 1600 N 161.113 -0.173488 1.56642 0
M  V30 1601 C 162.39 -0.917617 1.7274 0
M  V30 1602 C 162.77 -2.00484 0.661027 0
M  V30 1603 O 162.118 -2.26184 -0.32453 0
M  V30 1604 C 162.328 -1.48433 3.15862 0
M  V30 1605 C 163.676 -1.95809 3.76754 0
M  V30 1606 O 164.7 -1.58231 3.19126 0
M  V30 1607 O 163.559 -2.65024 4.77938 0
M  V30 1608 H 160.653 -0.431772 0.705338 0
M  V30 1609 H 163.199 -0.161487 1.6893 0
M  V30 1610 H 161.971 -0.701715 3.84957 0
M  V30 1611 H 161.594 -2.30471 3.23989 0
M  V30 1612 N 162.591 -1.51276 -0.441967 0
M  V30 1613 C 163.523 -1.68444 -1.55433 0
M  V30 1614 C 164.536 -0.565187 -1.52674 0
M  V30 1615 O 165.725 -0.839356 -1.57534 0
M  V30 1616 C 162.825 -1.67966 -2.94348 0
M  V30 1617 C 161.998 -2.964 -3.21661 0
M  V30 1618 C 161.057 -2.88171 -4.40277 0
M  V30 1619 O 160.083 -3.62119 -4.39157 0
M  V30 1620 N 161.285 -2.03706 -5.43584 0
M  V30 1621 H 164.05 -2.644 -1.41112 0
M  V30 1622 H 161.611 -1.49104 -0.630838 0
M  V30 1623 H 163.603 -1.60035 -3.71713 0
M  V30 1624 H 162.173 -0.796225 -3.0229 0
M  V30 1625 H 161.393 -3.18234 -2.32638 0
M  V30 1626 H 162.681 -3.81427 -3.36736 0
M  V30 1627 H 162.079 -1.42995 -5.47329 0
M  V30 1628 H 160.636 -2.01658 -6.1982 0
M  V30 1629 N 164.069 0.697108 -1.41344 0
M  V30 1630 C 165.032 1.79281 -1.42797 0
M  V30 1631 C 166.032 1.57607 -0.318837 0
M  V30 1632 O 167.222 1.64309 -0.578642 0
M  V30 1633 C 164.354 3.17632 -1.23785 0
M  V30 1634 H 165.547 1.79385 -2.40335 0
M  V30 1635 H 163.1 0.904582 -1.27464 0
M  V30 1636 H 163.835 3.23167 -0.270814 0
M  V30 1637 H 163.62 3.34765 -2.04144 0
M  V30 1638 H 165.11 3.97617 -1.27633 0
M  V30 1639 N 165.547 1.27147 0.931209 0
M  V30 1640 C 166.793 1.13446 1.68101 0
M  V30 1641 C 167.126 -0.319628 1.91552 0
M  V30 1642 O 166.401 -1.23407 1.50336 0
M  V30 1643 C 166.684 1.91482 3.0497 0
M  V30 1644 C 166.537 3.44855 2.88782 0
M  V30 1645 C 167.856 1.71651 4.05246 0
M  V30 1646 H 164.975 0.413498 0.610072 0
M  V30 1647 H 167.617 1.56261 1.08086 0
M  V30 1648 H 165.767 1.55095 3.56199 0
M  V30 1649 H 167.439 3.9105 2.44698 0
M  V30 1650 H 165.682 3.71373 2.24198 0
M  V30 1651 H 166.353 3.94694 3.85902 0
M  V30 1652 H 168.829 2.0337 3.63015 0
M  V30 1653 H 167.705 2.28651 4.99009 0
M  V30 1654 H 167.966 0.663555 4.37092 0
M  V30 1655 N 167.025 -1.13721 1.09112 0
M  V30 1656 C 168.273 -1.84559 0.823562 0
M  V30 1657 C 168.594 -1.83754 -0.652658 0
M  V30 1658 O 167.864 -1.29102 -1.47342 0
M  V30 1659 H 166.444 -0.683376 0.301673 0
M  V30 1660 H 169.106 -1.37771 1.37859 0
M  V30 1661 H 168.202 -2.8917 1.17419 0
M  V30 1662 N 168.503 -0.877838 -1.30888 0
M  V30 1663 C 169.749 -0.493426 -1.96706 0
M  V30 1664 C 170.082 0.953504 -1.6918 0
M  V30 1665 O 169.357 1.67266 -0.992594 0
M  V30 1666 C 169.64 -0.760429 -3.51979 0
M  V30 1667 C 169.493 -2.25747 -3.89048 0
M  V30 1668 C 170.812 -0.232148 -4.39487 0
M  V30 1669 H 167.931 -0.180746 -0.714493 0
M  V30 1670 H 170.573 -1.10052 -1.54882 0
M  V30 1671 H 168.723 -0.243715 -3.87735 0
M  V30 1672 H 170.395 -2.84204 -3.63354 0
M  V30 1673 H 168.638 -2.72694 -3.37373 0
M  V30 1674 H 169.309 -2.39491 -4.97341 0
M  V30 1675 H 171.785 -0.674314 -4.106 0
M  V30 1676 H 170.661 -0.448355 -5.47066 0
M  V30 1677 H 170.922 0.866297 -4.33529 0
M  V30 1678 N 169.982 1.44106 -0.638065 0
M  V30 1679 C 171.21 2.06336 -0.152615 0
M  V30 1680 C 171.625 1.47731 1.17563 0
M  V30 1681 O 170.982 0.602806 1.72257 0
M  V30 1682 C 171.033 3.61479 -0.0391491 0
M  V30 1683 O 170.754 4.17903 -1.31487 0
M  V30 1684 C 172.255 4.40757 0.474176 0
M  V30 1685 H 169.475 0.665862 -0.0828776 0
M  V30 1686 H 172.019 1.84862 -0.87443 0
M  V30 1687 H 170.174 3.82191 0.633142 0
M  V30 1688 H 170.588 5.11416 -1.16421 0
M  V30 1689 H 172.062 5.49707 0.502562 0
M  V30 1690 H 172.539 4.12697 1.50258 0
M  V30 1691 H 173.145 4.24979 -0.165102 0
M  V30 1692 N 171.46 0.379036 1.52974 0
M  V30 1693 C 172.407 -0.461048 2.26148 0
M  V30 1694 C 173.377 -1.06637 1.27349 0
M  V30 1695 O 174.562 -1.09633 1.56157 0
M  V30 1696 C 171.702 -1.58782 3.06402 0
M  V30 1697 C 170.815 -1.00636 4.20115 0
M  V30 1698 C 169.95 -2.10334 4.87784 0
M  V30 1699 C 168.989 -1.49724 5.93506 0
M  V30 1700 N 168.126 -2.5331 6.54812 0
M  V30 1701 H 172.966 0.169429 2.97518 0
M  V30 1702 H 170.503 0.0953806 1.4679 0
M  V30 1703 H 172.461 -2.25174 3.51215 0
M  V30 1704 H 171.091 -2.18876 2.37261 0
M  V30 1705 H 170.143 -0.232332 3.7969 0
M  V30 1706 H 171.455 -0.523343 4.96047 0
M  V30 1707 H 170.609 -2.84519 5.35849 0
M  V30 1708 H 169.348 -2.61992 4.11353 0
M  V30 1709 H 168.353 -0.740598 5.44789 0
M  V30 1710 H 169.578 -0.988732 6.71864 0
M  V30 1711 H 167.524 -3.04156 5.81227 0
M  V30 1712 H 167.441 -2.09734 7.26325 0
M  V30 1713 H 168.709 -3.27155 7.07524 0
M  V30 1714 N 172.938 -1.57226 0.108567 0
M  V30 1715 C 173.871 -2.10447 -0.882464 0
M  V30 1716 C 174.849 -1.01829 -1.26766 0
M  V30 1717 O 176.033 -1.29415 -1.37054 0
M  V30 1718 C 173.16 -2.59258 -2.17952 0
M  V30 1719 C 172.206 -3.79662 -1.94318 0
M  V30 1720 S 173.039 -5.22586 -1.16892 0
M  V30 1721 C 174.195 -5.74758 -2.47799 0
M  V30 1722 H 174.428 -2.94178 -0.429745 0
M  V30 1723 H 171.961 -1.54043 -0.105 0
M  V30 1724 H 173.919 -2.88036 -2.92482 0
M  V30 1725 H 172.58 -1.75728 -2.60343 0
M  V30 1726 H 171.773 -4.11928 -2.90399 0
M  V30 1727 H 171.375 -3.51446 -1.27913 0
M  V30 1728 H 173.667 -5.83846 -3.43701 0
M  V30 1729 H 174.61 -6.73027 -2.20093 0
M  V30 1730 H 175.018 -5.02763 -2.56689 0
M  V30 1731 N 174.416 0.165178 -1.56732 0
M  V30 1732 C 175.644 0.896218 -1.86482 0
M  V30 1733 C 176.059 1.75555 -0.694675 0
M  V30 1734 O 175.416 1.79379 0.33607 0
M  V30 1735 C 175.467 1.76792 -3.1532 0
M  V30 1736 O 175.188 0.943239 -4.27825 0
M  V30 1737 C 176.689 2.6081 -3.58459 0
M  V30 1738 H 173.909 0.260064 -0.618553 0
M  V30 1739 H 176.453 0.163428 -2.03846 0
M  V30 1740 H 174.608 2.45398 -2.99764 0
M  V30 1741 H 175.022 1.53998 -5.01383 0
M  V30 1742 H 176.496 3.17579 -4.51495 0
M  V30 1743 H 176.973 3.35977 -2.82872 0
M  V30 1744 H 177.579 1.97526 -3.76648 0
M  V30 1745 N 175.894 1.51508 0.433938 0
M  V30 1746 C 177.141 1.64345 1.18309 0
M  V30 1747 C 177.469 0.361315 1.91115 0
M  V30 1748 O 176.724 -0.654753 1.84422 0
M  V30 1749 C 177.023 2.79928 2.22205 0
M  V30 1750 C 176.689 4.19078 1.66387 0
M  V30 1751 C 175.351 4.56932 1.50887 0
M  V30 1752 C 177.703 5.05894 1.25381 0
M  V30 1753 C 175.031 5.79305 0.928608 0
M  V30 1754 C 177.383 6.2885 0.687823 0
M  V30 1755 C 176.047 6.65473 0.519755 0
M  V30 1756 H 175.317 0.601381 0.432923 0
M  V30 1757 H 177.964 1.85549 0.473676 0
M  V30 1758 H 176.269 2.52959 2.99197 0
M  V30 1759 H 177.966 2.87059 2.79997 0
M  V30 1760 H 174.556 3.89234 1.79428 0
M  V30 1761 H 178.74 4.77253 1.36175 0
M  V30 1762 H 173.996 6.06324 0.786186 0
M  V30 1763 H 178.17 6.95461 0.361581 0
M  V30 1764 H 175.797 7.6017 0.0679979 0
M  V30 1765 N 177.372 -0.689602 1.41712 0
M  V30 1766 C 178.319 -1.80345 1.44029 0
M  V30 1767 C 179.289 -1.63478 0.293948 0
M  V30 1768 O 180.474 -1.84244 0.495869 0
M  V30 1769 C 177.614 -3.18272 1.33405 0
M  V30 1770 C 176.727 -3.46529 2.57956 0
M  V30 1771 C 175.862 -4.74103 2.39582 0
M  V30 1772 C 174.901 -4.95347 3.5958 0
M  V30 1773 N 174.038 -6.14151 3.40239 0
M  V30 1774 H 178.878 -1.77698 2.39222 0
M  V30 1775 H 176.415 -0.867688 1.18784 0
M  V30 1776 H 178.373 -3.97956 1.25246 0
M  V30 1777 H 177.003 -3.2008 0.418164 0
M  V30 1778 H 176.055 -2.61207 2.76542 0
M  V30 1779 H 177.367 -3.58126 3.47199 0
M  V30 1780 H 176.521 -5.61853 2.28924 0
M  V30 1781 H 175.26 -4.64763 1.47805 0
M  V30 1782 H 174.265 -4.06044 3.70686 0
M  V30 1783 H 175.49 -5.06542 4.52318 0
M  V30 1784 H 173.436 -6.06013 2.51167 0
M  V30 1785 H 173.353 -6.26543 4.23061 0
M  V30 1786 H 174.621 -7.04619 3.33365 0
M  V30 1787 N 178.85 -1.27639 -0.924453 0
M  V30 1788 C 179.78 -1.13166 -2.04244 0
M  V30 1789 C 180.761 -0.032256 -1.70069 0
M  V30 1790 O 181.946 -0.207328 -1.9309 0
M  V30 1791 C 179.076 -0.781496 -3.38393 0
M  V30 1792 C 178.03 -1.83449 -3.86692 0
M  V30 1793 C 177.356 -1.33822 -5.17683 0
M  V30 1794 C 178.656 -3.23917 -4.09726 0
M  V30 1795 H 180.35 -2.06689 -2.1661 0
M  V30 1796 H 177.896 -0.995136 -1.04082 0
M  V30 1797 H 179.849 -0.667057 -4.16087 0
M  V30 1798 H 178.573 0.189439 -3.2605 0
M  V30 1799 H 177.232 -1.93789 -3.11193 0
M  V30 1800 H 176.88 -0.35665 -5.01734 0
M  V30 1801 H 176.58 -2.04224 -5.50968 0
M  V30 1802 H 178.104 -1.23679 -5.97943 0
M  V30 1803 H 179.518 -3.16559 -4.77978 0
M  V30 1804 H 177.915 -3.92059 -4.54324 0
M  V30 1805 H 178.985 -3.68729 -3.14908 0
M  V30 1806 N 180.328 1.1314 -1.09713 0
M  V30 1807 C 181.291 2.16831 -0.742751 0
M  V30 1808 C 182.291 1.59159 0.229129 0
M  V30 1809 O 183.481 1.74199 0.00693237 0
M  V30 1810 C 180.613 3.40756 -0.0989168 0
M  V30 1811 H 181.806 2.49695 -1.66109 0
M  V30 1812 H 179.359 1.2802 -0.896699 0
M  V30 1813 H 180.094 3.13485 0.830514 0
M  V30 1814 H 179.879 3.83888 -0.798265 0
M  V30 1815 H 181.369 4.17386 0.133524 0
M  V30 1816 N 181.806 0.884767 1.30421 0
M  V30 1817 C 182.754 0.340869 2.30089 0
M  V30 1818 C 183.748 -0.55201 1.60154 0
M  V30 1819 O 184.954 -0.436467 1.74628 0
M  V30 1820 H 181.329 0.0915739 0.746404 0
M  V30 1821 H 183.3 1.19513 2.73421 0
M  V30 1822 C 182.049 -0.429779 3.45034 0
M  V30 1823 H 181.372 0.248024 3.9903 0
M  V30 1824 H 182.812 -0.775445 4.16849 0
M  V30 1825 C 181.271 -1.62677 2.95022 0
M  V30 1826 O 181.801 -2.72614 2.95033 0
M  V30 1827 N 180.007 -1.46387 2.51036 0
M  V30 1828 H 179.554 -0.569506 2.51226 0
M  V30 1829 H 179.512 -2.26612 2.17932 0
M  V30 1830 N 183.284 -1.43765 0.645699 0
M  V30 1831 C 184.194 -2.34544 -0.0512957 0
M  V30 1832 C 185.21 -1.53455 -0.82022 0
M  V30 1833 O 186.386 -1.86133 -0.769176 0
M  V30 1834 C 183.451 -3.31636 -1.01087 0
M  V30 1835 C 182.512 -4.2863 -0.239712 0
M  V30 1836 C 181.745 -5.21084 -1.15358 0
M  V30 1837 O 181.968 -5.1779 -2.39269 0
M  V30 1838 O 180.902 -5.98593 -0.630038 0
M  V30 1839 H 184.728 -2.95624 0.695718 0
M  V30 1840 H 182.313 -1.43781 0.405882 0
M  V30 1841 H 184.195 -3.9136 -1.56254 0
M  V30 1842 H 182.87 -2.73069 -1.73824 0
M  V30 1843 H 181.777 -3.72408 0.355356 0
M  V30 1844 H 183.11 -4.90157 0.447936 0
M  V30 1845 N 184.763 -0.387143 -1.52771 0
M  V30 1846 C 185.695 0.484089 -2.2403 0
M  V30 1847 C 186.708 1.02849 -1.26198 0
M  V30 1848 O 187.897 0.931186 -1.52286 0
M  V30 1849 C 184.997 1.68337 -2.94136 0
M  V30 1850 C 184.17 1.26672 -4.18656 0
M  V30 1851 C 183.229 2.33045 -4.7178 0
M  V30 1852 O 182.255 1.94541 -5.34923 0
M  V30 1853 N 183.457 3.64929 -4.5145 0
M  V30 1854 H 186.222 -0.126404 -2.99433 0
M  V30 1855 H 183.783 -0.213392 -1.60488 0
M  V30 1856 H 185.775 2.39019 -3.26577 0
M  V30 1857 H 184.345 2.20025 -2.22053 0
M  V30 1858 H 183.565 0.388878 -3.92277 0
M  V30 1859 H 184.853 0.964964 -4.99566 0
M  V30 1860 H 184.251 3.98974 -4.01044 0
M  V30 1861 H 182.808 4.31651 -4.88386 0
M  V30 1862 N 186.241 1.57166 -0.116904 0
M  V30 1863 C 187.173 2.12271 0.864507 0
M  V30 1864 C 188.186 1.06494 1.23138 0
M  V30 1865 O 189.375 1.33873 1.18069 0
M  V30 1866 C 186.475 2.60564 2.16702 0
M  V30 1867 C 185.648 3.90416 1.97216 0
M  V30 1868 C 184.707 4.24329 3.11178 0
M  V30 1869 O 183.733 4.93182 2.84184 0
M  V30 1870 N 184.935 3.8148 4.37554 0
M  V30 1871 H 187.7 2.97102 0.393726 0
M  V30 1872 H 185.261 1.61759 0.0675805 0
M  V30 1873 H 187.253 2.80282 2.91932 0
M  V30 1874 H 185.823 1.80623 2.55135 0
M  V30 1875 H 185.043 3.79627 1.06192 0
M  V30 1876 H 186.331 4.75327 1.81499 0
M  V30 1877 H 185.729 3.25943 4.62361 0
M  V30 1878 H 184.286 4.06311 5.09661 0
M  V30 1879 N 187.719 -0.156864 1.56817 0
M  V30 1880 C 189.135 -0.50916 1.5126 0
M  V30 1881 C 189.335 -1.83897 0.823658 0
M  V30 1882 O 188.391 -2.49469 0.390055 0
M  V30 1883 C 189.704 -0.52857 2.96018 0
M  V30 1884 C 191.252 -0.614771 3.06903 0
M  V30 1885 C 191.727 -0.664938 4.53147 0
M  V30 1886 N 193.218 -0.727433 4.57452 0
M  V30 1887 C 193.953 -0.787067 5.67973 0
M  V30 1888 N 193.449 -0.806649 6.88088 0
M  V30 1889 N 195.242 -0.827195 5.5598 0
M  V30 1890 H 187.393 0.714935 2.00006 0
M  V30 1891 H 189.656 0.259526 0.911784 0
M  V30 1892 H 189.362 0.380154 3.49639 0
M  V30 1893 H 189.236 -1.36998 3.51442 0
M  V30 1894 H 191.623 -1.51392 2.53307 0
M  V30 1895 H 191.704 0.253597 2.5454 0
M  V30 1896 H 191.348 0.230011 5.07379 0
M  V30 1897 H 191.278 -1.54966 5.03282 0
M  V30 1898 H 193.769 -0.719998 3.70978 0
M  V30 1899 H 194.082 -0.853727 7.6807 0
M  V30 1900 H 192.427 -0.774687 6.90669 0
M  V30 1901 H 195.618 -0.808998 4.61056 0
M  V30 1902 H 195.791 -0.870206 6.4213 0
M  V30 1903 N 189.197 -1.51736 -0.425897 0
M  V30 1904 C 190.144 -1.73875 -1.51776 0
M  V30 1905 C 191.114 -0.580702 -1.55618 0
M  V30 1906 O 192.299 -0.81641 -1.72451 0
M  V30 1907 C 189.439 -1.88012 -2.89388 0
M  V30 1908 C 188.552 -3.15606 -2.94986 0
M  V30 1909 C 187.687 -3.20271 -4.23793 0
M  V30 1910 C 186.726 -4.42134 -4.23302 0
M  V30 1911 N 185.863 -4.44284 -5.43651 0
M  V30 1912 H 190.703 -2.67071 -1.32201 0
M  V30 1913 H 188.24 -1.32351 -0.642008 0
M  V30 1914 H 190.198 -1.9419 -3.69251 0
M  V30 1915 H 188.828 -0.98213 -3.07496 0
M  V30 1916 H 187.88 -3.18681 -2.07717 0
M  V30 1917 H 189.192 -4.05486 -2.90486 0
M  V30 1918 H 188.346 -3.25428 -5.12036 0
M  V30 1919 H 187.085 -2.28299 -4.30965 0
M  V30 1920 H 186.09 -4.3714 -3.3345 0
M  V30 1921 H 187.315 -5.35382 -4.17783 0
M  V30 1922 H 185.261 -3.55188 -5.51523 0
M  V30 1923 H 185.178 -5.27988 -5.41078 0
M  V30 1924 H 186.446 -4.53649 -6.33895 0
M  V30 1925 N 190.675 0.682077 -1.42076 0
M  V30 1926 C 191.952 1.43755 -1.32642 0
M  V30 1927 C 192.332 2.11063 0.0396611 0
M  V30 1928 O 191.68 2.02701 1.05474 0
M  V30 1929 C 191.89 2.44596 -2.48946 0
M  V30 1930 C 193.238 3.09454 -2.9073 0
M  V30 1931 O 194.262 2.54922 -2.48783 0
M  V30 1932 O 193.121 4.08253 -3.63307 0
M  V30 1933 H 190.215 0.640857 -0.522715 0
M  V30 1934 H 192.761 0.711415 -1.54068 0
M  V30 1935 H 191.533 1.93609 -3.40046 0
M  V30 1936 H 191.156 3.24701 -2.29467 0
M  V30 1937 N 192.153 1.28127 0.917671 0
M  V30 1938 C 193.399 1.15223 1.66888 0
M  V30 1939 C 193.732 -0.299293 1.9188 0
M  V30 1940 O 193.007 -1.21805 1.51637 0
M  V30 1941 C 193.29 1.94706 3.02922 0
M  V30 1942 C 193.143 3.47898 2.85109 0
M  V30 1943 C 194.462 1.75939 4.03402 0
M  V30 1944 H 191.581 0.419946 0.605652 0
M  V30 1945 H 194.223 1.57398 1.06423 0
M  V30 1946 H 192.373 1.58864 3.54534 0
M  V30 1947 H 194.045 3.93624 2.40537 0
M  V30 1948 H 192.288 3.7373 2.20246 0
M  V30 1949 H 192.959 3.98765 3.81694 0
M  V30 1950 H 195.435 2.07209 3.60837 0
M  V30 1951 H 194.311 2.33931 4.96556 0
M  V30 1952 H 194.572 0.709877 4.36364 0
M  V30 1953 N 193.631 -1.12557 1.10312 0
M  V30 1954 C 194.877 -1.84311 0.846011 0
M  V30 1955 C 195.21 -1.83805 -0.626859 0
M  V30 1956 O 194.485 -1.28268 -1.46211 0
M  V30 1957 C 194.768 -3.32048 1.39341 0
M  V30 1958 C 194.621 -3.41016 2.93305 0
M  V30 1959 C 195.94 -4.27764 1.03468 0
M  V30 1960 H 193.059 -0.669192 0.30879 0
M  V30 1961 H 195.701 -1.32057 1.36605 0
M  V30 1962 H 193.851 -3.76678 0.951087 0
M  V30 1963 H 195.523 -3.05031 3.46055 0
M  V30 1964 H 193.766 -2.81603 3.29973 0
M  V30 1965 H 194.437 -4.44948 3.26689 0
M  V30 1966 H 196.913 -3.91253 1.41633 0
M  V30 1967 H 195.789 -5.29549 1.44463 0
M  V30 1968 H 196.05 -4.42064 -0.0560404 0
M  V30 1969 N 195.109 -0.891671 -1.2995 0
M  V30 1970 C 196.072 -0.36828 -2.26222 0
M  V30 1971 C 197.072 0.493014 -1.53056 0
M  V30 1972 O 198.262 0.299213 -1.71611 0
M  V30 1973 C 195.394 0.47442 -3.37583 0
M  V30 1974 H 196.587 -1.21844 -2.74033 0
M  V30 1975 H 194.14 -0.669107 -1.41254 0
M  V30 1976 H 194.875 1.34489 -2.95099 0
M  V30 1977 H 194.66 -0.142615 -3.91841 0
M  V30 1978 H 196.15 0.83218 -4.09224 0
M  V30 1979 N 196.587 1.43421 -0.653314 0
M  V30 1980 C 197.817 2.05864 -0.174238 0
M  V30 1981 C 198.225 1.49052 1.16534 0
M  V30 1982 O 197.568 0.616481 1.73047 0
M  V30 1983 C 197.63 3.59499 -0.00875873 0
M  V30 1984 C 197.294 4.38893 -1.27364 0
M  V30 1985 C 198.291 4.70947 -2.20239 0
M  V30 1986 C 195.976 4.789 -1.51525 0
M  V30 1987 C 197.97 5.41916 -3.35568 0
M  V30 1988 C 195.657 5.49614 -2.67147 0
M  V30 1989 C 196.655 5.81044 -3.58994 0
M  V30 1990 O 196.343 6.50313 -4.72597 0
M  V30 1991 H 196.075 0.670345 -0.0872549 0
M  V30 1992 H 198.629 1.84913 -0.894226 0
M  V30 1993 H 196.859 3.79025 0.7666 0
M  V30 1994 H 198.548 4.0364 0.427687 0
M  V30 1995 H 199.314 4.40558 -2.02815 0
M  V30 1996 H 195.193 4.53843 -0.809158 0
M  V30 1997 H 198.737 5.66365 -4.07279 0
M  V30 1998 H 194.634 5.79419 -2.84505 0
M  V30 1999 H 195.402 6.68795 -4.71864 0
M  V30 2000 N 198.065 0.39524 1.52563 0
M  V30 2001 C 198.995 -0.428384 2.29537 0
M  V30 2002 C 199.976 -1.05831 1.33169 0
M  V30 2003 O 201.161 -1.06995 1.62067 0
M  V30 2004 C 198.291 -1.55274 3.10656 0
M  V30 2005 C 197.245 -1.04855 4.14957 0
M  V30 2006 C 196.571 -2.26543 4.84337 0
M  V30 2007 C 197.871 -0.112324 5.22179 0
M  V30 2008 H 199.565 0.213867 2.98635 0
M  V30 2009 H 197.111 0.104298 1.43622 0
M  V30 2010 H 199.064 -2.1358 3.63265 0
M  V30 2011 H 197.788 -2.22266 2.39302 0
M  V30 2012 H 196.447 -0.487985 3.63338 0
M  V30 2013 H 196.095 -2.92059 4.09525 0
M  V30 2014 H 195.795 -1.93466 5.54837 0
M  V30 2015 H 197.319 -2.85481 5.39753 0
M  V30 2016 H 198.733 -0.603752 5.70112 0
M  V30 2017 H 197.13 0.128968 5.99961 0
M  V30 2018 H 198.2 0.837052 4.77621 0
M  V30 2019 N 199.544 -1.57102 0.125237 0
M  V30 2020 C 200.507 -2.14471 -0.80838 0
M  V30 2021 C 201.507 -1.0811 -1.19033 0
M  V30 2022 O 202.697 -1.33856 -1.11482 0
M  V30 2023 C 199.829 -2.69005 -2.09402 0
M  V30 2024 H 201.022 -2.98297 -0.309696 0
M  V30 2025 H 198.575 -1.55807 -0.124051 0
M  V30 2026 H 199.31 -1.88785 -2.63687 0
M  V30 2027 H 199.095 -3.46799 -1.82957 0
M  V30 2028 H 200.585 -3.13278 -2.76128 0
M  V30 2029 N 201.022 0.148545 -1.56898 0
M  V30 2030 C 202.25 0.876389 -1.87422 0
M  V30 2031 C 202.665 1.74809 -0.713256 0
M  V30 2032 O 202.022 1.79725 0.317025 0
M  V30 2033 C 202.073 1.73438 -3.17178 0
M  V30 2034 O 201.794 0.897809 -4.28802 0
M  V30 2035 C 203.295 2.56993 -3.61205 0
M  V30 2036 H 200.515 0.253489 -0.621277 0
M  V30 2037 H 203.059 0.141798 -2.04008 0
M  V30 2038 H 201.214 2.42205 -3.0235 0
M  V30 2039 H 201.628 1.48672 -5.02988 0
M  V30 2040 H 203.102 3.12773 -4.54838 0
M  V30 2041 H 203.579 3.32958 -2.86419 0
M  V30 2042 H 204.185 1.9352 -3.78722 0
M  V30 2043 N 202.5 1.5196 0.417844 0
M  V30 2044 C 203.43 1.77634 1.51554 0
M  V30 2045 C 204.411 0.626918 1.58126 0
M  V30 2046 O 205.596 0.871632 1.7354 0
M  V30 2047 C 202.726 1.91911 2.8946 0
M  V30 2048 C 201.68 3.07463 2.97743 0
M  V30 2049 C 201.006 3.06951 4.37819 0
M  V30 2050 C 202.306 4.47082 2.70027 0
M  V30 2051 H 204 2.6955 1.3032 0
M  V30 2052 H 201.546 1.29706 0.625492 0
M  V30 2053 H 203.499 2.08455 3.6623 0
M  V30 2054 H 202.223 0.966598 3.11969 0
M  V30 2055 H 200.882 2.90656 2.23416 0
M  V30 2056 H 200.53 2.09438 4.57323 0
M  V30 2057 H 200.23 3.84556 4.44286 0
M  V30 2058 H 201.754 3.25613 5.16535 0
M  V30 2059 H 203.168 4.6414 3.36522 0
M  V30 2060 H 201.565 5.2654 2.87881 0
M  V30 2061 H 202.635 4.55777 1.65514 0
M  V30 2062 N 203.978 -0.674533 1.42435 0
M  V30 2063 C 204.925 -1.78807 1.45934 0
M  V30 2064 C 205.895 -1.63157 0.311271 0
M  V30 2065 O 207.08 -1.83707 0.515383 0
M  V30 2066 C 204.22 -3.16839 1.36773 0
M  V30 2067 C 203.333 -3.43774 2.61617 0
M  V30 2068 C 202.468 -4.71536 2.44597 0
M  V30 2069 C 201.507 -4.91505 3.64814 0
M  V30 2070 N 200.644 -6.10508 3.46734 0
M  V30 2071 H 205.484 -1.75151 2.41093 0
M  V30 2072 H 203.021 -0.85504 1.19697 0
M  V30 2073 H 204.979 -3.96606 1.29459 0
M  V30 2074 H 203.609 -3.19619 0.452089 0
M  V30 2075 H 202.661 -2.58259 2.79297 0
M  V30 2076 H 203.973 -3.54423 3.50978 0
M  V30 2077 H 203.127 -5.59393 2.3487 0
M  V30 2078 H 201.866 -4.6317 1.52726 0
M  V30 2079 H 200.871 -4.0209 3.74972 0
M  V30 2080 H 202.096 -5.01716 4.57665 0
M  V30 2081 H 200.042 -6.03315 2.5758 0
M  V30 2082 H 199.959 -6.2202 4.29682 0
M  V30 2083 H 201.227 -7.01044 3.40819 0
M  V30 2084 O 205.495 -1.39304 -0.817113 0
M  V30 2085 H 206.186 -1.27185 -1.46095 0
M  V30 END ATOM
M  V30 BEGIN BOND
M  V30 END BOND
M  V30 END CTAB
M  END
$$$$
