drugbank_target|O75015 Low affinity immunoglobulin gamma Fc region receptor III-B (DB00002; DB00005; DB00028; DB00056; DB00075; DB00087; DB00092; DB00108; DB00110; DB00111; DB06607; DB11767)
 OpenBabel12092119423D

  0  0  0     0  0            999 V3000
M  V30 BEGIN CTAB
M  V30 COUNTS 3669 3718 0 0 0
M  V30 BEGIN ATOM
M  V30 1 H -0.908 1.98254 -0.117106 0
M  V30 2 N 0 1.576 0 0
M  V30 3 C 0.933 2.03868 1.02534 0
M  V30 4 C 1.911 0.928543 1.3348 0
M  V30 5 O 3.095 1.19667 1.45644 0
M  V30 6 C 0.222 2.43627 2.35294 0
M  V30 7 C -0.732 3.65373 2.2001 0
M  V30 8 S 0.101 5.13292 1.52614 0
M  V30 9 C 1.257 5.56322 2.86805 0
M  V30 10 H 1.49 2.90518 0.631377 0
M  V30 11 H -0.977 1.52953 0.210867 0
M  V30 12 H 0.981 2.67203 3.11629 0
M  V30 13 H -0.358 1.57376 2.7183 0
M  V30 14 H -1.165 3.90944 3.18086 0
M  V30 15 H -1.563 3.418 1.51819 0
M  V30 16 H 0.729 5.58782 3.83104 0
M  V30 17 H 1.672 6.56266 2.65933 0
M  V30 18 H 2.08 4.83886 2.90714 0
M  V30 19 N 1.4781 -0.272755 1.55222 0
M  V30 20 C 2.7241 -1.00172 1.77023 0
M  V30 21 C 3.0791 -1.83928 0.564633 0
M  V30 22 O 2.3721 -1.86416 -0.442674 0
M  V30 23 C 2.5661 -1.91642 3.01675 0
M  V30 24 C 2.3951 -1.16888 4.34243 0
M  V30 25 C 1.1651 -0.884464 4.97499 0
M  V30 26 C 3.3631 -0.55919 5.11251 0
M  V30 27 N 1.3451 -0.11015 6.13801 0
M  V30 28 C 2.7161 0.0809469 6.19947 0
M  V30 29 C 4.7711 -0.467058 4.95705 0
M  V30 30 C 3.4741 0.804335 7.14789 0
M  V30 31 C 5.5001 0.242739 5.90902 0
M  V30 32 C 4.8621 0.871613 6.98987 0
M  V30 33 H 0.9611 -0.348529 0.700037 0
M  V30 34 H 3.5451 -0.277365 1.92714 0
M  V30 35 H 1.7161 -2.61303 2.87359 0
M  V30 36 H 3.4481 -2.57901 3.1188 0
M  V30 37 H 0.2031 -1.18979 4.58411 0
M  V30 38 H 0.6271 0.264344 6.76484 0
M  V30 39 H 5.2691 -0.93894 4.12242 0
M  V30 40 H 2.9871 1.2879 7.97771 0
M  V30 41 H 6.5731 0.314347 5.8095 0
M  V30 42 H 5.4531 1.4121 7.71381 0
M  V30 43 N 2.9562 -1.48159 -0.537278 0
M  V30 44 C 3.8882 -1.58218 -1.65831 0
M  V30 45 C 4.9012 -0.466948 -1.5596 0
M  V30 46 O 6.0902 -0.73747 -1.62553 0
M  V30 47 C 3.1902 -1.48906 -3.04434 0
M  V30 48 C 2.3632 -2.75343 -3.3986 0
M  V30 49 C 1.4222 -2.59588 -4.57712 0
M  V30 50 O 0.4482 -3.33457 -4.61297 0
M  V30 51 N 1.6502 -1.68724 -5.55439 0
M  V30 52 H 4.4152 -2.54891 -1.57641 0
M  V30 53 H 1.9762 -1.4479 -0.724386 0
M  V30 54 H 3.9682 -1.36072 -3.81139 0
M  V30 55 H 2.5382 -0.602368 -3.06741 0
M  V30 56 H 1.7582 -3.02795 -2.52406 0
M  V30 57 H 3.0462 -3.5924 -3.60311 0
M  V30 58 H 2.4442 -1.07898 -5.55315 0
M  V30 59 H 1.0012 -1.61832 -6.3139 0
M  V30 60 N 4.4343 0.785586 -1.36625 0
M  V30 61 C 5.3643 1.91259 -1.33949 0
M  V30 62 C 6.3453 1.68795 -0.210325 0
M  V30 63 O 7.5303 1.89854 -0.408561 0
M  V30 64 C 4.6603 3.28339 -1.13186 0
M  V30 65 C 3.6143 3.65335 -2.22967 0
M  V30 66 C 2.9403 5.00806 -1.87342 0
M  V30 67 C 4.2403 3.7352 -3.65075 0
M  V30 68 H 5.9343 1.93755 -2.28253 0
M  V30 69 H 3.4803 0.930788 -1.09874 0
M  V30 70 H 5.4333 4.06804 -1.09948 0
M  V30 71 H 4.1573 3.2624 -0.153332 0
M  V30 72 H 2.8163 2.89169 -2.25337 0
M  V30 73 H 2.4643 4.95233 -0.880545 0
M  V30 74 H 2.1643 5.26529 -2.60846 0
M  V30 75 H 3.6883 5.81687 -1.85667 0
M  V30 76 H 5.1023 4.42168 -3.64911 0
M  V30 77 H 3.4993 4.10731 -4.37516 0
M  V30 78 H 4.5693 2.74527 -3.99703 0
M  V30 79 N 5.9124 1.20967 1.01018 0
M  V30 80 C 6.8424 0.988272 2.11555 0
M  V30 81 C 7.8234 -0.0849778 1.69888 0
M  V30 82 O 9.0084 0.0738202 1.9406 0
M  V30 83 C 6.1384 0.546528 3.42973 0
M  V30 84 C 5.0924 1.56375 3.9841 0
M  V30 85 C 4.4184 0.97842 5.25672 0
M  V30 86 C 5.7184 2.94922 4.31066 0
M  V30 87 H 7.4124 1.91276 2.30334 0
M  V30 88 H 4.9584 0.921073 1.1069 0
M  V30 89 H 6.9114 0.378839 4.19694 0
M  V30 90 H 5.6354 -0.413598 3.23971 0
M  V30 91 H 4.2944 1.71891 3.23804 0
M  V30 92 H 3.9424 0.0101688 5.02999 0
M  V30 93 H 3.6424 1.65784 5.63728 0
M  V30 94 H 5.1664 0.821939 6.05043 0
M  V30 95 H 6.5804 2.8288 4.9865 0
M  V30 96 H 4.9774 3.5983 4.80253 0
M  V30 97 H 6.0474 3.4616 3.39561 0
M  V30 98 N 7.3905 -1.2043 1.01659 0
M  V30 99 C 8.3205 -2.25466 0.607226 0
M  V30 100 C 9.3015 -1.65853 -0.377716 0
M  V30 101 O 10.4865 -1.92409 -0.263149 0
M  V30 102 C 7.6165 -3.47256 -0.0552949 0
M  V30 103 C 6.5705 -4.19462 0.850632 0
M  V30 104 C 5.8965 -5.34673 0.0538859 0
M  V30 105 C 7.1965 -4.75603 2.15868 0
M  V30 106 H 8.8905 -2.59962 1.48526 0
M  V30 107 H 6.4365 -1.2496 0.715605 0
M  V30 108 H 8.3895 -4.19917 -0.353233 0
M  V30 109 H 7.1135 -3.11924 -0.968045 0
M  V30 110 H 5.7725 -3.48667 1.13257 0
M  V30 111 H 5.4205 -4.95585 -0.860514 0
M  V30 112 H 5.1205 -5.83913 0.657192 0
M  V30 113 H 6.6445 -6.10138 -0.237598 0
M  V30 114 H 8.0585 -5.40083 1.92311 0
M  V30 115 H 6.4555 -5.3528 2.71284 0
M  V30 116 H 7.5255 -3.94346 2.82169 0
M  V30 117 N 8.8686 -0.792821 -1.36206 0
M  V30 118 C 10.2796 -0.429513 -1.81692 0
M  V30 119 C 10.6306 1.04695 -1.65932 0
M  V30 120 O 9.7556 1.81256 -1.18218 0
M  V30 121 C 10.3506 -0.772831 -3.29868 0
M  V30 122 C 8.9096 -0.462307 -3.7355 0
M  V30 123 C 8.0566 -1.00569 -2.5842 0
M  V30 124 H 11.0076 -0.985672 -1.24379 0
M  V30 125 H 11.0286 -0.0651928 -3.80444 0
M  V30 126 H 10.5406 -1.84747 -3.41307 0
M  V30 127 H 8.6416 0.604158 -3.67669 0
M  V30 128 H 8.7546 -0.985299 -4.68859 0
M  V30 129 H 7.1186 -0.428734 -2.51066 0
M  V30 130 H 7.9016 -2.08616 -2.72643 0
M  V30 131 N 10.3467 1.47872 -0.545128 0
M  V30 132 C 11.5747 2.06889 -0.021084 0
M  V30 133 C 11.9897 1.39955 1.2672 0
M  V30 134 O 11.3467 0.492036 1.75742 0
M  V30 135 C 11.3977 3.60996 0.190817 0
M  V30 136 O 11.1187 4.25419 -1.04644 0
M  V30 137 C 12.6197 4.36849 0.753521 0
M  V30 138 H 9.8397 0.669785 -0.0403635 0
M  V30 139 H 12.3837 1.90049 -0.755095 0
M  V30 140 H 10.5387 3.77391 0.87492 0
M  V30 141 H 10.9527 5.17785 -0.836611 0
M  V30 142 H 12.4267 5.45399 0.851139 0
M  V30 143 H 12.9037 4.02306 1.762 0
M  V30 144 H 13.5097 4.25169 0.105503 0
M  V30 145 N 11.8248 0.280983 1.55075 0
M  V30 146 C 12.7878 -0.590896 2.21452 0
M  V30 147 C 13.7878 -1.07682 1.19421 0
M  V30 148 O 14.9778 -0.97605 1.44288 0
M  V30 149 C 12.1098 -1.81587 2.88511 0
M  V30 150 H 13.3028 -0.0112554 2.99898 0
M  V30 151 H 10.8558 0.0316438 1.56268 0
M  V30 152 H 11.5908 -2.43587 2.14093 0
M  V30 153 H 11.3758 -1.4753 3.63287 0
M  V30 154 H 12.8658 -2.43575 3.39206 0
M  V30 155 N 13.3029 -1.57598 0.00835791 0
M  V30 156 C 14.2329 -2.1198 -0.979113 0
M  V30 157 C 15.2139 -1.03091 -1.35301 0
M  V30 158 O 16.3989 -1.30818 -1.43528 0
M  V30 159 C 13.5289 -2.62995 -2.26828 0
M  V30 160 C 12.4829 -3.76485 -2.03576 0
M  V30 161 C 11.8089 -4.13846 -3.38579 0
M  V30 162 C 13.1089 -5.0342 -1.39161 0
M  V30 163 H 14.8029 -2.94738 -0.526281 0
M  V30 164 H 12.3489 -1.41783 -0.251704 0
M  V30 165 H 14.3019 -2.99669 -2.96271 0
M  V30 166 H 13.0259 -1.7737 -2.7424 0
M  V30 167 H 11.6849 -3.40217 -1.36557 0
M  V30 168 H 11.3329 -3.25232 -3.83709 0
M  V30 169 H 11.0329 -4.90312 -3.23834 0
M  V30 170 H 12.5569 -4.53086 -4.09323 0
M  V30 171 H 13.9709 -5.37812 -1.98573 0
M  V30 172 H 12.3679 -5.84746 -1.34878 0
M  V30 173 H 13.4379 -4.83548 -0.361868 0
M  V30 174 N 14.781 0.264519 -1.55364 0
M  V30 175 C 15.711 1.33121 -1.91836 0
M  V30 176 C 16.692 1.51101 -0.781192 0
M  V30 177 O 17.877 1.64003 -1.04003 0
M  V30 178 C 15.007 2.68921 -2.19769 0
M  V30 179 C 13.961 2.65661 -3.35571 0
M  V30 180 C 13.287 4.05093 -3.49004 0
M  V30 181 C 14.587 2.24187 -4.71739 0
M  V30 182 H 16.281 1.02844 -2.81182 0
M  V30 183 H 13.827 0.493286 -1.35287 0
M  V30 184 H 15.78 3.43663 -2.43872 0
M  V30 185 H 14.504 3.00799 -1.27231 0
M  V30 186 H 13.163 1.93377 -3.1145 0
M  V30 187 H 12.811 4.34206 -2.53917 0
M  V30 188 H 12.511 4.03804 -4.26868 0
M  V30 189 H 14.035 4.81561 -3.75408 0
M  V30 190 H 15.449 2.88654 -4.9533 0
M  V30 191 H 13.846 2.34044 -5.52579 0
M  V30 192 H 14.916 1.19327 -4.69988 0
M  V30 193 N 16.2591 1.48442 0.529413 0
M  V30 194 C 17.1891 1.65902 1.64313 0
M  V30 195 C 18.1701 0.507897 1.6234 0
M  V30 196 O 19.3551 0.740503 1.79528 0
M  V30 197 C 16.4851 1.69911 3.02898 0
M  V30 198 C 15.4391 2.8453 3.19729 0
M  V30 199 C 14.7651 2.73629 4.59381 0
M  V30 200 C 16.0651 4.25821 3.02447 0
M  V30 201 H 17.7591 2.5914 1.49955 0
M  V30 202 H 15.3051 1.24709 0.719982 0
M  V30 203 H 17.2581 1.80715 3.80684 0
M  V30 204 H 15.9821 0.732524 3.18279 0
M  V30 205 H 14.6411 2.73283 2.44361 0
M  V30 206 H 14.2891 1.74938 4.71599 0
M  V30 207 H 13.9891 3.50541 4.71588 0
M  V30 208 H 15.5131 2.86401 5.39265 0
M  V30 209 H 16.9271 4.37898 3.70024 0
M  V30 210 H 15.3241 5.03735 3.26146 0
M  V30 211 H 16.3941 4.42244 1.98867 0
M  V30 212 N 17.7372 -0.778329 1.37039 0
M  V30 213 C 18.6672 -1.90546 1.34962 0
M  V30 214 C 19.6482 -1.68681 0.219274 0
M  V30 215 O 20.8332 -1.89634 0.418624 0
M  V30 216 C 17.9632 -3.27734 1.14925 0
M  V30 217 C 16.9172 -3.64147 2.24902 0
M  V30 218 C 16.2432 -4.99806 1.89996 0
M  V30 219 C 17.5432 -3.71579 3.67051 0
M  V30 220 H 19.2372 -1.92541 2.29277 0
M  V30 221 H 16.7832 -0.924948 1.10366 0
M  V30 222 H 18.7362 -4.06215 1.12104 0
M  V30 223 H 17.4602 -3.26154 0.170631 0
M  V30 224 H 16.1192 -2.8797 2.26868 0
M  V30 225 H 15.7672 -4.94759 0.906796 0
M  V30 226 H 15.4672 -5.25139 2.63634 0
M  V30 227 H 16.9912 -5.80694 1.88749 0
M  V30 228 H 18.4052 -4.40227 3.67251 0
M  V30 229 H 16.8022 -4.08405 4.39688 0
M  V30 230 H 17.8722 -2.72404 4.01154 0
M  V30 231 N 19.2153 -1.21501 -1.00376 0
M  V30 232 C 20.4613 -1.03452 -1.74429 0
M  V30 233 C 20.7943 0.430764 -1.89362 0
M  V30 234 O 20.0693 1.31962 -1.42886 0
M  V30 235 C 20.3523 -1.73375 -3.15615 0
M  V30 236 C 20.2053 -3.27431 -3.08397 0
M  V30 237 C 21.5243 -1.47732 -4.14564 0
M  V30 238 H 18.6433 -0.377226 -0.633143 0
M  V30 239 H 21.2853 -1.49693 -1.17013 0
M  V30 240 H 19.4353 -1.34064 -3.64636 0
M  V30 241 H 21.1073 -3.76119 -2.67081 0
M  V30 242 H 19.3503 -3.5767 -2.45468 0
M  V30 243 H 20.0213 -3.71524 -4.08258 0
M  V30 244 H 22.4973 -1.8186 -3.74254 0
M  V30 245 H 21.3733 -1.99169 -5.11491 0
M  V30 246 H 21.6343 -0.407589 -4.40217 0
M  V30 247 N 20.6934 1.19889 -1.02296 0
M  V30 248 C 21.9184 1.9393 -0.735237 0
M  V30 249 C 22.3434 1.74639 0.698782 0
M  V30 250 O 21.7014 1.04481 1.48167 0
M  V30 251 C 21.7494 3.43916 -1.08417 0
M  V30 252 O 20.8534 4.11917 -0.199446 0
M  V30 253 H 20.1944 0.605645 -0.272196 0
M  V30 254 H 22.7244 1.52137 -1.36804 0
M  V30 255 H 22.7344 3.9456 -1.03856 0
M  V30 256 H 21.4094 3.5728 -2.12894 0
M  V30 257 H 19.9864 3.71666 -0.303136 0
M  V30 258 N 22.1715 0.800033 1.35784 0
M  V30 259 C 23.1345 0.211565 2.28221 0
M  V30 260 C 24.1345 -0.59728 1.49296 0
M  V30 261 O 25.3245 -0.416721 1.69142 0
M  V30 262 C 22.4565 -0.705846 3.33513 0
M  V30 263 H 23.6495 1.02677 2.81776 0
M  V30 264 H 21.2025 0.570211 1.45528 0
M  V30 265 H 21.9375 -1.54498 2.85133 0
M  V30 266 H 21.7225 -0.127655 3.91892 0
M  V30 267 H 23.2125 -1.11211 4.02519 0
M  V30 268 N 23.6496 -1.47581 0.552962 0
M  V30 269 C 24.8976 -2.02082 0.0272703 0
M  V30 270 C 25.2186 -1.4301 -1.32563 0
M  V30 271 O 24.4886 -0.603745 -1.86365 0
M  V30 272 H 23.0686 -0.746966 0.00709182 0
M  V30 273 H 25.7306 -1.81033 0.722008 0
M  V30 274 H 24.8266 -3.12034 -0.0639951 0
M  V30 275 N 25.1277 -0.289203 -1.54924 0
M  V30 276 C 26.0607 0.633823 -2.19221 0
M  V30 277 C 27.0387 1.14174 -1.15772 0
M  V30 278 O 28.2227 1.21211 -1.44361 0
M  V30 279 C 25.3497 1.86592 -2.82668 0
M  V30 280 C 24.3957 1.49227 -3.99542 0
M  V30 281 S 25.2287 0.558312 -5.32582 0
M  V30 282 C 26.3847 1.79847 -5.99505 0
M  V30 283 H 26.6177 0.0875416 -2.97171 0
M  V30 284 H 24.1507 -0.0733899 -1.54225 0
M  V30 285 H 26.1087 2.57305 -3.19851 0
M  V30 286 H 24.7697 2.38335 -2.04585 0
M  V30 287 H 23.9627 2.40945 -4.42676 0
M  V30 288 H 23.5647 0.865193 -3.63855 0
M  V30 289 H 25.8567 2.7406 -6.19595 0
M  V30 290 H 26.7997 1.4099 -6.93922 0
M  V30 291 H 27.2077 1.96982 -5.29016 0
M  V30 292 N 26.6058 1.57591 -0.0167156 0
M  V30 293 C 28.0218 1.55946 0.339557 0
M  V30 294 C 28.2218 1.02109 1.73713 0
M  V30 295 O 27.2778 0.662303 2.43659 0
M  V30 296 C 28.5908 3.00037 0.199499 0
M  V30 297 C 30.1388 3.11805 0.273193 0
M  V30 298 C 30.6138 4.57713 0.162068 0
M  V30 299 N 32.1048 4.6268 0.219444 0
M  V30 300 C 32.8398 5.73185 0.157054 0
M  V30 301 N 32.3358 6.92786 0.0442936 0
M  V30 302 N 34.1288 5.61707 0.21014 0
M  V30 303 H 26.2798 1.90921 -0.930758 0
M  V30 304 H 28.5428 0.877674 -0.358319 0
M  V30 305 H 28.2488 3.4333 -0.76273 0
M  V30 306 H 28.1228 3.64387 0.974786 0
M  V30 307 H 30.5098 2.68433 1.22587 0
M  V30 308 H 30.5908 2.50201 -0.532256 0
M  V30 309 H 30.2348 5.01763 -0.78714 0
M  V30 310 H 30.1648 5.17283 0.986222 0
M  V30 311 H 32.6558 3.76649 0.307246 0
M  V30 312 H 32.9688 7.728 0.00304069 0
M  V30 313 H 31.3138 6.94999 0.00968457 0
M  V30 314 H 34.5048 4.6716 0.296546 0
M  V30 315 H 34.6778 6.47807 0.158054 0
M  V30 316 N 28.0839 -0.256276 1.55502 0
M  V30 317 C 29.3119 -1.00342 1.8094 0
M  V30 318 C 29.7269 -1.79307 0.59114 0
M  V30 319 O 29.0839 -1.77114 -0.440081 0
M  V30 320 C 29.1349 -1.94875 3.04476 0
M  V30 321 O 28.8559 -1.19107 4.21598 0
M  V30 322 C 30.3569 -2.81266 3.42644 0
M  V30 323 H 27.5769 -0.295685 0.602338 0
M  V30 324 H 30.1209 -0.281998 2.02546 0
M  V30 325 H 28.2759 -2.62457 2.84947 0
M  V30 326 H 28.6899 -1.82969 4.91551 0
M  V30 327 H 30.1639 -3.43362 4.32211 0
M  V30 328 H 30.6409 -3.51897 2.62802 0
M  V30 329 H 31.2469 -2.1915 3.64491 0
M  V30 330 N 29.562 -1.4872 -0.521534 0
M  V30 331 C 30.472 -1.66569 -1.65203 0
M  V30 332 C 31.488 -0.548197 -1.65139 0
M  V30 333 O 32.664 -0.820339 -1.83936 0
M  V30 334 C 29.729 -1.70917 -3.01642 0
M  V30 335 C 28.79 -2.94356 -3.12495 0
M  V30 336 C 28.023 -2.98487 -4.42426 0
M  V30 337 O 28.246 -2.10786 -5.30024 0
M  V30 338 O 27.18 -3.90746 -4.57822 0
M  V30 339 H 31.006 -2.62298 -1.5308 0
M  V30 340 H 28.591 -1.3222 -0.695565 0
M  V30 341 H 30.473 -1.7625 -3.82771 0
M  V30 342 H 29.148 -0.783633 -3.14071 0
M  V30 343 H 28.055 -2.94552 -2.3063 0
M  V30 344 H 29.388 -3.86322 -3.04986 0
M  V30 345 N 31.0401 0.771051 -1.3745 0
M  V30 346 C 32.3171 1.519 -1.23231 0
M  V30 347 C 32.6971 2.10383 0.173809 0
M  V30 348 O 32.0451 1.95583 1.18151 0
M  V30 349 C 32.2551 2.59933 -2.32886 0
M  V30 350 C 33.6031 3.27316 -2.70461 0
M  V30 351 O 34.6271 2.70228 -2.32068 0
M  V30 352 O 33.4861 4.30531 -3.36608 0
M  V30 353 H 30.5801 0.672803 -0.480901 0
M  V30 354 H 33.1261 0.807957 -1.49232 0
M  V30 355 H 31.8981 2.14842 -3.27045 0
M  V30 356 H 31.5211 3.38637 -2.08353 0
M  V30 357 N 32.5182 1.22032 0.997298 0
M  V30 358 C 33.4482 1.01065 2.10495 0
M  V30 359 C 34.4292 -0.0669542 1.69968 0
M  V30 360 O 35.6142 0.0943987 1.9397 0
M  V30 361 C 32.7442 0.582874 3.42374 0
M  V30 362 C 31.6982 1.60592 3.96729 0
M  V30 363 C 31.0242 1.03412 5.24605 0
M  V30 364 C 32.3242 2.99478 4.27914 0
M  V30 365 H 34.0182 1.93708 2.28292 0
M  V30 366 H 31.5642 0.932761 1.09707 0
M  V30 367 H 33.5172 0.423332 4.19268 0
M  V30 368 H 32.2412 -0.379213 3.24391 0
M  V30 369 H 30.9002 1.75316 3.21963 0
M  V30 370 H 30.5482 0.063518 5.0296 0
M  V30 371 H 30.2482 1.71754 5.61938 0
M  V30 372 H 31.7722 0.886066 6.04137 0
M  V30 373 H 33.1862 2.88153 4.95622 0
M  V30 374 H 31.5832 3.64903 4.76409 0
M  V30 375 H 32.6532 3.49742 3.3587 0
M  V30 376 N 33.9963 -1.19345 1.0293 0
M  V30 377 C 35.4073 -1.70725 0.755633 0
M  V30 378 C 35.7583 -1.82326 -0.724676 0
M  V30 379 O 34.8833 -1.49471 -1.56484 0
M  V30 380 C 35.4783 -3.10084 1.36503 0
M  V30 381 C 34.0373 -3.58723 1.13994 0
M  V30 382 C 33.1843 -2.35577 1.46283 0
M  V30 383 H 36.1353 -1.0418 1.19718 0
M  V30 384 H 36.1563 -3.72787 0.762217 0
M  V30 385 H 35.6683 -3.01609 2.44241 0
M  V30 386 H 33.7693 -3.72512 0.0807901 0
M  V30 387 H 33.8823 -4.42816 1.82894 0
M  V30 388 H 32.2463 -2.38935 0.88217 0
M  V30 389 H 33.0293 -2.29731 2.55105 0
M  V30 390 N 35.4744 -0.807222 -1.35358 0
M  V30 391 C 36.4214 -0.216037 -2.29787 0
M  V30 392 C 37.3914 0.650278 -1.52842 0
M  V30 393 O 38.5764 0.595227 -1.81278 0
M  V30 394 C 35.7164 0.628893 -3.39321 0
M  V30 395 C 34.8294 -0.257927 -4.31229 0
M  V30 396 C 33.9644 0.595069 -5.27856 0
M  V30 397 C 33.0034 -0.292111 -6.11403 0
M  V30 398 N 32.1404 0.520895 -7.00165 0
M  V30 399 H 36.9804 -1.02671 -2.79755 0
M  V30 400 H 34.5174 -0.517839 -1.37684 0
M  V30 401 H 36.4754 1.13393 -4.01494 0
M  V30 402 H 35.1054 1.40482 -2.90628 0
M  V30 403 H 34.1574 -0.881076 -3.70056 0
M  V30 404 H 35.4694 -0.940759 -4.89848 0
M  V30 405 H 34.6234 1.16522 -5.95405 0
M  V30 406 H 33.3624 1.31146 -4.69736 0
M  V30 407 H 32.3674 -0.874525 -5.428 0
M  V30 408 H 33.5924 -1.00638 -6.71602 0
M  V30 409 H 31.5384 1.22125 -6.44532 0
M  V30 410 H 31.4554 -0.103877 -7.55929 0
M  V30 411 H 32.7234 1.0743 -7.72062 0
M  V30 412 N 36.9525 1.47285 -0.560781 0
M  V30 413 C 37.9155 2.28535 0.174488 0
M  V30 414 C 38.9155 1.37153 0.839388 0
M  V30 415 O 40.1055 1.59748 0.694702 0
M  V30 416 C 37.2375 3.16934 1.25561 0
M  V30 417 H 38.4305 2.95012 -0.539262 0
M  V30 418 H 35.9835 1.53034 -0.317865 0
M  V30 419 H 36.7185 2.55157 2.00164 0
M  V30 420 H 36.5035 3.8419 0.783604 0
M  V30 421 H 37.9935 3.78143 1.77193 0
M  V30 422 N 38.4306 0.297415 1.54768 0
M  V30 423 C 39.6766 -0.313376 2.00364 0
M  V30 424 C 40.0096 -1.53815 1.18553 0
M  V30 425 O 39.2846 -1.92739 0.261103 0
M  V30 426 C 39.5676 -0.673525 3.53745 0
M  V30 427 C 39.4206 0.560133 4.46299 0
M  V30 428 C 40.7396 -1.50143 4.13697 0
M  V30 429 H 37.8586 -0.112428 0.728374 0
M  V30 430 H 40.5006 0.4088 1.8555 0
M  V30 431 H 38.6506 -1.28881 3.665 0
M  V30 432 H 40.3226 1.19863 4.45455 0
M  V30 433 H 38.5656 1.19405 4.17043 0
M  V30 434 H 39.2366 0.26405 5.51368 0
M  V30 435 H 41.7126 -0.981588 4.04356 0
M  V30 436 H 40.5886 -1.72221 5.21182 0
M  V30 437 H 40.8496 -2.48952 3.65343 0
M  V30 438 N 39.9087 -1.5758 0.0250728 0
M  V30 439 C 41.1547 -1.91917 -0.655413 0
M  V30 440 C 41.4877 -0.901433 -1.72011 0
M  V30 441 O 40.7627 0.0764069 -1.9435 0
M  V30 442 C 41.0457 -3.36751 -1.27558 0
M  V30 443 C 40.8987 -4.49258 -0.220719 0
M  V30 444 C 42.2177 -3.81469 -2.19475 0
M  V30 445 H 39.3367 -0.697925 -0.23679 0
M  V30 446 H 41.9787 -1.89825 0.0815036 0
M  V30 447 H 40.1287 -3.38664 -1.90365 0
M  V30 448 H 41.8007 -4.59478 0.409601 0
M  V30 449 H 40.0437 -4.31415 0.454264 0
M  V30 450 H 40.7147 -5.47618 -0.694175 0
M  V30 451 H 43.1907 -3.81266 -1.66659 0
M  V30 452 H 42.0667 -4.83512 -2.59822 0
M  V30 453 H 42.3277 -3.16744 -3.08424 0
M  V30 454 N 41.3868 0.248026 -1.55636 0
M  V30 455 C 42.6338 0.976224 -1.77415 0
M  V30 456 C 42.9618 1.85361 -0.589193 0
M  V30 457 O 42.2168 1.90973 0.427529 0
M  V30 458 C 42.5158 1.86819 -3.04686 0
M  V30 459 C 42.1818 1.14625 -4.36087 0
M  V30 460 C 40.8438 0.946723 -4.71795 0
M  V30 461 C 43.1958 0.634463 -5.17324 0
M  V30 462 C 40.5238 0.223091 -5.86276 0
M  V30 463 C 42.8758 -0.0756959 -6.32555 0
M  V30 464 C 41.5398 -0.286711 -6.66884 0
M  V30 465 H 40.8098 0.357226 -0.649208 0
M  V30 466 H 43.4568 0.246415 -1.89908 0
M  V30 467 H 41.7618 2.66502 -2.872 0
M  V30 468 H 43.4588 2.43329 -3.18735 0
M  V30 469 H 40.0488 1.3117 -4.08035 0
M  V30 470 H 44.2328 0.77616 -4.90193 0
M  V30 471 H 39.4888 0.0491185 -6.1138 0
M  V30 472 H 43.6628 -0.479899 -6.94745 0
M  V30 473 H 41.2898 -0.849389 -7.5544 0
M  V30 474 N 42.8649 1.48995 0.513639 0
M  V30 475 C 43.7949 1.67636 1.62544 0
M  V30 476 C 44.7759 0.525087 1.61793 0
M  V30 477 O 45.9609 0.759502 1.78732 0
M  V30 478 C 43.0909 1.73114 3.01079 0
M  V30 479 C 42.0449 2.87905 3.16693 0
M  V30 480 C 41.3709 2.78486 4.56453 0
M  V30 481 C 42.6709 4.29005 2.97913 0
M  V30 482 H 44.3649 2.60716 1.47198 0
M  V30 483 H 41.9109 1.25465 0.706714 0
M  V30 484 H 43.8639 1.84742 3.78746 0
M  V30 485 H 42.5879 0.766241 3.17484 0
M  V30 486 H 41.2469 2.75859 2.41448 0
M  V30 487 H 40.8949 1.7993 4.69717 0
M  V30 488 H 40.5949 3.55523 4.67843 0
M  V30 489 H 42.1189 2.92104 5.36197 0
M  V30 490 H 43.5329 4.41798 3.65359 0
M  V30 491 H 41.9299 5.07166 3.20785 0
M  V30 492 H 42.9999 4.44329 1.94165 0
M  V30 493 N 44.343 -0.763751 1.37857 0
M  V30 494 C 45.253 -1.90817 1.36478 0
M  V30 495 C 46.269 -1.71997 0.263248 0
M  V30 496 O 47.445 -1.95095 0.499979 0
M  V30 497 C 44.51 -3.2605 1.17864 0
M  V30 498 C 43.571 -3.57467 2.3773 0
M  V30 499 C 42.804 -4.86249 2.19995 0
M  V30 500 O 43.027 -5.57884 1.18836 0
M  V30 501 O 41.961 -5.16911 3.08361 0
M  V30 502 H 45.787 -1.94933 2.32884 0
M  V30 503 H 43.372 -0.907619 1.1867 0
M  V30 504 H 45.254 -4.06924 1.09504 0
M  V30 505 H 43.929 -3.22769 0.245372 0
M  V30 506 H 42.836 -2.76796 2.51664 0
M  V30 507 H 44.169 -3.655 3.29652 0
M  V30 508 N 45.8211 -1.22559 -0.990812 0
M  V30 509 C 47.2321 -1.04791 -1.54518 0
M  V30 510 C 47.5831 0.387998 -1.92325 0
M  V30 511 O 46.7081 1.27328 -1.74976 0
M  V30 512 C 47.3031 -1.896 -2.80779 0
M  V30 513 C 45.8621 -1.76124 -3.32652 0
M  V30 514 C 45.0091 -1.8594 -2.05722 0
M  V30 515 H 47.9601 -1.36374 -0.811662 0
M  V30 516 H 47.9811 -1.41464 -3.53225 0
M  V30 517 H 47.4931 -2.94101 -2.53231 0
M  V30 518 H 45.5941 -0.743643 -3.65104 0
M  V30 519 H 45.7071 -2.58913 -4.03114 0
M  V30 520 H 44.0711 -1.29403 -2.19379 0
M  V30 521 H 44.8541 -2.91976 -1.80568 0
M  V30 522 N 47.2992 1.18797 -1.03562 0
M  V30 523 C 48.2312 2.21731 -0.580337 0
M  V30 524 C 49.2442 1.59051 0.347349 0
M  V30 525 O 50.4332 1.77929 0.142669 0
M  V30 526 C 47.5332 3.38459 0.172805 0
M  V30 527 C 46.7062 4.3072 -0.761496 0
M  V30 528 C 45.7652 5.26174 -0.0525547 0
M  V30 529 O 44.7912 5.65108 -0.681333 0
M  V30 530 N 45.9932 5.67624 1.21586 0
M  V30 531 H 48.7582 2.61417 -1.46565 0
M  V30 532 H 46.3192 1.33531 -0.915476 0
M  V30 533 H 48.3112 3.99335 0.656793 0
M  V30 534 H 46.8812 2.97507 0.959602 0
M  V30 535 H 46.1012 3.67525 -1.42544 0
M  V30 536 H 47.3892 4.89267 -1.39626 0
M  V30 537 H 46.7872 5.38038 1.74732 0
M  V30 538 H 45.3442 6.30721 1.64421 0
M  V30 539 N 48.7773 0.814389 1.34928 0
M  V30 540 C 50.0233 0.408167 1.99263 0
M  V30 541 C 50.3783 -1.0154 1.63424 0
M  V30 542 O 49.6713 -1.69607 0.891289 0
M  V30 543 C 49.8653 0.537781 3.53331 0
M  V30 544 C 49.6943 1.9724 4.04137 0
M  V30 545 C 48.4643 2.60245 4.33129 0
M  V30 546 C 50.6623 2.93801 4.2212 0
M  V30 547 N 48.6443 3.95036 4.69914 0
M  V30 548 C 50.0153 4.1348 4.6199 0
M  V30 549 C 52.0703 2.9053 4.04348 0
M  V30 550 C 50.7733 5.3033 4.85945 0
M  V30 551 C 52.7993 4.06589 4.29464 0
M  V30 552 C 52.1613 5.25017 4.69613 0
M  V30 553 H 48.2603 0.197289 0.756704 0
M  V30 554 H 50.8443 1.05728 1.63492 0
M  V30 555 H 49.0153 -0.0813868 3.88315 0
M  V30 556 H 50.7473 0.105389 4.04563 0
M  V30 557 H 47.5023 2.11545 4.23728 0
M  V30 558 H 47.9263 4.64455 4.92555 0
M  V30 559 H 52.5683 2.00115 3.72443 0
M  V30 560 H 50.2863 6.21309 5.16721 0
M  V30 561 H 53.8723 4.05447 4.17257 0
M  V30 562 H 52.7523 6.1333 4.88667 0
M  V30 563 N 50.2554 -1.46986 0.568584 0
M  V30 564 C 51.4854 -2.0653 0.0539173 0
M  V30 565 C 51.8934 -1.42004 -1.25026 0
M  V30 566 O 51.2364 -0.514541 -1.76347 0
M  V30 567 C 51.2984 -3.58938 -0.200854 0
M  V30 568 C 50.9624 -4.45572 1.01559 0
M  V30 569 C 51.9594 -4.82986 1.92407 0
M  V30 570 C 49.6444 -4.8692 1.23346 0
M  V30 571 C 51.6384 -5.60559 3.03402 0
M  V30 572 C 49.3254 -5.64255 2.34649 0
M  V30 573 C 50.3234 -6.00986 3.24507 0
M  V30 574 O 50.0114 -6.76761 4.33878 0
M  V30 575 H 49.7434 -0.674292 0.0480234 0
M  V30 576 H 52.2974 -1.89812 0.784896 0
M  V30 577 H 50.5274 -3.73911 -0.986279 0
M  V30 578 H 52.2164 -4.0046 -0.662294 0
M  V30 579 H 52.9824 -4.51633 1.76785 0
M  V30 580 H 48.8614 -4.57789 0.543178 0
M  V30 581 H 52.4054 -5.89147 3.73565 0
M  V30 582 H 48.3024 -5.95021 2.5024 0
M  V30 583 H 49.0704 -6.95168 4.32068 0
M  V30 584 N 51.7335 -0.305618 -1.54608 0
M  V30 585 C 52.9585 0.307562 -2.05107 0
M  V30 586 C 53.3835 1.46385 -1.18123 0
M  V30 587 O 52.7415 1.8034 -0.186324 0
M  V30 588 C 52.7895 0.73704 -3.52987 0
M  V30 589 O 51.8935 1.84134 -3.6901 0
M  V30 590 H 51.2345 0.0589143 -0.661381 0
M  V30 591 H 53.7645 -0.448807 -1.99617 0
M  V30 592 H 53.7745 1.02459 -3.94925 0
M  V30 593 H 52.4495 -0.108773 -4.15758 0
M  V30 594 H 51.0265 1.55398 -3.38978 0
M  V30 595 N 53.2116 1.57565 -0.0334293 0
M  V30 596 C 54.4576 1.92262 0.645226 0
M  V30 597 C 54.7906 0.910543 1.71531 0
M  V30 598 O 54.0656 -0.066099 1.94388 0
M  V30 599 C 54.3486 3.37422 1.2577 0
M  V30 600 C 54.2016 4.49369 0.196891 0
M  V30 601 C 55.5206 3.82628 2.17449 0
M  V30 602 H 52.6396 0.699171 0.233085 0
M  V30 603 H 55.2816 1.89779 -0.0915694 0
M  V30 604 H 53.4316 3.39669 1.88566 0
M  V30 605 H 55.1036 4.59254 -0.433962 0
M  V30 606 H 53.3466 4.31168 -0.477137 0
M  V30 607 H 54.0176 5.47978 0.665124 0
M  V30 608 H 56.4936 3.82145 1.64634 0
M  V30 609 H 55.3696 4.84883 2.57254 0
M  V30 610 H 55.6306 3.18376 3.0674 0
M  V30 611 N 54.6897 -0.239769 1.55765 0
M  V30 612 C 55.6197 -1.30052 1.9393 0
M  V30 613 C 56.6007 -1.49839 0.805132 0
M  V30 614 O 57.7857 -1.62328 1.06599 0
M  V30 615 C 54.9157 -2.65391 2.2402 0
M  V30 616 C 53.8697 -2.60289 3.39755 0
M  V30 617 C 53.1957 -3.99489 3.55405 0
M  V30 618 C 54.4957 -2.16654 4.75246 0
M  V30 619 H 56.1897 -0.983573 2.82783 0
M  V30 620 H 53.7357 -0.471701 1.36055 0
M  V30 621 H 55.6887 -3.3974 2.49308 0
M  V30 622 H 54.4127 -2.98736 1.32 0
M  V30 623 H 53.0717 -1.88398 3.14487 0
M  V30 624 H 52.7197 -4.30112 2.60793 0
M  V30 625 H 52.4197 -3.96962 4.33238 0
M  V30 626 H 53.9437 -4.75528 3.83022 0
M  V30 627 H 55.3577 -2.80737 4.99859 0
M  V30 628 H 53.7547 -2.25223 5.56232 0
M  V30 629 H 54.8247 -1.11835 4.71827 0
M  V30 630 N 56.1678 -1.49265 -0.50573 0
M  V30 631 C 57.0778 -1.68312 -1.63427 0
M  V30 632 C 58.0938 -0.565682 -1.64548 0
M  V30 633 O 59.2698 -0.839801 -1.83055 0
M  V30 634 C 56.3348 -1.74107 -2.99813 0
M  V30 635 C 55.3958 -2.97653 -3.09356 0
M  V30 636 C 54.6288 -3.03163 -4.39236 0
M  V30 637 O 54.8518 -2.16396 -5.27758 0
M  V30 638 O 53.7858 -3.9558 -4.53652 0
M  V30 639 H 57.6118 -2.63907 -1.50289 0
M  V30 640 H 55.1968 -1.32951 -0.681502 0
M  V30 641 H 57.0788 -1.803 -3.80881 0
M  V30 642 H 55.7538 -0.816901 -3.13223 0
M  V30 643 H 54.6608 -2.96981 -2.27493 0
M  V30 644 H 55.9938 -3.89535 -3.00871 0
M  V30 645 N 57.6459 0.756429 -1.3826 0
M  V30 646 C 58.5929 1.87011 -1.35261 0
M  V30 647 C 59.5629 1.64695 -0.215616 0
M  V30 648 O 60.7479 1.864 -0.407399 0
M  V30 649 C 57.8879 3.24275 -1.18068 0
M  V30 650 C 57.0009 3.58442 -2.41129 0
M  V30 651 C 56.1359 4.84994 -2.16689 0
M  V30 652 C 55.1749 5.11939 -3.35537 0
M  V30 653 N 54.3119 6.29685 -3.10549 0
M  V30 654 H 59.1519 1.8891 -2.30472 0
M  V30 655 H 56.6889 0.923373 -1.14509 0
M  V30 656 H 58.6469 4.03479 -1.06116 0
M  V30 657 H 57.2769 3.21711 -0.264973 0
M  V30 658 H 56.3289 2.74103 -2.63764 0
M  V30 659 H 57.6409 3.74283 -3.29717 0
M  V30 660 H 56.7949 5.72135 -2.01857 0
M  V30 661 H 55.5339 4.71286 -1.25462 0
M  V30 662 H 54.5389 4.23268 -3.50891 0
M  V30 663 H 55.7639 5.27546 -4.27635 0
M  V30 664 H 53.7099 6.17306 -2.21967 0
M  V30 665 H 53.6269 6.46014 -3.92686 0
M  V30 666 H 54.8949 7.19722 -2.99367 0
M  V30 667 N 59.124 1.23083 0.984299 0
M  V30 668 C 60.401 0.9689 1.69917 0
M  V30 669 C 60.781 -0.513604 2.04757 0
M  V30 670 O 60.129 -1.48383 1.73767 0
M  V30 671 C 60.339 1.87518 2.94343 0
M  V30 672 C 61.687 2.13636 3.6694 0
M  V30 673 O 62.711 1.85036 3.04368 0
M  V30 674 O 61.57 2.62119 4.79537 0
M  V30 675 H 58.664 0.365095 0.742048 0
M  V30 676 H 61.21 1.34107 1.03987 0
M  V30 677 H 59.982 2.87756 2.65164 0
M  V30 678 H 59.605 1.50514 3.6801 0
M  V30 679 N 60.6021 -1.18246 1.0419 0
M  V30 680 C 61.8271 -1.92736 0.765996 0
M  V30 681 C 62.2521 -1.75728 -0.67091 0
M  V30 682 O 61.6101 -1.06825 -1.46486 0
M  V30 683 C 61.6581 -3.42148 1.13875 0
M  V30 684 O 60.7621 -4.11548 0.264954 0
M  V30 685 H 60.1031 -0.601238 0.281797 0
M  V30 686 H 62.6331 -1.49942 1.39207 0
M  V30 687 H 62.6431 -3.92858 1.1012 0
M  V30 688 H 61.3181 -3.53848 2.18551 0
M  V30 689 H 59.8951 -3.71137 0.362226 0
M  V30 690 N 62.0802 -0.821533 -1.34494 0
M  V30 691 C 63.3262 -0.409552 -1.98622 0
M  V30 692 C 63.6592 1.0244 -1.64984 0
M  V30 693 O 62.9342 1.71325 -0.920758 0
M  V30 694 C 63.2172 -0.610458 -3.54888 0
M  V30 695 C 63.0702 -2.09043 -3.98273 0
M  V30 696 C 64.3892 -0.0455379 -4.40076 0
M  V30 697 H 61.5082 -0.15028 -0.721516 0
M  V30 698 H 64.1502 -1.03384 -1.59411 0
M  V30 699 H 62.3002 -0.079044 -3.8842 0
M  V30 700 H 63.9722 -2.68537 -3.75081 0
M  V30 701 H 62.2152 -2.58139 -3.48635 0
M  V30 702 H 62.8862 -2.18182 -5.07051 0
M  V30 703 H 65.3622 -0.499557 -4.1309 0
M  V30 704 H 64.2382 -0.215922 -5.48475 0
M  V30 705 H 64.4992 1.04939 -4.29465 0
M  V30 706 N 63.5583 1.46682 -0.576371 0
M  V30 707 C 64.7863 2.06798 -0.0649635 0
M  V30 708 C 65.2013 1.42612 1.23723 0
M  V30 709 O 64.5583 0.529203 1.74659 0
M  V30 710 C 64.6093 3.6132 0.114202 0
M  V30 711 O 64.3303 4.23104 -1.13644 0
M  V30 712 C 65.8313 4.38349 0.66069 0
M  V30 713 H 63.0513 0.668778 -0.0545616 0
M  V30 714 H 65.5953 1.88404 -0.795237 0
M  V30 715 H 63.7503 3.79162 0.794673 0
M  V30 716 H 64.1643 5.15894 -0.946253 0
M  V30 717 H 65.6383 5.47081 0.73526 0
M  V30 718 H 66.1153 4.05953 1.67627 0
M  V30 719 H 66.7213 4.25297 0.0152951 0
M  V30 720 N 65.0364 0.313813 1.54444 0
M  V30 721 C 65.9664 -0.549454 2.26943 0
M  V30 722 C 66.9474 -1.12741 1.27372 0
M  V30 723 O 68.1324 -1.15436 1.56167 0
M  V30 724 C 65.2624 -1.71523 3.01989 0
M  V30 725 C 64.2164 -1.26703 4.08816 0
M  V30 726 C 63.5424 -2.51898 4.71647 0
M  V30 727 C 64.8424 -0.388962 5.2085 0
M  V30 728 H 66.5364 0.0552661 2.99349 0
M  V30 729 H 64.0824 0.0280207 1.43973 0
M  V30 730 H 66.0354 -2.32535 3.51433 0
M  V30 731 H 64.7594 -2.34639 2.27183 0
M  V30 732 H 63.4184 -0.679896 3.6024 0
M  V30 733 H 63.0664 -3.13356 3.93468 0
M  V30 734 H 62.7664 -2.22605 5.43802 0
M  V30 735 H 64.2904 -3.1369 5.23861 0
M  V30 736 H 65.7044 -0.905107 5.6611 0
M  V30 737 H 64.1014 -0.18924 5.99802 0
M  V30 738 H 65.1714 0.582699 4.81386 0
M  V30 739 N 66.5145 -1.57545 0.0417849 0
M  V30 740 C 67.4615 -2.10977 -0.935805 0
M  V30 741 C 68.4315 -1.01486 -1.31491 0
M  V30 742 O 69.6165 -1.2898 -1.40602 0
M  V30 743 C 66.7565 -2.65169 -2.2086 0
M  V30 744 C 65.8695 -3.88714 -1.88482 0
M  V30 745 C 65.0045 -4.31254 -3.1015 0
M  V30 746 C 64.0435 -5.47524 -2.7365 0
M  V30 747 N 63.1805 -5.85162 -3.87982 0
M  V30 748 H 68.0205 -2.94218 -0.473249 0
M  V30 749 H 65.5575 -1.45415 -0.221981 0
M  V30 750 H 67.5155 -2.94685 -2.95325 0
M  V30 751 H 66.1455 -1.8474 -2.64709 0
M  V30 752 H 65.1975 -3.65849 -1.04205 0
M  V30 753 H 66.5095 -4.73245 -1.57608 0
M  V30 754 H 65.6635 -4.62273 -3.92923 0
M  V30 755 H 64.4025 -3.45516 -3.44195 0
M  V30 756 H 63.4075 -5.16187 -1.89291 0
M  V30 757 H 64.6325 -6.34971 -2.40807 0
M  V30 758 H 62.5785 -5.02377 -4.21846 0
M  V30 759 H 62.4955 -6.64362 -3.60775 0
M  V30 760 H 63.7635 -6.20791 -4.71422 0
M  V30 761 N 67.9926 0.231505 -1.5589 0
M  V30 762 C 69.2326 0.964533 -1.80211 0
M  V30 763 C 69.5966 1.81926 -0.613744 0
M  V30 764 O 70.7976 2.58526 -0.736045 0
M  V30 765 C 69.0686 1.78956 -3.09369 0
M  V30 766 S 70.6276 2.57959 -3.54969 0
M  V30 767 H 67.4456 0.324173 -0.632798 0
M  V30 768 H 70.0476 0.230985 -1.94131 0
M  V30 769 H 68.7516 1.15161 -3.93911 0
M  V30 770 H 68.2826 2.56559 -2.9823 0
M  V30 771 H 70.2976 3.81309 -3.17519 0
M  V30 772 N 69.4707 1.49531 0.497807 0
M  V30 773 C 70.4027 1.62559 1.61578 0
M  V30 774 C 71.4157 0.508134 1.54667 0
M  V30 775 O 72.6047 0.780309 1.60541 0
M  V30 776 C 69.7047 1.56925 3.00379 0
M  V30 777 C 68.8777 2.84257 3.3244 0
M  V30 778 C 67.9367 2.71632 4.50669 0
M  V30 779 O 66.9627 3.4557 4.52294 0
M  V30 780 N 68.1647 1.83391 5.5077 0
M  V30 781 H 70.9297 2.58981 1.50828 0
M  V30 782 H 68.4907 1.4666 0.685743 0
M  V30 783 H 70.4827 1.46129 3.77397 0
M  V30 784 H 69.0527 0.683483 3.05037 0
M  V30 785 H 68.2727 3.09381 2.44289 0
M  V30 786 H 69.5607 3.68666 3.5066 0
M  V30 787 H 68.9587 1.22583 5.52259 0
M  V30 788 H 67.5157 1.78515 6.26878 0
M  V30 789 N 70.9488 -0.749086 1.3866 0
M  V30 790 C 72.1968 -1.50535 1.34847 0
M  V30 791 C 72.5178 -1.94909 -0.0595016 0
M  V30 792 O 71.7878 -1.67973 -1.00806 0
M  V30 793 H 70.3678 -0.558395 0.49619 0
M  V30 794 H 73.0298 -0.890165 1.73384 0
M  V30 795 H 72.1258 -2.39413 2.00219 0
M  V30 796 N 72.4269 -1.23603 -0.977757 0
M  V30 797 C 73.3899 -1.02069 -2.05218 0
M  V30 798 C 74.3899 0.0184305 -1.60789 0
M  V30 799 O 75.5799 -0.221569 -1.72785 0
M  V30 800 C 72.7119 -0.544926 -3.36517 0
M  V30 801 H 73.9049 -1.9742 -2.25755 0
M  V30 802 H 71.4579 -1.05684 -1.15155 0
M  V30 803 H 72.1929 0.412241 -3.21669 0
M  V30 804 H 71.9779 -1.2948 -3.70105 0
M  V30 805 H 73.4679 -0.414985 -4.15533 0
M  V30 806 N 73.905 1.17692 -1.04816 0
M  V30 807 C 75.135 1.91508 -0.775128 0
M  V30 808 C 75.543 1.76844 0.67253 0
M  V30 809 O 74.886 1.10057 1.47082 0
M  V30 810 C 74.948 3.43167 -1.0713 0
M  V30 811 C 74.612 3.81612 -2.51438 0
M  V30 812 C 75.609 3.84772 -3.49638 0
M  V30 813 C 73.294 4.12687 -2.86348 0
M  V30 814 C 75.288 4.18469 -4.80794 0
M  V30 815 C 72.975 4.46053 -4.17708 0
M  V30 816 C 73.973 4.48921 -5.14741 0
M  V30 817 O 73.661 4.81504 -6.43746 0
M  V30 818 H 73.393 0.614575 -0.281555 0
M  V30 819 H 75.947 1.50206 -1.40098 0
M  V30 820 H 74.177 3.84745 -0.388342 0
M  V30 821 H 75.866 3.98239 -0.784883 0
M  V30 822 H 76.632 3.60893 -3.24008 0
M  V30 823 H 72.511 4.09627 -2.11486 0
M  V30 824 H 76.055 4.20623 -5.56527 0
M  V30 825 H 71.952 4.69393 -4.43103 0
M  V30 826 H 72.72 4.99377 -6.4851 0
M  V30 827 N 75.3831 0.828654 1.34056 0
M  V30 828 C 76.6081 0.431637 2.02859 0
M  V30 829 C 77.0331 -0.956339 1.61975 0
M  V30 830 O 76.3911 -1.62338 0.807228 0
M  V30 831 C 76.4391 0.548323 3.56407 0
M  V30 832 O 75.5431 -0.429556 4.10157 0
M  V30 833 H 74.8841 0.176886 0.640006 0
M  V30 834 H 77.4141 1.12066 1.71179 0
M  V30 835 H 77.4241 0.426196 4.05768 0
M  V30 836 H 76.0991 1.5606 3.8551 0
M  V30 837 H 74.6761 -0.265836 3.71951 0
M  V30 838 N 76.8612 -1.46375 0.584142 0
M  V30 839 C 78.2722 -1.86031 0.157959 0
M  V30 840 C 78.6232 -1.48753 -1.27933 0
M  V30 841 O 77.7482 -0.903098 -1.96655 0
M  V30 842 C 78.3432 -3.37642 0.279892 0
M  V30 843 C 76.9022 -3.76289 -0.09143 0
M  V30 844 C 76.0492 -2.7039 0.615178 0
M  V30 845 H 79.0002 -1.37509 0.792274 0
M  V30 846 H 79.0212 -3.77275 -0.494364 0
M  V30 847 H 78.5332 -3.64742 1.32607 0
M  V30 848 H 76.6342 -3.54806 -1.13769 0
M  V30 849 H 76.7472 -4.78246 0.285886 0
M  V30 850 H 75.1112 -2.5464 0.0552833 0
M  V30 851 H 75.8942 -3.0033 1.66303 0
M  V30 852 N 78.3393 -0.321999 -1.54275 0
M  V30 853 C 79.2493 0.553631 -2.27974 0
M  V30 854 C 80.2653 1.13054 -1.32268 0
M  V30 855 O 81.4413 1.15084 -1.6528 0
M  V30 856 C 78.5063 1.69927 -3.02201 0
M  V30 857 C 77.5673 1.15433 -4.1349 0
M  V30 858 C 76.8003 2.24537 -4.84168 0
M  V30 859 O 77.0233 3.44852 -4.5435 0
M  V30 860 O 75.9573 1.90044 -5.7111 0
M  V30 861 H 79.7833 -0.0448345 -3.03667 0
M  V30 862 H 77.3683 -0.0877418 -1.49142 0
M  V30 863 H 79.2503 2.3663 -3.48689 0
M  V30 864 H 77.9253 2.28395 -2.29385 0
M  V30 865 H 76.8323 0.452436 -3.71354 0
M  V30 866 H 78.1653 0.614805 -4.88345 0
M  V30 867 N 79.8174 1.5752 -0.0501392 0
M  V30 868 C 81.0944 1.83996 0.663685 0
M  V30 869 C 81.4744 0.938339 1.89099 0
M  V30 870 O 80.8224 -0.00087759 2.285 0
M  V30 871 C 81.0324 3.33702 1.02196 0
M  V30 872 C 82.3804 4.00691 1.40469 0
M  V30 873 O 83.4044 3.38321 1.11433 0
M  V30 874 O 82.2634 5.10658 1.94654 0
M  V30 875 H 79.3574 0.759385 0.32751 0
M  V30 876 H 81.9034 1.69514 -0.0794238 0
M  V30 877 H 80.6754 3.91015 0.149364 0
M  V30 878 H 80.2984 3.53368 1.82255 0
M  V30 879 N 81.2955 -0.223234 1.56011 0
M  V30 880 C 82.2435 -1.29627 1.93131 0
M  V30 881 C 83.2375 -1.48608 0.813146 0
M  V30 882 O 84.4435 -1.49802 0.997966 0
M  V30 883 H 80.8185 -0.434563 0.613726 0
M  V30 884 H 82.7895 -0.955995 2.82672 0
M  V30 885 C 81.5385 -2.63983 2.26292 0
M  V30 886 H 80.8615 -2.50185 3.11846 0
M  V30 887 H 82.3015 -3.3788 2.56151 0
M  V30 888 C 80.7605 -3.18866 1.08747 0
M  V30 889 O 81.2905 -4.00192 0.347727 0
M  V30 890 N 79.4965 -2.77217 0.871743 0
M  V30 891 H 79.0435 -2.1119 1.47501 0
M  V30 892 H 79.0015 -3.1428 0.0869905 0
M  V30 893 N 82.7736 -1.49793 -0.48987 0
M  V30 894 C 83.9986 -1.63836 -1.27172 0
M  V30 895 C 84.4236 -0.31402 -1.8546 0
M  V30 896 O 83.7816 0.719803 -1.66399 0
M  V30 897 C 83.8296 -2.71797 -2.36978 0
M  V30 898 O 82.9336 -2.31744 -3.41128 0
M  V30 899 H 82.2746 -0.547997 -0.37496 0
M  V30 900 H 84.8046 -1.96053 -0.585191 0
M  V30 901 H 84.8146 -2.94305 -2.82575 0
M  V30 902 H 83.4896 -3.67923 -1.93921 0
M  V30 903 H 82.0666 -2.1961 -3.01373 0
M  V30 904 N 84.2517 0.741722 -1.39055 0
M  V30 905 C 85.4797 1.53098 -1.39171 0
M  V30 906 C 85.8947 1.88794 0.0155099 0
M  V30 907 O 85.2517 1.53626 0.985159 0
M  V30 908 C 85.3027 2.82274 -2.2584 0
M  V30 909 O 85.0237 2.48097 -3.61081 0
M  V30 910 C 86.5247 3.76343 -2.34266 0
M  V30 911 H 83.7447 0.473335 -0.4756 0
M  V30 912 H 86.2887 0.917045 -1.82785 0
M  V30 913 H 84.4437 3.40015 -1.85656 0
M  V30 914 H 84.8577 3.31029 -4.06842 0
M  V30 915 H 86.3317 4.63898 -2.9917 0
M  V30 916 H 86.8087 4.17619 -1.35982 0
M  V30 917 H 87.4147 3.24523 -2.74891 0
M  V30 918 N 85.7298 1.2412 0.971189 0
M  V30 919 C 86.6618 0.988349 2.06795 0
M  V30 920 C 87.6748 -0.0409541 1.62748 0
M  V30 921 O 88.8638 0.195673 1.77424 0
M  V30 922 C 85.9638 0.469023 3.35639 0
M  V30 923 C 85.1368 1.56065 4.08611 0
M  V30 924 C 84.1958 1.04458 5.15728 0
M  V30 925 O 83.2218 1.73553 5.42096 0
M  V30 926 N 84.4238 -0.122817 5.8037 0
M  V30 927 H 87.1888 1.93265 2.29061 0
M  V30 928 H 84.7498 1.15102 1.13856 0
M  V30 929 H 86.7418 0.108613 4.04554 0
M  V30 930 H 85.3118 -0.380919 3.1027 0
M  V30 931 H 84.5318 2.09341 3.34021 0
M  V30 932 H 85.8198 2.29449 4.54126 0
M  V30 933 H 85.2178 -0.700563 5.61345 0
M  V30 934 H 83.7748 -0.424404 6.50417 0
M  V30 935 N 87.2079 -1.17134 1.05439 0
M  V30 936 C 88.4539 -1.87979 0.776872 0
M  V30 937 C 88.8089 -1.7965 -0.688751 0
M  V30 938 O 88.1019 -1.19535 -1.4974 0
M  V30 939 C 88.2959 -3.36833 1.19491 0
M  V30 940 C 88.1249 -3.59653 2.69963 0
M  V30 941 C 86.8949 -3.76234 3.37307 0
M  V30 942 C 89.0929 -3.59091 3.68182 0
M  V30 943 N 87.0749 -3.86922 4.76618 0
M  V30 944 C 88.4459 -3.75659 4.93235 0
M  V30 945 C 90.5009 -3.42255 3.61616 0
M  V30 946 C 89.2039 -3.77133 6.12506 0
M  V30 947 C 91.2299 -3.45018 4.8033 0
M  V30 948 C 90.5919 -3.62096 6.04207 0
M  V30 949 H 86.6909 -0.705876 0.336546 0
M  V30 950 H 89.2749 -1.40602 1.34682 0
M  V30 951 H 87.4459 -3.82873 0.652884 0
M  V30 952 H 89.1779 -3.95305 0.866966 0
M  V30 953 H 85.9329 -3.76193 2.87708 0
M  V30 954 H 86.3569 -3.96055 5.49062 0
M  V30 955 H 90.9989 -3.27986 2.66805 0
M  V30 956 H 88.7169 -3.90186 7.07659 0
M  V30 957 H 92.3029 -3.33246 4.76905 0
M  V30 958 H 91.1829 -3.64142 6.94529 0
M  V30 959 N 88.686 -0.835752 -1.33615 0
M  V30 960 C 89.933 -0.429959 -1.97883 0
M  V30 961 C 90.261 1.01006 -1.66217 0
M  V30 962 O 89.516 1.72047 -0.93265 0
M  V30 963 C 89.815 -0.593925 -3.52431 0
M  V30 964 C 89.481 -2.00158 -4.04039 0
M  V30 965 C 88.143 -2.38662 -4.17844 0
M  V30 966 C 90.495 -2.92117 -4.31644 0
M  V30 967 C 87.823 -3.68435 -4.56588 0
M  V30 968 C 90.175 -4.21368 -4.71838 0
M  V30 969 C 88.839 -4.59833 -4.83849 0
M  V30 970 H 88.109 -0.157333 -0.724104 0
M  V30 971 H 90.756 -1.06217 -1.59343 0
M  V30 972 H 89.061 0.121619 -3.91611 0
M  V30 973 H 90.758 -0.260282 -4.00154 0
M  V30 974 H 87.348 -1.69252 -3.93766 0
M  V30 975 H 91.532 -2.63608 -4.20505 0
M  V30 976 H 86.788 -3.98046 -4.64079 0
M  V30 977 H 90.962 -4.92703 -4.92155 0
M  V30 978 H 88.589 -5.60438 -5.13627 0
M  V30 979 N 90.1641 1.46063 -0.591896 0
M  V30 980 C 91.1141 2.27458 0.157172 0
M  V30 981 C 92.0981 1.3641 0.853301 0
M  V30 982 O 93.2901 1.60517 0.74588 0
M  V30 983 C 90.4191 3.22956 1.16423 0
M  V30 984 C 89.5051 4.2149 0.469742 0
M  V30 985 N 89.8961 5.03519 -0.479839 0
M  V30 986 C 88.1941 4.40161 0.719319 0
M  V30 987 C 88.8951 5.74904 -0.886591 0
M  V30 988 N 87.8711 5.43097 -0.233731 0
M  V30 989 H 91.6731 2.88272 -0.572392 0
M  V30 990 H 89.1871 1.57024 -0.414375 0
M  V30 991 H 91.1841 3.79986 1.71513 0
M  V30 992 H 89.8441 2.63701 1.89451 0
M  V30 993 H 90.8551 5.1078 -0.855823 0
M  V30 994 H 87.5321 3.92046 1.43548 0
M  V30 995 H 88.9221 6.50844 -1.66888 0
M  V30 996 N 91.6422 0.330177 1.54103 0
M  V30 997 C 92.5902 -0.548226 2.26047 0
M  V30 998 C 93.5842 -1.11309 1.27698 0
M  V30 999 O 94.7902 -1.06036 1.45452 0
M  V30 1000 H 91.1652 -0.195456 0.726155 0
M  V30 1001 H 93.1362 0.0807567 2.98291 0
M  V30 1002 C 91.8852 -1.69415 3.03634 0
M  V30 1003 H 91.2082 -1.26876 3.79134 0
M  V30 1004 H 92.6482 -2.28423 3.5721 0
M  V30 1005 C 91.1072 -2.61569 2.12328 0
M  V30 1006 O 91.6372 -3.63462 1.7105 0
M  V30 1007 N 89.8432 -2.29952 1.77681 0
M  V30 1008 H 89.3902 -1.47134 2.11446 0
M  V30 1009 H 89.3482 -2.91871 1.16869 0
M  V30 1010 N 93.1203 -1.57491 0.0584922 0
M  V30 1011 C 94.0303 -2.15448 -0.928414 0
M  V30 1012 C 95.0463 -1.11416 -1.3365 0
M  V30 1013 O 96.2223 -1.4362 -1.41193 0
M  V30 1014 C 93.2873 -2.69393 -2.18239 0
M  V30 1015 C 92.3483 -3.88249 -1.83196 0
M  V30 1016 C 91.5813 -4.39613 -3.02616 0
M  V30 1017 O 91.8043 -3.90023 -4.16219 0
M  V30 1018 O 90.7383 -5.31111 -2.83204 0
M  V30 1019 H 94.5643 -3.00112 -0.465483 0
M  V30 1020 H 92.1493 -1.48499 -0.163826 0
M  V30 1021 H 94.0313 -3.04026 -2.91798 0
M  V30 1022 H 92.7063 -1.87796 -2.63656 0
M  V30 1023 H 91.6133 -3.58492 -1.06931 0
M  V30 1024 H 92.9463 -4.71098 -1.42573 0
M  V30 1025 N 94.5984 0.214957 -1.56127 0
M  V30 1026 C 95.8234 0.95924 -1.83884 0
M  V30 1027 C 96.2484 1.7689 -0.639644 0
M  V30 1028 O 95.6064 1.76566 0.411601 0
M  V30 1029 C 95.6544 1.84723 -3.09693 0
M  V30 1030 O 94.7584 2.94346 -2.8885 0
M  V30 1031 H 94.0994 0.27125 -0.606069 0
M  V30 1032 H 96.6294 0.226276 -2.03345 0
M  V30 1033 H 96.6394 2.25576 -3.39969 0
M  V30 1034 H 95.3144 1.25218 -3.96602 0
M  V30 1035 H 93.8914 2.57391 -2.69823 0
M  V30 1036 N 96.0765 1.50051 0.48192 0
M  V30 1037 C 97.0065 1.71046 1.58951 0
M  V30 1038 C 97.9875 0.559288 1.60642 0
M  V30 1039 O 99.1725 0.797243 1.77081 0
M  V30 1040 C 96.3025 1.79462 2.97339 0
M  V30 1041 C 95.2565 2.94558 3.10515 0
M  V30 1042 C 94.5825 2.88105 4.50444 0
M  V30 1043 C 95.8825 4.35227 2.88747 0
M  V30 1044 H 97.5765 2.6378 1.41635 0
M  V30 1045 H 95.1225 1.26936 0.679942 0
M  V30 1046 H 97.0755 1.92734 3.74742 0
M  V30 1047 H 95.7995 0.833412 3.15788 0
M  V30 1048 H 94.4585 2.80918 2.35543 0
M  V30 1049 H 94.1065 1.89853 4.65795 0
M  V30 1050 H 93.8065 3.65366 4.60197 0
M  V30 1051 H 95.3305 3.03412 5.29881 0
M  V30 1052 H 96.7445 4.49449 3.55905 0
M  V30 1053 H 95.1415 5.13856 3.09955 0
M  V30 1054 H 96.2115 4.48347 1.84696 0
M  V30 1055 N 97.5546 -0.734337 1.39446 0
M  V30 1056 C 98.8036 -1.48937 1.36017 0
M  V30 1057 C 99.1166 -1.95557 -0.0409005 0
M  V30 1058 O 100.323 -2.70779 -0.19778 0
M  V30 1059 C 98.7786 -2.69125 2.38955 0
M  V30 1060 C 98.3866 -2.29452 3.8478 0
M  V30 1061 C 100.131 -3.46944 2.44603 0
M  V30 1062 C 98.0376 -3.46366 4.79358 0
M  V30 1063 H 96.9676 -0.559296 0.505672 0
M  V30 1064 H 99.6186 -0.800983 1.65095 0
M  V30 1065 H 98.0006 -3.40041 2.02948 0
M  V30 1066 H 99.1746 -1.66077 4.29831 0
M  V30 1067 H 97.4896 -1.64723 3.82433 0
M  V30 1068 H 100.087 -4.33907 3.12456 0
M  V30 1069 H 100.43 -3.89454 1.47076 0
M  V30 1070 H 100.963 -2.83056 2.79507 0
M  V30 1071 H 97.7016 -3.08905 5.78151 0
M  V30 1072 H 97.2216 -4.08719 4.38986 0
M  V30 1073 H 98.9006 -4.12691 4.98292 0
M  V30 1074 N 99.0327 -1.24633 -0.964593 0
M  V30 1075 C 100.258 -1.11596 -1.74818 0
M  V30 1076 C 100.683 0.32723 -1.85232 0
M  V30 1077 O 100.041 1.23695 -1.32549 0
M  V30 1078 C 100.089 -1.76397 -3.1451 0
M  V30 1079 O 99.1927 -1.03685 -3.99153 0
M  V30 1080 H 98.5337 -0.390196 -0.537255 0
M  V30 1081 H 101.064 -1.65002 -1.20977 0
M  V30 1082 H 101.074 -1.8228 -3.65018 0
M  V30 1083 H 99.7487 -2.81401 -3.06246 0
M  V30 1084 H 98.3257 -1.05611 -3.57632 0
M  V30 1085 N 100.511 1.16574 -1.06058 0
M  V30 1086 C 101.736 1.91493 -0.796562 0
M  V30 1087 C 102.161 1.76773 0.642868 0
M  V30 1088 O 101.519 1.09142 1.44768 0
M  V30 1089 C 101.567 3.40293 -1.19303 0
M  V30 1090 O 100.671 4.11074 -0.330394 0
M  V30 1091 H 100.012 0.596678 -0.291326 0
M  V30 1092 H 102.542 1.47708 -1.41575 0
M  V30 1093 H 102.552 3.91057 -1.16356 0
M  V30 1094 H 101.227 3.50326 -2.24153 0
M  V30 1095 H 99.8038 3.70513 -0.421225 0
M  V30 1096 N 101.989 0.842826 1.3317 0
M  V30 1097 C 102.921 0.236245 2.27979 0
M  V30 1098 C 103.934 -0.585282 1.51915 0
M  V30 1099 O 105.123 -0.411705 1.73687 0
M  V30 1100 C 102.223 -0.685717 3.3189 0
M  V30 1101 C 101.396 0.0973448 4.37292 0
M  V30 1102 C 100.455 -0.748565 5.20848 0
M  V30 1103 O 99.4809 -0.186339 5.68895 0
M  V30 1104 N 100.683 -2.06527 5.42519 0
M  V30 1105 H 103.448 1.05088 2.80672 0
M  V30 1106 H 101.009 0.701667 1.45905 0
M  V30 1107 H 103.001 -1.25669 3.84694 0
M  V30 1108 H 101.571 -1.40105 2.79445 0
M  V30 1109 H 100.791 0.849706 3.84933 0
M  V30 1110 H 102.079 0.635643 5.04814 0
M  V30 1111 H 101.477 -2.54554 5.05192 0
M  V30 1112 H 100.034 -2.58464 5.98364 0
M  V30 1113 N 103.467 -1.45747 0.599634 0
M  V30 1114 C 104.43 -2.28917 -0.113835 0
M  V30 1115 C 105.43 -1.3933 -0.802729 0
M  V30 1116 O 106.62 -1.61534 -0.652103 0
M  V30 1117 C 103.752 -3.20152 -1.17114 0
M  V30 1118 H 104.945 -2.93478 0.617289 0
M  V30 1119 H 102.498 -1.52137 0.358327 0
M  V30 1120 H 103.233 -2.60374 -1.93329 0
M  V30 1121 H 103.018 -3.86133 -0.681468 0
M  V30 1122 H 104.508 -3.82708 -1.67105 0
M  V30 1123 N 104.945 -0.338344 -1.53925 0
M  V30 1124 C 106.17 0.263987 -2.05713 0
M  V30 1125 C 106.595 1.43847 -1.21201 0
M  V30 1126 O 105.953 1.79904 -0.224535 0
M  V30 1127 C 106.001 0.662 -3.54471 0
M  V30 1128 O 105.105 1.76265 -3.72833 0
M  V30 1129 H 104.446 0.0448722 -0.662482 0
M  V30 1130 H 106.976 -0.491048 -1.9862 0
M  V30 1131 H 106.986 0.940594 -3.9701 0
M  V30 1132 H 105.661 -0.196937 -4.15433 0
M  V30 1133 H 104.238 1.48173 -3.42198 0
M  V30 1134 N 106.423 1.57458 -0.0668435 0
M  V30 1135 C 107.648 1.9804 0.616027 0
M  V30 1136 C 108.073 0.944771 1.62652 0
M  V30 1137 O 107.431 -0.0902094 1.81075 0
M  V30 1138 C 107.479 3.37665 1.26549 0
M  V30 1139 O 106.583 3.36701 2.38131 0
M  V30 1140 H 105.924 0.644719 0.158849 0
M  V30 1141 H 108.454 2.04121 -0.139891 0
M  V30 1142 H 108.464 3.7474 1.6135 0
M  V30 1143 H 107.139 4.12573 0.525016 0
M  V30 1144 H 105.716 3.1139 2.0516 0
M  V30 1145 N 107.901 -0.206675 1.56239 0
M  V30 1146 C 109.131 -0.943975 1.83773 0
M  V30 1147 C 109.539 -1.77841 0.645703 0
M  V30 1148 O 108.882 -1.79403 -0.395008 0
M  V30 1149 C 108.944 -1.899 3.05251 0
M  V30 1150 C 108.608 -1.24764 4.39639 0
M  V30 1151 C 109.605 -0.630216 5.16066 0
M  V30 1152 C 107.29 -1.25496 4.8637 0
M  V30 1153 C 109.284 -0.0287946 6.37393 0
M  V30 1154 C 106.971 -0.649698 6.07637 0
M  V30 1155 C 107.969 -0.0376845 6.8299 0
M  V30 1156 O 107.657 0.55812 8.0196 0
M  V30 1157 H 107.389 -0.281508 0.614597 0
M  V30 1158 H 109.943 -0.222458 2.04192 0
M  V30 1159 H 108.173 -2.6599 2.80689 0
M  V30 1160 H 109.862 -2.5031 3.1953 0
M  V30 1161 H 110.628 -0.616785 4.81062 0
M  V30 1162 H 106.507 -1.72072 4.27683 0
M  V30 1163 H 110.051 0.449518 6.9615 0
M  V30 1164 H 105.948 -0.660592 6.42111 0
M  V30 1165 H 106.716 0.453891 8.17241 0
M  V30 1166 N 109.379 -1.50304 -0.473955 0
M  V30 1167 C 110.626 -1.6115 -1.22625 0
M  V30 1168 C 110.954 -0.310517 -1.92005 0
M  V30 1169 O 110.209 0.703419 -1.82621 0
M  V30 1170 C 110.508 -2.73938 -2.29549 0
M  V30 1171 C 110.174 -4.14519 -1.7744 0
M  V30 1172 C 108.836 -4.5277 -1.62949 0
M  V30 1173 C 111.188 -5.02392 -1.3875 0
M  V30 1174 C 108.516 -5.76639 -1.08187 0
M  V30 1175 C 110.868 -6.26805 -0.854309 0
M  V30 1176 C 109.532 -6.63861 -0.696011 0
M  V30 1177 H 108.802 -0.589691 -0.448715 0
M  V30 1178 H 111.449 -1.84228 -0.522705 0
M  V30 1179 H 109.754 -2.44937 -3.05799 0
M  V30 1180 H 111.451 -2.79534 -2.87509 0
M  V30 1181 H 108.041 -3.8434 -1.89685 0
M  V30 1182 H 112.225 -4.73474 -1.4878 0
M  V30 1183 H 107.481 -6.04027 -0.946666 0
M  V30 1184 H 111.655 -6.94258 -0.545843 0
M  V30 1185 H 109.282 -7.59722 -0.26952 0
M  V30 1186 N 110.857 0.726932 -1.39834 0
M  V30 1187 C 112.106 1.48214 -1.36805 0
M  V30 1188 C 112.419 1.95576 0.0305291 0
M  V30 1189 O 113.625 2.7088 0.183417 0
M  V30 1190 C 112.081 2.67854 -2.40379 0
M  V30 1191 C 111.689 2.27408 -3.85992 0
M  V30 1192 C 113.433 3.45641 -2.46439 0
M  V30 1193 C 111.34 3.43819 -4.81189 0
M  V30 1194 H 110.27 0.556606 -0.508631 0
M  V30 1195 H 112.921 0.792216 -1.65518 0
M  V30 1196 H 111.303 3.3896 -2.04749 0
M  V30 1197 H 112.477 1.63795 -4.30706 0
M  V30 1198 H 110.792 1.62692 -3.83302 0
M  V30 1199 H 113.389 4.32244 -3.14753 0
M  V30 1200 H 113.732 3.88669 -1.49139 0
M  V30 1201 H 114.265 2.8157 -2.81004 0
M  V30 1202 H 111.004 3.05834 -5.79781 0
M  V30 1203 H 110.524 4.06385 -4.41148 0
M  V30 1204 H 112.203 4.10043 -5.00474 0
M  V30 1205 N 112.336 1.25143 0.95797 0
M  V30 1206 C 113.613 1.00472 1.67823 0
M  V30 1207 C 113.993 -0.470056 2.058 0
M  V30 1208 O 113.341 -1.44663 1.76875 0
M  V30 1209 C 113.551 1.9372 2.90299 0
M  V30 1210 C 114.899 2.21371 3.62326 0
M  V30 1211 O 115.923 1.91451 3.00375 0
M  V30 1212 O 114.782 2.72231 4.7387 0
M  V30 1213 H 111.876 0.380752 0.734137 0
M  V30 1214 H 114.422 1.36283 1.01119 0
M  V30 1215 H 113.194 2.93316 2.59001 0
M  V30 1216 H 112.817 1.58286 3.64735 0
M  V30 1217 N 113.814 -1.1601 1.06675 0
M  V30 1218 C 114.777 -2.18724 0.685001 0
M  V30 1219 C 115.777 -1.58496 -0.271246 0
M  V30 1220 O 116.967 -1.74119 -0.0531156 0
M  V30 1221 C 114.099 -3.40899 0.00853648 0
M  V30 1222 H 115.292 -2.54011 1.59431 0
M  V30 1223 H 112.845 -1.30352 0.862441 0
M  V30 1224 H 113.58 -3.11173 -0.913337 0
M  V30 1225 H 113.365 -3.8587 0.696204 0
M  V30 1226 H 114.855 -4.16886 -0.24414 0
M  V30 1227 N 115.292 -0.849877 -1.32721 0
M  V30 1228 C 116.255 -0.296122 -2.27279 0
M  V30 1229 C 117.255 0.541458 -1.5141 0
M  V30 1230 O 118.445 0.353658 -1.70572 0
M  V30 1231 C 115.577 0.581579 -3.35902 0
M  V30 1232 H 116.77 -1.13064 -2.77771 0
M  V30 1233 H 114.323 -0.62383 -1.43311 0
M  V30 1234 H 115.058 1.43809 -2.9067 0
M  V30 1235 H 114.843 -0.0178814 -3.92096 0
M  V30 1236 H 116.333 0.961951 -4.0637 0
M  V30 1237 N 116.77 1.45427 -0.607355 0
M  V30 1238 C 117.998 2.06614 -0.108814 0
M  V30 1239 C 118.413 1.45204 1.2067 0
M  V30 1240 O 117.77 0.566132 1.73497 0
M  V30 1241 C 117.821 3.61481 0.0375347 0
M  V30 1242 O 117.542 4.20598 -1.22593 0
M  V30 1243 C 119.043 4.39652 0.567561 0
M  V30 1244 H 116.263 0.66747 -0.0687351 0
M  V30 1245 H 118.807 1.86675 -0.835022 0
M  V30 1246 H 116.962 3.80762 0.714068 0
M  V30 1247 H 117.376 5.1377 -1.05547 0
M  V30 1248 H 118.85 5.48518 0.61905 0
M  V30 1249 H 119.327 4.09417 1.58978 0
M  V30 1250 H 119.933 4.25234 -0.0749202 0
M  V30 1251 N 118.248 0.346503 1.53744 0
M  V30 1252 C 119.494 -0.249473 2.0126 0
M  V30 1253 C 119.827 -1.49965 1.23386 0
M  V30 1254 O 119.102 -1.91811 0.32229 0
M  V30 1255 C 119.385 -0.560643 3.55709 0
M  V30 1256 C 119.238 0.701836 4.44291 0
M  V30 1257 C 120.557 -1.36905 4.18264 0
M  V30 1258 H 117.676 -0.0891987 0.731582 0
M  V30 1259 H 120.318 0.467624 1.84156 0
M  V30 1260 H 118.468 -1.17156 3.70414 0
M  V30 1261 H 120.14 1.33974 4.41417 0
M  V30 1262 H 118.383 1.32612 4.13033 0
M  V30 1263 H 119.054 0.43933 5.50249 0
M  V30 1264 H 121.53 -0.852448 4.07275 0
M  V30 1265 H 120.406 -1.55553 5.26398 0
M  V30 1266 H 120.667 -2.37203 3.73078 0
M  V30 1267 N 119.726 -1.57421 0.075193 0
M  V30 1268 C 120.674 -2.14124 -0.908508 0
M  V30 1269 C 121.668 -1.07898 -1.30592 0
M  V30 1270 O 122.874 -1.26273 -1.28277 0
M  V30 1271 H 119.249 -0.684707 -0.310935 0
M  V30 1272 H 121.22 -2.95634 -0.405374 0
M  V30 1273 C 119.969 -2.72044 -2.16535 0
M  V30 1274 H 119.292 -3.53456 -1.86839 0
M  V30 1275 H 120.732 -3.15311 -2.83469 0
M  V30 1276 C 119.191 -1.66968 -2.92615 0
M  V30 1277 O 119.721 -1.0967 -3.86439 0
M  V30 1278 N 117.927 -1.37923 -2.55784 0
M  V30 1279 H 117.474 -1.84706 -1.79559 0
M  V30 1280 H 117.432 -0.67852 -3.06991 0
M  V30 1281 N 121.204 0.198386 -1.56346 0
M  V30 1282 C 122.481 0.944982 -1.71258 0
M  V30 1283 C 122.861 2.0151 -0.629048 0
M  V30 1284 O 122.209 2.25639 0.360473 0
M  V30 1285 C 122.419 1.5344 -3.1346 0
M  V30 1286 C 123.767 2.01778 -3.73591 0
M  V30 1287 O 124.791 1.63288 -3.16568 0
M  V30 1288 O 123.65 2.72594 -4.73661 0
M  V30 1289 H 120.744 0.442939 -0.69838 0
M  V30 1290 H 123.29 0.188342 -1.68652 0
M  V30 1291 H 122.062 0.762869 -3.83792 0
M  V30 1292 H 121.685 2.35596 -3.20282 0
M  V30 1293 N 122.682 1.50554 0.465978 0
M  V30 1294 C 123.907 1.65838 1.24549 0
M  V30 1295 C 124.332 0.343486 1.84937 0
M  V30 1296 O 123.69 -0.69324 1.67523 0
M  V30 1297 C 123.738 2.75533 2.32624 0
M  V30 1298 O 122.842 2.37142 3.37398 0
M  V30 1299 H 122.183 0.553893 0.366194 0
M  V30 1300 H 124.713 1.96959 0.553927 0
M  V30 1301 H 124.723 2.98763 2.77857 0
M  V30 1302 H 123.398 3.70962 1.88043 0
M  V30 1303 H 121.975 2.24377 2.97841 0
M  V30 1304 N 124.16 -0.719506 1.40217 0
M  V30 1305 C 125.408 -1.47641 1.3801 0
M  V30 1306 C 125.729 -1.94992 -0.018145 0
M  V30 1307 O 124.999 -1.70073 -0.972207 0
M  V30 1308 H 123.579 -0.547744 0.507923 0
M  V30 1309 H 126.241 -0.853187 1.75233 0
M  V30 1310 H 125.337 -2.35112 2.05253 0
M  V30 1311 N 125.638 -1.25649 -0.95132 0
M  V30 1312 C 126.548 -1.08073 -2.08224 0
M  V30 1313 C 127.564 -0.0169666 -1.73992 0
M  V30 1314 O 128.74 -0.218593 -2.0021 0
M  V30 1315 C 125.805 -0.704922 -3.39458 0
M  V30 1316 C 124.866 -1.84699 -3.87537 0
M  V30 1317 C 124.099 -1.48902 -5.12508 0
M  V30 1318 O 124.322 -0.386156 -5.69091 0
M  V30 1319 O 123.256 -2.32033 -5.55378 0
M  V30 1320 H 127.082 -2.02924 -2.25954 0
M  V30 1321 H 124.667 -1.04618 -1.06656 0
M  V30 1322 H 126.549 -0.507609 -4.18332 0
M  V30 1323 H 125.224 0.214291 -3.2299 0
M  V30 1324 H 124.131 -2.09919 -3.09653 0
M  V30 1325 H 125.464 -2.74557 -4.08509 0
M  V30 1326 N 127.117 1.15442 -1.07289 0
M  V30 1327 C 128.347 1.89821 -0.815576 0
M  V30 1328 C 128.755 1.7823 0.634867 0
M  V30 1329 O 128.098 1.13152 1.44715 0
M  V30 1330 C 128.16 3.40817 -1.14385 0
M  V30 1331 C 127.824 3.76193 -2.59476 0
M  V30 1332 C 128.821 3.77269 -3.57721 0
M  V30 1333 C 126.506 4.0652 -2.95037 0
M  V30 1334 C 128.5 4.08176 -4.89562 0
M  V30 1335 C 126.187 4.37092 -4.27076 0
M  V30 1336 C 127.185 4.37902 -5.24148 0
M  V30 1337 O 126.873 4.67741 -6.53815 0
M  V30 1338 H 126.605 0.608465 -0.294528 0
M  V30 1339 H 129.159 1.472 -1.43252 0
M  V30 1340 H 127.389 3.83835 -0.469865 0
M  V30 1341 H 129.078 3.96485 -0.869179 0
M  V30 1342 H 129.844 3.5394 -3.3159 0
M  V30 1343 H 125.723 4.05049 -2.20128 0
M  V30 1344 H 129.267 4.08723 -5.65324 0
M  V30 1345 H 125.164 4.59889 -4.5296 0
M  V30 1346 H 125.932 4.85509 -6.58957 0
M  V30 1347 N 128.595 0.856903 1.32268 0
M  V30 1348 C 130.011 0.547061 1.49931 0
M  V30 1349 C 130.211 -0.921781 1.7918 0
M  V30 1350 O 129.267 -1.70469 1.8627 0
M  V30 1351 C 130.58 1.43599 2.64196 0
M  V30 1352 C 132.128 1.43665 2.78081 0
M  V30 1353 C 132.603 2.31085 3.95428 0
M  V30 1354 N 134.094 2.28893 4.02694 0
M  V30 1355 C 134.829 2.93262 4.92732 0
M  V30 1356 N 134.325 3.66751 5.87763 0
M  V30 1357 N 136.118 2.82638 4.85873 0
M  V30 1358 H 128.269 1.8075 1.11549 0
M  V30 1359 H 130.532 0.772144 0.549997 0
M  V30 1360 H 130.238 2.48058 2.49319 0
M  V30 1361 H 130.112 1.12502 3.60032 0
M  V30 1362 H 132.499 0.399701 2.92381 0
M  V30 1363 H 132.58 1.7878 1.82952 0
M  V30 1364 H 132.224 3.34849 3.81888 0
M  V30 1365 H 132.154 1.93302 4.89839 0
M  V30 1366 H 134.645 1.75466 3.34694 0
M  V30 1367 H 134.958 4.13027 6.53168 0
M  V30 1368 H 133.303 3.70859 5.87783 0
M  V30 1369 H 136.494 2.24774 4.10602 0
M  V30 1370 H 136.667 3.33084 5.55841 0
M  V30 1371 N 130.073 -1.45103 0.615059 0
M  V30 1372 C 131.313 -2.04069 0.116282 0
M  V30 1373 C 131.677 -1.4721 -1.2326 0
M  V30 1374 O 132.878 -1.97577 -1.82255 0
M  V30 1375 C 131.149 -3.57298 0.085482 0
M  V30 1376 S 132.708 -4.37394 -0.351015 0
M  V30 1377 H 129.526 -0.709006 0.0532183 0
M  V30 1378 H 132.128 -1.77709 0.81484 0
M  V30 1379 H 130.832 -3.9619 1.0706 0
M  V30 1380 H 130.363 -3.88244 -0.634835 0
M  V30 1381 H 132.378 -4.69734 -1.59889 0
M  V30 1382 N 131.551 -0.354651 -1.53558 0
M  V30 1383 C 132.483 0.5315 -2.22952 0
M  V30 1384 C 133.496 1.05503 -1.23988 0
M  V30 1385 O 134.685 0.963279 -1.50277 0
M  V30 1386 C 131.785 1.74538 -2.90499 0
M  V30 1387 C 130.958 1.35524 -4.15875 0
M  V30 1388 C 130.017 2.42999 -4.66731 0
M  V30 1389 O 129.043 2.05844 -5.30676 0
M  V30 1390 N 130.245 3.74423 -4.43608 0
M  V30 1391 H 133.01 -0.0628615 -2.99634 0
M  V30 1392 H 130.571 -0.179302 -1.60904 0
M  V30 1393 H 132.563 2.45892 -3.21433 0
M  V30 1394 H 131.133 2.24686 -2.17336 0
M  V30 1395 H 130.353 0.471998 -3.91364 0
M  V30 1396 H 131.641 1.07071 -4.97406 0
M  V30 1397 H 131.039 4.07391 -3.92491 0
M  V30 1398 H 129.596 4.41913 -4.7912 0
M  V30 1399 N 133.029 1.57378 -0.0835403 0
M  V30 1400 C 134.257 1.98263 0.59157 0
M  V30 1401 C 134.672 0.962302 1.62435 0
M  V30 1402 O 134.029 -0.049581 1.82433 0
M  V30 1403 C 134.08 3.39214 1.24965 0
M  V30 1404 O 133.801 4.37339 0.258186 0
M  V30 1405 C 135.302 3.95038 2.01147 0
M  V30 1406 H 132.522 0.651773 0.159477 0
M  V30 1407 H 135.066 2.03878 -0.159415 0
M  V30 1408 H 133.221 3.34649 1.95164 0
M  V30 1409 H 133.635 5.19371 0.731734 0
M  V30 1410 H 135.109 4.95848 2.42567 0
M  V30 1411 H 135.586 3.32222 2.87272 0
M  V30 1412 H 136.192 4.0304 1.35789 0
M  V30 1413 N 134.507 -0.190092 1.56449 0
M  V30 1414 C 135.455 -1.25501 1.95837 0
M  V30 1415 C 136.449 -1.4685 0.844485 0
M  V30 1416 O 137.655 -1.47651 1.02952 0
M  V30 1417 H 134.03 -0.421447 0.622805 0
M  V30 1418 H 136.001 -0.895821 2.84636 0
M  V30 1419 C 134.75 -2.59124 2.31841 0
M  V30 1420 H 134.073 -2.43514 3.17082 0
M  V30 1421 H 135.513 -3.32371 2.6326 0
M  V30 1422 C 133.972 -3.16488 1.15486 0
M  V30 1423 O 134.502 -3.99365 0.432535 0
M  V30 1424 N 132.708 -2.75305 0.930349 0
M  V30 1425 H 132.255 -2.08013 1.51948 0
M  V30 1426 H 132.213 -3.14024 0.153634 0
M  V30 1427 N 135.985 -1.50799 -0.457987 0
M  V30 1428 C 136.915 -1.73553 -1.5621 0
M  V30 1429 C 137.896 -0.584774 -1.59732 0
M  V30 1430 O 139.081 -0.825314 -1.7579 0
M  V30 1431 C 136.211 -1.84169 -2.94447 0
M  V30 1432 C 135.165 -2.99461 -3.0579 0
M  V30 1433 C 134.491 -2.95235 -4.45803 0
M  V30 1434 C 135.791 -4.39766 -2.81786 0
M  V30 1435 H 137.485 -2.66 -1.37421 0
M  V30 1436 H 135.031 -1.28002 -0.659662 0
M  V30 1437 H 136.984 -1.98672 -3.71628 0
M  V30 1438 H 135.708 -0.883545 -3.14422 0
M  V30 1439 H 134.367 -2.8463 -2.31044 0
M  V30 1440 H 134.015 -1.97239 -4.62715 0
M  V30 1441 H 133.715 -3.72642 -4.54326 0
M  V30 1442 H 135.239 -3.11803 -5.24987 0
M  V30 1443 H 136.653 -4.55054 -3.4871 0
M  V30 1444 H 135.05 -5.18722 -3.0174 0
M  V30 1445 H 136.12 -4.51229 -1.7754 0
M  V30 1446 N 137.463 0.71206 -1.40597 0
M  V30 1447 C 138.688 1.50617 -1.42581 0
M  V30 1448 C 139.113 1.88079 -0.0282102 0
M  V30 1449 O 138.471 1.53511 0.964579 0
M  V30 1450 C 138.519 2.7557 -2.3258 0
M  V30 1451 O 137.623 3.72414 -1.77148 0
M  V30 1452 H 136.964 0.453966 -0.484573 0
M  V30 1453 H 139.494 0.876649 -1.84868 0
M  V30 1454 H 139.504 3.2406 -2.47889 0
M  V30 1455 H 138.179 2.47639 -3.34138 0
M  V30 1456 H 136.756 3.31276 -1.71204 0
M  V30 1457 N 138.941 1.26152 0.944643 0
M  V30 1458 C 140.169 1.14259 1.72489 0
M  V30 1459 C 140.584 -0.302555 1.8636 0
M  V30 1460 O 139.941 -1.20741 1.36849 0
M  V30 1461 C 139.992 1.80266 3.13347 0
M  V30 1462 O 139.713 3.19133 3.00143 0
M  V30 1463 C 141.214 1.74283 4.07603 0
M  V30 1464 H 138.434 0.398051 0.540181 0
M  V30 1465 H 140.978 1.66706 1.18446 0
M  V30 1466 H 139.133 1.31766 3.64303 0
M  V30 1467 H 139.547 3.51744 3.89071 0
M  V30 1468 H 141.021 2.25111 5.04013 0
M  V30 1469 H 141.498 0.708631 4.33446 0
M  V30 1470 H 142.104 2.22319 3.62567 0
M  V30 1471 N 140.419 -1.14872 1.07899 0
M  V30 1472 C 141.349 -2.2193 0.725887 0
M  V30 1473 C 142.33 -1.67622 -0.28927 0
M  V30 1474 O 143.515 -1.93533 -0.160787 0
M  V30 1475 C 140.645 -3.47061 0.128856 0
M  V30 1476 C 139.599 -4.14363 1.07178 0
M  V30 1477 C 138.925 -5.33636 0.337229 0
M  V30 1478 C 140.225 -4.63492 2.40775 0
M  V30 1479 H 141.919 -2.51724 1.62097 0
M  V30 1480 H 139.465 -1.20991 0.780838 0
M  V30 1481 H 141.418 -4.21199 -0.130147 0
M  V30 1482 H 140.142 -3.16617 -0.80134 0
M  V30 1483 H 138.801 -3.42173 1.3158 0
M  V30 1484 H 138.449 -4.99449 -0.596606 0
M  V30 1485 H 138.149 -5.79609 0.965788 0
M  V30 1486 H 139.673 -6.10539 0.0861567 0
M  V30 1487 H 141.087 -5.2913 2.20669 0
M  V30 1488 H 139.484 -5.20148 2.99276 0
M  V30 1489 H 140.554 -3.78834 3.02676 0
M  V30 1490 N 141.898 -0.863906 -1.31812 0
M  V30 1491 C 143.123 -0.48527 -2.01643 0
M  V30 1492 C 143.548 0.913058 -1.64453 0
M  V30 1493 O 142.906 1.6014 -0.849985 0
M  V30 1494 C 142.954 -0.642625 -3.54828 0
M  V30 1495 O 142.058 0.320659 -4.11151 0
M  V30 1496 H 141.399 -0.193793 -0.635091 0
M  V30 1497 H 143.929 -1.16565 -1.68148 0
M  V30 1498 H 143.939 -0.533628 -4.04495 0
M  V30 1499 H 142.614 -1.66227 -3.81237 0
M  V30 1500 H 141.191 0.167126 -3.72525 0
M  V30 1501 N 143.376 1.44774 -0.622745 0
M  V30 1502 C 144.653 1.95522 -0.0551974 0
M  V30 1503 C 145.033 1.5649 1.41683 0
M  V30 1504 O 144.381 0.834848 2.12703 0
M  V30 1505 C 144.591 3.4796 -0.269242 0
M  V30 1506 C 145.939 4.24306 -0.158014 0
M  V30 1507 O 146.963 3.55637 -0.200162 0
M  V30 1508 O 145.822 5.46471 -0.0558693 0
M  V30 1509 H 142.916 0.826556 0.0271015 0
M  V30 1510 H 145.462 1.54866 -0.693864 0
M  V30 1511 H 144.234 3.6939 -1.29099 0
M  V30 1512 H 143.857 3.95543 0.403966 0
M  V30 1513 N 144.854 0.36279 1.53368 0
M  V30 1514 C 146.265 -0.117022 1.86333 0
M  V30 1515 C 146.616 -1.48397 1.28347 0
M  V30 1516 O 145.741 -2.07787 0.604428 0
M  V30 1517 C 146.336 -0.21912 3.38091 0
M  V30 1518 C 144.895 -0.643184 3.70864 0
M  V30 1519 C 144.042 0.211318 2.76494 0
M  V30 1520 H 146.993 0.581687 1.47655 0
M  V30 1521 H 147.014 -1.04319 3.6592 0
M  V30 1522 H 146.526 0.775902 3.80265 0
M  V30 1523 H 144.627 -1.64654 3.34245 0
M  V30 1524 H 144.74 -0.41973 4.77258 0
M  V30 1525 H 143.104 -0.319367 2.5269 0
M  V30 1526 H 143.887 1.20383 3.21501 0
M  V30 1527 N 146.332 -1.57332 0.0918853 0
M  V30 1528 C 147.578 -1.94524 -0.573425 0
M  V30 1529 C 147.911 -0.973578 -1.68033 0
M  V30 1530 O 147.186 -0.00609226 -1.94499 0
M  V30 1531 C 147.469 -3.41858 -1.13161 0
M  V30 1532 C 147.322 -4.4979 -0.0299747 0
M  V30 1533 C 148.641 -3.90435 -2.03098 0
M  V30 1534 H 145.76 -0.70734 -0.206975 0
M  V30 1535 H 148.402 -1.89309 0.161942 0
M  V30 1536 H 146.552 -3.46433 -1.7583 0
M  V30 1537 H 148.224 -4.57327 0.604112 0
M  V30 1538 H 146.467 -4.291 0.636833 0
M  V30 1539 H 147.138 -5.50069 -0.461287 0
M  V30 1540 H 149.614 -3.87992 -1.50338 0
M  V30 1541 H 148.49 -4.94097 -2.39081 0
M  V30 1542 H 148.751 -3.29541 -2.94712 0
M  V30 1543 N 147.81 0.181792 -1.56548 0
M  V30 1544 C 148.742 1.24956 -1.92142 0
M  V30 1545 C 149.755 1.41022 -0.813422 0
M  V30 1546 O 150.944 1.41212 -1.09186 0
M  V30 1547 C 148.044 2.61981 -2.14987 0
M  V30 1548 C 147.217 2.6735 -3.46183 0
M  V30 1549 C 146.276 3.85664 -3.5798 0
M  V30 1550 O 145.302 3.72148 -4.30691 0
M  V30 1551 N 146.504 5.01683 -2.92053 0
M  V30 1552 H 149.269 0.947329 -2.84334 0
M  V30 1553 H 146.83 0.371629 -1.57577 0
M  V30 1554 H 148.822 3.3958 -2.20154 0
M  V30 1555 H 147.392 2.84637 -1.2923 0
M  V30 1556 H 146.612 1.75925 -3.52766 0
M  V30 1557 H 147.9 2.67939 -4.32534 0
M  V30 1558 H 147.298 5.15564 -2.32832 0
M  V30 1559 H 145.855 5.77181 -3.0283 0
M  V30 1560 N 149.288 1.51039 0.449983 0
M  V30 1561 C 150.218 1.74379 1.55288 0
M  V30 1562 C 151.199 0.593236 1.5942 0
M  V30 1563 O 152.384 0.834625 1.7535 0
M  V30 1564 C 149.514 1.85728 2.93466 0
M  V30 1565 C 148.468 3.01078 3.04197 0
M  V30 1566 C 147.794 2.97595 4.44231 0
M  V30 1567 C 149.094 4.41254 2.7945 0
M  V30 1568 H 150.788 2.66725 1.36008 0
M  V30 1569 H 148.334 1.2835 0.652864 0
M  V30 1570 H 150.287 2.0064 3.70569 0
M  V30 1571 H 149.011 0.900207 3.13949 0
M  V30 1572 H 147.67 2.85851 2.29531 0
M  V30 1573 H 147.318 1.99691 4.61663 0
M  V30 1574 H 147.018 3.75046 4.52343 0
M  V30 1575 H 148.542 3.14583 5.23326 0
M  V30 1576 H 149.956 4.56897 3.46292 0
M  V30 1577 H 148.353 5.20315 2.98985 0
M  V30 1578 H 149.423 4.52164 1.75144 0
M  V30 1579 N 150.766 -0.704594 1.40972 0
M  V30 1580 C 151.676 -1.84856 1.44448 0
M  V30 1581 C 152.692 -1.70726 0.335961 0
M  V30 1582 O 153.868 -1.92799 0.582276 0
M  V30 1583 C 150.933 -3.20758 1.31587 0
M  V30 1584 C 149.994 -3.47063 2.52677 0
M  V30 1585 C 149.227 -4.76481 2.4042 0
M  V30 1586 O 149.45 -5.52341 1.42391 0
M  V30 1587 O 148.384 -5.03367 3.30007 0
M  V30 1588 H 152.21 -1.8488 2.40942 0
M  V30 1589 H 149.795 -0.85647 1.22413 0
M  V30 1590 H 151.677 -4.01913 1.26665 0
M  V30 1591 H 150.352 -3.21438 0.382049 0
M  V30 1592 H 149.259 -2.65873 2.63177 0
M  V30 1593 H 150.592 -3.5119 3.44858 0
M  V30 1594 N 152.244 -1.26651 -0.937939 0
M  V30 1595 C 153.49 -1.12553 -1.687 0
M  V30 1596 C 153.823 0.329782 -1.91379 0
M  V30 1597 O 153.098 1.24202 -1.4968 0
M  V30 1598 C 153.381 -1.89862 -3.05981 0
M  V30 1599 C 153.234 -3.43318 -2.90607 0
M  V30 1600 C 154.553 -1.69499 -4.0615 0
M  V30 1601 H 151.672 -0.410257 -0.612257 0
M  V30 1602 H 154.314 -1.55685 -1.08913 0
M  V30 1603 H 152.464 -1.53204 -3.57017 0
M  V30 1604 H 154.136 -3.89747 -2.46769 0
M  V30 1605 H 152.379 -3.70179 -2.26164 0
M  V30 1606 H 153.05 -3.92642 -3.8799 0
M  V30 1607 H 155.526 -2.01442 -3.64088 0
M  V30 1608 H 154.402 -2.26002 -5.00214 0
M  V30 1609 H 154.663 -0.640365 -4.37438 0
M  V30 1610 N 153.722 1.14298 -1.08507 0
M  V30 1611 C 154.672 2.17449 -0.685569 0
M  V30 1612 C 155.656 1.58167 0.295315 0
M  V30 1613 O 156.848 1.76675 0.107172 0
M  V30 1614 C 153.977 3.43161 -0.0975318 0
M  V30 1615 C 153.063 4.09471 -1.10426 0
M  V30 1616 N 153.454 4.51089 -2.28806 0
M  V30 1617 C 151.752 4.35976 -0.940258 0
M  V30 1618 C 152.453 5.02654 -2.9277 0
M  V30 1619 N 151.429 4.96927 -2.20374 0
M  V30 1620 H 155.231 2.47369 -1.587 0
M  V30 1621 H 152.745 1.30992 -0.959936 0
M  V30 1622 H 154.742 4.16388 0.20664 0
M  V30 1623 H 153.402 3.14719 0.798872 0
M  V30 1624 H 154.413 4.44097 -2.66455 0
M  V30 1625 H 151.09 4.17386 -0.0977441 0
M  V30 1626 H 152.48 5.44723 -3.93352 0
M  V30 1627 N 155.201 0.870884 1.31352 0
M  V30 1628 C 156.45 0.478408 1.95944 0
M  V30 1629 C 156.763 -0.974493 1.69597 0
M  V30 1630 O 157.969 -1.47316 2.28058 0
M  V30 1631 C 156.425 0.804609 3.50791 0
M  V30 1632 C 156.033 2.27433 3.85977 0
M  V30 1633 C 157.777 0.480648 4.2177 0
M  V30 1634 C 155.684 2.5429 5.33939 0
M  V30 1635 H 154.614 0.175175 0.733369 0
M  V30 1636 H 157.265 1.06391 1.4951 0
M  V30 1637 H 155.647 0.148347 3.95722 0
M  V30 1638 H 156.821 2.97373 3.52002 0
M  V30 1639 H 155.136 2.56442 3.28065 0
M  V30 1640 H 157.733 0.658519 5.30629 0
M  V30 1641 H 158.076 -0.578979 4.12254 0
M  V30 1642 H 158.609 1.09349 3.82476 0
M  V30 1643 H 155.348 3.58939 5.48491 0
M  V30 1644 H 154.868 1.88945 5.69263 0
M  V30 1645 H 156.547 2.39066 6.01212 0
M  V30 1646 N 156.679 -1.44442 0.630414 0
M  V30 1647 C 157.927 -2.01653 0.134351 0
M  V30 1648 C 158.248 -1.49836 -1.24796 0
M  V30 1649 O 157.518 -0.701684 -1.82902 0
M  V30 1650 H 156.098 -0.74554 0.0466769 0
M  V30 1651 H 158.76 -1.76952 0.816955 0
M  V30 1652 H 157.856 -3.11935 0.101498 0
M  V30 1653 N 158.157 -0.370918 -1.53173 0
M  V30 1654 C 159.403 0.209976 -2.02313 0
M  V30 1655 C 159.758 1.45987 -1.25322 0
M  V30 1656 O 159.051 1.8856 -0.339965 0
M  V30 1657 C 159.245 0.549696 -3.53147 0
M  V30 1658 C 159.074 -0.665721 -4.44745 0
M  V30 1659 C 157.844 -1.17942 -4.91343 0
M  V30 1660 C 160.042 -1.53255 -4.90935 0
M  V30 1661 N 158.024 -2.35431 -5.66962 0
M  V30 1662 C 159.395 -2.55403 -5.64951 0
M  V30 1663 C 161.45 -1.5548 -4.73002 0
M  V30 1664 C 160.153 -3.5964 -6.22938 0
M  V30 1665 C 162.179 -2.58613 -5.31858 0
M  V30 1666 C 161.541 -3.59485 -6.05764 0
M  V30 1667 H 157.64 0.0394095 -0.781006 0
M  V30 1668 H 160.224 -0.516666 -1.8772 0
M  V30 1669 H 158.395 1.24541 -3.67891 0
M  V30 1670 H 160.127 1.11614 -3.89004 0
M  V30 1671 H 156.882 -0.743228 -4.67732 0
M  V30 1672 H 157.306 -2.94827 -6.09431 0
M  V30 1673 H 161.948 -0.788457 -4.15383 0
M  V30 1674 H 159.666 -4.37153 -6.79649 0
M  V30 1675 H 163.252 -2.61195 -5.19873 0
M  V30 1676 H 162.132 -4.3798 -6.50495 0
M  V30 1677 N 159.635 1.57281 -0.100228 0
M  V30 1678 C 160.565 2.17328 0.853857 0
M  V30 1679 C 161.546 1.10804 1.2906 0
M  V30 1680 O 162.731 1.38963 1.35657 0
M  V30 1681 C 159.861 2.75772 2.11109 0
M  V30 1682 C 158.815 3.87713 1.81279 0
M  V30 1683 C 158.141 4.32882 3.13874 0
M  V30 1684 C 159.441 5.10677 1.09574 0
M  V30 1685 H 161.135 2.97305 0.353545 0
M  V30 1686 H 158.681 1.43009 0.168612 0
M  V30 1687 H 160.634 3.16433 2.78296 0
M  V30 1688 H 159.358 1.93057 2.63432 0
M  V30 1689 H 158.017 3.476 1.16489 0
M  V30 1690 H 157.665 3.47051 3.64095 0
M  V30 1691 H 157.365 5.08358 2.94696 0
M  V30 1692 H 158.889 4.7618 3.82211 0
M  V30 1693 H 160.303 5.48474 1.66879 0
M  V30 1694 H 158.7 5.91615 1.00557 0
M  V30 1695 H 159.77 4.84835 0.0793299 0
M  V30 1696 N 161.113 -0.173488 1.56642 0
M  V30 1697 C 162.043 -1.2171 1.99271 0
M  V30 1698 C 163.024 -1.46289 0.867959 0
M  V30 1699 O 164.209 -1.5766 1.13388 0
M  V30 1700 C 161.339 -2.55651 2.35074 0
M  V30 1701 C 160.293 -2.45645 3.50489 0
M  V30 1702 C 159.619 -3.84056 3.72028 0
M  V30 1703 C 160.919 -1.96302 4.84007 0
M  V30 1704 H 162.613 -0.86275 2.867 0
M  V30 1705 H 160.159 -0.413571 1.37933 0
M  V30 1706 H 162.112 -3.2886 2.63494 0
M  V30 1707 H 160.836 -2.92869 1.44552 0
M  V30 1708 H 159.495 -1.7489 3.22194 0
M  V30 1709 H 159.143 -4.18664 2.788 0
M  V30 1710 H 158.843 -3.7823 4.49684 0
M  V30 1711 H 160.367 -4.58854 4.02846 0
M  V30 1712 H 161.781 -2.59284 5.11317 0
M  V30 1713 H 160.178 -2.01429 5.65284 0
M  V30 1714 H 161.248 -0.917226 4.76146 0
M  V30 1715 N 162.591 -1.51276 -0.441967 0
M  V30 1716 C 163.521 -1.752 -1.54361 0
M  V30 1717 C 164.502 -0.601682 -1.59103 0
M  V30 1718 O 165.687 -0.843913 -1.74905 0
M  V30 1719 C 162.817 -1.87282 -2.92477 0
M  V30 1720 C 161.771 -3.02687 -3.02596 0
M  V30 1721 C 161.097 -2.99947 -4.42647 0
M  V30 1722 C 162.397 -4.4273 -2.77106 0
M  V30 1723 H 164.091 -2.67442 -1.34592 0
M  V30 1724 H 161.637 -1.28694 -0.646048 0
M  V30 1725 H 163.59 -2.02602 -3.695 0
M  V30 1726 H 162.314 -0.916844 -3.13467 0
M  V30 1727 H 160.973 -2.87065 -2.28012 0
M  V30 1728 H 160.621 -2.02136 -4.60597 0
M  V30 1729 H 160.321 -3.77439 -4.50348 0
M  V30 1730 H 161.845 -3.17354 -5.2165 0
M  V30 1731 H 163.259 -4.58727 -3.43864 0
M  V30 1732 H 161.656 -5.21893 -2.96222 0
M  V30 1733 H 162.726 -4.53087 -1.72744 0
M  V30 1734 N 164.069 0.697108 -1.41344 0
M  V30 1735 C 165.001 1.8224 -1.39001 0
M  V30 1736 C 166.014 1.60152 -0.292428 0
M  V30 1737 O 167.203 1.69684 -0.554048 0
M  V30 1738 C 164.303 3.18976 -1.14489 0
M  V30 1739 C 163.476 3.68105 -2.36258 0
M  V30 1740 C 162.535 4.83506 -2.07625 0
M  V30 1741 O 161.561 4.95201 -2.8065 0
M  V30 1742 N 162.763 5.70637 -1.06555 0
M  V30 1743 H 165.528 1.84742 -2.35988 0
M  V30 1744 H 163.089 0.87937 -1.35936 0
M  V30 1745 H 165.081 3.93801 -0.932885 0
M  V30 1746 H 163.651 3.11508 -0.261043 0
M  V30 1747 H 162.871 2.84204 -2.7317 0
M  V30 1748 H 164.159 3.97667 -3.17393 0
M  V30 1749 H 163.557 5.63817 -0.461125 0
M  V30 1750 H 162.114 6.45368 -0.913444 0
M  V30 1751 N 165.547 1.27147 0.931209 0
M  V30 1752 C 166.51 1.09615 2.01289 0
M  V30 1753 C 167.51 0.0412581 1.60747 0
M  V30 1754 O 168.7 0.285545 1.71844 0
M  V30 1755 C 165.832 0.669447 3.34262 0
M  V30 1756 H 167.025 2.05662 2.18273 0
M  V30 1757 H 164.578 1.09885 1.11153 0
M  V30 1758 H 165.313 -0.292572 3.22978 0
M  V30 1759 H 165.098 1.43127 3.65044 0
M  V30 1760 H 166.588 0.568921 4.13706 0
M  V30 1761 N 167.025 -1.13721 1.09112 0
M  V30 1762 C 168.436 -1.6648 0.845068 0
M  V30 1763 C 168.787 -1.85911 -0.62701 0
M  V30 1764 O 167.912 -1.57556 -1.48341 0
M  V30 1765 C 168.507 -3.02413 1.52748 0
M  V30 1766 C 167.066 -3.52176 1.32849 0
M  V30 1767 C 166.213 -2.27492 1.58564 0
M  V30 1768 H 169.164 -0.976872 1.25072 0
M  V30 1769 H 169.185 -3.68223 0.958752 0
M  V30 1770 H 168.697 -2.88238 2.59885 0
M  V30 1771 H 166.798 -3.7156 0.278137 0
M  V30 1772 H 166.911 -4.32499 2.0611 0
M  V30 1773 H 165.275 -2.33923 1.00758 0
M  V30 1774 H 166.058 -2.15886 2.66924 0
M  V30 1775 N 168.503 -0.877838 -1.30888 0
M  V30 1776 C 169.919 -0.570844 -1.49042 0
M  V30 1777 C 170.119 0.893159 -1.80624 0
M  V30 1778 O 169.175 1.67485 -1.88958 0
M  V30 1779 C 170.488 -1.47784 -2.61878 0
M  V30 1780 C 172.036 -1.48071 -2.75761 0
M  V30 1781 C 172.511 -2.37347 -3.91702 0
M  V30 1782 N 174.002 -2.35271 -3.99001 0
M  V30 1783 C 174.737 -3.01063 -4.88004 0
M  V30 1784 N 174.233 -3.76055 -5.81854 0
M  V30 1785 N 176.026 -2.90332 -4.81315 0
M  V30 1786 H 168.177 -1.82502 -1.0866 0
M  V30 1787 H 170.44 -0.780797 -0.537644 0
M  V30 1788 H 170.146 -2.51993 -2.45341 0
M  V30 1789 H 170.02 -1.18215 -3.58197 0
M  V30 1790 H 172.407 -0.446166 -2.91708 0
M  V30 1791 H 172.488 -1.81668 -1.80085 0
M  V30 1792 H 172.132 -3.40883 -3.76512 0
M  V30 1793 H 172.062 -2.01071 -4.86701 0
M  V30 1794 H 174.553 -1.80768 -3.3186 0
M  V30 1795 H 174.866 -4.23366 -6.46514 0
M  V30 1796 H 173.211 -3.80163 -5.81808 0
M  V30 1797 H 176.402 -2.31278 -4.06974 0
M  V30 1798 H 176.575 -3.41885 -5.50471 0
M  V30 1799 N 169.982 1.44106 -0.638065 0
M  V30 1800 C 171.228 2.02815 -0.15409 0
M  V30 1801 C 171.583 1.49342 1.21304 0
M  V30 1802 O 170.876 0.670699 1.79478 0
M  V30 1803 C 171.07 3.5729 -0.0887327 0
M  V30 1804 C 170.899 4.2575 -1.44799 0
M  V30 1805 C 169.669 4.62443 -2.03653 0
M  V30 1806 C 171.867 4.55746 -2.38327 0
M  V30 1807 N 169.849 5.15903 -3.32741 0
M  V30 1808 C 171.22 5.10364 -3.52036 0
M  V30 1809 C 173.275 4.37703 -2.3732 0
M  V30 1810 C 171.978 5.48837 -4.64941 0
M  V30 1811 C 174.004 4.77229 -3.49294 0
M  V30 1812 C 173.366 5.31966 -4.61726 0
M  V30 1813 H 169.465 0.775519 -0.100466 0
M  V30 1814 H 172.049 1.755 -0.843071 0
M  V30 1815 H 170.22 3.84201 0.569548 0
M  V30 1816 H 171.952 4.02671 0.404711 0
M  V30 1817 H 168.707 4.46987 -1.56523 0
M  V30 1818 H 169.131 5.47102 -3.98758 0
M  V30 1819 H 173.773 3.94671 -1.51641 0
M  V30 1820 H 171.491 5.9082 -5.51323 0
M  V30 1821 H 175.077 4.64976 -3.49698 0
M  V30 1822 H 173.957 5.61986 -5.46939 0
M  V30 1823 N 171.46 0.379036 1.52974 0
M  V30 1824 C 172.706 -0.206727 2.01744 0
M  V30 1825 C 173.039 -1.47314 1.26539 0
M  V30 1826 O 172.314 -1.91084 0.362903 0
M  V30 1827 C 172.597 -0.485066 3.56818 0
M  V30 1828 C 172.45 0.795919 4.42702 0
M  V30 1829 C 173.769 -1.28003 4.21074 0
M  V30 1830 H 170.888 -0.0736607 0.73331 0
M  V30 1831 H 173.53 0.506581 1.83122 0
M  V30 1832 H 171.68 -1.09272 3.72816 0
M  V30 1833 H 173.352 1.43307 4.38476 0
M  V30 1834 H 171.595 1.41344 4.10127 0
M  V30 1835 H 172.266 0.555947 5.49193 0
M  V30 1836 H 174.742 -0.765867 4.08991 0
M  V30 1837 H 173.618 -1.44352 5.29579 0
M  V30 1838 H 173.879 -2.29236 3.78026 0
M  V30 1839 N 172.938 -1.57226 0.108567 0
M  V30 1840 C 174.185 -1.94833 -0.551943 0
M  V30 1841 C 174.513 -0.991204 -1.67348 0
M  V30 1842 O 173.768 -0.0131878 -1.95696 0
M  V30 1843 C 174.067 -3.38911 -1.13463 0
M  V30 1844 C 173.733 -4.50696 -0.135509 0
M  V30 1845 C 172.395 -4.80998 0.139252 0
M  V30 1846 C 174.747 -5.18333 0.545957 0
M  V30 1847 C 172.075 -5.76259 1.10194 0
M  V30 1848 C 174.427 -6.14627 1.49721 0
M  V30 1849 C 173.091 -6.43327 1.78006 0
M  V30 1850 H 172.361 -0.712944 -0.20197 0
M  V30 1851 H 175.008 -1.90582 0.18726 0
M  V30 1852 H 173.313 -3.39805 -1.95037 0
M  V30 1853 H 175.01 -3.65317 -1.65362 0
M  V30 1854 H 171.6 -4.27087 -0.359846 0
M  V30 1855 H 175.784 -4.95087 0.346842 0
M  V30 1856 H 171.04 -5.96804 1.32795 0
M  V30 1857 H 175.214 -6.66126 2.03099 0
M  V30 1858 H 172.841 -7.1695 2.52759 0
M  V30 1859 N 174.416 0.165178 -1.56732 0
M  V30 1860 C 175.363 1.2044 -1.96883 0
M  V30 1861 C 176.333 1.43664 -0.833657 0
M  V30 1862 O 177.518 1.56302 -1.09427 0
M  V30 1863 C 174.658 2.53727 -2.33916 0
M  V30 1864 C 173.771 2.3783 -3.6064 0
M  V30 1865 C 172.906 3.64026 -3.86857 0
M  V30 1866 C 171.945 3.43088 -5.06909 0
M  V30 1867 N 171.082 4.61369 -5.29229 0
M  V30 1868 H 175.922 0.854996 -2.85471 0
M  V30 1869 H 173.459 0.41076 -1.41249 0
M  V30 1870 H 175.417 3.31419 -2.53411 0
M  V30 1871 H 174.047 2.8665 -1.48431 0
M  V30 1872 H 173.099 1.51282 -3.49024 0
M  V30 1873 H 174.411 2.18308 -4.4849 0
M  V30 1874 H 173.565 4.50152 -4.06753 0
M  V30 1875 H 172.304 3.86533 -2.97394 0
M  V30 1876 H 171.309 2.55349 -4.86906 0
M  V30 1877 H 172.534 3.21997 -5.97909 0
M  V30 1878 H 170.48 4.84084 -4.42718 0
M  V30 1879 H 170.397 4.44783 -6.11313 0
M  V30 1880 H 171.665 5.48761 -5.53608 0
M  V30 1881 N 175.894 1.51508 0.433938 0
M  V30 1882 C 176.804 1.75917 1.5521 0
M  V30 1883 C 177.82 0.643545 1.61662 0
M  V30 1884 O 178.996 0.926183 1.7884 0
M  V30 1885 C 176.061 1.88213 2.91164 0
M  V30 1886 C 175.122 3.12074 2.94802 0
M  V30 1887 C 174.355 3.23774 4.24271 0
M  V30 1888 O 174.578 2.4133 5.16833 0
M  V30 1889 O 173.512 4.16774 4.34262 0
M  V30 1890 H 177.338 2.70777 1.37527 0
M  V30 1891 H 174.923 1.36051 0.617293 0
M  V30 1892 H 176.805 1.98267 3.71845 0
M  V30 1893 H 175.48 0.965413 3.08968 0
M  V30 1894 H 174.387 3.07497 2.13065 0
M  V30 1895 H 175.72 4.03446 2.81943 0
M  V30 1896 N 177.372 -0.689602 1.41712 0
M  V30 1897 C 178.282 -1.83314 1.46401 0
M  V30 1898 C 179.298 -1.7036 0.35405 0
M  V30 1899 O 180.474 -1.92171 0.602692 0
M  V30 1900 C 177.539 -3.19344 1.34982 0
M  V30 1901 C 176.6 -3.44363 2.56344 0
M  V30 1902 C 175.833 -4.73904 2.45461 0
M  V30 1903 O 176.056 -5.508 1.48241 0
M  V30 1904 O 174.99 -4.99839 3.35328 0
M  V30 1905 H 178.816 -1.82314 2.42889 0
M  V30 1906 H 176.401 -0.843438 1.23315 0
M  V30 1907 H 178.283 -4.00547 1.3092 0
M  V30 1908 H 176.958 -3.21014 0.41612 0
M  V30 1909 H 175.865 -2.63067 2.65982 0
M  V30 1910 H 177.198 -3.47512 3.48563 0
M  V30 1911 N 178.85 -1.27639 -0.924453 0
M  V30 1912 C 180.127 -1.04887 -1.651 0
M  V30 1913 C 180.507 0.415327 -2.06974 0
M  V30 1914 O 179.855 1.39923 -1.80648 0
M  V30 1915 C 180.065 -2.01348 -2.85061 0
M  V30 1916 C 181.413 -2.30899 -3.56329 0
M  V30 1917 O 182.437 -1.99348 -2.95193 0
M  V30 1918 O 181.296 -2.84699 -4.66485 0
M  V30 1919 H 178.39 -0.400083 -0.723784 0
M  V30 1920 H 180.936 -1.38916 -0.974703 0
M  V30 1921 H 179.708 -3.0008 -2.51133 0
M  V30 1922 H 179.331 -1.679 -3.6041 0
M  V30 1923 N 180.328 1.1314 -1.09713 0
M  V30 1924 C 181.739 1.66029 -0.853885 0
M  V30 1925 C 182.09 1.86241 0.617142 0
M  V30 1926 O 181.215 1.5834 1.47503 0
M  V30 1927 C 181.81 3.01599 -1.5435 0
M  V30 1928 C 180.369 3.51467 -1.34714 0
M  V30 1929 C 179.516 2.26648 -1.59769 0
M  V30 1930 H 182.467 0.970226 -1.25588 0
M  V30 1931 H 182.488 3.67709 -0.978267 0
M  V30 1932 H 182 2.86856 -2.6141 0
M  V30 1933 H 180.101 3.71408 -0.297838 0
M  V30 1934 H 180.214 4.314 -2.08401 0
M  V30 1935 H 178.578 2.33385 -1.01998 0
M  V30 1936 H 179.361 2.14467 -2.68065 0
M  V30 1937 N 181.806 0.884767 1.30421 0
M  V30 1938 C 183.055 0.499164 1.95426 0
M  V30 1939 C 183.368 -0.95645 1.70621 0
M  V30 1940 O 184.574 -1.44889 2.29607 0
M  V30 1941 C 183.03 0.84177 3.49917 0
M  V30 1942 C 182.638 2.31514 3.83543 0
M  V30 1943 C 184.382 0.525355 4.21237 0
M  V30 1944 C 182.289 2.59939 5.31212 0
M  V30 1945 H 181.219 0.182944 0.73147 0
M  V30 1946 H 183.87 1.07971 1.48373 0
M  V30 1947 H 182.252 0.190311 3.95542 0
M  V30 1948 H 183.426 3.0109 3.48829 0
M  V30 1949 H 181.741 2.59907 3.25326 0
M  V30 1950 H 184.338 0.714762 5.29901 0
M  V30 1951 H 184.681 -0.535222 4.12845 0
M  V30 1952 H 185.214 1.134 3.81294 0
M  V30 1953 H 181.953 3.64736 5.44654 0
M  V30 1954 H 181.473 1.94972 5.67227 0
M  V30 1955 H 183.152 2.45429 5.98643 0
M  V30 1956 N 183.284 -1.43765 0.645699 0
M  V30 1957 C 184.234 -2.27884 -0.0726442 0
M  V30 1958 C 185.218 -1.39483 -0.802086 0
M  V30 1959 O 186.41 -1.63174 -0.685791 0
M  V30 1960 C 183.539 -3.27055 -1.04356 0
M  V30 1961 C 182.625 -4.22944 -0.312985 0
M  V30 1962 N 183.016 -5.01391 0.666386 0
M  V30 1963 C 181.314 -4.42528 -0.55546 0
M  V30 1964 C 182.015 -5.71217 1.09935 0
M  V30 1965 N 180.991 -5.41856 0.435137 0
M  V30 1966 H 184.793 -2.85949 0.678988 0
M  V30 1967 H 182.307 -1.55378 0.472368 0
M  V30 1968 H 184.304 -3.86089 -1.57292 0
M  V30 1969 H 182.964 -2.70551 -1.79534 0
M  V30 1970 H 183.975 -5.07252 1.04481 0
M  V30 1971 H 180.652 -3.97104 -1.28899 0
M  V30 1972 H 182.042 -6.44202 1.90929 0
M  V30 1973 N 184.763 -0.387143 -1.52771 0
M  V30 1974 C 185.693 0.440551 -2.29306 0
M  V30 1975 C 186.674 1.06535 -1.32606 0
M  V30 1976 O 187.859 1.07853 -1.61497 0
M  V30 1977 C 184.989 1.56919 -3.09829 0
M  V30 1978 C 183.943 1.07054 -4.14395 0
M  V30 1979 C 183.269 2.29109 -4.83129 0
M  V30 1980 C 184.569 0.140015 -5.22112 0
M  V30 1981 H 186.263 -0.198026 -2.98744 0
M  V30 1982 H 183.809 -0.09668 -1.43675 0
M  V30 1983 H 185.762 2.15503 -3.62128 0
M  V30 1984 H 184.486 2.23532 -2.3812 0
M  V30 1985 H 183.145 0.507247 -3.63074 0
M  V30 1986 H 182.793 2.94227 -4.0797 0
M  V30 1987 H 182.493 1.96406 -5.53804 0
M  V30 1988 H 184.017 2.88339 -5.38231 0
M  V30 1989 H 185.431 0.633978 -5.69784 0
M  V30 1990 H 183.828 -0.0971485 -6.00021 0
M  V30 1991 H 184.898 -0.811711 -4.78058 0
M  V30 1992 N 186.241 1.57166 -0.116904 0
M  V30 1993 C 187.657 1.5779 0.239693 0
M  V30 1994 C 187.857 1.1295 1.66867 0
M  V30 1995 O 186.913 0.81592 2.38954 0
M  V30 1996 C 188.226 3.00699 0.00828202 0
M  V30 1997 C 189.774 3.12912 0.0743438 0
M  V30 1998 C 190.249 4.57817 -0.129348 0
M  V30 1999 N 191.74 4.63139 -0.075247 0
M  V30 2000 C 192.475 5.73023 -0.207788 0
M  V30 2001 N 191.971 6.91665 -0.396382 0
M  V30 2002 N 193.764 5.61906 -0.14751 0
M  V30 2003 H 185.915 1.84615 -1.05029 0
M  V30 2004 H 188.178 0.85311 -0.41341 0
M  V30 2005 H 187.884 3.37784 -0.979531 0
M  V30 2006 H 187.758 3.69848 0.741077 0
M  V30 2007 H 190.145 2.75686 1.05268 0
M  V30 2008 H 190.226 2.4631 -0.690297 0
M  V30 2009 H 189.87 4.95742 -1.10465 0
M  V30 2010 H 189.8 5.22507 0.655253 0
M  V30 2011 H 192.291 3.7784 0.0670898 0
M  V30 2012 H 192.604 7.71255 -0.488437 0
M  V30 2013 H 190.949 6.93654 -0.432329 0
M  V30 2014 H 194.14 4.681 -0.00115036 0
M  V30 2015 H 194.313 6.47501 -0.254247 0
M  V30 2016 N 187.719 -0.156864 1.56817 0
M  V30 2017 C 188.959 -0.877453 1.84608 0
M  V30 2018 C 189.323 -1.78791 0.699845 0
M  V30 2019 O 190.524 -2.5472 0.858553 0
M  V30 2020 C 188.795 -1.63992 3.17555 0
M  V30 2021 S 190.354 -2.40729 3.66872 0
M  V30 2022 H 187.172 -0.293612 0.647544 0
M  V30 2023 H 189.774 -0.138099 1.95012 0
M  V30 2024 H 188.478 -0.962363 3.98957 0
M  V30 2025 H 188.009 -2.42038 3.10131 0
M  V30 2026 H 190.024 -3.65725 3.3535 0
M  V30 2027 N 189.197 -1.51736 -0.425897 0
M  V30 2028 C 190.147 -1.70258 -1.51645 0
M  V30 2029 C 191.131 -0.556488 -1.5097 0
M  V30 2030 O 192.323 -0.812879 -1.5723 0
M  V30 2031 C 189.452 -1.84143 -2.89735 0
M  V30 2032 C 188.538 -3.04572 -2.95122 0
M  V30 2033 N 188.929 -4.2756 -2.70233 0
M  V30 2034 C 187.227 -3.04061 -3.26286 0
M  V30 2035 C 187.928 -5.08908 -2.81757 0
M  V30 2036 N 186.904 -4.43797 -3.13919 0
M  V30 2037 H 190.706 -2.63004 -1.31172 0
M  V30 2038 H 188.22 -1.4954 -0.633375 0
M  V30 2039 H 190.217 -1.95525 -3.68206 0
M  V30 2040 H 188.877 -0.925857 -3.1122 0
M  V30 2041 H 189.888 -4.56315 -2.44943 0
M  V30 2042 H 186.565 -2.22179 -3.53473 0
M  V30 2043 H 187.955 -6.16843 -2.66372 0
M  V30 2044 N 190.675 0.682077 -1.42076 0
M  V30 2045 C 191.9 1.47558 -1.45744 0
M  V30 2046 C 192.325 1.87977 -0.0680981 0
M  V30 2047 O 191.683 1.55522 0.9318 0
M  V30 2048 C 191.731 2.70575 -2.38373 0
M  V30 2049 O 190.835 3.68573 -1.85007 0
M  V30 2050 H 190.176 0.443585 -0.494093 0
M  V30 2051 H 192.706 0.837238 -1.86686 0
M  V30 2052 H 192.716 3.18729 -2.54707 0
M  V30 2053 H 191.391 2.40495 -3.39315 0
M  V30 2054 H 189.968 3.2757 -1.78192 0
M  V30 2055 N 192.153 1.28127 0.917671 0
M  V30 2056 C 193.399 1.16232 1.66918 0
M  V30 2057 C 193.754 -0.28701 1.90247 0
M  V30 2058 O 193.047 -1.20586 1.48895 0
M  V30 2059 C 193.241 1.89018 3.03327 0
M  V30 2060 C 193.07 3.4088 2.9331 0
M  V30 2061 C 191.84 4.10214 2.95047 0
M  V30 2062 C 194.038 4.36689 2.71675 0
M  V30 2063 N 192.02 5.48571 2.75577 0
M  V30 2064 C 193.391 5.62382 2.6101 0
M  V30 2065 C 195.446 4.26661 2.56641 0
M  V30 2066 C 194.149 6.79189 2.36843 0
M  V30 2067 C 196.175 5.432 2.33853 0
M  V30 2068 C 195.537 6.67855 2.23939 0
M  V30 2069 H 191.636 0.48024 0.617166 0
M  V30 2070 H 194.22 1.61727 1.08409 0
M  V30 2071 H 192.391 1.45963 3.59929 0
M  V30 2072 H 194.123 1.69541 3.67475 0
M  V30 2073 H 190.878 3.61762 3.05655 0
M  V30 2074 H 191.302 6.21287 2.68945 0
M  V30 2075 H 195.944 3.30998 2.63059 0
M  V30 2076 H 193.662 7.74926 2.29164 0
M  V30 2077 H 197.248 5.37328 2.23091 0
M  V30 2078 H 196.128 7.56511 2.06546 0
M  V30 2079 N 193.631 -1.12557 1.10312 0
M  V30 2080 C 194.578 -2.18247 0.750781 0
M  V30 2081 C 195.548 -1.63853 -0.272293 0
M  V30 2082 O 196.733 -1.90195 -0.151862 0
M  V30 2083 C 193.873 -3.44591 0.187379 0
M  V30 2084 C 192.986 -4.13046 1.2656 0
M  V30 2085 C 192.121 -5.27034 0.663978 0
M  V30 2086 C 191.16 -5.87353 1.72287 0
M  V30 2087 N 190.297 -6.92757 1.1416 0
M  V30 2088 H 195.137 -2.47732 1.65628 0
M  V30 2089 H 192.674 -1.21629 0.827337 0
M  V30 2090 H 194.632 -4.16904 -0.157148 0
M  V30 2091 H 193.262 -3.15527 -0.681355 0
M  V30 2092 H 192.314 -3.38924 1.72727 0
M  V30 2093 H 193.626 -4.53947 2.06721 0
M  V30 2094 H 192.78 -6.06104 0.268824 0
M  V30 2095 H 191.519 -4.87407 -0.169082 0
M  V30 2096 H 190.524 -5.06971 2.12746 0
M  V30 2097 H 191.749 -6.29051 2.55875 0
M  V30 2098 H 189.695 -6.5517 0.329984 0
M  V30 2099 H 189.612 -7.3225 1.88007 0
M  V30 2100 H 190.88 -7.75658 0.772956 0
M  V30 2101 N 195.109 -0.891671 -1.2995 0
M  V30 2102 C 196.057 -0.353066 -2.29905 0
M  V30 2103 C 197.051 0.543509 -1.60444 0
M  V30 2104 O 198.257 0.4272 -1.74857 0
M  V30 2105 H 194.632 -0.095531 -0.745907 0
M  V30 2106 H 196.603 -1.20961 -2.72784 0
M  V30 2107 C 195.352 0.411475 -3.45257 0
M  V30 2108 H 194.675 -0.269182 -3.98893 0
M  V30 2109 H 196.115 0.753328 -4.17254 0
M  V30 2110 C 194.574 1.6111 -2.9588 0
M  V30 2111 O 195.104 2.71045 -2.96475 0
M  V30 2112 N 193.31 1.45054 -2.51809 0
M  V30 2113 H 192.857 0.556175 -2.51524 0
M  V30 2114 H 192.815 2.25453 -2.1913 0
M  V30 2115 N 196.587 1.43421 -0.653314 0
M  V30 2116 C 197.815 2.06163 -0.174491 0
M  V30 2117 C 198.23 1.48969 1.1599 0
M  V30 2118 O 197.587 0.621042 1.71608 0
M  V30 2119 C 197.638 3.61417 -0.0774865 0
M  V30 2120 O 197.359 4.16485 -1.35912 0
M  V30 2121 C 198.86 4.41235 0.427402 0
M  V30 2122 H 196.08 0.664946 -0.0899353 0
M  V30 2123 H 198.624 1.83924 -0.893988 0
M  V30 2124 H 196.779 3.82841 0.59257 0
M  V30 2125 H 197.193 5.10153 -1.21839 0
M  V30 2126 H 198.667 5.5021 0.44423 0
M  V30 2127 H 199.144 4.14268 1.45873 0
M  V30 2128 H 199.75 4.2478 -0.210167 0
M  V30 2129 N 198.065 0.39524 1.52563 0
M  V30 2130 C 199.028 -0.425001 2.25225 0
M  V30 2131 C 200.028 -0.985266 1.27079 0
M  V30 2132 O 201.218 -0.866332 1.5113 0
M  V30 2133 C 198.35 -1.59686 3.01186 0
M  V30 2134 H 199.543 0.211233 2.99155 0
M  V30 2135 H 197.096 0.147472 1.55603 0
M  V30 2136 H 197.831 -2.27035 2.31572 0
M  V30 2137 H 197.616 -1.20176 3.73229 0
M  V30 2138 H 199.106 -2.17743 3.5634 0
M  V30 2139 N 199.544 -1.57102 0.125237 0
M  V30 2140 C 200.474 -2.18659 -0.819174 0
M  V30 2141 C 201.455 -1.12843 -1.27281 0
M  V30 2142 O 202.64 -1.41104 -1.33429 0
M  V30 2143 C 199.77 -2.79096 -2.06695 0
M  V30 2144 C 198.724 -3.90548 -1.75088 0
M  V30 2145 C 198.05 -4.37821 -3.06948 0
M  V30 2146 C 199.35 -5.12356 -1.01435 0
M  V30 2147 H 201.044 -2.9783 -0.306202 0
M  V30 2148 H 198.59 -1.4326 -0.145839 0
M  V30 2149 H 200.543 -3.2082 -2.73226 0
M  V30 2150 H 199.267 -1.97223 -2.60328 0
M  V30 2151 H 197.926 -3.49409 -1.10944 0
M  V30 2152 H 197.574 -3.52799 -3.58527 0
M  V30 2153 H 197.274 -5.12982 -2.86571 0
M  V30 2154 H 198.798 -4.822 -3.74587 0
M  V30 2155 H 200.212 -5.5106 -1.58132 0
M  V30 2156 H 198.609 -5.9314 -0.911319 0
M  V30 2157 H 199.679 -4.849 -0.00218681 0
M  V30 2158 N 201.022 0.148545 -1.56898 0
M  V30 2159 C 201.972 1.1886 -1.94567 0
M  V30 2160 C 202.956 1.3863 -0.816735 0
M  V30 2161 O 204.148 1.40218 -1.08018 0
M  V30 2162 C 201.277 2.52262 -2.32849 0
M  V30 2163 C 200.363 2.36092 -3.52309 0
M  V30 2164 N 200.754 1.89674 -4.6889 0
M  V30 2165 C 199.052 2.66848 -3.57363 0
M  V30 2166 C 199.753 1.86511 -5.50989 0
M  V30 2167 N 198.729 2.29766 -4.92655 0
M  V30 2168 H 202.531 0.821793 -2.82177 0
M  V30 2169 H 200.045 0.356615 -1.58436 0
M  V30 2170 H 202.042 3.27447 -2.58039 0
M  V30 2171 H 200.702 2.89727 -1.46589 0
M  V30 2172 H 201.713 1.59663 -4.92674 0
M  V30 2173 H 198.39 3.08198 -2.81639 0
M  V30 2174 H 199.78 1.52128 -6.54452 0
M  V30 2175 N 202.5 1.5196 0.417844 0
M  V30 2176 C 203.447 1.74678 1.50852 0
M  V30 2177 C 204.417 0.588947 1.55308 0
M  V30 2178 O 205.602 0.825544 1.72016 0
M  V30 2179 C 202.742 1.89544 2.88387 0
M  V30 2180 C 201.855 3.17166 2.93309 0
M  V30 2181 C 200.99 3.22513 4.22088 0
M  V30 2182 C 200.029 4.44372 4.20951 0
M  V30 2183 N 199.166 4.47161 5.41287 0
M  V30 2184 H 204.006 2.67768 1.30783 0
M  V30 2185 H 201.543 1.32689 0.63498 0
M  V30 2186 H 203.501 1.96146 3.68216 0
M  V30 2187 H 202.131 0.998424 3.06971 0
M  V30 2188 H 201.183 3.19778 2.06024 0
M  V30 2189 H 202.495 4.07021 2.88332 0
M  V30 2190 H 201.649 3.28139 5.10303 0
M  V30 2191 H 200.388 2.30581 4.29748 0
M  V30 2192 H 199.393 4.38902 3.31127 0
M  V30 2193 H 200.618 5.3759 4.14938 0
M  V30 2194 H 198.564 3.58108 5.49632 0
M  V30 2195 H 198.481 5.3085 5.3827 0
M  V30 2196 H 199.749 4.57005 6.3148 0
M  V30 2197 N 203.978 -0.674533 1.42435 0
M  V30 2198 C 205.224 -1.43671 1.43131 0
M  V30 2199 C 205.557 -1.94142 0.0476021 0
M  V30 2200 O 204.832 -1.70924 -0.928188 0
M  V30 2201 C 205.115 -2.63355 2.45594 0
M  V30 2202 C 204.968 -2.18514 3.93156 0
M  V30 2203 C 206.287 -3.65571 2.45043 0
M  V30 2204 H 203.406 -0.521077 0.521198 0
M  V30 2205 H 206.048 -0.766551 1.7385 0
M  V30 2206 H 204.198 -3.2053 2.19528 0
M  V30 2207 H 205.87 -1.66504 4.30202 0
M  V30 2208 H 204.113 -1.50086 4.07009 0
M  V30 2209 H 204.784 -3.04484 4.60428 0
M  V30 2210 H 207.26 -3.18113 2.68223 0
M  V30 2211 H 206.136 -4.46893 3.18713 0
M  V30 2212 H 206.397 -4.16716 1.47649 0
M  V30 2213 N 205.456 -1.28612 -0.910864 0
M  V30 2214 C 206.684 -1.18792 -1.69399 0
M  V30 2215 C 207.099 0.253039 -1.87097 0
M  V30 2216 O 206.456 1.17071 -1.40003 0
M  V30 2217 C 206.507 -1.88511 -3.08457 0
M  V30 2218 O 206.228 -3.26979 -2.91576 0
M  V30 2219 C 207.729 -1.85029 -4.02839 0
M  V30 2220 H 204.949 -0.412233 -0.529438 0
M  V30 2221 H 207.493 -1.69788 -1.13984 0
M  V30 2222 H 205.648 -1.41379 -3.60681 0
M  V30 2223 H 206.062 -3.61936 -3.79608 0
M  V30 2224 H 207.536 -2.38395 -4.97867 0
M  V30 2225 H 208.013 -0.823303 -4.31414 0
M  V30 2226 H 208.619 -2.31853 -3.56545 0
M  V30 2227 N 206.934 1.1197 -1.10907 0
M  V30 2228 C 208.164 1.8713 -0.875553 0
M  V30 2229 C 208.572 1.8016 0.577843 0
M  V30 2230 O 207.915 1.17699 1.41042 0
M  V30 2231 C 207.977 3.37005 -1.2517 0
M  V30 2232 C 207.641 3.67748 -2.71313 0
M  V30 2233 C 208.638 3.65698 -3.69542 0
M  V30 2234 C 206.323 3.96928 -3.07821 0
M  V30 2235 C 208.317 3.92395 -5.023 0
M  V30 2236 C 206.004 4.23284 -4.40765 0
M  V30 2237 C 207.002 4.21005 -5.37814 0
M  V30 2238 O 206.69 4.46704 -6.68364 0
M  V30 2239 H 206.422 0.598786 -0.313737 0
M  V30 2240 H 208.976 1.42568 -1.47863 0
M  V30 2241 H 207.206 3.82146 -0.591741 0
M  V30 2242 H 208.895 3.93519 -0.994877 0
M  V30 2243 H 209.661 3.43211 -3.42682 0
M  V30 2244 H 205.54 3.97841 -2.32902 0
M  V30 2245 H 209.084 3.90531 -5.78041 0
M  V30 2246 H 204.981 4.45246 -4.67361 0
M  V30 2247 H 205.749 4.64299 -6.74069 0
M  V30 2248 N 208.412 0.89855 1.29475 0
M  V30 2249 C 209.342 0.39201 2.30186 0
M  V30 2250 C 210.323 -0.532359 1.61555 0
M  V30 2251 O 211.508 -0.443331 1.89072 0
M  V30 2252 C 208.638 -0.382353 3.45189 0
M  V30 2253 C 207.592 0.451483 4.25612 0
M  V30 2254 C 206.918 -0.450307 5.328 0
M  V30 2255 C 208.218 1.70079 4.93832 0
M  V30 2256 H 209.912 1.23362 2.72804 0
M  V30 2257 H 207.458 0.594638 1.31149 0
M  V30 2258 H 209.411 -0.747451 4.14718 0
M  V30 2259 H 208.135 -1.25774 3.01411 0
M  V30 2260 H 206.794 0.798897 3.57789 0
M  V30 2261 H 206.442 -1.32379 4.85268 0
M  V30 2262 H 206.142 0.103902 5.87508 0
M  V30 2263 H 207.666 -0.811623 6.05182 0
M  V30 2264 H 209.08 1.40549 5.55805 0
M  V30 2265 H 207.477 2.19623 5.58467 0
M  V30 2266 H 208.547 2.43744 4.19186 0
M  V30 2267 N 209.89 -1.43072 0.660911 0
M  V30 2268 C 210.822 -2.29108 -0.0647641 0
M  V30 2269 C 211.835 -1.42928 -0.779448 0
M  V30 2270 O 213.024 -1.66788 -0.635921 0
M  V30 2271 C 210.124 -3.20032 -1.11503 0
M  V30 2272 C 209.297 -4.34792 -0.476955 0
M  V30 2273 C 208.356 -5.06534 -1.42513 0
M  V30 2274 O 207.382 -5.61538 -0.930771 0
M  V30 2275 N 208.584 -5.1075 -2.75889 0
M  V30 2276 H 211.349 -2.92029 0.673731 0
M  V30 2277 H 208.91 -1.53846 0.50427 0
M  V30 2278 H 210.902 -3.64892 -1.75032 0
M  V30 2279 H 209.472 -2.58658 -1.75541 0
M  V30 2280 H 208.692 -3.92752 0.337572 0
M  V30 2281 H 209.98 -5.0879 -0.0318525 0
M  V30 2282 H 209.378 -4.67447 -3.18606 0
M  V30 2283 H 207.935 -5.59302 -3.347 0
M  V30 2284 N 211.368 -0.403325 -1.52352 0
M  V30 2285 C 212.316 0.439752 -2.28405 0
M  V30 2286 C 213.31 1.05089 -1.32863 0
M  V30 2287 O 214.516 0.989759 -1.50345 0
M  V30 2288 H 210.891 0.160587 -0.734653 0
M  V30 2289 H 212.862 -0.222983 -2.97566 0
M  V30 2290 C 211.611 1.54736 -3.11371 0
M  V30 2291 H 210.934 1.08643 -3.84755 0
M  V30 2292 H 212.374 2.1112 -3.67701 0
M  V30 2293 C 210.833 2.51141 -2.24566 0
M  V30 2294 O 211.363 3.54887 -1.88196 0
M  V30 2295 N 209.569 2.21213 -1.8845 0
M  V30 2296 H 209.116 1.36878 -2.18225 0
M  V30 2297 H 209.074 2.85963 -1.30662 0
M  V30 2298 N 212.846 1.57033 -0.133567 0
M  V30 2299 C 214.094 1.953 0.519848 0
M  V30 2300 C 214.415 1.01866 1.66278 0
M  V30 2301 O 213.685 0.0776513 1.95746 0
M  V30 2302 H 212.265 0.721091 0.195032 0
M  V30 2303 H 214.927 1.93809 -0.205921 0
M  V30 2304 H 214.023 2.98695 0.904854 0
M  V30 2305 N 214.325 -0.140222 1.56975 0
M  V30 2306 C 215.272 -1.17292 1.98774 0
M  V30 2307 C 216.242 -1.4232 0.856408 0
M  V30 2308 O 217.427 -1.54541 1.119 0
M  V30 2309 C 214.567 -2.49973 2.37923 0
M  V30 2310 C 213.68 -2.32062 3.64378 0
M  V30 2311 C 212.815 -3.57825 3.926 0
M  V30 2312 C 211.854 -3.3498 5.12303 0
M  V30 2313 N 210.991 -4.52891 5.36502 0
M  V30 2314 H 215.831 -0.809472 2.86795 0
M  V30 2315 H 213.368 -0.388237 1.41884 0
M  V30 2316 H 215.326 -3.27346 2.58652 0
M  V30 2317 H 213.956 -2.84252 1.52972 0
M  V30 2318 H 213.008 -1.45711 3.51387 0
M  V30 2319 H 214.32 -2.11145 4.51906 0
M  V30 2320 H 213.474 -4.43624 4.13863 0
M  V30 2321 H 212.213 -3.81753 3.03506 0
M  V30 2322 H 211.218 -2.4757 4.90906 0
M  V30 2323 H 212.443 -3.12444 6.02956 0
M  V30 2324 H 210.389 -4.76979 4.50363 0
M  V30 2325 H 210.306 -4.35001 6.18312 0
M  V30 2326 H 211.574 -5.39884 5.62268 0
M  V30 2327 N 215.803 -1.52179 -0.40978 0
M  V30 2328 C 217.08 -1.56769 -1.16974 0
M  V30 2329 C 217.46 -0.348322 -2.08206 0
M  V30 2330 O 216.808 0.664862 -2.18613 0
M  V30 2331 C 217.018 -2.89603 -1.9476 0
M  V30 2332 C 218.366 -3.42579 -2.50849 0
M  V30 2333 O 219.39 -2.91338 -2.04941 0
M  V30 2334 O 218.249 -4.32054 -3.34652 0
M  V30 2335 H 215.343 -0.631439 -0.534054 0
M  V30 2336 H 217.889 -1.64507 -0.416613 0
M  V30 2337 H 216.661 -3.698 -1.27921 0
M  V30 2338 H 216.284 -2.85155 -2.77079 0
M  V30 2339 N 217.281 0.66697 -1.42791 0
M  V30 2340 C 218.697 0.981027 -1.25889 0
M  V30 2341 C 218.897 2.00793 -0.168695 0
M  V30 2342 O 217.953 2.48321 0.45747 0
M  V30 2343 C 219.266 1.47838 -2.61848 0
M  V30 2344 C 220.814 1.59575 -2.69267 0
M  V30 2345 C 221.289 2.12704 -4.05612 0
M  V30 2346 N 222.78 2.20026 -4.07606 0
M  V30 2347 C 223.515 2.62227 -5.09926 0
M  V30 2348 N 223.011 3.03824 -6.22626 0
M  V30 2349 N 224.804 2.62045 -4.97281 0
M  V30 2350 H 216.955 -0.0127891 -2.12396 0
M  V30 2351 H 219.218 0.0568258 -0.946295 0
M  V30 2352 H 218.924 0.798299 -3.4252 0
M  V30 2353 H 218.798 2.45579 -2.86305 0
M  V30 2354 H 221.185 2.26687 -1.88936 0
M  V30 2355 H 221.266 0.60302 -2.48591 0
M  V30 2356 H 220.91 1.46198 -4.86404 0
M  V30 2357 H 220.84 3.12782 -4.23645 0
M  V30 2358 H 223.331 1.90708 -3.2625 0
M  V30 2359 H 223.644 3.34734 -6.96544 0
M  V30 2360 H 221.989 3.01662 -6.26119 0
M  V30 2361 H 225.18 2.28916 -4.08308 0
M  V30 2362 H 225.353 2.94613 -5.77154 0
M  V30 2363 N 218.759 1.29093 0.90403 0
M  V30 2364 C 219.706 1.13853 2.00764 0
M  V30 2365 C 220.676 0.0330084 1.66067 0
M  V30 2366 O 221.861 0.199733 1.89752 0
M  V30 2367 C 219.001 0.816537 3.35301 0
M  V30 2368 C 218.114 2.00206 3.82807 0
M  V30 2369 C 217.249 1.61983 5.059 0
M  V30 2370 C 216.288 2.77143 5.45764 0
M  V30 2371 N 215.425 2.39346 6.60044 0
M  V30 2372 H 220.265 2.08276 2.13132 0
M  V30 2373 H 217.802 1.03648 1.04381 0
M  V30 2374 H 219.76 0.610557 4.12708 0
M  V30 2375 H 218.39 -0.090779 3.22672 0
M  V30 2376 H 217.442 2.31988 3.01473 0
M  V30 2377 H 218.754 2.86512 4.08304 0
M  V30 2378 H 217.908 1.37649 5.90879 0
M  V30 2379 H 216.647 0.728202 4.82233 0
M  V30 2380 H 215.652 3.02165 4.59322 0
M  V30 2381 H 216.877 3.66964 5.71414 0
M  V30 2382 H 214.823 1.52665 6.37989 0
M  V30 2383 H 214.74 3.19185 6.85315 0
M  V30 2384 H 216.008 2.1832 7.48303 0
M  V30 2385 N 220.237 -1.11381 1.11499 0
M  V30 2386 C 221.467 -1.86663 0.885464 0
M  V30 2387 C 221.875 -1.80464 -0.568281 0
M  V30 2388 O 221.218 -1.18445 -1.40415 0
M  V30 2389 C 221.28 -3.36337 1.26956 0
M  V30 2390 C 220.944 -3.66304 2.73259 0
M  V30 2391 C 221.941 -3.63733 3.71476 0
M  V30 2392 C 219.626 -3.9529 3.09921 0
M  V30 2393 C 221.62 -3.89725 5.04374 0
M  V30 2394 C 219.307 -4.20941 4.43004 0
M  V30 2395 C 220.305 -4.18147 5.40039 0
M  V30 2396 O 219.993 -4.43153 6.70724 0
M  V30 2397 H 219.725 -0.597114 0.316908 0
M  V30 2398 H 222.279 -1.41782 1.48617 0
M  V30 2399 H 220.509 -3.81826 0.611999 0
M  V30 2400 H 222.198 -3.92986 1.01573 0
M  V30 2401 H 222.964 -3.41389 3.44498 0
M  V30 2402 H 218.843 -3.966 2.35009 0
M  V30 2403 H 222.387 -3.8746 5.80104 0
M  V30 2404 H 218.284 -4.42761 4.69716 0
M  V30 2405 H 219.052 -4.60717 6.76522 0
M  V30 2406 N 221.715 -0.905404 -1.28997 0
M  V30 2407 C 222.962 -0.534248 -1.95325 0
M  V30 2408 C 223.29 0.920535 -1.71337 0
M  V30 2409 O 222.545 1.66861 -1.02254 0
M  V30 2410 C 222.844 -0.779906 -3.48787 0
M  V30 2411 C 222.51 -2.21293 -3.92861 0
M  V30 2412 C 221.172 -2.60475 -4.04606 0
M  V30 2413 C 223.524 -3.14587 -4.15553 0
M  V30 2414 C 220.852 -3.9212 -4.36416 0
M  V30 2415 C 223.204 -4.45787 -4.48839 0
M  V30 2416 C 221.868 -4.84834 -4.58794 0
M  V30 2417 H 221.138 -0.195495 -0.714747 0
M  V30 2418 H 223.785 -1.14514 -1.53488 0
M  V30 2419 H 222.09 -0.0861365 -3.91705 0
M  V30 2420 H 223.787 -0.472029 -3.98212 0
M  V30 2421 H 220.377 -1.89887 -3.84241 0
M  V30 2422 H 224.561 -2.85528 -4.0594 0
M  V30 2423 H 219.817 -4.22086 -4.42327 0
M  V30 2424 H 223.991 -5.18098 -4.65346 0
M  V30 2425 H 221.618 -5.86877 -4.83197 0
M  V30 2426 N 223.193 1.4272 -0.668489 0
M  V30 2427 C 224.143 2.27971 0.0363806 0
M  V30 2428 C 225.127 1.40741 0.779794 0
M  V30 2429 O 226.319 1.64245 0.659745 0
M  V30 2430 C 223.448 3.28673 0.991398 0
M  V30 2431 C 222.534 4.23388 0.245658 0
M  V30 2432 N 222.925 5.00267 -0.746069 0
M  V30 2433 C 221.223 4.43355 0.484988 0
M  V30 2434 C 221.924 5.69396 -1.19009 0
M  V30 2435 N 220.9 5.41095 -0.521287 0
M  V30 2436 H 224.702 2.84833 -0.724394 0
M  V30 2437 H 222.216 1.54607 -0.497028 0
M  V30 2438 H 224.213 3.88543 1.51129 0
M  V30 2439 H 222.873 2.73373 1.75207 0
M  V30 2440 H 223.884 5.05525 -1.12537 0
M  V30 2441 H 220.561 3.99104 1.22565 0
M  V30 2442 H 221.951 6.41083 -2.01153 0
M  V30 2443 N 224.671 0.411399 1.52136 0
M  V30 2444 C 225.621 -0.430376 2.23901 0
M  V30 2445 C 226.605 -1.0116 1.25121 0
M  V30 2446 O 227.797 -0.934044 1.50348 0
M  V30 2447 C 224.926 -1.54527 3.06556 0
M  V30 2448 C 224.012 -0.9747 4.12747 0
M  V30 2449 N 224.403 -0.130991 5.0563 0
M  V30 2450 C 222.701 -1.24497 4.28271 0
M  V30 2451 C 223.402 0.186689 5.814 0
M  V30 2452 N 222.378 -0.42304 5.41951 0
M  V30 2453 H 226.18 0.220509 2.93072 0
M  V30 2454 H 223.694 0.221952 1.60876 0
M  V30 2455 H 225.691 -2.16093 3.56524 0
M  V30 2456 H 224.351 -2.19875 2.38925 0
M  V30 2457 H 225.362 0.23349 5.17373 0
M  V30 2458 H 222.039 -1.89787 3.7187 0
M  V30 2459 H 223.429 0.871673 6.66222 0
M  V30 2460 N 226.149 -1.5696 0.141893 0
M  V30 2461 C 227.097 -2.17784 -0.816874 0
M  V30 2462 C 228.091 -1.1334 -1.25899 0
M  V30 2463 O 229.297 -1.316 -1.22806 0
M  V30 2464 H 225.672 -0.697278 -0.281615 0
M  V30 2465 H 227.643 -2.97087 -0.279621 0
M  V30 2466 C 226.392 -2.80983 -2.04802 0
M  V30 2467 H 225.715 -3.61062 -1.7168 0
M  V30 2468 H 227.155 -3.2705 -2.69841 0
M  V30 2469 C 225.614 -1.79228 -2.8527 0
M  V30 2470 O 226.144 -1.25962 -3.8144 0
M  V30 2471 N 224.35 -1.48647 -2.49704 0
M  V30 2472 H 223.897 -1.92155 -1.71564 0
M  V30 2473 H 223.855 -0.808115 -3.03837 0
M  V30 2474 N 227.627 0.131896 -1.57047 0
M  V30 2475 C 228.852 0.860418 -1.8871 0
M  V30 2476 C 229.277 1.73251 -0.73251 0
M  V30 2477 O 228.635 1.785 0.317429 0
M  V30 2478 C 228.683 1.68047 -3.19049 0
M  V30 2479 O 227.787 2.7862 -3.04047 0
M  V30 2480 H 227.128 0.238743 -0.619595 0
M  V30 2481 H 229.658 0.118169 -2.04258 0
M  V30 2482 H 229.668 2.07238 -3.51449 0
M  V30 2483 H 228.343 1.04018 -4.02682 0
M  V30 2484 H 226.92 2.42726 -2.83088 0
M  V30 2485 N 229.106 1.52395 0.401703 0
M  V30 2486 C 230.383 1.57387 1.16141 0
M  V30 2487 C 230.763 0.359359 2.08019 0
M  V30 2488 O 230.111 -0.65326 2.18963 0
M  V30 2489 C 230.321 2.90631 1.93221 0
M  V30 2490 C 231.669 3.43904 2.49028 0
M  V30 2491 O 232.693 2.92421 2.03393 0
M  V30 2492 O 231.552 4.33823 3.32356 0
M  V30 2493 H 228.646 0.634262 0.530698 0
M  V30 2494 H 231.192 1.64725 0.407883 0
M  V30 2495 H 229.964 3.70473 1.25958 0
M  V30 2496 H 229.587 2.8662 2.75563 0
M  V30 2497 N 230.584 -0.659388 1.43143 0
M  V30 2498 C 231.831 -1.41935 1.44433 0
M  V30 2499 C 232.159 -1.94387 0.0663522 0
M  V30 2500 O 231.414 -1.72314 -0.927706 0
M  V30 2501 C 231.713 -2.62206 2.42864 0
M  V30 2502 C 231.379 -2.28208 3.88886 0
M  V30 2503 C 230.041 -2.18647 4.28657 0
M  V30 2504 C 232.393 -2.00887 4.8093 0
M  V30 2505 C 229.721 -1.79914 5.58433 0
M  V30 2506 C 232.073 -1.63653 6.11065 0
M  V30 2507 C 230.737 -1.52614 6.49819 0
M  V30 2508 H 230.007 -0.519376 0.528517 0
M  V30 2509 H 232.654 -0.750453 1.76183 0
M  V30 2510 H 230.959 -3.34199 2.04495 0
M  V30 2511 H 232.656 -3.2041 2.41119 0
M  V30 2512 H 229.246 -2.36557 3.57406 0
M  V30 2513 H 233.43 -2.07198 4.5098 0
M  V30 2514 H 228.686 -1.69948 5.87305 0
M  V30 2515 H 232.86 -1.41543 6.81864 0
M  V30 2516 H 230.487 -1.22371 7.50286 0
M  V30 2517 N 232.062 -1.29571 -0.897171 0
M  V30 2518 C 233.012 -1.11539 -1.98855 0
M  V30 2519 C 233.996 -0.0340716 -1.60864 0
M  V30 2520 O 235.188 -0.256062 -1.75138 0
M  V30 2521 C 232.317 -0.796603 -3.3393 0
M  V30 2522 C 231.403 -1.91758 -3.78272 0
M  V30 2523 N 231.794 -3.16143 -3.94826 0
M  V30 2524 C 230.092 -1.81119 -4.07568 0
M  V30 2525 C 230.793 -3.89293 -4.32233 0
M  V30 2526 N 229.769 -3.17255 -4.41419 0
M  V30 2527 H 233.571 -2.05894 -2.09726 0
M  V30 2528 H 231.085 -1.20732 -1.08616 0
M  V30 2529 H 233.082 -0.648459 -4.11826 0
M  V30 2530 H 231.742 0.139003 -3.24402 0
M  V30 2531 H 232.753 -3.5157 -3.80288 0
M  V30 2532 H 229.43 -0.948461 -4.06584 0
M  V30 2533 H 230.82 -4.9635 -4.52865 0
M  V30 2534 N 233.54 1.10788 -1.12088 0
M  V30 2535 C 234.789 1.82036 -0.868659 0
M  V30 2536 C 235.102 1.85929 0.607426 0
M  V30 2537 O 236.308 2.53346 0.97613 0
M  V30 2538 C 234.764 3.26951 -1.50435 0
M  V30 2539 C 234.372 3.31367 -3.01496 0
M  V30 2540 C 236.116 4.03053 -1.33225 0
M  V30 2541 C 234.023 4.7072 -3.58017 0
M  V30 2542 H 232.953 0.682108 -0.321318 0
M  V30 2543 H 235.604 1.24618 -1.34694 0
M  V30 2544 H 233.986 3.84343 -0.953735 0
M  V30 2545 H 235.16 2.83819 -3.6302 0
M  V30 2546 H 233.475 2.6875 -3.18061 0
M  V30 2547 H 236.072 5.05981 -1.72878 0
M  V30 2548 H 236.415 4.15387 -0.275529 0
M  V30 2549 H 236.948 3.52066 -1.85188 0
M  V30 2550 H 233.687 4.63585 -4.63432 0
M  V30 2551 H 233.207 5.1865 -3.01268 0
M  V30 2552 H 234.886 5.39685 -3.56859 0
M  V30 2553 N 235.018 0.912232 1.28515 0
M  V30 2554 C 236.429 0.591352 1.77087 0
M  V30 2555 C 236.78 -0.8933 1.74684 0
M  V30 2556 O 235.905 -1.69876 1.34056 0
M  V30 2557 C 236.5 1.06668 3.2157 0
M  V30 2558 C 235.059 0.79675 3.67871 0
M  V30 2559 C 234.206 1.23427 2.48316 0
M  V30 2560 H 237.157 1.09365 1.15 0
M  V30 2561 H 237.178 0.407455 3.78312 0
M  V30 2562 H 236.69 2.14726 3.23287 0
M  V30 2563 H 234.791 -0.270679 3.71616 0
M  V30 2564 H 234.904 1.40343 4.58084 0
M  V30 2565 H 233.268 0.653036 2.46186 0
M  V30 2566 H 234.051 2.32316 2.52753 0
M  V30 2567 N 236.496 -1.42363 0.676048 0
M  V30 2568 C 237.443 -2.308 -0.00150904 0
M  V30 2569 C 238.413 -1.46032 -0.791444 0
M  V30 2570 O 239.598 -1.74861 -0.76344 0
M  V30 2571 C 236.738 -3.31883 -0.945919 0
M  V30 2572 C 235.851 -4.31741 -0.149675 0
M  V30 2573 C 234.986 -5.19898 -1.08995 0
M  V30 2574 C 234.025 -6.11434 -0.285465 0
M  V30 2575 N 233.162 -6.92138 -1.17851 0
M  V30 2576 H 238.002 -2.88187 0.758455 0
M  V30 2577 H 235.539 -1.41952 0.38576 0
M  V30 2578 H 237.497 -3.89019 -1.50731 0
M  V30 2579 H 236.127 -2.76093 -1.6725 0
M  V30 2580 H 235.179 -3.76713 0.528359 0
M  V30 2581 H 236.491 -4.96534 0.474866 0
M  V30 2582 H 235.645 -5.81772 -1.72123 0
M  V30 2583 H 234.384 -4.55284 -1.74837 0
M  V30 2584 H 233.389 -5.48627 0.359018 0
M  V30 2585 H 234.614 -6.78097 0.368883 0
M  V30 2586 H 232.56 -6.30152 -1.82332 0
M  V30 2587 H 232.477 -7.53542 -0.609082 0
M  V30 2588 H 233.745 -7.58499 -1.79722 0
M  V30 2589 N 237.974 -0.419461 -1.51915 0
M  V30 2590 C 238.937 0.389116 -2.25873 0
M  V30 2591 C 239.937 0.964924 -1.28631 0
M  V30 2592 O 241.127 0.842179 -1.52489 0
M  V30 2593 C 238.259 1.54874 -3.03689 0
M  V30 2594 H 239.452 -0.258799 -2.98781 0
M  V30 2595 H 237.005 -0.172209 -1.55348 0
M  V30 2596 H 237.74 2.23323 -2.35154 0
M  V30 2597 H 237.525 1.14223 -3.75094 0
M  V30 2598 H 239.015 2.12046 -3.59759 0
M  V30 2599 N 239.452 1.56882 -0.150215 0
M  V30 2600 C 240.68 2.00593 0.506948 0
M  V30 2601 C 241.095 1.03033 1.58208 0
M  V30 2602 O 240.452 0.0278396 1.82479 0
M  V30 2603 C 240.503 3.44209 1.10465 0
M  V30 2604 O 240.224 4.3804 0.0724636 0
M  V30 2605 C 241.725 4.03214 1.84211 0
M  V30 2606 H 238.945 0.65795 0.13169 0
M  V30 2607 H 241.489 2.03018 -0.245743 0
M  V30 2608 H 239.644 3.42625 1.80795 0
M  V30 2609 H 240.058 5.22007 0.510793 0
M  V30 2610 H 241.532 5.0569 2.21318 0
M  V30 2611 H 242.009 3.44107 2.72923 0
M  V30 2612 H 242.615 4.08437 1.18572 0
M  V30 2613 N 240.93 -0.123565 1.57115 0
M  V30 2614 C 241.86 -1.15309 2.03042 0
M  V30 2615 C 242.841 -1.43454 0.914061 0
M  V30 2616 O 244.026 -1.53973 1.18347 0
M  V30 2617 C 241.156 -2.48043 2.43089 0
M  V30 2618 C 240.11 -2.3437 3.58127 0
M  V30 2619 C 239.436 -3.72026 3.84059 0
M  V30 2620 C 240.736 -1.80804 4.90007 0
M  V30 2621 H 242.43 -0.771102 2.893 0
M  V30 2622 H 239.976 -0.369479 1.39179 0
M  V30 2623 H 241.929 -3.20311 2.73823 0
M  V30 2624 H 240.653 -2.88122 1.53796 0
M  V30 2625 H 239.312 -1.64551 3.27595 0
M  V30 2626 H 238.96 -4.09582 2.91979 0
M  V30 2627 H 238.66 -3.63732 4.6149 0
M  V30 2628 H 240.184 -4.45806 4.1724 0
M  V30 2629 H 241.598 -2.42886 5.19307 0
M  V30 2630 H 239.995 -1.83343 5.71407 0
M  V30 2631 H 241.065 -0.76528 4.78823 0
M  V30 2632 N 242.408 -1.52605 -0.393616 0
M  V30 2633 C 243.355 -1.77055 -1.48054 0
M  V30 2634 C 244.325 -0.61358 -1.54352 0
M  V30 2635 O 245.51 -0.852806 -1.70681 0
M  V30 2636 C 242.65 -1.94108 -2.85335 0
M  V30 2637 C 241.763 -3.21792 -2.88226 0
M  V30 2638 C 240.898 -3.29188 -4.16904 0
M  V30 2639 C 239.937 -4.51013 -4.13828 0
M  V30 2640 N 239.074 -4.55716 -5.34105 0
M  V30 2641 H 243.914 -2.69815 -1.26506 0
M  V30 2642 H 241.451 -1.33683 -0.61379 0
M  V30 2643 H 243.409 -2.01979 -3.65049 0
M  V30 2644 H 242.039 -1.04713 -3.05344 0
M  V30 2645 H 241.091 -3.23015 -2.00911 0
M  V30 2646 H 242.403 -4.11557 -2.8182 0
M  V30 2647 H 241.557 -3.36216 -5.05018 0
M  V30 2648 H 240.296 -2.37389 -4.26026 0
M  V30 2649 H 239.301 -4.44115 -3.24102 0
M  V30 2650 H 240.526 -5.44123 -4.06333 0
M  V30 2651 H 238.472 -3.66807 -5.43865 0
M  V30 2652 H 238.389 -5.39346 -5.29756 0
M  V30 2653 H 239.657 -4.66993 -6.2413 0
M  V30 2654 N 243.887 0.651787 -1.4349 0
M  V30 2655 C 245.164 1.40909 -1.35661 0
M  V30 2656 C 245.544 2.11099 -0.00511733 0
M  V30 2657 O 244.892 2.04892 1.0115 0
M  V30 2658 C 245.102 2.3926 -2.54078 0
M  V30 2659 C 246.45 3.03217 -2.97228 0
M  V30 2660 O 247.474 2.49588 -2.54135 0
M  V30 2661 O 246.333 4.00455 -3.71885 0
M  V30 2662 H 243.427 0.629625 -0.536191 0
M  V30 2663 H 245.973 0.678575 -1.55542 0
M  V30 2664 H 244.745 1.86352 -3.44076 0
M  V30 2665 H 244.368 3.1976 -2.36303 0
M  V30 2666 N 245.365 1.30045 0.890287 0
M  V30 2667 C 246.59 1.21598 1.68014 0
M  V30 2668 C 247.015 -0.218678 1.86825 0
M  V30 2669 O 246.373 -1.15756 1.39536 0
M  V30 2670 C 246.421 1.94434 3.03691 0
M  V30 2671 O 245.525 1.2678 3.92429 0
M  V30 2672 H 244.866 0.420856 0.513592 0
M  V30 2673 H 247.396 1.71775 1.11151 0
M  V30 2674 H 247.406 2.03251 3.5377 0
M  V30 2675 H 246.081 2.98777 2.89318 0
M  V30 2676 H 244.658 1.26282 3.50866 0
M  V30 2677 N 246.843 -1.10192 1.12674 0
M  V30 2678 C 248.091 -1.81845 0.881861 0
M  V30 2679 C 248.412 -1.85737 -0.593867 0
M  V30 2680 O 247.682 -1.33724 -1.4316 0
M  V30 2681 H 246.262 -0.673432 0.323261 0
M  V30 2682 H 248.924 -1.33316 1.42172 0
M  V30 2683 H 248.02 -2.85288 1.2656 0
M  V30 2684 N 248.321 -0.919034 -1.28029 0
M  V30 2685 C 249.546 -0.570357 -1.99403 0
M  V30 2686 C 249.971 0.842486 -1.68178 0
M  V30 2687 O 249.329 1.56391 -0.917141 0
M  V30 2688 C 249.377 -0.792541 -3.51783 0
M  V30 2689 O 248.481 0.145988 -4.12142 0
M  V30 2690 H 247.822 -0.220555 -0.6263 0
M  V30 2691 H 250.352 -1.23592 -1.63053 0
M  V30 2692 H 250.362 -0.704708 -4.01868 0
M  V30 2693 H 249.037 -1.82247 -3.73844 0
M  V30 2694 H 247.614 0.00897528 -3.72899 0
M  V30 2695 N 249.799 1.42003 -0.683588 0
M  V30 2696 C 251.029 2.05448 -0.217866 0
M  V30 2697 C 251.437 1.51491 1.13346 0
M  V30 2698 O 250.78 0.653048 1.717 0
M  V30 2699 C 250.842 3.59399 -0.0850118 0
M  V30 2700 C 250.506 4.36093 -1.36645 0
M  V30 2701 C 251.503 4.66169 -2.30179 0
M  V30 2702 C 249.188 4.75578 -1.61649 0
M  V30 2703 C 251.182 5.34676 -3.46988 0
M  V30 2704 C 248.869 5.43824 -2.78745 0
M  V30 2705 C 249.867 5.73299 -3.71238 0
M  V30 2706 O 249.555 6.40142 -4.86285 0
M  V30 2707 H 249.287 0.668344 -0.101454 0
M  V30 2708 H 251.841 1.82974 -0.933248 0
M  V30 2709 H 250.071 3.80566 0.686031 0
M  V30 2710 H 251.76 4.04457 0.341973 0
M  V30 2711 H 252.526 4.36156 -2.12115 0
M  V30 2712 H 248.405 4.52025 -0.905243 0
M  V30 2713 H 251.949 5.57599 -4.19201 0
M  V30 2714 H 247.846 5.73254 -2.96732 0
M  V30 2715 H 248.614 6.58636 -4.85944 0
M  V30 2716 N 251.277 0.427512 1.51691 0
M  V30 2717 C 252.524 -0.142229 2.02 0
M  V30 2718 C 252.852 -1.43566 1.31221 0
M  V30 2719 O 252.107 -1.91298 0.412744 0
M  V30 2720 C 252.406 -0.418249 3.54944 0
M  V30 2721 C 252.072 0.788187 4.43958 0
M  V30 2722 C 250.734 1.11906 4.68007 0
M  V30 2723 C 253.086 1.59347 4.96244 0
M  V30 2724 C 250.414 2.25608 5.41588 0
M  V30 2725 C 252.766 2.7214 5.71072 0
M  V30 2726 C 251.43 3.05692 5.93387 0
M  V30 2727 H 250.7 -0.0520451 0.73917 0
M  V30 2728 H 253.347 0.572697 1.82736 0
M  V30 2729 H 251.652 -1.21496 3.72486 0
M  V30 2730 H 253.349 -0.872339 3.91397 0
M  V30 2731 H 249.939 0.520344 4.2543 0
M  V30 2732 H 254.123 1.35106 4.77556 0
M  V30 2733 H 249.379 2.51929 5.57083 0
M  V30 2734 H 253.553 3.34914 6.10578 0
M  V30 2735 H 251.18 3.9391 6.50184 0
M  V30 2736 N 252.755 -1.56801 0.158532 0
M  V30 2737 C 253.995 -1.98383 -0.49229 0
M  V30 2738 C 254.359 -1.04184 -1.61275 0
M  V30 2739 O 255.56 -1.34856 -2.32524 0
M  V30 2740 C 253.831 -3.4385 -0.974766 0
M  V30 2741 S 255.39 -4.07459 -1.62857 0
M  V30 2742 H 252.208 -0.693041 -0.158794 0
M  V30 2743 H 254.81 -1.93856 0.252974 0
M  V30 2744 H 253.514 -4.10131 -0.148688 0
M  V30 2745 H 253.045 -3.52115 -1.75438 0
M  V30 2746 H 255.06 -4.01458 -2.91627 0
M  V30 2747 N 254.233 0.115231 -1.57178 0
M  V30 2748 C 255.649 0.468877 -1.52557 0
M  V30 2749 C 255.849 1.81649 -0.872125 0
M  V30 2750 O 254.905 2.48347 -0.45606 0
M  V30 2751 C 256.218 0.4499 -2.97315 0
M  V30 2752 C 257.766 0.533185 -3.08425 0
M  V30 2753 C 258.241 0.54456 -4.54751 0
M  V30 2754 N 259.732 0.605892 -4.5922 0
M  V30 2755 C 260.467 0.636203 -5.6986 0
M  V30 2756 N 259.963 0.623931 -6.89985 0
M  V30 2757 N 261.756 0.679496 -5.57978 0
M  V30 2758 H 253.907 -0.767712 -1.9804 0
M  V30 2759 H 256.17 -0.283609 -0.904583 0
M  V30 2760 H 255.876 -0.472721 -3.48509 0
M  V30 2761 H 255.75 1.27632 -3.5495 0
M  V30 2762 H 258.137 1.44623 -2.57232 0
M  V30 2763 H 258.218 -0.320995 -2.53778 0
M  V30 2764 H 257.862 -0.364452 -5.06591 0
M  V30 2765 H 257.792 1.41568 -5.07214 0
M  V30 2766 H 260.283 0.621386 -3.72756 0
M  V30 2767 H 260.596 0.649787 -7.70063 0
M  V30 2768 H 258.941 0.591296 -6.9248 0
M  V30 2769 H 262.132 0.686472 -4.63039 0
M  V30 2770 H 262.305 0.69965 -6.44212 0
M  V30 2771 N 255.711 1.52812 0.385517 0
M  V30 2772 C 256.959 1.67694 1.12797 0
M  V30 2773 C 257.28 0.421115 1.90399 0
M  V30 2774 O 256.55 -0.564551 1.87589 0
M  V30 2775 H 255.13 0.618155 0.419396 0
M  V30 2776 H 257.792 1.89938 0.436972 0
M  V30 2777 H 256.888 2.52896 1.82894 0
M  V30 2778 N 257.189 -0.644168 1.43834 0
M  V30 2779 C 258.119 -1.76814 1.52509 0
M  V30 2780 C 259.1 -1.65823 0.379052 0
M  V30 2781 O 260.285 -1.84781 0.597466 0
M  V30 2782 C 257.415 -3.15288 1.4564 0
M  V30 2783 C 256.369 -3.41053 2.58586 0
M  V30 2784 C 255.695 -4.79421 2.36769 0
M  V30 2785 C 256.995 -3.34902 4.00797 0
M  V30 2786 H 258.689 -1.69812 2.46586 0
M  V30 2787 H 256.235 -0.815542 1.1868 0
M  V30 2788 H 258.188 -3.93681 1.50311 0
M  V30 2789 H 256.912 -3.23043 0.480725 0
M  V30 2790 H 255.571 -2.65035 2.53282 0
M  V30 2791 H 255.219 -4.83863 1.37424 0
M  V30 2792 H 254.919 -4.9762 3.12487 0
M  V30 2793 H 256.443 -5.6006 2.43238 0
M  V30 2794 H 257.857 -4.03218 4.07539 0
M  V30 2795 H 256.254 -3.64637 4.76613 0
M  V30 2796 H 257.324 -2.32928 4.25291 0
M  V30 2797 N 258.668 -1.30515 -0.883378 0
M  V30 2798 C 259.914 -1.19607 -1.63774 0
M  V30 2799 C 260.247 0.248314 -1.92606 0
M  V30 2800 O 259.522 1.17742 -1.54813 0
M  V30 2801 C 259.805 -2.02669 -2.97653 0
M  V30 2802 C 259.658 -3.55335 -2.75784 0
M  V30 2803 C 260.977 -1.86573 -3.98596 0
M  V30 2804 H 258.096 -0.435856 -0.594305 0
M  V30 2805 H 260.738 -1.60165 -1.02212 0
M  V30 2806 H 258.888 -1.68208 -3.50197 0
M  V30 2807 H 260.56 -3.99863 -2.30016 0
M  V30 2808 H 258.803 -3.79438 -2.1026 0
M  V30 2809 H 259.474 -4.08745 -3.70988 0
M  V30 2810 H 261.95 -2.16703 -3.55217 0
M  V30 2811 H 260.826 -2.47014 -4.90179 0
M  V30 2812 H 261.087 -0.825321 -4.34328 0
M  V30 2813 N 260.146 1.09593 -1.13257 0
M  V30 2814 C 261.394 1.81375 -0.891492 0
M  V30 2815 C 261.715 1.86049 0.584009 0
M  V30 2816 O 260.985 1.34481 1.42449 0
M  V30 2817 H 259.565 0.671708 -0.326828 0
M  V30 2818 H 262.227 1.3256 -1.42877 0
M  V30 2819 H 261.323 2.84612 -1.28071 0
M  V30 2820 N 261.624 0.925811 1.2754 0
M  V30 2821 C 262.849 0.580924 1.99098 0
M  V30 2822 C 263.274 -0.833555 1.68622 0
M  V30 2823 O 262.632 -1.55903 0.925422 0
M  V30 2824 C 262.68 0.811186 3.51358 0
M  V30 2825 O 261.784 -0.124129 4.12213 0
M  V30 2826 H 261.125 0.223873 0.625122 0
M  V30 2827 H 263.655 1.24455 1.62395 0
M  V30 2828 H 263.665 0.72601 4.01489 0
M  V30 2829 H 262.34 1.84227 3.72872 0
M  V30 2830 H 260.917 0.0108006 3.72898 0
M  V30 2831 N 263.102 -1.41638 0.69111 0
M  V30 2832 C 264.049 -2.30789 0.0229705 0
M  V30 2833 C 265.019 -1.46863 -0.775911 0
M  V30 2834 O 266.204 -1.75661 -0.74485 0
M  V30 2835 C 263.344 -3.32868 -0.910666 0
M  V30 2836 C 262.457 -4.31875 -0.103874 0
M  V30 2837 C 261.592 -5.21024 -1.03475 0
M  V30 2838 C 260.631 -6.11702 -0.220598 0
M  V30 2839 N 259.768 -6.93349 -1.10504 0
M  V30 2840 H 264.608 -2.87366 0.788978 0
M  V30 2841 H 262.145 -1.41535 0.400794 0
M  V30 2842 H 264.103 -3.90596 -1.46597 0
M  V30 2843 H 262.733 -2.77851 -1.64312 0
M  V30 2844 H 261.785 -3.76131 0.568285 0
M  V30 2845 H 263.097 -4.96003 0.527504 0
M  V30 2846 H 262.251 -5.83565 -1.65943 0
M  V30 2847 H 260.99 -4.57112 -1.69999 0
M  V30 2848 H 259.995 -5.48215 0.417187 0
M  V30 2849 H 261.22 -6.77668 0.440784 0
M  V30 2850 H 259.166 -6.3205 -1.75638 0
M  V30 2851 H 259.083 -7.54146 -0.529125 0
M  V30 2852 H 260.351 -7.60362 -1.71667 0
M  V30 2853 N 264.58 -0.43555 -1.51462 0
M  V30 2854 C 265.528 0.391205 -2.29287 0
M  V30 2855 C 266.522 1.02247 -1.35062 0
M  V30 2856 O 267.728 0.957646 -1.52411 0
M  V30 2857 H 264.103 0.144968 -0.737895 0
M  V30 2858 H 266.074 -0.286051 -2.97026 0
M  V30 2859 C 264.823 1.48096 -3.14583 0
M  V30 2860 H 264.146 1.00457 -3.86973 0
M  V30 2861 H 265.586 2.03273 -3.72097 0
M  V30 2862 C 264.045 2.46321 -2.29843 0
M  V30 2863 O 264.575 3.50815 -1.95682 0
M  V30 2864 N 262.781 2.17166 -1.931 0
M  V30 2865 H 262.328 1.32218 -2.21079 0
M  V30 2866 H 262.286 2.83127 -1.36698 0
M  V30 2867 N 266.058 1.56714 -0.166846 0
M  V30 2868 C 267.304 1.97039 0.479962 0
M  V30 2869 C 267.637 1.05264 1.63197 0
M  V30 2870 O 266.912 0.0988833 1.94248 0
M  V30 2871 C 267.195 3.46867 0.967212 0
M  V30 2872 C 267.048 4.49421 -0.18466 0
M  V30 2873 C 268.367 3.9968 1.84238 0
M  V30 2874 H 265.486 0.71641 0.172992 0
M  V30 2875 H 268.128 1.8832 -0.252079 0
M  V30 2876 H 266.278 3.54428 1.59101 0
M  V30 2877 H 267.95 4.53924 -0.821621 0
M  V30 2878 H 266.193 4.25573 -0.840837 0
M  V30 2879 H 266.864 5.51644 0.198317 0
M  V30 2880 H 269.34 3.94723 1.31655 0
M  V30 2881 H 268.216 5.04941 2.15234 0
M  V30 2882 H 268.477 3.43226 2.78654 0
M  V30 2883 N 267.536 -0.106894 1.57237 0
M  V30 2884 C 268.761 -0.830287 1.90055 0
M  V30 2885 C 269.186 -1.72064 0.75998 0
M  V30 2886 O 268.544 -1.78982 -0.288991 0
M  V30 2887 C 268.592 -1.6295 3.21683 0
M  V30 2888 O 267.696 -2.73748 3.08441 0
M  V30 2889 H 267.037 -0.228855 0.623315 0
M  V30 2890 H 269.567 -0.085658 2.04421 0
M  V30 2891 H 269.577 -2.01621 3.54701 0
M  V30 2892 H 268.252 -0.975989 4.04286 0
M  V30 2893 H 266.829 -2.38192 2.86913 0
M  V30 2894 N 269.014 -1.53014 -0.377408 0
M  V30 2895 C 270.239 -1.72818 -1.14668 0
M  V30 2896 C 270.664 -0.450725 -1.8262 0
M  V30 2897 O 270.022 0.59439 -1.7128 0
M  V30 2898 C 270.07 -2.88627 -2.16164 0
M  V30 2899 O 269.174 -2.56409 -3.22998 0
M  V30 2900 H 268.515 -0.574301 -0.333278 0
M  V30 2901 H 271.045 -1.99853 -0.438152 0
M  V30 2902 H 271.055 -3.14455 -2.59966 0
M  V30 2903 H 269.73 -3.81294 -1.66095 0
M  V30 2904 H 268.307 -2.4136 -2.84253 0
M  V30 2905 N 270.492 0.636531 -1.44174 0
M  V30 2906 C 271.402 1.77754 -1.53103 0
M  V30 2907 C 272.418 1.68928 -0.417034 0
M  V30 2908 O 273.594 1.89801 -0.6736 0
M  V30 2909 C 270.659 3.14115 -1.46741 0
M  V30 2910 C 269.72 3.34612 -2.68948 0
M  V30 2911 C 268.953 4.64467 -2.6288 0
M  V30 2912 O 269.176 5.44919 -1.68581 0
M  V30 2913 O 268.11 4.87049 -3.53648 0
M  V30 2914 H 271.936 1.73174 -2.49489 0
M  V30 2915 H 269.521 0.79709 -1.2636 0
M  V30 2916 H 271.403 3.95412 -1.45696 0
M  V30 2917 H 270.078 3.19249 -0.534975 0
M  V30 2918 H 268.985 2.53014 -2.75562 0
M  V30 2919 H 270.318 3.34336 -3.61221 0
M  V30 2920 N 271.97 1.30982 0.876444 0
M  V30 2921 C 273.198 1.23242 1.6619 0
M  V30 2922 C 273.613 -0.203345 1.87702 0
M  V30 2923 O 272.97 -1.13317 1.43057 0
M  V30 2924 C 273.021 1.96623 3.03351 0
M  V30 2925 O 272.742 3.34594 2.82804 0
M  V30 2926 C 274.243 1.95644 3.97792 0
M  V30 2927 H 271.463 0.426126 0.518322 0
M  V30 2928 H 274.007 1.7275 1.09442 0
M  V30 2929 H 272.162 1.50892 3.56806 0
M  V30 2930 H 272.576 3.71873 3.69879 0
M  V30 2931 H 274.05 2.51511 4.91372 0
M  V30 2932 H 274.527 0.937395 4.2908 0
M  V30 2933 H 275.133 2.41225 3.50272 0
M  V30 2934 N 273.449 -1.08991 1.13837 0
M  V30 2935 C 274.695 -1.81526 0.90422 0
M  V30 2936 C 275.028 -1.85706 -0.568066 0
M  V30 2937 O 274.303 -1.32855 -1.42056 0
M  V30 2938 C 274.586 -3.27447 1.49835 0
M  V30 2939 C 274.439 -3.31512 3.04006 0
M  V30 2940 C 275.758 -4.24256 1.17025 0
M  V30 2941 H 272.877 -0.659029 0.329923 0
M  V30 2942 H 275.519 -1.27644 1.40737 0
M  V30 2943 H 273.669 -3.73462 1.07044 0
M  V30 2944 H 275.341 -2.93867 3.55584 0
M  V30 2945 H 273.584 -2.70963 3.38765 0
M  V30 2946 H 274.255 -4.34329 3.40679 0
M  V30 2947 H 276.731 -3.86549 1.54009 0
M  V30 2948 H 275.607 -5.24684 1.61237 0
M  V30 2949 H 275.868 -4.42019 0.0846274 0
M  V30 2950 N 274.927 -0.932562 -1.27047 0
M  V30 2951 C 275.875 -0.42603 -2.28665 0
M  V30 2952 C 276.869 0.49219 -1.62092 0
M  V30 2953 O 278.075 0.371355 -1.76128 0
M  V30 2954 H 274.45 -0.119213 -0.742491 0
M  V30 2955 H 276.421 -1.29579 -2.68797 0
M  V30 2956 C 275.17 0.301426 -3.46391 0
M  V30 2957 H 274.493 -0.39595 -3.97834 0
M  V30 2958 H 275.933 0.6202 -4.1944 0
M  V30 2959 C 274.392 1.51616 -3.00856 0
M  V30 2960 O 274.922 2.61476 -3.04948 0
M  V30 2961 N 273.128 1.36969 -2.56296 0
M  V30 2962 H 272.675 0.475873 -2.53166 0
M  V30 2963 H 272.633 2.18368 -2.26192 0
M  V30 2964 N 276.405 1.4127 -0.698611 0
M  V30 2965 C 277.654 2.00408 -0.227949 0
M  V30 2966 C 277.967 1.55981 1.18023 0
M  V30 2967 O 279.173 2.07699 1.74852 0
M  V30 2968 C 277.629 3.58129 -0.356636 0
M  V30 2969 C 277.237 4.11536 -1.77037 0
M  V30 2970 C 278.981 4.24466 0.0540969 0
M  V30 2971 C 276.888 5.61701 -1.85055 0
M  V30 2972 H 275.818 0.749586 -0.0814657 0
M  V30 2973 H 278.469 1.61713 -0.867249 0
M  V30 2974 H 276.851 3.94442 0.350965 0
M  V30 2975 H 278.025 3.86636 -2.50698 0
M  V30 2976 H 276.34 3.57736 -2.13105 0
M  V30 2977 H 278.937 5.34698 0.0146723 0
M  V30 2978 H 279.28 4.01687 1.09332 0
M  V30 2979 H 279.813 3.93198 -0.603337 0
M  V30 2980 H 276.552 5.89312 -2.8704 0
M  V30 2981 H 276.072 5.88519 -1.15783 0
M  V30 2982 H 277.751 6.26524 -1.61484 0
M  V30 2983 N 277.883 0.443576 1.51229 0
M  V30 2984 C 279.111 -0.11929 2.06556 0
M  V30 2985 C 279.526 -1.35921 1.31038 0
M  V30 2986 O 278.883 -1.78675 0.371704 0
M  V30 2987 C 278.934 -0.435228 3.5887 0
M  V30 2988 O 278.655 0.755486 4.31537 0
M  V30 2989 C 280.156 -1.04808 4.30732 0
M  V30 2990 H 277.376 -0.0051584 0.67098 0
M  V30 2991 H 279.92 0.624453 1.94733 0
M  V30 2992 H 278.075 -1.12887 3.70588 0
M  V30 2993 H 278.489 0.483491 5.22267 0
M  V30 2994 H 279.963 -1.2191 5.3837 0
M  V30 2995 H 280.44 -2.03081 3.89429 0
M  V30 2996 H 281.046 -0.393637 4.23474 0
M  V30 2997 N 279.361 -1.56624 0.175154 0
M  V30 2998 C 280.61 -1.96173 -0.468921 0
M  V30 2999 C 280.923 -1.06401 -1.64128 0
M  V30 3000 O 282.129 -1.35648 -2.35185 0
M  V30 3001 C 280.585 -3.48833 -0.885633 0
M  V30 3002 C 280.193 -4.47237 0.261343 0
M  V30 3003 C 281.937 -3.97194 -1.49791 0
M  V30 3004 C 279.844 -5.9114 -0.175214 0
M  V30 3005 H 278.774 -0.732455 -0.178958 0
M  V30 3006 H 281.425 -1.81591 0.263997 0
M  V30 3007 H 279.807 -3.58848 -1.67464 0
M  V30 3008 H 280.981 -4.4894 1.03871 0
M  V30 3009 H 279.296 -4.08956 0.783827 0
M  V30 3010 H 281.893 -5.02167 -1.83665 0
M  V30 3011 H 282.236 -3.40351 -2.39722 0
M  V30 3012 H 282.769 -3.90212 -0.773267 0
M  V30 3013 H 279.508 -6.51865 0.689414 0
M  V30 3014 H 279.028 -5.92735 -0.91786 0
M  V30 3015 H 280.707 -6.44044 -0.617792 0
M  V30 3016 N 280.839 0.0985539 -1.57292 0
M  V30 3017 C 282.067 0.816318 -1.90115 0
M  V30 3018 C 282.482 1.72451 -0.768509 0
M  V30 3019 O 281.839 1.80643 0.259687 0
M  V30 3020 C 281.89 1.63259 -3.22535 0
M  V30 3021 O 281.611 0.760934 -4.31441 0
M  V30 3022 C 283.112 2.45372 -3.69199 0
M  V30 3023 H 280.332 0.233595 -0.629027 0
M  V30 3024 H 282.876 0.0768229 -2.04356 0
M  V30 3025 H 281.031 2.32463 -3.09903 0
M  V30 3026 H 281.445 1.32595 -5.07463 0
M  V30 3027 H 282.919 2.98144 -4.64558 0
M  V30 3028 H 283.396 3.23677 -2.96867 0
M  V30 3029 H 284.002 1.81373 -3.84687 0
M  V30 3030 N 282.317 1.53212 0.369288 0
M  V30 3031 C 283.249 1.75668 1.47219 0
M  V30 3032 C 284.262 0.637387 1.49804 0
M  V30 3033 O 285.451 0.913561 1.5335 0
M  V30 3034 C 282.551 1.81818 2.85999 0
M  V30 3035 C 281.724 3.11409 3.07153 0
M  V30 3036 C 280.783 3.08849 4.26026 0
M  V30 3037 O 279.809 3.82659 4.2138 0
M  V30 3038 N 281.011 2.29409 5.33246 0
M  V30 3039 H 283.776 2.70832 1.28337 0
M  V30 3040 H 281.337 1.51944 0.55898 0
M  V30 3041 H 283.329 1.77588 3.63655 0
M  V30 3042 H 281.899 0.939544 2.98146 0
M  V30 3043 H 281.119 3.28971 2.1719 0
M  V30 3044 H 282.407 3.97059 3.18154 0
M  V30 3045 H 281.805 1.68946 5.39883 0
M  V30 3046 H 280.362 2.31001 6.09493 0
M  V30 3047 N 283.795 -0.628877 1.44509 0
M  V30 3048 C 285.043 -1.38565 1.4712 0
M  V30 3049 C 285.364 -1.94712 0.105899 0
M  V30 3050 O 284.634 -1.75912 -0.862079 0
M  V30 3051 H 283.214 -0.514333 0.541729 0
M  V30 3052 H 285.876 -0.740018 1.80305 0
M  V30 3053 H 284.972 -2.21583 2.19789 0
M  V30 3054 N 285.273 -1.31445 -0.869486 0
M  V30 3055 C 286.203 -1.21727 -1.99261 0
M  V30 3056 C 287.184 -0.104359 -1.6978 0
M  V30 3057 O 288.369 -0.289038 -1.92037 0
M  V30 3058 C 285.499 -0.924317 -3.34774 0
M  V30 3059 C 284.453 -1.99685 -3.78563 0
M  V30 3060 C 283.779 -1.55658 -5.11541 0
M  V30 3061 C 285.079 -3.41003 -3.95619 0
M  V30 3062 H 286.773 -2.1569 -2.07649 0
M  V30 3063 H 284.319 -1.03839 -0.997675 0
M  V30 3064 H 286.272 -0.842934 -4.12883 0
M  V30 3065 H 284.996 0.0509793 -3.2656 0
M  V30 3066 H 283.655 -2.06813 -3.02694 0
M  V30 3067 H 283.303 -0.569132 -4.9977 0
M  V30 3068 H 283.003 -2.27409 -5.41811 0
M  V30 3069 H 284.527 -1.48928 -5.92159 0
M  V30 3070 H 285.941 -3.36547 -4.64122 0
M  V30 3071 H 284.338 -4.10975 -4.37286 0
M  V30 3072 H 285.408 -3.81754 -2.98985 0
M  V30 3073 N 286.751 1.08385 -1.14413 0
M  V30 3074 C 287.714 2.13486 -0.834048 0
M  V30 3075 C 288.714 1.59988 0.161418 0
M  V30 3076 O 289.904 1.74071 -0.0669575 0
M  V30 3077 C 287.036 3.4003 -0.243354 0
M  V30 3078 H 288.229 2.42425 -1.7655 0
M  V30 3079 H 285.782 1.24101 -0.950189 0
M  V30 3080 H 286.517 3.16726 0.696807 0
M  V30 3081 H 286.302 3.80157 -0.960367 0
M  V30 3082 H 287.792 4.17577 -0.0436242 0
M  V30 3083 N 288.23 0.939286 1.26551 0
M  V30 3084 C 289.476 0.586715 1.94128 0
M  V30 3085 C 289.809 -0.8717 1.73537 0
M  V30 3086 O 289.084 -1.62339 1.07127 0
M  V30 3087 C 289.367 0.927497 3.4795 0
M  V30 3088 C 289.22 2.44052 3.77834 0
M  V30 3089 C 290.539 0.441569 4.37879 0
M  V30 3090 H 287.658 0.21463 0.705055 0
M  V30 3091 H 290.3 1.17316 1.49455 0
M  V30 3092 H 288.45 0.428431 3.8613 0
M  V30 3093 H 290.122 3.01216 3.4938 0
M  V30 3094 H 288.365 2.8848 3.23978 0
M  V30 3095 H 289.036 2.62947 4.85348 0
M  V30 3096 H 291.512 0.869448 4.06915 0
M  V30 3097 H 290.388 0.708856 5.44304 0
M  V30 3098 H 290.649 -0.658467 4.37169 0
M  V30 3099 N 289.708 -1.40897 0.706093 0
M  V30 3100 C 290.933 -2.05895 0.249435 0
M  V30 3101 C 291.358 -1.52823 -1.09666 0
M  V30 3102 O 290.716 -0.659589 -1.68876 0
M  V30 3103 C 290.764 -3.59872 0.22904 0
M  V30 3104 O 289.868 -4.04708 -0.792784 0
M  V30 3105 H 289.209 -0.653206 0.119241 0
M  V30 3106 H 291.739 -1.80471 0.96391 0
M  V30 3107 H 291.749 -4.07951 0.0634791 0
M  V30 3108 H 290.424 -3.97866 1.21141 0
M  V30 3109 H 289.001 -3.68111 -0.59572 0
M  V30 3110 N 291.186 -0.45159 -1.50991 0
M  V30 3111 C 292.414 0.108334 -2.06616 0
M  V30 3112 C 292.829 1.35224 -1.31757 0
M  V30 3113 O 292.186 1.78475 -0.381174 0
M  V30 3114 C 292.237 0.41619 -3.59096 0
M  V30 3115 O 291.958 -0.778361 -4.3113 0
M  V30 3116 C 293.459 1.02523 -4.31282 0
M  V30 3117 H 290.679 0.00159995 -0.670998 0
M  V30 3118 H 293.223 -0.634771 -1.94399 0
M  V30 3119 H 291.378 1.10921 -3.71181 0
M  V30 3120 H 291.792 -0.511181 -5.22003 0
M  V30 3121 H 293.266 1.19053 -5.39009 0
M  V30 3122 H 293.743 2.01013 -3.905 0
M  V30 3123 H 294.349 0.371173 -4.23677 0
M  V30 3124 N 292.664 1.56529 -0.183458 0
M  V30 3125 C 293.913 1.96419 0.458511 0
M  V30 3126 C 294.226 1.0727 1.63562 0
M  V30 3127 O 295.432 1.36893 2.34462 0
M  V30 3128 C 293.888 3.49298 0.867122 0
M  V30 3129 C 293.496 4.47092 -0.285057 0
M  V30 3130 C 295.24 3.97983 1.47683 0
M  V30 3131 C 293.147 5.91225 0.143862 0
M  V30 3132 H 292.077 0.733394 0.175071 0
M  V30 3133 H 294.728 1.81448 -0.273624 0
M  V30 3134 H 293.11 3.59731 1.65559 0
M  V30 3135 H 294.284 4.48383 -1.0625 0
M  V30 3136 H 292.599 4.08535 -0.805503 0
M  V30 3137 H 295.196 5.03134 1.80999 0
M  V30 3138 H 295.539 3.41618 2.37914 0
M  V30 3139 H 296.072 3.90617 0.752562 0
M  V30 3140 H 292.811 6.5149 -0.723974 0
M  V30 3141 H 292.331 5.93214 0.886413 0
M  V30 3142 H 294.01 6.44362 0.583628 0
M  V30 3143 N 294.142 -0.090211 1.57342 0
M  V30 3144 C 295.367 -0.810082 1.90925 0
M  V30 3145 C 295.792 -1.71248 0.778187 0
M  V30 3146 O 295.15 -1.79278 -0.269991 0
M  V30 3147 C 295.198 -1.59529 3.23393 0
M  V30 3148 O 294.302 -2.70461 3.11327 0
M  V30 3149 H 293.643 -0.222231 0.625707 0
M  V30 3150 H 296.173 -0.0639716 2.045 0
M  V30 3151 H 296.183 -1.97847 3.5682 0
M  V30 3152 H 294.858 -0.933055 4.05299 0
M  V30 3153 H 293.435 -2.35135 2.89423 0
M  V30 3154 N 295.62 -1.53406 -0.361157 0
M  V30 3155 C 296.845 -1.74024 -1.12829 0
M  V30 3156 C 297.27 -0.470069 -1.82132 0
M  V30 3157 O 296.628 0.57619 -1.719 0
M  V30 3158 C 296.676 -2.90903 -2.13091 0
M  V30 3159 O 295.78 -2.59821 -3.20261 0
M  V30 3160 H 295.121 -0.577804 -0.327168 0
M  V30 3161 H 297.651 -2.00307 -0.41693 0
M  V30 3162 H 297.661 -3.17194 -2.56616 0
M  V30 3163 H 296.336 -3.83034 -1.62042 0
M  V30 3164 H 294.913 -2.44362 -2.81677 0
M  V30 3165 N 297.098 0.621204 -1.44841 0
M  V30 3166 C 298.345 1.38055 -1.48145 0
M  V30 3167 C 298.673 1.94143 -0.117867 0
M  V30 3168 O 297.928 1.74713 0.881694 0
M  V30 3169 C 298.227 2.55675 -2.4973 0
M  V30 3170 C 297.893 2.17817 -3.94799 0
M  V30 3171 C 296.555 2.07205 -4.34303 0
M  V30 3172 C 298.907 1.88065 -4.86087 0
M  V30 3173 C 296.235 1.65045 -5.63007 0
M  V30 3174 C 298.587 1.47394 -6.15189 0
M  V30 3175 C 297.251 1.35331 -6.53637 0
M  V30 3176 H 296.521 0.505181 -0.542101 0
M  V30 3177 H 299.168 0.703477 -1.78111 0
M  V30 3178 H 297.473 3.2866 -2.13284 0
M  V30 3179 H 299.17 3.13904 -2.4953 0
M  V30 3180 H 295.76 2.26998 -3.63552 0
M  V30 3181 H 299.944 1.95168 -4.56315 0
M  V30 3182 H 295.2 1.54317 -5.91605 0
M  V30 3183 H 299.374 1.23415 -6.85377 0
M  V30 3184 H 297.001 1.02435 -7.53267 0
M  V30 3185 N 298.576 1.31904 0.862503 0
M  V30 3186 C 299.801 1.25135 1.65397 0
M  V30 3187 C 300.226 -0.179 1.87246 0
M  V30 3188 O 299.584 -1.1277 1.4196 0
M  V30 3189 C 299.632 2.00832 2.99498 0
M  V30 3190 O 298.736 1.35075 3.89652 0
M  V30 3191 H 298.077 0.431655 0.504549 0
M  V30 3192 H 300.607 1.74094 1.07483 0
M  V30 3193 H 300.617 2.10709 3.49379 0
M  V30 3194 H 299.292 3.04847 2.82916 0
M  V30 3195 H 297.869 1.33696 3.48109 0
M  V30 3196 N 300.054 -1.07777 1.14986 0
M  V30 3197 C 301.465 -1.61766 0.932127 0
M  V30 3198 C 301.816 -1.88974 -0.527581 0
M  V30 3199 O 300.941 -1.65198 -1.39781 0
M  V30 3200 C 301.536 -2.93891 1.68563 0
M  V30 3201 C 300.095 -3.44639 1.5133 0
M  V30 3202 C 299.242 -2.18767 1.704 0
M  V30 3203 H 302.193 -0.909201 1.30074 0
M  V30 3204 H 302.214 -3.62623 1.15259 0
M  V30 3205 H 301.726 -2.74057 2.74799 0
M  V30 3206 H 299.827 -3.69564 0.474702 0
M  V30 3207 H 299.94 -4.20966 2.28746 0
M  V30 3208 H 298.304 -2.28253 1.13016 0
M  V30 3209 H 299.087 -2.01433 2.77992 0
M  V30 3210 N 301.532 -0.945985 -1.26051 0
M  V30 3211 C 302.943 -0.638096 -1.75457 0
M  V30 3212 C 303.294 0.846672 -1.76991 0
M  V30 3213 O 302.419 1.66262 -1.38513 0
M  V30 3214 C 303.014 -1.15157 -3.18629 0
M  V30 3215 C 301.573 -0.894004 -3.65629 0
M  V30 3216 C 300.72 -1.29967 -2.44957 0
M  V30 3217 H 303.671 -1.12376 -1.1206 0
M  V30 3218 H 303.692 -0.507615 -3.77099 0
M  V30 3219 H 303.204 -2.23222 -3.1748 0
M  V30 3220 H 301.305 0.172057 -3.72203 0
M  V30 3221 H 301.418 -1.52439 -4.54202 0
M  V30 3222 H 299.782 -0.718078 -2.44368 0
M  V30 3223 H 300.565 -2.38935 -2.46505 0
M  V30 3224 N 303.011 1.40521 -0.713556 0
M  V30 3225 C 304.259 2.00527 -0.251692 0
M  V30 3226 C 304.58 1.56857 1.15848 0
M  V30 3227 O 303.85 0.807127 1.785 0
M  V30 3228 H 302.43 0.741551 -0.0900646 0
M  V30 3229 H 305.092 1.71887 -0.918733 0
M  V30 3230 H 304.188 3.10813 -0.283192 0
M  V30 3231 N 304.489 0.459591 1.5075 0
M  V30 3232 C 305.719 -0.0972338 2.06371 0
M  V30 3233 C 306.127 -1.35074 1.32483 0
M  V30 3234 O 305.47 -1.79637 0.384226 0
M  V30 3235 C 305.532 -0.462759 3.56509 0
M  V30 3236 C 305.196 0.687084 4.51805 0
M  V30 3237 C 306.193 1.56578 4.95761 0
M  V30 3238 C 303.878 0.874144 4.94635 0
M  V30 3239 C 305.872 2.61604 5.81242 0
M  V30 3240 C 303.559 1.92765 5.79901 0
M  V30 3241 C 304.557 2.79697 6.23104 0
M  V30 3242 O 304.245 3.83235 7.06673 0
M  V30 3243 H 303.977 -0.00140687 0.675999 0
M  V30 3244 H 306.531 0.644011 1.95043 0
M  V30 3245 H 304.761 -1.25703 3.65699 0
M  V30 3246 H 306.45 -0.953323 3.94546 0
M  V30 3247 H 307.216 1.4329 4.6335 0
M  V30 3248 H 303.095 0.207006 4.60535 0
M  V30 3249 H 306.639 3.29489 6.14884 0
M  V30 3250 H 302.536 2.06064 6.11725 0
M  V30 3251 H 303.304 3.80084 7.24899 0
M  V30 3252 N 305.967 -1.56429 0.191757 0
M  V30 3253 C 306.899 -2.16154 -0.762245 0
M  V30 3254 C 307.912 -1.12247 -1.17917 0
M  V30 3255 O 309.101 -1.39353 -1.11548 0
M  V30 3256 C 306.201 -2.70606 -2.04024 0
M  V30 3257 C 305.374 -3.99381 -1.78364 0
M  V30 3258 C 304.433 -4.38692 -2.90578 0
M  V30 3259 O 303.459 -5.06179 -2.6033 0
M  V30 3260 N 304.661 -4.01922 -4.18854 0
M  V30 3261 H 307.426 -2.98643 -0.251526 0
M  V30 3262 H 304.987 -1.61897 0.00967373 0
M  V30 3263 H 306.979 -2.93891 -2.78227 0
M  V30 3264 H 305.549 -1.9259 -2.46227 0
M  V30 3265 H 304.769 -3.84262 -0.879581 0
M  V30 3266 H 306.057 -4.83445 -1.58614 0
M  V30 3267 H 305.455 -3.47631 -4.46283 0
M  V30 3268 H 304.012 -4.30165 -4.89695 0
M  V30 3269 N 307.445 0.0818655 -1.57387 0
M  V30 3270 C 308.691 0.784074 -1.8703 0
M  V30 3271 C 309.024 1.77729 -0.782689 0
M  V30 3272 O 308.299 1.93384 0.208051 0
M  V30 3273 C 308.582 1.50105 -3.27323 0
M  V30 3274 C 308.435 0.524925 -4.46727 0
M  V30 3275 C 309.754 2.44843 -3.65705 0
M  V30 3276 H 306.873 0.283582 -0.680257 0
M  V30 3277 H 309.515 0.0474352 -1.89941 0
M  V30 3278 H 307.665 2.12897 -3.24972 0
M  V30 3279 H 309.337 -0.0970111 -4.61198 0
M  V30 3280 H 307.58 -0.160606 -4.33503 0
M  V30 3281 H 308.251 1.064 -5.41648 0
M  V30 3282 H 310.727 1.92135 -3.69085 0
M  V30 3283 H 309.603 2.92018 -4.64776 0
M  V30 3284 H 309.864 3.29197 -2.95096 0
M  V30 3285 N 308.923 1.53595 0.353017 0
M  V30 3286 C 310.148 1.7462 1.11904 0
M  V30 3287 C 310.573 0.479721 1.8188 0
M  V30 3288 O 309.931 -0.567066 1.72204 0
M  V30 3289 C 309.979 2.92029 2.11545 0
M  V30 3290 O 309.083 2.61516 3.18878 0
M  V30 3291 H 308.424 0.579531 0.324099 0
M  V30 3292 H 310.954 2.00525 0.406301 0
M  V30 3293 H 310.964 3.18551 2.5493 0
M  V30 3294 H 309.639 3.83888 1.60008 0
M  V30 3295 H 308.216 2.45852 2.80377 0
M  V30 3296 N 310.401 -0.613514 1.45168 0
M  V30 3297 C 311.648 -1.37268 1.48875 0
M  V30 3298 C 311.976 -1.94077 0.128161 0
M  V30 3299 O 311.231 -1.75178 -0.872416 0
M  V30 3300 C 311.53 -2.54347 2.51083 0
M  V30 3301 C 311.196 -2.1572 3.95949 0
M  V30 3302 C 309.858 -2.04899 4.35396 0
M  V30 3303 C 312.21 -1.85485 4.87078 0
M  V30 3304 C 309.538 -1.62057 5.63875 0
M  V30 3305 C 311.89 -1.4413 6.15962 0
M  V30 3306 C 310.554 -1.31863 6.54346 0
M  V30 3307 H 309.824 -0.502299 0.544773 0
M  V30 3308 H 312.471 -0.694021 1.78481 0
M  V30 3309 H 310.776 -3.27524 2.15024 0
M  V30 3310 H 312.473 -3.12577 2.51191 0
M  V30 3311 H 309.063 -2.25066 3.64751 0
M  V30 3312 H 313.247 -1.92745 4.57343 0
M  V30 3313 H 308.503 -1.51177 5.92415 0
M  V30 3314 H 312.677 -1.19778 6.86022 0
M  V30 3315 H 310.304 -0.984392 7.538 0
M  V30 3316 N 311.879 -1.3236 -0.855495 0
M  V30 3317 C 313.119 -1.24187 -1.62348 0
M  V30 3318 C 313.483 0.193597 -1.91021 0
M  V30 3319 O 314.684 0.39904 -2.65822 0
M  V30 3320 C 312.955 -2.07661 -2.90881 0
M  V30 3321 S 314.514 -2.16505 -3.81669 0
M  V30 3322 H 311.332 -0.442076 -0.556857 0
M  V30 3323 H 313.934 -1.67198 -1.01317 0
M  V30 3324 H 312.638 -3.11018 -2.67761 0
M  V30 3325 H 312.169 -1.65425 -3.56929 0
M  V30 3326 H 314.184 -1.31394 -4.78487 0
M  V30 3327 N 313.357 1.07166 -1.15556 0
M  V30 3328 C 314.287 2.16403 -0.877046 0
M  V30 3329 C 315.268 1.69217 0.173111 0
M  V30 3330 O 316.453 1.94181 0.027084 0
M  V30 3331 C 313.583 3.45349 -0.367632 0
M  V30 3332 C 312.537 4.05995 -1.35468 0
M  V30 3333 C 311.863 5.30045 -0.704038 0
M  V30 3334 C 313.163 4.45804 -2.72132 0
M  V30 3335 H 314.857 2.39959 -1.79053 0
M  V30 3336 H 312.403 1.15325 -0.862331 0
M  V30 3337 H 314.356 4.21095 -0.160317 0
M  V30 3338 H 313.08 3.21385 0.581326 0
M  V30 3339 H 311.739 3.32296 -1.54839 0
M  V30 3340 H 311.387 5.02373 0.251128 0
M  V30 3341 H 311.087 5.71579 -1.36277 0
M  V30 3342 H 312.611 6.08495 -0.50654 0
M  V30 3343 H 314.025 5.12671 -2.56595 0
M  V30 3344 H 312.422 4.98296 -3.34397 0
M  V30 3345 H 313.492 3.57083 -3.28054 0
M  V30 3346 N 314.835 0.952656 1.25548 0
M  V30 3347 C 316.081 0.607272 1.93494 0
M  V30 3348 C 316.414 -0.853245 1.74452 0
M  V30 3349 O 315.689 -1.61194 1.08843 0
M  V30 3350 C 315.972 0.96435 3.46947 0
M  V30 3351 C 315.825 2.48045 3.75225 0
M  V30 3352 C 317.144 0.487987 4.37386 0
M  V30 3353 H 314.263 0.222096 0.702739 0
M  V30 3354 H 316.905 1.18895 1.48203 0
M  V30 3355 H 315.055 0.469361 3.85654 0
M  V30 3356 H 316.727 3.04905 3.46166 0
M  V30 3357 H 314.97 2.919 3.209 0
M  V30 3358 H 315.641 2.6808 4.82532 0
M  V30 3359 H 318.117 0.912558 4.0597 0
M  V30 3360 H 316.993 0.766547 5.43521 0
M  V30 3361 H 317.254 -0.612063 4.37843 0
M  V30 3362 N 316.313 -1.40141 0.720998 0
M  V30 3363 C 317.246 -2.2819 0.020916 0
M  V30 3364 C 318.224 -1.43633 -0.762129 0
M  V30 3365 O 319.408 -1.7304 -0.747633 0
M  V30 3366 C 316.535 -3.24281 -0.977715 0
M  V30 3367 C 315.581 -4.25548 -0.284836 0
M  V30 3368 S 316.414 -5.26247 0.991169 0
M  V30 3369 C 317.57 -6.259 -0.0052214 0
M  V30 3370 H 317.803 -2.87218 0.767649 0
M  V30 3371 H 315.336 -1.45656 0.512233 0
M  V30 3372 H 317.294 -3.80167 -1.54865 0
M  V30 3373 H 315.955 -2.643 -1.69719 0
M  V30 3374 H 315.148 -4.93154 -1.03996 0
M  V30 3375 H 314.75 -3.73389 0.213684 0
M  V30 3376 H 317.042 -6.72143 -0.850279 0
M  V30 3377 H 317.985 -7.05224 0.637599 0
M  V30 3378 H 318.393 -5.63277 -0.371366 0
M  V30 3379 N 317.792 -0.46758 -1.50504 0
M  V30 3380 C 319.038 0.0887532 -2.02606 0
M  V30 3381 C 319.371 1.39686 -1.34913 0
M  V30 3382 O 318.646 1.88644 -0.473694 0
M  V30 3383 C 318.929 0.276206 -3.59039 0
M  V30 3384 C 318.782 -1.05267 -4.37309 0
M  V30 3385 C 320.101 1.03235 -4.27821 0
M  V30 3386 H 317.22 0.0307814 -0.736357 0
M  V30 3387 H 319.862 -0.612485 -1.79857 0
M  V30 3388 H 318.012 0.8735 -3.78553 0
M  V30 3389 H 319.684 -1.68628 -4.29374 0
M  V30 3390 H 317.927 -1.65015 -4.01189 0
M  V30 3391 H 318.598 -0.875197 -5.45018 0
M  V30 3392 H 321.074 0.526111 -4.12761 0
M  V30 3393 H 319.95 1.1323 -5.37094 0
M  V30 3394 H 320.211 2.06806 -3.90748 0
M  V30 3395 N 319.27 1.56325 -0.20005 0
M  V30 3396 C 320.2 2.22318 0.713916 0
M  V30 3397 C 321.181 1.18788 1.21752 0
M  V30 3398 O 322.366 1.47309 1.26545 0
M  V30 3399 C 319.496 2.88639 1.93144 0
M  V30 3400 C 318.45 3.98457 1.56255 0
M  V30 3401 C 317.776 4.51967 2.85709 0
M  V30 3402 C 319.076 5.16612 0.768747 0
M  V30 3403 H 320.77 2.98952 0.163755 0
M  V30 3404 H 318.316 1.43792 0.0773219 0
M  V30 3405 H 320.269 3.33491 2.57608 0
M  V30 3406 H 318.993 2.09419 2.50621 0
M  V30 3407 H 317.652 3.54305 0.941471 0
M  V30 3408 H 317.3 3.69503 3.41287 0
M  V30 3409 H 317 5.26071 2.6177 0
M  V30 3410 H 318.524 4.99523 3.51154 0
M  V30 3411 H 319.938 5.57977 1.3166 0
M  V30 3412 H 318.335 5.96812 0.627286 0
M  V30 3413 H 319.405 4.84358 -0.229168 0
M  V30 3414 N 320.748 -0.0735177 1.57428 0
M  V30 3415 C 321.678 -1.0879 2.06608 0
M  V30 3416 C 322.659 -1.40473 0.959237 0
M  V30 3417 O 323.844 -1.5013 1.23185 0
M  V30 3418 C 320.974 -2.40183 2.50857 0
M  V30 3419 C 319.928 -2.22858 3.65402 0
M  V30 3420 C 319.254 -3.59619 3.957 0
M  V30 3421 C 320.554 -1.65123 4.95511 0
M  V30 3422 H 322.248 -0.678673 2.91607 0
M  V30 3423 H 319.794 -0.325013 1.40284 0
M  V30 3424 H 321.747 -3.11437 2.83874 0
M  V30 3425 H 320.471 -2.83083 1.62885 0
M  V30 3426 H 319.13 -1.54045 3.32664 0
M  V30 3427 H 318.778 -4.00086 3.04861 0
M  V30 3428 H 318.478 -3.48866 4.72828 0
M  V30 3429 H 320.002 -4.32306 4.31212 0
M  V30 3430 H 321.416 -2.26241 5.26771 0
M  V30 3431 H 319.813 -1.65071 5.7695 0
M  V30 3432 H 320.883 -0.612559 4.81015 0
M  V30 3433 N 322.226 -1.5378 -0.344866 0
M  V30 3434 C 323.473 -1.70963 -1.08526 0
M  V30 3435 C 323.801 -0.472126 -1.88683 0
M  V30 3436 O 323.056 0.546116 -1.87926 0
M  V30 3437 C 323.355 -2.92407 -2.05506 0
M  V30 3438 C 323.021 -4.28066 -1.41671 0
M  V30 3439 C 321.683 -4.64951 -1.2399 0
M  V30 3440 C 324.035 -5.12344 -0.956726 0
M  V30 3441 C 321.363 -5.83733 -0.589277 0
M  V30 3442 C 323.715 -6.3179 -0.320015 0
M  V30 3443 C 322.379 -6.67372 -0.130881 0
M  V30 3444 H 321.649 -0.625598 -0.397124 0
M  V30 3445 H 324.296 -1.87995 -0.36469 0
M  V30 3446 H 322.601 -2.69973 -2.8394 0
M  V30 3447 H 324.298 -3.02895 -2.62784 0
M  V30 3448 H 320.888 -3.99034 -1.56429 0
M  V30 3449 H 325.072 -4.8438 -1.08118 0
M  V30 3450 H 320.328 -6.09877 -0.431344 0
M  V30 3451 H 324.502 -6.96386 0.0445072 0
M  V30 3452 H 322.129 -7.59273 0.375318 0
M  V30 3453 N 323.704 0.605807 -1.45491 0
M  V30 3454 C 324.667 1.69836 -1.5391 0
M  V30 3455 C 325.667 1.55261 -0.418424 0
M  V30 3456 O 326.857 1.60296 -0.681965 0
M  V30 3457 C 323.989 3.09117 -1.43734 0
M  V30 3458 H 325.182 1.63738 -2.51257 0
M  V30 3459 H 322.735 0.821689 -1.32959 0
M  V30 3460 H 323.47 3.20791 -0.475788 0
M  V30 3461 H 323.255 3.21104 -2.25021 0
M  V30 3462 H 324.745 3.88696 -1.52661 0
M  V30 3463 N 325.182 1.32811 0.848464 0
M  V30 3464 C 326.428 1.23907 1.60546 0
M  V30 3465 C 326.761 -0.197161 1.93197 0
M  V30 3466 O 326.036 -1.13596 1.5788 0
M  V30 3467 C 326.319 2.10489 2.92175 0
M  V30 3468 C 326.172 3.62522 2.66266 0
M  V30 3469 C 327.491 1.97075 3.93509 0
M  V30 3470 H 324.61 0.451459 0.58254 0
M  V30 3471 H 327.252 1.62818 0.979296 0
M  V30 3472 H 325.402 1.77434 3.45614 0
M  V30 3473 H 327.074 4.05821 2.19334 0
M  V30 3474 H 325.317 3.84879 2.00126 0
M  V30 3475 H 325.988 4.18437 3.6002 0
M  V30 3476 H 328.464 2.26045 3.49346 0
M  V30 3477 H 327.34 2.59923 4.83457 0
M  V30 3478 H 327.601 0.940186 4.31987 0
M  V30 3479 N 326.66 -1.06551 1.16123 0
M  V30 3480 C 327.937 -1.76097 0.85142 0
M  V30 3481 C 328.317 -2.00802 -0.6513 0
M  V30 3482 O 327.665 -1.63302 -1.59827 0
M  V30 3483 C 327.875 -3.06384 1.67122 0
M  V30 3484 C 329.223 -3.80585 1.88255 0
M  V30 3485 O 330.247 -3.16218 1.63966 0
M  V30 3486 O 329.106 -4.96212 2.2899 0
M  V30 3487 H 326.2 -0.765102 0.313923 0
M  V30 3488 H 328.746 -1.12844 1.26745 0
M  V30 3489 H 327.518 -2.84071 2.69108 0
M  V30 3490 H 327.141 -3.77371 1.25206 0
M  V30 3491 N 328.138 -0.959301 -1.25041 0
M  V30 3492 C 329.366 -0.633949 -1.96948 0
M  V30 3493 C 329.781 0.794916 -1.7125 0
M  V30 3494 O 329.138 1.53231 -0.991287 0
M  V30 3495 C 329.189 -0.888805 -3.50403 0
M  V30 3496 O 328.91 -2.26149 -3.75218 0
M  V30 3497 C 330.411 -0.576482 -4.39536 0
M  V30 3498 H 327.631 -0.237263 -0.627652 0
M  V30 3499 H 330.175 -1.28495 -1.59089 0
M  V30 3500 H 328.33 -0.284145 -3.86357 0
M  V30 3501 H 328.744 -2.33514 -4.6965 0
M  V30 3502 H 330.218 -0.805314 -5.46094 0
M  V30 3503 H 330.695 0.489075 -4.36468 0
M  V30 3504 H 331.301 -1.16067 -4.09156 0
M  V30 3505 N 329.616 1.39756 -0.72842 0
M  V30 3506 C 330.864 2.00248 -0.272946 0
M  V30 3507 C 331.185 1.58077 1.14178 0
M  V30 3508 O 330.455 0.826014 1.77634 0
M  V30 3509 H 329.035 0.740554 -0.0979247 0
M  V30 3510 H 331.697 1.70903 -0.936912 0
M  V30 3511 H 330.793 3.10495 -0.316142 0
M  V30 3512 N 331.094 0.475555 1.50254 0
M  V30 3513 C 332.024 -0.30611 2.31485 0
M  V30 3514 C 333.005 -0.986228 1.38591 0
M  V30 3515 O 334.19 -0.982541 1.67511 0
M  V30 3516 C 331.32 -1.38588 3.1845 0
M  V30 3517 C 330.274 -0.827115 4.19932 0
M  V30 3518 C 329.6 -2.00551 4.95665 0
M  V30 3519 C 330.9 0.16463 5.2204 0
M  V30 3520 H 332.594 0.371866 2.97082 0
M  V30 3521 H 330.14 0.180282 1.42867 0
M  V30 3522 H 332.093 -1.94023 3.74076 0
M  V30 3523 H 330.817 -2.09269 2.50747 0
M  V30 3524 H 329.476 -0.294702 3.65414 0
M  V30 3525 H 329.124 -2.6994 4.2443 0
M  V30 3526 H 328.824 -1.63784 5.64313 0
M  V30 3527 H 330.348 -2.56468 5.54127 0
M  V30 3528 H 331.762 -0.300699 5.72511 0
M  V30 3529 H 330.159 0.446813 5.98434 0
M  V30 3530 H 331.229 1.08905 4.72512 0
M  V30 3531 N 332.573 -1.56217 0.208337 0
M  V30 3532 C 333.803 -2.02043 -0.431523 0
M  V30 3533 C 334.211 -1.08755 -1.54819 0
M  V30 3534 O 333.554 -0.0870009 -1.83494 0
M  V30 3535 C 333.616 -3.44239 -1.03633 0
M  V30 3536 C 333.28 -4.56965 -0.0567502 0
M  V30 3537 C 334.277 -5.14624 0.738773 0
M  V30 3538 C 331.962 -5.02266 0.0581736 0
M  V30 3539 C 333.956 -6.16045 1.63605 0
M  V30 3540 C 331.643 -6.03528 0.959001 0
M  V30 3541 C 332.641 -6.60293 1.7465 0
M  V30 3542 O 332.329 -7.59586 2.6322 0
M  V30 3543 H 332.061 -0.666772 -0.111313 0
M  V30 3544 H 334.615 -2.02919 0.318277 0
M  V30 3545 H 332.845 -3.40391 -1.83497 0
M  V30 3546 H 334.534 -3.73793 -1.58221 0
M  V30 3547 H 335.3 -4.80483 0.660364 0
M  V30 3548 H 331.179 -4.57771 -0.544633 0
M  V30 3549 H 334.723 -6.60279 2.25116 0
M  V30 3550 H 330.62 -6.37092 1.03848 0
M  V30 3551 H 331.388 -7.77057 2.57148 0
M  V30 3552 N 334.051 0.0651679 -1.57465 0
M  V30 3553 C 335.298 0.763063 -1.87573 0
M  V30 3554 C 335.626 1.77242 -0.800961 0
M  V30 3555 O 334.881 1.94651 0.202316 0
M  V30 3556 C 335.18 1.50081 -3.24362 0
M  V30 3557 C 334.846 0.630816 -4.46466 0
M  V30 3558 C 333.508 0.391082 -4.79608 0
M  V30 3559 C 335.86 0.0279465 -5.21193 0
M  V30 3560 C 333.188 -0.460894 -5.84887 0
M  V30 3561 C 335.54 -0.811522 -6.27373 0
M  V30 3562 C 334.204 -1.06106 -6.59013 0
M  V30 3563 H 333.474 0.279224 -0.686378 0
M  V30 3564 H 336.121 0.0236726 -1.91485 0
M  V30 3565 H 334.426 2.31258 -3.16271 0
M  V30 3566 H 336.123 2.04571 -3.44894 0
M  V30 3567 H 332.713 0.8278 -4.2053 0
M  V30 3568 H 336.897 0.200262 -4.95896 0
M  V30 3569 H 332.153 -0.662907 -6.07796 0
M  V30 3570 H 336.327 -1.28537 -6.84435 0
M  V30 3571 H 333.954 -1.723 -7.40417 0
M  V30 3572 N 335.529 1.53961 0.336706 0
M  V30 3573 C 336.754 1.75797 1.10046 0
M  V30 3574 C 337.179 0.498985 1.81361 0
M  V30 3575 O 336.537 -0.548769 1.72795 0
M  V30 3576 C 336.585 2.94257 2.08436 0
M  V30 3577 O 335.689 2.64883 3.16087 0
M  V30 3578 H 335.03 0.582936 0.317934 0
M  V30 3579 H 337.56 2.00945 0.38501 0
M  V30 3580 H 337.57 3.21237 2.51537 0
M  V30 3581 H 336.245 3.85564 1.55927 0
M  V30 3582 H 334.822 2.48812 2.77753 0
M  V30 3583 N 337.007 -0.598083 1.45811 0
M  V30 3584 C 338.253 -1.35882 1.50545 0
M  V30 3585 C 338.586 -1.93616 0.150445 0
M  V30 3586 O 337.861 -1.75604 -0.83628 0
M  V30 3587 C 338.144 -2.49966 2.59208 0
M  V30 3588 C 337.997 -1.97367 4.04186 0
M  V30 3589 C 339.316 -3.52068 2.64076 0
M  V30 3590 H 336.435 -0.492717 0.548087 0
M  V30 3591 H 339.077 -0.673319 1.77669 0
M  V30 3592 H 337.227 -3.08443 2.3621 0
M  V30 3593 H 338.899 -1.43466 4.38423 0
M  V30 3594 H 337.142 -1.283 4.14393 0
M  V30 3595 H 337.813 -2.79649 4.75921 0
M  V30 3596 H 340.289 -3.03448 2.84708 0
M  V30 3597 H 339.165 -4.2937 3.41954 0
M  V30 3598 H 339.426 -4.08304 1.69531 0
M  V30 3599 N 338.485 -1.33259 -0.841409 0
M  V30 3600 C 339.432 -1.23302 -1.95103 0
M  V30 3601 C 340.402 -0.112204 -1.65721 0
M  V30 3602 O 341.587 -0.290038 -1.88583 0
M  V30 3603 C 338.727 -0.975583 -3.31023 0
M  V30 3604 C 337.84 -2.18243 -3.72819 0
M  V30 3605 C 336.975 -1.85936 -4.97595 0
M  V30 3606 C 336.014 -3.02866 -5.3192 0
M  V30 3607 N 335.151 -2.70565 -6.47873 0
M  V30 3608 H 339.991 -2.18207 -2.02952 0
M  V30 3609 H 337.528 -1.0851 -0.993173 0
M  V30 3610 H 339.486 -0.80677 -4.09325 0
M  V30 3611 H 338.116 -0.0632755 -3.22738 0
M  V30 3612 H 337.168 -2.46107 -2.90061 0
M  V30 3613 H 338.48 -3.05666 -3.94169 0
M  V30 3614 H 337.634 -1.65684 -5.83638 0
M  V30 3615 H 336.373 -0.957452 -4.78209 0
M  V30 3616 H 335.378 -3.23736 -4.44382 0
M  V30 3617 H 336.603 -3.93809 -5.53255 0
M  V30 3618 H 334.549 -1.8293 -6.29978 0
M  V30 3619 H 334.466 -3.51519 -6.69306 0
M  V30 3620 H 335.734 -2.53774 -7.37034 0
M  V30 3621 N 339.963 1.05934 -1.16686 0
M  V30 3622 C 341.191 1.8249 -0.974929 0
M  V30 3623 C 341.606 1.82679 0.476861 0
M  V30 3624 O 340.963 1.2486 1.33103 0
M  V30 3625 C 341.014 3.28943 -1.49929 0
M  V30 3626 O 340.735 3.28886 -2.89423 0
M  V30 3627 C 342.236 4.22215 -1.35089 0
M  V30 3628 H 339.456 0.575295 -0.345365 0
M  V30 3629 H 342 1.33631 -1.548 0
M  V30 3630 H 340.155 3.751 -0.968423 0
M  V30 3631 H 340.569 4.20493 -3.13506 0
M  V30 3632 H 342.043 5.22987 -1.76603 0
M  V30 3633 H 342.52 4.38195 -0.296935 0
M  V30 3634 H 343.126 3.81907 -1.87155 0
M  V30 3635 N 341.441 0.965919 1.2453 0
M  V30 3636 C 342.389 0.486506 2.27455 0
M  V30 3637 C 343.383 -0.449041 1.6334 0
M  V30 3638 O 344.589 -0.324527 1.7705 0
M  V30 3639 H 340.964 0.138857 0.739069 0
M  V30 3640 H 342.935 1.3666 2.65267 0
M  V30 3641 C 341.684 -0.209481 3.47068 0
M  V30 3642 H 341.007 0.50129 3.96645 0
M  V30 3643 H 342.447 -0.508775 4.20936 0
M  V30 3644 C 340.906 -1.43586 3.0477 0
M  V30 3645 O 341.436 -2.53299 3.11773 0
M  V30 3646 N 339.642 -1.30126 2.59838 0
M  V30 3647 H 339.189 -0.408583 2.54339 0
M  V30 3648 H 339.147 -2.12294 2.31902 0
M  V30 3649 N 342.919 -1.39368 0.735821 0
M  V30 3650 C 344.168 -1.99733 0.281004 0
M  V30 3651 C 344.481 -1.59055 -1.13846 0
M  V30 3652 O 345.687 -2.12262 -1.69284 0
M  V30 3653 C 344.143 -3.57057 0.451462 0
M  V30 3654 C 343.751 -4.06697 1.87886 0
M  V30 3655 C 345.495 -4.2446 0.0584616 0
M  V30 3656 C 343.402 -5.56598 1.99883 0
M  V30 3657 H 342.332 -0.747163 0.101311 0
M  V30 3658 H 344.983 -1.59357 0.909819 0
M  V30 3659 H 343.365 -3.95234 -0.246263 0
M  V30 3660 H 344.539 -3.79853 2.60861 0
M  V30 3661 H 342.854 -3.5196 2.22515 0
M  V30 3662 H 345.451 -5.34549 0.127099 0
M  V30 3663 H 345.794 -4.04444 -0.986433 0
M  V30 3664 H 346.327 -3.9146 0.707374 0
M  V30 3665 H 343.066 -5.81494 3.02564 0
M  V30 3666 H 342.586 -5.85242 1.31346 0
M  V30 3667 H 344.265 -6.22022 1.78039 0
M  V30 3668 O 344.436 -0.625292 -1.48904 0
M  V30 3669 H 345.127 -0.142374 -1.93176 0
M  V30 END ATOM
M  V30 BEGIN BOND
M  V30 END BOND
M  V30 END CTAB
M  END
$$$$
