drugbank_target|O75964 ATP synthase subunit g, mitochondrial (DB11638; DB12695)
 OpenBabel12092121073D

  0  0  0     0  0            999 V3000
M  V30 BEGIN CTAB
M  V30 COUNTS 1658 1676 0 0 0
M  V30 BEGIN ATOM
M  V30 1 H -0.908 1.98254 -0.117106 0
M  V30 2 N 0 1.576 0 0
M  V30 3 C 0.933 2.03868 1.02534 0
M  V30 4 C 1.911 0.928543 1.3348 0
M  V30 5 O 3.095 1.19667 1.45644 0
M  V30 6 C 0.222 2.43627 2.35294 0
M  V30 7 C -0.732 3.65373 2.2001 0
M  V30 8 S 0.101 5.13292 1.52614 0
M  V30 9 C 1.257 5.56322 2.86805 0
M  V30 10 H 1.49 2.90518 0.631377 0
M  V30 11 H -0.977 1.52953 0.210867 0
M  V30 12 H 0.981 2.67203 3.11629 0
M  V30 13 H -0.358 1.57376 2.7183 0
M  V30 14 H -1.165 3.90944 3.18086 0
M  V30 15 H -1.563 3.418 1.51819 0
M  V30 16 H 0.729 5.58782 3.83104 0
M  V30 17 H 1.672 6.56266 2.65933 0
M  V30 18 H 2.08 4.83886 2.90714 0
M  V30 19 N 1.4781 -0.272755 1.55222 0
M  V30 20 C 2.4411 -1.32041 1.87344 0
M  V30 21 C 3.4411 -1.42342 0.74803 0
M  V30 22 O 4.6311 -1.41488 1.0162 0
M  V30 23 C 1.7631 -2.70173 2.07893 0
M  V30 24 H 2.9561 -1.04789 2.80997 0
M  V30 25 H 0.5091 -0.51083 1.47717 0
M  V30 26 H 1.2441 -3.02605 1.16622 0
M  V30 27 H 1.0291 -2.64082 2.89833 0
M  V30 28 H 2.5191 -3.45869 2.34017 0
M  V30 29 N 2.9562 -1.48159 -0.537278 0
M  V30 30 C 3.8882 -1.58218 -1.65831 0
M  V30 31 C 4.9012 -0.466948 -1.5596 0
M  V30 32 O 6.0902 -0.73747 -1.62553 0
M  V30 33 C 3.1902 -1.48906 -3.04434 0
M  V30 34 C 2.3632 -2.75343 -3.3986 0
M  V30 35 C 1.4222 -2.59588 -4.57712 0
M  V30 36 O 0.4482 -3.33457 -4.61297 0
M  V30 37 N 1.6502 -1.68724 -5.55439 0
M  V30 38 H 4.4152 -2.54891 -1.57641 0
M  V30 39 H 1.9762 -1.4479 -0.724386 0
M  V30 40 H 3.9682 -1.36072 -3.81139 0
M  V30 41 H 2.5382 -0.602368 -3.06741 0
M  V30 42 H 1.7582 -3.02795 -2.52406 0
M  V30 43 H 3.0462 -3.5924 -3.60311 0
M  V30 44 H 2.4442 -1.07898 -5.55315 0
M  V30 45 H 1.0012 -1.61832 -6.3139 0
M  V30 46 N 4.4343 0.785586 -1.36625 0
M  V30 47 C 5.6813 1.54362 -1.31067 0
M  V30 48 C 6.0093 1.94195 0.10893 0
M  V30 49 O 5.2643 1.63262 1.07908 0
M  V30 50 C 5.5633 2.83007 -2.1827 0
M  V30 51 C 5.2293 2.62294 -3.6676 0
M  V30 52 C 3.8913 2.56353 -4.0723 0
M  V30 53 C 6.2433 2.43371 -4.6089 0
M  V30 54 C 3.5713 2.29461 -5.39967 0
M  V30 55 C 5.9233 2.18005 -5.93849 0
M  V30 56 C 4.5873 2.105 -6.3344 0
M  V30 57 H 3.8573 0.564851 -0.479609 0
M  V30 58 H 6.5043 0.906028 -1.68711 0
M  V30 59 H 4.8093 3.51253 -1.73576 0
M  V30 60 H 6.5063 3.40817 -2.11292 0
M  V30 61 H 3.0963 2.67774 -3.34656 0
M  V30 62 H 7.2803 2.46959 -4.30494 0
M  V30 63 H 2.5363 2.22135 -5.69619 0
M  V30 64 H 6.7103 2.02359 -6.66351 0
M  V30 65 H 4.3373 1.89425 -7.36222 0
M  V30 66 N 5.9124 1.20967 1.01018 0
M  V30 67 C 7.1584 1.02526 1.74975 0
M  V30 68 C 7.4914 -0.4408 1.89131 0
M  V30 69 O 6.7664 -1.32718 1.42184 0
M  V30 70 C 7.0494 1.71699 3.1653 0
M  V30 71 C 6.9024 3.25791 3.10129 0
M  V30 72 C 8.2214 1.45531 4.15342 0
M  V30 73 H 5.3404 0.373863 0.635134 0
M  V30 74 H 7.9824 1.49071 1.17805 0
M  V30 75 H 6.1324 1.32128 3.65341 0
M  V30 76 H 7.8044 3.74697 2.69072 0
M  V30 77 H 6.0474 3.56363 2.47362 0
M  V30 78 H 6.7184 3.69353 4.10222 0
M  V30 79 H 9.1944 1.79872 3.75213 0
M  V30 80 H 8.0704 1.96453 5.1254 0
M  V30 81 H 8.3314 0.384237 4.40427 0
M  V30 82 N 7.3905 -1.2043 1.01659 0
M  V30 83 C 8.8065 -1.41852 0.731442 0
M  V30 84 C 9.0065 -1.89358 -0.688898 0
M  V30 85 O 8.0625 -2.06247 -1.45666 0
M  V30 86 C 9.3755 -2.44019 1.75714 0
M  V30 87 C 10.9235 -2.57785 1.77527 0
M  V30 88 C 11.3985 -3.63194 2.79023 0
M  V30 89 N 12.8895 -3.70678 2.77763 0
M  V30 90 C 13.6245 -4.51897 3.52954 0
M  V30 91 N 13.1205 -5.36921 4.37821 0
M  V30 92 N 14.9135 -4.4643 3.41551 0
M  V30 93 H 7.0645 -0.879093 1.93354 0
M  V30 94 H 9.3275 -0.448425 0.835236 0
M  V30 95 H 9.0335 -2.1611 2.77469 0
M  V30 96 H 8.9075 -3.43007 1.56927 0
M  V30 97 H 11.2945 -2.85023 0.764569 0
M  V30 98 H 11.3755 -1.58992 2.00387 0
M  V30 99 H 11.0195 -3.36699 3.80258 0
M  V30 100 H 10.9495 -4.61609 2.53425 0
M  V30 101 H 13.4405 -3.09944 2.16201 0
M  V30 102 H 13.7535 -5.95981 4.91962 0
M  V30 103 H 12.0985 -5.36424 4.41899 0
M  V30 104 H 15.2895 -3.79042 2.74672 0
M  V30 105 H 15.4625 -5.09491 4.00404 0
M  V30 106 N 8.8686 -0.792821 -1.36206 0
M  V30 107 C 9.8166 -0.181555 -2.3189 0
M  V30 108 C 10.8106 0.661025 -1.55971 0
M  V30 109 O 12.0166 0.555728 -1.71206 0
M  V30 110 H 8.3916 -0.0399382 -0.750939 0
M  V30 111 H 10.3626 -1.00394 -2.81005 0
M  V30 112 C 9.1116 0.666444 -3.41253 0
M  V30 113 H 8.4346 0.0274489 -3.99791 0
M  V30 114 H 9.8746 1.06076 -4.10517 0
M  V30 115 C 8.3336 1.82614 -2.83114 0
M  V30 116 O 8.8636 2.9229 -2.75553 0
M  V30 117 N 7.0696 1.63333 -2.40356 0
M  V30 118 H 6.6166 0.741217 -2.46706 0
M  V30 119 H 6.5746 2.41087 -2.01803 0
M  V30 120 N 10.3467 1.47872 -0.545128 0
M  V30 121 C 11.2767 2.32661 0.197793 0
M  V30 122 C 12.2577 1.43041 0.920504 0
M  V30 123 O 13.4427 1.71912 0.90333 0
M  V30 124 C 10.5727 3.24569 1.23582 0
M  V30 125 C 9.5267 4.23333 0.630323 0
M  V30 126 C 8.8527 5.0448 1.77211 0
M  V30 127 C 10.1527 5.20704 -0.407974 0
M  V30 128 H 11.8467 2.95024 -0.510045 0
M  V30 129 H 9.3927 1.4187 -0.246731 0
M  V30 130 H 11.3457 3.8272 1.76362 0
M  V30 131 H 10.0697 2.60236 1.97344 0
M  V30 132 H 8.7287 3.6639 0.123922 0
M  V30 133 H 8.3767 4.36561 2.49847 0
M  V30 134 H 8.0767 5.71339 1.37281 0
M  V30 135 H 9.6007 5.65487 2.3034 0
M  V30 136 H 11.0147 5.7329 0.033305 0
M  V30 137 H 9.4117 5.95699 -0.725486 0
M  V30 138 H 10.4817 4.66917 -1.30828 0
M  V30 139 N 11.8248 0.280983 1.55075 0
M  V30 140 C 13.0708 -0.33461 2.00021 0
M  V30 141 C 13.4038 -1.55063 1.16915 0
M  V30 142 O 12.6788 -1.93006 0.240646 0
M  V30 143 C 12.9618 -0.711007 3.53011 0
M  V30 144 C 12.8148 0.512766 4.46868 0
M  V30 145 C 14.1338 -1.54522 4.12081 0
M  V30 146 H 11.2528 -0.120147 0.727141 0
M  V30 147 H 13.8948 0.389097 1.85973 0
M  V30 148 H 12.0448 -1.32761 3.65112 0
M  V30 149 H 13.7168 1.15131 4.46702 0
M  V30 150 H 11.9598 1.14975 4.18286 0
M  V30 151 H 12.6308 0.205556 5.51617 0
M  V30 152 H 15.1068 -1.02442 4.03293 0
M  V30 153 H 13.9828 -1.77739 5.19327 0
M  V30 154 H 14.2438 -2.52813 3.62682 0
M  V30 155 N 13.3029 -1.57598 0.00835791 0
M  V30 156 C 14.2129 -2.12385 -0.996487 0
M  V30 157 C 15.2289 -1.07108 -1.37127 0
M  V30 158 O 16.4049 -1.39055 -1.4569 0
M  V30 159 C 13.4699 -2.62314 -2.26699 0
M  V30 160 C 12.5309 -3.82225 -1.95456 0
M  V30 161 C 11.7639 -4.29763 -3.16449 0
M  V30 162 O 11.9869 -3.76584 -4.28416 0
M  V30 163 O 10.9209 -5.21832 -2.99958 0
M  V30 164 H 14.7469 -2.98479 -0.560725 0
M  V30 165 H 12.3319 -1.47903 -0.210987 0
M  V30 166 H 14.2139 -2.94589 -3.01322 0
M  V30 167 H 12.8889 -1.79313 -2.69497 0
M  V30 168 H 11.7959 -3.54909 -1.18282 0
M  V30 169 H 13.1289 -4.66324 -1.57489 0
M  V30 170 N 14.781 0.264519 -1.55364 0
M  V30 171 C 15.728 1.32717 -1.88825 0
M  V30 172 C 16.698 1.48675 -0.740605 0
M  V30 173 O 17.883 1.62945 -0.992657 0
M  V30 174 C 15.023 2.68089 -2.17307 0
M  V30 175 C 14.136 2.60284 -3.44785 0
M  V30 176 C 13.271 3.87892 -3.62924 0
M  V30 177 C 12.31 3.74631 -4.84064 0
M  V30 178 N 11.447 4.94092 -4.98816 0
M  V30 179 H 16.287 1.03481 -2.79456 0
M  V30 180 H 13.824 0.499757 -1.3835 0
M  V30 181 H 15.782 3.46864 -2.31821 0
M  V30 182 H 14.412 2.95509 -1.299 0
M  V30 183 H 13.464 1.73173 -3.38697 0
M  V30 184 H 14.776 2.46388 -4.33698 0
M  V30 185 H 13.93 4.75109 -3.77302 0
M  V30 186 H 12.669 4.04664 -2.7221 0
M  V30 187 H 11.674 2.85797 -4.69681 0
M  V30 188 H 12.899 3.5937 -5.76221 0
M  V30 189 H 10.845 5.11259 -4.11036 0
M  V30 190 H 10.762 4.8276 -5.81789 0
M  V30 191 H 12.03 5.82857 -5.17588 0
M  V30 192 N 16.2591 1.48442 0.529413 0
M  V30 193 C 17.4871 1.60151 1.30994 0
M  V30 194 C 17.9021 0.261985 1.86973 0
M  V30 195 O 17.2591 -0.748805 1.66431 0
M  V30 196 C 17.3101 2.64854 2.46038 0
M  V30 197 O 17.0311 3.93608 1.92365 0
M  V30 198 C 18.5321 2.87007 3.37849 0
M  V30 199 H 15.7521 0.539971 0.398338 0
M  V30 200 H 18.2961 1.94273 0.638597 0
M  V30 201 H 16.4511 2.33589 3.09055 0
M  V30 202 H 16.8651 4.51055 2.67675 0
M  V30 203 H 18.3391 3.64068 4.14919 0
M  V30 204 H 18.8161 1.95852 3.93114 0
M  V30 205 H 19.4221 3.19579 2.80623 0
M  V30 206 N 17.7372 -0.778329 1.37039 0
M  V30 207 C 19.1482 -1.35421 1.28523 0
M  V30 208 C 19.4992 -1.96075 -0.0700901 0
M  V30 209 O 18.6242 -1.93352 -0.971801 0
M  V30 210 C 19.2192 -2.46211 2.32735 0
M  V30 211 C 17.7782 -2.99585 2.27873 0
M  V30 212 C 16.9252 -1.72748 2.16918 0
M  V30 213 H 19.8762 -0.5791 1.47757 0
M  V30 214 H 19.8972 -3.2552 1.9702 0
M  V30 215 H 19.4092 -2.02036 3.31365 0
M  V30 216 H 17.5102 -3.48152 1.32745 0
M  V30 217 H 17.6232 -3.55646 3.21018 0
M  V30 218 H 15.9872 -1.95416 1.63354 0
M  V30 219 H 16.7702 -1.30686 3.17452 0
M  V30 220 N 19.2153 -1.21501 -1.00376 0
M  V30 221 C 20.1783 -0.976927 -2.07337 0
M  V30 222 C 21.1783 0.0525322 -1.60714 0
M  V30 223 O 22.3683 -0.184869 -1.73216 0
M  V30 224 C 19.5003 -0.473423 -3.37597 0
M  V30 225 H 20.6933 -1.92587 -2.29892 0
M  V30 226 H 18.2463 -1.03217 -1.17371 0
M  V30 227 H 18.9813 0.480379 -3.20722 0
M  V30 228 H 18.7663 -1.216 -3.72768 0
M  V30 229 H 20.2563 -0.32675 -4.1632 0
M  V30 230 N 20.6934 1.19889 -1.02296 0
M  V30 231 C 21.6234 2.25141 -0.619174 0
M  V30 232 C 22.6044 1.66051 0.368915 0
M  V30 233 O 23.7894 1.92546 0.252941 0
M  V30 234 C 20.9194 3.4728 0.0368783 0
M  V30 235 C 19.8734 4.19005 -0.872865 0
M  V30 236 C 19.1994 5.34637 -0.0822402 0
M  V30 237 C 20.4994 4.74452 -2.18387 0
M  V30 238 H 22.1934 2.59171 -1.49903 0
M  V30 239 H 19.7394 1.24579 -0.722222 0
M  V30 240 H 21.6924 4.20098 0.330958 0
M  V30 241 H 20.4164 3.12433 0.95149 0
M  V30 242 H 19.0754 3.48061 -1.15105 0
M  V30 243 H 18.7234 4.96034 0.83422 0
M  V30 244 H 18.4234 5.83557 -0.688149 0
M  V30 245 H 19.9474 6.10255 0.205238 0
M  V30 246 H 21.3614 5.39055 -1.95172 0
M  V30 247 H 19.7584 5.33834 -2.74119 0
M  V30 248 H 20.8284 3.92844 -2.84257 0
M  V30 249 N 22.1715 0.800033 1.35784 0
M  V30 250 C 23.4175 0.377901 1.99248 0
M  V30 251 C 23.7505 -1.05052 1.63333 0
M  V30 252 O 23.0255 -1.72768 0.893385 0
M  V30 253 C 23.3085 0.553922 3.55814 0
M  V30 254 C 23.1615 2.0268 4.01548 0
M  V30 255 C 24.4805 -0.0244802 4.40093 0
M  V30 256 H 21.5995 0.138782 0.723815 0
M  V30 257 H 24.2415 1.00835 1.61035 0
M  V30 258 H 22.3915 0.0172398 3.88496 0
M  V30 259 H 24.0635 2.62536 3.79305 0
M  V30 260 H 22.3065 2.5256 3.52698 0
M  V30 261 H 22.9775 2.10087 5.10458 0
M  V30 262 H 25.4535 0.433775 4.13833 0
M  V30 263 H 24.3295 0.128637 5.48749 0
M  V30 264 H 24.5905 -1.11758 4.27741 0
M  V30 265 N 23.6496 -1.47581 0.552962 0
M  V30 266 C 24.5976 -2.31648 -0.21023 0
M  V30 267 C 25.5916 -1.42663 -0.913432 0
M  V30 268 O 26.7976 -1.5945 -0.835201 0
M  V30 269 H 23.1726 -0.746989 -0.0866676 0
M  V30 270 H 25.1436 -2.93869 0.518051 0
M  V30 271 C 23.8926 -3.25226 -1.22976 0
M  V30 272 H 23.2156 -3.93658 -0.698077 0
M  V30 273 H 24.6556 -3.86889 -1.73473 0
M  V30 274 C 23.1146 -2.48448 -2.27542 0
M  V30 275 O 23.6446 -2.22585 -3.34393 0
M  V30 276 N 21.8506 -2.09532 -2.01357 0
M  V30 277 H 21.3976 -2.30765 -1.14478 0
M  V30 278 H 21.3556 -1.58476 -2.71538 0
M  V30 279 N 25.1277 -0.289203 -1.54924 0
M  V30 280 C 26.0907 0.579144 -2.21762 0
M  V30 281 C 27.0907 1.07047 -1.1999 0
M  V30 282 O 28.2807 0.968384 -1.44803 0
M  V30 283 C 25.4127 1.80055 -2.8947 0
M  V30 284 H 26.6057 -0.00464908 -2.999 0
M  V30 285 H 24.1587 -0.0399306 -1.56249 0
M  V30 286 H 24.8937 2.42449 -2.15381 0
M  V30 287 H 24.6787 1.45602 -3.64064 0
M  V30 288 H 26.1687 2.41773 -3.40493 0
M  V30 289 N 26.6058 1.57591 -0.0167156 0
M  V30 290 C 27.5688 2.08393 0.954204 0
M  V30 291 C 28.5688 0.996531 1.26198 0
M  V30 292 O 29.7588 1.25858 1.20438 0
M  V30 293 C 26.8908 2.5394 2.27436 0
M  V30 294 H 28.0838 2.95455 0.514451 0
M  V30 295 H 25.6368 1.54582 0.231089 0
M  V30 296 H 26.3718 1.70171 2.76066 0
M  V30 297 H 26.1568 3.33371 2.06412 0
M  V30 298 H 27.6468 2.93512 2.97053 0
M  V30 299 N 28.0839 -0.256276 1.55502 0
M  V30 300 C 29.3299 -0.987079 1.77157 0
M  V30 301 C 29.6629 -1.85327 0.580315 0
M  V30 302 O 28.9379 -1.89874 -0.421686 0
M  V30 303 C 29.2209 -1.85553 3.08613 0
M  V30 304 C 29.0739 -1.01816 4.38125 0
M  V30 305 C 30.3929 -2.8397 3.36228 0
M  V30 306 H 27.5119 -0.357428 0.644526 0
M  V30 307 H 30.1539 -0.258239 1.88237 0
M  V30 308 H 28.3039 -2.47695 2.99298 0
M  V30 309 H 29.9759 -0.416159 4.59419 0
M  V30 310 H 28.2189 -0.322178 4.32602 0
M  V30 311 H 28.8899 -1.65939 5.26468 0
M  V30 312 H 31.3659 -2.31964 3.45445 0
M  V30 313 H 30.2419 -3.41864 4.29442 0
M  V30 314 H 30.5029 -3.59955 2.56681 0
M  V30 315 N 29.562 -1.4872 -0.521534 0
M  V30 316 C 30.79 -1.60843 -1.30142 0
M  V30 317 C 31.205 -0.271897 -1.86832 0
M  V30 318 O 30.562 0.739969 -1.66825 0
M  V30 319 C 30.613 -2.66155 -2.4463 0
M  V30 320 O 30.334 -3.94623 -1.90275 0
M  V30 321 C 31.835 -2.88795 -3.36322 0
M  V30 322 H 29.055 -0.542075 -0.395468 0
M  V30 323 H 31.599 -1.94609 -0.628285 0
M  V30 324 H 29.754 -2.35224 -3.07812 0
M  V30 325 H 30.168 -4.52468 -2.65279 0
M  V30 326 H 31.642 -3.66264 -4.12983 0
M  V30 327 H 32.119 -1.97934 -3.9207 0
M  V30 328 H 32.725 -3.21063 -2.78924 0
M  V30 329 N 31.0401 0.771051 -1.3745 0
M  V30 330 C 32.2701 1.55789 -1.35696 0
M  V30 331 C 32.6781 1.89107 0.0594523 0
M  V30 332 O 32.0211 1.51984 1.03183 0
M  V30 333 C 32.0831 2.89515 -2.13123 0
M  V30 334 C 31.7471 2.78829 -3.62082 0
M  V30 335 C 32.7441 2.49812 -4.5595 0
M  V30 336 C 30.4291 2.9683 -4.05213 0
M  V30 337 C 32.4231 2.38923 -5.90927 0
M  V30 338 C 30.1101 2.85562 -5.40276 0
M  V30 339 C 31.1081 2.56649 -6.32946 0
M  V30 340 O 30.7961 2.45408 -7.65526 0
M  V30 341 H 30.5281 0.489257 -0.466481 0
M  V30 342 H 33.0821 0.963446 -1.81403 0
M  V30 343 H 31.3121 3.51081 -1.62107 0
M  V30 344 H 33.0011 3.50915 -2.03994 0
M  V30 345 H 33.7671 2.3559 -4.23937 0
M  V30 346 H 29.6461 3.18335 -3.33442 0
M  V30 347 H 33.1901 2.16277 -6.63227 0
M  V30 348 H 29.0871 2.99351 -5.71891 0
M  V30 349 H 29.8551 2.60753 -7.75855 0
M  V30 350 N 32.5182 1.22032 0.997298 0
M  V30 351 C 33.7432 1.06921 1.77715 0
M  V30 352 C 34.1682 -0.376226 1.84299 0
M  V30 353 O 33.5262 -1.27165 1.29223 0
M  V30 354 C 33.5742 1.67996 3.19076 0
M  V30 355 O 32.6782 0.930653 4.01762 0
M  V30 356 H 32.0192 0.375814 0.547412 0
M  V30 357 H 34.5492 1.61737 1.25309 0
M  V30 358 H 34.5592 1.72538 3.69723 0
M  V30 359 H 33.2342 2.73182 3.13599 0
M  V30 360 H 31.8112 0.960917 3.60307 0
M  V30 361 N 33.9963 -1.19345 1.0293 0
M  V30 362 C 34.9433 -2.2258 0.610464 0
M  V30 363 C 35.9133 -1.6179 -0.375946 0
M  V30 364 O 37.0983 -1.88844 -0.272511 0
M  V30 365 C 34.2383 -3.45085 -0.0321473 0
M  V30 366 C 33.3513 -4.20258 1.00035 0
M  V30 367 C 32.4863 -5.3019 0.32746 0
M  V30 368 C 31.5253 -5.97121 1.34584 0
M  V30 369 N 30.6623 -6.98615 0.698726 0
M  V30 370 H 35.5023 -2.57764 1.49538 0
M  V30 371 H 33.0393 -1.26644 0.748311 0
M  V30 372 H 34.9973 -4.15061 -0.421966 0
M  V30 373 H 33.6273 -3.10555 -0.88064 0
M  V30 374 H 32.6793 -3.49223 1.50823 0
M  V30 375 H 33.9913 -4.66175 1.77433 0
M  V30 376 H 33.1453 -6.06587 -0.11718 0
M  V30 377 H 31.8843 -4.85345 -0.478713 0
M  V30 378 H 30.8893 -5.19474 1.80074 0
M  V30 379 H 32.1143 -6.4405 2.15352 0
M  V30 380 H 30.0603 -6.55942 -0.0873471 0
M  V30 381 H 29.9773 -7.42724 1.41058 0
M  V30 382 H 31.2453 -7.79004 0.278102 0
M  V30 383 N 35.4744 -0.807222 -1.35358 0
M  V30 384 C 36.8854 -0.44876 -1.81226 0
M  V30 385 C 37.2364 1.02929 -1.67033 0
M  V30 386 O 36.3614 1.79991 -1.20133 0
M  V30 387 C 36.9564 -0.807774 -3.2903 0
M  V30 388 C 35.5154 -0.501901 -3.73039 0
M  V30 389 C 34.6624 -1.03304 -2.57339 0
M  V30 390 H 37.6134 -0.998808 -1.23327 0
M  V30 391 H 37.6344 -0.10554 -3.80354 0
M  V30 392 H 37.1464 -1.88357 -3.39328 0
M  V30 393 H 35.2474 0.565128 -3.68289 0
M  V30 394 H 35.3604 -1.03497 -4.67787 0
M  V30 395 H 33.7244 -0.455339 -2.50597 0
M  V30 396 H 34.5074 -2.11496 -2.70415 0
M  V30 397 N 36.9525 1.47285 -0.560781 0
M  V30 398 C 38.3685 1.58065 -0.22081 0
M  V30 399 C 38.5685 1.55892 1.27671 0
M  V30 400 O 37.6245 1.46422 2.0571 0
M  V30 401 C 38.9375 2.88418 -0.850625 0
M  V30 402 C 40.4855 3.02009 -0.822184 0
M  V30 403 C 40.9605 4.35066 -1.43113 0
M  V30 404 N 42.4515 4.41711 -1.39448 0
M  V30 405 C 43.1865 5.43237 -1.83525 0
M  V30 406 N 42.6825 6.51555 -2.35474 0
M  V30 407 N 44.4755 5.34304 -1.74574 0
M  V30 408 H 36.6265 1.46941 -1.53369 0
M  V30 409 H 38.8895 0.699558 -0.639783 0
M  V30 410 H 38.5955 2.95755 -1.9032 0
M  V30 411 H 38.4695 3.75612 -0.345773 0
M  V30 412 H 40.8565 2.94266 0.221714 0
M  V30 413 H 40.9375 2.16347 -1.36483 0
M  V30 414 H 40.5815 4.43565 -2.47412 0
M  V30 415 H 40.5115 5.19465 -0.863899 0
M  V30 416 H 43.0025 3.64027 -1.01452 0
M  V30 417 H 43.3155 7.25203 -2.67021 0
M  V30 418 H 41.6605 6.52435 -2.39487 0
M  V30 419 H 44.8515 4.48581 -1.33763 0
M  V30 420 H 45.0245 6.13288 -2.09242 0
M  V30 421 N 38.4306 0.297415 1.54768 0
M  V30 422 C 39.3606 -0.573494 2.26348 0
M  V30 423 C 40.3416 -1.14085 1.26169 0
M  V30 424 O 41.5266 -1.17086 1.54934 0
M  V30 425 C 38.6566 -1.74716 3.00153 0
M  V30 426 C 37.6106 -1.31032 4.07449 0
M  V30 427 C 36.9366 -2.56887 4.68949 0
M  V30 428 C 38.2366 -0.444183 5.20408 0
M  V30 429 H 39.9306 0.0235131 2.99391 0
M  V30 430 H 37.4766 0.0127488 1.43994 0
M  V30 431 H 39.4296 -2.3625 3.48947 0
M  V30 432 H 38.1536 -2.37035 2.24682 0
M  V30 433 H 36.8126 -0.718066 3.59499 0
M  V30 434 H 36.4606 -3.17512 3.90122 0
M  V30 435 H 36.1606 -2.2836 5.41411 0
M  V30 436 H 37.6846 -3.19229 5.20505 0
M  V30 437 H 39.0986 -0.9651 5.65118 0
M  V30 438 H 37.4956 -0.252846 5.99567 0
M  V30 439 H 38.5656 0.531609 4.81977 0
M  V30 440 N 39.9087 -1.5758 0.0250728 0
M  V30 441 C 40.8717 -2.08896 -0.943139 0
M  V30 442 C 41.8717 -1.00321 -1.25668 0
M  V30 443 O 43.0617 -1.26495 -1.19769 0
M  V30 444 C 40.1937 -2.55143 -2.26086 0
M  V30 445 H 41.3867 -2.95723 -0.498775 0
M  V30 446 H 38.9397 -1.54703 -0.222888 0
M  V30 447 H 39.6747 -1.71633 -2.75159 0
M  V30 448 H 39.4597 -3.34461 -2.04641 0
M  V30 449 H 40.9497 -2.95083 -2.95492 0
M  V30 450 N 41.3868 0.248026 -1.55636 0
M  V30 451 C 42.6148 0.993808 -1.81469 0
M  V30 452 C 43.0298 1.78991 -0.60064 0
M  V30 453 O 42.3868 1.77345 0.430682 0
M  V30 454 C 42.4378 1.93258 -3.05506 0
M  V30 455 O 42.1588 1.16869 -4.22224 0
M  V30 456 C 43.6598 2.79444 -3.4413 0
M  V30 457 H 40.8798 0.292486 -0.603898 0
M  V30 458 H 43.4238 0.271253 -2.02693 0
M  V30 459 H 41.5788 2.60943 -2.86335 0
M  V30 460 H 41.9928 1.80359 -4.92515 0
M  V30 461 H 43.4668 3.41066 -4.34026 0
M  V30 462 H 43.9438 3.50499 -2.64665 0
M  V30 463 H 44.5498 2.17214 -3.65648 0
M  V30 464 N 42.8649 1.48995 0.513639 0
M  V30 465 C 44.1119 1.57843 1.26854 0
M  V30 466 C 44.4399 0.259501 1.92761 0
M  V30 467 O 43.6949 -0.75159 1.80692 0
M  V30 468 C 43.9939 2.67756 2.36731 0
M  V30 469 C 43.6599 4.09669 1.88368 0
M  V30 470 C 42.3219 4.48291 1.74896 0
M  V30 471 C 44.6739 4.98537 1.52021 0
M  V30 472 C 42.0019 5.73568 1.23438 0
M  V30 473 C 44.3539 6.24319 1.0202 0
M  V30 474 C 43.0179 6.61783 0.871778 0
M  V30 475 H 42.2879 0.577587 0.464192 0
M  V30 476 H 44.9349 1.82778 0.571366 0
M  V30 477 H 43.2399 2.36743 3.12185 0
M  V30 478 H 44.9369 2.71813 2.9482 0
M  V30 479 H 41.5269 3.79176 1.99808 0
M  V30 480 H 45.7109 4.69363 1.61281 0
M  V30 481 H 40.9669 6.01304 1.10648 0
M  V30 482 H 45.1409 6.92566 0.729722 0
M  V30 483 H 42.7679 7.5874 0.470852 0
M  V30 484 N 44.343 -0.763751 1.37857 0
M  V30 485 C 45.589 -1.52396 1.3471 0
M  V30 486 C 45.944 -1.92288 -0.0656435 0
M  V30 487 O 45.237 -1.6181 -1.02606 0
M  V30 488 C 45.431 -2.79499 2.22745 0
M  V30 489 C 45.26 -2.52031 3.72438 0
M  V30 490 C 44.03 -2.45759 4.4151 0
M  V30 491 C 46.228 -2.19489 4.65112 0
M  V30 492 N 44.21 -2.1046 5.76697 0
M  V30 493 C 45.581 -1.94396 5.88736 0
M  V30 494 C 47.636 -2.05712 4.53417 0
M  V30 495 C 46.339 -1.56917 7.01975 0
M  V30 496 C 48.365 -1.69634 5.66549 0
M  V30 497 C 47.727 -1.45407 6.89229 0
M  V30 498 H 43.826 -0.55765 0.548225 0
M  V30 499 H 46.41 -0.890302 1.73152 0
M  V30 500 H 44.581 -3.4069 1.86507 0
M  V30 501 H 46.313 -3.45465 2.10798 0
M  V30 502 H 43.068 -2.61885 3.94605 0
M  V30 503 H 43.492 -1.95484 6.48163 0
M  V30 504 H 48.134 -2.23123 3.59133 0
M  V30 505 H 45.852 -1.38246 7.96187 0
M  V30 506 H 49.438 -1.59621 5.59475 0
M  V30 507 H 48.318 -1.17904 7.75286 0
M  V30 508 N 45.8211 -1.22559 -0.990812 0
M  V30 509 C 47.0511 -1.07623 -1.76355 0
M  V30 510 C 47.4591 0.37601 -1.85426 0
M  V30 511 O 46.8021 1.27228 -1.32509 0
M  V30 512 C 46.8641 -1.61507 -3.21179 0
M  V30 513 C 46.5281 -3.10146 -3.35646 0
M  V30 514 C 47.5251 -4.07553 -3.22796 0
M  V30 515 C 45.2101 -3.49644 -3.60631 0
M  V30 516 C 47.2041 -5.42442 -3.34716 0
M  V30 517 C 44.8911 -4.84682 -3.72192 0
M  V30 518 C 45.8891 -5.8089 -3.59243 0
M  V30 519 O 45.5771 -7.13476 -3.70415 0
M  V30 520 H 45.3091 -0.377745 -0.560611 0
M  V30 521 H 47.8631 -1.62658 -1.25425 0
M  V30 522 H 46.0931 -1.00881 -3.73309 0
M  V30 523 H 47.7821 -1.42202 -3.80175 0
M  V30 524 H 48.5481 -3.78381 -3.03403 0
M  V30 525 H 44.4271 -2.75282 -3.69785 0
M  V30 526 H 47.9711 -6.17518 -3.24526 0
M  V30 527 H 43.8681 -5.13534 -3.91092 0
M  V30 528 H 44.6361 -7.21083 -3.87275 0
M  V30 529 N 47.2992 1.18797 -1.03562 0
M  V30 530 C 48.5292 1.92319 -0.754773 0
M  V30 531 C 48.9372 1.7612 0.691248 0
M  V30 532 O 48.2802 1.08491 1.48241 0
M  V30 533 C 48.3422 3.44284 -1.03484 0
M  V30 534 C 48.0062 3.84258 -2.47376 0
M  V30 535 C 49.0032 3.88459 -3.45537 0
M  V30 536 C 46.6882 4.15701 -2.81954 0
M  V30 537 C 48.6822 4.23545 -4.76328 0
M  V30 538 C 46.3692 4.50458 -4.12954 0
M  V30 539 C 47.3672 4.54356 -5.09951 0
M  V30 540 O 47.0552 4.88305 -6.38603 0
M  V30 541 H 46.7872 0.617527 -0.275021 0
M  V30 542 H 49.3412 1.51683 -1.38497 0
M  V30 543 H 47.5712 3.85135 -0.347513 0
M  V30 544 H 49.2602 3.99049 -0.7426 0
M  V30 545 H 50.0262 3.6431 -3.20162 0
M  V30 546 H 45.9052 4.11847 -2.0713 0
M  V30 547 H 49.4492 4.26502 -5.52035 0
M  V30 548 H 45.3462 4.74067 -4.38099 0
M  V30 549 H 46.1142 5.06227 -6.43177 0
M  V30 550 N 48.7773 0.814389 1.34928 0
M  V30 551 C 49.7403 0.235759 2.27984 0
M  V30 552 C 50.7403 -0.581412 1.49921 0
M  V30 553 O 51.9303 -0.398758 1.69575 0
M  V30 554 C 49.0623 -0.670433 3.34242 0
M  V30 555 H 50.2553 1.05659 2.80671 0
M  V30 556 H 47.8083 0.585614 1.44915 0
M  V30 557 H 48.5433 -1.51466 2.86755 0
M  V30 558 H 48.3283 -0.0860822 3.92005 0
M  V30 559 H 49.8183 -1.06935 4.03676 0
M  V30 560 N 50.2554 -1.46986 0.568584 0
M  V30 561 C 51.2024 -2.30153 -0.172707 0
M  V30 562 C 52.1724 -1.39759 -0.897586 0
M  V30 563 O 53.3574 -1.68716 -0.891044 0
M  V30 564 C 50.4974 -3.23952 -1.1895 0
M  V30 565 C 49.6104 -4.29441 -0.469517 0
M  V30 566 C 48.7454 -5.1038 -1.47259 0
M  V30 567 C 47.7844 -6.07632 -0.738225 0
M  V30 568 N 46.9214 -6.8149 -1.68868 0
M  V30 569 H 51.7614 -2.93019 0.542596 0
M  V30 570 H 49.2984 -1.44422 0.279401 0
M  V30 571 H 51.2564 -3.76767 -1.79173 0
M  V30 572 H 49.8864 -2.62926 -1.87269 0
M  V30 573 H 48.9384 -3.79594 0.247467 0
M  V30 574 H 50.2504 -4.98689 0.105241 0
M  V30 575 H 49.4044 -5.67402 -2.14803 0
M  V30 576 H 48.1434 -4.4106 -2.08128 0
M  V30 577 H 47.1484 -5.49778 -0.0489293 0
M  V30 578 H 48.3734 -6.78966 -0.135129 0
M  V30 579 H 46.3194 -6.14891 -2.28573 0
M  V30 580 H 46.2364 -7.46948 -1.16636 0
M  V30 581 H 47.5044 -7.43078 -2.3549 0
M  V30 582 N 51.7335 -0.305618 -1.54608 0
M  V30 583 C 52.9795 0.302746 -2.00528 0
M  V30 584 C 53.3125 1.53184 -1.19367 0
M  V30 585 O 52.5875 1.92598 -0.271321 0
M  V30 586 C 52.8705 0.654756 -3.54097 0
M  V30 587 C 52.7235 -0.583793 -4.45995 0
M  V30 588 C 54.0425 1.47947 -4.14487 0
M  V30 589 H 51.1615 0.108564 -0.72896 0
M  V30 590 H 53.8035 -0.418634 -1.85331 0
M  V30 591 H 51.9535 1.26935 -3.67178 0
M  V30 592 H 53.6255 -1.22224 -4.44814 0
M  V30 593 H 51.8685 -1.21615 -4.16404 0
M  V30 594 H 52.5395 -0.293287 -5.5122 0
M  V30 595 H 55.0155 0.96013 -4.04871 0
M  V30 596 H 53.8915 1.69454 -5.22088 0
M  V30 597 H 54.1525 2.47011 -3.66658 0
M  V30 598 N 53.2116 1.57565 -0.0334293 0
M  V30 599 C 54.1216 2.13943 0.962572 0
M  V30 600 C 55.1376 1.09276 1.35406 0
M  V30 601 O 56.3136 1.41355 1.4346 0
M  V30 602 C 53.3786 2.65887 2.22497 0
M  V30 603 C 52.4396 3.85286 1.8935 0
M  V30 604 C 51.6726 4.34743 3.09571 0
M  V30 605 O 51.8956 3.83352 4.22371 0
M  V30 606 O 50.8296 5.26538 2.91618 0
M  V30 607 H 54.6556 2.99333 0.513169 0
M  V30 608 H 52.2406 1.4822 0.18743 0
M  V30 609 H 54.1226 2.99346 2.96598 0
M  V30 610 H 52.7976 1.83578 2.6661 0
M  V30 611 H 51.7046 3.56746 1.1262 0
M  V30 612 H 53.0376 4.68771 1.5005 0
M  V30 613 N 54.6897 -0.239769 1.55765 0
M  V30 614 C 55.6197 -1.30052 1.9393 0
M  V30 615 C 56.6007 -1.49839 0.805132 0
M  V30 616 O 57.7857 -1.62328 1.06599 0
M  V30 617 C 54.9157 -2.65391 2.2402 0
M  V30 618 C 53.8697 -2.60289 3.39755 0
M  V30 619 C 53.1957 -3.99489 3.55405 0
M  V30 620 C 54.4957 -2.16654 4.75246 0
M  V30 621 H 56.1897 -0.983573 2.82783 0
M  V30 622 H 53.7357 -0.471701 1.36055 0
M  V30 623 H 55.6887 -3.3974 2.49308 0
M  V30 624 H 54.4127 -2.98736 1.32 0
M  V30 625 H 53.0717 -1.88398 3.14487 0
M  V30 626 H 52.7197 -4.30112 2.60793 0
M  V30 627 H 52.4197 -3.96962 4.33238 0
M  V30 628 H 53.9437 -4.75528 3.83022 0
M  V30 629 H 55.3577 -2.80737 4.99859 0
M  V30 630 H 53.7547 -2.25223 5.56232 0
M  V30 631 H 54.8247 -1.11835 4.71827 0
M  V30 632 N 56.1678 -1.49265 -0.50573 0
M  V30 633 C 57.4138 -1.58748 -1.26202 0
M  V30 634 C 57.7468 -0.271227 -1.92297 0
M  V30 635 O 57.0218 0.724831 -1.80489 0
M  V30 636 C 57.3048 -2.74332 -2.33268 0
M  V30 637 C 57.1578 -4.15737 -1.71705 0
M  V30 638 C 58.4768 -2.85576 -3.34865 0
M  V30 639 H 55.5958 -0.577826 -0.457478 0
M  V30 640 H 58.2378 -1.81532 -0.560897 0
M  V30 641 H 56.3878 -2.55036 -2.93068 0
M  V30 642 H 58.0598 -4.46537 -1.15769 0
M  V30 643 H 56.3028 -4.21605 -1.02135 0
M  V30 644 H 56.9738 -4.92477 -2.49341 0
M  V30 645 H 59.4498 -3.03127 -2.8505 0
M  V30 646 H 58.3258 -3.68135 -4.07146 0
M  V30 647 H 58.5868 -1.94732 -3.96903 0
M  V30 648 N 57.6459 0.756429 -1.3826 0
M  V30 649 C 59.0569 1.33359 -1.30661 0
M  V30 650 C 59.4079 1.96161 0.0388875 0
M  V30 651 O 58.5329 1.94874 0.940918 0
M  V30 652 C 59.1279 2.42477 -2.36622 0
M  V30 653 C 57.6869 2.95922 -2.3261 0
M  V30 654 C 56.8339 1.69275 -2.19639 0
M  V30 655 H 59.7849 0.55552 -1.4866 0
M  V30 656 H 59.8059 3.22345 -2.02174 0
M  V30 657 H 59.3179 1.96739 -3.34538 0
M  V30 658 H 57.4189 3.45996 -1.38267 0
M  V30 659 H 57.5319 3.50494 -3.26636 0
M  V30 660 H 55.8959 1.92793 -1.66442 0
M  V30 661 H 56.6789 1.25619 -3.19491 0
M  V30 662 N 59.124 1.23083 0.984299 0
M  V30 663 C 60.535 1.05609 1.5396 0
M  V30 664 C 60.886 -0.377793 1.92528 0
M  V30 665 O 60.011 -1.26398 1.75649 0
M  V30 666 C 60.606 1.91087 2.7977 0
M  V30 667 C 59.165 1.77885 3.31713 0
M  V30 668 C 58.312 1.87028 2.04733 0
M  V30 669 H 61.263 1.36802 0.804419 0
M  V30 670 H 61.284 1.43336 3.5247 0
M  V30 671 H 60.796 2.9544 2.51668 0
M  V30 672 H 58.897 0.762995 3.64704 0
M  V30 673 H 59.01 2.61047 4.01735 0
M  V30 674 H 57.374 1.30565 2.18689 0
M  V30 675 H 58.157 2.92929 1.79017 0
M  V30 676 N 60.6021 -1.18246 1.0419 0
M  V30 677 C 61.8301 -1.92195 0.766072 0
M  V30 678 C 62.2451 -1.76247 -0.676933 0
M  V30 679 O 61.6021 -1.09293 -1.46155 0
M  V30 680 C 61.6531 -3.43568 1.12442 0
M  V30 681 O 61.3741 -3.59015 2.51078 0
M  V30 682 C 62.8751 -4.34613 0.873275 0
M  V30 683 H 60.0951 -0.610114 0.279288 0
M  V30 684 H 62.6391 -1.50007 1.38989 0
M  V30 685 H 60.7941 -3.8354 0.545542 0
M  V30 686 H 61.2081 -4.5273 2.64831 0
M  V30 687 H 62.6821 -5.39374 1.17385 0
M  V30 688 H 63.1591 -4.38781 -0.191909 0
M  V30 689 H 63.7651 -4.00341 1.43551 0
M  V30 690 N 62.0802 -0.821533 -1.34494 0
M  V30 691 C 63.4912 -0.467956 -1.8074 0
M  V30 692 C 63.8422 1.01151 -1.68116 0
M  V30 693 O 62.9672 1.78707 -1.22036 0
M  V30 694 C 63.5622 -0.842627 -3.28154 0
M  V30 695 C 62.1212 -0.541439 -3.72485 0
M  V30 696 C 61.2682 -1.06028 -2.56229 0
M  V30 697 H 64.2192 -1.01183 -1.22261 0
M  V30 698 H 64.2402 -0.145876 -3.8022 0
M  V30 699 H 63.7522 -1.91945 -3.37311 0
M  V30 700 H 61.8532 0.526034 -3.68868 0
M  V30 701 H 61.9662 -1.08453 -4.66663 0
M  V30 702 H 60.3302 -0.481892 -2.501 0
M  V30 703 H 61.1132 -2.14352 -2.68157 0
M  V30 704 N 63.5583 1.46682 -0.576371 0
M  V30 705 C 64.5213 2.28707 0.150239 0
M  V30 706 C 65.5213 1.38035 0.824794 0
M  V30 707 O 66.7113 1.60476 0.677719 0
M  V30 708 C 63.8433 3.18248 1.22192 0
M  V30 709 H 65.0363 2.94423 -0.570521 0
M  V30 710 H 62.5893 1.52688 -0.334078 0
M  V30 711 H 63.3243 2.57265 1.97447 0
M  V30 712 H 63.1093 3.85 0.742812 0
M  V30 713 H 64.5993 3.80001 1.73172 0
M  V30 714 N 65.0364 0.313813 1.54444 0
M  V30 715 C 65.9464 -0.565714 2.27677 0
M  V30 716 C 66.9624 -1.13754 1.31666 0
M  V30 717 O 68.1384 -1.15959 1.64668 0
M  V30 718 C 65.2034 -1.71528 3.01296 0
M  V30 719 C 64.2644 -1.17624 4.12872 0
M  V30 720 C 63.4974 -2.27102 4.8297 0
M  V30 721 O 63.7204 -3.47256 4.52514 0
M  V30 722 O 62.6544 -1.9307 5.70094 0
M  V30 723 H 66.4804 0.0287296 3.03686 0
M  V30 724 H 64.0654 0.0798312 1.49187 0
M  V30 725 H 65.9474 -2.38476 3.4743 0
M  V30 726 H 64.6224 -2.29608 2.2817 0
M  V30 727 H 63.5294 -0.472124 3.71109 0
M  V30 728 H 64.8624 -0.640695 4.88012 0
M  V30 729 N 66.5145 -1.57545 0.0417849 0
M  V30 730 C 67.7635 -1.91494 -0.633492 0
M  V30 731 C 68.0765 -0.921084 -1.72556 0
M  V30 732 O 69.2825 -1.15228 -2.45835 0
M  V30 733 C 67.7385 -3.40072 -1.17808 0
M  V30 734 C 67.3465 -4.47843 -0.118633 0
M  V30 735 C 69.0905 -3.8307 -1.82915 0
M  V30 736 C 66.9975 -5.87529 -0.675578 0
M  V30 737 H 65.9275 -0.714653 -0.24039 0
M  V30 738 H 68.5785 -1.83175 0.109148 0
M  V30 739 H 66.9605 -3.43364 -1.97274 0
M  V30 740 H 68.1345 -4.56128 0.654494 0
M  V30 741 H 66.4495 -4.14128 0.434414 0
M  V30 742 H 69.0465 -4.84794 -2.25563 0
M  V30 743 H 69.3895 -3.1881 -2.67705 0
M  V30 744 H 69.9225 -3.82255 -1.10119 0
M  V30 745 H 66.6615 -6.55362 0.134475 0
M  V30 746 H 66.1815 -5.82824 -1.4169 0
M  V30 747 H 67.8605 -6.36491 -1.1614 0
M  V30 748 N 67.9926 0.231505 -1.5589 0
M  V30 749 C 69.4036 0.799327 -1.68724 0
M  V30 750 C 69.7546 1.85398 -0.642022 0
M  V30 751 O 68.8796 2.1539 0.208784 0
M  V30 752 C 69.4746 1.45664 -3.05888 0
M  V30 753 C 68.0336 1.97197 -3.20609 0
M  V30 754 C 67.1806 0.828552 -2.64632 0
M  V30 755 H 70.1316 0.00702616 -1.58698 0
M  V30 756 H 70.1526 2.32517 -3.01191 0
M  V30 757 H 69.6646 0.688808 -3.81939 0
M  V30 758 H 67.7656 2.76813 -2.4941 0
M  V30 759 H 67.8786 2.15878 -4.27707 0
M  V30 760 H 66.2426 1.23321 -2.22854 0
M  V30 761 H 67.0256 0.0735544 -3.43221 0
M  V30 762 N 69.4707 1.49531 0.497807 0
M  V30 763 C 70.8867 1.36365 0.829266 0
M  V30 764 C 71.0867 0.399184 1.97506 0
M  V30 765 O 70.1427 -0.167977 2.51941 0
M  V30 766 C 71.4557 2.77153 1.16647 0
M  V30 767 C 73.0037 2.85877 1.27449 0
M  V30 768 C 73.4787 4.2744 1.64497 0
M  V30 769 N 74.9697 4.30265 1.7154 0
M  V30 770 C 75.7047 5.3677 2.01656 0
M  V30 771 N 75.2007 6.53516 2.29976 0
M  V30 772 N 76.9937 5.24189 2.02934 0
M  V30 773 H 69.1447 2.10831 -0.257703 0
M  V30 774 H 71.4077 0.946534 -0.0527091 0
M  V30 775 H 71.1137 3.49442 0.397872 0
M  V30 776 H 70.9877 3.12722 2.10915 0
M  V30 777 H 73.3747 2.13824 2.0338 0
M  V30 778 H 73.4557 2.53887 0.312244 0
M  V30 779 H 73.0997 5.00021 0.891151 0
M  V30 780 H 73.0297 4.56896 2.61827 0
M  V30 781 H 75.5207 3.4607 1.51802 0
M  V30 782 H 75.8337 7.30506 2.52153 0
M  V30 783 H 74.1787 6.56737 2.27425 0
M  V30 784 H 77.3697 4.31988 1.80289 0
M  V30 785 H 77.5427 6.07286 2.26071 0
M  V30 786 N 70.9488 -0.749086 1.3866 0
M  V30 787 C 71.9118 -1.84457 1.36045 0
M  V30 788 C 72.9118 -1.58682 0.260122 0
M  V30 789 O 74.1018 -1.66343 0.517261 0
M  V30 790 C 71.2338 -3.22008 1.11911 0
M  V30 791 H 72.4268 -1.88182 2.33512 0
M  V30 792 H 69.9798 -0.951266 1.24019 0
M  V30 793 H 70.7148 -3.2395 0.150686 0
M  V30 794 H 70.4998 -3.42111 1.91579 0
M  V30 795 H 71.9898 -4.0208 1.12788 0
M  V30 796 N 72.4269 -1.23603 -0.977757 0
M  V30 797 C 73.6759 -1.06377 -1.71368 0
M  V30 798 C 73.9889 0.399062 -1.91486 0
M  V30 799 O 75.1949 0.691312 -2.62551 0
M  V30 800 C 73.6509 -1.85512 -3.08404 0
M  V30 801 C 73.2589 -3.36141 -2.96164 0
M  V30 802 C 75.0029 -1.76783 -3.85938 0
M  V30 803 C 72.9099 -4.07659 -4.28449 0
M  V30 804 H 71.8399 -0.394452 -0.642591 0
M  V30 805 H 74.4909 -1.47594 -1.09034 0
M  V30 806 H 72.8729 -1.37103 -3.71509 0
M  V30 807 H 74.0469 -3.92056 -2.42133 0
M  V30 808 H 72.3619 -3.45712 -2.32104 0
M  V30 809 H 74.9589 -2.27526 -4.83876 0
M  V30 810 H 75.3019 -0.731116 -4.0983 0
M  V30 811 H 75.8349 -2.22818 -3.2954 0
M  V30 812 H 72.5739 -5.11648 -4.09752 0
M  V30 813 H 72.0939 -3.5653 -4.82334 0
M  V30 814 H 73.7729 -4.141 -4.97122 0
M  V30 815 N 73.905 1.17692 -1.04816 0
M  V30 816 C 74.837 2.21103 -0.603822 0
M  V30 817 C 75.85 1.59411 0.33046 0
M  V30 818 O 77.039 1.7807 0.12379 0
M  V30 819 C 74.139 3.38623 0.136898 0
M  V30 820 C 73.312 4.29888 -0.807137 0
M  V30 821 C 72.371 5.26088 -0.10836 0
M  V30 822 O 71.397 5.64353 -0.741232 0
M  V30 823 N 72.599 5.68882 1.15558 0
M  V30 824 H 75.364 2.59848 -1.49329 0
M  V30 825 H 72.925 1.32553 -0.929587 0
M  V30 826 H 74.917 4.00009 0.614401 0
M  V30 827 H 73.487 2.98508 0.927993 0
M  V30 828 H 72.707 3.65993 -1.46434 0
M  V30 829 H 73.995 4.87759 -1.44807 0
M  V30 830 H 73.393 5.39861 1.69015 0
M  V30 831 H 71.95 6.32429 1.57722 0
M  V30 832 N 75.3831 0.828654 1.34056 0
M  V30 833 C 76.6081 0.431637 2.02859 0
M  V30 834 C 77.0331 -0.956339 1.61975 0
M  V30 835 O 76.3911 -1.62338 0.807228 0
M  V30 836 C 76.4391 0.548323 3.56407 0
M  V30 837 O 75.5431 -0.429556 4.10157 0
M  V30 838 H 74.8841 0.176886 0.640006 0
M  V30 839 H 77.4141 1.12066 1.71179 0
M  V30 840 H 77.4241 0.426196 4.05768 0
M  V30 841 H 76.0991 1.5606 3.8551 0
M  V30 842 H 74.6761 -0.265836 3.71951 0
M  V30 843 N 76.8612 -1.46375 0.584142 0
M  V30 844 C 77.7912 -2.33103 -0.136037 0
M  V30 845 C 78.7722 -1.45431 -0.882255 0
M  V30 846 O 79.9572 -1.74246 -0.857434 0
M  V30 847 C 77.0872 -3.27731 -1.14933 0
M  V30 848 C 76.0412 -4.24855 -0.517862 0
M  V30 849 C 75.3672 -5.09001 -1.63773 0
M  V30 850 C 76.6672 -5.19439 0.545886 0
M  V30 851 H 78.3612 -2.93568 0.588086 0
M  V30 852 H 75.9072 -1.41166 0.284259 0
M  V30 853 H 77.8602 -3.87261 -1.66153 0
M  V30 854 H 76.5842 -2.65377 -1.90375 0
M  V30 855 H 75.2432 -3.6659 -0.0267361 0
M  V30 856 H 74.8912 -4.43031 -2.38185 0
M  V30 857 H 74.5912 -5.74777 -1.22085 0
M  V30 858 H 76.1152 -5.71396 -2.15266 0
M  V30 859 H 77.5292 -5.73177 0.118704 0
M  V30 860 H 75.9262 -5.93566 0.88317 0
M  V30 861 H 76.9962 -4.63285 1.43162 0
M  V30 862 N 78.3393 -0.321999 -1.54275 0
M  V30 863 C 79.2863 0.544664 -2.24281 0
M  V30 864 C 80.2563 1.1129 -1.23303 0
M  V30 865 O 81.4413 1.15354 -1.51981 0
M  V30 866 C 78.5813 1.70045 -3.00298 0
M  V30 867 C 77.6943 1.16159 -4.1609 0
M  V30 868 C 76.8293 2.28293 -4.79641 0
M  V30 869 C 75.8683 1.71648 -5.8754 0
M  V30 870 N 75.0053 2.77438 -6.44959 0
M  V30 871 H 79.8453 -0.0588907 -2.97942 0
M  V30 872 H 77.3823 -0.0408345 -1.47043 0
M  V30 873 H 79.3403 2.38054 -3.42616 0
M  V30 874 H 77.9703 2.27531 -2.28975 0
M  V30 875 H 77.0223 0.373092 -3.78566 0
M  V30 876 H 78.3343 0.707087 -4.93763 0
M  V30 877 H 77.4883 3.0421 -5.2492 0
M  V30 878 H 76.2273 2.77079 -4.01346 0
M  V30 879 H 75.2323 0.942282 -5.41665 0
M  V30 880 H 76.4573 1.23741 -6.67731 0
M  V30 881 H 74.4033 3.25519 -5.69538 0
M  V30 882 H 74.3203 2.36547 -7.1804 0
M  V30 883 H 75.5883 3.53189 -6.94894 0
M  V30 884 N 79.8174 1.5752 -0.0501392 0
M  V30 885 C 80.7644 2.1147 0.924603 0
M  V30 886 C 81.7344 1.02182 1.30951 0
M  V30 887 O 82.9194 1.29723 1.39916 0
M  V30 888 C 80.0594 2.66337 2.19451 0
M  V30 889 C 79.1724 3.89708 1.86418 0
M  V30 890 C 78.3074 4.32893 3.07859 0
M  V30 891 C 77.3464 5.48967 2.70742 0
M  V30 892 N 76.4834 5.87211 3.84874 0
M  V30 893 H 81.3234 2.94465 0.457639 0
M  V30 894 H 78.8604 1.45531 0.214266 0
M  V30 895 H 80.8184 2.96247 2.93758 0
M  V30 896 H 79.4484 1.86141 2.63726 0
M  V30 897 H 78.5004 3.66396 1.02264 0
M  V30 898 H 79.8124 4.74074 1.55096 0
M  V30 899 H 78.9664 4.6435 3.90466 0
M  V30 900 H 77.7054 3.47336 3.42358 0
M  V30 901 H 76.7104 5.17183 1.86551 0
M  V30 902 H 77.9354 6.3624 2.37436 0
M  V30 903 H 75.8814 5.04607 4.19175 0
M  V30 904 H 75.7984 6.66266 3.57247 0
M  V30 905 H 77.0664 6.23282 4.68123 0
M  V30 906 N 81.2955 -0.223234 1.56011 0
M  V30 907 C 82.5445 -0.945912 1.78144 0
M  V30 908 C 82.8575 -1.85567 0.618396 0
M  V30 909 O 84.0635 -2.61688 0.723318 0
M  V30 910 C 82.5195 -1.73216 3.15475 0
M  V30 911 C 82.1275 -0.868619 4.39499 0
M  V30 912 C 83.8715 -2.44615 3.46935 0
M  V30 913 C 81.7785 -1.65212 5.67855 0
M  V30 914 H 80.7085 -0.356929 0.664167 0
M  V30 915 H 83.3595 -0.199845 1.82409 0
M  V30 916 H 81.7415 -2.52107 3.05382 0
M  V30 917 H 82.9155 -0.120366 4.60643 0
M  V30 918 H 81.2305 -0.26683 4.15544 0
M  V30 919 H 83.8275 -3.03732 4.40058 0
M  V30 920 H 84.1705 -3.17417 2.69355 0
M  V30 921 H 84.7035 -1.72715 3.58349 0
M  V30 922 H 81.4425 -0.967407 6.48322 0
M  V30 923 H 80.9625 -2.37503 5.50774 0
M  V30 924 H 82.6415 -2.21322 6.07968 0
M  V30 925 N 82.7736 -1.49793 -0.48987 0
M  V30 926 C 84.0196 -1.60078 -1.24511 0
M  V30 927 C 84.3526 -0.291608 -1.91998 0
M  V30 928 O 83.6276 0.705647 -1.81248 0
M  V30 929 C 83.9106 -2.76791 -2.30345 0
M  V30 930 C 83.7636 -4.17535 -1.67286 0
M  V30 931 C 85.0826 -2.89111 -3.31817 0
M  V30 932 H 82.2016 -0.582645 -0.451324 0
M  V30 933 H 84.8436 -1.82117 -0.541612 0
M  V30 934 H 82.9936 -2.5813 -2.90346 0
M  V30 935 H 84.6656 -4.4774 -1.11026 0
M  V30 936 H 82.9086 -4.22665 -0.976577 0
M  V30 937 H 83.5796 -4.95094 -2.44103 0
M  V30 938 H 86.0556 -3.06133 -2.81819 0
M  V30 939 H 84.9316 -3.72433 -4.03219 0
M  V30 940 H 85.1926 -1.9893 -3.94815 0
M  V30 941 N 84.2517 0.741722 -1.39055 0
M  V30 942 C 85.1997 1.87702 -1.3737 0
M  V30 943 C 86.1937 1.67427 -0.257812 0
M  V30 944 O 87.3997 1.7485 -0.427489 0
M  V30 945 H 83.7747 0.617757 -0.428812 0
M  V30 946 H 85.7457 1.86239 -2.33147 0
M  V30 947 C 84.4947 3.25315 -1.22741 0
M  V30 948 H 83.8177 3.41509 -2.07873 0
M  V30 949 H 85.2577 4.04964 -1.25618 0
M  V30 950 C 83.7167 3.36838 0.0647316 0
M  V30 951 O 84.2467 3.88073 1.03741 0
M  V30 952 N 82.4527 2.90329 0.125544 0
M  V30 953 H 81.9997 2.48823 -0.666682 0
M  V30 954 H 81.9577 2.98418 0.989639 0
M  V30 955 N 85.7298 1.2412 0.971189 0
M  V30 956 C 86.9548 1.10667 1.75407 0
M  V30 957 C 87.3798 -0.337048 1.85056 0
M  V30 958 O 86.7378 -1.24396 1.31892 0
M  V30 959 C 86.7858 1.74726 3.15441 0
M  V30 960 O 85.8898 1.01566 3.99697 0
M  V30 961 H 85.2308 0.387341 0.539317 0
M  V30 962 H 87.7608 1.64358 1.2185 0
M  V30 963 H 87.7708 1.80341 3.6598 0
M  V30 964 H 86.4458 2.79773 3.07734 0
M  V30 965 H 85.0228 1.03713 3.58187 0
M  V30 966 N 87.2079 -1.17134 1.05439 0
M  V30 967 C 88.1709 -2.19439 0.661764 0
M  V30 968 C 89.1709 -1.58199 -0.288042 0
M  V30 969 O 90.3609 -1.74053 -0.0715803 0
M  V30 970 C 87.4929 -3.40889 -0.0276209 0
M  V30 971 H 88.6859 -2.55688 1.56728 0
M  V30 972 H 86.2389 -1.31259 0.848567 0
M  V30 973 H 86.9739 -3.10187 -0.94629 0
M  V30 974 H 86.7589 -3.86586 0.655238 0
M  V30 975 H 88.2489 -4.16603 -0.288342 0
M  V30 976 N 88.686 -0.835752 -1.33615 0
M  V30 977 C 89.618 -0.224151 -2.28101 0
M  V30 978 C 90.631 0.593331 -1.51603 0
M  V30 979 O 91.82 0.420911 -1.73466 0
M  V30 980 C 88.92 0.703309 -3.31522 0
M  V30 981 C 88.093 -0.0741528 -4.37337 0
M  V30 982 C 87.152 0.776176 -5.20444 0
M  V30 983 O 86.178 0.216506 -5.68788 0
M  V30 984 N 87.38 2.09401 -5.41416 0
M  V30 985 H 90.145 -1.03598 -2.81225 0
M  V30 986 H 87.706 -0.69392 -1.46275 0
M  V30 987 H 89.698 1.27707 -3.84022 0
M  V30 988 H 88.268 1.41585 -2.78698 0
M  V30 989 H 87.488 -0.82928 -3.85378 0
M  V30 990 H 88.776 -0.608863 -5.05144 0
M  V30 991 H 88.174 2.57229 -5.03835 0
M  V30 992 H 86.731 2.61633 -5.96985 0
M  V30 993 N 90.1641 1.46063 -0.591896 0
M  V30 994 C 91.3921 2.06717 -0.0868936 0
M  V30 995 C 91.8071 1.43916 1.22203 0
M  V30 996 O 91.1641 0.547698 1.74088 0
M  V30 997 C 91.2151 3.6142 0.0758725 0
M  V30 998 O 90.9361 4.21874 -1.18126 0
M  V30 999 C 92.4371 4.39025 0.61416 0
M  V30 1000 H 89.6571 0.668162 -0.0616518 0
M  V30 1001 H 92.2011 1.8755 -0.815175 0
M  V30 1002 H 90.3561 3.79983 0.754413 0
M  V30 1003 H 90.7701 5.14861 -1.00092 0
M  V30 1004 H 92.2441 5.4783 0.677193 0
M  V30 1005 H 92.7211 4.07708 1.63312 0
M  V30 1006 H 93.3271 4.2529 -0.0298142 0
M  V30 1007 N 91.6422 0.330177 1.54103 0
M  V30 1008 C 92.8902 -0.269871 2.0029 0
M  V30 1009 C 93.2112 -1.52133 1.21986 0
M  V30 1010 O 92.4812 -1.93212 0.323438 0
M  V30 1011 H 91.0612 -0.10271 0.739905 0
M  V30 1012 H 93.7232 0.448249 1.89675 0
M  V30 1013 H 92.8192 -0.52166 3.07709 0
M  V30 1014 N 93.1203 -1.57491 0.0584922 0
M  V30 1015 C 94.3453 -1.97711 -0.62652 0
M  V30 1016 C 94.7703 -0.936132 -1.63151 0
M  V30 1017 O 94.1283 0.099811 -1.81025 0
M  V30 1018 C 94.1763 -3.36989 -1.28338 0
M  V30 1019 O 93.2803 -3.35433 -2.39913 0
M  V30 1020 H 92.6213 -0.643868 -0.162266 0
M  V30 1021 H 95.1513 -2.04193 0.129064 0
M  V30 1022 H 95.1613 -3.73879 -1.63335 0
M  V30 1023 H 93.8363 -4.12289 -0.546889 0
M  V30 1024 H 92.4133 -3.10298 -2.06809 0
M  V30 1025 N 94.5984 0.214957 -1.56127 0
M  V30 1026 C 95.8454 0.938372 -1.79446 0
M  V30 1027 C 96.1734 1.8407 -0.628378 0
M  V30 1028 O 95.4284 1.91837 0.386925 0
M  V30 1029 C 95.7274 1.80314 -3.0858 0
M  V30 1030 C 95.3934 1.05349 -4.3842 0
M  V30 1031 C 94.0554 0.846435 -4.73697 0
M  V30 1032 C 96.4074 0.524588 -5.18553 0
M  V30 1033 C 93.7354 0.098683 -5.86617 0
M  V30 1034 C 96.0874 -0.209853 -6.32252 0
M  V30 1035 C 94.7514 -0.428102 -6.66126 0
M  V30 1036 H 94.0214 0.343375 -0.656639 0
M  V30 1037 H 96.6684 0.206077 -1.90388 0
M  V30 1038 H 94.9734 2.6035 -2.92789 0
M  V30 1039 H 96.6704 2.36513 -3.23825 0
M  V30 1040 H 93.2604 1.22486 -4.10725 0
M  V30 1041 H 97.4444 0.672008 -4.91729 0
M  V30 1042 H 92.7004 -0.0805753 -6.11347 0
M  V30 1043 H 96.8744 -0.627157 -6.9357 0
M  V30 1044 H 94.5014 -1.00944 -7.53468 0
M  V30 1045 N 96.0765 1.50051 0.48192 0
M  V30 1046 C 97.0235 1.68122 1.58125 0
M  V30 1047 C 97.9935 0.522545 1.57666 0
M  V30 1048 O 99.1785 0.751844 1.75362 0
M  V30 1049 C 96.3185 1.77142 2.96167 0
M  V30 1050 C 95.4315 3.0444 3.06497 0
M  V30 1051 C 94.5665 3.04321 4.35387 0
M  V30 1052 C 93.6055 4.26118 4.3942 0
M  V30 1053 N 92.7425 4.238 5.59766 0
M  V30 1054 H 97.5825 2.6198 1.42022 0
M  V30 1055 H 95.1195 1.29877 0.690687 0
M  V30 1056 H 97.0775 1.80352 3.76203 0
M  V30 1057 H 95.7075 0.867329 3.1093 0
M  V30 1058 H 94.7595 3.10752 2.19402 0
M  V30 1059 H 96.0715 3.94426 3.05336 0
M  V30 1060 H 95.2255 3.062 5.23762 0
M  V30 1061 H 93.9645 2.12147 4.39141 0
M  V30 1062 H 92.9695 4.24463 3.49444 0
M  V30 1063 H 94.1945 5.19507 4.37366 0
M  V30 1064 H 92.1405 3.34474 5.64326 0
M  V30 1065 H 92.0575 5.07542 5.60301 0
M  V30 1066 H 93.3255 4.2981 6.50295 0
M  V30 1067 N 97.5546 -0.734337 1.39446 0
M  V30 1068 C 98.4866 -1.85861 1.34121 0
M  V30 1069 C 99.4996 -1.60871 0.249864 0
M  V30 1070 O 100.689 -1.71093 0.508865 0
M  V30 1071 C 97.7886 -3.21899 1.05991 0
M  V30 1072 C 96.9616 -3.74239 2.26415 0
M  V30 1073 C 96.0206 -4.88841 1.94733 0
M  V30 1074 O 95.0466 -5.02468 2.67422 0
M  V30 1075 N 96.2486 -5.73261 0.913884 0
M  V30 1076 H 99.0136 -1.90934 2.31007 0
M  V30 1077 H 96.5746 -0.915102 1.33557 0
M  V30 1078 H 98.5666 -3.96136 0.828147 0
M  V30 1079 H 97.1366 -3.12091 0.178361 0
M  V30 1080 H 96.3566 -2.91347 2.65539 0
M  V30 1081 H 97.6446 -4.05942 3.06738 0
M  V30 1082 H 97.0426 -5.64842 0.311476 0
M  V30 1083 H 95.5996 -6.47563 0.742015 0
M  V30 1084 N 99.0327 -1.24633 -0.964593 0
M  V30 1085 C 99.9627 -1.06611 -2.07741 0
M  V30 1086 C 100.944 0.0218666 -1.70086 0
M  V30 1087 O 102.129 -0.145793 -1.93652 0
M  V30 1088 C 99.2587 -0.673444 -3.40708 0
M  V30 1089 C 98.2127 -1.71054 -3.92332 0
M  V30 1090 C 97.5387 -1.17285 -5.21678 0
M  V30 1091 C 98.8387 -3.10718 -4.19824 0
M  V30 1092 H 100.533 -1.99693 -2.23076 0
M  V30 1093 H 98.0787 -0.96152 -1.07195 0
M  V30 1094 H 100.032 -0.534345 -4.17998 0
M  V30 1095 H 98.7557 0.293073 -3.25282 0
M  V30 1096 H 97.4147 -1.83791 -3.17201 0
M  V30 1097 H 97.0627 -0.196847 -5.02615 0
M  V30 1098 H 96.7627 -1.86592 -5.57187 0
M  V30 1099 H 98.2867 -1.04593 -6.01575 0
M  V30 1100 H 99.7007 -3.01192 -4.87808 0
M  V30 1101 H 98.0977 -3.77406 -4.66567 0
M  V30 1102 H 99.1677 -3.58524 -3.26479 0
M  V30 1103 N 100.511 1.16574 -1.06058 0
M  V30 1104 C 101.739 1.90952 -0.796552 0
M  V30 1105 C 102.154 1.77302 0.648808 0
M  V30 1106 O 101.511 1.11605 1.44397 0
M  V30 1107 C 101.562 3.41736 -1.17894 0
M  V30 1108 O 101.283 3.54975 -2.56758 0
M  V30 1109 C 102.784 4.33169 -0.942308 0
M  V30 1110 H 100.004 0.605594 -0.288959 0
M  V30 1111 H 102.548 1.47777 -1.41358 0
M  V30 1112 H 100.703 3.82623 -0.606491 0
M  V30 1113 H 101.117 4.4846 -2.72 0
M  V30 1114 H 102.591 5.37439 -1.25952 0
M  V30 1115 H 103.068 4.3903 0.122078 0
M  V30 1116 H 103.674 3.98007 -1.49902 0
M  V30 1117 N 101.989 0.842826 1.3317 0
M  V30 1118 C 103.235 0.441099 1.97945 0
M  V30 1119 C 103.568 -0.998024 1.66593 0
M  V30 1120 O 102.843 -1.69839 0.947898 0
M  V30 1121 C 103.126 0.666841 3.53872 0
M  V30 1122 C 102.979 2.15352 3.94897 0
M  V30 1123 C 104.298 0.115544 4.39948 0
M  V30 1124 H 101.417 0.161739 0.719034 0
M  V30 1125 H 104.059 1.05907 1.57746 0
M  V30 1126 H 102.209 0.140828 3.88245 0
M  V30 1127 H 103.881 2.7447 3.70761 0
M  V30 1128 H 102.124 2.63653 3.44484 0
M  V30 1129 H 102.795 2.26221 5.03516 0
M  V30 1130 H 105.271 0.565213 4.12243 0
M  V30 1131 H 104.147 0.303152 5.48062 0
M  V30 1132 H 104.408 -0.980935 4.3108 0
M  V30 1133 N 103.467 -1.45747 0.599634 0
M  V30 1134 C 104.414 -2.30467 -0.123849 0
M  V30 1135 C 105.384 -1.41632 -0.86774 0
M  V30 1136 O 106.569 -1.70568 -0.855056 0
M  V30 1137 C 103.709 -3.26402 -1.12051 0
M  V30 1138 C 102.822 -4.3034 -0.37832 0
M  V30 1139 C 101.957 -5.13389 -1.364 0
M  V30 1140 C 100.996 -6.09061 -0.609171 0
M  V30 1141 N 100.133 -6.84918 -1.54374 0
M  V30 1142 H 104.973 -2.91802 0.604627 0
M  V30 1143 H 102.51 -1.43797 0.309972 0
M  V30 1144 H 104.468 -3.80482 -1.7114 0
M  V30 1145 H 103.098 -2.66839 -1.8165 0
M  V30 1146 H 102.15 -3.78984 0.327929 0
M  V30 1147 H 103.462 -4.98354 0.210997 0
M  V30 1148 H 102.616 -5.7183 -2.02719 0
M  V30 1149 H 101.355 -4.45376 -1.98725 0
M  V30 1150 H 100.36 -5.49758 0.0676979 0
M  V30 1151 H 101.585 -6.79099 0.00891991 0
M  V30 1152 H 99.531 -6.19601 -2.15478 0
M  V30 1153 H 99.448 -7.49254 -1.00766 0
M  V30 1154 H 100.716 -7.47906 -2.19676 0
M  V30 1155 N 104.945 -0.338344 -1.53925 0
M  V30 1156 C 105.855 0.529421 -2.28548 0
M  V30 1157 C 106.871 1.11645 -1.3346 0
M  V30 1158 O 108.047 1.13325 -1.66492 0
M  V30 1159 C 105.112 1.66713 -3.03987 0
M  V30 1160 C 104.173 1.11041 -4.14691 0
M  V30 1161 C 103.406 2.19389 -4.86522 0
M  V30 1162 O 103.629 3.40013 -4.57982 0
M  V30 1163 O 102.563 1.83976 -5.73094 0
M  V30 1164 H 106.389 -0.0770399 -3.03602 0
M  V30 1165 H 103.974 -0.103555 -1.49041 0
M  V30 1166 H 105.856 2.32918 -3.5118 0
M  V30 1167 H 104.531 2.25949 -2.31794 0
M  V30 1168 H 103.438 0.413024 -3.71813 0
M  V30 1169 H 104.771 0.562975 -4.8897 0
M  V30 1170 N 106.423 1.57458 -0.0668435 0
M  V30 1171 C 107.386 2.11323 0.887422 0
M  V30 1172 C 108.386 1.03618 1.22964 0
M  V30 1173 O 109.576 1.29626 1.16373 0
M  V30 1174 C 106.708 2.61048 2.19242 0
M  V30 1175 H 107.901 2.96942 0.420194 0
M  V30 1176 H 105.454 1.55239 0.181793 0
M  V30 1177 H 106.189 1.78868 2.70512 0
M  V30 1178 H 105.974 3.39769 1.95702 0
M  V30 1179 H 107.464 3.02814 2.87565 0
M  V30 1180 N 107.901 -0.206675 1.56239 0
M  V30 1181 C 109.147 -0.930218 1.80208 0
M  V30 1182 C 109.48 -1.83387 0.638981 0
M  V30 1183 O 108.755 -1.91119 -0.361066 0
M  V30 1184 C 109.038 -1.75641 3.1436 0
M  V30 1185 C 108.891 -0.878257 4.41142 0
M  V30 1186 C 110.21 -2.73129 3.45092 0
M  V30 1187 H 107.329 -0.336742 0.655571 0
M  V30 1188 H 109.971 -0.198222 1.88963 0
M  V30 1189 H 108.121 -2.38048 3.07027 0
M  V30 1190 H 109.793 -0.269787 4.6051 0
M  V30 1191 H 108.036 -0.184385 4.33408 0
M  V30 1192 H 108.707 -1.49106 5.3148 0
M  V30 1193 H 111.183 -2.20856 3.52649 0
M  V30 1194 H 110.059 -3.28028 4.40101 0
M  V30 1195 H 110.32 -3.51606 2.68003 0
M  V30 1196 N 109.379 -1.50304 -0.473955 0
M  V30 1197 C 110.309 -1.71886 -1.58042 0
M  V30 1198 C 111.29 -0.567799 -1.60344 0
M  V30 1199 O 112.475 -0.806623 -1.76656 0
M  V30 1200 C 109.605 -1.81036 -2.96384 0
M  V30 1201 C 108.559 -2.962 -3.08949 0
M  V30 1202 C 107.885 -2.9049 -4.48909 0
M  V30 1203 C 109.185 -4.36752 -2.86434 0
M  V30 1204 H 110.879 -2.64527 -1.40234 0
M  V30 1205 H 108.425 -1.27295 -0.673201 0
M  V30 1206 H 110.378 -1.94719 -3.73714 0
M  V30 1207 H 109.102 -0.850147 -3.15341 0
M  V30 1208 H 107.761 -2.82164 -2.3405 0
M  V30 1209 H 107.409 -1.92321 -4.64781 0
M  V30 1210 H 107.109 -3.67802 -4.58253 0
M  V30 1211 H 108.633 -3.06218 -5.28264 0
M  V30 1212 H 110.047 -4.5133 -3.53517 0
M  V30 1213 H 108.444 -5.15493 -3.07225 0
M  V30 1214 H 109.514 -4.49321 -1.82316 0
M  V30 1215 N 110.857 0.726932 -1.39834 0
M  V30 1216 C 111.805 1.86235 -1.39353 0
M  V30 1217 C 112.799 1.67144 -0.275555 0
M  V30 1218 O 114.005 1.74387 -0.44601 0
M  V30 1219 H 110.38 0.613174 -0.43534 0
M  V30 1220 H 112.351 1.83756 -2.35109 0
M  V30 1221 C 111.1 3.23995 -1.26185 0
M  V30 1222 H 110.423 3.39285 -2.11484 0
M  V30 1223 H 111.863 4.03609 -1.29907 0
M  V30 1224 C 110.322 3.36888 0.0290018 0
M  V30 1225 O 110.852 3.89152 0.99619 0
M  V30 1226 N 109.058 2.90446 0.0947437 0
M  V30 1227 H 108.605 2.48102 -0.693035 0
M  V30 1228 H 108.563 2.99451 0.957932 0
M  V30 1229 N 112.336 1.25143 0.95797 0
M  V30 1230 C 113.584 1.09476 1.69881 0
M  V30 1231 C 113.905 -0.365502 1.91544 0
M  V30 1232 O 113.175 -1.25985 1.50015 0
M  V30 1233 H 111.755 0.402128 0.629525 0
M  V30 1234 H 114.417 1.57214 1.15194 0
M  V30 1235 H 113.513 1.60046 2.6794 0
M  V30 1236 N 113.814 -1.1601 1.06675 0
M  V30 1237 C 114.744 -2.22688 0.702307 0
M  V30 1238 C 115.725 -1.67306 -0.307032 0
M  V30 1239 O 116.91 -1.93352 -0.181305 0
M  V30 1240 C 114.04 -3.47178 0.092038 0
M  V30 1241 C 112.994 -4.15477 1.02777 0
M  V30 1242 C 112.32 -5.33963 0.28061 0
M  V30 1243 C 113.62 -4.66019 2.35846 0
M  V30 1244 H 115.314 -2.53429 1.59419 0
M  V30 1245 H 112.86 -1.21813 0.767961 0
M  V30 1246 H 114.813 -4.21037 -0.174814 0
M  V30 1247 H 113.537 -3.15749 -0.834877 0
M  V30 1248 H 112.196 -3.43549 1.27944 0
M  V30 1249 H 111.844 -4.98788 -0.649545 0
M  V30 1250 H 111.544 -5.806 0.904258 0
M  V30 1251 H 113.068 -6.10596 0.021396 0
M  V30 1252 H 114.482 -5.3144 2.15045 0
M  V30 1253 H 112.879 -5.23293 2.93743 0
M  V30 1254 H 113.949 -3.82023 2.98641 0
M  V30 1255 N 115.292 -0.849877 -1.32721 0
M  V30 1256 C 116.538 -0.451591 -1.97708 0
M  V30 1257 C 116.871 0.989175 -1.6712 0
M  V30 1258 O 116.146 1.69334 -0.956891 0
M  V30 1259 C 116.429 -0.685598 -3.53513 0
M  V30 1260 C 116.282 -2.17444 -3.93749 0
M  V30 1261 C 117.601 -0.138874 -4.39881 0
M  V30 1262 H 114.72 -0.16555 -0.718166 0
M  V30 1263 H 117.362 -1.06742 -1.57182 0
M  V30 1264 H 115.512 -0.161416 -3.88165 0
M  V30 1265 H 117.184 -2.76433 -3.693 0
M  V30 1266 H 115.427 -2.65476 -3.43081 0
M  V30 1267 H 116.098 -2.28888 -5.02309 0
M  V30 1268 H 118.574 -0.587068 -4.11938 0
M  V30 1269 H 117.45 -0.332213 -5.47894 0
M  V30 1270 H 117.711 0.95806 -4.31594 0
M  V30 1271 N 116.77 1.45427 -0.607355 0
M  V30 1272 C 117.733 2.28974 0.101693 0
M  V30 1273 C 118.733 1.39754 0.795329 0
M  V30 1274 O 119.923 1.61878 0.643527 0
M  V30 1275 C 117.055 3.20768 1.15414 0
M  V30 1276 H 118.248 2.93147 -0.632844 0
M  V30 1277 H 115.801 1.51945 -0.366391 0
M  V30 1278 H 116.536 2.61395 1.91945 0
M  V30 1279 H 116.321 3.86489 0.66098 0
M  V30 1280 H 117.811 3.83589 1.65073 0
M  V30 1281 N 118.248 0.346503 1.53744 0
M  V30 1282 C 119.476 -0.25041 2.05379 0
M  V30 1283 C 119.891 -1.43979 1.22129 0
M  V30 1284 O 119.248 -1.80677 0.257321 0
M  V30 1285 C 119.299 -0.662575 3.55376 0
M  V30 1286 O 119.02 0.479515 4.35468 0
M  V30 1287 C 120.521 -1.31989 4.23195 0
M  V30 1288 H 117.741 -0.0478198 0.669294 0
M  V30 1289 H 120.285 0.499346 1.9831 0
M  V30 1290 H 118.44 -1.36227 3.62658 0
M  V30 1291 H 118.854 0.15037 5.24284 0
M  V30 1292 H 120.328 -1.55902 5.29527 0
M  V30 1293 H 120.805 -2.27436 3.75725 0
M  V30 1294 H 121.411 -0.662154 4.20114 0
M  V30 1295 N 119.726 -1.57421 0.075193 0
M  V30 1296 C 120.636 -2.1642 -0.905511 0
M  V30 1297 C 121.652 -1.12828 -1.32461 0
M  V30 1298 O 122.828 -1.45109 -1.39661 0
M  V30 1299 C 119.893 -2.71693 -2.15369 0
M  V30 1300 C 118.954 -3.90171 -1.79068 0
M  V30 1301 C 118.187 -4.42798 -2.97936 0
M  V30 1302 O 118.41 -3.94416 -4.12058 0
M  V30 1303 O 117.344 -5.34085 -2.77555 0
M  V30 1304 H 121.17 -3.00588 -0.433626 0
M  V30 1305 H 118.755 -1.48664 -0.148067 0
M  V30 1306 H 120.637 -3.07104 -2.88557 0
M  V30 1307 H 119.312 -1.90582 -2.61649 0
M  V30 1308 H 118.219 -3.59606 -1.03122 0
M  V30 1309 H 119.552 -4.72584 -1.37569 0
M  V30 1310 N 121.204 0.198386 -1.56346 0
M  V30 1311 C 122.45 0.920648 -1.80698 0
M  V30 1312 C 122.783 1.83045 -0.648697 0
M  V30 1313 O 122.058 1.91308 0.350925 0
M  V30 1314 C 122.341 1.73971 -3.15287 0
M  V30 1315 C 122.194 0.85485 -4.41602 0
M  V30 1316 C 123.513 2.71296 -3.46535 0
M  V30 1317 H 120.632 0.333261 -0.657348 0
M  V30 1318 H 123.274 0.188198 -1.89066 0
M  V30 1319 H 121.424 2.36416 -3.08285 0
M  V30 1320 H 123.096 0.245362 -4.60647 0
M  V30 1321 H 121.339 0.161398 -4.335 0
M  V30 1322 H 122.01 1.46286 -5.32264 0
M  V30 1323 H 124.486 2.18983 -3.53816 0
M  V30 1324 H 123.362 3.2569 -4.41834 0
M  V30 1325 H 123.623 3.5018 -2.69864 0
M  V30 1326 N 122.682 1.50554 0.465978 0
M  V30 1327 C 123.612 1.72722 1.57128 0
M  V30 1328 C 124.593 0.576294 1.6004 0
M  V30 1329 O 125.778 0.81598 1.76225 0
M  V30 1330 C 122.908 1.82605 2.95419 0
M  V30 1331 C 121.862 2.97835 3.07373 0
M  V30 1332 C 121.188 2.92867 4.47363 0
M  V30 1333 C 122.488 4.38265 2.84114 0
M  V30 1334 H 124.182 2.65267 1.38829 0
M  V30 1335 H 121.728 1.2765 0.666441 0
M  V30 1336 H 123.681 1.96698 3.72677 0
M  V30 1337 H 122.405 0.866858 3.14886 0
M  V30 1338 H 121.064 2.83401 2.3255 0
M  V30 1339 H 120.712 1.94783 4.63755 0
M  V30 1340 H 120.412 3.70227 4.56296 0
M  V30 1341 H 121.936 3.09015 5.26633 0
M  V30 1342 H 123.35 4.53198 3.51118 0
M  V30 1343 H 121.747 5.17115 3.04487 0
M  V30 1344 H 122.817 4.50281 1.7993 0
M  V30 1345 N 124.16 -0.719506 1.40217 0
M  V30 1346 C 125.093 -1.84298 1.34571 0
M  V30 1347 C 126.071 -1.61149 0.216741 0
M  V30 1348 O 127.255 -1.84212 0.399756 0
M  V30 1349 C 124.382 -3.20568 1.09335 0
M  V30 1350 C 123.428 -3.62551 2.24631 0
M  V30 1351 S 124.261 -3.7012 3.87004 0
M  V30 1352 C 125.417 -5.09154 3.64024 0
M  V30 1353 H 125.65 -1.88807 2.2965 0
M  V30 1354 H 123.183 -0.885901 1.26456 0
M  V30 1355 H 125.141 -3.99246 0.954602 0
M  V30 1356 H 123.802 -3.13696 0.159164 0
M  V30 1357 H 122.995 -4.61483 2.02606 0
M  V30 1358 H 122.597 -2.91119 2.34789 0
M  V30 1359 H 124.889 -5.95955 3.22248 0
M  V30 1360 H 125.832 -5.36213 4.62473 0
M  V30 1361 H 126.24 -4.79562 2.97793 0
M  V30 1362 N 125.638 -1.25649 -0.95132 0
M  V30 1363 C 126.884 -1.11766 -1.69941 0
M  V30 1364 C 127.239 0.33735 -1.89419 0
M  V30 1365 O 126.532 1.24491 -1.45645 0
M  V30 1366 C 126.726 -1.80909 -3.08231 0
M  V30 1367 C 126.555 -3.32984 -3.02245 0
M  V30 1368 C 125.325 -4.02247 -3.05819 0
M  V30 1369 C 127.523 -4.29332 -2.83157 0
M  V30 1370 N 125.505 -5.41072 -2.90024 0
M  V30 1371 C 126.876 -5.55265 -2.75828 0
M  V30 1372 C 128.931 -4.19707 -2.67863 0
M  V30 1373 C 127.634 -6.72671 -2.54767 0
M  V30 1374 C 129.66 -5.36809 -2.48173 0
M  V30 1375 C 129.022 -6.61683 -2.41567 0
M  V30 1376 H 125.121 -0.463708 -0.629682 0
M  V30 1377 H 127.705 -1.58796 -1.12659 0
M  V30 1378 H 125.876 -1.36369 -3.63673 0
M  V30 1379 H 127.608 -1.59739 -3.71841 0
M  V30 1380 H 124.363 -3.53531 -3.15139 0
M  V30 1381 H 124.787 -6.13938 -2.85323 0
M  V30 1382 H 129.429 -3.23907 -2.71743 0
M  V30 1383 H 127.147 -7.68577 -2.49629 0
M  V30 1384 H 130.733 -5.31224 -2.37259 0
M  V30 1385 H 129.613 -7.50768 -2.26531 0
M  V30 1386 N 127.117 1.15442 -1.07289 0
M  V30 1387 C 128.364 1.86213 -0.795668 0
M  V30 1388 C 128.692 1.82291 0.678238 0
M  V30 1389 O 127.947 1.24057 1.51355 0
M  V30 1390 C 128.246 3.3489 -1.24834 0
M  V30 1391 C 127.912 3.59007 -2.72809 0
M  V30 1392 C 126.574 3.65298 -3.13227 0
M  V30 1393 C 128.926 3.68762 -3.68326 0
M  V30 1394 C 126.254 3.78854 -4.4798 0
M  V30 1395 C 128.606 3.83842 -5.0284 0
M  V30 1396 C 127.27 3.88378 -5.4288 0
M  V30 1397 H 126.54 0.681403 -0.291155 0
M  V30 1398 H 129.187 1.36435 -1.34379 0
M  V30 1399 H 127.492 3.8687 -0.619595 0
M  V30 1400 H 129.189 3.88052 -1.01076 0
M  V30 1401 H 125.779 3.5475 -2.40521 0
M  V30 1402 H 129.963 3.63202 -3.38227 0
M  V30 1403 H 125.219 3.80623 -4.78472 0
M  V30 1404 H 129.393 3.90332 -5.76727 0
M  V30 1405 H 127.02 3.98635 -6.47298 0
M  V30 1406 N 128.595 0.856903 1.32268 0
M  V30 1407 C 129.825 0.47475 2.01071 0
M  V30 1408 C 130.233 -0.933746 1.64553 0
M  V30 1409 O 129.576 -1.62114 0.863989 0
M  V30 1410 C 129.638 0.536746 3.55471 0
M  V30 1411 C 129.302 1.90453 4.15423 0
M  V30 1412 C 130.299 2.87029 4.33486 0
M  V30 1413 C 127.984 2.20229 4.51447 0
M  V30 1414 C 129.978 4.11532 4.86744 0
M  V30 1415 C 127.665 3.44984 5.0441 0
M  V30 1416 C 128.663 4.40452 5.22007 0
M  V30 1417 O 128.351 5.62998 5.73837 0
M  V30 1418 H 128.083 0.184778 0.650256 0
M  V30 1419 H 130.637 1.15615 1.69771 0
M  V30 1420 H 128.867 -0.20152 3.86175 0
M  V30 1421 H 130.556 0.169875 4.05544 0
M  V30 1422 H 131.322 2.6533 4.05986 0
M  V30 1423 H 127.201 1.46705 4.37034 0
M  V30 1424 H 130.745 4.86056 5.00395 0
M  V30 1425 H 126.642 3.66532 5.31342 0
M  V30 1426 H 127.41 5.64987 5.92226 0
M  V30 1427 N 130.073 -1.45103 0.615059 0
M  V30 1428 C 131.319 -2.02483 0.113347 0
M  V30 1429 C 131.652 -1.48146 -1.25564 0
M  V30 1430 O 130.927 -0.659104 -1.82992 0
M  V30 1431 C 131.21 -3.60005 0.0825278 0
M  V30 1432 C 131.063 -4.2466 1.48271 0
M  V30 1433 C 132.382 -4.35972 -0.601401 0
M  V30 1434 H 129.501 -0.735764 0.0426632 0
M  V30 1435 H 132.143 -1.72868 0.788461 0
M  V30 1436 H 130.293 -3.85367 -0.492378 0
M  V30 1437 H 131.965 -4.10458 2.10527 0
M  V30 1438 H 130.208 -3.82772 2.04127 0
M  V30 1439 H 130.879 -5.336 1.41332 0
M  V30 1440 H 133.355 -4.15947 -0.112666 0
M  V30 1441 H 132.231 -5.45697 -0.592097 0
M  V30 1442 H 132.492 -4.09391 -1.66887 0
M  V30 1443 N 131.551 -0.354651 -1.53558 0
M  V30 1444 C 132.799 0.237972 -2.00694 0
M  V30 1445 C 133.12 1.50173 -1.24391 0
M  V30 1446 O 132.39 1.92673 -0.354135 0
M  V30 1447 H 130.97 0.0909256 -0.741446 0
M  V30 1448 H 133.632 -0.478368 -1.88938 0
M  V30 1449 H 132.728 0.47264 -3.085 0
M  V30 1450 N 133.029 1.57378 -0.0835403 0
M  V30 1451 C 133.939 2.16897 0.894021 0
M  V30 1452 C 134.955 1.13528 1.31861 0
M  V30 1453 O 136.131 1.45848 1.3889 0
M  V30 1454 C 133.196 2.72831 2.13925 0
M  V30 1455 C 132.257 3.91115 1.76997 0
M  V30 1456 C 131.49 4.44371 2.95584 0
M  V30 1457 O 131.713 3.96596 4.09961 0
M  V30 1458 O 130.647 5.35549 2.74719 0
M  V30 1459 H 134.473 3.00814 0.417679 0
M  V30 1460 H 132.058 1.48741 0.140181 0
M  V30 1461 H 133.94 3.0863 2.86924 0
M  V30 1462 H 132.615 1.91967 2.60635 0
M  V30 1463 H 131.522 3.60148 1.01214 0
M  V30 1464 H 132.855 4.73307 1.3506 0
M  V30 1465 N 134.507 -0.190092 1.56449 0
M  V30 1466 C 135.756 -0.907912 1.80111 0
M  V30 1467 C 136.069 -1.84214 0.657619 0
M  V30 1468 O 137.275 -2.60094 0.778663 0
M  V30 1469 C 135.731 -1.66485 3.19078 0
M  V30 1470 C 135.339 -0.7752 4.41242 0
M  V30 1471 C 137.083 -2.37201 3.52045 0
M  V30 1472 C 134.99 -1.53129 5.71231 0
M  V30 1473 H 133.92 -0.34276 0.671589 0
M  V30 1474 H 136.571 -0.161109 1.82791 0
M  V30 1475 H 134.953 -2.45572 3.10661 0
M  V30 1476 H 136.127 -0.0226298 4.60794 0
M  V30 1477 H 134.442 -0.178627 4.16017 0
M  V30 1478 H 137.039 -2.94329 4.46402 0
M  V30 1479 H 137.382 -3.11632 2.76028 0
M  V30 1480 H 137.915 -1.65075 3.61932 0
M  V30 1481 H 134.654 -0.82967 6.50228 0
M  V30 1482 H 134.174 -2.25767 5.55688 0
M  V30 1483 H 135.853 -2.08377 6.12526 0
M  V30 1484 N 135.985 -1.50799 -0.457987 0
M  V30 1485 C 137.234 -1.6168 -1.20593 0
M  V30 1486 C 137.547 -0.32888 -1.92815 0
M  V30 1487 O 138.753 -0.316773 -2.69646 0
M  V30 1488 C 137.209 -2.8545 -2.19195 0
M  V30 1489 C 136.817 -4.21168 -1.52715 0
M  V30 1490 C 138.561 -3.05681 -2.94549 0
M  V30 1491 C 136.468 -5.3611 -2.4968 0
M  V30 1492 H 135.398 -0.602134 -0.453818 0
M  V30 1493 H 138.049 -1.77245 -0.475031 0
M  V30 1494 H 136.431 -2.63472 -2.95632 0
M  V30 1495 H 137.605 -4.53449 -0.819775 0
M  V30 1496 H 135.92 -4.06648 -0.895922 0
M  V30 1497 H 138.517 -3.88727 -3.67145 0
M  V30 1498 H 138.86 -2.17929 -3.54701 0
M  V30 1499 H 139.393 -3.27901 -2.25223 0
M  V30 1500 H 136.132 -6.26057 -1.94249 0
M  V30 1501 H 135.652 -5.0823 -3.18532 0
M  V30 1502 H 137.331 -5.6722 -3.11241 0
M  V30 1503 N 137.463 0.71206 -1.40597 0
M  V30 1504 C 138.711 1.46907 -1.38791 0
M  V30 1505 C 139.032 1.94998 0.00780391 0
M  V30 1506 O 138.302 1.70587 0.963174 0
M  V30 1507 H 136.882 0.545043 -0.51082 0
M  V30 1508 H 139.544 0.843882 -1.75683 0
M  V30 1509 H 138.64 2.34021 -2.06496 0
M  V30 1510 N 138.941 1.26152 0.944643 0
M  V30 1511 C 139.888 1.07408 2.04285 0
M  V30 1512 C 140.858 -0.0198413 1.66088 0
M  V30 1513 O 142.043 0.139264 1.90291 0
M  V30 1514 C 139.183 0.70945 3.37729 0
M  V30 1515 C 138.296 1.87926 3.88983 0
M  V30 1516 C 137.431 1.45807 5.10797 0
M  V30 1517 C 136.47 2.5964 5.54305 0
M  V30 1518 N 135.607 2.18226 6.67324 0
M  V30 1519 H 140.447 2.01389 2.1965 0
M  V30 1520 H 137.984 1.00275 1.07626 0
M  V30 1521 H 139.942 0.478948 4.14442 0
M  V30 1522 H 138.572 -0.193389 3.2222 0
M  V30 1523 H 137.624 2.22279 3.08701 0
M  V30 1524 H 138.936 2.73377 4.17213 0
M  V30 1525 H 138.09 1.18781 5.94959 0
M  V30 1526 H 136.829 0.574414 4.84305 0
M  V30 1527 H 135.834 2.87399 4.68702 0
M  V30 1528 H 137.059 3.48599 5.828 0
M  V30 1529 H 135.005 1.3229 6.42523 0
M  V30 1530 H 134.922 2.97221 6.95123 0
M  V30 1531 H 136.19 1.94403 7.54869 0
M  V30 1532 N 140.419 -1.14872 1.07899 0
M  V30 1533 C 141.835 -1.37776 0.805606 0
M  V30 1534 C 142.035 -1.92743 -0.587555 0
M  V30 1535 O 141.091 -2.13678 -1.34528 0
M  V30 1536 C 142.404 -2.34361 1.88402 0
M  V30 1537 C 143.952 -2.48012 1.90942 0
M  V30 1538 C 144.427 -3.47893 2.97883 0
M  V30 1539 N 145.918 -3.55433 2.97021 0
M  V30 1540 C 146.653 -4.32553 3.76412 0
M  V30 1541 N 146.149 -5.12959 4.65666 0
M  V30 1542 N 147.942 -4.27697 3.64735 0
M  V30 1543 H 140.093 -0.775365 1.97742 0
M  V30 1544 H 142.356 -0.403521 0.857831 0
M  V30 1545 H 142.062 -2.01098 2.88535 0
M  V30 1546 H 141.936 -3.34206 1.74889 0
M  V30 1547 H 144.323 -2.8057 0.914579 0
M  V30 1548 H 144.404 -1.48147 2.08534 0
M  V30 1549 H 144.048 -3.16069 3.97571 0
M  V30 1550 H 143.978 -4.47527 2.77538 0
M  V30 1551 H 146.469 -2.98048 2.32326 0
M  V30 1552 H 146.782 -5.69065 5.22862 0
M  V30 1553 H 145.127 -5.12245 4.69712 0
M  V30 1554 H 148.318 -3.63949 2.94378 0
M  V30 1555 H 148.491 -4.8755 4.26848 0
M  V30 1556 N 141.898 -0.863906 -1.31812 0
M  V30 1557 C 143.146 -0.470904 -1.96537 0
M  V30 1558 C 143.467 0.978771 -1.68657 0
M  V30 1559 O 142.737 1.6853 -0.998717 0
M  V30 1560 H 141.317 -0.171148 -0.72713 0
M  V30 1561 H 143.979 -1.10236 -1.60729 0
M  V30 1562 H 143.075 -0.623616 -3.05806 0
M  V30 1563 N 143.376 1.44774 -0.622745 0
M  V30 1564 C 144.625 2.01334 -0.121397 0
M  V30 1565 C 144.938 1.49505 1.26125 0
M  V30 1566 O 146.144 1.98139 1.85616 0
M  V30 1567 C 144.6 3.59516 -0.166298 0
M  V30 1568 C 144.208 4.20342 -1.54974 0
M  V30 1569 C 145.952 4.23582 0.279021 0
M  V30 1570 C 143.859 5.70721 -1.55021 0
M  V30 1571 H 142.789 0.752851 -0.0416172 0
M  V30 1572 H 145.44 1.66083 -0.780309 0
M  V30 1573 H 143.822 3.92027 0.559557 0
M  V30 1574 H 144.996 3.99381 -2.29851 0
M  V30 1575 H 143.311 3.68529 -1.93843 0
M  V30 1576 H 145.908 5.33868 0.298083 0
M  V30 1577 H 146.251 3.95327 1.30471 0
M  V30 1578 H 146.784 3.95843 -0.394063 0
M  V30 1579 H 143.523 6.03698 -2.55399 0
M  V30 1580 H 143.043 5.93829 -0.844245 0
M  V30 1581 H 144.722 6.34203 -1.28047 0
M  V30 1582 N 144.854 0.36279 1.53368 0
M  V30 1583 C 146.103 -0.22888 2.00397 0
M  V30 1584 C 146.416 -1.50096 1.25421 0
M  V30 1585 O 147.622 -2.17106 1.63025 0
M  V30 1586 C 146.078 -0.458417 3.56969 0
M  V30 1587 C 145.686 0.798877 4.4082 0
M  V30 1588 C 147.43 -1.00789 4.12361 0
M  V30 1589 C 145.337 0.539078 5.88938 0
M  V30 1590 H 144.267 -0.089305 0.748693 0
M  V30 1591 H 146.918 0.481099 1.77081 0
M  V30 1592 H 145.3 -1.22959 3.76427 0
M  V30 1593 H 146.474 1.57262 4.33134 0
M  V30 1594 H 144.789 1.27137 3.96516 0
M  V30 1595 H 147.386 -1.21754 5.20653 0
M  V30 1596 H 147.729 -1.9692 3.66781 0
M  V30 1597 H 148.262 -0.296961 3.9669 0
M  V30 1598 H 145.001 1.47064 6.3879 0
M  V30 1599 H 144.521 -0.196222 5.99479 0
M  V30 1600 H 146.2 0.163542 6.46793 0
M  V30 1601 N 146.332 -1.57332 0.0918853 0
M  V30 1602 C 147.58 -1.93853 -0.571446 0
M  V30 1603 C 147.901 -0.974212 -1.6892 0
M  V30 1604 O 147.171 -0.0257254 -1.95883 0
M  V30 1605 H 145.751 -0.715666 -0.214082 0
M  V30 1606 H 148.413 -1.94287 0.154464 0
M  V30 1607 H 147.509 -2.96191 -0.983729 0
M  V30 1608 N 147.81 0.181792 -1.56548 0
M  V30 1609 C 149.04 0.914618 -1.85252 0
M  V30 1610 C 149.448 1.76791 -0.673914 0
M  V30 1611 O 148.791 1.80009 0.366416 0
M  V30 1612 C 148.853 1.85019 -3.08234 0
M  V30 1613 C 148.517 1.17754 -4.41569 0
M  V30 1614 C 149.514 0.548035 -5.17003 0
M  V30 1615 C 147.199 1.17742 -4.88305 0
M  V30 1616 C 149.193 -0.0726128 -6.37359 0
M  V30 1617 C 146.88 0.552946 -6.08593 0
M  V30 1618 C 147.878 -0.070978 -6.82963 0
M  V30 1619 O 147.566 -0.685635 -8.00971 0
M  V30 1620 H 147.298 0.271695 -0.618998 0
M  V30 1621 H 149.852 0.189944 -2.0452 0
M  V30 1622 H 148.082 2.61491 -2.84885 0
M  V30 1623 H 149.771 2.45195 -3.23472 0
M  V30 1624 H 150.537 0.540174 -4.81982 0
M  V30 1625 H 146.416 1.65246 -4.30366 0
M  V30 1626 H 149.96 -0.560213 -6.95347 0
M  V30 1627 H 145.857 0.558354 -6.43081 0
M  V30 1628 H 146.625 -0.58385 -8.16415 0
M  V30 1629 N 149.288 1.51039 0.449983 0
M  V30 1630 C 150.565 1.53612 1.21089 0
M  V30 1631 C 150.945 0.292997 2.09057 0
M  V30 1632 O 150.293 -0.72259 2.16774 0
M  V30 1633 C 150.503 2.84337 2.0237 0
M  V30 1634 C 151.851 3.35807 2.59843 0
M  V30 1635 O 152.875 2.85802 2.12593 0
M  V30 1636 O 151.734 4.23029 3.45989 0
M  V30 1637 H 148.828 0.617057 0.550608 0
M  V30 1638 H 151.374 1.63344 0.460082 0
M  V30 1639 H 150.146 3.66278 1.37681 0
M  V30 1640 H 149.769 2.77708 2.84542 0
M  V30 1641 N 150.766 -0.704594 1.40972 0
M  V30 1642 C 152.012 -1.46675 1.40051 0
M  V30 1643 C 152.345 -1.94199 0.00641102 0
M  V30 1644 O 151.62 -1.68916 -0.964235 0
M  V30 1645 C 151.903 -2.68505 2.39952 0
M  V30 1646 C 151.756 -2.26805 3.88432 0
M  V30 1647 C 153.075 -3.70686 2.37233 0
M  V30 1648 H 150.194 -0.532015 0.510028 0
M  V30 1649 H 152.836 -0.803255 1.72185 0
M  V30 1650 H 150.986 -3.25114 2.1268 0
M  V30 1651 H 152.658 -1.75592 4.26574 0
M  V30 1652 H 150.901 -1.58685 4.03734 0
M  V30 1653 H 151.572 -3.14181 4.53866 0
M  V30 1654 H 154.048 -3.23731 2.61415 0
M  V30 1655 H 152.924 -4.53553 3.09162 0
M  V30 1656 H 153.185 -4.19754 1.38777 0
M  V30 1657 O 152.283 -1.37539 -0.846478 0
M  V30 1658 H 152.974 -1.24057 -1.4876 0
M  V30 END ATOM
M  V30 BEGIN BOND
M  V30 END BOND
M  V30 END CTAB
M  END
$$$$
