drugbank_target|Q04760 Lactoylglutathione lyase (DB00143; DB00328; DB03130; DB03330; DB03345; DB03602; DB04132; DB08179)
 OpenBabel12092119443D

  0  0  0     0  0            999 V3000
M  V30 BEGIN CTAB
M  V30 COUNTS 2890 2925 0 0 0
M  V30 BEGIN ATOM
M  V30 1 H -0.908 1.98254 -0.117106 0
M  V30 2 N 0 1.576 0 0
M  V30 3 C 0.933 2.03868 1.02534 0
M  V30 4 C 1.911 0.928543 1.3348 0
M  V30 5 O 3.095 1.19667 1.45644 0
M  V30 6 C 0.222 2.43627 2.35294 0
M  V30 7 C -0.732 3.65373 2.2001 0
M  V30 8 S 0.101 5.13292 1.52614 0
M  V30 9 C 1.257 5.56322 2.86805 0
M  V30 10 H 1.49 2.90518 0.631377 0
M  V30 11 H -0.977 1.52953 0.210867 0
M  V30 12 H 0.981 2.67203 3.11629 0
M  V30 13 H -0.358 1.57376 2.7183 0
M  V30 14 H -1.165 3.90944 3.18086 0
M  V30 15 H -1.563 3.418 1.51819 0
M  V30 16 H 0.729 5.58782 3.83104 0
M  V30 17 H 1.672 6.56266 2.65933 0
M  V30 18 H 2.08 4.83886 2.90714 0
M  V30 19 N 1.4781 -0.272755 1.55222 0
M  V30 20 C 2.4411 -1.32041 1.87344 0
M  V30 21 C 3.4411 -1.42342 0.74803 0
M  V30 22 O 4.6311 -1.41488 1.0162 0
M  V30 23 C 1.7631 -2.70173 2.07893 0
M  V30 24 H 2.9561 -1.04789 2.80997 0
M  V30 25 H 0.5091 -0.51083 1.47717 0
M  V30 26 H 1.2441 -3.02605 1.16622 0
M  V30 27 H 1.0291 -2.64082 2.89833 0
M  V30 28 H 2.5191 -3.45869 2.34017 0
M  V30 29 N 2.9562 -1.48159 -0.537278 0
M  V30 30 C 3.8662 -1.64807 -1.6696 0
M  V30 31 C 4.8822 -0.530651 -1.65711 0
M  V30 32 O 6.0582 -0.800784 -1.84796 0
M  V30 33 C 3.1232 -1.67708 -3.03438 0
M  V30 34 C 2.1842 -2.91025 -3.156 0
M  V30 35 C 1.4172 -2.93778 -4.45567 0
M  V30 36 O 1.6402 -2.05153 -5.3223 0
M  V30 37 O 0.5742 -3.85868 -4.61941 0
M  V30 38 H 4.4002 -2.6066 -1.55853 0
M  V30 39 H 1.9852 -1.31475 -0.709549 0
M  V30 40 H 3.8672 -1.7218 -3.84619 0
M  V30 41 H 2.5422 -0.750278 -3.14885 0
M  V30 42 H 1.4492 -2.92089 -2.33741 0
M  V30 43 H 2.7822 -3.83065 -3.09066 0
M  V30 44 N 4.4343 0.785586 -1.36625 0
M  V30 45 C 5.8453 1.36101 -1.27803 0
M  V30 46 C 6.1963 1.96035 0.0804875 0
M  V30 47 O 5.3213 1.92834 0.982042 0
M  V30 48 C 5.9163 2.47442 -2.31426 0
M  V30 49 C 4.4753 3.00789 -2.26281 0
M  V30 50 C 3.6223 1.73896 -2.15999 0
M  V30 51 H 6.5733 0.586928 -1.47448 0
M  V30 52 H 6.5943 3.2656 -1.95291 0
M  V30 53 H 6.1063 2.03791 -3.30289 0
M  V30 54 H 4.2073 3.48851 -1.30896 0
M  V30 55 H 4.3203 3.57343 -3.19128 0
M  V30 56 H 2.6843 1.9628 -1.62316 0
M  V30 57 H 3.4673 1.32368 -3.16755 0
M  V30 58 N 5.9124 1.20967 1.01018 0
M  V30 59 C 6.8444 0.922059 2.09835 0
M  V30 60 C 7.8574 -0.0927106 1.62536 0
M  V30 61 O 9.0464 0.139127 1.77957 0
M  V30 62 C 6.1464 0.362004 3.36961 0
M  V30 63 C 5.3194 1.42986 4.13369 0
M  V30 64 C 4.3784 0.879976 5.1879 0
M  V30 65 O 3.4044 1.56219 5.47343 0
M  V30 66 N 4.6064 -0.307396 5.79686 0
M  V30 67 H 7.3714 1.8588 2.35093 0
M  V30 68 H 4.9324 1.11422 1.1746 0
M  V30 69 H 6.9244 -0.0201474 4.04695 0
M  V30 70 H 5.4944 -0.479437 3.08902 0
M  V30 71 H 4.7144 1.98608 3.40512 0
M  V30 72 H 6.0024 2.14885 4.61196 0
M  V30 73 H 5.4004 -0.878796 5.58832 0
M  V30 74 H 3.9574 -0.631115 6.48737 0
M  V30 75 N 7.3905 -1.2043 1.01659 0
M  V30 76 C 8.8015 -1.71517 0.737482 0
M  V30 77 C 9.1525 -1.81547 -0.743973 0
M  V30 78 O 8.2775 -1.47803 -1.58061 0
M  V30 79 C 8.8725 -3.11515 1.33206 0
M  V30 80 C 7.4315 -3.59912 1.10183 0
M  V30 81 C 6.5785 -2.37116 1.43776 0
M  V30 82 H 9.5295 -1.05444 1.18606 0
M  V30 83 H 9.5505 -3.73575 0.722636 0
M  V30 84 H 9.0625 -3.04182 2.41028 0
M  V30 85 H 7.1635 -3.72577 0.0412756 0
M  V30 86 H 7.2765 -4.44731 1.78188 0
M  V30 87 H 5.6405 -2.39857 0.856778 0
M  V30 88 H 6.4235 -2.32424 2.52654 0
M  V30 89 N 8.8686 -0.792821 -1.36206 0
M  V30 90 C 10.2796 -0.429513 -1.81692 0
M  V30 91 C 10.6306 1.04695 -1.65932 0
M  V30 92 O 9.7556 1.81256 -1.18218 0
M  V30 93 C 10.3506 -0.772831 -3.29868 0
M  V30 94 C 8.9096 -0.462307 -3.7355 0
M  V30 95 C 8.0566 -1.00569 -2.5842 0
M  V30 96 H 11.0076 -0.985672 -1.24379 0
M  V30 97 H 11.0286 -0.0651928 -3.80444 0
M  V30 98 H 10.5406 -1.84747 -3.41307 0
M  V30 99 H 8.6416 0.604158 -3.67669 0
M  V30 100 H 8.7546 -0.985299 -4.68859 0
M  V30 101 H 7.1186 -0.428734 -2.51066 0
M  V30 102 H 7.9016 -2.08616 -2.72643 0
M  V30 103 N 10.3467 1.47872 -0.545128 0
M  V30 104 C 11.5717 2.07391 -0.0190611 0
M  V30 105 C 11.9967 1.39688 1.25971 0
M  V30 106 O 11.3547 0.467816 1.7516 0
M  V30 107 C 11.4027 3.60188 0.172335 0
M  V30 108 O 10.5067 3.9339 1.23766 0
M  V30 109 H 9.8477 0.662411 -0.0459059 0
M  V30 110 H 12.3777 1.90066 -0.757365 0
M  V30 111 H 12.3877 4.06129 0.390305 0
M  V30 112 H 11.0627 4.08865 -0.761725 0
M  V30 113 H 9.6397 3.5921 1.00114 0
M  V30 114 N 11.8248 0.280983 1.55075 0
M  V30 115 C 13.0728 -0.333455 1.9933 0
M  V30 116 C 13.3938 -1.55937 1.17085 0
M  V30 117 O 12.6638 -1.94143 0.261805 0
M  V30 118 H 11.2438 -0.126197 0.736263 0
M  V30 119 H 13.9058 0.387678 1.91005 0
M  V30 120 H 13.0018 -0.619292 3.05894 0
M  V30 121 N 13.3029 -1.57598 0.00835791 0
M  V30 122 C 14.5509 -1.90551 -0.6734 0
M  V30 123 C 14.8719 -0.883301 -1.73847 0
M  V30 124 O 14.1419 0.0781442 -1.95744 0
M  V30 125 H 12.7219 -0.703312 -0.251717 0
M  V30 126 H 15.3839 -1.94833 0.0512592 0
M  V30 127 H 14.4799 -2.9056 -1.13935 0
M  V30 128 N 14.781 0.264519 -1.55364 0
M  V30 129 C 15.711 1.33121 -1.91836 0
M  V30 130 C 16.692 1.51101 -0.781192 0
M  V30 131 O 17.877 1.64003 -1.04003 0
M  V30 132 C 15.007 2.68921 -2.19769 0
M  V30 133 C 13.961 2.65661 -3.35571 0
M  V30 134 C 13.287 4.05093 -3.49004 0
M  V30 135 C 14.587 2.24187 -4.71739 0
M  V30 136 H 16.281 1.02844 -2.81182 0
M  V30 137 H 13.827 0.493286 -1.35287 0
M  V30 138 H 15.78 3.43663 -2.43872 0
M  V30 139 H 14.504 3.00799 -1.27231 0
M  V30 140 H 13.163 1.93377 -3.1145 0
M  V30 141 H 12.811 4.34206 -2.53917 0
M  V30 142 H 12.511 4.03804 -4.26868 0
M  V30 143 H 14.035 4.81561 -3.75408 0
M  V30 144 H 15.449 2.88654 -4.9533 0
M  V30 145 H 13.846 2.34044 -5.52579 0
M  V30 146 H 14.916 1.19327 -4.69988 0
M  V30 147 N 16.2591 1.48442 0.529413 0
M  V30 148 C 17.4871 1.60151 1.30994 0
M  V30 149 C 17.9021 0.261985 1.86973 0
M  V30 150 O 17.2591 -0.748805 1.66431 0
M  V30 151 C 17.3101 2.64854 2.46038 0
M  V30 152 O 17.0311 3.93608 1.92365 0
M  V30 153 C 18.5321 2.87007 3.37849 0
M  V30 154 H 15.7521 0.539971 0.398338 0
M  V30 155 H 18.2961 1.94273 0.638597 0
M  V30 156 H 16.4511 2.33589 3.09055 0
M  V30 157 H 16.8651 4.51055 2.67675 0
M  V30 158 H 18.3391 3.64068 4.14919 0
M  V30 159 H 18.8161 1.95852 3.93114 0
M  V30 160 H 19.4221 3.19579 2.80623 0
M  V30 161 N 17.7372 -0.778329 1.37039 0
M  V30 162 C 19.0142 -1.52551 1.22424 0
M  V30 163 C 19.3942 -2.10288 -0.184964 0
M  V30 164 O 18.7422 -1.94953 -1.19187 0
M  V30 165 C 18.9522 -2.61164 2.31504 0
M  V30 166 C 20.3002 -3.28746 2.68721 0
M  V30 167 O 21.3242 -2.71455 2.30631 0
M  V30 168 O 20.1832 -4.3231 3.3432 0
M  V30 169 H 17.2772 -0.675343 0.477326 0
M  V30 170 H 19.8232 -0.815859 1.48801 0
M  V30 171 H 18.5952 -2.16574 3.25901 0
M  V30 172 H 18.2182 -3.39737 2.06554 0
M  V30 173 N 19.2153 -1.21501 -1.00376 0
M  V30 174 C 20.1253 -0.991447 -2.12621 0
M  V30 175 C 21.1413 0.0568446 -1.73907 0
M  V30 176 O 22.3173 -0.13348 -2.00957 0
M  V30 177 C 19.3823 -0.560312 -3.42142 0
M  V30 178 C 18.4433 -1.68096 -3.95022 0
M  V30 179 C 17.6763 -1.2703 -5.18362 0
M  V30 180 O 17.8993 -0.144438 -5.70217 0
M  V30 181 O 16.8333 -2.08269 -5.64719 0
M  V30 182 H 20.6593 -1.93158 -2.34358 0
M  V30 183 H 18.2443 -0.999999 -1.10997 0
M  V30 184 H 20.1263 -0.329724 -4.20108 0
M  V30 185 H 18.8013 0.351089 -3.2179 0
M  V30 186 H 17.7083 -1.96597 -3.18278 0
M  V30 187 H 19.0413 -2.56983 -4.19786 0
M  V30 188 N 20.6934 1.19889 -1.02296 0
M  V30 189 C 21.6564 2.21116 -0.603351 0
M  V30 190 C 22.6564 1.5738 0.329884 0
M  V30 191 O 23.8464 1.73802 0.117702 0
M  V30 192 C 20.9784 3.40696 0.117992 0
M  V30 193 H 22.1714 2.59754 -1.49893 0
M  V30 194 H 19.7244 1.33463 -0.813468 0
M  V30 195 H 20.4594 3.07569 1.0282 0
M  V30 196 H 20.2444 3.88188 -0.552511 0
M  V30 197 H 21.7344 4.15692 0.398696 0
M  V30 198 N 22.1715 0.800033 1.35784 0
M  V30 199 C 23.1345 0.211565 2.28221 0
M  V30 200 C 24.1345 -0.59728 1.49296 0
M  V30 201 O 25.3245 -0.416721 1.69142 0
M  V30 202 C 22.4565 -0.705846 3.33513 0
M  V30 203 H 23.6495 1.02677 2.81776 0
M  V30 204 H 21.2025 0.570211 1.45528 0
M  V30 205 H 21.9375 -1.54498 2.85133 0
M  V30 206 H 21.7225 -0.127655 3.91892 0
M  V30 207 H 23.2125 -1.11211 4.02519 0
M  V30 208 N 23.6496 -1.47581 0.552962 0
M  V30 209 C 24.5796 -2.32762 -0.185451 0
M  V30 210 C 25.5606 -1.43527 -0.912905 0
M  V30 211 O 26.7456 -1.72388 -0.894201 0
M  V30 212 C 23.8756 -3.25219 -1.21859 0
M  V30 213 C 22.8296 -4.23661 -0.607864 0
M  V30 214 C 22.1556 -5.05413 -1.74533 0
M  V30 215 C 23.4556 -5.20481 0.435582 0
M  V30 216 H 25.1496 -2.94749 0.525684 0
M  V30 217 H 22.6956 -1.41738 0.254251 0
M  V30 218 H 24.6486 -3.8365 -1.7433 0
M  V30 219 H 23.3726 -2.61279 -1.95961 0
M  V30 220 H 22.0316 -3.66451 -0.104489 0
M  V30 221 H 21.6796 -4.3788 -2.47529 0
M  V30 222 H 21.3796 -5.72059 -1.34249 0
M  V30 223 H 22.9036 -5.66701 -2.27338 0
M  V30 224 H 24.3176 -5.733 -0.00290157 0
M  V30 225 H 22.7146 -5.95305 0.757067 0
M  V30 226 H 23.7846 -4.66217 1.33303 0
M  V30 227 N 25.1277 -0.289203 -1.54924 0
M  V30 228 C 26.3527 0.329299 -2.04769 0
M  V30 229 C 26.7777 1.4763 -1.16564 0
M  V30 230 O 26.1357 1.80527 -0.167186 0
M  V30 231 C 26.1837 0.774438 -3.52186 0
M  V30 232 O 25.2877 1.88038 -3.67036 0
M  V30 233 H 24.6287 0.0659259 -0.660719 0
M  V30 234 H 27.1587 -0.42761 -2.00082 0
M  V30 235 H 27.1687 1.06642 -3.93816 0
M  V30 236 H 25.8437 -0.0646707 -4.1585 0
M  V30 237 H 24.4207 1.58985 -3.3731 0
M  V30 238 N 26.6058 1.57591 -0.0167156 0
M  V30 239 C 27.8458 1.93145 0.668902 0
M  V30 240 C 28.2098 0.892406 1.7 0
M  V30 241 O 29.4108 1.13373 2.43721 0
M  V30 242 C 27.6818 3.33678 1.28039 0
M  V30 243 S 29.2408 3.91142 1.9888 0
M  V30 244 H 26.0588 0.67593 0.220545 0
M  V30 245 H 28.6608 1.95347 -0.0774105 0
M  V30 246 H 27.3648 4.07126 0.517339 0
M  V30 247 H 26.8958 3.3489 2.06427 0
M  V30 248 H 28.9108 3.73571 3.26587 0
M  V30 249 N 28.0839 -0.256276 1.55502 0
M  V30 250 C 29.3239 -0.993081 1.78654 0
M  V30 251 C 29.6879 -1.8288 0.584724 0
M  V30 252 O 30.8889 -2.59665 0.694822 0
M  V30 253 C 29.1599 -1.83856 3.06483 0
M  V30 254 S 30.7189 -2.63573 3.5082 0
M  V30 255 H 27.5369 -0.334199 0.62756 0
M  V30 256 H 30.1389 -0.26184 1.93739 0
M  V30 257 H 28.8429 -1.21414 3.92029 0
M  V30 258 H 28.3739 -2.61271 2.94111 0
M  V30 259 H 30.3889 -3.86312 3.11412 0
M  V30 260 N 29.562 -1.4872 -0.521534 0
M  V30 261 C 30.787 -1.61101 -1.30618 0
M  V30 262 C 31.212 -0.274611 -1.86085 0
M  V30 263 O 30.57 0.754937 -1.64834 0
M  V30 264 C 30.618 -2.66709 -2.4269 0
M  V30 265 O 29.722 -2.24456 -3.45967 0
M  V30 266 H 29.063 -0.539921 -0.386499 0
M  V30 267 H 31.593 -1.94767 -0.626645 0
M  V30 268 H 31.603 -2.88245 -2.88754 0
M  V30 269 H 30.278 -3.63727 -2.01682 0
M  V30 270 H 28.855 -2.13168 -3.05964 0
M  V30 271 N 31.0401 0.771051 -1.3745 0
M  V30 272 C 32.3171 1.519 -1.23231 0
M  V30 273 C 32.6971 2.10383 0.173809 0
M  V30 274 O 32.0451 1.95583 1.18151 0
M  V30 275 C 32.2551 2.59933 -2.32886 0
M  V30 276 C 33.6031 3.27316 -2.70461 0
M  V30 277 O 34.6271 2.70228 -2.32068 0
M  V30 278 O 33.4861 4.30531 -3.36608 0
M  V30 279 H 30.5801 0.672803 -0.480901 0
M  V30 280 H 33.1261 0.807957 -1.49232 0
M  V30 281 H 31.8981 2.14842 -3.27045 0
M  V30 282 H 31.5211 3.38637 -2.08353 0
M  V30 283 N 32.5182 1.22032 0.997298 0
M  V30 284 C 33.4812 0.987909 2.06816 0
M  V30 285 C 34.4812 -0.0440084 1.6074 0
M  V30 286 O 35.6712 0.194053 1.73116 0
M  V30 287 C 32.8032 0.49132 3.37341 0
M  V30 288 H 33.9962 1.93803 2.28868 0
M  V30 289 H 31.5492 1.03838 1.16822 0
M  V30 290 H 32.2842 -0.463364 3.20973 0
M  V30 291 H 32.0692 1.23575 3.72118 0
M  V30 292 H 33.5592 0.348824 4.16141 0
M  V30 293 N 33.9963 -1.19345 1.0293 0
M  V30 294 C 35.2733 -1.84811 0.640642 0
M  V30 295 C 35.6533 -1.91855 -0.88062 0
M  V30 296 O 35.0013 -1.43587 -1.7775 0
M  V30 297 C 35.2113 -3.23755 1.30321 0
M  V30 298 C 36.5593 -3.99912 1.42673 0
M  V30 299 O 37.5833 -3.33155 1.26041 0
M  V30 300 O 36.4423 -5.19494 1.6967 0
M  V30 301 H 33.5363 -0.796443 0.222726 0
M  V30 302 H 36.0823 -1.26831 1.12748 0
M  V30 303 H 34.8543 -3.13466 2.34211 0
M  V30 304 H 34.4773 -3.89381 0.804261 0
M  V30 305 N 35.4744 -0.807222 -1.35358 0
M  V30 306 C 36.8854 -0.44876 -1.81226 0
M  V30 307 C 37.2364 1.02929 -1.67033 0
M  V30 308 O 36.3614 1.79991 -1.20133 0
M  V30 309 C 36.9564 -0.807774 -3.2903 0
M  V30 310 C 35.5154 -0.501901 -3.73039 0
M  V30 311 C 34.6624 -1.03304 -2.57339 0
M  V30 312 H 37.6134 -0.998808 -1.23327 0
M  V30 313 H 37.6344 -0.10554 -3.80354 0
M  V30 314 H 37.1464 -1.88357 -3.39328 0
M  V30 315 H 35.2474 0.565128 -3.68289 0
M  V30 316 H 35.3604 -1.03497 -4.67787 0
M  V30 317 H 33.7244 -0.455339 -2.50597 0
M  V30 318 H 34.5074 -2.11496 -2.70415 0
M  V30 319 N 36.9525 1.47285 -0.560781 0
M  V30 320 C 38.1775 2.07359 -0.0410566 0
M  V30 321 C 38.6025 1.41017 1.24483 0
M  V30 322 O 37.9605 0.486368 1.74654 0
M  V30 323 C 38.0085 3.6035 0.134123 0
M  V30 324 O 37.1125 3.94681 1.19587 0
M  V30 325 H 36.4535 0.661887 -0.0529291 0
M  V30 326 H 38.9835 1.89252 -0.777482 0
M  V30 327 H 38.9935 4.0652 0.347207 0
M  V30 328 H 37.6685 4.08034 -0.805047 0
M  V30 329 H 36.2455 3.60251 0.962987 0
M  V30 330 N 38.4306 0.297415 1.54768 0
M  V30 331 C 39.6586 -0.315623 2.04478 0
M  V30 332 C 40.0736 -1.47792 1.17486 0
M  V30 333 O 39.4306 -1.81404 0.19971 0
M  V30 334 C 39.4816 -0.7753 3.53088 0
M  V30 335 O 39.2026 0.340732 4.36773 0
M  V30 336 C 40.7036 -1.45386 4.18781 0
M  V30 337 H 37.9236 -0.0690887 0.667434 0
M  V30 338 H 40.4676 0.436003 1.99798 0
M  V30 339 H 38.6226 -1.47696 3.58141 0
M  V30 340 H 39.0366 -0.0165035 5.24497 0
M  V30 341 H 40.5106 -1.72669 5.24299 0
M  V30 342 H 40.9876 -2.39275 3.68299 0
M  V30 343 H 41.5936 -0.795475 4.17795 0
M  V30 344 N 39.9087 -1.5758 0.0250728 0
M  V30 345 C 40.8557 -2.09973 -0.958129 0
M  V30 346 C 41.8257 -1.00085 -1.3256 0
M  V30 347 O 43.0107 -1.27481 -1.41962 0
M  V30 348 C 40.1507 -2.62812 -2.2366 0
M  V30 349 C 39.2637 -3.86693 -1.92594 0
M  V30 350 C 38.3987 -4.27941 -3.14707 0
M  V30 351 C 37.4377 -5.44591 -2.79442 0
M  V30 352 N 36.5747 -5.81014 -3.94167 0
M  V30 353 H 41.4147 -2.937 -0.504428 0
M  V30 354 H 38.9517 -1.45172 -0.237392 0
M  V30 355 H 40.9097 -2.91536 -2.98434 0
M  V30 356 H 39.5397 -1.81922 -2.66654 0
M  V30 357 H 38.5917 -3.64723 -1.0808 0
M  V30 358 H 39.9037 -4.71547 -1.62619 0
M  V30 359 H 39.0577 -4.58079 -3.97804 0
M  V30 360 H 37.7967 -3.41845 -3.4784 0
M  V30 361 H 36.8017 -5.1415 -1.94755 0
M  V30 362 H 38.0267 -6.32382 -2.47528 0
M  V30 363 H 35.9727 -4.97874 -4.2715 0
M  V30 364 H 35.8897 -6.60498 -3.67801 0
M  V30 365 H 37.1577 -6.15756 -4.7798 0
M  V30 366 N 41.3868 0.248026 -1.55636 0
M  V30 367 C 42.6638 0.998988 -1.68165 0
M  V30 368 C 43.0438 2.03409 -0.564621 0
M  V30 369 O 42.3918 2.24378 0.432076 0
M  V30 370 C 42.6018 1.63334 -3.0842 0
M  V30 371 C 43.9498 2.13562 -3.66983 0
M  V30 372 O 44.9738 1.73277 -3.11213 0
M  V30 373 O 43.8328 2.87526 -4.64749 0
M  V30 374 H 40.9268 0.464933 -0.683935 0
M  V30 375 H 43.4728 0.241902 -1.67967 0
M  V30 376 H 42.2448 0.884583 -3.8117 0
M  V30 377 H 41.8678 2.45666 -3.12624 0
M  V30 378 N 42.8649 1.48995 0.513639 0
M  V30 379 C 44.1119 1.57843 1.26854 0
M  V30 380 C 44.4399 0.259501 1.92761 0
M  V30 381 O 43.6949 -0.75159 1.80692 0
M  V30 382 C 43.9939 2.67756 2.36731 0
M  V30 383 C 43.6599 4.09669 1.88368 0
M  V30 384 C 42.3219 4.48291 1.74896 0
M  V30 385 C 44.6739 4.98537 1.52021 0
M  V30 386 C 42.0019 5.73568 1.23438 0
M  V30 387 C 44.3539 6.24319 1.0202 0
M  V30 388 C 43.0179 6.61783 0.871778 0
M  V30 389 H 42.2879 0.577587 0.464192 0
M  V30 390 H 44.9349 1.82778 0.571366 0
M  V30 391 H 43.2399 2.36743 3.12185 0
M  V30 392 H 44.9369 2.71813 2.9482 0
M  V30 393 H 41.5269 3.79176 1.99808 0
M  V30 394 H 45.7109 4.69363 1.61281 0
M  V30 395 H 40.9669 6.01304 1.10648 0
M  V30 396 H 45.1409 6.92566 0.729722 0
M  V30 397 H 42.7679 7.5874 0.470852 0
M  V30 398 N 44.343 -0.763751 1.37857 0
M  V30 399 C 45.273 -1.89103 1.36975 0
M  V30 400 C 46.254 -1.68439 0.237152 0
M  V30 401 O 47.439 -1.8918 0.438713 0
M  V30 402 C 44.569 -3.26496 1.18395 0
M  V30 403 C 43.523 -3.61741 2.28751 0
M  V30 404 C 42.849 -4.97762 1.95286 0
M  V30 405 C 44.149 -3.67665 3.70972 0
M  V30 406 H 45.843 -1.90099 2.31307 0
M  V30 407 H 43.389 -0.91319 1.11341 0
M  V30 408 H 45.342 -4.05003 1.16406 0
M  V30 409 H 44.066 -3.25955 0.205215 0
M  V30 410 H 42.725 -2.85547 2.29909 0
M  V30 411 H 42.373 -4.93769 0.959221 0
M  V30 412 H 42.073 -5.22313 2.69189 0
M  V30 413 H 43.597 -5.7866 1.94898 0
M  V30 414 H 45.011 -4.36307 3.719 0
M  V30 415 H 43.408 -4.03718 4.43995 0
M  V30 416 H 44.478 -2.68134 4.0402 0
M  V30 417 N 45.8211 -1.22559 -0.990812 0
M  V30 418 C 46.7511 -1.0218 -2.09956 0
M  V30 419 C 47.7321 0.0579394 -1.70001 0
M  V30 420 O 48.9171 -0.104684 -1.93918 0
M  V30 421 C 46.0471 -0.601023 -3.4206 0
M  V30 422 C 45.0011 -1.62694 -3.95872 0
M  V30 423 C 44.3271 -1.06193 -5.24049 0
M  V30 424 C 45.6271 -3.01743 -4.2632 0
M  V30 425 H 47.3211 -1.94916 -2.27262 0
M  V30 426 H 44.8671 -0.938566 -1.09211 0
M  V30 427 H 46.8201 -0.445561 -4.19038 0
M  V30 428 H 45.5441 0.362005 -3.24588 0
M  V30 429 H 44.2031 -1.77021 -3.21028 0
M  V30 430 H 43.8511 -0.0901903 -5.02919 0
M  V30 431 H 43.5511 -1.74732 -5.61019 0
M  V30 432 H 45.0751 -0.918092 -6.03658 0
M  V30 433 H 46.4891 -2.90777 -4.94087 0
M  V30 434 H 44.8861 -3.67425 -4.74467 0
M  V30 435 H 45.9561 -3.51518 -3.34011 0
M  V30 436 N 47.2992 1.18797 -1.03562 0
M  V30 437 C 48.2312 2.21731 -0.580337 0
M  V30 438 C 49.2442 1.59051 0.347349 0
M  V30 439 O 50.4332 1.77929 0.142669 0
M  V30 440 C 47.5332 3.38459 0.172805 0
M  V30 441 C 46.7062 4.3072 -0.761496 0
M  V30 442 C 45.7652 5.26174 -0.0525547 0
M  V30 443 O 44.7912 5.65108 -0.681333 0
M  V30 444 N 45.9932 5.67624 1.21586 0
M  V30 445 H 48.7582 2.61417 -1.46565 0
M  V30 446 H 46.3192 1.33531 -0.915476 0
M  V30 447 H 48.3112 3.99335 0.656793 0
M  V30 448 H 46.8812 2.97507 0.959602 0
M  V30 449 H 46.1012 3.67525 -1.42544 0
M  V30 450 H 47.3892 4.89267 -1.39626 0
M  V30 451 H 46.7872 5.38038 1.74732 0
M  V30 452 H 45.3442 6.30721 1.64421 0
M  V30 453 N 48.7773 0.814389 1.34928 0
M  V30 454 C 49.7093 0.187834 2.28429 0
M  V30 455 C 50.7223 -0.617374 1.5064 0
M  V30 456 O 51.9113 -0.448454 1.72775 0
M  V30 457 C 49.0113 -0.755962 3.30361 0
M  V30 458 C 48.1843 0.00456686 4.374 0
M  V30 459 C 47.2433 -0.858876 5.19143 0
M  V30 460 O 46.2693 -0.306968 5.68372 0
M  V30 461 N 47.4713 -2.17988 5.38016 0
M  V30 462 H 50.2363 0.991105 2.82838 0
M  V30 463 H 47.7973 0.670561 1.4736 0
M  V30 464 H 49.7893 -1.338 3.81942 0
M  V30 465 H 48.3593 -1.46001 2.7641 0
M  V30 466 H 47.5793 0.767865 3.86649 0
M  V30 467 H 48.8673 0.528422 5.06049 0
M  V30 468 H 48.2653 -2.65212 4.99679 0
M  V30 469 H 46.8223 -2.71098 5.92747 0
M  V30 470 N 50.2554 -1.46986 0.568584 0
M  V30 471 C 51.4834 -2.0683 0.0539956 0
M  V30 472 C 51.8984 -1.41953 -1.24478 0
M  V30 473 O 51.2554 -0.519933 -1.74937 0
M  V30 474 C 51.3064 -3.61254 -0.133362 0
M  V30 475 O 51.0274 -4.237 1.11399 0
M  V30 476 C 52.5284 -4.37992 -0.683927 0
M  V30 477 H 49.7484 -0.669058 0.0510141 0
M  V30 478 H 52.2924 -1.88824 0.785234 0
M  V30 479 H 50.4474 -3.78735 -0.81477 0
M  V30 480 H 50.8614 -5.16388 0.91888 0
M  V30 481 H 52.3354 -5.46684 -0.764263 0
M  V30 482 H 52.8124 -4.05058 -1.69778 0
M  V30 483 H 53.4184 -4.25283 -0.0378494 0
M  V30 484 N 51.7335 -0.305618 -1.54608 0
M  V30 485 C 52.6665 0.610536 -2.19881 0
M  V30 486 C 53.6445 1.1294 -1.16976 0
M  V30 487 O 54.8285 1.19673 -1.45638 0
M  V30 488 C 51.9555 1.83583 -2.84631 0
M  V30 489 C 51.0015 1.4498 -4.01102 0
M  V30 490 S 51.8345 0.501793 -5.33144 0
M  V30 491 C 52.9905 1.73478 -6.01379 0
M  V30 492 H 53.2235 0.0560177 -2.97247 0
M  V30 493 H 50.7565 -0.0897434 -1.54139 0
M  V30 494 H 52.7145 2.53898 -3.22562 0
M  V30 495 H 51.3755 2.36152 -2.07102 0
M  V30 496 H 50.5685 2.36236 -4.45206 0
M  V30 497 H 50.1705 0.826553 -3.64752 0
M  V30 498 H 52.4625 2.67473 -6.22467 0
M  V30 499 H 53.4055 1.33622 -6.95378 0
M  V30 500 H 53.8135 1.9136 -5.31076 0
M  V30 501 N 53.2116 1.57565 -0.0334293 0
M  V30 502 C 54.1416 2.13511 0.945265 0
M  V30 503 C 55.1226 1.05231 1.33643 0
M  V30 504 O 56.3076 1.33084 1.41429 0
M  V30 505 C 53.4376 2.6657 2.22616 0
M  V30 506 C 52.3916 3.79676 1.97561 0
M  V30 507 C 51.7176 4.1918 3.31952 0
M  V30 508 C 53.0176 5.0557 1.31135 0
M  V30 509 H 54.7116 2.95538 0.479325 0
M  V30 510 H 52.2576 1.42166 0.229115 0
M  V30 511 H 54.2106 3.04344 2.91466 0
M  V30 512 H 52.9346 1.8171 2.71384 0
M  V30 513 H 51.5936 3.42347 1.31127 0
M  V30 514 H 51.2416 3.31296 3.78487 0
M  V30 515 H 50.9416 4.95402 3.15992 0
M  V30 516 H 52.4656 4.59541 4.02063 0
M  V30 517 H 53.8796 5.40903 1.89992 0
M  V30 518 H 52.2766 5.86818 1.25559 0
M  V30 519 H 53.3466 4.84062 0.284894 0
M  V30 520 N 54.6897 -0.239769 1.55765 0
M  V30 521 C 56.1057 -0.588624 1.48349 0
M  V30 522 C 56.3057 -1.88005 0.72502 0
M  V30 523 O 55.3617 -2.51186 0.257269 0
M  V30 524 C 56.6747 -0.68474 2.928 0
M  V30 525 C 58.2227 -0.77659 3.03213 0
M  V30 526 C 58.6977 -0.904207 4.48986 0
M  V30 527 N 60.1887 -0.968896 4.52953 0
M  V30 528 C 60.9237 -1.08703 5.63002 0
M  V30 529 N 60.4197 -1.17026 6.82845 0
M  V30 530 N 62.2127 -1.12074 5.50814 0
M  V30 531 H 54.3637 0.607911 2.03515 0
M  V30 532 H 56.6267 0.21083 0.924259 0
M  V30 533 H 56.3327 0.194284 3.51163 0
M  V30 534 H 56.2067 -1.55435 3.43686 0
M  V30 535 H 58.5937 -1.64606 2.44926 0
M  V30 536 H 58.6747 0.118315 2.55526 0
M  V30 537 H 58.3187 -0.0392633 5.07885 0
M  V30 538 H 58.2487 -1.81426 4.9436 0
M  V30 539 H 60.7397 -0.915633 3.6664 0
M  V30 540 H 61.0527 -1.25966 7.62465 0
M  V30 541 H 59.3977 -1.13971 6.85591 0
M  V30 542 H 62.5887 -1.05226 4.5612 0
M  V30 543 H 62.7617 -1.20936 6.36615 0
M  V30 544 N 56.1678 -1.49265 -0.50573 0
M  V30 545 C 57.4138 -1.58748 -1.26202 0
M  V30 546 C 57.7468 -0.271227 -1.92297 0
M  V30 547 O 57.0218 0.724831 -1.80489 0
M  V30 548 C 57.3048 -2.74332 -2.33268 0
M  V30 549 C 57.1578 -4.15737 -1.71705 0
M  V30 550 C 58.4768 -2.85576 -3.34865 0
M  V30 551 H 55.5958 -0.577826 -0.457478 0
M  V30 552 H 58.2378 -1.81532 -0.560897 0
M  V30 553 H 56.3878 -2.55036 -2.93068 0
M  V30 554 H 58.0598 -4.46537 -1.15769 0
M  V30 555 H 56.3028 -4.21605 -1.02135 0
M  V30 556 H 56.9738 -4.92477 -2.49341 0
M  V30 557 H 59.4498 -3.03127 -2.8505 0
M  V30 558 H 58.3258 -3.68135 -4.07146 0
M  V30 559 H 58.5868 -1.94732 -3.96903 0
M  V30 560 N 57.6459 0.756429 -1.3826 0
M  V30 561 C 58.5929 1.87011 -1.35261 0
M  V30 562 C 59.5629 1.64695 -0.215616 0
M  V30 563 O 60.7479 1.864 -0.407399 0
M  V30 564 C 57.8879 3.24275 -1.18068 0
M  V30 565 C 57.0009 3.58442 -2.41129 0
M  V30 566 C 56.1359 4.84994 -2.16689 0
M  V30 567 C 55.1749 5.11939 -3.35537 0
M  V30 568 N 54.3119 6.29685 -3.10549 0
M  V30 569 H 59.1519 1.8891 -2.30472 0
M  V30 570 H 56.6889 0.923373 -1.14509 0
M  V30 571 H 58.6469 4.03479 -1.06116 0
M  V30 572 H 57.2769 3.21711 -0.264973 0
M  V30 573 H 56.3289 2.74103 -2.63764 0
M  V30 574 H 57.6409 3.74283 -3.29717 0
M  V30 575 H 56.7949 5.72135 -2.01857 0
M  V30 576 H 55.5339 4.71286 -1.25462 0
M  V30 577 H 54.5389 4.23268 -3.50891 0
M  V30 578 H 55.7639 5.27546 -4.27635 0
M  V30 579 H 53.7099 6.17306 -2.21967 0
M  V30 580 H 53.6269 6.46014 -3.92686 0
M  V30 581 H 54.8949 7.19722 -2.99367 0
M  V30 582 N 59.124 1.23083 0.984299 0
M  V30 583 C 60.401 0.9689 1.69917 0
M  V30 584 C 60.781 -0.513604 2.04757 0
M  V30 585 O 60.129 -1.48383 1.73767 0
M  V30 586 C 60.339 1.87518 2.94343 0
M  V30 587 C 61.687 2.13636 3.6694 0
M  V30 588 O 62.711 1.85036 3.04368 0
M  V30 589 O 61.57 2.62119 4.79537 0
M  V30 590 H 58.664 0.365095 0.742048 0
M  V30 591 H 61.21 1.34107 1.03987 0
M  V30 592 H 59.982 2.87756 2.65164 0
M  V30 593 H 59.605 1.50514 3.6801 0
M  V30 594 N 60.6021 -1.18246 1.0419 0
M  V30 595 C 62.0131 -1.69914 0.773698 0
M  V30 596 C 62.3641 -1.83085 -0.705297 0
M  V30 597 O 61.4891 -1.51123 -1.5489 0
M  V30 598 C 62.0841 -3.08619 1.39784 0
M  V30 599 C 60.6431 -3.57494 1.17792 0
M  V30 600 C 59.7901 -2.34013 1.48773 0
M  V30 601 H 62.7411 -1.02904 1.20816 0
M  V30 602 H 62.7621 -3.71958 0.801714 0
M  V30 603 H 62.2741 -2.99001 2.47426 0
M  V30 604 H 60.3751 -3.72406 0.120295 0
M  V30 605 H 60.4881 -4.40852 1.87581 0
M  V30 606 H 58.8521 -2.37986 0.907463 0
M  V30 607 H 59.6351 -2.27013 2.57527 0
M  V30 608 N 62.0802 -0.821533 -1.34494 0
M  V30 609 C 63.0272 -0.240397 -2.29545 0
M  V30 610 C 63.9972 0.634031 -1.53523 0
M  V30 611 O 65.1822 0.575966 -1.81899 0
M  V30 612 C 62.3222 0.592869 -3.39969 0
M  V30 613 C 61.4352 -0.30365 -4.30932 0
M  V30 614 C 60.5702 0.539049 -5.28458 0
M  V30 615 C 59.6092 -0.356942 -6.11058 0
M  V30 616 N 58.7462 0.446603 -7.00678 0
M  V30 617 H 63.5862 -1.05632 -2.7865 0
M  V30 618 H 61.1232 -0.532413 -1.37127 0
M  V30 619 H 63.0812 1.09129 -4.02675 0
M  V30 620 H 61.7112 1.37392 -2.92102 0
M  V30 621 H 60.7632 -0.920276 -3.691 0
M  V30 622 H 62.0752 -0.992661 -4.88823 0
M  V30 623 H 61.2292 1.102 -5.96608 0
M  V30 624 H 59.9682 1.26157 -4.71101 0
M  V30 625 H 58.9732 -0.932047 -5.41842 0
M  V30 626 H 60.1982 -1.07755 -6.70497 0
M  V30 627 H 58.1442 1.15282 -6.45791 0
M  V30 628 H 58.0612 -0.184048 -7.55776 0
M  V30 629 H 59.3292 0.992352 -7.73158 0
M  V30 630 N 63.5583 1.46682 -0.576371 0
M  V30 631 C 64.5053 2.30241 0.160499 0
M  V30 632 C 65.4753 1.40233 0.890162 0
M  V30 633 O 66.6603 1.69186 0.882084 0
M  V30 634 C 63.8003 3.24578 1.1723 0
M  V30 635 C 62.9133 4.29684 0.446736 0
M  V30 636 C 62.0483 5.11154 1.44551 0
M  V30 637 C 61.0873 6.08015 0.70599 0
M  V30 638 N 60.2243 6.82376 1.65251 0
M  V30 639 H 65.0643 2.92727 -0.558127 0
M  V30 640 H 62.6013 1.44272 -0.287056 0
M  V30 641 H 64.5593 3.77711 1.77172 0
M  V30 642 H 63.1893 2.63916 1.85872 0
M  V30 643 H 62.2413 3.79458 -0.267594 0
M  V30 644 H 63.5533 4.98626 -0.131686 0
M  V30 645 H 62.7073 5.68533 2.11791 0
M  V30 646 H 61.4463 4.42158 2.05786 0
M  V30 647 H 60.4513 5.49796 0.0197725 0
M  V30 648 H 61.6763 6.79028 0.09912 0
M  V30 649 H 59.6223 6.16094 2.25308 0
M  V30 650 H 59.5393 7.47556 1.12673 0
M  V30 651 H 60.8073 7.44316 2.31546 0
M  V30 652 N 65.0364 0.313813 1.54444 0
M  V30 653 C 66.2614 -0.296681 2.05267 0
M  V30 654 C 66.6864 -1.45757 1.18897 0
M  V30 655 O 66.0444 -1.80239 0.195886 0
M  V30 656 C 66.0924 -0.71831 3.53373 0
M  V30 657 O 65.1964 -1.82175 3.69981 0
M  V30 658 H 64.5374 -0.0554061 0.661684 0
M  V30 659 H 67.0674 0.459387 1.99376 0
M  V30 660 H 67.0774 -1.00364 3.95463 0
M  V30 661 H 65.7524 0.130821 4.15694 0
M  V30 662 H 64.3294 -1.53598 3.39797 0
M  V30 663 N 66.5145 -1.57545 0.0417849 0
M  V30 664 C 67.4445 -2.14009 -0.933929 0
M  V30 665 C 68.4255 -1.05938 -1.33083 0
M  V30 666 O 69.6105 -1.33833 -1.40721 0
M  V30 667 C 66.7405 -2.67747 -2.21199 0
M  V30 668 C 65.6945 -3.80718 -1.95544 0
M  V30 669 C 65.0205 -4.20935 -3.29724 0
M  V30 670 C 66.3205 -5.06258 -1.28452 0
M  V30 671 H 68.0145 -2.95788 -0.463645 0
M  V30 672 H 65.5605 -1.42285 -0.221573 0
M  V30 673 H 67.5135 -3.05886 -2.89848 0
M  V30 674 H 66.2375 -1.83147 -2.70416 0
M  V30 675 H 64.8965 -3.43037 -1.2931 0
M  V30 676 H 64.5445 -3.33298 -3.76724 0
M  V30 677 H 64.2445 -4.9707 -3.13361 0
M  V30 678 H 65.7685 -4.61666 -3.9962 0
M  V30 679 H 67.1825 -5.41903 -1.8712 0
M  V30 680 H 65.5795 -5.87475 -1.22445 0
M  V30 681 H 66.6495 -4.84207 -0.259219 0
M  V30 682 N 67.9926 0.231505 -1.5589 0
M  V30 683 C 69.2696 0.981096 -1.69215 0
M  V30 684 C 69.6496 2.02799 -0.586164 0
M  V30 685 O 68.9976 2.24823 0.408253 0
M  V30 686 C 69.2076 1.60054 -3.10135 0
M  V30 687 C 70.5556 2.09658 -3.69227 0
M  V30 688 O 71.5796 1.69967 -3.13033 0
M  V30 689 O 70.4386 2.8258 -4.67772 0
M  V30 690 H 67.5326 0.457653 -0.688827 0
M  V30 691 H 70.0786 0.224073 -1.68214 0
M  V30 692 H 68.8506 0.844105 -3.82087 0
M  V30 693 H 68.4736 2.42336 -3.15212 0
M  V30 694 N 69.4707 1.49531 0.497807 0
M  V30 695 C 70.7177 1.59179 1.25173 0
M  V30 696 C 71.0457 0.279932 1.92475 0
M  V30 697 O 70.3007 -0.732383 1.81479 0
M  V30 698 C 70.5997 2.70252 2.33878 0
M  V30 699 C 70.2657 4.11644 1.84012 0
M  V30 700 C 68.9277 4.50121 1.70132 0
M  V30 701 C 71.2797 5.00121 1.46725 0
M  V30 702 C 68.6077 5.74845 1.17348 0
M  V30 703 C 70.9597 6.25366 0.95392 0
M  V30 704 C 69.6237 6.6267 0.801538 0
M  V30 705 H 68.8937 0.582478 0.45804 0
M  V30 706 H 71.5407 1.83373 0.551948 0
M  V30 707 H 69.8457 2.40041 3.09657 0
M  V30 708 H 71.5427 2.74925 2.9192 0
M  V30 709 H 68.1327 3.81274 1.95775 0
M  V30 710 H 72.3167 4.71048 1.56294 0
M  V30 711 H 67.5727 6.02444 1.04264 0
M  V30 712 H 71.7467 6.93301 0.656225 0
M  V30 713 H 69.3737 7.59197 0.390351 0
M  V30 714 N 70.9488 -0.749086 1.3866 0
M  V30 715 C 72.1788 -1.53611 1.38157 0
M  V30 716 C 72.5868 -1.89177 -0.0293595 0
M  V30 717 O 71.9298 -1.53606 -1.00752 0
M  V30 718 C 71.9918 -2.86087 2.17702 0
M  V30 719 C 71.6558 -2.73034 3.66472 0
M  V30 720 C 72.6528 -2.42526 4.59866 0
M  V30 721 C 70.3378 -2.90345 4.09884 0
M  V30 722 C 72.3318 -2.29492 5.94653 0
M  V30 723 C 70.0188 -2.7693 5.4475 0
M  V30 724 C 71.0168 -2.46547 6.36949 0
M  V30 725 O 70.7048 -2.33199 7.69333 0
M  V30 726 H 70.4368 -0.481773 0.474205 0
M  V30 727 H 72.9908 -0.934465 1.82912 0
M  V30 728 H 71.2208 -3.48458 1.67672 0
M  V30 729 H 72.9098 -3.47625 2.09551 0
M  V30 730 H 73.6758 -2.28816 4.27631 0
M  V30 731 H 69.5548 -3.1299 3.38464 0
M  V30 732 H 73.0988 -2.05698 6.66584 0
M  V30 733 H 68.9958 -2.90215 5.76581 0
M  V30 734 H 69.7638 -2.48376 7.79905 0
M  V30 735 N 72.4269 -1.23603 -0.977757 0
M  V30 736 C 73.6549 -1.09646 -1.75458 0
M  V30 737 C 74.0699 0.351859 -1.85492 0
M  V30 738 O 73.4269 1.24327 -1.336 0
M  V30 739 C 73.4779 -1.71895 -3.18016 0
M  V30 740 O 73.1989 -3.11063 -3.08498 0
M  V30 741 C 74.6999 -1.63415 -4.12081 0
M  V30 742 H 71.9199 -0.38359 -0.550545 0
M  V30 743 H 74.4639 -1.63507 -1.22824 0
M  V30 744 H 72.6189 -1.22061 -3.67668 0
M  V30 745 H 73.0329 -3.41305 -3.9826 0
M  V30 746 H 74.5069 -2.11669 -5.09804 0
M  V30 747 H 74.9839 -0.593462 -4.35172 0
M  V30 748 H 75.5899 -2.12628 -3.68334 0
M  V30 749 N 73.905 1.17692 -1.04816 0
M  V30 750 C 75.321 1.39863 -0.768794 0
M  V30 751 C 75.521 1.91118 0.638451 0
M  V30 752 O 74.577 2.10036 1.40146 0
M  V30 753 C 75.89 2.39274 -1.82122 0
M  V30 754 C 77.438 2.52987 -1.843 0
M  V30 755 C 77.913 3.55669 -2.88555 0
M  V30 756 N 79.404 3.63183 -2.87493 0
M  V30 757 C 80.139 4.42381 -3.64811 0
M  V30 758 N 79.635 5.25125 -4.51903 0
M  V30 759 N 81.428 4.37217 -3.53267 0
M  V30 760 H 73.579 0.82752 -1.95617 0
M  V30 761 H 75.842 0.426123 -0.846831 0
M  V30 762 H 75.548 2.08678 -2.83102 0
M  V30 763 H 75.422 3.38725 -1.65967 0
M  V30 764 H 77.809 2.82896 -0.839869 0
M  V30 765 H 77.89 1.53623 -2.04532 0
M  V30 766 H 77.534 3.26499 -3.89051 0
M  V30 767 H 77.464 4.54728 -2.65575 0
M  V30 768 H 79.955 3.04103 -2.24343 0
M  V30 769 H 80.268 5.82728 -5.07591 0
M  V30 770 H 78.613 5.24519 -4.55966 0
M  V30 771 H 81.804 3.71626 -2.84625 0
M  V30 772 H 81.977 4.98696 -4.13771 0
M  V30 773 N 75.3831 0.828654 1.34056 0
M  V30 774 C 76.6291 0.42008 1.98402 0
M  V30 775 C 76.9621 -1.01564 1.65525 0
M  V30 776 O 76.2371 -1.70834 0.929831 0
M  V30 777 C 76.5201 0.62927 3.54559 0
M  V30 778 C 76.3731 2.11152 3.97159 0
M  V30 779 C 77.6921 0.0688756 4.40046 0
M  V30 780 H 74.8111 0.154104 0.720709 0
M  V30 781 H 77.4531 1.04228 1.5886 0
M  V30 782 H 75.6031 0.0996418 3.88372 0
M  V30 783 H 77.2751 2.70522 3.73651 0
M  V30 784 H 75.5181 2.59985 3.47261 0
M  V30 785 H 76.1891 2.20868 5.05887 0
M  V30 786 H 78.6651 0.521458 4.1282 0
M  V30 787 H 77.5411 0.245006 5.48353 0
M  V30 788 H 77.8021 -1.0266 4.30015 0
M  V30 789 N 76.8612 -1.46375 0.584142 0
M  V30 790 C 77.7912 -2.33103 -0.136037 0
M  V30 791 C 78.7722 -1.45431 -0.882255 0
M  V30 792 O 79.9572 -1.74246 -0.857434 0
M  V30 793 C 77.0872 -3.27731 -1.14933 0
M  V30 794 C 76.0412 -4.24855 -0.517862 0
M  V30 795 C 75.3672 -5.09001 -1.63773 0
M  V30 796 C 76.6672 -5.19439 0.545886 0
M  V30 797 H 78.3612 -2.93568 0.588086 0
M  V30 798 H 75.9072 -1.41166 0.284259 0
M  V30 799 H 77.8602 -3.87261 -1.66153 0
M  V30 800 H 76.5842 -2.65377 -1.90375 0
M  V30 801 H 75.2432 -3.6659 -0.0267361 0
M  V30 802 H 74.8912 -4.43031 -2.38185 0
M  V30 803 H 74.5912 -5.74777 -1.22085 0
M  V30 804 H 76.1152 -5.71396 -2.15266 0
M  V30 805 H 77.5292 -5.73177 0.118704 0
M  V30 806 H 75.9262 -5.93566 0.88317 0
M  V30 807 H 76.9962 -4.63285 1.43162 0
M  V30 808 N 78.3393 -0.321999 -1.54275 0
M  V30 809 C 79.5873 0.280489 -2.00144 0
M  V30 810 C 79.9083 1.52777 -1.21178 0
M  V30 811 O 79.1783 1.9338 -0.313187 0
M  V30 812 H 77.7583 0.106632 -0.73935 0
M  V30 813 H 80.4203 -0.438184 -1.8991 0
M  V30 814 H 79.5163 0.537972 -3.07428 0
M  V30 815 N 79.8174 1.5752 -0.0501392 0
M  V30 816 C 80.7504 2.07026 0.959962 0
M  V30 817 C 81.7284 0.970539 1.30458 0
M  V30 818 O 82.9124 1.2424 1.41763 0
M  V30 819 C 80.0394 2.5099 2.27424 0
M  V30 820 C 79.0854 3.72188 2.08275 0
M  V30 821 S 79.9184 5.17888 1.36207 0
M  V30 822 C 81.0744 5.65165 2.6896 0
M  V30 823 H 81.3074 2.9238 0.538631 0
M  V30 824 H 78.8404 1.53547 0.162099 0
M  V30 825 H 80.7984 2.76982 3.02971 0
M  V30 826 H 79.4594 1.65944 2.66686 0
M  V30 827 H 78.6524 4.00866 3.05487 0
M  V30 828 H 78.2544 3.46457 1.40868 0
M  V30 829 H 80.5464 5.70687 3.65133 0
M  V30 830 H 81.4894 6.64394 2.4492 0
M  V30 831 H 81.8974 4.9289 2.75172 0
M  V30 832 N 81.2955 -0.223234 1.56011 0
M  V30 833 C 82.5235 -0.964812 1.83027 0
M  V30 834 C 82.9385 -1.78013 0.62904 0
M  V30 835 O 82.2955 -1.78008 -0.402414 0
M  V30 836 C 82.3465 -1.88373 3.08542 0
M  V30 837 O 82.0675 -1.10137 4.2403 0
M  V30 838 C 83.5685 -2.73934 3.48533 0
M  V30 839 H 80.7885 -0.282842 0.608475 0
M  V30 840 H 83.3325 -0.238971 2.03099 0
M  V30 841 H 81.4875 -2.56354 2.9045 0
M  V30 842 H 81.9015 -1.72501 4.95322 0
M  V30 843 H 83.3755 -3.34117 4.39397 0
M  V30 844 H 83.8525 -3.46244 2.70207 0
M  V30 845 H 84.4585 -2.11369 3.69057 0
M  V30 846 N 82.7736 -1.49793 -0.48987 0
M  V30 847 C 83.7036 -1.70201 -1.59856 0
M  V30 848 C 84.6846 -0.55076 -1.60937 0
M  V30 849 O 85.8696 -0.787841 -1.77501 0
M  V30 850 C 82.9996 -1.77882 -2.98287 0
M  V30 851 C 81.9536 -2.92907 -3.12073 0
M  V30 852 C 81.2796 -2.85712 -4.51965 0
M  V30 853 C 82.5796 -4.3369 -2.91051 0
M  V30 854 H 84.2736 -2.63025 -1.43032 0
M  V30 855 H 81.8196 -1.26574 -0.686664 0
M  V30 856 H 83.7726 -1.90744 -3.75759 0
M  V30 857 H 82.4966 -0.816653 -3.16225 0
M  V30 858 H 81.1556 -2.79665 -2.37029 0
M  V30 859 H 80.8036 -1.8738 -4.66795 0
M  V30 860 H 80.5036 -3.62921 -4.62128 0
M  V30 861 H 82.0276 -3.00598 -5.31482 0
M  V30 862 H 83.4416 -4.47555 -3.58284 0
M  V30 863 H 81.8386 -5.12205 -3.12675 0
M  V30 864 H 82.9086 -4.47362 -1.87071 0
M  V30 865 N 84.2517 0.741722 -1.39055 0
M  V30 866 C 85.5007 1.49656 -1.35225 0
M  V30 867 C 85.8137 1.95533 0.0512708 0
M  V30 868 O 87.0197 2.7067 0.212138 0
M  V30 869 C 85.4757 2.70389 -2.37525 0
M  V30 870 C 85.0837 2.31489 -3.83558 0
M  V30 871 C 86.8277 3.48236 -2.42759 0
M  V30 872 C 84.7347 3.48903 -4.77515 0
M  V30 873 H 83.6647 0.56197 -0.502699 0
M  V30 874 H 86.3157 0.809727 -1.64668 0
M  V30 875 H 84.6977 3.41113 -2.01142 0
M  V30 876 H 85.8717 1.68354 -4.28945 0
M  V30 877 H 84.1867 1.66749 -3.81554 0
M  V30 878 H 86.7837 4.35558 -3.1015 0
M  V30 879 H 87.1267 3.90229 -1.45008 0
M  V30 880 H 87.6597 2.84535 -2.78002 0
M  V30 881 H 84.3987 3.11966 -5.76504 0
M  V30 882 H 83.9187 4.11041 -4.36813 0
M  V30 883 H 85.5977 4.15328 -4.96096 0
M  V30 884 N 85.7298 1.2412 0.971189 0
M  V30 885 C 86.6618 0.988349 2.06795 0
M  V30 886 C 87.6748 -0.0409541 1.62748 0
M  V30 887 O 88.8638 0.195673 1.77424 0
M  V30 888 C 85.9638 0.469023 3.35639 0
M  V30 889 C 85.1368 1.56065 4.08611 0
M  V30 890 C 84.1958 1.04458 5.15728 0
M  V30 891 O 83.2218 1.73553 5.42096 0
M  V30 892 N 84.4238 -0.122817 5.8037 0
M  V30 893 H 87.1888 1.93265 2.29061 0
M  V30 894 H 84.7498 1.15102 1.13856 0
M  V30 895 H 86.7418 0.108613 4.04554 0
M  V30 896 H 85.3118 -0.380919 3.1027 0
M  V30 897 H 84.5318 2.09341 3.34021 0
M  V30 898 H 85.8198 2.29449 4.54126 0
M  V30 899 H 85.2178 -0.700563 5.61345 0
M  V30 900 H 83.7748 -0.424404 6.50417 0
M  V30 901 N 87.2079 -1.17134 1.05439 0
M  V30 902 C 88.1549 -2.21235 0.657539 0
M  V30 903 C 89.1249 -1.62551 -0.341543 0
M  V30 904 O 90.3099 -1.89379 -0.232393 0
M  V30 905 C 87.4499 -3.45076 0.0410575 0
M  V30 906 C 86.5629 -4.18042 1.08927 0
M  V30 907 C 85.6979 -5.29376 0.439848 0
M  V30 908 C 84.7369 -5.94132 1.4722 0
M  V30 909 N 83.8739 -6.96975 0.846756 0
M  V30 910 H 88.7139 -2.54534 1.54972 0
M  V30 911 H 86.2509 -1.25028 0.775006 0
M  V30 912 H 88.2089 -4.15862 -0.33383 0
M  V30 913 H 86.8389 -3.12353 -0.814568 0
M  V30 914 H 85.8909 -3.45945 1.58196 0
M  V30 915 H 87.2029 -4.62306 1.87282 0
M  V30 916 H 86.3569 -6.06699 0.0115125 0
M  V30 917 H 85.0959 -4.86251 -0.375656 0
M  V30 918 H 84.1009 -5.15538 1.91052 0
M  V30 919 H 85.3259 -6.39337 2.28965 0
M  V30 920 H 83.2719 -6.5598 0.0518075 0
M  V30 921 H 83.1889 -7.39565 1.5678 0
M  V30 922 H 84.4569 -7.78239 0.443277 0
M  V30 923 N 88.686 -0.835752 -1.33615 0
M  V30 924 C 89.926 -0.43599 -1.99696 0
M  V30 925 C 90.29 0.98557 -1.64774 0
M  V30 926 O 91.491 1.48889 -2.23798 0
M  V30 927 C 89.762 -0.646721 -3.515 0
M  V30 928 S 91.321 -0.341715 -4.37467 0
M  V30 929 H 88.139 -0.164136 -0.691795 0
M  V30 930 H 90.741 -1.08436 -1.62671 0
M  V30 931 H 89.445 -1.68077 -3.74404 0
M  V30 932 H 88.976 0.0159173 -3.93397 0
M  V30 933 H 90.991 0.839708 -4.89043 0
M  V30 934 N 90.1641 1.46063 -0.591896 0
M  V30 935 C 91.4411 1.95595 -0.0137119 0
M  V30 936 C 91.8211 1.5345 1.4497 0
M  V30 937 O 91.1691 0.789543 2.14426 0
M  V30 938 C 91.3791 3.48453 -0.195373 0
M  V30 939 C 92.7271 4.24546 -0.0679765 0
M  V30 940 O 93.7511 3.55982 -0.124681 0
M  V30 941 O 92.6101 5.46467 0.0600579 0
M  V30 942 H 89.7041 0.825795 0.0446279 0
M  V30 943 H 92.2501 1.56303 -0.660859 0
M  V30 944 H 91.0221 3.72045 -1.21235 0
M  V30 945 H 90.6451 3.94597 0.487775 0
M  V30 946 N 91.6422 0.330177 1.54103 0
M  V30 947 C 92.8892 -0.270405 2.00686 0
M  V30 948 C 93.2172 -1.51621 1.21825 0
M  V30 949 O 92.4722 -1.93536 0.29025 0
M  V30 950 C 92.7712 -0.643134 3.51566 0
M  V30 951 C 92.4372 0.504251 4.48072 0
M  V30 952 C 91.0992 0.819163 4.74176 0
M  V30 953 C 93.4512 1.27465 5.05373 0
M  V30 954 C 90.7792 1.90708 5.5484 0
M  V30 955 C 93.1312 2.35271 5.87223 0
M  V30 956 C 91.7952 2.67336 6.11627 0
M  V30 957 H 91.0652 -0.0989482 0.734364 0
M  V30 958 H 93.7122 0.455324 1.86008 0
M  V30 959 H 92.0172 -1.44938 3.64006 0
M  V30 960 H 93.7142 -1.11949 3.85056 0
M  V30 961 H 90.3042 0.248733 4.27878 0
M  V30 962 H 94.4882 1.04462 4.85182 0
M  V30 963 H 89.7442 2.15991 5.71977 0
M  V30 964 H 93.9182 2.95405 6.30641 0
M  V30 965 H 91.5452 3.51763 6.73919 0
M  V30 966 N 93.1203 -1.57491 0.0584922 0
M  V30 967 C 94.5313 -1.80526 -0.476138 0
M  V30 968 C 94.8823 -0.971334 -1.70469 0
M  V30 969 O 94.0073 -0.190012 -2.15564 0
M  V30 970 C 94.6023 -3.27424 -0.870587 0
M  V30 971 C 93.1613 -3.51351 -1.35015 0
M  V30 972 C 92.3083 -2.75343 -0.32887 0
M  V30 973 H 95.2593 -1.56133 0.284312 0
M  V30 974 H 95.2803 -3.38745 -1.73299 0
M  V30 975 H 94.7923 -3.88093 0.0237627 0
M  V30 976 H 92.8933 -2.95971 -2.26345 0
M  V30 977 H 93.0063 -4.60059 -1.33726 0
M  V30 978 H 91.3703 -2.417 -0.803321 0
M  V30 979 H 92.1533 -3.38743 0.557521 0
M  V30 980 N 94.5984 0.214957 -1.56127 0
M  V30 981 C 95.8474 0.936451 -1.78643 0
M  V30 982 C 96.1604 1.85237 -0.628229 0
M  V30 983 O 97.3664 2.613 -0.737186 0
M  V30 984 C 95.8224 1.7154 -3.16389 0
M  V30 985 C 95.4304 0.845299 -4.39953 0
M  V30 986 C 97.1744 2.42772 -3.48227 0
M  V30 987 C 95.0814 1.62198 -5.68723 0
M  V30 988 H 94.0114 0.353401 -0.666051 0
M  V30 989 H 96.6624 0.190169 -1.82512 0
M  V30 990 H 95.0444 2.50484 -3.06715 0
M  V30 991 H 96.2184 0.0959353 -4.607 0
M  V30 992 H 94.5334 0.244789 -4.1568 0
M  V30 993 H 97.1304 3.01394 -4.41663 0
M  V30 994 H 97.4734 3.15984 -2.71035 0
M  V30 995 H 98.0064 1.70813 -3.5926 0
M  V30 996 H 94.7454 0.933011 -6.48826 0
M  V30 997 H 94.2654 2.34579 -5.52026 0
M  V30 998 H 95.9444 2.18095 -6.09133 0
M  V30 999 N 96.0765 1.50051 0.48192 0
M  V30 1000 C 97.0095 1.62749 1.59963 0
M  V30 1001 C 97.9875 0.475903 1.5548 0
M  V30 1002 O 99.1715 0.693986 1.7526 0
M  V30 1003 C 96.2985 1.60008 2.98522 0
M  V30 1004 C 95.3445 2.80596 3.21198 0
M  V30 1005 S 96.1775 4.42038 3.02262 0
M  V30 1006 C 97.3335 4.41973 4.43182 0
M  V30 1007 H 97.5665 2.57296 1.4895 0
M  V30 1008 H 95.0995 1.39179 0.668477 0
M  V30 1009 H 97.0575 1.59112 3.78409 0
M  V30 1010 H 95.7185 0.667153 3.06933 0
M  V30 1011 H 94.9115 2.74952 4.22395 0
M  V30 1012 H 94.5135 2.79003 2.49065 0
M  V30 1013 H 96.8055 4.14868 5.35622 0
M  V30 1014 H 97.7485 5.43512 4.53873 0
M  V30 1015 H 98.1565 3.71812 4.24755 0
M  V30 1016 N 97.5546 -0.734337 1.39446 0
M  V30 1017 C 98.5016 -1.84835 1.38219 0
M  V30 1018 C 99.4716 -1.64331 0.24179 0
M  V30 1019 O 100.657 -1.85728 0.437002 0
M  V30 1020 C 97.7966 -3.22355 1.23212 0
M  V30 1021 C 96.9096 -3.5456 2.46801 0
M  V30 1022 C 96.0446 -4.81485 2.24377 0
M  V30 1023 C 95.0836 -5.06536 3.43639 0
M  V30 1024 N 94.2206 -6.24665 3.20528 0
M  V30 1025 H 99.0606 -1.85219 2.33448 0
M  V30 1026 H 96.5976 -0.905039 1.15963 0
M  V30 1027 H 98.5556 -4.0174 1.12522 0
M  V30 1028 H 97.1856 -3.21248 0.316121 0
M  V30 1029 H 96.2376 -2.69872 2.68092 0
M  V30 1030 H 97.5496 -3.6899 3.3563 0
M  V30 1031 H 96.7036 -5.68852 2.10933 0
M  V30 1032 H 95.4426 -4.6923 1.32944 0
M  V30 1033 H 94.4476 -4.17632 3.5758 0
M  V30 1034 H 95.6726 -5.20676 4.35974 0
M  V30 1035 H 93.6186 -6.13696 2.3176 0
M  V30 1036 H 93.5356 -6.39685 4.02913 0
M  V30 1037 H 94.8036 -7.14868 3.10779 0
M  V30 1038 N 99.0327 -1.24633 -0.964593 0
M  V30 1039 C 100.28 -1.08788 -1.70796 0
M  V30 1040 C 100.608 0.372783 -1.90894 0
M  V30 1041 O 99.8627 1.29167 -1.47018 0
M  V30 1042 C 100.162 -1.7763 -3.10133 0
M  V30 1043 C 99.8277 -3.27557 -3.09866 0
M  V30 1044 C 98.4897 -3.6846 -3.09501 0
M  V30 1045 C 100.842 -4.23389 -3.03959 0
M  V30 1046 C 98.1697 -5.03624 -3.00965 0
M  V30 1047 C 100.522 -5.58565 -2.96965 0
M  V30 1048 C 99.1857 -5.98809 -2.9493 0
M  V30 1049 H 98.4557 -0.398084 -0.624988 0
M  V30 1050 H 101.103 -1.54777 -1.12767 0
M  V30 1051 H 99.4077 -1.24044 -3.71645 0
M  V30 1052 H 101.105 -1.62832 -3.66451 0
M  V30 1053 H 97.6947 -2.95006 -3.10917 0
M  V30 1054 H 101.879 -3.92787 -3.03368 0
M  V30 1055 H 97.1347 -5.33998 -2.97752 0
M  V30 1056 H 101.309 -6.32523 -2.91354 0
M  V30 1057 H 98.9357 -7.03505 -2.88071 0
M  V30 1058 N 100.511 1.16574 -1.06058 0
M  V30 1059 C 101.736 1.91493 -0.796562 0
M  V30 1060 C 102.161 1.76773 0.642868 0
M  V30 1061 O 101.519 1.09142 1.44768 0
M  V30 1062 C 101.567 3.40293 -1.19303 0
M  V30 1063 O 100.671 4.11074 -0.330394 0
M  V30 1064 H 100.012 0.596678 -0.291326 0
M  V30 1065 H 102.542 1.47708 -1.41575 0
M  V30 1066 H 102.552 3.91057 -1.16356 0
M  V30 1067 H 101.227 3.50326 -2.24153 0
M  V30 1068 H 99.8038 3.70513 -0.421225 0
M  V30 1069 N 101.989 0.842826 1.3317 0
M  V30 1070 C 102.919 0.294028 2.31641 0
M  V30 1071 C 103.9 -0.600401 1.59151 0
M  V30 1072 O 105.085 -0.523124 1.87022 0
M  V30 1073 C 102.215 -0.528416 3.43257 0
M  V30 1074 C 101.169 0.27056 4.27144 0
M  V30 1075 C 100.495 -0.675881 5.30411 0
M  V30 1076 C 101.795 1.48981 5.00602 0
M  V30 1077 H 103.489 1.11681 2.77791 0
M  V30 1078 H 101.035 0.538478 1.33553 0
M  V30 1079 H 102.988 -0.922674 4.11175 0
M  V30 1080 H 101.712 -1.38445 2.95805 0
M  V30 1081 H 100.371 0.646427 3.60856 0
M  V30 1082 H 100.019 -1.52842 4.79216 0
M  V30 1083 H 99.7189 -0.145374 5.8742 0
M  V30 1084 H 101.243 -1.06757 6.01195 0
M  V30 1085 H 102.657 1.16849 5.61266 0
M  V30 1086 H 101.054 1.95739 5.6728 0
M  V30 1087 H 102.124 2.25746 4.29147 0
M  V30 1088 N 103.467 -1.45747 0.599634 0
M  V30 1089 C 104.697 -2.06369 0.0977132 0
M  V30 1090 C 105.105 -1.44624 -1.21985 0
M  V30 1091 O 104.448 -0.551831 -1.75216 0
M  V30 1092 C 104.51 -3.59284 -0.124673 0
M  V30 1093 C 104.174 -4.43318 1.10987 0
M  V30 1094 C 105.171 -4.78796 2.02609 0
M  V30 1095 C 102.856 -4.84194 1.33647 0
M  V30 1096 C 104.85 -5.53997 3.15224 0
M  V30 1097 C 102.537 -5.5915 2.46565 0
M  V30 1098 C 103.535 -5.93968 3.37182 0
M  V30 1099 O 103.223 -6.67405 4.48136 0
M  V30 1100 H 102.955 -0.673122 0.0623153 0
M  V30 1101 H 105.509 -1.88104 0.824981 0
M  V30 1102 H 103.739 -3.75919 -0.906745 0
M  V30 1103 H 105.428 -4.01775 -0.577201 0
M  V30 1104 H 106.194 -4.47781 1.86325 0
M  V30 1105 H 102.073 -4.56534 0.64016 0
M  V30 1106 H 105.617 -5.81091 3.85978 0
M  V30 1107 H 101.514 -5.89579 2.62805 0
M  V30 1108 H 102.282 -6.85847 4.46717 0
M  V30 1109 N 104.945 -0.338344 -1.53925 0
M  V30 1110 C 106.192 0.259758 -2.00827 0
M  V30 1111 C 106.52 1.50973 -1.22628 0
M  V30 1112 O 105.775 1.93379 -0.300509 0
M  V30 1113 C 106.074 0.62448 -3.51902 0
M  V30 1114 C 105.74 -0.528006 -4.47798 0
M  V30 1115 C 104.402 -0.844298 -4.73735 0
M  V30 1116 C 106.754 -1.30143 -5.0469 0
M  V30 1117 C 104.082 -1.93648 -5.53821 0
M  V30 1118 C 106.434 -2.38382 -5.85967 0
M  V30 1119 C 105.098 -2.70576 -6.10201 0
M  V30 1120 H 104.368 0.0950523 -0.734878 0
M  V30 1121 H 107.015 -0.465182 -1.85764 0
M  V30 1122 H 105.32 1.43006 -3.64769 0
M  V30 1123 H 107.017 1.09905 -3.85645 0
M  V30 1124 H 103.607 -0.271421 -4.2774 0
M  V30 1125 H 107.791 -1.07033 -4.84621 0
M  V30 1126 H 103.047 -2.19021 -5.70824 0
M  V30 1127 H 107.221 -2.98746 -6.29066 0
M  V30 1128 H 104.848 -3.55333 -6.72044 0
M  V30 1129 N 106.423 1.57458 -0.0668435 0
M  V30 1130 C 107.353 2.15468 0.899764 0
M  V30 1131 C 108.334 1.08042 1.31381 0
M  V30 1132 O 109.519 1.36054 1.38574 0
M  V30 1133 C 106.649 2.71232 2.16911 0
M  V30 1134 C 105.603 3.83781 1.89463 0
M  V30 1135 C 104.929 4.26127 3.22986 0
M  V30 1136 C 106.229 5.08238 1.20381 0
M  V30 1137 H 107.923 2.96488 0.416529 0
M  V30 1138 H 105.469 1.4262 0.198908 0
M  V30 1139 H 107.422 3.10458 2.84945 0
M  V30 1140 H 106.146 1.87426 2.67468 0
M  V30 1141 H 104.805 3.45051 1.23836 0
M  V30 1142 H 104.453 3.39249 3.71374 0
M  V30 1143 H 104.153 5.01993 3.05413 0
M  V30 1144 H 105.677 4.67966 3.92225 0
M  V30 1145 H 107.091 5.44811 1.78475 0
M  V30 1146 H 105.488 5.89349 1.13083 0
M  V30 1147 H 106.558 4.84558 0.182153 0
M  V30 1148 N 107.901 -0.206675 1.56239 0
M  V30 1149 C 108.864 -1.23976 1.92776 0
M  V30 1150 C 109.864 -1.39041 0.807729 0
M  V30 1151 O 111.054 -1.37051 1.0753 0
M  V30 1152 C 108.186 -2.61112 2.19165 0
M  V30 1153 H 109.379 -0.927764 2.85189 0
M  V30 1154 H 106.932 -0.447718 1.4975 0
M  V30 1155 H 107.667 -2.97386 1.29352 0
M  V30 1156 H 107.452 -2.51552 3.00772 0
M  V30 1157 H 108.942 -3.35633 2.48476 0
M  V30 1158 N 109.379 -1.50304 -0.473955 0
M  V30 1159 C 110.609 -1.64663 -1.24778 0
M  V30 1160 C 111.017 -0.328174 -1.86332 0
M  V30 1161 O 110.36 0.699536 -1.69859 0
M  V30 1162 C 110.422 -2.6778 -2.39863 0
M  V30 1163 C 110.086 -4.11413 -1.98969 0
M  V30 1164 C 111.083 -4.97372 -1.51385 0
M  V30 1165 C 108.768 -4.57312 -2.07777 0
M  V30 1166 C 110.762 -6.27277 -1.13148 0
M  V30 1167 C 108.449 -5.87223 -1.69152 0
M  V30 1168 C 109.447 -6.72031 -1.21915 0
M  V30 1169 O 109.135 -7.99518 -0.838237 0
M  V30 1170 H 108.867 -0.556602 -0.383627 0
M  V30 1171 H 111.421 -1.9726 -0.572491 0
M  V30 1172 H 109.651 -2.30419 -3.10554 0
M  V30 1173 H 111.34 -2.71388 -3.01833 0
M  V30 1174 H 112.106 -4.63128 -1.44004 0
M  V30 1175 H 107.985 -3.91449 -2.43493 0
M  V30 1176 H 111.529 -6.93425 -0.762077 0
M  V30 1177 H 107.426 -6.20989 -1.76191 0
M  V30 1178 H 108.194 -8.12764 -0.967339 0
M  V30 1179 N 110.857 0.726932 -1.39834 0
M  V30 1180 C 111.767 1.87131 -1.41489 0
M  V30 1181 C 112.783 1.71239 -0.308757 0
M  V30 1182 O 113.959 1.93701 -0.551529 0
M  V30 1183 C 111.024 3.22811 -1.26468 0
M  V30 1184 C 110.085 3.51039 -2.47124 0
M  V30 1185 C 109.318 4.80245 -2.3281 0
M  V30 1186 O 109.541 5.54537 -1.33585 0
M  V30 1187 O 108.475 5.08554 -3.21957 0
M  V30 1188 H 112.301 1.8869 -2.3797 0
M  V30 1189 H 109.886 0.875837 -1.21035 0
M  V30 1190 H 111.768 4.03877 -1.20255 0
M  V30 1191 H 110.443 3.22005 -0.330862 0
M  V30 1192 H 109.35 2.70027 -2.58914 0
M  V30 1193 H 110.683 3.56632 -3.39227 0
M  V30 1194 N 112.336 1.25143 0.95797 0
M  V30 1195 C 113.613 1.00472 1.67823 0
M  V30 1196 C 113.993 -0.470056 2.058 0
M  V30 1197 O 113.341 -1.44663 1.76875 0
M  V30 1198 C 113.551 1.9372 2.90299 0
M  V30 1199 C 114.899 2.21371 3.62326 0
M  V30 1200 O 115.923 1.91451 3.00375 0
M  V30 1201 O 114.782 2.72231 4.7387 0
M  V30 1202 H 111.876 0.380752 0.734137 0
M  V30 1203 H 114.422 1.36283 1.01119 0
M  V30 1204 H 113.194 2.93316 2.59001 0
M  V30 1205 H 112.817 1.58286 3.64735 0
M  V30 1206 N 113.814 -1.1601 1.06675 0
M  V30 1207 C 114.761 -2.20525 0.680967 0
M  V30 1208 C 115.731 -1.62904 -0.324283 0
M  V30 1209 O 116.916 -1.89615 -0.212294 0
M  V30 1210 C 114.056 -3.45013 0.0776551 0
M  V30 1211 C 113.169 -4.16863 1.13355 0
M  V30 1212 C 112.304 -5.2888 0.49597 0
M  V30 1213 C 111.343 -5.92537 1.53513 0
M  V30 1214 N 110.48 -6.96038 0.920631 0
M  V30 1215 H 115.32 -2.52876 1.57663 0
M  V30 1216 H 112.857 -1.24199 0.788223 0
M  V30 1217 H 114.815 -4.16193 -0.289704 0
M  V30 1218 H 113.445 -3.132 -0.781393 0
M  V30 1219 H 112.497 -3.44248 1.61857 0
M  V30 1220 H 113.809 -4.60294 1.92174 0
M  V30 1221 H 112.963 -6.06653 0.0758604 0
M  V30 1222 H 111.702 -4.86622 -0.324062 0
M  V30 1223 H 110.707 -5.13482 1.9651 0
M  V30 1224 H 111.932 -6.36873 2.35733 0
M  V30 1225 H 109.878 -6.55888 0.12138 0
M  V30 1226 H 109.795 -7.3786 1.64616 0
M  V30 1227 H 111.063 -7.77725 0.525795 0
M  V30 1228 N 115.292 -0.849877 -1.32721 0
M  V30 1229 C 116.24 -0.279745 -2.30912 0
M  V30 1230 C 117.234 0.594278 -1.58634 0
M  V30 1231 O 118.44 0.482613 -1.73409 0
M  V30 1232 H 114.815 -0.0717521 -0.748569 0
M  V30 1233 H 116.786 -1.12222 -2.76494 0
M  V30 1234 C 115.535 0.521108 -3.43773 0
M  V30 1235 H 114.858 -0.142141 -3.99547 0
M  V30 1236 H 116.298 0.885693 -4.14646 0
M  V30 1237 C 114.757 1.70442 -2.90605 0
M  V30 1238 O 115.287 2.8034 -2.87702 0
M  V30 1239 N 113.493 1.52991 -2.47067 0
M  V30 1240 H 113.04 0.635914 -2.49628 0
M  V30 1241 H 112.998 2.32311 -2.11847 0
M  V30 1242 N 116.77 1.45427 -0.607355 0
M  V30 1243 C 118.047 1.9557 -0.0344566 0
M  V30 1244 C 118.427 1.54979 1.43334 0
M  V30 1245 O 117.775 0.812241 2.13576 0
M  V30 1246 C 117.985 3.48226 -0.232321 0
M  V30 1247 C 119.333 4.2445 -0.113001 0
M  V30 1248 O 120.357 3.55829 -0.162431 0
M  V30 1249 O 119.216 5.465 0.00209442 0
M  V30 1250 H 116.31 0.826222 0.0358667 0
M  V30 1251 H 118.856 1.55594 -0.6774 0
M  V30 1252 H 117.628 3.70739 -1.25174 0
M  V30 1253 H 117.251 3.95092 0.445896 0
M  V30 1254 N 118.248 0.346503 1.53744 0
M  V30 1255 C 119.497 -0.250122 2.00143 0
M  V30 1256 C 119.81 -1.51418 1.23822 0
M  V30 1257 O 121.016 -2.18823 1.60713 0
M  V30 1258 C 119.472 -0.496252 3.56462 0
M  V30 1259 C 119.08 0.752077 4.41642 0
M  V30 1260 C 120.824 -1.05157 4.11269 0
M  V30 1261 C 118.731 0.476583 5.89477 0
M  V30 1262 H 117.661 -0.0972409 0.747703 0
M  V30 1263 H 120.312 0.46229 1.77581 0
M  V30 1264 H 118.694 -1.26944 3.75102 0
M  V30 1265 H 119.868 1.5266 4.34778 0
M  V30 1266 H 118.183 1.22925 3.97842 0
M  V30 1267 H 120.78 -1.27269 5.19333 0
M  V30 1268 H 121.123 -2.00799 3.64672 0
M  V30 1269 H 121.656 -0.339019 3.96353 0
M  V30 1270 H 118.395 1.4028 6.40314 0
M  V30 1271 H 117.915 -0.259794 5.99237 0
M  V30 1272 H 119.594 0.0949315 6.4693 0
M  V30 1273 N 119.726 -1.57421 0.075193 0
M  V30 1274 C 121.137 -1.81021 -0.456964 0
M  V30 1275 C 121.488 -0.98936 -1.69429 0
M  V30 1276 O 120.613 -0.212865 -2.15351 0
M  V30 1277 C 121.208 -3.28329 -0.83581 0
M  V30 1278 C 119.767 -3.52764 -1.31281 0
M  V30 1279 C 118.914 -2.75676 -0.299648 0
M  V30 1280 H 121.865 -1.55822 0.300856 0
M  V30 1281 H 121.886 -3.40564 -1.69696 0
M  V30 1282 H 121.398 -3.88046 0.0649238 0
M  V30 1283 H 119.499 -2.98355 -2.23193 0
M  V30 1284 H 119.612 -4.61451 -1.28839 0
M  V30 1285 H 117.976 -2.42538 -0.777641 0
M  V30 1286 H 118.759 -3.38132 0.593417 0
M  V30 1287 N 121.204 0.198386 -1.56346 0
M  V30 1288 C 122.151 1.24589 -1.94284 0
M  V30 1289 C 123.121 1.454 -0.802997 0
M  V30 1290 O 124.306 1.58588 -1.06087 0
M  V30 1291 C 121.446 2.58631 -2.28482 0
M  V30 1292 C 120.559 2.45426 -3.55514 0
M  V30 1293 C 119.694 3.7215 -3.79049 0
M  V30 1294 C 118.733 3.53763 -4.99518 0
M  V30 1295 N 117.87 4.72491 -5.19323 0
M  V30 1296 H 122.71 0.915356 -2.83593 0
M  V30 1297 H 120.247 0.440629 -1.40346 0
M  V30 1298 H 122.205 3.3672 -2.46324 0
M  V30 1299 H 120.835 2.89734 -1.42317 0
M  V30 1300 H 119.887 1.58652 -3.45737 0
M  V30 1301 H 121.199 2.27772 -4.43758 0
M  V30 1302 H 120.353 4.58679 -3.97113 0
M  V30 1303 H 119.092 3.92754 -2.89129 0
M  V30 1304 H 118.097 2.65619 -4.8138 0
M  V30 1305 H 119.322 3.34607 -5.90944 0
M  V30 1306 H 117.268 4.93365 -4.3235 0
M  V30 1307 H 117.185 4.5765 -6.01741 0
M  V30 1308 H 118.453 5.6038 -5.41843 0
M  V30 1309 N 122.682 1.50554 0.465978 0
M  V30 1310 C 123.592 1.72585 1.58907 0
M  V30 1311 C 124.608 0.60911 1.6299 0
M  V30 1312 O 125.784 0.88804 1.80765 0
M  V30 1313 C 122.849 1.81995 2.95091 0
M  V30 1314 C 121.91 3.05751 3.01355 0
M  V30 1315 C 121.143 3.14702 4.31043 0
M  V30 1316 O 121.366 2.30313 5.21835 0
M  V30 1317 O 120.3 4.07468 4.43005 0
M  V30 1318 H 124.126 2.67799 1.43239 0
M  V30 1319 H 121.711 1.34711 0.646013 0
M  V30 1320 H 123.593 1.90335 3.75966 0
M  V30 1321 H 122.268 0.899659 3.10947 0
M  V30 1322 H 121.175 3.02908 2.19539 0
M  V30 1323 H 122.508 3.97375 2.90437 0
M  V30 1324 N 124.16 -0.719506 1.40217 0
M  V30 1325 C 125.107 -1.83359 1.40172 0
M  V30 1326 C 126.077 -1.64065 0.259206 0
M  V30 1327 O 127.262 -1.85254 0.456677 0
M  V30 1328 C 124.402 -3.2103 1.26624 0
M  V30 1329 C 123.515 -3.51923 2.50548 0
M  V30 1330 C 122.65 -4.79079 2.29471 0
M  V30 1331 C 121.689 -5.02863 3.48992 0
M  V30 1332 N 120.826 -6.2123 3.27135 0
M  V30 1333 H 125.666 -1.82733 2.35399 0
M  V30 1334 H 123.203 -0.892688 1.16917 0
M  V30 1335 H 125.161 -4.00524 1.16776 0
M  V30 1336 H 123.791 -3.20895 0.350176 0
M  V30 1337 H 122.843 -2.67014 2.70939 0
M  V30 1338 H 124.155 -3.6541 3.39525 0
M  V30 1339 H 123.309 -5.66582 2.16955 0
M  V30 1340 H 122.048 -4.67794 1.37913 0
M  V30 1341 H 121.053 -4.13816 3.6199 0
M  V30 1342 H 122.278 -5.16023 4.41472 0
M  V30 1343 H 120.224 -6.11204 2.38256 0
M  V30 1344 H 120.141 -6.35375 4.09675 0
M  V30 1345 H 121.409 -7.11532 3.18344 0
M  V30 1346 N 125.638 -1.25649 -0.95132 0
M  V30 1347 C 126.915 -1.01361 -1.67288 0
M  V30 1348 C 127.295 0.459135 -2.06046 0
M  V30 1349 O 126.643 1.43723 -1.7764 0
M  V30 1350 C 126.853 -1.95256 -2.89268 0
M  V30 1351 C 128.201 -2.23289 -3.61147 0
M  V30 1352 O 129.225 -1.93041 -2.99355 0
M  V30 1353 O 128.084 -2.74741 -4.72419 0
M  V30 1354 H 125.178 -0.38464 -0.732107 0
M  V30 1355 H 127.724 -1.36817 -1.00395 0
M  V30 1356 H 126.496 -2.94685 -2.57442 0
M  V30 1357 H 126.119 -1.60218 -3.6389 0
M  V30 1358 N 127.117 1.15442 -1.07289 0
M  V30 1359 C 128.027 2.23786 -0.704057 0
M  V30 1360 C 129.043 1.7166 0.284413 0
M  V30 1361 O 130.219 2.00972 0.131205 0
M  V30 1362 C 127.284 3.46535 -0.106792 0
M  V30 1363 C 126.345 4.13654 -1.14842 0
M  V30 1364 C 125.578 5.30544 -0.57956 0
M  V30 1365 O 125.801 5.67187 0.604585 0
M  V30 1366 O 124.735 5.87154 -1.32414 0
M  V30 1367 H 128.561 2.57664 -1.60757 0
M  V30 1368 H 126.146 1.23152 -0.845803 0
M  V30 1369 H 128.028 4.20804 0.224048 0
M  V30 1370 H 126.703 3.14407 0.770049 0
M  V30 1371 H 125.61 3.4131 -1.5316 0
M  V30 1372 H 126.943 4.49861 -1.99714 0
M  V30 1373 N 128.595 0.856903 1.32268 0
M  V30 1374 C 129.542 0.301172 2.28827 0
M  V30 1375 C 130.512 -0.593104 1.5515 0
M  V30 1376 O 131.697 -0.527537 1.83362 0
M  V30 1377 C 128.837 -0.502523 3.41422 0
M  V30 1378 C 127.95 0.417797 4.29975 0
M  V30 1379 C 127.085 -0.398749 5.29701 0
M  V30 1380 C 126.124 0.518827 6.09897 0
M  V30 1381 N 125.261 -0.260674 7.01616 0
M  V30 1382 H 130.101 1.12983 2.75751 0
M  V30 1383 H 127.638 0.568582 1.35667 0
M  V30 1384 H 129.596 -0.984141 4.05426 0
M  V30 1385 H 128.226 -1.29599 2.95642 0
M  V30 1386 H 127.278 1.01781 3.66531 0
M  V30 1387 H 128.59 1.12191 4.86019 0
M  V30 1388 H 127.744 -0.943435 5.9932 0
M  V30 1389 H 126.483 -1.13622 4.7428 0
M  V30 1390 H 125.488 1.07538 5.39181 0
M  V30 1391 H 126.713 1.25495 6.67404 0
M  V30 1392 H 124.659 -0.981198 6.4862 0
M  V30 1393 H 124.576 0.384364 7.55022 0
M  V30 1394 H 125.844 -0.787014 7.75517 0
M  V30 1395 N 130.073 -1.45103 0.615059 0
M  V30 1396 C 131.322 -2.01396 0.110718 0
M  V30 1397 C 131.635 -1.48834 -1.26916 0
M  V30 1398 O 132.841 -1.97152 -1.86664 0
M  V30 1399 C 131.297 -3.59599 0.14723 0
M  V30 1400 C 130.905 -4.21158 1.52743 0
M  V30 1401 C 132.649 -4.23428 -0.30148 0
M  V30 1402 C 130.556 -5.71535 1.51992 0
M  V30 1403 H 129.486 -0.753061 0.0376241 0
M  V30 1404 H 132.137 -1.66494 0.77149 0
M  V30 1405 H 130.519 -3.91724 -0.580339 0
M  V30 1406 H 131.693 -4.00594 2.2773 0
M  V30 1407 H 130.008 -3.69552 1.91886 0
M  V30 1408 H 132.605 -5.33703 -0.326392 0
M  V30 1409 H 132.948 -3.94629 -1.32565 0
M  V30 1410 H 133.481 -3.96047 0.373065 0
M  V30 1411 H 130.22 -6.05044 2.52193 0
M  V30 1412 H 129.74 -5.94268 0.81274 0
M  V30 1413 H 131.419 -6.34873 1.24681 0
M  V30 1414 N 131.551 -0.354651 -1.53558 0
M  V30 1415 C 132.514 0.484566 -2.24019 0
M  V30 1416 C 133.514 1.01861 -1.24422 0
M  V30 1417 O 134.704 0.906097 -1.4878 0
M  V30 1418 C 131.836 1.67615 -2.96847 0
M  V30 1419 H 133.029 -0.131843 -2.9961 0
M  V30 1420 H 130.582 -0.106165 -1.55939 0
M  V30 1421 H 131.317 2.33095 -2.25471 0
M  V30 1422 H 131.102 1.30029 -3.69912 0
M  V30 1423 H 132.592 2.27114 -3.50441 0
M  V30 1424 N 133.029 1.57378 -0.0835403 0
M  V30 1425 C 134.275 1.95025 0.577664 0
M  V30 1426 C 134.63 0.964049 1.66505 0
M  V30 1427 O 133.923 -0.0118235 1.91596 0
M  V30 1428 C 134.117 3.37063 1.1884 0
M  V30 1429 C 133.946 4.49409 0.16171 0
M  V30 1430 C 132.716 5.04642 -0.257756 0
M  V30 1431 C 134.914 5.10722 -0.605634 0
M  V30 1432 N 132.896 6.00537 -1.27393 0
M  V30 1433 C 134.267 6.02225 -1.47395 0
M  V30 1434 C 136.322 4.93501 -0.660418 0
M  V30 1435 C 135.025 6.78355 -2.39221 0
M  V30 1436 C 137.051 5.70283 -1.56623 0
M  V30 1437 C 136.413 6.61444 -2.4222 0
M  V30 1438 H 132.512 0.760512 0.182058 0
M  V30 1439 H 135.096 1.94013 -0.163419 0
M  V30 1440 H 133.267 3.3879 1.89936 0
M  V30 1441 H 134.999 3.61917 1.81103 0
M  V30 1442 H 131.754 4.73428 0.127702 0
M  V30 1443 H 132.178 6.53184 -1.77987 0
M  V30 1444 H 136.82 4.22798 -0.0128221 0
M  V30 1445 H 134.538 7.48327 -3.05011 0
M  V30 1446 H 138.124 5.58976 -1.61361 0
M  V30 1447 H 137.004 7.1982 -3.11174 0
M  V30 1448 N 134.507 -0.190092 1.56449 0
M  V30 1449 C 135.47 -1.21925 1.9408 0
M  V30 1450 C 136.47 -1.38176 0.822431 0
M  V30 1451 O 137.66 -1.35903 1.08977 0
M  V30 1452 C 134.792 -2.58773 2.21922 0
M  V30 1453 H 135.985 -0.897464 2.86157 0
M  V30 1454 H 133.538 -0.43181 1.50217 0
M  V30 1455 H 134.273 -2.95998 1.32499 0
M  V30 1456 H 134.058 -2.48348 3.03424 0
M  V30 1457 H 135.548 -3.32978 2.52022 0
M  V30 1458 N 135.985 -1.50799 -0.457987 0
M  V30 1459 C 136.915 -1.73553 -1.5621 0
M  V30 1460 C 137.896 -0.584774 -1.59732 0
M  V30 1461 O 139.081 -0.825314 -1.7579 0
M  V30 1462 C 136.211 -1.84169 -2.94447 0
M  V30 1463 C 135.165 -2.99461 -3.0579 0
M  V30 1464 C 134.491 -2.95235 -4.45803 0
M  V30 1465 C 135.791 -4.39766 -2.81786 0
M  V30 1466 H 137.485 -2.66 -1.37421 0
M  V30 1467 H 135.031 -1.28002 -0.659662 0
M  V30 1468 H 136.984 -1.98672 -3.71628 0
M  V30 1469 H 135.708 -0.883545 -3.14422 0
M  V30 1470 H 134.367 -2.8463 -2.31044 0
M  V30 1471 H 134.015 -1.97239 -4.62715 0
M  V30 1472 H 133.715 -3.72642 -4.54326 0
M  V30 1473 H 135.239 -3.11803 -5.24987 0
M  V30 1474 H 136.653 -4.55054 -3.4871 0
M  V30 1475 H 135.05 -5.18722 -3.0174 0
M  V30 1476 H 136.12 -4.51229 -1.7754 0
M  V30 1477 N 137.463 0.71206 -1.40597 0
M  V30 1478 C 138.688 1.50617 -1.42581 0
M  V30 1479 C 139.113 1.88079 -0.0282102 0
M  V30 1480 O 138.471 1.53511 0.964579 0
M  V30 1481 C 138.519 2.7557 -2.3258 0
M  V30 1482 O 137.623 3.72414 -1.77148 0
M  V30 1483 H 136.964 0.453966 -0.484573 0
M  V30 1484 H 139.494 0.876649 -1.84868 0
M  V30 1485 H 139.504 3.2406 -2.47889 0
M  V30 1486 H 138.179 2.47639 -3.34138 0
M  V30 1487 H 136.756 3.31276 -1.71204 0
M  V30 1488 N 138.941 1.26152 0.944643 0
M  V30 1489 C 140.357 1.03189 1.21754 0
M  V30 1490 C 140.557 -0.245112 2.00004 0
M  V30 1491 O 139.613 -0.955176 2.33736 0
M  V30 1492 C 140.926 2.26119 1.98219 0
M  V30 1493 C 142.474 2.30984 2.11224 0
M  V30 1494 C 142.949 3.53597 2.91089 0
M  V30 1495 N 144.44 3.54053 2.98664 0
M  V30 1496 C 145.175 4.45593 3.60881 0
M  V30 1497 N 144.671 5.47416 4.24626 0
M  V30 1498 N 146.464 4.33252 3.58119 0
M  V30 1499 H 138.615 2.08177 0.421437 0
M  V30 1500 H 140.878 0.914723 0.248969 0
M  V30 1501 H 140.584 3.18984 1.48128 0
M  V30 1502 H 140.458 2.3009 2.98895 0
M  V30 1503 H 142.845 1.38635 2.60508 0
M  V30 1504 H 142.926 2.31026 1.09821 0
M  V30 1505 H 142.57 4.46273 2.42493 0
M  V30 1506 H 142.5 3.50802 3.92741 0
M  V30 1507 H 144.991 2.80403 2.53343 0
M  V30 1508 H 145.304 6.13459 4.69987 0
M  V30 1509 H 143.649 5.51278 4.23223 0
M  V30 1510 H 146.84 3.52924 3.0751 0
M  V30 1511 H 147.013 5.04786 4.06319 0
M  V30 1512 N 140.419 -1.14872 1.07899 0
M  V30 1513 C 141.366 -2.19791 0.704319 0
M  V30 1514 C 142.336 -1.63238 -0.306987 0
M  V30 1515 O 143.521 -1.8983 -0.192171 0
M  V30 1516 C 140.661 -3.44911 0.114244 0
M  V30 1517 C 139.774 -4.15637 1.1777 0
M  V30 1518 C 138.909 -5.28324 0.552037 0
M  V30 1519 C 137.948 -5.90875 1.59789 0
M  V30 1520 N 137.085 -6.95022 0.994404 0
M  V30 1521 H 141.925 -2.5119 1.60336 0
M  V30 1522 H 139.462 -1.23356 0.801352 0
M  V30 1523 H 141.42 -4.16477 -0.245544 0
M  V30 1524 H 140.05 -3.14011 -0.74813 0
M  V30 1525 H 139.102 -3.42512 1.65499 0
M  V30 1526 H 140.414 -4.5823 1.97046 0
M  V30 1527 H 139.568 -6.06538 0.1402 0
M  V30 1528 H 138.307 -4.86939 -0.272431 0
M  V30 1529 H 137.312 -5.11369 2.01945 0
M  V30 1530 H 138.537 -6.34337 2.42474 0
M  V30 1531 H 136.483 -6.55722 0.190939 0
M  V30 1532 H 136.4 -7.36073 1.72432 0
M  V30 1533 H 137.668 -7.77123 0.608253 0
M  V30 1534 N 141.898 -0.863906 -1.31812 0
M  V30 1535 C 142.861 -0.320212 -2.26952 0
M  V30 1536 C 143.861 0.525369 -1.51975 0
M  V30 1537 O 145.051 0.335547 -1.70938 0
M  V30 1538 C 142.183 0.545919 -3.365 0
M  V30 1539 H 143.376 -1.16004 -2.76556 0
M  V30 1540 H 140.929 -0.638995 -1.42641 0
M  V30 1541 H 141.664 1.40718 -2.92179 0
M  V30 1542 H 141.449 -0.0594674 -3.92055 0
M  V30 1543 H 142.939 0.918796 -4.07367 0
M  V30 1544 N 143.376 1.44774 -0.622745 0
M  V30 1545 C 144.604 2.06487 -0.130722 0
M  V30 1546 C 145.019 1.46476 1.19123 0
M  V30 1547 O 144.376 0.584502 1.72887 0
M  V30 1548 C 144.427 3.615 -0.000807207 0
M  V30 1549 O 144.148 4.19274 -1.27048 0
M  V30 1550 C 145.649 4.40229 0.520898 0
M  V30 1551 H 142.869 0.666704 -0.0758106 0
M  V30 1552 H 145.413 1.85779 -0.854774 0
M  V30 1553 H 143.568 3.81498 0.673643 0
M  V30 1554 H 143.982 5.12622 -1.1099 0
M  V30 1555 H 145.456 5.49144 0.560838 0
M  V30 1556 H 145.933 4.1108 1.54627 0
M  V30 1557 H 146.539 4.25131 -0.120018 0
M  V30 1558 N 144.854 0.36279 1.53368 0
M  V30 1559 C 145.784 -0.476976 2.28576 0
M  V30 1560 C 146.765 -1.08631 1.30894 0
M  V30 1561 O 147.95 -1.10409 1.59761 0
M  V30 1562 C 145.08 -1.61828 3.07293 0
M  V30 1563 C 144.034 -1.13633 4.1264 0
M  V30 1564 C 143.36 -2.36766 4.79423 0
M  V30 1565 C 144.66 -0.223061 5.21823 0
M  V30 1566 H 146.354 0.150474 2.99022 0
M  V30 1567 H 143.9 0.0738103 1.43811 0
M  V30 1568 H 145.853 -2.21237 3.58653 0
M  V30 1569 H 144.577 -2.27292 2.34533 0
M  V30 1570 H 143.236 -0.564945 3.62221 0
M  V30 1571 H 142.884 -3.0068 4.03238 0
M  V30 1572 H 142.584 -2.05192 5.50609 0
M  V30 1573 H 144.108 -2.96865 5.33576 0
M  V30 1574 H 145.522 -0.724545 5.68703 0
M  V30 1575 H 143.919 0.001678 6.001 0
M  V30 1576 H 144.989 0.735553 4.79289 0
M  V30 1577 N 146.332 -1.57332 0.0918853 0
M  V30 1578 C 147.242 -2.17368 -0.882505 0
M  V30 1579 C 148.258 -1.14226 -1.31257 0
M  V30 1580 O 149.434 -1.46582 -1.38115 0
M  V30 1581 C 146.499 -2.73962 -2.12476 0
M  V30 1582 C 145.56 -3.92048 -1.7492 0
M  V30 1583 C 144.793 -4.45933 -2.93223 0
M  V30 1584 O 145.016 -3.98764 -4.07852 0
M  V30 1585 O 143.95 -5.36999 -2.71875 0
M  V30 1586 H 147.776 -3.01031 -0.40172 0
M  V30 1587 H 145.361 -1.48813 -0.132291 0
M  V30 1588 H 147.243 -3.10147 -2.85283 0
M  V30 1589 H 145.918 -1.93347 -2.59613 0
M  V30 1590 H 144.825 -3.6068 -0.993025 0
M  V30 1591 H 146.158 -4.74017 -1.32548 0
M  V30 1592 N 147.81 0.181792 -1.56548 0
M  V30 1593 C 148.74 1.22765 -1.98623 0
M  V30 1594 C 149.721 1.46747 -0.860189 0
M  V30 1595 O 150.906 1.58259 -1.12551 0
M  V30 1596 C 148.036 2.56894 -2.33715 0
M  V30 1597 C 146.99 2.475 -3.49182 0
M  V30 1598 C 146.316 3.86023 -3.69986 0
M  V30 1599 C 147.616 1.98866 -4.82959 0
M  V30 1600 H 149.31 0.877942 -2.86239 0
M  V30 1601 H 146.856 0.42088 -1.37712 0
M  V30 1602 H 148.809 3.30253 -2.61746 0
M  V30 1603 H 147.533 2.93632 -1.42997 0
M  V30 1604 H 146.192 1.76596 -3.21262 0
M  V30 1605 H 145.84 4.20136 -2.76576 0
M  V30 1606 H 145.54 3.80609 -4.47672 0
M  V30 1607 H 147.064 4.60984 -4.00407 0
M  V30 1608 H 148.478 2.61992 -5.09934 0
M  V30 1609 H 146.875 2.04424 -5.64208 0
M  V30 1610 H 147.945 0.942465 -4.75653 0
M  V30 1611 N 149.288 1.51039 0.449983 0
M  V30 1612 C 150.516 1.66869 1.2232 0
M  V30 1613 C 150.931 0.360727 1.85322 0
M  V30 1614 O 150.288 -0.659531 1.70166 0
M  V30 1615 C 150.339 2.77524 2.31652 0
M  V30 1616 O 150.06 4.03252 1.7123 0
M  V30 1617 C 151.561 3.04512 3.2216 0
M  V30 1618 H 148.781 0.560326 0.369155 0
M  V30 1619 H 151.325 1.97385 0.534719 0
M  V30 1620 H 149.48 2.49642 2.96239 0
M  V30 1621 H 149.894 4.64609 2.43389 0
M  V30 1622 H 151.368 3.85551 3.95038 0
M  V30 1623 H 151.845 2.16415 3.8218 0
M  V30 1624 H 152.451 3.34005 2.63288 0
M  V30 1625 N 150.766 -0.704594 1.40972 0
M  V30 1626 C 151.716 -1.81051 1.38581 0
M  V30 1627 C 152.7 -1.58759 0.261585 0
M  V30 1628 O 153.892 -1.69745 0.501556 0
M  V30 1629 C 151.021 -3.19279 1.26157 0
M  V30 1630 C 150.107 -3.47296 2.43405 0
M  V30 1631 N 150.498 -3.46064 3.68881 0
M  V30 1632 C 148.796 -3.77804 2.37023 0
M  V30 1633 C 149.497 -3.72733 4.46592 0
M  V30 1634 N 148.473 -3.9203 3.76581 0
M  V30 1635 H 152.275 -1.78448 2.33525 0
M  V30 1636 H 149.789 -0.904198 1.349 0
M  V30 1637 H 151.786 -3.98488 1.22526 0
M  V30 1638 H 150.446 -3.231 0.321902 0
M  V30 1639 H 151.457 -3.26656 4.01891 0
M  V30 1640 H 148.134 -3.8905 1.51481 0
M  V30 1641 H 149.524 -3.77993 5.55492 0
M  V30 1642 N 152.244 -1.26651 -0.937939 0
M  V30 1643 C 153.192 -1.08308 -2.05845 0
M  V30 1644 C 154.186 -0.0090757 -1.69398 0
M  V30 1645 O 155.392 -0.166007 -1.79233 0
M  V30 1646 H 151.767 -0.333416 -0.674046 0
M  V30 1647 H 153.738 -2.03261 -2.18467 0
M  V30 1648 C 152.487 -0.736229 -3.39816 0
M  V30 1649 H 151.81 -1.55453 -3.6834 0
M  V30 1650 H 153.25 -0.64769 -4.19024 0
M  V30 1651 C 151.709 0.558824 -3.32233 0
M  V30 1652 O 152.239 1.59621 -3.68624 0
M  V30 1653 N 150.445 0.550657 -2.85335 0
M  V30 1654 H 149.992 -0.293943 -2.55917 0
M  V30 1655 H 149.95 1.41726 -2.80644 0
M  V30 1656 N 153.722 1.14298 -1.08507 0
M  V30 1657 C 154.968 1.85854 -0.826438 0
M  V30 1658 C 155.323 1.81413 0.640878 0
M  V30 1659 O 154.616 1.23463 1.46518 0
M  V30 1660 C 154.81 3.33547 -1.28379 0
M  V30 1661 C 154.639 3.52369 -2.79403 0
M  V30 1662 C 153.409 3.67159 -3.47164 0
M  V30 1663 C 155.607 3.49203 -3.77573 0
M  V30 1664 N 153.589 3.74149 -4.86709 0
M  V30 1665 C 154.96 3.6245 -5.03021 0
M  V30 1666 C 157.015 3.32547 -3.70563 0
M  V30 1667 C 155.718 3.60761 -6.2229 0
M  V30 1668 C 157.744 3.32162 -4.89308 0
M  V30 1669 C 157.106 3.45949 -6.13595 0
M  V30 1670 H 153.205 0.696705 -0.355143 0
M  V30 1671 H 155.789 1.36981 -1.38362 0
M  V30 1672 H 153.96 3.81008 -0.754166 0
M  V30 1673 H 155.692 3.92867 -0.971469 0
M  V30 1674 H 152.447 3.68433 -2.9758 0
M  V30 1675 H 152.871 3.81359 -5.5937 0
M  V30 1676 H 157.513 3.20797 -2.75407 0
M  V30 1677 H 155.231 3.71286 -7.17755 0
M  V30 1678 H 158.817 3.20485 -4.85573 0
M  V30 1679 H 157.697 3.456 -7.03939 0
M  V30 1680 N 155.201 0.870884 1.31352 0
M  V30 1681 C 156.449 0.48132 1.96285 0
M  V30 1682 C 156.77 -0.969813 1.69173 0
M  V30 1683 O 156.04 -1.67998 1.00764 0
M  V30 1684 H 154.62 0.175002 0.726212 0
M  V30 1685 H 157.282 1.11087 1.60143 0
M  V30 1686 H 156.378 0.639825 3.05471 0
M  V30 1687 N 156.679 -1.44442 0.630414 0
M  V30 1688 C 157.907 -2.06414 0.141671 0
M  V30 1689 C 158.322 -1.47105 -1.18345 0
M  V30 1690 O 157.679 -0.593662 -1.72574 0
M  V30 1691 C 157.73 -3.61494 0.0199784 0
M  V30 1692 O 157.451 -4.18594 1.29269 0
M  V30 1693 C 158.952 -4.40499 -0.497544 0
M  V30 1694 H 156.172 -0.666292 0.0793452 0
M  V30 1695 H 158.716 -1.85323 0.864614 0
M  V30 1696 H 156.871 -3.8185 -0.653402 0
M  V30 1697 H 157.285 -5.12026 1.13707 0
M  V30 1698 H 158.759 -5.49433 -0.531708 0
M  V30 1699 H 159.236 -4.11895 -1.52445 0
M  V30 1700 H 159.842 -4.25061 0.142562 0
M  V30 1701 N 158.157 -0.370918 -1.53173 0
M  V30 1702 C 159.067 0.480823 -2.2962 0
M  V30 1703 C 160.083 1.08789 -1.35798 0
M  V30 1704 O 161.259 1.09768 -1.68858 0
M  V30 1705 C 158.324 1.60227 -3.07454 0
M  V30 1706 C 157.385 1.0222 -4.16953 0
M  V30 1707 C 156.618 2.0902 -4.91066 0
M  V30 1708 O 156.841 3.30222 -4.65091 0
M  V30 1709 O 155.775 1.71778 -5.76867 0
M  V30 1710 H 159.601 -0.141421 -3.03371 0
M  V30 1711 H 157.186 -0.135146 -1.48787 0
M  V30 1712 H 159.068 2.25417 -3.56041 0
M  V30 1713 H 157.743 2.20982 -2.36535 0
M  V30 1714 H 156.65 0.334064 -3.72605 0
M  V30 1715 H 157.983 0.459131 -4.90054 0
M  V30 1716 N 159.635 1.57281 -0.100228 0
M  V30 1717 C 160.912 1.86014 0.604812 0
M  V30 1718 C 161.292 0.998025 1.86018 0
M  V30 1719 O 160.64 0.0718184 2.28387 0
M  V30 1720 C 160.85 3.36784 0.915278 0
M  V30 1721 C 162.198 4.04957 1.27651 0
M  V30 1722 O 163.222 3.41695 1.00613 0
M  V30 1723 O 162.081 5.16593 1.7831 0
M  V30 1724 H 159.175 0.76942 0.303185 0
M  V30 1725 H 161.721 1.69176 -0.133313 0
M  V30 1726 H 160.493 3.91292 0.0248896 0
M  V30 1727 H 160.116 3.58987 1.70921 0
M  V30 1728 N 161.113 -0.173488 1.56642 0
M  V30 1729 C 162.39 -0.917617 1.7274 0
M  V30 1730 C 162.77 -2.00484 0.661027 0
M  V30 1731 O 162.118 -2.26184 -0.32453 0
M  V30 1732 C 162.328 -1.48433 3.15862 0
M  V30 1733 C 163.676 -1.95809 3.76754 0
M  V30 1734 O 164.7 -1.58231 3.19126 0
M  V30 1735 O 163.559 -2.65024 4.77938 0
M  V30 1736 H 160.653 -0.431772 0.705338 0
M  V30 1737 H 163.199 -0.161487 1.6893 0
M  V30 1738 H 161.971 -0.701715 3.84957 0
M  V30 1739 H 161.594 -2.30471 3.23989 0
M  V30 1740 N 162.591 -1.51276 -0.441967 0
M  V30 1741 C 163.501 -1.75092 -1.56141 0
M  V30 1742 C 164.517 -0.634963 -1.62001 0
M  V30 1743 O 165.693 -0.916686 -1.79329 0
M  V30 1744 C 162.758 -1.86666 -2.92158 0
M  V30 1745 C 161.819 -3.10506 -2.96453 0
M  V30 1746 C 161.052 -3.21519 -4.25982 0
M  V30 1747 O 161.275 -2.38586 -5.18105 0
M  V30 1748 O 160.209 -4.14465 -4.36466 0
M  V30 1749 H 164.035 -2.70044 -1.38961 0
M  V30 1750 H 161.62 -1.35722 -0.624499 0
M  V30 1751 H 163.502 -1.96292 -3.72891 0
M  V30 1752 H 162.177 -0.949014 -3.09476 0
M  V30 1753 H 161.084 -3.06363 -2.14692 0
M  V30 1754 H 162.417 -4.01945 -2.84079 0
M  V30 1755 N 164.069 0.697108 -1.41344 0
M  V30 1756 C 165.297 1.48593 -1.43972 0
M  V30 1757 C 165.712 1.88747 -0.0445612 0
M  V30 1758 O 165.069 1.56682 0.935785 0
M  V30 1759 C 165.12 2.74946 -2.34706 0
M  V30 1760 O 164.841 2.36484 -3.68791 0
M  V30 1761 C 166.342 3.687 -2.46121 0
M  V30 1762 H 163.562 0.457964 -0.490418 0
M  V30 1763 H 166.106 0.858429 -1.8561 0
M  V30 1764 H 164.261 3.33937 -1.9638 0
M  V30 1765 H 164.675 3.17918 -4.17167 0
M  V30 1766 H 166.149 4.54145 -3.13777 0
M  V30 1767 H 166.626 4.13081 -1.49199 0
M  V30 1768 H 167.232 3.15613 -2.85076 0
M  V30 1769 N 165.547 1.27147 0.931209 0
M  V30 1770 C 166.479 1.05364 2.03546 0
M  V30 1771 C 167.492 0.0108438 1.62796 0
M  V30 1772 O 168.681 0.25202 1.76712 0
M  V30 1773 C 165.781 0.575566 3.33977 0
M  V30 1774 C 164.954 1.68985 4.03439 0
M  V30 1775 C 164.013 1.20813 5.12143 0
M  V30 1776 O 163.039 1.90712 5.363 0
M  V30 1777 N 164.241 0.0618851 5.80467 0
M  V30 1778 H 167.006 2.00454 2.22796 0
M  V30 1779 H 164.567 1.18666 1.10136 0
M  V30 1780 H 166.559 0.237264 4.04004 0
M  V30 1781 H 165.129 -0.282016 3.11325 0
M  V30 1782 H 164.349 2.19861 3.27192 0
M  V30 1783 H 165.637 2.4378 4.46597 0
M  V30 1784 H 165.035 -0.521621 5.6329 0
M  V30 1785 H 163.592 -0.217264 6.51438 0
M  V30 1786 N 167.025 -1.13721 1.09112 0
M  V30 1787 C 168.25 -1.89314 0.847053 0
M  V30 1788 C 168.675 -1.78416 -0.595774 0
M  V30 1789 O 168.033 -1.12942 -1.41823 0
M  V30 1790 C 168.081 -3.3701 1.28284 0
M  V30 1791 O 167.185 -4.10054 0.439267 0
M  V30 1792 H 166.526 -0.588745 0.307044 0
M  V30 1793 H 169.056 -1.43902 1.45442 0
M  V30 1794 H 169.066 -3.87834 1.26683 0
M  V30 1795 H 167.741 -3.4426 2.33363 0
M  V30 1796 H 166.318 -3.69266 0.519312 0
M  V30 1797 N 168.503 -0.877838 -1.30888 0
M  V30 1798 C 169.733 -0.506678 -2.00291 0
M  V30 1799 C 170.141 0.907449 -1.66018 0
M  V30 1800 O 169.484 1.60719 -0.88967 0
M  V30 1801 C 169.546 -0.59323 -3.54572 0
M  V30 1802 C 169.21 -1.97038 -4.12341 0
M  V30 1803 C 170.207 -2.93889 -4.28865 0
M  V30 1804 C 167.892 -2.27383 -4.47886 0
M  V30 1805 C 169.886 -4.19224 -4.80136 0
M  V30 1806 C 167.573 -3.52965 -4.98857 0
M  V30 1807 C 168.571 -4.48701 -5.14934 0
M  V30 1808 O 168.259 -5.72056 -5.64808 0
M  V30 1809 H 167.991 -0.1951 -0.647234 0
M  V30 1810 H 170.545 -1.18301 -1.6791 0
M  V30 1811 H 168.775 0.140057 -3.86446 0
M  V30 1812 H 170.464 -0.234372 -4.05223 0
M  V30 1813 H 171.23 -2.71756 -4.01714 0
M  V30 1814 H 167.109 -1.53639 -4.34645 0
M  V30 1815 H 170.653 -4.93956 -4.92599 0
M  V30 1816 H 166.55 -3.74939 -5.25443 0
M  V30 1817 H 167.318 -5.74337 -5.83163 0
M  V30 1818 N 169.982 1.44106 -0.638065 0
M  V30 1819 C 170.932 2.27843 0.0847285 0
M  V30 1820 C 171.916 1.39055 0.809471 0
M  V30 1821 O 173.108 1.62808 0.694435 0
M  V30 1822 C 170.237 3.26497 1.06089 0
M  V30 1823 C 169.323 4.22772 0.33541 0
M  V30 1824 N 169.714 5.01737 -0.639787 0
M  V30 1825 C 168.012 4.42227 0.578921 0
M  V30 1826 C 168.713 5.71792 -1.06904 0
M  V30 1827 N 167.689 5.42079 -0.406395 0
M  V30 1828 H 171.491 2.86305 -0.663814 0
M  V30 1829 H 169.005 1.55627 -0.464122 0
M  V30 1830 H 171.002 3.8525 1.59337 0
M  V30 1831 H 169.662 2.69595 1.80966 0
M  V30 1832 H 170.673 5.07799 -1.01789 0
M  V30 1833 H 167.35 3.96415 1.31003 0
M  V30 1834 H 168.74 6.45205 -1.8751 0
M  V30 1835 N 171.46 0.379036 1.52974 0
M  V30 1836 C 172.408 -0.476033 2.27677 0
M  V30 1837 C 173.402 -1.0719 1.31174 0
M  V30 1838 O 174.608 -1.01355 1.48752 0
M  V30 1839 H 170.983 -0.172255 0.732006 0
M  V30 1840 H 172.954 0.175615 2.97883 0
M  V30 1841 C 171.703 -1.5967 3.0887 0
M  V30 1842 H 171.026 -1.1475 3.82978 0
M  V30 1843 H 172.466 -2.16943 3.64296 0
M  V30 1844 C 170.925 -2.54682 2.20542 0
M  V30 1845 O 171.455 -3.57836 1.82527 0
M  V30 1846 N 169.661 -2.24183 1.84907 0
M  V30 1847 H 169.208 -1.40333 2.1602 0
M  V30 1848 H 169.166 -2.88006 1.26096 0
M  V30 1849 N 172.938 -1.57226 0.108567 0
M  V30 1850 C 174.186 -1.94448 -0.550853 0
M  V30 1851 C 174.507 -0.992074 -1.67878 0
M  V30 1852 O 173.777 -0.0465 -1.95845 0
M  V30 1853 H 172.357 -0.717897 -0.206479 0
M  V30 1854 H 175.019 -1.94112 0.175062 0
M  V30 1855 H 174.115 -2.97218 -0.952259 0
M  V30 1856 N 174.416 0.165178 -1.56732 0
M  V30 1857 C 175.364 1.22369 -1.97809 0
M  V30 1858 C 176.358 1.45488 -0.867741 0
M  V30 1859 O 177.564 1.45995 -1.05288 0
M  V30 1860 H 173.939 0.411486 -0.629431 0
M  V30 1861 H 175.91 0.850425 -2.86025 0
M  V30 1862 C 174.659 2.55403 -2.35934 0
M  V30 1863 H 173.982 2.38438 -3.20916 0
M  V30 1864 H 175.422 3.2814 -2.68514 0
M  V30 1865 C 173.881 3.14611 -1.20506 0
M  V30 1866 O 174.411 3.98626 -0.496016 0
M  V30 1867 N 172.617 2.7379 -0.97403 0
M  V30 1868 H 172.164 2.0557 -1.55238 0
M  V30 1869 H 172.122 3.1374 -0.203573 0
M  V30 1870 N 175.894 1.51508 0.433938 0
M  V30 1871 C 177.119 1.68443 1.21003 0
M  V30 1872 C 177.544 0.382636 1.84167 0
M  V30 1873 O 176.902 -0.65755 1.68956 0
M  V30 1874 C 176.95 2.80405 2.26727 0
M  V30 1875 O 176.054 2.44245 3.32292 0
M  V30 1876 H 175.395 0.561536 0.354363 0
M  V30 1877 H 177.925 1.9809 0.512024 0
M  V30 1878 H 177.935 3.0459 2.71457 0
M  V30 1879 H 176.61 3.74867 1.80132 0
M  V30 1880 H 175.187 2.30644 2.93015 0
M  V30 1881 N 177.372 -0.689602 1.41712 0
M  V30 1882 C 178.649 -1.44457 1.31877 0
M  V30 1883 C 179.029 -2.11039 -0.0508537 0
M  V30 1884 O 178.377 -2.02138 -1.06547 0
M  V30 1885 C 178.587 -2.45913 2.47645 0
M  V30 1886 C 179.935 -3.10991 2.89084 0
M  V30 1887 O 180.959 -2.56238 2.47428 0
M  V30 1888 O 179.818 -4.10174 3.61137 0
M  V30 1889 H 176.912 -0.64362 0.519309 0
M  V30 1890 H 179.458 -0.719576 1.53689 0
M  V30 1891 H 178.23 -1.95409 3.39015 0
M  V30 1892 H 177.853 -3.25913 2.27742 0
M  V30 1893 N 178.85 -1.27639 -0.924453 0
M  V30 1894 C 180.261 -1.12834 -1.48746 0
M  V30 1895 C 180.612 0.285505 -1.94112 0
M  V30 1896 O 179.737 1.17874 -1.81479 0
M  V30 1897 C 180.332 -2.04217 -2.70334 0
M  V30 1898 C 178.891 -1.93509 -3.22848 0
M  V30 1899 C 178.038 -1.96583 -1.95577 0
M  V30 1900 H 180.989 -1.40484 -0.738233 0
M  V30 1901 H 181.01 -1.59989 -3.4523 0
M  V30 1902 H 180.522 -3.07111 -2.37285 0
M  V30 1903 H 178.623 -0.936131 -3.60649 0
M  V30 1904 H 178.736 -2.79917 -3.88823 0
M  V30 1905 H 177.1 -1.4085 -2.12211 0
M  V30 1906 H 177.883 -3.01137 -1.64837 0
M  V30 1907 N 180.328 1.1314 -1.09713 0
M  V30 1908 C 181.744 1.36477 -0.827423 0
M  V30 1909 C 181.944 1.93654 0.556817 0
M  V30 1910 O 181 2.15791 1.31112 0
M  V30 1911 C 182.313 2.31334 -1.92106 0
M  V30 1912 C 183.861 2.44943 -1.94864 0
M  V30 1913 C 184.336 3.4311 -3.0338 0
M  V30 1914 N 185.827 3.50662 -3.02639 0
M  V30 1915 C 186.562 4.2651 -3.83246 0
M  V30 1916 N 186.058 5.05485 -4.73768 0
M  V30 1917 N 187.851 4.2184 -3.71493 0
M  V30 1918 H 180.002 0.743807 -1.9895 0
M  V30 1919 H 182.265 0.389823 -0.864143 0
M  V30 1920 H 181.971 1.96483 -2.91698 0
M  V30 1921 H 181.845 3.31381 -1.80184 0
M  V30 1922 H 184.232 2.79079 -0.959099 0
M  V30 1923 H 184.313 1.4481 -2.10864 0
M  V30 1924 H 183.957 3.09704 -4.02549 0
M  V30 1925 H 183.887 4.43055 -2.84622 0
M  V30 1926 H 186.378 2.94315 -2.37039 0
M  V30 1927 H 186.691 5.60675 -5.3185 0
M  V30 1928 H 185.036 5.04708 -4.77802 0
M  V30 1929 H 188.227 3.5922 -3.00131 0
M  V30 1930 H 188.4 4.80697 -4.3455 0
M  V30 1931 N 181.806 0.884767 1.30421 0
M  V30 1932 C 183.054 0.502112 1.95763 0
M  V30 1933 C 183.375 -0.951815 1.70192 0
M  V30 1934 O 182.645 -1.6692 1.0254 0
M  V30 1935 H 181.225 0.182694 0.724315 0
M  V30 1936 H 183.887 1.1278 1.58955 0
M  V30 1937 H 182.983 0.672188 3.04775 0
M  V30 1938 N 183.284 -1.43765 0.645699 0
M  V30 1939 C 184.531 -2.01898 0.15604 0
M  V30 1940 C 184.859 -1.50887 -1.22733 0
M  V30 1941 O 184.114 -0.689271 -1.8316 0
M  V30 1942 C 184.413 -3.57238 0.107679 0
M  V30 1943 C 184.079 -4.27564 1.43178 0
M  V30 1944 C 182.741 -4.46492 1.7944 0
M  V30 1945 C 185.093 -4.67454 2.30513 0
M  V30 1946 C 182.421 -5.02573 3.02716 0
M  V30 1947 C 184.773 -5.24901 3.53074 0
M  V30 1948 C 183.437 -5.42046 3.89541 0
M  V30 1949 H 182.707 -0.738797 0.057099 0
M  V30 1950 H 185.354 -1.72341 0.834912 0
M  V30 1951 H 183.659 -3.86293 -0.654618 0
M  V30 1952 H 185.356 -3.99965 -0.287938 0
M  V30 1953 H 181.946 -4.13171 1.13963 0
M  V30 1954 H 186.13 -4.5253 2.0379 0
M  V30 1955 H 181.386 -5.14033 3.31028 0
M  V30 1956 H 185.56 -5.54758 4.20971 0
M  V30 1957 H 183.187 -5.85268 4.85145 0
M  V30 1958 N 184.763 -0.387143 -1.52771 0
M  V30 1959 C 186.011 0.195349 -2.01154 0
M  V30 1960 C 186.332 1.475 -1.27549 0
M  V30 1961 O 185.602 1.91878 -0.394924 0
M  V30 1962 H 184.182 0.075178 -0.743207 0
M  V30 1963 H 186.844 -0.518337 -1.87881 0
M  V30 1964 H 185.94 0.407096 -3.09434 0
M  V30 1965 N 186.241 1.57166 -0.116904 0
M  V30 1966 C 187.191 2.11756 0.845178 0
M  V30 1967 C 188.175 1.03783 1.22955 0
M  V30 1968 O 189.367 1.3002 1.20099 0
M  V30 1969 C 186.496 2.71886 2.09602 0
M  V30 1970 C 185.582 3.86937 1.7361 0
M  V30 1971 N 185.973 4.94073 1.08284 0
M  V30 1972 C 184.271 3.97082 2.03082 0
M  V30 1973 C 184.972 5.74477 0.913855 0
M  V30 1974 N 183.948 5.2423 1.43818 0
M  V30 1975 H 187.75 2.91967 0.336523 0
M  V30 1976 H 185.264 1.62174 0.0856332 0
M  V30 1977 H 187.261 3.09338 2.79492 0
M  V30 1978 H 185.921 1.93138 2.61013 0
M  V30 1979 H 186.932 5.12483 0.747067 0
M  V30 1980 H 183.609 3.29372 2.56554 0
M  V30 1981 H 184.999 6.70701 0.40125 0
M  V30 1982 N 187.719 -0.156864 1.56817 0
M  V30 1983 C 188.968 -0.869504 1.81996 0
M  V30 1984 C 189.281 -1.82777 0.696545 0
M  V30 1985 O 190.487 -2.58384 0.833658 0
M  V30 1986 C 188.943 -1.59679 3.22538 0
M  V30 1987 C 188.551 -0.681431 4.42787 0
M  V30 1988 C 190.295 -2.2968 3.56997 0
M  V30 1989 C 188.202 -1.40978 5.74351 0
M  V30 1990 H 187.132 -0.328438 0.678708 0
M  V30 1991 H 189.783 -0.1223 1.83092 0
M  V30 1992 H 188.165 -2.38927 3.158 0
M  V30 1993 H 189.339 0.0751166 4.60739 0
M  V30 1994 H 187.654 -0.0903431 4.16302 0
M  V30 1995 H 190.251 -2.84794 4.52544 0
M  V30 1996 H 190.594 -3.05707 2.82576 0
M  V30 1997 H 191.127 -1.57361 3.65352 0
M  V30 1998 H 187.866 -0.691561 6.51842 0
M  V30 1999 H 187.386 -2.13929 5.60352 0
M  V30 2000 H 189.065 -1.95337 6.16808 0
M  V30 2001 N 189.197 -1.51736 -0.425897 0
M  V30 2002 C 190.445 -1.64644 -1.17204 0
M  V30 2003 C 190.766 -0.370486 -1.91448 0
M  V30 2004 O 190.036 0.614088 -1.86026 0
M  V30 2005 H 188.616 -0.606819 -0.435638 0
M  V30 2006 H 191.278 -1.88713 -0.487177 0
M  V30 2007 H 190.374 -2.47958 -1.89534 0
M  V30 2008 N 190.675 0.682077 -1.42076 0
M  V30 2009 C 191.924 1.43786 -1.41451 0
M  V30 2010 C 192.237 1.95574 -0.0317074 0
M  V30 2011 O 193.443 2.71326 0.0971462 0
M  V30 2012 C 191.899 2.60071 -2.48779 0
M  V30 2013 C 191.507 2.15013 -3.93031 0
M  V30 2014 C 193.251 3.37626 -2.57311 0
M  V30 2015 C 191.158 3.28336 -4.91883 0
M  V30 2016 H 190.088 0.540143 -0.526082 0
M  V30 2017 H 192.739 0.739157 -1.67955 0
M  V30 2018 H 191.121 3.32275 -2.15429 0
M  V30 2019 H 192.295 1.5001 -4.35699 0
M  V30 2020 H 190.61 1.50416 -3.88284 0
M  V30 2021 H 193.207 4.22012 -3.28345 0
M  V30 2022 H 193.55 3.83727 -1.61429 0
M  V30 2023 H 194.083 2.72488 -2.89819 0
M  V30 2024 H 190.822 2.87234 -5.89217 0
M  V30 2025 H 190.342 3.92145 -4.53853 0
M  V30 2026 H 192.021 3.93913 -5.13265 0
M  V30 2027 N 192.153 1.28127 0.917671 0
M  V30 2028 C 193.116 1.11744 2.00115 0
M  V30 2029 C 194.116 0.0583052 1.60694 0
M  V30 2030 O 195.306 0.303755 1.71531 0
M  V30 2031 C 192.438 0.704862 3.33533 0
M  V30 2032 H 193.631 2.07966 2.16079 0
M  V30 2033 H 191.184 1.11058 1.09981 0
M  V30 2034 H 191.919 -0.258299 3.2327 0
M  V30 2035 H 191.704 1.4699 3.63505 0
M  V30 2036 H 193.194 0.612768 4.1308 0
M  V30 2037 N 193.631 -1.12557 1.10312 0
M  V30 2038 C 194.877 -1.84311 0.846011 0
M  V30 2039 C 195.21 -1.83805 -0.626859 0
M  V30 2040 O 194.485 -1.28268 -1.46211 0
M  V30 2041 C 194.768 -3.32048 1.39341 0
M  V30 2042 C 194.621 -3.41016 2.93305 0
M  V30 2043 C 195.94 -4.27764 1.03468 0
M  V30 2044 H 193.059 -0.669192 0.30879 0
M  V30 2045 H 195.701 -1.32057 1.36605 0
M  V30 2046 H 193.851 -3.76678 0.951087 0
M  V30 2047 H 195.523 -3.05031 3.46055 0
M  V30 2048 H 193.766 -2.81603 3.29973 0
M  V30 2049 H 194.437 -4.44948 3.26689 0
M  V30 2050 H 196.913 -3.91253 1.41633 0
M  V30 2051 H 195.789 -5.29549 1.44463 0
M  V30 2052 H 196.05 -4.42064 -0.0560404 0
M  V30 2053 N 195.109 -0.891671 -1.2995 0
M  V30 2054 C 196.52 -0.563104 -1.78006 0
M  V30 2055 C 196.871 0.920978 -1.73241 0
M  V30 2056 O 195.996 1.71987 -1.31337 0
M  V30 2057 C 196.591 -1.01539 -3.23226 0
M  V30 2058 C 195.15 -0.738124 -3.69092 0
M  V30 2059 C 194.297 -1.19461 -2.50249 0
M  V30 2060 H 197.248 -1.07522 -1.16725 0
M  V30 2061 H 197.269 -0.347217 -3.78912 0
M  V30 2062 H 196.781 -2.09555 -3.26662 0
M  V30 2063 H 194.882 0.329766 -3.71138 0
M  V30 2064 H 194.995 -1.33037 -4.60259 0
M  V30 2065 H 193.359 -0.613787 -2.47194 0
M  V30 2066 H 194.142 -2.28265 -2.56417 0
M  V30 2067 N 196.587 1.43421 -0.653314 0
M  V30 2068 C 197.864 1.95361 -0.0966581 0
M  V30 2069 C 198.244 1.59461 1.38331 0
M  V30 2070 O 197.592 0.879777 2.10884 0
M  V30 2071 C 197.802 3.47311 -0.342988 0
M  V30 2072 C 199.15 4.23875 -0.24798 0
M  V30 2073 O 200.174 3.55133 -0.275553 0
M  V30 2074 O 199.033 5.4623 -0.171771 0
M  V30 2075 H 196.127 0.826945 0.00956291 0
M  V30 2076 H 198.673 1.5336 -0.726558 0
M  V30 2077 H 197.445 3.66569 -1.36906 0
M  V30 2078 H 197.068 3.9631 0.319975 0
M  V30 2079 N 198.065 0.39524 1.52563 0
M  V30 2080 C 199.311 -0.185318 2.01952 0
M  V30 2081 C 199.644 -1.45964 1.28095 0
M  V30 2082 O 198.919 -1.90689 0.38315 0
M  V30 2083 C 199.202 -0.447193 3.57312 0
M  V30 2084 C 199.055 0.842828 4.41833 0
M  V30 2085 C 200.374 -1.23529 4.22408 0
M  V30 2086 H 197.493 -0.0658788 0.73405 0
M  V30 2087 H 200.135 0.525975 1.82575 0
M  V30 2088 H 198.285 -1.05312 3.73954 0
M  V30 2089 H 199.957 1.4795 4.36931 0
M  V30 2090 H 198.2 1.45686 4.08605 0
M  V30 2091 H 198.871 0.614165 5.48573 0
M  V30 2092 H 201.347 -0.722445 4.0978 0
M  V30 2093 H 200.223 -1.38727 5.3108 0
M  V30 2094 H 200.484 -2.25213 3.80436 0
M  V30 2095 N 199.544 -1.57102 0.125237 0
M  V30 2096 C 200.774 -1.99472 -0.538015 0
M  V30 2097 C 201.182 -1.00395 -1.60366 0
M  V30 2098 O 200.525 0.0103875 -1.83697 0
M  V30 2099 C 200.587 -3.38262 -1.21734 0
M  V30 2100 C 200.251 -4.56021 -0.298897 0
M  V30 2101 C 201.248 -5.17817 0.464943 0
M  V30 2102 C 198.933 -5.01869 -0.208149 0
M  V30 2103 C 200.927 -6.23852 1.3072 0
M  V30 2104 C 198.614 -6.07763 0.637736 0
M  V30 2105 C 199.612 -6.68622 1.39403 0
M  V30 2106 O 199.3 -7.7247 2.22586 0
M  V30 2107 H 199.032 -0.659934 -0.146501 0
M  V30 2108 H 201.586 -2.04321 0.210267 0
M  V30 2109 H 199.816 -3.30185 -2.01282 0
M  V30 2110 H 201.505 -3.6488 -1.77813 0
M  V30 2111 H 202.271 -4.83308 0.404741 0
M  V30 2112 H 198.15 -4.54241 -0.786522 0
M  V30 2113 H 201.694 -6.71284 1.898 0
M  V30 2114 H 197.591 -6.41701 0.699309 0
M  V30 2115 H 198.359 -7.89595 2.15596 0
M  V30 2116 N 201.022 0.148545 -1.56898 0
M  V30 2117 C 202.247 0.880385 -1.87787 0
M  V30 2118 C 202.672 1.74018 -0.714093 0
M  V30 2119 O 202.03 1.78153 0.336343 0
M  V30 2120 C 202.078 1.71422 -3.17249 0
M  V30 2121 O 201.182 2.8183 -3.01074 0
M  V30 2122 H 200.523 0.245301 -0.617028 0
M  V30 2123 H 203.053 0.139826 -2.04122 0
M  V30 2124 H 203.063 2.10954 -3.49231 0
M  V30 2125 H 201.738 1.08284 -4.01556 0
M  V30 2126 H 200.315 2.45715 -2.80497 0
M  V30 2127 N 202.5 1.5196 0.417844 0
M  V30 2128 C 203.463 1.74065 1.49111 0
M  V30 2129 C 204.463 0.610537 1.48758 0
M  V30 2130 O 205.653 0.87832 1.50437 0
M  V30 2131 C 202.785 1.81502 2.88565 0
M  V30 2132 H 203.978 2.69869 1.30807 0
M  V30 2133 H 201.531 1.42244 0.647785 0
M  V30 2134 H 202.266 0.875813 3.1225 0
M  V30 2135 H 202.051 2.63651 2.90225 0
M  V30 2136 H 203.541 2.00376 3.66387 0
M  V30 2137 N 203.978 -0.674533 1.42435 0
M  V30 2138 C 205.218 -1.4466 1.44405 0
M  V30 2139 C 205.582 -1.91911 0.0585784 0
M  V30 2140 O 206.783 -2.68759 -0.0469991 0
M  V30 2141 C 205.054 -2.61136 2.44013 0
M  V30 2142 S 206.613 -3.49981 2.64687 0
M  V30 2143 H 203.431 -0.494074 0.511284 0
M  V30 2144 H 206.033 -0.785162 1.7904 0
M  V30 2145 H 204.737 -2.24662 3.43446 0
M  V30 2146 H 204.268 -3.32153 2.10803 0
M  V30 2147 H 206.283 -4.57124 1.93007 0
M  V30 2148 N 205.456 -1.28612 -0.910864 0
M  V30 2149 C 206.403 -1.12786 -2.01365 0
M  V30 2150 C 207.373 -0.024201 -1.66082 0
M  V30 2151 O 208.558 -0.189667 -1.89855 0
M  V30 2152 C 205.698 -0.798743 -3.35729 0
M  V30 2153 C 204.811 -1.98173 -3.83864 0
M  V30 2154 C 203.946 -1.59298 -5.06752 0
M  V30 2155 C 202.985 -2.74245 -5.47226 0
M  V30 2156 N 202.122 -2.35842 -6.61304 0
M  V30 2157 H 206.962 -2.07142 -2.14234 0
M  V30 2158 H 204.499 -1.03093 -1.0493 0
M  V30 2159 H 206.457 -0.588662 -4.13026 0
M  V30 2160 H 205.087 0.10789 -3.2262 0
M  V30 2161 H 204.139 -2.30386 -3.02699 0
M  V30 2162 H 205.451 -2.84343 -4.09818 0
M  V30 2163 H 204.605 -1.34513 -5.916 0
M  V30 2164 H 203.344 -0.702618 -4.82612 0
M  V30 2165 H 202.349 -2.99725 -4.60918 0
M  V30 2166 H 203.574 -3.63928 -5.73353 0
M  V30 2167 H 201.52 -1.49279 -6.38789 0
M  V30 2168 H 201.437 -3.15546 -6.86998 0
M  V30 2169 H 202.705 -2.14348 -7.4945 0
M  V30 2170 N 206.934 1.1197 -1.10907 0
M  V30 2171 C 208.35 1.35591 -0.841852 0
M  V30 2172 C 208.55 1.94233 0.536246 0
M  V30 2173 O 207.606 2.1717 1.28816 0
M  V30 2174 C 208.919 2.29284 -1.94549 0
M  V30 2175 C 210.467 2.42862 -1.97451 0
M  V30 2176 C 210.942 3.39873 -3.07002 0
M  V30 2177 N 212.433 3.47433 -3.06341 0
M  V30 2178 C 213.168 4.22421 -3.87748 0
M  V30 2179 N 212.664 5.00432 -4.79103 0
M  V30 2180 N 214.457 4.17876 -3.75946 0
M  V30 2181 H 206.608 0.722664 -1.99728 0
M  V30 2182 H 208.871 0.380635 -0.868229 0
M  V30 2183 H 208.577 1.93378 -2.93765 0
M  V30 2184 H 208.451 3.29452 -1.83688 0
M  V30 2185 H 210.838 2.78046 -0.988645 0
M  V30 2186 H 210.919 1.42566 -2.12388 0
M  V30 2187 H 210.563 3.05417 -4.05811 0
M  V30 2188 H 210.493 4.40011 -2.89306 0
M  V30 2189 H 212.984 2.91784 -2.40147 0
M  V30 2190 H 213.297 5.55002 -5.37766 0
M  V30 2191 H 211.642 4.99612 -4.83128 0
M  V30 2192 H 214.833 3.56016 -3.03924 0
M  V30 2193 H 215.006 4.76061 -4.39624 0
M  V30 2194 N 208.412 0.89855 1.29475 0
M  V30 2195 C 209.659 0.523882 1.95606 0
M  V30 2196 C 209.987 -0.929608 1.70847 0
M  V30 2197 O 209.242 -1.67401 1.01367 0
M  V30 2198 C 209.541 0.761398 3.49195 0
M  V30 2199 C 209.207 2.19207 3.94029 0
M  V30 2200 C 207.869 2.58326 4.05982 0
M  V30 2201 C 210.221 3.12379 4.17216 0
M  V30 2202 C 207.549 3.898 4.38489 0
M  V30 2203 C 209.901 4.43401 4.51197 0
M  V30 2204 C 208.565 4.82394 4.61359 0
M  V30 2205 H 207.835 0.191702 0.715773 0
M  V30 2206 H 210.482 1.13699 1.54094 0
M  V30 2207 H 208.787 0.0653622 3.91745 0
M  V30 2208 H 210.484 0.450904 3.98457 0
M  V30 2209 H 207.074 1.87846 3.85242 0
M  V30 2210 H 211.258 2.83371 4.07449 0
M  V30 2211 H 206.514 4.19734 4.44559 0
M  V30 2212 H 210.688 5.15623 4.68087 0
M  V30 2213 H 208.315 5.84306 4.86303 0
M  V30 2214 N 209.89 -1.43072 0.660911 0
M  V30 2215 C 210.8 -2.34585 -0.0264163 0
M  V30 2216 C 211.816 -1.54316 -0.803898 0
M  V30 2217 O 212.992 -1.86939 -0.749391 0
M  V30 2218 C 210.057 -3.32689 -0.975639 0
M  V30 2219 C 209.118 -4.2886 -0.194236 0
M  V30 2220 C 208.351 -5.22278 -1.09825 0
M  V30 2221 O 208.574 -5.20299 -2.33763 0
M  V30 2222 O 207.508 -5.99228 -0.566513 0
M  V30 2223 H 211.334 -2.94869 0.727034 0
M  V30 2224 H 208.919 -1.43342 0.42111 0
M  V30 2225 H 210.801 -3.92995 -1.52094 0
M  V30 2226 H 209.476 -2.74898 -1.70918 0
M  V30 2227 H 208.383 -3.72011 0.394835 0
M  V30 2228 H 209.716 -4.89655 0.499899 0
M  V30 2229 N 211.368 -0.403325 -1.52352 0
M  V30 2230 C 212.278 0.432009 -2.30588 0
M  V30 2231 C 213.294 1.05884 -1.38075 0
M  V30 2232 O 214.47 1.06161 -1.71148 0
M  V30 2233 C 211.535 1.53669 -3.10784 0
M  V30 2234 C 210.596 0.933525 -4.19027 0
M  V30 2235 C 209.829 1.98557 -4.9539 0
M  V30 2236 O 210.052 3.20283 -4.71991 0
M  V30 2237 O 208.986 1.59504 -5.80381 0
M  V30 2238 H 212.812 -0.205739 -3.03002 0
M  V30 2239 H 210.397 -0.166675 -1.48467 0
M  V30 2240 H 212.279 2.17814 -3.60742 0
M  V30 2241 H 210.954 2.15915 -2.41169 0
M  V30 2242 H 209.861 0.254954 -3.7323 0
M  V30 2243 H 211.194 0.35508 -4.90918 0
M  V30 2244 N 212.846 1.57033 -0.133567 0
M  V30 2245 C 213.776 2.1909 0.807567 0
M  V30 2246 C 214.757 1.13517 1.26681 0
M  V30 2247 O 215.942 1.41809 1.32679 0
M  V30 2248 C 213.072 2.80188 2.05212 0
M  V30 2249 C 212.026 3.91471 1.73015 0
M  V30 2250 C 211.352 4.39443 3.04622 0
M  V30 2251 C 212.652 5.12886 0.987168 0
M  V30 2252 H 214.346 2.97988 0.290403 0
M  V30 2253 H 211.892 1.43335 0.138239 0
M  V30 2254 H 213.845 3.22264 2.71521 0
M  V30 2255 H 212.569 1.98601 2.59278 0
M  V30 2256 H 211.228 3.49993 1.0909 0
M  V30 2257 H 210.876 3.54695 3.56651 0
M  V30 2258 H 210.576 5.14495 2.83847 0
M  V30 2259 H 212.1 4.8418 3.72024 0
M  V30 2260 H 213.514 5.51891 1.55208 0
M  V30 2261 H 211.911 5.93615 0.87985 0
M  V30 2262 H 212.981 4.84894 -0.0235286 0
M  V30 2263 N 214.325 -0.140222 1.56975 0
M  V30 2264 C 215.573 -0.850005 1.83356 0
M  V30 2265 C 215.894 -1.81399 0.71551 0
M  V30 2266 O 215.164 -1.94136 -0.262294 0
M  V30 2267 H 213.744 -0.316886 0.676456 0
M  V30 2268 H 216.406 -0.132608 1.94448 0
M  V30 2269 H 215.502 -1.40814 2.78528 0
M  V30 2270 N 215.803 -1.52179 -0.40978 0
M  V30 2271 C 217.049 -1.66453 -1.15851 0
M  V30 2272 C 217.382 -0.392972 -1.90182 0
M  V30 2273 O 216.657 0.608579 -1.84734 0
M  V30 2274 C 216.94 -2.88612 -2.15349 0
M  V30 2275 C 216.793 -4.25815 -1.44918 0
M  V30 2276 C 218.112 -3.06294 -3.16026 0
M  V30 2277 H 215.231 -0.60575 -0.419805 0
M  V30 2278 H 217.873 -1.84732 -0.444314 0
M  V30 2279 H 216.023 -2.73158 -2.76255 0
M  V30 2280 H 217.695 -4.52995 -0.871365 0
M  V30 2281 H 215.938 -4.27247 -0.751159 0
M  V30 2282 H 216.609 -5.07337 -2.17516 0
M  V30 2283 H 219.085 -3.20641 -2.65195 0
M  V30 2284 H 217.961 -3.93283 -3.8291 0
M  V30 2285 H 218.222 -2.19579 -3.83715 0
M  V30 2286 N 217.281 0.66697 -1.42791 0
M  V30 2287 C 218.228 1.7803 -1.4688 0
M  V30 2288 C 219.198 1.6299 -0.319919 0
M  V30 2289 O 220.383 1.83432 -0.525118 0
M  V30 2290 C 217.523 3.1611 -1.38451 0
M  V30 2291 C 216.636 3.42381 -2.63437 0
M  V30 2292 C 215.771 4.70232 -2.47094 0
M  V30 2293 C 214.81 4.89564 -3.67415 0
M  V30 2294 N 213.947 6.08661 -3.49966 0
M  V30 2295 H 218.787 1.7387 -2.42019 0
M  V30 2296 H 216.324 0.84868 -1.20149 0
M  V30 2297 H 218.282 3.95914 -1.31561 0
M  V30 2298 H 216.912 3.19374 -0.469033 0
M  V30 2299 H 215.964 2.56774 -2.80662 0
M  V30 2300 H 217.276 3.52557 -3.52853 0
M  V30 2301 H 216.43 5.5814 -2.37834 0
M  V30 2302 H 215.169 4.62353 -1.5518 0
M  V30 2303 H 214.174 4.00096 -3.77099 0
M  V30 2304 H 215.399 4.99282 -4.6032 0
M  V30 2305 H 213.345 6.0194 -2.60776 0
M  V30 2306 H 213.262 6.19733 -4.32975 0
M  V30 2307 H 214.53 6.99226 -3.44532 0
M  V30 2308 N 218.759 1.29093 0.90403 0
M  V30 2309 C 220.006 1.16813 1.65411 0
M  V30 2310 C 220.334 -0.28128 1.92455 0
M  V30 2311 O 219.589 -1.22006 1.53013 0
M  V30 2312 C 219.888 1.92224 3.01305 0
M  V30 2313 C 219.554 3.41968 2.93885 0
M  V30 2314 C 218.216 3.82807 2.91569 0
M  V30 2315 C 220.568 4.37409 2.83413 0
M  V30 2316 C 217.896 5.1741 2.76594 0
M  V30 2317 C 220.248 5.72097 2.69977 0
M  V30 2318 C 218.912 6.12199 2.66024 0
M  V30 2319 H 218.182 0.42745 0.605283 0
M  V30 2320 H 220.829 1.59981 1.05254 0
M  V30 2321 H 219.134 1.41635 3.65304 0
M  V30 2322 H 220.831 1.80131 3.58265 0
M  V30 2323 H 217.421 3.09504 2.96488 0
M  V30 2324 H 221.605 4.06813 2.84283 0
M  V30 2325 H 216.861 5.47596 2.71935 0
M  V30 2326 H 221.035 6.45704 2.60844 0
M  V30 2327 H 218.662 7.16448 2.54178 0
M  V30 2328 N 220.237 -1.11381 1.11499 0
M  V30 2329 C 221.483 -1.83403 0.865512 0
M  V30 2330 C 221.816 -1.84459 -0.607329 0
M  V30 2331 O 221.091 -1.29811 -1.44842 0
M  V30 2332 C 221.374 -3.30552 1.42855 0
M  V30 2333 C 221.227 -3.37886 2.96906 0
M  V30 2334 C 222.546 -4.26643 1.08 0
M  V30 2335 H 219.665 -0.665879 0.31587 0
M  V30 2336 H 222.307 -1.30601 1.37998 0
M  V30 2337 H 220.457 -3.75648 0.990985 0
M  V30 2338 H 222.129 -3.01343 3.49271 0
M  V30 2339 H 220.372 -2.78088 3.32941 0
M  V30 2340 H 221.043 -4.41458 3.31389 0
M  V30 2341 H 223.519 -3.89729 1.45775 0
M  V30 2342 H 222.395 -5.27986 1.50072 0
M  V30 2343 H 222.656 -4.42099 -0.00915037 0
M  V30 2344 N 221.715 -0.905404 -1.28997 0
M  V30 2345 C 222.662 -0.385892 -2.27551 0
M  V30 2346 C 223.632 0.535113 -1.57244 0
M  V30 2347 O 224.817 0.459119 -1.85194 0
M  V30 2348 C 221.957 0.375461 -3.43051 0
M  V30 2349 C 221.07 -0.577092 -4.28128 0
M  V30 2350 C 220.205 0.201879 -5.30816 0
M  V30 2351 C 219.244 -0.744829 -6.07551 0
M  V30 2352 N 218.381 9.42587e-05 -7.021 0
M  V30 2353 H 223.221 -1.23139 -2.71368 0
M  V30 2354 H 220.758 -0.618542 -1.33463 0
M  V30 2355 H 222.716 0.832992 -4.088 0
M  V30 2356 H 221.346 1.18537 -3.00248 0
M  V30 2357 H 220.398 -1.15315 -3.62501 0
M  V30 2358 H 221.71 -1.30152 -4.8152 0
M  V30 2359 H 220.864 0.720351 -6.02408 0
M  V30 2360 H 219.603 0.959413 -4.7817 0
M  V30 2361 H 218.608 -1.27475 -5.34818 0
M  V30 2362 H 219.833 -1.50178 -6.62286 0
M  V30 2363 H 217.779 0.739791 -6.51815 0
M  V30 2364 H 217.696 -0.664321 -7.53076 0
M  V30 2365 H 218.964 0.498644 -7.77903 0
M  V30 2366 N 223.193 1.4272 -0.668489 0
M  V30 2367 C 224.14 2.30796 0.0137489 0
M  V30 2368 C 225.11 1.4561 0.799177 0
M  V30 2369 O 226.295 1.74453 0.772702 0
M  V30 2370 C 223.435 3.31377 0.963507 0
M  V30 2371 C 222.548 4.31655 0.172569 0
M  V30 2372 C 221.683 5.19312 1.1175 0
M  V30 2373 C 220.722 6.11274 0.317886 0
M  V30 2374 N 219.859 6.91504 1.2152 0
M  V30 2375 H 224.699 2.88585 -0.743161 0
M  V30 2376 H 222.236 1.42154 -0.378226 0
M  V30 2377 H 224.194 3.88214 1.52792 0
M  V30 2378 H 222.824 2.75202 1.68712 0
M  V30 2379 H 221.876 3.76988 -0.508374 0
M  V30 2380 H 223.188 4.96779 -0.448527 0
M  V30 2381 H 222.342 5.80851 1.75206 0
M  V30 2382 H 221.081 4.5435 1.77249 0
M  V30 2383 H 220.086 5.48809 -0.329918 0
M  V30 2384 H 221.311 6.78283 -0.332917 0
M  V30 2385 H 219.257 6.29176 1.85671 0
M  V30 2386 H 219.174 7.53209 0.649036 0
M  V30 2387 H 220.442 7.57535 1.83742 0
M  V30 2388 N 224.671 0.411399 1.52136 0
M  V30 2389 C 226.082 -0.0576826 1.86611 0
M  V30 2390 C 226.433 -1.44238 1.33003 0
M  V30 2391 O 225.558 -2.05759 0.670228 0
M  V30 2392 C 226.153 -0.111448 3.38617 0
M  V30 2393 C 224.712 -0.52487 3.72723 0
M  V30 2394 C 223.859 0.299176 2.75681 0
M  V30 2395 H 226.81 0.628368 1.4573 0
M  V30 2396 H 226.831 -0.926252 3.69054 0
M  V30 2397 H 226.343 0.896488 3.77604 0
M  V30 2398 H 224.444 -1.53936 3.39315 0
M  V30 2399 H 224.557 -0.267681 4.78352 0
M  V30 2400 H 222.921 -0.238814 2.53578 0
M  V30 2401 H 223.704 1.3055 3.17508 0
M  V30 2402 N 226.149 -1.5696 0.141893 0
M  V30 2403 C 227.426 -1.87553 -0.555281 0
M  V30 2404 C 227.806 -1.04699 -1.83306 0
M  V30 2405 O 227.154 -0.132346 -2.28116 0
M  V30 2406 C 227.364 -3.39093 -0.825664 0
M  V30 2407 C 228.712 -4.08199 -1.16869 0
M  V30 2408 O 229.736 -3.44242 -0.915185 0
M  V30 2409 O 228.595 -5.21139 -1.6455 0
M  V30 2410 H 225.689 -0.777188 -0.282679 0
M  V30 2411 H 228.235 -1.68763 0.17812 0
M  V30 2412 H 227.007 -3.91221 0.0788633 0
M  V30 2413 H 226.63 -3.63393 -1.61343 0
M  V30 2414 N 227.627 0.131896 -1.57047 0
M  V30 2415 C 228.904 0.871495 -1.75112 0
M  V30 2416 C 229.284 1.9866 -0.713949 0
M  V30 2417 O 228.632 2.26965 0.264447 0
M  V30 2418 C 228.842 1.40007 -3.19686 0
M  V30 2419 C 230.19 1.85752 -3.81813 0
M  V30 2420 O 231.214 1.49715 -3.23209 0
M  V30 2421 O 230.073 2.5226 -4.84796 0
M  V30 2422 H 227.167 0.412919 -0.716538 0
M  V30 2423 H 229.713 0.116641 -1.69299 0
M  V30 2424 H 228.485 0.599404 -3.86682 0
M  V30 2425 H 228.108 2.218 -3.29986 0
M  V30 2426 N 229.106 1.52395 0.401703 0
M  V30 2427 C 230.354 1.66488 1.14569 0
M  V30 2428 C 230.675 0.400897 1.90835 0
M  V30 2429 O 229.945 -0.584415 1.8698 0
M  V30 2430 H 228.525 0.613672 0.425929 0
M  V30 2431 H 231.187 1.89464 0.457093 0
M  V30 2432 H 230.283 2.50942 1.85566 0
M  V30 2433 N 230.584 -0.659388 1.43143 0
M  V30 2434 C 231.531 -1.77249 1.47822 0
M  V30 2435 C 232.501 -1.62818 0.328558 0
M  V30 2436 O 233.686 -1.83151 0.534838 0
M  V30 2437 C 230.826 -3.15371 1.40126 0
M  V30 2438 C 229.939 -3.4098 2.65249 0
M  V30 2439 C 229.074 -4.68915 2.49584 0
M  V30 2440 C 228.113 -4.87608 3.70006 0
M  V30 2441 N 227.25 -6.06796 3.53189 0
M  V30 2442 H 232.09 -1.72584 2.42938 0
M  V30 2443 H 229.627 -0.842297 1.20598 0
M  V30 2444 H 231.585 -3.9521 1.33659 0
M  V30 2445 H 230.215 -3.19121 0.485964 0
M  V30 2446 H 229.267 -2.55282 2.8202 0
M  V30 2447 H 230.579 -3.50681 3.54717 0
M  V30 2448 H 229.733 -5.56871 2.4079 0
M  V30 2449 H 228.472 -4.61524 1.5763 0
M  V30 2450 H 227.477 -3.9809 3.79215 0
M  V30 2451 H 228.702 -4.96834 4.62961 0
M  V30 2452 H 226.648 -6.00549 2.63965 0
M  V30 2453 H 226.565 -6.17428 4.36255 0
M  V30 2454 H 227.833 -6.9739 3.48236 0
M  V30 2455 N 232.062 -1.29571 -0.897171 0
M  V30 2456 C 232.995 -1.0924 -2.00354 0
M  V30 2457 C 233.973 -0.00354011 -1.626 0
M  V30 2458 O 235.157 -0.15473 -1.87864 0
M  V30 2459 C 232.284 -0.66352 -3.32137 0
M  V30 2460 C 231.33 -1.75146 -3.88878 0
M  V30 2461 S 232.163 -3.35124 -4.17674 0
M  V30 2462 C 233.319 -2.9411 -5.52494 0
M  V30 2463 H 233.552 -2.02907 -2.17292 0
M  V30 2464 H 231.085 -1.13746 -1.04408 0
M  V30 2465 H 233.043 -0.422791 -4.08317 0
M  V30 2466 H 231.704 0.253588 -3.13075 0
M  V30 2467 H 230.897 -1.40337 -4.84068 0
M  V30 2468 H 230.499 -1.94584 -3.19395 0
M  V30 2469 H 232.791 -2.41312 -6.33068 0
M  V30 2470 H 233.734 -3.88161 -5.9223 0
M  V30 2471 H 234.142 -2.32332 -5.14473 0
M  V30 2472 N 233.54 1.10788 -1.12088 0
M  V30 2473 C 234.487 2.17025 -0.785407 0
M  V30 2474 C 235.457 1.64265 0.246191 0
M  V30 2475 O 236.642 1.90412 0.121584 0
M  V30 2476 C 233.782 3.44249 -0.242177 0
M  V30 2477 C 232.895 4.1098 -1.33115 0
M  V30 2478 C 232.03 5.25911 -0.747741 0
M  V30 2479 C 231.069 5.84538 -1.81609 0
M  V30 2480 N 230.206 6.90853 -1.25167 0
M  V30 2481 H 235.046 2.45066 -1.69548 0
M  V30 2482 H 232.583 1.20297 -0.846582 0
M  V30 2483 H 234.541 4.17101 0.0908026 0
M  V30 2484 H 233.171 3.16571 0.631072 0
M  V30 2485 H 232.223 3.36133 -1.78097 0
M  V30 2486 H 233.535 4.50601 -2.13917 0
M  V30 2487 H 232.689 6.056 -0.365216 0
M  V30 2488 H 231.428 4.87614 0.0915188 0
M  V30 2489 H 230.433 5.03522 -2.20785 0
M  V30 2490 H 231.658 6.249 -2.6585 0
M  V30 2491 H 229.604 6.54562 -0.434174 0
M  V30 2492 H 229.521 7.29166 -1.99633 0
M  V30 2493 H 230.789 7.7433 -0.896259 0
M  V30 2494 N 235.018 0.912232 1.28515 0
M  V30 2495 C 236.266 0.543523 1.94654 0
M  V30 2496 C 236.587 -0.9155 1.72173 0
M  V30 2497 O 235.857 -1.64708 1.06058 0
M  V30 2498 H 234.437 0.198017 0.720277 0
M  V30 2499 H 237.099 1.16126 1.56527 0
M  V30 2500 H 236.195 0.736684 3.03281 0
M  V30 2501 N 236.496 -1.42363 0.676048 0
M  V30 2502 C 237.426 -2.33497 0.0124832 0
M  V30 2503 C 238.407 -1.50748 -0.787981 0
M  V30 2504 O 239.592 -1.79346 -0.744884 0
M  V30 2505 C 236.722 -3.34377 -0.938582 0
M  V30 2506 C 235.676 -4.27289 -0.246622 0
M  V30 2507 C 235.002 -5.18386 -1.31071 0
M  V30 2508 C 236.302 -5.14916 0.875125 0
M  V30 2509 H 237.996 -2.89233 0.773593 0
M  V30 2510 H 235.542 -1.39073 0.37346 0
M  V30 2511 H 237.495 -3.97044 -1.41188 0
M  V30 2512 H 236.219 -2.76947 -1.73113 0
M  V30 2513 H 234.878 -3.66018 0.206456 0
M  V30 2514 H 234.526 -4.57282 -2.09528 0
M  V30 2515 H 234.226 -5.81378 -0.852839 0
M  V30 2516 H 235.75 -5.83929 -1.78492 0
M  V30 2517 H 237.164 -5.71262 0.482983 0
M  V30 2518 H 235.561 -5.86747 1.25887 0
M  V30 2519 H 236.631 -4.53242 1.72335 0
M  V30 2520 N 237.974 -0.419461 -1.51915 0
M  V30 2521 C 238.937 0.389116 -2.25873 0
M  V30 2522 C 239.937 0.964924 -1.28631 0
M  V30 2523 O 241.127 0.842179 -1.52489 0
M  V30 2524 C 238.259 1.54874 -3.03689 0
M  V30 2525 H 239.452 -0.258799 -2.98781 0
M  V30 2526 H 237.005 -0.172209 -1.55348 0
M  V30 2527 H 237.74 2.23323 -2.35154 0
M  V30 2528 H 237.525 1.14223 -3.75094 0
M  V30 2529 H 239.015 2.12046 -3.59759 0
M  V30 2530 N 239.452 1.56882 -0.150215 0
M  V30 2531 C 240.699 1.96228 0.500093 0
M  V30 2532 C 241.027 1.03522 1.64661 0
M  V30 2533 O 240.282 0.0650683 1.95592 0
M  V30 2534 C 240.581 3.41801 1.04437 0
M  V30 2535 C 240.247 4.50897 0.0159671 0
M  V30 2536 C 238.909 4.8046 -0.266731 0
M  V30 2537 C 241.261 5.16703 -0.683192 0
M  V30 2538 C 238.589 5.73135 -1.25434 0
M  V30 2539 C 240.941 6.10441 -1.65964 0
M  V30 2540 C 239.605 6.38382 -1.95 0
M  V30 2541 H 238.875 0.718048 0.182997 0
M  V30 2542 H 241.522 1.90019 -0.237724 0
M  V30 2543 H 239.827 3.44857 1.85959 0
M  V30 2544 H 241.524 3.69573 1.55618 0
M  V30 2545 H 238.114 4.27891 0.246485 0
M  V30 2546 H 242.298 4.93993 -0.477983 0
M  V30 2547 H 237.554 5.93074 -1.48571 0
M  V30 2548 H 241.728 6.60507 -2.20689 0
M  V30 2549 H 239.355 7.09996 -2.71679 0
M  V30 2550 N 240.93 -0.123565 1.57115 0
M  V30 2551 C 242.179 -0.830704 1.83799 0
M  V30 2552 C 242.492 -1.81259 0.735158 0
M  V30 2553 O 243.698 -2.56558 0.888278 0
M  V30 2554 C 242.154 -1.52802 3.25852 0
M  V30 2555 C 241.762 -0.587356 4.44133 0
M  V30 2556 C 243.506 -2.22056 3.61789 0
M  V30 2557 C 241.413 -1.28764 5.77212 0
M  V30 2558 H 240.343 -0.313967 0.685522 0
M  V30 2559 H 242.994 -0.0834359 1.8331 0
M  V30 2560 H 241.376 -2.32175 3.20797 0
M  V30 2561 H 242.55 0.172829 4.60476 0
M  V30 2562 H 240.865 -0.00201892 4.164 0
M  V30 2563 H 243.462 -2.75131 4.58483 0
M  V30 2564 H 243.805 -2.99644 2.88997 0
M  V30 2565 H 244.338 -1.49576 3.68608 0
M  V30 2566 H 241.077 -0.55314 6.53162 0
M  V30 2567 H 240.597 -2.01995 5.64764 0
M  V30 2568 H 242.276 -1.8221 6.20813 0
M  V30 2569 N 242.408 -1.52605 -0.393616 0
M  V30 2570 C 243.34 -1.73303 -1.49995 0
M  V30 2571 C 244.353 -0.613473 -1.50799 0
M  V30 2572 O 245.542 -0.889049 -1.54784 0
M  V30 2573 C 242.642 -1.77245 -2.88855 0
M  V30 2574 C 241.815 -3.06483 -3.12069 0
M  V30 2575 C 240.874 -3.02033 -4.30886 0
M  V30 2576 O 239.9 -3.75907 -4.27414 0
M  V30 2577 N 241.102 -2.20897 -5.36828 0
M  V30 2578 H 243.867 -2.68756 -1.32629 0
M  V30 2579 H 241.428 -1.51036 -0.583083 0
M  V30 2580 H 243.42 -1.7178 -3.66434 0
M  V30 2581 H 241.99 -0.891993 -2.99603 0
M  V30 2582 H 241.21 -3.25474 -2.22396 0
M  V30 2583 H 242.498 -3.91947 -3.2443 0
M  V30 2584 H 241.896 -1.60336 -5.42502 0
M  V30 2585 H 240.453 -2.21275 -6.13091 0
M  V30 2586 N 243.887 0.651787 -1.4349 0
M  V30 2587 C 245.164 1.40909 -1.35661 0
M  V30 2588 C 245.544 2.11099 -0.00511733 0
M  V30 2589 O 244.892 2.04892 1.0115 0
M  V30 2590 C 245.102 2.3926 -2.54078 0
M  V30 2591 C 246.45 3.03217 -2.97228 0
M  V30 2592 O 247.474 2.49588 -2.54135 0
M  V30 2593 O 246.333 4.00455 -3.71885 0
M  V30 2594 H 243.427 0.629625 -0.536191 0
M  V30 2595 H 245.973 0.678575 -1.55542 0
M  V30 2596 H 244.745 1.86352 -3.44076 0
M  V30 2597 H 244.368 3.1976 -2.36303 0
M  V30 2598 N 245.365 1.30045 0.890287 0
M  V30 2599 C 246.776 1.16738 1.45702 0
M  V30 2600 C 247.127 -0.233939 1.948 0
M  V30 2601 O 246.252 -1.13021 1.84541 0
M  V30 2602 C 246.847 2.11313 2.64825 0
M  V30 2603 C 245.406 2.02001 3.17604 0
M  V30 2604 C 244.553 2.01699 1.90296 0
M  V30 2605 H 247.504 1.42392 0.700726 0
M  V30 2606 H 247.525 1.69086 3.40867 0
M  V30 2607 H 247.037 3.13294 2.2906 0
M  V30 2608 H 245.138 1.03142 3.5804 0
M  V30 2609 H 245.251 2.90128 3.81264 0
M  V30 2610 H 243.615 1.46427 2.08402 0
M  V30 2611 H 244.398 3.05402 1.56795 0
M  V30 2612 N 246.843 -1.10192 1.12674 0
M  V30 2613 C 248.12 -1.78717 0.794965 0
M  V30 2614 C 248.5 -1.98628 -0.714853 0
M  V30 2615 O 247.848 -1.58135 -1.64941 0
M  V30 2616 C 248.058 -3.11546 1.5729 0
M  V30 2617 C 249.406 -3.86382 1.76052 0
M  V30 2618 O 250.43 -3.21274 1.53823 0
M  V30 2619 O 249.289 -5.03246 2.13087 0
M  V30 2620 H 246.383 -0.774702 0.289423 0
M  V30 2621 H 248.929 -1.16819 1.23091 0
M  V30 2622 H 247.701 -2.92489 2.59935 0
M  V30 2623 H 247.324 -3.81164 1.13137 0
M  V30 2624 N 248.321 -0.919034 -1.28029 0
M  V30 2625 C 249.569 -0.553838 -1.94363 0
M  V30 2626 C 249.89 0.906357 -1.72656 0
M  V30 2627 O 249.16 1.64143 -1.0693 0
M  V30 2628 H 247.74 -0.201834 -0.719216 0
M  V30 2629 H 250.402 -1.16954 -1.55909 0
M  V30 2630 H 249.498 -0.752758 -3.02886 0
M  V30 2631 N 249.799 1.42003 -0.683588 0
M  V30 2632 C 251.029 2.05448 -0.217866 0
M  V30 2633 C 251.437 1.51491 1.13346 0
M  V30 2634 O 250.78 0.653048 1.717 0
M  V30 2635 C 250.842 3.59399 -0.0850118 0
M  V30 2636 C 250.506 4.36093 -1.36645 0
M  V30 2637 C 251.503 4.66169 -2.30179 0
M  V30 2638 C 249.188 4.75578 -1.61649 0
M  V30 2639 C 251.182 5.34676 -3.46988 0
M  V30 2640 C 248.869 5.43824 -2.78745 0
M  V30 2641 C 249.867 5.73299 -3.71238 0
M  V30 2642 O 249.555 6.40142 -4.86285 0
M  V30 2643 H 249.287 0.668344 -0.101454 0
M  V30 2644 H 251.841 1.82974 -0.933248 0
M  V30 2645 H 250.071 3.80566 0.686031 0
M  V30 2646 H 251.76 4.04457 0.341973 0
M  V30 2647 H 252.526 4.36156 -2.12115 0
M  V30 2648 H 248.405 4.52025 -0.905243 0
M  V30 2649 H 251.949 5.57599 -4.19201 0
M  V30 2650 H 247.846 5.73254 -2.96732 0
M  V30 2651 H 248.614 6.58636 -4.85944 0
M  V30 2652 N 251.277 0.427512 1.51691 0
M  V30 2653 C 252.523 -0.134744 2.02953 0
M  V30 2654 C 252.878 -1.41235 1.30654 0
M  V30 2655 O 252.171 -1.87168 0.409713 0
M  V30 2656 C 252.365 -0.418249 3.54944 0
M  V30 2657 C 252.194 0.830327 4.41968 0
M  V30 2658 C 250.964 1.36097 4.86627 0
M  V30 2659 C 253.162 1.7137 4.84909 0
M  V30 2660 N 251.144 2.56311 5.57833 0
M  V30 2661 C 252.515 2.76195 5.55082 0
M  V30 2662 C 254.57 1.72928 4.66905 0
M  V30 2663 C 253.273 3.82512 6.09161 0
M  V30 2664 C 255.299 2.78175 5.21894 0
M  V30 2665 C 254.661 3.8172 5.92004 0
M  V30 2666 H 250.76 -0.0103958 0.781931 0
M  V30 2667 H 253.344 0.585981 1.85673 0
M  V30 2668 H 251.515 -1.10801 3.7226 0
M  V30 2669 H 253.247 -0.970999 3.92879 0
M  V30 2670 H 250.002 0.916311 4.64651 0
M  V30 2671 H 250.426 3.17242 5.98069 0
M  V30 2672 H 255.068 0.942081 4.12171 0
M  V30 2673 H 252.786 4.62077 6.62956 0
M  V30 2674 H 256.372 2.8031 5.09821 0
M  V30 2675 H 255.252 4.61821 6.33791 0
M  V30 2676 N 252.755 -1.56801 0.158532 0
M  V30 2677 C 254.004 -1.95665 -0.489702 0
M  V30 2678 C 254.317 -1.04654 -1.65248 0
M  V30 2679 O 255.523 -1.33146 -2.3661 0
M  V30 2680 C 253.979 -3.47874 -0.922582 0
M  V30 2681 C 253.587 -4.47489 0.213893 0
M  V30 2682 C 255.331 -3.95583 -1.53996 0
M  V30 2683 C 253.238 -5.90921 -0.237903 0
M  V30 2684 H 252.168 -0.730516 -0.186716 0
M  V30 2685 H 254.819 -1.81861 0.244722 0
M  V30 2686 H 253.201 -3.57051 -1.71261 0
M  V30 2687 H 254.375 -4.50017 0.991036 0
M  V30 2688 H 252.69 -4.09764 0.740407 0
M  V30 2689 H 255.287 -5.0019 -1.8898 0
M  V30 2690 H 255.63 -3.37789 -2.43319 0
M  V30 2691 H 256.163 -3.8937 -0.814611 0
M  V30 2692 H 252.902 -6.52559 0.620236 0
M  V30 2693 H 252.422 -5.91729 -0.980676 0
M  V30 2694 H 254.101 -6.43352 -0.686067 0
M  V30 2695 N 254.233 0.115231 -1.57178 0
M  V30 2696 C 255.143 1.15994 -2.03918 0
M  V30 2697 C 256.159 1.45103 -0.960268 0
M  V30 2698 O 257.335 1.56144 -1.27204 0
M  V30 2699 C 254.4 2.46568 -2.43732 0
M  V30 2700 C 253.461 2.24822 -3.65723 0
M  V30 2701 C 252.694 3.4917 -4.03629 0
M  V30 2702 O 252.917 4.56623 -3.41835 0
M  V30 2703 O 251.851 3.39949 -4.96708 0
M  V30 2704 H 255.677 0.793019 -2.93164 0
M  V30 2705 H 253.262 0.3263 -1.45793 0
M  V30 2706 H 255.144 3.23492 -2.70057 0
M  V30 2707 H 253.819 2.82726 -1.57631 0
M  V30 2708 H 252.726 1.45744 -3.44542 0
M  V30 2709 H 254.059 1.93566 -4.52541 0
M  V30 2710 N 255.711 1.52812 0.385517 0
M  V30 2711 C 256.96 1.67249 1.12741 0
M  V30 2712 C 257.273 0.4205 1.91027 0
M  V30 2713 O 258.479 0.445064 2.67827 0
M  V30 2714 C 256.935 2.95583 2.05326 0
M  V30 2715 C 256.543 4.27974 1.32447 0
M  V30 2716 C 258.287 3.19386 2.7963 0
M  V30 2717 C 256.194 5.47412 2.23818 0
M  V30 2718 H 255.124 0.6231 0.424573 0
M  V30 2719 H 257.775 1.79309 0.389924 0
M  V30 2720 H 256.157 2.77277 2.82725 0
M  V30 2721 H 257.331 4.56844 0.602495 0
M  V30 2722 H 255.646 4.10459 0.700885 0
M  V30 2723 H 258.243 4.05801 3.48181 0
M  V30 2724 H 258.586 2.34604 3.43899 0
M  V30 2725 H 259.119 3.38274 2.09322 0
M  V30 2726 H 255.858 6.34612 1.64157 0
M  V30 2727 H 255.378 5.22849 2.93921 0
M  V30 2728 H 257.057 5.81423 2.83824 0
M  V30 2729 N 257.189 -0.644168 1.43834 0
M  V30 2730 C 258.119 -1.76814 1.52509 0
M  V30 2731 C 259.1 -1.65823 0.379052 0
M  V30 2732 O 260.285 -1.84781 0.597466 0
M  V30 2733 C 257.415 -3.15288 1.4564 0
M  V30 2734 C 256.369 -3.41053 2.58586 0
M  V30 2735 C 255.695 -4.79421 2.36769 0
M  V30 2736 C 256.995 -3.34902 4.00797 0
M  V30 2737 H 258.689 -1.69812 2.46586 0
M  V30 2738 H 256.235 -0.815542 1.1868 0
M  V30 2739 H 258.188 -3.93681 1.50311 0
M  V30 2740 H 256.912 -3.23043 0.480725 0
M  V30 2741 H 255.571 -2.65035 2.53282 0
M  V30 2742 H 255.219 -4.83863 1.37424 0
M  V30 2743 H 254.919 -4.9762 3.12487 0
M  V30 2744 H 256.443 -5.6006 2.43238 0
M  V30 2745 H 257.857 -4.03218 4.07539 0
M  V30 2746 H 256.254 -3.64637 4.76613 0
M  V30 2747 H 257.324 -2.32928 4.25291 0
M  V30 2748 N 258.668 -1.30515 -0.883378 0
M  V30 2749 C 259.616 -1.16941 -2.01066 0
M  V30 2750 C 260.61 -0.0809148 -1.69207 0
M  V30 2751 O 261.816 -0.241877 -1.78367 0
M  V30 2752 H 258.191 -0.361705 -0.659298 0
M  V30 2753 H 260.162 -2.12344 -2.09649 0
M  V30 2754 C 258.911 -0.879694 -3.36388 0
M  V30 2755 H 258.234 -1.70936 -3.61415 0
M  V30 2756 H 259.674 -0.82483 -4.159 0
M  V30 2757 C 258.133 0.417409 -3.34304 0
M  V30 2758 O 258.663 1.43843 -3.75063 0
M  V30 2759 N 256.869 0.429141 -2.87414 0
M  V30 2760 H 256.416 -0.402222 -2.5444 0
M  V30 2761 H 256.374 1.29696 -2.86403 0
M  V30 2762 N 260.146 1.09593 -1.13257 0
M  V30 2763 C 261.557 1.63229 -0.906274 0
M  V30 2764 C 261.908 1.8811 0.557578 0
M  V30 2765 O 261.033 1.62953 1.42391 0
M  V30 2766 C 261.628 2.96535 -1.63867 0
M  V30 2767 C 260.187 3.47003 -1.45828 0
M  V30 2768 C 259.334 2.2145 -1.66898 0
M  V30 2769 H 262.285 0.92978 -1.28611 0
M  V30 2770 H 262.306 3.64411 -1.09476 0
M  V30 2771 H 261.818 2.78394 -2.70404 0
M  V30 2772 H 259.919 3.70272 -0.415848 0
M  V30 2773 H 260.032 4.24551 -2.2202 0
M  V30 2774 H 258.396 2.30022 -1.09371 0
M  V30 2775 H 259.179 2.0583 -2.74752 0
M  V30 2776 N 261.624 0.925811 1.2754 0
M  V30 2777 C 262.572 0.413897 2.28888 0
M  V30 2778 C 263.566 -0.500779 1.61829 0
M  V30 2779 O 264.772 -0.38069 1.75928 0
M  V30 2780 H 261.147 0.115274 0.743112 0
M  V30 2781 H 263.118 1.28151 2.69481 0
M  V30 2782 C 261.867 -0.319792 3.46226 0
M  V30 2783 H 261.19 0.374846 3.98039 0
M  V30 2784 H 262.63 -0.642435 4.19105 0
M  V30 2785 C 261.089 -1.53209 3.00048 0
M  V30 2786 O 261.619 -2.6309 3.03557 0
M  V30 2787 N 259.825 -1.38326 2.55566 0
M  V30 2788 H 259.372 -0.489292 2.5291 0
M  V30 2789 H 259.33 -2.19564 2.25031 0
M  V30 2790 N 263.102 -1.41638 0.69111 0
M  V30 2791 C 264.049 -2.30789 0.0229705 0
M  V30 2792 C 265.019 -1.46863 -0.775911 0
M  V30 2793 O 266.204 -1.75661 -0.74485 0
M  V30 2794 C 263.344 -3.32868 -0.910666 0
M  V30 2795 C 262.457 -4.31875 -0.103874 0
M  V30 2796 C 261.592 -5.21024 -1.03475 0
M  V30 2797 C 260.631 -6.11702 -0.220598 0
M  V30 2798 N 259.768 -6.93349 -1.10504 0
M  V30 2799 H 264.608 -2.87366 0.788978 0
M  V30 2800 H 262.145 -1.41535 0.400794 0
M  V30 2801 H 264.103 -3.90596 -1.46597 0
M  V30 2802 H 262.733 -2.77851 -1.64312 0
M  V30 2803 H 261.785 -3.76131 0.568285 0
M  V30 2804 H 263.097 -4.96003 0.527504 0
M  V30 2805 H 262.251 -5.83565 -1.65943 0
M  V30 2806 H 260.99 -4.57112 -1.69999 0
M  V30 2807 H 259.995 -5.48215 0.417187 0
M  V30 2808 H 261.22 -6.77668 0.440784 0
M  V30 2809 H 259.166 -6.3205 -1.75638 0
M  V30 2810 H 259.083 -7.54146 -0.529125 0
M  V30 2811 H 260.351 -7.60362 -1.71667 0
M  V30 2812 N 264.58 -0.43555 -1.51462 0
M  V30 2813 C 265.513 0.421989 -2.24264 0
M  V30 2814 C 266.491 1.02619 -1.26127 0
M  V30 2815 O 267.675 1.069 -1.55257 0
M  V30 2816 C 264.802 1.588 -2.99166 0
M  V30 2817 C 263.848 1.10465 -4.11946 0
M  V30 2818 S 264.681 0.048146 -5.35478 0
M  V30 2819 C 265.837 1.21887 -6.13917 0
M  V30 2820 H 266.07 -0.196102 -2.96653 0
M  V30 2821 H 263.603 -0.220054 -1.52824 0
M  V30 2822 H 265.561 2.25647 -3.42919 0
M  V30 2823 H 264.222 2.1775 -2.26371 0
M  V30 2824 H 263.415 1.97654 -4.63626 0
M  V30 2825 H 263.017 0.51445 -3.70445 0
M  V30 2826 H 265.309 2.13756 -6.42895 0
M  V30 2827 H 266.252 0.742076 -7.04201 0
M  V30 2828 H 266.66 1.45663 -5.45383 0
M  V30 2829 N 266.058 1.56714 -0.166846 0
M  V30 2830 C 267.021 2.16539 0.751232 0
M  V30 2831 C 268.021 1.11228 1.16125 0
M  V30 2832 O 269.211 1.36765 1.07894 0
M  V30 2833 C 266.343 2.74462 2.02196 0
M  V30 2834 H 267.536 2.99013 0.230499 0
M  V30 2835 H 265.089 1.56081 0.0826982 0
M  V30 2836 H 265.824 1.95709 2.58589 0
M  V30 2837 H 265.609 3.51527 1.73698 0
M  V30 2838 H 267.099 3.20489 2.67725 0
M  V30 2839 N 267.536 -0.106894 1.57237 0
M  V30 2840 C 268.764 -0.826389 1.8968 0
M  V30 2841 C 269.179 -1.72856 0.759353 0
M  V30 2842 O 268.536 -1.80503 -0.269263 0
M  V30 2843 C 268.587 -1.64967 3.21665 0
M  V30 2844 O 268.308 -0.783804 4.31031 0
M  V30 2845 C 269.809 -2.47326 3.67892 0
M  V30 2846 H 267.029 -0.236927 0.627779 0
M  V30 2847 H 269.573 -0.0876593 2.04312 0
M  V30 2848 H 267.728 -2.34103 3.08666 0
M  V30 2849 H 268.142 -1.35284 5.06753 0
M  V30 2850 H 269.616 -3.00604 4.6297 0
M  V30 2851 H 270.093 -3.25247 2.95146 0
M  V30 2852 H 270.699 -1.83411 3.83719 0
M  V30 2853 N 269.014 -1.53014 -0.377408 0
M  V30 2854 C 269.944 -1.81589 -1.46791 0
M  V30 2855 C 270.925 -0.668622 -1.56408 0
M  V30 2856 O 272.11 -0.917337 -1.71168 0
M  V30 2857 C 269.24 -1.99519 -2.8427 0
M  V30 2858 C 268.194 -3.15249 -2.89486 0
M  V30 2859 C 267.52 -3.18451 -4.29527 0
M  V30 2860 C 268.82 -4.54084 -2.58079 0
M  V30 2861 H 270.514 -2.7291 -1.23127 0
M  V30 2862 H 268.06 -1.31319 -0.590883 0
M  V30 2863 H 270.013 -2.18092 -3.60575 0
M  V30 2864 H 268.737 -1.04897 -3.09296 0
M  V30 2865 H 267.396 -2.96477 -2.15631 0
M  V30 2866 H 267.044 -2.2149 -4.5161 0
M  V30 2867 H 266.744 -3.962 -4.33934 0
M  V30 2868 H 268.268 -3.39193 -5.07721 0
M  V30 2869 H 269.682 -4.72899 -3.24098 0
M  V30 2870 H 268.079 -5.33987 -2.7382 0
M  V30 2871 H 269.149 -4.60006 -1.53372 0
M  V30 2872 N 270.492 0.636531 -1.44174 0
M  V30 2873 C 271.425 1.76139 -1.45087 0
M  V30 2874 C 272.403 1.59611 -0.310326 0
M  V30 2875 O 273.587 1.81568 -0.506477 0
M  V30 2876 C 270.714 3.13648 -1.27839 0
M  V30 2877 C 269.76 3.48838 -2.45386 0
M  V30 2878 S 270.593 3.46927 -4.07924 0
M  V30 2879 C 271.749 4.87064 -3.9309 0
M  V30 2880 H 271.982 1.75096 -2.40268 0
M  V30 2881 H 269.515 0.810666 -1.31406 0
M  V30 2882 H 271.473 3.93002 -1.18575 0
M  V30 2883 H 270.134 3.12235 -0.341787 0
M  V30 2884 H 269.327 4.48886 -2.29167 0
M  V30 2885 H 268.929 2.76935 -2.51362 0
M  V30 2886 H 271.221 5.76153 -3.56446 0
M  V30 2887 H 272.164 5.08337 -4.92949 0
M  V30 2888 H 272.572 4.61384 -3.25246 0
M  V30 2889 O 272.009 1.41421 0.779892 0
M  V30 2890 H 272.7 1.31013 1.42672 0
M  V30 END ATOM
M  V30 BEGIN BOND
M  V30 END BOND
M  V30 END CTAB
M  END
$$$$
