drugbank_target|P00915 Carbonic anhydrase 1 (DB00232; DB00273; DB00310; DB00311; DB00381; DB00423; DB00436; DB00562; DB00606; DB00703; DB00774; DB00819; DB00869; DB00880; DB00909; DB01021; DB01031; DB01119; DB01144; DB01194; DB01325; DB08155; DB08156; DB08157; DB08846; DB09460; DB09472)
 OpenBabel12092119283D

  0  0  0     0  0            999 V3000
M  V30 BEGIN CTAB
M  V30 COUNTS 4010 4068 0 0 0
M  V30 BEGIN ATOM
M  V30 1 H -0.908 1.98254 -0.117106 0
M  V30 2 N 0 1.576 0 0
M  V30 3 C 0.933 2.03868 1.02534 0
M  V30 4 C 1.911 0.928543 1.3348 0
M  V30 5 O 3.095 1.19667 1.45644 0
M  V30 6 C 0.222 2.43627 2.35294 0
M  V30 7 C -0.732 3.65373 2.2001 0
M  V30 8 S 0.101 5.13292 1.52614 0
M  V30 9 C 1.257 5.56322 2.86805 0
M  V30 10 H 1.49 2.90518 0.631377 0
M  V30 11 H -0.977 1.52953 0.210867 0
M  V30 12 H 0.981 2.67203 3.11629 0
M  V30 13 H -0.358 1.57376 2.7183 0
M  V30 14 H -1.165 3.90944 3.18086 0
M  V30 15 H -1.563 3.418 1.51819 0
M  V30 16 H 0.729 5.58782 3.83104 0
M  V30 17 H 1.672 6.56266 2.65933 0
M  V30 18 H 2.08 4.83886 2.90714 0
M  V30 19 N 1.4781 -0.272755 1.55222 0
M  V30 20 C 2.4411 -1.32041 1.87344 0
M  V30 21 C 3.4411 -1.42342 0.74803 0
M  V30 22 O 4.6311 -1.41488 1.0162 0
M  V30 23 C 1.7631 -2.70173 2.07893 0
M  V30 24 H 2.9561 -1.04789 2.80997 0
M  V30 25 H 0.5091 -0.51083 1.47717 0
M  V30 26 H 1.2441 -3.02605 1.16622 0
M  V30 27 H 1.0291 -2.64082 2.89833 0
M  V30 28 H 2.5191 -3.45869 2.34017 0
M  V30 29 N 2.9562 -1.48159 -0.537278 0
M  V30 30 C 4.1812 -1.59707 -1.32319 0
M  V30 31 C 4.6062 -0.254859 -1.86365 0
M  V30 32 O 3.9642 0.772378 -1.64024 0
M  V30 33 C 4.0122 -2.6412 -2.45505 0
M  V30 34 O 3.1162 -2.20774 -3.48328 0
M  V30 35 H 2.4572 -0.535791 -0.392204 0
M  V30 36 H 4.9872 -1.94092 -0.647268 0
M  V30 37 H 4.9972 -2.85166 -2.91795 0
M  V30 38 H 3.6722 -3.61567 -2.05528 0
M  V30 39 H 2.2492 -2.09911 -3.08207 0
M  V30 40 N 4.4343 0.785586 -1.36625 0
M  V30 41 C 5.8453 1.36101 -1.27803 0
M  V30 42 C 6.1963 1.96035 0.0804875 0
M  V30 43 O 5.3213 1.92834 0.982042 0
M  V30 44 C 5.9163 2.47442 -2.31426 0
M  V30 45 C 4.4753 3.00789 -2.26281 0
M  V30 46 C 3.6223 1.73896 -2.15999 0
M  V30 47 H 6.5733 0.586928 -1.47448 0
M  V30 48 H 6.5943 3.2656 -1.95291 0
M  V30 49 H 6.1063 2.03791 -3.30289 0
M  V30 50 H 4.2073 3.48851 -1.30896 0
M  V30 51 H 4.3203 3.57343 -3.19128 0
M  V30 52 H 2.6843 1.9628 -1.62316 0
M  V30 53 H 3.4673 1.32368 -3.16755 0
M  V30 54 N 5.9124 1.20967 1.01018 0
M  V30 55 C 7.1894 0.93264 1.71934 0
M  V30 56 C 7.5694 -0.55692 2.03621 0
M  V30 57 O 6.9174 -1.52035 1.7058 0
M  V30 58 C 7.1274 1.81233 2.98254 0
M  V30 59 C 8.4754 2.05804 3.71389 0
M  V30 60 O 9.4994 1.78539 3.08225 0
M  V30 61 O 8.3584 2.51888 4.84989 0
M  V30 62 H 5.4524 0.349272 0.749625 0
M  V30 63 H 7.9984 1.31871 1.06808 0
M  V30 64 H 6.7704 2.82067 2.71208 0
M  V30 65 H 6.3934 1.42674 3.7112 0
M  V30 66 N 7.3905 -1.2043 1.01659 0
M  V30 67 C 8.6365 -1.90356 0.716674 0
M  V30 68 C 8.9915 -1.77367 -0.745557 0
M  V30 69 O 8.2845 -1.1471 -1.53467 0
M  V30 70 C 8.4785 -3.40464 1.08714 0
M  V30 71 C 8.3075 -3.6806 2.58384 0
M  V30 72 C 7.0775 -3.86775 3.25167 0
M  V30 73 C 9.2755 -3.70623 3.56572 0
M  V30 74 N 7.2575 -4.01889 4.64067 0
M  V30 75 C 8.6285 -3.91161 4.81034 0
M  V30 76 C 10.6835 -3.53586 3.50544 0
M  V30 77 C 9.3865 -3.96428 6.00198 0
M  V30 78 C 11.4125 -3.60125 4.6911 0
M  V30 79 C 10.7745 -3.81135 5.92381 0
M  V30 80 H 6.8735 -0.716226 0.313918 0
M  V30 81 H 9.4575 -1.44815 1.30141 0
M  V30 82 H 7.6285 -3.84757 0.530745 0
M  V30 83 H 9.3605 -3.97863 0.740763 0
M  V30 84 H 6.1155 -3.85156 2.75594 0
M  V30 85 H 6.5395 -4.13323 5.36184 0
M  V30 86 H 11.1815 -3.36308 2.56235 0
M  V30 87 H 8.8995 -4.12502 6.94887 0
M  V30 88 H 12.4855 -3.4825 4.66062 0
M  V30 89 H 11.3655 -3.86054 6.82592 0
M  V30 90 N 8.8686 -0.792821 -1.36206 0
M  V30 91 C 10.1166 -0.366062 -1.98757 0
M  V30 92 C 10.4376 1.0668 -1.63231 0
M  V30 93 O 9.7076 1.73587 -0.907978 0
M  V30 94 H 8.2876 -0.132364 -0.735179 0
M  V30 95 H 10.9496 -1.01562 -1.66347 0
M  V30 96 H 10.0456 -0.460638 -3.08682 0
M  V30 97 N 10.3467 1.47872 -0.545128 0
M  V30 98 C 11.5767 2.06589 -0.0210534 0
M  V30 99 C 11.9847 1.39997 1.27269 0
M  V30 100 O 11.3277 0.486421 1.77143 0
M  V30 101 C 11.3897 3.58574 0.257933 0
M  V30 102 C 11.0537 4.47132 -0.944573 0
M  V30 103 C 12.0507 4.85986 -1.84699 0
M  V30 104 C 9.7357 4.88821 -1.15584 0
M  V30 105 C 11.7297 5.65314 -2.94446 0
M  V30 106 C 9.4167 5.67916 -2.25642 0
M  V30 107 C 10.4147 6.06073 -3.14905 0
M  V30 108 O 10.1027 6.83578 -4.23057 0
M  V30 109 H 9.8347 0.674971 -0.0372899 0
M  V30 110 H 12.3887 1.91037 -0.754599 0
M  V30 111 H 10.6187 3.72295 1.04564 0
M  V30 112 H 12.3077 3.99356 0.72592 0
M  V30 113 H 13.0737 4.54388 -1.69577 0
M  V30 114 H 8.9527 4.58595 -0.470279 0
M  V30 115 H 12.4967 5.95016 -3.64145 0
M  V30 116 H 8.3937 5.98927 -2.40742 0
M  V30 117 H 9.1617 7.01954 -4.20954 0
M  V30 118 N 11.8248 0.280983 1.55075 0
M  V30 119 C 13.1018 -0.386207 1.91749 0
M  V30 120 C 13.4818 -1.73264 1.20594 0
M  V30 121 O 12.8298 -2.26034 0.334784 0
M  V30 122 C 13.0398 -0.520687 3.45094 0
M  V30 123 C 14.3878 -0.800865 4.16979 0
M  V30 124 O 15.4118 -0.605271 3.5102 0
M  V30 125 O 14.2708 -1.1753 5.33712 0
M  V30 126 H 11.3648 -0.212408 0.799257 0
M  V30 127 H 13.9108 0.327568 1.66509 0
M  V30 128 H 12.6828 0.426633 3.88967 0
M  V30 129 H 12.3058 -1.2837 3.76307 0
M  V30 130 N 13.3029 -1.57598 0.00835791 0
M  V30 131 C 14.5799 -1.82172 -0.712235 0
M  V30 132 C 14.9599 -0.887873 -1.9152 0
M  V30 133 O 14.3079 0.06146 -2.28417 0
M  V30 134 C 14.5179 -3.30875 -1.11008 0
M  V30 135 C 15.8659 -3.96826 -1.51044 0
M  V30 136 O 16.8899 -3.35248 -1.20364 0
M  V30 137 O 15.7489 -5.05318 -2.08125 0
M  V30 138 H 12.8429 -0.750435 -0.347529 0
M  V30 139 H 15.3889 -1.69665 0.0344523 0
M  V30 140 H 14.1609 -3.90481 -0.252982 0
M  V30 141 H 13.7839 -3.48412 -1.9156 0
M  V30 142 N 14.781 0.264519 -1.55364 0
M  V30 143 C 15.728 1.32717 -1.88825 0
M  V30 144 C 16.698 1.48675 -0.740605 0
M  V30 145 O 17.883 1.62945 -0.992657 0
M  V30 146 C 15.023 2.68089 -2.17307 0
M  V30 147 C 14.136 2.60284 -3.44785 0
M  V30 148 C 13.271 3.87892 -3.62924 0
M  V30 149 C 12.31 3.74631 -4.84064 0
M  V30 150 N 11.447 4.94092 -4.98816 0
M  V30 151 H 16.287 1.03481 -2.79456 0
M  V30 152 H 13.824 0.499757 -1.3835 0
M  V30 153 H 15.782 3.46864 -2.31821 0
M  V30 154 H 14.412 2.95509 -1.299 0
M  V30 155 H 13.464 1.73173 -3.38697 0
M  V30 156 H 14.776 2.46388 -4.33698 0
M  V30 157 H 13.93 4.75109 -3.77302 0
M  V30 158 H 12.669 4.04664 -2.7221 0
M  V30 159 H 11.674 2.85797 -4.69681 0
M  V30 160 H 12.899 3.5937 -5.76221 0
M  V30 161 H 10.845 5.11259 -4.11036 0
M  V30 162 H 10.762 4.8276 -5.81789 0
M  V30 163 H 12.03 5.82857 -5.17588 0
M  V30 164 N 16.2591 1.48442 0.529413 0
M  V30 165 C 17.2071 1.63452 1.65487 0
M  V30 166 C 18.2011 0.500955 1.61823 0
M  V30 167 O 19.4071 0.679695 1.66674 0
M  V30 168 H 15.7821 0.514905 0.548066 0
M  V30 169 H 17.7531 2.57975 1.49971 0
M  V30 170 C 16.5021 1.69196 3.03756 0
M  V30 171 H 15.8251 2.55784 3.07269 0
M  V30 172 H 17.2651 1.83743 3.82119 0
M  V30 173 C 15.7241 0.430765 3.34135 0
M  V30 174 O 16.2541 -0.4561 3.99102 0
M  V30 175 N 14.4601 0.302293 2.89023 0
M  V30 176 H 14.0071 1.02496 2.36331 0
M  V30 177 H 13.9651 -0.540546 3.09718 0
M  V30 178 N 17.7372 -0.778329 1.37039 0
M  V30 179 C 18.9852 -1.53361 1.31623 0
M  V30 180 C 19.3062 -1.94739 -0.100831 0
M  V30 181 O 18.5762 -1.65797 -1.04347 0
M  V30 182 H 17.1562 -0.568794 0.484234 0
M  V30 183 H 19.8182 -0.926742 1.71457 0
M  V30 184 H 18.9142 -2.43606 1.95096 0
M  V30 185 N 19.2153 -1.21501 -1.00376 0
M  V30 186 C 20.6263 -1.03146 -1.55621 0
M  V30 187 C 20.9773 0.408375 -1.91903 0
M  V30 188 O 20.1023 1.29177 -1.73616 0
M  V30 189 C 20.6973 -1.86612 -2.82775 0
M  V30 190 C 19.2563 -1.72586 -3.34501 0
M  V30 191 C 18.4033 -1.83747 -2.07683 0
M  V30 192 H 21.3543 -1.35505 -0.826081 0
M  V30 193 H 21.3753 -1.3771 -3.54706 0
M  V30 194 H 20.8873 -2.91399 -2.56336 0
M  V30 195 H 18.9883 -0.704877 -3.65872 0
M  V30 196 H 19.1013 -2.54623 -4.05837 0
M  V30 197 H 17.4653 -1.27069 -2.20739 0
M  V30 198 H 18.2483 -2.90044 -1.83655 0
M  V30 199 N 20.6934 1.19889 -1.02296 0
M  V30 200 C 21.6034 2.26571 -0.608508 0
M  V30 201 C 22.6194 1.70299 0.356964 0
M  V30 202 O 23.7954 2.00235 0.216326 0
M  V30 203 C 20.8604 3.46677 0.0402814 0
M  V30 204 C 19.9214 4.18153 -0.97194 0
M  V30 205 C 19.1544 5.32525 -0.354016 0
M  V30 206 O 19.3774 5.64112 0.844604 0
M  V30 207 O 18.3114 5.92242 -1.07391 0
M  V30 208 H 22.1374 2.64251 -1.49684 0
M  V30 209 H 19.7224 1.26629 -0.792809 0
M  V30 210 H 21.6044 4.19475 0.402324 0
M  V30 211 H 20.2794 3.10858 0.902707 0
M  V30 212 H 19.1864 3.47499 -1.38546 0
M  V30 213 H 20.5194 4.57927 -1.80454 0
M  V30 214 N 22.1715 0.800033 1.35784 0
M  V30 215 C 23.1035 0.163596 2.28615 0
M  V30 216 C 24.1165 -0.633317 1.49976 0
M  V30 217 O 25.3055 -0.466754 1.72289 0
M  V30 218 C 22.4055 -0.790958 3.29541 0
M  V30 219 C 21.5785 -0.0418255 4.3738 0
M  V30 220 C 20.6375 -0.91389 5.18203 0
M  V30 221 O 19.6635 -0.367234 5.68014 0
M  V30 222 N 20.8655 -2.23682 5.35674 0
M  V30 223 H 23.6305 0.96105 2.83873 0
M  V30 224 H 21.1915 0.654894 1.48063 0
M  V30 225 H 23.1835 -1.37844 3.80501 0
M  V30 226 H 21.7535 -1.48925 2.74846 0
M  V30 227 H 20.9735 0.726813 3.87442 0
M  V30 228 H 22.2615 0.474719 5.06581 0
M  V30 229 H 21.6595 -2.70497 4.96838 0
M  V30 230 H 20.2165 -2.77369 5.89839 0
M  V30 231 N 23.6496 -1.47581 0.552962 0
M  V30 232 C 24.8956 -2.03369 0.0355807 0
M  V30 233 C 25.2506 -1.42016 -1.29805 0
M  V30 234 O 24.5436 -0.564917 -1.83083 0
M  V30 235 C 24.7376 -3.57199 -0.119728 0
M  V30 236 C 24.5666 -4.33468 1.1973 0
M  V30 237 C 23.3366 -4.7353 1.76345 0
M  V30 238 C 25.5346 -4.68866 2.11351 0
M  V30 239 N 23.5166 -5.34426 3.02097 0
M  V30 240 C 24.8876 -5.3002 3.21681 0
M  V30 241 C 26.9426 -4.50795 2.11397 0
M  V30 242 C 25.6456 -5.75011 4.32151 0
M  V30 243 C 27.6716 -4.96782 3.20876 0
M  V30 244 C 27.0336 -5.57981 4.29926 0
M  V30 245 H 23.1326 -0.780058 0.0550806 0
M  V30 246 H 25.7166 -1.80117 0.739315 0
M  V30 247 H 23.8876 -3.80227 -0.792579 0
M  V30 248 H 25.6196 -3.99627 -0.638792 0
M  V30 249 H 22.3746 -4.55352 1.30196 0
M  V30 250 H 22.7986 -5.69421 3.66182 0
M  V30 251 H 27.4406 -4.0284 1.28372 0
M  V30 252 H 25.1586 -6.21959 5.15938 0
M  V30 253 H 28.7446 -4.84573 3.21994 0
M  V30 254 H 27.6246 -5.92918 5.13243 0
M  V30 255 N 25.1277 -0.289203 -1.54924 0
M  V30 256 C 26.3527 0.329299 -2.04769 0
M  V30 257 C 26.7777 1.4763 -1.16564 0
M  V30 258 O 26.1357 1.80527 -0.167186 0
M  V30 259 C 26.1837 0.774438 -3.52186 0
M  V30 260 O 25.2877 1.88038 -3.67036 0
M  V30 261 H 24.6287 0.0659259 -0.660719 0
M  V30 262 H 27.1587 -0.42761 -2.00082 0
M  V30 263 H 27.1687 1.06642 -3.93816 0
M  V30 264 H 25.8437 -0.0646707 -4.1585 0
M  V30 265 H 24.4207 1.58985 -3.3731 0
M  V30 266 N 26.6058 1.57591 -0.0167156 0
M  V30 267 C 27.5528 2.09462 0.969251 0
M  V30 268 C 28.5228 0.99381 1.33089 0
M  V30 269 O 29.7078 1.26726 1.42636 0
M  V30 270 C 26.8478 2.61622 2.25051 0
M  V30 271 C 25.9608 3.85666 1.94642 0
M  V30 272 C 25.0958 4.26266 3.16972 0
M  V30 273 C 24.1348 5.43101 2.82326 0
M  V30 274 N 23.2718 5.78915 3.97243 0
M  V30 275 H 28.1118 2.93428 0.519997 0
M  V30 276 H 25.6488 1.45044 0.245087 0
M  V30 277 H 27.6068 2.89949 2.99976 0
M  V30 278 H 26.2368 1.80505 2.67615 0
M  V30 279 H 25.2888 3.64145 1.10013 0
M  V30 280 H 26.6008 4.70678 1.65117 0
M  V30 281 H 25.7548 4.55963 4.00228 0
M  V30 282 H 24.4938 3.39996 3.49648 0
M  V30 283 H 23.4988 5.1311 1.97479 0
M  V30 284 H 24.7238 6.3106 2.50879 0
M  V30 285 H 22.6698 4.95602 4.29785 0
M  V30 286 H 22.5868 6.58539 3.71299 0
M  V30 287 H 23.8548 6.13212 4.81239 0
M  V30 288 N 28.0839 -0.256276 1.55502 0
M  V30 289 C 29.0139 -1.32102 1.92539 0
M  V30 290 C 29.9949 -1.50684 0.789194 0
M  V30 291 O 31.1799 -1.63449 1.04872 0
M  V30 292 C 28.3099 -2.67752 2.21192 0
M  V30 293 C 27.2639 -2.63878 3.36975 0
M  V30 294 C 26.5899 -4.03236 3.51147 0
M  V30 295 C 27.8899 -2.21682 4.72921 0
M  V30 296 H 29.5839 -1.01351 2.81724 0
M  V30 297 H 27.1299 -0.486105 1.35547 0
M  V30 298 H 29.0829 -3.42365 2.45691 0
M  V30 299 H 27.8069 -3.0012 1.28824 0
M  V30 300 H 26.4659 -1.91722 3.12471 0
M  V30 301 H 26.1139 -4.32854 2.56216 0
M  V30 302 H 25.8139 -4.01535 4.29003 0
M  V30 303 H 27.3379 -4.79563 3.77957 0
M  V30 304 H 28.7519 -2.86023 4.96854 0
M  V30 305 H 27.1489 -2.3111 5.53812 0
M  V30 306 H 28.2189 -1.16833 4.70615 0
M  V30 307 N 29.562 -1.4872 -0.521534 0
M  V30 308 C 30.792 -1.6061 -1.29954 0
M  V30 309 C 31.2 -0.268728 -1.87282 0
M  V30 310 O 30.543 0.753221 -1.67548 0
M  V30 311 C 30.605 -2.60013 -2.48261 0
M  V30 312 C 30.269 -4.04874 -2.11957 0
M  V30 313 C 31.266 -4.92304 -1.67132 0
M  V30 314 C 28.951 -4.5047 -2.22221 0
M  V30 315 C 30.945 -6.2336 -1.33047 0
M  V30 316 C 28.632 -5.81544 -1.87748 0
M  V30 317 C 29.63 -6.67812 -1.43234 0
M  V30 318 O 29.318 -7.96446 -1.09217 0
M  V30 319 H 29.05 -0.544116 -0.401141 0
M  V30 320 H 31.604 -1.95339 -0.634958 0
M  V30 321 H 29.834 -2.20422 -3.17728 0
M  V30 322 H 31.523 -2.61648 -3.10315 0
M  V30 323 H 32.289 -4.58312 -1.58665 0
M  V30 324 H 28.168 -3.83504 -2.55823 0
M  V30 325 H 31.712 -6.90649 -0.982299 0
M  V30 326 H 27.609 -6.15069 -1.95858 0
M  V30 327 H 28.377 -8.09275 -1.22542 0
M  V30 328 N 31.0401 0.771051 -1.3745 0
M  V30 329 C 32.4511 1.34737 -1.29239 0
M  V30 330 C 32.8021 1.96109 0.0596908 0
M  V30 331 O 31.9271 1.93865 0.961534 0
M  V30 332 C 32.5221 2.44973 -2.34037 0
M  V30 333 C 31.0811 2.98372 -2.29458 0
M  V30 334 C 30.2281 1.71595 -2.17831 0
M  V30 335 H 33.1791 0.571256 -1.48062 0
M  V30 336 H 33.2001 3.24471 -1.98744 0
M  V30 337 H 32.7121 2.00276 -3.32432 0
M  V30 338 H 30.8131 3.47443 -1.34589 0
M  V30 339 H 30.9261 3.53939 -3.229 0
M  V30 340 H 29.2901 1.94547 -1.64388 0
M  V30 341 H 30.0731 1.29001 -3.18141 0
M  V30 342 N 32.5182 1.22032 0.997298 0
M  V30 343 C 33.7672 1.03637 1.73038 0
M  V30 344 C 34.0802 -0.429475 1.90827 0
M  V30 345 O 35.2862 -0.732995 2.61418 0
M  V30 346 C 33.7422 1.80582 3.11317 0
M  V30 347 C 33.3502 3.31387 3.01474 0
M  V30 348 C 35.0942 1.70621 3.88701 0
M  V30 349 C 33.0012 4.00791 4.3488 0
M  V30 350 H 31.9312 0.384179 0.648785 0
M  V30 351 H 34.5822 1.4584 1.11368 0
M  V30 352 H 32.9642 1.31175 3.73643 0
M  V30 353 H 34.1382 3.88155 2.4834 0
M  V30 354 H 32.4532 3.41976 2.37575 0
M  V30 355 H 35.0502 2.19799 4.87434 0
M  V30 356 H 35.3932 0.665823 4.10941 0
M  V30 357 H 35.9262 2.17547 3.33044 0
M  V30 358 H 32.6652 5.05064 4.1784 0
M  V30 359 H 32.1852 3.48811 4.87945 0
M  V30 360 H 33.8642 4.06139 5.03647 0
M  V30 361 N 33.9963 -1.19345 1.0293 0
M  V30 362 C 34.9593 -2.20793 0.615069 0
M  V30 363 C 35.9593 -1.57553 -0.321533 0
M  V30 364 O 37.1493 -1.73862 -0.108483 0
M  V30 365 C 34.2813 -3.40754 -0.0999222 0
M  V30 366 H 35.4743 -2.58955 1.51269 0
M  V30 367 H 33.0273 -1.3303 0.820534 0
M  V30 368 H 33.7623 -3.0811 -1.01187 0
M  V30 369 H 33.5473 -3.87889 0.57309 0
M  V30 370 H 35.0373 -4.15898 -0.376645 0
M  V30 371 N 35.4744 -0.807222 -1.35358 0
M  V30 372 C 36.4224 -0.20614 -2.31685 0
M  V30 373 C 37.4164 0.644445 -1.56663 0
M  V30 374 O 38.6224 0.537538 -1.71786 0
M  V30 375 H 34.9974 -0.0479006 -0.750473 0
M  V30 376 H 36.9684 -1.03369 -2.79924 0
M  V30 377 C 35.7174 0.630212 -3.41941 0
M  V30 378 H 35.0404 -0.0149558 -3.99797 0
M  V30 379 H 36.4804 1.01716 -4.11619 0
M  V30 380 C 34.9394 1.79601 -2.85035 0
M  V30 381 O 35.4694 2.89351 -2.78637 0
M  V30 382 N 33.6754 1.60774 -2.42074 0
M  V30 383 H 33.2224 0.715009 -2.47478 0
M  V30 384 H 33.1804 2.38933 -2.04349 0
M  V30 385 N 36.9525 1.47285 -0.560781 0
M  V30 386 C 38.2005 2.02064 -0.0379868 0
M  V30 387 C 38.5215 1.43711 1.31803 0
M  V30 388 O 37.7915 0.61362 1.86042 0
M  V30 389 H 36.3715 0.746918 -0.0110531 0
M  V30 390 H 39.0335 1.80648 -0.731598 0
M  V30 391 H 38.1295 3.12064 0.0474463 0
M  V30 392 N 38.4306 0.297415 1.54768 0
M  V30 393 C 39.3786 -0.596051 2.24833 0
M  V30 394 C 40.3726 -1.13992 1.25308 0
M  V30 395 O 41.5786 -1.09098 1.4317 0
M  V30 396 H 37.9536 -0.210814 0.721846 0
M  V30 397 H 39.9246 0.0174667 2.98395 0
M  V30 398 C 38.6736 -1.75818 2.99972 0
M  V30 399 H 37.9966 -1.3489 3.76357 0
M  V30 400 H 39.4366 -2.35949 3.52284 0
M  V30 401 C 37.8956 -2.66014 2.06732 0
M  V30 402 O 38.4256 -3.67009 1.63302 0
M  V30 403 N 36.6316 -2.33669 1.72763 0
M  V30 404 H 36.1786 -1.51586 2.08277 0
M  V30 405 H 36.1366 -2.94285 1.10652 0
M  V30 406 N 39.9087 -1.5758 0.0250728 0
M  V30 407 C 40.8567 -2.11125 -0.97617 0
M  V30 408 C 41.8507 -1.03689 -1.33959 0
M  V30 409 O 43.0567 -1.22128 -1.3223 0
M  V30 410 H 39.4317 -0.674468 -0.332561 0
M  V30 411 H 41.4027 -2.94194 -0.499223 0
M  V30 412 C 40.1517 -2.65017 -2.2508 0
M  V30 413 H 39.4747 -3.47333 -1.9799 0
M  V30 414 H 40.9147 -3.06133 -2.93357 0
M  V30 415 C 39.3737 -1.57574 -2.97779 0
M  V30 416 O 39.9037 -0.973203 -3.89733 0
M  V30 417 N 38.1097 -1.29716 -2.60043 0
M  V30 418 H 37.6567 -1.789 -1.85345 0
M  V30 419 H 37.6147 -0.58051 -3.08994 0
M  V30 420 N 41.3868 0.248026 -1.55636 0
M  V30 421 C 42.3188 1.32993 -1.8667 0
M  V30 422 C 43.3318 1.44345 -0.752877 0
M  V30 423 O 44.5208 1.45715 -1.03098 0
M  V30 424 C 41.6208 2.70863 -2.03682 0
M  V30 425 C 40.7938 2.81792 -3.34532 0
M  V30 426 C 39.8528 4.005 -3.41301 0
M  V30 427 O 38.8788 3.9008 -4.14519 0
M  V30 428 N 40.0808 5.13618 -2.70512 0
M  V30 429 H 42.8458 1.06707 -2.8006 0
M  V30 430 H 40.4068 0.438129 -1.55859 0
M  V30 431 H 42.3988 3.48612 -2.05553 0
M  V30 432 H 40.9688 2.89862 -1.17041 0
M  V30 433 H 40.1888 1.90729 -3.44987 0
M  V30 434 H 41.4768 2.86043 -4.20781 0
M  V30 435 H 40.8748 5.24975 -2.10755 0
M  V30 436 H 39.4318 5.89505 -2.78077 0
M  V30 437 N 42.8649 1.48995 0.513639 0
M  V30 438 C 44.0899 1.61792 1.29762 0
M  V30 439 C 44.5149 0.284475 1.85936 0
M  V30 440 O 43.8729 -0.746185 1.65232 0
M  V30 441 C 43.9209 2.67993 2.41272 0
M  V30 442 O 43.0249 2.26287 3.44772 0
M  V30 443 H 42.3659 0.541963 0.38363 0
M  V30 444 H 44.8959 1.95097 0.616307 0
M  V30 445 H 44.9059 2.89772 2.87221 0
M  V30 446 H 43.5809 3.64791 1.9975 0
M  V30 447 H 42.1579 2.14788 3.04829 0
M  V30 448 N 44.343 -0.763751 1.37857 0
M  V30 449 C 45.754 -1.3405 1.29952 0
M  V30 450 C 46.105 -1.96138 -0.0492898 0
M  V30 451 O 45.23 -1.94372 -0.951239 0
M  V30 452 C 45.825 -2.43729 2.35333 0
M  V30 453 C 44.384 -2.97151 2.31037 0
M  V30 454 C 43.531 -1.70438 2.18738 0
M  V30 455 H 46.482 -0.563396 1.48363 0
M  V30 456 H 46.503 -3.23412 2.00462 0
M  V30 457 H 46.015 -1.9851 3.33489 0
M  V30 458 H 44.116 -3.46724 1.3643 0
M  V30 459 H 44.229 -3.52221 3.24772 0
M  V30 460 H 42.593 -1.93673 1.65418 0
M  V30 461 H 43.376 -1.27312 3.18821 0
M  V30 462 N 45.8211 -1.22559 -0.990812 0
M  V30 463 C 47.0671 -1.05297 -1.73322 0
M  V30 464 C 47.4001 0.410655 -1.89808 0
M  V30 465 O 46.6751 1.30439 -1.44277 0
M  V30 466 C 46.9581 -1.76713 -3.13759 0
M  V30 467 C 46.8111 -3.30684 -3.04907 0
M  V30 468 C 48.1301 -1.52121 -4.12974 0
M  V30 469 H 45.2491 -0.38392 -0.629106 0
M  V30 470 H 47.8911 -1.50926 -1.15418 0
M  V30 471 H 46.0411 -1.37924 -3.63193 0
M  V30 472 H 47.7131 -3.7893 -2.63077 0
M  V30 473 H 45.9561 -3.60253 -2.41661 0
M  V30 474 H 46.6271 -3.75833 -4.04294 0
M  V30 475 H 49.1031 -1.85819 -3.72304 0
M  V30 476 H 47.9791 -2.04582 -5.0935 0
M  V30 477 H 48.2401 -0.454257 -4.3976 0
M  V30 478 N 47.2992 1.18797 -1.03562 0
M  V30 479 C 48.5762 1.84469 -0.650434 0
M  V30 480 C 48.9562 1.92319 0.870433 0
M  V30 481 O 48.3042 1.44528 1.76986 0
M  V30 482 C 48.5142 3.2306 -1.32036 0
M  V30 483 C 49.8622 3.9915 -1.44792 0
M  V30 484 O 50.8862 3.32481 -1.27806 0
M  V30 485 O 49.7452 5.18587 -1.72423 0
M  V30 486 H 46.8392 0.795251 -0.226946 0
M  V30 487 H 49.3852 1.26231 -1.13419 0
M  V30 488 H 48.1572 3.1222 -2.3587 0
M  V30 489 H 47.7802 3.88949 -0.8249 0
M  V30 490 N 48.7773 0.814389 1.34928 0
M  V30 491 C 50.0263 0.394871 1.97797 0
M  V30 492 C 50.3393 -1.04555 1.65311 0
M  V30 493 O 51.5453 -1.56856 2.21604 0
M  V30 494 C 50.0013 0.655103 3.53888 0
M  V30 495 C 49.6093 2.10858 3.95276 0
M  V30 496 C 51.3533 0.301329 4.23429 0
M  V30 497 C 49.2603 2.31415 5.44244 0
M  V30 498 H 48.1903 0.143913 0.740139 0
M  V30 499 H 50.8413 0.999544 1.53888 0
M  V30 500 H 49.2233 -0.0196253 3.95995 0
M  V30 501 H 50.3973 2.82176 3.64298 0
M  V30 502 H 48.7123 2.42297 3.38646 0
M  V30 503 H 51.3093 0.432869 5.32945 0
M  V30 504 H 51.6523 -0.75331 4.09428 0
M  V30 505 H 52.1853 0.930288 3.86769 0
M  V30 506 H 48.9243 3.35353 5.63222 0
M  V30 507 H 48.4443 1.6463 5.76764 0
M  V30 508 H 50.1233 2.13352 6.10811 0
M  V30 509 N 50.2554 -1.46986 0.568584 0
M  V30 510 C 51.2024 -2.30153 -0.172707 0
M  V30 511 C 52.1724 -1.39759 -0.897586 0
M  V30 512 O 53.3574 -1.68716 -0.891044 0
M  V30 513 C 50.4974 -3.23952 -1.1895 0
M  V30 514 C 49.6104 -4.29441 -0.469517 0
M  V30 515 C 48.7454 -5.1038 -1.47259 0
M  V30 516 C 47.7844 -6.07632 -0.738225 0
M  V30 517 N 46.9214 -6.8149 -1.68868 0
M  V30 518 H 51.7614 -2.93019 0.542596 0
M  V30 519 H 49.2984 -1.44422 0.279401 0
M  V30 520 H 51.2564 -3.76767 -1.79173 0
M  V30 521 H 49.8864 -2.62926 -1.87269 0
M  V30 522 H 48.9384 -3.79594 0.247467 0
M  V30 523 H 50.2504 -4.98689 0.105241 0
M  V30 524 H 49.4044 -5.67402 -2.14803 0
M  V30 525 H 48.1434 -4.4106 -2.08128 0
M  V30 526 H 47.1484 -5.49778 -0.0489293 0
M  V30 527 H 48.3734 -6.78966 -0.135129 0
M  V30 528 H 46.3194 -6.14891 -2.28573 0
M  V30 529 H 46.2364 -7.46948 -1.16636 0
M  V30 530 H 47.5044 -7.43078 -2.3549 0
M  V30 531 N 51.7335 -0.305618 -1.54608 0
M  V30 532 C 52.9615 0.304775 -2.04643 0
M  V30 533 C 53.3765 1.47167 -1.18268 0
M  V30 534 O 52.7335 1.81296 -0.209328 0
M  V30 535 C 52.7845 0.756564 -3.53495 0
M  V30 536 O 52.5055 -0.36389 -4.36586 0
M  V30 537 C 54.0065 1.43163 -4.19546 0
M  V30 538 H 51.2265 0.0655481 -0.667791 0
M  V30 539 H 53.7705 -0.446592 -1.99564 0
M  V30 540 H 51.9255 1.45794 -3.58919 0
M  V30 541 H 52.3395 -0.0113121 -5.24499 0
M  V30 542 H 53.8135 1.69886 -5.25207 0
M  V30 543 H 54.2905 2.37318 -3.69563 0
M  V30 544 H 54.8965 0.773307 -4.18211 0
M  V30 545 N 53.2116 1.57565 -0.0334293 0
M  V30 546 C 54.4366 1.96689 0.657895 0
M  V30 547 C 54.8616 0.910057 1.64619 0
M  V30 548 O 54.2196 -0.128598 1.80843 0
M  V30 549 C 54.2676 3.34905 1.33683 0
M  V30 550 O 53.3716 3.31574 2.45219 0
M  V30 551 H 52.7126 0.641205 0.172489 0
M  V30 552 H 55.2426 2.04372 -0.0965621 0
M  V30 553 H 55.2526 3.71234 1.69262 0
M  V30 554 H 53.9276 4.11366 0.612411 0
M  V30 555 H 52.5046 3.06968 2.11719 0
M  V30 556 N 54.6897 -0.239769 1.55765 0
M  V30 557 C 55.5997 -1.31831 1.94056 0
M  V30 558 C 56.6157 -1.52275 0.841925 0
M  V30 559 O 57.7917 -1.65759 1.14394 0
M  V30 560 C 54.8567 -2.65156 2.23368 0
M  V30 561 C 53.9177 -2.53173 3.46701 0
M  V30 562 C 53.1507 -3.8014 3.74606 0
M  V30 563 O 53.3737 -4.82343 3.04469 0
M  V30 564 O 52.3077 -3.78344 4.68123 0
M  V30 565 H 56.1337 -1.02347 2.85935 0
M  V30 566 H 53.7187 -0.441123 1.42739 0
M  V30 567 H 55.6007 -3.43929 2.43497 0
M  V30 568 H 54.2757 -2.94358 1.34666 0
M  V30 569 H 53.1827 -1.72662 3.31871 0
M  V30 570 H 54.5157 -2.28915 4.35728 0
M  V30 571 N 56.1678 -1.49265 -0.50573 0
M  V30 572 C 57.3958 -1.62215 -1.28429 0
M  V30 573 C 57.8108 -0.291697 -1.86533 0
M  V30 574 O 57.1678 0.722233 -1.67601 0
M  V30 575 C 57.2188 -2.68735 -2.41793 0
M  V30 576 O 56.9398 -3.96619 -1.86078 0
M  V30 577 C 58.4408 -2.92346 -3.3324 0
M  V30 578 H 55.6608 -0.546239 -0.389697 0
M  V30 579 H 58.2048 -1.95265 -0.607609 0
M  V30 580 H 56.3598 -2.38476 -3.053 0
M  V30 581 H 56.7738 -4.55256 -2.60465 0
M  V30 582 H 58.2478 -3.70623 -4.09075 0
M  V30 583 H 58.7248 -2.02081 -3.89948 0
M  V30 584 H 59.3308 -3.24003 -2.75503 0
M  V30 585 N 57.6459 0.756429 -1.3826 0
M  V30 586 C 58.5929 1.87011 -1.35261 0
M  V30 587 C 59.5629 1.64695 -0.215616 0
M  V30 588 O 60.7479 1.864 -0.407399 0
M  V30 589 C 57.8879 3.24275 -1.18068 0
M  V30 590 C 57.0009 3.58442 -2.41129 0
M  V30 591 C 56.1359 4.84994 -2.16689 0
M  V30 592 C 55.1749 5.11939 -3.35537 0
M  V30 593 N 54.3119 6.29685 -3.10549 0
M  V30 594 H 59.1519 1.8891 -2.30472 0
M  V30 595 H 56.6889 0.923373 -1.14509 0
M  V30 596 H 58.6469 4.03479 -1.06116 0
M  V30 597 H 57.2769 3.21711 -0.264973 0
M  V30 598 H 56.3289 2.74103 -2.63764 0
M  V30 599 H 57.6409 3.74283 -3.29717 0
M  V30 600 H 56.7949 5.72135 -2.01857 0
M  V30 601 H 55.5339 4.71286 -1.25462 0
M  V30 602 H 54.5389 4.23268 -3.50891 0
M  V30 603 H 55.7639 5.27546 -4.27635 0
M  V30 604 H 53.7099 6.17306 -2.21967 0
M  V30 605 H 53.6269 6.46014 -3.92686 0
M  V30 606 H 54.8949 7.19722 -2.99367 0
M  V30 607 N 59.124 1.23083 0.984299 0
M  V30 608 C 60.074 0.975749 2.06066 0
M  V30 609 C 61.058 -0.0768251 1.60716 0
M  V30 610 O 62.25 0.134805 1.76486 0
M  V30 611 C 59.379 0.564673 3.38624 0
M  V30 612 C 58.465 1.65244 3.90583 0
M  V30 613 N 58.856 2.88193 4.15666 0
M  V30 614 C 57.154 1.52612 4.19077 0
M  V30 615 C 57.855 3.58593 4.58024 0
M  V30 616 N 56.831 2.86093 4.62225 0
M  V30 617 H 60.633 1.90957 2.23411 0
M  V30 618 H 58.147 1.12963 1.16675 0
M  V30 619 H 60.144 0.36322 4.15315 0
M  V30 620 H 58.804 -0.362147 3.22674 0
M  V30 621 H 59.815 3.24537 4.03604 0
M  V30 622 H 56.492 0.666121 4.12152 0
M  V30 623 H 57.882 4.63974 4.85982 0
M  V30 624 N 60.6021 -1.18246 1.0419 0
M  V30 625 C 61.8791 -1.84121 0.660208 0
M  V30 626 C 62.2591 -1.92778 -0.860221 0
M  V30 627 O 61.6071 -1.45464 -1.76217 0
M  V30 628 C 61.8171 -3.22355 1.33747 0
M  V30 629 C 63.1651 -3.98376 1.46906 0
M  V30 630 O 64.1891 -3.31799 1.29568 0
M  V30 631 O 63.0481 -5.17665 1.75171 0
M  V30 632 H 60.1421 -0.794036 0.231161 0
M  V30 633 H 62.6881 -1.25628 1.14087 0
M  V30 634 H 61.4601 -3.10964 2.37522 0
M  V30 635 H 61.0831 -3.88506 0.845515 0
M  V30 636 N 62.0802 -0.821533 -1.34494 0
M  V30 637 C 63.3082 -0.421884 -2.02553 0
M  V30 638 C 63.7232 0.971745 -1.61872 0
M  V30 639 O 63.0802 1.62864 -0.823496 0
M  V30 640 C 63.1312 -0.51285 -3.57844 0
M  V30 641 O 62.8522 -1.85155 -3.97051 0
M  V30 642 C 64.3532 -0.107921 -4.43169 0
M  V30 643 H 61.5732 -0.169482 -0.649243 0
M  V30 644 H 64.1172 -1.1093 -1.71798 0
M  V30 645 H 62.2722 0.126474 -3.87193 0
M  V30 646 H 62.6862 -1.82482 -4.91732 0
M  V30 647 H 64.1602 -0.222657 -5.51551 0
M  V30 648 H 64.6372 0.948401 -4.28838 0
M  V30 649 H 65.2432 -0.720989 -4.19144 0
M  V30 650 N 63.5583 1.46682 -0.576371 0
M  V30 651 C 64.7833 2.07304 -0.0630475 0
M  V30 652 C 65.2083 1.42329 1.2298 0
M  V30 653 O 64.5663 0.504865 1.74129 0
M  V30 654 C 64.6143 3.60472 0.095895 0
M  V30 655 O 63.7183 3.95927 1.15394 0
M  V30 656 H 63.0593 0.661288 -0.0599463 0
M  V30 657 H 65.5893 1.88417 -0.797511 0
M  V30 658 H 65.5993 4.06865 0.304071 0
M  V30 659 H 64.2743 4.07157 -0.84828 0
M  V30 660 H 62.8513 3.61252 0.924724 0
M  V30 661 N 65.0364 0.313813 1.54444 0
M  V30 662 C 65.9664 -0.549454 2.26943 0
M  V30 663 C 66.9474 -1.12741 1.27372 0
M  V30 664 O 68.1324 -1.15436 1.56167 0
M  V30 665 C 65.2624 -1.71523 3.01989 0
M  V30 666 C 64.2164 -1.26703 4.08816 0
M  V30 667 C 63.5424 -2.51898 4.71647 0
M  V30 668 C 64.8424 -0.388962 5.2085 0
M  V30 669 H 66.5364 0.0552661 2.99349 0
M  V30 670 H 64.0824 0.0280207 1.43973 0
M  V30 671 H 66.0354 -2.32535 3.51433 0
M  V30 672 H 64.7594 -2.34639 2.27183 0
M  V30 673 H 63.4184 -0.679896 3.6024 0
M  V30 674 H 63.0664 -3.13356 3.93468 0
M  V30 675 H 62.7664 -2.22605 5.43802 0
M  V30 676 H 64.2904 -3.1369 5.23861 0
M  V30 677 H 65.7044 -0.905107 5.6611 0
M  V30 678 H 64.1014 -0.18924 5.99802 0
M  V30 679 H 65.1714 0.582699 4.81386 0
M  V30 680 N 66.5145 -1.57545 0.0417849 0
M  V30 681 C 67.4615 -2.10977 -0.935805 0
M  V30 682 C 68.4315 -1.01486 -1.31491 0
M  V30 683 O 69.6165 -1.2898 -1.40602 0
M  V30 684 C 66.7565 -2.65169 -2.2086 0
M  V30 685 C 65.8695 -3.88714 -1.88482 0
M  V30 686 C 65.0045 -4.31254 -3.1015 0
M  V30 687 C 64.0435 -5.47524 -2.7365 0
M  V30 688 N 63.1805 -5.85162 -3.87982 0
M  V30 689 H 68.0205 -2.94218 -0.473249 0
M  V30 690 H 65.5575 -1.45415 -0.221981 0
M  V30 691 H 67.5155 -2.94685 -2.95325 0
M  V30 692 H 66.1455 -1.8474 -2.64709 0
M  V30 693 H 65.1975 -3.65849 -1.04205 0
M  V30 694 H 66.5095 -4.73245 -1.57608 0
M  V30 695 H 65.6635 -4.62273 -3.92923 0
M  V30 696 H 64.4025 -3.45516 -3.44195 0
M  V30 697 H 63.4075 -5.16187 -1.89291 0
M  V30 698 H 64.6325 -6.34971 -2.40807 0
M  V30 699 H 62.5785 -5.02377 -4.21846 0
M  V30 700 H 62.4955 -6.64362 -3.60775 0
M  V30 701 H 63.7635 -6.20791 -4.71422 0
M  V30 702 N 67.9926 0.231505 -1.5589 0
M  V30 703 C 69.4036 0.799327 -1.68724 0
M  V30 704 C 69.7546 1.85398 -0.642022 0
M  V30 705 O 68.8796 2.1539 0.208784 0
M  V30 706 C 69.4746 1.45664 -3.05888 0
M  V30 707 C 68.0336 1.97197 -3.20609 0
M  V30 708 C 67.1806 0.828552 -2.64632 0
M  V30 709 H 70.1316 0.00702616 -1.58698 0
M  V30 710 H 70.1526 2.32517 -3.01191 0
M  V30 711 H 69.6646 0.688808 -3.81939 0
M  V30 712 H 67.7656 2.76813 -2.4941 0
M  V30 713 H 67.8786 2.15878 -4.27707 0
M  V30 714 H 66.2426 1.23321 -2.22854 0
M  V30 715 H 67.0256 0.0735544 -3.43221 0
M  V30 716 N 69.4707 1.49531 0.497807 0
M  V30 717 C 70.7197 1.58426 1.24837 0
M  V30 718 C 71.0327 0.277643 1.93619 0
M  V30 719 O 72.2387 0.24517 2.70391 0
M  V30 720 C 70.6947 2.79538 2.26686 0
M  V30 721 C 70.3027 4.16971 1.63828 0
M  V30 722 C 72.0467 2.97764 3.0255 0
M  V30 723 C 69.9537 5.29301 2.63807 0
M  V30 724 H 68.8837 0.58989 0.469623 0
M  V30 725 H 71.5347 1.75923 0.521857 0
M  V30 726 H 69.9167 2.55542 3.02514 0
M  V30 727 H 71.0907 4.51116 0.939711 0
M  V30 728 H 69.4057 4.04129 1.00342 0
M  V30 729 H 72.0027 3.78856 3.77323 0
M  V30 730 H 72.3457 2.08448 3.60354 0
M  V30 731 H 72.8787 3.21815 2.33838 0
M  V30 732 H 69.6177 6.20687 2.10779 0
M  V30 733 H 69.1377 4.99606 3.31894 0
M  V30 734 H 70.8167 5.58768 3.2617 0
M  V30 735 N 70.9488 -0.749086 1.3866 0
M  V30 736 C 72.1738 -1.54344 1.38538 0
M  V30 737 C 72.5988 -1.88088 -0.0216655 0
M  V30 738 O 71.9568 -1.50899 -1.00494 0
M  V30 739 C 72.0048 -2.8164 2.25192 0
M  V30 740 O 71.1088 -3.7698 1.67212 0
M  V30 741 H 70.4498 -0.466654 0.472367 0
M  V30 742 H 72.9798 -0.925355 1.82478 0
M  V30 743 H 72.9898 -3.30519 2.3921 0
M  V30 744 H 71.6648 -2.56411 3.27454 0
M  V30 745 H 70.2418 -3.35699 1.6236 0
M  V30 746 N 72.4269 -1.23603 -0.977757 0
M  V30 747 C 73.6729 -1.07129 -1.72195 0
M  V30 748 C 74.0059 0.390501 -1.90233 0
M  V30 749 O 73.2809 1.28902 -1.45653 0
M  V30 750 C 73.5639 -1.80031 -3.11867 0
M  V30 751 C 73.4169 -3.33899 -3.01383 0
M  V30 752 C 74.7359 -1.56492 -4.11337 0
M  V30 753 H 71.8549 -0.390571 -0.624999 0
M  V30 754 H 74.4969 -1.52142 -1.13811 0
M  V30 755 H 72.6469 -1.41768 -3.6171 0
M  V30 756 H 74.3189 -3.81699 -2.59043 0
M  V30 757 H 72.5619 -3.62796 -2.37827 0
M  V30 758 H 73.2329 -3.801 -4.00285 0
M  V30 759 H 75.7089 -1.89757 -3.70313 0
M  V30 760 H 74.5849 -2.09973 -5.07151 0
M  V30 761 H 74.8459 -0.500874 -4.39254 0
M  V30 762 N 73.905 1.17692 -1.04816 0
M  V30 763 C 75.13 1.92327 -0.776207 0
M  V30 764 C 75.555 1.76082 0.661581 0
M  V30 765 O 74.913 1.076 1.45917 0
M  V30 766 C 74.961 3.41539 -1.15687 0
M  V30 767 O 74.065 4.11402 -0.286775 0
M  V30 768 H 73.406 0.599735 -0.284981 0
M  V30 769 H 75.936 1.49201 -1.4 0
M  V30 770 H 75.946 3.92269 -1.12202 0
M  V30 771 H 74.621 3.52684 -2.20425 0
M  V30 772 H 73.198 3.70939 -0.381903 0
M  V30 773 N 75.3831 0.828654 1.34056 0
M  V30 774 C 76.6131 0.431993 2.02033 0
M  V30 775 C 77.0211 -0.96844 1.62536 0
M  V30 776 O 76.3641 -1.6391 0.829408 0
M  V30 777 C 76.4261 0.461224 3.56529 0
M  V30 778 C 76.0901 1.81599 4.1937 0
M  V30 779 C 77.0871 2.7777 4.39477 0
M  V30 780 C 74.7721 2.10604 4.56017 0
M  V30 781 C 76.7661 4.01115 4.95364 0
M  V30 782 C 74.4531 3.34207 5.11614 0
M  V30 783 C 75.4511 4.2928 5.31232 0
M  V30 784 O 75.1391 5.50699 5.8565 0
M  V30 785 H 74.8711 0.170943 0.654029 0
M  V30 786 H 77.4251 1.11988 1.72185 0
M  V30 787 H 75.6551 -0.283388 3.8566 0
M  V30 788 H 77.3441 0.0838149 4.05813 0
M  V30 789 H 78.1101 2.56659 4.11523 0
M  V30 790 H 73.9891 1.37402 4.40047 0
M  V30 791 H 77.5331 4.75333 5.10592 0
M  V30 792 H 73.4301 3.55179 5.38997 0
M  V30 793 H 74.1981 5.52298 6.04077 0
M  V30 794 N 76.8612 -1.46375 0.584142 0
M  V30 795 C 77.8092 -2.32042 -0.161047 0
M  V30 796 C 78.8032 -1.44569 -0.882966 0
M  V30 797 O 80.0092 -1.61186 -0.801191 0
M  V30 798 H 76.3842 -0.748659 -0.0708033 0
M  V30 799 H 78.3552 -2.92704 0.580269 0
M  V30 800 C 77.1042 -3.27762 -1.1605 0
M  V30 801 H 76.4272 -3.95051 -0.614419 0
M  V30 802 H 77.8672 -3.90481 -1.65228 0
M  V30 803 C 76.3262 -2.53218 -2.22221 0
M  V30 804 O 76.8562 -2.29628 -3.29597 0
M  V30 805 N 75.0622 -2.13756 -1.96868 0
M  V30 806 H 74.6092 -2.33142 -1.09557 0
M  V30 807 H 74.5672 -1.642 -2.68115 0
M  V30 808 N 78.3393 -0.321999 -1.54275 0
M  V30 809 C 79.7503 0.166384 -1.85957 0
M  V30 810 C 80.1013 1.51747 -1.24367 0
M  V30 811 O 79.2263 2.09317 -0.549124 0
M  V30 812 C 79.8213 0.308681 -3.37391 0
M  V30 813 C 78.3803 0.741286 -3.69028 0
M  V30 814 C 77.5273 -0.137937 -2.76957 0
M  V30 815 H 80.4783 -0.542335 -1.49146 0
M  V30 816 H 80.4993 1.13984 -3.63026 0
M  V30 817 H 80.0113 -0.674809 -3.82188 0
M  V30 818 H 78.1123 1.73458 -3.29762 0
M  V30 819 H 78.2253 0.546118 -4.75977 0
M  V30 820 H 76.5893 0.386251 -2.51754 0
M  V30 821 H 77.3723 -1.11816 -3.2458 0
M  V30 822 N 79.8174 1.5752 -0.0501392 0
M  V30 823 C 80.7804 2.1037 0.909786 0
M  V30 824 C 81.7804 1.02308 1.24056 0
M  V30 825 O 82.9704 1.28385 1.17741 0
M  V30 826 C 80.1024 2.58708 2.21998 0
M  V30 827 H 81.2954 2.96479 0.451665 0
M  V30 828 H 78.8484 1.55038 0.198248 0
M  V30 829 H 79.5834 1.75989 2.72394 0
M  V30 830 H 79.3684 3.37675 1.99295 0
M  V30 831 H 80.8584 2.99747 2.9076 0
M  V30 832 N 81.2955 -0.223234 1.56011 0
M  V30 833 C 82.5235 -0.964812 1.83027 0
M  V30 834 C 82.9385 -1.78013 0.62904 0
M  V30 835 O 82.2955 -1.78008 -0.402414 0
M  V30 836 C 82.3465 -1.88373 3.08542 0
M  V30 837 O 82.0675 -1.10137 4.2403 0
M  V30 838 C 83.5685 -2.73934 3.48533 0
M  V30 839 H 80.7885 -0.282842 0.608475 0
M  V30 840 H 83.3325 -0.238971 2.03099 0
M  V30 841 H 81.4875 -2.56354 2.9045 0
M  V30 842 H 81.9015 -1.72501 4.95322 0
M  V30 843 H 83.3755 -3.34117 4.39397 0
M  V30 844 H 83.8525 -3.46244 2.70207 0
M  V30 845 H 84.4585 -2.11369 3.69057 0
M  V30 846 N 82.7736 -1.49793 -0.48987 0
M  V30 847 C 83.7366 -1.66752 -1.57246 0
M  V30 848 C 84.7366 -0.538867 -1.51502 0
M  V30 849 O 85.9266 -0.805545 -1.54456 0
M  V30 850 C 83.0586 -1.67528 -2.96896 0
M  V30 851 H 84.2516 -2.63321 -1.43534 0
M  V30 852 H 81.8046 -1.38992 -0.714914 0
M  V30 853 H 82.5396 -0.725837 -3.16073 0
M  V30 854 H 82.3246 -2.49504 -3.02473 0
M  V30 855 H 83.8146 -1.82667 -3.7553 0
M  V30 856 N 84.2517 0.741722 -1.39055 0
M  V30 857 C 85.1987 1.85566 -1.37237 0
M  V30 858 C 86.1687 1.64457 -0.233072 0
M  V30 859 O 87.3537 1.85957 -0.427147 0
M  V30 860 C 84.4937 3.23004 -1.215 0
M  V30 861 C 83.6067 3.55864 -2.44918 0
M  V30 862 C 82.7417 4.82669 -2.21821 0
M  V30 863 C 81.7807 5.08351 -3.40948 0
M  V30 864 N 80.9177 6.26356 -3.17211 0
M  V30 865 H 85.7577 1.86455 -2.32462 0
M  V30 866 H 83.2947 0.911176 -1.15482 0
M  V30 867 H 85.2527 4.02331 -1.10389 0
M  V30 868 H 83.8827 3.21411 -0.29908 0
M  V30 869 H 82.9347 2.7129 -2.66657 0
M  V30 870 H 84.2467 3.70765 -3.33668 0
M  V30 871 H 83.4007 5.69962 -2.07914 0
M  V30 872 H 82.1397 4.69929 -1.30454 0
M  V30 873 H 81.1447 4.19522 -3.55361 0
M  V30 874 H 82.3697 5.22981 -4.33207 0
M  V30 875 H 80.3157 6.14917 -2.28502 0
M  V30 876 H 80.2327 6.41813 -3.99515 0
M  V30 877 H 81.5007 7.16506 -3.06984 0
M  V30 878 N 85.7298 1.2412 0.971189 0
M  V30 879 C 86.6398 1.04747 2.09917 0
M  V30 880 C 87.6558 -0.0107162 1.73997 0
M  V30 881 O 88.8318 0.186714 2.00533 0
M  V30 882 C 85.8968 0.650828 3.40537 0
M  V30 883 C 84.9578 1.7851 3.90426 0
M  V30 884 C 84.1908 1.40729 5.14812 0
M  V30 885 O 84.4138 0.29557 5.69634 0
M  V30 886 O 83.3478 2.23168 5.58999 0
M  V30 887 H 87.1738 1.99304 2.29154 0
M  V30 888 H 84.7588 1.02908 1.08307 0
M  V30 889 H 86.6408 0.440992 4.19086 0
M  V30 890 H 85.3158 -0.265649 3.22608 0
M  V30 891 H 84.2228 2.04966 3.12953 0
M  V30 892 H 85.5558 2.68023 4.12825 0
M  V30 893 N 87.2079 -1.17134 1.05439 0
M  V30 894 C 88.4569 -1.86791 0.761049 0
M  V30 895 C 88.7699 -1.82072 -0.714795 0
M  V30 896 O 89.9759 -2.47223 -1.12218 0
M  V30 897 C 88.4319 -3.35166 1.31117 0
M  V30 898 C 88.0399 -3.48381 2.81664 0
M  V30 899 C 89.7839 -4.10134 1.09499 0
M  V30 900 C 87.6909 -4.90793 3.29964 0
M  V30 901 H 86.6209 -0.699681 0.281002 0
M  V30 902 H 89.2719 -1.3226 1.27199 0
M  V30 903 H 87.6539 -3.8925 0.72803 0
M  V30 904 H 88.8279 -3.04502 3.45855 0
M  V30 905 H 87.1429 -2.86836 3.01851 0
M  V30 906 H 89.7399 -5.152 1.43084 0
M  V30 907 H 90.0829 -4.16287 0.0328772 0
M  V30 908 H 90.6159 -3.62264 1.64346 0
M  V30 909 H 87.3549 -4.89816 4.35616 0
M  V30 910 H 86.8749 -5.35333 2.70516 0
M  V30 911 H 88.5539 -5.59573 3.24787 0
M  V30 912 N 88.686 -0.835752 -1.33615 0
M  V30 913 C 89.935 -0.426289 -1.97144 0
M  V30 914 C 90.248 1.01912 -1.66953 0
M  V30 915 O 91.454 1.53311 -2.24072 0
M  V30 916 C 89.91 -0.711321 -3.52801 0
M  V30 917 C 89.518 -2.1712 -3.91871 0
M  V30 918 C 91.262 -0.368654 -4.22896 0
M  V30 919 C 89.169 -2.40044 -5.40493 0
M  V30 920 H 88.099 -0.15567 -0.737755 0
M  V30 921 H 90.75 -1.0239 -1.52278 0
M  V30 922 H 89.132 -0.0433766 -3.95976 0
M  V30 923 H 90.306 -2.87936 -3.59763 0
M  V30 924 H 88.621 -2.47654 -3.34749 0
M  V30 925 H 91.218 -0.517601 -5.32189 0
M  V30 926 H 91.561 0.688078 -4.10574 0
M  V30 927 H 92.094 -0.991702 -3.8524 0
M  V30 928 H 88.833 -3.44271 -5.57815 0
M  V30 929 H 88.353 -1.73785 -5.74072 0
M  V30 930 H 90.032 -2.23042 -6.0734 0
M  V30 931 N 90.1641 1.46063 -0.591896 0
M  V30 932 C 91.1121 2.32124 0.148739 0
M  V30 933 C 92.1061 1.45035 0.875286 0
M  V30 934 O 93.3121 1.61609 0.792632 0
M  V30 935 H 89.6871 0.749024 0.066832 0
M  V30 936 H 91.6581 2.92392 -0.595783 0
M  V30 937 C 90.4071 3.28373 1.1431 0
M  V30 938 H 89.7301 3.95371 0.59346 0
M  V30 939 H 91.1701 3.91352 1.63155 0
M  V30 940 C 89.6291 2.54393 2.20875 0
M  V30 941 O 90.1591 2.31373 3.28374 0
M  V30 942 N 88.3651 2.14797 1.95731 0
M  V30 943 H 87.9121 2.33719 1.08319 0
M  V30 944 H 87.8701 1.65619 2.67241 0
M  V30 945 N 91.6422 0.330177 1.54103 0
M  V30 946 C 92.8882 -0.270806 2.00984 0
M  V30 947 C 93.2212 -1.51265 1.21789 0
M  V30 948 O 92.4962 -1.92142 0.301927 0
M  V30 949 C 92.7792 -0.598339 3.55094 0
M  V30 950 C 92.6322 0.654674 4.4501 0
M  V30 951 C 93.9512 -1.41334 4.16789 0
M  V30 952 H 91.0702 -0.0969531 0.730595 0
M  V30 953 H 93.7122 0.448066 1.84641 0
M  V30 954 H 91.8622 -1.21078 3.69151 0
M  V30 955 H 93.5342 1.29285 4.42813 0
M  V30 956 H 91.7772 1.28224 4.14416 0
M  V30 957 H 92.4482 0.380944 5.50684 0
M  V30 958 H 94.9242 -0.895597 4.06347 0
M  V30 959 H 93.8002 -1.61127 5.24718 0
M  V30 960 H 94.0612 -2.41146 3.70541 0
M  V30 961 N 93.1203 -1.57491 0.0584922 0
M  V30 962 C 94.3683 -1.92597 -0.612436 0
M  V30 963 C 94.6893 -0.938162 -1.70949 0
M  V30 964 O 93.9593 0.0158301 -1.95894 0
M  V30 965 H 92.5393 -0.710964 -0.229214 0
M  V30 966 H 95.2013 -1.94571 0.113218 0
M  V30 967 H 94.2973 -2.94038 -1.04633 0
M  V30 968 N 94.5984 0.214957 -1.56127 0
M  V30 969 C 95.5484 1.27006 -1.8935 0
M  V30 970 C 96.5324 1.41969 -0.757202 0
M  V30 971 O 97.7244 1.44673 -1.01973 0
M  V30 972 C 94.8534 2.61911 -2.2194 0
M  V30 973 C 93.9394 2.50822 -3.41978 0
M  V30 974 N 94.3304 2.09391 -4.60423 0
M  V30 975 C 92.6284 2.81765 -3.45723 0
M  V30 976 C 93.3294 2.09712 -5.42582 0
M  V30 977 N 92.3054 2.50454 -4.82466 0
M  V30 978 H 96.1074 0.940734 -2.78437 0
M  V30 979 H 93.6214 0.423492 -1.56781 0
M  V30 980 H 95.6184 3.38096 -2.43919 0
M  V30 981 H 94.2784 2.95684 -1.34169 0
M  V30 982 H 95.2894 1.80416 -4.85459 0
M  V30 983 H 91.9664 3.19865 -2.68314 0
M  V30 984 H 93.3564 1.79748 -6.4741 0
M  V30 985 N 96.0765 1.50051 0.48192 0
M  V30 986 C 97.3015 1.64508 1.26301 0
M  V30 987 C 97.7265 0.323851 1.85291 0
M  V30 988 O 97.0845 -0.710969 1.66778 0
M  V30 989 C 97.1325 2.7305 2.35533 0
M  V30 990 O 96.2365 2.3355 3.39895 0
M  V30 991 H 95.5775 0.549978 0.372048 0
M  V30 992 H 98.1075 1.9636 0.574786 0
M  V30 993 H 98.1175 2.95799 2.8101 0
M  V30 994 H 96.7925 3.68946 1.91967 0
M  V30 995 H 95.3695 2.21205 3.00204 0
M  V30 996 N 97.5546 -0.734337 1.39446 0
M  V30 997 C 98.8016 -1.49391 1.36706 0
M  V30 998 C 99.1296 -1.94465 -0.0367813 0
M  V30 999 O 98.3846 -1.67154 -1.01774 0
M  V30 1000 C 98.6836 -2.74711 2.28623 0
M  V30 1001 C 98.3496 -2.48501 3.76242 0
M  V30 1002 C 97.0116 -2.41062 4.16464 0
M  V30 1003 C 99.3636 -2.26098 4.69606 0
M  V30 1004 C 96.6916 -2.09262 5.48112 0
M  V30 1005 C 99.0436 -1.95814 6.01531 0
M  V30 1006 C 97.7076 -1.86845 6.40816 0
M  V30 1007 H 96.9776 -0.546661 0.500243 0
M  V30 1008 H 99.6246 -0.842788 1.71957 0
M  V30 1009 H 97.9296 -3.44569 1.86492 0
M  V30 1010 H 99.6266 -3.32741 2.23796 0
M  V30 1011 H 96.2166 -2.55169 3.44364 0
M  V30 1012 H 100.401 -2.30812 4.39363 0
M  V30 1013 H 95.6566 -2.00841 5.77471 0
M  V30 1014 H 99.8306 -1.77488 6.73403 0
M  V30 1015 H 97.4576 -1.6197 7.42745 0
M  V30 1016 N 99.0327 -1.24633 -0.964593 0
M  V30 1017 C 99.9827 -1.00841 -2.04487 0
M  V30 1018 C 100.967 0.0512468 -1.60818 0
M  V30 1019 O 102.159 -0.162865 -1.76249 0
M  V30 1020 C 99.2877 -0.618474 -3.37683 0
M  V30 1021 C 98.3737 -1.71437 -3.87905 0
M  V30 1022 N 98.7647 -2.9477 -4.11029 0
M  V30 1023 C 97.0627 -1.5926 -4.16596 0
M  V30 1024 C 97.7637 -3.65834 -4.52261 0
M  V30 1025 N 96.7397 -2.9341 -4.57615 0
M  V30 1026 H 100.542 -1.94487 -2.20345 0
M  V30 1027 H 98.0557 -1.14805 -1.14863 0
M  V30 1028 H 100.053 -0.429247 -4.14684 0
M  V30 1029 H 98.7127 0.310766 -3.23209 0
M  V30 1030 H 99.7237 -3.30917 -3.9839 0
M  V30 1031 H 96.4007 -0.731606 -4.1104 0
M  V30 1032 H 97.7907 -4.71646 -4.78539 0
M  V30 1033 N 100.511 1.16574 -1.06058 0
M  V30 1034 C 101.757 1.87324 -0.777022 0
M  V30 1035 C 102.09 1.81351 0.694645 0
M  V30 1036 O 101.365 1.22753 1.50871 0
M  V30 1037 C 101.648 3.36991 -1.26922 0
M  V30 1038 C 101.501 3.51667 -2.80447 0
M  V30 1039 C 102.82 4.3131 -0.87521 0
M  V30 1040 H 99.9388 0.680191 -0.28374 0
M  V30 1041 H 102.581 1.37036 -1.3161 0
M  V30 1042 H 100.731 3.79949 -0.81063 0
M  V30 1043 H 102.403 3.17664 -3.34495 0
M  V30 1044 H 100.646 2.93656 -3.19294 0
M  V30 1045 H 101.317 4.56766 -3.0995 0
M  V30 1046 H 103.793 3.9624 -1.27014 0
M  V30 1047 H 102.669 5.34545 -1.2471 0
M  V30 1048 H 102.93 4.41552 0.220071 0
M  V30 1049 N 101.989 0.842826 1.3317 0
M  V30 1050 C 102.937 0.267495 2.31057 0
M  V30 1051 C 103.931 -0.602682 1.58316 0
M  V30 1052 O 105.137 -0.491803 1.73151 0
M  V30 1053 H 101.512 0.0677813 0.748939 0
M  V30 1054 H 103.483 1.10754 2.77085 0
M  V30 1055 C 102.232 -0.539331 3.43492 0
M  V30 1056 H 101.555 0.12095 3.99617 0
M  V30 1057 H 102.995 -0.90767 4.14171 0
M  V30 1058 C 101.454 -1.71981 2.89697 0
M  V30 1059 O 101.984 -2.81862 2.86211 0
M  V30 1060 N 100.19 -1.54299 2.46252 0
M  V30 1061 H 99.7369 -0.649143 2.49287 0
M  V30 1062 H 99.6949 -2.33431 2.10612 0
M  V30 1063 N 103.467 -1.45747 0.599634 0
M  V30 1064 C 104.714 -2.02292 0.0917284 0
M  V30 1065 C 105.042 -1.46906 -1.27472 0
M  V30 1066 O 104.297 -0.630652 -1.8526 0
M  V30 1067 C 104.596 -3.57399 -0.00602758 0
M  V30 1068 C 104.262 -4.31902 1.29503 0
M  V30 1069 C 102.924 -4.51974 1.65144 0
M  V30 1070 C 105.276 -4.74551 2.15525 0
M  V30 1071 C 102.604 -5.11949 2.86574 0
M  V30 1072 C 104.956 -5.35868 3.36196 0
M  V30 1073 C 103.62 -5.54165 3.72099 0
M  V30 1074 H 102.89 -0.740239 0.0335658 0
M  V30 1075 H 105.537 -1.7491 0.779661 0
M  V30 1076 H 103.842 -3.84014 -0.777183 0
M  V30 1077 H 105.539 -3.98846 -0.415038 0
M  V30 1078 H 102.129 -4.16588 1.00761 0
M  V30 1079 H 106.313 -4.58784 1.8929 0
M  V30 1080 H 101.569 -5.24305 3.14507 0
M  V30 1081 H 105.743 -5.6787 4.03109 0
M  V30 1082 H 103.37 -6.00406 4.6628 0
M  V30 1083 N 104.945 -0.338344 -1.53925 0
M  V30 1084 C 105.855 0.529421 -2.28548 0
M  V30 1085 C 106.871 1.11645 -1.3346 0
M  V30 1086 O 108.047 1.13325 -1.66492 0
M  V30 1087 C 105.112 1.66713 -3.03987 0
M  V30 1088 C 104.173 1.11041 -4.14691 0
M  V30 1089 C 103.406 2.19389 -4.86522 0
M  V30 1090 O 103.629 3.40013 -4.57982 0
M  V30 1091 O 102.563 1.83976 -5.73094 0
M  V30 1092 H 106.389 -0.0770399 -3.03602 0
M  V30 1093 H 103.974 -0.103555 -1.49041 0
M  V30 1094 H 105.856 2.32918 -3.5118 0
M  V30 1095 H 104.531 2.25949 -2.31794 0
M  V30 1096 H 103.438 0.413024 -3.71813 0
M  V30 1097 H 104.771 0.562975 -4.8897 0
M  V30 1098 N 106.423 1.57458 -0.0668435 0
M  V30 1099 C 107.7 1.8469 0.644132 0
M  V30 1100 C 108.08 0.958343 1.88093 0
M  V30 1101 O 107.428 0.0233579 2.28488 0
M  V30 1102 C 107.638 3.34767 0.986509 0
M  V30 1103 C 108.986 4.02159 1.36212 0
M  V30 1104 O 110.01 3.39484 1.07839 0
M  V30 1105 O 108.869 5.12694 1.89227 0
M  V30 1106 H 105.963 0.762816 0.319437 0
M  V30 1107 H 108.509 1.6942 -0.0973986 0
M  V30 1108 H 107.281 3.91151 0.107883 0
M  V30 1109 H 106.904 3.55281 1.78497 0
M  V30 1110 N 107.901 -0.206675 1.56239 0
M  V30 1111 C 108.849 -1.27571 1.94495 0
M  V30 1112 C 109.843 -1.47737 0.828862 0
M  V30 1113 O 111.049 -1.48735 1.0138 0
M  V30 1114 H 107.424 -0.428029 0.6183 0
M  V30 1115 H 109.395 -0.925961 2.8367 0
M  V30 1116 C 108.144 -2.61568 2.29079 0
M  V30 1117 H 107.467 -2.46863 3.14482 0
M  V30 1118 H 108.907 -3.35144 2.5972 0
M  V30 1119 C 107.366 -3.17695 1.12123 0
M  V30 1120 O 107.896 -3.99801 0.390153 0
M  V30 1121 N 106.102 -2.76276 0.901097 0
M  V30 1122 H 105.649 -2.09613 1.49733 0
M  V30 1123 H 105.607 -3.1417 0.120319 0
M  V30 1124 N 109.379 -1.50304 -0.473955 0
M  V30 1125 C 110.656 -1.51667 -1.23518 0
M  V30 1126 C 111.036 -0.259701 -2.09496 0
M  V30 1127 O 110.384 0.756986 -2.15597 0
M  V30 1128 C 110.594 -2.81082 -2.06868 0
M  V30 1129 C 111.942 -3.31631 -2.65153 0
M  V30 1130 O 112.966 -2.82384 -2.17113 0
M  V30 1131 O 111.825 -4.17471 -3.52675 0
M  V30 1132 H 108.919 -0.60822 -0.560355 0
M  V30 1133 H 111.465 -1.62592 -0.486011 0
M  V30 1134 H 110.237 -3.64041 -1.4349 0
M  V30 1135 H 109.86 -2.73146 -2.88924 0
M  V30 1136 N 110.857 0.726932 -1.39834 0
M  V30 1137 C 111.805 1.86235 -1.39353 0
M  V30 1138 C 112.799 1.67144 -0.275555 0
M  V30 1139 O 114.005 1.74387 -0.44601 0
M  V30 1140 H 110.38 0.613174 -0.43534 0
M  V30 1141 H 112.351 1.83756 -2.35109 0
M  V30 1142 C 111.1 3.23995 -1.26185 0
M  V30 1143 H 110.423 3.39285 -2.11484 0
M  V30 1144 H 111.863 4.03609 -1.29907 0
M  V30 1145 C 110.322 3.36888 0.0290018 0
M  V30 1146 O 110.852 3.89152 0.99619 0
M  V30 1147 N 109.058 2.90446 0.0947437 0
M  V30 1148 H 108.605 2.48102 -0.693035 0
M  V30 1149 H 108.563 2.99451 0.957932 0
M  V30 1150 N 112.336 1.25143 0.95797 0
M  V30 1151 C 113.752 1.01892 1.22842 0
M  V30 1152 C 113.952 -0.266311 1.99732 0
M  V30 1153 O 113.008 -0.979913 2.3271 0
M  V30 1154 C 114.321 2.24004 2.00606 0
M  V30 1155 C 115.869 2.28731 2.13662 0
M  V30 1156 C 116.344 3.5049 2.94823 0
M  V30 1157 N 117.835 3.50866 3.02403 0
M  V30 1158 C 118.57 4.4174 3.65586 0
M  V30 1159 N 118.066 5.42882 4.30408 0
M  V30 1160 N 119.859 4.29429 3.62694 0
M  V30 1161 H 112.01 2.07718 0.443493 0
M  V30 1162 H 114.273 0.912031 0.258657 0
M  V30 1163 H 113.979 3.17395 1.51503 0
M  V30 1164 H 113.853 2.26907 3.01319 0
M  V30 1165 H 116.24 1.35865 2.61963 0
M  V30 1166 H 116.321 2.29848 1.12265 0
M  V30 1167 H 115.965 4.43676 2.47213 0
M  V30 1168 H 115.895 3.46617 3.96439 0
M  V30 1169 H 118.386 2.777 2.56302 0
M  V30 1170 H 118.699 6.0844 4.76467 0
M  V30 1171 H 117.044 5.46758 4.29047 0
M  V30 1172 H 120.235 3.49643 3.11236 0
M  V30 1173 H 120.408 5.00448 4.1165 0
M  V30 1174 N 113.814 -1.1601 1.06675 0
M  V30 1175 C 115.039 -1.91068 0.806706 0
M  V30 1176 C 115.464 -1.77112 -0.633485 0
M  V30 1177 O 114.822 -1.09908 -1.44187 0
M  V30 1178 C 114.87 -3.39655 1.21106 0
M  V30 1179 O 113.974 -4.10893 0.352189 0
M  V30 1180 H 113.315 -0.595125 0.294486 0
M  V30 1181 H 115.845 -1.46955 1.42356 0
M  V30 1182 H 115.855 -3.90434 1.18428 0
M  V30 1183 H 114.53 -3.49132 2.26008 0
M  V30 1184 H 113.107 -3.70285 0.440868 0
M  V30 1185 N 115.292 -0.849877 -1.32721 0
M  V30 1186 C 116.538 -0.451591 -1.97708 0
M  V30 1187 C 116.871 0.989175 -1.6712 0
M  V30 1188 O 116.146 1.69334 -0.956891 0
M  V30 1189 C 116.429 -0.685598 -3.53513 0
M  V30 1190 C 116.282 -2.17444 -3.93749 0
M  V30 1191 C 117.601 -0.138874 -4.39881 0
M  V30 1192 H 114.72 -0.16555 -0.718166 0
M  V30 1193 H 117.362 -1.06742 -1.57182 0
M  V30 1194 H 115.512 -0.161416 -3.88165 0
M  V30 1195 H 117.184 -2.76433 -3.693 0
M  V30 1196 H 115.427 -2.65476 -3.43081 0
M  V30 1197 H 116.098 -2.28888 -5.02309 0
M  V30 1198 H 118.574 -0.587068 -4.11938 0
M  V30 1199 H 117.45 -0.332213 -5.47894 0
M  V30 1200 H 117.711 0.95806 -4.31594 0
M  V30 1201 N 116.77 1.45427 -0.607355 0
M  V30 1202 C 117.7 2.3329 0.0989352 0
M  V30 1203 C 118.681 1.46816 0.859007 0
M  V30 1204 O 119.866 1.75588 0.829604 0
M  V30 1205 C 116.996 3.29518 1.09705 0
M  V30 1206 C 115.95 4.25626 0.450206 0
M  V30 1207 C 115.276 5.11542 1.55655 0
M  V30 1208 C 116.576 5.18505 -0.628455 0
M  V30 1209 H 118.27 2.92595 -0.634716 0
M  V30 1210 H 115.816 1.40696 -0.306681 0
M  V30 1211 H 117.769 3.89855 1.59971 0
M  V30 1212 H 116.493 2.68372 1.86129 0
M  V30 1213 H 115.152 3.66586 -0.0315886 0
M  V30 1214 H 114.8 4.46765 2.31107 0
M  V30 1215 H 114.5 5.76647 1.12925 0
M  V30 1216 H 116.024 5.74748 2.06148 0
M  V30 1217 H 117.438 5.72916 -0.209877 0
M  V30 1218 H 115.835 5.92085 -0.977489 0
M  V30 1219 H 116.905 4.60948 -1.50514 0
M  V30 1220 N 118.248 0.346503 1.53744 0
M  V30 1221 C 119.195 -0.508914 2.25119 0
M  V30 1222 C 120.165 -1.09315 1.25058 0
M  V30 1223 O 121.35 -1.12921 1.53797 0
M  V30 1224 C 118.49 -1.65246 3.02965 0
M  V30 1225 C 117.603 -1.09525 4.17886 0
M  V30 1226 C 116.738 -2.20634 4.83212 0
M  V30 1227 C 115.777 -1.62279 5.90196 0
M  V30 1228 N 114.914 -2.67143 6.49291 0
M  V30 1229 H 119.754 0.106283 2.9781 0
M  V30 1230 H 117.291 0.0642227 1.4696 0
M  V30 1231 H 119.249 -2.32574 3.4636 0
M  V30 1232 H 117.879 -2.2386 2.32565 0
M  V30 1233 H 116.931 -0.312818 3.79112 0
M  V30 1234 H 118.243 -0.628444 4.94825 0
M  V30 1235 H 117.397 -2.95821 5.29693 0
M  V30 1236 H 116.136 -2.70659 4.05703 0
M  V30 1237 H 115.141 -0.855989 5.43096 0
M  V30 1238 H 116.366 -1.13102 6.69615 0
M  V30 1239 H 114.312 -3.16417 5.74645 0
M  V30 1240 H 114.229 -2.25093 7.21713 0
M  V30 1241 H 115.497 -3.4209 7.00425 0
M  V30 1242 N 119.726 -1.57421 0.075193 0
M  V30 1243 C 120.974 -1.93236 -0.591974 0
M  V30 1244 C 121.295 -0.956241 -1.69944 0
M  V30 1245 O 120.565 -0.00494792 -1.95899 0
M  V30 1246 H 119.145 -0.713355 -0.22166 0
M  V30 1247 H 121.807 -1.9444 0.133848 0
M  V30 1248 H 120.903 -2.95131 -1.01509 0
M  V30 1249 N 121.204 0.198386 -1.56346 0
M  V30 1250 C 122.452 0.91747 -1.80075 0
M  V30 1251 C 122.773 1.83929 -0.647692 0
M  V30 1252 O 122.043 1.93029 0.334166 0
M  V30 1253 H 120.623 0.341774 -0.664228 0
M  V30 1254 H 123.285 0.204684 -1.93822 0
M  V30 1255 H 122.381 1.51055 -2.7311 0
M  V30 1256 N 122.682 1.50554 0.465978 0
M  V30 1257 C 124.093 1.54599 1.04671 0
M  V30 1258 C 124.444 0.352488 1.93008 0
M  V30 1259 O 123.569 -0.534044 2.09707 0
M  V30 1260 C 124.164 2.80166 1.90505 0
M  V30 1261 C 122.723 2.86876 2.43678 0
M  V30 1262 C 121.87 2.48947 1.22151 0
M  V30 1263 H 124.821 1.56744 0.248384 0
M  V30 1264 H 124.842 2.62311 2.75633 0
M  V30 1265 H 124.354 3.67013 1.26186 0
M  V30 1266 H 122.455 2.04393 3.11536 0
M  V30 1267 H 122.568 3.89885 2.78436 0
M  V30 1268 H 120.932 2.01498 1.5579 0
M  V30 1269 H 121.715 3.38107 0.594866 0
M  V30 1270 N 124.16 -0.719506 1.40217 0
M  V30 1271 C 125.407 -1.47933 1.38283 0
M  V30 1272 C 125.735 -1.94493 -0.0161536 0
M  V30 1273 O 124.99 -1.68224 -0.999956 0
M  V30 1274 C 125.289 -2.72271 2.31524 0
M  V30 1275 C 124.955 -2.44496 3.78857 0
M  V30 1276 C 123.617 -2.36631 4.18998 0
M  V30 1277 C 125.969 -2.21104 4.71977 0
M  V30 1278 C 123.297 -2.03437 5.503 0
M  V30 1279 C 125.649 -1.89423 6.03574 0
M  V30 1280 C 124.313 -1.80038 6.42762 0
M  V30 1281 H 123.583 -0.541325 0.506012 0
M  V30 1282 H 126.23 -0.824502 1.72842 0
M  V30 1283 H 124.535 -3.42572 1.90137 0
M  V30 1284 H 126.232 -3.30348 2.27313 0
M  V30 1285 H 122.822 -2.51503 3.47051 0
M  V30 1286 H 127.006 -2.26139 4.41786 0
M  V30 1287 H 122.262 -1.94705 5.79569 0
M  V30 1288 H 126.436 -1.70336 6.75247 0
M  V30 1289 H 124.063 -1.54083 7.44421 0
M  V30 1290 N 125.638 -1.25649 -0.95132 0
M  V30 1291 C 126.863 -1.13443 -1.73624 0
M  V30 1292 C 127.288 0.307565 -1.85568 0
M  V30 1293 O 126.646 1.22282 -1.33854 0
M  V30 1294 C 126.694 -1.79723 -3.12621 0
M  V30 1295 O 125.798 -1.07912 -3.98031 0
M  V30 1296 H 125.139 -0.395872 -0.533086 0
M  V30 1297 H 127.669 -1.66276 -1.1922 0
M  V30 1298 H 127.679 -1.86141 -3.63064 0
M  V30 1299 H 126.354 -2.84633 -3.03244 0
M  V30 1300 H 124.931 -1.09398 -3.56492 0
M  V30 1301 N 127.117 1.15442 -1.07289 0
M  V30 1302 C 128.394 1.82306 -0.708792 0
M  V30 1303 C 128.774 1.94991 0.808807 0
M  V30 1304 O 128.122 1.50085 1.72298 0
M  V30 1305 C 128.332 3.18695 -1.42247 0
M  V30 1306 C 129.68 3.94341 -1.57417 0
M  V30 1307 O 130.704 3.28247 -1.38319 0
M  V30 1308 O 129.563 5.12839 -1.88834 0
M  V30 1309 H 126.657 0.787628 -0.252132 0
M  V30 1310 H 129.203 1.22559 -1.17377 0
M  V30 1311 H 127.975 3.04557 -2.45684 0
M  V30 1312 H 127.598 3.86128 -0.948223 0
M  V30 1313 N 128.595 0.856903 1.32268 0
M  V30 1314 C 129.82 0.474569 2.01897 0
M  V30 1315 C 130.245 -0.921766 1.63967 0
M  V30 1316 O 129.603 -1.60589 0.84148 0
M  V30 1317 C 129.651 0.623799 3.55164 0
M  V30 1318 O 128.755 -0.342459 4.10976 0
M  V30 1319 H 128.096 0.190422 0.63611 0
M  V30 1320 H 130.626 1.15672 1.68764 0
M  V30 1321 H 130.636 0.512169 4.04773 0
M  V30 1322 H 129.311 1.64202 3.82113 0
M  V30 1323 H 127.888 -0.18688 3.72431 0
M  V30 1324 N 130.073 -1.45103 0.615059 0
M  V30 1325 C 131.303 -2.06254 0.119596 0
M  V30 1326 C 131.711 -1.4591 -1.20445 0
M  V30 1327 O 131.054 -0.570384 -1.7462 0
M  V30 1328 C 131.116 -3.59396 -0.0865591 0
M  V30 1329 C 130.78 -4.42116 1.15683 0
M  V30 1330 C 131.777 -4.7662 2.07676 0
M  V30 1331 C 129.462 -4.82749 1.38775 0
M  V30 1332 C 131.456 -5.50622 3.21082 0
M  V30 1333 C 129.143 -5.56504 2.52481 0
M  V30 1334 C 130.141 -5.90358 3.43463 0
M  V30 1335 O 129.829 -6.62615 4.55189 0
M  V30 1336 H 129.561 -0.672423 0.0694512 0
M  V30 1337 H 132.115 -1.87219 0.844885 0
M  V30 1338 H 130.345 -3.76859 -0.866823 0
M  V30 1339 H 132.034 -4.02365 -0.534555 0
M  V30 1340 H 132.8 -4.4578 1.91063 0
M  V30 1341 H 128.679 -4.55829 0.688545 0
M  V30 1342 H 132.223 -5.76965 3.92119 0
M  V30 1343 H 128.12 -5.86759 2.69043 0
M  V30 1344 H 128.888 -6.81071 4.53966 0
M  V30 1345 N 131.551 -0.354651 -1.53558 0
M  V30 1346 C 132.967 -0.00315426 -1.596 0
M  V30 1347 C 133.167 1.47741 -1.37021 0
M  V30 1348 O 132.223 2.23759 -1.16996 0
M  V30 1349 C 133.536 -0.44929 -2.97325 0
M  V30 1350 C 135.084 -0.402578 -3.104 0
M  V30 1351 C 135.559 -0.824355 -4.5052 0
M  V30 1352 N 137.05 -0.778979 -4.56603 0
M  V30 1353 C 137.785 -1.07715 -5.63192 0
M  V30 1354 N 137.281 -1.44405 -6.77583 0
M  V30 1355 N 139.074 -1.00066 -5.53121 0
M  V30 1356 H 131.225 -1.31893 -1.66487 0
M  V30 1357 H 133.488 -0.538388 -0.780284 0
M  V30 1358 H 133.194 -1.48202 -3.1895 0
M  V30 1359 H 133.068 0.169772 -3.76818 0
M  V30 1360 H 135.455 0.621004 -2.88492 0
M  V30 1361 H 135.536 -1.05699 -2.32941 0
M  V30 1362 H 135.18 -1.846 -4.73165 0
M  V30 1363 H 135.11 -0.147304 -5.26394 0
M  V30 1364 H 137.601 -0.508528 -3.74463 0
M  V30 1365 H 137.914 -1.65612 -7.54846 0
M  V30 1366 H 136.259 -1.4826 -6.79002 0
M  V30 1367 H 139.45 -0.713293 -4.62633 0
M  V30 1368 H 139.623 -1.23638 -6.36096 0
M  V30 1369 N 133.029 1.57378 -0.0835403 0
M  V30 1370 C 133.959 2.1641 0.87686 0
M  V30 1371 C 134.94 1.09429 1.30228 0
M  V30 1372 O 136.125 1.37516 1.37124 0
M  V30 1373 C 133.255 2.73517 2.14022 0
M  V30 1374 C 132.209 3.85769 1.85381 0
M  V30 1375 C 131.535 4.29529 3.18448 0
M  V30 1376 C 132.835 5.09486 1.14984 0
M  V30 1377 H 134.529 2.96914 0.385059 0
M  V30 1378 H 132.075 1.42823 0.18377 0
M  V30 1379 H 134.028 3.13463 2.81636 0
M  V30 1380 H 132.752 1.90252 2.65465 0
M  V30 1381 H 131.411 3.46345 1.20169 0
M  V30 1382 H 131.059 3.43169 3.67755 0
M  V30 1383 H 130.759 5.05204 3.00071 0
M  V30 1384 H 132.283 4.72099 3.8724 0
M  V30 1385 H 133.697 5.46674 1.72687 0
M  V30 1386 H 132.094 5.90515 1.06826 0
M  V30 1387 H 133.164 4.84724 0.130749 0
M  V30 1388 N 134.507 -0.190092 1.56449 0
M  V30 1389 C 135.754 -0.909705 1.80916 0
M  V30 1390 C 136.082 -1.83047 0.657583 0
M  V30 1391 O 135.337 -1.92428 -0.356356 0
M  V30 1392 C 135.636 -1.75382 3.1141 0
M  V30 1393 C 135.302 -0.983606 4.40041 0
M  V30 1394 C 133.964 -0.770967 4.74984 0
M  V30 1395 C 136.316 -0.442024 5.19322 0
M  V30 1396 C 133.644 -0.0053448 5.867 0
M  V30 1397 C 135.996 0.310412 6.31838 0
M  V30 1398 C 134.66 0.534023 6.6536 0
M  V30 1399 H 133.93 -0.332885 0.662019 0
M  V30 1400 H 136.577 -0.175762 1.90692 0
M  V30 1401 H 134.882 -2.55659 2.96893 0
M  V30 1402 H 136.579 -2.31331 3.27547 0
M  V30 1403 H 133.169 -1.15936 4.12622 0
M  V30 1404 H 137.353 -0.593693 4.92736 0
M  V30 1405 H 132.609 0.177825 6.11141 0
M  V30 1406 H 136.783 0.737419 6.92485 0
M  V30 1407 H 134.41 1.12918 7.51767 0
M  V30 1408 N 135.985 -1.50799 -0.457987 0
M  V30 1409 C 136.917 -1.66786 -1.57211 0
M  V30 1410 C 137.93 -0.548962 -1.53265 0
M  V30 1411 O 139.119 -0.8226 -1.58416 0
M  V30 1412 C 136.219 -1.64834 -2.96113 0
M  V30 1413 C 135.392 -2.92971 -3.24787 0
M  V30 1414 C 134.451 -2.83485 -4.43309 0
M  V30 1415 O 133.477 -3.5744 -4.42973 0
M  V30 1416 N 134.679 -1.97929 -5.45714 0
M  V30 1417 H 137.444 -2.62889 -1.43909 0
M  V30 1418 H 135.005 -1.48427 -0.646617 0
M  V30 1419 H 136.997 -1.56084 -3.7339 0
M  V30 1420 H 135.567 -0.764118 -3.03117 0
M  V30 1421 H 134.787 -3.15749 -2.36 0
M  V30 1422 H 136.075 -3.77834 -3.40762 0
M  V30 1423 H 135.473 -1.37182 -5.48815 0
M  V30 1424 H 134.03 -1.95073 -6.21924 0
M  V30 1425 N 137.463 0.71206 -1.40597 0
M  V30 1426 C 138.71 1.47197 -1.39065 0
M  V30 1427 C 139.038 1.94499 0.00583891 0
M  V30 1428 O 138.293 1.68752 0.99102 0
M  V30 1429 C 138.592 2.71039 -2.32965 0
M  V30 1430 C 138.258 2.42484 -3.80148 0
M  V30 1431 C 136.92 2.34406 -4.20247 0
M  V30 1432 C 139.272 2.18598 -4.73143 0
M  V30 1433 C 136.6 2.00516 -5.51371 0
M  V30 1434 C 138.952 1.8622 -6.0457 0
M  V30 1435 C 137.616 1.76626 -6.43708 0
M  V30 1436 H 136.886 0.538634 -0.508876 0
M  V30 1437 H 139.533 0.815325 -1.73276 0
M  V30 1438 H 137.838 3.41558 -1.91951 0
M  V30 1439 H 139.535 3.29138 -2.29061 0
M  V30 1440 H 136.125 2.49659 -3.4838 0
M  V30 1441 H 140.309 2.23793 -4.42979 0
M  V30 1442 H 135.565 1.91628 -5.80593 0
M  V30 1443 H 139.739 1.66752 -6.76141 0
M  V30 1444 H 137.366 1.50133 -7.45228 0
M  V30 1445 N 138.941 1.26152 0.944643 0
M  V30 1446 C 139.891 1.04081 2.02857 0
M  V30 1447 C 140.875 -0.0256555 1.6088 0
M  V30 1448 O 142.067 0.190884 1.75968 0
M  V30 1449 C 139.196 0.672118 3.36656 0
M  V30 1450 C 138.282 1.77586 3.85128 0
M  V30 1451 N 138.673 3.01272 4.06287 0
M  V30 1452 C 136.971 1.65867 4.1401 0
M  V30 1453 C 137.672 3.72983 4.46384 0
M  V30 1454 N 136.648 3.00653 4.52889 0
M  V30 1455 H 140.45 1.97968 2.17223 0
M  V30 1456 H 137.964 1.16618 1.13022 0
M  V30 1457 H 139.961 0.495166 4.13949 0
M  V30 1458 H 138.621 -0.259307 3.23663 0
M  V30 1459 H 139.632 3.37213 3.93075 0
M  V30 1460 H 136.309 0.796907 4.09824 0
M  V30 1461 H 137.699 4.792 4.70975 0
M  V30 1462 N 140.419 -1.14872 1.07899 0
M  V30 1463 C 141.666 -1.85789 0.805532 0
M  V30 1464 C 141.994 -1.82649 -0.668561 0
M  V30 1465 O 141.249 -1.24858 -1.50695 0
M  V30 1466 C 141.548 -3.34223 1.26609 0
M  V30 1467 C 141.214 -3.57555 2.74709 0
M  V30 1468 C 139.876 -3.63631 3.1516 0
M  V30 1469 C 142.228 -3.66803 3.70277 0
M  V30 1470 C 139.556 -3.76473 4.49983 0
M  V30 1471 C 141.908 -3.8117 5.04869 0
M  V30 1472 C 140.572 -3.85494 5.44932 0
M  V30 1473 H 139.842 -0.679849 0.294765 0
M  V30 1474 H 142.489 -1.3572 1.35101 0
M  V30 1475 H 140.794 -3.86536 0.640103 0
M  V30 1476 H 142.491 -3.87511 1.03132 0
M  V30 1477 H 139.081 -3.5347 2.42398 0
M  V30 1478 H 143.265 -3.61404 3.40149 0
M  V30 1479 H 138.521 -3.7808 4.80484 0
M  V30 1480 H 142.695 -3.87268 5.78789 0
M  V30 1481 H 140.322 -3.95197 6.49403 0
M  V30 1482 N 141.898 -0.863906 -1.31812 0
M  V30 1483 C 142.848 -0.286898 -2.26188 0
M  V30 1484 C 143.832 0.572577 -1.50367 0
M  V30 1485 O 145.024 0.420447 -1.71934 0
M  V30 1486 C 142.153 0.515849 -3.39402 0
M  V30 1487 C 141.239 -0.356531 -4.22599 0
M  V30 1488 N 141.63 -1.44716 -4.84656 0
M  V30 1489 C 139.928 -0.147898 -4.45755 0
M  V30 1490 C 140.629 -1.98462 -5.46798 0
M  V30 1491 N 139.605 -1.28247 -5.28255 0
M  V30 1492 H 143.407 -1.12055 -2.717 0
M  V30 1493 H 140.921 -0.711012 -1.46008 0
M  V30 1494 H 142.918 0.945701 -4.06032 0
M  V30 1495 H 141.578 1.34718 -2.95434 0
M  V30 1496 H 142.589 -1.83008 -4.84488 0
M  V30 1497 H 139.266 0.647973 -4.12441 0
M  V30 1498 H 140.656 -2.89932 -6.06126 0
M  V30 1499 N 143.376 1.44774 -0.622745 0
M  V30 1500 C 144.622 2.02968 -0.13257 0
M  V30 1501 C 144.977 1.48047 1.22881 0
M  V30 1502 O 144.27 0.651625 1.80179 0
M  V30 1503 C 144.464 3.57364 -0.0508323 0
M  V30 1504 C 144.293 4.27262 -1.40275 0
M  V30 1505 C 143.063 4.64577 -1.98737 0
M  V30 1506 C 145.261 4.58248 -2.3348 0
M  V30 1507 N 143.243 5.19404 -3.27251 0
M  V30 1508 C 144.614 5.14069 -3.46603 0
M  V30 1509 C 146.669 4.40195 -2.32664 0
M  V30 1510 C 145.372 5.53738 -4.59093 0
M  V30 1511 C 147.398 4.80907 -3.44213 0
M  V30 1512 C 146.76 5.36834 -4.56058 0
M  V30 1513 H 142.859 0.776541 -0.0922354 0
M  V30 1514 H 145.443 1.76385 -0.82441 0
M  V30 1515 H 143.614 3.83576 0.610265 0
M  V30 1516 H 145.346 4.02219 0.447397 0
M  V30 1517 H 142.101 4.48622 -1.51774 0
M  V30 1518 H 142.525 5.51301 -3.92933 0
M  V30 1519 H 147.167 3.96257 -1.47446 0
M  V30 1520 H 144.885 5.96635 -5.45025 0
M  V30 1521 H 148.471 4.68659 -3.44747 0
M  V30 1522 H 147.351 5.67755 -5.40947 0
M  V30 1523 N 144.854 0.36279 1.53368 0
M  V30 1524 C 146.102 -0.227326 2.00817 0
M  V30 1525 C 146.423 -1.49511 1.25186 0
M  V30 1526 O 145.693 -1.92482 0.364348 0
M  V30 1527 H 144.273 -0.0869923 0.741917 0
M  V30 1528 H 146.935 0.488381 1.88682 0
M  V30 1529 H 146.031 -0.456273 3.08747 0
M  V30 1530 N 146.332 -1.57332 0.0918853 0
M  V30 1531 C 147.557 -1.98995 -0.584442 0
M  V30 1532 C 147.982 -0.970528 -1.61128 0
M  V30 1533 O 147.34 0.0613904 -1.81196 0
M  V30 1534 C 147.388 -3.39636 -1.21161 0
M  V30 1535 O 146.492 -3.40447 -2.32744 0
M  V30 1536 H 145.833 -0.647165 -0.148572 0
M  V30 1537 H 148.363 -2.03873 0.172347 0
M  V30 1538 H 148.373 -3.7726 -1.55367 0
M  V30 1539 H 147.048 -4.13356 -0.459313 0
M  V30 1540 H 145.625 -3.14614 -2.0018 0
M  V30 1541 N 147.81 0.181792 -1.56548 0
M  V30 1542 C 149.038 0.915947 -1.85521 0
M  V30 1543 C 149.453 1.76282 -0.676016 0
M  V30 1544 O 148.81 1.79012 0.355077 0
M  V30 1545 C 148.861 1.80126 -3.13427 0
M  V30 1546 O 148.582 0.988562 -4.26801 0
M  V30 1547 C 150.083 2.64597 -3.55673 0
M  V30 1548 H 147.303 0.26661 -0.61576 0
M  V30 1549 H 149.847 0.185039 -2.03661 0
M  V30 1550 H 148.002 2.48563 -2.97145 0
M  V30 1551 H 148.416 1.59308 -4.99721 0
M  V30 1552 H 149.89 3.2235 -4.48101 0
M  V30 1553 H 150.367 3.38958 -2.79292 0
M  V30 1554 H 150.973 2.0151 -3.74532 0
M  V30 1555 N 149.288 1.51039 0.449983 0
M  V30 1556 C 150.236 1.71995 1.5659 0
M  V30 1557 C 151.23 0.586029 1.5894 0
M  V30 1558 O 152.436 0.76709 1.62837 0
M  V30 1559 H 148.811 0.543233 0.520001 0
M  V30 1560 H 150.782 2.65562 1.36085 0
M  V30 1561 C 149.531 1.8506 2.9436 0
M  V30 1562 H 148.854 2.71712 2.93279 0
M  V30 1563 H 150.294 2.0374 3.71842 0
M  V30 1564 C 148.753 0.607277 3.31382 0
M  V30 1565 O 149.283 -0.243903 4.00959 0
M  V30 1566 N 147.489 0.455073 2.87015 0
M  V30 1567 H 147.036 1.14879 2.30566 0
M  V30 1568 H 146.994 -0.375611 3.12148 0
M  V30 1569 N 150.766 -0.704594 1.40972 0
M  V30 1570 C 151.676 -1.84856 1.44448 0
M  V30 1571 C 152.692 -1.70726 0.335961 0
M  V30 1572 O 153.868 -1.92799 0.582276 0
M  V30 1573 C 150.933 -3.20758 1.31587 0
M  V30 1574 C 149.994 -3.47063 2.52677 0
M  V30 1575 C 149.227 -4.76481 2.4042 0
M  V30 1576 O 149.45 -5.52341 1.42391 0
M  V30 1577 O 148.384 -5.03367 3.30007 0
M  V30 1578 H 152.21 -1.8488 2.40942 0
M  V30 1579 H 149.795 -0.85647 1.22413 0
M  V30 1580 H 151.677 -4.01913 1.26665 0
M  V30 1581 H 150.352 -3.21438 0.382049 0
M  V30 1582 H 149.259 -2.65873 2.63177 0
M  V30 1583 H 150.592 -3.5119 3.44858 0
M  V30 1584 N 152.244 -1.26651 -0.937939 0
M  V30 1585 C 153.194 -1.05156 -2.02302 0
M  V30 1586 C 154.178 0.0171233 -1.60891 0
M  V30 1587 O 155.37 -0.200213 -1.75864 0
M  V30 1588 C 152.499 -0.689962 -3.36295 0
M  V30 1589 C 151.585 -1.79626 -3.84181 0
M  V30 1590 N 151.976 -3.03422 -4.04684 0
M  V30 1591 C 150.274 -1.6806 -4.13124 0
M  V30 1592 C 150.975 -3.75345 -4.444 0
M  V30 1593 N 149.951 -3.03051 -4.51288 0
M  V30 1594 H 153.753 -1.99117 -2.1617 0
M  V30 1595 H 151.267 -1.17216 -1.12402 0
M  V30 1596 H 153.264 -0.517112 -4.13681 0
M  V30 1597 H 151.924 0.242139 -3.23796 0
M  V30 1598 H 152.935 -3.39293 -3.91281 0
M  V30 1599 H 149.612 -0.818629 -4.09396 0
M  V30 1600 H 151.002 -4.81691 -4.68427 0
M  V30 1601 N 153.722 1.14298 -1.08507 0
M  V30 1602 C 154.97 1.84993 -0.813763 0
M  V30 1603 C 155.291 1.83405 0.662393 0
M  V30 1604 O 154.561 1.28319 1.48024 0
M  V30 1605 H 153.141 0.684966 -0.298045 0
M  V30 1606 H 155.803 1.385 -1.37126 0
M  V30 1607 H 154.899 2.89788 -1.15884 0
M  V30 1608 N 155.201 0.870884 1.31352 0
M  V30 1609 C 156.426 0.495957 2.01383 0
M  V30 1610 C 156.851 -0.904324 1.64935 0
M  V30 1611 O 156.209 -1.59687 0.858466 0
M  V30 1612 C 156.257 0.661433 3.54482 0
M  V30 1613 O 155.361 -0.298851 4.11316 0
M  V30 1614 H 154.702 0.197158 0.634054 0
M  V30 1615 H 157.232 1.17455 1.67527 0
M  V30 1616 H 157.242 0.555072 4.04207 0
M  V30 1617 H 155.917 1.68246 3.8035 0
M  V30 1618 H 154.494 -0.147368 3.72609 0
M  V30 1619 N 156.679 -1.44442 0.630414 0
M  V30 1620 C 157.589 -2.34476 -0.0761693 0
M  V30 1621 C 158.605 -1.52576 -0.836449 0
M  V30 1622 O 159.781 -1.85307 -0.788874 0
M  V30 1623 C 156.846 -3.30545 -1.04599 0
M  V30 1624 C 155.907 -4.28352 -0.28516 0
M  V30 1625 C 155.14 -5.19831 -1.20878 0
M  V30 1626 O 155.363 -5.15223 -2.44747 0
M  V30 1627 O 154.297 -5.97892 -0.693491 0
M  V30 1628 H 158.123 -2.96345 0.664324 0
M  V30 1629 H 155.708 -1.44203 0.39061 0
M  V30 1630 H 157.59 -3.89681 -1.60396 0
M  V30 1631 H 156.265 -2.7121 -1.76711 0
M  V30 1632 H 155.172 -3.72764 0.315837 0
M  V30 1633 H 156.505 -4.90605 0.395924 0
M  V30 1634 N 158.157 -0.370918 -1.53173 0
M  V30 1635 C 159.107 0.489588 -2.22681 0
M  V30 1636 C 160.091 1.04442 -1.22395 0
M  V30 1637 O 161.283 0.973578 -1.47819 0
M  V30 1638 C 158.412 1.626 -3.02351 0
M  V30 1639 C 157.498 1.08379 -4.10018 0
M  V30 1640 N 157.889 0.265004 -5.05105 0
M  V30 1641 C 156.187 1.35809 -4.2482 0
M  V30 1642 C 156.888 -0.0324755 -5.81691 0
M  V30 1643 N 155.864 0.566581 -5.40639 0
M  V30 1644 H 159.666 -0.142729 -2.93553 0
M  V30 1645 H 157.18 -0.179221 -1.61408 0
M  V30 1646 H 159.177 2.2547 -3.50669 0
M  V30 1647 H 157.837 2.26132 -2.33011 0
M  V30 1648 H 158.848 -0.0962352 -5.17811 0
M  V30 1649 H 155.525 1.9958 -3.66707 0
M  V30 1650 H 156.915 -0.69473 -6.68299 0
M  V30 1651 N 159.635 1.57281 -0.100228 0
M  V30 1652 C 160.863 1.98879 0.570509 0
M  V30 1653 C 161.278 0.979476 1.61405 0
M  V30 1654 O 160.635 -0.0302288 1.82475 0
M  V30 1655 C 160.686 3.4052 1.2136 0
M  V30 1656 O 160.407 4.37588 0.211786 0
M  V30 1657 C 161.908 3.97149 1.96945 0
M  V30 1658 H 159.128 0.653428 0.152555 0
M  V30 1659 H 161.672 2.03697 -0.18103 0
M  V30 1660 H 159.827 3.367 1.91603 0
M  V30 1661 H 160.241 5.20118 0.676607 0
M  V30 1662 H 161.715 4.98393 2.37294 0
M  V30 1663 H 162.192 3.3525 2.83733 0
M  V30 1664 H 162.798 4.04458 1.31506 0
M  V30 1665 N 161.113 -0.173488 1.56642 0
M  V30 1666 C 162.359 -0.891784 1.8214 0
M  V30 1667 C 162.692 -1.8199 0.677736 0
M  V30 1668 O 161.967 -1.91842 -0.320446 0
M  V30 1669 C 162.25 -1.68933 3.18015 0
M  V30 1670 C 162.103 -0.784487 4.42906 0
M  V30 1671 C 163.422 -2.65748 3.50808 0
M  V30 1672 H 160.541 -0.322761 0.662567 0
M  V30 1673 H 163.183 -0.158095 1.89341 0
M  V30 1674 H 161.333 -2.31482 3.12007 0
M  V30 1675 H 163.005 -0.172046 4.60979 0
M  V30 1676 H 161.248 -0.0924117 4.33702 0
M  V30 1677 H 161.919 -1.37799 5.34524 0
M  V30 1678 H 164.395 -2.13327 3.57255 0
M  V30 1679 H 163.271 -3.18619 4.4696 0
M  V30 1680 H 163.532 -3.45842 2.75401 0
M  V30 1681 N 162.591 -1.51276 -0.441967 0
M  V30 1682 C 163.868 -1.54252 -1.20273 0
M  V30 1683 C 164.248 -0.30408 -2.08898 0
M  V30 1684 O 163.596 0.711084 -2.17154 0
M  V30 1685 C 163.806 -2.85406 -2.00859 0
M  V30 1686 C 165.154 -3.37181 -2.58059 0
M  V30 1687 O 166.178 -2.86925 -2.11074 0
M  V30 1688 O 165.037 -4.24858 -3.43741 0
M  V30 1689 H 162.131 -0.619969 -0.547328 0
M  V30 1690 H 164.677 -1.63586 -0.451413 0
M  V30 1691 H 163.449 -3.67003 -1.35736 0
M  V30 1692 H 163.072 -2.79213 -2.83065 0
M  V30 1693 N 164.069 0.697108 -1.41344 0
M  V30 1694 C 165.317 1.45426 -1.40341 0
M  V30 1695 C 165.638 1.94996 -0.0128787 0
M  V30 1696 O 164.908 1.71599 0.945027 0
M  V30 1697 H 163.488 0.539594 -0.516573 0
M  V30 1698 H 166.15 0.825201 -1.76569 0
M  V30 1699 H 165.246 2.31817 -2.08967 0
M  V30 1700 N 165.547 1.27147 0.931209 0
M  V30 1701 C 166.793 1.13446 1.68101 0
M  V30 1702 C 167.126 -0.319628 1.91552 0
M  V30 1703 O 166.401 -1.23407 1.50336 0
M  V30 1704 C 166.684 1.91482 3.0497 0
M  V30 1705 C 166.537 3.44855 2.88782 0
M  V30 1706 C 167.856 1.71651 4.05246 0
M  V30 1707 H 164.975 0.413498 0.610072 0
M  V30 1708 H 167.617 1.56261 1.08086 0
M  V30 1709 H 165.767 1.55095 3.56199 0
M  V30 1710 H 167.439 3.9105 2.44698 0
M  V30 1711 H 165.682 3.71373 2.24198 0
M  V30 1712 H 166.353 3.94694 3.85902 0
M  V30 1713 H 168.829 2.0337 3.63015 0
M  V30 1714 H 167.705 2.28651 4.99009 0
M  V30 1715 H 167.966 0.663555 4.37092 0
M  V30 1716 N 167.025 -1.13721 1.09112 0
M  V30 1717 C 167.972 -2.19031 0.727591 0
M  V30 1718 C 168.942 -1.63555 -0.289656 0
M  V30 1719 O 170.127 -1.90023 -0.172026 0
M  V30 1720 C 167.267 -3.4477 0.15082 0
M  V30 1721 C 166.38 -4.14365 1.22172 0
M  V30 1722 C 165.515 -5.27709 0.608042 0
M  V30 1723 C 164.554 -5.89147 1.66047 0
M  V30 1724 N 163.691 -6.93929 1.06806 0
M  V30 1725 H 168.531 -2.49475 1.62991 0
M  V30 1726 H 166.068 -1.22499 0.81439 0
M  V30 1727 H 168.026 -4.16714 -0.201358 0
M  V30 1728 H 166.656 -3.14787 -0.714783 0
M  V30 1729 H 165.708 -3.40737 1.69122 0
M  V30 1730 H 167.02 -4.56114 2.01895 0
M  V30 1731 H 166.174 -6.06355 0.204523 0
M  V30 1732 H 164.913 -4.872 -0.220769 0
M  V30 1733 H 163.918 -5.09198 2.07357 0
M  V30 1734 H 165.143 -6.31729 2.49189 0
M  V30 1735 H 163.089 -6.55483 0.260476 0
M  V30 1736 H 163.006 -7.34202 1.8023 0
M  V30 1737 H 164.274 -7.76434 0.690644 0
M  V30 1738 N 168.503 -0.877838 -1.30888 0
M  V30 1739 C 169.733 -0.506678 -2.00291 0
M  V30 1740 C 170.141 0.907449 -1.66018 0
M  V30 1741 O 169.484 1.60719 -0.88967 0
M  V30 1742 C 169.546 -0.59323 -3.54572 0
M  V30 1743 C 169.21 -1.97038 -4.12341 0
M  V30 1744 C 170.207 -2.93889 -4.28865 0
M  V30 1745 C 167.892 -2.27383 -4.47886 0
M  V30 1746 C 169.886 -4.19224 -4.80136 0
M  V30 1747 C 167.573 -3.52965 -4.98857 0
M  V30 1748 C 168.571 -4.48701 -5.14934 0
M  V30 1749 O 168.259 -5.72056 -5.64808 0
M  V30 1750 H 167.991 -0.1951 -0.647234 0
M  V30 1751 H 170.545 -1.18301 -1.6791 0
M  V30 1752 H 168.775 0.140057 -3.86446 0
M  V30 1753 H 170.464 -0.234372 -4.05223 0
M  V30 1754 H 171.23 -2.71756 -4.01714 0
M  V30 1755 H 167.109 -1.53639 -4.34645 0
M  V30 1756 H 170.653 -4.93956 -4.92599 0
M  V30 1757 H 166.55 -3.74939 -5.25443 0
M  V30 1758 H 167.318 -5.74337 -5.83163 0
M  V30 1759 N 169.982 1.44106 -0.638065 0
M  V30 1760 C 171.207 2.0685 -0.150916 0
M  V30 1761 C 171.632 1.47417 1.16833 0
M  V30 1762 O 170.99 0.578264 1.71831 0
M  V30 1763 C 171.038 3.60555 -0.05708 0
M  V30 1764 O 170.142 4.00465 0.984972 0
M  V30 1765 H 169.483 0.658151 -0.0879399 0
M  V30 1766 H 172.013 1.84865 -0.876707 0
M  V30 1767 H 172.023 4.07789 0.131232 0
M  V30 1768 H 170.698 4.03193 -1.02021 0
M  V30 1769 H 169.275 3.64849 0.770672 0
M  V30 1770 N 171.46 0.379036 1.52974 0
M  V30 1771 C 172.423 -0.448865 2.24762 0
M  V30 1772 C 173.423 -0.998689 1.26027 0
M  V30 1773 O 174.613 -0.882313 1.50203 0
M  V30 1774 C 171.745 -1.62872 2.99476 0
M  V30 1775 H 172.938 0.179491 2.99362 0
M  V30 1776 H 170.491 0.13096 1.5575 0
M  V30 1777 H 171.226 -2.29479 2.29151 0
M  V30 1778 H 171.011 -1.24128 3.71934 0
M  V30 1779 H 172.501 -2.2151 3.5401 0
M  V30 1780 N 172.938 -1.57226 0.108567 0
M  V30 1781 C 173.848 -2.18292 -0.859401 0
M  V30 1782 C 174.864 -1.15612 -1.30038 0
M  V30 1783 O 176.04 -1.48039 -1.36552 0
M  V30 1784 C 173.105 -2.762 -2.09558 0
M  V30 1785 C 172.166 -3.93881 -1.70752 0
M  V30 1786 C 171.399 -4.49018 -2.88477 0
M  V30 1787 O 171.622 -4.03068 -4.036 0
M  V30 1788 O 170.556 -5.39852 -2.66164 0
M  V30 1789 H 174.382 -3.01441 -0.369769 0
M  V30 1790 H 171.967 -1.48945 -0.1165 0
M  V30 1791 H 173.849 -3.13156 -2.81978 0
M  V30 1792 H 172.524 -1.96089 -2.57548 0
M  V30 1793 H 171.431 -3.61713 -0.954714 0
M  V30 1794 H 172.764 -4.75396 -1.27513 0
M  V30 1795 N 174.416 0.165178 -1.56732 0
M  V30 1796 C 175.346 1.20651 -1.99914 0
M  V30 1797 C 176.327 1.45827 -0.875705 0
M  V30 1798 O 177.512 1.57057 -1.14223 0
M  V30 1799 C 174.642 2.54401 -2.36427 0
M  V30 1800 C 173.596 2.43782 -3.51787 0
M  V30 1801 C 172.922 3.82078 -3.7406 0
M  V30 1802 C 174.222 1.93732 -4.85041 0
M  V30 1803 H 175.916 0.847534 -2.87154 0
M  V30 1804 H 173.462 0.40625 -1.38151 0
M  V30 1805 H 175.415 3.27458 -2.65234 0
M  V30 1806 H 174.139 2.92098 -1.46103 0
M  V30 1807 H 172.798 1.73178 -3.23117 0
M  V30 1808 H 172.446 4.17179 -2.81017 0
M  V30 1809 H 172.146 3.7584 -4.51684 0
M  V30 1810 H 173.67 4.56712 -4.05274 0
M  V30 1811 H 175.084 2.56569 -5.12684 0
M  V30 1812 H 173.481 1.98428 -5.66345 0
M  V30 1813 H 174.551 0.891962 -4.76626 0
M  V30 1814 N 175.894 1.51508 0.433938 0
M  V30 1815 C 176.844 1.69451 1.52546 0
M  V30 1816 C 177.828 0.548474 1.51263 0
M  V30 1817 O 179.02 0.804529 1.57659 0
M  V30 1818 C 176.149 1.82604 2.90707 0
M  V30 1819 C 175.235 3.03002 2.96733 0
M  V30 1820 N 175.626 4.26121 2.72496 0
M  V30 1821 C 173.924 3.02327 3.27894 0
M  V30 1822 C 174.625 5.07407 2.84452 0
M  V30 1823 N 173.601 4.42126 3.16269 0
M  V30 1824 H 177.403 2.62305 1.32564 0
M  V30 1825 H 174.917 1.49202 0.641297 0
M  V30 1826 H 176.914 1.93569 3.69238 0
M  V30 1827 H 175.574 0.909339 3.11707 0
M  V30 1828 H 176.585 4.55009 2.4736 0
M  V30 1829 H 173.262 2.20301 3.54646 0
M  V30 1830 H 174.652 6.15422 2.69639 0
M  V30 1831 N 177.372 -0.689602 1.41712 0
M  V30 1832 C 178.618 -1.45181 1.41599 0
M  V30 1833 C 178.951 -1.94181 0.0270081 0
M  V30 1834 O 178.226 -1.6993 -0.946265 0
M  V30 1835 C 178.509 -2.65945 2.42787 0
M  V30 1836 C 178.362 -2.22672 3.90816 0
M  V30 1837 C 179.681 -3.68149 2.41151 0
M  V30 1838 H 176.8 -0.526576 0.515642 0
M  V30 1839 H 179.442 -0.784947 1.73028 0
M  V30 1840 H 177.592 -3.2284 2.16116 0
M  V30 1841 H 179.264 -1.71058 4.28412 0
M  V30 1842 H 177.507 -1.54394 4.05395 0
M  V30 1843 H 178.178 -3.0935 4.57172 0
M  V30 1844 H 180.654 -3.2094 2.64834 0
M  V30 1845 H 179.53 -4.50248 3.13955 0
M  V30 1846 H 179.791 -4.18259 1.43221 0
M  V30 1847 N 178.85 -1.27639 -0.924453 0
M  V30 1848 C 179.813 -1.10681 -2.00705 0
M  V30 1849 C 180.813 -0.0497823 -1.60723 0
M  V30 1850 O 182.003 -0.294654 -1.7169 0
M  V30 1851 C 179.135 -0.687164 -3.33902 0
M  V30 1852 H 180.328 -2.06817 -2.17179 0
M  V30 1853 H 177.881 -1.10473 -1.10569 0
M  V30 1854 H 178.616 0.275439 -3.23128 0
M  V30 1855 H 178.401 -1.45061 -3.6428 0
M  V30 1856 H 179.891 -0.590853 -4.13399 0
M  V30 1857 N 180.328 1.1314 -1.09713 0
M  V30 1858 C 181.278 2.16709 -0.708593 0
M  V30 1859 C 182.262 1.58471 0.278523 0
M  V30 1860 O 183.454 1.76779 0.088427 0
M  V30 1861 C 180.583 3.43039 -0.133923 0
M  V30 1862 C 179.669 4.08277 -1.14763 0
M  V30 1863 N 180.06 4.48637 -2.33577 0
M  V30 1864 C 178.358 4.34954 -0.986446 0
M  V30 1865 C 179.059 4.9952 -2.98085 0
M  V30 1866 N 178.035 4.94561 -2.25632 0
M  V30 1867 H 181.837 2.45672 -1.61315 0
M  V30 1868 H 179.351 1.29967 -0.973775 0
M  V30 1869 H 181.348 4.16583 0.162465 0
M  V30 1870 H 180.008 3.15549 0.765447 0
M  V30 1871 H 181.019 4.41246 -2.7115 0
M  V30 1872 H 177.696 4.17258 -0.142008 0
M  V30 1873 H 179.086 5.40521 -3.99108 0
M  V30 1874 N 181.806 0.884767 1.30421 0
M  V30 1875 C 183.052 0.513218 1.96819 0
M  V30 1876 C 183.407 -0.927347 1.68577 0
M  V30 1877 O 182.7 -1.64644 0.979941 0
M  V30 1878 C 182.894 0.724318 3.49983 0
M  V30 1879 C 182.723 2.18385 3.93113 0
M  V30 1880 C 181.493 2.82839 4.18725 0
M  V30 1881 C 183.691 3.15763 4.05953 0
M  V30 1882 N 181.673 4.1939 4.48314 0
M  V30 1883 C 183.044 4.37387 4.39423 0
M  V30 1884 C 185.099 3.11555 3.88379 0
M  V30 1885 C 183.802 5.55343 4.5715 0
M  V30 1886 C 185.828 4.28782 4.07308 0
M  V30 1887 C 185.19 5.49172 4.41123 0
M  V30 1888 H 181.289 0.237123 0.745182 0
M  V30 1889 H 183.873 1.14246 1.57658 0
M  V30 1890 H 182.044 0.124565 3.882 0
M  V30 1891 H 183.776 0.31969 4.03435 0
M  V30 1892 H 180.531 2.33708 4.11919 0
M  V30 1893 H 180.955 4.89911 4.67243 0
M  V30 1894 H 185.597 2.19576 3.61312 0
M  V30 1895 H 183.315 6.47826 4.8306 0
M  V30 1896 H 186.901 4.26995 3.95179 0
M  V30 1897 H 185.781 6.38371 4.55469 0
M  V30 1898 N 183.284 -1.43765 0.645699 0
M  V30 1899 C 184.232 -2.32516 -0.0624849 0
M  V30 1900 C 185.226 -1.48183 -0.820855 0
M  V30 1901 O 186.432 -1.64439 -0.732106 0
M  V30 1902 H 182.807 -0.750989 -0.0389864 0
M  V30 1903 H 184.778 -2.89979 0.703892 0
M  V30 1904 C 183.527 -3.32389 -1.02044 0
M  V30 1905 H 182.85 -3.97301 -0.446312 0
M  V30 1906 H 184.29 -3.97138 -1.48517 0
M  V30 1907 C 182.749 -2.62416 -2.11281 0
M  V30 1908 O 183.279 -2.434 -3.19561 0
M  V30 1909 N 181.485 -2.21913 -1.87624 0
M  V30 1910 H 181.032 -2.37578 -0.995703 0
M  V30 1911 H 180.99 -1.75424 -2.6091 0
M  V30 1912 N 184.763 -0.387143 -1.52771 0
M  V30 1913 C 185.988 0.198407 -2.06449 0
M  V30 1914 C 186.413 1.39918 -1.25716 0
M  V30 1915 O 185.771 1.79099 -0.281657 0
M  V30 1916 C 185.819 0.548893 -3.56398 0
M  V30 1917 O 184.923 1.64315 -3.78252 0
M  V30 1918 H 184.264 0.0237731 -0.663574 0
M  V30 1919 H 186.794 -0.553989 -1.96957 0
M  V30 1920 H 186.804 0.813812 -3.99801 0
M  V30 1921 H 185.479 -0.329005 -4.14597 0
M  V30 1922 H 184.056 1.37211 -3.46738 0
M  V30 1923 N 186.241 1.57166 -0.116904 0
M  V30 1924 C 187.204 2.14039 0.819742 0
M  V30 1925 C 188.204 1.07477 1.19605 0
M  V30 1926 O 189.394 1.33263 1.1219 0
M  V30 1927 C 186.526 2.67891 2.10826 0
M  V30 1928 H 187.719 2.98128 0.325511 0
M  V30 1929 H 185.272 1.55739 0.132312 0
M  V30 1930 H 186.007 1.87384 2.64685 0
M  V30 1931 H 185.792 3.45823 1.84793 0
M  V30 1932 H 187.282 3.11809 2.77785 0
M  V30 1933 N 187.719 -0.156864 1.56817 0
M  V30 1934 C 188.666 -1.19394 1.97519 0
M  V30 1935 C 189.636 -1.4322 0.841265 0
M  V30 1936 O 190.821 -1.55719 1.10255 0
M  V30 1937 C 187.961 -2.52483 2.35258 0
M  V30 1938 C 187.074 -2.35914 3.61896 0
M  V30 1939 C 186.209 -3.61969 3.88782 0
M  V30 1940 C 185.248 -3.40395 5.08722 0
M  V30 1941 N 184.385 -4.58556 5.31668 0
M  V30 1942 H 189.225 -0.839845 2.85921 0
M  V30 1943 H 186.762 -0.403264 1.41464 0
M  V30 1944 H 188.72 -3.30071 2.55165 0
M  V30 1945 H 187.35 -2.85859 1.49949 0
M  V30 1946 H 186.402 -1.49429 3.49821 0
M  V30 1947 H 187.714 -2.15926 4.49641 0
M  V30 1948 H 186.868 -4.47989 4.09135 0
M  V30 1949 H 185.607 -3.84951 2.9944 0
M  V30 1950 H 184.612 -2.52763 4.88253 0
M  V30 1951 H 185.837 -3.18822 5.99608 0
M  V30 1952 H 183.783 -4.81729 4.45279 0
M  V30 1953 H 183.7 -4.41535 6.13664 0
M  V30 1954 H 184.968 -5.45817 5.5651 0
M  V30 1955 N 189.197 -1.51736 -0.425897 0
M  V30 1956 C 190.427 -1.68549 -1.19476 0
M  V30 1957 C 190.835 -0.387288 -1.85194 0
M  V30 1958 O 190.178 0.645142 -1.71999 0
M  V30 1959 C 190.24 -2.75275 -2.31223 0
M  V30 1960 C 189.904 -4.17534 -1.8578 0
M  V30 1961 C 190.901 -5.01936 -1.35485 0
M  V30 1962 C 188.586 -4.6369 -1.93123 0
M  V30 1963 C 190.58 -6.30559 -0.931347 0
M  V30 1964 C 188.267 -5.92307 -1.50384 0
M  V30 1965 C 189.265 -6.75569 -1.00473 0
M  V30 1966 O 188.953 -8.0178 -0.583452 0
M  V30 1967 H 188.685 -0.568525 -0.365725 0
M  V30 1968 H 191.239 -1.98982 -0.509444 0
M  V30 1969 H 189.469 -2.40182 -3.03067 0
M  V30 1970 H 191.158 -2.80853 -2.93047 0
M  V30 1971 H 191.924 -4.67475 -1.29197 0
M  V30 1972 H 187.803 -3.98997 -2.30916 0
M  V30 1973 H 191.347 -6.95498 -0.541084 0
M  V30 1974 H 187.244 -6.2628 -1.56346 0
M  V30 1975 H 188.012 -8.1543 -0.708275 0
M  V30 1976 N 190.675 0.682077 -1.42076 0
M  V30 1977 C 191.9 1.47558 -1.45744 0
M  V30 1978 C 192.325 1.87977 -0.0680981 0
M  V30 1979 O 191.683 1.55522 0.9318 0
M  V30 1980 C 191.731 2.70575 -2.38373 0
M  V30 1981 O 190.835 3.68573 -1.85007 0
M  V30 1982 H 190.176 0.443585 -0.494093 0
M  V30 1983 H 192.706 0.837238 -1.86686 0
M  V30 1984 H 192.716 3.18729 -2.54707 0
M  V30 1985 H 191.391 2.40495 -3.39315 0
M  V30 1986 H 189.968 3.2757 -1.78192 0
M  V30 1987 N 192.153 1.28127 0.917671 0
M  V30 1988 C 193.378 1.18007 1.70555 0
M  V30 1989 C 193.803 -0.258257 1.86319 0
M  V30 1990 O 193.161 -1.1869 1.37049 0
M  V30 1991 C 193.209 1.87948 3.07746 0
M  V30 1992 O 192.313 1.18427 3.9503 0
M  V30 1993 H 191.654 0.409867 0.522403 0
M  V30 1994 H 194.184 1.69379 1.1477 0
M  V30 1995 H 194.194 1.95701 3.58001 0
M  V30 1996 H 192.869 2.92573 2.95591 0
M  V30 1997 H 191.446 1.18811 3.53466 0
M  V30 1998 N 193.631 -1.12557 1.10312 0
M  V30 1999 C 194.561 -2.20341 0.772798 0
M  V30 2000 C 195.542 -1.68198 -0.25365 0
M  V30 2001 O 196.727 -1.93831 -0.119699 0
M  V30 2002 C 193.857 -3.46709 0.202443 0
M  V30 2003 C 192.811 -4.11996 1.15943 0
M  V30 2004 C 192.137 -5.328 0.450345 0
M  V30 2005 C 193.437 -4.5828 2.50552 0
M  V30 2006 H 195.131 -2.48229 1.674 0
M  V30 2007 H 192.677 -1.19308 0.806326 0
M  V30 2008 H 194.63 -4.2138 -0.0407752 0
M  V30 2009 H 193.354 -3.18245 -0.734001 0
M  V30 2010 H 192.013 -3.39305 1.38808 0
M  V30 2011 H 191.661 -5.00602 -0.490531 0
M  V30 2012 H 191.361 -5.7743 1.08851 0
M  V30 2013 H 192.885 -6.10219 0.215642 0
M  V30 2014 H 194.299 -5.2433 2.31843 0
M  V30 2015 H 192.696 -5.13683 3.10242 0
M  V30 2016 H 193.766 -3.72329 3.10643 0
M  V30 2017 N 195.109 -0.891671 -1.2995 0
M  V30 2018 C 196.072 -0.36828 -2.26222 0
M  V30 2019 C 197.072 0.493014 -1.53056 0
M  V30 2020 O 198.262 0.299213 -1.71611 0
M  V30 2021 C 195.394 0.47442 -3.37583 0
M  V30 2022 H 196.587 -1.21844 -2.74033 0
M  V30 2023 H 194.14 -0.669107 -1.41254 0
M  V30 2024 H 194.875 1.34489 -2.95099 0
M  V30 2025 H 194.66 -0.142615 -3.91841 0
M  V30 2026 H 196.15 0.83218 -4.09224 0
M  V30 2027 N 196.587 1.43421 -0.653314 0
M  V30 2028 C 197.497 2.34568 0.0388565 0
M  V30 2029 C 198.513 1.53888 0.81207 0
M  V30 2030 O 199.689 1.86539 0.759294 0
M  V30 2031 C 196.754 3.32167 0.993269 0
M  V30 2032 C 195.815 4.28751 0.216977 0
M  V30 2033 C 195.048 5.21688 1.12593 0
M  V30 2034 O 195.271 5.19052 2.36519 0
M  V30 2035 O 194.205 5.98919 0.598284 0
M  V30 2036 H 198.031 2.95251 -0.711386 0
M  V30 2037 H 195.616 1.43564 -0.413502 0
M  V30 2038 H 197.498 3.92183 1.54176 0
M  V30 2039 H 196.173 2.73987 1.72374 0
M  V30 2040 H 195.08 3.72215 -0.375101 0
M  V30 2041 H 196.413 4.89913 -0.473924 0
M  V30 2042 N 198.065 0.39524 1.52563 0
M  V30 2043 C 199.028 -0.425001 2.25225 0
M  V30 2044 C 200.028 -0.985266 1.27079 0
M  V30 2045 O 201.218 -0.866332 1.5113 0
M  V30 2046 C 198.35 -1.59686 3.01186 0
M  V30 2047 H 199.543 0.211233 2.99155 0
M  V30 2048 H 197.096 0.147472 1.55603 0
M  V30 2049 H 197.831 -2.27035 2.31572 0
M  V30 2050 H 197.616 -1.20176 3.73229 0
M  V30 2051 H 199.106 -2.17743 3.5634 0
M  V30 2052 N 199.544 -1.57102 0.125237 0
M  V30 2053 C 200.507 -2.14471 -0.80838 0
M  V30 2054 C 201.507 -1.0811 -1.19033 0
M  V30 2055 O 202.697 -1.33856 -1.11482 0
M  V30 2056 C 199.829 -2.69005 -2.09402 0
M  V30 2057 H 201.022 -2.98297 -0.309696 0
M  V30 2058 H 198.575 -1.55807 -0.124051 0
M  V30 2059 H 199.31 -1.88785 -2.63687 0
M  V30 2060 H 199.095 -3.46799 -1.82957 0
M  V30 2061 H 200.585 -3.13278 -2.76128 0
M  V30 2062 N 201.022 0.148545 -1.56898 0
M  V30 2063 C 202.247 0.880385 -1.87787 0
M  V30 2064 C 202.672 1.74018 -0.714093 0
M  V30 2065 O 202.03 1.78153 0.336343 0
M  V30 2066 C 202.078 1.71422 -3.17249 0
M  V30 2067 O 201.182 2.8183 -3.01074 0
M  V30 2068 H 200.523 0.245301 -0.617028 0
M  V30 2069 H 203.053 0.139826 -2.04122 0
M  V30 2070 H 203.063 2.10954 -3.49231 0
M  V30 2071 H 201.738 1.08284 -4.01556 0
M  V30 2072 H 200.315 2.45715 -2.80497 0
M  V30 2073 N 202.5 1.5196 0.417844 0
M  V30 2074 C 203.447 1.74678 1.50852 0
M  V30 2075 C 204.417 0.588947 1.55308 0
M  V30 2076 O 205.602 0.825544 1.72016 0
M  V30 2077 C 202.742 1.89544 2.88387 0
M  V30 2078 C 201.855 3.17166 2.93309 0
M  V30 2079 C 200.99 3.22513 4.22088 0
M  V30 2080 C 200.029 4.44372 4.20951 0
M  V30 2081 N 199.166 4.47161 5.41287 0
M  V30 2082 H 204.006 2.67768 1.30783 0
M  V30 2083 H 201.543 1.32689 0.63498 0
M  V30 2084 H 203.501 1.96146 3.68216 0
M  V30 2085 H 202.131 0.998424 3.06971 0
M  V30 2086 H 201.183 3.19778 2.06024 0
M  V30 2087 H 202.495 4.07021 2.88332 0
M  V30 2088 H 201.649 3.28139 5.10303 0
M  V30 2089 H 200.388 2.30581 4.29748 0
M  V30 2090 H 199.393 4.38902 3.31127 0
M  V30 2091 H 200.618 5.3759 4.14938 0
M  V30 2092 H 198.564 3.58108 5.49632 0
M  V30 2093 H 198.481 5.3085 5.3827 0
M  V30 2094 H 199.749 4.57005 6.3148 0
M  V30 2095 N 203.978 -0.674533 1.42435 0
M  V30 2096 C 204.941 -1.76986 1.45632 0
M  V30 2097 C 205.941 -1.5708 0.343871 0
M  V30 2098 O 207.131 -1.63367 0.604709 0
M  V30 2099 C 204.263 -3.15623 1.28822 0
M  V30 2100 H 205.456 -1.75539 2.43158 0
M  V30 2101 H 203.009 -0.884189 1.28887 0
M  V30 2102 H 203.744 -3.22696 0.322193 0
M  V30 2103 H 203.529 -3.31475 2.09444 0
M  V30 2104 H 205.019 -3.95537 1.33942 0
M  V30 2105 N 205.456 -1.28612 -0.910864 0
M  V30 2106 C 206.733 -1.06632 -1.63979 0
M  V30 2107 C 207.113 0.393351 -2.07403 0
M  V30 2108 O 206.461 1.37999 -1.82122 0
M  V30 2109 C 206.671 -2.0436 -2.8291 0
M  V30 2110 C 208.019 -2.34666 -3.5386 0
M  V30 2111 O 209.043 -2.02467 -2.93062 0
M  V30 2112 O 207.902 -2.89631 -4.63439 0
M  V30 2113 H 204.996 -0.407737 -0.7195 0
M  V30 2114 H 207.542 -1.39942 -0.959914 0
M  V30 2115 H 206.314 -3.02727 -2.47936 0
M  V30 2116 H 205.937 -1.71714 -3.58609 0
M  V30 2117 N 206.934 1.1197 -1.10907 0
M  V30 2118 C 208.182 1.83225 -0.852819 0
M  V30 2119 C 208.503 1.84769 0.623341 0
M  V30 2120 O 207.773 1.3143 1.45269 0
M  V30 2121 H 206.353 0.67849 -0.312507 0
M  V30 2122 H 209.015 1.3556 -1.40033 0
M  V30 2123 H 208.111 2.87265 -1.22005 0
M  V30 2124 N 208.412 0.89855 1.29475 0
M  V30 2125 C 209.342 0.39201 2.30186 0
M  V30 2126 C 210.323 -0.532359 1.61555 0
M  V30 2127 O 211.508 -0.443331 1.89072 0
M  V30 2128 C 208.638 -0.382353 3.45189 0
M  V30 2129 C 207.592 0.451483 4.25612 0
M  V30 2130 C 206.918 -0.450307 5.328 0
M  V30 2131 C 208.218 1.70079 4.93832 0
M  V30 2132 H 209.912 1.23362 2.72804 0
M  V30 2133 H 207.458 0.594638 1.31149 0
M  V30 2134 H 209.411 -0.747451 4.14718 0
M  V30 2135 H 208.135 -1.25774 3.01411 0
M  V30 2136 H 206.794 0.798897 3.57789 0
M  V30 2137 H 206.442 -1.32379 4.85268 0
M  V30 2138 H 206.142 0.103902 5.87508 0
M  V30 2139 H 207.666 -0.811623 6.05182 0
M  V30 2140 H 209.08 1.40549 5.55805 0
M  V30 2141 H 207.477 2.19623 5.58467 0
M  V30 2142 H 208.547 2.43744 4.19186 0
M  V30 2143 N 209.89 -1.43072 0.660911 0
M  V30 2144 C 210.853 -2.29194 -0.0166406 0
M  V30 2145 C 211.853 -1.42609 -0.742912 0
M  V30 2146 O 213.043 -1.64155 -0.583004 0
M  V30 2147 C 210.175 -3.24831 -1.0343 0
M  V30 2148 H 211.368 -2.90596 0.741208 0
M  V30 2149 H 208.921 -1.5048 0.422532 0
M  V30 2150 H 209.656 -2.68339 -1.82111 0
M  V30 2151 H 209.441 -3.88676 -0.517082 0
M  V30 2152 H 210.931 -3.89451 -1.50723 0
M  V30 2153 N 211.368 -0.403325 -1.52352 0
M  V30 2154 C 212.614 0.174605 -2.02047 0
M  V30 2155 C 212.947 1.45282 -1.28867 0
M  V30 2156 O 212.222 1.90483 -0.393257 0
M  V30 2157 C 212.505 0.428238 -3.57545 0
M  V30 2158 C 212.358 -0.866248 -4.4138 0
M  V30 2159 C 213.677 1.21287 -4.23057 0
M  V30 2160 H 210.796 0.0619851 -0.734389 0
M  V30 2161 H 213.438 -0.53565 -1.82293 0
M  V30 2162 H 211.588 1.03327 -3.74507 0
M  V30 2163 H 213.26 -1.50265 -4.3614 0
M  V30 2164 H 211.503 -1.47851 -4.07827 0
M  V30 2165 H 212.174 -0.643249 -5.48239 0
M  V30 2166 H 214.65 0.700703 -4.10158 0
M  V30 2167 H 213.526 1.35909 -5.31808 0
M  V30 2168 H 213.787 2.23193 -3.81625 0
M  V30 2169 N 212.846 1.57033 -0.133567 0
M  V30 2170 C 214.095 1.94861 0.520768 0
M  V30 2171 C 214.408 1.02012 1.66892 0
M  V30 2172 O 215.614 1.29365 2.38699 0
M  V30 2173 C 214.07 3.46362 0.977809 0
M  V30 2174 C 213.678 4.47773 -0.142674 0
M  V30 2175 C 215.422 3.93083 1.60269 0
M  V30 2176 C 213.329 5.90468 0.331883 0
M  V30 2177 H 212.259 0.727453 0.198315 0
M  V30 2178 H 214.91 1.82227 -0.215759 0
M  V30 2179 H 213.292 3.54282 1.7692 0
M  V30 2180 H 214.466 4.51536 -0.919317 0
M  V30 2181 H 212.781 4.10891 -0.675124 0
M  V30 2182 H 215.378 4.97121 1.96914 0
M  V30 2183 H 215.721 3.33876 2.48662 0
M  V30 2184 H 216.254 3.88025 0.876453 0
M  V30 2185 H 212.993 6.53463 -0.516341 0
M  V30 2186 H 212.513 5.90094 1.07469 0
M  V30 2187 H 214.192 6.42179 0.788332 0
M  V30 2188 N 214.325 -0.140222 1.56975 0
M  V30 2189 C 215.573 -0.850005 1.83356 0
M  V30 2190 C 215.894 -1.81399 0.71551 0
M  V30 2191 O 215.164 -1.94136 -0.262294 0
M  V30 2192 H 213.744 -0.316886 0.676456 0
M  V30 2193 H 216.406 -0.132608 1.94448 0
M  V30 2194 H 215.502 -1.40814 2.78528 0
M  V30 2195 N 215.803 -1.52179 -0.40978 0
M  V30 2196 C 217.049 -1.66453 -1.15851 0
M  V30 2197 C 217.382 -0.392972 -1.90182 0
M  V30 2198 O 216.657 0.608579 -1.84734 0
M  V30 2199 C 216.94 -2.88612 -2.15349 0
M  V30 2200 C 216.793 -4.25815 -1.44918 0
M  V30 2201 C 218.112 -3.06294 -3.16026 0
M  V30 2202 H 215.231 -0.60575 -0.419805 0
M  V30 2203 H 217.873 -1.84732 -0.444314 0
M  V30 2204 H 216.023 -2.73158 -2.76255 0
M  V30 2205 H 217.695 -4.52995 -0.871365 0
M  V30 2206 H 215.938 -4.27247 -0.751159 0
M  V30 2207 H 216.609 -5.07337 -2.17516 0
M  V30 2208 H 219.085 -3.20641 -2.65195 0
M  V30 2209 H 217.961 -3.93283 -3.8291 0
M  V30 2210 H 218.222 -2.19579 -3.83715 0
M  V30 2211 N 217.281 0.66697 -1.42791 0
M  V30 2212 C 218.211 1.79218 -1.49677 0
M  V30 2213 C 219.192 1.66405 -0.352623 0
M  V30 2214 O 220.377 1.85708 -0.567993 0
M  V30 2215 C 217.507 3.17565 -1.40605 0
M  V30 2216 C 216.461 3.45124 -2.53127 0
M  V30 2217 C 215.787 4.83127 -2.29112 0
M  V30 2218 C 217.087 3.41236 -3.95418 0
M  V30 2219 H 218.781 1.73713 -2.43853 0
M  V30 2220 H 216.327 0.83432 -1.17367 0
M  V30 2221 H 218.28 3.96022 -1.44029 0
M  V30 2222 H 217.004 3.23767 -0.429271 0
M  V30 2223 H 215.663 2.69031 -2.49034 0
M  V30 2224 H 215.311 4.85988 -1.29709 0
M  V30 2225 H 215.011 5.02528 -3.04531 0
M  V30 2226 H 216.535 5.63859 -2.34297 0
M  V30 2227 H 217.949 4.09651 -4.01073 0
M  V30 2228 H 216.346 3.72173 -4.70752 0
M  V30 2229 H 217.416 2.39665 -4.21532 0
M  V30 2230 N 218.759 1.29093 0.90403 0
M  V30 2231 C 219.692 1.08176 2.00931 0
M  V30 2232 C 220.67 -0.005083 1.62599 0
M  V30 2233 O 221.854 0.144765 1.87943 0
M  V30 2234 C 218.981 0.645897 3.32484 0
M  V30 2235 C 218.027 1.73081 3.89801 0
M  V30 2236 S 218.86 3.32905 4.19446 0
M  V30 2237 C 220.016 2.91176 5.54046 0
M  V30 2238 H 220.249 2.01752 2.18365 0
M  V30 2239 H 217.782 1.13191 1.0501 0
M  V30 2240 H 219.74 0.401131 4.08535 0
M  V30 2241 H 218.401 -0.270188 3.12936 0
M  V30 2242 H 217.594 1.37768 4.84805 0
M  V30 2243 H 217.196 1.92888 3.20422 0
M  V30 2244 H 219.488 2.37952 6.34338 0
M  V30 2245 H 220.431 3.85014 5.94281 0
M  V30 2246 H 220.839 2.296 5.15698 0
M  V30 2247 N 220.237 -1.11381 1.11499 0
M  V30 2248 C 221.184 -2.17439 0.773887 0
M  V30 2249 C 222.154 -1.64132 -0.254899 0
M  V30 2250 O 223.339 -1.90345 -0.13168 0
M  V30 2251 C 220.479 -3.44373 0.223917 0
M  V30 2252 C 219.592 -4.1168 1.30934 0
M  V30 2253 C 218.727 -5.263 0.71984 0
M  V30 2254 C 217.766 -5.85493 1.78507 0
M  V30 2255 N 216.903 -6.91507 1.21502 0
M  V30 2256 H 221.743 -2.45962 1.68246 0
M  V30 2257 H 219.28 -1.20744 0.840191 0
M  V30 2258 H 221.238 -4.17047 -0.112921 0
M  V30 2259 H 219.868 -3.16232 -0.647851 0
M  V30 2260 H 218.92 -3.37073 1.76312 0
M  V30 2261 H 220.232 -4.51729 2.11524 0
M  V30 2262 H 219.386 -6.05785 0.333094 0
M  V30 2263 H 218.125 -4.87559 -0.117377 0
M  V30 2264 H 217.13 -5.04686 2.18111 0
M  V30 2265 H 218.355 -6.26301 2.62533 0
M  V30 2266 H 216.301 -6.54783 0.399455 0
M  V30 2267 H 216.218 -7.30214 1.95763 0
M  V30 2268 H 217.486 -7.74795 0.855181 0
M  V30 2269 N 221.715 -0.905404 -1.28997 0
M  V30 2270 C 222.961 -0.535039 -1.95615 0
M  V30 2271 C 223.294 0.917404 -1.71165 0
M  V30 2272 O 222.569 1.65123 -1.02785 0
M  V30 2273 C 222.852 -0.834918 -3.50287 0
M  V30 2274 C 222.705 -2.33948 -3.84172 0
M  V30 2275 C 224.024 -0.325318 -4.38896 0
M  V30 2276 H 221.143 -0.195861 -0.710498 0
M  V30 2277 H 223.785 -1.13313 -1.52513 0
M  V30 2278 H 221.935 -0.325904 -3.87131 0
M  V30 2279 H 223.607 -2.91847 -3.57243 0
M  V30 2280 H 221.85 -2.79789 -3.31513 0
M  V30 2281 H 222.521 -2.49987 -4.92149 0
M  V30 2282 H 224.997 -0.761256 -4.09077 0
M  V30 2283 H 223.873 -0.564295 -5.45992 0
M  V30 2284 H 224.134 0.774144 -4.35269 0
M  V30 2285 N 223.193 1.4272 -0.668489 0
M  V30 2286 C 224.441 2.01226 -0.187769 0
M  V30 2287 C 224.762 1.53092 1.2078 0
M  V30 2288 O 224.032 0.74993 1.80977 0
M  V30 2289 H 222.612 0.744041 -0.0664272 0
M  V30 2290 H 225.274 1.74723 -0.863583 0
M  V30 2291 H 224.37 3.11556 -0.184166 0
M  V30 2292 N 224.671 0.411399 1.52136 0
M  V30 2293 C 225.581 -0.419774 2.30814 0
M  V30 2294 C 226.597 -1.0515 1.38634 0
M  V30 2295 O 227.773 -1.05252 1.71709 0
M  V30 2296 C 224.838 -1.52019 3.11594 0
M  V30 2297 C 223.899 -0.91129 4.19516 0
M  V30 2298 C 223.132 -1.95927 4.96436 0
M  V30 2299 O 223.355 -3.17775 4.73683 0
M  V30 2300 O 222.289 -1.56423 5.81219 0
M  V30 2301 H 226.115 0.221805 3.02889 0
M  V30 2302 H 223.7 0.174547 1.48377 0
M  V30 2303 H 225.582 -2.15898 3.61892 0
M  V30 2304 H 224.257 -2.14633 2.42311 0
M  V30 2305 H 223.164 -0.235157 3.7336 0
M  V30 2306 H 224.497 -0.32904 4.91099 0
M  V30 2307 N 226.149 -1.5696 0.141893 0
M  V30 2308 C 227.112 -2.15316 -0.785587 0
M  V30 2309 C 228.112 -1.09366 -1.1788 0
M  V30 2310 O 229.302 -1.35031 -1.10056 0
M  V30 2311 C 226.434 -2.71211 -2.06537 0
M  V30 2312 H 227.627 -2.98608 -0.278041 0
M  V30 2313 H 225.18 -1.5593 -0.107519 0
M  V30 2314 H 225.915 -1.91571 -2.6167 0
M  V30 2315 H 225.7 -3.4872 -1.79268 0
M  V30 2316 H 227.19 -3.16189 -2.72789 0
M  V30 2317 N 227.627 0.131896 -1.57047 0
M  V30 2318 C 228.575 1.18146 -2.0036 0
M  V30 2319 C 229.569 1.43614 -0.898406 0
M  V30 2320 O 230.775 1.43729 -1.08361 0
M  V30 2321 H 227.15 0.398042 -0.638018 0
M  V30 2322 H 229.121 0.789564 -2.87765 0
M  V30 2323 C 227.87 2.50341 -2.41298 0
M  V30 2324 H 227.193 2.31578 -3.25902 0
M  V30 2325 H 228.633 3.22371 -2.75414 0
M  V30 2326 C 227.092 3.11984 -1.27153 0
M  V30 2327 O 227.622 3.97484 -0.580459 0
M  V30 2328 N 225.828 2.71662 -1.03189 0
M  V30 2329 H 225.375 2.02231 -1.59564 0
M  V30 2330 H 225.333 3.13238 -0.270077 0
M  V30 2331 N 229.106 1.52395 0.401703 0
M  V30 2332 C 230.517 1.58899 0.980202 0
M  V30 2333 C 230.868 0.434032 1.91339 0
M  V30 2334 O 229.993 -0.444619 2.11783 0
M  V30 2335 C 230.588 2.87994 1.78451 0
M  V30 2336 C 229.147 2.96953 2.31292 0
M  V30 2337 C 228.294 2.53903 1.11483 0
M  V30 2338 H 231.245 1.57657 0.18168 0
M  V30 2339 H 231.266 2.73765 2.64259 0
M  V30 2340 H 230.778 3.72035 1.10506 0
M  V30 2341 H 228.879 2.17422 3.02586 0
M  V30 2342 H 228.992 4.01344 2.61649 0
M  V30 2343 H 227.356 2.07925 1.47104 0
M  V30 2344 H 228.139 3.40326 0.450928 0
M  V30 2345 N 230.584 -0.659388 1.43143 0
M  V30 2346 C 231.531 -1.77249 1.47822 0
M  V30 2347 C 232.501 -1.62818 0.328558 0
M  V30 2348 O 233.686 -1.83151 0.534838 0
M  V30 2349 C 230.826 -3.15371 1.40126 0
M  V30 2350 C 229.939 -3.4098 2.65249 0
M  V30 2351 C 229.074 -4.68915 2.49584 0
M  V30 2352 C 228.113 -4.87608 3.70006 0
M  V30 2353 N 227.25 -6.06796 3.53189 0
M  V30 2354 H 232.09 -1.72584 2.42938 0
M  V30 2355 H 229.627 -0.842297 1.20598 0
M  V30 2356 H 231.585 -3.9521 1.33659 0
M  V30 2357 H 230.215 -3.19121 0.485964 0
M  V30 2358 H 229.267 -2.55282 2.8202 0
M  V30 2359 H 230.579 -3.50681 3.54717 0
M  V30 2360 H 229.733 -5.56871 2.4079 0
M  V30 2361 H 228.472 -4.61524 1.5763 0
M  V30 2362 H 227.477 -3.9809 3.79215 0
M  V30 2363 H 228.702 -4.96834 4.62961 0
M  V30 2364 H 226.648 -6.00549 2.63965 0
M  V30 2365 H 226.565 -6.17428 4.36255 0
M  V30 2366 H 227.833 -6.9739 3.48236 0
M  V30 2367 N 232.062 -1.29571 -0.897171 0
M  V30 2368 C 232.992 -1.17473 -2.01798 0
M  V30 2369 C 233.973 -0.068323 -1.69963 0
M  V30 2370 O 235.158 -0.248239 -1.92607 0
M  V30 2371 C 232.288 -0.853099 -3.36659 0
M  V30 2372 C 231.242 -1.9161 -3.82713 0
M  V30 2373 C 230.568 -1.44773 -5.14728 0
M  V30 2374 C 231.868 -3.32535 -4.02763 0
M  V30 2375 H 233.562 -2.11237 -2.12177 0
M  V30 2376 H 231.108 -1.01699 -1.01948 0
M  V30 2377 H 233.061 -0.755165 -4.14578 0
M  V30 2378 H 231.785 0.120236 -3.26379 0
M  V30 2379 H 230.444 -2.00346 -3.07013 0
M  V30 2380 H 230.092 -0.462995 -5.00865 0
M  V30 2381 H 229.792 -2.15865 -5.46513 0
M  V30 2382 H 231.316 -1.36334 -5.95185 0
M  V30 2383 H 232.73 -3.26626 -4.71156 0
M  V30 2384 H 231.127 -4.01607 -4.45905 0
M  V30 2385 H 232.197 -3.75326 -3.07016 0
M  V30 2386 N 233.54 1.10788 -1.12088 0
M  V30 2387 C 234.472 2.16816 -0.743213 0
M  V30 2388 C 235.485 1.6119 0.228412 0
M  V30 2389 O 236.674 1.78497 0.0102931 0
M  V30 2390 C 233.774 3.38809 -0.0787313 0
M  V30 2391 C 232.947 4.23885 -1.0789 0
M  V30 2392 C 232.006 5.24334 -0.442713 0
M  V30 2393 O 231.032 5.58497 -1.09864 0
M  V30 2394 N 232.234 5.75079 0.791457 0
M  V30 2395 H 234.999 2.49825 -1.65552 0
M  V30 2396 H 232.56 1.26373 -1.012 0
M  V30 2397 H 234.552 4.03107 0.358766 0
M  V30 2398 H 233.122 3.03805 0.736275 0
M  V30 2399 H 232.342 3.55939 -1.69414 0
M  V30 2400 H 233.63 4.77562 -1.75533 0
M  V30 2401 H 233.028 5.49517 1.3434 0
M  V30 2402 H 231.585 6.4118 1.17183 0
M  V30 2403 N 235.018 0.912232 1.28515 0
M  V30 2404 C 235.965 0.397954 2.27343 0
M  V30 2405 C 236.935 -0.526766 1.57526 0
M  V30 2406 O 238.12 -0.449292 1.85435 0
M  V30 2407 C 235.26 -0.357263 3.43246 0
M  V30 2408 C 234.373 0.599788 4.27816 0
M  V30 2409 C 233.508 -0.173725 5.30916 0
M  V30 2410 C 232.547 0.777039 6.07148 0
M  V30 2411 N 231.684 0.0371398 7.0209 0
M  V30 2412 H 236.524 1.24577 2.70711 0
M  V30 2413 H 234.061 0.625612 1.33133 0
M  V30 2414 H 236.019 -0.8113 4.09236 0
M  V30 2415 H 234.649 -1.16943 3.00872 0
M  V30 2416 H 233.701 1.17235 3.61884 0
M  V30 2417 H 235.013 1.32704 4.80823 0
M  V30 2418 H 234.167 -0.688394 6.02782 0
M  V30 2419 H 232.906 -0.934041 4.78672 0
M  V30 2420 H 231.911 1.3031 5.34134 0
M  V30 2421 H 233.136 1.53689 6.61481 0
M  V30 2422 H 231.082 -0.705213 6.52198 0
M  V30 2423 H 230.999 0.704249 7.52713 0
M  V30 2424 H 232.267 -0.457383 7.78157 0
M  V30 2425 N 236.496 -1.42363 0.676048 0
M  V30 2426 C 237.742 -2.0182 0.199125 0
M  V30 2427 C 238.075 -1.53339 -1.19168 0
M  V30 2428 O 237.35 -0.736124 -1.80032 0
M  V30 2429 C 237.633 -3.59331 0.235144 0
M  V30 2430 C 237.486 -4.17989 1.66149 0
M  V30 2431 C 238.805 -4.3813 -0.41595 0
M  V30 2432 H 235.924 -0.733293 0.0738311 0
M  V30 2433 H 238.566 -1.69368 0.86107 0
M  V30 2434 H 236.716 -3.87109 -0.328487 0
M  V30 2435 H 238.388 -4.0116 2.27747 0
M  V30 2436 H 236.631 -3.7377 2.20178 0
M  V30 2437 H 237.302 -5.27126 1.63837 0
M  V30 2438 H 239.778 -4.16051 0.0638529 0
M  V30 2439 H 238.654 -5.47717 -0.360115 0
M  V30 2440 H 238.915 -4.16101 -1.49373 0
M  V30 2441 N 237.974 -0.419461 -1.51915 0
M  V30 2442 C 238.904 0.391813 -2.30189 0
M  V30 2443 C 239.885 1.03699 -1.34836 0
M  V30 2444 O 241.07 1.04403 -1.63748 0
M  V30 2445 C 238.2 1.50312 -3.13087 0
M  V30 2446 C 237.154 0.9824 -4.16573 0
M  V30 2447 C 236.48 2.18809 -4.8788 0
M  V30 2448 C 237.78 0.0292356 -5.22292 0
M  V30 2449 H 239.474 -0.26135 -2.98257 0
M  V30 2450 H 237.02 -0.127134 -1.43438 0
M  V30 2451 H 238.973 2.07773 -3.66617 0
M  V30 2452 H 237.697 2.18431 -2.42807 0
M  V30 2453 H 236.356 0.430119 -3.64068 0
M  V30 2454 H 236.004 2.85507 -4.14119 0
M  V30 2455 H 235.704 1.84615 -5.57845 0
M  V30 2456 H 237.228 2.76858 -5.44226 0
M  V30 2457 H 238.642 0.512976 -5.71 0
M  V30 2458 H 237.039 -0.2244 -5.9968 0
M  V30 2459 H 238.109 -0.912931 -4.76228 0
M  V30 2460 N 239.452 1.56882 -0.150215 0
M  V30 2461 C 240.729 1.87844 0.545327 0
M  V30 2462 C 241.109 1.0567 1.82749 0
M  V30 2463 O 240.457 0.144442 2.28043 0
M  V30 2464 C 240.667 3.39526 0.80767 0
M  V30 2465 C 242.015 4.08814 1.14703 0
M  V30 2466 O 243.039 3.44723 0.896917 0
M  V30 2467 O 241.898 5.22004 1.61784 0
M  V30 2468 H 238.992 0.778677 0.278553 0
M  V30 2469 H 241.538 1.68666 -0.187068 0
M  V30 2470 H 240.31 3.91173 -0.0996096 0
M  V30 2471 H 239.933 3.64243 1.59413 0
M  V30 2472 N 240.93 -0.123565 1.57115 0
M  V30 2473 C 241.893 -1.13583 1.99076 0
M  V30 2474 C 242.893 -1.34564 0.880296 0
M  V30 2475 O 244.083 -1.31158 1.14644 0
M  V30 2476 C 241.215 -2.49128 2.32698 0
M  V30 2477 H 242.408 -0.775287 2.89706 0
M  V30 2478 H 239.961 -0.36771 1.51913 0
M  V30 2479 H 240.696 -2.90111 1.44934 0
M  V30 2480 H 240.481 -2.35255 3.13684 0
M  V30 2481 H 241.971 -3.2199 2.65918 0
M  V30 2482 N 242.408 -1.52605 -0.393616 0
M  V30 2483 C 243.338 -1.80022 -1.48709 0
M  V30 2484 C 244.319 -0.651995 -1.57108 0
M  V30 2485 O 245.504 -0.89913 -1.72132 0
M  V30 2486 C 242.634 -1.96492 -2.86371 0
M  V30 2487 C 241.588 -3.12161 -2.92813 0
M  V30 2488 C 240.914 -3.13877 -4.3288 0
M  V30 2489 C 242.214 -4.51322 -2.6288 0
M  V30 2490 H 243.908 -2.71589 -1.26015 0
M  V30 2491 H 241.454 -1.30684 -0.604778 0
M  V30 2492 H 243.407 -2.14255 -3.62867 0
M  V30 2493 H 242.131 -1.01611 -3.10391 0
M  V30 2494 H 240.79 -2.94173 -2.18764 0
M  V30 2495 H 240.438 -2.16687 -4.53933 0
M  V30 2496 H 240.138 -3.91576 -4.38112 0
M  V30 2497 H 241.662 -3.33789 -5.1129 0
M  V30 2498 H 243.076 -4.69435 -3.29096 0
M  V30 2499 H 241.473 -5.31053 -2.79468 0
M  V30 2500 H 242.543 -4.58353 -1.58242 0
M  V30 2501 N 243.887 0.651787 -1.4349 0
M  V30 2502 C 244.819 1.77725 -1.44729 0
M  V30 2503 C 245.832 1.59141 -0.343231 0
M  V30 2504 O 247.021 1.67835 -0.607751 0
M  V30 2505 C 244.121 3.15172 -1.24579 0
M  V30 2506 C 243.294 3.60402 -2.47849 0
M  V30 2507 C 242.353 4.76656 -2.22902 0
M  V30 2508 O 241.379 4.86022 -2.96263 0
M  V30 2509 N 242.581 5.66958 -1.24656 0
M  V30 2510 H 245.346 1.77141 -2.41746 0
M  V30 2511 H 242.907 0.835678 -1.38665 0
M  V30 2512 H 244.899 3.90634 -1.0577 0
M  V30 2513 H 243.469 3.1052 -0.360015 0
M  V30 2514 H 242.689 2.75369 -2.82073 0
M  V30 2515 H 243.977 3.87368 -3.29884 0
M  V30 2516 H 243.375 5.62065 -0.640265 0
M  V30 2517 H 241.932 6.42135 -1.1183 0
M  V30 2518 N 245.365 1.30045 0.890287 0
M  V30 2519 C 246.328 1.15963 1.977 0
M  V30 2520 C 247.328 0.0923777 1.60534 0
M  V30 2521 O 248.518 0.340071 1.70848 0
M  V30 2522 C 245.65 0.775451 3.31963 0
M  V30 2523 H 246.843 2.12502 2.11619 0
M  V30 2524 H 244.396 1.13366 1.07601 0
M  V30 2525 H 245.131 -0.189671 3.23745 0
M  V30 2526 H 244.916 1.54668 3.60306 0
M  V30 2527 H 246.406 0.700251 4.11687 0
M  V30 2528 N 246.843 -1.10192 1.12674 0
M  V30 2529 C 248.092 -1.81573 0.8783 0
M  V30 2530 C 248.405 -1.86249 -0.597557 0
M  V30 2531 O 249.611 -2.5386 -0.962681 0
M  V30 2532 C 248.067 -3.26149 1.52167 0
M  V30 2533 C 247.675 -3.29763 3.03249 0
M  V30 2534 C 249.419 -4.0234 1.3536 0
M  V30 2535 C 247.326 -4.68815 3.60508 0
M  V30 2536 H 246.256 -0.680394 0.324931 0
M  V30 2537 H 248.907 -1.23902 1.35353 0
M  V30 2538 H 247.289 -3.83832 0.974104 0
M  V30 2539 H 248.463 -2.8189 3.6452 0
M  V30 2540 H 246.778 -2.67059 3.19481 0
M  V30 2541 H 249.375 -5.05058 1.75559 0
M  V30 2542 H 249.718 -4.15235 0.297554 0
M  V30 2543 H 250.251 -3.51079 1.87052 0
M  V30 2544 H 246.99 -4.61121 4.65884 0
M  V30 2545 H 246.51 -5.17045 3.04014 0
M  V30 2546 H 248.189 -5.37785 3.59717 0
M  V30 2547 N 248.321 -0.919034 -1.28029 0
M  V30 2548 C 249.268 -0.410005 -2.27129 0
M  V30 2549 C 250.238 0.518405 -1.57803 0
M  V30 2550 O 251.423 0.439451 -1.8567 0
M  V30 2551 C 248.563 0.339054 -3.4343 0
M  V30 2552 C 247.676 -0.622468 -4.27492 0
M  V30 2553 C 246.811 0.145567 -5.31001 0
M  V30 2554 C 245.85 -0.809226 -6.06727 0
M  V30 2555 N 244.987 -0.0743728 -7.02061 0
M  V30 2556 H 249.827 -1.26011 -2.70047 0
M  V30 2557 H 247.364 -0.632663 -1.328 0
M  V30 2558 H 249.322 0.789586 -4.0966 0
M  V30 2559 H 247.952 1.15346 -3.01488 0
M  V30 2560 H 247.004 -1.19153 -3.61257 0
M  V30 2561 H 248.316 -1.35252 -4.80113 0
M  V30 2562 H 247.47 0.656417 -6.03139 0
M  V30 2563 H 246.209 0.908643 -4.79161 0
M  V30 2564 H 245.214 -1.3314 -5.33436 0
M  V30 2565 H 246.439 -1.57194 -6.60656 0
M  V30 2566 H 244.385 0.670616 -6.52563 0
M  V30 2567 H 244.302 -0.744157 -7.52329 0
M  V30 2568 H 245.57 0.416109 -7.78389 0
M  V30 2569 N 249.799 1.42003 -0.683588 0
M  V30 2570 C 251.027 2.05746 -0.218182 0
M  V30 2571 C 251.442 1.51396 1.12804 0
M  V30 2572 O 250.799 0.657303 1.70252 0
M  V30 2573 C 250.85 3.61171 -0.154131 0
M  V30 2574 O 250.571 4.13508 -1.44716 0
M  V30 2575 C 252.072 4.42042 0.333713 0
M  V30 2576 H 249.292 0.662888 -0.10402 0
M  V30 2577 H 251.836 1.81987 -0.9328 0
M  V30 2578 H 249.991 3.84012 0.511231 0
M  V30 2579 H 250.405 5.07453 -1.32632 0
M  V30 2580 H 251.879 5.51028 0.327423 0
M  V30 2581 H 252.356 4.17269 1.37053 0
M  V30 2582 H 252.962 4.24239 -0.300222 0
M  V30 2583 N 251.277 0.427512 1.51691 0
M  V30 2584 C 252.224 -0.388867 2.275 0
M  V30 2585 C 253.194 -1.02532 1.30677 0
M  V30 2586 O 254.379 -1.0461 1.59566 0
M  V30 2587 C 251.519 -1.48954 3.11298 0
M  V30 2588 C 250.632 -0.872194 4.23104 0
M  V30 2589 C 249.767 -1.94709 4.94228 0
M  V30 2590 C 248.806 -1.30766 5.97969 0
M  V30 2591 N 247.943 -2.32349 6.62539 0
M  V30 2592 H 252.783 0.263997 2.96828 0
M  V30 2593 H 250.32 0.142033 1.46413 0
M  V30 2594 H 252.278 -2.13887 3.58201 0
M  V30 2595 H 250.908 -2.11217 2.44105 0
M  V30 2596 H 249.96 -0.111419 3.80237 0
M  V30 2597 H 251.272 -0.365264 4.97461 0
M  V30 2598 H 250.426 -2.67327 5.44629 0
M  V30 2599 H 249.165 -2.48773 4.1948 0
M  V30 2600 H 248.17 -0.566902 5.4687 0
M  V30 2601 H 249.395 -0.774483 6.74669 0
M  V30 2602 H 247.341 -2.85511 5.90609 0
M  V30 2603 H 247.258 -1.8652 7.3263 0
M  V30 2604 H 248.526 -3.04481 7.17574 0
M  V30 2605 N 252.755 -1.56801 0.158532 0
M  V30 2606 C 254.003 -1.96102 -0.488712 0
M  V30 2607 C 254.324 -1.04498 -1.64636 0
M  V30 2608 O 253.594 -0.108783 -1.95598 0
M  V30 2609 H 252.174 -0.724102 -0.183535 0
M  V30 2610 H 254.836 -1.93457 0.236728 0
M  V30 2611 H 253.932 -3.00097 -0.857219 0
M  V30 2612 N 254.233 0.115231 -1.57178 0
M  V30 2613 C 255.18 1.14115 -2.00615 0
M  V30 2614 C 256.15 1.40939 -0.878941 0
M  V30 2615 O 257.335 1.52741 -1.14345 0
M  V30 2616 C 254.475 2.46156 -2.4187 0
M  V30 2617 C 253.588 2.26236 -3.68024 0
M  V30 2618 C 252.723 3.51534 -3.98243 0
M  V30 2619 C 251.762 3.26787 -5.17568 0
M  V30 2620 N 250.899 4.44298 -5.43639 0
M  V30 2621 H 255.739 0.763743 -2.88047 0
M  V30 2622 H 253.276 0.365615 -1.42484 0
M  V30 2623 H 255.234 3.23189 -2.63827 0
M  V30 2624 H 253.864 2.81783 -1.57475 0
M  V30 2625 H 252.916 1.40102 -3.5366 0
M  V30 2626 H 254.228 2.03929 -4.55208 0
M  V30 2627 H 253.382 4.36984 -4.20868 0
M  V30 2628 H 252.121 3.76876 -3.09541 0
M  V30 2629 H 251.126 2.39729 -4.94783 0
M  V30 2630 H 252.351 3.02812 -6.0785 0
M  V30 2631 H 250.297 4.69754 -4.57895 0
M  V30 2632 H 250.214 4.25109 -6.25154 0
M  V30 2633 H 251.482 5.3087 -5.70786 0
M  V30 2634 N 255.711 1.52812 0.385517 0
M  V30 2635 C 257.127 1.4214 0.725829 0
M  V30 2636 C 257.327 0.544589 1.94001 0
M  V30 2637 O 256.383 0.0193693 2.52493 0
M  V30 2638 C 257.696 2.85042 0.957668 0
M  V30 2639 C 259.244 2.94543 1.05892 0
M  V30 2640 C 259.719 4.38464 1.32337 0
M  V30 2641 N 261.21 4.41804 1.39151 0
M  V30 2642 C 261.945 5.5025 1.61285 0
M  V30 2643 N 261.441 6.68775 1.80866 0
M  V30 2644 N 263.234 5.37798 1.63492 0
M  V30 2645 H 255.385 2.08338 -0.413383 0
M  V30 2646 H 257.648 0.940016 -0.122775 0
M  V30 2647 H 257.354 3.51431 0.137568 0
M  V30 2648 H 257.228 3.27505 1.87137 0
M  V30 2649 H 259.615 2.28321 1.86959 0
M  V30 2650 H 259.696 2.55504 0.123057 0
M  V30 2651 H 259.34 5.05254 0.517793 0
M  V30 2652 H 259.27 4.75059 2.27214 0
M  V30 2653 H 261.761 3.56377 1.25713 0
M  V30 2654 H 262.074 7.47197 1.97271 0
M  V30 2655 H 260.419 6.71797 1.78083 0
M  V30 2656 H 263.61 4.44171 1.47749 0
M  V30 2657 H 263.783 6.22382 1.80402 0
M  V30 2658 N 257.189 -0.644168 1.43834 0
M  V30 2659 C 258.152 -1.73857 1.49353 0
M  V30 2660 C 259.152 -1.56315 0.377112 0
M  V30 2661 O 260.342 -1.62048 0.639226 0
M  V30 2662 C 257.474 -3.12819 1.35488 0
M  V30 2663 H 258.667 -1.70342 2.46827 0
M  V30 2664 H 256.22 -0.856652 1.30733 0
M  V30 2665 H 256.955 -3.2194 0.390569 0
M  V30 2666 H 256.74 -3.26958 2.16428 0
M  V30 2667 H 258.23 -3.92606 1.42302 0
M  V30 2668 N 258.668 -1.30515 -0.883378 0
M  V30 2669 C 260.079 -1.17509 -1.45081 0
M  V30 2670 C 260.43 0.223605 -1.94922 0
M  V30 2671 O 259.555 1.12041 -1.85137 0
M  V30 2672 C 260.15 -2.12715 -2.63701 0
M  V30 2673 C 258.709 -2.03682 -3.16529 0
M  V30 2674 C 257.856 -2.02706 -1.89224 0
M  V30 2675 H 260.807 -1.42762 -0.693165 0
M  V30 2676 H 260.828 -1.70891 -3.39965 0
M  V30 2677 H 260.34 -3.14505 -2.27395 0
M  V30 2678 H 258.441 -1.05039 -3.57488 0
M  V30 2679 H 258.554 -2.92146 -3.7972 0
M  V30 2680 H 256.918 -1.4753 -2.07622 0
M  V30 2681 H 257.701 -3.06229 -1.55174 0
M  V30 2682 N 260.146 1.09593 -1.13257 0
M  V30 2683 C 261.393 1.81734 -0.893257 0
M  V30 2684 C 261.721 1.8563 0.580656 0
M  V30 2685 O 260.976 1.31906 1.44566 0
M  V30 2686 C 261.275 3.27802 -1.42411 0
M  V30 2687 C 260.941 3.44041 -2.91456 0
M  V30 2688 C 259.603 3.48181 -3.3215 0
M  V30 2689 C 261.955 3.48719 -3.87356 0
M  V30 2690 C 259.283 3.54575 -4.67433 0
M  V30 2691 C 261.635 3.56648 -5.2248 0
M  V30 2692 C 260.299 3.59055 -5.62704 0
M  V30 2693 H 259.569 0.665011 -0.326866 0
M  V30 2694 H 262.216 1.2912 -1.41422 0
M  V30 2695 H 260.521 3.83042 -0.823795 0
M  V30 2696 H 262.218 3.82149 -1.21503 0
M  V30 2697 H 258.808 3.41502 -2.58987 0
M  V30 2698 H 262.992 3.44763 -3.57004 0
M  V30 2699 H 258.248 3.54725 -4.97976 0
M  V30 2700 H 262.422 3.59212 -5.96607 0
M  V30 2701 H 260.049 3.63763 -6.67518 0
M  V30 2702 N 261.624 0.925811 1.2754 0
M  V30 2703 C 262.852 0.581509 1.9856 0
M  V30 2704 C 263.267 -0.840041 1.69082 0
M  V30 2705 O 262.624 -1.55805 0.950312 0
M  V30 2706 C 262.675 0.795589 3.52637 0
M  V30 2707 O 262.396 2.16121 3.81082 0
M  V30 2708 C 263.897 0.459744 4.4091 0
M  V30 2709 H 261.117 0.220538 0.633722 0
M  V30 2710 H 263.661 1.24232 1.6244 0
M  V30 2711 H 261.816 0.18161 3.86974 0
M  V30 2712 H 262.23 2.2098 4.75676 0
M  V30 2713 H 263.704 0.660244 5.48037 0
M  V30 2714 H 264.181 -0.604625 4.35018 0
M  V30 2715 H 264.787 1.05178 4.12089 0
M  V30 2716 N 263.102 -1.41638 0.69111 0
M  V30 2717 C 264.05 -2.32597 0.0115199 0
M  V30 2718 C 265.044 -1.5072 -0.773296 0
M  V30 2719 O 266.25 -1.66685 -0.67942 0
M  V30 2720 H 262.625 -0.751849 -0.0150746 0
M  V30 2721 H 264.596 -2.87593 0.795791 0
M  V30 2722 C 263.345 -3.35467 -0.914172 0
M  V30 2723 H 262.668 -3.9852 -0.319687 0
M  V30 2724 H 264.108 -4.01662 -1.35808 0
M  V30 2725 C 262.567 -2.69004 -2.02826 0
M  V30 2726 O 263.097 -2.53444 -3.11655 0
M  V30 2727 N 261.303 -2.2777 -1.80469 0
M  V30 2728 H 260.85 -2.40626 -0.919615 0
M  V30 2729 H 260.808 -1.83635 -2.55197 0
M  V30 2730 N 264.58 -0.43555 -1.51462 0
M  V30 2731 C 265.827 0.131514 -2.02072 0
M  V30 2732 C 266.155 1.42868 -1.31981 0
M  V30 2733 O 265.41 1.91076 -0.422883 0
M  V30 2734 C 265.709 0.39942 -3.55161 0
M  V30 2735 C 265.375 -0.81172 -4.43533 0
M  V30 2736 C 264.037 -1.14387 -4.67407 0
M  V30 2737 C 266.389 -1.61976 -4.95392 0
M  V30 2738 C 263.717 -2.28477 -5.40384 0
M  V30 2739 C 266.069 -2.75164 -5.6962 0
M  V30 2740 C 264.733 -3.08835 -5.91758 0
M  V30 2741 H 264.003 0.0481244 -0.739436 0
M  V30 2742 H 266.65 -0.58238 -1.8243 0
M  V30 2743 H 264.955 1.19519 -3.73125 0
M  V30 2744 H 266.652 0.85157 -3.91854 0
M  V30 2745 H 263.242 -0.542898 -4.25148 0
M  V30 2746 H 267.426 -1.37637 -4.76833 0
M  V30 2747 H 262.682 -2.5488 -5.55739 0
M  V30 2748 H 266.856 -3.38147 -6.08793 0
M  V30 2749 H 264.483 -3.97353 -6.48086 0
M  V30 2750 N 266.058 1.56714 -0.166846 0
M  V30 2751 C 267.335 1.88412 0.525373 0
M  V30 2752 C 267.715 1.07602 1.81618 0
M  V30 2753 O 267.063 0.168621 2.27877 0
M  V30 2754 C 267.273 3.40363 0.771613 0
M  V30 2755 C 268.621 4.10007 1.1036 0
M  V30 2756 O 269.645 3.45655 0.860304 0
M  V30 2757 O 268.504 5.2369 1.56239 0
M  V30 2758 H 265.598 0.781587 0.270278 0
M  V30 2759 H 268.144 1.68458 -0.204946 0
M  V30 2760 H 266.916 3.91046 -0.141093 0
M  V30 2761 H 266.539 3.65914 1.55541 0
M  V30 2762 N 267.536 -0.106894 1.57237 0
M  V30 2763 C 268.947 -0.662723 1.74542 0
M  V30 2764 C 269.298 -1.7971 0.787319 0
M  V30 2765 O 268.423 -2.16368 -0.0369636 0
M  V30 2766 C 269.018 -1.20896 3.16496 0
M  V30 2767 C 267.577 -1.71096 3.35266 0
M  V30 2768 C 266.724 -0.615642 2.7038 0
M  V30 2769 H 269.675 0.119106 1.58252 0
M  V30 2770 H 269.696 -2.07847 3.18716 0
M  V30 2771 H 269.208 -0.383122 3.86204 0
M  V30 2772 H 267.309 -2.56119 2.70618 0
M  V30 2773 H 267.422 -1.81208 4.43509 0
M  V30 2774 H 265.786 -1.05222 2.31949 0
M  V30 2775 H 266.569 0.199419 3.4272 0
M  V30 2776 N 269.014 -1.53014 -0.377408 0
M  V30 2777 C 270.239 -1.72818 -1.14668 0
M  V30 2778 C 270.664 -0.450725 -1.8262 0
M  V30 2779 O 270.022 0.59439 -1.7128 0
M  V30 2780 C 270.07 -2.88627 -2.16164 0
M  V30 2781 O 269.174 -2.56409 -3.22998 0
M  V30 2782 H 268.515 -0.574301 -0.333278 0
M  V30 2783 H 271.045 -1.99853 -0.438152 0
M  V30 2784 H 271.055 -3.14455 -2.59966 0
M  V30 2785 H 269.73 -3.81294 -1.66095 0
M  V30 2786 H 268.307 -2.4136 -2.84253 0
M  V30 2787 N 270.492 0.636531 -1.44174 0
M  V30 2788 C 271.72 1.42353 -1.50144 0
M  V30 2789 C 272.135 1.88389 -0.124575 0
M  V30 2790 O 271.492 1.6051 0.868489 0
M  V30 2791 C 271.543 2.64744 -2.46156 0
M  V30 2792 O 271.264 2.20629 -3.7849 0
M  V30 2793 C 272.765 3.57929 -2.61537 0
M  V30 2794 H 269.985 0.436752 -0.5094 0
M  V30 2795 H 272.529 0.778933 -1.89084 0
M  V30 2796 H 270.684 3.25307 -2.10366 0
M  V30 2797 H 271.098 2.99938 -4.30276 0
M  V30 2798 H 272.572 4.40428 -3.32757 0
M  V30 2799 H 273.049 4.06382 -1.66585 0
M  V30 2800 H 273.655 3.03238 -2.98206 0
M  V30 2801 N 271.97 1.30982 0.876444 0
M  V30 2802 C 272.9 1.20668 1.99903 0
M  V30 2803 C 273.881 0.095354 1.69833 0
M  V30 2804 O 275.066 0.27885 1.92188 0
M  V30 2805 C 272.196 0.90655 3.3526 0
M  V30 2806 C 271.15 1.97675 3.79617 0
M  V30 2807 C 270.476 1.52943 5.1236 0
M  V30 2808 C 271.776 3.389 3.97422 0
M  V30 2809 H 273.47 2.14586 2.0879 0
M  V30 2810 H 271.016 1.03308 1.00317 0
M  V30 2811 H 272.969 0.821025 4.13324 0
M  V30 2812 H 271.693 -0.0682969 3.26529 0
M  V30 2813 H 270.352 2.05205 3.03787 0
M  V30 2814 H 270 0.54262 5.00065 0
M  V30 2815 H 269.7 2.24532 5.43009 0
M  V30 2816 H 271.224 1.45786 5.92941 0
M  V30 2817 H 272.638 3.34081 4.659 0
M  V30 2818 H 271.035 4.0865 4.3946 0
M  V30 2819 H 272.105 3.80163 3.01006 0
M  V30 2820 N 273.449 -1.08991 1.13837 0
M  V30 2821 C 274.379 -2.17771 0.842507 0
M  V30 2822 C 275.36 -1.6892 -0.20001 0
M  V30 2823 O 276.545 -1.94113 -0.0579731 0
M  V30 2824 C 273.675 -3.4589 0.312644 0
M  V30 2825 C 272.629 -4.08099 1.28992 0
M  V30 2826 C 271.955 -5.31098 0.619623 0
M  V30 2827 C 273.255 -4.50077 2.65005 0
M  V30 2828 H 274.949 -2.42777 1.75213 0
M  V30 2829 H 272.495 -1.16682 0.843875 0
M  V30 2830 H 274.448 -4.21297 0.0933043 0
M  V30 2831 H 273.172 -3.20419 -0.632382 0
M  V30 2832 H 271.831 -3.34717 1.49533 0
M  V30 2833 H 271.479 -5.0191 -0.33102 0
M  V30 2834 H 271.179 -5.73674 1.27167 0
M  V30 2835 H 272.703 -6.09224 0.409669 0
M  V30 2836 H 274.117 -5.16688 2.48407 0
M  V30 2837 H 272.514 -5.03553 3.26427 0
M  V30 2838 H 273.584 -3.62257 3.22332 0
M  V30 2839 N 274.927 -0.932562 -1.27047 0
M  V30 2840 C 276.338 -0.619451 -1.76124 0
M  V30 2841 C 276.689 0.865397 -1.76083 0
M  V30 2842 O 275.814 1.67722 -1.36742 0
M  V30 2843 C 276.409 -1.11771 -3.19832 0
M  V30 2844 C 274.968 -0.855174 -3.66557 0
M  V30 2845 C 274.115 -1.27362 -2.46321 0
M  V30 2846 H 277.066 -1.11181 -1.13245 0
M  V30 2847 H 277.087 -0.46759 -3.77616 0
M  V30 2848 H 276.599 -2.19842 -3.1983 0
M  V30 2849 H 274.7 0.211524 -3.71999 0
M  V30 2850 H 274.813 -1.47613 -4.55793 0
M  V30 2851 H 273.177 -0.692119 -2.45116 0
M  V30 2852 H 273.96 -2.36307 -2.49025 0
M  V30 2853 N 276.405 1.4127 -0.698611 0
M  V30 2854 C 277.63 2.06024 -0.238512 0
M  V30 2855 C 278.055 1.5224 1.10475 0
M  V30 2856 O 277.413 0.650623 1.69223 0
M  V30 2857 C 277.461 3.59988 -0.209952 0
M  V30 2858 O 276.565 4.04282 0.814235 0
M  V30 2859 H 275.906 0.653829 -0.115775 0
M  V30 2860 H 278.436 1.8098 -0.954326 0
M  V30 2861 H 278.446 4.07979 -0.0418436 0
M  V30 2862 H 277.121 3.98503 -1.1903 0
M  V30 2863 H 275.698 3.6779 0.615234 0
M  V30 2864 N 277.883 0.443576 1.51229 0
M  V30 2865 C 279.108 -0.121648 2.07043 0
M  V30 2866 C 279.533 -1.35156 1.30823 0
M  V30 2867 O 278.891 -1.7793 0.347934 0
M  V30 2868 C 278.939 -0.41624 3.5819 0
M  V30 2869 O 278.043 -1.50163 3.8409 0
M  V30 2870 H 277.384 0.000871367 0.663999 0
M  V30 2871 H 279.914 0.626706 1.94765 0
M  V30 2872 H 279.924 -0.664867 4.02546 0
M  V30 2873 H 278.599 0.482653 4.1309 0
M  V30 2874 H 277.176 -1.24248 3.51592 0
M  V30 2875 N 279.361 -1.56624 0.175154 0
M  V30 2876 C 280.291 -2.21155 -0.749195 0
M  V30 2877 C 281.272 -1.16836 -1.23626 0
M  V30 2878 O 282.457 -1.45277 -1.28873 0
M  V30 2879 C 279.587 -2.8553 -1.97711 0
M  V30 2880 C 278.541 -3.95921 -1.62575 0
M  V30 2881 C 277.867 -4.47365 -2.92864 0
M  V30 2882 C 279.167 -5.15323 -0.850838 0
M  V30 2883 H 280.861 -2.98653 -0.211295 0
M  V30 2884 H 278.407 -1.43651 -0.100188 0
M  V30 2885 H 280.36 -3.2935 -2.62881 0
M  V30 2886 H 279.084 -2.05406 -2.53921 0
M  V30 2887 H 277.743 -3.52762 -0.997719 0
M  V30 2888 H 277.391 -3.64027 -3.47122 0
M  V30 2889 H 277.091 -5.21839 -2.70106 0
M  V30 2890 H 278.615 -4.93873 -3.59056 0
M  V30 2891 H 280.029 -5.55812 -1.40521 0
M  V30 2892 H 278.426 -5.95739 -0.722154 0
M  V30 2893 H 279.496 -4.84661 0.152082 0
M  V30 2894 N 280.839 0.0985539 -1.57292 0
M  V30 2895 C 282.116 0.834155 -1.76921 0
M  V30 2896 C 282.496 1.97101 -0.755928 0
M  V30 2897 O 281.844 2.27474 0.216245 0
M  V30 2898 C 282.054 1.33194 -3.22584 0
M  V30 2899 C 283.402 1.77611 -3.85668 0
M  V30 2900 O 284.426 1.42825 -3.26312 0
M  V30 2901 O 283.285 2.4192 -4.90038 0
M  V30 2902 H 280.379 0.397628 -0.725135 0
M  V30 2903 H 282.925 0.0807044 -1.69508 0
M  V30 2904 H 281.697 0.517248 -3.87866 0
M  V30 2905 H 281.32 2.1475 -3.34616 0
M  V30 2906 N 282.317 1.53212 0.369288 0
M  V30 2907 C 283.564 1.69215 1.11232 0
M  V30 2908 C 283.892 0.442048 1.8941 0
M  V30 2909 O 283.147 -0.575944 1.87033 0
M  V30 2910 C 283.446 2.89101 2.10132 0
M  V30 2911 C 283.112 4.25758 1.48463 0
M  V30 2912 C 281.774 4.6292 1.31372 0
M  V30 2913 C 284.126 5.10757 1.03811 0
M  V30 2914 C 281.454 5.82722 0.68207 0
M  V30 2915 C 283.806 6.31201 0.420487 0
M  V30 2916 C 282.47 6.67079 0.237038 0
M  V30 2917 H 281.74 0.619201 0.407027 0
M  V30 2918 H 284.387 1.87391 0.394552 0
M  V30 2919 H 282.692 2.65421 2.88199 0
M  V30 2920 H 284.389 2.98676 2.6757 0
M  V30 2921 H 280.979 3.96494 1.62758 0
M  V30 2922 H 285.163 4.82599 1.1581 0
M  V30 2923 H 280.419 6.09113 0.528316 0
M  V30 2924 H 284.593 6.96368 0.0662874 0
M  V30 2925 H 282.22 7.59774 -0.254477 0
M  V30 2926 N 283.795 -0.628877 1.44509 0
M  V30 2927 C 285.041 -1.38863 1.48623 0
M  V30 2928 C 285.396 -1.92038 0.117933 0
M  V30 2929 O 284.689 -1.70853 -0.86716 0
M  V30 2930 C 284.883 -2.56995 2.48371 0
M  V30 2931 C 284.712 -2.15385 3.94765 0
M  V30 2932 C 283.482 -2.02558 4.62924 0
M  V30 2933 C 285.68 -1.74158 4.83915 0
M  V30 2934 N 283.662 -1.54534 5.94132 0
M  V30 2935 C 285.033 -1.37396 6.04584 0
M  V30 2936 C 287.088 -1.61559 4.7096 0
M  V30 2937 C 285.791 -0.892948 7.13736 0
M  V30 2938 C 287.817 -1.14862 5.80139 0
M  V30 2939 C 287.179 -0.790516 6.9995 0
M  V30 2940 H 283.278 -0.502858 0.59888 0
M  V30 2941 H 285.862 -0.72121 1.8085 0
M  V30 2942 H 284.033 -3.21362 2.1813 0
M  V30 2943 H 285.765 -3.23801 2.42766 0
M  V30 2944 H 282.52 -2.23082 4.1777 0
M  V30 2945 H 282.944 -1.32815 6.63844 0
M  V30 2946 H 287.586 -1.87876 3.78764 0
M  V30 2947 H 285.304 -0.617291 8.05739 0
M  V30 2948 H 288.89 -1.05569 5.72142 0
M  V30 2949 H 287.77 -0.434713 7.82994 0
M  V30 2950 N 285.273 -1.31445 -0.869486 0
M  V30 2951 C 286.501 -1.24122 -1.65534 0
M  V30 2952 C 286.916 0.193387 -1.87807 0
M  V30 2953 O 286.273 1.12557 -1.43656 0
M  V30 2954 C 286.324 -1.98229 -3.02304 0
M  V30 2955 O 286.045 -3.3609 -2.81026 0
M  V30 2956 C 287.546 -1.97751 -3.96749 0
M  V30 2957 H 284.766 -0.428868 -0.516055 0
M  V30 2958 H 287.31 -1.73328 -1.08525 0
M  V30 2959 H 285.465 -1.52782 -3.56001 0
M  V30 2960 H 285.879 -3.7383 -3.67902 0
M  V30 2961 H 287.353 -2.54114 -4.90031 0
M  V30 2962 H 287.83 -0.960137 -4.28577 0
M  V30 2963 H 288.436 -2.43079 -3.48988 0
M  V30 2964 N 286.751 1.08385 -1.14413 0
M  V30 2965 C 287.981 1.8425 -0.934644 0
M  V30 2966 C 288.389 1.81907 0.520234 0
M  V30 2967 O 287.732 1.22126 1.37226 0
M  V30 2968 C 287.794 3.32853 -1.35828 0
M  V30 2969 C 287.458 3.5893 -2.82875 0
M  V30 2970 C 288.455 3.53756 -3.80989 0
M  V30 2971 C 286.14 3.86934 -3.20293 0
M  V30 2972 C 288.134 3.76216 -5.14529 0
M  V30 2973 C 285.821 4.09047 -4.54008 0
M  V30 2974 C 286.819 4.03682 -5.50936 0
M  V30 2975 O 286.507 4.25214 -6.82238 0
M  V30 2976 H 286.239 0.588502 -0.332628 0
M  V30 2977 H 288.793 1.37792 -1.52324 0
M  V30 2978 H 287.023 3.8007 -0.713019 0
M  V30 2979 H 288.712 3.90154 -1.11957 0
M  V30 2980 H 289.478 3.32135 -3.53428 0
M  V30 2981 H 285.357 3.9023 -2.45442 0
M  V30 2982 H 288.901 3.71943 -5.90173 0
M  V30 2983 H 284.798 4.30151 -4.8129 0
M  V30 2984 H 285.566 4.42619 -6.88499 0
M  V30 2985 N 288.23 0.939286 1.26551 0
M  V30 2986 C 289.641 0.628782 1.75793 0
M  V30 2987 C 289.992 -0.856046 1.7654 0
M  V30 2988 O 289.117 -1.66994 1.3763 0
M  V30 2989 C 289.712 1.13465 3.19235 0
M  V30 2990 C 288.271 0.874601 3.66098 0
M  V30 2991 C 287.418 1.28667 2.45642 0
M  V30 2992 H 290.369 1.1178 1.12654 0
M  V30 2993 H 290.39 0.487609 3.77363 0
M  V30 2994 H 289.902 2.21535 3.1866 0
M  V30 2995 H 288.003 -0.191793 3.72106 0
M  V30 2996 H 288.116 1.50028 4.55004 0
M  V30 2997 H 286.48 0.705109 2.44745 0
M  V30 2998 H 287.263 2.37625 2.47769 0
M  V30 2999 N 289.708 -1.40897 0.706093 0
M  V30 3000 C 290.956 -2.00657 0.241054 0
M  V30 3001 C 291.277 -1.56241 -1.16678 0
M  V30 3002 O 290.547 -0.79765 -1.78926 0
M  V30 3003 H 289.127 -0.742018 0.0861308 0
M  V30 3004 H 291.789 -1.72372 0.909604 0
M  V30 3005 H 290.885 -3.10958 0.266705 0
M  V30 3006 N 291.186 -0.45159 -1.50991 0
M  V30 3007 C 292.411 0.110667 -2.07105 0
M  V30 3008 C 292.836 1.3446 -1.31538 0
M  V30 3009 O 292.194 1.77743 -0.357365 0
M  V30 3010 C 292.242 0.397238 -3.58405 0
M  V30 3011 O 291.346 1.48124 -3.84881 0
M  V30 3012 H 290.687 -0.00439271 -0.663985 0
M  V30 3013 H 293.217 -0.637026 -1.9443 0
M  V30 3014 H 293.227 0.64351 -4.02893 0
M  V30 3015 H 291.902 -0.504553 -4.12828 0
M  V30 3016 H 290.479 1.22381 -3.52246 0
M  V30 3017 N 292.664 1.56529 -0.183458 0
M  V30 3018 C 293.594 2.21549 0.737456 0
M  V30 3019 C 294.575 1.17489 1.23005 0
M  V30 3020 O 295.76 1.45959 1.281 0
M  V30 3021 C 292.89 2.86575 1.96194 0
M  V30 3022 C 291.844 3.96778 1.60473 0
M  V30 3023 C 291.17 4.48911 2.90487 0
M  V30 3024 C 292.47 5.15767 0.823497 0
M  V30 3025 H 294.164 2.98761 0.195453 0
M  V30 3026 H 291.71 1.43702 0.0925686 0
M  V30 3027 H 293.663 3.30739 2.61131 0
M  V30 3028 H 292.387 2.06749 2.52828 0
M  V30 3029 H 291.046 3.53286 0.978997 0
M  V30 3030 H 290.694 3.65862 3.45186 0
M  V30 3031 H 290.394 5.23265 2.67335 0
M  V30 3032 H 291.918 4.95771 3.56432 0
M  V30 3033 H 293.332 5.56549 1.37571 0
M  V30 3034 H 291.729 5.96114 0.690551 0
M  V30 3035 H 292.799 4.84574 -0.177782 0
M  V30 3036 N 294.142 -0.090211 1.57342 0
M  V30 3037 C 295.37 -0.806224 1.90546 0
M  V30 3038 C 295.785 -1.72041 0.777644 0
M  V30 3039 O 295.142 -1.80778 -0.250103 0
M  V30 3040 C 295.193 -1.61546 3.23396 0
M  V30 3041 O 294.914 -0.738043 4.31839 0
M  V30 3042 C 296.415 -2.4341 3.70495 0
M  V30 3043 H 293.635 -0.230256 0.630257 0
M  V30 3044 H 296.179 -0.0659843 2.04394 0
M  V30 3045 H 294.334 -2.30816 3.11131 0
M  V30 3046 H 294.748 -1.29901 5.08159 0
M  V30 3047 H 296.222 -2.95676 4.66133 0
M  V30 3048 H 296.699 -3.22098 2.98579 0
M  V30 3049 H 297.305 -1.79331 3.85643 0
M  V30 3050 N 295.62 -1.53406 -0.361157 0
M  V30 3051 C 296.57 -1.76536 -1.44287 0
M  V30 3052 C 297.554 -0.620019 -1.48474 0
M  V30 3053 O 298.746 -0.878834 -1.53641 0
M  V30 3054 C 295.875 -1.96266 -2.81664 0
M  V30 3055 C 294.961 -3.16815 -2.81938 0
M  V30 3056 N 295.352 -4.38637 -2.51855 0
M  V30 3057 C 293.65 -3.17627 -3.13096 0
M  V30 3058 C 294.351 -5.20401 -2.59919 0
M  V30 3059 N 293.327 -4.56712 -2.94814 0
M  V30 3060 H 297.129 -2.68331 -1.19899 0
M  V30 3061 H 294.643 -1.52091 -0.56938 0
M  V30 3062 H 296.64 -2.10966 -3.59582 0
M  V30 3063 H 295.3 -1.05702 -3.07013 0
M  V30 3064 H 296.311 -4.66293 -2.25369 0
M  V30 3065 H 292.988 -2.36971 -3.43731 0
M  V30 3066 H 294.378 -6.27586 -2.39969 0
M  V30 3067 N 297.098 0.621204 -1.44841 0
M  V30 3068 C 298.509 1.20298 -1.42777 0
M  V30 3069 C 298.86 1.95639 -0.148259 0
M  V30 3070 O 297.985 2.02955 0.750892 0
M  V30 3071 C 298.58 2.1882 -2.58657 0
M  V30 3072 C 297.139 2.72403 -2.59756 0
M  V30 3073 C 296.286 1.4757 -2.34773 0
M  V30 3074 H 299.237 0.411297 -1.53278 0
M  V30 3075 H 299.258 3.01607 -2.31977 0
M  V30 3076 H 298.77 1.63957 -3.51766 0
M  V30 3077 H 296.871 3.31242 -1.70615 0
M  V30 3078 H 296.984 3.17765 -3.58556 0
M  V30 3079 H 295.348 1.76051 -1.8406 0
M  V30 3080 H 296.131 0.945954 -3.3001 0
M  V30 3081 N 298.576 1.31904 0.862503 0
M  V30 3082 C 299.987 1.19803 1.43193 0
M  V30 3083 C 300.338 -0.192567 1.95253 0
M  V30 3084 O 299.463 -1.09081 1.86896 0
M  V30 3085 C 300.058 2.16883 2.60283 0
M  V30 3086 C 298.617 2.08692 3.13248 0
M  V30 3087 C 297.764 2.05691 1.85975 0
M  V30 3088 H 300.715 1.43846 0.670365 0
M  V30 3089 H 300.736 1.76278 3.37204 0
M  V30 3090 H 300.248 3.18083 2.22363 0
M  V30 3091 H 298.349 1.10713 3.55771 0
M  V30 3092 H 298.462 2.9815 3.75025 0
M  V30 3093 H 296.826 1.50814 2.05249 0
M  V30 3094 H 297.609 3.08659 1.50282 0
M  V30 3095 N 300.054 -1.07777 1.14986 0
M  V30 3096 C 300.984 -2.16865 0.865557 0
M  V30 3097 C 301.965 -1.69123 -0.182083 0
M  V30 3098 O 303.15 -1.94164 -0.0373815 0
M  V30 3099 C 300.28 -3.45539 0.349313 0
M  V30 3100 C 299.234 -4.06708 1.33313 0
M  V30 3101 C 298.56 -5.30411 0.675918 0
M  V30 3102 C 299.86 -4.47241 2.69764 0
M  V30 3103 H 301.554 -2.40905 1.77778 0
M  V30 3104 H 299.1 -1.15781 0.856203 0
M  V30 3105 H 301.053 -4.21174 0.137983 0
M  V30 3106 H 299.777 -3.21072 -0.598362 0
M  V30 3107 H 298.436 -3.33112 1.53075 0
M  V30 3108 H 298.084 -5.02232 -0.277767 0
M  V30 3109 H 297.784 -5.72293 1.33244 0
M  V30 3110 H 299.308 -6.08755 0.474262 0
M  V30 3111 H 300.722 -5.14025 2.53873 0
M  V30 3112 H 299.119 -5.00062 3.3175 0
M  V30 3113 H 300.189 -3.58818 3.26156 0
M  V30 3114 N 301.532 -0.945985 -1.26051 0
M  V30 3115 C 302.762 -0.612136 -1.97323 0
M  V30 3116 C 303.17 0.818171 -1.70595 0
M  V30 3117 O 302.513 1.55777 -0.973613 0
M  V30 3118 C 302.575 -0.780347 -3.50929 0
M  V30 3119 C 302.239 -2.18619 -4.01317 0
M  V30 3120 C 303.236 -3.16209 -4.12683 0
M  V30 3121 C 300.921 -2.50805 -4.35203 0
M  V30 3122 C 302.915 -4.44085 -4.57238 0
M  V30 3123 C 300.602 -3.78912 -4.79446 0
M  V30 3124 C 301.6 -4.75365 -4.90425 0
M  V30 3125 O 301.288 -6.01191 -5.3369 0
M  V30 3126 H 301.02 -0.229134 -0.635982 0
M  V30 3127 H 303.574 -1.27036 -1.61404 0
M  V30 3128 H 301.804 -0.0649864 -3.86645 0
M  V30 3129 H 303.493 -0.448842 -4.03411 0
M  V30 3130 H 304.259 -2.92668 -3.86744 0
M  V30 3131 H 300.138 -1.76463 -4.2589 0
M  V30 3132 H 303.682 -5.19373 -4.65723 0
M  V30 3133 H 299.579 -4.02265 -5.0483 0
M  V30 3134 H 300.347 -6.04442 -5.51899 0
M  V30 3135 N 303.011 1.40521 -0.713556 0
M  V30 3136 C 303.921 2.34522 -0.0606667 0
M  V30 3137 C 304.937 1.57193 0.74607 0
M  V30 3138 O 306.113 1.89591 0.679493 0
M  V30 3139 C 303.178 3.36081 0.851491 0
M  V30 3140 C 302.239 4.29286 0.0349339 0
M  V30 3141 C 301.472 5.25994 0.903649 0
M  V30 3142 O 301.695 5.28616 2.14292 0
M  V30 3143 O 300.629 6.00918 0.343723 0
M  V30 3144 H 304.455 2.91968 -0.835972 0
M  V30 3145 H 302.04 1.41681 -0.47402 0
M  V30 3146 H 303.922 3.98369 1.37404 0
M  V30 3147 H 302.597 2.81052 1.60598 0
M  V30 3148 H 301.504 3.70289 -0.532633 0
M  V30 3149 H 302.837 4.87462 -0.681287 0
M  V30 3150 N 304.489 0.459591 1.5075 0
M  V30 3151 C 305.714 -0.0996819 2.0716 0
M  V30 3152 C 306.139 -1.33761 1.32249 0
M  V30 3153 O 305.497 -1.77551 0.366786 0
M  V30 3154 C 305.545 -0.378226 3.58611 0
M  V30 3155 O 304.649 -1.46081 3.85661 0
M  V30 3156 H 303.99 0.00791392 0.663953 0
M  V30 3157 H 306.52 0.647329 1.9409 0
M  V30 3158 H 306.53 -0.622135 4.03229 0
M  V30 3159 H 305.205 0.526439 4.12555 0
M  V30 3160 H 303.782 -1.20511 3.5289 0
M  V30 3161 N 305.967 -1.56429 0.191757 0
M  V30 3162 C 307.213 -1.97777 -0.448554 0
M  V30 3163 C 307.546 -1.07847 -1.61501 0
M  V30 3164 O 306.821 -0.129774 -1.94067 0
M  V30 3165 C 307.104 -3.48362 -0.911906 0
M  V30 3166 C 306.957 -4.4907 0.256136 0
M  V30 3167 C 308.276 -4.02561 -1.77857 0
M  V30 3168 H 305.395 -0.719071 -0.161572 0
M  V30 3169 H 308.037 -1.87896 0.282007 0
M  V30 3170 H 306.187 -3.56914 -1.53442 0
M  V30 3171 H 307.859 -4.5256 0.893733 0
M  V30 3172 H 306.102 -4.24181 0.908436 0
M  V30 3173 H 306.773 -5.51889 -0.11053 0
M  V30 3174 H 309.249 -3.96767 -1.25359 0
M  V30 3175 H 308.125 -5.08301 -2.07174 0
M  V30 3176 H 308.386 -3.47616 -2.73158 0
M  V30 3177 N 307.445 0.0818655 -1.57387 0
M  V30 3178 C 308.673 0.796108 -1.9097 0
M  V30 3179 C 309.088 1.71626 -0.786757 0
M  V30 3180 O 308.445 1.80908 0.240513 0
M  V30 3181 C 308.496 1.59829 -3.24248 0
M  V30 3182 O 308.217 0.715131 -4.32224 0
M  V30 3183 C 309.718 2.41442 -3.7178 0
M  V30 3184 H 306.938 0.22691 -0.631469 0
M  V30 3185 H 309.482 0.0551439 -2.04426 0
M  V30 3186 H 307.637 2.29163 -3.12351 0
M  V30 3187 H 308.051 1.27205 -5.08841 0
M  V30 3188 H 309.525 2.932 -4.67694 0
M  V30 3189 H 310.002 3.2051 -3.00283 0
M  V30 3190 H 310.608 1.77283 -3.86589 0
M  V30 3191 N 308.923 1.53595 0.353017 0
M  V30 3192 C 310.169 1.71581 1.09232 0
M  V30 3193 C 310.524 0.468328 1.86613 0
M  V30 3194 O 309.817 -0.538911 1.83865 0
M  V30 3195 C 310.011 2.91313 2.07054 0
M  V30 3196 C 309.84 4.27585 1.39287 0
M  V30 3197 C 308.61 4.92233 1.1417 0
M  V30 3198 C 310.808 5.07656 0.824005 0
M  V30 3199 N 308.79 6.124 0.428841 0
M  V30 3200 C 310.161 6.19531 0.241195 0
M  V30 3201 C 312.216 4.92609 0.723922 0
M  V30 3202 C 310.919 7.18002 -0.431952 0
M  V30 3203 C 312.945 5.91365 0.0645334 0
M  V30 3204 C 312.307 7.02571 -0.507347 0
M  V30 3205 H 308.406 0.680987 0.384422 0
M  V30 3206 H 310.99 1.91013 0.377096 0
M  V30 3207 H 309.161 2.73398 2.75877 0
M  V30 3208 H 310.893 2.98062 2.73753 0
M  V30 3209 H 307.648 4.51612 1.42631 0
M  V30 3210 H 308.072 6.76944 0.0874131 0
M  V30 3211 H 312.714 4.06808 1.15181 0
M  V30 3212 H 310.432 8.03384 -0.871758 0
M  V30 3213 H 314.018 5.81799 -0.0121469 0
M  V30 3214 H 312.898 7.77675 -1.0095 0
M  V30 3215 N 310.401 -0.613514 1.45168 0
M  V30 3216 C 311.65 -1.36874 1.4815 0
M  V30 3217 C 311.963 -1.952 0.124982 0
M  V30 3218 O 313.169 -2.71481 0.0324176 0
M  V30 3219 C 311.625 -2.47905 2.60904 0
M  V30 3220 C 311.233 -1.96016 4.02842 0
M  V30 3221 C 312.977 -3.24965 2.73126 0
M  V30 3222 C 310.884 -3.04494 5.06988 0
M  V30 3223 H 309.814 -0.514428 0.551253 0
M  V30 3224 H 312.465 -0.658182 1.7129 0
M  V30 3225 H 310.847 -3.21618 2.31037 0
M  V30 3226 H 312.021 -1.29051 4.4236 0
M  V30 3227 H 310.336 -1.31719 3.95018 0
M  V30 3228 H 312.933 -4.05865 3.48106 0
M  V30 3229 H 313.276 -3.75588 1.79553 0
M  V30 3230 H 313.809 -2.5835 3.0249 0
M  V30 3231 H 310.548 -2.58795 6.0225 0
M  V30 3232 H 310.068 -3.70044 4.72046 0
M  V30 3233 H 311.747 -3.68976 5.31475 0
M  V30 3234 N 311.879 -1.3236 -0.855495 0
M  V30 3235 C 313.128 -1.22226 -1.60448 0
M  V30 3236 C 313.441 0.214733 -1.94418 0
M  V30 3237 O 314.647 0.437917 -2.67945 0
M  V30 3238 C 313.103 -2.14063 -2.89318 0
M  V30 3239 C 312.711 -3.62839 -2.62777 0
M  V30 3240 C 314.455 -2.12764 -3.67331 0
M  V30 3241 C 312.362 -4.4664 -3.87643 0
M  V30 3242 H 311.292 -0.453904 -0.602069 0
M  V30 3243 H 313.943 -1.57314 -0.944698 0
M  V30 3244 H 312.325 -1.71889 -3.5675 0
M  V30 3245 H 313.499 -4.1335 -2.03662 0
M  V30 3246 H 311.814 -3.66261 -1.98096 0
M  V30 3247 H 314.411 -2.72611 -4.59987 0
M  V30 3248 H 314.754 -1.11841 -4.00995 0
M  V30 3249 H 315.287 -2.53214 -3.06802 0
M  V30 3250 H 312.026 -5.48373 -3.5912 0
M  V30 3251 H 311.546 -4.0088 -4.46156 0
M  V30 3252 H 313.225 -4.59597 -4.55389 0
M  V30 3253 N 313.357 1.07166 -1.15556 0
M  V30 3254 C 314.597 1.81391 -0.94216 0
M  V30 3255 C 314.961 1.84788 0.521272 0
M  V30 3256 O 316.162 2.54904 0.85307 0
M  V30 3257 C 314.433 3.22431 -1.54185 0
M  V30 3258 S 315.992 4.13379 -1.47183 0
M  V30 3259 H 312.81 0.624963 -0.339031 0
M  V30 3260 H 315.412 1.28725 -1.4714 0
M  V30 3261 H 314.116 3.17548 -2.59984 0
M  V30 3262 H 313.647 3.80172 -1.01156 0
M  V30 3263 H 315.662 4.94007 -0.466004 0
M  V30 3264 N 314.835 0.952656 1.25548 0
M  V30 3265 C 315.782 0.47008 2.25962 0
M  V30 3266 C 316.752 -0.476384 1.59122 0
M  V30 3267 O 317.937 -0.39007 1.8677 0
M  V30 3268 C 315.077 -0.247881 3.44209 0
M  V30 3269 C 314.19 0.735591 4.25691 0
M  V30 3270 C 313.325 -0.0047306 5.312 0
M  V30 3271 C 312.364 0.969805 6.04368 0
M  V30 3272 N 311.501 0.260486 7.01617 0
M  V30 3273 H 316.341 1.33126 2.66611 0
M  V30 3274 H 313.878 0.66765 1.31076 0
M  V30 3275 H 315.836 -0.680695 4.1161 0
M  V30 3276 H 314.466 -1.07312 3.0444 0
M  V30 3277 H 313.518 1.28689 3.57971 0
M  V30 3278 H 314.83 1.47934 4.76358 0
M  V30 3279 H 313.984 -0.496275 6.04667 0
M  V30 3280 H 312.723 -0.781282 4.81401 0
M  V30 3281 H 311.728 1.47237 5.29718 0
M  V30 3282 H 312.953 1.74655 6.56256 0
M  V30 3283 H 310.899 -0.497364 6.54112 0
M  V30 3284 H 310.816 0.943362 7.50091 0
M  V30 3285 H 312.084 -0.209587 7.79218 0
M  V30 3286 N 316.313 -1.40141 0.720998 0
M  V30 3287 C 317.223 -2.34486 0.0731031 0
M  V30 3288 C 318.239 -1.57587 -0.737723 0
M  V30 3289 O 319.415 -1.89949 -0.669429 0
M  V30 3290 C 316.48 -3.36528 -0.833656 0
M  V30 3291 C 315.541 -4.29298 -0.0121673 0
M  V30 3292 C 314.774 -5.26466 -0.875742 0
M  V30 3293 O 314.997 -5.29745 -2.11485 0
M  V30 3294 O 313.931 -6.01092 -0.31185 0
M  V30 3295 H 317.757 -2.9152 0.851444 0
M  V30 3296 H 315.342 -1.41427 0.481527 0
M  V30 3297 H 317.224 -3.99093 -1.35289 0
M  V30 3298 H 315.899 -2.81899 -1.59105 0
M  V30 3299 H 314.806 -3.70001 0.552262 0
M  V30 3300 H 316.139 -4.87094 0.707129 0
M  V30 3301 N 317.792 -0.46758 -1.50504 0
M  V30 3302 C 319.017 0.0886943 -2.0721 0
M  V30 3303 C 319.442 1.33057 -1.32956 0
M  V30 3304 O 318.8 1.77354 -0.376197 0
M  V30 3305 C 318.848 0.359202 -3.58806 0
M  V30 3306 O 317.952 1.44034 -3.8643 0
M  V30 3307 H 317.293 -0.0114349 -0.663902 0
M  V30 3308 H 319.823 -0.657613 -1.93744 0
M  V30 3309 H 319.833 0.600742 -4.03553 0
M  V30 3310 H 318.508 -0.548311 -4.1227 0
M  V30 3311 H 317.085 1.18638 -3.53524 0
M  V30 3312 N 319.27 1.56325 -0.20005 0
M  V30 3313 C 320.519 1.96895 0.437652 0
M  V30 3314 C 320.832 1.08999 1.62415 0
M  V30 3315 O 322.038 1.39372 2.32997 0
M  V30 3316 C 320.494 3.50198 0.830025 0
M  V30 3317 C 320.102 4.46765 -0.332461 0
M  V30 3318 C 321.846 3.99526 1.43453 0
M  V30 3319 C 319.753 5.91344 0.0811468 0
M  V30 3320 H 318.683 0.735209 0.167282 0
M  V30 3321 H 321.334 1.81148 -0.292853 0
M  V30 3322 H 319.716 3.61467 1.61734 0
M  V30 3323 H 320.89 4.47231 -1.11 0
M  V30 3324 H 319.205 4.07657 -0.848789 0
M  V30 3325 H 321.802 5.05025 1.75652 0
M  V30 3326 H 322.145 3.44122 2.34277 0
M  V30 3327 H 322.678 3.91393 0.71109 0
M  V30 3328 H 319.417 6.50685 -0.793033 0
M  V30 3329 H 318.937 5.94121 0.823445 0
M  V30 3330 H 320.616 6.44945 0.515252 0
M  V30 3331 N 320.748 -0.0735177 1.57428 0
M  V30 3332 C 321.973 -0.789787 1.91774 0
M  V30 3333 C 322.398 -1.70413 0.796306 0
M  V30 3334 O 321.756 -1.79555 -0.250961 0
M  V30 3335 C 321.804 -1.5609 3.25067 0
M  V30 3336 O 320.908 -2.67144 3.14178 0
M  V30 3337 H 320.249 -0.215582 0.628029 0
M  V30 3338 H 322.779 -0.0422781 2.04556 0
M  V30 3339 H 322.789 -1.94052 3.58898 0
M  V30 3340 H 321.464 -0.890015 4.06265 0
M  V30 3341 H 320.041 -2.32052 2.91901 0
M  V30 3342 N 322.226 -1.5378 -0.344866 0
M  V30 3343 C 323.472 -1.71216 -1.08687 0
M  V30 3344 C 323.805 -0.473281 -1.88345 0
M  V30 3345 O 323.08 0.52968 -1.87149 0
M  V30 3346 C 323.363 -2.97486 -2.02914 0
M  V30 3347 C 323.216 -4.31579 -1.26727 0
M  V30 3348 C 324.535 -3.19422 -3.0275 0
M  V30 3349 H 321.654 -0.62301 -0.393735 0
M  V30 3350 H 324.296 -1.8645 -0.365563 0
M  V30 3351 H 322.446 -2.84629 -2.64421 0
M  V30 3352 H 324.118 -4.56284 -0.67845 0
M  V30 3353 H 322.361 -4.30049 -0.569273 0
M  V30 3354 H 323.032 -5.16106 -1.95803 0
M  V30 3355 H 325.508 -3.316 -2.51357 0
M  V30 3356 H 324.384 -4.09169 -3.65885 0
M  V30 3357 H 324.645 -2.35656 -3.74057 0
M  V30 3358 N 323.704 0.605807 -1.45491 0
M  V30 3359 C 324.929 1.39625 -1.53361 0
M  V30 3360 C 325.354 1.87351 -0.167645 0
M  V30 3361 O 324.712 1.60243 0.848051 0
M  V30 3362 C 324.76 2.57559 -2.5238 0
M  V30 3363 O 323.864 3.58248 -2.04285 0
M  V30 3364 H 323.205 0.416771 -0.516912 0
M  V30 3365 H 325.735 0.737103 -1.90861 0
M  V30 3366 H 325.745 3.0478 -2.71244 0
M  V30 3367 H 324.42 2.22171 -3.51586 0
M  V30 3368 H 322.997 3.17664 -1.95305 0
M  V30 3369 N 325.182 1.32811 0.848464 0
M  V30 3370 C 326.407 1.26882 1.6406 0
M  V30 3371 C 326.832 -0.15913 1.87426 0
M  V30 3372 O 326.19 -1.11258 1.43148 0
M  V30 3373 C 326.238 2.03997 2.97351 0
M  V30 3374 O 325.342 1.39201 3.88197 0
M  V30 3375 H 324.683 0.436982 0.499943 0
M  V30 3376 H 327.213 1.75224 1.0563 0
M  V30 3377 H 327.223 2.14403 3.47124 0
M  V30 3378 H 325.898 3.0783 2.79666 0
M  V30 3379 H 324.475 1.37381 3.46671 0
M  V30 3380 N 326.66 -1.06551 1.16123 0
M  V30 3381 C 327.57 -2.17484 0.879662 0
M  V30 3382 C 328.586 -1.73377 -0.147104 0
M  V30 3383 O 329.762 -2.01379 0.0289128 0
M  V30 3384 C 326.827 -3.44591 0.381829 0
M  V30 3385 C 325.888 -4.0322 1.4735 0
M  V30 3386 C 325.121 -5.24261 0.999324 0
M  V30 3387 O 325.344 -5.70198 -0.151957 0
M  V30 3388 O 324.278 -5.74775 1.78653 0
M  V30 3389 H 328.104 -2.44075 1.80724 0
M  V30 3390 H 325.689 -1.16042 0.940992 0
M  V30 3391 H 327.571 -4.21254 0.111053 0
M  V30 3392 H 326.246 -3.19532 -0.51777 0
M  V30 3393 H 325.153 -3.2806 1.79798 0
M  V30 3394 H 326.486 -4.32568 2.34831 0
M  V30 3395 N 328.138 -0.959301 -1.25041 0
M  V30 3396 C 329.07 -0.440543 -2.24926 0
M  V30 3397 C 330.083 0.446131 -1.56568 0
M  V30 3398 O 331.272 0.253657 -1.76689 0
M  V30 3399 C 328.372 0.38412 -3.36716 0
M  V30 3400 C 327.545 -0.490658 -4.34639 0
M  V30 3401 C 326.604 0.276587 -5.25473 0
M  V30 3402 O 325.63 -0.326614 -5.68262 0
M  V30 3403 N 326.832 1.56844 -5.5891 0
M  V30 3404 H 329.597 -1.29931 -2.70071 0
M  V30 3405 H 327.158 -0.830181 -1.38995 0
M  V30 3406 H 329.15 0.905228 -3.94446 0
M  V30 3407 H 327.72 1.14377 -2.90924 0
M  V30 3408 H 326.94 -1.19282 -3.7572 0
M  V30 3409 H 328.228 -1.08756 -4.97041 0
M  V30 3410 H 327.626 2.08036 -5.26059 0
M  V30 3411 H 326.183 2.03541 -6.19205 0
M  V30 3412 N 329.616 1.39756 -0.72842 0
M  V30 3413 C 330.546 2.33289 -0.0991354 0
M  V30 3414 C 331.527 1.53568 0.731489 0
M  V30 3415 O 332.712 1.81987 0.677807 0
M  V30 3416 C 329.842 3.3763 0.813834 0
M  V30 3417 C 328.796 4.2791 0.0878663 0
M  V30 3418 C 328.122 5.22894 1.11741 0
M  V30 3419 C 329.422 5.11314 -1.06563 0
M  V30 3420 H 331.116 2.86163 -0.880408 0
M  V30 3421 H 328.662 1.37591 -0.424819 0
M  V30 3422 H 330.615 4.0201 1.26355 0
M  V30 3423 H 329.339 2.83181 1.62715 0
M  V30 3424 H 327.998 3.65 -0.342159 0
M  V30 3425 H 327.646 4.64744 1.92412 0
M  V30 3426 H 327.346 5.84143 0.636477 0
M  V30 3427 H 328.87 5.90151 1.56697 0
M  V30 3428 H 330.284 5.69076 -0.694671 0
M  V30 3429 H 328.681 5.81671 -1.47577 0
M  V30 3430 H 329.751 4.46534 -1.89038 0
M  V30 3431 N 331.094 0.475555 1.50254 0
M  V30 3432 C 332.057 -0.305016 2.27161 0
M  V30 3433 C 333.057 -0.916519 1.32123 0
M  V30 3434 O 334.247 -0.785003 1.5551 0
M  V30 3435 C 331.379 -1.43496 3.09227 0
M  V30 3436 H 332.572 0.369511 2.97615 0
M  V30 3437 H 330.125 0.229747 1.54602 0
M  V30 3438 H 330.86 -2.14441 2.43281 0
M  V30 3439 H 330.645 -1.00223 3.79075 0
M  V30 3440 H 332.135 -1.98548 3.67381 0
M  V30 3441 N 332.573 -1.56217 0.208337 0
M  V30 3442 C 333.505 -2.1695 -0.739276 0
M  V30 3443 C 334.518 -1.13492 -1.1672 0
M  V30 3444 O 335.707 -1.40529 -1.10063 0
M  V30 3445 C 332.807 -2.72755 -2.01142 0
M  V30 3446 C 331.98 -4.0125 -1.74118 0
M  V30 3447 C 331.039 -4.41749 -2.85909 0
M  V30 3448 O 330.065 -5.08912 -2.54946 0
M  V30 3449 N 331.267 -4.06342 -4.14568 0
M  V30 3450 H 334.032 -2.98893 -0.219837 0
M  V30 3451 H 331.593 -1.61878 0.0268445 0
M  V30 3452 H 333.585 -2.96826 -2.75094 0
M  V30 3453 H 332.155 -1.95191 -2.4417 0
M  V30 3454 H 331.375 -3.85173 -0.838775 0
M  V30 3455 H 332.663 -4.851 -1.53477 0
M  V30 3456 H 332.061 -3.52345 -4.42571 0
M  V30 3457 H 330.618 -4.35335 -4.85105 0
M  V30 3458 N 334.051 0.0651679 -1.57465 0
M  V30 3459 C 335.298 0.763063 -1.87573 0
M  V30 3460 C 335.626 1.77242 -0.800961 0
M  V30 3461 O 334.881 1.94651 0.202316 0
M  V30 3462 C 335.18 1.50081 -3.24362 0
M  V30 3463 C 334.846 0.630816 -4.46466 0
M  V30 3464 C 333.508 0.391082 -4.79608 0
M  V30 3465 C 335.86 0.0279465 -5.21193 0
M  V30 3466 C 333.188 -0.460894 -5.84887 0
M  V30 3467 C 335.54 -0.811522 -6.27373 0
M  V30 3468 C 334.204 -1.06106 -6.59013 0
M  V30 3469 H 333.474 0.279224 -0.686378 0
M  V30 3470 H 336.121 0.0236726 -1.91485 0
M  V30 3471 H 334.426 2.31258 -3.16271 0
M  V30 3472 H 336.123 2.04571 -3.44894 0
M  V30 3473 H 332.713 0.8278 -4.2053 0
M  V30 3474 H 336.897 0.200262 -4.95896 0
M  V30 3475 H 332.153 -0.662907 -6.07796 0
M  V30 3476 H 336.327 -1.28537 -6.84435 0
M  V30 3477 H 333.954 -1.723 -7.40417 0
M  V30 3478 N 335.529 1.53961 0.336706 0
M  V30 3479 C 336.945 1.44378 0.680241 0
M  V30 3480 C 337.145 0.606034 1.9217 0
M  V30 3481 O 336.201 0.099688 2.52303 0
M  V30 3482 C 337.514 2.87945 0.8665 0
M  V30 3483 C 339.062 2.97763 0.964682 0
M  V30 3484 C 339.537 4.42453 1.18321 0
M  V30 3485 N 341.028 4.46008 1.25025 0
M  V30 3486 C 341.763 5.55102 1.43697 0
M  V30 3487 N 341.259 6.7419 1.59498 0
M  V30 3488 N 343.052 5.42727 1.463 0
M  V30 3489 H 335.203 2.06918 -0.479455 0
M  V30 3490 H 337.466 0.935634 -0.152619 0
M  V30 3491 H 337.172 3.51691 0.0256937 0
M  V30 3492 H 337.046 3.33293 1.76623 0
M  V30 3493 H 339.433 2.34153 1.796 0
M  V30 3494 H 339.514 2.55766 0.041708 0
M  V30 3495 H 339.158 5.06645 0.356788 0
M  V30 3496 H 339.088 4.82048 2.11985 0
M  V30 3497 H 341.579 3.60196 1.14312 0
M  V30 3498 H 341.892 7.53095 1.734 0
M  V30 3499 H 340.237 6.77123 1.56621 0
M  V30 3500 H 343.428 4.48647 1.33543 0
M  V30 3501 H 343.601 6.27806 1.6051 0
M  V30 3502 N 337.007 -0.598083 1.45811 0
M  V30 3503 C 338.232 -1.3881 1.54099 0
M  V30 3504 C 338.657 -1.8726 0.177578 0
M  V30 3505 O 338.015 -1.6069 -0.839541 0
M  V30 3506 C 338.063 -2.56217 2.53743 0
M  V30 3507 O 337.167 -3.5716 2.06182 0
M  V30 3508 H 336.508 -0.414024 0.519115 0
M  V30 3509 H 339.038 -0.726971 1.91249 0
M  V30 3510 H 339.048 -3.03337 2.72856 0
M  V30 3511 H 337.723 -2.20303 3.5276 0
M  V30 3512 H 336.3 -3.16624 1.96987 0
M  V30 3513 N 338.485 -1.33259 -0.841409 0
M  V30 3514 C 339.415 -1.25926 -1.96634 0
M  V30 3515 C 340.396 -0.140349 -1.6952 0
M  V30 3516 O 341.581 -0.329707 -1.91381 0
M  V30 3517 C 338.711 -0.99512 -3.32738 0
M  V30 3518 C 337.665 -2.0767 -3.74242 0
M  V30 3519 C 336.991 -1.66474 -5.08125 0
M  V30 3520 C 338.291 -3.49318 -3.88297 0
M  V30 3521 H 339.985 -2.20046 -2.03027 0
M  V30 3522 H 337.531 -1.05931 -0.975425 0
M  V30 3523 H 339.484 -0.930323 -4.11002 0
M  V30 3524 H 338.208 -0.0183004 -3.26595 0
M  V30 3525 H 336.867 -2.13187 -2.98239 0
M  V30 3526 H 336.515 -0.675012 -4.9845 0
M  V30 3527 H 336.215 -2.3885 -5.36865 0
M  V30 3528 H 337.739 -1.61455 -5.88867 0
M  V30 3529 H 339.153 -3.46316 -4.56879 0
M  V30 3530 H 337.55 -4.20158 -4.28471 0
M  V30 3531 H 338.62 -3.8801 -2.9082 0
M  V30 3532 N 339.963 1.05934 -1.16686 0
M  V30 3533 C 340.893 2.1546 -0.899949 0
M  V30 3534 C 341.874 1.69391 0.155154 0
M  V30 3535 O 343.059 1.94199 0.00648693 0
M  V30 3536 C 340.189 3.44939 -0.404241 0
M  V30 3537 C 339.143 4.04536 -1.39767 0
M  V30 3538 C 338.469 5.29268 -0.760216 0
M  V30 3539 C 339.769 4.42893 -2.76845 0
M  V30 3540 H 341.463 2.38046 -1.81588 0
M  V30 3541 H 339.009 1.14404 -0.874514 0
M  V30 3542 H 340.962 4.20901 -0.204971 0
M  V30 3543 H 339.686 3.21983 0.547206 0
M  V30 3544 H 338.345 3.30635 -1.58355 0
M  V30 3545 H 337.993 5.02611 0.197831 0
M  V30 3546 H 337.693 5.70101 -1.42332 0
M  V30 3547 H 339.217 6.07924 -0.57105 0
M  V30 3548 H 340.631 5.09921 -2.62019 0
M  V30 3549 H 339.028 4.94721 -3.39663 0
M  V30 3550 H 340.098 3.53584 -3.31823 0
M  V30 3551 N 341.441 0.965919 1.2453 0
M  V30 3552 C 342.666 0.643971 1.97149 0
M  V30 3553 C 343.091 -0.779487 1.71189 0
M  V30 3554 O 342.449 -1.5288 0.974553 0
M  V30 3555 C 342.497 0.922557 3.48599 0
M  V30 3556 O 341.601 0.00707672 4.12399 0
M  V30 3557 H 340.942 0.243647 0.617683 0
M  V30 3558 H 343.472 1.29558 1.58353 0
M  V30 3559 H 343.482 0.853373 3.98976 0
M  V30 3560 H 342.157 1.95996 3.66822 0
M  V30 3561 H 340.734 0.12943 3.72675 0
M  V30 3562 N 342.919 -1.39368 0.735821 0
M  V30 3563 C 343.867 -2.32443 0.0855131 0
M  V30 3564 C 344.861 -1.53104 -0.724954 0
M  V30 3565 O 346.067 -1.68762 -0.626047 0
M  V30 3566 H 342.442 -0.751948 0.00885257 0
M  V30 3567 H 344.413 -2.84916 0.886883 0
M  V30 3568 C 343.162 -3.38206 -0.806983 0
M  V30 3569 H 342.485 -3.99335 -0.19274 0
M  V30 3570 H 343.925 -4.05779 -1.2296 0
M  V30 3571 C 342.384 -2.75321 -1.94165 0
M  V30 3572 O 342.914 -2.63231 -3.03435 0
M  V30 3573 N 341.12 -2.33396 -1.73132 0
M  V30 3574 H 340.667 -2.4343 -0.842596 0
M  V30 3575 H 340.625 -1.91661 -2.49225 0
M  V30 3576 N 344.397 -0.483516 -1.5 0
M  V30 3577 C 345.643 0.0672592 -2.02688 0
M  V30 3578 C 345.976 1.38247 -1.36387 0
M  V30 3579 O 345.251 1.88131 -0.493675 0
M  V30 3580 C 345.534 0.238109 -3.59312 0
M  V30 3581 C 345.387 -1.099 -4.36168 0
M  V30 3582 C 346.706 0.986916 -4.28892 0
M  V30 3583 H 343.825 0.0229696 -0.736642 0
M  V30 3584 H 346.467 -0.631527 -1.79197 0
M  V30 3585 H 344.617 0.8333 -3.79458 0
M  V30 3586 H 346.289 -1.73172 -4.27562 0
M  V30 3587 H 344.532 -1.69261 -3.99416 0
M  V30 3588 H 345.203 -0.932954 -5.44059 0
M  V30 3589 H 347.679 0.482302 -4.13295 0
M  V30 3590 H 346.555 1.07527 -5.38265 0
M  V30 3591 H 346.816 2.0265 -3.92919 0
M  V30 3592 N 345.875 1.56104 -0.216619 0
M  V30 3593 C 346.785 2.23694 0.706982 0
M  V30 3594 C 347.801 1.24295 1.21765 0
M  V30 3595 O 348.977 1.57094 1.2603 0
M  V30 3596 C 346.042 2.8998 1.90033 0
M  V30 3597 C 345.103 4.04708 1.43213 0
M  V30 3598 C 344.336 4.67824 2.56859 0
M  V30 3599 O 344.559 4.29913 3.74874 0
M  V30 3600 O 343.493 5.56905 2.28343 0
M  V30 3601 H 347.319 3.03272 0.161235 0
M  V30 3602 H 344.904 1.49394 0.0136177 0
M  V30 3603 H 346.786 3.31837 2.59735 0
M  V30 3604 H 345.461 2.13365 2.43428 0
M  V30 3605 H 344.368 3.6743 0.70327 0
M  V30 3606 H 345.701 4.83051 0.944615 0
M  V30 3607 N 347.353 -0.0568162 1.57498 0
M  V30 3608 C 348.601 -0.751617 1.87604 0
M  V30 3609 C 348.922 -1.77351 0.81066 0
M  V30 3610 O 348.192 -1.95254 -0.159018 0
M  V30 3611 H 346.772 -0.280583 0.692302 0
M  V30 3612 H 349.434 -0.0293483 1.94878 0
M  V30 3613 H 348.53 -1.25852 2.856 0
M  V30 3614 N 348.832 -1.54138 -0.328536 0
M  V30 3615 C 350.109 -1.62749 -1.08499 0
M  V30 3616 C 350.489 -0.458198 -2.06067 0
M  V30 3617 O 349.837 0.548046 -2.2183 0
M  V30 3618 C 350.047 -2.99519 -1.79135 0
M  V30 3619 C 351.395 -3.55394 -2.32337 0
M  V30 3620 O 352.419 -3.01792 -1.89209 0
M  V30 3621 O 351.278 -4.49186 -3.11279 0
M  V30 3622 H 348.372 -0.65886 -0.499832 0
M  V30 3623 H 350.918 -1.66484 -0.328826 0
M  V30 3624 H 349.69 -3.76061 -1.08139 0
M  V30 3625 H 349.313 -2.99441 -2.61574 0
M  V30 3626 N 350.31 0.590341 -1.46126 0
M  V30 3627 C 351.258 1.72105 -1.5647 0
M  V30 3628 C 352.252 1.63756 -0.433612 0
M  V30 3629 O 353.458 1.69342 -0.610194 0
M  V30 3630 H 349.833 0.568889 -0.491802 0
M  V30 3631 H 351.804 1.6051 -2.51553 0
M  V30 3632 C 350.553 3.10493 -1.56491 0
M  V30 3633 H 349.876 3.17583 -2.4286 0
M  V30 3634 H 351.316 3.8939 -1.67785 0
M  V30 3635 C 349.775 3.3563 -0.292231 0
M  V30 3636 O 350.305 3.96875 0.620739 0
M  V30 3637 N 348.511 2.90026 -0.182523 0
M  V30 3638 H 348.058 2.40367 -0.926356 0
M  V30 3639 H 348.016 3.07218 0.668152 0
M  V30 3640 N 351.788 1.33704 0.83433 0
M  V30 3641 C 352.751 1.24244 1.92603 0
M  V30 3642 C 353.751 0.160383 1.59998 0
M  V30 3643 O 354.941 0.412228 1.69252 0
M  V30 3644 C 352.073 0.91555 3.28376 0
M  V30 3645 H 353.266 2.21287 2.02416 0
M  V30 3646 H 350.819 1.17827 1.02696 0
M  V30 3647 H 351.554 -0.0521886 3.24258 0
M  V30 3648 H 351.339 1.69811 3.53422 0
M  V30 3649 H 352.829 0.874231 4.08347 0
M  V30 3650 N 353.266 -1.05314 1.17247 0
M  V30 3651 C 354.512 -1.78557 0.961513 0
M  V30 3652 C 354.845 -1.87419 -0.508697 0
M  V30 3653 O 354.12 -1.37307 -1.37757 0
M  V30 3654 C 354.403 -3.22514 1.60176 0
M  V30 3655 C 354.256 -3.21673 3.14399 0
M  V30 3656 C 355.575 -4.20318 1.30463 0
M  V30 3657 H 352.694 -0.6482 0.350723 0
M  V30 3658 H 355.336 -1.23102 1.44727 0
M  V30 3659 H 353.486 -3.69867 1.18871 0
M  V30 3660 H 355.158 -2.82405 3.64753 0
M  V30 3661 H 353.401 -2.60048 3.47214 0
M  V30 3662 H 354.072 -4.23271 3.54324 0
M  V30 3663 H 356.548 -3.81454 1.66229 0
M  V30 3664 H 355.424 -5.19289 1.77848 0
M  V30 3665 H 355.685 -4.41526 0.22521 0
M  V30 3666 N 354.744 -0.972509 -1.24016 0
M  V30 3667 C 356.155 -0.67517 -1.74064 0
M  V30 3668 C 356.506 0.808939 -1.78747 0
M  V30 3669 O 355.631 1.63286 -1.42009 0
M  V30 3670 C 356.226 -1.21889 -3.16115 0
M  V30 3671 C 354.785 -0.971358 -3.6365 0
M  V30 3672 C 353.932 -1.35134 -2.42145 0
M  V30 3673 H 356.883 -1.14727 -1.09651 0
M  V30 3674 H 356.904 -0.587489 -3.75937 0
M  V30 3675 H 356.416 -2.29906 -3.12674 0
M  V30 3676 H 354.517 0.0930686 -3.72484 0
M  V30 3677 H 354.63 -1.62039 -4.50866 0
M  V30 3678 H 352.994 -0.769751 -2.4279 0
M  V30 3679 H 353.777 -2.4411 -2.41381 0
M  V30 3680 N 356.222 1.38976 -0.743202 0
M  V30 3681 C 357.155 2.28128 -0.0572165 0
M  V30 3682 C 358.133 1.44827 0.739182 0
M  V30 3683 O 359.317 1.74207 0.720009 0
M  V30 3684 C 356.444 3.25796 0.926001 0
M  V30 3685 C 355.49 4.25947 0.217099 0
M  V30 3686 S 356.323 5.24604 -1.07477 0
M  V30 3687 C 357.479 6.25829 -0.0943545 0
M  V30 3688 H 357.712 2.85961 -0.813246 0
M  V30 3689 H 355.245 1.44822 -0.535341 0
M  V30 3690 H 357.203 3.82583 1.48797 0
M  V30 3691 H 355.864 2.66966 1.65493 0
M  V30 3692 H 355.057 4.94746 0.961372 0
M  V30 3693 H 354.659 3.73002 -0.273059 0
M  V30 3694 H 356.951 6.73411 0.743239 0
M  V30 3695 H 357.894 7.0412 -0.749713 0
M  V30 3696 H 358.302 5.63797 0.281706 0
M  V30 3697 N 357.7 0.491464 1.49741 0
M  V30 3698 C 358.632 -0.328609 2.26832 0
M  V30 3699 C 359.645 -0.939113 1.32983 0
M  V30 3700 O 360.834 -0.824067 1.58339 0
M  V30 3701 C 357.934 -1.47675 3.05033 0
M  V30 3702 C 357.107 -0.975305 4.26388 0
M  V30 3703 C 356.166 -1.99991 4.86714 0
M  V30 3704 O 355.192 -1.57229 5.47054 0
M  V30 3705 N 356.394 -3.32962 4.75517 0
M  V30 3706 H 359.159 0.332377 2.97851 0
M  V30 3707 H 356.72 0.323441 1.58636 0
M  V30 3708 H 358.712 -2.15954 3.42266 0
M  V30 3709 H 357.282 -2.04206 2.36683 0
M  V30 3710 H 356.502 -0.117723 3.94024 0
M  V30 3711 H 357.79 -0.618531 5.05026 0
M  V30 3712 H 357.188 -3.70399 4.27576 0
M  V30 3713 H 355.745 -3.96982 5.16961 0
M  V30 3714 N 359.178 -1.55987 0.224894 0
M  V30 3715 C 360.128 -2.17076 -0.697296 0
M  V30 3716 C 361.112 -1.12006 -1.15514 0
M  V30 3717 O 362.304 -1.37985 -1.10857 0
M  V30 3718 C 359.433 -2.85679 -1.90374 0
M  V30 3719 C 358.519 -3.97977 -1.46543 0
M  V30 3720 N 358.91 -5.00359 -0.739909 0
M  V30 3721 C 357.208 -4.10128 -1.75245 0
M  V30 3722 C 357.909 -5.79407 -0.515939 0
M  V30 3723 N 356.885 -5.32892 -1.07364 0
M  V30 3724 H 360.687 -2.93592 -0.134594 0
M  V30 3725 H 358.201 -1.62379 0.0262885 0
M  V30 3726 H 360.198 -3.27857 -2.57518 0
M  V30 3727 H 358.858 -2.1066 -2.47088 0
M  V30 3728 H 359.869 -5.16412 -0.392253 0
M  V30 3729 H 356.546 -3.46263 -2.33255 0
M  V30 3730 H 357.936 -6.71872 0.0617349 0
M  V30 3731 N 360.656 0.0484629 -1.57525 0
M  V30 3732 C 361.604 1.07359 -2.06341 0
M  V30 3733 C 362.598 1.3865 -0.973269 0
M  V30 3734 O 363.804 1.37783 -1.15827 0
M  V30 3735 H 360.179 0.363662 -0.65822 0
M  V30 3736 H 362.15 0.635916 -2.91545 0
M  V30 3737 C 360.899 2.37198 -2.54229 0
M  V30 3738 H 360.222 2.13977 -3.37719 0
M  V30 3739 H 361.662 3.07319 -2.92115 0
M  V30 3740 C 360.121 3.04805 -1.43511 0
M  V30 3741 O 360.651 3.93848 -0.79034 0
M  V30 3742 N 358.857 2.65811 -1.17444 0
M  V30 3743 H 358.404 1.93488 -1.70059 0
M  V30 3744 H 358.362 3.11366 -0.435737 0
M  V30 3745 N 362.134 1.5431 0.320358 0
M  V30 3746 C 363.082 1.84647 1.4145 0
M  V30 3747 C 364.076 0.718624 1.53402 0
M  V30 3748 O 365.282 0.902335 1.5575 0
M  V30 3749 H 361.657 0.585349 0.472091 0
M  V30 3750 H 363.628 2.7614 1.13089 0
M  V30 3751 C 362.377 2.09341 2.77617 0
M  V30 3752 H 361.7 2.9559 2.69196 0
M  V30 3753 H 363.14 2.3452 3.53237 0
M  V30 3754 C 361.599 0.885939 3.25043 0
M  V30 3755 O 362.129 0.0967891 4.01583 0
M  V30 3756 N 360.335 0.696682 2.82125 0
M  V30 3757 H 359.882 1.34006 2.2 0
M  V30 3758 H 359.84 -0.109712 3.14209 0
M  V30 3759 N 363.613 -0.582584 1.46437 0
M  V30 3760 C 365.029 -0.905962 1.31394 0
M  V30 3761 C 365.229 -1.99468 0.285476 0
M  V30 3762 O 364.285 -2.50566 -0.311914 0
M  V30 3763 C 365.598 -1.3232 2.70022 0
M  V30 3764 C 367.146 -1.43604 2.78113 0
M  V30 3765 C 367.621 -1.88694 4.17323 0
M  V30 3766 N 369.112 -1.95887 4.19741 0
M  V30 3767 C 369.847 -2.32051 5.24347 0
M  V30 3768 N 369.343 -2.67006 6.39281 0
M  V30 3769 N 371.136 -2.32606 5.11713 0
M  V30 3770 H 363.287 0.1366 2.1196 0
M  V30 3771 H 365.55 -0.00155736 0.947999 0
M  V30 3772 H 365.256 -0.597242 3.46592 0
M  V30 3773 H 365.13 -2.28469 3.00136 0
M  V30 3774 H 367.517 -2.15286 2.01832 0
M  V30 3775 H 367.598 -0.457059 2.51684 0
M  V30 3776 H 367.242 -1.1759 4.941 0
M  V30 3777 H 367.172 -2.8755 4.4116 0
M  V30 3778 H 369.663 -1.71362 3.36814 0
M  V30 3779 H 369.976 -2.93554 7.14875 0
M  V30 3780 H 368.321 -2.64644 6.42642 0
M  V30 3781 H 371.512 -2.04721 4.2096 0
M  V30 3782 H 371.685 -2.60462 5.93349 0
M  V30 3783 N 365.091 -1.34144 -0.827227 0
M  V30 3784 C 366.502 -1.23557 -1.39966 0
M  V30 3785 C 366.853 0.140731 -1.95695 0
M  V30 3786 O 365.978 1.04087 -1.89723 0
M  V30 3787 C 366.573 -2.23708 -2.54441 0
M  V30 3788 C 365.132 -2.16924 -3.07605 0
M  V30 3789 C 364.279 -2.10549 -1.80456 0
M  V30 3790 H 367.23 -1.45573 -0.631991 0
M  V30 3791 H 367.251 -1.85157 -3.32411 0
M  V30 3792 H 366.763 -3.23866 -2.13851 0
M  V30 3793 H 364.864 -1.20107 -3.52711 0
M  V30 3794 H 364.977 -3.07988 -3.66988 0
M  V30 3795 H 363.341 -1.56203 -2.01178 0
M  V30 3796 H 364.124 -3.12535 -1.42046 0
M  V30 3797 N 366.569 1.04691 -1.17803 0
M  V30 3798 C 367.797 1.81446 -0.99423 0
M  V30 3799 C 368.212 1.83174 0.457459 0
M  V30 3800 O 367.569 1.26265 1.31771 0
M  V30 3801 C 367.62 3.27334 -1.5341 0
M  V30 3802 O 367.341 3.25798 -2.92895 0
M  V30 3803 C 368.842 4.20759 -1.39559 0
M  V30 3804 H 366.062 0.571599 -0.351447 0
M  V30 3805 H 368.606 1.31982 -1.56208 0
M  V30 3806 H 366.761 3.74052 -1.00815 0
M  V30 3807 H 367.175 4.17144 -3.17949 0
M  V30 3808 H 368.649 5.21084 -1.82141 0
M  V30 3809 H 369.126 4.37856 -0.343394 0
M  V30 3810 H 369.732 3.79901 -1.91195 0
M  V30 3811 N 368.047 0.979072 1.23499 0
M  V30 3812 C 368.979 0.476271 2.24197 0
M  V30 3813 C 369.992 -0.421166 1.57258 0
M  V30 3814 O 371.181 -0.225515 1.7707 0
M  V30 3815 C 368.281 -0.330503 3.37285 0
M  V30 3816 C 367.454 0.559744 4.33804 0
M  V30 3817 C 366.513 -0.192954 5.25846 0
M  V30 3818 O 365.539 0.416978 5.67671 0
M  V30 3819 N 366.741 -1.47932 5.61334 0
M  V30 3820 H 369.506 1.34211 2.67969 0
M  V30 3821 H 367.067 0.852189 1.37657 0
M  V30 3822 H 369.059 -0.842361 3.95836 0
M  V30 3823 H 367.629 -1.09734 2.92707 0
M  V30 3824 H 366.849 1.25245 3.73775 0
M  V30 3825 H 368.137 1.1665 4.95248 0
M  V30 3826 H 367.535 -1.9964 5.29302 0
M  V30 3827 H 366.092 -1.93664 6.22364 0
M  V30 3828 N 369.525 -1.3858 0.750561 0
M  V30 3829 C 370.936 -1.82927 0.373438 0
M  V30 3830 C 371.287 -1.62634 -1.09748 0
M  V30 3831 O 370.412 -1.12588 -1.84805 0
M  V30 3832 C 371.007 -3.32088 0.671029 0
M  V30 3833 C 369.566 -3.74795 0.34722 0
M  V30 3834 C 368.713 -2.61391 0.92575 0
M  V30 3835 H 371.664 -1.27351 0.946958 0
M  V30 3836 H 371.685 -3.80465 -0.0518269 0
M  V30 3837 H 371.197 -3.46826 1.74164 0
M  V30 3838 H 369.298 -3.65638 -0.716933 0
M  V30 3839 H 369.411 -4.71667 0.840656 0
M  V30 3840 H 367.775 -2.52265 0.351327 0
M  V30 3841 H 368.558 -2.78929 2.00133 0
M  V30 3842 N 371.003 -0.499398 -1.49478 0
M  V30 3843 C 371.933 0.269244 -2.31943 0
M  V30 3844 C 372.914 0.964054 -1.40143 0
M  V30 3845 O 374.099 0.955767 -1.69052 0
M  V30 3846 C 371.229 1.33504 -3.20615 0
M  V30 3847 C 370.183 0.760202 -4.21195 0
M  V30 3848 C 369.509 1.9264 -4.98792 0
M  V30 3849 C 370.809 -0.247661 -5.21712 0
M  V30 3850 H 372.503 -0.419082 -2.96452 0
M  V30 3851 H 370.049 -0.202988 -1.42562 0
M  V30 3852 H 372.002 1.88048 -3.77115 0
M  V30 3853 H 370.726 2.05253 -2.54045 0
M  V30 3854 H 369.385 0.23653 -3.65836 0
M  V30 3855 H 369.033 2.63154 -4.28671 0
M  V30 3856 H 368.733 1.54785 -5.66847 0
M  V30 3857 H 370.257 2.4762 -5.58137 0
M  V30 3858 H 371.671 0.209579 -5.72917 0
M  V30 3859 H 370.068 -0.541962 -5.97648 0
M  V30 3860 H 371.138 -1.16409 -4.7072 0
M  V30 3861 N 372.481 1.55866 -0.233164 0
M  V30 3862 C 373.428 2.20796 0.67215 0
M  V30 3863 C 374.398 1.16731 1.18166 0
M  V30 3864 O 375.583 1.45129 1.23864 0
M  V30 3865 C 372.723 2.90072 1.86955 0
M  V30 3866 C 371.836 4.08759 1.39786 0
M  V30 3867 C 370.971 4.65787 2.55374 0
M  V30 3868 C 370.01 5.76752 2.04998 0
M  V30 3869 N 369.147 6.28021 3.13901 0
M  V30 3870 H 373.987 2.9779 0.111749 0
M  V30 3871 H 371.524 1.47036 0.0434007 0
M  V30 3872 H 373.482 3.28428 2.57276 0
M  V30 3873 H 372.112 2.15575 2.40265 0
M  V30 3874 H 371.164 3.7581 0.589173 0
M  V30 3875 H 372.476 4.88906 0.98856 0
M  V30 3876 H 371.63 5.06646 3.33758 0
M  V30 3877 H 370.369 3.84828 2.99598 0
M  V30 3878 H 369.374 5.35383 1.25079 0
M  V30 3879 H 370.599 6.59553 1.61759 0
M  V30 3880 H 368.545 5.49971 3.57586 0
M  V30 3881 H 368.462 7.03323 2.7726 0
M  V30 3882 H 369.73 6.73538 3.92386 0
M  V30 3883 N 373.959 -0.0401083 1.57549 0
M  V30 3884 C 375.207 -0.731677 1.8839 0
M  V30 3885 C 375.528 -1.76481 0.829425 0
M  V30 3886 O 374.798 -1.95411 -0.1383 0
M  V30 3887 H 373.378 -0.273225 0.695239 0
M  V30 3888 H 376.04 -0.00867725 1.94898 0
M  V30 3889 H 375.136 -1.22816 2.86919 0
M  V30 3890 N 375.437 -1.54477 -0.31217 0
M  V30 3891 C 376.853 -1.45442 -0.657185 0
M  V30 3892 C 377.053 -0.63653 -1.91182 0
M  V30 3893 O 376.109 -0.139815 -2.52113 0
M  V30 3894 C 377.422 -2.89287 -0.82058 0
M  V30 3895 C 378.97 -2.9926 -0.917188 0
M  V30 3896 C 379.445 -4.44279 -1.11267 0
M  V30 3897 N 380.936 -4.4794 -1.17914 0
M  V30 3898 C 381.671 -5.57318 -1.34848 0
M  V30 3899 N 381.167 -6.76642 -1.48752 0
M  V30 3900 N 382.96 -5.44986 -1.37647 0
M  V30 3901 H 375.111 -2.06129 0.512313 0
M  V30 3902 H 377.374 -0.933088 0.167485 0
M  V30 3903 H 377.08 -3.51687 0.0302604 0
M  V30 3904 H 376.954 -3.36061 -1.71298 0
M  V30 3905 H 379.341 -2.36981 -1.75852 0
M  V30 3906 H 379.422 -2.558 -0.00101257 0
M  V30 3907 H 379.066 -5.07149 -0.27614 0
M  V30 3908 H 378.996 -4.85359 -2.04289 0
M  V30 3909 H 381.487 -3.61969 -1.08567 0
M  V30 3910 H 381.8 -7.55758 -1.61397 0
M  V30 3911 H 380.145 -6.79529 -1.45828 0
M  V30 3912 H 383.336 -4.50715 -1.26388 0
M  V30 3913 H 383.509 -6.3028 -1.50501 0
M  V30 3914 N 376.915 0.57481 -1.46744 0
M  V30 3915 C 378.143 1.35856 -1.56047 0
M  V30 3916 C 378.558 1.87691 -0.204365 0
M  V30 3917 O 377.915 1.64049 0.79963 0
M  V30 3918 C 377.966 2.54066 -2.57163 0
M  V30 3919 O 377.687 2.04377 -3.87507 0
M  V30 3920 C 379.188 3.46514 -2.76483 0
M  V30 3921 H 376.408 0.414754 -0.527466 0
M  V30 3922 H 378.952 0.698035 -1.92218 0
M  V30 3923 H 377.107 3.16092 -2.23974 0
M  V30 3924 H 377.521 2.81419 -4.4261 0
M  V30 3925 H 378.995 4.25919 -3.51137 0
M  V30 3926 H 379.472 3.98951 -1.83671 0
M  V30 3927 H 380.078 2.90318 -3.10799 0
M  V30 3928 N 378.394 1.34581 0.820102 0
M  V30 3929 C 379.64 1.27285 1.57881 0
M  V30 3930 C 379.973 -0.156137 1.93571 0
M  V30 3931 O 379.248 -1.10222 1.60254 0
M  V30 3932 C 379.531 2.16639 2.87645 0
M  V30 3933 C 379.384 3.68088 2.58517 0
M  V30 3934 C 380.703 2.05378 3.8924 0
M  V30 3935 H 377.822 0.463714 0.572833 0
M  V30 3936 H 380.464 1.64859 0.944539 0
M  V30 3937 H 378.614 1.84725 3.41773 0
M  V30 3938 H 380.286 4.10382 2.10676 0
M  V30 3939 H 378.529 3.89038 1.91917 0
M  V30 3940 H 379.2 4.2598 3.51063 0
M  V30 3941 H 381.676 2.33404 3.44473 0
M  V30 3942 H 380.552 2.7012 4.77835 0
M  V30 3943 H 380.813 1.0316 4.29896 0
M  V30 3944 N 379.872 -1.04064 1.18357 0
M  V30 3945 C 381.288 -1.2947 0.933258 0
M  V30 3946 C 381.488 -1.97466 -0.401169 0
M  V30 3947 O 380.544 -2.25528 -1.13549 0
M  V30 3948 C 381.857 -2.15337 2.09882 0
M  V30 3949 C 383.405 -2.28683 2.13712 0
M  V30 3950 C 383.88 -3.17917 3.29686 0
M  V30 3951 N 385.371 -3.25504 3.29547 0
M  V30 3952 C 386.106 -3.94706 4.15926 0
M  V30 3953 N 385.602 -4.66239 5.12439 0
M  V30 3954 N 387.395 -3.90986 4.0384 0
M  V30 3955 H 379.546 -0.583359 2.04232 0
M  V30 3956 H 381.809 -0.319921 0.892387 0
M  V30 3957 H 381.515 -1.72682 3.06389 0
M  V30 3958 H 381.389 -3.16015 2.05947 0
M  V30 3959 H 383.776 -2.70575 1.17784 0
M  V30 3960 H 383.857 -1.27596 2.21705 0
M  V30 3961 H 383.501 -2.76736 4.25887 0
M  V30 3962 H 383.431 -4.19036 3.1893 0
M  V30 3963 H 385.922 -2.74547 2.59677 0
M  V30 3964 H 386.235 -5.16638 5.74722 0
M  V30 3965 H 384.58 -4.65143 5.16398 0
M  V30 3966 H 387.771 -3.34234 3.27727 0
M  V30 3967 H 387.944 -4.44646 4.71375 0
M  V30 3968 N 381.35 -0.985608 -1.22978 0
M  V30 3969 C 382.313 -0.535071 -2.22867 0
M  V30 3970 C 383.313 0.378123 -1.56291 0
M  V30 3971 O 384.503 0.171092 -1.73358 0
M  V30 3972 C 381.635 0.222702 -3.40172 0
M  V30 3973 H 382.828 -1.41835 -2.6424 0
M  V30 3974 H 380.381 -0.772042 -1.35901 0
M  V30 3975 H 381.116 1.12229 -3.04262 0
M  V30 3976 H 380.901 -0.43288 -3.89703 0
M  V30 3977 H 382.391 0.526335 -4.1427 0
M  V30 3978 N 382.828 1.3818 -0.7579 0
M  V30 3979 C 384.053 2.04827 -0.325679 0
M  V30 3980 C 384.478 1.56788 1.03919 0
M  V30 3981 O 383.836 0.721811 1.66312 0
M  V30 3982 C 383.884 3.58774 -0.362447 0
M  V30 3983 O 382.988 4.07372 0.642033 0
M  V30 3984 H 382.329 0.64833 -0.143402 0
M  V30 3985 H 384.859 1.7677 -1.03023 0
M  V30 3986 H 384.869 4.07434 -0.214844 0
M  V30 3987 H 383.544 3.93096 -1.35824 0
M  V30 3988 H 382.121 3.70068 0.458688 0
M  V30 3989 N 384.306 0.507319 1.49211 0
M  V30 3990 C 385.553 -0.0349529 2.0247 0
M  V30 3991 C 385.881 -1.36409 1.38647 0
M  V30 3992 O 385.136 -1.88841 0.513566 0
M  V30 3993 C 385.435 -0.229513 3.56662 0
M  V30 3994 C 385.101 1.02241 4.39156 0
M  V30 3995 C 383.763 1.36557 4.61417 0
M  V30 3996 C 386.115 1.85428 4.871 0
M  V30 3997 C 383.443 2.53999 5.28868 0
M  V30 3998 C 385.795 3.02028 5.55843 0
M  V30 3999 C 384.459 3.36717 5.76349 0
M  V30 4000 H 383.729 -0.0127902 0.74089 0
M  V30 4001 H 386.376 0.668756 1.79443 0
M  V30 4002 H 384.681 -1.0158 3.78403 0
M  V30 4003 H 386.378 -0.663641 3.9547 0
M  V30 4004 H 382.968 0.745124 4.22073 0
M  V30 4005 H 387.152 1.6023 4.69723 0
M  V30 4006 H 382.408 2.81105 5.42946 0
M  V30 4007 H 386.582 3.66808 5.91967 0
M  V30 4008 H 384.209 4.27821 6.28389 0
M  V30 4009 O 385.823 -1.56889 0.38316 0
M  V30 4010 H 386.514 -1.93009 -0.163415 0
M  V30 END ATOM
M  V30 BEGIN BOND
M  V30 END BOND
M  V30 END CTAB
M  END
$$$$
