drugbank_target|P51812 Ribosomal protein S6 kinase alpha-3 (DB00945; DB12010)
 OpenBabel12092120593D

  0  0  0     0  0            999 V3000
M  V30 BEGIN CTAB
M  V30 COUNTS 11792 11928 0 0 0
M  V30 BEGIN ATOM
M  V30 1 H -0.908 1.98254 -0.117106 0
M  V30 2 N 0 1.576 0 0
M  V30 3 C 0.933 2.03868 1.02534 0
M  V30 4 C 1.911 0.928543 1.3348 0
M  V30 5 O 3.095 1.19667 1.45644 0
M  V30 6 C 0.222 2.43627 2.35294 0
M  V30 7 C -0.732 3.65373 2.2001 0
M  V30 8 S 0.101 5.13292 1.52614 0
M  V30 9 C 1.257 5.56322 2.86805 0
M  V30 10 H 1.49 2.90518 0.631377 0
M  V30 11 H -0.977 1.52953 0.210867 0
M  V30 12 H 0.981 2.67203 3.11629 0
M  V30 13 H -0.358 1.57376 2.7183 0
M  V30 14 H -1.165 3.90944 3.18086 0
M  V30 15 H -1.563 3.418 1.51819 0
M  V30 16 H 0.729 5.58782 3.83104 0
M  V30 17 H 1.672 6.56266 2.65933 0
M  V30 18 H 2.08 4.83886 2.90714 0
M  V30 19 N 1.4781 -0.272755 1.55222 0
M  V30 20 C 2.8891 -0.84378 1.66545 0
M  V30 21 C 3.2401 -1.87035 0.592641 0
M  V30 22 O 2.3651 -2.14761 -0.265818 0
M  V30 23 C 2.9601 -1.53723 3.01918 0
M  V30 24 C 1.5191 -2.05628 3.15268 0
M  V30 25 C 0.6661 -0.898424 2.62343 0
M  V30 26 H 3.6171 -0.0490998 1.58624 0
M  V30 27 H 3.6381 -2.40421 2.94921 0
M  V30 28 H 3.1501 -0.78983 3.79978 0
M  V30 29 H 1.2511 -2.83329 2.41983 0
M  V30 30 H 1.3641 -2.27142 4.21833 0
M  V30 31 H -0.2719 -1.29186 2.19506 0
M  V30 32 H 0.5111 -0.164528 3.42906 0
M  V30 33 N 2.9562 -1.48159 -0.537278 0
M  V30 34 C 3.8862 -1.65029 -1.6519 0
M  V30 35 C 4.8672 -0.499281 -1.62607 0
M  V30 36 O 6.0522 -0.730972 -1.79918 0
M  V30 37 C 3.1822 -1.68303 -3.03795 0
M  V30 38 C 2.1362 -2.8283 -3.21234 0
M  V30 39 C 1.4622 -2.71189 -4.60826 0
M  V30 40 C 2.7622 -4.24211 -3.04701 0
M  V30 41 H 4.4562 -2.58341 -1.51328 0
M  V30 42 H 2.0022 -1.24325 -0.726585 0
M  V30 43 H 3.9552 -1.78693 -3.81637 0
M  V30 44 H 2.6792 -0.715635 -3.18663 0
M  V30 45 H 1.3382 -2.71983 -2.45807 0
M  V30 46 H 0.9862 -1.72435 -4.7252 0
M  V30 47 H 0.6862 -3.48035 -4.7344 0
M  V30 48 H 2.2102 -2.83537 -5.40777 0
M  V30 49 H 3.6242 -4.3593 -3.72341 0
M  V30 50 H 2.0212 -5.01998 -3.28813 0
M  V30 51 H 3.0912 -4.41184 -2.01209 0
M  V30 52 N 4.4343 0.785586 -1.36625 0
M  V30 53 C 5.3973 1.87999 -1.31107 0
M  V30 54 C 6.3973 1.59316 -0.217959 0
M  V30 55 O 7.5873 1.67656 -0.472977 0
M  V30 56 C 4.7193 3.24861 -1.03334 0
M  V30 57 H 5.9123 1.94307 -2.2844 0
M  V30 58 H 3.4653 0.983813 -1.21453 0
M  V30 59 H 4.2003 3.24235 -0.0647432 0
M  V30 60 H 3.9853 3.4707 -1.82441 0
M  V30 61 H 5.4753 4.04929 -1.02088 0
M  V30 62 N 5.9124 1.20967 1.01018 0
M  V30 63 C 6.8444 0.922059 2.09835 0
M  V30 64 C 7.8574 -0.0927106 1.62536 0
M  V30 65 O 9.0464 0.139127 1.77957 0
M  V30 66 C 6.1464 0.362004 3.36961 0
M  V30 67 C 5.3194 1.42986 4.13369 0
M  V30 68 C 4.3784 0.879976 5.1879 0
M  V30 69 O 3.4044 1.56219 5.47343 0
M  V30 70 N 4.6064 -0.307396 5.79686 0
M  V30 71 H 7.3714 1.8588 2.35093 0
M  V30 72 H 4.9324 1.11422 1.1746 0
M  V30 73 H 6.9244 -0.0201474 4.04695 0
M  V30 74 H 5.4944 -0.479437 3.08902 0
M  V30 75 H 4.7144 1.98608 3.40512 0
M  V30 76 H 6.0024 2.14885 4.61196 0
M  V30 77 H 5.4004 -0.878796 5.58832 0
M  V30 78 H 3.9574 -0.631115 6.48737 0
M  V30 79 N 7.3905 -1.2043 1.01659 0
M  V30 80 C 8.3205 -2.25466 0.607226 0
M  V30 81 C 9.3015 -1.65853 -0.377716 0
M  V30 82 O 10.4865 -1.92409 -0.263149 0
M  V30 83 C 7.6165 -3.47256 -0.0552949 0
M  V30 84 C 6.5705 -4.19462 0.850632 0
M  V30 85 C 5.8965 -5.34673 0.0538859 0
M  V30 86 C 7.1965 -4.75603 2.15868 0
M  V30 87 H 8.8905 -2.59962 1.48526 0
M  V30 88 H 6.4365 -1.2496 0.715605 0
M  V30 89 H 8.3895 -4.19917 -0.353233 0
M  V30 90 H 7.1135 -3.11924 -0.968045 0
M  V30 91 H 5.7725 -3.48667 1.13257 0
M  V30 92 H 5.4205 -4.95585 -0.860514 0
M  V30 93 H 5.1205 -5.83913 0.657192 0
M  V30 94 H 6.6445 -6.10138 -0.237598 0
M  V30 95 H 8.0585 -5.40083 1.92311 0
M  V30 96 H 6.4555 -5.3528 2.71284 0
M  V30 97 H 7.5255 -3.94346 2.82169 0
M  V30 98 N 8.8686 -0.792821 -1.36206 0
M  V30 99 C 9.8316 -0.199459 -2.2833 0
M  V30 100 C 10.8316 0.605189 -1.48977 0
M  V30 101 O 12.0216 0.425685 -1.68919 0
M  V30 102 C 9.1536 0.723523 -3.33134 0
M  V30 103 H 10.3466 -1.01181 -2.82316 0
M  V30 104 H 7.8996 -0.562485 -1.45828 0
M  V30 105 H 8.6346 1.56008 -2.84309 0
M  V30 106 H 8.4196 0.148436 -3.91819 0
M  V30 107 H 9.9096 1.13344 -4.01924 0
M  V30 108 N 10.3467 1.47872 -0.545128 0
M  V30 109 C 11.6237 1.9554 0.0485222 0
M  V30 110 C 12.0037 1.4876 1.49779 0
M  V30 111 O 11.3517 0.720925 2.16829 0
M  V30 112 C 11.5617 3.48898 -0.084417 0
M  V30 113 C 12.9097 4.24547 0.0671239 0
M  V30 114 O 13.9337 3.56198 -0.0113649 0
M  V30 115 O 12.7927 5.45999 0.233882 0
M  V30 116 H 9.8867 0.823957 0.0708773 0
M  V30 117 H 12.4327 1.58327 -0.610798 0
M  V30 118 H 11.2047 3.75714 -1.09337 0
M  V30 119 H 10.8277 3.92845 0.613066 0
M  V30 120 N 11.8248 0.280983 1.55075 0
M  V30 121 C 13.2358 -0.215629 1.85451 0
M  V30 122 C 13.5868 -1.54991 1.203 0
M  V30 123 O 12.7118 -2.10699 0.493435 0
M  V30 124 C 13.3068 -0.398026 3.36454 0
M  V30 125 C 11.8658 -0.838866 3.66933 0
M  V30 126 C 11.0128 0.064458 2.77225 0
M  V30 127 H 13.9638 0.502601 1.50531 0
M  V30 128 H 13.9848 -1.23569 3.59876 0
M  V30 129 H 13.4968 0.573241 3.83843 0
M  V30 130 H 11.5978 -1.8214 3.25048 0
M  V30 131 H 11.7108 -0.672123 4.74362 0
M  V30 132 H 10.0748 -0.452863 2.50642 0
M  V30 133 H 10.8578 1.03172 3.2743 0
M  V30 134 N 13.3029 -1.57598 0.00835791 0
M  V30 135 C 14.5489 -1.92046 -0.670055 0
M  V30 136 C 14.9039 -0.88351 -1.70915 0
M  V30 137 O 14.1969 0.103223 -1.91322 0
M  V30 138 C 14.3909 -3.3101 -1.34787 0
M  V30 139 C 14.2199 -4.48126 -0.375945 0
M  V30 140 C 12.9899 -5.05297 0.0166914 0
M  V30 141 C 15.1879 -5.1303 0.361272 0
M  V30 142 N 13.1699 -6.05931 0.985952 0
M  V30 143 C 14.5409 -6.08571 1.18495 0
M  V30 144 C 16.5959 -4.9609 0.42421 0
M  V30 145 C 15.2989 -6.88996 2.06584 0
M  V30 146 C 17.3249 -5.77107 1.29236 0
M  V30 147 C 16.6869 -6.72248 2.10386 0
M  V30 148 H 12.7859 -0.75096 -0.218136 0
M  V30 149 H 15.3699 -1.94572 0.0706669 0
M  V30 150 H 13.5409 -3.29342 -2.05884 0
M  V30 151 H 15.2729 -3.52864 -1.98164 0
M  V30 152 H 12.0279 -4.72279 -0.353435 0
M  V30 153 H 12.4519 -6.60932 1.4662 0
M  V30 154 H 17.0939 -4.22378 -0.188915 0
M  V30 155 H 14.8119 -7.62028 2.6896 0
M  V30 156 H 18.3979 -5.66038 1.34508 0
M  V30 157 H 17.2779 -7.33846 2.76476 0
M  V30 158 N 14.781 0.264519 -1.55364 0
M  V30 159 C 15.713 1.34965 -1.85248 0
M  V30 160 C 16.726 1.45136 -0.737525 0
M  V30 161 O 17.915 1.46801 -1.01547 0
M  V30 162 C 15.015 2.73008 -2.00797 0
M  V30 163 C 14.188 2.85324 -3.31525 0
M  V30 164 C 13.247 4.04097 -3.37034 0
M  V30 165 O 12.273 3.94455 -4.10358 0
M  V30 166 N 13.475 5.16458 -2.65049 0
M  V30 167 H 16.24 1.09672 -2.78913 0
M  V30 168 H 13.801 0.454635 -1.55386 0
M  V30 169 H 15.793 3.50772 -2.01844 0
M  V30 170 H 14.363 2.91087 -1.1396 0
M  V30 171 H 13.583 1.94377 -3.42945 0
M  V30 172 H 14.871 2.9049 -4.17724 0
M  V30 173 H 14.269 5.27181 -2.05175 0
M  V30 174 H 12.826 5.92422 -2.71809 0
M  V30 175 N 16.2591 1.48442 0.529413 0
M  V30 176 C 17.2061 1.63007 1.63394 0
M  V30 177 C 18.1761 0.47212 1.59249 0
M  V30 178 O 19.3611 0.695673 1.77666 0
M  V30 179 C 16.5011 1.6763 3.01653 0
M  V30 180 C 15.6141 2.94535 3.16027 0
M  V30 181 C 14.7491 2.90316 4.44849 0
M  V30 182 C 13.7881 4.11923 4.52754 0
M  V30 183 N 12.9251 4.05777 5.72965 0
M  V30 184 H 17.7651 2.5733 1.50285 0
M  V30 185 H 15.3021 1.27613 0.731656 0
M  V30 186 H 17.2601 1.68292 3.81751 0
M  V30 187 H 15.8901 0.76797 3.13532 0
M  V30 188 H 14.9421 3.03615 2.29177 0
M  V30 189 H 16.2541 3.84512 3.17729 0
M  V30 190 H 15.4081 2.89382 5.33238 0
M  V30 191 H 14.1471 1.98068 4.45668 0
M  V30 192 H 13.1521 4.13131 3.62771 0
M  V30 193 H 14.3771 5.0533 4.53672 0
M  V30 194 H 12.3231 3.16351 5.74681 0
M  V30 195 H 12.2401 4.8946 5.76164 0
M  V30 196 H 13.5081 4.08904 6.6364 0
M  V30 197 N 17.7372 -0.778329 1.37039 0
M  V30 198 C 18.6702 -1.8984 1.26633 0
M  V30 199 C 19.6482 -1.61923 0.148197 0
M  V30 200 O 20.8322 -1.85742 0.321265 0
M  V30 201 C 17.9592 -3.24916 0.956403 0
M  V30 202 C 17.0052 -3.71752 2.09051 0
M  V30 203 S 17.8382 -3.86201 3.70957 0
M  V30 204 C 18.9942 -5.24135 3.42101 0
M  V30 205 H 19.2272 -1.98377 2.21436 0
M  V30 206 H 16.7602 -0.938738 1.22585 0
M  V30 207 H 18.7182 -4.02936 0.784409 0
M  V30 208 H 17.3792 -3.14089 0.0259713 0
M  V30 209 H 16.5722 -4.69661 1.8285 0
M  V30 210 H 16.1742 -3.00815 2.2223 0
M  V30 211 H 18.4662 -6.09086 2.96682 0
M  V30 212 H 19.4092 -5.55346 4.39314 0
M  V30 213 H 19.8172 -4.91761 2.77185 0
M  V30 214 N 19.2153 -1.21501 -1.00376 0
M  V30 215 C 20.1783 -0.976927 -2.07337 0
M  V30 216 C 21.1783 0.0525322 -1.60714 0
M  V30 217 O 22.3683 -0.184869 -1.73216 0
M  V30 218 C 19.5003 -0.473423 -3.37597 0
M  V30 219 H 20.6933 -1.92587 -2.29892 0
M  V30 220 H 18.2463 -1.03217 -1.17371 0
M  V30 221 H 18.9813 0.480379 -3.20722 0
M  V30 222 H 18.7663 -1.216 -3.72768 0
M  V30 223 H 20.2563 -0.32675 -4.1632 0
M  V30 224 N 20.6934 1.19889 -1.02296 0
M  V30 225 C 21.9394 1.89701 -0.717033 0
M  V30 226 C 22.2724 1.7905 0.751989 0
M  V30 227 O 21.5474 1.17891 1.547 0
M  V30 228 C 21.8304 3.40858 -1.16136 0
M  V30 229 C 21.6834 3.60411 -2.69117 0
M  V30 230 C 23.0024 4.33876 -0.737549 0
M  V30 231 H 20.1214 0.688874 -0.261957 0
M  V30 232 H 22.7634 1.41154 -1.27183 0
M  V30 233 H 20.9134 3.82335 -0.689342 0
M  V30 234 H 22.5854 3.28145 -3.2422 0
M  V30 235 H 20.8284 3.03665 -3.0979 0
M  V30 236 H 21.4994 4.66396 -2.95261 0
M  V30 237 H 23.9754 4.00081 -1.14344 0
M  V30 238 H 22.8514 5.38242 -1.0764 0
M  V30 239 H 23.1124 4.40628 0.360436 0
M  V30 240 N 22.1715 0.800033 1.35784 0
M  V30 241 C 23.0815 0.207204 2.33683 0
M  V30 242 C 24.0975 -0.64631 1.61551 0
M  V30 243 O 25.2735 -0.559604 1.93469 0
M  V30 244 C 22.3385 -0.639659 3.40748 0
M  V30 245 C 21.3995 0.233585 4.28664 0
M  V30 246 C 20.6325 -0.572954 5.30616 0
M  V30 247 O 20.8555 -1.80816 5.40982 0
M  V30 248 O 19.7895 0.0327285 6.01891 0
M  V30 249 H 23.6155 1.01692 2.86169 0
M  V30 250 H 21.2005 0.561691 1.38439 0
M  V30 251 H 23.0825 -1.12223 4.06182 0
M  V30 252 H 21.7575 -1.42708 2.90544 0
M  V30 253 H 20.6645 0.763147 3.66233 0
M  V30 254 H 21.9975 0.984784 4.82248 0
M  V30 255 N 23.6496 -1.47581 0.552962 0
M  V30 256 C 24.8746 -2.07378 0.0300593 0
M  V30 257 C 25.2996 -1.40355 -1.25229 0
M  V30 258 O 24.6576 -0.477099 -1.7491 0
M  V30 259 C 24.7056 -3.60274 -0.153231 0
M  V30 260 O 23.8096 -3.94041 -1.21678 0
M  V30 261 H 23.1506 -0.662158 0.0494182 0
M  V30 262 H 25.6806 -1.89662 0.767434 0
M  V30 263 H 25.6906 -4.0633 -0.368761 0
M  V30 264 H 24.3656 -4.08455 0.783397 0
M  V30 265 H 22.9426 -3.59735 -0.982079 0
M  V30 266 N 25.1277 -0.289203 -1.54924 0
M  V30 267 C 26.5387 0.205791 -1.85562 0
M  V30 268 C 26.8897 1.54351 -1.2112 0
M  V30 269 O 26.0147 2.10435 -0.504601 0
M  V30 270 C 26.6097 0.380177 -3.3666 0
M  V30 271 C 25.1687 0.819395 -3.67373 0
M  V30 272 C 24.3157 -0.079159 -2.77187 0
M  V30 273 H 27.2667 -0.510577 -1.50262 0
M  V30 274 H 27.2877 1.21659 -3.60526 0
M  V30 275 H 26.7997 -0.593589 -3.83534 0
M  V30 276 H 24.9007 1.80413 -3.26009 0
M  V30 277 H 25.0137 0.646957 -4.74712 0
M  V30 278 H 23.3777 0.439565 -2.50878 0
M  V30 279 H 24.1607 -1.04906 -3.26878 0
M  V30 280 N 26.6058 1.57591 -0.0167156 0
M  V30 281 C 27.8308 1.9598 0.67872 0
M  V30 282 C 28.2558 0.892546 1.65575 0
M  V30 283 O 27.6138 -0.147772 1.80697 0
M  V30 284 C 27.6618 3.33468 1.37227 0
M  V30 285 O 26.7658 3.28954 2.48722 0
M  V30 286 H 26.1068 0.639339 0.17928 0
M  V30 287 H 28.6368 2.04463 -0.0748802 0
M  V30 288 H 28.6468 3.69417 1.7319 0
M  V30 289 H 27.3218 4.10694 0.656007 0
M  V30 290 H 25.8988 3.04705 2.14963 0
M  V30 291 N 28.0839 -0.256276 1.55502 0
M  V30 292 C 29.3609 -1.00789 1.67633 0
M  V30 293 C 29.7409 -2.03706 0.553826 0
M  V30 294 O 29.0889 -2.24145 -0.443969 0
M  V30 295 C 29.2989 -1.64968 3.07549 0
M  V30 296 C 30.6469 -2.15505 3.65845 0
M  V30 297 O 31.6709 -1.74925 3.1029 0
M  V30 298 O 30.5299 -2.89986 4.63217 0
M  V30 299 H 27.6239 -0.468553 0.681459 0
M  V30 300 H 30.1699 -0.250806 1.67836 0
M  V30 301 H 28.9419 -0.904785 3.80696 0
M  V30 302 H 28.5649 -2.47321 3.11317 0
M  V30 303 N 29.562 -1.4872 -0.521534 0
M  V30 304 C 30.787 -1.61101 -1.30618 0
M  V30 305 C 31.212 -0.274611 -1.86085 0
M  V30 306 O 30.57 0.754937 -1.64834 0
M  V30 307 C 30.618 -2.66709 -2.4269 0
M  V30 308 O 29.722 -2.24456 -3.45967 0
M  V30 309 H 29.063 -0.539921 -0.386499 0
M  V30 310 H 31.593 -1.94767 -0.626645 0
M  V30 311 H 31.603 -2.88245 -2.88754 0
M  V30 312 H 30.278 -3.63727 -2.01682 0
M  V30 313 H 28.855 -2.13168 -3.05964 0
M  V30 314 N 31.0401 0.771051 -1.3745 0
M  V30 315 C 32.0031 1.86598 -1.33093 0
M  V30 316 C 33.0031 1.59076 -0.234845 0
M  V30 317 O 34.1931 1.67145 -0.490732 0
M  V30 318 C 31.3251 3.23747 -1.06773 0
M  V30 319 H 32.5181 1.91873 -2.30488 0
M  V30 320 H 30.0711 0.970876 -1.2249 0
M  V30 321 H 30.8061 3.24148 -0.099129 0
M  V30 322 H 30.5911 3.45115 -1.86112 0
M  V30 323 H 32.0811 4.03824 -1.06377 0
M  V30 324 N 32.5182 1.22032 0.997298 0
M  V30 325 C 33.4282 1.00271 2.12092 0
M  V30 326 C 34.4442 -0.047621 1.73935 0
M  V30 327 O 35.6202 0.144136 2.00884 0
M  V30 328 C 32.6852 0.578449 3.4184 0
M  V30 329 C 31.7462 1.70189 3.94125 0
M  V30 330 C 30.9792 1.29778 5.17681 0
M  V30 331 O 31.2022 0.174676 5.70132 0
M  V30 332 O 30.1362 2.11261 5.63607 0
M  V30 333 H 33.9622 1.94398 2.3333 0
M  V30 334 H 31.5472 1.00587 1.10465 0
M  V30 335 H 33.4292 0.351998 4.19927 0
M  V30 336 H 32.1042 -0.334019 3.21972 0
M  V30 337 H 31.0112 1.98282 3.1723 0
M  V30 338 H 32.3442 2.59206 4.18417 0
M  V30 339 N 33.9963 -1.19345 1.0293 0
M  V30 340 C 34.9443 -2.24621 0.604001 0
M  V30 341 C 35.9383 -1.65452 -0.363587 0
M  V30 342 O 37.1443 -1.78497 -0.23212 0
M  V30 343 H 33.5193 -0.730858 0.177061 0
M  V30 344 H 35.4903 -2.5781 1.50255 0
M  V30 345 C 34.2393 -3.47688 -0.0289127 0
M  V30 346 H 33.5623 -3.93505 0.706651 0
M  V30 347 H 35.0023 -4.23011 -0.289432 0
M  V30 348 C 33.4613 -3.11817 -1.2756 0
M  V30 349 O 33.9913 -3.2451 -2.36762 0
M  V30 350 N 32.1973 -2.66246 -1.16453 0
M  V30 351 H 31.7443 -2.56118 -0.275914 0
M  V30 352 H 31.7023 -2.42617 -1.99961 0
M  V30 353 N 35.4744 -0.807222 -1.35358 0
M  V30 354 C 36.7224 -0.387122 -1.98358 0
M  V30 355 C 37.0434 1.04942 -1.64354 0
M  V30 356 O 36.3134 1.72615 -0.926339 0
M  V30 357 H 34.8934 -0.140154 -0.733734 0
M  V30 358 H 37.5554 -1.0332 -1.6526 0
M  V30 359 H 36.6514 -0.493352 -3.08176 0
M  V30 360 N 36.9525 1.47285 -0.560781 0
M  V30 361 C 37.8845 2.28118 0.222438 0
M  V30 362 C 38.8975 1.37219 0.876056 0
M  V30 363 O 40.0865 1.62011 0.749307 0
M  V30 364 C 37.1865 3.1159 1.33285 0
M  V30 365 C 36.3595 4.30473 0.77534 0
M  V30 366 C 35.4185 4.95513 1.77069 0
M  V30 367 O 34.4445 5.53792 1.31539 0
M  V30 368 N 35.6465 4.90531 3.10418 0
M  V30 369 H 38.4115 2.95976 -0.470958 0
M  V30 370 H 35.9725 1.56955 -0.39709 0
M  V30 371 H 37.9645 3.51967 1.99752 0
M  V30 372 H 36.5345 2.45951 1.92943 0
M  V30 373 H 35.7545 3.94144 -0.0662113 0
M  V30 374 H 37.0425 5.07362 0.382272 0
M  V30 375 H 36.4405 4.44389 3.5005 0
M  V30 376 H 34.9975 5.34917 3.72434 0
M  V30 377 N 38.4306 0.297415 1.54768 0
M  V30 378 C 39.3626 -0.613881 2.20826 0
M  V30 379 C 40.3756 -1.10032 1.19987 0
M  V30 380 O 41.5646 -1.01839 1.46598 0
M  V30 381 C 38.6646 -1.852 2.83821 0
M  V30 382 C 37.8376 -1.50865 4.10559 0
M  V30 383 C 36.8966 -2.60154 4.57391 0
M  V30 384 O 35.9226 -2.25398 5.2267 0
M  V30 385 N 37.1246 -3.90629 4.29406 0
M  V30 386 H 39.8896 -0.048389 2.99661 0
M  V30 387 H 37.4506 0.11946 1.61459 0
M  V30 388 H 39.4426 -2.57652 3.12086 0
M  V30 389 H 38.0126 -2.32597 2.08847 0
M  V30 390 H 37.2326 -0.616925 3.89343 0
M  V30 391 H 38.5206 -1.25458 4.9309 0
M  V30 392 H 37.9186 -4.21677 3.77101 0
M  V30 393 H 36.4756 -4.59391 4.62388 0
M  V30 394 N 39.9087 -1.5758 0.0250728 0
M  V30 395 C 41.1577 -1.90811 -0.653767 0
M  V30 396 C 41.4707 -0.90273 -1.73523 0
M  V30 397 O 42.6767 -1.12614 -2.47043 0
M  V30 398 C 41.1327 -3.38804 -1.21409 0
M  V30 399 C 40.7407 -4.47692 -0.166126 0
M  V30 400 C 42.4847 -3.81108 -1.86967 0
M  V30 401 C 40.3917 -5.86779 -0.737856 0
M  V30 402 H 39.3217 -0.712063 -0.247956 0
M  V30 403 H 41.9727 -1.83281 0.0897137 0
M  V30 404 H 40.3547 -3.41252 -2.00905 0
M  V30 405 H 41.5287 -4.56797 0.606079 0
M  V30 406 H 39.8437 -4.14565 0.390466 0
M  V30 407 H 42.4407 -4.82375 -2.30692 0
M  V30 408 H 42.7837 -3.15953 -2.71071 0
M  V30 409 H 43.3167 -3.81065 -1.14167 0
M  V30 410 H 40.0557 -6.55468 0.0649577 0
M  V30 411 H 39.5757 -5.81288 -1.47864 0
M  V30 412 H 41.2547 -6.35223 -1.22884 0
M  V30 413 N 41.3868 0.248026 -1.55636 0
M  V30 414 C 42.3198 1.3334 -1.85191 0
M  V30 415 C 43.2978 1.46429 -0.706906 0
M  V30 416 O 44.4818 1.62662 -0.952544 0
M  V30 417 C 41.6088 2.70703 -2.03562 0
M  V30 418 C 40.6548 2.7477 -3.26196 0
M  V30 419 S 41.4878 2.31493 -4.82878 0
M  V30 420 C 42.6438 3.70783 -5.04253 0
M  V30 421 H 42.8768 1.08072 -2.76962 0
M  V30 422 H 40.4098 0.448952 -1.47729 0
M  V30 423 H 42.3678 3.49798 -2.1483 0
M  V30 424 H 41.0288 2.9321 -1.12635 0
M  V30 425 H 40.2218 3.75648 -3.36013 0
M  V30 426 H 39.8238 2.03719 -3.13647 0
M  V30 427 H 42.1158 4.6627 -4.91527 0
M  V30 428 H 43.0588 3.65901 -6.06236 0
M  V30 429 H 43.4668 3.63244 -4.32105 0
M  V30 430 N 42.8649 1.48995 0.513639 0
M  V30 431 C 44.1419 1.48338 1.27495 0
M  V30 432 C 44.5219 0.204065 2.10111 0
M  V30 433 O 43.8699 -0.813881 2.13514 0
M  V30 434 C 44.0799 2.75498 2.14247 0
M  V30 435 C 45.4279 3.24484 2.73852 0
M  V30 436 O 46.4519 2.76528 2.24523 0
M  V30 437 O 45.3109 4.07974 3.6362 0
M  V30 438 H 42.4049 0.593149 0.576284 0
M  V30 439 H 44.9509 1.61246 0.528948 0
M  V30 440 H 43.7229 3.60109 1.53092 0
M  V30 441 H 43.3459 2.6539 2.96064 0
M  V30 442 N 44.343 -0.763751 1.37857 0
M  V30 443 C 45.253 -1.90817 1.36478 0
M  V30 444 C 46.269 -1.71997 0.263248 0
M  V30 445 O 47.445 -1.95095 0.499979 0
M  V30 446 C 44.51 -3.2605 1.17864 0
M  V30 447 C 43.571 -3.57467 2.3773 0
M  V30 448 C 42.804 -4.86249 2.19995 0
M  V30 449 O 43.027 -5.57884 1.18836 0
M  V30 450 O 41.961 -5.16911 3.08361 0
M  V30 451 H 45.787 -1.94933 2.32884 0
M  V30 452 H 43.372 -0.907619 1.1867 0
M  V30 453 H 45.254 -4.06924 1.09504 0
M  V30 454 H 43.929 -3.22769 0.245372 0
M  V30 455 H 42.836 -2.76796 2.51664 0
M  V30 456 H 44.169 -3.655 3.29652 0
M  V30 457 N 45.8211 -1.22559 -0.990812 0
M  V30 458 C 47.2321 -1.04791 -1.54518 0
M  V30 459 C 47.5831 0.387998 -1.92325 0
M  V30 460 O 46.7081 1.27328 -1.74976 0
M  V30 461 C 47.3031 -1.896 -2.80779 0
M  V30 462 C 45.8621 -1.76124 -3.32652 0
M  V30 463 C 45.0091 -1.8594 -2.05722 0
M  V30 464 H 47.9601 -1.36374 -0.811662 0
M  V30 465 H 47.9811 -1.41464 -3.53225 0
M  V30 466 H 47.4931 -2.94101 -2.53231 0
M  V30 467 H 45.5941 -0.743643 -3.65104 0
M  V30 468 H 45.7071 -2.58913 -4.03114 0
M  V30 469 H 44.0711 -1.29403 -2.19379 0
M  V30 470 H 44.8541 -2.91976 -1.80568 0
M  V30 471 N 47.2992 1.18797 -1.03562 0
M  V30 472 C 48.2322 2.2105 -0.56676 0
M  V30 473 C 49.2102 1.57704 0.395993 0
M  V30 474 O 50.3942 1.85908 0.311498 0
M  V30 475 C 47.5212 3.38259 0.172704 0
M  V30 476 C 46.5672 4.19987 -0.74252 0
M  V30 477 S 47.4002 4.87199 -2.22254 0
M  V30 478 C 48.5562 6.07813 -1.49379 0
M  V30 479 H 48.7892 2.60478 -1.43312 0
M  V30 480 H 46.3222 1.29151 -0.846133 0
M  V30 481 H 48.2802 4.06191 0.593191 0
M  V30 482 H 46.9412 2.97252 1.01488 0
M  V30 483 H 46.1342 5.03709 -0.171265 0
M  V30 484 H 45.7362 3.57408 -1.10163 0
M  V30 485 H 48.0282 6.72948 -0.784056 0
M  V30 486 H 48.9712 6.69435 -2.30786 0
M  V30 487 H 49.3792 5.55781 -0.988331 0
M  V30 488 N 48.7773 0.814389 1.34928 0
M  V30 489 C 50.0253 0.397636 1.9815 0
M  V30 490 C 50.3463 -1.04069 1.64908 0
M  V30 491 O 49.6163 -1.72121 0.93548 0
M  V30 492 H 48.1963 0.144043 0.732981 0
M  V30 493 H 50.8583 1.04195 1.6471 0
M  V30 494 H 49.9543 0.509688 3.0791 0
M  V30 495 N 50.2554 -1.46986 0.568584 0
M  V30 496 C 51.1654 -2.33942 -0.17555 0
M  V30 497 C 52.1814 -1.48891 -0.90041 0
M  V30 498 O 53.3574 -1.81794 -0.86676 0
M  V30 499 C 50.4224 -3.25811 -1.18524 0
M  V30 500 C 49.4834 -4.26757 -0.466582 0
M  V30 501 C 48.7164 -5.14236 -1.42817 0
M  V30 502 O 48.9394 -5.04379 -2.66379 0
M  V30 503 O 47.8734 -5.94412 -0.946453 0
M  V30 504 H 51.6994 -2.98896 0.538036 0
M  V30 505 H 49.2844 -1.4573 0.329097 0
M  V30 506 H 51.1664 -3.82527 -1.76779 0
M  V30 507 H 49.8414 -2.63471 -1.88055 0
M  V30 508 H 48.7484 -3.73769 0.157451 0
M  V30 509 H 50.0814 -4.91843 0.187485 0
M  V30 510 N 51.7335 -0.305618 -1.54608 0
M  V30 511 C 52.6435 0.57778 -2.27374 0
M  V30 512 C 53.6595 1.14451 -1.31061 0
M  V30 513 O 54.8355 1.16831 -1.6405 0
M  V30 514 C 51.9005 1.73123 -3.00382 0
M  V30 515 C 50.9615 1.19812 -4.12242 0
M  V30 516 C 50.1945 2.2966 -4.81759 0
M  V30 517 O 50.4175 3.49651 -4.50666 0
M  V30 518 O 49.3515 1.96091 -5.69062 0
M  V30 519 H 53.1775 -0.012624 -3.03697 0
M  V30 520 H 50.7625 -0.0719184 -1.49227 0
M  V30 521 H 52.6445 2.40315 -3.4616 0
M  V30 522 H 51.3195 2.30815 -2.26949 0
M  V30 523 H 50.2265 0.491798 -3.70853 0
M  V30 524 H 51.5595 0.666566 -4.87666 0
M  V30 525 N 53.2116 1.57565 -0.0334293 0
M  V30 526 C 54.1216 2.13943 0.962572 0
M  V30 527 C 55.1376 1.09276 1.35406 0
M  V30 528 O 56.3136 1.41355 1.4346 0
M  V30 529 C 53.3786 2.65887 2.22497 0
M  V30 530 C 52.4396 3.85286 1.8935 0
M  V30 531 C 51.6726 4.34743 3.09571 0
M  V30 532 O 51.8956 3.83352 4.22371 0
M  V30 533 O 50.8296 5.26538 2.91618 0
M  V30 534 H 54.6556 2.99333 0.513169 0
M  V30 535 H 52.2406 1.4822 0.18743 0
M  V30 536 H 54.1226 2.99346 2.96598 0
M  V30 537 H 52.7976 1.83578 2.6661 0
M  V30 538 H 51.7046 3.56746 1.1262 0
M  V30 539 H 53.0376 4.68771 1.5005 0
M  V30 540 N 54.6897 -0.239769 1.55765 0
M  V30 541 C 55.9387 -0.964754 1.77131 0
M  V30 542 C 56.2517 -1.86213 0.59868 0
M  V30 543 O 57.4577 -2.6244 0.695522 0
M  V30 544 C 55.9137 -1.76552 3.1362 0
M  V30 545 C 55.5217 -0.915185 4.38553 0
M  V30 546 C 57.2657 -2.48281 3.44321 0
M  V30 547 C 55.1727 -1.71225 5.66071 0
M  V30 548 H 54.1027 -0.363953 0.660344 0
M  V30 549 H 56.7537 -0.219181 1.82186 0
M  V30 550 H 55.1357 -2.55331 3.02691 0
M  V30 551 H 56.3097 -0.169217 4.60489 0
M  V30 552 H 54.6247 -0.310889 4.15238 0
M  V30 553 H 57.2217 -3.08382 4.36812 0
M  V30 554 H 57.5647 -3.20256 2.65973 0
M  V30 555 H 58.0977 -1.76507 3.56497 0
M  V30 556 H 54.8367 -1.03612 6.4726 0
M  V30 557 H 54.3567 -2.43331 5.48224 0
M  V30 558 H 56.0357 -2.27758 6.05587 0
M  V30 559 N 56.1678 -1.49265 -0.50573 0
M  V30 560 C 57.1158 -1.66065 -1.62866 0
M  V30 561 C 58.1098 -0.526636 -1.61006 0
M  V30 562 O 59.3158 -0.706126 -1.65571 0
M  V30 563 H 55.6908 -0.52356 -0.539805 0
M  V30 564 H 57.6618 -2.60329 -1.45848 0
M  V30 565 C 56.4108 -1.74008 -3.01026 0
M  V30 566 H 55.7338 -2.6064 -3.03161 0
M  V30 567 H 57.1738 -1.89798 -3.79147 0
M  V30 568 C 55.6328 -0.483868 -3.33407 0
M  V30 569 O 56.1628 0.392548 -3.99777 0
M  V30 570 N 54.3688 -0.348236 -2.88506 0
M  V30 571 H 53.9158 -1.06242 -2.34671 0
M  V30 572 H 53.8738 0.491204 -3.10539 0
M  V30 573 N 57.6459 0.756429 -1.3826 0
M  V30 574 C 59.0569 1.33359 -1.30661 0
M  V30 575 C 59.4079 1.96161 0.0388875 0
M  V30 576 O 58.5329 1.94874 0.940918 0
M  V30 577 C 59.1279 2.42477 -2.36622 0
M  V30 578 C 57.6869 2.95922 -2.3261 0
M  V30 579 C 56.8339 1.69275 -2.19639 0
M  V30 580 H 59.7849 0.55552 -1.4866 0
M  V30 581 H 59.8059 3.22345 -2.02174 0
M  V30 582 H 59.3179 1.96739 -3.34538 0
M  V30 583 H 57.4189 3.45996 -1.38267 0
M  V30 584 H 57.5319 3.50494 -3.26636 0
M  V30 585 H 55.8959 1.92793 -1.66442 0
M  V30 586 H 56.6789 1.25619 -3.19491 0
M  V30 587 N 59.124 1.23083 0.984299 0
M  V30 588 C 60.056 0.96636 2.07832 0
M  V30 589 C 61.069 -0.0582135 1.62696 0
M  V30 590 O 62.258 0.176843 1.77622 0
M  V30 591 C 59.358 0.433397 3.36117 0
M  V30 592 C 58.531 1.51722 4.10243 0
M  V30 593 C 57.59 0.989821 5.16807 0
M  V30 594 O 56.616 1.67794 5.43906 0
M  V30 595 N 57.818 -0.184367 5.80207 0
M  V30 596 H 60.583 1.90824 2.31098 0
M  V30 597 H 58.144 1.13888 1.1507 0
M  V30 598 H 60.136 0.065699 4.04647 0
M  V30 599 H 58.706 -0.413806 3.09849 0
M  V30 600 H 57.926 2.05786 3.36223 0
M  V30 601 H 59.214 2.24619 4.56534 0
M  V30 602 H 58.612 -0.760062 5.60571 0
M  V30 603 H 57.169 -0.493366 6.4993 0
M  V30 604 N 60.6021 -1.18246 1.0419 0
M  V30 605 C 61.8301 -1.92195 0.766072 0
M  V30 606 C 62.2451 -1.76247 -0.676933 0
M  V30 607 O 61.6021 -1.09293 -1.46155 0
M  V30 608 C 61.6531 -3.43568 1.12442 0
M  V30 609 O 61.3741 -3.59015 2.51078 0
M  V30 610 C 62.8751 -4.34613 0.873275 0
M  V30 611 H 60.0951 -0.610114 0.279288 0
M  V30 612 H 62.6391 -1.50007 1.38989 0
M  V30 613 H 60.7941 -3.8354 0.545542 0
M  V30 614 H 61.2081 -4.5273 2.64831 0
M  V30 615 H 62.6821 -5.39374 1.17385 0
M  V30 616 H 63.1591 -4.38781 -0.191909 0
M  V30 617 H 63.7651 -4.00341 1.43551 0
M  V30 618 N 62.0802 -0.821533 -1.34494 0
M  V30 619 C 62.9902 -0.244355 -2.33324 0
M  V30 620 C 64.0062 0.620527 -1.62559 0
M  V30 621 O 65.1822 0.528754 -1.94335 0
M  V30 622 C 62.2472 0.585368 -3.41723 0
M  V30 623 C 61.3082 -0.301752 -4.28238 0
M  V30 624 C 60.5412 0.488466 -5.3146 0
M  V30 625 O 60.7642 1.72186 -5.4379 0
M  V30 626 O 59.6982 -0.12848 -6.01763 0
M  V30 627 H 63.5242 -1.06231 -2.84515 0
M  V30 628 H 61.1092 -0.583645 -1.37528 0
M  V30 629 H 62.9912 1.05747 -4.07916 0
M  V30 630 H 61.6662 1.38068 -2.92778 0
M  V30 631 H 60.5732 -0.821315 -3.64973 0
M  V30 632 H 61.9062 -1.06138 -4.8062 0
M  V30 633 N 63.5583 1.46682 -0.576371 0
M  V30 634 C 64.4683 2.34032 0.163141 0
M  V30 635 C 65.4843 1.49367 0.892501 0
M  V30 636 O 66.6603 1.82252 0.857106 0
M  V30 637 C 63.7253 3.26435 1.16795 0
M  V30 638 C 62.7863 4.26998 0.443944 0
M  V30 639 C 62.0193 5.14986 1.40088 0
M  V30 640 O 62.2423 5.05785 2.637 0
M  V30 641 O 61.1763 5.94906 0.914917 0
M  V30 642 H 65.0023 2.98607 -0.55388 0
M  V30 643 H 62.5873 1.45554 -0.336821 0
M  V30 644 H 64.4693 3.83459 1.74748 0
M  V30 645 H 63.1443 2.64465 1.86655 0
M  V30 646 H 62.0513 3.7368 -0.177271 0
M  V30 647 H 63.3843 4.91736 -0.213566 0
M  V30 648 N 65.0364 0.313813 1.54444 0
M  V30 649 C 66.2824 -0.292108 2.00685 0
M  V30 650 C 66.6154 -1.52548 1.20177 0
M  V30 651 O 65.8904 -1.92452 0.281531 0
M  V30 652 C 66.1734 -0.635968 3.5444 0
M  V30 653 C 66.0264 0.607437 4.4568 0
M  V30 654 C 67.3454 -1.45747 4.15266 0
M  V30 655 H 64.4644 -0.104697 0.729526 0
M  V30 656 H 67.1064 0.428457 1.85106 0
M  V30 657 H 65.2564 -1.24986 3.67846 0
M  V30 658 H 66.9284 1.24581 4.44159 0
M  V30 659 H 65.1714 1.23822 4.15753 0
M  V30 660 H 65.8424 0.322515 5.51057 0
M  V30 661 H 68.3184 -0.938645 4.05375 0
M  V30 662 H 67.1944 -1.66683 5.2298 0
M  V30 663 H 67.4554 -2.45063 3.67963 0
M  V30 664 N 66.5145 -1.57545 0.0417849 0
M  V30 665 C 67.7395 -1.97035 -0.647455 0
M  V30 666 C 68.1645 -0.918775 -1.64135 0
M  V30 667 O 67.5225 0.119006 -1.80909 0
M  V30 668 C 67.5705 -3.35609 -1.31905 0
M  V30 669 O 66.6745 -3.3287 -2.43457 0
M  V30 670 H 66.0155 -0.64211 -0.169086 0
M  V30 671 H 68.5455 -2.04318 0.107399 0
M  V30 672 H 68.5555 -3.72126 -1.67291 0
M  V30 673 H 67.2305 -4.11685 -0.590586 0
M  V30 674 H 65.8075 -3.08087 -2.10088 0
M  V30 675 N 67.9926 0.231505 -1.5589 0
M  V30 676 C 69.2416 0.955346 -1.7764 0
M  V30 677 C 69.5546 1.85893 -0.608546 0
M  V30 678 O 70.7606 2.62067 -0.70943 0
M  V30 679 C 69.2166 1.74886 -3.14552 0
M  V30 680 C 68.8246 0.891915 -4.39032 0
M  V30 681 C 70.5686 2.46452 -3.45633 0
M  V30 682 C 68.4756 1.68221 -5.66971 0
M  V30 683 H 67.4056 0.360446 -0.662265 0
M  V30 684 H 70.0566 0.209516 -1.823 0
M  V30 685 H 68.4386 2.53723 -3.04041 0
M  V30 686 H 69.6126 0.144793 -4.60572 0
M  V30 687 H 67.9276 0.288863 -4.15397 0
M  V30 688 H 70.5246 3.06061 -4.38441 0
M  V30 689 H 70.8676 3.18841 -2.67668 0
M  V30 690 H 71.4006 1.74613 -3.57428 0
M  V30 691 H 68.1396 1.00178 -6.478 0
M  V30 692 H 67.6596 2.4042 -5.49507 0
M  V30 693 H 69.3386 2.24544 -6.06786 0
M  V30 694 N 69.4707 1.49531 0.497807 0
M  V30 695 C 70.4177 1.66436 1.59899 0
M  V30 696 C 71.3877 0.505793 1.58212 0
M  V30 697 O 72.5727 0.733202 1.7615 0
M  V30 698 C 69.7127 1.7399 2.98029 0
M  V30 699 C 68.8257 3.01172 3.09708 0
M  V30 700 C 67.9607 2.99686 4.38591 0
M  V30 701 C 66.9997 4.21434 4.43914 0
M  V30 702 N 66.1367 4.1784 5.64229 0
M  V30 703 H 70.9767 2.60459 1.44793 0
M  V30 704 H 68.5137 1.29137 0.704423 0
M  V30 705 H 70.4717 1.76352 3.78095 0
M  V30 706 H 69.1017 0.834301 3.11832 0
M  V30 707 H 68.1537 3.08408 2.22685 0
M  V30 708 H 69.4657 3.91165 3.09502 0
M  V30 709 H 68.6197 3.00628 5.2698 0
M  V30 710 H 67.3587 2.07477 4.41367 0
M  V30 711 H 66.3637 4.20733 3.53926 0
M  V30 712 H 67.5887 5.14839 4.42851 0
M  V30 713 H 65.5347 3.28469 5.67841 0
M  V30 714 H 65.4517 5.01571 5.65652 0
M  V30 715 H 66.7197 4.22889 6.54817 0
M  V30 716 N 70.9488 -0.749086 1.3866 0
M  V30 717 C 71.8588 -1.89358 1.38494 0
M  V30 718 C 72.8748 -1.71708 0.281476 0
M  V30 719 O 74.0508 -1.94554 0.520643 0
M  V30 720 C 71.1158 -3.24782 1.21316 0
M  V30 721 C 70.1768 -3.54926 2.41508 0
M  V30 722 C 69.4098 -4.83888 2.2514 0
M  V30 723 O 69.6328 -5.56592 1.24746 0
M  V30 724 O 68.5668 -5.13612 3.13826 0
M  V30 725 H 72.3928 -1.92452 2.34938 0
M  V30 726 H 69.9778 -0.894981 1.19626 0
M  V30 727 H 71.8598 -4.05739 1.13814 0
M  V30 728 H 70.5348 -3.2249 0.279592 0
M  V30 729 H 69.4418 -2.74112 2.54585 0
M  V30 730 H 70.7748 -3.61983 3.3351 0
M  V30 731 N 72.4269 -1.23603 -0.977757 0
M  V30 732 C 73.6759 -1.06377 -1.71368 0
M  V30 733 C 73.9889 0.399062 -1.91486 0
M  V30 734 O 75.1949 0.691312 -2.62551 0
M  V30 735 C 73.6509 -1.85512 -3.08404 0
M  V30 736 C 73.2589 -3.36141 -2.96164 0
M  V30 737 C 75.0029 -1.76783 -3.85938 0
M  V30 738 C 72.9099 -4.07659 -4.28449 0
M  V30 739 H 71.8399 -0.394452 -0.642591 0
M  V30 740 H 74.4909 -1.47594 -1.09034 0
M  V30 741 H 72.8729 -1.37103 -3.71509 0
M  V30 742 H 74.0469 -3.92056 -2.42133 0
M  V30 743 H 72.3619 -3.45712 -2.32104 0
M  V30 744 H 74.9589 -2.27526 -4.83876 0
M  V30 745 H 75.3019 -0.731116 -4.0983 0
M  V30 746 H 75.8349 -2.22818 -3.2954 0
M  V30 747 H 72.5739 -5.11648 -4.09752 0
M  V30 748 H 72.0939 -3.5653 -4.82334 0
M  V30 749 H 73.7729 -4.141 -4.97122 0
M  V30 750 N 73.905 1.17692 -1.04816 0
M  V30 751 C 74.868 2.19787 -0.650117 0
M  V30 752 C 75.868 1.58044 0.296427 0
M  V30 753 O 77.058 1.74012 0.0808097 0
M  V30 754 C 74.19 3.40869 0.0456987 0
M  V30 755 H 75.383 2.56516 -1.5537 0
M  V30 756 H 72.936 1.31708 -0.841594 0
M  V30 757 H 73.671 3.09681 0.962726 0
M  V30 758 H 73.456 3.86928 -0.634727 0
M  V30 759 H 74.946 4.16445 0.310432 0
M  V30 760 N 75.3831 0.828654 1.34056 0
M  V30 761 C 76.6321 0.415828 1.97367 0
M  V30 762 C 76.9451 -1.02796 1.6641 0
M  V30 763 O 78.1511 -1.54497 2.23255 0
M  V30 764 C 76.6071 0.692601 3.53173 0
M  V30 765 C 76.2151 2.15038 3.93017 0
M  V30 766 C 77.9591 0.346222 4.23086 0
M  V30 767 C 75.8661 2.37174 5.41758 0
M  V30 768 H 74.7961 0.151755 0.738571 0
M  V30 769 H 77.4471 1.01581 1.52819 0
M  V30 770 H 75.8291 0.0223764 3.95994 0
M  V30 771 H 77.0031 2.86024 3.61285 0
M  V30 772 H 75.3181 2.45875 3.36057 0
M  V30 773 H 77.9151 0.48937 5.32456 0
M  V30 774 H 78.2581 -0.709842 4.10204 0
M  V30 775 H 78.7911 0.971258 3.85761 0
M  V30 776 H 75.5301 3.41308 5.59633 0
M  V30 777 H 75.0501 1.70738 5.74986 0
M  V30 778 H 76.7291 2.19818 6.08514 0
M  V30 779 N 76.8612 -1.46375 0.584142 0
M  V30 780 C 78.0892 -2.06761 0.0759296 0
M  V30 781 C 78.5042 -1.43266 -1.22965 0
M  V30 782 O 77.8612 -0.538458 -1.74376 0
M  V30 783 C 77.9122 -3.61375 -0.0950384 0
M  V30 784 O 77.6332 -4.22495 1.15887 0
M  V30 785 C 79.1342 -4.38693 -0.637434 0
M  V30 786 H 76.3542 -0.668479 0.0581075 0
M  V30 787 H 78.8982 -1.8798 0.805218 0
M  V30 788 H 77.0532 -3.79578 -0.774554 0
M  V30 789 H 77.4672 -5.15385 0.973598 0
M  V30 790 H 78.9412 -5.47464 -0.706237 0
M  V30 791 H 79.4182 -4.06836 -1.65472 0
M  V30 792 H 80.0242 -4.25299 0.00725967 0
M  V30 793 N 78.3393 -0.321999 -1.54275 0
M  V30 794 C 79.2893 0.560185 -2.21011 0
M  V30 795 C 80.2733 1.08283 -1.19011 0
M  V30 796 O 81.4653 1.02011 -1.44647 0
M  V30 797 C 78.5943 1.72137 -2.97025 0
M  V30 798 C 77.6803 1.21369 -4.06363 0
M  V30 799 N 78.0713 0.425566 -5.04007 0
M  V30 800 C 76.3693 1.49255 -4.20284 0
M  V30 801 C 77.0703 0.152601 -5.815 0
M  V30 802 N 76.0463 0.738294 -5.38563 0
M  V30 803 H 79.8483 -0.049265 -2.93859 0
M  V30 804 H 77.3623 -0.127779 -1.61897 0
M  V30 805 H 79.3593 2.36512 -3.43319 0
M  V30 806 H 78.0193 2.33431 -2.25699 0
M  V30 807 H 79.0303 0.068551 -5.17855 0
M  V30 808 H 75.7073 2.11145 -3.60172 0
M  V30 809 H 77.0973 -0.481764 -6.70171 0
M  V30 810 N 79.8174 1.5752 -0.0501392 0
M  V30 811 C 80.7674 2.07981 0.934231 0
M  V30 812 C 81.7514 0.984745 1.27246 0
M  V30 813 O 82.9434 1.24809 1.25506 0
M  V30 814 C 80.0724 2.62751 2.20945 0
M  V30 815 C 79.1584 3.79225 1.89865 0
M  V30 816 N 79.5494 4.89036 1.29142 0
M  V30 817 C 77.8474 3.88111 2.19741 0
M  V30 818 C 78.5484 5.70084 1.15669 0
M  V30 819 N 77.5244 5.17659 1.65923 0
M  V30 820 H 81.3264 2.90277 0.460053 0
M  V30 821 H 78.8404 1.61665 0.15434 0
M  V30 822 H 80.8374 2.97205 2.9236 0
M  V30 823 H 79.4974 1.81894 2.6897 0
M  V30 824 H 80.5084 5.08854 0.963756 0
M  V30 825 H 77.1854 3.18194 2.70293 0
M  V30 826 H 78.5754 6.68395 0.685356 0
M  V30 827 N 81.2955 -0.223234 1.56011 0
M  V30 828 C 82.5415 -0.949279 1.79211 0
M  V30 829 C 82.8745 -1.84054 0.619494 0
M  V30 830 O 82.1495 -1.90726 -0.381317 0
M  V30 831 C 82.4325 -1.78965 3.12479 0
M  V30 832 C 82.2855 -0.924997 4.40186 0
M  V30 833 C 83.6045 -2.76774 3.42175 0
M  V30 834 H 80.7235 -0.343676 0.651963 0
M  V30 835 H 83.3655 -0.218253 1.88742 0
M  V30 836 H 81.5155 -2.41291 3.04485 0
M  V30 837 H 83.1875 -0.318615 4.60198 0
M  V30 838 H 81.4305 -0.230344 4.33188 0
M  V30 839 H 82.1015 -1.54735 5.29869 0
M  V30 840 H 84.5775 -2.24584 3.50287 0
M  V30 841 H 83.4535 -3.32678 4.36597 0
M  V30 842 H 83.7145 -3.54429 2.64258 0
M  V30 843 N 82.7736 -1.49793 -0.48987 0
M  V30 844 C 83.7206 -1.67281 -1.59014 0
M  V30 845 C 84.6906 -0.514177 -1.57941 0
M  V30 846 O 85.8756 -0.742533 -1.75759 0
M  V30 847 C 83.0156 -1.75569 -2.97102 0
M  V30 848 C 82.1286 -3.0281 -3.08107 0
M  V30 849 C 81.2636 -3.02008 -4.36995 0
M  V30 850 C 80.3026 -4.23782 -4.41673 0
M  V30 851 N 79.4396 -4.20826 -5.62005 0
M  V30 852 H 84.2796 -2.61224 -1.43409 0
M  V30 853 H 81.8166 -1.29508 -0.697565 0
M  V30 854 H 83.7746 -1.78354 -3.77155 0
M  V30 855 H 82.4046 -0.850827 -3.11385 0
M  V30 856 H 81.4566 -3.09584 -2.21047 0
M  V30 857 H 82.7686 -3.92801 -3.07423 0
M  V30 858 H 81.9226 -3.03418 -5.25378 0
M  V30 859 H 80.6616 -2.09815 -4.4026 0
M  V30 860 H 79.6666 -4.22604 -3.5169 0
M  V30 861 H 80.8916 -5.17181 -4.40115 0
M  V30 862 H 78.8376 -3.31476 -5.66091 0
M  V30 863 H 78.7546 -5.04564 -5.62984 0
M  V30 864 H 80.0226 -4.26355 -6.52565 0
M  V30 865 N 84.2517 0.741722 -1.39055 0
M  V30 866 C 85.1617 1.88621 -1.39496 0
M  V30 867 C 86.1777 1.71557 -0.290578 0
M  V30 868 O 87.3537 1.94275 -0.530954 0
M  V30 869 C 84.4187 3.24134 -1.23037 0
M  V30 870 C 83.4797 3.5364 -2.43387 0
M  V30 871 C 82.7127 4.82687 -2.27703 0
M  V30 872 O 82.9357 5.55922 -1.27696 0
M  V30 873 O 81.8697 5.1194 -3.16545 0
M  V30 874 H 85.6957 1.91203 -2.35956 0
M  V30 875 H 83.2807 0.888625 -1.20099 0
M  V30 876 H 85.1627 4.0513 -1.15964 0
M  V30 877 H 83.8377 3.22337 -0.296691 0
M  V30 878 H 82.7447 2.72758 -2.56035 0
M  V30 879 H 84.0777 3.60209 -3.35425 0
M  V30 880 N 85.7298 1.2412 0.971189 0
M  V30 881 C 86.9778 1.07668 1.71032 0
M  V30 882 C 87.2988 -0.385797 1.91146 0
M  V30 883 O 86.5688 -1.27569 1.4867 0
M  V30 884 H 85.1488 0.395429 0.633755 0
M  V30 885 H 87.8108 1.55984 1.16855 0
M  V30 886 H 86.9068 1.57195 2.69622 0
M  V30 887 N 87.2079 -1.17134 1.05439 0
M  V30 888 C 88.1579 -2.1919 0.627675 0
M  V30 889 C 89.1419 -1.57328 -0.337147 0
M  V30 890 O 90.3339 -1.76329 -0.153976 0
M  V30 891 C 87.4629 -3.43299 0.00651435 0
M  V30 892 C 86.5489 -4.12255 0.995312 0
M  V30 893 N 86.9399 -4.56997 2.16765 0
M  V30 894 C 85.2379 -4.38316 0.824336 0
M  V30 895 C 85.9389 -5.10239 2.7934 0
M  V30 896 N 84.9149 -5.02595 2.07122 0
M  V30 897 H 88.7169 -2.5149 1.52086 0
M  V30 898 H 86.2309 -1.33491 0.924868 0
M  V30 899 H 88.2279 -4.15693 -0.316965 0
M  V30 900 H 86.8879 -3.1249 -0.882033 0
M  V30 901 H 87.8989 -4.51006 2.54587 0
M  V30 902 H 84.5759 -4.17498 -0.0129526 0
M  V30 903 H 85.9659 -5.54961 3.78772 0
M  V30 904 N 88.686 -0.835752 -1.33615 0
M  V30 905 C 89.596 -0.269088 -2.33052 0
M  V30 906 C 90.612 0.603251 -1.63208 0
M  V30 907 O 91.788 0.508112 -1.94885 0
M  V30 908 C 88.853 0.549091 -3.42324 0
M  V30 909 C 87.914 -0.347156 -4.27894 0
M  V30 910 C 87.147 0.43207 -5.31948 0
M  V30 911 O 87.37 1.66409 -5.45586 0
M  V30 912 O 86.304 -0.192298 -6.01593 0
M  V30 913 H 90.13 -1.09243 -2.83372 0
M  V30 914 H 87.715 -0.598198 -1.36901 0
M  V30 915 H 89.597 1.01414 -4.09015 0
M  V30 916 H 88.272 1.34955 -2.94226 0
M  V30 917 H 87.179 -0.859979 -3.64081 0
M  V30 918 H 88.512 -1.1123 -4.79467 0
M  V30 919 N 90.1641 1.46063 -0.591896 0
M  V30 920 C 91.1111 2.30399 0.136069 0
M  V30 921 C 92.0811 1.41169 0.875238 0
M  V30 922 O 93.2661 1.70112 0.86409 0
M  V30 923 C 90.4061 3.25804 1.13781 0
M  V30 924 C 89.5191 4.30134 0.401137 0
M  V30 925 C 88.6541 5.12659 1.39121 0
M  V30 926 C 87.6931 6.0873 0.641462 0
M  V30 927 N 86.8301 6.8409 1.58004 0
M  V30 928 H 91.6701 2.92118 -0.589144 0
M  V30 929 H 89.2071 1.43959 -0.302342 0
M  V30 930 H 91.1651 3.79569 1.73156 0
M  V30 931 H 89.7951 2.65872 1.83062 0
M  V30 932 H 88.8471 3.79152 -0.307826 0
M  V30 933 H 90.1591 4.98458 -0.184565 0
M  V30 934 H 89.3131 5.70747 2.05749 0
M  V30 935 H 88.0521 4.44316 2.01084 0
M  V30 936 H 87.0571 5.49786 -0.0385419 0
M  V30 937 H 88.2821 6.79095 0.0270945 0
M  V30 938 H 86.2281 6.18449 2.18761 0
M  V30 939 H 86.1451 7.48709 1.04738 0
M  V30 940 H 87.4131 7.4673 2.23639 0
M  V30 941 N 91.6422 0.330177 1.54103 0
M  V30 942 C 92.6052 -0.520144 2.2322 0
M  V30 943 C 93.6052 -1.03828 1.22786 0
M  V30 944 O 94.7952 -0.929652 1.4732 0
M  V30 945 C 91.9272 -1.72317 2.94142 0
M  V30 946 H 93.1202 0.0841605 2.99782 0
M  V30 947 H 90.6732 0.0813433 1.56088 0
M  V30 948 H 91.4082 -2.36653 2.21734 0
M  V30 949 H 91.1932 -1.35898 3.67796 0
M  V30 950 H 92.6832 -2.3266 3.46784 0
M  V30 951 N 93.1203 -1.57491 0.0584922 0
M  V30 952 C 94.3973 -1.84346 -0.653918 0
M  V30 953 C 94.7773 -0.948355 -1.88599 0
M  V30 954 O 94.1253 -0.0112403 -2.28497 0
M  V30 955 C 94.3353 -3.34239 -1.00425 0
M  V30 956 C 95.6833 -4.01431 -1.38342 0
M  V30 957 O 96.7073 -3.38907 -1.09637 0
M  V30 958 O 95.5663 -5.11683 -1.91943 0
M  V30 959 H 92.6603 -0.761112 -0.323478 0
M  V30 960 H 95.2063 -1.6947 0.0884125 0
M  V30 961 H 93.9783 -3.91089 -0.128625 0
M  V30 962 H 93.6013 -3.54329 -1.80378 0
M  V30 963 N 94.5984 0.214957 -1.56127 0
M  V30 964 C 96.0094 0.781386 -1.69562 0
M  V30 965 C 96.3604 1.84707 -0.66165 0
M  V30 966 O 95.4854 2.156 0.185927 0
M  V30 967 C 96.0804 1.42411 -3.07416 0
M  V30 968 C 94.6394 1.93786 -3.22683 0
M  V30 969 C 93.7864 0.800438 -2.65496 0
M  V30 970 H 96.7374 -0.00980633 -1.58697 0
M  V30 971 H 96.7584 2.29309 -3.0364 0
M  V30 972 H 96.2704 0.64826 -3.82648 0
M  V30 973 H 94.3714 2.74152 -2.52332 0
M  V30 974 H 94.4844 2.1133 -4.29973 0
M  V30 975 H 92.8484 1.2095 -2.2415 0
M  V30 976 H 93.6314 0.0371471 -3.4328 0
M  V30 977 N 96.0765 1.50051 0.48192 0
M  V30 978 C 97.3015 1.64508 1.26301 0
M  V30 979 C 97.7265 0.323851 1.85291 0
M  V30 980 O 97.0845 -0.710969 1.66778 0
M  V30 981 C 97.1325 2.7305 2.35533 0
M  V30 982 O 96.2365 2.3355 3.39895 0
M  V30 983 H 95.5775 0.549978 0.372048 0
M  V30 984 H 98.1075 1.9636 0.574786 0
M  V30 985 H 98.1175 2.95799 2.8101 0
M  V30 986 H 96.7925 3.68946 1.91967 0
M  V30 987 H 95.3695 2.21205 3.00204 0
M  V30 988 N 97.5546 -0.734337 1.39446 0
M  V30 989 C 98.4866 -1.85861 1.34121 0
M  V30 990 C 99.4996 -1.60871 0.249864 0
M  V30 991 O 100.689 -1.71093 0.508865 0
M  V30 992 C 97.7886 -3.21899 1.05991 0
M  V30 993 C 96.9616 -3.74239 2.26415 0
M  V30 994 C 96.0206 -4.88841 1.94733 0
M  V30 995 O 95.0466 -5.02468 2.67422 0
M  V30 996 N 96.2486 -5.73261 0.913884 0
M  V30 997 H 99.0136 -1.90934 2.31007 0
M  V30 998 H 96.5746 -0.915102 1.33557 0
M  V30 999 H 98.5666 -3.96136 0.828147 0
M  V30 1000 H 97.1366 -3.12091 0.178361 0
M  V30 1001 H 96.3566 -2.91347 2.65539 0
M  V30 1002 H 97.6446 -4.05942 3.06738 0
M  V30 1003 H 97.0426 -5.64842 0.311476 0
M  V30 1004 H 95.5996 -6.47563 0.742015 0
M  V30 1005 N 99.0327 -1.24633 -0.964593 0
M  V30 1006 C 100.28 -1.08788 -1.70796 0
M  V30 1007 C 100.608 0.372783 -1.90894 0
M  V30 1008 O 99.8627 1.29167 -1.47018 0
M  V30 1009 C 100.162 -1.7763 -3.10133 0
M  V30 1010 C 99.8277 -3.27557 -3.09866 0
M  V30 1011 C 98.4897 -3.6846 -3.09501 0
M  V30 1012 C 100.842 -4.23389 -3.03959 0
M  V30 1013 C 98.1697 -5.03624 -3.00965 0
M  V30 1014 C 100.522 -5.58565 -2.96965 0
M  V30 1015 C 99.1857 -5.98809 -2.9493 0
M  V30 1016 H 98.4557 -0.398084 -0.624988 0
M  V30 1017 H 101.103 -1.54777 -1.12767 0
M  V30 1018 H 99.4077 -1.24044 -3.71645 0
M  V30 1019 H 101.105 -1.62832 -3.66451 0
M  V30 1020 H 97.6947 -2.95006 -3.10917 0
M  V30 1021 H 101.879 -3.92787 -3.03368 0
M  V30 1022 H 97.1347 -5.33998 -2.97752 0
M  V30 1023 H 101.309 -6.32523 -2.91354 0
M  V30 1024 H 98.9357 -7.03505 -2.88071 0
M  V30 1025 N 100.511 1.16574 -1.06058 0
M  V30 1026 C 101.421 2.2452 -0.680282 0
M  V30 1027 C 102.437 1.71348 0.302604 0
M  V30 1028 O 103.613 2.00822 0.152513 0
M  V30 1029 C 100.678 3.46629 -0.0700315 0
M  V30 1030 C 99.7388 4.14849 -1.10448 0
M  V30 1031 C 98.9718 5.31129 -0.523256 0
M  V30 1032 O 99.1948 5.66514 0.664709 0
M  V30 1033 O 98.1288 5.88526 -1.26179 0
M  V30 1034 H 101.955 2.59355 -1.58015 0
M  V30 1035 H 99.5398 1.24043 -0.832694 0
M  V30 1036 H 101.422 4.20543 0.268667 0
M  V30 1037 H 100.097 3.13573 0.803353 0
M  V30 1038 H 99.0038 3.42916 -1.49532 0
M  V30 1039 H 100.337 4.51954 -1.94931 0
M  V30 1040 N 101.989 0.842826 1.3317 0
M  V30 1041 C 102.919 0.294028 2.31641 0
M  V30 1042 C 103.9 -0.600401 1.59151 0
M  V30 1043 O 105.085 -0.523124 1.87022 0
M  V30 1044 C 102.215 -0.528416 3.43257 0
M  V30 1045 C 101.169 0.27056 4.27144 0
M  V30 1046 C 100.495 -0.675881 5.30411 0
M  V30 1047 C 101.795 1.48981 5.00602 0
M  V30 1048 H 103.489 1.11681 2.77791 0
M  V30 1049 H 101.035 0.538478 1.33553 0
M  V30 1050 H 102.988 -0.922674 4.11175 0
M  V30 1051 H 101.712 -1.38445 2.95805 0
M  V30 1052 H 100.371 0.646427 3.60856 0
M  V30 1053 H 100.019 -1.52842 4.79216 0
M  V30 1054 H 99.7189 -0.145374 5.8742 0
M  V30 1055 H 101.243 -1.06757 6.01195 0
M  V30 1056 H 102.657 1.16849 5.61266 0
M  V30 1057 H 101.054 1.95739 5.6728 0
M  V30 1058 H 102.124 2.25746 4.29147 0
M  V30 1059 N 103.467 -1.45747 0.599634 0
M  V30 1060 C 104.397 -2.33235 -0.111306 0
M  V30 1061 C 105.378 -1.46359 -0.866781 0
M  V30 1062 O 106.563 -1.75146 -0.838904 0
M  V30 1063 C 103.693 -3.28932 -1.11451 0
M  V30 1064 C 102.647 -4.25381 -0.472772 0
M  V30 1065 C 101.973 -5.1071 -1.58365 0
M  V30 1066 C 103.273 -5.18831 0.600948 0
M  V30 1067 H 104.967 -2.92927 0.61919 0
M  V30 1068 H 102.513 -1.40857 0.299215 0
M  V30 1069 H 104.466 -3.89002 -1.62036 0
M  V30 1070 H 103.19 -2.67381 -1.8755 0
M  V30 1071 H 101.849 -3.66598 0.0121472 0
M  V30 1072 H 101.497 -4.45533 -2.33473 0
M  V30 1073 H 101.197 -5.7604 -1.15982 0
M  V30 1074 H 102.721 -5.73647 -2.09194 0
M  V30 1075 H 104.135 -5.73019 0.179491 0
M  V30 1076 H 102.532 -5.92595 0.946076 0
M  V30 1077 H 103.602 -4.6174 1.48068 0
M  V30 1078 N 104.945 -0.338344 -1.53925 0
M  V30 1079 C 105.892 0.520845 -2.24846 0
M  V30 1080 C 106.862 1.09976 -1.24477 0
M  V30 1081 O 108.047 1.13735 -1.53196 0
M  V30 1082 C 105.187 1.6685 -3.02084 0
M  V30 1083 C 104.3 1.11739 -4.17299 0
M  V30 1084 C 103.435 2.23193 -4.82036 0
M  V30 1085 C 102.474 1.65407 -5.89328 0
M  V30 1086 N 101.611 2.70582 -6.47866 0
M  V30 1087 H 106.451 -0.0904881 -2.97863 0
M  V30 1088 H 103.988 -0.0564282 -1.46992 0
M  V30 1089 H 105.946 2.34407 -3.45122 0
M  V30 1090 H 104.576 2.2509 -2.31375 0
M  V30 1091 H 103.628 0.332919 -3.7894 0
M  V30 1092 H 104.94 0.654677 -4.94485 0
M  V30 1093 H 104.094 2.98626 -5.28117 0
M  V30 1094 H 102.833 2.72807 -4.04262 0
M  V30 1095 H 101.838 0.884779 -5.42634 0
M  V30 1096 H 103.063 1.16652 -6.69006 0
M  V30 1097 H 101.009 3.1946 -5.72959 0
M  V30 1098 H 100.926 2.28917 -7.20509 0
M  V30 1099 H 102.194 3.45799 -6.98601 0
M  V30 1100 N 106.423 1.57458 -0.0668435 0
M  V30 1101 C 107.669 1.93587 0.6043 0
M  V30 1102 C 108.002 0.946722 1.69561 0
M  V30 1103 O 107.277 -0.0248516 1.94484 0
M  V30 1104 C 107.56 3.40014 1.18585 0
M  V30 1105 C 107.413 4.49685 0.101529 0
M  V30 1106 C 108.732 3.87154 2.09284 0
M  V30 1107 H 105.851 0.703958 0.218202 0
M  V30 1108 H 108.493 1.89542 -0.131804 0
M  V30 1109 H 106.643 3.43592 1.81319 0
M  V30 1110 H 108.315 4.5823 -0.531279 0
M  V30 1111 H 106.558 4.30059 -0.568487 0
M  V30 1112 H 107.229 5.49266 0.54874 0
M  V30 1113 H 109.705 3.85551 1.56491 0
M  V30 1114 H 108.581 4.90231 2.46911 0
M  V30 1115 H 108.842 3.2481 2.99918 0
M  V30 1116 N 107.901 -0.206675 1.56239 0
M  V30 1117 C 108.831 -1.25909 1.96645 0
M  V30 1118 C 109.812 -1.48097 0.836734 0
M  V30 1119 O 110.997 -1.6003 1.10019 0
M  V30 1120 C 108.127 -2.6058 2.29599 0
M  V30 1121 C 107.081 -2.53024 3.452 0
M  V30 1122 C 106.407 -3.91861 3.63798 0
M  V30 1123 C 107.707 -2.06524 4.79734 0
M  V30 1124 H 109.401 -0.923369 2.84806 0
M  V30 1125 H 106.947 -0.442735 1.37025 0
M  V30 1126 H 108.9 -3.34375 2.56459 0
M  V30 1127 H 107.624 -2.95869 1.38307 0
M  V30 1128 H 106.283 -1.81684 3.18412 0
M  V30 1129 H 105.931 -4.24483 2.69857 0
M  V30 1130 H 105.631 -3.87683 4.4156 0
M  V30 1131 H 107.155 -4.67296 3.93022 0
M  V30 1132 H 108.569 -2.70072 5.05702 0
M  V30 1133 H 106.966 -2.13374 5.60885 0
M  V30 1134 H 108.036 -1.01802 4.74093 0
M  V30 1135 N 109.379 -1.50304 -0.473955 0
M  V30 1136 C 110.627 -1.60832 -1.22382 0
M  V30 1137 C 110.948 -0.30939 -1.9253 0
M  V30 1138 O 110.218 0.67296 -1.83978 0
M  V30 1139 H 108.798 -0.592652 -0.454723 0
M  V30 1140 H 111.46 -1.87068 -0.546968 0
M  V30 1141 H 110.556 -2.41803 -1.97327 0
M  V30 1142 N 110.857 0.726932 -1.39834 0
M  V30 1143 C 111.789 1.85147 -1.35104 0
M  V30 1144 C 112.802 1.60736 -0.258392 0
M  V30 1145 O 113.991 1.70821 -0.517931 0
M  V30 1146 C 111.091 3.21332 -1.07697 0
M  V30 1147 C 110.264 3.73033 -2.28396 0
M  V30 1148 C 109.323 4.87802 -1.97322 0
M  V30 1149 O 108.349 5.01043 -2.70083 0
M  V30 1150 N 109.551 5.72768 -0.944273 0
M  V30 1151 H 112.316 1.89706 -2.32017 0
M  V30 1152 H 109.877 0.908006 -1.3404 0
M  V30 1153 H 111.869 3.95691 -0.849144 0
M  V30 1154 H 110.439 3.11992 -0.194909 0
M  V30 1155 H 109.659 2.89934 -2.6708 0
M  V30 1156 H 110.947 4.0431 -3.08887 0
M  V30 1157 H 110.345 5.64669 -0.341427 0
M  V30 1158 H 108.902 6.4716 -0.776346 0
M  V30 1159 N 112.336 1.25143 0.95797 0
M  V30 1160 C 113.584 1.09476 1.69881 0
M  V30 1161 C 113.905 -0.365502 1.91544 0
M  V30 1162 O 113.175 -1.25985 1.50015 0
M  V30 1163 H 111.755 0.402128 0.629525 0
M  V30 1164 H 114.417 1.57214 1.15194 0
M  V30 1165 H 113.513 1.60046 2.6794 0
M  V30 1166 N 113.814 -1.1601 1.06675 0
M  V30 1167 C 115.039 -1.91068 0.806706 0
M  V30 1168 C 115.464 -1.77112 -0.633485 0
M  V30 1169 O 114.822 -1.09908 -1.44187 0
M  V30 1170 C 114.87 -3.39655 1.21106 0
M  V30 1171 O 113.974 -4.10893 0.352189 0
M  V30 1172 H 113.315 -0.595125 0.294486 0
M  V30 1173 H 115.845 -1.46955 1.42356 0
M  V30 1174 H 115.855 -3.90434 1.18428 0
M  V30 1175 H 114.53 -3.49132 2.26008 0
M  V30 1176 H 113.107 -3.70285 0.440868 0
M  V30 1177 N 115.292 -0.849877 -1.32721 0
M  V30 1178 C 116.539 -0.450923 -1.97416 0
M  V30 1179 C 116.867 0.992376 -1.67279 0
M  V30 1180 O 116.122 1.71048 -0.950845 0
M  V30 1181 C 116.421 -0.631272 -3.51781 0
M  V30 1182 C 116.087 -2.04432 -4.01894 0
M  V30 1183 C 114.749 -2.4308 -4.1529 0
M  V30 1184 C 117.101 -2.96679 -4.28522 0
M  V30 1185 C 114.429 -3.73257 -4.52654 0
M  V30 1186 C 116.781 -4.26349 -4.67343 0
M  V30 1187 C 115.445 -4.64939 -4.78945 0
M  V30 1188 H 114.715 -0.165004 -0.722395 0
M  V30 1189 H 117.362 -1.07901 -1.58207 0
M  V30 1190 H 115.667 0.0800767 -3.91718 0
M  V30 1191 H 117.364 -0.302709 -3.99856 0
M  V30 1192 H 113.954 -1.73419 -3.91949 0
M  V30 1193 H 118.138 -2.68054 -4.17685 0
M  V30 1194 H 113.394 -4.02946 -4.59831 0
M  V30 1195 H 117.568 -4.97895 -4.86902 0
M  V30 1196 H 115.195 -5.65855 -5.07654 0
M  V30 1197 N 116.77 1.45427 -0.607355 0
M  V30 1198 C 118.018 2.01841 -0.102253 0
M  V30 1199 C 118.339 1.47832 1.27164 0
M  V30 1200 O 117.609 0.672497 1.83995 0
M  V30 1201 H 116.189 0.746188 -0.0348101 0
M  V30 1202 H 118.851 1.78229 -0.7887 0
M  V30 1203 H 117.947 3.12057 -0.0518585 0
M  V30 1204 N 118.248 0.346503 1.53744 0
M  V30 1205 C 119.195 -0.508914 2.25119 0
M  V30 1206 C 120.165 -1.09315 1.25058 0
M  V30 1207 O 121.35 -1.12921 1.53797 0
M  V30 1208 C 118.49 -1.65246 3.02965 0
M  V30 1209 C 117.603 -1.09525 4.17886 0
M  V30 1210 C 116.738 -2.20634 4.83212 0
M  V30 1211 C 115.777 -1.62279 5.90196 0
M  V30 1212 N 114.914 -2.67143 6.49291 0
M  V30 1213 H 119.754 0.106283 2.9781 0
M  V30 1214 H 117.291 0.0642227 1.4696 0
M  V30 1215 H 119.249 -2.32574 3.4636 0
M  V30 1216 H 117.879 -2.2386 2.32565 0
M  V30 1217 H 116.931 -0.312818 3.79112 0
M  V30 1218 H 118.243 -0.628444 4.94825 0
M  V30 1219 H 117.397 -2.95821 5.29693 0
M  V30 1220 H 116.136 -2.70659 4.05703 0
M  V30 1221 H 115.141 -0.855989 5.43096 0
M  V30 1222 H 116.366 -1.13102 6.69615 0
M  V30 1223 H 114.312 -3.16417 5.74645 0
M  V30 1224 H 114.229 -2.25093 7.21713 0
M  V30 1225 H 115.497 -3.4209 7.00425 0
M  V30 1226 N 119.726 -1.57421 0.075193 0
M  V30 1227 C 120.972 -1.93905 -0.594025 0
M  V30 1228 C 121.305 -0.955701 -1.69056 0
M  V30 1229 O 120.58 0.0145373 -1.94495 0
M  V30 1230 C 120.863 -3.40638 -1.1678 0
M  V30 1231 C 120.716 -4.49733 -0.0776792 0
M  V30 1232 C 122.035 -3.88259 -2.07228 0
M  V30 1233 H 119.154 -0.705105 -0.214466 0
M  V30 1234 H 121.796 -1.8947 0.141854 0
M  V30 1235 H 119.946 -3.44549 -1.79494 0
M  V30 1236 H 121.618 -4.57942 0.555573 0
M  V30 1237 H 119.861 -4.29751 0.591286 0
M  V30 1238 H 120.532 -5.49549 -0.519603 0
M  V30 1239 H 123.008 -3.86376 -1.54445 0
M  V30 1240 H 121.884 -4.91533 -2.44308 0
M  V30 1241 H 122.145 -3.26396 -2.98191 0
M  V30 1242 N 121.204 0.198386 -1.56346 0
M  V30 1243 C 122.451 0.919286 -1.80431 0
M  V30 1244 C 122.779 1.83393 -0.647866 0
M  V30 1245 O 122.034 1.92236 0.366556 0
M  V30 1246 C 122.333 1.77031 -3.10475 0
M  V30 1247 C 121.999 1.00693 -4.39513 0
M  V30 1248 C 120.661 0.796145 -4.74568 0
M  V30 1249 C 123.013 0.469559 -5.19081 0
M  V30 1250 C 120.341 0.0364588 -5.86689 0
M  V30 1251 C 122.693 -0.2769 -6.31994 0
M  V30 1252 C 121.357 -0.49873 -6.65634 0
M  V30 1253 H 120.627 0.336391 -0.660244 0
M  V30 1254 H 123.274 0.185872 -1.90596 0
M  V30 1255 H 121.579 2.5723 -2.95533 0
M  V30 1256 H 123.276 2.33065 -3.26315 0
M  V30 1257 H 119.866 1.18122 -4.12001 0
M  V30 1258 H 124.05 0.619816 -4.92414 0
M  V30 1259 H 119.306 -0.145412 -6.11227 0
M  V30 1260 H 123.48 -0.700684 -6.92866 0
M  V30 1261 H 121.107 -1.0893 -7.52355 0
M  V30 1262 N 122.682 1.50554 0.465978 0
M  V30 1263 C 123.612 1.72722 1.57128 0
M  V30 1264 C 124.593 0.576294 1.6004 0
M  V30 1265 O 125.778 0.81598 1.76225 0
M  V30 1266 C 122.908 1.82605 2.95419 0
M  V30 1267 C 121.862 2.97835 3.07373 0
M  V30 1268 C 121.188 2.92867 4.47363 0
M  V30 1269 C 122.488 4.38265 2.84114 0
M  V30 1270 H 124.182 2.65267 1.38829 0
M  V30 1271 H 121.728 1.2765 0.666441 0
M  V30 1272 H 123.681 1.96698 3.72677 0
M  V30 1273 H 122.405 0.866858 3.14886 0
M  V30 1274 H 121.064 2.83401 2.3255 0
M  V30 1275 H 120.712 1.94783 4.63755 0
M  V30 1276 H 120.412 3.70227 4.56296 0
M  V30 1277 H 121.936 3.09015 5.26633 0
M  V30 1278 H 123.35 4.53198 3.51118 0
M  V30 1279 H 121.747 5.17115 3.04487 0
M  V30 1280 H 122.817 4.50281 1.7993 0
M  V30 1281 N 124.16 -0.719506 1.40217 0
M  V30 1282 C 125.406 -1.48152 1.38488 0
M  V30 1283 C 125.739 -1.94195 -0.0141867 0
M  V30 1284 O 125.014 -1.67884 -0.982096 0
M  V30 1285 C 125.297 -2.71035 2.37091 0
M  V30 1286 C 125.15 -2.30912 3.86005 0
M  V30 1287 C 126.469 -3.73182 2.33288 0
M  V30 1288 H 123.588 -0.537395 0.504357 0
M  V30 1289 H 126.23 -0.821472 1.71324 0
M  V30 1290 H 124.38 -3.27352 2.0922 0
M  V30 1291 H 126.052 -1.80107 4.24687 0
M  V30 1292 H 124.295 -1.62958 4.02029 0
M  V30 1293 H 124.966 -3.18978 4.50508 0
M  V30 1294 H 127.442 -3.26485 2.57966 0
M  V30 1295 H 126.318 -4.56806 3.04334 0
M  V30 1296 H 126.579 -4.21202 1.34317 0
M  V30 1297 N 125.638 -1.25649 -0.95132 0
M  V30 1298 C 126.585 -1.06323 -2.04851 0
M  V30 1299 C 127.555 0.0286491 -1.66075 0
M  V30 1300 O 128.74 -0.12917 -1.90362 0
M  V30 1301 C 125.88 -0.691529 -3.381 0
M  V30 1302 C 124.993 -1.85861 -3.89974 0
M  V30 1303 C 124.128 -1.43096 -5.11563 0
M  V30 1304 C 123.167 -2.56696 -5.55674 0
M  V30 1305 N 122.304 -2.14684 -6.68472 0
M  V30 1306 H 127.144 -2.00222 -2.20715 0
M  V30 1307 H 124.681 -0.997027 -1.08156 0
M  V30 1308 H 126.639 -0.456963 -4.1469 0
M  V30 1309 H 125.269 0.210474 -3.22113 0
M  V30 1310 H 124.321 -2.20639 -3.09875 0
M  V30 1311 H 125.633 -2.71161 -4.18657 0
M  V30 1312 H 124.787 -1.15624 -5.9558 0
M  V30 1313 H 123.526 -0.548722 -4.84603 0
M  V30 1314 H 122.531 -2.84909 -4.7022 0
M  V30 1315 H 123.756 -3.45503 -5.8464 0
M  V30 1316 H 121.702 -1.28881 -6.43215 0
M  V30 1317 H 121.619 -2.9353 -6.96689 0
M  V30 1318 H 122.887 -1.90397 -7.5589 0
M  V30 1319 N 127.117 1.15442 -1.07289 0
M  V30 1320 C 128.064 2.20161 -0.692653 0
M  V30 1321 C 129.034 1.63073 0.31564 0
M  V30 1322 O 130.219 1.89725 0.202235 0
M  V30 1323 C 127.359 3.44967 -0.0959509 0
M  V30 1324 C 126.472 4.16256 -1.15564 0
M  V30 1325 C 125.607 5.28609 -0.524011 0
M  V30 1326 C 124.646 5.91715 -1.56653 0
M  V30 1327 N 123.783 6.9554 -0.957531 0
M  V30 1328 H 128.623 2.52037 -1.59002 0
M  V30 1329 H 126.16 1.2378 -0.794798 0
M  V30 1330 H 128.118 4.16341 0.267628 0
M  V30 1331 H 126.748 3.1361 0.764772 0
M  V30 1332 H 125.8 3.43385 -1.6368 0
M  V30 1333 H 127.112 4.59268 -1.94613 0
M  V30 1334 H 126.266 6.06604 -0.108032 0
M  V30 1335 H 125.005 4.86787 0.29825 0
M  V30 1336 H 124.01 5.12433 -1.9923 0
M  V30 1337 H 125.235 6.35614 -2.39107 0
M  V30 1338 H 123.181 6.55814 -0.156162 0
M  V30 1339 H 123.098 7.36977 -1.68526 0
M  V30 1340 H 124.366 7.77435 -0.567032 0
M  V30 1341 N 128.595 0.856903 1.32268 0
M  V30 1342 C 129.844 0.457599 1.96441 0
M  V30 1343 C 130.157 -0.992426 1.68553 0
M  V30 1344 O 131.363 -1.49727 2.26482 0
M  V30 1345 C 129.819 0.767358 3.51624 0
M  V30 1346 C 129.427 2.23326 3.88367 0
M  V30 1347 C 131.171 0.435887 4.22256 0
M  V30 1348 C 129.078 2.48613 5.36606 0
M  V30 1349 H 128.008 0.167387 0.735185 0
M  V30 1350 H 130.659 1.048 1.5063 0
M  V30 1351 H 129.041 0.106367 3.95857 0
M  V30 1352 H 130.215 2.93623 3.55137 0
M  V30 1353 H 128.53 2.52948 3.30766 0
M  V30 1354 H 131.127 0.602202 5.31298 0
M  V30 1355 H 131.47 -0.622672 4.11617 0
M  V30 1356 H 132.003 1.05286 3.83614 0
M  V30 1357 H 128.742 3.53101 5.52268 0
M  V30 1358 H 128.262 1.82896 5.71235 0
M  V30 1359 H 129.941 2.32676 6.03714 0
M  V30 1360 N 130.073 -1.45103 0.615059 0
M  V30 1361 C 131.298 -2.07064 0.117988 0
M  V30 1362 C 131.723 -1.4554 -1.19163 0
M  V30 1363 O 131.081 -0.550855 -1.72729 0
M  V30 1364 C 131.129 -3.606 -0.000288387 0
M  V30 1365 O 130.233 -3.98847 -1.04856 0
M  V30 1366 H 129.574 -0.659467 0.0774581 0
M  V30 1367 H 132.104 -1.86236 0.847186 0
M  V30 1368 H 132.114 -4.07529 -0.196091 0
M  V30 1369 H 130.789 -4.04765 0.955932 0
M  V30 1370 H 129.366 -3.63577 -0.828619 0
M  V30 1371 N 131.551 -0.354651 -1.53558 0
M  V30 1372 C 132.799 0.237972 -2.00694 0
M  V30 1373 C 133.12 1.50173 -1.24391 0
M  V30 1374 O 132.39 1.92673 -0.354135 0
M  V30 1375 H 130.97 0.0909256 -0.741446 0
M  V30 1376 H 133.632 -0.478368 -1.88938 0
M  V30 1377 H 132.728 0.47264 -3.085 0
M  V30 1378 N 133.029 1.57378 -0.0835403 0
M  V30 1379 C 134.254 1.98682 0.594987 0
M  V30 1380 C 134.679 0.961969 1.61641 0
M  V30 1381 O 134.037 -0.0709989 1.81161 0
M  V30 1382 C 134.085 3.38988 1.2296 0
M  V30 1383 O 133.189 3.39208 2.34546 0
M  V30 1384 H 132.53 0.646368 0.152002 0
M  V30 1385 H 135.06 2.03961 -0.161533 0
M  V30 1386 H 135.07 3.76431 1.57366 0
M  V30 1387 H 133.745 4.13107 0.481228 0
M  V30 1388 H 132.322 3.13548 2.01846 0
M  V30 1389 N 134.507 -0.190092 1.56449 0
M  V30 1390 C 135.784 -0.935886 1.71757 0
M  V30 1391 C 136.164 -2.01173 0.639726 0
M  V30 1392 O 135.512 -2.25827 -0.348502 0
M  V30 1393 C 135.722 -1.51775 3.1427 0
M  V30 1394 C 137.07 -1.99794 3.74656 0
M  V30 1395 O 138.094 -1.61607 3.1743 0
M  V30 1396 O 136.953 -2.70079 4.751 0
M  V30 1397 H 134.047 -0.439229 0.700719 0
M  V30 1398 H 136.593 -0.179395 1.68749 0
M  V30 1399 H 135.365 -0.742505 3.84191 0
M  V30 1400 H 134.988 -2.33894 3.21527 0
M  V30 1401 N 135.985 -1.50799 -0.457987 0
M  V30 1402 C 136.948 -1.7005 -1.53674 0
M  V30 1403 C 137.948 -0.570881 -1.50325 0
M  V30 1404 O 139.138 -0.838126 -1.52712 0
M  V30 1405 C 136.27 -1.73788 -2.93276 0
M  V30 1406 H 137.463 -2.66306 -1.37917 0
M  V30 1407 H 135.016 -1.40477 -0.685271 0
M  V30 1408 H 135.751 -0.792717 -3.14462 0
M  V30 1409 H 135.536 -2.55864 -2.97113 0
M  V30 1410 H 137.026 -1.90591 -3.71571 0
M  V30 1411 N 137.463 0.71206 -1.40597 0
M  V30 1412 C 138.879 1.02058 -1.22704 0
M  V30 1413 C 139.079 2.01228 -0.104729 0
M  V30 1414 O 138.135 2.4674 0.53624 0
M  V30 1415 C 139.448 1.56094 -2.57012 0
M  V30 1416 C 140.996 1.6806 -2.64054 0
M  V30 1417 C 141.471 2.25501 -3.9864 0
M  V30 1418 N 142.962 2.32882 -4.004 0
M  V30 1419 C 143.697 2.78317 -5.01325 0
M  V30 1420 N 143.193 3.23478 -6.12645 0
M  V30 1421 N 144.986 2.77733 -4.88693 0
M  V30 1422 H 137.137 0.0547896 -2.12329 0
M  V30 1423 H 139.4 0.0869027 -0.944008 0
M  V30 1424 H 139.106 0.906865 -3.39807 0
M  V30 1425 H 138.98 2.54564 -2.78347 0
M  V30 1426 H 141.367 2.32583 -1.81629 0
M  V30 1427 H 141.448 0.681802 -2.46546 0
M  V30 1428 H 141.092 1.61598 -4.81506 0
M  V30 1429 H 141.022 3.26102 -4.13479 0
M  V30 1430 H 143.513 2.00991 -3.20017 0
M  V30 1431 H 143.826 3.56725 -6.85542 0
M  V30 1432 H 142.171 3.21429 -6.16205 0
M  V30 1433 H 145.362 2.4179 -4.00818 0
M  V30 1434 H 145.535 3.12826 -5.67489 0
M  V30 1435 N 138.941 1.26152 0.944643 0
M  V30 1436 C 139.873 1.03199 2.04652 0
M  V30 1437 C 140.886 -0.00642356 1.62799 0
M  V30 1438 O 142.075 0.233263 1.76969 0
M  V30 1439 C 139.175 0.540111 3.34568 0
M  V30 1440 C 138.348 1.64697 4.05208 0
M  V30 1441 C 137.407 1.15374 5.13396 0
M  V30 1442 O 136.433 1.85013 5.38293 0
M  V30 1443 N 137.635 0.00031529 5.805 0
M  V30 1444 H 140.4 1.9808 2.2491 0
M  V30 1445 H 137.961 1.17491 1.11389 0
M  V30 1446 H 139.953 0.194401 4.04233 0
M  V30 1447 H 138.523 -0.315021 3.11009 0
M  V30 1448 H 137.743 2.16379 3.29506 0
M  V30 1449 H 139.031 2.3903 4.49157 0
M  V30 1450 H 138.429 -0.581336 5.62705 0
M  V30 1451 H 136.986 -0.286346 6.51171 0
M  V30 1452 N 140.419 -1.14872 1.07899 0
M  V30 1453 C 141.349 -2.2193 0.725887 0
M  V30 1454 C 142.33 -1.67622 -0.28927 0
M  V30 1455 O 143.515 -1.93533 -0.160787 0
M  V30 1456 C 140.645 -3.47061 0.128856 0
M  V30 1457 C 139.599 -4.14363 1.07178 0
M  V30 1458 C 138.925 -5.33636 0.337229 0
M  V30 1459 C 140.225 -4.63492 2.40775 0
M  V30 1460 H 141.919 -2.51724 1.62097 0
M  V30 1461 H 139.465 -1.20991 0.780838 0
M  V30 1462 H 141.418 -4.21199 -0.130147 0
M  V30 1463 H 140.142 -3.16617 -0.80134 0
M  V30 1464 H 138.801 -3.42173 1.3158 0
M  V30 1465 H 138.449 -4.99449 -0.596606 0
M  V30 1466 H 138.149 -5.79609 0.965788 0
M  V30 1467 H 139.673 -6.10539 0.0861567 0
M  V30 1468 H 141.087 -5.2913 2.20669 0
M  V30 1469 H 139.484 -5.20148 2.99276 0
M  V30 1470 H 140.554 -3.78834 3.02676 0
M  V30 1471 N 141.898 -0.863906 -1.31812 0
M  V30 1472 C 143.128 -0.485406 -2.00817 0
M  V30 1473 C 143.536 0.925007 -1.65046 0
M  V30 1474 O 142.879 1.61653 -0.872574 0
M  V30 1475 C 142.941 -0.555589 -3.55181 0
M  V30 1476 C 142.605 -1.92654 -4.14407 0
M  V30 1477 C 143.602 -2.89324 -4.31958 0
M  V30 1478 C 141.287 -2.2262 -4.50273 0
M  V30 1479 C 143.281 -4.14108 -4.84555 0
M  V30 1480 C 140.968 -3.47654 -5.02573 0
M  V30 1481 C 141.966 -4.43214 -5.19664 0
M  V30 1482 O 141.654 -5.66033 -5.70843 0
M  V30 1483 H 141.386 -0.188224 -0.649267 0
M  V30 1484 H 143.94 -1.16514 -1.69156 0
M  V30 1485 H 142.17 0.181037 -3.86276 0
M  V30 1486 H 143.859 -0.19138 -4.05449 0
M  V30 1487 H 144.625 -2.6748 -4.04573 0
M  V30 1488 H 140.504 -1.4902 -4.3625 0
M  V30 1489 H 144.048 -4.88703 -4.9781 0
M  V30 1490 H 139.945 -3.69345 -5.29391 0
M  V30 1491 H 140.713 -5.6812 -5.89222 0
M  V30 1492 N 143.376 1.44774 -0.622745 0
M  V30 1493 C 144.339 2.29069 0.0774015 0
M  V30 1494 C 145.339 1.4059 0.780461 0
M  V30 1495 O 146.529 1.62551 0.626322 0
M  V30 1496 C 143.661 3.21974 1.12006 0
M  V30 1497 H 144.854 2.92459 -0.663901 0
M  V30 1498 H 142.407 1.51548 -0.382486 0
M  V30 1499 H 143.142 2.63417 1.89162 0
M  V30 1500 H 142.927 3.87168 0.619951 0
M  V30 1501 H 144.417 3.85318 1.60995 0
M  V30 1502 N 144.854 0.36279 1.53368 0
M  V30 1503 C 145.787 -0.528507 2.21996 0
M  V30 1504 C 146.765 -1.0852 1.21087 0
M  V30 1505 O 147.949 -1.14186 1.4998 0
M  V30 1506 C 145.076 -1.72893 2.91249 0
M  V30 1507 C 144.122 -1.29994 4.06207 0
M  V30 1508 S 144.955 -0.303575 5.34639 0
M  V30 1509 C 146.111 -1.51039 6.07403 0
M  V30 1510 H 146.344 0.0543423 2.9725 0
M  V30 1511 H 143.877 0.146889 1.537 0
M  V30 1512 H 145.835 -2.41751 3.31763 0
M  V30 1513 H 144.496 -2.28303 2.15724 0
M  V30 1514 H 143.689 -2.19549 4.53667 0
M  V30 1515 H 143.291 -0.690608 3.67569 0
M  V30 1516 H 145.583 -2.44186 6.31965 0
M  V30 1517 H 146.526 -1.07721 6.99858 0
M  V30 1518 H 146.934 -1.71518 5.37812 0
M  V30 1519 N 146.332 -1.57332 0.0918853 0
M  V30 1520 C 147.279 -2.13847 -0.868211 0
M  V30 1521 C 148.249 -1.05618 -1.28196 0
M  V30 1522 O 149.434 -1.33387 -1.36427 0
M  V30 1523 C 146.574 -2.72062 -2.12312 0
M  V30 1524 C 145.687 -3.94514 -1.7602 0
M  V30 1525 C 144.822 -4.40903 -2.96273 0
M  V30 1526 C 143.861 -5.55953 -2.56092 0
M  V30 1527 N 142.998 -5.97209 -3.69169 0
M  V30 1528 H 147.838 -2.95575 -0.379406 0
M  V30 1529 H 145.375 -1.46048 -0.175606 0
M  V30 1530 H 147.333 -3.03931 -2.858 0
M  V30 1531 H 145.963 -1.93068 -2.58698 0
M  V30 1532 H 145.015 -3.68979 -0.925135 0
M  V30 1533 H 146.327 -4.7802 -1.42472 0
M  V30 1534 H 145.481 -4.74539 -3.78018 0
M  V30 1535 H 144.22 -3.56291 -3.33029 0
M  V30 1536 H 143.225 -5.21948 -1.72773 0
M  V30 1537 H 144.45 -6.42311 -2.20484 0
M  V30 1538 H 142.396 -5.15543 -4.05649 0
M  V30 1539 H 142.313 -6.75504 -3.39456 0
M  V30 1540 H 143.581 -6.35475 -4.51434 0
M  V30 1541 N 147.81 0.181792 -1.56548 0
M  V30 1542 C 149.056 0.901431 -1.81665 0
M  V30 1543 C 149.389 1.82347 -0.668075 0
M  V30 1544 O 148.664 1.91669 0.330615 0
M  V30 1545 C 148.947 1.70618 -3.17115 0
M  V30 1546 C 148.8 0.807964 -4.42484 0
M  V30 1547 C 150.119 2.67605 -3.49393 0
M  V30 1548 H 147.238 0.32627 -0.660846 0
M  V30 1549 H 149.88 0.168134 -1.89255 0
M  V30 1550 H 148.03 2.33133 -3.10775 0
M  V30 1551 H 149.702 0.19649 -4.60881 0
M  V30 1552 H 147.945 0.115411 -4.33646 0
M  V30 1553 H 148.616 1.40632 -5.33785 0
M  V30 1554 H 151.092 2.15218 -3.56118 0
M  V30 1555 H 149.968 3.20985 -4.45264 0
M  V30 1556 H 150.229 3.47298 -2.73563 0
M  V30 1557 N 149.288 1.51039 0.449983 0
M  V30 1558 C 150.218 1.74379 1.55288 0
M  V30 1559 C 151.199 0.593236 1.5942 0
M  V30 1560 O 152.384 0.834625 1.7535 0
M  V30 1561 C 149.514 1.85728 2.93466 0
M  V30 1562 C 148.468 3.01078 3.04197 0
M  V30 1563 C 147.794 2.97595 4.44231 0
M  V30 1564 C 149.094 4.41254 2.7945 0
M  V30 1565 H 150.788 2.66725 1.36008 0
M  V30 1566 H 148.334 1.2835 0.652864 0
M  V30 1567 H 150.287 2.0064 3.70569 0
M  V30 1568 H 149.011 0.900207 3.13949 0
M  V30 1569 H 147.67 2.85851 2.29531 0
M  V30 1570 H 147.318 1.99691 4.61663 0
M  V30 1571 H 147.018 3.75046 4.52343 0
M  V30 1572 H 148.542 3.14583 5.23326 0
M  V30 1573 H 149.956 4.56897 3.46292 0
M  V30 1574 H 148.353 5.20315 2.98985 0
M  V30 1575 H 149.423 4.52164 1.75144 0
M  V30 1576 N 150.766 -0.704594 1.40972 0
M  V30 1577 C 151.713 -1.81862 1.42109 0
M  V30 1578 C 152.683 -1.63781 0.276593 0
M  V30 1579 O 153.868 -1.84759 0.4763 0
M  V30 1580 C 151.008 -3.19669 1.30022 0
M  V30 1581 C 150.121 -3.49246 2.54267 0
M  V30 1582 C 149.256 -4.76618 2.3454 0
M  V30 1583 C 148.295 -4.99133 3.54306 0
M  V30 1584 N 147.432 -6.17726 3.33706 0
M  V30 1585 H 152.272 -1.80226 2.37324 0
M  V30 1586 H 149.809 -0.880238 1.17857 0
M  V30 1587 H 151.767 -3.99263 1.21018 0
M  V30 1588 H 150.397 -3.20506 0.384192 0
M  V30 1589 H 149.449 -2.64125 2.73756 0
M  V30 1590 H 150.761 -3.61788 3.43381 0
M  V30 1591 H 149.915 -5.64249 2.22952 0
M  V30 1592 H 148.654 -4.66305 1.42867 0
M  V30 1593 H 147.659 -4.09953 3.66359 0
M  V30 1594 H 148.884 -5.11311 4.4692 0
M  V30 1595 H 146.83 -6.08642 2.44725 0
M  V30 1596 H 146.747 -6.30995 4.16391 0
M  V30 1597 H 148.015 -7.08115 3.25873 0
M  V30 1598 N 152.244 -1.26651 -0.937939 0
M  V30 1599 C 153.191 -1.0849 -2.03712 0
M  V30 1600 C 154.161 0.011033 -1.66096 0
M  V30 1601 O 155.346 -0.149353 -1.90215 0
M  V30 1602 C 152.486 -0.72735 -3.37348 0
M  V30 1603 C 151.599 -1.89986 -3.87981 0
M  V30 1604 C 150.734 -1.48513 -5.10017 0
M  V30 1605 C 149.773 -2.62575 -5.5292 0
M  V30 1606 N 148.91 -2.21762 -6.66158 0
M  V30 1607 H 153.75 -2.02551 -2.18579 0
M  V30 1608 H 151.287 -1.00844 -1.07093 0
M  V30 1609 H 153.245 -0.50092 -4.14182 0
M  V30 1610 H 151.875 0.176298 -3.22318 0
M  V30 1611 H 150.927 -2.23913 -3.07518 0
M  V30 1612 H 152.239 -2.75586 -4.15757 0
M  V30 1613 H 151.393 -1.21934 -5.94321 0
M  V30 1614 H 150.132 -0.60009 -4.83994 0
M  V30 1615 H 149.137 -2.8988 -4.67172 0
M  V30 1616 H 150.362 -3.51685 -5.80943 0
M  V30 1617 H 148.308 -1.35696 -6.41812 0
M  V30 1618 H 148.225 -3.00903 -6.93537 0
M  V30 1619 H 149.493 -1.98403 -7.53828 0
M  V30 1620 N 153.722 1.14298 -1.08507 0
M  V30 1621 C 154.685 2.17607 -0.719711 0
M  V30 1622 C 155.685 1.58907 0.245997 0
M  V30 1623 O 156.875 1.74181 0.0254081 0
M  V30 1624 C 154.007 3.40842 -0.0627695 0
M  V30 1625 H 155.2 2.51443 -1.63452 0
M  V30 1626 H 152.753 1.28963 -0.88307 0
M  V30 1627 H 153.488 3.12587 0.863716 0
M  V30 1628 H 153.273 3.84713 -0.757504 0
M  V30 1629 H 154.763 4.17221 0.177786 0
M  V30 1630 N 155.201 0.870884 1.31352 0
M  V30 1631 C 156.429 0.49677 2.00848 0
M  V30 1632 C 156.844 -0.910998 1.65367 0
M  V30 1633 O 156.201 -1.59696 0.883374 0
M  V30 1634 C 156.252 0.645308 3.55694 0
M  V30 1635 O 155.973 1.99764 3.89905 0
M  V30 1636 C 157.474 0.272326 4.42463 0
M  V30 1637 H 154.694 0.193462 0.642506 0
M  V30 1638 H 157.238 1.1723 1.67563 0
M  V30 1639 H 155.393 0.0173176 3.87396 0
M  V30 1640 H 155.807 2.00607 4.84621 0
M  V30 1641 H 157.281 0.427208 5.50344 0
M  V30 1642 H 157.758 -0.788587 4.32062 0
M  V30 1643 H 158.364 0.876054 4.1618 0
M  V30 1644 N 156.679 -1.44442 0.630414 0
M  V30 1645 C 157.609 -2.33418 -0.0618083 0
M  V30 1646 C 158.59 -1.48165 -0.835541 0
M  V30 1647 O 159.775 -1.76886 -0.801564 0
M  V30 1648 C 156.905 -3.31222 -1.04449 0
M  V30 1649 C 155.859 -4.26288 -0.382436 0
M  V30 1650 C 155.185 -5.13954 -1.47497 0
M  V30 1651 C 156.485 -5.1744 0.710865 0
M  V30 1652 H 158.179 -2.91548 0.681184 0
M  V30 1653 H 155.725 -1.40191 0.329026 0
M  V30 1654 H 157.678 -3.92351 -1.53748 0
M  V30 1655 H 156.402 -2.71299 -1.81836 0
M  V30 1656 H 155.061 -3.6649 0.0899054 0
M  V30 1657 H 154.709 -4.50385 -2.2397 0
M  V30 1658 H 154.409 -5.7837 -1.03737 0
M  V30 1659 H 155.933 -5.77955 -1.96979 0
M  V30 1660 H 157.347 -5.72509 0.300996 0
M  V30 1661 H 155.744 -5.90455 1.07156 0
M  V30 1662 H 156.814 -4.58496 1.57829 0
M  V30 1663 N 158.157 -0.370918 -1.53173 0
M  V30 1664 C 159.104 0.473035 -2.259 0
M  V30 1665 C 160.074 1.07311 -1.26781 0
M  V30 1666 O 161.259 1.1046 -1.55574 0
M  V30 1667 C 158.399 1.60405 -3.05556 0
M  V30 1668 C 157.512 1.02863 -4.19575 0
M  V30 1669 C 156.647 2.12918 -4.86661 0
M  V30 1670 C 155.686 1.52869 -5.92704 0
M  V30 1671 N 154.823 2.56779 -6.53459 0
M  V30 1672 H 159.663 -0.153649 -2.97604 0
M  V30 1673 H 157.2 -0.0875946 -1.46839 0
M  V30 1674 H 159.158 2.27034 -3.50016 0
M  V30 1675 H 157.788 2.20131 -2.36097 0
M  V30 1676 H 156.84 0.252465 -3.79561 0
M  V30 1677 H 158.152 0.549642 -4.95762 0
M  V30 1678 H 157.306 2.87356 -5.34333 0
M  V30 1679 H 156.045 2.6417 -4.09958 0
M  V30 1680 H 155.05 0.769479 -5.44389 0
M  V30 1681 H 156.275 1.02435 -6.7133 0
M  V30 1682 H 154.221 3.07235 -5.79606 0
M  V30 1683 H 154.138 2.13583 -7.25202 0
M  V30 1684 H 155.406 3.30903 -7.05779 0
M  V30 1685 N 159.635 1.57281 -0.100228 0
M  V30 1686 C 160.881 1.94826 0.563101 0
M  V30 1687 C 161.214 0.982475 1.67514 0
M  V30 1688 O 160.489 0.0164069 1.94493 0
M  V30 1689 C 160.772 3.42453 1.11346 0
M  V30 1690 C 160.625 4.498 0.00612081 0
M  V30 1691 C 161.944 3.91506 2.01024 0
M  V30 1692 H 159.063 0.708428 0.203221 0
M  V30 1693 H 161.705 1.8922 -0.171979 0
M  V30 1694 H 159.855 3.47361 1.7399 0
M  V30 1695 H 161.527 4.57 -0.628357 0
M  V30 1696 H 159.77 4.28756 -0.659581 0
M  V30 1697 H 160.441 5.50306 0.432109 0
M  V30 1698 H 162.917 3.88784 1.48278 0
M  V30 1699 H 161.793 4.95358 2.36457 0
M  V30 1700 H 162.054 3.31099 2.92961 0
M  V30 1701 N 161.113 -0.173488 1.56642 0
M  V30 1702 C 162.529 -0.525174 1.50712 0
M  V30 1703 C 162.729 -1.8476 0.804107 0
M  V30 1704 O 161.785 -2.49869 0.363574 0
M  V30 1705 C 163.098 -0.559937 2.95441 0
M  V30 1706 C 164.646 -0.647288 3.06234 0
M  V30 1707 C 165.121 -0.712963 4.52417 0
M  V30 1708 N 166.612 -0.775911 4.56655 0
M  V30 1709 C 167.347 -0.847264 5.67106 0
M  V30 1710 N 166.843 -0.879585 6.87194 0
M  V30 1711 N 168.636 -0.886117 5.55071 0
M  V30 1712 H 160.787 0.693681 2.00753 0
M  V30 1713 H 163.05 0.249841 0.914485 0
M  V30 1714 H 162.756 0.343049 3.50023 0
M  V30 1715 H 162.63 -1.40718 3.49969 0
M  V30 1716 H 165.017 -1.5407 2.51687 0
M  V30 1717 H 165.098 0.226586 2.54794 0
M  V30 1718 H 164.742 0.176183 5.07594 0
M  V30 1719 H 164.672 -1.60295 5.0161 0
M  V30 1720 H 167.163 -0.759304 3.70193 0
M  V30 1721 H 167.476 -0.935144 7.67121 0
M  V30 1722 H 165.821 -0.847898 6.89808 0
M  V30 1723 H 169.012 -0.857853 4.60172 0
M  V30 1724 H 169.185 -0.938263 6.41171 0
M  V30 1725 N 162.591 -1.51276 -0.441967 0
M  V30 1726 C 163.868 -1.54252 -1.20273 0
M  V30 1727 C 164.248 -0.30408 -2.08898 0
M  V30 1728 O 163.596 0.711084 -2.17154 0
M  V30 1729 C 163.806 -2.85406 -2.00859 0
M  V30 1730 C 165.154 -3.37181 -2.58059 0
M  V30 1731 O 166.178 -2.86925 -2.11074 0
M  V30 1732 O 165.037 -4.24858 -3.43741 0
M  V30 1733 H 162.131 -0.619969 -0.547328 0
M  V30 1734 H 164.677 -1.63586 -0.451413 0
M  V30 1735 H 163.449 -3.67003 -1.35736 0
M  V30 1736 H 163.072 -2.79213 -2.83065 0
M  V30 1737 N 164.069 0.697108 -1.41344 0
M  V30 1738 C 165.485 1.00751 -1.2378 0
M  V30 1739 C 165.685 2.01105 -0.126066 0
M  V30 1740 O 164.741 2.47295 0.51004 0
M  V30 1741 C 166.054 1.53359 -2.58653 0
M  V30 1742 C 167.602 1.6525 -2.65822 0
M  V30 1743 C 168.077 2.2126 -4.01009 0
M  V30 1744 N 169.568 2.28622 -4.02847 0
M  V30 1745 C 170.303 2.72984 -5.04249 0
M  V30 1746 N 169.799 3.16962 -6.16041 0
M  V30 1747 N 171.592 2.72534 -4.91611 0
M  V30 1748 H 163.743 0.0322662 -2.12375 0
M  V30 1749 H 166.006 0.0768853 -0.944877 0
M  V30 1750 H 165.712 0.870773 -3.4075 0
M  V30 1751 H 165.586 2.51597 -2.81032 0
M  V30 1752 H 167.973 2.30644 -1.84086 0
M  V30 1753 H 168.054 0.655614 -2.47256 0
M  V30 1754 H 167.698 1.56482 -4.83193 0
M  V30 1755 H 167.628 3.21698 -4.16915 0
M  V30 1756 H 170.119 1.97585 -3.22131 0
M  V30 1757 H 170.432 3.49434 -6.89287 0
M  V30 1758 H 168.777 3.14875 -6.1958 0
M  V30 1759 H 171.968 2.37525 -4.0336 0
M  V30 1760 H 172.141 3.06789 -5.70775 0
M  V30 1761 N 165.547 1.27147 0.931209 0
M  V30 1762 C 166.793 1.13446 1.68101 0
M  V30 1763 C 167.126 -0.319628 1.91552 0
M  V30 1764 O 166.401 -1.23407 1.50336 0
M  V30 1765 C 166.684 1.91482 3.0497 0
M  V30 1766 C 166.537 3.44855 2.88782 0
M  V30 1767 C 167.856 1.71651 4.05246 0
M  V30 1768 H 164.975 0.413498 0.610072 0
M  V30 1769 H 167.617 1.56261 1.08086 0
M  V30 1770 H 165.767 1.55095 3.56199 0
M  V30 1771 H 167.439 3.9105 2.44698 0
M  V30 1772 H 165.682 3.71373 2.24198 0
M  V30 1773 H 166.353 3.94694 3.85902 0
M  V30 1774 H 168.829 2.0337 3.63015 0
M  V30 1775 H 167.705 2.28651 4.99009 0
M  V30 1776 H 167.966 0.663555 4.37092 0
M  V30 1777 N 167.025 -1.13721 1.09112 0
M  V30 1778 C 168.441 -1.36914 0.820174 0
M  V30 1779 C 168.641 -1.93356 -0.567079 0
M  V30 1780 O 167.697 -2.15093 -1.32255 0
M  V30 1781 C 169.01 -2.3235 1.90877 0
M  V30 1782 C 170.558 -2.45973 1.93562 0
M  V30 1783 C 171.033 -3.44714 3.01556 0
M  V30 1784 N 172.524 -3.52263 3.00775 0
M  V30 1785 C 173.259 -4.28536 3.80978 0
M  V30 1786 N 172.755 -5.07991 4.71081 0
M  V30 1787 N 174.548 -4.23804 3.69251 0
M  V30 1788 H 166.699 -0.754348 1.98553 0
M  V30 1789 H 168.962 -0.3944 0.862063 0
M  V30 1790 H 168.668 -1.98027 2.90651 0
M  V30 1791 H 168.542 -3.32332 1.78424 0
M  V30 1792 H 170.929 -2.79584 0.944286 0
M  V30 1793 H 171.01 -1.45926 2.10093 0
M  V30 1794 H 170.654 -3.11835 4.00901 0
M  V30 1795 H 170.584 -4.44558 2.82269 0
M  V30 1796 H 173.075 -2.95567 2.35475 0
M  V30 1797 H 173.388 -5.63487 5.28869 0
M  V30 1798 H 171.733 -5.07235 4.75119 0
M  V30 1799 H 174.924 -3.60806 2.98222 0
M  V30 1800 H 175.097 -4.82995 4.31995 0
M  V30 1801 N 168.503 -0.877838 -1.30888 0
M  V30 1802 C 169.731 -0.507414 -2.00581 0
M  V30 1803 C 170.146 0.902216 -1.65848 0
M  V30 1804 O 169.503 1.59225 -0.891831 0
M  V30 1805 C 169.554 -0.664162 -3.55347 0
M  V30 1806 O 169.275 -2.01829 -3.8884 0
M  V30 1807 C 170.776 -0.295787 -4.42312 0
M  V30 1808 H 167.996 -0.196866 -0.641471 0
M  V30 1809 H 170.54 -1.18117 -1.66939 0
M  V30 1810 H 168.695 -0.0378619 -3.87381 0
M  V30 1811 H 169.109 -2.03174 -4.8355 0
M  V30 1812 H 170.583 -0.456388 -5.5011 0
M  V30 1813 H 171.06 0.765663 -4.32475 0
M  V30 1814 H 171.666 -0.898113 -4.15709 0
M  V30 1815 N 169.982 1.44106 -0.638065 0
M  V30 1816 C 170.929 2.30715 0.062701 0
M  V30 1817 C 171.899 1.43882 0.829883 0
M  V30 1818 O 173.084 1.72775 0.809532 0
M  V30 1819 C 170.224 3.29258 1.03358 0
M  V30 1820 C 169.337 4.31192 0.26409 0
M  V30 1821 C 168.472 5.16825 1.22741 0
M  V30 1822 C 167.511 6.10462 0.447475 0
M  V30 1823 N 166.648 6.8877 1.36161 0
M  V30 1824 H 171.488 2.90096 -0.681781 0
M  V30 1825 H 169.025 1.42925 -0.347988 0
M  V30 1826 H 170.983 3.84886 1.60992 0
M  V30 1827 H 169.613 2.71562 1.74511 0
M  V30 1828 H 168.665 3.77981 -0.428295 0
M  V30 1829 H 169.977 4.97619 -0.343052 0
M  V30 1830 H 169.131 5.77004 1.87487 0
M  V30 1831 H 167.87 4.50488 1.86847 0
M  V30 1832 H 166.875 5.49386 -0.213433 0
M  V30 1833 H 168.1 6.78837 -0.188968 0
M  V30 1834 H 166.046 6.25096 1.98975 0
M  V30 1835 H 165.963 7.51663 0.808656 0
M  V30 1836 H 167.231 7.53467 1.99769 0
M  V30 1837 N 171.46 0.379036 1.52974 0
M  V30 1838 C 172.393 -0.504932 2.22544 0
M  V30 1839 C 173.371 -1.0723 1.22231 0
M  V30 1840 O 174.555 -1.12589 1.51182 0
M  V30 1841 C 171.682 -1.69794 2.93066 0
M  V30 1842 C 170.728 -1.25678 4.07563 0
M  V30 1843 S 171.561 -0.246852 5.34931 0
M  V30 1844 C 172.717 -1.44588 6.08971 0
M  V30 1845 H 172.95 0.0858666 2.97176 0
M  V30 1846 H 170.483 0.163183 1.53535 0
M  V30 1847 H 172.441 -2.38219 3.34308 0
M  V30 1848 H 171.102 -2.26002 2.18133 0
M  V30 1849 H 170.295 -2.14725 4.5597 0
M  V30 1850 H 169.897 -0.651584 3.6828 0
M  V30 1851 H 172.189 -2.37469 6.34519 0
M  V30 1852 H 173.132 -1.00292 7.00962 0
M  V30 1853 H 173.54 -1.65804 5.39601 0
M  V30 1854 N 172.938 -1.57226 0.108567 0
M  V30 1855 C 173.848 -2.18292 -0.859401 0
M  V30 1856 C 174.864 -1.15612 -1.30038 0
M  V30 1857 O 176.04 -1.48039 -1.36552 0
M  V30 1858 C 173.105 -2.762 -2.09558 0
M  V30 1859 C 172.166 -3.93881 -1.70752 0
M  V30 1860 C 171.399 -4.49018 -2.88477 0
M  V30 1861 O 171.622 -4.03068 -4.036 0
M  V30 1862 O 170.556 -5.39852 -2.66164 0
M  V30 1863 H 174.382 -3.01441 -0.369769 0
M  V30 1864 H 171.967 -1.48945 -0.1165 0
M  V30 1865 H 173.849 -3.13156 -2.81978 0
M  V30 1866 H 172.524 -1.96089 -2.57548 0
M  V30 1867 H 171.431 -3.61713 -0.954714 0
M  V30 1868 H 172.764 -4.75396 -1.27513 0
M  V30 1869 N 174.416 0.165178 -1.56732 0
M  V30 1870 C 175.832 0.517174 -1.50988 0
M  V30 1871 C 176.032 1.84331 -0.813894 0
M  V30 1872 O 175.088 2.49672 -0.37682 0
M  V30 1873 C 176.401 0.544261 -2.95733 0
M  V30 1874 C 177.949 0.631039 -3.06573 0
M  V30 1875 C 178.424 0.68896 -4.52788 0
M  V30 1876 N 179.915 0.751683 -4.5706 0
M  V30 1877 C 180.65 0.817177 -5.67547 0
M  V30 1878 N 180.146 0.843129 -6.8765 0
M  V30 1879 N 181.939 0.856668 -5.55534 0
M  V30 1880 H 174.09 -0.704318 -2.00382 0
M  V30 1881 H 176.353 -0.254687 -0.913148 0
M  V30 1882 H 176.059 -0.361607 -3.49836 0
M  V30 1883 H 175.933 1.3886 -3.5071 0
M  V30 1884 H 178.32 1.52733 -2.52501 0
M  V30 1885 H 178.401 -0.240095 -2.54671 0
M  V30 1886 H 178.045 -0.2031 -5.07494 0
M  V30 1887 H 177.975 1.57633 -5.02454 0
M  V30 1888 H 180.466 0.739661 -3.70591 0
M  V30 1889 H 180.779 0.894448 -7.67606 0
M  V30 1890 H 179.124 0.811304 -6.90248 0
M  V30 1891 H 182.315 0.833437 -4.60621 0
M  V30 1892 H 182.488 0.904247 -6.4166 0
M  V30 1893 N 175.894 1.51508 0.433938 0
M  V30 1894 C 177.171 1.54888 1.19453 0
M  V30 1895 C 177.551 0.315154 2.08734 0
M  V30 1896 O 176.899 -0.699558 2.17528 0
M  V30 1897 C 177.109 2.86467 1.99342 0
M  V30 1898 C 178.457 3.38545 2.56267 0
M  V30 1899 O 179.481 2.88041 2.0955 0
M  V30 1900 O 178.34 4.26675 3.41483 0
M  V30 1901 H 175.434 0.622863 0.544032 0
M  V30 1902 H 177.98 1.63823 0.442732 0
M  V30 1903 H 176.752 3.67718 1.33788 0
M  V30 1904 H 176.375 2.8071 2.8158 0
M  V30 1905 N 177.372 -0.689602 1.41712 0
M  V30 1906 C 178.621 -1.44534 1.40686 0
M  V30 1907 C 178.934 -1.95588 0.0213352 0
M  V30 1908 O 180.14 -2.71271 -0.111534 0
M  V30 1909 C 178.596 -2.61387 2.47396 0
M  V30 1910 C 178.204 -2.17094 3.91885 0
M  V30 1911 C 179.948 -3.38986 2.55517 0
M  V30 1912 C 177.855 -3.3094 4.90135 0
M  V30 1913 H 176.785 -0.542925 0.52321 0
M  V30 1914 H 179.436 -0.748054 1.6756 0
M  V30 1915 H 177.818 -3.33412 2.13664 0
M  V30 1916 H 178.992 -1.52318 4.34897 0
M  V30 1917 H 177.307 -1.52473 3.8748 0
M  V30 1918 H 179.904 -4.23747 3.26102 0
M  V30 1919 H 180.247 -3.84578 1.59391 0
M  V30 1920 H 180.78 -2.74021 2.8837 0
M  V30 1921 H 177.519 -2.90355 5.87685 0
M  V30 1922 H 177.039 -3.94546 4.51767 0
M  V30 1923 H 178.718 -3.9663 5.11169 0
M  V30 1924 N 178.85 -1.27639 -0.924453 0
M  V30 1925 C 179.78 -1.13166 -2.04244 0
M  V30 1926 C 180.761 -0.032256 -1.70069 0
M  V30 1927 O 181.946 -0.207328 -1.9309 0
M  V30 1928 C 179.076 -0.781496 -3.38393 0
M  V30 1929 C 178.03 -1.83449 -3.86692 0
M  V30 1930 C 177.356 -1.33822 -5.17683 0
M  V30 1931 C 178.656 -3.23917 -4.09726 0
M  V30 1932 H 180.35 -2.06689 -2.1661 0
M  V30 1933 H 177.896 -0.995136 -1.04082 0
M  V30 1934 H 179.849 -0.667057 -4.16087 0
M  V30 1935 H 178.573 0.189439 -3.2605 0
M  V30 1936 H 177.232 -1.93789 -3.11193 0
M  V30 1937 H 176.88 -0.35665 -5.01734 0
M  V30 1938 H 176.58 -2.04224 -5.50968 0
M  V30 1939 H 178.104 -1.23679 -5.97943 0
M  V30 1940 H 179.518 -3.16559 -4.77978 0
M  V30 1941 H 177.915 -3.92059 -4.54324 0
M  V30 1942 H 178.985 -3.68729 -3.14908 0
M  V30 1943 N 180.328 1.1314 -1.09713 0
M  V30 1944 C 181.574 1.84757 -0.836224 0
M  V30 1945 C 181.907 1.8347 0.636598 0
M  V30 1946 O 181.182 1.27491 1.46889 0
M  V30 1947 C 181.465 3.32782 -1.37578 0
M  V30 1948 C 181.318 3.42567 -2.91493 0
M  V30 1949 C 182.637 4.28307 -1.01198 0
M  V30 1950 H 179.756 0.67082 -0.305236 0
M  V30 1951 H 182.398 1.3278 -1.35903 0
M  V30 1952 H 180.548 3.77177 -0.931097 0
M  V30 1953 H 182.22 3.06862 -3.44432 0
M  V30 1954 H 180.463 2.83349 -3.28475 0
M  V30 1955 H 181.134 4.46674 -3.24324 0
M  V30 1956 H 183.61 3.91999 -1.39556 0
M  V30 1957 H 182.486 5.30307 -1.41653 0
M  V30 1958 H 182.747 4.42029 0.0794833 0
M  V30 1959 N 181.806 0.884767 1.30421 0
M  V30 1960 C 182.716 0.355398 2.31892 0
M  V30 1961 C 183.732 -0.542261 1.65335 0
M  V30 1962 O 184.908 -0.435432 1.96637 0
M  V30 1963 C 181.973 -0.421661 3.44126 0
M  V30 1964 C 181.034 0.505727 4.26311 0
M  V30 1965 C 180.267 -0.234343 5.33185 0
M  V30 1966 O 180.49 -1.46045 5.51386 0
M  V30 1967 O 179.424 0.415443 6.00465 0
M  V30 1968 H 183.25 1.19685 2.79122 0
M  V30 1969 H 180.835 0.648596 1.34587 0
M  V30 1970 H 182.717 -0.861641 4.12497 0
M  V30 1971 H 181.392 -1.23942 2.99032 0
M  V30 1972 H 180.299 0.994513 3.60639 0
M  V30 1973 H 181.632 1.28948 4.75009 0
M  V30 1974 N 183.284 -1.43765 0.645699 0
M  V30 1975 C 184.53 -2.02197 0.156271 0
M  V30 1976 C 184.863 -1.50776 -1.22393 0
M  V30 1977 O 184.138 -0.697771 -1.81553 0
M  V30 1978 C 184.421 -3.59749 0.158872 0
M  V30 1979 C 184.274 -4.21419 1.57245 0
M  V30 1980 C 185.593 -4.37149 -0.50879 0
M  V30 1981 H 182.712 -0.734694 0.0582602 0
M  V30 1982 H 185.354 -1.71157 0.824951 0
M  V30 1983 H 183.504 -3.86325 -0.410525 0
M  V30 1984 H 185.176 -4.059 2.19186 0
M  V30 1985 H 183.419 -3.78356 2.122 0
M  V30 1986 H 184.09 -5.30482 1.52619 0
M  V30 1987 H 186.566 -4.16093 -0.024412 0
M  V30 1988 H 185.442 -5.4683 -0.476213 0
M  V30 1989 H 185.703 -4.12839 -1.58165 0
M  V30 1990 N 184.763 -0.387143 -1.52771 0
M  V30 1991 C 185.711 0.463953 -2.27926 0
M  V30 1992 C 186.705 1.06493 -1.31741 0
M  V30 1993 O 187.911 1.00565 -1.49287 0
M  V30 1994 H 184.286 0.16837 -0.732909 0
M  V30 1995 H 186.257 -0.19141 -2.97785 0
M  V30 1996 C 185.006 1.5803 -3.09713 0
M  V30 1997 H 184.329 1.12718 -3.83581 0
M  V30 1998 H 185.769 2.15008 -3.65442 0
M  V30 1999 C 184.228 2.53509 -2.2189 0
M  V30 2000 O 184.758 3.56863 -1.84422 0
M  V30 2001 N 182.964 2.23199 -1.86093 0
M  V30 2002 H 182.511 1.39185 -2.16761 0
M  V30 2003 H 182.469 2.87333 -1.27621 0
M  V30 2004 N 186.241 1.57166 -0.116904 0
M  V30 2005 C 187.191 2.11756 0.845178 0
M  V30 2006 C 188.175 1.03783 1.22955 0
M  V30 2007 O 189.367 1.3002 1.20099 0
M  V30 2008 C 186.496 2.71886 2.09602 0
M  V30 2009 C 185.582 3.86937 1.7361 0
M  V30 2010 N 185.973 4.94073 1.08284 0
M  V30 2011 C 184.271 3.97082 2.03082 0
M  V30 2012 C 184.972 5.74477 0.913855 0
M  V30 2013 N 183.948 5.2423 1.43818 0
M  V30 2014 H 187.75 2.91967 0.336523 0
M  V30 2015 H 185.264 1.62174 0.0856332 0
M  V30 2016 H 187.261 3.09338 2.79492 0
M  V30 2017 H 185.921 1.93138 2.61013 0
M  V30 2018 H 186.932 5.12483 0.747067 0
M  V30 2019 H 183.609 3.29372 2.56554 0
M  V30 2020 H 184.999 6.70701 0.40125 0
M  V30 2021 N 187.719 -0.156864 1.56817 0
M  V30 2022 C 189.13 -0.717916 1.72345 0
M  V30 2023 C 189.481 -1.82124 0.729747 0
M  V30 2024 O 188.606 -2.16141 -0.105781 0
M  V30 2025 C 189.201 -1.30904 3.12489 0
M  V30 2026 C 187.76 -1.81676 3.29653 0
M  V30 2027 C 186.907 -0.701349 2.68284 0
M  V30 2028 H 189.858 0.0686989 1.58551 0
M  V30 2029 H 189.879 -2.17882 3.11942 0
M  V30 2030 H 189.391 -0.505796 3.8479 0
M  V30 2031 H 187.492 -2.64598 2.62333 0
M  V30 2032 H 187.605 -1.95226 4.3752 0
M  V30 2033 H 185.969 -1.12548 2.28484 0
M  V30 2034 H 186.752 0.0902846 3.43181 0
M  V30 2035 N 189.197 -1.51736 -0.425897 0
M  V30 2036 C 190.444 -1.6497 -1.17436 0
M  V30 2037 C 190.772 -0.371445 -1.9092 0
M  V30 2038 O 190.027 0.644963 -1.84767 0
M  V30 2039 C 190.326 -2.81103 -2.20717 0
M  V30 2040 C 189.992 -4.19954 -1.64162 0
M  V30 2041 C 188.654 -4.57725 -1.48462 0
M  V30 2042 C 191.006 -5.06552 -1.22696 0
M  V30 2043 C 188.334 -5.79789 -0.897873 0
M  V30 2044 C 190.686 -6.29205 -0.654464 0
M  V30 2045 C 189.35 -6.6574 -0.484456 0
M  V30 2046 H 188.62 -0.603668 -0.429727 0
M  V30 2047 H 191.267 -1.85798 -0.463829 0
M  V30 2048 H 189.572 -2.54542 -2.97852 0
M  V30 2049 H 191.269 -2.8854 -2.78471 0
M  V30 2050 H 187.859 -3.90181 -1.77361 0
M  V30 2051 H 192.043 -4.77968 -1.33642 0
M  V30 2052 H 187.299 -6.06733 -0.75402 0
M  V30 2053 H 191.473 -6.95643 -0.324694 0
M  V30 2054 H 189.1 -7.60195 -0.0276833 0
M  V30 2055 N 190.675 0.682077 -1.42076 0
M  V30 2056 C 191.924 1.43786 -1.41451 0
M  V30 2057 C 192.237 1.95574 -0.0317074 0
M  V30 2058 O 193.443 2.71326 0.0971462 0
M  V30 2059 C 191.899 2.60071 -2.48779 0
M  V30 2060 C 191.507 2.15013 -3.93031 0
M  V30 2061 C 193.251 3.37626 -2.57311 0
M  V30 2062 C 191.158 3.28336 -4.91883 0
M  V30 2063 H 190.088 0.540143 -0.526082 0
M  V30 2064 H 192.739 0.739157 -1.67955 0
M  V30 2065 H 191.121 3.32275 -2.15429 0
M  V30 2066 H 192.295 1.5001 -4.35699 0
M  V30 2067 H 190.61 1.50416 -3.88284 0
M  V30 2068 H 193.207 4.22012 -3.28345 0
M  V30 2069 H 193.55 3.83727 -1.61429 0
M  V30 2070 H 194.083 2.72488 -2.89819 0
M  V30 2071 H 190.822 2.87234 -5.89217 0
M  V30 2072 H 190.342 3.92145 -4.53853 0
M  V30 2073 H 192.021 3.93913 -5.13265 0
M  V30 2074 N 192.153 1.28127 0.917671 0
M  V30 2075 C 193.399 1.15223 1.66888 0
M  V30 2076 C 193.732 -0.299293 1.9188 0
M  V30 2077 O 193.007 -1.21805 1.51637 0
M  V30 2078 C 193.29 1.94706 3.02922 0
M  V30 2079 C 193.143 3.47898 2.85109 0
M  V30 2080 C 194.462 1.75939 4.03402 0
M  V30 2081 H 191.581 0.419946 0.605652 0
M  V30 2082 H 194.223 1.57398 1.06423 0
M  V30 2083 H 192.373 1.58864 3.54534 0
M  V30 2084 H 194.045 3.93624 2.40537 0
M  V30 2085 H 192.288 3.7373 2.20246 0
M  V30 2086 H 192.959 3.98765 3.81694 0
M  V30 2087 H 195.435 2.07209 3.60837 0
M  V30 2088 H 194.311 2.33931 4.96556 0
M  V30 2089 H 194.572 0.709877 4.36364 0
M  V30 2090 N 193.631 -1.12557 1.10312 0
M  V30 2091 C 194.578 -2.18247 0.750781 0
M  V30 2092 C 195.548 -1.63853 -0.272293 0
M  V30 2093 O 196.733 -1.90195 -0.151862 0
M  V30 2094 C 193.873 -3.44591 0.187379 0
M  V30 2095 C 192.986 -4.13046 1.2656 0
M  V30 2096 C 192.121 -5.27034 0.663978 0
M  V30 2097 C 191.16 -5.87353 1.72287 0
M  V30 2098 N 190.297 -6.92757 1.1416 0
M  V30 2099 H 195.137 -2.47732 1.65628 0
M  V30 2100 H 192.674 -1.21629 0.827337 0
M  V30 2101 H 194.632 -4.16904 -0.157148 0
M  V30 2102 H 193.262 -3.15527 -0.681355 0
M  V30 2103 H 192.314 -3.38924 1.72727 0
M  V30 2104 H 193.626 -4.53947 2.06721 0
M  V30 2105 H 192.78 -6.06104 0.268824 0
M  V30 2106 H 191.519 -4.87407 -0.169082 0
M  V30 2107 H 190.524 -5.06971 2.12746 0
M  V30 2108 H 191.749 -6.29051 2.55875 0
M  V30 2109 H 189.695 -6.5517 0.329984 0
M  V30 2110 H 189.612 -7.3225 1.88007 0
M  V30 2111 H 190.88 -7.75658 0.772956 0
M  V30 2112 N 195.109 -0.891671 -1.2995 0
M  V30 2113 C 196.039 -0.379797 -2.30391 0
M  V30 2114 C 197.02 0.540919 -1.6127 0
M  V30 2115 O 198.205 0.453352 -1.88834 0
M  V30 2116 C 195.335 0.400654 -3.44981 0
M  V30 2117 C 194.289 -0.428905 -4.25846 0
M  V30 2118 C 193.615 0.478557 -5.32554 0
M  V30 2119 C 194.915 -1.67458 -4.94727 0
M  V30 2120 H 196.609 -1.21914 -2.73454 0
M  V30 2121 H 194.155 -0.587675 -1.31462 0
M  V30 2122 H 196.108 0.769434 -4.14316 0
M  V30 2123 H 194.832 1.27371 -3.0074 0
M  V30 2124 H 193.491 -0.779911 -3.58208 0
M  V30 2125 H 193.139 1.34951 -4.84559 0
M  V30 2126 H 192.839 -0.0727433 -5.87555 0
M  V30 2127 H 194.363 0.843705 -6.04743 0
M  V30 2128 H 195.777 -1.376 -5.56542 0
M  V30 2129 H 194.174 -2.16659 -5.59624 0
M  V30 2130 H 195.244 -2.41518 -4.20473 0
M  V30 2131 N 196.587 1.43421 -0.653314 0
M  V30 2132 C 197.537 2.2792 0.060558 0
M  V30 2133 C 198.521 1.39906 0.794677 0
M  V30 2134 O 199.713 1.63536 0.677128 0
M  V30 2135 C 196.842 3.27603 1.0262 0
M  V30 2136 C 195.928 4.23104 0.290551 0
M  V30 2137 N 196.319 5.01031 -0.692967 0
M  V30 2138 C 194.617 4.42816 0.531984 0
M  V30 2139 C 195.318 5.70626 -1.12963 0
M  V30 2140 N 194.294 5.41617 -0.463867 0
M  V30 2141 H 198.096 2.85585 -0.694143 0
M  V30 2142 H 195.61 1.55126 -0.480602 0
M  V30 2143 H 197.607 3.86918 1.55242 0
M  V30 2144 H 196.267 2.71499 1.78096 0
M  V30 2145 H 197.278 5.0669 -1.07169 0
M  V30 2146 H 193.955 3.97782 1.26791 0
M  V30 2147 H 195.345 6.4318 -1.94343 0
M  V30 2148 N 198.065 0.39524 1.52563 0
M  V30 2149 C 199.295 -0.184675 2.05773 0
M  V30 2150 C 199.703 -1.40571 1.26635 0
M  V30 2151 O 199.046 -1.81105 0.30769 0
M  V30 2152 C 199.108 -0.613551 3.54226 0
M  V30 2153 C 198.772 0.49484 4.54313 0
M  V30 2154 C 199.769 1.3541 5.01956 0
M  V30 2155 C 197.454 0.663565 4.97898 0
M  V30 2156 C 199.448 2.36716 5.91814 0
M  V30 2157 C 197.135 1.67996 5.87555 0
M  V30 2158 C 198.133 2.53017 6.34406 0
M  V30 2159 O 197.821 3.52917 7.22291 0
M  V30 2160 H 197.553 -0.030077 0.675331 0
M  V30 2161 H 200.107 0.560708 1.97599 0
M  V30 2162 H 198.337 -1.411 3.60038 0
M  V30 2163 H 200.026 -1.11981 3.90148 0
M  V30 2164 H 200.792 1.23509 4.6901 0
M  V30 2165 H 196.671 0.0114913 4.60999 0
M  V30 2166 H 200.215 3.03113 6.28306 0
M  V30 2167 H 196.112 1.79933 6.19915 0
M  V30 2168 H 196.88 3.48996 7.40367 0
M  V30 2169 N 199.544 -1.57102 0.125237 0
M  V30 2170 C 200.507 -2.14471 -0.80838 0
M  V30 2171 C 201.507 -1.0811 -1.19033 0
M  V30 2172 O 202.697 -1.33856 -1.11482 0
M  V30 2173 C 199.829 -2.69005 -2.09402 0
M  V30 2174 H 201.022 -2.98297 -0.309696 0
M  V30 2175 H 198.575 -1.55807 -0.124051 0
M  V30 2176 H 199.31 -1.88785 -2.63687 0
M  V30 2177 H 199.095 -3.46799 -1.82957 0
M  V30 2178 H 200.585 -3.13278 -2.76128 0
M  V30 2179 N 201.022 0.148545 -1.56898 0
M  V30 2180 C 202.269 0.861418 -1.83264 0
M  V30 2181 C 202.597 1.81239 -0.705883 0
M  V30 2182 O 201.852 1.93305 0.305212 0
M  V30 2183 C 202.151 1.67064 -3.1595 0
M  V30 2184 C 201.817 0.866591 -4.42494 0
M  V30 2185 C 200.479 0.644762 -4.76861 0
M  V30 2186 C 202.831 0.30418 -5.20312 0
M  V30 2187 C 200.159 -0.15021 -5.86508 0
M  V30 2188 C 202.511 -0.477824 -6.30793 0
M  V30 2189 C 201.175 -0.710244 -6.63711 0
M  V30 2190 H 200.445 0.315215 -0.670612 0
M  V30 2191 H 203.092 0.125142 -1.91091 0
M  V30 2192 H 201.397 2.47698 -3.03567 0
M  V30 2193 H 203.094 2.22566 -3.33565 0
M  V30 2194 H 199.684 1.04955 -4.15551 0
M  V30 2195 H 203.868 0.462844 -4.94137 0
M  V30 2196 H 199.124 -0.339796 -6.10455 0
M  V30 2197 H 203.298 -0.92076 -6.90286 0
M  V30 2198 H 200.925 -1.3281 -7.48509 0
M  V30 2199 N 202.5 1.5196 0.417844 0
M  V30 2200 C 203.432 1.70895 1.52733 0
M  V30 2201 C 204.445 0.589405 1.51756 0
M  V30 2202 O 205.634 0.864312 1.56179 0
M  V30 2203 C 202.734 1.72627 2.91639 0
M  V30 2204 C 201.907 3.01479 3.16905 0
M  V30 2205 C 200.966 2.95139 4.35637 0
M  V30 2206 O 199.992 3.69059 4.3334 0
M  V30 2207 N 201.194 2.12328 5.40275 0
M  V30 2208 H 203.959 2.66612 1.36888 0
M  V30 2209 H 201.52 1.50089 0.607037 0
M  V30 2210 H 203.512 1.65928 3.6912 0
M  V30 2211 H 202.082 0.844216 3.00985 0
M  V30 2212 H 201.302 3.21895 2.27546 0
M  V30 2213 H 202.59 3.86736 3.30625 0
M  V30 2214 H 201.988 1.51685 5.44985 0
M  V30 2215 H 200.545 2.11494 6.16534 0
M  V30 2216 N 203.978 -0.674533 1.42435 0
M  V30 2217 C 205.206 -1.46283 1.46317 0
M  V30 2218 C 205.621 -1.88653 0.0745836 0
M  V30 2219 O 204.978 -1.58151 -0.91074 0
M  V30 2220 C 205.029 -2.71178 2.3905 0
M  V30 2221 O 204.75 -2.30586 3.72507 0
M  V30 2222 C 206.251 -3.64738 2.51955 0
M  V30 2223 H 203.471 -0.450104 0.497642 0
M  V30 2224 H 206.015 -0.828792 1.86953 0
M  V30 2225 H 204.17 -3.3077 2.01667 0
M  V30 2226 H 204.584 -3.11241 4.22172 0
M  V30 2227 H 206.058 -4.49096 3.20962 0
M  V30 2228 H 206.535 -4.10656 1.55752 0
M  V30 2229 H 207.141 -3.11038 2.90061 0
M  V30 2230 N 205.456 -1.28612 -0.910864 0
M  V30 2231 C 206.366 -1.14643 -2.0468 0
M  V30 2232 C 207.382 -0.0723121 -1.7385 0
M  V30 2233 O 208.558 -0.282178 -1.99413 0
M  V30 2234 C 205.623 -0.812561 -3.37044 0
M  V30 2235 C 204.684 -1.96935 -3.81465 0
M  V30 2236 C 203.917 -1.65131 -5.07511 0
M  V30 2237 O 204.14 -0.567013 -5.67575 0
M  V30 2238 O 203.074 -2.49585 -5.47714 0
M  V30 2239 H 206.9 -2.1001 -2.19384 0
M  V30 2240 H 204.485 -1.07958 -1.03274 0
M  V30 2241 H 206.367 -0.640441 -4.16505 0
M  V30 2242 H 205.042 0.111426 -3.23508 0
M  V30 2243 H 203.949 -2.19664 -3.02818 0
M  V30 2244 H 205.282 -2.87414 -3.99567 0
M  V30 2245 N 206.934 1.1197 -1.10907 0
M  V30 2246 C 208.182 1.83225 -0.852819 0
M  V30 2247 C 208.503 1.84769 0.623341 0
M  V30 2248 O 207.773 1.3143 1.45269 0
M  V30 2249 H 206.353 0.67849 -0.312507 0
M  V30 2250 H 209.015 1.3556 -1.40033 0
M  V30 2251 H 208.111 2.87265 -1.22005 0
M  V30 2252 N 208.412 0.89855 1.29475 0
M  V30 2253 C 209.359 0.373819 2.27753 0
M  V30 2254 C 210.329 -0.543444 1.56958 0
M  V30 2255 O 211.514 -0.468934 1.84948 0
M  V30 2256 C 208.654 -0.393648 3.42848 0
M  V30 2257 C 207.767 0.554379 4.28428 0
M  V30 2258 C 206.902 -0.230026 5.30702 0
M  V30 2259 C 205.941 0.712599 6.07938 0
M  V30 2260 N 205.078 -0.0373283 7.0209 0
M  V30 2261 H 209.918 1.21699 2.72017 0
M  V30 2262 H 207.455 0.611456 1.33789 0
M  V30 2263 H 209.413 -0.85466 4.08352 0
M  V30 2264 H 208.043 -1.20128 2.99615 0
M  V30 2265 H 207.095 1.13391 3.63107 0
M  V30 2266 H 208.407 1.27597 4.82204 0
M  V30 2267 H 207.561 -0.752288 6.02018 0
M  V30 2268 H 206.3 -0.984758 4.77654 0
M  V30 2269 H 205.305 1.24637 5.35486 0
M  V30 2270 H 206.53 1.46664 6.63074 0
M  V30 2271 H 204.476 -0.774348 6.51414 0
M  V30 2272 H 204.393 0.624374 7.53417 0
M  V30 2273 H 205.661 -0.539891 7.77628 0
M  V30 2274 N 209.89 -1.43072 0.660911 0
M  V30 2275 C 210.82 -2.33497 -0.0122829 0
M  V30 2276 C 211.801 -1.49903 -0.803925 0
M  V30 2277 O 212.986 -1.78546 -0.763864 0
M  V30 2278 C 210.116 -3.33363 -0.973994 0
M  V30 2279 C 209.07 -4.27003 -0.291928 0
M  V30 2280 C 208.396 -5.16967 -1.36562 0
M  V30 2281 C 209.696 -5.15816 0.820462 0
M  V30 2282 H 211.39 -2.90038 0.742873 0
M  V30 2283 H 208.936 -1.39461 0.358688 0
M  V30 2284 H 210.889 -3.95524 -1.45392 0
M  V30 2285 H 209.613 -2.75095 -1.7604 0
M  V30 2286 H 208.272 -3.66217 0.167623 0
M  V30 2287 H 207.92 -4.55034 -2.14366 0
M  V30 2288 H 207.62 -5.80441 -0.914454 0
M  V30 2289 H 209.144 -5.82003 -1.84675 0
M  V30 2290 H 210.558 -5.71742 0.422366 0
M  V30 2291 H 208.955 -5.8805 1.19656 0
M  V30 2292 H 210.025 -4.55045 1.67518 0
M  V30 2293 N 211.368 -0.403325 -1.52352 0
M  V30 2294 C 212.598 0.17376 -2.05868 0
M  V30 2295 C 213.006 1.39898 -1.27378 0
M  V30 2296 O 212.349 1.80939 -0.31729 0
M  V30 2297 C 212.411 0.594756 -3.54546 0
M  V30 2298 C 212.075 -0.518926 -4.54044 0
M  V30 2299 C 213.072 -1.3807 -5.01231 0
M  V30 2300 C 210.757 -0.689961 -4.97539 0
M  V30 2301 C 212.751 -2.39852 -5.90551 0
M  V30 2302 C 210.438 -1.71109 -5.86656 0
M  V30 2303 C 211.436 -2.56378 -6.33056 0
M  V30 2304 O 211.124 -3.56743 -7.20409 0
M  V30 2305 H 210.856 0.0264951 -0.675481 0
M  V30 2306 H 213.41 -0.571179 -1.97299 0
M  V30 2307 H 211.64 1.39189 -3.60782 0
M  V30 2308 H 213.329 1.0991 -3.90736 0
M  V30 2309 H 214.095 -1.25994 -4.68349 0
M  V30 2310 H 209.974 -0.035939 -4.60986 0
M  V30 2311 H 213.518 -3.06441 -6.26689 0
M  V30 2312 H 209.415 -1.83218 -6.18952 0
M  V30 2313 H 210.183 -3.52918 -7.38506 0
M  V30 2314 N 212.846 1.57033 -0.133567 0
M  V30 2315 C 213.776 2.1909 0.807567 0
M  V30 2316 C 214.757 1.13517 1.26681 0
M  V30 2317 O 215.942 1.41809 1.32679 0
M  V30 2318 C 213.072 2.80188 2.05212 0
M  V30 2319 C 212.026 3.91471 1.73015 0
M  V30 2320 C 211.352 4.39443 3.04622 0
M  V30 2321 C 212.652 5.12886 0.987168 0
M  V30 2322 H 214.346 2.97988 0.290403 0
M  V30 2323 H 211.892 1.43335 0.138239 0
M  V30 2324 H 213.845 3.22264 2.71521 0
M  V30 2325 H 212.569 1.98601 2.59278 0
M  V30 2326 H 211.228 3.49993 1.0909 0
M  V30 2327 H 210.876 3.54695 3.56651 0
M  V30 2328 H 210.576 5.14495 2.83847 0
M  V30 2329 H 212.1 4.8418 3.72024 0
M  V30 2330 H 213.514 5.51891 1.55208 0
M  V30 2331 H 211.911 5.93615 0.87985 0
M  V30 2332 H 212.981 4.84894 -0.0235286 0
M  V30 2333 N 214.325 -0.140222 1.56975 0
M  V30 2334 C 215.574 -0.850152 1.82908 0
M  V30 2335 C 215.887 -1.82028 0.715892 0
M  V30 2336 O 217.093 -2.57485 0.861016 0
M  V30 2337 C 215.549 -1.5625 3.24213 0
M  V30 2338 C 215.157 -0.63443 4.43485 0
M  V30 2339 C 216.901 -2.25881 3.59413 0
M  V30 2340 C 214.808 -1.34879 5.75814 0
M  V30 2341 H 213.738 -0.321221 0.682153 0
M  V30 2342 H 216.389 -0.102874 1.83211 0
M  V30 2343 H 214.771 -2.35565 3.18316 0
M  V30 2344 H 215.945 0.12398 4.60633 0
M  V30 2345 H 214.26 -0.0461836 4.16374 0
M  V30 2346 H 216.857 -2.79978 4.5554 0
M  V30 2347 H 217.2 -3.02693 2.85802 0
M  V30 2348 H 217.733 -1.53477 3.67001 0
M  V30 2349 H 214.472 -0.622385 6.52539 0
M  V30 2350 H 213.992 -2.07974 5.6259 0
M  V30 2351 H 215.671 -1.88784 6.18845 0
M  V30 2352 N 215.803 -1.52179 -0.40978 0
M  V30 2353 C 216.733 -1.78435 -1.5061 0
M  V30 2354 C 217.714 -0.635295 -1.57791 0
M  V30 2355 O 218.899 -0.880823 -1.73076 0
M  V30 2356 C 216.029 -1.93444 -2.88439 0
M  V30 2357 C 214.983 -3.09038 -2.96108 0
M  V30 2358 C 214.309 -3.09268 -4.36185 0
M  V30 2359 C 215.609 -4.48508 -2.67652 0
M  V30 2360 H 217.303 -2.70237 -1.28889 0
M  V30 2361 H 214.849 -1.30036 -0.618605 0
M  V30 2362 H 216.802 -2.10394 -3.65119 0
M  V30 2363 H 215.526 -0.983129 -3.11452 0
M  V30 2364 H 214.185 -2.91837 -2.21872 0
M  V30 2365 H 213.833 -2.11861 -4.56206 0
M  V30 2366 H 213.533 -3.86907 -4.42241 0
M  V30 2367 H 215.057 -3.28348 -5.14801 0
M  V30 2368 H 216.471 -4.65918 -3.34056 0
M  V30 2369 H 214.868 -5.28059 -2.85085 0
M  V30 2370 H 215.938 -4.56649 -1.63095 0
M  V30 2371 N 217.281 0.66697 -1.42791 0
M  V30 2372 C 218.558 1.4234 -1.34159 0
M  V30 2373 C 218.938 2.11093 0.0172729 0
M  V30 2374 O 218.286 2.03808 1.03318 0
M  V30 2375 C 218.496 2.41942 -2.51526 0
M  V30 2376 C 219.844 3.06353 -2.93995 0
M  V30 2377 O 220.868 2.52269 -2.51473 0
M  V30 2378 O 219.727 4.04376 -3.67617 0
M  V30 2379 H 216.821 0.635277 -0.529483 0
M  V30 2380 H 219.367 0.695034 -1.54814 0
M  V30 2381 H 218.139 1.89991 -3.42081 0
M  V30 2382 H 217.762 3.22249 -2.32898 0
M  V30 2383 N 218.759 1.29093 0.90403 0
M  V30 2384 C 220.006 1.16813 1.65411 0
M  V30 2385 C 220.334 -0.28128 1.92455 0
M  V30 2386 O 219.589 -1.22006 1.53013 0
M  V30 2387 C 219.888 1.92224 3.01305 0
M  V30 2388 C 219.554 3.41968 2.93885 0
M  V30 2389 C 218.216 3.82807 2.91569 0
M  V30 2390 C 220.568 4.37409 2.83413 0
M  V30 2391 C 217.896 5.1741 2.76594 0
M  V30 2392 C 220.248 5.72097 2.69977 0
M  V30 2393 C 218.912 6.12199 2.66024 0
M  V30 2394 H 218.182 0.42745 0.605283 0
M  V30 2395 H 220.829 1.59981 1.05254 0
M  V30 2396 H 219.134 1.41635 3.65304 0
M  V30 2397 H 220.831 1.80131 3.58265 0
M  V30 2398 H 217.421 3.09504 2.96488 0
M  V30 2399 H 221.605 4.06813 2.84283 0
M  V30 2400 H 216.861 5.47596 2.71935 0
M  V30 2401 H 221.035 6.45704 2.60844 0
M  V30 2402 H 218.662 7.16448 2.54178 0
M  V30 2403 N 220.237 -1.11381 1.11499 0
M  V30 2404 C 221.167 -2.19509 0.796125 0
M  V30 2405 C 222.148 -1.68458 -0.235796 0
M  V30 2406 O 223.333 -1.93947 -0.0991344 0
M  V30 2407 C 220.463 -3.46475 0.239205 0
M  V30 2408 C 219.417 -4.10744 1.20307 0
M  V30 2409 C 218.743 -5.32293 0.50683 0
M  V30 2410 C 220.043 -4.55597 2.55399 0
M  V30 2411 H 221.737 -2.46439 1.70024 0
M  V30 2412 H 219.283 -1.18446 0.818935 0
M  V30 2413 H 221.236 -4.214 0.00392006 0
M  V30 2414 H 219.96 -3.19006 -0.700206 0
M  V30 2415 H 218.619 -3.37813 1.42399 0
M  V30 2416 H 218.267 -5.01095 -0.437408 0
M  V30 2417 H 217.967 -5.76243 1.1497 0
M  V30 2418 H 219.491 -6.09956 0.280351 0
M  V30 2419 H 220.905 -5.21841 2.37391 0
M  V30 2420 H 219.302 -5.10363 3.15673 0
M  V30 2421 H 220.372 -3.69013 3.14575 0
M  V30 2422 N 221.715 -0.905404 -1.28997 0
M  V30 2423 C 223.131 -0.60233 -1.47798 0
M  V30 2424 C 223.331 0.854645 -1.82478 0
M  V30 2425 O 222.387 1.63439 -1.92468 0
M  V30 2426 C 223.7 -1.53306 -2.58685 0
M  V30 2427 C 225.248 -1.53887 -2.72558 0
M  V30 2428 C 225.723 -2.45602 -3.86579 0
M  V30 2429 N 227.214 -2.43681 -3.93921 0
M  V30 2430 C 227.949 -3.11347 -4.81509 0
M  V30 2431 N 227.445 -3.88313 -5.73746 0
M  V30 2432 N 229.238 -3.00476 -4.75048 0
M  V30 2433 H 221.389 -1.84765 -1.04764 0
M  V30 2434 H 223.652 -0.792025 -0.520961 0
M  V30 2435 H 223.358 -2.57141 -2.39941 0
M  V30 2436 H 223.232 -1.25787 -3.55609 0
M  V30 2437 H 225.619 -0.507941 -2.90696 0
M  V30 2438 H 225.7 -1.85447 -1.76191 0
M  V30 2439 H 225.344 -3.48792 -3.69197 0
M  V30 2440 H 225.274 -2.11349 -4.82327 0
M  V30 2441 H 227.765 -1.87767 -3.27951 0
M  V30 2442 H 228.078 -4.36985 -6.37389 0
M  V30 2443 H 226.423 -3.92419 -5.73614 0
M  V30 2444 H 229.614 -2.39858 -4.01977 0
M  V30 2445 H 229.787 -3.53485 -5.43095 0
M  V30 2446 N 223.193 1.4272 -0.668489 0
M  V30 2447 C 224.441 2.01226 -0.187769 0
M  V30 2448 C 224.762 1.53092 1.2078 0
M  V30 2449 O 224.032 0.74993 1.80977 0
M  V30 2450 H 222.612 0.744041 -0.0664272 0
M  V30 2451 H 225.274 1.74723 -0.863583 0
M  V30 2452 H 224.37 3.11556 -0.184166 0
M  V30 2453 N 224.671 0.411399 1.52136 0
M  V30 2454 C 225.919 -0.163322 2.01439 0
M  V30 2455 C 226.24 -1.45453 1.29879 0
M  V30 2456 O 225.51 -1.91225 0.4254 0
M  V30 2457 H 224.09 -0.0633447 0.744309 0
M  V30 2458 H 226.752 0.548161 1.87033 0
M  V30 2459 H 225.848 -0.357817 3.10042 0
M  V30 2460 N 226.149 -1.5696 0.141893 0
M  V30 2461 C 227.426 -1.87553 -0.555281 0
M  V30 2462 C 227.806 -1.04699 -1.83306 0
M  V30 2463 O 227.154 -0.132346 -2.28116 0
M  V30 2464 C 227.364 -3.39093 -0.825664 0
M  V30 2465 C 228.712 -4.08199 -1.16869 0
M  V30 2466 O 229.736 -3.44242 -0.915185 0
M  V30 2467 O 228.595 -5.21139 -1.6455 0
M  V30 2468 H 225.689 -0.777188 -0.282679 0
M  V30 2469 H 228.235 -1.68763 0.17812 0
M  V30 2470 H 227.007 -3.91221 0.0788633 0
M  V30 2471 H 226.63 -3.63393 -1.61343 0
M  V30 2472 N 227.627 0.131896 -1.57047 0
M  V30 2473 C 228.557 1.16384 -2.02428 0
M  V30 2474 C 229.538 1.43936 -0.90644 0
M  V30 2475 O 230.723 1.54599 -1.17528 0
M  V30 2476 C 227.853 2.49328 -2.4177 0
M  V30 2477 C 226.807 2.36266 -3.56879 0
M  V30 2478 C 226.133 3.74057 -3.8208 0
M  V30 2479 C 227.433 1.834 -4.89042 0
M  V30 2480 H 229.127 0.786433 -2.88887 0
M  V30 2481 H 226.673 0.376855 -1.38981 0
M  V30 2482 H 228.626 3.21759 -2.7212 0
M  V30 2483 H 227.35 2.88934 -1.52266 0
M  V30 2484 H 226.009 1.66286 -3.26718 0
M  V30 2485 H 225.657 4.11125 -2.89803 0
M  V30 2486 H 225.357 3.66174 -4.59554 0
M  V30 2487 H 226.881 4.48012 -4.1487 0
M  V30 2488 H 228.295 2.45636 -5.18011 0
M  V30 2489 H 226.692 1.8637 -5.70426 0
M  V30 2490 H 227.762 0.790662 -4.7841 0
M  V30 2491 N 229.106 1.52395 0.401703 0
M  V30 2492 C 230.353 1.66817 1.14796 0
M  V30 2493 C 230.681 0.401772 1.90305 0
M  V30 2494 O 229.936 -0.615487 1.85769 0
M  V30 2495 C 230.235 2.84578 2.16217 0
M  V30 2496 C 229.901 4.22513 1.5746 0
M  V30 2497 C 228.563 4.60029 1.41161 0
M  V30 2498 C 230.915 5.0844 1.14622 0
M  V30 2499 C 228.243 5.81144 0.80552 0
M  V30 2500 C 230.595 6.30167 0.55428 0
M  V30 2501 C 229.259 6.66426 0.378482 0
M  V30 2502 H 228.529 0.610428 0.420069 0
M  V30 2503 H 231.176 1.86512 0.434212 0
M  V30 2504 H 229.481 2.59248 2.93764 0
M  V30 2505 H 231.178 2.92933 2.73845 0
M  V30 2506 H 227.768 3.92953 1.71132 0
M  V30 2507 H 231.952 4.80034 1.26021 0
M  V30 2508 H 227.208 6.07855 0.657399 0
M  V30 2509 H 231.382 6.96071 0.213983 0
M  V30 2510 H 229.009 7.60143 -0.0932606 0
M  V30 2511 N 230.584 -0.659388 1.43143 0
M  V30 2512 C 231.812 -1.44723 1.47861 0
M  V30 2513 C 232.227 -1.88563 0.0945886 0
M  V30 2514 O 231.584 -1.59108 -0.893915 0
M  V30 2515 C 231.635 -2.68627 2.41913 0
M  V30 2516 O 231.356 -2.26623 3.74932 0
M  V30 2517 C 232.857 -3.62045 2.55809 0
M  V30 2518 H 230.077 -0.444801 0.502387 0
M  V30 2519 H 232.621 -0.808916 1.87821 0
M  V30 2520 H 230.776 -3.28613 2.05164 0
M  V30 2521 H 231.19 -3.06745 4.2545 0
M  V30 2522 H 232.664 -4.45666 3.25708 0
M  V30 2523 H 233.141 -4.08981 1.60099 0
M  V30 2524 H 233.747 -3.07944 2.93344 0
M  V30 2525 N 232.062 -1.29571 -0.897171 0
M  V30 2526 C 233.478 -1.07637 -1.17841 0
M  V30 2527 C 233.678 0.170713 -2.00776 0
M  V30 2528 O 232.734 0.867768 -2.3712 0
M  V30 2529 C 234.047 -2.3332 -1.8969 0
M  V30 2530 C 235.595 -2.38664 -2.02505 0
M  V30 2531 C 236.07 -3.64157 -2.77765 0
M  V30 2532 N 237.561 -3.64894 -2.85318 0
M  V30 2533 C 238.296 -4.58679 -3.44094 0
M  V30 2534 N 237.792 -5.62799 -4.04017 0
M  V30 2535 N 239.585 -4.46245 -3.41793 0
M  V30 2536 H 231.736 -2.09598 -0.343883 0
M  V30 2537 H 233.999 -0.923333 -0.214848 0
M  V30 2538 H 233.705 -3.24262 -1.36187 0
M  V30 2539 H 233.579 -2.41025 -2.9015 0
M  V30 2540 H 235.966 -1.48208 -2.55183 0
M  V30 2541 H 236.047 -2.34943 -1.01171 0
M  V30 2542 H 235.691 -4.54965 -2.25763 0
M  V30 2543 H 235.621 -3.65137 -3.7945 0
M  V30 2544 H 238.112 -2.89613 -2.42761 0
M  V30 2545 H 238.425 -6.3048 -4.46895 0
M  V30 2546 H 236.77 -5.66605 -4.02472 0
M  V30 2547 H 239.961 -3.64094 -2.94199 0
M  V30 2548 H 240.134 -5.19518 -3.87304 0
M  V30 2549 N 233.54 1.10788 -1.12088 0
M  V30 2550 C 234.47 2.19083 -0.807755 0
M  V30 2551 C 235.451 1.6858 0.226859 0
M  V30 2552 O 236.636 1.93997 0.0888475 0
M  V30 2553 C 233.766 3.46344 -0.257576 0
M  V30 2554 C 232.72 4.101 -1.22483 0
M  V30 2555 C 232.046 5.32016 -0.535052 0
M  V30 2556 C 233.346 4.54236 -2.57811 0
M  V30 2557 H 235.04 2.45534 -1.71328 0
M  V30 2558 H 232.586 1.1801 -0.825205 0
M  V30 2559 H 234.539 4.21392 -0.0262679 0
M  V30 2560 H 233.263 3.19373 0.683278 0
M  V30 2561 H 231.922 3.37054 -1.44189 0
M  V30 2562 H 231.57 5.01319 0.410827 0
M  V30 2563 H 231.27 5.75625 -1.18024 0
M  V30 2564 H 232.794 6.09799 -0.312695 0
M  V30 2565 H 234.208 5.20575 -2.40155 0
M  V30 2566 H 232.605 5.08682 -3.18375 0
M  V30 2567 H 233.675 3.6734 -3.16528 0
M  V30 2568 N 235.018 0.912232 1.28515 0
M  V30 2569 C 236.243 0.559774 1.99703 0
M  V30 2570 C 236.668 -0.851393 1.67729 0
M  V30 2571 O 236.026 -1.56875 0.908834 0
M  V30 2572 C 236.074 0.773874 3.52198 0
M  V30 2573 O 235.178 -0.167842 4.12058 0
M  V30 2574 H 234.519 0.21723 0.627461 0
M  V30 2575 H 237.049 1.22725 1.63706 0
M  V30 2576 H 237.059 0.683386 4.02236 0
M  V30 2577 H 235.734 1.80261 3.74805 0
M  V30 2578 H 234.311 -0.0287509 3.72889 0
M  V30 2579 N 236.496 -1.42363 0.676048 0
M  V30 2580 C 237.443 -2.308 -0.00150904 0
M  V30 2581 C 238.413 -1.46032 -0.791444 0
M  V30 2582 O 239.598 -1.74861 -0.76344 0
M  V30 2583 C 236.738 -3.31883 -0.945919 0
M  V30 2584 C 235.851 -4.31741 -0.149675 0
M  V30 2585 C 234.986 -5.19898 -1.08995 0
M  V30 2586 C 234.025 -6.11434 -0.285465 0
M  V30 2587 N 233.162 -6.92138 -1.17851 0
M  V30 2588 H 238.002 -2.88187 0.758455 0
M  V30 2589 H 235.539 -1.41952 0.38576 0
M  V30 2590 H 237.497 -3.89019 -1.50731 0
M  V30 2591 H 236.127 -2.76093 -1.6725 0
M  V30 2592 H 235.179 -3.76713 0.528359 0
M  V30 2593 H 236.491 -4.96534 0.474866 0
M  V30 2594 H 235.645 -5.81772 -1.72123 0
M  V30 2595 H 234.384 -4.55284 -1.74837 0
M  V30 2596 H 233.389 -5.48627 0.359018 0
M  V30 2597 H 234.614 -6.78097 0.368883 0
M  V30 2598 H 232.56 -6.30152 -1.82332 0
M  V30 2599 H 232.477 -7.53542 -0.609082 0
M  V30 2600 H 233.745 -7.58499 -1.79722 0
M  V30 2601 N 237.974 -0.419461 -1.51915 0
M  V30 2602 C 238.884 0.407528 -2.31033 0
M  V30 2603 C 239.9 1.04413 -1.3919 0
M  V30 2604 O 241.076 1.0434 -1.72265 0
M  V30 2605 C 238.141 1.50365 -3.12396 0
M  V30 2606 C 237.202 0.889029 -4.19994 0
M  V30 2607 C 236.435 1.93291 -4.97468 0
M  V30 2608 O 236.658 3.15259 -4.75361 0
M  V30 2609 O 235.592 1.53339 -5.8204 0
M  V30 2610 H 239.418 -0.237865 -3.02767 0
M  V30 2611 H 237.003 -0.182413 -1.48282 0
M  V30 2612 H 238.885 2.13975 -3.63032 0
M  V30 2613 H 237.56 2.13345 -2.43445 0
M  V30 2614 H 236.467 0.215353 -3.7348 0
M  V30 2615 H 237.8 0.302991 -4.91267 0
M  V30 2616 N 239.452 1.56882 -0.150215 0
M  V30 2617 C 240.698 1.96518 0.500834 0
M  V30 2618 C 241.031 1.03527 1.64304 0
M  V30 2619 O 240.306 0.0782751 1.94342 0
M  V30 2620 C 240.589 3.45822 1.00395 0
M  V30 2621 C 240.442 4.49591 -0.136983 0
M  V30 2622 C 241.761 3.97704 1.88467 0
M  V30 2623 H 238.88 0.714535 0.18058 0
M  V30 2624 H 241.522 1.88577 -0.232091 0
M  V30 2625 H 239.672 3.5272 1.62851 0
M  V30 2626 H 241.344 4.5477 -0.77343 0
M  V30 2627 H 239.587 4.26441 -0.795652 0
M  V30 2628 H 240.258 5.51402 0.256815 0
M  V30 2629 H 242.734 3.93304 1.35834 0
M  V30 2630 H 241.61 5.0263 2.20578 0
M  V30 2631 H 241.871 3.40252 2.82279 0
M  V30 2632 N 240.93 -0.123565 1.57115 0
M  V30 2633 C 241.863 -1.18202 1.95201 0
M  V30 2634 C 242.841 -1.40349 0.821031 0
M  V30 2635 O 244.025 -1.54578 1.07879 0
M  V30 2636 C 241.152 -2.53671 2.24429 0
M  V30 2637 C 240.198 -2.4798 3.46999 0
M  V30 2638 S 241.031 -1.92389 4.99747 0
M  V30 2639 C 242.187 -3.2954 5.32123 0
M  V30 2640 H 242.42 -0.857212 2.84674 0
M  V30 2641 H 239.953 -0.33014 1.50829 0
M  V30 2642 H 241.911 -3.3162 2.41947 0
M  V30 2643 H 240.572 -2.83332 1.35579 0
M  V30 2644 H 239.765 -3.47758 3.64801 0
M  V30 2645 H 239.367 -1.7815 3.28844 0
M  V30 2646 H 241.659 -4.25736 5.27025 0
M  V30 2647 H 242.602 -3.16569 6.33395 0
M  V30 2648 H 243.01 -3.27758 4.59603 0
M  V30 2649 N 242.408 -1.52605 -0.393616 0
M  V30 2650 C 243.655 -1.67424 -1.1391 0
M  V30 2651 C 243.983 -0.411859 -1.90089 0
M  V30 2652 O 243.238 0.605626 -1.86093 0
M  V30 2653 C 243.537 -2.85721 -2.14705 0
M  V30 2654 C 243.203 -4.23342 -1.55218 0
M  V30 2655 C 241.865 -4.60771 -1.3872 0
M  V30 2656 C 244.217 -5.09041 -1.11924 0
M  V30 2657 C 241.545 -5.81563 -0.774689 0
M  V30 2658 C 243.897 -6.30452 -0.520853 0
M  V30 2659 C 242.561 -6.66617 -0.343134 0
M  V30 2660 H 241.831 -0.612648 -0.416826 0
M  V30 2661 H 244.478 -1.8674 -0.424315 0
M  V30 2662 H 242.783 -2.60803 -2.92385 0
M  V30 2663 H 244.48 -2.94382 -2.72288 0
M  V30 2664 H 241.07 -3.93855 -1.69045 0
M  V30 2665 H 245.254 -4.80695 -1.23473 0
M  V30 2666 H 240.51 -6.08196 -0.625154 0
M  V30 2667 H 244.684 -6.96175 -0.177065 0
M  V30 2668 H 242.311 -7.60083 0.133571 0
M  V30 2669 N 243.887 0.651787 -1.4349 0
M  V30 2670 C 245.115 1.43937 -1.48626 0
M  V30 2671 C 245.53 1.8851 -0.104587 0
M  V30 2672 O 244.887 1.5958 0.885464 0
M  V30 2673 C 244.938 2.6734 -2.43334 0
M  V30 2674 O 244.659 2.24631 -3.76128 0
M  V30 2675 C 246.16 3.60683 -2.57726 0
M  V30 2676 H 243.38 0.44213 -0.504739 0
M  V30 2677 H 245.924 0.798944 -1.88248 0
M  V30 2678 H 244.079 3.2752 -2.06904 0
M  V30 2679 H 244.493 3.04485 -4.2707 0
M  V30 2680 H 245.967 4.43933 -3.28067 0
M  V30 2681 H 246.444 4.08126 -1.62265 0
M  V30 2682 H 247.05 3.06384 -2.94973 0
M  V30 2683 N 245.365 1.30045 0.890287 0
M  V30 2684 C 246.275 1.17885 2.02831 0
M  V30 2685 C 247.291 0.0999609 1.73713 0
M  V30 2686 O 248.467 0.313867 1.98939 0
M  V30 2687 C 245.532 0.866079 3.35708 0
M  V30 2688 C 244.593 2.02979 3.78283 0
M  V30 2689 C 243.826 1.73184 5.0482 0
M  V30 2690 O 244.049 0.657237 5.66601 0
M  V30 2691 O 242.983 2.58267 5.43674 0
M  V30 2692 H 246.809 2.13474 2.16015 0
M  V30 2693 H 244.394 1.09587 1.01543 0
M  V30 2694 H 246.276 0.706623 4.15433 0
M  V30 2695 H 244.951 -0.0599443 3.23644 0
M  V30 2696 H 243.858 2.24454 2.99285 0
M  V30 2697 H 245.191 2.93734 3.94944 0
M  V30 2698 N 246.843 -1.10192 1.12674 0
M  V30 2699 C 247.753 -2.20172 0.810026 0
M  V30 2700 C 248.769 -1.72821 -0.202188 0
M  V30 2701 O 249.945 -2.01369 -0.0351691 0
M  V30 2702 C 247.01 -3.45631 0.272007 0
M  V30 2703 C 246.071 -4.07704 1.34447 0
M  V30 2704 C 245.304 -5.27175 0.832029 0
M  V30 2705 O 245.527 -5.69425 -0.333284 0
M  V30 2706 O 244.461 -5.80168 1.60277 0
M  V30 2707 H 248.287 -2.49701 1.72867 0
M  V30 2708 H 245.872 -1.18977 0.903597 0
M  V30 2709 H 247.754 -4.21394 -0.0230219 0
M  V30 2710 H 246.429 -3.17723 -0.619164 0
M  V30 2711 H 245.336 -3.33614 1.6927 0
M  V30 2712 H 246.669 -4.3982 2.2095 0
M  V30 2713 N 248.321 -0.919034 -1.28029 0
M  V30 2714 C 249.598 -0.473668 -1.89778 0
M  V30 2715 C 249.978 1.04783 -1.83259 0
M  V30 2716 O 249.326 1.8982 -1.27202 0
M  V30 2717 C 249.536 -1.00998 -3.34066 0
M  V30 2718 C 250.884 -1.06525 -4.1102 0
M  V30 2719 O 251.908 -0.958996 -3.43048 0
M  V30 2720 O 250.767 -1.22776 -5.3253 0
M  V30 2721 H 247.861 -0.15098 -0.813101 0
M  V30 2722 H 250.407 -1.01016 -1.36359 0
M  V30 2723 H 249.179 -2.05392 -3.33061 0
M  V30 2724 H 248.802 -0.454626 -3.94992 0
M  V30 2725 N 249.799 1.42003 -0.683588 0
M  V30 2726 C 251.045 2.01712 -0.209825 0
M  V30 2727 C 251.378 1.53968 1.18353 0
M  V30 2728 O 250.653 0.745661 1.79639 0
M  V30 2729 C 250.936 3.59202 -0.254197 0
M  V30 2730 C 250.789 4.17102 -1.68363 0
M  V30 2731 C 252.108 4.38344 0.392709 0
M  V30 2732 H 249.227 0.732891 -0.0777189 0
M  V30 2733 H 251.869 1.68909 -0.87004 0
M  V30 2734 H 250.019 3.87278 0.307954 0
M  V30 2735 H 251.691 3.99946 -2.29871 0
M  V30 2736 H 249.934 3.72597 -2.22157 0
M  V30 2737 H 250.605 5.26249 -1.6663 0
M  V30 2738 H 253.081 4.16011 -0.0859162 0
M  V30 2739 H 251.957 5.47901 0.331063 0
M  V30 2740 H 252.218 4.16887 1.47164 0
M  V30 2741 N 251.277 0.427512 1.51691 0
M  V30 2742 C 252.224 -0.388867 2.275 0
M  V30 2743 C 253.194 -1.02532 1.30677 0
M  V30 2744 O 254.379 -1.0461 1.59566 0
M  V30 2745 C 251.519 -1.48954 3.11298 0
M  V30 2746 C 250.632 -0.872194 4.23104 0
M  V30 2747 C 249.767 -1.94709 4.94228 0
M  V30 2748 C 248.806 -1.30766 5.97969 0
M  V30 2749 N 247.943 -2.32349 6.62539 0
M  V30 2750 H 252.783 0.263997 2.96828 0
M  V30 2751 H 250.32 0.142033 1.46413 0
M  V30 2752 H 252.278 -2.13887 3.58201 0
M  V30 2753 H 250.908 -2.11217 2.44105 0
M  V30 2754 H 249.96 -0.111419 3.80237 0
M  V30 2755 H 251.272 -0.365264 4.97461 0
M  V30 2756 H 250.426 -2.67327 5.44629 0
M  V30 2757 H 249.165 -2.48773 4.1948 0
M  V30 2758 H 248.17 -0.566902 5.4687 0
M  V30 2759 H 249.395 -0.774483 6.74669 0
M  V30 2760 H 247.341 -2.85511 5.90609 0
M  V30 2761 H 247.258 -1.8652 7.3263 0
M  V30 2762 H 248.526 -3.04481 7.17574 0
M  V30 2763 N 252.755 -1.56801 0.158532 0
M  V30 2764 C 254.002 -1.9649 -0.489679 0
M  V30 2765 C 254.33 -1.04394 -1.6411 0
M  V30 2766 O 253.585 -0.0754401 -1.95555 0
M  V30 2767 C 253.884 -3.4235 -1.02623 0
M  V30 2768 C 253.55 -4.50899 0.00794526 0
M  V30 2769 C 252.212 -4.80312 0.292207 0
M  V30 2770 C 254.564 -5.16333 0.710584 0
M  V30 2771 C 251.892 -5.72461 1.28472 0
M  V30 2772 C 254.244 -6.09553 1.69199 0
M  V30 2773 C 252.908 -6.37339 1.98383 0
M  V30 2774 H 252.178 -0.719009 -0.179186 0
M  V30 2775 H 254.825 -1.8989 0.247798 0
M  V30 2776 H 253.13 -3.45838 -1.84128 0
M  V30 2777 H 254.827 -3.70393 -1.53656 0
M  V30 2778 H 251.417 -4.28015 -0.22379 0
M  V30 2779 H 255.601 -4.93732 0.504174 0
M  V30 2780 H 250.857 -5.92278 1.51714 0
M  V30 2781 H 255.031 -6.59327 2.24189 0
M  V30 2782 H 252.658 -7.08546 2.7544 0
M  V30 2783 N 254.233 0.115231 -1.57178 0
M  V30 2784 C 255.463 0.835224 -1.88964 0
M  V30 2785 C 255.871 1.73774 -0.74829 0
M  V30 2786 O 255.214 1.81401 0.289739 0
M  V30 2787 C 255.276 1.7178 -3.15804 0
M  V30 2788 C 254.94 0.989198 -4.46166 0
M  V30 2789 C 255.937 0.328263 -5.18863 0
M  V30 2790 C 253.622 0.969256 -4.9286 0
M  V30 2791 C 255.616 -0.342873 -6.36477 0
M  V30 2792 C 253.303 0.294324 -6.10391 0
M  V30 2793 C 254.301 -0.360582 -6.82048 0
M  V30 2794 O 253.989 -1.02474 -7.97342 0
M  V30 2795 H 253.721 0.245197 -0.629964 0
M  V30 2796 H 256.275 0.10303 -2.05141 0
M  V30 2797 H 254.505 2.49173 -2.95719 0
M  V30 2798 H 256.194 2.31255 -3.33581 0
M  V30 2799 H 256.96 0.335263 -4.8384 0
M  V30 2800 H 252.839 1.46844 -4.36987 0
M  V30 2801 H 256.383 -0.854629 -6.92345 0
M  V30 2802 H 252.28 0.285099 -6.4487 0
M  V30 2803 H 253.048 -0.929594 -8.13204 0
M  V30 2804 N 255.711 1.52812 0.385517 0
M  V30 2805 C 256.641 1.80808 1.47752 0
M  V30 2806 C 257.622 0.660318 1.5676 0
M  V30 2807 O 258.807 0.908246 1.71652 0
M  V30 2808 C 255.937 1.98008 2.85324 0
M  V30 2809 C 254.891 3.13709 2.91154 0
M  V30 2810 C 254.217 3.16169 4.31209 0
M  V30 2811 C 255.517 4.52709 2.60483 0
M  V30 2812 H 257.211 2.72253 1.24573 0
M  V30 2813 H 254.757 1.31003 0.597839 0
M  V30 2814 H 256.71 2.16176 3.61726 0
M  V30 2815 H 255.434 1.03255 3.09848 0
M  V30 2816 H 254.093 2.95329 2.17201 0
M  V30 2817 H 253.741 2.19092 4.52778 0
M  V30 2818 H 253.441 3.93894 4.36029 0
M  V30 2819 H 254.965 3.36496 5.09512 0
M  V30 2820 H 256.379 4.71173 3.26602 0
M  V30 2821 H 254.776 5.32528 2.76648 0
M  V30 2822 H 255.846 4.59186 1.55809 0
M  V30 2823 N 257.189 -0.644168 1.43834 0
M  V30 2824 C 258.152 -1.73857 1.49353 0
M  V30 2825 C 259.152 -1.56315 0.377112 0
M  V30 2826 O 260.342 -1.62048 0.639226 0
M  V30 2827 C 257.474 -3.12819 1.35488 0
M  V30 2828 H 258.667 -1.70342 2.46827 0
M  V30 2829 H 256.22 -0.856652 1.30733 0
M  V30 2830 H 256.955 -3.2194 0.390569 0
M  V30 2831 H 256.74 -3.26958 2.16428 0
M  V30 2832 H 258.23 -3.92606 1.42302 0
M  V30 2833 N 258.668 -1.30515 -0.883378 0
M  V30 2834 C 259.578 -1.18959 -2.02203 0
M  V30 2835 C 260.594 -0.109172 -1.73657 0
M  V30 2836 O 261.77 -0.324413 -1.9877 0
M  V30 2837 C 258.835 -0.883871 -3.35244 0
M  V30 2838 C 257.896 -2.04982 -3.77201 0
M  V30 2839 C 257.129 -1.75859 -5.03894 0
M  V30 2840 O 257.352 -0.687276 -5.66244 0
M  V30 2841 O 256.286 -2.61146 -5.42297 0
M  V30 2842 H 260.112 -2.14616 -2.1488 0
M  V30 2843 H 257.697 -1.10124 -1.0096 0
M  V30 2844 H 259.579 -0.728644 -4.15053 0
M  V30 2845 H 258.254 0.0427798 -3.23672 0
M  V30 2846 H 257.161 -2.26038 -2.9809 0
M  V30 2847 H 258.494 -2.95825 -3.93381 0
M  V30 2848 N 260.146 1.09593 -1.13257 0
M  V30 2849 C 261.076 2.18214 -0.830946 0
M  V30 2850 C 262.057 1.68812 0.208966 0
M  V30 2851 O 263.242 1.9408 0.0682666 0
M  V30 2852 C 260.372 3.46051 -0.294296 0
M  V30 2853 C 259.326 4.08778 -1.26826 0
M  V30 2854 C 258.652 5.31419 -0.591449 0
M  V30 2855 C 259.952 4.51476 -2.62615 0
M  V30 2856 H 261.646 2.43703 -1.73923 0
M  V30 2857 H 259.192 1.17128 -0.837675 0
M  V30 2858 H 261.145 4.2134 -0.0709606 0
M  V30 2859 H 259.869 3.20079 0.649366 0
M  V30 2860 H 258.528 3.35505 -1.47756 0
M  V30 2861 H 258.176 5.01727 0.357633 0
M  V30 2862 H 257.876 5.74341 -1.24123 0
M  V30 2863 H 259.4 6.09433 -0.377355 0
M  V30 2864 H 260.814 5.17999 -2.45663 0
M  V30 2865 H 259.211 5.05277 -3.23752 0
M  V30 2866 H 260.281 3.63962 -3.20406 0
M  V30 2867 N 261.624 0.925811 1.2754 0
M  V30 2868 C 262.587 0.428129 2.25166 0
M  V30 2869 C 263.587 -0.452261 1.54309 0
M  V30 2870 O 264.777 -0.253608 1.72344 0
M  V30 2871 C 261.909 -0.384749 3.38722 0
M  V30 2872 H 263.102 1.29066 2.70706 0
M  V30 2873 H 260.655 0.706323 1.3943 0
M  V30 2874 H 261.39 -1.26618 2.98561 0
M  V30 2875 H 261.175 0.246454 3.91325 0
M  V30 2876 H 262.665 -0.723389 4.11287 0
M  V30 2877 N 263.102 -1.41638 0.69111 0
M  V30 2878 C 264.032 -2.3347 0.037248 0
M  V30 2879 C 265.013 -1.51575 -0.771947 0
M  V30 2880 O 266.198 -1.80126 -0.72582 0
M  V30 2881 C 263.328 -3.35354 -0.903064 0
M  V30 2882 C 262.282 -4.27526 -0.201288 0
M  V30 2883 C 261.608 -5.19747 -1.25565 0
M  V30 2884 C 262.908 -5.13959 0.929689 0
M  V30 2885 H 264.602 -2.88397 0.804227 0
M  V30 2886 H 262.148 -1.38669 0.388189 0
M  V30 2887 H 264.101 -3.98519 -1.36969 0
M  V30 2888 H 262.825 -2.78767 -1.70166 0
M  V30 2889 H 261.484 -3.65779 0.245265 0
M  V30 2890 H 261.132 -4.59479 -2.04666 0
M  V30 2891 H 260.832 -5.8225 -0.791128 0
M  V30 2892 H 262.356 -5.85789 -1.72288 0
M  V30 2893 H 263.77 -5.70718 0.543546 0
M  V30 2894 H 262.167 -5.85379 1.32103 0
M  V30 2895 H 263.237 -4.51389 1.77133 0
M  V30 2896 N 264.58 -0.43555 -1.51462 0
M  V30 2897 C 265.543 0.365137 -2.26273 0
M  V30 2898 C 266.543 0.951227 -1.29647 0
M  V30 2899 O 267.733 0.825958 -1.53374 0
M  V30 2900 C 264.865 1.51645 -3.05314 0
M  V30 2901 H 266.058 -0.290474 -2.9849 0
M  V30 2902 H 263.611 -0.188676 -1.55157 0
M  V30 2903 H 264.346 2.20816 -2.3751 0
M  V30 2904 H 264.131 1.10238 -3.76284 0
M  V30 2905 H 265.621 2.08218 -3.61987 0
M  V30 2906 N 266.058 1.56714 -0.166846 0
M  V30 2907 C 266.988 2.20754 0.760913 0
M  V30 2908 C 267.969 1.16178 1.24244 0
M  V30 2909 O 269.154 1.44592 1.29641 0
M  V30 2910 C 266.284 2.84478 1.99223 0
M  V30 2911 C 265.238 3.95053 1.64672 0
M  V30 2912 C 264.564 4.45805 2.95232 0
M  V30 2913 C 265.864 5.14865 0.878155 0
M  V30 2914 H 267.558 2.98537 0.22713 0
M  V30 2915 H 265.104 1.43596 0.107805 0
M  V30 2916 H 267.057 3.27951 2.64624 0
M  V30 2917 H 265.781 2.04056 2.55007 0
M  V30 2918 H 264.44 3.52228 1.01641 0
M  V30 2919 H 264.088 3.62181 3.49047 0
M  V30 2920 H 263.788 5.204 2.7287 0
M  V30 2921 H 265.312 4.91962 3.6167 0
M  V30 2922 H 266.726 5.55059 1.43466 0
M  V30 2923 H 265.123 5.95348 0.753738 0
M  V30 2924 H 266.193 4.84735 -0.126377 0
M  V30 2925 N 267.536 -0.106894 1.57237 0
M  V30 2926 C 268.813 -0.843526 1.76477 0
M  V30 2927 C 269.193 -1.97499 0.745464 0
M  V30 2928 O 268.541 -2.27357 -0.228306 0
M  V30 2929 C 268.751 -1.34903 3.21873 0
M  V30 2930 C 270.099 -1.79654 3.8472 0
M  V30 2931 O 271.123 -1.44554 3.2555 0
M  V30 2932 O 269.982 -2.44515 4.88748 0
M  V30 2933 H 267.076 -0.401468 0.723016 0
M  V30 2934 H 269.622 -0.0896927 1.69463 0
M  V30 2935 H 268.394 -0.53781 3.87586 0
M  V30 2936 H 268.017 -2.16522 3.33473 0
M  V30 2937 N 269.014 -1.53014 -0.377408 0
M  V30 2938 C 269.964 -1.74996 -1.46152 0
M  V30 2939 C 270.948 -0.604236 -1.49123 0
M  V30 2940 O 272.14 -0.862489 -1.54564 0
M  V30 2941 C 269.269 -1.93267 -2.8373 0
M  V30 2942 C 268.355 -3.13807 -2.85283 0
M  V30 2943 N 268.746 -4.35941 -2.56493 0
M  V30 2944 C 267.044 -3.14288 -3.16448 0
M  V30 2945 C 267.745 -5.17615 -2.65424 0
M  V30 2946 N 266.721 -4.53559 -2.99641 0
M  V30 2947 H 270.523 -2.67044 -1.22738 0
M  V30 2948 H 268.037 -1.51479 -0.585479 0
M  V30 2949 H 270.034 -2.0714 -3.61799 0
M  V30 2950 H 268.694 -1.0244 -3.08117 0
M  V30 2951 H 269.705 -4.63876 -2.30302 0
M  V30 2952 H 266.382 -2.33312 -3.46225 0
M  V30 2953 H 267.772 -6.25006 -2.46612 0
M  V30 2954 N 270.492 0.636531 -1.44174 0
M  V30 2955 C 271.422 1.76003 -1.53444 0
M  V30 2956 C 272.403 1.65619 -0.387841 0
M  V30 2957 O 273.588 1.84461 -0.607257 0
M  V30 2958 C 270.718 3.14511 -1.4731 0
M  V30 2959 C 269.672 3.39677 -2.60391 0
M  V30 2960 C 268.998 4.78159 -2.39308 0
M  V30 2961 C 270.298 3.32772 -4.02567 0
M  V30 2962 H 271.992 1.68501 -2.47483 0
M  V30 2963 H 269.538 0.809237 -1.19111 0
M  V30 2964 H 271.491 3.92878 -1.52397 0
M  V30 2965 H 270.215 3.22783 -0.49785 0
M  V30 2966 H 268.874 2.63688 -2.54684 0
M  V30 2967 H 268.522 4.83128 -1.39988 0
M  V30 2968 H 268.222 4.95956 -3.15122 0
M  V30 2969 H 269.746 5.58762 -2.46205 0
M  V30 2970 H 271.16 4.01051 -4.09672 0
M  V30 2971 H 269.557 3.62104 -4.7854 0
M  V30 2972 H 270.627 2.30669 -4.2652 0
M  V30 2973 N 271.97 1.30982 0.876444 0
M  V30 2974 C 272.92 1.14688 1.97055 0
M  V30 2975 C 273.904 0.0596593 1.60789 0
M  V30 2976 O 275.096 0.283892 1.74708 0
M  V30 2977 C 272.225 0.849627 3.3262 0
M  V30 2978 C 271.311 1.97752 3.75173 0
M  V30 2979 N 271.702 3.22384 3.89746 0
M  V30 2980 C 270 1.8758 4.04635 0
M  V30 2981 C 270.701 3.96121 4.25985 0
M  V30 2982 N 269.677 3.24237 4.36315 0
M  V30 2983 H 273.479 2.09204 2.06424 0
M  V30 2984 H 270.993 1.22445 1.06682 0
M  V30 2985 H 272.99 0.713895 4.10742 0
M  V30 2986 H 271.65 -0.087376 3.24582 0
M  V30 2987 H 272.661 3.57575 3.74647 0
M  V30 2988 H 269.338 1.01303 4.05024 0
M  V30 2989 H 270.728 5.03491 4.44911 0
M  V30 2990 N 273.449 -1.08991 1.13837 0
M  V30 2991 C 274.674 -1.85551 0.926585 0
M  V30 2992 C 275.099 -1.80782 -0.519566 0
M  V30 2993 O 274.457 -1.18855 -1.36906 0
M  V30 2994 C 274.505 -3.31266 1.42462 0
M  V30 2995 O 273.609 -4.07822 0.612789 0
M  V30 2996 H 272.95 -0.575192 0.331738 0
M  V30 2997 H 275.48 -1.37604 1.51414 0
M  V30 2998 H 275.49 -3.82112 1.43019 0
M  V30 2999 H 274.165 -3.34052 2.47754 0
M  V30 3000 H 272.742 -3.66731 0.675463 0
M  V30 3001 N 274.927 -0.932562 -1.27047 0
M  V30 3002 C 275.857 -0.452902 -2.29066 0
M  V30 3003 C 276.838 0.489338 -1.62909 0
M  V30 3004 O 278.023 0.393046 -1.90181 0
M  V30 3005 C 275.153 0.290698 -3.46081 0
M  V30 3006 C 274.107 -0.564168 -4.24265 0
M  V30 3007 C 273.433 0.308886 -5.33807 0
M  V30 3008 C 274.733 -1.83112 -4.89149 0
M  V30 3009 H 276.427 -1.30552 -2.69437 0
M  V30 3010 H 273.973 -0.629201 -1.29526 0
M  V30 3011 H 275.926 0.637233 -4.16554 0
M  V30 3012 H 274.65 1.17738 -3.0464 0
M  V30 3013 H 273.309 -0.893477 -3.55545 0
M  V30 3014 H 272.957 1.19467 -4.88607 0
M  V30 3015 H 272.657 -0.259633 -5.87026 0
M  V30 3016 H 274.181 0.650884 -6.07121 0
M  V30 3017 H 275.595 -1.55236 -5.51883 0
M  V30 3018 H 273.992 -2.34353 -5.52448 0
M  V30 3019 H 275.062 -2.54772 -4.12576 0
M  V30 3020 N 276.405 1.4127 -0.698611 0
M  V30 3021 C 277.653 2.00782 -0.230409 0
M  V30 3022 C 277.974 1.5562 1.17505 0
M  V30 3023 O 277.244 0.78815 1.79346 0
M  V30 3024 H 275.824 0.742464 -0.0821944 0
M  V30 3025 H 278.486 1.72852 -0.90045 0
M  V30 3026 H 277.582 3.11095 -0.25021 0
M  V30 3027 N 277.883 0.443576 1.51229 0
M  V30 3028 C 279.132 -0.122332 2.01329 0
M  V30 3029 C 279.445 -1.43237 1.33201 0
M  V30 3030 O 280.651 -2.0816 1.74304 0
M  V30 3031 C 279.107 -0.268551 3.58897 0
M  V30 3032 C 278.715 1.03142 4.35965 0
M  V30 3033 C 280.459 -0.787894 4.17124 0
M  V30 3034 C 278.366 0.850504 5.85252 0
M  V30 3035 H 277.296 -0.0494929 0.752374 0
M  V30 3036 H 279.947 0.574289 1.74282 0
M  V30 3037 H 278.329 -1.02832 3.82415 0
M  V30 3038 H 279.503 1.80001 4.24189 0
M  V30 3039 H 277.818 1.47977 3.89219 0
M  V30 3040 H 280.415 -0.939841 5.26375 0
M  V30 3041 H 280.758 -1.77201 3.76703 0
M  V30 3042 H 281.291 -0.0862669 3.97706 0
M  V30 3043 H 278.03 1.80718 6.30096 0
M  V30 3044 H 277.55 0.121825 5.99676 0
M  V30 3045 H 279.229 0.506163 6.45017 0
M  V30 3046 N 279.361 -1.56624 0.175154 0
M  V30 3047 C 280.61 -1.96173 -0.468921 0
M  V30 3048 C 280.923 -1.06401 -1.64128 0
M  V30 3049 O 282.129 -1.35648 -2.35185 0
M  V30 3050 C 280.585 -3.48833 -0.885633 0
M  V30 3051 C 280.193 -4.47237 0.261343 0
M  V30 3052 C 281.937 -3.97194 -1.49791 0
M  V30 3053 C 279.844 -5.9114 -0.175214 0
M  V30 3054 H 278.774 -0.732455 -0.178958 0
M  V30 3055 H 281.425 -1.81591 0.263997 0
M  V30 3056 H 279.807 -3.58848 -1.67464 0
M  V30 3057 H 280.981 -4.4894 1.03871 0
M  V30 3058 H 279.296 -4.08956 0.783827 0
M  V30 3059 H 281.893 -5.02167 -1.83665 0
M  V30 3060 H 282.236 -3.40351 -2.39722 0
M  V30 3061 H 282.769 -3.90212 -0.773267 0
M  V30 3062 H 279.508 -6.51865 0.689414 0
M  V30 3063 H 279.028 -5.92735 -0.91786 0
M  V30 3064 H 280.707 -6.44044 -0.617792 0
M  V30 3065 N 280.839 0.0985539 -1.57292 0
M  V30 3066 C 282.069 0.815135 -1.8984 0
M  V30 3067 C 282.477 1.7297 -0.766679 0
M  V30 3068 O 281.82 1.81698 0.270483 0
M  V30 3069 C 281.882 1.6842 -3.17608 0
M  V30 3070 C 281.546 0.94182 -4.4719 0
M  V30 3071 C 282.543 0.273212 -5.19182 0
M  V30 3072 C 280.228 0.916927 -4.9386 0
M  V30 3073 C 282.222 -0.410361 -6.36078 0
M  V30 3074 C 279.909 0.229567 -6.10669 0
M  V30 3075 C 280.907 -0.432902 -6.81627 0
M  V30 3076 O 280.595 -1.10925 -7.9621 0
M  V30 3077 H 280.327 0.238501 -0.632529 0
M  V30 3078 H 282.881 0.0812659 -2.05239 0
M  V30 3079 H 281.111 2.46022 -2.98345 0
M  V30 3080 H 282.8 2.27704 -3.36015 0
M  V30 3081 H 283.566 0.283927 -4.84168 0
M  V30 3082 H 279.445 1.42201 -4.3852 0
M  V30 3083 H 282.989 -0.928013 -6.914 0
M  V30 3084 H 278.886 0.216686 -6.45136 0
M  V30 3085 H 279.654 -1.01579 -8.12172 0
M  V30 3086 N 282.317 1.53212 0.369288 0
M  V30 3087 C 283.733 1.42902 0.710712 0
M  V30 3088 C 283.933 0.565135 1.93413 0
M  V30 3089 O 282.989 0.0461484 2.52458 0
M  V30 3090 C 284.302 2.86042 0.927382 0
M  V30 3091 C 285.85 2.9565 1.02762 0
M  V30 3092 C 286.325 4.39843 1.27679 0
M  V30 3093 N 287.816 4.43256 1.34457 0
M  V30 3094 C 288.551 5.51929 1.55439 0
M  V30 3095 N 288.047 6.70655 1.73762 0
M  V30 3096 N 289.84 5.39502 1.57779 0
M  V30 3097 H 281.991 2.07888 -0.435457 0
M  V30 3098 H 284.254 0.938661 -0.132739 0
M  V30 3099 H 283.96 3.51557 0.100287 0
M  V30 3100 H 283.834 3.29472 1.83653 0
M  V30 3101 H 286.221 2.30291 1.84527 0
M  V30 3102 H 286.302 2.5562 0.0959504 0
M  V30 3103 H 285.946 5.05774 0.464175 0
M  V30 3104 H 285.876 4.77443 2.22162 0
M  V30 3105 H 288.367 3.5769 1.21926 0
M  V30 3106 H 288.68 7.49248 1.89335 0
M  V30 3107 H 287.025 6.73648 1.70948 0
M  V30 3108 H 290.216 4.45713 1.43029 0
M  V30 3109 H 290.389 6.2426 1.7379 0
M  V30 3110 N 283.795 -0.628877 1.44509 0
M  V30 3111 C 285.072 -1.38733 1.37886 0
M  V30 3112 C 285.452 -2.11065 0.0387008 0
M  V30 3113 O 284.8 -2.06476 -0.97878 0
M  V30 3114 C 285.01 -2.35188 2.57852 0
M  V30 3115 C 286.358 -2.9845 3.02014 0
M  V30 3116 O 287.382 -2.45513 2.58073 0
M  V30 3117 O 286.241 -3.94487 3.78209 0
M  V30 3118 H 283.335 -0.621015 0.54614 0
M  V30 3119 H 285.881 -0.653744 1.56602 0
M  V30 3120 H 284.653 -1.80855 3.46998 0
M  V30 3121 H 284.276 -3.1596 2.4136 0
M  V30 3122 N 285.273 -1.31445 -0.869486 0
M  V30 3123 C 286.203 -1.21727 -1.99261 0
M  V30 3124 C 287.184 -0.104359 -1.6978 0
M  V30 3125 O 288.369 -0.289038 -1.92037 0
M  V30 3126 C 285.499 -0.924317 -3.34774 0
M  V30 3127 C 284.453 -1.99685 -3.78563 0
M  V30 3128 C 283.779 -1.55658 -5.11541 0
M  V30 3129 C 285.079 -3.41003 -3.95619 0
M  V30 3130 H 286.773 -2.1569 -2.07649 0
M  V30 3131 H 284.319 -1.03839 -0.997675 0
M  V30 3132 H 286.272 -0.842934 -4.12883 0
M  V30 3133 H 284.996 0.0509793 -3.2656 0
M  V30 3134 H 283.655 -2.06813 -3.02694 0
M  V30 3135 H 283.303 -0.569132 -4.9977 0
M  V30 3136 H 283.003 -2.27409 -5.41811 0
M  V30 3137 H 284.527 -1.48928 -5.92159 0
M  V30 3138 H 285.941 -3.36547 -4.64122 0
M  V30 3139 H 284.338 -4.10975 -4.37286 0
M  V30 3140 H 285.408 -3.81754 -2.98985 0
M  V30 3141 N 286.751 1.08385 -1.14413 0
M  V30 3142 C 287.698 2.15311 -0.831265 0
M  V30 3143 C 288.668 1.64751 0.211292 0
M  V30 3144 O 289.853 1.90627 0.0811674 0
M  V30 3145 C 286.993 3.43658 -0.315143 0
M  V30 3146 C 286.106 4.08064 -1.41802 0
M  V30 3147 C 285.241 5.24207 -0.859126 0
M  V30 3148 C 284.28 5.80554 -1.93967 0
M  V30 3149 N 283.417 6.88042 -1.39793 0
M  V30 3150 H 288.257 2.41415 -1.74708 0
M  V30 3151 H 285.794 1.18474 -0.871909 0
M  V30 3152 H 287.752 4.172 0.00230884 0
M  V30 3153 H 286.382 3.17839 0.56378 0
M  V30 3154 H 285.434 3.3228 -1.85187 0
M  V30 3155 H 286.746 4.45962 -2.23427 0
M  V30 3156 H 285.9 6.04689 -0.49359 0
M  V30 3157 H 284.639 4.87699 -0.011932 0
M  V30 3158 H 283.644 4.98725 -2.31415 0
M  V30 3159 H 284.869 6.19121 -2.79046 0
M  V30 3160 H 282.815 6.53493 -0.572919 0
M  V30 3161 H 282.732 7.24767 -2.15054 0
M  V30 3162 H 284 7.72255 -1.0603 0
M  V30 3163 N 288.23 0.939286 1.26551 0
M  V30 3164 C 289.641 0.628782 1.75793 0
M  V30 3165 C 289.992 -0.856046 1.7654 0
M  V30 3166 O 289.117 -1.66994 1.3763 0
M  V30 3167 C 289.712 1.13465 3.19235 0
M  V30 3168 C 288.271 0.874601 3.66098 0
M  V30 3169 C 287.418 1.28667 2.45642 0
M  V30 3170 H 290.369 1.1178 1.12654 0
M  V30 3171 H 290.39 0.487609 3.77363 0
M  V30 3172 H 289.902 2.21535 3.1866 0
M  V30 3173 H 288.003 -0.191793 3.72106 0
M  V30 3174 H 288.116 1.50028 4.55004 0
M  V30 3175 H 286.48 0.705109 2.44745 0
M  V30 3176 H 287.263 2.37625 2.47769 0
M  V30 3177 N 289.708 -1.40897 0.706093 0
M  V30 3178 C 290.618 -2.3455 0.0482286 0
M  V30 3179 C 291.634 -1.56796 -0.754396 0
M  V30 3180 O 292.81 -1.89228 -0.689538 0
M  V30 3181 C 289.875 -3.35625 -0.869303 0
M  V30 3182 C 288.936 -4.29261 -0.0576994 0
M  V30 3183 C 288.169 -5.25508 -0.931531 0
M  V30 3184 O 288.392 -5.27472 -2.17092 0
M  V30 3185 O 287.326 -6.00727 -0.375587 0
M  V30 3186 H 291.152 -2.92407 0.820476 0
M  V30 3187 H 288.737 -1.4193 0.4665 0
M  V30 3188 H 290.619 -3.97635 -1.39514 0
M  V30 3189 H 289.294 -2.80196 -1.62086 0
M  V30 3190 H 288.201 -3.70566 0.512988 0
M  V30 3191 H 289.534 -4.87817 0.655426 0
M  V30 3192 N 291.186 -0.45159 -1.50991 0
M  V30 3193 C 292.134 0.366864 -2.29689 0
M  V30 3194 C 293.128 1.00809 -1.36139 0
M  V30 3195 O 294.334 0.941427 -1.53418 0
M  V30 3196 H 290.709 0.137133 -0.739391 0
M  V30 3197 H 292.68 -0.317538 -2.96706 0
M  V30 3198 C 291.429 1.44751 -3.16137 0
M  V30 3199 H 290.752 0.963473 -3.88017 0
M  V30 3200 H 292.192 1.99315 -3.74232 0
M  V30 3201 C 290.651 2.43869 -2.32442 0
M  V30 3202 O 291.181 3.4872 -1.99392 0
M  V30 3203 N 289.387 2.15105 -1.95392 0
M  V30 3204 H 288.934 1.29866 -2.22469 0
M  V30 3205 H 288.892 2.81661 -1.39693 0
M  V30 3206 N 292.664 1.56529 -0.183458 0
M  V30 3207 C 293.913 1.96419 0.458511 0
M  V30 3208 C 294.226 1.0727 1.63562 0
M  V30 3209 O 295.432 1.36893 2.34462 0
M  V30 3210 C 293.888 3.49298 0.867122 0
M  V30 3211 C 293.496 4.47092 -0.285057 0
M  V30 3212 C 295.24 3.97983 1.47683 0
M  V30 3213 C 293.147 5.91225 0.143862 0
M  V30 3214 H 292.077 0.733394 0.175071 0
M  V30 3215 H 294.728 1.81448 -0.273624 0
M  V30 3216 H 293.11 3.59731 1.65559 0
M  V30 3217 H 294.284 4.48383 -1.0625 0
M  V30 3218 H 292.599 4.08535 -0.805503 0
M  V30 3219 H 295.196 5.03134 1.80999 0
M  V30 3220 H 295.539 3.41618 2.37914 0
M  V30 3221 H 296.072 3.90617 0.752562 0
M  V30 3222 H 292.811 6.5149 -0.723974 0
M  V30 3223 H 292.331 5.93214 0.886413 0
M  V30 3224 H 294.01 6.44362 0.583628 0
M  V30 3225 N 294.142 -0.090211 1.57342 0
M  V30 3226 C 295.072 -1.10976 2.05443 0
M  V30 3227 C 296.053 -1.41482 0.944284 0
M  V30 3228 O 297.238 -1.51428 1.21586 0
M  V30 3229 C 294.368 -2.42831 2.48295 0
M  V30 3230 C 293.322 -2.26721 3.63018 0
M  V30 3231 C 292.648 -3.63796 3.91863 0
M  V30 3232 C 293.948 -1.7037 4.93732 0
M  V30 3233 H 295.642 -0.709564 2.9087 0
M  V30 3234 H 293.188 -0.339874 1.39932 0
M  V30 3235 H 295.141 -3.14431 2.80555 0
M  V30 3236 H 293.865 -2.84795 1.59873 0
M  V30 3237 H 292.524 -1.57565 3.31012 0
M  V30 3238 H 292.172 -4.03297 3.00601 0
M  V30 3239 H 291.872 -3.53861 4.69101 0
M  V30 3240 H 293.396 -4.36855 4.26603 0
M  V30 3241 H 294.81 -2.31816 5.24342 0
M  V30 3242 H 293.207 -1.71181 5.75167 0
M  V30 3243 H 294.277 -0.663542 4.80339 0
M  V30 3244 N 295.62 -1.53406 -0.361157 0
M  V30 3245 C 296.55 -1.83136 -1.44857 0
M  V30 3246 C 297.531 -0.685174 -1.5569 0
M  V30 3247 O 298.716 -0.93544 -1.70186 0
M  V30 3248 C 295.846 -2.02522 -2.82138 0
M  V30 3249 C 294.8 -3.18302 -2.86126 0
M  V30 3250 C 294.126 -3.22989 -4.26125 0
M  V30 3251 C 295.426 -4.56796 -2.53248 0
M  V30 3252 H 297.12 -2.74201 -1.20226 0
M  V30 3253 H 294.666 -1.31938 -0.576922 0
M  V30 3254 H 296.619 -2.21904 -3.58241 0
M  V30 3255 H 295.343 -1.08172 -3.08166 0
M  V30 3256 H 294.002 -2.98747 -2.12475 0
M  V30 3257 H 293.65 -2.26267 -4.49235 0
M  V30 3258 H 293.35 -4.00781 -4.29708 0
M  V30 3259 H 294.874 -3.44559 -5.04094 0
M  V30 3260 H 296.288 -4.7631 -3.19064 0
M  V30 3261 H 294.685 -5.36862 -2.68141 0
M  V30 3262 H 295.755 -4.61606 -1.48484 0
M  V30 3263 N 297.098 0.621204 -1.44841 0
M  V30 3264 C 298.375 1.38 -1.38619 0
M  V30 3265 C 298.755 2.11041 -0.0498935 0
M  V30 3266 O 298.103 2.06992 0.967816 0
M  V30 3267 C 298.313 2.33817 -2.59096 0
M  V30 3268 C 299.661 2.96844 -3.03593 0
M  V30 3269 O 300.685 2.44141 -2.59371 0
M  V30 3270 O 299.544 3.92476 -3.80296 0
M  V30 3271 H 296.638 0.61811 -0.549426 0
M  V30 3272 H 299.184 0.645429 -1.56947 0
M  V30 3273 H 297.956 1.79012 -3.47952 0
M  V30 3274 H 297.579 3.14676 -2.43032 0
M  V30 3275 N 298.576 1.31904 0.862503 0
M  V30 3276 C 299.486 1.22161 2.00285 0
M  V30 3277 C 300.502 0.136785 1.73462 0
M  V30 3278 O 301.678 0.355994 1.98229 0
M  V30 3279 C 298.743 0.937093 3.33796 0
M  V30 3280 C 297.804 2.10957 3.73893 0
M  V30 3281 C 297.037 1.83853 5.01033 0
M  V30 3282 O 297.26 0.777274 5.65079 0
M  V30 3283 O 296.194 2.69741 5.38074 0
M  V30 3284 H 300.02 2.18008 2.11439 0
M  V30 3285 H 297.605 1.11716 0.991957 0
M  V30 3286 H 299.487 0.794583 4.13841 0
M  V30 3287 H 298.162 0.00871894 3.23699 0
M  V30 3288 H 297.069 2.30752 2.94456 0
M  V30 3289 H 298.402 3.02046 3.88625 0
M  V30 3290 N 300.054 -1.07777 1.14986 0
M  V30 3291 C 300.964 -2.18404 0.856546 0
M  V30 3292 C 301.98 -1.73211 -0.165485 0
M  V30 3293 O 303.156 -2.01399 0.00755219 0
M  V30 3294 C 300.221 -3.44977 0.34526 0
M  V30 3295 C 299.282 -4.0476 1.43065 0
M  V30 3296 C 298.515 -5.25291 0.943663 0
M  V30 3297 O 298.738 -5.70004 -0.212426 0
M  V30 3298 O 297.672 -5.76638 1.72547 0
M  V30 3299 H 301.498 -2.45978 1.78125 0
M  V30 3300 H 299.083 -1.17033 0.928631 0
M  V30 3301 H 300.965 -4.21348 0.0663671 0
M  V30 3302 H 299.64 -3.18965 -0.551631 0
M  V30 3303 H 298.547 -3.29949 1.76309 0
M  V30 3304 H 299.88 -4.35035 2.30229 0
M  V30 3305 N 301.532 -0.945985 -1.26051 0
M  V30 3306 C 302.78 -0.594941 -1.93145 0
M  V30 3307 C 303.101 0.86953 -1.7454 0
M  V30 3308 O 302.371 1.61838 -1.10387 0
M  V30 3309 H 300.951 -0.217044 -0.714773 0
M  V30 3310 H 303.613 -1.20235 -1.53393 0
M  V30 3311 H 302.709 -0.816835 -3.01221 0
M  V30 3312 N 303.011 1.40521 -0.713556 0
M  V30 3313 C 303.961 2.27971 -0.036165 0
M  V30 3314 C 304.945 1.43151 0.734623 0
M  V30 3315 O 306.137 1.66261 0.607158 0
M  V30 3316 C 303.266 3.31661 0.886331 0
M  V30 3317 C 302.352 4.23955 0.110836 0
M  V30 3318 N 302.743 4.97641 -0.904847 0
M  V30 3319 C 301.041 4.44674 0.343692 0
M  V30 3320 C 301.742 5.65322 -1.37064 0
M  V30 3321 N 300.718 5.39162 -0.693168 0
M  V30 3322 H 304.52 2.82384 -0.814645 0
M  V30 3323 H 302.034 1.52948 -0.545963 0
M  V30 3324 H 304.031 3.93154 1.38692 0
M  V30 3325 H 302.691 2.78808 1.66421 0
M  V30 3326 H 303.702 5.01689 -1.28563 0
M  V30 3327 H 300.379 4.02801 1.09805 0
M  V30 3328 H 301.769 6.34359 -2.21447 0
M  V30 3329 N 304.489 0.459591 1.5075 0
M  V30 3330 C 305.738 -0.100971 2.01447 0
M  V30 3331 C 306.051 -1.41816 1.34713 0
M  V30 3332 O 307.257 -2.06299 1.76502 0
M  V30 3333 C 305.713 -0.23047 3.59161 0
M  V30 3334 C 305.321 1.0776 4.34847 0
M  V30 3335 C 307.065 -0.743608 4.17936 0
M  V30 3336 C 304.972 0.91253 5.84317 0
M  V30 3337 H 303.902 -0.0415102 0.752856 0
M  V30 3338 H 306.553 0.592742 1.73663 0
M  V30 3339 H 304.935 -0.987703 3.83485 0
M  V30 3340 H 306.109 1.8449 4.22256 0
M  V30 3341 H 304.424 1.52097 3.87628 0
M  V30 3342 H 307.021 -0.883959 5.27343 0
M  V30 3343 H 307.364 -1.73196 3.78562 0
M  V30 3344 H 307.897 -0.04408 3.97776 0
M  V30 3345 H 304.636 1.87391 6.28144 0
M  V30 3346 H 304.156 0.185422 5.99513 0
M  V30 3347 H 305.835 0.574547 6.44444 0
M  V30 3348 N 305.967 -1.56429 0.191757 0
M  V30 3349 C 306.914 -2.18936 -0.730454 0
M  V30 3350 C 307.884 -1.13557 -1.21219 0
M  V30 3351 O 309.069 -1.41794 -1.27668 0
M  V30 3352 C 306.209 -2.85013 -1.9458 0
M  V30 3353 C 305.322 -4.04909 -1.50574 0
M  V30 3354 C 304.457 -4.58853 -2.67634 0
M  V30 3355 C 303.496 -5.71114 -2.20217 0
M  V30 3356 N 302.633 -6.19478 -3.30442 0
M  V30 3357 H 307.473 -2.97389 -0.190664 0
M  V30 3358 H 305.01 -1.46869 -0.0823694 0
M  V30 3359 H 306.968 -3.21492 -2.65893 0
M  V30 3360 H 305.598 -2.09129 -2.45896 0
M  V30 3361 H 304.65 -3.74115 -0.688605 0
M  V30 3362 H 305.962 -4.86113 -1.11784 0
M  V30 3363 H 305.116 -4.97619 -3.47074 0
M  V30 3364 H 303.855 -3.76749 -3.09696 0
M  V30 3365 H 302.86 -5.31879 -1.3923 0
M  V30 3366 H 304.085 -6.55033 -1.79189 0
M  V30 3367 H 302.031 -5.40297 -3.72041 0
M  V30 3368 H 301.948 -6.95725 -2.9581 0
M  V30 3369 H 303.216 -6.62898 -4.10106 0
M  V30 3370 N 307.445 0.0818655 -1.57387 0
M  V30 3371 C 308.375 1.09885 -2.06028 0
M  V30 3372 C 309.356 1.4098 -0.951774 0
M  V30 3373 O 310.541 1.50781 -1.22387 0
M  V30 3374 C 307.671 2.4151 -2.4958 0
M  V30 3375 C 306.625 2.24792 -3.64215 0
M  V30 3376 C 305.951 3.61712 -3.93787 0
M  V30 3377 C 307.251 1.67749 -4.94629 0
M  V30 3378 H 308.945 0.694128 -2.91243 0
M  V30 3379 H 306.491 0.332448 -1.4011 0
M  V30 3380 H 308.444 3.12939 -2.82219 0
M  V30 3381 H 307.168 2.83943 -1.61381 0
M  V30 3382 H 305.827 1.55807 -3.31843 0
M  V30 3383 H 305.475 4.01697 -3.02735 0
M  V30 3384 H 305.175 3.51368 -4.70971 0
M  V30 3385 H 306.699 4.34587 -4.28913 0
M  V30 3386 H 308.113 2.29032 -5.25564 0
M  V30 3387 H 306.51 1.68128 -5.76067 0
M  V30 3388 H 307.58 0.638059 -4.80684 0
M  V30 3389 N 308.923 1.53595 0.353017 0
M  V30 3390 C 310.151 1.74311 1.1146 0
M  V30 3391 C 310.566 0.477854 1.82653 0
M  V30 3392 O 309.923 -0.549977 1.74016 0
M  V30 3393 C 309.974 2.91694 2.13534 0
M  V30 3394 O 309.695 4.13325 1.45238 0
M  V30 3395 C 311.196 3.24384 3.02142 0
M  V30 3396 H 308.416 0.582669 0.332773 0
M  V30 3397 H 310.96 2.00386 0.408107 0
M  V30 3398 H 309.115 2.67977 2.79763 0
M  V30 3399 H 309.529 4.79148 2.13349 0
M  V30 3400 H 311.003 4.09893 3.69718 0
M  V30 3401 H 311.48 2.40282 3.67643 0
M  V30 3402 H 312.086 3.50073 2.41514 0
M  V30 3403 N 310.401 -0.613514 1.45168 0
M  V30 3404 C 311.678 -1.37263 1.39349 0
M  V30 3405 C 312.058 -2.11012 0.0610848 0
M  V30 3406 O 311.406 -2.07502 -0.956825 0
M  V30 3407 C 311.616 -2.3244 2.60332 0
M  V30 3408 C 312.964 -2.9523 3.05163 0
M  V30 3409 O 313.988 -2.42762 2.60663 0
M  V30 3410 O 312.847 -3.90454 3.82372 0
M  V30 3411 H 309.941 -0.615188 0.552696 0
M  V30 3412 H 312.487 -0.637097 1.57287 0
M  V30 3413 H 311.259 -1.77164 3.48896 0
M  V30 3414 H 310.882 -3.13383 2.44698 0
M  V30 3415 N 311.879 -1.3236 -0.855495 0
M  V30 3416 C 313.126 -1.22872 -1.60962 0
M  V30 3417 C 313.454 0.209658 -1.93367 0
M  V30 3418 O 312.709 1.16243 -1.57436 0
M  V30 3419 C 313.008 -2.03275 -2.93963 0
M  V30 3420 C 312.674 -3.5264 -2.80991 0
M  V30 3421 C 311.336 -3.93364 -2.7716 0
M  V30 3422 C 313.688 -4.47626 -2.66983 0
M  V30 3423 C 311.016 -5.27319 -2.572 0
M  V30 3424 C 313.368 -5.81723 -2.48558 0
M  V30 3425 C 312.032 -6.2165 -2.4312 0
M  V30 3426 H 311.302 -0.44962 -0.589001 0
M  V30 3427 H 313.949 -1.63777 -0.992442 0
M  V30 3428 H 312.254 -1.55095 -3.59795 0
M  V30 3429 H 313.951 -1.93303 -3.51333 0
M  V30 3430 H 310.541 -3.20295 -2.84797 0
M  V30 3431 H 314.725 -4.17084 -2.68988 0
M  V30 3432 H 309.981 -5.57311 -2.51424 0
M  V30 3433 H 314.155 -6.5494 -2.36699 0
M  V30 3434 H 311.782 -7.25388 -2.27412 0
M  V30 3435 N 313.357 1.07166 -1.15556 0
M  V30 3436 C 314.605 1.79443 -0.929764 0
M  V30 3437 C 314.926 1.87246 0.544414 0
M  V30 3438 O 314.196 1.37473 1.39564 0
M  V30 3439 H 312.776 0.664625 -0.341003 0
M  V30 3440 H 315.438 1.29499 -1.45657 0
M  V30 3441 H 314.534 2.81832 -1.34079 0
M  V30 3442 N 314.835 0.952656 1.25548 0
M  V30 3443 C 315.765 0.489287 2.28316 0
M  V30 3444 C 316.746 -0.463359 1.63667 0
M  V30 3445 O 317.931 -0.36274 1.90782 0
M  V30 3446 C 315.061 -0.235603 3.465 0
M  V30 3447 C 314.015 0.631593 4.23314 0
M  V30 3448 C 313.341 -0.223923 5.34231 0
M  V30 3449 C 314.641 1.90871 4.86174 0
M  V30 3450 H 316.335 1.34822 2.67326 0
M  V30 3451 H 313.881 0.649728 1.28509 0
M  V30 3452 H 315.834 -0.570882 4.17515 0
M  V30 3453 H 314.558 -1.12877 3.06474 0
M  V30 3454 H 313.217 0.949929 3.54079 0
M  V30 3455 H 312.865 -1.11678 4.90446 0
M  V30 3456 H 312.565 0.35299 5.86539 0
M  V30 3457 H 314.089 -0.554214 6.0808 0
M  V30 3458 H 315.503 1.63997 5.49343 0
M  V30 3459 H 313.9 2.43112 5.4865 0
M  V30 3460 H 314.97 2.61304 4.08471 0
M  V30 3461 N 316.313 -1.40141 0.720998 0
M  V30 3462 C 317.538 -2.05618 0.271258 0
M  V30 3463 C 317.963 -1.53978 -1.08039 0
M  V30 3464 O 317.321 -0.677463 -1.68167 0
M  V30 3465 C 317.369 -3.59609 0.267197 0
M  V30 3466 O 316.473 -4.05526 -0.749814 0
M  V30 3467 H 315.814 -0.651904 0.126162 0
M  V30 3468 H 318.344 -1.79439 0.982997 0
M  V30 3469 H 318.354 -4.0786 0.106744 0
M  V30 3470 H 317.029 -3.96559 1.25354 0
M  V30 3471 H 315.606 -3.68722 -0.556644 0
M  V30 3472 N 317.792 -0.46758 -1.50504 0
M  V30 3473 C 318.739 0.328413 -2.28452 0
M  V30 3474 C 319.709 0.990313 -1.33349 0
M  V30 3475 O 320.894 1.00343 -1.62284 0
M  V30 3476 C 318.034 1.40648 -3.15138 0
M  V30 3477 C 317.147 0.759709 -4.25267 0
M  V30 3478 C 316.282 1.81537 -4.99217 0
M  V30 3479 C 315.321 1.14866 -6.01226 0
M  V30 3480 N 314.458 2.14702 -6.68467 0
M  V30 3481 H 319.298 -0.342603 -2.96024 0
M  V30 3482 H 316.835 -0.180801 -1.45985 0
M  V30 3483 H 318.793 2.04315 -3.63746 0
M  V30 3484 H 317.423 2.04671 -2.49619 0
M  V30 3485 H 316.475 0.0105671 -3.80399 0
M  V30 3486 H 317.787 0.233243 -4.98254 0
M  V30 3487 H 316.941 2.52793 -5.51526 0
M  V30 3488 H 315.68 2.37564 -4.25928 0
M  V30 3489 H 314.685 0.42171 -5.4818 0
M  V30 3490 H 315.91 0.595334 -6.76485 0
M  V30 3491 H 313.856 2.69752 -5.97972 0
M  V30 3492 H 313.773 1.6703 -7.37317 0
M  V30 3493 H 315.041 2.85348 -7.25394 0
M  V30 3494 N 319.27 1.56325 -0.20005 0
M  V30 3495 C 320.18 2.22931 0.730668 0
M  V30 3496 C 321.196 1.22997 1.23076 0
M  V30 3497 O 322.372 1.55748 1.27689 0
M  V30 3498 C 319.437 2.87948 1.93098 0
M  V30 3499 C 318.498 4.03166 1.47497 0
M  V30 3500 C 317.731 4.65073 2.61807 0
M  V30 3501 O 317.954 4.25913 3.79413 0
M  V30 3502 O 316.888 5.54452 2.34237 0
M  V30 3503 H 320.714 3.03084 0.193391 0
M  V30 3504 H 318.299 1.49371 0.0294621 0
M  V30 3505 H 320.181 3.29063 2.6324 0
M  V30 3506 H 318.856 2.10771 2.45677 0
M  V30 3507 H 317.763 3.66664 0.742201 0
M  V30 3508 H 319.096 4.82022 0.995796 0
M  V30 3509 N 320.748 -0.0735177 1.57428 0
M  V30 3510 C 321.973 -0.789787 1.91774 0
M  V30 3511 C 322.398 -1.70413 0.796306 0
M  V30 3512 O 321.756 -1.79555 -0.250961 0
M  V30 3513 C 321.804 -1.5609 3.25067 0
M  V30 3514 O 320.908 -2.67144 3.14178 0
M  V30 3515 H 320.249 -0.215582 0.628029 0
M  V30 3516 H 322.779 -0.0422781 2.04556 0
M  V30 3517 H 322.789 -1.94052 3.58898 0
M  V30 3518 H 321.464 -0.890015 4.06265 0
M  V30 3519 H 320.041 -2.32052 2.91901 0
M  V30 3520 N 322.226 -1.5378 -0.344866 0
M  V30 3521 C 323.475 -1.7018 -1.08267 0
M  V30 3522 C 323.788 -0.471 -1.89845 0
M  V30 3523 O 324.994 -0.515917 -2.66553 0
M  V30 3524 C 323.45 -3.00923 -1.97417 0
M  V30 3525 C 323.058 -4.31335 -1.21053 0
M  V30 3526 C 324.802 -3.26688 -2.71063 0
M  V30 3527 C 322.709 -5.53153 -2.09225 0
M  V30 3528 H 321.639 -0.634138 -0.407903 0
M  V30 3529 H 324.29 -1.8028 -0.342246 0
M  V30 3530 H 322.672 -2.84676 -2.75274 0
M  V30 3531 H 323.846 -4.58281 -0.481159 0
M  V30 3532 H 322.161 -4.12173 -0.591813 0
M  V30 3533 H 324.758 -4.1489 -3.37299 0
M  V30 3534 H 325.101 -2.43639 -3.37558 0
M  V30 3535 H 325.634 -3.43705 -2.0028 0
M  V30 3536 H 322.373 -6.38741 -1.47274 0
M  V30 3537 H 321.893 -5.30458 -2.79955 0
M  V30 3538 H 323.572 -5.88744 -2.68308 0
M  V30 3539 N 323.704 0.605807 -1.45491 0
M  V30 3540 C 324.981 1.36522 -1.40075 0
M  V30 3541 C 325.361 2.10976 -0.0722744 0
M  V30 3542 O 324.709 2.08007 0.945808 0
M  V30 3543 C 324.919 2.31056 -2.61561 0
M  V30 3544 C 326.267 2.93608 -3.06724 0
M  V30 3545 O 327.291 2.41376 -2.61946 0
M  V30 3546 O 326.15 3.88421 -3.84437 0
M  V30 3547 H 323.244 0.612248 -0.555951 0
M  V30 3548 H 325.79 0.628747 -1.57623 0
M  V30 3549 H 324.562 1.75311 -3.49831 0
M  V30 3550 H 324.185 3.12081 -2.46356 0
M  V30 3551 N 325.182 1.32811 0.848464 0
M  V30 3552 C 326.132 1.18842 1.94578 0
M  V30 3553 C 327.116 0.0937517 1.60627 0
M  V30 3554 O 328.308 0.320887 1.74067 0
M  V30 3555 C 325.437 0.91999 3.30743 0
M  V30 3556 C 324.523 2.05665 3.70894 0
M  V30 3557 N 324.914 3.30579 3.8282 0
M  V30 3558 C 323.212 1.9612 4.00566 0
M  V30 3559 C 323.913 4.05067 4.17487 0
M  V30 3560 N 322.889 3.33419 4.2934 0
M  V30 3561 H 326.691 2.13536 2.0194 0
M  V30 3562 H 324.205 1.2468 1.0406 0
M  V30 3563 H 326.202 0.800859 4.09136 0
M  V30 3564 H 324.862 -0.0185076 3.24695 0
M  V30 3565 H 325.873 3.65441 3.66978 0
M  V30 3566 H 322.55 1.09871 4.02784 0
M  V30 3567 H 323.94 5.12815 4.34131 0
M  V30 3568 N 326.66 -1.06551 1.16123 0
M  V30 3569 C 327.57 -2.17484 0.879662 0
M  V30 3570 C 328.586 -1.73377 -0.147104 0
M  V30 3571 O 329.762 -2.01379 0.0289128 0
M  V30 3572 C 326.827 -3.44591 0.381829 0
M  V30 3573 C 325.888 -4.0322 1.4735 0
M  V30 3574 C 325.121 -5.24261 0.999324 0
M  V30 3575 O 325.344 -5.70198 -0.151957 0
M  V30 3576 O 324.278 -5.74775 1.78653 0
M  V30 3577 H 328.104 -2.44075 1.80724 0
M  V30 3578 H 325.689 -1.16042 0.940992 0
M  V30 3579 H 327.571 -4.21254 0.111053 0
M  V30 3580 H 326.246 -3.19532 -0.51777 0
M  V30 3581 H 325.153 -3.2806 1.79798 0
M  V30 3582 H 326.486 -4.32568 2.34831 0
M  V30 3583 N 328.138 -0.959301 -1.25041 0
M  V30 3584 C 329.085 -0.482057 -2.2571 0
M  V30 3585 C 330.055 0.467939 -1.59372 0
M  V30 3586 O 331.24 0.380159 -1.86974 0
M  V30 3587 C 328.38 0.229623 -3.44335 0
M  V30 3588 C 327.493 -0.758156 -4.25295 0
M  V30 3589 C 326.628 -0.0234403 -5.31195 0
M  V30 3590 C 325.667 -1.00184 -6.03846 0
M  V30 3591 N 324.804 -0.29769 -7.01469 0
M  V30 3592 H 329.644 -1.34538 -2.65901 0
M  V30 3593 H 327.181 -0.674592 -1.3072 0
M  V30 3594 H 329.139 0.658856 -4.11965 0
M  V30 3595 H 327.769 1.05696 -3.05005 0
M  V30 3596 H 326.821 -1.30586 -3.57284 0
M  V30 3597 H 328.133 -1.50458 -4.75567 0
M  V30 3598 H 327.287 0.464201 -6.04922 0
M  V30 3599 H 326.026 0.755741 -4.81809 0
M  V30 3600 H 325.031 -1.50044 -5.2893 0
M  V30 3601 H 326.256 -1.78133 -6.55321 0
M  V30 3602 H 324.202 0.462668 -6.54366 0
M  V30 3603 H 324.119 -0.983128 -7.4958 0
M  V30 3604 H 325.387 0.16826 -7.79318 0
M  V30 3605 N 329.616 1.39756 -0.72842 0
M  V30 3606 C 330.563 2.30647 -0.0841519 0
M  V30 3607 C 331.533 1.48869 0.7367 0
M  V30 3608 O 332.718 1.77574 0.698015 0
M  V30 3609 C 329.858 3.35165 0.822091 0
M  V30 3610 C 328.971 4.31999 -0.0106663 0
M  V30 3611 C 328.106 5.23585 0.896241 0
M  V30 3612 C 327.145 6.12072 0.0583381 0
M  V30 3613 N 326.282 6.96035 0.920818 0
M  V30 3614 H 331.122 2.85173 -0.864891 0
M  V30 3615 H 328.659 1.40422 -0.438179 0
M  V30 3616 H 330.617 3.94345 1.36189 0
M  V30 3617 H 329.247 2.8211 1.56888 0
M  V30 3618 H 328.299 3.74492 -0.66781 0
M  V30 3619 H 329.611 4.9443 -0.658825 0
M  V30 3620 H 328.765 5.87759 1.50412 0
M  V30 3621 H 327.504 4.61459 1.57819 0
M  V30 3622 H 326.509 5.46916 -0.562389 0
M  V30 3623 H 327.734 6.76261 -0.6203 0
M  V30 3624 H 325.68 6.36485 1.58818 0
M  V30 3625 H 325.597 7.55284 0.32899 0
M  V30 3626 H 326.865 7.64646 1.51447 0
M  V30 3627 N 331.094 0.475555 1.50254 0
M  V30 3628 C 332.057 -0.305016 2.27161 0
M  V30 3629 C 333.057 -0.916519 1.32123 0
M  V30 3630 O 334.247 -0.785003 1.5551 0
M  V30 3631 C 331.379 -1.43496 3.09227 0
M  V30 3632 H 332.572 0.369511 2.97615 0
M  V30 3633 H 330.125 0.229747 1.54602 0
M  V30 3634 H 330.86 -2.14441 2.43281 0
M  V30 3635 H 330.645 -1.00223 3.79075 0
M  V30 3636 H 332.135 -1.98548 3.67381 0
M  V30 3637 N 332.573 -1.56217 0.208337 0
M  V30 3638 C 333.803 -2.02043 -0.431523 0
M  V30 3639 C 334.211 -1.08755 -1.54819 0
M  V30 3640 O 333.554 -0.0870009 -1.83494 0
M  V30 3641 C 333.616 -3.44239 -1.03633 0
M  V30 3642 C 333.28 -4.56965 -0.0567502 0
M  V30 3643 C 334.277 -5.14624 0.738773 0
M  V30 3644 C 331.962 -5.02266 0.0581736 0
M  V30 3645 C 333.956 -6.16045 1.63605 0
M  V30 3646 C 331.643 -6.03528 0.959001 0
M  V30 3647 C 332.641 -6.60293 1.7465 0
M  V30 3648 O 332.329 -7.59586 2.6322 0
M  V30 3649 H 332.061 -0.666772 -0.111313 0
M  V30 3650 H 334.615 -2.02919 0.318277 0
M  V30 3651 H 332.845 -3.40391 -1.83497 0
M  V30 3652 H 334.534 -3.73793 -1.58221 0
M  V30 3653 H 335.3 -4.80483 0.660364 0
M  V30 3654 H 331.179 -4.57771 -0.544633 0
M  V30 3655 H 334.723 -6.60279 2.25116 0
M  V30 3656 H 330.62 -6.37092 1.03848 0
M  V30 3657 H 331.388 -7.77057 2.57148 0
M  V30 3658 N 334.051 0.0651679 -1.57465 0
M  V30 3659 C 335.276 0.779605 -1.9219 0
M  V30 3660 C 335.701 1.69988 -0.805333 0
M  V30 3661 O 335.059 1.79685 0.241435 0
M  V30 3662 C 335.107 1.54364 -3.2589 0
M  V30 3663 O 334.211 2.65474 -3.1559 0
M  V30 3664 H 333.552 0.212249 -0.629163 0
M  V30 3665 H 336.082 0.0314294 -2.04576 0
M  V30 3666 H 336.092 1.92146 -3.59922 0
M  V30 3667 H 334.767 0.868457 -4.06732 0
M  V30 3668 H 333.344 2.30501 -2.93128 0
M  V30 3669 N 335.529 1.53961 0.336706 0
M  V30 3670 C 336.776 1.71536 1.07618 0
M  V30 3671 C 337.104 0.482125 1.8843 0
M  V30 3672 O 336.359 -0.536142 1.88213 0
M  V30 3673 C 336.658 2.93493 2.03953 0
M  V30 3674 C 336.324 4.28811 1.39399 0
M  V30 3675 C 334.986 4.65602 1.21523 0
M  V30 3676 C 337.338 5.12844 0.929541 0
M  V30 3677 C 334.666 5.84037 0.558312 0
M  V30 3678 C 337.018 6.31951 0.286505 0
M  V30 3679 C 335.682 6.67432 0.0954869 0
M  V30 3680 H 334.952 0.627696 0.393801 0
M  V30 3681 H 337.599 1.88186 0.354715 0
M  V30 3682 H 335.904 2.71475 2.82504 0
M  V30 3683 H 337.601 3.04285 2.61174 0
M  V30 3684 H 334.191 3.99858 1.54311 0
M  V30 3685 H 338.375 4.84947 1.05548 0
M  V30 3686 H 333.631 6.10097 0.398995 0
M  V30 3687 H 337.805 6.96352 -0.0814376 0
M  V30 3688 H 335.432 7.59063 -0.415579 0
M  V30 3689 N 337.007 -0.598083 1.45811 0
M  V30 3690 C 338.247 -1.36802 1.5187 0
M  V30 3691 C 338.611 -1.9133 0.160224 0
M  V30 3692 O 339.812 -2.6863 0.0955302 0
M  V30 3693 C 338.083 -2.47835 2.57513 0
M  V30 3694 S 339.642 -3.35458 2.82866 0
M  V30 3695 H 336.46 -0.466278 0.536755 0
M  V30 3696 H 339.062 -0.689152 1.82951 0
M  V30 3697 H 337.766 -2.06141 3.54872 0
M  V30 3698 H 337.297 -3.20512 2.28114 0
M  V30 3699 H 339.312 -4.46251 2.16967 0
M  V30 3700 N 338.485 -1.33259 -0.841409 0
M  V30 3701 C 339.733 -1.24326 -1.59334 0
M  V30 3702 C 340.054 0.191564 -1.94057 0
M  V30 3703 O 339.324 1.11967 -1.60749 0
M  V30 3704 H 337.904 -0.457174 -0.590763 0
M  V30 3705 H 340.566 -1.66947 -1.00571 0
M  V30 3706 H 339.662 -1.8352 -2.52442 0
M  V30 3707 N 339.963 1.05934 -1.16686 0
M  V30 3708 C 341.191 1.8249 -0.974929 0
M  V30 3709 C 341.606 1.82679 0.476861 0
M  V30 3710 O 340.963 1.2486 1.33103 0
M  V30 3711 C 341.014 3.28943 -1.49929 0
M  V30 3712 O 340.735 3.28886 -2.89423 0
M  V30 3713 C 342.236 4.22215 -1.35089 0
M  V30 3714 H 339.456 0.575295 -0.345365 0
M  V30 3715 H 342 1.33631 -1.548 0
M  V30 3716 H 340.155 3.751 -0.968423 0
M  V30 3717 H 340.569 4.20493 -3.13506 0
M  V30 3718 H 342.043 5.22987 -1.76603 0
M  V30 3719 H 342.52 4.38195 -0.296935 0
M  V30 3720 H 343.126 3.81907 -1.87155 0
M  V30 3721 N 341.441 0.965919 1.2453 0
M  V30 3722 C 342.687 0.62776 1.92839 0
M  V30 3723 C 343.02 -0.834694 1.75347 0
M  V30 3724 O 342.295 -1.60031 1.10546 0
M  V30 3725 C 342.578 1.00109 3.45905 0
M  V30 3726 C 342.431 2.52011 3.72573 0
M  V30 3727 C 343.75 0.53435 4.36844 0
M  V30 3728 H 340.869 0.229537 0.700344 0
M  V30 3729 H 343.511 1.2046 1.46933 0
M  V30 3730 H 341.661 0.510238 3.85135 0
M  V30 3731 H 343.333 3.08559 3.42912 0
M  V30 3732 H 341.576 2.95287 3.17786 0
M  V30 3733 H 342.247 2.73183 4.79661 0
M  V30 3734 H 344.723 0.955565 4.04979 0
M  V30 3735 H 343.599 0.824152 5.42678 0
M  V30 3736 H 343.86 -0.565589 4.38467 0
M  V30 3737 N 342.919 -1.39368 0.735821 0
M  V30 3738 C 343.829 -2.34395 0.0979693 0
M  V30 3739 C 344.845 -1.58361 -0.720968 0
M  V30 3740 O 346.021 -1.90648 -0.649245 0
M  V30 3741 C 343.086 -3.37393 -0.797916 0
M  V30 3742 C 342.147 -4.29287 0.0333662 0
M  V30 3743 C 341.38 -5.27365 -0.819854 0
M  V30 3744 O 341.603 -5.31959 -2.05855 0
M  V30 3745 O 340.537 -6.01389 -0.248079 0
M  V30 3746 H 344.363 -2.90601 0.882315 0
M  V30 3747 H 341.948 -1.40909 0.4965 0
M  V30 3748 H 343.83 -4.00505 -1.31048 0
M  V30 3749 H 342.505 -2.83571 -1.56106 0
M  V30 3750 H 341.412 -3.69395 0.591475 0
M  V30 3751 H 342.745 -4.86317 0.758752 0
M  V30 3752 N 344.397 -0.483516 -1.5 0
M  V30 3753 C 345.627 0.0643896 -2.065 0
M  V30 3754 C 346.035 1.32949 -1.34615 0
M  V30 3755 O 345.378 1.79003 -0.412756 0
M  V30 3756 C 345.44 0.405983 -3.572 0
M  V30 3757 C 345.104 -0.758875 -4.50655 0
M  V30 3758 C 346.101 -1.64445 -4.93208 0
M  V30 3759 C 343.786 -0.952725 -4.93182 0
M  V30 3760 C 345.78 -2.70818 -5.77006 0
M  V30 3761 C 343.467 -2.01966 -5.76761 0
M  V30 3762 C 344.465 -2.89574 -6.18576 0
M  V30 3763 O 344.153 -3.94429 -7.00486 0
M  V30 3764 H 343.885 -0.00934786 -0.675935 0
M  V30 3765 H 346.439 -0.674959 -1.93993 0
M  V30 3766 H 344.669 1.19869 -3.67652 0
M  V30 3767 H 346.358 0.890433 -3.96013 0
M  V30 3768 H 347.124 -1.50643 -4.61012 0
M  V30 3769 H 343.003 -0.280247 -4.60147 0
M  V30 3770 H 346.547 -3.3923 -6.09565 0
M  V30 3771 H 342.444 -2.1577 -6.0837 0
M  V30 3772 H 343.212 -3.91568 -7.1876 0
M  V30 3773 N 345.875 1.56104 -0.216619 0
M  V30 3774 C 346.808 2.16026 0.735395 0
M  V30 3775 C 347.786 1.1032 1.1945 0
M  V30 3776 O 348.97 1.38549 1.27814 0
M  V30 3777 C 346.097 2.73656 1.99575 0
M  V30 3778 C 345.143 3.92146 1.67702 0
M  V30 3779 S 345.976 5.29397 0.806145 0
M  V30 3780 C 347.132 5.90463 2.07617 0
M  V30 3781 H 347.365 2.96439 0.226072 0
M  V30 3782 H 344.898 1.544 -0.00136639 0
M  V30 3783 H 346.856 3.075 2.71945 0
M  V30 3784 H 345.517 1.93245 2.47619 0
M  V30 3785 H 344.71 4.30954 2.61332 0
M  V30 3786 H 344.312 3.59423 1.03398 0
M  V30 3787 H 346.604 6.06136 3.02664 0
M  V30 3788 H 347.547 6.86589 1.73207 0
M  V30 3789 H 347.955 5.19252 2.21445 0
M  V30 3790 N 347.353 -0.0568162 1.57498 0
M  V30 3791 C 348.316 -1.05038 2.03715 0
M  V30 3792 C 349.316 -1.30709 0.936577 0
M  V30 3793 O 350.506 -1.26178 1.20103 0
M  V30 3794 C 347.638 -2.39034 2.43055 0
M  V30 3795 H 348.831 -0.651715 2.92733 0
M  V30 3796 H 346.384 -0.302947 1.53336 0
M  V30 3797 H 347.119 -2.83703 1.57108 0
M  V30 3798 H 346.904 -2.21739 3.2338 0
M  V30 3799 H 348.394 -3.10421 2.79336 0
M  V30 3800 N 348.832 -1.54138 -0.328536 0
M  V30 3801 C 350.243 -1.63395 -0.903272 0
M  V30 3802 C 350.594 -0.524828 -1.8905 0
M  V30 3803 O 349.719 0.343068 -2.13663 0
M  V30 3804 C 350.314 -2.9618 -1.64507 0
M  V30 3805 C 348.873 -3.0765 -2.1686 0
M  V30 3806 C 348.02 -2.58933 -0.992416 0
M  V30 3807 H 350.971 -1.58344 -0.106253 0
M  V30 3808 H 350.992 -2.86061 -2.50897 0
M  V30 3809 H 350.504 -3.76884 -0.926302 0
M  V30 3810 H 348.605 -2.31611 -2.91868 0
M  V30 3811 H 348.718 -4.1337 -2.42202 0
M  V30 3812 H 347.082 -2.14706 -1.37016 0
M  V30 3813 H 347.865 -3.42089 -0.288041 0
M  V30 3814 N 350.31 0.590341 -1.46126 0
M  V30 3815 C 351.22 1.72793 -1.58681 0
M  V30 3816 C 352.236 1.67516 -0.470566 0
M  V30 3817 O 353.412 1.87562 -0.733642 0
M  V30 3818 C 350.477 3.09287 -1.5666 0
M  V30 3819 C 349.538 3.25886 -2.79458 0
M  V30 3820 C 348.771 4.55869 -2.77524 0
M  V30 3821 O 348.994 5.3928 -1.85832 0
M  V30 3822 O 347.928 4.75552 -3.68964 0
M  V30 3823 H 351.754 1.65149 -2.54872 0
M  V30 3824 H 349.339 0.756486 -1.28832 0
M  V30 3825 H 351.221 3.90577 -1.58202 0
M  V30 3826 H 349.896 3.17385 -0.636271 0
M  V30 3827 H 348.803 2.44119 -2.83472 0
M  V30 3828 H 350.136 3.22675 -3.71674 0
M  V30 3829 N 351.788 1.33704 0.83433 0
M  V30 3830 C 353.034 1.25603 1.59222 0
M  V30 3831 C 353.367 -0.176659 1.93395 0
M  V30 3832 O 352.642 -1.11915 1.59076 0
M  V30 3833 C 352.925 2.13576 2.89926 0
M  V30 3834 C 352.778 3.65326 2.62406 0
M  V30 3835 C 354.097 2.01238 3.91397 0
M  V30 3836 H 351.216 0.457613 0.577719 0
M  V30 3837 H 353.858 1.63848 0.961972 0
M  V30 3838 H 352.008 1.8109 3.43713 0
M  V30 3839 H 353.68 4.08124 2.15017 0
M  V30 3840 H 351.923 3.8698 1.96033 0
M  V30 3841 H 352.594 4.22232 3.55562 0
M  V30 3842 H 355.07 2.29738 3.46929 0
M  V30 3843 H 353.946 2.65036 4.80673 0
M  V30 3844 H 354.207 0.985951 4.30966 0
M  V30 3845 N 353.266 -1.05314 1.17247 0
M  V30 3846 C 354.512 -1.78557 0.961513 0
M  V30 3847 C 354.845 -1.87419 -0.508697 0
M  V30 3848 O 354.12 -1.37307 -1.37757 0
M  V30 3849 C 354.403 -3.22514 1.60176 0
M  V30 3850 C 354.256 -3.21673 3.14399 0
M  V30 3851 C 355.575 -4.20318 1.30463 0
M  V30 3852 H 352.694 -0.6482 0.350723 0
M  V30 3853 H 355.336 -1.23102 1.44727 0
M  V30 3854 H 353.486 -3.69867 1.18871 0
M  V30 3855 H 355.158 -2.82405 3.64753 0
M  V30 3856 H 353.401 -2.60048 3.47214 0
M  V30 3857 H 354.072 -4.23271 3.54324 0
M  V30 3858 H 356.548 -3.81454 1.66229 0
M  V30 3859 H 355.424 -5.19289 1.77848 0
M  V30 3860 H 355.685 -4.41526 0.22521 0
M  V30 3861 N 354.744 -0.972509 -1.24016 0
M  V30 3862 C 355.692 -0.498562 -2.27194 0
M  V30 3863 C 356.686 0.440372 -1.63576 0
M  V30 3864 O 357.892 0.315133 -1.7722 0
M  V30 3865 H 354.267 -0.142775 -0.738322 0
M  V30 3866 H 356.238 -1.38065 -2.64539 0
M  V30 3867 C 354.987 0.191072 -3.47175 0
M  V30 3868 H 354.31 -0.522318 -3.96373 0
M  V30 3869 H 355.75 0.486445 -4.212 0
M  V30 3870 C 354.209 1.41967 -3.05527 0
M  V30 3871 O 354.739 2.51642 -3.13112 0
M  V30 3872 N 352.945 1.28746 -2.60524 0
M  V30 3873 H 352.492 0.395089 -2.54552 0
M  V30 3874 H 352.45 2.11061 -2.33025 0
M  V30 3875 N 356.222 1.38976 -0.743202 0
M  V30 3876 C 357.638 1.53984 -0.419664 0
M  V30 3877 C 357.838 1.70837 1.0685 0
M  V30 3878 O 356.894 1.7135 1.8546 0
M  V30 3879 C 358.207 2.75287 -1.20985 0
M  V30 3880 C 359.755 2.89129 -1.19889 0
M  V30 3881 C 360.23 4.13381 -1.97181 0
M  V30 3882 N 361.721 4.20437 -1.94389 0
M  V30 3883 C 362.456 5.15547 -2.50996 0
M  V30 3884 N 361.952 6.16395 -3.16274 0
M  V30 3885 N 363.745 5.07822 -2.40984 0
M  V30 3886 H 355.896 1.26285 -1.7078 0
M  V30 3887 H 358.159 0.612689 -0.723406 0
M  V30 3888 H 357.865 2.69204 -2.26323 0
M  V30 3889 H 357.739 3.68184 -0.819759 0
M  V30 3890 H 360.126 2.947 -0.153606 0
M  V30 3891 H 360.207 1.97272 -1.62841 0
M  V30 3892 H 359.851 4.08572 -3.01714 0
M  V30 3893 H 359.781 5.04298 -1.51629 0
M  V30 3894 H 362.272 3.48205 -1.46839 0
M  V30 3895 H 362.585 6.85443 -3.56915 0
M  V30 3896 H 360.93 6.16758 -3.20367 0
M  V30 3897 H 364.121 4.27973 -1.89622 0
M  V30 3898 H 364.294 5.81767 -2.85397 0
M  V30 3899 N 357.7 0.491464 1.49741 0
M  V30 3900 C 359.116 0.146835 1.58923 0
M  V30 3901 C 359.316 -1.34804 1.49767 0
M  V30 3902 O 358.372 -2.12317 1.36667 0
M  V30 3903 C 359.685 0.715157 2.92072 0
M  V30 3904 C 361.233 0.680407 3.05515 0
M  V30 3905 C 361.708 1.22663 4.41269 0
M  V30 3906 N 363.199 1.18691 4.47735 0
M  V30 3907 C 363.934 1.57984 5.51207 0
M  V30 3908 N 363.43 2.04824 6.6183 0
M  V30 3909 N 365.223 1.49459 5.41866 0
M  V30 3910 H 357.374 1.46347 1.53936 0
M  V30 3911 H 359.637 0.606453 0.728642 0
M  V30 3912 H 359.343 1.76317 3.04311 0
M  V30 3913 H 359.217 0.17018 3.76816 0
M  V30 3914 H 361.604 -0.358743 2.92911 0
M  V30 3915 H 361.685 1.26242 2.22478 0
M  V30 3916 H 361.329 2.26451 4.54623 0
M  V30 3917 H 361.259 0.620637 5.2293 0
M  V30 3918 H 363.75 0.843605 3.68364 0
M  V30 3919 H 364.063 2.32901 7.3687 0
M  V30 3920 H 362.408 2.08791 6.62896 0
M  V30 3921 H 365.599 1.12692 4.54333 0
M  V30 3922 H 365.772 1.80406 6.22381 0
M  V30 3923 N 359.178 -1.55987 0.224894 0
M  V30 3924 C 360.426 -1.97998 -0.405099 0
M  V30 3925 C 360.747 -1.11387 -1.60056 0
M  V30 3926 O 360.017 -0.191645 -1.9496 0
M  V30 3927 H 358.597 -0.731235 -0.152658 0
M  V30 3928 H 361.259 -1.92279 0.318567 0
M  V30 3929 H 360.355 -3.03463 -0.729167 0
M  V30 3930 N 360.656 0.0484629 -1.57525 0
M  V30 3931 C 361.606 1.06246 -2.01732 0
M  V30 3932 C 362.59 1.33155 -0.903245 0
M  V30 3933 O 363.782 1.33065 -1.16717 0
M  V30 3934 C 360.911 2.36943 -2.48421 0
M  V30 3935 C 359.997 2.13208 -3.6661 0
M  V30 3936 N 360.388 1.5947 -4.80003 0
M  V30 3937 C 358.686 2.43581 -3.7361 0
M  V30 3938 C 359.387 1.51092 -5.61735 0
M  V30 3939 N 358.363 1.9797 -5.0627 0
M  V30 3940 H 362.165 0.640675 -2.86832 0
M  V30 3941 H 359.679 0.255134 -1.60383 0
M  V30 3942 H 361.676 3.10374 -2.78341 0
M  V30 3943 H 360.336 2.79818 -1.64718 0
M  V30 3944 H 361.347 1.28008 -5.01831 0
M  V30 3945 H 358.024 2.89662 -3.00669 0
M  V30 3946 H 359.414 1.10199 -6.62801 0
M  V30 3947 N 362.134 1.5431 0.320358 0
M  V30 3948 C 363.362 1.76636 1.07738 0
M  V30 3949 C 363.777 0.51649 1.81598 0
M  V30 3950 O 363.134 -0.512942 1.75143 0
M  V30 3951 C 363.185 2.96158 2.07299 0
M  V30 3952 O 362.906 4.16313 1.36438 0
M  V30 3953 C 364.407 3.3072 2.95193 0
M  V30 3954 H 361.627 0.589597 0.320339 0
M  V30 3955 H 364.171 2.01207 0.36551 0
M  V30 3956 H 362.326 2.73851 2.74016 0
M  V30 3957 H 362.74 4.83565 2.03138 0
M  V30 3958 H 364.214 4.17643 3.60941 0
M  V30 3959 H 364.691 2.48026 3.62463 0
M  V30 3960 H 365.297 3.55117 2.34034 0
M  V30 3961 N 363.613 -0.582584 1.46437 0
M  V30 3962 C 364.545 -1.70618 1.53043 0
M  V30 3963 C 365.558 -1.57322 0.418769 0
M  V30 3964 O 366.747 -1.64744 0.687136 0
M  V30 3965 C 363.847 -3.08869 1.39474 0
M  V30 3966 C 363.02 -3.48166 2.64762 0
M  V30 3967 C 362.079 -4.65478 2.4539 0
M  V30 3968 O 361.105 -4.71333 3.19114 0
M  V30 3969 N 362.307 -5.60365 1.51564 0
M  V30 3970 H 365.072 -1.65405 2.49923 0
M  V30 3971 H 362.633 -0.768567 1.42494 0
M  V30 3972 H 364.625 -3.85143 1.24287 0
M  V30 3973 H 363.195 -3.08449 0.507758 0
M  V30 3974 H 362.415 -2.61598 2.9489 0
M  V30 3975 H 363.703 -3.71188 3.4799 0
M  V30 3976 H 363.101 -5.5837 0.907705 0
M  V30 3977 H 361.658 -6.36068 1.4234 0
M  V30 3978 N 365.091 -1.34144 -0.827227 0
M  V30 3979 C 366.316 -1.29476 -1.62021 0
M  V30 3980 C 366.741 0.129292 -1.87655 0
M  V30 3981 O 366.099 1.08967 -1.449 0
M  V30 3982 C 366.147 -2.08702 -2.94068 0
M  V30 3983 O 365.251 -1.45359 -3.85933 0
M  V30 3984 H 364.592 -0.444881 -0.492927 0
M  V30 3985 H 367.122 -1.76882 -1.02829 0
M  V30 3986 H 367.132 -2.19898 -3.43669 0
M  V30 3987 H 365.807 -3.12241 -2.74734 0
M  V30 3988 H 364.384 -1.42879 -3.44442 0
M  V30 3989 N 366.569 1.04691 -1.17803 0
M  V30 3990 C 367.532 2.10724 -0.901545 0
M  V30 3991 C 368.532 1.6042 0.110437 0
M  V30 3992 O 369.722 1.7377 -0.122303 0
M  V30 3993 C 366.854 3.39084 -0.351409 0
M  V30 3994 H 368.047 2.36686 -1.84174 0
M  V30 3995 H 365.6 1.21015 -0.98919 0
M  V30 3996 H 366.335 3.18782 0.59569 0
M  V30 3997 H 366.12 3.76909 -1.08083 0
M  V30 3998 H 367.61 4.17227 -0.176451 0
M  V30 3999 N 368.047 0.979072 1.23499 0
M  V30 4000 C 369.324 0.563674 1.87302 0
M  V30 4001 C 369.704 -0.959199 1.88049 0
M  V30 4002 O 369.052 -1.83535 1.36114 0
M  V30 4003 C 369.262 1.16822 3.28867 0
M  V30 4004 C 370.61 1.26014 4.0547 0
M  V30 4005 O 371.634 1.12158 3.38082 0
M  V30 4006 O 370.493 1.48044 5.26066 0
M  V30 4007 H 367.587 0.189602 0.804972 0
M  V30 4008 H 370.133 1.07407 1.31384 0
M  V30 4009 H 368.905 2.21049 3.22883 0
M  V30 4010 H 368.528 0.642564 3.92373 0
M  V30 4011 N 369.525 -1.3858 0.750561 0
M  V30 4012 C 370.771 -2.0095 0.31477 0
M  V30 4013 C 371.126 -1.58509 -1.09053 0
M  V30 4014 O 370.419 -0.8112 -1.7358 0
M  V30 4015 C 370.613 -3.55455 0.372373 0
M  V30 4016 C 370.442 -4.12898 1.78173 0
M  V30 4017 C 369.212 -4.44797 2.39757 0
M  V30 4018 C 371.41 -4.35366 2.7379 0
M  V30 4019 N 369.392 -4.87831 3.72685 0
M  V30 4020 C 370.763 -4.80775 3.91478 0
M  V30 4021 C 372.818 -4.1746 2.71351 0
M  V30 4022 C 371.521 -5.10155 5.07084 0
M  V30 4023 C 373.547 -4.47963 3.86113 0
M  V30 4024 C 372.909 -4.93593 5.02539 0
M  V30 4025 H 369.008 -0.765083 0.161776 0
M  V30 4026 H 371.592 -1.68246 0.979867 0
M  V30 4027 H 369.763 -3.87512 -0.26244 0
M  V30 4028 H 371.495 -4.04614 -0.0834479 0
M  V30 4029 H 368.25 -4.33135 1.91548 0
M  V30 4030 H 368.674 -5.13685 4.40972 0
M  V30 4031 H 373.316 -3.81372 1.82524 0
M  V30 4032 H 371.034 -5.45141 5.96529 0
M  V30 4033 H 374.62 -4.35717 3.85542 0
M  V30 4034 H 373.5 -5.16746 5.89867 0
M  V30 4035 N 371.003 -0.499398 -1.49478 0
M  V30 4036 C 372.249 0.0377587 -2.03365 0
M  V30 4037 C 372.604 1.3484 -1.37244 0
M  V30 4038 O 371.897 1.85 -0.498547 0
M  V30 4039 C 372.091 0.248424 -3.56536 0
M  V30 4040 C 371.92 -1.04025 -4.37503 0
M  V30 4041 C 370.69 -1.59159 -4.79579 0
M  V30 4042 C 372.888 -1.9431 -4.76181 0
M  V30 4043 N 370.87 -2.82634 -5.44969 0
M  V30 4044 C 372.241 -3.02364 -5.41272 0
M  V30 4045 C 374.296 -1.95008 -4.58123 0
M  V30 4046 C 372.999 -4.1114 -5.90217 0
M  V30 4047 C 375.025 -3.02758 -5.08027 0
M  V30 4048 C 374.387 -4.09531 -5.73118 0
M  V30 4049 H 370.486 -0.026923 -0.781536 0
M  V30 4050 H 373.07 -0.673901 -1.82665 0
M  V30 4051 H 371.241 0.929139 -3.77123 0
M  V30 4052 H 372.973 0.782445 -3.97064 0
M  V30 4053 H 369.728 -1.13696 -4.5975 0
M  V30 4054 H 370.152 -3.45416 -5.82252 0
M  V30 4055 H 374.794 -1.13766 -4.07207 0
M  V30 4056 H 372.512 -4.93181 -6.40155 0
M  V30 4057 H 376.098 -3.04315 -4.95866 0
M  V30 4058 H 374.978 -4.91534 -6.11035 0
M  V30 4059 N 372.481 1.55866 -0.233164 0
M  V30 4060 C 373.706 2.03449 0.402906 0
M  V30 4061 C 374.131 1.11166 1.51736 0
M  V30 4062 O 373.489 0.101996 1.81013 0
M  V30 4063 C 373.537 3.49165 0.9009 0
M  V30 4064 O 372.641 3.60019 2.01147 0
M  V30 4065 H 371.982 0.657913 0.0897025 0
M  V30 4066 H 374.512 2.01493 -0.355201 0
M  V30 4067 H 374.522 3.89716 1.2077 0
M  V30 4068 H 373.197 4.15813 0.0852889 0
M  V30 4069 H 371.774 3.3136 1.71042 0
M  V30 4070 N 373.959 -0.0401083 1.57549 0
M  V30 4071 C 375.206 -0.733125 1.88763 0
M  V30 4072 C 375.534 -1.75946 0.829058 0
M  V30 4073 O 374.789 -1.94949 -0.171323 0
M  V30 4074 C 375.088 -1.44902 3.26708 0
M  V30 4075 C 374.754 -0.559707 4.47413 0
M  V30 4076 C 373.416 -0.314731 4.8017 0
M  V30 4077 C 375.768 0.0549743 5.21171 0
M  V30 4078 C 373.096 0.553886 5.8408 0
M  V30 4079 C 375.448 0.911229 6.26003 0
M  V30 4080 C 374.112 1.16577 6.57241 0
M  V30 4081 H 373.382 -0.268269 0.690733 0
M  V30 4082 H 376.029 0.00679408 1.91499 0
M  V30 4083 H 374.334 -2.26197 3.1991 0
M  V30 4084 H 376.031 -1.99058 3.48105 0
M  V30 4085 H 372.621 -0.760793 4.21794 0
M  V30 4086 H 376.805 -0.121344 4.96152 0
M  V30 4087 H 372.061 0.759518 6.06664 0
M  V30 4088 H 376.235 1.3941 6.82303 0
M  V30 4089 H 373.862 1.84058 7.37582 0
M  V30 4090 N 375.437 -1.54477 -0.31217 0
M  V30 4091 C 376.685 -1.72884 -1.04668 0
M  V30 4092 C 377.006 -0.511477 -1.88173 0
M  V30 4093 O 376.276 0.474407 -1.90069 0
M  V30 4094 H 374.856 -0.637461 -0.389425 0
M  V30 4095 H 377.518 -1.91807 -0.345852 0
M  V30 4096 H 376.614 -2.61334 -1.70619 0
M  V30 4097 N 376.915 0.57481 -1.46744 0
M  V30 4098 C 378.161 1.3347 -1.52688 0
M  V30 4099 C 378.494 1.93353 -0.181229 0
M  V30 4100 O 377.769 1.76912 0.808237 0
M  V30 4101 C 378.052 2.45811 -2.63152 0
M  V30 4102 C 377.905 1.90912 -4.07275 0
M  V30 4103 C 379.224 3.47822 -2.69644 0
M  V30 4104 H 376.343 0.483935 -0.555856 0
M  V30 4105 H 378.985 0.644968 -1.78718 0
M  V30 4106 H 377.135 3.04646 -2.41088 0
M  V30 4107 H 378.807 1.36473 -4.4065 0
M  V30 4108 H 377.05 1.21691 -4.16382 0
M  V30 4109 H 377.721 2.72042 -4.80309 0
M  V30 4110 H 380.197 2.9888 -2.895 0
M  V30 4111 H 379.073 4.23876 -3.48742 0
M  V30 4112 H 379.334 4.05555 -1.76005 0
M  V30 4113 N 378.394 1.34581 0.820102 0
M  V30 4114 C 379.324 1.29038 1.94606 0
M  V30 4115 C 380.305 0.1673 1.69275 0
M  V30 4116 O 381.49 0.360112 1.90832 0
M  V30 4117 C 378.62 1.04793 3.31113 0
M  V30 4118 C 377.574 2.13597 3.70891 0
M  V30 4119 C 376.9 1.74537 5.05412 0
M  V30 4120 C 378.2 3.55451 3.8269 0
M  V30 4121 H 379.894 2.23248 1.99501 0
M  V30 4122 H 377.44 1.0747 0.958449 0
M  V30 4123 H 379.393 0.995592 4.0947 0
M  V30 4124 H 378.117 0.0702565 3.26524 0
M  V30 4125 H 376.776 2.17905 2.9481 0
M  V30 4126 H 376.424 0.754226 4.97313 0
M  V30 4127 H 376.124 2.47361 5.32997 0
M  V30 4128 H 377.648 1.70803 5.86224 0
M  V30 4129 H 379.062 3.5354 4.51312 0
M  V30 4130 H 377.459 4.26922 4.21732 0
M  V30 4131 H 378.529 3.92587 2.84611 0
M  V30 4132 N 379.872 -1.04064 1.18357 0
M  V30 4133 C 380.805 -2.11618 0.854 0
M  V30 4134 C 381.783 -1.61555 -0.184043 0
M  V30 4135 O 382.967 -1.88395 -0.0630048 0
M  V30 4136 C 380.094 -3.37574 0.27597 0
M  V30 4137 C 379.14 -4.06485 1.2912 0
M  V30 4138 S 379.973 -4.53543 2.84709 0
M  V30 4139 C 381.129 -5.82732 2.28417 0
M  V30 4140 H 381.362 -2.39247 1.76488 0
M  V30 4141 H 378.895 -1.16832 1.00944 0
M  V30 4142 H 380.853 -4.10468 -0.051026 0
M  V30 4143 H 379.514 -3.0806 -0.613028 0
M  V30 4144 H 378.707 -4.97024 0.835633 0
M  V30 4145 H 378.309 -3.39708 1.56443 0
M  V30 4146 H 380.601 -6.56677 1.66677 0
M  V30 4147 H 381.544 -6.33052 3.17256 0
M  V30 4148 H 381.952 -5.37838 1.71436 0
M  V30 4149 N 381.35 -0.985608 -1.22978 0
M  V30 4150 C 382.597 -0.657386 -1.91532 0
M  V30 4151 C 382.925 0.809707 -1.76845 0
M  V30 4152 O 382.18 1.60021 -1.12658 0
M  V30 4153 C 382.479 -1.00014 -3.43121 0
M  V30 4154 C 382.145 -2.4583 -3.77993 0
M  V30 4155 C 380.807 -2.85679 -3.87222 0
M  V30 4156 C 383.159 -3.40378 -3.94705 0
M  V30 4157 C 380.487 -4.19081 -4.10595 0
M  V30 4158 C 382.839 -4.73429 -4.1958 0
M  V30 4159 C 381.503 -5.1303 -4.27032 0
M  V30 4160 H 380.773 -0.240555 -0.700867 0
M  V30 4161 H 383.42 -1.24044 -1.45895 0
M  V30 4162 H 381.725 -0.335072 -3.90365 0
M  V30 4163 H 383.422 -0.724322 -3.94404 0
M  V30 4164 H 380.012 -2.13939 -3.71387 0
M  V30 4165 H 384.196 -3.10766 -3.8696 0
M  V30 4166 H 379.452 -4.49362 -4.14589 0
M  V30 4167 H 383.626 -5.46644 -4.31455 0
M  V30 4168 H 381.253 -6.16418 -4.44896 0
M  V30 4169 N 382.828 1.3818 -0.7579 0
M  V30 4170 C 383.738 2.3421 -0.135247 0
M  V30 4171 C 384.754 1.59487 0.695683 0
M  V30 4172 O 385.93 1.91657 0.618832 0
M  V30 4173 C 382.995 3.3862 0.744139 0
M  V30 4174 C 382.056 4.2918 -0.101658 0
M  V30 4175 C 381.289 5.28603 0.735851 0
M  V30 4176 O 381.512 5.35166 1.97366 0
M  V30 4177 O 380.446 6.01707 0.152372 0
M  V30 4178 H 384.272 2.8916 -0.928436 0
M  V30 4179 H 381.857 1.40101 -0.518855 0
M  V30 4180 H 383.739 4.02539 1.2466 0
M  V30 4181 H 382.414 2.86019 1.51575 0
M  V30 4182 H 381.321 3.68407 -0.650167 0
M  V30 4183 H 382.654 4.85048 -0.836024 0
M  V30 4184 N 384.306 0.507319 1.49211 0
M  V30 4185 C 385.239 -0.314509 2.26022 0
M  V30 4186 C 386.217 -0.964849 1.30879 0
M  V30 4187 O 387.401 -0.993707 1.6018 0
M  V30 4188 C 384.528 -1.44346 3.06402 0
M  V30 4189 C 383.574 -0.90685 4.16748 0
M  V30 4190 S 384.407 0.207392 5.35098 0
M  V30 4191 C 385.563 -0.924573 6.19033 0
M  V30 4192 H 385.796 0.337416 2.95379 0
M  V30 4193 H 383.329 0.292718 1.516 0
M  V30 4194 H 385.287 -2.09029 3.53295 0
M  V30 4195 H 383.948 -2.06702 2.36502 0
M  V30 4196 H 383.141 -1.75309 4.72528 0
M  V30 4197 H 382.743 -0.33712 3.72478 0
M  V30 4198 H 385.035 -1.82839 6.52362 0
M  V30 4199 H 385.978 -0.405248 7.06939 0
M  V30 4200 H 386.386 -1.19476 5.51712 0
M  V30 4201 N 385.784 -1.5574 0.241426 0
M  V30 4202 C 386.714 -2.24133 -0.654722 0
M  V30 4203 C 387.695 -1.21974 -1.1856 0
M  V30 4204 O 388.88 -1.50612 -1.22595 0
M  V30 4205 C 386.01 -2.93659 -1.85423 0
M  V30 4206 C 384.964 -4.0246 -1.45636 0
M  V30 4207 C 384.29 -4.59383 -2.73626 0
M  V30 4208 C 385.59 -5.18468 -0.631506 0
M  V30 4209 H 387.284 -2.99281 -0.0844353 0
M  V30 4210 H 384.83 -1.43947 -0.0391707 0
M  V30 4211 H 386.783 -3.40203 -2.48676 0
M  V30 4212 H 385.507 -2.15991 -2.44981 0
M  V30 4213 H 384.166 -3.56676 -0.847202 0
M  V30 4214 H 383.814 -3.78422 -3.3137 0
M  V30 4215 H 383.514 -5.32826 -2.4773 0
M  V30 4216 H 385.038 -5.08658 -3.37786 0
M  V30 4217 H 386.452 -5.61272 -1.1682 0
M  V30 4218 H 384.849 -5.98266 -0.468831 0
M  V30 4219 H 385.919 -4.8358 0.357506 0
M  V30 4220 N 387.262 0.0317525 -1.57568 0
M  V30 4221 C 388.49 0.734949 -1.93407 0
M  V30 4222 C 388.905 1.69036 -0.84096 0
M  V30 4223 O 388.262 1.81582 0.182836 0
M  V30 4224 C 388.313 1.49432 -3.29169 0
M  V30 4225 O 388.034 0.577261 -4.3428 0
M  V30 4226 C 389.535 2.29492 -3.79273 0
M  V30 4227 H 386.755 0.206706 -0.638368 0
M  V30 4228 H 389.299 -0.00992046 -2.04498 0
M  V30 4229 H 387.454 2.1911 -3.19483 0
M  V30 4230 H 387.868 1.10952 -5.1263 0
M  V30 4231 H 389.342 2.78172 -4.76785 0
M  V30 4232 H 389.819 3.10794 -3.10328 0
M  V30 4233 H 390.425 1.64894 -3.92033 0
M  V30 4234 N 388.74 1.54641 0.303973 0
M  V30 4235 C 389.988 1.73437 1.0375 0
M  V30 4236 C 390.309 0.521449 1.87899 0
M  V30 4237 O 389.579 -0.46432 1.90318 0
M  V30 4238 H 388.159 0.639518 0.386039 0
M  V30 4239 H 390.821 1.91988 0.335675 0
M  V30 4240 H 389.917 2.62235 1.69231 0
M  V30 4241 N 390.218 -0.567019 1.47046 0
M  V30 4242 C 391.446 -1.35027 1.56765 0
M  V30 4243 C 391.861 -1.8758 0.214316 0
M  V30 4244 O 391.218 -1.64471 -0.790919 0
M  V30 4245 C 391.269 -2.52698 2.58507 0
M  V30 4246 O 390.99 -2.0232 3.88585 0
M  V30 4247 C 392.491 -3.45043 2.78316 0
M  V30 4248 H 389.711 -0.41195 0.529658 0
M  V30 4249 H 392.255 -0.687832 1.92585 0
M  V30 4250 H 390.41 -3.149 2.25648 0
M  V30 4251 H 390.824 -2.79068 4.44096 0
M  V30 4252 H 392.298 -4.2405 3.53391 0
M  V30 4253 H 392.775 -3.97971 1.85784 0
M  V30 4254 H 393.381 -2.88665 3.12334 0
M  V30 4255 N 391.696 -1.35014 -0.812953 0
M  V30 4256 C 392.626 -1.30069 -1.93919 0
M  V30 4257 C 393.607 -0.176275 -1.69184 0
M  V30 4258 O 394.792 -0.370227 -1.90638 0
M  V30 4259 C 391.922 -1.06547 -3.30552 0
M  V30 4260 C 390.876 -2.15561 -3.69753 0
M  V30 4261 C 390.202 -1.77214 -5.04479 0
M  V30 4262 C 391.502 -3.57476 -3.808 0
M  V30 4263 H 393.196 -2.24303 -1.98314 0
M  V30 4264 H 390.742 -1.07977 -0.952736 0
M  V30 4265 H 392.695 -1.01729 -4.08937 0
M  V30 4266 H 391.419 -0.0875719 -3.26483 0
M  V30 4267 H 390.078 -2.19466 -2.9365 0
M  V30 4268 H 389.726 -0.780589 -4.96906 0
M  V30 4269 H 389.426 -2.50184 -5.31678 0
M  V30 4270 H 390.95 -1.7391 -5.8531 0
M  V30 4271 H 392.364 -3.55929 -4.4943 0
M  V30 4272 H 390.761 -4.29152 -4.19462 0
M  V30 4273 H 391.831 -3.94091 -2.82525 0
M  V30 4274 N 393.175 1.03435 -1.18907 0
M  V30 4275 C 394.586 1.58195 -0.991523 0
M  V30 4276 C 394.937 1.90801 0.457081 0
M  V30 4277 O 394.062 1.70272 1.33553 0
M  V30 4278 C 394.657 2.87432 -1.79355 0
M  V30 4279 C 393.216 3.38785 -1.64017 0
M  V30 4280 C 392.363 2.12292 -1.78402 0
M  V30 4281 H 395.314 0.860299 -1.33359 0
M  V30 4282 H 395.335 3.58096 -1.28638 0
M  V30 4283 H 394.847 2.63669 -2.84781 0
M  V30 4284 H 392.948 3.67547 -0.611536 0
M  V30 4285 H 393.061 4.12186 -2.44212 0
M  V30 4286 H 391.425 2.23901 -1.2141 0
M  V30 4287 H 392.208 1.90977 -2.85277 0
M  V30 4288 N 394.653 0.992116 1.22453 0
M  V30 4289 C 395.9 0.667534 1.91181 0
M  V30 4290 C 396.228 -0.800317 1.77271 0
M  V30 4291 O 395.483 -1.59421 1.13505 0
M  V30 4292 C 395.782 1.01832 3.42586 0
M  V30 4293 C 395.448 2.47831 3.76684 0
M  V30 4294 C 394.11 2.87729 3.85701 0
M  V30 4295 C 396.462 3.42466 3.92895 0
M  V30 4296 C 393.79 4.21252 4.08367 0
M  V30 4297 C 396.142 4.75648 4.17064 0
M  V30 4298 C 394.806 5.15288 4.24305 0
M  V30 4299 H 394.076 0.244268 0.699581 0
M  V30 4300 H 396.723 1.24816 1.45235 0
M  V30 4301 H 395.028 0.355769 3.90181 0
M  V30 4302 H 396.725 0.745228 3.94014 0
M  V30 4303 H 393.315 2.15905 3.70247 0
M  V30 4304 H 397.499 3.12814 3.85307 0
M  V30 4305 H 392.755 4.51554 4.122 0
M  V30 4306 H 396.929 5.48924 4.2855 0
M  V30 4307 H 394.556 6.18769 4.41621 0
M  V30 4308 N 396.131 -1.37776 0.765217 0
M  V30 4309 C 397.063 -2.28958 0.105361 0
M  V30 4310 C 398.076 -1.48316 -0.67128 0
M  V30 4311 O 399.265 -1.71046 -0.51045 0
M  V30 4312 C 396.365 -3.27421 -0.874569 0
M  V30 4313 C 395.538 -4.37132 -0.153123 0
M  V30 4314 C 394.597 -5.1571 -1.04547 0
M  V30 4315 O 393.623 -5.66896 -0.511672 0
M  V30 4316 N 394.825 -5.29808 -2.37243 0
M  V30 4317 H 397.59 -2.86227 0.888495 0
M  V30 4318 H 395.151 -1.49682 0.617 0
M  V30 4319 H 397.143 -3.7687 -1.47483 0
M  V30 4320 H 395.713 -2.70967 -1.55871 0
M  V30 4321 H 394.933 -3.89166 0.627975 0
M  V30 4322 H 396.221 -5.07625 0.345643 0
M  V30 4323 H 395.619 -4.89793 -2.83054 0
M  V30 4324 H 394.176 -5.82589 -2.9229 0
M  V30 4325 N 397.609 -0.515225 -1.4894 0
M  V30 4326 C 398.857 0.0241671 -2.02086 0
M  V30 4327 C 399.178 1.3616 -1.3959 0
M  V30 4328 O 398.448 1.87841 -0.556121 0
M  V30 4329 H 397.028 0.0119203 -0.746905 0
M  V30 4330 H 399.69 -0.675702 -1.82812 0
M  V30 4331 H 398.786 0.143385 -3.1177 0
M  V30 4332 N 399.087 1.5561 -0.249682 0
M  V30 4333 C 400.034 2.21496 0.648694 0
M  V30 4334 C 401.004 1.17977 1.16921 0
M  V30 4335 O 402.189 1.46434 1.22318 0
M  V30 4336 C 399.329 2.92039 1.83868 0
M  V30 4337 C 398.442 4.10219 1.35442 0
M  V30 4338 C 397.577 4.6847 2.50419 0
M  V30 4339 C 396.616 5.78893 1.98869 0
M  V30 4340 N 395.753 6.31315 3.07223 0
M  V30 4341 H 400.593 2.97892 0.0801582 0
M  V30 4342 H 398.13 1.47074 0.0278031 0
M  V30 4343 H 400.088 3.31138 2.53778 0
M  V30 4344 H 398.718 2.18111 2.37965 0
M  V30 4345 H 397.77 3.76413 0.54928 0
M  V30 4346 H 399.082 4.89927 0.936649 0
M  V30 4347 H 398.236 5.10158 3.28366 0
M  V30 4348 H 396.975 3.87984 2.95499 0
M  V30 4349 H 395.98 5.3668 1.19393 0
M  V30 4350 H 397.205 6.61232 1.54755 0
M  V30 4351 H 395.151 5.53733 3.51732 0
M  V30 4352 H 395.068 7.06224 2.69784 0
M  V30 4353 H 396.336 6.77662 3.8522 0
M  V30 4354 N 400.565 -0.0233959 1.57583 0
M  V30 4355 C 401.842 -0.748794 1.807 0
M  V30 4356 C 402.222 -1.9327 0.849106 0
M  V30 4357 O 401.57 -2.28247 -0.107468 0
M  V30 4358 C 401.78 -1.17651 3.28571 0
M  V30 4359 C 403.128 -1.59008 3.93702 0
M  V30 4360 O 404.152 -1.27094 3.32755 0
M  V30 4361 O 403.011 -2.18264 5.01022 0
M  V30 4362 H 400.105 -0.362578 0.743281 0
M  V30 4363 H 402.651 0.000261958 1.697 0
M  V30 4364 H 401.423 -0.331603 3.89892 0
M  V30 4365 H 401.046 -1.98541 3.44481 0
M  V30 4366 N 402.043 -1.548 -0.295768 0
M  V30 4367 C 403.459 -1.4613 -0.641722 0
M  V30 4368 C 403.659 -0.656771 -1.90496 0
M  V30 4369 O 402.715 -0.166547 -2.5195 0
M  V30 4370 C 404.028 -2.90141 -0.789852 0
M  V30 4371 C 405.576 -3.00216 -0.885396 0
M  V30 4372 C 406.051 -4.45434 -1.06548 0
M  V30 4373 N 407.542 -4.49166 -1.13156 0
M  V30 4374 C 408.277 -5.58717 -1.28929 0
M  V30 4375 N 407.773 -6.78182 -1.41567 0
M  V30 4376 N 409.566 -5.46415 -1.31859 0
M  V30 4377 H 401.717 -2.05574 0.534147 0
M  V30 4378 H 403.98 -0.931259 0.177372 0
M  V30 4379 H 403.686 -3.51635 0.0675598 0
M  V30 4380 H 403.56 -3.37859 -1.67724 0
M  V30 4381 H 405.947 -2.38833 -1.73329 0
M  V30 4382 H 406.028 -2.55787 0.0261185 0
M  V30 4383 H 405.672 -5.07413 -0.222335 0
M  V30 4384 H 405.602 -4.87499 -1.9913 0
M  V30 4385 H 408.093 -3.631 -1.04721 0
M  V30 4386 H 408.406 -7.57428 -1.53372 0
M  V30 4387 H 406.751 -6.81037 -1.38613 0
M  V30 4388 H 409.942 -4.5203 -1.21601 0
M  V30 4389 H 410.115 -6.31841 -1.43808 0
M  V30 4390 N 403.521 0.559213 -1.47345 0
M  V30 4391 C 404.468 1.66645 -1.59682 0
M  V30 4392 C 405.438 1.60168 -0.43994 0
M  V30 4393 O 406.623 1.79031 -0.659736 0
M  V30 4394 C 403.763 3.04969 -1.61518 0
M  V30 4395 C 402.876 3.21897 -2.88108 0
M  V30 4396 C 402.011 4.50608 -2.81294 0
M  V30 4397 C 401.05 4.60961 -4.02717 0
M  V30 4398 N 400.187 5.81024 -3.94151 0
M  V30 4399 H 405.027 1.55439 -2.54249 0
M  V30 4400 H 402.564 0.757219 -1.26113 0
M  V30 4401 H 404.522 3.85064 -1.60566 0
M  V30 4402 H 403.152 3.15015 -0.704645 0
M  V30 4403 H 402.204 2.35248 -2.98936 0
M  V30 4404 H 403.516 3.25412 -3.78032 0
M  V30 4405 H 402.67 5.3896 -2.7858 0
M  V30 4406 H 401.409 4.49568 -1.89049 0
M  V30 4407 H 400.414 3.71021 -4.05738 0
M  V30 4408 H 401.639 4.63761 -4.96087 0
M  V30 4409 H 399.585 5.80938 -3.04708 0
M  V30 4410 H 399.502 5.85909 -4.77752 0
M  V30 4411 H 400.77 6.71744 -3.9545 0
M  V30 4412 N 404.999 1.35443 0.805782 0
M  V30 4413 C 405.909 1.30546 1.94923 0
M  V30 4414 C 406.925 0.210233 1.72725 0
M  V30 4415 O 408.101 0.43975 1.9654 0
M  V30 4416 C 405.166 1.07782 3.29521 0
M  V30 4417 C 404.227 2.26625 3.64609 0
M  V30 4418 C 403.46 2.04938 4.92784 0
M  V30 4419 O 403.683 1.01624 5.61274 0
M  V30 4420 O 402.617 2.9232 5.26149 0
M  V30 4421 H 406.443 2.26779 2.02002 0
M  V30 4422 H 404.028 1.15823 0.943682 0
M  V30 4423 H 405.91 0.969392 4.10098 0
M  V30 4424 H 404.585 0.146003 3.23371 0
M  V30 4425 H 403.492 2.43033 2.84404 0
M  V30 4426 H 404.825 3.18257 3.75464 0
M  V30 4427 N 406.477 -1.02803 1.19454 0
M  V30 4428 C 407.705 -1.79841 1.02297 0
M  V30 4429 C 408.12 -1.83879 -0.428259 0
M  V30 4430 O 407.477 -1.28345 -1.29745 0
M  V30 4431 C 407.528 -3.24852 1.58598 0
M  V30 4432 O 407.249 -3.21097 2.98041 0
M  V30 4433 C 408.75 -4.18485 1.46236 0
M  V30 4434 H 405.97 -0.565936 0.360496 0
M  V30 4435 H 408.514 -1.2948 1.58288 0
M  V30 4436 H 406.669 -3.72401 1.06753 0
M  V30 4437 H 407.083 -4.12033 3.24545 0
M  V30 4438 H 408.557 -5.18121 1.90407 0
M  V30 4439 H 409.034 -4.37254 0.41301 0
M  V30 4440 H 409.64 -3.76811 1.97215 0
M  V30 4441 N 407.956 -0.998596 -1.21925 0
M  V30 4442 C 408.889 -0.498517 -2.22688 0
M  V30 4443 C 409.867 0.444301 -1.56412 0
M  V30 4444 O 411.051 0.368518 -1.84863 0
M  V30 4445 C 408.178 0.276639 -3.37568 0
M  V30 4446 C 407.224 -0.61302 -4.22071 0
M  V30 4447 S 408.057 -2.07168 -4.93803 0
M  V30 4448 C 409.213 -1.30617 -6.12119 0
M  V30 4449 H 409.446 -1.35234 -2.64762 0
M  V30 4450 H 406.979 -0.806018 -1.31692 0
M  V30 4451 H 408.937 0.717817 -4.04175 0
M  V30 4452 H 407.598 1.10581 -2.93991 0
M  V30 4453 H 406.791 -0.0162909 -5.03997 0
M  V30 4454 H 406.393 -0.991202 -3.60626 0
M  V30 4455 H 408.685 -0.57675 -6.75041 0
M  V30 4456 H 409.628 -2.10091 -6.76215 0
M  V30 4457 H 410.036 -0.816957 -5.58557 0
M  V30 4458 N 409.434 1.37368 -0.772513 0
M  V30 4459 C 410.662 2.03942 -0.348588 0
M  V30 4460 C 411.077 1.58264 1.02947 0
M  V30 4461 O 410.434 0.764246 1.65727 0
M  V30 4462 C 410.485 3.5946 -0.38351 0
M  V30 4463 O 410.206 4.03468 -1.70721 0
M  V30 4464 C 411.707 4.4327 0.0519152 0
M  V30 4465 H 408.927 0.654931 -0.145966 0
M  V30 4466 H 411.471 1.75686 -1.04665 0
M  V30 4467 H 409.626 3.86486 0.265978 0
M  V30 4468 H 410.04 4.97991 -1.64636 0
M  V30 4469 H 411.514 5.51995 -0.0236733 0
M  V30 4470 H 411.991 4.2514 1.10238 0
M  V30 4471 H 412.597 4.21471 -0.569415 0
M  V30 4472 N 410.912 0.523116 1.48665 0
M  V30 4473 C 411.845 -0.290518 2.26343 0
M  V30 4474 C 412.823 -0.950913 1.31895 0
M  V30 4475 O 414.007 -0.976662 1.61225 0
M  V30 4476 C 411.134 -1.41088 3.07915 0
M  V30 4477 C 410.18 -0.862597 4.17686 0
M  V30 4478 S 411.013 0.264135 5.34848 0
M  V30 4479 C 412.169 -0.858864 6.19979 0
M  V30 4480 H 412.402 0.368726 2.95005 0
M  V30 4481 H 409.935 0.30878 1.51281 0
M  V30 4482 H 411.893 -2.0527 3.55492 0
M  V30 4483 H 410.554 -2.04182 2.38681 0
M  V30 4484 H 409.747 -1.70287 4.74361 0
M  V30 4485 H 409.349 -0.297595 3.72814 0
M  V30 4486 H 411.641 -1.7591 6.54264 0
M  V30 4487 H 412.584 -0.330244 7.07329 0
M  V30 4488 H 412.992 -1.13617 5.52948 0
M  V30 4489 N 412.39 -1.55475 0.257931 0
M  V30 4490 C 413.639 -1.98383 -0.364275 0
M  V30 4491 C 413.952 -1.14952 -1.58258 0
M  V30 4492 O 415.158 -1.47924 -2.27664 0
M  V30 4493 C 413.614 -3.53037 -0.699479 0
M  V30 4494 C 413.222 -4.45223 0.498046 0
M  V30 4495 C 414.966 -4.04575 -1.28526 0
M  V30 4496 C 412.873 -5.91238 0.138383 0
M  V30 4497 H 411.803 -0.740911 -0.13988 0
M  V30 4498 H 414.454 -1.79936 0.359883 0
M  V30 4499 H 412.836 -3.6722 -1.48207 0
M  V30 4500 H 414.01 -4.42803 1.27522 0
M  V30 4501 H 412.325 -4.04226 0.999503 0
M  V30 4502 H 414.922 -5.11196 -1.56788 0
M  V30 4503 H 415.265 -3.5258 -2.21344 0
M  V30 4504 H 415.798 -3.93762 -0.565337 0
M  V30 4505 H 412.537 -6.47294 1.03398 0
M  V30 4506 H 412.057 -5.96768 -0.602374 0
M  V30 4507 H 413.736 -6.46413 -0.27553 0
M  V30 4508 N 413.868 0.0150385 -1.57593 0
M  V30 4509 C 414.798 1.01047 -2.10503 0
M  V30 4510 C 415.779 1.36816 -1.01071 0
M  V30 4511 O 416.964 1.45455 -1.28672 0
M  V30 4512 C 414.094 2.30708 -2.59598 0
M  V30 4513 C 413.048 2.09142 -3.73421 0
M  V30 4514 C 412.374 3.44685 -4.08774 0
M  V30 4515 C 413.674 1.46619 -5.01298 0
M  V30 4516 H 415.368 0.569978 -2.93925 0
M  V30 4517 H 412.914 0.272724 -1.41394 0
M  V30 4518 H 414.867 3.00687 -2.95238 0
M  V30 4519 H 413.591 2.76843 -1.73279 0
M  V30 4520 H 412.25 1.41592 -3.38153 0
M  V30 4521 H 411.898 3.88495 -3.195 0
M  V30 4522 H 411.598 3.31077 -4.8545 0
M  V30 4523 H 413.122 4.16004 -4.4696 0
M  V30 4524 H 414.536 2.06535 -5.34805 0
M  V30 4525 H 412.933 1.43544 -5.82679 0
M  V30 4526 H 414.003 0.433611 -4.82957 0
M  V30 4527 N 415.346 1.54954 0.287554 0
M  V30 4528 C 416.293 1.86834 1.35505 0
M  V30 4529 C 417.263 0.718452 1.49758 0
M  V30 4530 O 418.448 0.968358 1.644 0
M  V30 4531 C 415.588 2.13303 2.71286 0
M  V30 4532 C 414.701 3.40883 2.65373 0
M  V30 4533 C 413.836 3.57125 3.93236 0
M  V30 4534 C 412.875 4.78449 3.81776 0
M  V30 4535 N 412.012 4.91426 5.01443 0
M  V30 4536 H 416.852 2.77889 1.07619 0
M  V30 4537 H 414.389 1.37593 0.520241 0
M  V30 4538 H 416.347 2.26646 3.50267 0
M  V30 4539 H 414.977 1.25499 2.97405 0
M  V30 4540 H 414.029 3.36088 1.78182 0
M  V30 4541 H 415.341 4.29993 2.52799 0
M  V30 4542 H 414.495 3.70207 4.80658 0
M  V30 4543 H 413.234 2.66173 4.0866 0
M  V30 4544 H 412.239 4.65386 2.92738 0
M  V30 4545 H 413.464 5.70822 3.67884 0
M  V30 4546 H 411.41 4.03401 5.17304 0
M  V30 4547 H 411.327 5.74559 4.91343 0
M  V30 4548 H 412.595 5.08879 5.90477 0
M  V30 4549 N 416.824 -0.551391 1.4764 0
M  V30 4550 C 417.787 -1.64007 1.60107 0
M  V30 4551 C 418.787 -1.53601 0.47576 0
M  V30 4552 O 419.977 -1.57655 0.740988 0
M  V30 4553 C 417.109 -3.03569 1.55108 0
M  V30 4554 H 418.302 -1.543 2.57161 0
M  V30 4555 H 415.855 -0.771776 1.35917 0
M  V30 4556 H 416.59 -3.18804 0.594519 0
M  V30 4557 H 416.375 -3.12532 2.36783 0
M  V30 4558 H 417.865 -3.82762 1.66982 0
M  V30 4559 N 418.302 -1.35869 -0.798587 0
M  V30 4560 C 419.249 -1.29446 -1.91082 0
M  V30 4561 C 420.219 -0.16487 -1.6528 0
M  V30 4562 O 421.404 -0.349888 -1.87564 0
M  V30 4563 C 418.544 -1.0804 -3.27752 0
M  V30 4564 C 417.657 -2.29993 -3.65687 0
M  V30 4565 C 416.792 -2.01673 -4.91428 0
M  V30 4566 C 415.831 -3.19636 -5.22015 0
M  V30 4567 N 414.968 -2.91039 -6.38937 0
M  V30 4568 H 419.808 -2.24553 -1.95907 0
M  V30 4569 H 417.345 -1.11615 -0.958148 0
M  V30 4570 H 419.303 -0.936586 -4.06551 0
M  V30 4571 H 417.933 -0.16592 -3.22373 0
M  V30 4572 H 416.985 -2.55211 -2.82085 0
M  V30 4573 H 418.297 -3.18052 -3.84245 0
M  V30 4574 H 417.451 -1.84168 -5.78072 0
M  V30 4575 H 416.19 -1.10911 -4.74921 0
M  V30 4576 H 415.195 -3.37709 -4.33858 0
M  V30 4577 H 416.42 -4.11211 -5.40447 0
M  V30 4578 H 414.366 -2.0288 -6.2384 0
M  V30 4579 H 414.283 -3.72635 -6.57784 0
M  V30 4580 H 415.551 -2.77093 -7.28587 0
M  V30 4581 N 419.78 1.02168 -1.19998 0
M  V30 4582 C 420.71 2.12488 -0.96804 0
M  V30 4583 C 421.691 1.69799 0.101185 0
M  V30 4584 O 422.876 1.94121 -0.0552993 0
M  V30 4585 C 420.006 3.43479 -0.513776 0
M  V30 4586 C 418.96 3.99884 -1.52566 0
M  V30 4587 C 418.286 5.26582 -0.928214 0
M  V30 4588 C 419.586 4.33861 -2.90795 0
M  V30 4589 H 421.28 2.32149 -1.89069 0
M  V30 4590 H 418.826 1.11564 -0.910468 0
M  V30 4591 H 420.779 4.20036 -0.338774 0
M  V30 4592 H 419.503 3.23561 0.444493 0
M  V30 4593 H 418.162 3.25429 -1.68794 0
M  V30 4594 H 417.81 5.02986 0.0378289 0
M  V30 4595 H 417.51 5.65284 -1.60397 0
M  V30 4596 H 419.034 6.05799 -0.764167 0
M  V30 4597 H 420.448 5.01327 -2.78109 0
M  V30 4598 H 418.845 4.83664 -3.55231 0
M  V30 4599 H 419.915 3.42848 -3.42904 0
M  V30 4600 N 421.258 1.00505 1.21394 0
M  V30 4601 C 422.506 0.686415 1.90086 0
M  V30 4602 C 422.827 -0.785264 1.7849 0
M  V30 4603 O 422.097 -1.56387 1.17983 0
M  V30 4604 H 420.677 0.2509 0.703604 0
M  V30 4605 H 423.339 1.27417 1.47482 0
M  V30 4606 H 422.435 0.959621 2.96981 0
M  V30 4607 N 422.737 -1.36956 0.779787 0
M  V30 4608 C 423.67 -2.27896 0.117681 0
M  V30 4609 C 424.648 -1.46736 -0.700523 0
M  V30 4610 O 425.832 -1.76055 -0.673568 0
M  V30 4611 C 422.959 -3.28136 -0.839296 0
M  V30 4612 C 422.005 -4.26373 -0.10409 0
M  V30 4613 S 422.838 -5.2157 1.21348 0
M  V30 4614 C 423.994 -6.25359 0.260249 0
M  V30 4615 H 424.227 -2.83704 0.888778 0
M  V30 4616 H 421.76 -1.43352 0.57355 0
M  V30 4617 H 423.718 -3.86394 -1.38601 0
M  V30 4618 H 422.379 -2.7126 -1.58356 0
M  V30 4619 H 421.572 -4.97121 -0.82986 0
M  V30 4620 H 421.174 -3.72147 0.371858 0
M  V30 4621 H 423.466 -6.75145 -0.564435 0
M  V30 4622 H 424.409 -7.01885 0.936135 0
M  V30 4623 H 424.817 -5.64345 -0.132127 0
M  V30 4624 N 424.215 -0.530993 -1.48385 0
M  V30 4625 C 425.626 -0.0907905 -1.86479 0
M  V30 4626 C 425.977 1.33213 -1.44044 0
M  V30 4627 O 425.102 1.99783 -0.831615 0
M  V30 4628 C 425.697 -0.157987 -3.38431 0
M  V30 4629 C 424.256 0.227026 -3.75715 0
M  V30 4630 C 423.403 -0.5173 -2.72432 0
M  V30 4631 H 426.354 -0.742186 -1.40276 0
M  V30 4632 H 426.375 0.630053 -3.75247 0
M  V30 4633 H 425.887 -1.19372 -3.69286 0
M  V30 4634 H 423.988 1.26486 -3.50474 0
M  V30 4635 H 424.101 -0.113288 -4.78966 0
M  V30 4636 H 422.465 0.0365527 -2.54674 0
M  V30 4637 H 423.248 -1.55368 -3.0613 0
M  V30 4638 N 425.693 1.55336 -0.266172 0
M  V30 4639 C 426.625 2.19544 0.658247 0
M  V30 4640 C 427.638 1.17746 1.12427 0
M  V30 4641 O 428.827 1.44517 1.04772 0
M  V30 4642 C 425.927 2.80032 1.9088 0
M  V30 4643 C 425.1 4.07436 1.59106 0
M  V30 4644 C 424.159 4.52056 2.69317 0
M  V30 4645 O 423.185 5.18023 2.35883 0
M  V30 4646 N 424.387 4.21448 3.99201 0
M  V30 4647 H 427.152 2.99503 0.108754 0
M  V30 4648 H 424.713 1.61667 -0.0869059 0
M  V30 4649 H 426.705 3.06831 2.63888 0
M  V30 4650 H 425.275 2.04119 2.36758 0
M  V30 4651 H 424.495 3.88021 0.695243 0
M  V30 4652 H 425.783 4.90462 1.35367 0
M  V30 4653 H 425.181 3.68528 4.29189 0
M  V30 4654 H 423.738 4.53039 4.68614 0
M  V30 4655 N 427.171 -0.0066808 1.57599 0
M  V30 4656 C 428.418 -0.69292 1.90276 0
M  V30 4657 C 428.746 -1.74148 0.866192 0
M  V30 4658 O 428.001 -1.95268 -0.129933 0
M  V30 4659 C 428.3 -1.37939 3.29708 0
M  V30 4660 C 427.966 -0.464679 4.48499 0
M  V30 4661 C 426.628 -0.212809 4.80729 0
M  V30 4662 C 428.98 0.16551 5.20937 0
M  V30 4663 C 426.308 0.677653 5.82773 0
M  V30 4664 C 428.66 1.04381 6.23929 0
M  V30 4665 C 427.324 1.30492 6.54621 0
M  V30 4666 H 426.594 -0.253558 0.696268 0
M  V30 4667 H 429.241 0.0474123 1.91441 0
M  V30 4668 H 427.546 -2.1936 3.24636 0
M  V30 4669 H 429.243 -1.9163 3.52249 0
M  V30 4670 H 425.833 -0.671153 4.23313 0
M  V30 4671 H 430.017 -0.0160756 4.96297 0
M  V30 4672 H 425.273 0.88803 6.04917 0
M  V30 4673 H 429.447 1.53851 6.79193 0
M  V30 4674 H 427.074 1.99662 7.33512 0
M  V30 4675 N 428.649 -1.55105 -0.279332 0
M  V30 4676 C 429.579 -1.90557 -1.34945 0
M  V30 4677 C 430.56 -0.766738 -1.51839 0
M  V30 4678 O 431.745 -1.02434 -1.64988 0
M  V30 4679 C 428.875 -2.17193 -2.71006 0
M  V30 4680 C 427.829 -3.33021 -2.68851 0
M  V30 4681 C 427.155 -3.45123 -4.08405 0
M  V30 4682 C 428.455 -4.69578 -2.28678 0
M  V30 4683 H 430.149 -2.80188 -1.05522 0
M  V30 4684 H 427.695 -1.34811 -0.506173 0
M  V30 4685 H 429.648 -2.40581 -3.45975 0
M  V30 4686 H 428.372 -1.24355 -3.01999 0
M  V30 4687 H 427.031 -3.0959 -1.9634 0
M  V30 4688 H 426.679 -2.49762 -4.3661 0
M  V30 4689 H 426.379 -4.22995 -4.07859 0
M  V30 4690 H 427.903 -3.70796 -4.85121 0
M  V30 4691 H 429.317 -4.92553 -2.93368 0
M  V30 4692 H 427.714 -5.5032 -2.39306 0
M  V30 4693 H 428.784 -4.68828 -1.23807 0
M  V30 4694 N 430.127 0.543554 -1.4793 0
M  V30 4695 C 431.352 1.32995 -1.59145 0
M  V30 4696 C 431.777 1.86472 -0.246956 0
M  V30 4697 O 431.135 1.63696 0.779324 0
M  V30 4698 C 431.183 2.46623 -2.63077 0
M  V30 4699 O 430.287 3.49261 -2.19295 0
M  V30 4700 H 429.628 0.394472 -0.534124 0
M  V30 4701 H 432.158 0.655489 -1.93816 0
M  V30 4702 H 432.168 2.93001 -2.83926 0
M  V30 4703 H 430.843 2.07059 -3.60693 0
M  V30 4704 H 429.42 3.09094 -2.08603 0
M  V30 4705 N 431.605 1.3629 0.791371 0
M  V30 4706 C 433.016 1.27225 1.36641 0
M  V30 4707 C 433.367 -0.0887968 1.95999 0
M  V30 4708 O 432.492 -0.990207 1.92416 0
M  V30 4709 C 433.087 2.30375 2.48421 0
M  V30 4710 C 431.646 2.25004 3.01746 0
M  V30 4711 C 430.793 2.15259 1.7481 0
M  V30 4712 H 433.744 1.47198 0.593173 0
M  V30 4713 H 433.765 1.93905 3.27385 0
M  V30 4714 H 433.277 3.29422 2.05189 0
M  V30 4715 H 431.378 1.29417 3.49403 0
M  V30 4716 H 431.491 3.1761 3.58693 0
M  V30 4717 H 429.855 1.61482 1.96966 0
M  V30 4718 H 430.638 3.16191 1.33709 0
M  V30 4719 N 433.083 -1.0153 1.20538 0
M  V30 4720 C 433.993 -2.13557 0.971113 0
M  V30 4721 C 435.009 -1.73845 -0.0734366 0
M  V30 4722 O 436.185 -2.01075 0.114299 0
M  V30 4723 C 433.25 -3.42661 0.527639 0
M  V30 4724 C 432.311 -3.96608 1.64319 0
M  V30 4725 C 431.544 -5.1955 1.22078 0
M  V30 4726 O 431.767 -5.70329 0.0900198 0
M  V30 4727 O 430.701 -5.66681 2.02871 0
M  V30 4728 H 434.527 -2.3619 1.90913 0
M  V30 4729 H 432.112 -1.11946 0.989362 0
M  V30 4730 H 433.994 -4.20404 0.289621 0
M  V30 4731 H 432.669 -3.21441 -0.381779 0
M  V30 4732 H 431.576 -3.20139 1.93551 0
M  V30 4733 H 432.909 -4.22219 2.52966 0
M  V30 4734 N 434.561 -1.01147 -1.20859 0
M  V30 4735 C 435.524 -0.582224 -2.21682 0
M  V30 4736 C 436.524 0.344887 -1.57058 0
M  V30 4737 O 437.714 0.134281 -1.73682 0
M  V30 4738 C 434.846 0.150496 -3.40568 0
M  V30 4739 H 436.039 -1.47408 -2.61172 0
M  V30 4740 H 433.592 -0.800695 -1.34233 0
M  V30 4741 H 434.327 1.0575 -3.06574 0
M  V30 4742 H 434.112 -0.515444 -3.88697 0
M  V30 4743 H 435.602 0.438344 -4.15293 0
M  V30 4744 N 436.039 1.36541 -0.78704 0
M  V30 4745 C 436.971 2.28761 -0.141773 0
M  V30 4746 C 437.984 1.49365 0.647599 0
M  V30 4747 O 439.173 1.71836 0.483173 0
M  V30 4748 C 436.273 3.28771 0.822368 0
M  V30 4749 C 435.446 4.3732 0.0835594 0
M  V30 4750 C 434.505 5.17307 0.963296 0
M  V30 4751 O 433.531 5.67638 0.421419 0
M  V30 4752 N 434.733 5.33515 2.28784 0
M  V30 4753 H 437.498 2.84777 -0.933919 0
M  V30 4754 H 435.059 1.48682 -0.640735 0
M  V30 4755 H 437.051 3.79169 1.41468 0
M  V30 4756 H 435.621 2.73412 1.5154 0
M  V30 4757 H 434.841 3.88118 -0.689809 0
M  V30 4758 H 436.129 5.0701 -0.426358 0
M  V30 4759 H 435.527 4.94234 2.75226 0
M  V30 4760 H 434.084 5.87165 2.82985 0
M  V30 4761 N 437.518 0.538854 1.48102 0
M  V30 4762 C 438.743 0.0102694 2.07397 0
M  V30 4763 C 439.168 -1.26562 1.39153 0
M  V30 4764 O 438.526 -1.75357 0.460387 0
M  V30 4765 C 438.574 -0.187602 3.60112 0
M  V30 4766 O 437.678 -1.25432 3.92862 0
M  V30 4767 H 437.019 0.0430975 0.6626 0
M  V30 4768 H 439.549 0.749301 1.90385 0
M  V30 4769 H 439.559 -0.407517 4.0596 0
M  V30 4770 H 438.234 0.744386 4.09184 0
M  V30 4771 H 436.811 -1.01636 3.58782 0
M  V30 4772 N 438.996 -1.55193 0.274407 0
M  V30 4773 C 439.926 -2.25471 -0.607032 0
M  V30 4774 C 440.907 -1.24461 -1.15946 0
M  V30 4775 O 442.092 -1.53179 -1.19373 0
M  V30 4776 C 439.222 -2.97526 -1.79153 0
M  V30 4777 C 438.176 -4.05459 -1.37067 0
M  V30 4778 C 437.502 -4.65084 -2.6382 0
M  V30 4779 C 438.802 -5.19691 -0.521389 0
M  V30 4780 H 440.496 -2.99393 -0.0209343 0
M  V30 4781 H 438.042 -1.43997 -0.00862866 0
M  V30 4782 H 439.995 -3.45402 -2.41404 0
M  V30 4783 H 438.719 -2.21138 -2.40344 0
M  V30 4784 H 437.378 -3.58393 -0.771355 0
M  V30 4785 H 437.026 -3.85365 -3.23268 0
M  V30 4786 H 436.726 -5.37961 -2.36372 0
M  V30 4787 H 438.25 -5.15708 -3.26921 0
M  V30 4788 H 439.664 -5.63623 -1.04889 0
M  V30 4789 H 438.061 -5.99126 -0.341825 0
M  V30 4790 H 439.131 -4.82713 0.46 0
M  V30 4791 N 440.474 -0.00167713 -1.576 0
M  V30 4792 C 441.404 0.988091 -2.11563 0
M  V30 4793 C 442.385 1.35736 -1.02517 0
M  V30 4794 O 443.57 1.44082 -1.30208 0
M  V30 4795 C 440.7 2.27941 -2.62031 0
M  V30 4796 C 439.654 2.0517 -3.75619 0
M  V30 4797 C 438.98 3.4033 -4.12407 0
M  V30 4798 C 440.28 1.41294 -5.02825 0
M  V30 4799 H 441.974 0.538771 -2.94513 0
M  V30 4800 H 439.52 0.257712 -1.41675 0
M  V30 4801 H 441.473 2.97539 -2.9841 0
M  V30 4802 H 440.197 2.74989 -1.76205 0
M  V30 4803 H 438.856 1.37998 -3.39635 0
M  V30 4804 H 438.504 3.85085 -3.23603 0
M  V30 4805 H 438.204 3.25909 -4.88935 0
M  V30 4806 H 439.728 4.1124 -4.51347 0
M  V30 4807 H 441.142 2.00851 -5.36965 0
M  V30 4808 H 439.539 1.37356 -5.84169 0
M  V30 4809 H 440.609 0.382362 -4.8339 0
M  V30 4810 N 441.952 1.55251 0.271103 0
M  V30 4811 C 443.368 1.47133 0.618393 0
M  V30 4812 C 443.568 0.686994 1.89427 0
M  V30 4813 O 442.624 0.206609 2.51653 0
M  V30 4814 C 443.937 2.91361 0.743593 0
M  V30 4815 C 445.485 3.01587 0.837522 0
M  V30 4816 C 445.96 4.47073 0.994483 0
M  V30 4817 N 447.451 4.50909 1.05996 0
M  V30 4818 C 448.186 5.60698 1.20024 0
M  V30 4819 N 447.682 6.80348 1.30759 0
M  V30 4820 N 449.475 5.48444 1.23149 0
M  V30 4821 H 441.626 2.04698 -0.566784 0
M  V30 4822 H 443.889 0.928319 -0.192165 0
M  V30 4823 H 443.595 3.51483 -0.123493 0
M  V30 4824 H 443.469 3.40484 1.62328 0
M  V30 4825 H 445.856 2.4156 1.69507 0
M  V30 4826 H 445.937 2.55713 -0.0668086 0
M  V30 4827 H 445.581 5.07703 0.141582 0
M  V30 4828 H 445.511 4.90605 1.91349 0
M  V30 4829 H 448.002 3.6472 0.989316 0
M  V30 4830 H 448.315 7.59772 1.41303 0
M  V30 4831 H 446.66 6.83156 1.27761 0
M  V30 4832 H 449.851 4.53907 1.14394 0
M  V30 4833 H 450.024 6.34049 1.33738 0
M  V30 4834 N 443.43 -0.535701 1.48216 0
M  V30 4835 C 444.363 -1.65726 1.56876 0
M  V30 4836 C 445.341 -1.57094 0.419542 0
M  V30 4837 O 446.525 -1.77648 0.630352 0
M  V30 4838 C 443.652 -3.04096 1.49142 0
M  V30 4839 C 442.698 -3.31105 2.68834 0
M  V30 4840 S 443.531 -3.18001 4.30854 0
M  V30 4841 C 444.687 -4.58828 4.25709 0
M  V30 4842 H 444.92 -1.58129 2.51759 0
M  V30 4843 H 442.453 -0.718218 1.36678 0
M  V30 4844 H 444.411 -3.839 1.45366 0
M  V30 4845 H 443.072 -3.09139 0.556067 0
M  V30 4846 H 442.265 -4.32033 2.59545 0
M  V30 4847 H 441.867 -2.58961 2.69843 0
M  V30 4848 H 444.159 -5.5023 3.95289 0
M  V30 4849 H 445.102 -4.73172 5.26796 0
M  V30 4850 H 445.51 -4.37883 3.56257 0
M  V30 4851 N 444.908 -1.36708 -0.784132 0
M  V30 4852 C 445.838 -1.34153 -1.91116 0
M  V30 4853 C 446.819 -0.212121 -1.68772 0
M  V30 4854 O 448.004 -0.410581 -1.8981 0
M  V30 4855 C 445.134 -1.13535 -3.28218 0
M  V30 4856 C 444.088 -2.23356 -3.65097 0
M  V30 4857 C 443.414 -1.87875 -5.00607 0
M  V30 4858 C 444.714 -3.65473 -3.73131 0
M  V30 4859 H 446.408 -2.28459 -1.93512 0
M  V30 4860 H 443.954 -1.09973 -0.929618 0
M  V30 4861 H 445.907 -1.10381 -4.06687 0
M  V30 4862 H 444.631 -0.156804 -3.26223 0
M  V30 4863 H 443.29 -2.25645 -2.88929 0
M  V30 4864 H 442.938 -0.885814 -4.95139 0
M  V30 4865 H 442.638 -2.61406 -5.26252 0
M  V30 4866 H 444.162 -1.86286 -5.81489 0
M  V30 4867 H 445.576 -3.65382 -4.41779 0
M  V30 4868 H 443.973 -4.37953 -4.10265 0
M  V30 4869 H 445.043 -3.99995 -2.74102 0
M  V30 4870 N 446.386 1.0089 -1.21074 0
M  V30 4871 C 447.633 1.74607 -1.0256 0
M  V30 4872 C 447.961 1.89426 0.44136 0
M  V30 4873 O 447.216 1.42266 1.34384 0
M  V30 4874 C 447.515 3.16335 -1.66334 0
M  V30 4875 C 447.181 3.21474 -3.16173 0
M  V30 4876 C 445.843 3.22583 -3.57062 0
M  V30 4877 C 448.195 3.19025 -4.12156 0
M  V30 4878 C 445.523 3.18925 -4.92446 0
M  V30 4879 C 447.875 3.16909 -5.47496 0
M  V30 4880 C 446.539 3.16326 -5.87787 0
M  V30 4881 H 445.809 0.638933 -0.375294 0
M  V30 4882 H 448.456 1.18274 -1.50611 0
M  V30 4883 H 446.761 3.75876 -1.10566 0
M  V30 4884 H 448.458 3.72083 -1.49516 0
M  V30 4885 H 445.048 3.2135 -2.83605 0
M  V30 4886 H 449.232 3.17332 -3.81595 0
M  V30 4887 H 444.488 3.16809 -5.22917 0
M  V30 4888 H 448.662 3.13968 -6.21609 0
M  V30 4889 H 446.289 3.13246 -6.92662 0
M  V30 4890 N 447.864 1.01787 1.20321 0
M  V30 4891 C 448.811 0.589197 2.23153 0
M  V30 4892 C 449.781 -0.391367 1.61423 0
M  V30 4893 O 450.966 -0.290518 1.88575 0
M  V30 4894 C 448.106 -0.0650747 3.45039 0
M  V30 4895 C 447.219 0.960207 4.21194 0
M  V30 4896 C 446.354 0.276854 5.30478 0
M  V30 4897 C 445.393 1.2888 5.98378 0
M  V30 4898 N 444.53 0.632031 6.99249 0
M  V30 4899 H 449.37 1.47071 2.59179 0
M  V30 4900 H 446.907 0.736192 1.27352 0
M  V30 4901 H 448.865 -0.461552 4.14639 0
M  V30 4902 H 447.495 -0.910233 3.09701 0
M  V30 4903 H 446.547 1.47484 3.50646 0
M  V30 4904 H 447.859 1.72977 4.67847 0
M  V30 4905 H 447.013 -0.175056 6.06447 0
M  V30 4906 H 445.752 -0.525004 4.84866 0
M  V30 4907 H 444.757 1.75109 5.21169 0
M  V30 4908 H 445.982 2.09196 6.46076 0
M  V30 4909 H 443.928 -0.149935 6.55829 0
M  V30 4910 H 443.845 1.33964 7.44036 0
M  V30 4911 H 445.113 0.203755 7.79234 0
M  V30 4912 N 449.342 -1.36122 0.79427 0
M  V30 4913 C 450.758 -1.5232 0.476525 0
M  V30 4914 C 450.958 -1.74685 -1.00436 0
M  V30 4915 O 450.014 -1.78115 -1.78973 0
M  V30 4916 C 451.327 -2.70607 1.31119 0
M  V30 4917 C 452.875 -2.8448 1.30537 0
M  V30 4918 C 453.35 -4.05778 2.12387 0
M  V30 4919 N 454.841 -4.12933 2.09859 0
M  V30 4920 C 455.576 -5.05876 2.69957 0
M  V30 4921 N 455.072 -6.04232 3.38934 0
M  V30 4922 N 456.865 -4.98528 2.59665 0
M  V30 4923 H 449.016 -1.1986 1.75349 0
M  V30 4924 H 451.279 -0.585418 0.745647 0
M  V30 4925 H 450.985 -2.60619 2.36158 0
M  V30 4926 H 450.859 -3.64888 0.955843 0
M  V30 4927 H 453.246 -2.93927 0.262876 0
M  V30 4928 H 453.327 -1.91093 1.70051 0
M  V30 4929 H 452.971 -3.97092 3.1667 0
M  V30 4930 H 452.901 -4.98323 1.70242 0
M  V30 4931 H 455.392 -3.42515 1.59662 0
M  V30 4932 H 455.705 -6.71724 3.82109 0
M  V30 4933 H 454.05 -6.04443 3.43036 0
M  V30 4934 H 457.241 -4.20641 2.05375 0
M  V30 4935 H 457.414 -5.70773 3.06793 0
M  V30 4936 N 450.82 -0.546701 -1.47814 0
M  V30 4937 C 451.768 0.220048 -2.31557 0
M  V30 4938 C 452.762 0.919472 -1.42275 0
M  V30 4939 O 453.968 0.841953 -1.59095 0
M  V30 4940 H 450.343 0.0898334 -0.746615 0
M  V30 4941 H 452.314 -0.505589 -2.94086 0
M  V30 4942 C 451.063 1.24353 -3.24702 0
M  V30 4943 H 450.386 0.714758 -3.93359 0
M  V30 4944 H 451.826 1.75112 -3.8615 0
M  V30 4945 C 450.285 2.28593 -2.47481 0
M  V30 4946 O 450.815 3.35334 -2.21165 0
M  V30 4947 N 449.021 2.02244 -2.08676 0
M  V30 4948 H 448.568 1.15455 -2.30278 0
M  V30 4949 H 448.526 2.72207 -1.57323 0
M  V30 4950 N 452.299 1.55045 -0.282633 0
M  V30 4951 C 453.71 1.85473 0.213655 0
M  V30 4952 C 454.061 1.20465 1.54863 0
M  V30 4953 O 453.186 0.495676 2.10647 0
M  V30 4954 C 453.781 3.36496 0.394445 0
M  V30 4955 C 452.34 3.67022 0.834961 0
M  V30 4956 C 451.487 2.77218 -0.0674081 0
M  V30 4957 H 454.438 1.50478 -0.504202 0
M  V30 4958 H 454.459 3.60007 1.23186 0
M  V30 4959 H 453.971 3.83782 -0.577326 0
M  V30 4960 H 452.072 3.25241 1.81794 0
M  V30 4961 H 452.185 4.74433 0.667075 0
M  V30 4962 H 450.549 2.5069 0.450196 0
M  V30 4963 H 451.332 3.2732 -1.0352 0
M  V30 4964 N 453.777 0.010035 1.57597 0
M  V30 4965 C 454.74 -0.963029 2.07986 0
M  V30 4966 C 455.74 -1.26619 0.991173 0
M  V30 4967 O 456.93 -1.2097 1.25347 0
M  V30 4968 C 454.062 -2.2851 2.52974 0
M  V30 4969 H 455.255 -0.526971 2.95234 0
M  V30 4970 H 452.808 -0.237639 1.54483 0
M  V30 4971 H 453.543 -2.76784 1.69 0
M  V30 4972 H 453.328 -2.07824 3.32493 0
M  V30 4973 H 454.818 -2.98294 2.9225 0
M  V30 4974 N 455.255 -1.55392 -0.262866 0
M  V30 4975 C 456.203 -1.8977 -1.345 0
M  V30 4976 C 457.197 -0.775063 -1.50629 0
M  V30 4977 O 458.403 -0.959519 -1.52293 0
M  V30 4978 H 454.778 -0.602467 -0.450041 0
M  V30 4979 H 456.749 -2.80147 -1.02762 0
M  V30 4980 C 455.498 -2.19501 -2.69657 0
M  V30 4981 H 454.821 -3.05378 -2.5804 0
M  V30 4982 H 456.261 -2.47469 -3.44289 0
M  V30 4983 C 454.72 -1.00597 -3.21531 0
M  V30 4984 O 455.25 -0.245768 -4.00947 0
M  V30 4985 N 453.456 -0.800911 -2.79345 0
M  V30 4986 H 453.003 -1.42079 -2.14875 0
M  V30 4987 H 452.961 -0.00697996 -3.14399 0
M  V30 4988 N 456.733 0.527833 -1.48498 0
M  V30 4989 C 458.149 0.856571 -1.34666 0
M  V30 4990 C 458.349 1.98271 -0.35931 0
M  V30 4991 O 457.405 2.51551 0.218703 0
M  V30 4992 C 458.718 1.22207 -2.74747 0
M  V30 4993 C 460.266 1.33183 -2.83251 0
M  V30 4994 C 460.741 1.73075 -4.24039 0
M  V30 4995 N 462.232 1.80174 -4.26722 0
M  V30 4996 C 462.967 2.1243 -5.32598 0
M  V30 4997 N 462.463 2.43096 -6.4875 0
M  V30 4998 N 464.256 2.13454 -5.19994 0
M  V30 4999 H 456.407 -0.215174 -2.11307 0
M  V30 5000 H 458.67 -0.0336281 -0.947403 0
M  V30 5001 H 458.376 0.468195 -3.4857 0
M  V30 5002 H 458.25 2.17173 -3.08409 0
M  V30 5003 H 460.637 2.07647 -2.09683 0
M  V30 5004 H 460.718 0.363333 -2.53206 0
M  V30 5005 H 460.362 0.991712 -4.98124 0
M  V30 5006 H 460.292 2.70979 -4.51529 0
M  V30 5007 H 462.783 1.58744 -3.42942 0
M  V30 5008 H 463.096 2.6682 -7.25277 0
M  V30 5009 H 461.441 2.40611 -6.52021 0
M  V30 5010 H 464.632 1.88956 -4.28268 0
M  V30 5011 H 464.805 2.38261 -6.02608 0
M  V30 5012 N 458.211 1.37122 0.776871 0
M  V30 5013 C 459.141 1.35164 1.90402 0
M  V30 5014 C 460.122 0.221069 1.68657 0
M  V30 5015 O 461.307 0.420642 1.8959 0
M  V30 5016 C 458.437 1.15274 3.27611 0
M  V30 5017 C 457.391 2.25289 3.63908 0
M  V30 5018 C 456.717 1.90527 4.99603 0
M  V30 5019 C 458.017 3.67446 3.71188 0
M  V30 5020 H 459.711 2.29482 1.92297 0
M  V30 5021 H 457.257 1.10465 0.923773 0
M  V30 5022 H 459.21 1.12536 4.06096 0
M  V30 5023 H 457.934 0.174102 3.26136 0
M  V30 5024 H 456.593 2.27174 2.87728 0
M  V30 5025 H 456.241 0.91206 4.94662 0
M  V30 5026 H 455.941 2.64193 5.24858 0
M  V30 5027 H 457.465 1.89367 5.80493 0
M  V30 5028 H 458.879 3.67719 4.39836 0
M  V30 5029 H 457.276 4.40123 4.07936 0
M  V30 5030 H 458.346 4.01443 2.71977 0
M  V30 5031 N 459.689 -1.00246 1.21608 0
M  V30 5032 C 460.937 -1.73717 1.0328 0
M  V30 5033 C 461.258 -1.90102 -0.434318 0
M  V30 5034 O 460.528 -1.45376 -1.31311 0
M  V30 5035 H 459.108 -0.643613 0.379172 0
M  V30 5036 H 461.77 -1.20787 1.52959 0
M  V30 5037 H 460.866 -2.73535 1.50283 0
M  V30 5038 N 461.167 -1.02423 -1.1978 0
M  V30 5039 C 462.13 -0.605703 -2.21052 0
M  V30 5040 C 463.13 0.328209 -1.57415 0
M  V30 5041 O 464.32 0.115853 -1.73814 0
M  V30 5042 C 461.452 0.114366 -3.40708 0
M  V30 5043 H 462.645 -1.5017 -2.59594 0
M  V30 5044 H 460.198 -0.814888 -1.33376 0
M  V30 5045 H 460.933 1.02492 -3.07678 0
M  V30 5046 H 460.718 -0.556641 -3.88129 0
M  V30 5047 H 462.208 0.394272 -4.15735 0
M  V30 5048 N 462.645 1.35699 -0.801477 0
M  V30 5049 C 463.893 1.9852 -0.37871 0
M  V30 5050 C 464.214 1.63907 1.05638 0
M  V30 5051 O 463.484 0.919013 1.73006 0
M  V30 5052 H 462.064 0.734322 -0.137042 0
M  V30 5053 H 464.726 1.65697 -1.02619 0
M  V30 5054 H 463.822 3.08382 -0.480284 0
M  V30 5055 N 464.123 0.554532 1.47522 0
M  V30 5056 C 465.534 0.120446 1.86311 0
M  V30 5057 C 465.885 -1.30904 1.46145 0
M  V30 5058 O 465.01 -1.98434 0.863294 0
M  V30 5059 C 465.605 0.211808 3.38137 0
M  V30 5060 C 464.164 -0.167224 3.76028 0
M  V30 5061 C 463.311 0.560576 2.71575 0
M  V30 5062 H 466.262 0.764408 1.39077 0
M  V30 5063 H 466.283 -0.570275 3.76202 0
M  V30 5064 H 465.795 1.25232 3.6734 0
M  V30 5065 H 463.896 -1.20894 3.52442 0
M  V30 5066 H 464.009 0.189473 4.78725 0
M  V30 5067 H 462.373 0.00396836 2.547 0
M  V30 5068 H 463.156 1.60219 3.0362 0
M  V30 5069 N 465.601 -1.54893 0.290851 0
M  V30 5070 C 466.878 -1.91991 -0.373989 0
M  V30 5071 C 467.258 -1.21694 -1.72493 0
M  V30 5072 O 466.606 -0.34917 -2.25816 0
M  V30 5073 C 466.816 -3.45419 -0.498703 0
M  V30 5074 C 468.164 -4.1748 -0.774298 0
M  V30 5075 O 469.188 -3.51398 -0.582908 0
M  V30 5076 O 468.047 -5.3445 -1.14129 0
M  V30 5077 H 465.141 -0.800593 -0.207315 0
M  V30 5078 H 467.687 -1.66297 0.338164 0
M  V30 5079 H 466.459 -3.88688 0.451392 0
M  V30 5080 H 466.082 -3.77117 -1.25972 0
M  V30 5081 N 467.08 -0.0183926 -1.57589 0
M  V30 5082 C 468.328 0.661253 -1.90976 0
M  V30 5083 C 468.649 1.73281 -0.894353 0
M  V30 5084 O 467.919 1.9579 0.0656788 0
M  V30 5085 H 466.499 0.247233 -0.704901 0
M  V30 5086 H 469.161 -0.0636639 -1.94796 0
M  V30 5087 H 468.257 1.12083 -2.9128 0
M  V30 5088 N 468.558 1.5553 0.254621 0
M  V30 5089 C 469.804 1.77262 0.985193 0
M  V30 5090 C 470.137 0.582286 1.85265 0
M  V30 5091 O 469.412 -0.419666 1.89919 0
M  V30 5092 C 469.695 3.0881 1.85225 0
M  V30 5093 C 469.548 4.38233 1.0135 0
M  V30 5094 C 470.867 3.3653 2.83612 0
M  V30 5095 H 467.986 0.644906 0.356742 0
M  V30 5096 H 470.628 1.88264 0.256236 0
M  V30 5097 H 468.778 2.99562 2.47376 0
M  V30 5098 H 470.45 4.59463 0.411269 0
M  V30 5099 H 468.693 4.32636 0.317574 0
M  V30 5100 H 469.364 5.26644 1.65379 0
M  V30 5101 H 471.84 3.45691 2.31596 0
M  V30 5102 H 470.716 4.29805 3.41407 0
M  V30 5103 H 470.977 2.57064 3.59681 0
M  V30 5104 N 470.036 -0.519951 1.48776 0
M  V30 5105 C 470.946 -1.65025 1.66745 0
M  V30 5106 C 471.962 -1.6508 0.549954 0
M  V30 5107 O 473.138 -1.83848 0.822295 0
M  V30 5108 C 470.203 -3.0146 1.71238 0
M  V30 5109 C 469.264 -3.12182 2.94688 0
M  V30 5110 C 468.497 -4.42109 2.98958 0
M  V30 5111 O 468.72 -5.29799 2.1135 0
M  V30 5112 O 467.654 -4.57406 3.91233 0
M  V30 5113 H 471.48 -1.52801 2.62461 0
M  V30 5114 H 469.065 -0.694157 1.32294 0
M  V30 5115 H 470.947 -3.82584 1.76657 0
M  V30 5116 H 469.622 -3.13988 0.786975 0
M  V30 5117 H 468.529 -2.30316 2.94797 0
M  V30 5118 H 469.862 -3.04574 3.86646 0
M  V30 5119 N 471.514 -1.37532 -0.769588 0
M  V30 5120 C 472.424 -1.35668 -1.91393 0
M  V30 5121 C 473.44 -0.255954 -1.72107 0
M  V30 5122 O 474.616 -0.491704 -1.95305 0
M  V30 5123 C 471.681 -1.16481 -3.26547 0
M  V30 5124 C 470.742 -2.36212 -3.58472 0
M  V30 5125 C 469.975 -2.17932 -4.87177 0
M  V30 5126 O 470.198 -1.1647 -5.58382 0
M  V30 5127 O 469.132 -3.06167 -5.18214 0
M  V30 5128 H 472.958 -2.32055 -1.95918 0
M  V30 5129 H 470.543 -1.18284 -0.912641 0
M  V30 5130 H 472.425 -1.07778 -4.07384 0
M  V30 5131 H 471.1 -0.231687 -3.2287 0
M  V30 5132 H 470.007 -2.50488 -2.77861 0
M  V30 5133 H 471.34 -3.281 -3.66894 0
M  V30 5134 N 472.992 0.995999 -1.22138 0
M  V30 5135 C 474.241 1.72928 -1.03821 0
M  V30 5136 C 474.554 1.90872 0.427444 0
M  V30 5137 O 475.76 2.61496 0.730212 0
M  V30 5138 C 474.216 3.11124 -1.80913 0
M  V30 5139 C 473.824 3.01122 -3.31707 0
M  V30 5140 C 475.568 3.8852 -1.71035 0
M  V30 5141 C 473.475 4.34453 -4.01253 0
M  V30 5142 H 472.405 0.648376 -0.384869 0
M  V30 5143 H 475.056 1.11213 -1.45959 0
M  V30 5144 H 473.438 3.73503 -1.31573 0
M  V30 5145 H 474.612 2.47926 -3.88419 0
M  V30 5146 H 472.927 2.3721 -3.42228 0
M  V30 5147 H 475.524 4.872 -2.20318 0
M  V30 5148 H 475.867 4.1087 -0.670196 0
M  V30 5149 H 476.4 3.32812 -2.17902 0
M  V30 5150 H 473.139 4.17303 -5.05508 0
M  V30 5151 H 472.659 4.87574 -3.49331 0
M  V30 5152 H 474.338 5.03215 -4.06674 0
M  V30 5153 N 474.47 1.03057 1.19235 0
M  V30 5154 C 475.417 0.612832 2.22515 0
M  V30 5155 C 476.387 -0.374224 1.61829 0
M  V30 5156 O 477.572 -0.270501 1.88873 0
M  V30 5157 C 474.712 -0.028475 3.45088 0
M  V30 5158 C 473.825 1.00483 4.20151 0
M  V30 5159 C 472.96 0.333102 5.30155 0
M  V30 5160 C 471.999 1.3522 5.96977 0
M  V30 5161 N 471.136 0.70616 6.9854 0
M  V30 5162 H 475.976 1.49812 2.57605 0
M  V30 5163 H 473.513 0.749658 1.26564 0
M  V30 5164 H 475.471 -0.417548 4.15105 0
M  V30 5165 H 474.101 -0.877334 3.10649 0
M  V30 5166 H 473.153 1.51194 3.49062 0
M  V30 5167 H 474.465 1.77929 4.65986 0
M  V30 5168 H 473.619 -0.110725 6.06599 0
M  V30 5169 H 472.358 -0.473547 4.85396 0
M  V30 5170 H 471.363 1.80627 5.19282 0
M  V30 5171 H 472.588 2.16037 6.4382 0
M  V30 5172 H 470.534 -0.0803667 6.55951 0
M  V30 5173 H 470.451 1.41848 7.42573 0
M  V30 5174 H 471.719 0.286391 7.78974 0
M  V30 5175 N 475.948 -1.35272 0.808662 0
M  V30 5176 C 477.364 -1.51806 0.492653 0
M  V30 5177 C 477.564 -1.7574 -0.985778 0
M  V30 5178 O 476.62 -1.80003 -1.77074 0
M  V30 5179 C 477.933 -2.69202 1.33981 0
M  V30 5180 C 479.481 -2.8308 1.33547 0
M  V30 5181 C 479.956 -4.03502 2.16679 0
M  V30 5182 N 481.447 -4.10684 2.14227 0
M  V30 5183 C 482.182 -5.02984 2.75308 0
M  V30 5184 N 481.678 -6.00603 3.45323 0
M  V30 5185 N 483.471 -4.95746 2.64938 0
M  V30 5186 H 475.622 -1.17993 1.76611 0
M  V30 5187 H 477.885 -0.577476 0.751814 0
M  V30 5188 H 477.591 -2.581 2.38909 0
M  V30 5189 H 477.465 -3.63854 0.994491 0
M  V30 5190 H 479.852 -2.93631 0.294036 0
M  V30 5191 H 479.933 -1.89278 1.72068 0
M  V30 5192 H 479.577 -3.93711 3.20864 0
M  V30 5193 H 479.507 -4.96489 1.75517 0
M  V30 5194 H 481.998 -3.40802 1.63285 0
M  V30 5195 H 482.311 -6.67633 3.89212 0
M  V30 5196 H 480.656 -6.0077 3.49428 0
M  V30 5197 H 483.847 -4.18439 2.09825 0
M  V30 5198 H 484.02 -5.67487 3.12829 0
M  V30 5199 N 477.426 -0.562348 -1.47226 0
M  V30 5200 C 478.376 0.202967 -2.27095 0
M  V30 5201 C 479.36 0.880611 -1.34663 0
M  V30 5202 O 480.552 0.778069 -1.58981 0
M  V30 5203 C 477.681 1.22906 -3.20545 0
M  V30 5204 C 476.767 0.554566 -4.20459 0
M  V30 5205 N 477.158 -0.378295 -5.04383 0
M  V30 5206 C 475.456 0.807854 -4.38623 0
M  V30 5207 C 476.157 -0.770583 -5.76573 0
M  V30 5208 N 475.133 -0.124263 -5.43458 0
M  V30 5209 H 478.935 -0.514196 -2.89367 0
M  V30 5210 H 476.449 -0.382655 -1.57827 0
M  V30 5211 H 478.446 1.79134 -3.76453 0
M  V30 5212 H 477.106 1.94726 -2.59831 0
M  V30 5213 H 478.117 -0.75274 -5.124 0
M  V30 5214 H 474.794 1.51418 -3.89075 0
M  V30 5215 H 476.184 -1.53742 -6.54074 0
M  V30 5216 N 478.904 1.54736 -0.299062 0
M  V30 5217 C 480.129 2.04975 0.316254 0
M  V30 5218 C 480.554 1.17501 1.46885 0
M  V30 5219 O 479.912 0.178678 1.80417 0
M  V30 5220 C 479.96 3.52672 0.751997 0
M  V30 5221 O 479.064 3.68226 1.85697 0
M  V30 5222 H 478.405 0.661126 0.0617175 0
M  V30 5223 H 480.935 1.99805 -0.440341 0
M  V30 5224 H 480.945 3.94488 1.04133 0
M  V30 5225 H 479.62 4.158 -0.0911482 0
M  V30 5226 H 478.197 3.38316 1.56834 0
M  V30 5227 N 480.382 0.0267497 1.57577 0
M  V30 5228 C 481.629 -0.652404 1.91703 0
M  V30 5229 C 481.957 -1.72271 0.902936 0
M  V30 5230 O 481.212 -1.955 -0.0884843 0
M  V30 5231 C 481.511 -1.30914 3.3256 0
M  V30 5232 C 481.177 -0.369441 4.49384 0
M  V30 5233 C 479.839 -0.110791 4.81072 0
M  V30 5234 C 482.191 0.275971 5.20469 0
M  V30 5235 C 479.519 0.801116 5.81205 0
M  V30 5236 C 481.871 1.17592 6.21575 0
M  V30 5237 C 480.535 1.44348 6.51705 0
M  V30 5238 H 479.805 -0.238732 0.70149 0
M  V30 5239 H 482.452 0.0880091 1.91298 0
M  V30 5240 H 480.757 -2.12425 3.29216 0
M  V30 5241 H 482.454 -1.84115 3.56234 0
M  V30 5242 H 479.044 -0.581211 4.24641 0
M  V30 5243 H 483.228 0.0892 4.9622 0
M  V30 5244 H 478.484 1.01614 6.02897 0
M  V30 5245 H 482.658 1.68223 6.75777 0
M  V30 5246 H 480.285 2.15176 7.29111 0
M  V30 5247 N 481.861 -1.55662 -0.24637 0
M  V30 5248 C 483.108 -1.77519 -0.974335 0
M  V30 5249 C 483.436 -0.591165 -1.85298 0
M  V30 5250 O 482.691 0.425497 -1.91018 0
M  V30 5251 C 482.99 -3.04885 -1.86494 0
M  V30 5252 C 482.656 -4.36209 -1.14161 0
M  V30 5253 C 481.318 -4.71896 -0.941701 0
M  V30 5254 C 483.67 -5.17391 -0.628957 0
M  V30 5255 C 480.998 -5.86299 -0.216852 0
M  V30 5256 C 483.35 -6.32546 0.0824273 0
M  V30 5257 C 482.014 -6.66853 0.293807 0
M  V30 5258 H 481.284 -0.649588 -0.356535 0
M  V30 5259 H 483.931 -1.89934 -0.244394 0
M  V30 5260 H 482.236 -2.87484 -2.66196 0
M  V30 5261 H 483.933 -3.18994 -2.42989 0
M  V30 5262 H 480.523 -4.08174 -1.30736 0
M  V30 5263 H 484.707 -4.90276 -0.770943 0
M  V30 5264 H 479.963 -6.11385 -0.0426124 0
M  V30 5265 H 484.137 -6.94693 0.487292 0
M  V30 5266 H 481.764 -7.55349 0.857428 0
M  V30 5267 N 483.339 0.512053 -1.4905 0
M  V30 5268 C 484.564 1.2959 -1.6193 0
M  V30 5269 C 484.989 1.85906 -0.286454 0
M  V30 5270 O 484.347 1.65312 0.744426 0
M  V30 5271 C 484.395 2.40987 -2.68249 0
M  V30 5272 O 483.499 3.44531 -2.26654 0
M  V30 5273 H 482.84 0.383053 -0.542371 0
M  V30 5274 H 485.37 0.614231 -1.95162 0
M  V30 5275 H 485.38 2.86913 -2.90078 0
M  V30 5276 H 484.055 1.99361 -3.65004 0
M  V30 5277 H 482.632 3.046 -2.15112 0
M  V30 5278 N 484.817 1.37938 0.762283 0
M  V30 5279 C 486.045 1.36883 1.55147 0
M  V30 5280 C 486.46 -0.0435348 1.8875 0
M  V30 5281 O 485.817 -1.00786 1.52146 0
M  V30 5282 C 485.868 2.21624 2.85596 0
M  V30 5283 O 485.589 3.57358 2.5343 0
M  V30 5284 C 487.09 2.28653 3.7978 0
M  V30 5285 H 484.31 0.468521 0.480343 0
M  V30 5286 H 486.854 1.81404 0.944079 0
M  V30 5287 H 485.009 1.80588 3.42734 0
M  V30 5288 H 485.423 4.01883 3.37032 0
M  V30 5289 H 486.897 2.9225 4.68288 0
M  V30 5290 H 487.374 1.29767 4.19592 0
M  V30 5291 H 487.98 2.70043 3.28568 0
M  V30 5292 N 486.295 -0.989507 1.22664 0
M  V30 5293 C 487.544 -1.72375 1.04737 0
M  V30 5294 C 487.857 -1.91096 -0.417316 0
M  V30 5295 O 489.063 -2.6188 -0.716334 0
M  V30 5296 C 487.519 -3.10161 1.82561 0
M  V30 5297 C 487.127 -2.99358 3.333 0
M  V30 5298 C 488.871 -3.87607 1.73093 0
M  V30 5299 C 486.778 -4.32319 4.03552 0
M  V30 5300 H 485.708 -0.646326 0.388302 0
M  V30 5301 H 488.359 -1.10437 1.46546 0
M  V30 5302 H 486.741 -3.728 1.33552 0
M  V30 5303 H 487.915 -2.45863 3.89728 0
M  V30 5304 H 486.23 -2.35392 3.43481 0
M  V30 5305 H 488.827 -4.86025 2.22899 0
M  V30 5306 H 489.17 -4.10509 0.691976 0
M  V30 5307 H 489.703 -3.31652 2.19663 0
M  V30 5308 H 486.442 -4.14616 5.07714 0
M  V30 5309 H 485.962 -4.85714 3.51911 0
M  V30 5310 H 487.641 -5.01051 4.09337 0
M  V30 5311 N 487.773 -1.03688 -1.18687 0
M  V30 5312 C 489.05 -0.652397 -1.84399 0
M  V30 5313 C 489.43 0.868386 -1.92412 0
M  V30 5314 O 488.778 1.76832 -1.44716 0
M  V30 5315 C 488.988 -1.3238 -3.22919 0
M  V30 5316 C 490.336 -1.45216 -3.98996 0
M  V30 5317 O 491.36 -1.2816 -3.32345 0
M  V30 5318 O 490.219 -1.72975 -5.18403 0
M  V30 5319 H 487.313 -0.227793 -0.795009 0
M  V30 5320 H 489.859 -1.13553 -1.2611 0
M  V30 5321 H 488.631 -2.36202 -3.11968 0
M  V30 5322 H 488.254 -0.829039 -3.88861 0
M  V30 5323 N 489.251 1.34841 -0.815825 0
M  V30 5324 C 490.497 1.99219 -0.410288 0
M  V30 5325 C 490.852 1.63532 1.01366 0
M  V30 5326 O 490.145 0.893093 1.69512 0
M  V30 5327 C 490.339 3.53273 -0.541541 0
M  V30 5328 C 490.168 4.03927 -1.9767 0
M  V30 5329 C 488.938 4.32852 -2.60706 0
M  V30 5330 C 491.136 4.21808 -2.9425 0
M  V30 5331 N 489.118 4.69494 -3.95536 0
M  V30 5332 C 490.489 4.6155 -4.13971 0
M  V30 5333 C 492.544 4.04038 -2.9096 0
M  V30 5334 C 491.247 4.85381 -5.30847 0
M  V30 5335 C 493.273 4.29031 -4.07046 0
M  V30 5336 C 492.635 4.69054 -5.25517 0
M  V30 5337 H 488.734 0.756494 -0.198094 0
M  V30 5338 H 491.318 1.63379 -1.05902 0
M  V30 5339 H 489.489 3.88323 0.0772544 0
M  V30 5340 H 491.221 4.04551 -0.109694 0
M  V30 5341 H 487.976 4.23503 -2.11995 0
M  V30 5342 H 488.4 4.92061 -4.64979 0
M  V30 5343 H 493.042 3.7223 -2.00512 0
M  V30 5344 H 490.76 5.16059 -6.21859 0
M  V30 5345 H 494.346 4.16826 -4.05891 0
M  V30 5346 H 493.226 4.88014 -6.1385 0
M  V30 5347 N 490.729 0.570148 1.46925 0
M  V30 5348 C 491.677 -0.183181 2.31878 0
M  V30 5349 C 492.671 -0.896721 1.43719 0
M  V30 5350 O 493.877 -0.816536 1.60414 0
M  V30 5351 H 490.252 -0.077944 0.74795 0
M  V30 5352 H 492.223 0.552312 2.93244 0
M  V30 5353 C 490.972 -1.19172 3.2664 0
M  V30 5354 H 490.295 -0.652088 3.94446 0
M  V30 5355 H 491.735 -1.68946 3.88887 0
M  V30 5356 C 490.194 -2.24627 2.51086 0
M  V30 5357 O 490.724 -3.31773 2.26472 0
M  V30 5358 N 488.93 -1.98898 2.11867 0
M  V30 5359 H 488.477 -1.11777 2.32086 0
M  V30 5360 H 488.435 -2.6967 1.61634 0
M  V30 5361 N 492.207 -1.54576 0.307264 0
M  V30 5362 C 493.154 -2.23751 -0.56604 0
M  V30 5363 C 494.124 -1.22235 -1.12462 0
M  V30 5364 O 495.309 -1.50873 -1.16799 0
M  V30 5365 C 492.449 -2.98661 -1.72903 0
M  V30 5366 C 491.562 -4.14963 -1.20124 0
M  V30 5367 C 490.697 -4.77441 -2.3286 0
M  V30 5368 C 489.736 -5.85875 -1.77247 0
M  V30 5369 N 488.873 -6.42282 -2.8358 0
M  V30 5370 H 493.713 -2.97984 0.0304578 0
M  V30 5371 H 491.25 -1.47076 0.0268015 0
M  V30 5372 H 493.208 -3.40329 -2.41313 0
M  V30 5373 H 491.838 -2.26793 -2.29706 0
M  V30 5374 H 490.89 -3.78193 -0.409198 0
M  V30 5375 H 492.202 -4.93066 -0.754171 0
M  V30 5376 H 491.356 -5.21993 -3.09205 0
M  V30 5377 H 490.095 -3.98684 -2.80896 0
M  V30 5378 H 489.1 -5.40741 -0.993926 0
M  V30 5379 H 490.325 -6.6652 -1.30107 0
M  V30 5380 H 488.271 -5.66406 -3.30939 0
M  V30 5381 H 488.188 -7.1575 -2.43388 0
M  V30 5382 H 489.456 -6.91492 -3.59804 0
M  V30 5383 N 493.685 -0.035106 -1.57561 0
M  V30 5384 C 494.615 0.942993 -2.13612 0
M  V30 5385 C 495.596 1.33531 -1.05373 0
M  V30 5386 O 496.781 1.41287 -1.33235 0
M  V30 5387 C 493.911 2.22332 -2.66807 0
M  V30 5388 C 492.865 1.97156 -3.79886 0
M  V30 5389 C 492.191 3.31506 -4.19533 0
M  V30 5390 C 493.491 1.30596 -5.05709 0
M  V30 5391 H 495.185 0.476179 -2.95589 0
M  V30 5392 H 492.731 0.227602 -1.4219 0
M  V30 5393 H 494.684 2.91142 -3.04654 0
M  V30 5394 H 493.408 2.7119 -1.81999 0
M  V30 5395 H 492.067 1.30763 -3.42486 0
M  V30 5396 H 491.715 3.78134 -3.31698 0
M  V30 5397 H 491.415 3.15465 -4.95738 0
M  V30 5398 H 492.939 4.01574 -4.59968 0
M  V30 5399 H 494.353 1.89416 -5.41105 0
M  V30 5400 H 492.75 1.24934 -5.86951 0
M  V30 5401 H 493.82 0.279742 -4.84092 0
M  V30 5402 N 495.163 1.55791 0.238111 0
M  V30 5403 C 496.393 1.81834 0.980809 0
M  V30 5404 C 496.801 0.609741 1.79106 0
M  V30 5405 O 496.144 -0.431073 1.78571 0
M  V30 5406 C 496.206 3.01363 1.96011 0
M  V30 5407 C 495.87 4.37037 1.33597 0
M  V30 5408 C 496.867 5.14692 0.734063 0
M  V30 5409 C 494.552 4.83743 1.3527 0
M  V30 5410 C 496.546 6.37206 0.157208 0
M  V30 5411 C 494.233 6.06204 0.77199 0
M  V30 5412 C 495.231 6.82775 0.175282 0
M  V30 5413 O 494.919 8.02922 -0.396432 0
M  V30 5414 H 494.651 0.6088 0.293834 0
M  V30 5415 H 497.205 2.03702 0.263552 0
M  V30 5416 H 495.435 2.75273 2.71591 0
M  V30 5417 H 497.124 3.14422 2.56697 0
M  V30 5418 H 497.89 4.79722 0.713582 0
M  V30 5419 H 493.769 4.24129 1.80653 0
M  V30 5420 H 497.313 6.96915 -0.30917 0
M  V30 5421 H 493.21 6.4065 0.789828 0
M  V30 5422 H 493.978 8.17989 -0.289145 0
M  V30 5423 N 496.642 -0.504142 1.49319 0
M  V30 5424 C 498.058 -0.835039 1.36012 0
M  V30 5425 C 498.258 -1.97674 0.390808 0
M  V30 5426 O 497.314 -2.51867 -0.178655 0
M  V30 5427 C 498.627 -1.17821 2.76656 0
M  V30 5428 C 500.175 -1.2866 2.85334 0
M  V30 5429 C 500.65 -1.66307 4.26739 0
M  V30 5430 N 502.141 -1.73362 4.29534 0
M  V30 5431 C 502.876 -2.0393 5.35911 0
M  V30 5432 N 502.372 -2.32744 6.52535 0
M  V30 5433 N 504.165 -2.05155 5.23324 0
M  V30 5434 H 496.316 0.248764 2.10938 0
M  V30 5435 H 498.579 0.0486962 0.946748 0
M  V30 5436 H 498.285 -0.412682 3.4927 0
M  V30 5437 H 498.159 -2.12239 3.11825 0
M  V30 5438 H 500.546 -2.04285 2.1296 0
M  V30 5439 H 500.627 -0.323004 2.53752 0
M  V30 5440 H 500.271 -0.91234 4.99639 0
M  V30 5441 H 500.201 -2.63761 4.55782 0
M  V30 5442 H 502.692 -1.53268 3.45424 0
M  V30 5443 H 503.005 -2.55248 7.2943 0
M  V30 5444 H 501.35 -2.30207 6.55767 0
M  V30 5445 H 504.541 -1.82119 4.3122 0
M  V30 5446 H 504.714 -2.28644 6.06322 0
M  V30 5447 N 498.12 -1.38341 -0.754957 0
M  V30 5448 C 499.536 -1.19508 -1.05783 0
M  V30 5449 C 499.736 -0.0428005 -2.01455 0
M  V30 5450 O 498.792 0.611861 -2.44975 0
M  V30 5451 C 500.105 -2.52091 -1.63923 0
M  V30 5452 C 501.653 -2.58762 -1.76101 0
M  V30 5453 C 502.128 -3.91517 -2.37652 0
M  V30 5454 N 503.619 -3.93049 -2.45085 0
M  V30 5455 C 504.354 -4.9253 -2.93602 0
M  V30 5456 N 503.85 -6.02408 -3.42165 0
M  V30 5457 N 505.643 -4.79921 -2.92629 0
M  V30 5458 H 497.794 -2.1206 -0.120056 0
M  V30 5459 H 500.057 -0.94089 -0.11589 0
M  V30 5460 H 499.763 -3.36858 -1.01093 0
M  V30 5461 H 499.637 -2.70388 -2.63003 0
M  V30 5462 H 502.024 -1.74391 -2.38058 0
M  V30 5463 H 502.105 -2.44333 -0.757294 0
M  V30 5464 H 501.749 -4.76309 -1.76329 0
M  V30 5465 H 501.679 -4.03256 -3.38662 0
M  V30 5466 H 504.17 -3.13685 -2.10736 0
M  V30 5467 H 504.483 -6.74248 -3.77637 0
M  V30 5468 H 502.828 -6.0603 -3.40225 0
M  V30 5469 H 506.019 -3.93194 -2.54001 0
M  V30 5470 H 506.192 -5.57601 -3.30128 0
M  V30 5471 N 499.598 0.982988 -1.23187 0
M  V30 5472 C 500.508 2.10907 -1.02739 0
M  V30 5473 C 501.524 1.73979 0.0273188 0
M  V30 5474 O 502.7 2.00702 -0.16757 0
M  V30 5475 C 499.765 3.41142 -0.618304 0
M  V30 5476 C 498.826 3.92112 -1.74777 0
M  V30 5477 C 498.059 5.16131 -1.3581 0
M  V30 5478 O 498.282 5.6989 -0.241201 0
M  V30 5479 O 497.216 5.61103 -2.17824 0
M  V30 5480 H 501.042 2.31046 -1.97108 0
M  V30 5481 H 498.627 1.09284 -1.01869 0
M  V30 5482 H 500.509 4.19488 -0.400982 0
M  V30 5483 H 499.184 3.2234 0.296421 0
M  V30 5484 H 498.091 3.14895 -2.0197 0
M  V30 5485 H 499.424 4.15364 -2.64071 0
M  V30 5486 N 501.076 1.04316 1.18135 0
M  V30 5487 C 502.325 0.74319 1.87509 0
M  V30 5488 C 502.638 -0.732136 1.81381 0
M  V30 5489 O 503.844 -1.14572 2.46141 0
M  V30 5490 C 502.3 1.27913 3.36402 0
M  V30 5491 C 501.908 2.78326 3.51053 0
M  V30 5492 C 503.652 1.0558 4.11161 0
M  V30 5493 C 501.559 3.25266 4.93919 0
M  V30 5494 H 500.489 0.274313 0.702331 0
M  V30 5495 H 503.14 1.25931 1.33467 0
M  V30 5496 H 501.522 0.690853 3.89927 0
M  V30 5497 H 502.696 3.42933 3.07788 0
M  V30 5498 H 501.011 2.991 2.89704 0
M  V30 5499 H 503.608 1.38161 5.16542 0
M  V30 5500 H 503.951 -0.00684729 4.16299 0
M  V30 5501 H 504.484 1.60882 3.63816 0
M  V30 5502 H 501.223 4.30922 4.9395 0
M  V30 5503 H 500.743 2.65396 5.3789 0
M  V30 5504 H 502.422 3.19433 5.62647 0
M  V30 5505 N 502.554 -1.34406 0.822964 0
M  V30 5506 C 503.504 -2.26963 0.217208 0
M  V30 5507 C 504.488 -1.48536 -0.618545 0
M  V30 5508 O 505.68 -1.7056 -0.473118 0
M  V30 5509 C 502.809 -3.37655 -0.619973 0
M  V30 5510 C 501.895 -4.23495 0.226411 0
M  V30 5511 N 502.286 -4.88876 1.29744 0
M  V30 5512 C 500.584 -4.45999 0.0107554 0
M  V30 5513 C 501.285 -5.52642 1.81553 0
M  V30 5514 N 500.261 -5.31949 1.11942 0
M  V30 5515 H 504.063 -2.75017 1.03647 0
M  V30 5516 H 501.577 -1.48126 0.665777 0
M  V30 5517 H 503.574 -4.02932 -1.07011 0
M  V30 5518 H 502.234 -2.91151 -1.43739 0
M  V30 5519 H 503.245 -4.89886 1.68024 0
M  V30 5520 H 499.922 -4.10253 -0.774495 0
M  V30 5521 H 501.312 -6.14755 2.71156 0
M  V30 5522 N 504.032 -0.577932 -1.46621 0
M  V30 5523 C 505.443 -0.150071 -1.86096 0
M  V30 5524 C 505.794 1.28563 -1.48209 0
M  V30 5525 O 504.919 1.97036 -0.894754 0
M  V30 5526 C 505.514 -0.265576 -3.37758 0
M  V30 5527 C 504.073 0.10738 -3.76247 0
M  V30 5528 C 503.22 -0.603711 -2.70649 0
M  V30 5529 H 506.171 -0.786438 -1.37844 0
M  V30 5530 H 506.192 0.510352 -3.77062 0
M  V30 5531 H 505.704 -1.3106 -3.65301 0
M  V30 5532 H 503.805 1.15272 -3.54321 0
M  V30 5533 H 503.918 -0.26561 -4.78363 0
M  V30 5534 H 502.282 -0.0444884 -2.54661 0
M  V30 5535 H 503.065 -1.65029 -3.01032 0
M  V30 5536 N 505.51 1.54411 -0.315457 0
M  V30 5537 C 506.921 1.85885 0.174265 0
M  V30 5538 C 507.272 1.23723 1.52273 0
M  V30 5539 O 506.397 0.540246 2.09548 0
M  V30 5540 C 506.992 3.37257 0.322981 0
M  V30 5541 C 505.551 3.68711 0.756922 0
M  V30 5542 C 504.698 2.77013 -0.126195 0
M  V30 5543 H 507.649 1.49374 -0.536007 0
M  V30 5544 H 507.67 3.62539 1.15522 0
M  V30 5545 H 507.182 3.82471 -0.658602 0
M  V30 5546 H 505.283 3.29024 1.74854 0
M  V30 5547 H 505.396 4.75741 0.566291 0
M  V30 5548 H 503.76 2.51588 0.39692 0
M  V30 5549 H 504.543 3.25051 -1.1044 0
M  V30 5550 N 506.988 0.0434614 1.5754 0
M  V30 5551 C 508.235 -0.632035 1.92384 0
M  V30 5552 C 508.563 -1.71304 0.921157 0
M  V30 5553 O 507.818 -1.95583 -0.067744 0
M  V30 5554 C 508.117 -1.2738 3.3393 0
M  V30 5555 C 507.783 -0.321757 4.49751 0
M  V30 5556 C 506.445 -0.0597611 4.81163 0
M  V30 5557 C 508.797 0.331158 5.20147 0
M  V30 5558 C 506.125 0.862715 5.80322 0
M  V30 5559 C 508.477 1.24178 6.20292 0
M  V30 5560 C 507.141 1.51252 6.50138 0
M  V30 5561 H 506.411 -0.231278 0.703983 0
M  V30 5562 H 509.058 0.108294 1.91194 0
M  V30 5563 H 507.363 -2.08921 3.3145 0
M  V30 5564 H 509.06 -1.80326 3.58167 0
M  V30 5565 H 505.65 -0.53614 4.25233 0
M  V30 5566 H 509.834 0.141826 4.96097 0
M  V30 5567 H 505.09 1.08003 6.01785 0
M  V30 5568 H 509.264 1.75381 6.73954 0
M  V30 5569 H 506.891 2.22897 7.26788 0
M  V30 5570 N 508.466 -1.55915 -0.229846 0
M  V30 5571 C 509.413 -1.91734 -1.28478 0
M  V30 5572 C 510.383 -0.773539 -1.46988 0
M  V30 5573 O 511.568 -1.02871 -1.60693 0
M  V30 5574 C 508.708 -2.23224 -2.63182 0
M  V30 5575 C 507.821 -3.50497 -2.52539 0
M  V30 5576 C 506.956 -3.71474 -3.79711 0
M  V30 5577 C 505.995 -4.92289 -3.63755 0
M  V30 5578 N 505.132 -5.09698 -4.82858 0
M  V30 5579 H 509.972 -2.81692 -0.972308 0
M  V30 5580 H 507.509 -1.39429 -0.468815 0
M  V30 5581 H 509.467 -2.3949 -3.41614 0
M  V30 5582 H 508.097 -1.36451 -2.92542 0
M  V30 5583 H 507.149 -3.4247 -1.65585 0
M  V30 5584 H 508.461 -4.39079 -2.36666 0
M  V30 5585 H 507.615 -3.87791 -4.66586 0
M  V30 5586 H 506.354 -2.81157 -3.985 0
M  V30 5587 H 505.359 -4.7593 -2.75264 0
M  V30 5588 H 506.584 -5.84083 -3.46445 0
M  V30 5589 H 504.53 -4.22322 -5.01976 0
M  V30 5590 H 504.447 -5.92399 -4.69681 0
M  V30 5591 H 505.715 -5.30443 -5.71183 0
M  V30 5592 N 509.944 0.496216 -1.49584 0
M  V30 5593 C 511.355 1.07765 -1.52459 0
M  V30 5594 C 511.706 1.93679 -0.31353 0
M  V30 5595 O 510.831 2.08588 0.576186 0
M  V30 5596 C 511.426 1.96111 -2.76271 0
M  V30 5597 C 509.985 2.49409 -2.81908 0
M  V30 5598 C 509.132 1.27142 -2.46435 0
M  V30 5599 H 512.083 0.279914 -1.56212 0
M  V30 5600 H 512.104 2.80862 -2.56704 0
M  V30 5601 H 511.616 1.33555 -3.64396 0
M  V30 5602 H 509.717 3.1559 -1.98074 0
M  V30 5603 H 509.83 2.86234 -3.84196 0
M  V30 5604 H 508.194 1.59818 -1.98319 0
M  V30 5605 H 508.977 0.662866 -3.3684 0
M  V30 5606 N 511.423 1.38739 0.74761 0
M  V30 5607 C 512.386 1.36241 1.84312 0
M  V30 5608 C 513.386 0.261811 1.58654 0
M  V30 5609 O 514.576 0.519031 1.66288 0
M  V30 5610 C 511.708 1.12253 3.21888 0
M  V30 5611 H 512.901 2.33712 1.87933 0
M  V30 5612 H 510.454 1.2412 0.949946 0
M  V30 5613 H 511.189 0.154133 3.23934 0
M  V30 5614 H 510.974 1.91943 3.41907 0
M  V30 5615 H 512.464 1.13215 4.0196 0
M  V30 5616 N 512.901 -0.976442 1.23707 0
M  V30 5617 C 514.129 -1.75341 1.09833 0
M  V30 5618 C 514.544 -1.8553 -0.349885 0
M  V30 5619 O 513.901 -1.33732 -1.24185 0
M  V30 5620 C 513.952 -3.17833 1.72233 0
M  V30 5621 O 513.673 -3.08167 3.11391 0
M  V30 5622 C 515.174 -4.11906 1.63853 0
M  V30 5623 H 512.394 -0.550137 0.384175 0
M  V30 5624 H 514.938 -1.2265 1.63638 0
M  V30 5625 H 513.093 -3.67538 1.22452 0
M  V30 5626 H 513.507 -3.97897 3.41729 0
M  V30 5627 H 514.981 -5.09579 2.12211 0
M  V30 5628 H 515.458 -4.35109 0.598092 0
M  V30 5629 H 516.064 -3.68107 2.13019 0
M  V30 5630 N 514.379 -1.04941 -1.1758 0
M  V30 5631 C 515.627 -0.756492 -1.87408 0
M  V30 5632 C 515.948 0.718478 -1.81281 0
M  V30 5633 O 515.218 1.519 -1.23706 0
M  V30 5634 H 513.798 -0.276841 -0.693807 0
M  V30 5635 H 516.46 -1.32803 -1.42652 0
M  V30 5636 H 515.556 -1.06918 -2.93215 0
M  V30 5637 N 515.857 1.33968 -0.830081 0
M  V30 5638 C 517.273 1.51003 -0.516742 0
M  V30 5639 C 517.473 1.77286 0.957694 0
M  V30 5640 O 516.529 1.82797 1.74188 0
M  V30 5641 C 517.842 2.67036 -1.38247 0
M  V30 5642 C 519.39 2.80919 -1.38034 0
M  V30 5643 C 519.865 4.00004 -2.23071 0
M  V30 5644 N 521.356 4.07224 -2.20733 0
M  V30 5645 C 522.091 4.98541 -2.83275 0
M  V30 5646 N 521.587 5.95033 -3.54835 0
M  V30 5647 N 523.38 4.91469 -2.72791 0
M  V30 5648 H 515.531 1.15168 -1.78466 0
M  V30 5649 H 517.794 0.565443 -0.760906 0
M  V30 5650 H 517.5 2.54266 -2.42985 0
M  V30 5651 H 517.374 3.62226 -1.05225 0
M  V30 5652 H 519.761 2.93127 -0.340713 0
M  V30 5653 H 519.842 1.86517 -1.75057 0
M  V30 5654 H 519.486 3.88557 -3.27087 0
M  V30 5655 H 519.416 4.93634 -1.83394 0
M  V30 5656 H 521.907 3.38162 -1.68687 0
M  V30 5657 H 522.22 6.61357 -3.99784 0
M  V30 5658 H 520.565 5.95135 -3.58942 0
M  V30 5659 H 523.756 4.15048 -2.16456 0
M  V30 5660 H 523.929 5.62439 -3.21818 0
M  V30 5661 N 517.335 0.585699 1.46312 0
M  V30 5662 C 518.746 0.159938 1.86014 0
M  V30 5663 C 519.097 -1.27775 1.48889 0
M  V30 5664 O 518.222 -1.96559 0.90519 0
M  V30 5665 C 518.817 0.283485 3.37612 0
M  V30 5666 C 517.376 -0.0874256 3.76298 0
M  V30 5667 C 516.523 0.618055 2.70325 0
M  V30 5668 H 519.474 0.793737 1.37425 0
M  V30 5669 H 519.495 -0.490348 3.77327 0
M  V30 5670 H 519.007 1.32995 3.64601 0
M  V30 5671 H 517.108 -1.13391 3.54927 0
M  V30 5672 H 517.221 0.290975 4.78216 0
M  V30 5673 H 515.585 0.057993 2.54634 0
M  V30 5674 H 516.368 1.66623 3.00153 0
M  V30 5675 N 518.813 -1.54241 0.323641 0
M  V30 5676 C 519.723 -2.28033 -0.551205 0
M  V30 5677 C 520.739 -1.32388 -1.12913 0
M  V30 5678 O 521.915 -1.65403 -1.14908 0
M  V30 5679 C 518.98 -3.02382 -1.69606 0
M  V30 5680 C 518.041 -4.13612 -1.14993 0
M  V30 5681 C 517.274 -4.84407 -2.24022 0
M  V30 5682 O 517.497 -4.54716 -3.44368 0
M  V30 5683 O 516.431 -5.71312 -1.89436 0
M  V30 5684 H 520.257 -3.03662 0.048066 0
M  V30 5685 H 517.842 -1.49133 0.0893289 0
M  V30 5686 H 519.724 -3.48941 -2.36259 0
M  V30 5687 H 518.399 -2.29628 -2.28151 0
M  V30 5688 H 517.306 -3.71402 -0.448484 0
M  V30 5689 H 518.639 -4.8841 -0.609608 0
M  V30 5690 N 520.291 -0.0518155 -1.57515 0
M  V30 5691 C 521.568 0.661727 -1.84067 0
M  V30 5692 C 521.948 1.88999 -0.940351 0
M  V30 5693 O 521.296 2.285 -0.00155404 0
M  V30 5694 C 521.506 1.01841 -3.3381 0
M  V30 5695 C 522.854 1.40043 -4.00841 0
M  V30 5696 O 523.878 1.11073 -3.38439 0
M  V30 5697 O 522.737 1.94111 -5.10865 0
M  V30 5698 H 519.831 0.326702 -0.759733 0
M  V30 5699 H 522.377 -0.0812277 -1.69505 0
M  V30 5700 H 521.149 0.145202 -3.91031 0
M  V30 5701 H 520.772 1.81879 -3.53562 0
M  V30 5702 N 521.769 1.56035 0.221574 0
M  V30 5703 C 522.997 1.8313 0.962864 0
M  V30 5704 C 523.412 0.630934 1.77946 0
M  V30 5705 O 522.769 -0.400519 1.78051 0
M  V30 5706 C 522.82 3.08742 1.88045 0
M  V30 5707 O 522.541 4.24147 1.09686 0
M  V30 5708 C 524.042 3.48824 2.73563 0
M  V30 5709 H 521.262 0.608775 0.282194 0
M  V30 5710 H 523.806 2.03124 0.23681 0
M  V30 5711 H 521.961 2.90723 2.56045 0
M  V30 5712 H 522.375 4.95505 1.71974 0
M  V30 5713 H 523.849 4.39752 3.3365 0
M  V30 5714 H 524.326 2.70575 3.45956 0
M  V30 5715 H 524.932 3.69282 2.10976 0
M  V30 5716 N 523.247 -0.488276 1.49845 0
M  V30 5717 C 524.494 -1.24157 1.59973 0
M  V30 5718 C 524.822 -1.92293 0.292182 0
M  V30 5719 O 524.077 -1.81942 -0.720813 0
M  V30 5720 C 524.376 -2.32152 2.71735 0
M  V30 5721 C 524.042 -1.81387 4.12807 0
M  V30 5722 C 522.704 -1.67262 4.51195 0
M  V30 5723 C 525.056 -1.43537 5.01045 0
M  V30 5724 C 522.384 -1.13685 5.7558 0
M  V30 5725 C 524.736 -0.914081 6.25961 0
M  V30 5726 C 523.4 -0.759327 6.63167 0
M  V30 5727 H 522.67 -0.454322 0.585383 0
M  V30 5728 H 525.317 -0.540261 1.83721 0
M  V30 5729 H 523.622 -3.08122 2.42008 0
M  V30 5730 H 525.319 -2.90164 2.76778 0
M  V30 5731 H 521.909 -1.93344 3.82513 0
M  V30 5732 H 526.093 -1.53292 4.72033 0
M  V30 5733 H 521.349 -1.00426 6.03096 0
M  V30 5734 H 525.523 -0.612066 6.93705 0
M  V30 5735 H 523.15 -0.342002 7.5943 0
M  V30 5736 N 524.725 -1.39134 -0.740242 0
M  V30 5737 C 525.955 -1.39132 -1.52728 0
M  V30 5738 C 526.363 0.0173133 -1.89192 0
M  V30 5739 O 525.706 0.997715 -1.54244 0
M  V30 5740 C 525.768 -2.1952 -2.84695 0
M  V30 5741 C 525.432 -3.68203 -2.70695 0
M  V30 5742 C 526.429 -4.61401 -2.39593 0
M  V30 5743 C 524.114 -4.11724 -2.8773 0
M  V30 5744 C 526.108 -5.96102 -2.25701 0
M  V30 5745 C 523.795 -5.46503 -2.73456 0
M  V30 5746 C 524.793 -6.38506 -2.42486 0
M  V30 5747 O 524.481 -7.70803 -2.28295 0
M  V30 5748 H 524.213 -0.477263 -0.478744 0
M  V30 5749 H 526.767 -1.83504 -0.922799 0
M  V30 5750 H 524.997 -1.69888 -3.47383 0
M  V30 5751 H 526.686 -2.1176 -3.46284 0
M  V30 5752 H 527.452 -4.29079 -2.26088 0
M  V30 5753 H 523.331 -3.4045 -3.10829 0
M  V30 5754 H 526.875 -6.6788 -2.0145 0
M  V30 5755 H 522.772 -5.78417 -2.86538 0
M  V30 5756 H 523.54 -7.8147 -2.43405 0
M  V30 5757 N 526.204 0.969867 -1.24223 0
M  V30 5758 C 527.451 1.71256 -1.08063 0
M  V30 5759 C 527.779 1.90734 0.380872 0
M  V30 5760 O 527.034 1.46469 1.29789 0
M  V30 5761 C 527.333 3.10883 -1.76314 0
M  V30 5762 C 526.999 3.11252 -3.26241 0
M  V30 5763 C 525.661 3.1106 -3.67144 0
M  V30 5764 C 528.013 3.05751 -4.22097 0
M  V30 5765 C 525.341 3.03097 -5.02344 0
M  V30 5766 C 527.693 2.9933 -5.57301 0
M  V30 5767 C 526.357 2.97466 -5.97554 0
M  V30 5768 H 525.627 0.62667 -0.395431 0
M  V30 5769 H 528.274 1.13422 -1.54297 0
M  V30 5770 H 526.579 3.72168 -1.22468 0
M  V30 5771 H 528.276 3.67138 -1.61277 0
M  V30 5772 H 524.866 3.12165 -2.93685 0
M  V30 5773 H 529.05 3.05031 -3.91497 0
M  V30 5774 H 524.306 3.00013 -5.32731 0
M  V30 5775 H 528.48 2.94033 -6.31283 0
M  V30 5776 H 526.107 2.91051 -7.02277 0
M  V30 5777 N 527.682 1.05563 1.17022 0
M  V30 5778 C 528.959 0.68165 1.83338 0
M  V30 5779 C 529.339 -0.837665 1.93769 0
M  V30 5780 O 528.687 -1.74507 1.47511 0
M  V30 5781 C 528.897 1.375 3.20772 0
M  V30 5782 C 530.245 1.51545 3.96635 0
M  V30 5783 O 531.269 1.33431 3.30264 0
M  V30 5784 O 530.128 1.812 5.15586 0
M  V30 5785 H 527.222 0.240412 0.791285 0
M  V30 5786 H 529.768 1.15545 1.24288 0
M  V30 5787 H 528.54 2.41135 3.08171 0
M  V30 5788 H 528.163 0.890798 3.87493 0
M  V30 5789 N 529.16 -1.33526 0.837174 0
M  V30 5790 C 530.571 -1.80182 0.489017 0
M  V30 5791 C 530.922 -1.69285 -0.991826 0
M  V30 5792 O 530.047 -1.24113 -1.77271 0
M  V30 5793 C 530.642 -3.27149 0.880866 0
M  V30 5794 C 529.201 -3.71828 0.584872 0
M  V30 5795 C 528.348 -2.54974 1.09011 0
M  V30 5796 H 531.299 -1.21071 1.02603 0
M  V30 5797 H 531.32 -3.80024 0.190239 0
M  V30 5798 H 530.832 -3.35048 1.95869 0
M  V30 5799 H 528.933 -3.69457 -0.48295 0
M  V30 5800 H 529.046 -4.65366 1.13892 0
M  V30 5801 H 527.41 -2.4952 0.511047 0
M  V30 5802 H 528.193 -2.65637 2.17467 0
M  V30 5803 N 530.638 -0.59345 -1.46 0
M  V30 5804 C 531.548 0.135817 -2.34207 0
M  V30 5805 C 532.564 0.875008 -1.50398 0
M  V30 5806 O 533.74 0.835778 -1.83239 0
M  V30 5807 C 530.805 1.12977 -3.27776 0
M  V30 5808 C 529.866 0.394081 -4.27487 0
M  V30 5809 C 529.099 1.34068 -5.16586 0
M  V30 5810 O 529.322 2.5778 -5.08828 0
M  V30 5811 O 528.256 0.845426 -5.95933 0
M  V30 5812 H 532.082 -0.588691 -2.9794 0
M  V30 5813 H 529.667 -0.353784 -1.45151 0
M  V30 5814 H 531.549 1.70261 -3.85473 0
M  V30 5815 H 530.224 1.83556 -2.66625 0
M  V30 5816 H 529.131 -0.220869 -3.73447 0
M  V30 5817 H 530.464 -0.270939 -4.91454 0
M  V30 5818 N 532.116 1.54067 -0.331816 0
M  V30 5819 C 533.363 2.00715 0.268269 0
M  V30 5820 C 533.691 1.21986 1.51491 0
M  V30 5821 O 532.946 0.292309 1.93505 0
M  V30 5822 C 533.245 3.51634 0.639392 0
M  V30 5823 C 532.911 4.48018 -0.509019 0
M  V30 5824 C 531.573 4.74089 -0.824209 0
M  V30 5825 C 533.925 5.05237 -1.28003 0
M  V30 5826 C 531.253 5.54637 -1.91298 0
M  V30 5827 C 533.605 5.86972 -2.35895 0
M  V30 5828 C 532.269 6.11342 -2.67987 0
M  V30 5829 H 531.539 0.734469 0.0981667 0
M  V30 5830 H 534.186 1.8596 -0.457304 0
M  V30 5831 H 532.491 3.6416 1.44551 0
M  V30 5832 H 534.188 3.85175 1.11539 0
M  V30 5833 H 530.778 4.27851 -0.253287 0
M  V30 5834 H 534.962 4.8507 -1.04978 0
M  V30 5835 H 530.218 5.71747 -2.16599 0
M  V30 5836 H 534.392 6.30327 -2.96076 0
M  V30 5837 H 532.019 6.73544 -3.5248 0
M  V30 5838 N 533.594 0.0601682 1.57485 0
M  V30 5839 C 534.822 -0.620937 1.97363 0
M  V30 5840 C 535.237 -1.63846 0.938082 0
M  V30 5841 O 534.594 -1.82339 -0.0766578 0
M  V30 5842 C 534.645 -1.29987 3.37321 0
M  V30 5843 O 534.366 -0.323081 4.36907 0
M  V30 5844 C 535.867 -2.06989 3.92008 0
M  V30 5845 H 533.087 -0.169135 0.649334 0
M  V30 5846 H 535.631 0.129132 2.04092 0
M  V30 5847 H 533.786 -2.0011 3.31715 0
M  V30 5848 H 534.2 -0.808754 5.18227 0
M  V30 5849 H 535.674 -2.49901 4.92192 0
M  V30 5850 H 536.151 -2.92173 3.2792 0
M  V30 5851 H 536.757 -1.41757 4.0098 0
M  V30 5852 N 535.072 -1.5615 -0.213296 0
M  V30 5853 C 536.035 -1.92249 -1.24792 0
M  V30 5854 C 537.035 -0.801828 -1.39382 0
M  V30 5855 O 538.225 -1.06948 -1.37506 0
M  V30 5856 C 535.357 -2.18056 -2.62039 0
M  V30 5857 H 536.55 -2.84793 -0.939845 0
M  V30 5858 H 534.103 -1.49559 -0.454062 0
M  V30 5859 H 534.838 -1.2809 -2.97932 0
M  V30 5860 H 534.623 -2.99703 -2.52825 0
M  V30 5861 H 536.113 -2.47051 -3.36683 0
M  V30 5862 N 536.55 0.480323 -1.50102 0
M  V30 5863 C 537.497 1.57946 -1.6829 0
M  V30 5864 C 538.467 1.57611 -0.524223 0
M  V30 5865 O 539.652 1.75282 -0.753709 0
M  V30 5866 C 536.792 2.95978 -1.77457 0
M  V30 5867 C 535.905 3.06173 -3.04766 0
M  V30 5868 C 535.04 4.35063 -3.04784 0
M  V30 5869 C 534.079 4.38966 -4.26586 0
M  V30 5870 N 533.216 5.59314 -4.24396 0
M  V30 5871 H 538.056 1.41743 -2.62131 0
M  V30 5872 H 535.593 0.689304 -1.2995 0
M  V30 5873 H 537.551 3.76011 -1.80752 0
M  V30 5874 H 536.181 3.10837 -0.870637 0
M  V30 5875 H 535.233 2.19071 -3.10986 0
M  V30 5876 H 536.545 3.04916 -3.9475 0
M  V30 5877 H 535.699 5.23436 -3.06757 0
M  V30 5878 H 534.438 4.38915 -2.12614 0
M  V30 5879 H 533.443 3.48992 -4.24835 0
M  V30 5880 H 534.668 4.36813 -5.19972 0
M  V30 5881 H 532.614 5.63969 -3.35074 0
M  V30 5882 H 532.531 5.5976 -5.08138 0
M  V30 5883 H 533.799 6.49837 -4.30502 0
M  V30 5884 N 538.028 1.39524 0.732853 0
M  V30 5885 C 539.256 1.40143 1.52209 0
M  V30 5886 C 539.671 -0.00348836 1.888 0
M  V30 5887 O 539.028 -0.975357 1.5425 0
M  V30 5888 C 539.079 2.27632 2.8083 0
M  V30 5889 O 538.8 3.62654 2.45792 0
M  V30 5890 C 540.301 2.36658 3.74844 0
M  V30 5891 H 537.521 0.478604 0.470297 0
M  V30 5892 H 540.065 1.83366 0.905388 0
M  V30 5893 H 538.22 1.87818 3.38826 0
M  V30 5894 H 538.634 4.08941 3.28431 0
M  V30 5895 H 540.108 3.02118 4.61984 0
M  V30 5896 H 540.585 1.38638 4.16745 0
M  V30 5897 H 541.191 2.76951 3.22766 0
M  V30 5898 N 539.506 -0.963266 1.24736 0
M  V30 5899 C 540.917 -1.52145 1.08207 0
M  V30 5900 C 541.268 -1.93142 -0.345061 0
M  V30 5901 O 540.393 -1.77769 -1.23399 0
M  V30 5902 C 540.988 -2.76486 1.95808 0
M  V30 5903 C 539.547 -3.28646 1.8349 0
M  V30 5904 C 538.694 -2.01529 1.90476 0
M  V30 5905 H 541.645 -0.781083 1.38148 0
M  V30 5906 H 541.666 -3.49986 1.49297 0
M  V30 5907 H 541.178 -2.46617 2.99669 0
M  V30 5908 H 539.279 -3.63357 0.824787 0
M  V30 5909 H 539.392 -3.97246 2.67829 0
M  V30 5910 H 537.756 -2.16442 1.34258 0
M  V30 5911 H 538.539 -1.7402 2.95926 0
M  V30 5912 N 540.985 -1.06182 -1.16461 0
M  V30 5913 C 541.932 -0.671613 -2.20812 0
M  V30 5914 C 542.902 0.331186 -1.62765 0
M  V30 5915 O 544.087 0.22033 -1.89524 0
M  V30 5916 C 541.227 -0.063029 -3.45042 0
M  V30 5917 C 540.34 -1.11587 -4.1734 0
M  V30 5918 C 539.475 -0.473546 -5.29085 0
M  V30 5919 C 538.514 -1.51 -5.93182 0
M  V30 5920 N 537.651 -0.891118 -6.96422 0
M  V30 5921 H 542.491 -1.56589 -2.53542 0
M  V30 5922 H 540.028 -0.782951 -1.24532 0
M  V30 5923 H 541.986 0.307344 -4.16066 0
M  V30 5924 H 540.616 0.794663 -3.12866 0
M  V30 5925 H 539.668 -1.60396 -3.44931 0
M  V30 5926 H 540.98 -1.90221 -4.61104 0
M  V30 5927 H 540.134 -0.0501432 -6.06679 0
M  V30 5928 H 538.873 0.344687 -4.8648 0
M  V30 5929 H 537.878 -1.94331 -5.14311 0
M  V30 5930 H 539.103 -2.33031 -6.37866 0
M  V30 5931 H 537.049 -0.0935753 -6.55933 0
M  V30 5932 H 536.966 -1.61486 -7.38551 0
M  V30 5933 H 538.234 -0.492822 -7.77941 0
M  V30 5934 N 542.463 1.3308 -0.844243 0
M  V30 5935 C 543.74 1.92178 -0.364261 0
M  V30 5936 C 544.12 1.76961 1.15101 0
M  V30 5937 O 543.468 1.16128 1.9679 0
M  V30 5938 C 543.678 3.393 -0.817106 0
M  V30 5939 C 545.026 4.16444 -0.828236 0
M  V30 5940 O 546.05 3.47975 -0.761062 0
M  V30 5941 O 544.909 5.38685 -0.920926 0
M  V30 5942 H 542.003 0.820411 -0.10419 0
M  V30 5943 H 544.549 1.41918 -0.930453 0
M  V30 5944 H 543.321 3.44272 -1.85991 0
M  V30 5945 H 542.944 3.96947 -0.227785 0
M  V30 5946 N 543.941 0.601185 1.45683 0
M  V30 5947 C 545.166 0.0982245 2.07167 0
M  V30 5948 C 545.591 -1.20546 1.44396 0
M  V30 5949 O 544.949 -1.73247 0.534347 0
M  V30 5950 C 544.997 -0.0346976 3.60583 0
M  V30 5951 O 544.101 -1.08657 3.97828 0
M  V30 5952 H 543.442 0.0711618 0.660176 0
M  V30 5953 H 545.972 0.829376 1.87036 0
M  V30 5954 H 545.982 -0.234969 4.07323 0
M  V30 5955 H 544.657 0.917265 4.05659 0
M  V30 5956 H 543.234 -0.863275 3.6277 0
M  V30 5957 N 545.419 -1.53889 0.339982 0
M  V30 5958 C 546.83 -1.86139 -0.144671 0
M  V30 5959 C 547.181 -1.2613 -1.50285 0
M  V30 5960 O 546.306 -0.573515 -2.08662 0
M  V30 5961 C 546.901 -3.37728 -0.269285 0
M  V30 5962 C 545.46 -3.69868 -0.698168 0
M  V30 5963 C 544.607 -2.76777 0.170249 0
M  V30 5964 H 547.558 -1.48503 0.559704 0
M  V30 5965 H 547.579 -3.64331 -1.0974 0
M  V30 5966 H 547.091 -3.81375 0.719366 0
M  V30 5967 H 545.192 -3.31764 -1.69597 0
M  V30 5968 H 545.305 -4.76582 -0.490533 0
M  V30 5969 H 543.669 -2.52188 -0.356844 0
M  V30 5970 H 544.452 -3.23253 1.15597 0
M  V30 5971 N 546.897 -0.0685191 -1.57451 0
M  V30 5972 C 548.145 0.60016 -1.92983 0
M  V30 5973 C 548.466 1.70348 -0.949028 0
M  V30 5974 O 547.736 1.959 0.00335647 0
M  V30 5975 H 546.316 0.224682 -0.712409 0
M  V30 5976 H 548.978 -0.125605 -1.94495 0
M  V30 5977 H 548.074 1.02759 -2.94698 0
M  V30 5978 N 548.375 1.56261 0.205012 0
M  V30 5979 C 549.624 1.79236 0.925058 0
M  V30 5980 C 549.937 0.640011 1.84833 0
M  V30 5981 O 551.143 0.753809 2.60826 0
M  V30 5982 C 549.599 3.17475 1.69522 0
M  V30 5983 C 549.207 4.40482 0.817269 0
M  V30 5984 C 550.951 3.49766 2.4055 0
M  V30 5985 C 548.858 5.69744 1.58573 0
M  V30 5986 H 547.788 0.668287 0.349153 0
M  V30 5987 H 550.439 1.82629 0.178544 0
M  V30 5988 H 548.821 3.08304 2.48526 0
M  V30 5989 H 549.995 4.60752 0.0665988 0
M  V30 5990 H 548.31 4.15827 0.218316 0
M  V30 5991 H 550.907 4.43573 2.98575 0
M  V30 5992 H 551.25 2.73041 3.14252 0
M  V30 5993 H 551.783 3.60341 1.68522 0
M  V30 5994 H 548.522 6.49407 0.891679 0
M  V30 5995 H 548.042 5.53509 2.31059 0
M  V30 5996 H 549.721 6.1051 2.14212 0
M  V30 5997 N 549.853 -0.472356 1.50355 0
M  V30 5998 C 551.264 -1.05326 1.54154 0
M  V30 5999 C 551.615 -1.93155 0.344303 0
M  V30 6000 O 550.74 -2.09479 -0.542928 0
M  V30 6001 C 551.335 -1.91691 2.79356 0
M  V30 6002 C 549.894 -2.44892 2.8584 0
M  V30 6003 C 549.041 -1.23205 2.48426 0
M  V30 6004 H 551.992 -0.255027 1.56637 0
M  V30 6005 H 552.013 -2.76742 2.6114 0
M  V30 6006 H 551.525 -1.27741 3.66475 0
M  V30 6007 H 549.626 -3.12399 2.0307 0
M  V30 6008 H 549.739 -2.80086 3.88701 0
M  V30 6009 H 548.103 -1.56643 2.00836 0
M  V30 6010 H 548.886 -0.609194 3.37852 0
M  V30 6011 N 551.331 -1.39911 -0.725443 0
M  V30 6012 C 552.742 -1.33599 -1.30415 0
M  V30 6013 C 553.093 -0.00481792 -1.96199 0
M  V30 6014 O 552.218 0.897275 -1.96921 0
M  V30 6015 C 552.813 -2.41965 -2.37146 0
M  V30 6016 C 551.372 -2.39144 -2.90667 0
M  V30 6017 C 550.519 -2.23355 -1.64341 0
M  V30 6018 H 553.47 -1.4986 -0.522267 0
M  V30 6019 H 553.491 -2.09304 -3.17761 0
M  V30 6020 H 553.003 -3.38837 -1.89238 0
M  V30 6021 H 551.104 -1.4594 -3.4283 0
M  V30 6022 H 551.217 -3.34362 -3.43131 0
M  V30 6023 H 549.581 -1.70696 -1.89037 0
M  V30 6024 H 550.364 -3.2221 -1.18471 0
M  V30 6025 N 552.809 0.956637 -1.25245 0
M  V30 6026 C 554.034 1.74104 -1.12706 0
M  V30 6027 C 554.459 1.85436 0.315429 0
M  V30 6028 O 553.817 1.33334 1.22848 0
M  V30 6029 C 553.865 3.1338 -1.78396 0
M  V30 6030 O 552.969 3.98485 -1.06224 0
M  V30 6031 H 552.31 0.53476 -0.393609 0
M  V30 6032 H 554.84 1.19924 -1.65769 0
M  V30 6033 H 554.85 3.6385 -1.846 0
M  V30 6034 H 553.525 3.04448 -2.83345 0
M  V30 6035 H 552.102 3.56952 -1.07886 0
M  V30 6036 N 554.287 1.06798 1.15896 0
M  V30 6037 C 555.25 0.687328 2.18651 0
M  V30 6038 C 556.25 -0.269559 1.58524 0
M  V30 6039 O 557.44 -0.0512627 1.74125 0
M  V30 6040 C 554.572 0.0121642 3.40898 0
M  V30 6041 H 555.765 1.59701 2.53842 0
M  V30 6042 H 553.318 0.863828 1.3026 0
M  V30 6043 H 554.053 -0.910025 3.1127 0
M  V30 6044 H 553.838 0.700309 3.85795 0
M  V30 6045 H 555.328 -0.239703 4.16911 0
M  V30 6046 N 555.766 -1.3263 0.851289 0
M  V30 6047 C 556.714 -2.30882 0.282202 0
M  V30 6048 C 557.708 -1.58697 -0.592589 0
M  V30 6049 O 558.914 -1.73461 -0.480768 0
M  V30 6050 H 555.289 -0.748492 0.0725487 0
M  V30 6051 H 557.26 -2.76374 1.12516 0
M  V30 6052 C 556.009 -3.43828 -0.517449 0
M  V30 6053 H 555.332 -3.99532 0.146392 0
M  V30 6054 H 556.772 -4.1474 -0.88128 0
M  V30 6055 C 555.231 -2.90786 -1.70133 0
M  V30 6056 O 555.761 -2.88 -2.80034 0
M  V30 6057 N 553.967 -2.4723 -1.52728 0
M  V30 6058 H 553.514 -2.49695 -0.633257 0
M  V30 6059 H 553.472 -2.12094 -2.32085 0
M  V30 6060 N 557.244 -0.608902 -1.45362 0
M  V30 6061 C 558.207 0.0992563 -2.28985 0
M  V30 6062 C 559.207 0.793841 -1.39838 0
M  V30 6063 O 560.397 0.641804 -1.61946 0
M  V30 6064 C 557.529 1.15073 -3.20891 0
M  V30 6065 H 558.722 -0.635964 -2.93079 0
M  V30 6066 H 556.275 -0.368007 -1.51906 0
M  V30 6067 H 557.01 1.91667 -2.616 0
M  V30 6068 H 556.795 0.656867 -3.86559 0
M  V30 6069 H 558.285 1.64665 -3.83765 0
M  V30 6070 N 558.722 1.53707 -0.348139 0
M  V30 6071 C 559.672 2.2193 0.522592 0
M  V30 6072 C 560.656 1.20831 1.06248 0
M  V30 6073 O 561.848 1.46357 0.995415 0
M  V30 6074 C 558.977 2.99904 1.6707 0
M  V30 6075 C 558.063 4.08364 1.14454 0
M  V30 6076 N 558.454 5.04656 0.339958 0
M  V30 6077 C 556.752 4.22757 1.421 0
M  V30 6078 C 557.453 5.81675 0.0538806 0
M  V30 6079 N 556.429 5.39739 0.646776 0
M  V30 6080 H 560.231 2.93733 -0.099135 0
M  V30 6081 H 557.745 1.61656 -0.15524 0
M  V30 6082 H 559.742 3.47284 2.30651 0
M  V30 6083 H 558.402 2.29629 2.29566 0
M  V30 6084 H 559.413 5.17896 -0.0193552 0
M  V30 6085 H 556.09 3.63704 2.05002 0
M  V30 6086 H 557.48 6.69256 -0.595443 0
M  V30 6087 N 560.2 0.0768682 1.57412 0
M  V30 6088 C 561.132 -0.918248 2.10002 0
M  V30 6089 C 562.145 -1.25808 1.03325 0
M  V30 6090 O 563.334 -1.21438 1.30824 0
M  V30 6091 C 560.434 -2.23263 2.54964 0
M  V30 6092 C 559.607 -2.07088 3.8527 0
M  V30 6093 C 558.666 -3.21876 4.16272 0
M  V30 6094 O 557.692 -2.96643 4.8579 0
M  V30 6095 N 558.894 -4.4712 3.70221 0
M  V30 6096 H 561.659 -0.469209 2.96004 0
M  V30 6097 H 559.22 -0.108725 1.61535 0
M  V30 6098 H 561.212 -2.9897 2.72762 0
M  V30 6099 H 559.782 -2.59649 1.74072 0
M  V30 6100 H 559.002 -1.15818 3.76802 0
M  V30 6101 H 560.29 -1.93537 4.70554 0
M  V30 6102 H 559.688 -4.70506 3.1407 0
M  V30 6103 H 558.245 -5.19837 3.93209 0
M  V30 6104 N 561.678 -1.56367 -0.196722 0
M  V30 6105 C 562.608 -1.97442 -1.24655 0
M  V30 6106 C 563.589 -0.846147 -1.47561 0
M  V30 6107 O 564.774 -1.11035 -1.59326 0
M  V30 6108 C 561.904 -2.31253 -2.59112 0
M  V30 6109 C 560.858 -3.46804 -2.50821 0
M  V30 6110 C 560.184 -3.66286 -3.89536 0
M  V30 6111 C 561.484 -4.8104 -2.03465 0
M  V30 6112 H 563.178 -2.85388 -0.905216 0
M  V30 6113 H 560.724 -1.37304 -0.434002 0
M  V30 6114 H 562.677 -2.58583 -3.32736 0
M  V30 6115 H 561.401 -1.40188 -2.94983 0
M  V30 6116 H 560.06 -3.19563 -1.79653 0
M  V30 6117 H 559.708 -2.72555 -4.22756 0
M  V30 6118 H 559.408 -4.4402 -3.84864 0
M  V30 6119 H 560.932 -3.9599 -4.64784 0
M  V30 6120 H 562.346 -5.07411 -2.66846 0
M  V30 6121 H 560.743 -5.62232 -2.09798 0
M  V30 6122 H 561.813 -4.74732 -0.98781 0
M  V30 6123 N 563.156 0.464375 -1.50603 0
M  V30 6124 C 564.403 1.21596 -1.61928 0
M  V30 6125 C 564.731 1.91804 -0.322737 0
M  V30 6126 O 563.986 1.83065 0.691776 0
M  V30 6127 C 564.285 2.278 -2.75394 0
M  V30 6128 C 563.951 1.74797 -4.1564 0
M  V30 6129 C 562.613 1.60063 -4.53799 0
M  V30 6130 C 564.965 1.35548 -5.03266 0
M  V30 6131 C 562.293 1.04514 -5.77316 0
M  V30 6132 C 564.645 0.814381 -6.27336 0
M  V30 6133 C 563.309 0.653726 -6.64291 0
M  V30 6134 H 562.579 0.444951 -0.592536 0
M  V30 6135 H 565.226 0.510964 -1.84557 0
M  V30 6136 H 563.531 3.04233 -2.46879 0
M  V30 6137 H 565.228 2.85723 -2.81359 0
M  V30 6138 H 561.818 1.87234 -3.8554 0
M  V30 6139 H 566.002 1.45763 -4.74412 0
M  V30 6140 H 561.258 0.908186 -6.04617 0
M  V30 6141 H 565.432 0.501626 -6.94591 0
M  V30 6142 H 563.059 0.22114 -7.59878 0
M  V30 6143 N 564.634 1.40294 0.718013 0
M  V30 6144 C 566.05 1.2227 1.02577 0
M  V30 6145 C 566.25 0.0961976 2.0127 0
M  V30 6146 O 565.306 -0.546695 2.46511 0
M  V30 6147 C 566.619 2.56348 1.57182 0
M  V30 6148 C 568.167 2.6334 1.69178 0
M  V30 6149 C 568.642 3.9768 2.27188 0
M  V30 6150 N 570.133 3.99409 2.34578 0
M  V30 6151 C 570.868 5.00141 2.8044 0
M  V30 6152 N 570.364 6.11268 3.26073 0
M  V30 6153 N 572.157 4.87511 2.79802 0
M  V30 6154 H 564.308 2.12304 0.0637899 0
M  V30 6155 H 566.571 0.943632 0.0909036 0
M  V30 6156 H 566.277 3.3942 0.921262 0
M  V30 6157 H 566.151 2.77266 2.55741 0
M  V30 6158 H 568.538 1.80641 2.33351 0
M  V30 6159 H 568.619 2.46255 0.692247 0
M  V30 6160 H 568.263 4.80817 1.63638 0
M  V30 6161 H 568.193 4.12093 3.27852 0
M  V30 6162 H 570.684 3.19162 2.02346 0
M  V30 6163 H 570.997 6.84023 3.59628 0
M  V30 6164 H 569.342 6.14837 3.24038 0
M  V30 6165 H 572.533 3.9979 2.43487 0
M  V30 6166 H 572.706 5.66158 3.15228 0
M  V30 6167 N 566.112 -0.949982 1.2575 0
M  V30 6168 C 567.36 -1.6918 1.10555 0
M  V30 6169 C 567.681 -1.91773 -0.353298 0
M  V30 6170 O 566.951 -1.50814 -1.25027 0
M  V30 6171 H 565.531 -0.626952 0.406129 0
M  V30 6172 H 568.193 -1.1419 1.57945 0
M  V30 6173 H 567.289 -2.66915 1.61749 0
M  V30 6174 N 567.59 -1.07411 -1.15328 0
M  V30 6175 C 568.837 -0.797649 -1.86128 0
M  V30 6176 C 569.165 0.676298 -1.82364 0
M  V30 6177 O 568.42 1.51223 -1.24218 0
M  V30 6178 C 568.719 -1.25191 -3.34757 0
M  V30 6179 C 568.385 -2.73191 -3.58716 0
M  V30 6180 C 567.047 -3.13616 -3.64964 0
M  V30 6181 C 569.399 -3.68718 -3.6837 0
M  V30 6182 C 566.727 -4.48383 -3.78377 0
M  V30 6183 C 569.079 -5.03248 -3.83306 0
M  V30 6184 C 567.743 -5.43293 -3.878 0
M  V30 6185 H 567.013 -0.29188 -0.681092 0
M  V30 6186 H 569.66 -1.34524 -1.36292 0
M  V30 6187 H 567.965 -0.623712 -3.86804 0
M  V30 6188 H 569.662 -1.01489 -3.87945 0
M  V30 6189 H 566.252 -2.40898 -3.54494 0
M  V30 6190 H 570.436 -3.38614 -3.62842 0
M  V30 6191 H 565.692 -4.78877 -3.80114 0
M  V30 6192 H 569.866 -5.77142 -3.89718 0
M  V30 6193 H 567.493 -6.47721 -3.97946 0
M  V30 6194 N 569.068 1.32177 -0.85831 0
M  V30 6195 C 570.293 2.01847 -0.476718 0
M  V30 6196 C 570.718 1.64065 0.920021 0
M  V30 6197 O 570.076 0.843189 1.60499 0
M  V30 6198 C 570.124 3.55097 -0.627578 0
M  V30 6199 O 569.228 4.11012 0.338086 0
M  V30 6200 H 568.569 0.635907 -0.191099 0
M  V30 6201 H 571.099 1.68641 -1.15851 0
M  V30 6202 H 571.109 4.04718 -0.516476 0
M  V30 6203 H 569.784 3.81938 -1.64609 0
M  V30 6204 H 568.361 3.72451 0.182917 0
M  V30 6205 N 570.547 0.616602 1.45037 0
M  V30 6206 C 571.794 0.115331 2.02171 0
M  V30 6207 C 572.122 -1.25748 1.48383 0
M  V30 6208 O 571.377 -1.84511 0.652229 0
M  V30 6209 C 571.676 0.0356829 3.57382 0
M  V30 6210 C 571.342 1.34535 4.30362 0
M  V30 6211 C 570.004 1.70408 4.50016 0
M  V30 6212 C 572.356 2.21049 4.72003 0
M  V30 6213 C 569.684 2.92529 5.0857 0
M  V30 6214 C 572.036 3.42427 5.31908 0
M  V30 6215 C 570.7 3.78541 5.49784 0
M  V30 6216 H 569.97 0.0422024 0.739797 0
M  V30 6217 H 572.617 0.80002 1.73988 0
M  V30 6218 H 570.922 -0.732314 3.84895 0
M  V30 6219 H 572.619 -0.368463 3.99304 0
M  V30 6220 H 569.209 1.05615 4.15383 0
M  V30 6221 H 573.393 1.94632 4.56544 0
M  V30 6222 H 568.649 3.20605 5.20598 0
M  V30 6223 H 572.823 4.09709 5.63127 0
M  V30 6224 H 570.45 4.73255 5.94923 0
M  V30 6225 N 572.025 -1.5352 0.356285 0
M  V30 6226 C 573.271 -2.01414 -0.236653 0
M  V30 6227 C 573.604 -1.24339 -1.49176 0
M  V30 6228 O 572.879 -0.334496 -1.91602 0
M  V30 6229 C 573.162 -3.56059 -0.537982 0
M  V30 6230 C 573.015 -4.43835 0.730112 0
M  V30 6231 C 574.334 -4.19127 -1.34239 0
M  V30 6232 H 571.453 -0.732135 -0.0845386 0
M  V30 6233 H 574.095 -1.83854 0.479341 0
M  V30 6234 H 572.245 -3.71153 -1.14795 0
M  V30 6235 H 573.917 -4.40555 1.36782 0
M  V30 6236 H 572.16 -4.1218 1.3524 0
M  V30 6237 H 572.831 -5.49958 0.474358 0
M  V30 6238 H 575.307 -4.07809 -0.826498 0
M  V30 6239 H 574.183 -5.27378 -1.52198 0
M  V30 6240 H 574.444 -3.74581 -2.34822 0
M  V30 6241 N 573.503 -0.0852151 -1.57369 0
M  V30 6242 C 574.466 0.8627 -2.12344 0
M  V30 6243 C 575.466 1.21746 -1.05046 0
M  V30 6244 O 576.656 1.14852 -1.30976 0
M  V30 6245 C 573.788 2.1618 -2.63589 0
M  V30 6246 H 574.981 0.385511 -2.97412 0
M  V30 6247 H 572.534 0.163663 -1.55441 0
M  V30 6248 H 573.269 2.68406 -1.82013 0
M  V30 6249 H 573.054 1.91723 -3.4203 0
M  V30 6250 H 574.544 2.84011 -3.06149 0
M  V30 6251 N 574.981 1.5647 0.188427 0
M  V30 6252 C 576.23 1.80207 0.905995 0
M  V30 6253 C 576.543 0.659579 1.84144 0
M  V30 6254 O 577.749 0.781431 2.60011 0
M  V30 6255 C 576.205 3.19255 1.66145 0
M  V30 6256 C 575.813 4.41324 0.770504 0
M  V30 6257 C 577.557 3.52298 2.36826 0
M  V30 6258 C 575.464 5.71394 1.52521 0
M  V30 6259 H 574.394 0.671953 0.342045 0
M  V30 6260 H 577.045 1.82808 0.159164 0
M  V30 6261 H 575.427 3.10922 2.45242 0
M  V30 6262 H 576.601 4.60797 0.0177261 0
M  V30 6263 H 574.916 4.16035 0.174199 0
M  V30 6264 H 577.513 4.46715 2.93854 0
M  V30 6265 H 577.856 2.76359 3.11338 0
M  V30 6266 H 578.389 3.62108 1.6469 0
M  V30 6267 H 575.128 6.50316 0.82275 0
M  V30 6268 H 574.648 5.55928 2.25175 0
M  V30 6269 H 576.327 6.12747 2.07725 0
M  V30 6270 N 576.459 -0.456382 1.50847 0
M  V30 6271 C 577.687 -1.23026 1.66349 0
M  V30 6272 C 578.102 -1.85473 0.352868 0
M  V30 6273 O 577.459 -1.69885 -0.666739 0
M  V30 6274 C 577.51 -2.32827 2.76539 0
M  V30 6275 O 577.231 -1.72938 4.02522 0
M  V30 6276 C 578.732 -3.23448 3.03144 0
M  V30 6277 H 575.952 -0.371527 0.558756 0
M  V30 6278 H 578.496 -0.543082 1.97157 0
M  V30 6279 H 576.651 -2.97294 2.48384 0
M  V30 6280 H 577.065 -2.45357 4.63573 0
M  V30 6281 H 578.539 -3.96669 3.83872 0
M  V30 6282 H 579.016 -3.83094 2.14793 0
M  V30 6283 H 579.622 -2.64702 3.32886 0
M  V30 6284 N 577.937 -1.40673 -0.710563 0
M  V30 6285 C 579.162 -1.42741 -1.50465 0
M  V30 6286 C 579.587 -0.0302116 -1.88076 0
M  V30 6287 O 578.945 0.962945 -1.53613 0
M  V30 6288 C 578.993 -2.32873 -2.75322 0
M  V30 6289 O 578.097 -1.77544 -3.72226 0
M  V30 6290 H 577.438 -0.485056 -0.45345 0
M  V30 6291 H 579.968 -1.84961 -0.874681 0
M  V30 6292 H 579.978 -2.48233 -3.23797 0
M  V30 6293 H 578.653 -3.34401 -2.47283 0
M  V30 6294 H 577.23 -1.71556 -3.31093 0
M  V30 6295 N 579.415 0.9433 -1.26252 0
M  V30 6296 C 580.692 1.66639 -1.02424 0
M  V30 6297 C 581.072 2.06335 0.446006 0
M  V30 6298 O 580.42 1.78551 1.42589 0
M  V30 6299 C 580.63 2.88019 -1.97094 0
M  V30 6300 C 581.978 3.59718 -2.25584 0
M  V30 6301 O 583.002 2.9812 -1.94943 0
M  V30 6302 O 581.861 4.7066 -2.77743 0
M  V30 6303 H 578.955 0.729643 -0.389294 0
M  V30 6304 H 581.501 0.995218 -1.37454 0
M  V30 6305 H 580.273 2.5556 -2.96319 0
M  V30 6306 H 579.896 3.62863 -1.62532 0
M  V30 6307 N 580.893 1.08022 1.14757 0
M  V30 6308 C 582.17 0.720386 1.81851 0
M  V30 6309 C 582.55 -0.796375 1.95502 0
M  V30 6310 O 581.898 -1.71339 1.51179 0
M  V30 6311 C 582.108 1.44273 3.17783 0
M  V30 6312 C 583.456 1.59925 3.93331 0
M  V30 6313 O 584.48 1.40407 3.2736 0
M  V30 6314 O 583.339 1.92096 5.11626 0
M  V30 6315 H 580.433 0.257142 0.786007 0
M  V30 6316 H 582.979 1.18155 1.21809 0
M  V30 6317 H 581.751 2.47618 3.02987 0
M  V30 6318 H 581.374 0.97279 3.85516 0
M  V30 6319 N 582.371 -1.3172 0.865308 0
M  V30 6320 C 583.281 -2.32394 0.320935 0
M  V30 6321 C 584.297 -1.64511 -0.566746 0
M  V30 6322 O 585.473 -1.95969 -0.464575 0
M  V30 6323 C 582.538 -3.43462 -0.472701 0
M  V30 6324 C 581.599 -4.27015 0.442385 0
M  V30 6325 C 580.832 -5.32779 -0.313469 0
M  V30 6326 O 581.055 -5.49158 -1.54214 0
M  V30 6327 O 579.989 -6.01015 0.326257 0
M  V30 6328 H 583.815 -2.80868 1.15528 0
M  V30 6329 H 581.4 -1.35535 0.628545 0
M  V30 6330 H 583.282 -4.11172 -0.922781 0
M  V30 6331 H 581.957 -2.97159 -1.28367 0
M  V30 6332 H 580.864 -3.62075 0.940866 0
M  V30 6333 H 582.197 -4.76871 1.21882 0
M  V30 6334 N 583.85 -0.624285 -1.44708 0
M  V30 6335 C 585.075 -0.131171 -2.06985 0
M  V30 6336 C 585.5 1.18234 -1.46295 0
M  V30 6337 O 584.858 1.72375 -0.561842 0
M  V30 6338 C 584.906 -0.0226724 -3.60593 0
M  V30 6339 O 584.01 1.02314 -3.99507 0
M  V30 6340 H 583.351 -0.0816556 -0.65896 0
M  V30 6341 H 585.88 -0.859027 -1.85693 0
M  V30 6342 H 585.891 0.170138 -4.07645 0
M  V30 6343 H 584.566 -0.981685 -4.04148 0
M  V30 6344 H 583.143 0.805452 -3.64097 0
M  V30 6345 N 585.328 1.53329 -0.364422 0
M  V30 6346 C 586.26 2.23286 0.517293 0
M  V30 6347 C 587.273 1.24657 1.04711 0
M  V30 6348 O 588.462 1.50887 0.95369 0
M  V30 6349 C 585.562 2.91604 1.72685 0
M  V30 6350 C 584.735 4.1673 1.32873 0
M  V30 6351 C 583.794 4.68269 2.40022 0
M  V30 6352 O 582.82 5.31976 2.02461 0
M  V30 6353 N 584.022 4.45983 3.7159 0
M  V30 6354 H 586.787 2.99588 -0.0819391 0
M  V30 6355 H 584.348 1.60787 -0.189544 0
M  V30 6356 H 586.34 3.22992 2.4384 0
M  V30 6357 H 584.91 2.18763 2.23297 0
M  V30 6358 H 584.13 3.91657 0.447069 0
M  V30 6359 H 585.418 4.98078 1.03902 0
M  V30 6360 H 584.816 3.95077 4.04883 0
M  V30 6361 H 583.373 4.81924 4.38854 0
M  V30 6362 N 586.806 0.0935595 1.57322 0
M  V30 6363 C 587.769 -0.851426 2.12799 0
M  V30 6364 C 588.769 -1.21187 1.0569 0
M  V30 6365 O 589.959 -1.14156 1.31583 0
M  V30 6366 C 587.091 -2.14779 2.64731 0
M  V30 6367 H 588.284 -0.369733 2.97612 0
M  V30 6368 H 585.837 -0.155417 1.55525 0
M  V30 6369 H 586.572 -2.67437 1.83434 0
M  V30 6370 H 586.357 -1.89907 3.43042 0
M  V30 6371 H 587.847 -2.82383 3.07651 0
M  V30 6372 N 588.284 -1.56567 -0.180126 0
M  V30 6373 C 589.217 -1.90813 -1.25163 0
M  V30 6374 C 590.195 -0.7699 -1.43218 0
M  V30 6375 O 591.379 -1.02236 -1.58367 0
M  V30 6376 C 588.506 -2.15138 -2.61597 0
M  V30 6377 C 587.552 -3.37834 -2.60328 0
M  V30 6378 S 588.385 -4.92486 -2.1028 0
M  V30 6379 C 589.541 -5.19896 -3.48509 0
M  V30 6380 H 589.774 -2.81398 -0.959283 0
M  V30 6381 H 587.307 -1.49541 -0.3843 0
M  V30 6382 H 589.265 -2.29835 -3.40127 0
M  V30 6383 H 587.926 -1.25276 -2.88036 0
M  V30 6384 H 587.119 -3.52027 -3.60684 0
M  V30 6385 H 586.721 -3.22208 -1.8989 0
M  V30 6386 H 589.013 -5.11334 -4.44459 0
M  V30 6387 H 589.956 -6.21571 -3.39198 0
M  V30 6388 H 590.364 -4.47489 -3.44114 0
M  V30 6389 N 589.762 0.448376 -1.51087 0
M  V30 6390 C 590.694 1.56146 -1.67783 0
M  V30 6391 C 591.707 1.52913 -0.55871 0
M  V30 6392 O 592.896 1.57889 -0.83267 0
M  V30 6393 C 589.996 2.95057 -1.66716 0
M  V30 6394 C 589.169 3.22915 -2.95033 0
M  V30 6395 C 588.228 4.41495 -2.86302 0
M  V30 6396 O 587.254 4.40688 -3.60254 0
M  V30 6397 N 588.456 5.44443 -2.014 0
M  V30 6398 H 591.221 1.42232 -2.638 0
M  V30 6399 H 588.782 0.637153 -1.48835 0
M  V30 6400 H 590.774 3.72388 -1.58458 0
M  V30 6401 H 589.344 3.02624 -0.783403 0
M  V30 6402 H 588.564 2.33985 -3.17245 0
M  V30 6403 H 589.852 3.38349 -3.79996 0
M  V30 6404 H 589.25 5.4793 -1.40674 0
M  V30 6405 H 587.807 6.2067 -1.99029 0
M  V30 6406 N 591.24 1.41047 0.703093 0
M  V30 6407 C 592.468 1.4334 1.49202 0
M  V30 6408 C 592.883 0.0365596 1.88765 0
M  V30 6409 O 592.24 -0.942419 1.56284 0
M  V30 6410 C 592.291 2.33538 2.75939 0
M  V30 6411 O 592.012 3.67786 2.38045 0
M  V30 6412 C 593.513 2.44555 3.6974 0
M  V30 6413 H 590.733 0.488472 0.460039 0
M  V30 6414 H 593.277 1.85245 0.86629 0
M  V30 6415 H 591.432 1.94962 3.34766 0
M  V30 6416 H 591.846 4.15816 3.19683 0
M  V30 6417 H 593.32 3.11849 4.55471 0
M  V30 6418 H 593.797 1.47447 4.1371 0
M  V30 6419 H 594.403 2.83735 3.16819 0
M  V30 6420 N 592.718 -0.936591 1.26751 0
M  V30 6421 C 593.964 -1.6858 1.12733 0
M  V30 6422 C 594.297 -1.91414 -0.327745 0
M  V30 6423 O 593.572 -1.49812 -1.24043 0
M  V30 6424 C 593.855 -3.05779 1.90187 0
M  V30 6425 C 593.708 -2.90242 3.43627 0
M  V30 6426 C 595.027 -4.0597 1.69931 0
M  V30 6427 H 592.146 -0.61182 0.410908 0
M  V30 6428 H 594.788 -1.08747 1.55801 0
M  V30 6429 H 592.938 -3.56853 1.53584 0
M  V30 6430 H 594.61 -2.46354 3.9001 0
M  V30 6431 H 592.853 -2.2577 3.70419 0
M  V30 6432 H 593.524 -3.87572 3.93055 0
M  V30 6433 H 596 -3.63874 2.0183 0
M  V30 6434 H 594.876 -4.99974 2.26534 0
M  V30 6435 H 595.137 -4.37369 0.64502 0
M  V30 6436 N 594.196 -1.08629 -1.14182 0
M  V30 6437 C 595.444 -0.815731 -1.84906 0
M  V30 6438 C 595.765 0.660441 -1.83475 0
M  V30 6439 O 595.035 1.47888 -1.28476 0
M  V30 6440 H 593.615 -0.298773 -0.684648 0
M  V30 6441 H 596.277 -1.37274 -1.38354 0
M  V30 6442 H 595.373 -1.16193 -2.89665 0
M  V30 6443 N 595.674 1.31259 -0.872281 0
M  V30 6444 C 596.92 1.96913 -0.485083 0
M  V30 6445 C 597.253 1.68774 0.960667 0
M  V30 6446 O 596.528 0.985495 1.67685 0
M  V30 6447 C 596.811 3.52299 -0.745502 0
M  V30 6448 C 596.664 3.90002 -2.24095 0
M  V30 6449 C 597.983 4.39582 -0.213516 0
M  V30 6450 H 595.102 0.715252 -0.177716 0
M  V30 6451 H 597.744 1.55347 -1.09395 0
M  V30 6452 H 595.894 3.87835 -0.227276 0
M  V30 6453 H 597.566 3.64555 -2.82661 0
M  V30 6454 H 595.809 3.38526 -2.71261 0
M  V30 6455 H 596.48 4.98352 -2.37381 0
M  V30 6456 H 598.956 4.10882 -0.656902 0
M  V30 6457 H 597.832 5.47251 -0.42516 0
M  V30 6458 H 598.093 4.33158 0.884666 0
M  V30 6459 N 597.152 0.631951 1.44375 0
M  V30 6460 C 598.102 -0.0943862 2.27805 0
M  V30 6461 C 599.086 -0.815359 1.38711 0
M  V30 6462 O 600.278 -0.701331 1.62513 0
M  V30 6463 C 597.407 -1.07472 3.26044 0
M  V30 6464 C 596.493 -0.353329 4.22626 0
M  V30 6465 N 596.884 0.618512 5.02004 0
M  V30 6466 C 595.182 -0.597662 4.41977 0
M  V30 6467 C 595.883 1.0448 5.7224 0
M  V30 6468 N 594.859 0.383413 5.42246 0
M  V30 6469 H 598.661 0.651672 2.86584 0
M  V30 6470 H 596.175 0.45752 1.55822 0
M  V30 6471 H 598.172 -1.60969 3.84571 0
M  V30 6472 H 596.832 -1.82107 2.68825 0
M  V30 6473 H 597.843 0.996356 5.08226 0
M  V30 6474 H 594.52 -1.32682 3.95856 0
M  V30 6475 H 595.91 1.84773 6.45994 0
M  V30 6476 N 598.631 -1.53133 0.372548 0
M  V30 6477 C 599.856 -2.0625 -0.218098 0
M  V30 6478 C 600.281 -1.24375 -1.41111 0
M  V30 6479 O 599.639 -0.264554 -1.79359 0
M  V30 6480 C 599.687 -3.55858 -0.582876 0
M  V30 6481 O 598.791 -3.76667 -1.67917 0
M  V30 6482 H 598.132 -0.663317 -0.030104 0
M  V30 6483 H 600.662 -1.97477 0.535169 0
M  V30 6484 H 600.672 -3.99007 -0.851925 0
M  V30 6485 H 599.347 -4.14892 0.289428 0
M  V30 6486 H 597.924 -3.45413 -1.40513 0
M  V30 6487 N 600.109 -0.101901 -1.5727 0
M  V30 6488 C 601.358 0.559922 -1.93772 0
M  V30 6489 C 601.671 1.68913 -0.98629 0
M  V30 6490 O 602.877 2.41256 -1.24529 0
M  V30 6491 C 601.333 1.04739 -3.44322 0
M  V30 6492 C 600.941 -0.05243 -4.47969 0
M  V30 6493 C 602.685 1.68157 -3.89774 0
M  V30 6494 C 600.592 0.450781 -5.8968 0
M  V30 6495 H 599.522 0.212931 -0.723309 0
M  V30 6496 H 602.173 -0.179001 -1.82625 0
M  V30 6497 H 600.555 1.84021 -3.50645 0
M  V30 6498 H 601.729 -0.828157 -4.53297 0
M  V30 6499 H 600.044 -0.592202 -4.12167 0
M  V30 6500 H 602.641 2.0689 -4.93052 0
M  V30 6501 H 602.984 2.55338 -3.28798 0
M  V30 6502 H 603.517 0.954453 -3.8618 0
M  V30 6503 H 600.256 -0.38458 -6.54371 0
M  V30 6504 H 599.776 1.19336 -5.87809 0
M  V30 6505 H 601.455 0.917555 -6.40461 0
M  V30 6506 N 601.587 1.56661 0.17182 0
M  V30 6507 C 602.833 1.82235 0.889845 0
M  V30 6508 C 603.166 0.679673 1.81918 0
M  V30 6509 O 602.441 -0.318404 1.91876 0
M  V30 6510 C 602.724 3.18195 1.68595 0
M  V30 6511 C 602.577 4.42989 0.779773 0
M  V30 6512 C 603.896 3.5109 2.65375 0
M  V30 6513 H 601.015 0.66291 0.322056 0
M  V30 6514 H 603.657 1.89358 0.15608 0
M  V30 6515 H 601.807 3.12253 2.3115 0
M  V30 6516 H 603.479 4.60997 0.16714 0
M  V30 6517 H 601.722 4.33711 0.0877964 0
M  V30 6518 H 602.393 5.3467 1.3723 0
M  V30 6519 H 604.869 3.57482 2.12946 0
M  V30 6520 H 603.745 4.47298 3.18144 0
M  V30 6521 H 604.006 2.75768 3.45549 0
M  V30 6522 N 603.065 -0.440357 1.51323 0
M  V30 6523 C 603.997 -1.55254 1.68609 0
M  V30 6524 C 605.01 -1.52614 0.566812 0
M  V30 6525 O 606.199 -1.57445 0.841032 0
M  V30 6526 C 603.299 -2.94169 1.68279 0
M  V30 6527 C 602.472 -3.21346 2.96742 0
M  V30 6528 C 601.531 -4.3997 2.8864 0
M  V30 6529 O 600.557 -4.38771 3.62586 0
M  V30 6530 N 601.759 -5.43367 2.04285 0
M  V30 6531 H 604.524 -1.40831 2.6455 0
M  V30 6532 H 602.085 -0.629251 1.49171 0
M  V30 6533 H 604.077 -3.71543 1.60431 0
M  V30 6534 H 602.647 -3.02205 0.799441 0
M  V30 6535 H 601.867 -2.32299 3.18482 0
M  V30 6536 H 603.155 -3.3633 3.81785 0
M  V30 6537 H 602.553 -5.47176 1.43578 0
M  V30 6538 H 601.11 -6.19605 2.02318 0
M  V30 6539 N 604.543 -1.41418 -0.695603 0
M  V30 6540 C 605.475 -1.39195 -1.82092 0
M  V30 6541 C 606.488 -0.294132 -1.60121 0
M  V30 6542 O 607.677 -0.555854 -1.69625 0
M  V30 6543 C 604.777 -1.14828 -3.18854 0
M  V30 6544 C 603.95 -2.36649 -3.67853 0
M  V30 6545 C 603.009 -2.08139 -4.83285 0
M  V30 6546 O 602.035 -2.81177 -4.94902 0
M  V30 6547 N 603.237 -1.07162 -5.70523 0
M  V30 6548 H 606.002 -2.36185 -1.84491 0
M  V30 6549 H 603.563 -1.3603 -0.877923 0
M  V30 6550 H 605.555 -0.937075 -3.93702 0
M  V30 6551 H 604.125 -0.264358 -3.1148 0
M  V30 6552 H 603.345 -2.73472 -2.83913 0
M  V30 6553 H 604.633 -3.17816 -3.97329 0
M  V30 6554 H 604.031 -0.467124 -5.63768 0
M  V30 6555 H 602.588 -0.920311 -6.4527 0
M  V30 6556 N 606.021 0.929856 -1.27246 0
M  V30 6557 C 606.951 2.04722 -1.12299 0
M  V30 6558 C 607.932 1.70082 -0.0250464 0
M  V30 6559 O 609.117 1.93176 -0.199141 0
M  V30 6560 C 606.247 3.38721 -0.767145 0
M  V30 6561 C 605.201 3.87466 -1.81808 0
M  V30 6562 C 604.527 5.18246 -1.31626 0
M  V30 6563 C 605.827 4.11095 -3.22177 0
M  V30 6564 H 607.521 2.17485 -2.05769 0
M  V30 6565 H 605.067 1.04503 -0.990715 0
M  V30 6566 H 607.02 4.16366 -0.649413 0
M  V30 6567 H 605.744 3.25967 0.203259 0
M  V30 6568 H 604.403 3.12012 -1.92468 0
M  V30 6569 H 604.051 5.01881 -0.335378 0
M  V30 6570 H 603.751 5.51829 -2.01887 0
M  V30 6571 H 605.275 5.98462 -1.21143 0
M  V30 6572 H 606.689 4.79316 -3.1453 0
M  V30 6573 H 605.086 4.55982 -3.90129 0
M  V30 6574 H 606.156 3.16468 -3.67391 0
M  V30 6575 N 607.499 1.09233 1.13605 0
M  V30 6576 C 608.449 0.6994 2.17008 0
M  V30 6577 C 609.433 -0.285238 1.58352 0
M  V30 6578 O 610.625 -0.09592 1.7674 0
M  V30 6579 C 607.754 0.11938 3.43092 0
M  V30 6580 C 606.84 1.13031 4.0876 0
M  V30 6581 N 607.231 2.31673 4.49623 0
M  V30 6582 C 605.529 0.967999 4.35369 0
M  V30 6583 C 606.23 2.95964 5.00779 0
M  V30 6584 N 605.206 2.23534 4.95513 0
M  V30 6585 H 609.008 1.60272 2.46354 0
M  V30 6586 H 606.522 0.968257 1.30378 0
M  V30 6587 H 608.519 -0.180122 4.16511 0
M  V30 6588 H 607.179 -0.778816 3.15221 0
M  V30 6589 H 608.19 2.69277 4.42391 0
M  V30 6590 H 604.867 0.124319 4.17315 0
M  V30 6591 H 606.257 3.96813 5.42208 0
M  V30 6592 N 608.977 -1.30795 0.87923 0
M  V30 6593 C 610.393 -1.48981 0.57243 0
M  V30 6594 C 610.593 -1.80719 -0.891236 0
M  V30 6595 O 609.649 -1.89136 -1.67283 0
M  V30 6596 C 610.962 -2.61721 1.48063 0
M  V30 6597 C 612.51 -2.75603 1.48365 0
M  V30 6598 C 612.985 -3.91449 2.37763 0
M  V30 6599 N 614.476 -3.98751 2.35695 0
M  V30 6600 C 615.211 -4.87684 3.01583 0
M  V30 6601 N 614.707 -5.81454 3.76674 0
M  V30 6602 N 616.5 -4.81005 2.90844 0
M  V30 6603 H 608.651 -1.08465 1.82617 0
M  V30 6604 H 610.914 -0.536813 0.781368 0
M  V30 6605 H 610.62 -2.45073 2.52254 0
M  V30 6606 H 610.494 -3.58071 1.18596 0
M  V30 6607 H 612.881 -2.9166 0.44927 0
M  V30 6608 H 612.962 -1.79891 1.81859 0
M  V30 6609 H 612.606 -3.76149 3.41283 0
M  V30 6610 H 612.536 -4.86487 2.01589 0
M  V30 6611 H 615.027 -3.31668 1.81121 0
M  V30 6612 H 615.34 -6.46063 4.24054 0
M  V30 6613 H 613.685 -5.81403 3.80782 0
M  V30 6614 H 616.876 -4.06728 2.31711 0
M  V30 6615 H 617.049 -5.50107 3.42471 0
M  V30 6616 N 610.455 -0.639598 -1.44038 0
M  V30 6617 C 611.403 0.0723409 -2.32487 0
M  V30 6618 C 612.397 0.827129 -1.47834 0
M  V30 6619 O 613.603 0.73907 -1.64127 0
M  V30 6620 H 609.978 0.0421696 -0.750817 0
M  V30 6621 H 611.949 -0.691593 -2.90275 0
M  V30 6622 C 610.698 1.03452 -3.31953 0
M  V30 6623 H 610.021 0.46315 -3.97108 0
M  V30 6624 H 611.461 1.502 -3.96505 0
M  V30 6625 C 609.92 2.12392 -2.61518 0
M  V30 6626 O 610.45 3.2059 -2.42044 0
M  V30 6627 N 608.656 1.88563 -2.21116 0
M  V30 6628 H 608.203 1.00577 -2.37154 0
M  V30 6629 H 608.161 2.61651 -1.74316 0
M  V30 6630 N 611.933 1.52934 -0.380664 0
M  V30 6631 C 613.158 2.06363 0.207157 0
M  V30 6632 C 613.583 1.25122 1.4045 0
M  V30 6633 O 612.941 0.274062 1.79217 0
M  V30 6634 C 612.989 3.56162 0.563996 0
M  V30 6635 O 612.093 3.77552 1.65917 0
M  V30 6636 H 611.434 0.663468 0.0265859 0
M  V30 6637 H 613.964 1.9719 -0.545635 0
M  V30 6638 H 613.974 3.99453 0.830752 0
M  V30 6639 H 612.649 4.14732 -0.311427 0
M  V30 6640 H 611.226 3.46154 1.3868 0
M  V30 6641 N 613.412 0.11024 1.57214 0
M  V30 6642 C 614.661 -0.549638 1.94067 0
M  V30 6643 C 614.974 -1.68388 0.995234 0
M  V30 6644 O 616.18 -2.40593 1.25807 0
M  V30 6645 C 614.636 -1.02912 3.44873 0
M  V30 6646 C 614.244 0.0761861 4.47935 0
M  V30 6647 C 615.988 -1.66087 3.9066 0
M  V30 6648 C 613.895 -0.419502 5.8991 0
M  V30 6649 H 612.825 -0.209092 0.724428 0
M  V30 6650 H 615.476 0.188683 1.82527 0
M  V30 6651 H 613.858 -1.82159 3.51616 0
M  V30 6652 H 615.032 0.852185 4.52851 0
M  V30 6653 H 613.347 0.614052 4.11847 0
M  V30 6654 H 615.944 -2.04272 4.94143 0
M  V30 6655 H 616.287 -2.53591 3.30148 0
M  V30 6656 H 616.82 -0.933959 3.86681 0
M  V30 6657 H 613.559 0.419277 6.54158 0
M  V30 6658 H 613.079 -1.16217 5.88433 0
M  V30 6659 H 614.758 -0.883577 6.40938 0
M  V30 6660 N 614.89 -1.56749 -0.16351 0
M  V30 6661 C 615.822 -1.93587 -1.22705 0
M  V30 6662 C 616.835 -0.829824 -1.40063 0
M  V30 6663 O 618.024 -1.10826 -1.39928 0
M  V30 6664 C 615.124 -2.1803 -2.59454 0
M  V30 6665 C 614.297 -3.4928 -2.63292 0
M  V30 6666 C 613.356 -3.62457 -3.8146 0
M  V30 6667 O 612.382 -4.35004 -3.67096 0
M  V30 6668 N 613.584 -2.97888 -4.9824 0
M  V30 6669 H 616.349 -2.8542 -0.914081 0
M  V30 6670 H 613.91 -1.58 -0.353214 0
M  V30 6671 H 615.902 -2.24102 -3.36987 0
M  V30 6672 H 614.472 -1.32543 -2.8311 0
M  V30 6673 H 613.692 -3.54795 -1.71796 0
M  V30 6674 H 614.98 -4.35632 -2.62873 0
M  V30 6675 H 614.378 -2.38833 -5.12811 0
M  V30 6676 H 612.935 -3.09545 -5.73607 0
M  V30 6677 N 616.368 0.432326 -1.51554 0
M  V30 6678 C 617.615 1.18134 -1.64471 0
M  V30 6679 C 617.943 1.91076 -0.363349 0
M  V30 6680 O 617.198 1.84492 0.65279 0
M  V30 6681 C 617.497 2.21907 -2.80164 0
M  V30 6682 C 617.163 1.65941 -4.19255 0
M  V30 6683 C 615.825 1.50401 -4.57092 0
M  V30 6684 C 618.177 1.24843 -5.06027 0
M  V30 6685 C 615.505 0.922443 -5.79403 0
M  V30 6686 C 617.857 0.68113 -6.28922 0
M  V30 6687 C 616.521 0.512673 -6.65528 0
M  V30 6688 H 615.791 0.432283 -0.601841 0
M  V30 6689 H 618.438 0.471701 -1.856 0
M  V30 6690 H 616.743 2.98928 -2.53277 0
M  V30 6691 H 618.44 2.79691 -2.87357 0
M  V30 6692 H 615.03 1.79014 -3.89425 0
M  V30 6693 H 619.214 1.35667 -4.77397 0
M  V30 6694 H 614.47 0.779733 -6.06408 0
M  V30 6695 H 618.644 0.35418 -6.95499 0
M  V30 6696 H 616.271 0.0599084 -7.60176 0
M  V30 6697 N 617.846 1.41785 0.688094 0
M  V30 6698 C 619.074 1.44915 1.47673 0
M  V30 6699 C 619.489 0.0565786 1.88715 0
M  V30 6700 O 618.846 -0.92579 1.57275 0
M  V30 6701 C 618.897 2.36452 2.73446 0
M  V30 6702 O 618.618 3.7029 2.34131 0
M  V30 6703 C 620.119 2.48463 3.67125 0
M  V30 6704 H 617.339 0.493324 0.454832 0
M  V30 6705 H 619.883 1.86153 0.846594 0
M  V30 6706 H 618.038 1.98502 3.3268 0
M  V30 6707 H 618.452 4.19183 3.15255 0
M  V30 6708 H 619.926 3.16662 4.52138 0
M  V30 6709 H 620.403 1.51826 4.12123 0
M  V30 6710 H 621.009 2.8708 3.13792 0
M  V30 6711 N 619.324 -0.923095 1.27737 0
M  V30 6712 C 620.601 -1.64989 1.05062 0
M  V30 6713 C 620.981 -2.07018 -0.413124 0
M  V30 6714 O 620.329 -1.80797 -1.39731 0
M  V30 6715 C 620.539 -2.84847 2.01652 0
M  V30 6716 C 621.887 -3.56083 2.31279 0
M  V30 6717 O 622.911 -2.94981 1.99662 0
M  V30 6718 O 621.77 -4.66182 2.85196 0
M  V30 6719 H 618.864 -0.723357 0.400853 0
M  V30 6720 H 621.41 -0.973224 1.3902 0
M  V30 6721 H 620.182 -2.50814 3.00347 0
M  V30 6722 H 619.805 -3.60231 1.68284 0
M  V30 6723 N 620.802 -1.09834 -1.13024 0
M  V30 6724 C 622.05 -0.835297 -1.8403 0
M  V30 6725 C 622.371 0.640944 -1.84165 0
M  V30 6726 O 621.641 1.46517 -1.30037 0
M  V30 6727 H 620.221 -0.306018 -0.681441 0
M  V30 6728 H 622.883 -1.38734 -1.36891 0
M  V30 6729 H 621.979 -1.19258 -2.88416 0
M  V30 6730 N 622.28 1.30327 -0.886154 0
M  V30 6731 C 623.51 1.99964 -0.519421 0
M  V30 6732 C 623.918 1.66593 0.89686 0
M  V30 6733 O 623.261 0.899886 1.60149 0
M  V30 6734 C 623.323 3.54187 -0.615795 0
M  V30 6735 C 622.987 4.11078 -1.9966 0
M  V30 6736 C 623.984 4.26985 -2.96614 0
M  V30 6737 C 621.669 4.46429 -2.30231 0
M  V30 6738 C 623.663 4.77456 -4.22273 0
M  V30 6739 C 621.35 4.966 -3.56135 0
M  V30 6740 C 622.348 5.12066 -4.5197 0
M  V30 6741 O 622.036 5.61154 -5.7564 0
M  V30 6742 H 621.768 0.645979 -0.199217 0
M  V30 6743 H 624.322 1.67154 -1.19368 0
M  V30 6744 H 622.552 3.86528 0.115448 0
M  V30 6745 H 624.241 4.05065 -0.26017 0
M  V30 6746 H 625.007 3.99975 -2.74308 0
M  V30 6747 H 620.886 4.33658 -1.56404 0
M  V30 6748 H 624.43 4.89444 -4.97082 0
M  V30 6749 H 620.327 5.23045 -3.78277 0
M  V30 6750 H 621.095 5.79494 -5.78039 0
M  V30 6751 N 623.758 0.647228 1.43697 0
M  V30 6752 C 624.668 -0.0487997 2.34549 0
M  V30 6753 C 625.684 -0.818586 1.53542 0
M  V30 6754 O 626.86 -0.767195 1.86215 0
M  V30 6755 C 623.925 -1.00734 3.31743 0
M  V30 6756 C 622.986 -0.23515 4.28655 0
M  V30 6757 C 622.219 -1.14803 5.21206 0
M  V30 6758 O 622.442 -2.38717 5.18045 0
M  V30 6759 O 621.376 -0.623667 5.9866 0
M  V30 6760 H 625.202 0.698863 2.9555 0
M  V30 6761 H 622.787 0.407412 1.43738 0
M  V30 6762 H 624.669 -1.55837 3.91526 0
M  V30 6763 H 623.344 -1.73534 2.73254 0
M  V30 6764 H 622.251 0.359319 3.7237 0
M  V30 6765 H 623.584 0.453152 4.9011 0
M  V30 6766 N 625.236 -1.5273 0.388769 0
M  V30 6767 C 626.482 -2.01871 -0.193877 0
M  V30 6768 C 626.815 -1.27475 -1.46505 0
M  V30 6769 O 626.09 -0.375063 -1.90849 0
M  V30 6770 C 626.373 -3.5712 -0.462336 0
M  V30 6771 C 626.226 -4.42186 0.824091 0
M  V30 6772 C 627.545 -4.21881 -1.25319 0
M  V30 6773 H 624.664 -0.733764 -0.0689899 0
M  V30 6774 H 627.306 -1.82796 0.518231 0
M  V30 6775 H 625.456 -3.73504 -1.06896 0
M  V30 6776 H 627.128 -4.37554 1.46096 0
M  V30 6777 H 625.371 -4.09219 1.43952 0
M  V30 6778 H 626.042 -5.48828 0.590905 0
M  V30 6779 H 628.518 -4.0947 -0.73981 0
M  V30 6780 H 627.394 -5.30487 -1.40977 0
M  V30 6781 H 627.655 -3.79478 -2.26824 0
M  V30 6782 N 626.714 -0.118576 -1.57153 0
M  V30 6783 C 627.661 0.831789 -2.1529 0
M  V30 6784 C 628.631 1.26385 -1.07778 0
M  V30 6785 O 629.816 1.34144 -1.35684 0
M  V30 6786 C 626.956 2.07664 -2.75626 0
M  V30 6787 C 626.069 1.69298 -3.97444 0
M  V30 6788 C 625.204 2.88747 -4.45868 0
M  V30 6789 C 624.243 2.46619 -5.60219 0
M  V30 6790 N 623.38 3.5898 -6.03389 0
M  V30 6791 H 628.22 0.329183 -2.96176 0
M  V30 6792 H 625.757 0.150792 -1.46325 0
M  V30 6793 H 627.715 2.80601 -3.08738 0
M  V30 6794 H 626.345 2.55384 -1.97431 0
M  V30 6795 H 625.397 0.862374 -3.70496 0
M  V30 6796 H 626.709 1.34338 -4.80369 0
M  V30 6797 H 625.863 3.69909 -4.80887 0
M  V30 6798 H 624.602 3.26933 -3.61892 0
M  V30 6799 H 623.607 1.63889 -5.24805 0
M  V30 6800 H 624.832 2.0955 -6.45961 0
M  V30 6801 H 622.778 3.9684 -5.22354 0
M  V30 6802 H 622.695 3.27942 -6.81168 0
M  V30 6803 H 623.963 4.40583 -6.43045 0
M  V30 6804 N 628.193 1.56834 0.155195 0
M  V30 6805 C 629.103 2.009 1.21146 0
M  V30 6806 C 630.119 0.923029 1.475 0
M  V30 6807 O 631.295 1.23189 1.59331 0
M  V30 6808 C 628.36 2.37378 2.52691 0
M  V30 6809 C 627.421 3.59883 2.34057 0
M  V30 6810 C 626.654 3.94612 3.59329 0
M  V30 6811 O 626.877 3.30104 4.65175 0
M  V30 6812 O 625.811 4.87895 3.52479 0
M  V30 6813 H 629.637 2.9105 0.867371 0
M  V30 6814 H 627.222 1.44916 0.363298 0
M  V30 6815 H 629.104 2.61737 3.3026 0
M  V30 6816 H 627.779 1.50385 2.86646 0
M  V30 6817 H 626.686 3.40722 1.54465 0
M  V30 6818 H 628.019 4.47468 2.0502 0
M  V30 6819 N 629.671 -0.424282 1.51781 0
M  V30 6820 C 630.948 -1.18464 1.55646 0
M  V30 6821 C 631.328 -2.08529 0.328438 0
M  V30 6822 O 630.676 -2.17969 -0.685693 0
M  V30 6823 C 630.886 -1.97514 2.87731 0
M  V30 6824 C 632.234 -2.54106 3.40169 0
M  V30 6825 O 633.258 -2.07711 2.89369 0
M  V30 6826 O 632.117 -3.38759 4.28841 0
M  V30 6827 H 629.211 -0.540055 0.626314 0
M  V30 6828 H 631.757 -0.432291 1.64102 0
M  V30 6829 H 630.529 -1.31444 3.68562 0
M  V30 6830 H 630.152 -2.79787 2.82498 0
M  V30 6831 N 631.149 -1.42148 -0.680565 0
M  V30 6832 C 632.398 -1.41604 -1.43636 0
M  V30 6833 C 632.711 -0.0337887 -1.95571 0
M  V30 6834 O 633.917 0.0942588 -2.71336 0
M  V30 6835 C 632.373 -2.49056 -2.59806 0
M  V30 6836 C 631.981 -3.9326 -2.14594 0
M  V30 6837 C 633.725 -2.5767 -3.37352 0
M  V30 6838 C 631.632 -4.92232 -3.27813 0
M  V30 6839 H 630.562 -0.526656 -0.539583 0
M  V30 6840 H 633.213 -1.68033 -0.737369 0
M  V30 6841 H 631.595 -2.15782 -3.32045 0
M  V30 6842 H 632.769 -4.35858 -1.49546 0
M  V30 6843 H 631.084 -3.88443 -1.50002 0
M  V30 6844 H 633.681 -3.28794 -4.21662 0
M  V30 6845 H 634.024 -1.61837 -3.83555 0
M  V30 6846 H 634.557 -2.90109 -2.72179 0
M  V30 6847 H 631.296 -5.89522 -2.86607 0
M  V30 6848 H 630.816 -4.5427 -3.91661 0
M  V30 6849 H 632.495 -5.13684 -3.93367 0
M  V30 6850 N 632.627 0.916307 -1.28225 0
M  V30 6851 C 633.875 1.6619 -1.15002 0
M  V30 6852 C 634.196 1.92642 0.302329 0
M  V30 6853 O 633.466 1.54076 1.20985 0
M  V30 6854 H 632.046 0.615964 -0.422608 0
M  V30 6855 H 634.708 1.09963 -1.60917 0
M  V30 6856 H 633.804 2.62533 -1.68769 0
M  V30 6857 N 634.105 1.10431 1.1244 0
M  V30 6858 C 635.351 0.847972 1.84221 0
M  V30 6859 C 635.684 -0.624903 1.83871 0
M  V30 6860 O 634.959 -1.46074 1.28423 0
M  V30 6861 C 635.242 1.39695 3.319 0
M  V30 6862 C 635.095 2.93668 3.40704 0
M  V30 6863 C 636.414 1.03924 4.27654 0
M  V30 6864 H 633.533 0.309502 0.668863 0
M  V30 6865 H 636.175 1.36745 1.31912 0
M  V30 6866 H 634.325 0.955095 3.76577 0
M  V30 6867 H 635.997 3.46379 3.04662 0
M  V30 6868 H 634.24 3.30272 2.81252 0
M  V30 6869 H 634.911 3.27162 4.446 0
M  V30 6870 H 637.387 1.42049 3.91102 0
M  V30 6871 H 636.263 1.45027 5.29394 0
M  V30 6872 H 636.524 -0.051336 4.4207 0
M  V30 6873 N 635.583 -1.29855 0.893053 0
M  V30 6874 C 636.831 -1.9544 0.514566 0
M  V30 6875 C 637.152 -1.70795 -0.940959 0
M  V30 6876 O 636.422 -1.03601 -1.66264 0
M  V30 6877 H 635.002 -0.723137 0.187302 0
M  V30 6878 H 637.664 -1.58234 1.13789 0
M  V30 6879 H 636.76 -3.04341 0.691581 0
M  V30 6880 N 637.061 -0.65484 -1.43351 0
M  V30 6881 C 638.286 -0.175046 -2.0666 0
M  V30 6882 C 638.711 1.15104 -1.4877 0
M  V30 6883 O 638.069 1.71144 -0.598279 0
M  V30 6884 C 638.117 -0.0991544 -3.60464 0
M  V30 6885 O 637.221 0.938169 -4.01587 0
M  V30 6886 H 636.562 -0.0956148 -0.65708 0
M  V30 6887 H 639.092 -0.898222 -1.83829 0
M  V30 6888 H 639.102 0.083632 -4.07914 0
M  V30 6889 H 637.777 -1.06719 -4.01975 0
M  V30 6890 H 636.354 0.72804 -3.65724 0
M  V30 6891 N 638.539 1.52521 -0.396863 0
M  V30 6892 C 639.769 2.05792 0.182485 0
M  V30 6893 C 640.177 1.26784 1.40436 0
M  V30 6894 O 639.52 0.309617 1.81072 0
M  V30 6895 C 639.582 3.54291 0.609781 0
M  V30 6896 C 639.246 4.5426 -0.499674 0
M  V30 6897 C 640.243 5.01812 -1.35944 0
M  V30 6898 C 637.928 4.97827 -0.668864 0
M  V30 6899 C 639.922 5.91562 -2.37346 0
M  V30 6900 C 637.609 5.87376 -1.68621 0
M  V30 6901 C 638.607 6.34137 -2.53692 0
M  V30 6902 O 638.295 7.21915 -3.53686 0
M  V30 6903 H 638.027 0.675362 0.0293583 0
M  V30 6904 H 640.581 1.97539 -0.56281 0
M  V30 6905 H 638.811 3.60188 1.40717 0
M  V30 6906 H 640.5 3.90267 1.11565 0
M  V30 6907 H 641.266 4.68879 -1.24008 0
M  V30 6908 H 637.145 4.60997 -0.0163971 0
M  V30 6909 H 640.689 6.27983 -3.03782 0
M  V30 6910 H 636.586 6.19723 -1.80593 0
M  V30 6911 H 637.354 7.39996 -3.49784 0
M  V30 6912 N 640.017 0.126909 1.57088 0
M  V30 6913 C 641.242 -0.53997 2.00248 0
M  V30 6914 C 641.667 -1.58927 1.00618 0
M  V30 6915 O 641.025 -1.81288 -0.0210131 0
M  V30 6916 C 641.073 -1.13565 3.4225 0
M  V30 6917 O 640.177 -2.25103 3.45547 0
M  V30 6918 H 639.518 -0.13412 0.650314 0
M  V30 6919 H 642.048 0.217718 2.03438 0
M  V30 6920 H 642.058 -1.46925 3.80627 0
M  V30 6921 H 640.733 -0.367122 4.14277 0
M  V30 6922 H 639.31 -1.93123 3.18995 0
M  V30 6923 N 641.495 -1.56914 -0.146875 0
M  V30 6924 C 642.741 -1.83628 -0.860741 0
M  V30 6925 C 643.074 -0.708528 -1.80813 0
M  V30 6926 O 642.349 0.287838 -1.92358 0
M  V30 6927 C 642.632 -3.20836 -1.63511 0
M  V30 6928 C 642.485 -4.44174 -0.709199 0
M  V30 6929 C 643.804 -3.55268 -2.59756 0
M  V30 6930 H 640.923 -0.667949 -0.311468 0
M  V30 6931 H 643.565 -1.89582 -0.125936 0
M  V30 6932 H 641.715 -3.15891 -2.26153 0
M  V30 6933 H 643.387 -4.61205 -0.0937781 0
M  V30 6934 H 641.63 -4.33796 -0.0187856 0
M  V30 6935 H 642.301 -5.36785 -1.28707 0
M  V30 6936 H 644.777 -3.60824 -2.07232 0
M  V30 6937 H 643.653 -4.52303 -3.10987 0
M  V30 6938 H 643.914 -2.81231 -3.41118 0
M  V30 6939 N 642.974 0.416227 -1.52004 0
M  V30 6940 C 644.214 1.17307 -1.67387 0
M  V30 6941 C 644.578 1.87959 -0.39183 0
M  V30 6942 O 645.779 2.65472 -0.421671 0
M  V30 6943 C 644.05 2.14661 -2.85754 0
M  V30 6944 S 645.609 2.98549 -3.21581 0
M  V30 6945 H 642.427 0.397505 -0.5895 0
M  V30 6946 H 645.029 0.461431 -1.89976 0
M  V30 6947 H 643.733 1.61431 -3.77317 0
M  V30 6948 H 643.264 2.90375 -2.65417 0
M  V30 6949 H 645.279 4.16536 -2.69652 0
M  V30 6950 N 644.452 1.42507 0.673017 0
M  V30 6951 C 645.399 1.46124 1.78651 0
M  V30 6952 C 646.369 0.313007 1.63124 0
M  V30 6953 O 647.554 0.517337 1.83653 0
M  V30 6954 C 644.694 1.3711 3.16694 0
M  V30 6955 C 643.807 2.61983 3.43495 0
M  V30 6956 C 642.942 2.45098 4.71275 0
M  V30 6957 C 641.981 3.65336 4.91117 0
M  V30 6958 N 641.118 3.47383 6.10139 0
M  V30 6959 H 645.958 2.4128 1.74895 0
M  V30 6960 H 643.495 1.19788 0.853766 0
M  V30 6961 H 645.453 1.29881 3.96468 0
M  V30 6962 H 644.083 0.45549 3.1957 0
M  V30 6963 H 643.135 2.79571 2.57961 0
M  V30 6964 H 644.447 3.51355 3.5405 0
M  V30 6965 H 643.601 2.35466 5.59143 0
M  V30 6966 H 642.34 1.53219 4.63007 0
M  V30 6967 H 641.345 3.754 4.0169 0
M  V30 6968 H 642.57 4.58199 5.01229 0
M  V30 6969 H 640.516 2.58222 6.0304 0
M  V30 6970 H 640.433 4.30344 6.21563 0
M  V30 6971 H 641.701 3.41565 7.00681 0
M  V30 6972 N 645.93 -0.909495 1.28709 0
M  V30 6973 C 647.346 -1.18862 1.06508 0
M  V30 6974 C 647.546 -2.00604 -0.189864 0
M  V30 6975 O 646.602 -2.36281 -0.890355 0
M  V30 6976 C 647.915 -1.91908 2.31499 0
M  V30 6977 C 649.463 -2.04773 2.36721 0
M  V30 6978 C 649.938 -2.81228 3.6149 0
M  V30 6979 N 651.429 -2.88787 3.62155 0
M  V30 6980 C 652.164 -3.48455 4.55375 0
M  V30 6981 N 651.66 -4.09369 5.58918 0
M  V30 6982 N 653.453 -3.46035 4.42963 0
M  V30 6983 H 645.604 -0.363867 2.0926 0
M  V30 6984 H 647.867 -0.223649 0.921241 0
M  V30 6985 H 647.573 -1.39275 3.22948 0
M  V30 6986 H 647.447 -2.92436 2.38245 0
M  V30 6987 H 649.834 -2.56585 1.45767 0
M  V30 6988 H 649.915 -1.03408 2.33967 0
M  V30 6989 H 649.559 -2.30094 4.5279 0
M  V30 6990 H 649.489 -3.82917 3.61499 0
M  V30 6991 H 651.98 -2.45514 2.87283 0
M  V30 6992 H 652.293 -4.52891 6.26187 0
M  V30 6993 H 650.638 -4.0786 5.62739 0
M  V30 6994 H 653.829 -2.9766 3.6127 0
M  V30 6995 H 654.002 -3.92244 5.15799 0
M  V30 6996 N 647.408 -1.11026 -1.11852 0
M  V30 6997 C 648.648 -0.866348 -1.85132 0
M  V30 6998 C 649.012 0.597236 -1.82475 0
M  V30 6999 O 650.213 0.957744 -2.51159 0
M  V30 7000 C 648.484 -1.40721 -3.28531 0
M  V30 7001 S 650.043 -1.29964 -4.19112 0
M  V30 7002 H 646.861 -0.312899 -0.638447 0
M  V30 7003 H 649.463 -1.41691 -1.34699 0
M  V30 7004 H 648.167 -2.46631 -3.28027 0
M  V30 7005 H 647.698 -0.85349 -3.8403 0
M  V30 7006 H 649.713 -0.261333 -4.95511 0
M  V30 7007 N 648.886 1.2938 -0.899927 0
M  V30 7008 C 650.135 1.9483 -0.521937 0
M  V30 7009 C 650.448 1.71725 0.936473 0
M  V30 7010 O 651.654 2.31282 1.42199 0
M  V30 7011 C 650.11 3.48911 -0.88255 0
M  V30 7012 C 649.718 3.80815 -2.35974 0
M  V30 7013 C 651.462 4.20595 -0.57448 0
M  V30 7014 C 649.369 5.28142 -2.66121 0
M  V30 7015 H 648.299 0.729285 -0.191468 0
M  V30 7016 H 650.95 1.47103 -1.09695 0
M  V30 7017 H 649.332 3.95293 -0.236459 0
M  V30 7018 H 650.506 3.45291 -3.05141 0
M  V30 7019 H 648.821 3.22271 -2.63686 0
M  V30 7020 H 651.418 5.29031 -0.776556 0
M  V30 7021 H 651.761 4.13442 0.487005 0
M  V30 7022 H 652.294 3.79945 -1.17842 0
M  V30 7023 H 649.033 5.4036 -3.71068 0
M  V30 7024 H 648.553 5.64913 -2.01578 0
M  V30 7025 H 650.232 5.95738 -2.52399 0
M  V30 7026 N 650.364 0.662433 1.43002 0
M  V30 7027 C 651.314 -0.0460442 2.27954 0
M  V30 7028 C 652.298 -0.785753 1.40409 0
M  V30 7029 O 653.49 -0.666701 1.63964 0
M  V30 7030 C 650.619 -1.00532 3.2825 0
M  V30 7031 C 649.705 -0.263604 4.2328 0
M  V30 7032 N 650.096 0.724855 5.00579 0
M  V30 7033 C 648.394 -0.503778 4.43146 0
M  V30 7034 C 649.095 1.16594 5.69895 0
M  V30 7035 N 648.071 0.498345 5.41311 0
M  V30 7036 H 651.873 0.712314 2.85137 0
M  V30 7037 H 649.387 0.490469 1.54817 0
M  V30 7038 H 651.384 -1.52775 3.87899 0
M  V30 7039 H 650.044 -1.76364 2.72628 0
M  V30 7040 H 651.055 1.10393 5.05998 0
M  V30 7041 H 647.732 -1.24255 3.98581 0
M  V30 7042 H 649.122 1.98434 6.4193 0
M  V30 7043 N 651.842 -1.52309 0.404946 0
M  V30 7044 C 652.789 -2.26898 -0.422597 0
M  V30 7045 C 653.759 -1.2914 -1.04461 0
M  V30 7046 O 654.944 -1.57996 -1.06967 0
M  V30 7047 C 652.084 -3.09053 -1.53559 0
M  V30 7048 C 651.197 -4.21762 -0.934908 0
M  V30 7049 C 650.332 -4.91283 -2.02025 0
M  V30 7050 C 649.371 -5.95962 -1.39628 0
M  V30 7051 N 648.508 -6.59017 -2.42159 0
M  V30 7052 H 653.348 -2.97188 0.219903 0
M  V30 7053 H 650.885 -1.46607 0.120282 0
M  V30 7054 H 652.843 -3.54987 -2.19181 0
M  V30 7055 H 651.473 -2.40942 -2.14818 0
M  V30 7056 H 650.525 -3.80029 -0.167854 0
M  V30 7057 H 651.837 -4.96864 -0.439073 0
M  V30 7058 H 650.991 -5.40601 -2.75383 0
M  V30 7059 H 649.73 -4.15741 -2.54973 0
M  V30 7060 H 648.735 -5.45968 -0.648023 0
M  V30 7061 H 649.96 -6.73445 -0.874553 0
M  V30 7062 H 647.906 -5.86306 -2.94247 0
M  V30 7063 H 647.823 -7.2978 -1.97376 0
M  V30 7064 H 649.091 -7.12974 -3.15099 0
M  V30 7065 N 653.32 -0.135238 -1.57019 0
M  V30 7066 C 654.283 0.794707 -2.14981 0
M  V30 7067 C 655.283 1.18342 -1.08866 0
M  V30 7068 O 656.473 1.10627 -1.34563 0
M  V30 7069 C 653.605 2.07685 -2.70333 0
M  V30 7070 H 654.798 0.290696 -2.98488 0
M  V30 7071 H 652.351 0.114128 -1.55883 0
M  V30 7072 H 653.086 2.6248 -1.9046 0
M  V30 7073 H 652.871 1.80745 -3.47957 0
M  V30 7074 H 654.361 2.74127 -3.1503 0
M  V30 7075 N 654.798 1.5699 0.138552 0
M  V30 7076 C 656.026 1.87976 0.864437 0
M  V30 7077 C 656.441 0.724372 1.74351 0
M  V30 7078 O 655.798 -0.305575 1.79924 0
M  V30 7079 C 655.849 3.18276 1.71414 0
M  V30 7080 O 655.57 4.29365 0.870487 0
M  V30 7081 C 657.071 3.62834 2.54688 0
M  V30 7082 H 654.291 0.622878 0.249528 0
M  V30 7083 H 656.835 2.04094 0.128805 0
M  V30 7084 H 654.99 3.03886 2.40274 0
M  V30 7085 H 655.404 5.03924 1.45466 0
M  V30 7086 H 656.878 4.5682 3.0987 0
M  V30 7087 H 657.355 2.88533 3.31127 0
M  V30 7088 H 657.961 3.79946 1.91105 0
M  V30 7089 N 656.276 -0.40816 1.52223 0
M  V30 7090 C 657.224 -1.51788 1.76248 0
M  V30 7091 C 658.218 -1.57264 0.629638 0
M  V30 7092 O 659.424 -1.60659 0.811704 0
M  V30 7093 H 655.799 -0.504823 0.557367 0
M  V30 7094 H 657.77 -1.2871 2.69214 0
M  V30 7095 C 656.519 -2.89145 1.93107 0
M  V30 7096 H 655.842 -2.85674 2.79697 0
M  V30 7097 H 657.282 -3.66082 2.13916 0
M  V30 7098 C 655.741 -3.29581 0.698431 0
M  V30 7099 O 656.271 -4.01479 -0.133238 0
M  V30 7100 N 654.477 -2.85651 0.53405 0
M  V30 7101 H 654.024 -2.2731 1.21194 0
M  V30 7102 H 653.982 -3.13065 -0.289387 0
M  V30 7103 N 657.755 -1.42862 -0.66545 0
M  V30 7104 C 658.688 -1.41509 -1.79026 0
M  V30 7105 C 659.666 -0.278106 -1.60204 0
M  V30 7106 O 660.85 -0.469792 -1.82552 0
M  V30 7107 C 657.977 -1.21494 -3.1616 0
M  V30 7108 C 657.023 -2.38308 -3.53711 0
M  V30 7109 S 657.856 -4.00852 -3.55075 0
M  V30 7110 C 659.012 -3.83197 -4.94885 0
M  V30 7111 H 659.245 -2.36691 -1.79902 0
M  V30 7112 H 656.778 -1.29746 -0.836977 0
M  V30 7113 H 658.736 -1.10633 -3.95311 0
M  V30 7114 H 657.397 -0.27881 -3.1286 0
M  V30 7115 H 656.59 -2.20076 -4.53412 0
M  V30 7116 H 656.192 -2.45732 -2.81943 0
M  V30 7117 H 658.484 -3.44765 -5.83218 0
M  V30 7118 H 659.427 -4.82607 -5.18166 0
M  V30 7119 H 659.835 -3.15884 -4.67843 0
M  V30 7120 N 659.233 0.902656 -1.29189 0
M  V30 7121 C 660.143 2.03946 -1.15944 0
M  V30 7122 C 661.159 1.738 -0.0833803 0
M  V30 7123 O 662.335 1.9923 -0.29487 0
M  V30 7124 C 659.4 3.36519 -0.834006 0
M  V30 7125 C 658.461 3.80203 -1.9936 0
M  V30 7126 C 657.694 5.06449 -1.68359 0
M  V30 7127 O 657.917 5.67202 -0.603141 0
M  V30 7128 O 656.851 5.46114 -2.53067 0
M  V30 7129 H 660.677 2.18043 -2.11403 0
M  V30 7130 H 658.262 1.02584 -1.08613 0
M  V30 7131 H 660.144 4.16089 -0.666949 0
M  V30 7132 H 658.819 3.23573 0.0908245 0
M  V30 7133 H 657.726 3.01413 -2.21588 0
M  V30 7134 H 659.059 3.97729 -2.89952 0
M  V30 7135 N 660.711 1.11618 1.11262 0
M  V30 7136 C 661.958 0.86618 1.8304 0
M  V30 7137 C 662.286 -0.608149 1.84748 0
M  V30 7138 O 661.541 -1.46508 1.29745 0
M  V30 7139 C 661.84 1.37529 3.2988 0
M  V30 7140 C 661.506 2.86317 3.4833 0
M  V30 7141 C 660.168 3.26945 3.53073 0
M  V30 7142 C 662.52 3.82136 3.54431 0
M  V30 7143 C 659.848 4.62117 3.61475 0
M  V30 7144 C 662.2 5.17128 3.64365 0
M  V30 7145 C 660.864 5.57312 3.67369 0
M  V30 7146 H 660.134 0.316958 0.66979 0
M  V30 7147 H 662.781 1.3949 1.31205 0
M  V30 7148 H 661.086 0.766842 3.84222 0
M  V30 7149 H 662.783 1.15817 3.83911 0
M  V30 7150 H 659.373 2.53889 3.45309 0
M  V30 7151 H 663.557 3.51847 3.50025 0
M  V30 7152 H 658.813 4.92655 3.62079 0
M  V30 7153 H 662.987 5.91208 3.68029 0
M  V30 7154 H 660.614 6.62045 3.73632 0
M  V30 7155 N 662.189 -1.289 0.906776 0
M  V30 7156 C 663.152 -2.25777 0.394656 0
M  V30 7157 C 664.152 -1.53621 -0.475119 0
M  V30 7158 O 665.342 -1.71949 -0.279165 0
M  V30 7159 C 662.474 -3.38113 -0.43499 0
M  V30 7160 H 663.667 -2.72592 1.25033 0
M  V30 7161 H 661.22 -1.40463 0.685547 0
M  V30 7162 H 661.955 -2.96648 -1.31036 0
M  V30 7163 H 661.74 -3.91647 0.188334 0
M  V30 7164 H 663.23 -4.10168 -0.784365 0
M  V30 7165 N 663.667 -0.670007 -1.42649 0
M  V30 7166 C 664.913 -0.190568 -2.01903 0
M  V30 7167 C 665.246 1.19817 -1.52832 0
M  V30 7168 O 664.521 1.80342 -0.728485 0
M  V30 7169 C 664.804 -0.21991 -3.59428 0
M  V30 7170 C 664.657 -1.64376 -4.18689 0
M  V30 7171 C 665.976 0.434519 -4.3795 0
M  V30 7172 H 663.095 -0.0707219 -0.733599 0
M  V30 7173 H 665.737 -0.853883 -1.69732 0
M  V30 7174 H 663.887 0.344894 -3.86966 0
M  V30 7175 H 665.559 -2.26044 -4.02122 0
M  V30 7176 H 663.802 -2.18591 -3.747 0
M  V30 7177 H 664.473 -1.61601 -5.27815 0
M  V30 7178 H 666.949 -0.0462156 -4.16074 0
M  V30 7179 H 665.825 0.38333 -5.4756 0
M  V30 7180 H 666.086 1.51135 -4.15464 0
M  V30 7181 N 665.145 1.52092 -0.413018 0
M  V30 7182 C 666.092 2.27119 0.410558 0
M  V30 7183 C 667.062 1.29692 1.03774 0
M  V30 7184 O 668.247 1.58561 1.06128 0
M  V30 7185 C 665.387 3.09863 1.51918 0
M  V30 7186 C 664.5 4.22252 0.912528 0
M  V30 7187 C 663.635 4.92348 1.99417 0
M  V30 7188 C 662.674 5.96694 1.36466 0
M  V30 7189 N 661.811 6.60292 2.38661 0
M  V30 7190 H 666.651 2.97067 -0.235661 0
M  V30 7191 H 664.188 1.46542 -0.128055 0
M  V30 7192 H 666.146 3.56144 2.17295 0
M  V30 7193 H 664.776 2.42078 2.13537 0
M  V30 7194 H 663.828 3.80113 0.147697 0
M  V30 7195 H 665.14 4.9709 0.412717 0
M  V30 7196 H 664.294 5.42054 2.72512 0
M  V30 7197 H 663.033 4.17087 2.52764 0
M  V30 7198 H 662.038 5.46304 0.61906 0
M  V30 7199 H 663.263 6.73899 0.838827 0
M  V30 7200 H 661.209 5.87858 2.91134 0
M  V30 7201 H 661.126 7.30816 1.93503 0
M  V30 7202 H 662.394 7.14635 3.11314 0
M  V30 7203 N 666.623 0.143563 1.56945 0
M  V30 7204 C 667.872 -0.50835 1.95189 0
M  V30 7205 C 668.185 -1.66239 1.03073 0
M  V30 7206 O 669.391 -2.3787 1.30882 0
M  V30 7207 C 667.847 -0.955735 3.46978 0
M  V30 7208 C 667.455 0.171183 4.47673 0
M  V30 7209 C 669.199 -1.57763 3.94095 0
M  V30 7210 C 667.106 -0.294279 5.90667 0
M  V30 7211 H 666.036 -0.193679 0.728701 0
M  V30 7212 H 668.687 0.227357 1.82086 0
M  V30 7213 H 667.069 -1.7466 3.55401 0
M  V30 7214 H 668.243 0.948049 4.50942 0
M  V30 7215 H 666.558 0.701273 4.10452 0
M  V30 7216 H 669.155 -1.93745 4.98364 0
M  V30 7217 H 669.498 -2.46531 3.35452 0
M  V30 7218 H 670.031 -0.851728 3.88575 0
M  V30 7219 H 666.77 0.557939 6.53121 0
M  V30 7220 H 666.29 -1.0371 5.90766 0
M  V30 7221 H 667.969 -0.747426 6.42668 0
M  V30 7222 N 668.101 -1.57061 -0.130224 0
M  V30 7223 C 669.35 -1.83446 -0.838488 0
M  V30 7224 C 669.663 -0.727468 -1.81569 0
M  V30 7225 O 670.869 -0.877394 -2.56932 0
M  V30 7226 C 669.325 -3.25201 -1.54182 0
M  V30 7227 C 668.933 -4.4388 -0.606178 0
M  V30 7228 C 670.677 -3.60844 -2.23588 0
M  V30 7229 C 668.584 -5.76661 -1.31209 0
M  V30 7230 H 667.514 -0.684185 -0.316871 0
M  V30 7231 H 670.165 -1.83273 -0.0912059 0
M  V30 7232 H 668.547 -3.1981 -2.33533 0
M  V30 7233 H 669.721 -4.60545 0.153308 0
M  V30 7234 H 668.036 -4.16395 -0.0196705 0
M  V30 7235 H 670.633 -4.57313 -2.77072 0
M  V30 7236 H 670.976 -2.87724 -3.00867 0
M  V30 7237 H 671.509 -3.67971 -1.51137 0
M  V30 7238 H 668.248 -6.52922 -0.580823 0
M  V30 7239 H 667.768 -5.63902 -2.04387 0
M  V30 7240 H 669.447 -6.20035 -1.8484 0
M  V30 7241 N 669.579 0.400081 -1.52437 0
M  V30 7242 C 670.856 1.15973 -1.57511 0
M  V30 7243 C 671.236 2.0798 -0.361572 0
M  V30 7244 O 670.584 2.19032 0.650929 0
M  V30 7245 C 670.794 1.92912 -2.90837 0
M  V30 7246 C 672.142 2.48662 -3.44169 0
M  V30 7247 O 673.166 2.03081 -2.92637 0
M  V30 7248 O 672.025 3.31894 -4.34176 0
M  V30 7249 H 669.119 0.530023 -0.634827 0
M  V30 7250 H 671.665 0.40613 -1.64769 0
M  V30 7251 H 670.437 1.25564 -3.70607 0
M  V30 7252 H 670.06 2.75257 -2.86913 0
M  V30 7253 N 671.057 1.43213 0.657864 0
M  V30 7254 C 672.004 1.48011 1.77092 0
M  V30 7255 C 672.974 0.330291 1.62783 0
M  V30 7256 O 674.159 0.536787 1.83094 0
M  V30 7257 C 671.299 1.40461 3.15222 0
M  V30 7258 C 670.412 2.65612 3.40697 0
M  V30 7259 C 669.547 2.50083 4.68649 0
M  V30 7260 C 668.586 3.70525 4.87214 0
M  V30 7261 N 667.723 3.53835 6.0642 0
M  V30 7262 H 672.563 2.43121 1.72326 0
M  V30 7263 H 670.1 1.20687 0.841013 0
M  V30 7264 H 672.058 1.34079 3.95068 0
M  V30 7265 H 670.688 0.489359 3.19069 0
M  V30 7266 H 669.74 2.82292 2.54982 0
M  V30 7267 H 671.052 3.5509 3.50303 0
M  V30 7268 H 670.206 2.41383 5.56614 0
M  V30 7269 H 668.945 1.58121 4.61356 0
M  V30 7270 H 667.95 3.79639 3.97686 0
M  V30 7271 H 669.175 4.63489 4.96341 0
M  V30 7272 H 667.121 2.64604 6.00267 0
M  V30 7273 H 667.038 4.36912 6.16963 0
M  V30 7274 H 668.306 3.48978 6.97019 0
M  V30 7275 N 672.536 -0.895792 1.29666 0
M  V30 7276 C 673.761 -1.68528 1.20885 0
M  V30 7277 C 674.186 -1.8673 -0.226595 0
M  V30 7278 O 673.544 -1.39044 -1.16347 0
M  V30 7279 C 673.592 -3.04512 1.93144 0
M  V30 7280 O 672.696 -3.92963 1.25115 0
M  V30 7281 H 672.037 -0.515371 0.418675 0
M  V30 7282 H 674.567 -1.11878 1.71302 0
M  V30 7283 H 674.577 -3.54628 2.0175 0
M  V30 7284 H 673.252 -2.90582 2.97548 0
M  V30 7285 H 671.829 -3.51399 1.24794 0
M  V30 7286 N 674.014 -1.12206 -1.10668 0
M  V30 7287 C 674.961 -0.787716 -2.16942 0
M  V30 7288 C 675.931 0.244442 -1.64291 0
M  V30 7289 O 677.116 0.119558 -1.90425 0
M  V30 7290 C 674.256 -0.24584 -3.44223 0
M  V30 7291 C 673.369 -1.33552 -4.10838 0
M  V30 7292 C 672.504 -0.753337 -5.25831 0
M  V30 7293 C 671.543 -1.82231 -5.84344 0
M  V30 7294 N 670.68 -1.25902 -6.90719 0
M  V30 7295 H 675.52 -1.69809 -2.44885 0
M  V30 7296 H 673.057 -0.847862 -1.20207 0
M  V30 7297 H 675.015 0.0863639 -4.17111 0
M  V30 7298 H 673.645 0.627702 -3.16638 0
M  V30 7299 H 672.697 -1.78454 -3.35944 0
M  V30 7300 H 674.009 -2.14396 -4.50373 0
M  V30 7301 H 673.163 -0.37166 -6.05561 0
M  V30 7302 H 671.902 0.0863297 -4.87624 0
M  V30 7303 H 670.907 -2.2132 -5.03287 0
M  V30 7304 H 672.132 -2.66515 -6.24617 0
M  V30 7305 H 670.078 -0.44114 -6.54515 0
M  V30 7306 H 669.995 -2.00408 -7.28953 0
M  V30 7307 H 671.263 -0.904498 -7.74235 0
M  V30 7308 N 675.492 1.28418 -0.913599 0
M  V30 7309 C 676.908 1.47411 -0.611728 0
M  V30 7310 C 677.108 1.83018 0.843008 0
M  V30 7311 O 676.164 1.93505 1.6221 0
M  V30 7312 C 677.477 2.57703 -1.5495 0
M  V30 7313 C 679.025 2.71572 -1.5562 0
M  V30 7314 C 679.5 3.85008 -2.48058 0
M  V30 7315 N 680.991 3.92361 -2.46184 0
M  V30 7316 C 681.726 4.79516 -3.14407 0
M  V30 7317 N 681.222 5.71262 -3.91958 0
M  V30 7318 N 683.015 4.73125 -3.03495 0
M  V30 7319 H 675.166 1.03585 -1.85429 0
M  V30 7320 H 677.429 0.515907 -0.795326 0
M  V30 7321 H 677.135 2.38298 -2.58663 0
M  V30 7322 H 677.009 3.54801 -1.28048 0
M  V30 7323 H 679.396 2.90366 -0.526441 0
M  V30 7324 H 679.477 1.75006 -1.86565 0
M  V30 7325 H 679.121 3.66969 -3.51136 0
M  V30 7326 H 679.051 4.80971 -2.14416 0
M  V30 7327 H 681.542 3.26749 -1.89851 0
M  V30 7328 H 681.855 6.34593 -4.41034 0
M  V30 7329 H 680.2 5.71103 -3.96063 0
M  V30 7330 H 683.391 4.00442 -2.42413 0
M  V30 7331 H 683.564 5.40834 -3.56935 0
M  V30 7332 N 676.97 0.677563 1.42291 0
M  V30 7333 C 678.247 0.129803 1.95169 0
M  V30 7334 C 678.627 -1.35605 1.61786 0
M  V30 7335 O 677.975 -2.09361 0.915444 0
M  V30 7336 C 678.185 0.401889 3.46678 0
M  V30 7337 C 679.533 0.319889 4.23393 0
M  V30 7338 O 680.557 0.33579 3.54614 0
M  V30 7339 O 679.416 0.264459 5.4586 0
M  V30 7340 H 676.51 0.00447433 0.826988 0
M  V30 7341 H 679.056 0.752483 1.52105 0
M  V30 7342 H 677.828 1.43108 3.64192 0
M  V30 7343 H 677.451 -0.252662 3.96796 0
M  V30 7344 N 678.448 -1.51871 0.421078 0
M  V30 7345 C 679.859 -1.86644 -0.0457991 0
M  V30 7346 C 680.21 -1.33919 -1.43388 0
M  V30 7347 O 679.335 -0.683316 -2.05328 0
M  V30 7348 C 679.93 -3.38681 -0.0898844 0
M  V30 7349 C 678.489 -3.73049 -0.501127 0
M  V30 7350 C 677.636 -2.75485 0.316723 0
M  V30 7351 H 680.587 -1.45327 0.637635 0
M  V30 7352 H 680.608 -3.69636 -0.902734 0
M  V30 7353 H 680.12 -3.77025 0.920513 0
M  V30 7354 H 678.221 -3.40288 -1.51773 0
M  V30 7355 H 678.334 -4.78512 -0.237217 0
M  V30 7356 H 676.698 -2.53725 -0.222663 0
M  V30 7357 H 677.481 -3.16671 1.32569 0
M  V30 7358 N 679.926 -0.151884 -1.56866 0
M  V30 7359 C 681.154 0.504813 -2.00647 0
M  V30 7360 C 681.569 1.58098 -1.03201 0
M  V30 7361 O 680.926 1.82476 -0.0297814 0
M  V30 7362 C 680.977 1.10099 -3.44326 0
M  V30 7363 O 680.698 0.0678021 -4.38048 0
M  V30 7364 C 682.199 1.83782 -4.03409 0
M  V30 7365 H 679.419 0.130989 -0.65809 0
M  V30 7366 H 681.963 -0.247903 -2.02992 0
M  V30 7367 H 680.118 1.8043 -3.42817 0
M  V30 7368 H 680.532 0.505237 -5.22061 0
M  V30 7369 H 682.006 2.2078 -5.05925 0
M  V30 7370 H 682.483 2.72557 -3.44397 0
M  V30 7371 H 683.089 1.18138 -4.08563 0
M  V30 7372 N 681.404 1.57128 0.121893 0
M  V30 7373 C 682.314 2.03425 1.16857 0
M  V30 7374 C 683.33 0.954108 1.45509 0
M  V30 7375 O 684.506 1.26541 1.56682 0
M  V30 7376 C 681.571 2.42685 2.47599 0
M  V30 7377 C 680.632 3.64767 2.2637 0
M  V30 7378 C 679.865 4.02145 3.50878 0
M  V30 7379 O 680.088 3.39897 4.58068 0
M  V30 7380 O 679.022 4.95262 3.42051 0
M  V30 7381 H 682.848 2.92825 0.80544 0
M  V30 7382 H 680.433 1.45654 0.332477 0
M  V30 7383 H 682.315 2.68684 3.24634 0
M  V30 7384 H 680.99 1.56432 2.83392 0
M  V30 7385 H 679.897 3.43922 1.47203 0
M  V30 7386 H 681.23 4.51716 1.95482 0
M  V30 7387 N 682.882 -0.391992 1.52647 0
M  V30 7388 C 683.792 -1.503 1.80131 0
M  V30 7389 C 684.808 -1.59825 0.687882 0
M  V30 7390 O 685.984 -1.76218 0.975149 0
M  V30 7391 C 683.049 -2.85863 1.96171 0
M  V30 7392 C 682.11 -2.86084 3.20085 0
M  V30 7393 C 681.343 -4.15181 3.35351 0
M  V30 7394 O 681.566 -5.09981 2.55491 0
M  V30 7395 O 680.5 -4.22603 4.28591 0
M  V30 7396 H 684.326 -1.30007 2.74466 0
M  V30 7397 H 681.911 -0.579539 1.37701 0
M  V30 7398 H 683.793 -3.66236 2.08445 0
M  V30 7399 H 682.468 -3.06189 1.05025 0
M  V30 7400 H 681.375 -2.04504 3.13256 0
M  V30 7401 H 682.708 -2.7071 4.11068 0
M  V30 7402 N 684.36 -1.4356 -0.65026 0
M  V30 7403 C 685.609 -1.44619 -1.406 0
M  V30 7404 C 685.922 -0.0752645 -1.95455 0
M  V30 7405 O 687.128 0.0366832 -2.71475 0
M  V30 7406 C 685.584 -2.54511 -2.54465 0
M  V30 7407 C 685.192 -3.97723 -2.06204 0
M  V30 7408 C 686.936 -2.64768 -3.31811 0
M  V30 7409 C 684.843 -4.99075 -3.17298 0
M  V30 7410 H 683.773 -0.537983 -0.52829 0
M  V30 7411 H 686.424 -1.69559 -0.701561 0
M  V30 7412 H 684.806 -2.22777 -3.27393 0
M  V30 7413 H 685.98 -4.38932 -1.40267 0
M  V30 7414 H 684.295 -3.91538 -1.41729 0
M  V30 7415 H 686.892 -3.37664 -4.14593 0
M  V30 7416 H 687.235 -1.69936 -3.80036 0
M  V30 7417 H 687.768 -2.95817 -2.65964 0
M  V30 7418 H 684.507 -5.95469 -2.74038 0
M  V30 7419 H 684.027 -4.62476 -3.81937 0
M  V30 7420 H 685.706 -5.21913 -3.82382 0
M  V30 7421 N 685.838 0.888903 -1.30139 0
M  V30 7422 C 686.748 2.02705 -1.18101 0
M  V30 7423 C 687.764 1.73702 -0.101809 0
M  V30 7424 O 688.94 1.98906 -0.315984 0
M  V30 7425 C 686.005 3.35616 -0.869651 0
M  V30 7426 C 685.066 3.78067 -2.03381 0
M  V30 7427 C 684.299 5.04635 -1.73721 0
M  V30 7428 O 684.522 5.66531 -0.663267 0
M  V30 7429 O 683.456 5.43399 -2.58845 0
M  V30 7430 H 687.282 2.15788 -2.13704 0
M  V30 7431 H 684.867 1.01426 -1.09695 0
M  V30 7432 H 686.749 4.15358 -0.711043 0
M  V30 7433 H 685.424 3.23651 0.0565002 0
M  V30 7434 H 684.331 2.99046 -2.24772 0
M  V30 7435 H 685.664 3.94631 -2.94155 0
M  V30 7436 N 687.317 1.12792 1.10072 0
M  V30 7437 C 688.566 0.880232 1.81479 0
M  V30 7438 C 688.879 -0.595575 1.86312 0
M  V30 7439 O 690.085 -0.959979 2.53962 0
M  V30 7440 C 688.541 1.52514 3.25987 0
M  V30 7441 C 688.149 3.036 3.29441 0
M  V30 7442 C 689.893 1.35788 4.02196 0
M  V30 7443 C 687.8 3.61007 4.68431 0
M  V30 7444 H 686.73 0.325654 0.680048 0
M  V30 7445 H 689.381 1.35485 1.23758 0
M  V30 7446 H 687.763 0.978188 3.83728 0
M  V30 7447 H 688.937 3.64819 2.81502 0
M  V30 7448 H 687.252 3.19765 2.66719 0
M  V30 7449 H 689.849 1.76096 5.0487 0
M  V30 7450 H 690.192 0.301972 4.15203 0
M  V30 7451 H 690.725 1.87426 3.50879 0
M  V30 7452 H 687.464 4.66375 4.60625 0
M  V30 7453 H 686.984 3.04564 5.16721 0
M  V30 7454 H 688.663 3.60289 5.37402 0
M  V30 7455 N 688.795 -1.27931 0.920396 0
M  V30 7456 C 689.725 -2.29487 0.431024 0
M  V30 7457 C 690.706 -1.62435 -0.504861 0
M  V30 7458 O 691.891 -1.89797 -0.411176 0
M  V30 7459 C 689.021 -3.45788 -0.323709 0
M  V30 7460 C 687.975 -4.24784 0.523658 0
M  V30 7461 C 687.301 -5.33488 -0.359809 0
M  V30 7462 C 688.601 -4.90874 1.78437 0
M  V30 7463 H 690.295 -2.70671 1.27975 0
M  V30 7464 H 687.841 -1.30121 0.616813 0
M  V30 7465 H 689.794 -4.15927 -0.676952 0
M  V30 7466 H 688.518 -3.03502 -1.2064 0
M  V30 7467 H 687.177 -3.56382 0.85951 0
M  V30 7468 H 686.825 -4.87445 -1.24124 0
M  V30 7469 H 686.525 -5.87247 0.203605 0
M  V30 7470 H 688.049 -6.06472 -0.708787 0
M  V30 7471 H 689.463 -5.53339 1.49963 0
M  V30 7472 H 687.86 -5.54659 2.29071 0
M  V30 7473 H 688.93 -4.14988 2.50824 0
M  V30 7474 N 690.273 -0.685099 -1.4193 0
M  V30 7475 C 691.203 -0.0273506 -2.33484 0
M  V30 7476 C 692.184 0.778366 -1.51246 0
M  V30 7477 O 693.369 0.733449 -1.79817 0
M  V30 7478 C 690.499 0.917272 -3.34968 0
M  V30 7479 C 689.453 0.21941 -4.27437 0
M  V30 7480 C 688.779 1.27768 -5.1921 0
M  V30 7481 C 690.079 -0.907894 -5.14349 0
M  V30 7482 H 691.773 -0.791994 -2.88735 0
M  V30 7483 H 689.319 -0.382308 -1.38832 0
M  V30 7484 H 691.272 1.38657 -3.97935 0
M  V30 7485 H 689.996 1.71346 -2.78043 0
M  V30 7486 H 688.655 -0.229757 -3.65879 0
M  V30 7487 H 688.303 2.06612 -4.58607 0
M  V30 7488 H 688.003 0.815803 -5.81909 0
M  V30 7489 H 689.527 1.7477 -5.85054 0
M  V30 7490 H 690.941 -0.519348 -5.70943 0
M  V30 7491 H 689.338 -1.2962 -5.85934 0
M  V30 7492 H 690.408 -1.75218 -4.52136 0
M  V30 7493 N 691.751 1.51645 -0.429126 0
M  V30 7494 C 693.167 1.59394 -0.080994 0
M  V30 7495 C 693.367 1.44064 1.40882 0
M  V30 7496 O 692.423 1.27771 2.17786 0
M  V30 7497 C 693.736 2.94779 -0.593773 0
M  V30 7498 C 695.284 3.08067 -0.553494 0
M  V30 7499 C 695.759 4.45963 -1.04311 0
M  V30 7500 N 697.25 4.5226 -1.00076 0
M  V30 7501 C 697.985 5.57268 -1.35056 0
M  V30 7502 N 697.481 6.69734 -1.77282 0
M  V30 7503 N 699.274 5.47582 -1.26925 0
M  V30 7504 H 691.425 1.59856 -1.39857 0
M  V30 7505 H 693.688 0.753095 -0.575805 0
M  V30 7506 H 693.394 3.11342 -1.63583 0
M  V30 7507 H 693.268 3.77197 -0.0142202 0
M  V30 7508 H 695.655 2.91177 0.479556 0
M  V30 7509 H 695.736 2.27508 -1.16935 0
M  V30 7510 H 695.38 4.63598 -2.07459 0
M  V30 7511 H 695.31 5.25049 -0.403873 0
M  V30 7512 H 697.801 3.71537 -0.690564 0
M  V30 7513 H 698.114 7.4587 -2.02232 0
M  V30 7514 H 696.459 6.70963 -1.81202 0
M  V30 7515 H 699.65 4.58604 -0.93809 0
M  V30 7516 H 699.823 6.29308 -1.54516 0
M  V30 7517 N 693.229 0.160201 1.56784 0
M  V30 7518 C 694.459 -0.493449 2.00621 0
M  V30 7519 C 694.867 -1.5809 1.03943 0
M  V30 7520 O 694.21 -1.83675 0.0305343 0
M  V30 7521 C 694.272 -1.14169 3.4089 0
M  V30 7522 C 693.936 -0.197243 4.56574 0
M  V30 7523 C 694.933 0.580174 5.16653 0
M  V30 7524 C 692.618 -0.0963038 5.02208 0
M  V30 7525 C 694.612 1.44584 6.20785 0
M  V30 7526 C 692.299 0.772959 6.06192 0
M  V30 7527 C 693.297 1.54263 6.65351 0
M  V30 7528 O 692.985 2.39738 7.67321 0
M  V30 7529 H 692.717 -0.131764 0.663034 0
M  V30 7530 H 695.271 0.255728 2.03802 0
M  V30 7531 H 693.501 -1.93877 3.34587 0
M  V30 7532 H 695.19 -1.69641 3.6875 0
M  V30 7533 H 695.956 0.5123 4.82287 0
M  V30 7534 H 691.835 -0.685143 4.5588 0
M  V30 7535 H 695.379 2.04706 6.66889 0
M  V30 7536 H 691.276 0.842077 6.39984 0
M  V30 7537 H 692.044 2.33131 7.84597 0
M  V30 7538 N 694.707 -1.5719 -0.113559 0
M  V30 7539 C 695.955 -1.84772 -0.818761 0
M  V30 7540 C 696.276 -0.746196 -1.80158 0
M  V30 7541 O 695.546 0.229305 -1.94553 0
M  V30 7542 H 694.126 -0.681737 -0.305359 0
M  V30 7543 H 696.788 -1.94645 -0.0995845 0
M  V30 7544 H 695.884 -2.80878 -1.36067 0
M  V30 7545 N 696.185 0.383891 -1.52853 0
M  V30 7546 C 697.117 1.48889 -1.74255 0
M  V30 7547 C 698.13 1.50405 -0.623063 0
M  V30 7548 O 699.319 1.54215 -0.898887 0
M  V30 7549 C 696.419 2.87721 -1.79081 0
M  V30 7550 C 695.592 3.10111 -3.08464 0
M  V30 7551 C 694.651 4.28954 -3.0477 0
M  V30 7552 O 693.677 4.25012 -3.78621 0
M  V30 7553 N 694.879 5.35411 -2.24311 0
M  V30 7554 H 697.644 1.30915 -2.69595 0
M  V30 7555 H 695.205 0.573454 -1.51404 0
M  V30 7556 H 697.197 3.65333 -1.7411 0
M  V30 7557 H 695.767 2.99029 -0.911052 0
M  V30 7558 H 694.987 2.20319 -3.26884 0
M  V30 7559 H 696.275 3.21928 -3.94005 0
M  V30 7560 H 695.673 5.41471 -1.63787 0
M  V30 7561 H 694.23 6.1167 -2.25175 0
M  V30 7562 N 697.663 1.43903 0.642637 0
M  V30 7563 C 698.613 1.46321 1.74854 0
M  V30 7564 C 699.597 0.330361 1.57472 0
M  V30 7565 O 700.789 0.574881 1.67404 0
M  V30 7566 C 697.918 1.39919 3.13493 0
M  V30 7567 C 697.004 2.58274 3.36385 0
M  V30 7568 N 697.395 3.83578 3.29699 0
M  V30 7569 C 695.693 2.53224 3.67142 0
M  V30 7570 C 696.394 4.62375 3.52965 0
M  V30 7571 N 695.37 3.93269 3.75287 0
M  V30 7572 H 699.172 2.41062 1.68126 0
M  V30 7573 H 696.686 1.38704 0.844693 0
M  V30 7574 H 698.683 1.39735 3.92785 0
M  V30 7575 H 697.343 0.46207 3.21395 0
M  V30 7576 H 698.354 4.15713 3.08874 0
M  V30 7577 H 695.031 1.68252 3.82096 0
M  V30 7578 H 696.421 5.714 3.53485 0
M  V30 7579 N 699.141 -0.881989 1.30609 0
M  V30 7580 C 700.552 -1.44956 1.17664 0
M  V30 7581 C 700.903 -1.94945 -0.221531 0
M  V30 7582 O 700.028 -1.85257 -1.11844 0
M  V30 7583 C 700.623 -2.63474 2.12995 0
M  V30 7584 C 699.182 -3.16312 2.04019 0
M  V30 7585 C 698.329 -1.89008 2.02907 0
M  V30 7586 H 701.28 -0.691645 1.42835 0
M  V30 7587 H 701.301 -3.39783 1.71253 0
M  V30 7588 H 700.813 -2.2706 3.14746 0
M  V30 7589 H 698.914 -3.57376 1.0542 0
M  V30 7590 H 699.027 -3.79409 2.9255 0
M  V30 7591 H 697.391 -2.07465 1.47751 0
M  V30 7592 H 698.174 -1.54848 3.06394 0
M  V30 7593 N 700.619 -1.13374 -1.09472 0
M  V30 7594 C 701.567 -0.806105 -2.18185 0
M  V30 7595 C 702.561 0.21136 -1.68076 0
M  V30 7596 O 703.767 0.0685558 -1.79869 0
M  V30 7597 H 700.142 -0.242901 -0.71169 0
M  V30 7598 H 702.113 -1.73115 -2.43051 0
M  V30 7599 C 700.862 -0.287928 -3.46506 0
M  V30 7600 H 700.185 -1.06217 -3.85432 0
M  V30 7601 H 701.625 -0.0971054 -4.23889 0
M  V30 7602 C 700.084 0.986256 -3.22141 0
M  V30 7603 O 700.614 2.06217 -3.44728 0
M  V30 7604 N 698.82 0.917153 -2.75747 0
M  V30 7605 H 698.367 0.0414609 -2.57567 0
M  V30 7606 H 698.325 1.77029 -2.59823 0
M  V30 7607 N 702.098 1.27442 -0.927168 0
M  V30 7608 C 703.347 1.93679 -0.563146 0
M  V30 7609 C 703.66 1.73673 0.899837 0
M  V30 7610 O 704.866 2.34247 1.37262 0
M  V30 7611 C 703.322 3.46961 -0.95636 0
M  V30 7612 C 702.93 3.75724 -2.43999 0
M  V30 7613 C 704.674 4.19282 -0.663565 0
M  V30 7614 C 702.581 5.22378 -2.77263 0
M  V30 7615 H 701.511 0.725059 -0.206894 0
M  V30 7616 H 704.162 1.44743 -1.12791 0
M  V30 7617 H 702.544 3.94703 -0.320254 0
M  V30 7618 H 703.718 3.38741 -3.12396 0
M  V30 7619 H 702.033 3.16605 -2.70463 0
M  V30 7620 H 704.63 5.27265 -0.888596 0
M  V30 7621 H 704.973 4.14382 0.399198 0
M  V30 7622 H 705.506 3.7736 -1.25875 0
M  V30 7623 H 702.245 5.32367 -3.82446 0
M  V30 7624 H 701.765 5.6051 -2.13516 0
M  V30 7625 H 703.444 5.9025 -2.64979 0
M  V30 7626 N 703.576 0.692616 1.41565 0
M  V30 7627 C 704.825 0.219452 2.00503 0
M  V30 7628 C 705.138 -1.18683 1.55479 0
M  V30 7629 O 706.344 -1.75731 2.06956 0
M  V30 7630 C 704.8 0.341451 3.58277 0
M  V30 7631 C 704.408 1.75291 4.12283 0
M  V30 7632 C 706.152 -0.0720899 4.24439 0
M  V30 7633 C 704.059 1.82673 5.62481 0
M  V30 7634 H 702.989 0.0782874 0.749925 0
M  V30 7635 H 705.64 0.860386 1.62079 0
M  V30 7636 H 704.022 -0.367683 3.94289 0
M  V30 7637 H 705.196 2.49057 3.87695 0
M  V30 7638 H 703.511 2.11587 3.58636 0
M  V30 7639 H 706.108 -0.0373385 5.34687 0
M  V30 7640 H 706.451 -1.11034 4.0122 0
M  V30 7641 H 706.984 0.586663 3.9345 0
M  V30 7642 H 703.723 2.84539 5.90523 0
M  V30 7643 H 703.243 1.13288 5.89004 0
M  V30 7644 H 704.922 1.58827 6.27203 0
M  V30 7645 N 705.054 -1.51416 0.437162 0
M  V30 7646 C 706.282 -2.06503 -0.128045 0
M  V30 7647 C 706.697 -1.30461 -1.36475 0
M  V30 7648 O 706.054 -0.364127 -1.78831 0
M  V30 7649 C 706.105 -3.58683 -0.450437 0
M  V30 7650 O 705.826 -4.31853 0.737186 0
M  V30 7651 C 707.327 -4.30284 -1.06633 0
M  V30 7652 H 704.547 -0.670952 -0.00800269 0
M  V30 7653 H 707.091 -1.94996 0.616193 0
M  V30 7654 H 705.246 -3.70106 -1.14457 0
M  V30 7655 H 705.66 -5.22467 0.461347 0
M  V30 7656 H 707.134 -5.37848 -1.24191 0
M  V30 7657 H 707.611 -3.88564 -2.0473 0
M  V30 7658 H 708.217 -4.23304 -0.411585 0
M  V30 7659 N 706.532 -0.168513 -1.56696 0
M  V30 7660 C 707.462 0.758563 -2.20835 0
M  V30 7661 C 708.443 1.24121 -1.1631 0
M  V30 7662 O 709.628 1.29487 -1.4473 0
M  V30 7663 C 706.758 1.9892 -2.8469 0
M  V30 7664 C 705.712 1.64252 -3.95228 0
M  V30 7665 C 705.038 2.94757 -4.46119 0
M  V30 7666 C 706.338 0.872675 -5.14958 0
M  V30 7667 H 708.032 0.223953 -2.98561 0
M  V30 7668 H 705.578 0.106277 -1.43607 0
M  V30 7669 H 707.531 2.64275 -3.28233 0
M  V30 7670 H 706.255 2.5479 -2.04327 0
M  V30 7671 H 704.914 1.01266 -3.52336 0
M  V30 7672 H 704.562 3.48662 -3.62552 0
M  V30 7673 H 704.262 2.72316 -5.2069 0
M  V30 7674 H 705.786 3.61147 -4.92347 0
M  V30 7675 H 707.2 1.42875 -5.55211 0
M  V30 7676 H 705.597 0.747402 -5.95428 0
M  V30 7677 H 706.667 -0.131535 -4.84722 0
M  V30 7678 N 708.01 1.57248 0.105221 0
M  V30 7679 C 708.957 2.01338 1.12835 0
M  V30 7680 C 709.927 0.887897 1.40377 0
M  V30 7681 O 711.112 1.15315 1.5201 0
M  V30 7682 C 708.252 2.43432 2.44611 0
M  V30 7683 C 707.365 3.69457 2.23888 0
M  V30 7684 C 706.5 4.00473 3.48991 0
M  V30 7685 C 705.539 5.19638 3.23485 0
M  V30 7686 N 704.676 5.46457 4.40828 0
M  V30 7687 H 709.516 2.88527 0.745386 0
M  V30 7688 H 707.053 1.42714 0.356535 0
M  V30 7689 H 709.011 2.65879 3.21503 0
M  V30 7690 H 707.641 1.59266 2.80774 0
M  V30 7691 H 706.693 3.54545 1.37847 0
M  V30 7692 H 708.005 4.56497 2.01026 0
M  V30 7693 H 707.159 4.23642 4.34295 0
M  V30 7694 H 705.898 3.11935 3.74897 0
M  V30 7695 H 704.903 4.96299 2.36574 0
M  V30 7696 H 706.128 6.09766 2.98935 0
M  V30 7697 H 704.074 4.60876 4.66829 0
M  V30 7698 H 703.991 6.27849 4.2112 0
M  V30 7699 H 705.259 5.74155 5.27225 0
M  V30 7700 N 709.488 -0.375779 1.53054 0
M  V30 7701 C 710.765 -1.13453 1.59336 0
M  V30 7702 C 711.145 -2.07379 0.394614 0
M  V30 7703 O 710.493 -2.2004 -0.616 0
M  V30 7704 C 710.703 -1.8826 2.93869 0
M  V30 7705 C 712.051 -2.43155 3.48081 0
M  V30 7706 O 713.075 -1.984 2.95831 0
M  V30 7707 O 711.934 -3.24944 4.39401 0
M  V30 7708 H 709.028 -0.519856 0.643179 0
M  V30 7709 H 711.574 -0.379865 1.65394 0
M  V30 7710 H 710.346 -1.19652 3.72558 0
M  V30 7711 H 709.969 -2.70658 2.91256 0
M  V30 7712 N 710.966 -1.44241 -0.634997 0
M  V30 7713 C 712.212 -1.47038 -1.39669 0
M  V30 7714 C 712.545 -0.101122 -1.93937 0
M  V30 7715 O 711.82 0.880699 -1.73418 0
M  V30 7716 C 712.103 -2.52763 -2.56482 0
M  V30 7717 C 711.956 -3.99032 -2.07589 0
M  V30 7718 C 713.275 -2.55031 -3.58674 0
M  V30 7719 H 710.394 -0.53537 -0.506506 0
M  V30 7720 H 713.036 -1.75898 -0.718317 0
M  V30 7721 H 711.186 -2.28284 -3.14354 0
M  V30 7722 H 712.858 -4.3463 -1.54577 0
M  V30 7723 H 711.101 -4.10994 -1.38804 0
M  V30 7724 H 711.772 -4.68649 -2.91671 0
M  V30 7725 H 714.248 -2.76893 -3.10595 0
M  V30 7726 H 713.124 -3.30916 -4.37934 0
M  V30 7727 H 713.385 -1.59085 -4.12486 0
M  V30 7728 N 712.444 0.87505 -1.31075 0
M  V30 7729 C 713.674 1.65818 -1.2324 0
M  V30 7730 C 714.082 1.8808 0.205536 0
M  V30 7731 O 713.425 1.43548 1.14628 0
M  V30 7732 C 713.487 3.05131 -1.90093 0
M  V30 7733 C 713.151 3.05999 -3.39432 0
M  V30 7734 C 714.148 2.84328 -4.35263 0
M  V30 7735 C 711.833 3.27281 -3.81041 0
M  V30 7736 C 713.827 2.83912 -5.70678 0
M  V30 7737 C 711.514 3.26493 -5.16571 0
M  V30 7738 C 712.512 3.04834 -6.112 0
M  V30 7739 O 712.2 3.03882 -7.44252 0
M  V30 7740 H 711.932 0.52387 -0.427242 0
M  V30 7741 H 714.486 1.10086 -1.73408 0
M  V30 7742 H 712.716 3.62568 -1.34468 0
M  V30 7743 H 714.405 3.65641 -1.76242 0
M  V30 7744 H 715.171 2.67673 -4.04445 0
M  V30 7745 H 711.05 3.43171 -3.07822 0
M  V30 7746 H 714.594 2.66925 -6.44513 0
M  V30 7747 H 710.491 3.42687 -5.47025 0
M  V30 7748 H 711.259 3.19979 -7.53363 0
M  V30 7749 N 713.922 1.13953 1.08869 0
M  V30 7750 C 715.199 0.815768 1.77777 0
M  V30 7751 C 715.579 -0.691624 1.99449 0
M  V30 7752 O 714.927 -1.63085 1.60049 0
M  V30 7753 C 715.137 1.60916 3.09689 0
M  V30 7754 C 716.485 1.80549 3.84301 0
M  V30 7755 O 717.509 1.57562 3.19457 0
M  V30 7756 O 716.368 2.18946 5.00724 0
M  V30 7757 H 713.462 0.298445 0.771271 0
M  V30 7758 H 716.008 1.24446 1.15374 0
M  V30 7759 H 714.78 2.6333 2.89435 0
M  V30 7760 H 714.403 1.17578 3.79817 0
M  V30 7761 N 715.4 -1.26948 0.933913 0
M  V30 7762 C 716.677 -1.89212 0.495784 0
M  V30 7763 C 717.057 -1.84469 -1.02637 0
M  V30 7764 O 716.405 -1.29409 -1.88323 0
M  V30 7765 C 716.615 -3.32865 1.0489 0
M  V30 7766 C 717.963 -4.09749 1.11315 0
M  V30 7767 O 718.987 -3.41905 0.998966 0
M  V30 7768 O 717.846 -5.31061 1.28983 0
M  V30 7769 H 714.94 -0.811284 0.160459 0
M  V30 7770 H 717.486 -1.35171 1.02601 0
M  V30 7771 H 716.258 -3.30642 2.09265 0
M  V30 7772 H 715.881 -3.94435 0.500692 0
M  V30 7773 N 716.879 -0.700114 -1.41195 0
M  V30 7774 C 718.127 -0.232546 -2.00758 0
M  V30 7775 C 718.448 1.1734 -1.55745 0
M  V30 7776 O 717.718 1.79262 -0.790058 0
M  V30 7777 H 716.298 -0.0829845 -0.742376 0
M  V30 7778 H 718.96 -0.902289 -1.72756 0
M  V30 7779 H 718.056 -0.253521 -3.11069 0
M  V30 7780 N 718.357 1.51182 -0.445186 0
M  V30 7781 C 719.304 2.27939 0.362291 0
M  V30 7782 C 720.274 1.31864 1.01 0
M  V30 7783 O 721.459 1.60776 1.02741 0
M  V30 7784 C 718.599 3.13016 1.45311 0
M  V30 7785 C 717.712 4.24093 0.822757 0
M  V30 7786 C 716.847 4.96467 1.88928 0
M  V30 7787 C 715.886 5.99454 1.23778 0
M  V30 7788 N 715.023 6.65206 2.24602 0
M  V30 7789 H 719.863 2.965 -0.29862 0
M  V30 7790 H 717.4 1.46237 -0.15911 0
M  V30 7791 H 719.358 3.60673 2.09692 0
M  V30 7792 H 717.988 2.46553 2.08354 0
M  V30 7793 H 717.04 3.80341 0.0670364 0
M  V30 7794 H 718.352 4.97853 0.307184 0
M  V30 7795 H 717.506 5.47712 2.60953 0
M  V30 7796 H 716.245 4.22355 2.4386 0
M  V30 7797 H 715.25 5.47494 0.503042 0
M  V30 7798 H 716.475 6.75527 0.695694 0
M  V30 7799 H 714.421 5.93901 2.78599 0
M  V30 7800 H 714.338 7.34756 1.77958 0
M  V30 7801 H 715.606 7.21078 2.96085 0
M  V30 7802 N 719.835 0.176821 1.56605 0
M  V30 7803 C 721.065 -0.472142 2.01133 0
M  V30 7804 C 721.473 -1.56979 1.05614 0
M  V30 7805 O 720.816 -1.83632 0.0500137 0
M  V30 7806 C 720.878 -1.10547 3.42081 0
M  V30 7807 C 720.542 -0.148806 4.56758 0
M  V30 7808 C 721.539 0.634939 5.16008 0
M  V30 7809 C 719.224 -0.0430325 5.02282 0
M  V30 7810 C 721.218 1.5116 6.19217 0
M  V30 7811 C 718.905 0.83721 6.05338 0
M  V30 7812 C 719.903 1.61311 6.63677 0
M  V30 7813 O 719.591 2.47863 7.64735 0
M  V30 7814 H 719.323 -0.124725 0.664394 0
M  V30 7815 H 721.877 0.277329 2.03519 0
M  V30 7816 H 720.107 -1.90318 3.36625 0
M  V30 7817 H 721.796 -1.6572 3.70529 0
M  V30 7818 H 722.562 0.563424 4.81716 0
M  V30 7819 H 718.441 -0.636753 4.56581 0
M  V30 7820 H 721.985 2.11767 6.64681 0
M  V30 7821 H 717.882 0.909908 6.39055 0
M  V30 7822 H 718.65 2.4144 7.8208 0
M  V30 7823 N 721.313 -1.57302 -0.09688 0
M  V30 7824 C 722.559 -1.86273 -0.801885 0
M  V30 7825 C 722.892 -0.765694 -1.78468 0
M  V30 7826 O 722.167 0.226495 -1.93177 0
M  V30 7827 C 722.45 -3.25876 -1.53221 0
M  V30 7828 C 722.303 -4.46205 -0.567529 0
M  V30 7829 C 723.622 -3.63352 -2.48321 0
M  V30 7830 H 720.741 -0.67752 -0.29006 0
M  V30 7831 H 723.383 -1.89887 -0.0655577 0
M  V30 7832 H 721.533 -3.22926 -2.15988 0
M  V30 7833 H 723.205 -4.6127 0.0529982 0
M  V30 7834 H 721.448 -4.33636 0.119233 0
M  V30 7835 H 722.119 -5.40608 -1.11564 0
M  V30 7836 H 724.595 -3.67234 -1.95648 0
M  V30 7837 H 723.471 -4.61968 -2.9644 0
M  V30 7838 H 723.732 -2.91941 -3.31998 0
M  V30 7839 N 722.791 0.367657 -1.53252 0
M  V30 7840 C 724.021 1.12955 -1.72988 0
M  V30 7841 C 724.429 1.8358 -0.457708 0
M  V30 7842 O 723.772 1.74336 0.579006 0
M  V30 7843 C 723.834 2.20545 -2.83902 0
M  V30 7844 C 723.498 1.69704 -4.24323 0
M  V30 7845 C 724.495 1.16223 -5.06743 0
M  V30 7846 C 722.18 1.7528 -4.70725 0
M  V30 7847 C 724.174 0.689935 -6.33655 0
M  V30 7848 C 721.861 1.27662 -5.97617 0
M  V30 7849 C 722.859 0.746083 -6.78913 0
M  V30 7850 O 722.547 0.276925 -8.03423 0
M  V30 7851 H 722.279 0.343753 -0.582074 0
M  V30 7852 H 724.833 0.433106 -2.00782 0
M  V30 7853 H 723.063 2.93676 -2.51577 0
M  V30 7854 H 724.752 2.82111 -2.91836 0
M  V30 7855 H 725.518 1.11256 -4.72067 0
M  V30 7856 H 721.397 2.15515 -4.07522 0
M  V30 7857 H 724.941 0.275164 -6.97057 0
M  V30 7858 H 720.838 1.32322 -6.31792 0
M  V30 7859 H 721.606 0.396445 -8.17539 0
M  V30 7860 N 724.269 1.44576 0.627338 0
M  V30 7861 C 725.515 1.47777 1.38888 0
M  V30 7862 C 725.848 0.111406 1.9388 0
M  V30 7863 O 725.123 -0.87149 1.73883 0
M  V30 7864 C 725.406 2.54119 2.55138 0
M  V30 7865 C 725.259 4.00128 2.0547 0
M  V30 7866 C 726.578 2.56929 3.57317 0
M  V30 7867 H 723.697 0.538048 0.50366 0
M  V30 7868 H 726.339 1.76277 0.708978 0
M  V30 7869 H 724.489 2.29948 3.13139 0
M  V30 7870 H 726.161 4.35444 1.5227 0
M  V30 7871 H 724.404 4.11724 1.36623 0
M  V30 7872 H 725.075 4.7019 2.89181 0
M  V30 7873 H 727.551 2.78536 3.09122 0
M  V30 7874 H 726.427 3.33234 4.36173 0
M  V30 7875 H 726.688 1.6127 4.11636 0
M  V30 7876 N 725.747 -0.868086 1.31537 0
M  V30 7877 C 726.993 -1.62367 1.2151 0
M  V30 7878 C 727.326 -1.92883 -0.225819 0
M  V30 7879 O 726.601 -1.56176 -1.15927 0
M  V30 7880 C 726.884 -2.95268 2.06129 0
M  V30 7881 C 726.737 -2.71619 3.58529 0
M  V30 7882 C 728.056 -3.96391 1.91212 0
M  V30 7883 H 725.175 -0.589178 0.442762 0
M  V30 7884 H 727.817 -1.00336 1.61347 0
M  V30 7885 H 725.967 -3.4821 1.72284 0
M  V30 7886 H 727.639 -2.25334 4.0252 0
M  V30 7887 H 725.882 -2.05817 3.81866 0
M  V30 7888 H 726.553 -3.66192 4.13047 0
M  V30 7889 H 729.029 -3.52663 2.20834 0
M  V30 7890 H 727.905 -4.87263 2.52718 0
M  V30 7891 H 728.166 -4.33335 0.875953 0
M  V30 7892 N 727.225 -1.14528 -1.08264 0
M  V30 7893 C 728.453 -0.937964 -1.84418 0
M  V30 7894 C 728.868 0.51357 -1.81681 0
M  V30 7895 O 728.225 1.35591 -1.22153 0
M  V30 7896 C 728.276 -1.43272 -3.31897 0
M  V30 7897 O 727.997 -2.82738 -3.34651 0
M  V30 7898 C 729.498 -1.26555 -4.24851 0
M  V30 7899 H 726.718 -0.333704 -0.582136 0
M  V30 7900 H 729.262 -1.52076 -1.36723 0
M  V30 7901 H 727.417 -0.892653 -3.76975 0
M  V30 7902 H 727.831 -3.04971 -4.26724 0
M  V30 7903 H 729.305 -1.66031 -5.26439 0
M  V30 7904 H 729.782 -0.208589 -4.38704 0
M  V30 7905 H 730.388 -1.79423 -3.856 0
M  V30 7906 N 728.703 1.26451 -0.940633 0
M  V30 7907 C 729.613 2.30128 -0.455881 0
M  V30 7908 C 730.629 1.67536 0.469867 0
M  V30 7909 O 731.805 1.98344 0.349529 0
M  V30 7910 C 728.87 3.45634 0.271648 0
M  V30 7911 C 727.931 4.23709 -0.690594 0
M  V30 7912 C 727.164 5.337 0.00231047 0
M  V30 7913 O 727.387 5.57215 1.21935 0
M  V30 7914 O 726.321 5.98091 -0.676111 0
M  V30 7915 H 730.147 2.73655 -1.31707 0
M  V30 7916 H 727.732 1.3164 -0.706497 0
M  V30 7917 H 729.614 4.15853 0.681486 0
M  V30 7918 H 728.289 3.04138 1.10824 0
M  V30 7919 H 727.196 3.55974 -1.15037 0
M  V30 7920 H 728.529 4.68953 -1.49478 0
M  V30 7921 N 730.181 0.707592 1.40822 0
M  V30 7922 C 731.111 0.0644925 2.33411 0
M  V30 7923 C 732.092 -0.754205 1.52466 0
M  V30 7924 O 733.277 -0.704749 1.80961 0
M  V30 7925 C 730.407 -0.863865 3.36385 0
M  V30 7926 C 729.361 -0.15138 4.27732 0
M  V30 7927 C 728.687 -1.19491 5.21177 0
M  V30 7928 C 729.987 0.989607 5.12839 0
M  V30 7929 H 731.681 0.837829 2.87438 0
M  V30 7930 H 729.227 0.404346 1.38207 0
M  V30 7931 H 731.18 -1.32309 4.0009 0
M  V30 7932 H 729.904 -1.66901 2.80734 0
M  V30 7933 H 728.563 0.287937 3.65467 0
M  V30 7934 H 728.211 -1.9929 4.61836 0
M  V30 7935 H 727.911 -0.723123 5.83134 0
M  V30 7936 H 729.435 -1.6544 5.8776 0
M  V30 7937 H 730.849 0.610114 5.70044 0
M  V30 7938 H 729.246 1.38926 5.83798 0
M  V30 7939 H 730.316 1.82389 4.49291 0
M  V30 7940 N 731.66 -1.50943 0.453197 0
M  V30 7941 C 732.593 -2.24742 -0.395787 0
M  V30 7942 C 733.571 -1.27316 -1.01141 0
M  V30 7943 O 734.755 -1.56494 -1.05081 0
M  V30 7944 C 731.882 -3.00999 -1.55298 0
M  V30 7945 C 730.928 -4.13207 -1.0565 0
M  V30 7946 S 731.761 -5.35498 0.01435 0
M  V30 7947 C 732.917 -6.15298 -1.14714 0
M  V30 7948 H 733.15 -2.96403 0.23071 0
M  V30 7949 H 730.683 -1.52557 0.237874 0
M  V30 7950 H 732.641 -3.45529 -2.2163 0
M  V30 7951 H 731.302 -2.28896 -2.15094 0
M  V30 7952 H 730.495 -4.65901 -1.9223 0
M  V30 7953 H 730.097 -3.7102 -0.471182 0
M  V30 7954 H 732.389 -6.45346 -2.06239 0
M  V30 7955 H 733.332 -7.05019 -0.659842 0
M  V30 7956 H 733.74 -5.47046 -1.39288 0
M  V30 7957 N 733.138 -0.185124 -1.56509 0
M  V30 7958 C 734.085 0.739729 -2.18624 0
M  V30 7959 C 735.055 1.217 -1.13042 0
M  V30 7960 O 736.24 1.28268 -1.41251 0
M  V30 7961 C 733.38 1.95787 -2.84186 0
M  V30 7962 C 732.493 1.52289 -4.04267 0
M  V30 7963 C 731.628 2.69576 -4.57714 0
M  V30 7964 C 730.667 2.22636 -5.70175 0
M  V30 7965 N 729.804 3.33065 -6.18071 0
M  V30 7966 H 734.644 0.203269 -2.97306 0
M  V30 7967 H 732.181 0.0885946 -1.46833 0
M  V30 7968 H 734.139 2.67253 -3.20361 0
M  V30 7969 H 732.769 2.4678 -2.08085 0
M  V30 7970 H 731.821 0.704458 -3.7382 0
M  V30 7971 H 733.133 1.13843 -4.85635 0
M  V30 7972 H 732.287 3.4918 -4.96143 0
M  V30 7973 H 731.026 3.1129 -3.75433 0
M  V30 7974 H 730.031 1.41483 -5.31284 0
M  V30 7975 H 731.256 1.81964 -6.54267 0
M  V30 7976 H 729.202 3.74328 -5.38715 0
M  V30 7977 H 729.119 2.98756 -6.94464 0
M  V30 7978 H 730.387 4.12912 -6.61153 0
M  V30 7979 N 734.616 1.57351 0.0885366 0
M  V30 7980 C 735.864 1.86051 0.789262 0
M  V30 7981 C 736.185 0.774763 1.78948 0
M  V30 7982 O 735.455 -0.198324 1.94894 0
M  V30 7983 H 734.035 0.686508 0.294475 0
M  V30 7984 H 736.697 1.94779 0.0686055 0
M  V30 7985 H 735.793 2.83007 1.31581 0
M  V30 7986 N 736.094 -0.359525 1.53444 0
M  V30 7987 C 737.342 -1.09935 1.69584 0
M  V30 7988 C 737.663 -1.89656 0.453371 0
M  V30 7989 O 736.933 -1.8852 -0.53263 0
M  V30 7990 H 735.513 -0.408843 0.625185 0
M  V30 7991 H 738.175 -0.40467 1.90653 0
M  V30 7992 H 737.271 -1.78575 2.55964 0
M  V30 7993 N 737.572 -1.44907 -0.619662 0
M  V30 7994 C 738.482 -1.55168 -1.75955 0
M  V30 7995 C 739.498 -0.43672 -1.6843 0
M  V30 7996 O 740.674 -0.695704 -1.89002 0
M  V30 7997 C 737.739 -1.50397 -3.12381 0
M  V30 7998 C 736.8 -2.72835 -3.31451 0
M  V30 7999 C 736.033 -2.68283 -4.61368 0
M  V30 8000 O 736.256 -1.74929 -5.42914 0
M  V30 8001 O 735.19 -3.59308 -4.82889 0
M  V30 8002 H 739.016 -2.51493 -1.7025 0
M  V30 8003 H 736.601 -1.27282 -0.782289 0
M  V30 8004 H 738.483 -1.50301 -3.93685 0
M  V30 8005 H 737.158 -0.572197 -3.18603 0
M  V30 8006 H 736.065 -2.78496 -2.49781 0
M  V30 8007 H 737.398 -3.65098 -3.30098 0
M  V30 8008 N 739.05 0.861098 -1.31996 0
M  V30 8009 C 739.98 1.98482 -1.22993 0
M  V30 8010 C 740.961 1.6971 -0.115168 0
M  V30 8011 O 742.146 1.91849 -0.30126 0
M  V30 8012 C 739.276 3.34179 -0.945615 0
M  V30 8013 C 738.23 3.77284 -2.02091 0
M  V30 8014 C 737.556 5.1054 -1.58912 0
M  V30 8015 C 738.856 3.93439 -3.43515 0
M  V30 8016 H 740.55 2.06271 -2.17008 0
M  V30 8017 H 738.096 0.991043 -1.04472 0
M  V30 8018 H 740.049 4.12338 -0.869206 0
M  V30 8019 H 738.773 3.26586 0.0301849 0
M  V30 8020 H 737.432 3.01371 -2.08737 0
M  V30 8021 H 737.08 4.99397 -0.600942 0
M  V30 8022 H 736.78 5.40352 -2.30854 0
M  V30 8023 H 738.304 5.91199 -1.52696 0
M  V30 8024 H 739.718 4.6197 -3.39495 0
M  V30 8025 H 738.115 4.34661 -4.13751 0
M  V30 8026 H 739.185 2.96548 -3.8365 0
M  V30 8027 N 740.528 1.15101 1.07655 0
M  V30 8028 C 741.458 0.867864 2.16773 0
M  V30 8029 C 742.439 -0.180283 1.69142 0
M  V30 8030 O 743.624 -0.0353152 1.94168 0
M  V30 8031 C 740.754 0.35299 3.45501 0
M  V30 8032 C 739.708 1.33746 4.06566 0
M  V30 8033 C 739.034 0.681562 5.30338 0
M  V30 8034 C 740.334 2.7024 4.46954 0
M  V30 8035 H 742.028 1.78034 2.40716 0
M  V30 8036 H 739.574 0.857435 1.15689 0
M  V30 8037 H 741.527 0.142465 4.21159 0
M  V30 8038 H 740.251 -0.594945 3.21135 0
M  V30 8039 H 738.91 1.53429 3.32949 0
M  V30 8040 H 738.558 -0.272422 5.02262 0
M  V30 8041 H 738.258 1.33853 5.72151 0
M  V30 8042 H 739.782 0.48074 6.08705 0
M  V30 8043 H 741.196 2.5442 5.13754 0
M  V30 8044 H 739.593 3.32282 4.99709 0
M  V30 8045 H 740.663 3.26537 3.58471 0
M  V30 8046 N 742.006 -1.2595 0.947325 0
M  V30 8047 C 743.283 -1.88676 0.515824 0
M  V30 8048 C 743.663 -1.85547 -1.00675 0
M  V30 8049 O 743.011 -1.31399 -1.8694 0
M  V30 8050 C 743.221 -3.31734 1.08415 0
M  V30 8051 C 744.569 -4.08545 1.15654 0
M  V30 8052 O 745.593 -3.40826 1.03517 0
M  V30 8053 O 744.452 -5.29663 1.34608 0
M  V30 8054 H 741.546 -0.809537 0.169055 0
M  V30 8055 H 744.092 -1.34075 1.04029 0
M  V30 8056 H 742.864 -3.28404 2.1276 0
M  V30 8057 H 742.487 -3.93882 0.542499 0
M  V30 8058 N 743.484 -0.715051 -1.40445 0
M  V30 8059 C 744.431 -0.0621393 -2.30716 0
M  V30 8060 C 745.401 0.750871 -1.48159 0
M  V30 8061 O 746.586 0.714928 -1.76899 0
M  V30 8062 C 743.726 0.854036 -3.34365 0
M  V30 8063 C 742.839 0.0305565 -4.31989 0
M  V30 8064 C 741.974 0.946162 -5.22706 0
M  V30 8065 C 741.013 0.116741 -6.11989 0
M  V30 8066 N 740.15 0.987194 -6.95125 0
M  V30 8067 H 744.99 -0.83764 -2.85985 0
M  V30 8068 H 742.527 -0.424759 -1.40834 0
M  V30 8069 H 744.485 1.39946 -3.93028 0
M  V30 8070 H 743.115 1.59572 -2.806 0
M  V30 8071 H 742.167 -0.632044 -3.75112 0
M  V30 8072 H 743.479 -0.611615 -4.95036 0
M  V30 8073 H 742.633 1.56014 -5.86297 0
M  V30 8074 H 741.372 1.62216 -4.59932 0
M  V30 8075 H 740.377 -0.510176 -5.47428 0
M  V30 8076 H 741.602 -0.555742 -6.76822 0
M  V30 8077 H 739.548 1.64885 -6.3494 0
M  V30 8078 H 739.465 0.401046 -7.54936 0
M  V30 8079 H 740.733 1.58737 -7.63166 0
M  V30 8080 N 744.962 1.50701 -0.461195 0
M  V30 8081 C 746.211 2.01458 0.0988277 0
M  V30 8082 C 746.524 1.34863 1.41673 0
M  V30 8083 O 747.73 1.76721 2.06111 0
M  V30 8084 C 746.186 3.59186 0.226648 0
M  V30 8085 C 745.794 4.34732 -1.08223 0
M  V30 8086 C 747.538 4.18015 0.73916 0
M  V30 8087 C 745.445 5.8422 -0.918747 0
M  V30 8088 H 744.375 0.7529 0.040709 0
M  V30 8089 H 747.026 1.736 -0.594589 0
M  V30 8090 H 745.408 3.83589 0.983621 0
M  V30 8091 H 746.582 4.22059 -1.84939 0
M  V30 8092 H 744.897 3.87466 -1.52509 0
M  V30 8093 H 747.494 5.27436 0.878347 0
M  V30 8094 H 747.837 3.78746 1.72793 0
M  V30 8095 H 748.37 3.9778 0.0398469 0
M  V30 8096 H 745.109 6.27944 -1.88059 0
M  V30 8097 H 744.629 5.99493 -0.191801 0
M  V30 8098 H 746.308 6.44382 -0.581405 0
M  V30 8099 N 746.441 0.193421 1.56409 0
M  V30 8100 C 747.371 -0.723334 2.22014 0
M  V30 8101 C 748.352 -1.22254 1.1827 0
M  V30 8102 O 749.537 -1.27168 1.46771 0
M  V30 8103 C 746.667 -1.94366 2.87818 0
M  V30 8104 C 745.621 -1.57943 3.97791 0
M  V30 8105 C 744.947 -2.87623 4.50752 0
M  V30 8106 C 746.247 -0.790639 5.16281 0
M  V30 8107 H 747.941 -0.176426 2.9888 0
M  V30 8108 H 745.487 -0.0834166 1.43758 0
M  V30 8109 H 747.44 -2.5902 3.32396 0
M  V30 8110 H 746.164 -2.51507 2.08355 0
M  V30 8111 H 744.823 -0.956482 3.53903 0
M  V30 8112 H 744.471 -3.4285 3.68053 0
M  V30 8113 H 744.171 -2.63998 5.24956 0
M  V30 8114 H 745.695 -3.53268 4.9803 0
M  V30 8115 H 747.109 -1.34024 5.57414 0
M  V30 8116 H 745.506 -0.65258 5.96541 0
M  V30 8117 H 746.576 0.208633 4.84451 0
M  V30 8118 N 747.919 -1.57396 -0.0801906 0
M  V30 8119 C 749.335 -1.53564 -0.434778 0
M  V30 8120 C 749.535 -0.912372 -1.79661 0
M  V30 8121 O 748.591 -0.511268 -2.4727 0
M  V30 8122 C 749.904 -2.98244 -0.383561 0
M  V30 8123 C 751.452 -3.09536 -0.46435 0
M  V30 8124 C 751.927 -4.55851 -0.443128 0
M  V30 8125 N 753.418 -4.60456 -0.503448 0
M  V30 8126 C 754.153 -5.71135 -0.509106 0
M  V30 8127 N 753.649 -6.91203 -0.47008 0
M  V30 8128 N 755.442 -5.59353 -0.555035 0
M  V30 8129 H 747.593 -1.96281 0.811635 0
M  V30 8130 H 749.856 -0.898041 0.303689 0
M  V30 8131 H 749.562 -3.47369 0.550236 0
M  V30 8132 H 749.436 -3.57705 -1.19694 0
M  V30 8133 H 751.823 -2.6039 -1.38857 0
M  V30 8134 H 751.904 -2.53 0.377445 0
M  V30 8135 H 751.548 -5.05653 0.477207 0
M  V30 8136 H 751.478 -5.10242 -1.30234 0
M  V30 8137 H 753.969 -3.74048 -0.538199 0
M  V30 8138 H 754.282 -7.7132 -0.478091 0
M  V30 8139 H 752.627 -6.93625 -0.436897 0
M  V30 8140 H 755.818 -4.64453 -0.583158 0
M  V30 8141 H 755.991 -6.4561 -0.555976 0
M  V30 8142 N 749.397 0.351382 -1.53633 0
M  V30 8143 C 750.329 1.45159 -1.77374 0
M  V30 8144 C 751.342 1.4905 -0.654826 0
M  V30 8145 O 752.531 1.52274 -0.931396 0
M  V30 8146 C 749.631 2.83858 -1.85143 0
M  V30 8147 C 748.804 3.03498 -3.14972 0
M  V30 8148 C 747.863 4.22393 -3.138 0
M  V30 8149 O 746.889 4.16885 -3.87551 0
M  V30 8150 N 748.091 5.30533 -2.35617 0
M  V30 8151 H 750.856 1.25167 -2.72311 0
M  V30 8152 H 748.417 0.54121 -1.52586 0
M  V30 8153 H 750.409 3.61557 -1.8182 0
M  V30 8154 H 748.979 2.9703 -0.974275 0
M  V30 8155 H 748.199 2.13336 -3.31484 0
M  V30 8156 H 749.487 3.13498 -4.00745 0
M  V30 8157 H 748.885 5.37875 -1.75235 0
M  V30 8158 H 747.442 6.06756 -2.38098 0
M  V30 8159 N 750.875 1.45233 0.611969 0
M  V30 8160 C 751.822 1.5357 1.72293 0
M  V30 8161 C 752.792 0.381912 1.6165 0
M  V30 8162 O 753.977 0.594765 1.81293 0
M  V30 8163 C 751.117 1.50419 3.10593 0
M  V30 8164 C 750.23 2.76316 3.32074 0
M  V30 8165 C 749.365 2.64866 4.60456 0
M  V30 8166 C 748.404 3.85838 4.7518 0
M  V30 8167 N 747.541 3.72949 5.94856 0
M  V30 8168 H 752.381 2.4848 1.64504 0
M  V30 8169 H 749.918 1.23302 0.802191 0
M  V30 8170 H 751.876 1.4658 3.90602 0
M  V30 8171 H 750.506 0.590621 3.17351 0
M  V30 8172 H 749.558 2.90261 2.45872 0
M  V30 8173 H 750.87 3.66055 3.38829 0
M  V30 8174 H 750.024 2.58969 5.48653 0
M  V30 8175 H 748.763 1.72719 4.56092 0
M  V30 8176 H 747.768 3.92099 3.85407 0
M  V30 8177 H 748.993 4.79045 4.81344 0
M  V30 8178 H 746.939 2.83567 5.91545 0
M  V30 8179 H 746.856 4.56319 6.02751 0
M  V30 8180 H 748.124 3.70976 6.85563 0
M  V30 8181 N 752.353 -0.854086 1.3245 0
M  V30 8182 C 753.6 -1.60831 1.23043 0
M  V30 8183 C 753.928 -1.93389 -0.2076 0
M  V30 8184 O 753.183 -1.5756 -1.16075 0
M  V30 8185 C 753.482 -2.93746 2.03587 0
M  V30 8186 C 753.148 -2.80615 3.52939 0
M  V30 8187 C 751.81 -2.76742 3.93659 0
M  V30 8188 C 754.162 -2.66507 4.4791 0
M  V30 8189 C 751.49 -2.56638 5.27592 0
M  V30 8190 C 753.842 -2.47939 5.81987 0
M  V30 8191 C 752.506 -2.42458 6.21909 0
M  V30 8192 H 751.776 -0.588523 0.450247 0
M  V30 8193 H 754.423 -0.990699 1.63882 0
M  V30 8194 H 752.728 -3.5963 1.55478 0
M  V30 8195 H 754.425 -3.51127 1.93677 0
M  V30 8196 H 751.015 -2.84456 3.20598 0
M  V30 8197 H 755.199 -2.68544 4.1737 0
M  V30 8198 H 750.455 -2.50831 5.57579 0
M  V30 8199 H 754.629 -2.36002 6.55192 0
M  V30 8200 H 752.256 -2.2664 7.2563 0
M  V30 8201 N 753.831 -1.1567 -1.07043 0
M  V30 8202 C 755.078 -0.933517 -1.79699 0
M  V30 8203 C 755.406 0.539162 -1.86878 0
M  V30 8204 O 754.661 1.41592 -1.35093 0
M  V30 8205 C 754.96 -1.49677 -3.24548 0
M  V30 8206 C 754.626 -2.99047 -3.37463 0
M  V30 8207 C 753.288 -3.39824 -3.40695 0
M  V30 8208 C 755.64 -3.95027 -3.40004 0
M  V30 8209 C 752.968 -4.75215 -3.44075 0
M  V30 8210 C 755.32 -5.30295 -3.44921 0
M  V30 8211 C 753.984 -5.70562 -3.46432 0
M  V30 8212 H 753.254 -0.341598 -0.657565 0
M  V30 8213 H 755.901 -1.44263 -1.25938 0
M  V30 8214 H 754.206 -0.908915 -3.81111 0
M  V30 8215 H 755.903 -1.29986 -3.79348 0
M  V30 8216 H 752.493 -2.6653 -3.35648 0
M  V30 8217 H 756.677 -3.64596 -3.36725 0
M  V30 8218 H 751.933 -5.05754 -3.43545 0
M  V30 8219 H 756.107 -6.0446 -3.45833 0
M  V30 8220 H 753.734 -6.75456 -3.48803 0
M  V30 8221 N 755.309 1.25446 -0.953992 0
M  V30 8222 C 756.534 1.97755 -0.625129 0
M  V30 8223 C 756.959 1.70437 0.795787 0
M  V30 8224 O 756.317 0.95992 1.53803 0
M  V30 8225 C 756.365 3.49463 -0.889251 0
M  V30 8226 O 755.469 4.12387 0.0322757 0
M  V30 8227 H 754.81 0.61998 -0.237742 0
M  V30 8228 H 757.34 1.59582 -1.28041 0
M  V30 8229 H 757.35 3.99772 -0.815263 0
M  V30 8230 H 756.025 3.68676 -1.92487 0
M  V30 8231 H 754.602 3.72782 -0.0938625 0
M  V30 8232 N 756.787 0.722489 1.40064 0
M  V30 8233 C 757.697 0.0755984 2.34478 0
M  V30 8234 C 758.713 -0.736046 1.57665 0
M  V30 8235 O 759.889 -0.667407 1.9002 0
M  V30 8236 C 756.954 -0.830075 3.36616 0
M  V30 8237 C 756.015 -0.00759884 4.29299 0
M  V30 8238 C 755.248 -0.870139 5.26559 0
M  V30 8239 O 755.471 -2.10921 5.2997 0
M  V30 8240 O 754.405 -0.305454 6.01124 0
M  V30 8241 H 758.231 0.854545 2.9143 0
M  V30 8242 H 755.816 0.483032 1.41376 0
M  V30 8243 H 757.698 -1.34864 3.99236 0
M  V30 8244 H 756.373 -1.58805 2.82069 0
M  V30 8245 H 755.28 0.556199 3.69942 0
M  V30 8246 H 756.613 0.712312 4.87018 0
M  V30 8247 N 758.265 -1.50454 0.469181 0
M  V30 8248 C 759.681 -1.59124 0.123226 0
M  V30 8249 C 759.881 -1.47749 -1.37013 0
M  V30 8250 O 758.937 -1.335 -2.14322 0
M  V30 8251 C 760.25 -2.93101 0.67172 0
M  V30 8252 C 761.798 -3.06491 0.634978 0
M  V30 8253 C 762.273 -4.43041 1.16098 0
M  V30 8254 N 763.764 -4.49448 1.12031 0
M  V30 8255 C 764.499 -5.53491 1.49784 0
M  V30 8256 N 763.995 -6.64798 1.94976 0
M  V30 8257 N 765.788 -5.44025 1.41399 0
M  V30 8258 H 757.939 -1.56091 1.44046 0
M  V30 8259 H 760.202 -0.737564 0.59557 0
M  V30 8260 H 759.908 -3.06895 1.7178 0
M  V30 8261 H 759.782 -3.77027 0.114222 0
M  V30 8262 H 762.169 -2.92346 -0.402187 0
M  V30 8263 H 762.25 -2.24328 1.22926 0
M  V30 8264 H 761.894 -4.57935 2.19677 0
M  V30 8265 H 761.824 -5.23794 0.542939 0
M  V30 8266 H 764.315 -3.69575 0.788828 0
M  V30 8267 H 764.628 -7.40246 2.21936 0
M  V30 8268 H 762.973 -6.65923 1.98927 0
M  V30 8269 H 766.164 -4.55955 1.05935 0
M  V30 8270 H 766.337 -6.2499 1.71147 0
M  V30 8271 N 759.743 -0.201713 -1.56304 0
M  V30 8272 C 760.653 0.728296 -2.23009 0
M  V30 8273 C 761.669 1.22945 -1.23128 0
M  V30 8274 O 762.845 1.27523 -1.55884 0
M  V30 8275 C 759.91 1.92792 -2.88153 0
M  V30 8276 C 758.971 1.47068 -4.03323 0
M  V30 8277 C 758.204 2.61312 -4.65351 0
M  V30 8278 O 758.427 3.7896 -4.26317 0
M  V30 8279 O 757.361 2.33646 -5.54701 0
M  V30 8280 H 761.187 0.190166 -3.03104 0
M  V30 8281 H 758.772 0.0278725 -1.49374 0
M  V30 8282 H 760.654 2.6289 -3.29343 0
M  V30 8283 H 759.329 2.45452 -2.11033 0
M  V30 8284 H 758.236 0.738299 -3.66742 0
M  V30 8285 H 759.569 0.990666 -4.82127 0
M  V30 8286 N 761.222 1.57436 0.0718424 0
M  V30 8287 C 762.185 2.02703 1.06977 0
M  V30 8288 C 763.185 0.924062 1.31597 0
M  V30 8289 O 764.375 1.18894 1.27318 0
M  V30 8290 C 761.507 2.40763 2.41342 0
M  V30 8291 H 762.7 2.92098 0.679619 0
M  V30 8292 H 760.253 1.5304 0.317565 0
M  V30 8293 H 760.988 1.54394 2.8519 0
M  V30 8294 H 760.773 3.21249 2.24814 0
M  V30 8295 H 762.263 2.76361 3.13073 0
M  V30 8296 N 762.7 -0.34323 1.53817 0
M  V30 8297 C 763.925 -1.1079 1.75329 0
M  V30 8298 C 764.35 -1.81571 0.491293 0
M  V30 8299 O 763.708 -1.72561 -0.556089 0
M  V30 8300 C 763.756 -2.09681 2.9337 0
M  V30 8301 O 762.86 -3.17207 2.63541 0
M  V30 8302 H 762.201 -0.320402 0.581583 0
M  V30 8303 H 764.731 -0.393525 2.0078 0
M  V30 8304 H 764.741 -2.52897 3.20168 0
M  V30 8305 H 763.416 -1.5756 3.84899 0
M  V30 8306 H 761.993 -2.78806 2.47632 0
M  V30 8307 N 764.178 -1.45556 -0.604258 0
M  V30 8308 C 765.141 -1.54091 -1.69672 0
M  V30 8309 C 766.141 -0.420076 -1.55216 0
M  V30 8310 O 767.331 -0.683671 -1.60224 0
M  V30 8311 C 764.463 -1.44063 -3.08964 0
M  V30 8312 H 765.656 -2.51431 -1.6347 0
M  V30 8313 H 763.209 -1.33046 -0.820273 0
M  V30 8314 H 763.944 -0.479201 -3.2074 0
M  V30 8315 H 763.729 -2.25362 -3.20865 0
M  V30 8316 H 765.219 -1.53075 -3.88533 0
M  V30 8317 N 765.656 0.84705 -1.32902 0
M  V30 8318 C 766.902 1.60414 -1.24078 0
M  V30 8319 C 767.235 1.93217 0.195105 0
M  V30 8320 O 766.51 1.58001 1.13428 0
M  V30 8321 C 766.793 2.91951 -2.108 0
M  V30 8322 C 766.646 2.6588 -3.62805 0
M  V30 8323 C 767.965 3.93299 -1.97494 0
M  V30 8324 H 765.084 0.58206 -0.452079 0
M  V30 8325 H 767.726 0.977562 -1.62922 0
M  V30 8326 H 765.876 3.45425 -1.77802 0
M  V30 8327 H 767.548 2.18902 -4.06054 0
M  V30 8328 H 765.791 1.99716 -3.85092 0
M  V30 8329 H 766.462 3.59574 -4.1882 0
M  V30 8330 H 768.938 3.49105 -2.26417 0
M  V30 8331 H 767.814 4.8318 -2.60438 0
M  V30 8332 H 768.075 4.31887 -0.944782 0
M  V30 8333 N 767.134 1.16236 1.06428 0
M  V30 8334 C 768.064 0.890807 2.1584 0
M  V30 8335 C 769.045 -0.162333 1.69324 0
M  V30 8336 O 770.23 -0.0147191 1.94194 0
M  V30 8337 C 767.36 0.389615 3.45108 0
M  V30 8338 C 766.314 1.38051 4.05125 0
M  V30 8339 C 765.64 0.737773 5.29586 0
M  V30 8340 C 766.94 2.74965 4.44062 0
M  V30 8341 H 768.634 1.80577 2.38814 0
M  V30 8342 H 766.18 0.869657 1.14774 0
M  V30 8343 H 768.133 0.187127 4.20984 0
M  V30 8344 H 766.857 -0.560851 3.21748 0
M  V30 8345 H 765.516 1.56952 3.31303 0
M  V30 8346 H 765.164 -0.219135 5.02522 0
M  V30 8347 H 764.864 1.39914 5.70699 0
M  V30 8348 H 766.388 0.545275 6.0816 0
M  V30 8349 H 767.802 2.59855 5.11027 0
M  V30 8350 H 766.199 3.37563 4.96156 0
M  V30 8351 H 767.269 3.30321 3.54987 0
M  V30 8352 N 768.612 -1.24939 0.960631 0
M  V30 8353 C 769.859 -1.92818 0.618663 0
M  V30 8354 C 770.187 -1.75177 -0.845173 0
M  V30 8355 O 769.442 -1.09412 -1.62258 0
M  V30 8356 C 769.741 -3.45066 0.930809 0
M  V30 8357 C 769.407 -3.82869 2.38164 0
M  V30 8358 C 768.069 -3.92899 2.7782 0
M  V30 8359 C 770.421 -4.01483 3.32356 0
M  V30 8360 C 767.749 -4.18955 4.10723 0
M  V30 8361 C 770.101 -4.29033 4.6488 0
M  V30 8362 C 768.765 -4.37282 5.04322 0
M  V30 8363 H 768.035 -0.705571 0.226385 0
M  V30 8364 H 770.682 -1.48365 1.21079 0
M  V30 8365 H 768.987 -3.9096 0.256355 0
M  V30 8366 H 770.684 -3.95783 0.644712 0
M  V30 8367 H 767.274 -3.75622 2.06413 0
M  V30 8368 H 771.458 -3.93143 3.02907 0
M  V30 8369 H 766.714 -4.23558 4.40918 0
M  V30 8370 H 770.888 -4.42381 5.3784 0
M  V30 8371 H 768.515 -4.57225 6.0733 0
M  V30 8372 N 770.09 -0.729906 -1.39679 0
M  V30 8373 C 771.318 -0.285709 -2.04918 0
M  V30 8374 C 771.733 1.07765 -1.55023 0
M  V30 8375 O 771.09 1.67999 -0.712923 0
M  V30 8376 C 771.141 -0.272793 -3.60469 0
M  V30 8377 O 770.862 -1.58233 -4.08527 0
M  V30 8378 C 772.363 0.188199 -4.429 0
M  V30 8379 H 769.583 -0.125758 -0.65911 0
M  V30 8380 H 772.127 -0.992129 -1.78821 0
M  V30 8381 H 770.282 0.384699 -3.85485 0
M  V30 8382 H 770.696 -1.49245 -5.02818 0
M  V30 8383 H 772.17 0.14608 -5.51807 0
M  V30 8384 H 772.647 1.2326 -4.21549 0
M  V30 8385 H 773.253 -0.439541 -4.23023 0
M  V30 8386 N 771.568 1.50203 -0.477153 0
M  V30 8387 C 772.817 2.01551 0.0774548 0
M  V30 8388 C 773.13 1.36359 1.40234 0
M  V30 8389 O 774.336 1.78898 2.04225 0
M  V30 8390 C 772.792 3.59406 0.188539 0
M  V30 8391 C 772.4 4.3356 -1.12828 0
M  V30 8392 C 774.144 4.18776 0.694782 0
M  V30 8393 C 772.051 5.83213 -0.98066 0
M  V30 8394 H 770.981 0.75329 0.0327212 0
M  V30 8395 H 773.632 1.72959 -0.612969 0
M  V30 8396 H 772.014 3.84611 0.942881 0
M  V30 8397 H 773.188 4.20074 -1.89405 0
M  V30 8398 H 771.503 3.85827 -1.5661 0
M  V30 8399 H 774.1 5.28338 0.822356 0
M  V30 8400 H 774.443 3.80557 1.68766 0
M  V30 8401 H 774.976 3.978 -0.00234519 0
M  V30 8402 H 771.715 6.25914 -1.94709 0
M  V30 8403 H 771.235 5.99256 -0.255375 0
M  V30 8404 H 772.914 6.4373 -0.649717 0
M  V30 8405 N 773.046 0.209999 1.56195 0
M  V30 8406 C 774.274 -0.429996 2.02382 0
M  V30 8407 C 774.689 -1.54159 1.08998 0
M  V30 8408 O 774.046 -1.82239 0.0974856 0
M  V30 8409 C 774.097 -0.972433 3.48175 0
M  V30 8410 O 773.818 0.0948231 4.37997 0
M  V30 8411 C 775.319 -1.68683 4.09952 0
M  V30 8412 H 772.539 -0.106475 0.662498 0
M  V30 8413 H 775.083 0.323072 2.01932 0
M  V30 8414 H 773.238 -1.67582 3.49278 0
M  V30 8415 H 773.652 -0.31113 5.23576 0
M  V30 8416 H 775.126 -2.01851 5.13771 0
M  V30 8417 H 775.603 -2.59587 3.54276 0
M  V30 8418 H 776.209 -1.02893 4.12666 0
M  V30 8419 N 774.524 -1.57472 -0.0634922 0
M  V30 8420 C 775.471 -2.04258 -1.07457 0
M  V30 8421 C 776.441 -0.924804 -1.37973 0
M  V30 8422 O 777.626 -1.19305 -1.48899 0
M  V30 8423 C 774.766 -2.49832 -2.38071 0
M  V30 8424 C 773.879 -3.75263 -2.14014 0
M  V30 8425 C 773.014 -4.09585 -3.38251 0
M  V30 8426 C 772.053 -5.28032 -3.09594 0
M  V30 8427 N 771.19 -5.57953 -4.26185 0
M  V30 8428 H 776.03 -2.90402 -0.668626 0
M  V30 8429 H 773.567 -1.43609 -0.318572 0
M  V30 8430 H 775.525 -2.7431 -3.14341 0
M  V30 8431 H 774.155 -1.66654 -2.76453 0
M  V30 8432 H 773.207 -3.58075 -1.28399 0
M  V30 8433 H 774.519 -4.61667 -1.88852 0
M  V30 8434 H 773.673 -4.35008 -4.2291 0
M  V30 8435 H 772.412 -3.21765 -3.66495 0
M  V30 8436 H 771.417 -5.02397 -2.23332 0
M  V30 8437 H 772.642 -6.17477 -2.82663 0
M  V30 8438 H 770.588 -4.73092 -4.54445 0
M  V30 8439 H 770.505 -6.38793 -4.04326 0
M  V30 8440 H 771.773 -5.87931 -5.11817 0
M  V30 8441 N 776.003 0.335068 -1.53997 0
M  V30 8442 C 777.231 1.09418 -1.756 0
M  V30 8443 C 777.646 1.82083 -0.499138 0
M  V30 8444 O 777.003 1.74646 0.529631 0
M  V30 8445 C 777.054 2.10115 -2.94166 0
M  V30 8446 O 776.775 1.40404 -4.14992 0
M  V30 8447 C 778.276 2.98336 -3.27888 0
M  V30 8448 H 775.496 0.32595 -0.586513 0
M  V30 8449 H 778.04 0.384693 -2.00849 0
M  V30 8450 H 776.195 2.76616 -2.71224 0
M  V30 8451 H 776.609 2.07743 -4.81605 0
M  V30 8452 H 778.083 3.6491 -4.1418 0
M  V30 8453 H 778.56 3.64814 -2.44556 0
M  V30 8454 H 779.166 2.37412 -3.52868 0
M  V30 8455 N 777.481 1.45874 0.596531 0
M  V30 8456 C 778.727 1.5069 1.35722 0
M  V30 8457 C 779.06 0.152506 1.936 0
M  V30 8458 O 778.335 -0.834411 1.75692 0
M  V30 8459 C 778.618 2.59474 2.4969 0
M  V30 8460 C 778.471 4.04396 1.96937 0
M  V30 8461 C 779.79 2.64451 3.51787 0
M  V30 8462 H 776.909 0.548611 0.492133 0
M  V30 8463 H 779.551 1.77741 0.671428 0
M  V30 8464 H 777.701 2.36539 3.08191 0
M  V30 8465 H 779.373 4.38576 1.43 0
M  V30 8466 H 777.616 4.14529 1.27859 0
M  V30 8467 H 778.287 4.76218 2.79143 0
M  V30 8468 H 780.763 2.85031 3.03145 0
M  V30 8469 H 779.639 3.42411 4.29006 0
M  V30 8470 H 779.9 1.69965 4.08123 0
M  V30 8471 N 778.959 -0.83999 1.33349 0
M  V30 8472 C 779.869 -1.98182 1.25543 0
M  V30 8473 C 780.885 -1.73204 0.166208 0
M  V30 8474 O 782.061 -1.97596 0.389589 0
M  V30 8475 C 779.126 -3.32157 0.993614 0
M  V30 8476 C 778.187 -3.70258 2.17273 0
M  V30 8477 C 777.42 -4.9784 1.92331 0
M  V30 8478 O 777.643 -5.63679 0.873074 0
M  V30 8479 O 776.577 -5.33418 2.78835 0
M  V30 8480 H 780.403 -2.07708 2.21565 0
M  V30 8481 H 777.988 -0.972852 1.13384 0
M  V30 8482 H 779.87 -4.12433 0.864711 0
M  V30 8483 H 778.545 -3.23637 0.0636596 0
M  V30 8484 H 777.452 -2.90497 2.35716 0
M  V30 8485 H 778.785 -3.83442 3.08598 0
M  V30 8486 N 780.437 -1.16799 -1.0581 0
M  V30 8487 C 781.667 -0.975454 -1.82122 0
M  V30 8488 C 782.075 0.479584 -1.83021 0
M  V30 8489 O 781.418 1.34471 -1.25153 0
M  V30 8490 C 781.48 -1.43209 -3.29744 0
M  V30 8491 C 781.144 -2.908 -3.5254 0
M  V30 8492 C 782.141 -3.88775 -3.45181 0
M  V30 8493 C 779.826 -3.28832 -3.79703 0
M  V30 8494 C 781.82 -5.22782 -3.64661 0
M  V30 8495 C 779.507 -4.63007 -3.98832 0
M  V30 8496 C 780.505 -5.59791 -3.91309 0
M  V30 8497 O 780.193 -6.9154 -4.09911 0
M  V30 8498 H 779.925 -0.345655 -0.580947 0
M  V30 8499 H 782.479 -1.55355 -1.34365 0
M  V30 8500 H 780.709 -0.797504 -3.78387 0
M  V30 8501 H 782.398 -1.2062 -3.87564 0
M  V30 8502 H 783.164 -3.60738 -3.2418 0
M  V30 8503 H 779.043 -2.54073 -3.84666 0
M  V30 8504 H 782.587 -5.98312 -3.58705 0
M  V30 8505 H 778.484 -4.90752 -4.19324 0
M  V30 8506 H 779.252 -6.98188 -4.27172 0
M  V30 8507 N 781.915 1.24427 -0.967243 0
M  V30 8508 C 782.845 2.2773 -0.515899 0
M  V30 8509 C 783.826 1.64197 0.444227 0
M  V30 8510 O 785.011 1.91193 0.340451 0
M  V30 8511 C 782.141 3.46751 0.195149 0
M  V30 8512 C 781.095 4.22548 -0.680953 0
M  V30 8513 C 780.421 5.34456 0.161561 0
M  V30 8514 C 781.721 4.83914 -1.96532 0
M  V30 8515 H 783.415 2.65735 -1.37933 0
M  V30 8516 H 780.961 1.27742 -0.664681 0
M  V30 8517 H 782.914 4.18153 0.522117 0
M  V30 8518 H 781.638 3.07771 1.09292 0
M  V30 8519 H 780.297 3.52946 -0.991186 0
M  V30 8520 H 779.945 4.91716 1.05947 0
M  V30 8521 H 779.645 5.86087 -0.421418 0
M  V30 8522 H 781.169 6.08685 0.483211 0
M  V30 8523 H 782.583 5.47392 -1.70396 0
M  V30 8524 H 780.98 5.45775 -2.49499 0
M  V30 8525 H 782.05 4.05393 -2.66053 0
M  V30 8526 N 783.393 0.737304 1.3929 0
M  V30 8527 C 784.343 0.0748537 2.27877 0
M  V30 8528 C 785.327 -0.71022 1.44377 0
M  V30 8529 O 786.519 -0.578851 1.67267 0
M  V30 8530 C 783.648 -0.82991 3.33118 0
M  V30 8531 C 782.734 -0.0388619 4.24082 0
M  V30 8532 N 783.125 0.989182 4.96033 0
M  V30 8533 C 781.423 -0.268167 4.45193 0
M  V30 8534 C 782.124 1.46639 5.62914 0
M  V30 8535 N 781.1 0.784581 5.37908 0
M  V30 8536 H 784.902 0.862457 2.80961 0
M  V30 8537 H 782.416 0.571845 1.51999 0
M  V30 8538 H 784.413 -1.31999 3.95452 0
M  V30 8539 H 783.073 -1.61665 2.81593 0
M  V30 8540 H 784.084 1.3706 4.99435 0
M  V30 8541 H 780.761 -1.02953 4.04607 0
M  V30 8542 H 782.151 2.32182 6.30508 0
M  V30 8543 N 784.871 -1.49948 0.485112 0
M  V30 8544 C 785.834 -2.27351 -0.290546 0
M  V30 8545 C 786.834 -1.32704 -0.908087 0
M  V30 8546 O 788.024 -1.56007 -0.775085 0
M  V30 8547 C 785.156 -3.10135 -1.41524 0
M  V30 8548 H 786.349 -2.97374 0.388454 0
M  V30 8549 H 783.902 -1.54453 0.239586 0
M  V30 8550 H 784.637 -2.44641 -2.12888 0
M  V30 8551 H 784.422 -3.79705 -0.978074 0
M  V30 8552 H 785.912 -3.68638 -1.96204 0
M  V30 8553 N 786.349 -0.21828 -1.56081 0
M  V30 8554 C 787.281 0.725447 -2.17416 0
M  V30 8555 C 788.294 1.15995 -1.14233 0
M  V30 8556 O 789.483 1.09166 -1.41227 0
M  V30 8557 C 786.583 1.99401 -2.7403 0
M  V30 8558 C 785.756 1.7156 -4.02351 0
M  V30 8559 C 784.815 2.8309 -4.43561 0
M  V30 8560 O 783.841 2.51701 -5.10525 0
M  V30 8561 N 785.043 4.11972 -4.08973 0
M  V30 8562 H 787.808 0.200801 -2.99027 0
M  V30 8563 H 785.369 -0.0371514 -1.61857 0
M  V30 8564 H 787.361 2.73198 -2.98571 0
M  V30 8565 H 785.931 2.42923 -1.96742 0
M  V30 8566 H 785.151 0.814233 -3.85699 0
M  V30 8567 H 786.439 1.50385 -4.86068 0
M  V30 8568 H 785.837 4.40319 -3.55156 0
M  V30 8569 H 784.394 4.82323 -4.38415 0
M  V30 8570 N 787.827 1.57504 0.0551401 0
M  V30 8571 C 789.075 1.87684 0.74962 0
M  V30 8572 C 789.396 0.812547 1.77264 0
M  V30 8573 O 788.666 -0.15694 1.9527 0
M  V30 8574 H 787.246 0.6926 0.279846 0
M  V30 8575 H 789.908 1.94881 0.0272745 0
M  V30 8576 H 789.004 2.85734 1.25548 0
M  V30 8577 N 789.305 -0.326896 1.54172 0
M  V30 8578 C 790.551 -1.06681 1.72473 0
M  V30 8579 C 790.884 -1.87779 0.49523 0
M  V30 8580 O 790.159 -1.87754 -0.507803 0
M  V30 8581 C 790.442 -1.99429 2.99834 0
M  V30 8582 C 790.295 -1.21682 4.33028 0
M  V30 8583 C 791.614 -2.99002 3.22933 0
M  V30 8584 H 788.733 -0.386438 0.627563 0
M  V30 8585 H 791.375 -0.343779 1.86864 0
M  V30 8586 H 789.525 -2.61081 2.87696 0
M  V30 8587 H 791.197 -0.625153 4.57044 0
M  V30 8588 H 789.44 -0.519045 4.30684 0
M  V30 8589 H 790.111 -1.89766 5.18356 0
M  V30 8590 H 792.587 -2.4747 3.34511 0
M  V30 8591 H 791.463 -3.61085 4.13412 0
M  V30 8592 H 791.724 -3.71281 2.40006 0
M  V30 8593 N 790.784 -1.46188 -0.588786 0
M  V30 8594 C 792.03 -1.51407 -1.34921 0
M  V30 8595 C 792.363 -0.162771 -1.93517 0
M  V30 8596 O 791.638 0.825082 -1.76132 0
M  V30 8597 C 791.921 -2.60795 -2.48311 0
M  V30 8598 C 791.774 -4.05435 -1.94789 0
M  V30 8599 C 793.093 -2.66313 -3.50379 0
M  V30 8600 H 790.212 -0.551213 -0.489217 0
M  V30 8601 H 792.854 -1.78095 -0.661993 0
M  V30 8602 H 791.004 -2.3817 -3.06932 0
M  V30 8603 H 792.676 -4.39328 -1.40672 0
M  V30 8604 H 790.919 -4.15202 -1.25659 0
M  V30 8605 H 791.59 -4.77691 -2.76613 0
M  V30 8606 H 794.066 -2.86634 -3.01629 0
M  V30 8607 H 792.942 -3.44681 -4.27184 0
M  V30 8608 H 793.203 -1.72127 -4.07216 0
M  V30 8609 N 792.262 0.832906 -1.33792 0
M  V30 8610 C 793.212 1.93178 -1.21105 0
M  V30 8611 C 794.196 1.60506 -0.112491 0
M  V30 8612 O 795.388 1.73681 -0.341179 0
M  V30 8613 C 792.517 3.29647 -0.958526 0
M  V30 8614 C 791.603 3.68469 -2.0998 0
M  V30 8615 N 791.994 3.78936 -3.35024 0
M  V30 8616 C 790.292 3.98249 -2.00782 0
M  V30 8617 C 790.993 4.12731 -4.09912 0
M  V30 8618 N 789.969 4.25419 -3.38407 0
M  V30 8619 H 793.771 1.99434 -2.15878 0
M  V30 8620 H 791.285 1.02598 -1.25886 0
M  V30 8621 H 793.282 4.08173 -0.848552 0
M  V30 8622 H 791.942 3.24694 -0.019387 0
M  V30 8623 H 792.953 3.62688 -3.69699 0
M  V30 8624 H 789.63 4.01474 -1.14564 0
M  V30 8625 H 791.02 4.28117 -5.17847 0
M  V30 8626 N 793.74 1.17359 1.05189 0
M  V30 8627 C 795.156 0.920861 1.30355 0
M  V30 8628 C 795.356 -0.419993 1.97074 0
M  V30 8629 O 794.412 -1.15696 2.24434 0
M  V30 8630 C 795.725 2.07818 2.1733 0
M  V30 8631 C 797.273 2.1152 2.30712 0
M  V30 8632 C 797.748 3.26637 3.21048 0
M  V30 8633 N 799.239 3.26426 3.28634 0
M  V30 8634 C 799.974 4.12141 3.98657 0
M  V30 8635 N 799.47 5.07966 4.71107 0
M  V30 8636 N 801.263 4.00091 3.94821 0
M  V30 8637 H 793.414 2.03666 0.602821 0
M  V30 8638 H 795.677 0.889294 0.328421 0
M  V30 8639 H 795.383 3.04727 1.75597 0
M  V30 8640 H 795.257 2.02922 3.17966 0
M  V30 8641 H 797.644 1.15196 2.71687 0
M  V30 8642 H 797.725 2.20477 1.29706 0
M  V30 8643 H 797.369 4.23227 2.80788 0
M  V30 8644 H 797.299 3.14917 4.2206 0
M  V30 8645 H 799.79 2.57045 2.77013 0
M  V30 8646 H 800.103 5.69766 5.22099 0
M  V30 8647 H 798.448 5.11936 4.7005 0
M  V30 8648 H 801.639 3.24523 3.37346 0
M  V30 8649 H 801.812 4.6711 4.49123 0
M  V30 8650 N 795.218 -1.23913 0.973828 0
M  V30 8651 C 796.495 -1.87539 0.555729 0
M  V30 8652 C 796.875 -1.87641 -0.967162 0
M  V30 8653 O 796.223 -1.35335 -1.84111 0
M  V30 8654 C 796.433 -3.29359 1.15427 0
M  V30 8655 C 797.781 -4.06 1.24294 0
M  V30 8656 O 798.805 -3.38554 1.10723 0
M  V30 8657 O 797.664 -5.26689 1.45813 0
M  V30 8658 H 794.758 -0.805769 0.186188 0
M  V30 8659 H 797.304 -1.31838 1.06849 0
M  V30 8660 H 796.076 -3.23817 2.19678 0
M  V30 8661 H 795.699 -3.92642 0.625925 0
M  V30 8662 N 796.696 -0.74468 -1.38897 0
M  V30 8663 C 797.626 -0.126355 -2.33158 0
M  V30 8664 C 798.607 0.713517 -1.54412 0
M  V30 8665 O 799.792 0.656523 -1.82766 0
M  V30 8666 C 796.922 0.774375 -3.38557 0
M  V30 8667 C 795.876 0.0379214 -4.27983 0
M  V30 8668 C 795.202 1.05631 -5.24162 0
M  V30 8669 C 796.502 -1.12523 -5.10035 0
M  V30 8670 H 798.196 -0.913744 -2.85116 0
M  V30 8671 H 795.742 -0.440847 -1.37086 0
M  V30 8672 H 797.695 1.21655 -4.03458 0
M  V30 8673 H 796.419 1.59399 -2.85061 0
M  V30 8674 H 795.078 -0.384733 -3.64576 0
M  V30 8675 H 794.726 1.86975 -4.66958 0
M  V30 8676 H 794.426 0.568261 -5.84846 0
M  V30 8677 H 795.95 1.49799 -5.9194 0
M  V30 8678 H 797.364 -0.761037 -5.68226 0
M  V30 8679 H 795.761 -1.54355 -5.79909 0
M  V30 8680 H 796.831 -1.94237 -4.44297 0
M  V30 8681 N 798.174 1.49689 -0.493057 0
M  V30 8682 C 799.121 2.28976 0.28959 0
M  V30 8683 C 800.091 1.35011 0.967536 0
M  V30 8684 O 801.276 1.63964 0.975736 0
M  V30 8685 C 798.416 3.1748 1.35279 0
M  V30 8686 C 797.529 4.26496 0.687418 0
M  V30 8687 C 796.664 5.02226 1.73038 0
M  V30 8688 C 795.703 6.03089 1.04645 0
M  V30 8689 N 794.84 6.72014 2.03325 0
M  V30 8690 H 799.68 2.954 -0.392798 0
M  V30 8691 H 797.217 1.45657 -0.205554 0
M  V30 8692 H 799.175 3.67162 1.98111 0
M  V30 8693 H 797.805 2.53057 2.00405 0
M  V30 8694 H 796.857 3.80362 -0.0540001 0
M  V30 8695 H 798.169 4.98578 0.14864 0
M  V30 8696 H 797.323 5.55737 2.43395 0
M  V30 8697 H 796.062 4.29899 2.303 0
M  V30 8698 H 795.067 5.48817 0.328606 0
M  V30 8699 H 796.292 6.77398 0.480428 0
M  V30 8700 H 794.238 6.02464 2.59564 0
M  V30 8701 H 794.155 7.40046 1.54492 0
M  V30 8702 H 795.423 7.30133 2.72995 0
M  V30 8703 N 799.652 0.226554 1.55963 0
M  V30 8704 C 801.063 -0.280381 1.84583 0
M  V30 8705 C 801.414 -1.59105 1.14804 0
M  V30 8706 O 800.539 -2.12297 0.419414 0
M  V30 8707 C 801.134 -0.515499 3.34855 0
M  V30 8708 C 799.693 -0.966733 3.63774 0
M  V30 8709 C 798.84 -0.0325753 2.77281 0
M  V30 8710 H 801.791 0.449626 1.52197 0
M  V30 8711 H 801.812 -1.36085 3.55332 0
M  V30 8712 H 801.324 0.438594 3.85614 0
M  V30 8713 H 799.425 -1.93401 3.18476 0
M  V30 8714 H 799.538 -0.837679 4.7172 0
M  V30 8715 H 797.902 -0.540279 2.48904 0
M  V30 8716 H 798.685 0.916524 3.30839 0
M  V30 8717 N 801.13 -1.57531 -0.0467866 0
M  V30 8718 C 802.355 -1.93087 -0.757123 0
M  V30 8719 C 802.78 -0.825116 -1.69037 0
M  V30 8720 O 802.138 0.220449 -1.79955 0
M  V30 8721 C 802.186 -3.27669 -1.5055 0
M  V30 8722 O 801.29 -3.18667 -2.61773 0
M  V30 8723 H 800.631 -0.631597 -0.204892 0
M  V30 8724 H 803.161 -2.04599 -0.00755232 0
M  V30 8725 H 803.171 -3.6214 -1.87932 0
M  V30 8726 H 801.846 -4.07717 -0.820931 0
M  V30 8727 H 800.423 -2.95798 -2.27064 0
M  V30 8728 N 802.608 0.318715 -1.54344 0
M  V30 8729 C 803.556 1.41254 -1.84798 0
M  V30 8730 C 804.55 1.53325 -0.720256 0
M  V30 8731 O 805.756 1.55653 -0.903992 0
M  V30 8732 H 802.131 0.471468 -0.585851 0
M  V30 8733 H 804.102 1.12795 -2.7626 0
M  V30 8734 C 802.851 2.77395 -2.09637 0
M  V30 8735 H 802.174 2.68881 -2.95876 0
M  V30 8736 H 803.614 3.52987 -2.34896 0
M  V30 8737 C 802.073 3.24948 -0.889398 0
M  V30 8738 O 802.603 4.01573 -0.101063 0
M  V30 8739 N 800.809 2.82051 -0.699684 0
M  V30 8740 H 800.356 2.19858 -1.3424 0
M  V30 8741 H 800.314 3.1422 0.106368 0
M  V30 8742 N 804.086 1.46499 0.581025 0
M  V30 8743 C 805.335 1.51162 1.3354 0
M  V30 8744 C 805.648 0.168433 1.94873 0
M  V30 8745 O 806.854 0.092883 2.71341 0
M  V30 8746 C 805.31 2.66362 2.42032 0
M  V30 8747 C 804.918 4.07109 1.86994 0
M  V30 8748 C 806.662 2.80297 3.188 0
M  V30 8749 C 804.569 5.13645 2.93125 0
M  V30 8750 H 803.499 0.562576 0.502021 0
M  V30 8751 H 806.15 1.72713 0.619863 0
M  V30 8752 H 804.532 2.38143 3.16392 0
M  V30 8753 H 805.706 4.45125 1.19166 0
M  V30 8754 H 804.021 3.97854 1.22887 0
M  V30 8755 H 806.618 3.5706 3.9801 0
M  V30 8756 H 806.961 1.87875 3.71495 0
M  V30 8757 H 807.494 3.0817 2.51547 0
M  V30 8758 H 804.233 6.07866 2.45315 0
M  V30 8759 H 803.753 4.80172 3.59437 0
M  V30 8760 H 805.432 5.39562 3.57046 0
M  V30 8761 N 805.565 -0.825799 1.34232 0
M  V30 8762 C 806.495 -1.95151 1.28212 0
M  V30 8763 C 807.476 -1.69345 0.160123 0
M  V30 8764 O 808.661 -1.90983 0.352019 0
M  V30 8765 C 805.791 -3.31554 1.03388 0
M  V30 8766 C 804.745 -3.71793 2.12023 0
M  V30 8767 C 804.071 -5.06147 1.72392 0
M  V30 8768 C 805.371 -3.84193 3.53826 0
M  V30 8769 H 807.065 -2.00445 2.22401 0
M  V30 8770 H 804.611 -0.962996 1.07063 0
M  V30 8771 H 806.564 -4.09889 0.978225 0
M  V30 8772 H 805.288 -3.26551 0.0564142 0
M  V30 8773 H 803.947 -2.95731 2.16654 0
M  V30 8774 H 803.595 -4.97628 0.733137 0
M  V30 8775 H 803.295 -5.34041 2.451 0
M  V30 8776 H 804.819 -5.86943 1.68317 0
M  V30 8777 H 806.233 -4.52806 3.51624 0
M  V30 8778 H 804.63 -4.23538 4.2513 0
M  V30 8779 H 805.7 -2.86272 3.91377 0
M  V30 8780 N 807.043 -1.17915 -1.04565 0
M  V30 8781 C 808.273 -0.994716 -1.81077 0
M  V30 8782 C 808.681 0.460146 -1.83519 0
M  V30 8783 O 808.024 1.33136 -1.26572 0
M  V30 8784 C 808.086 -1.46698 -3.28207 0
M  V30 8785 C 807.75 -2.94523 -3.49436 0
M  V30 8786 C 808.747 -3.92414 -3.41038 0
M  V30 8787 C 806.432 -3.32841 -3.76194 0
M  V30 8788 C 808.426 -5.2662 -3.59096 0
M  V30 8789 C 806.113 -4.67212 -3.93899 0
M  V30 8790 C 807.111 -5.6391 -3.8535 0
M  V30 8791 O 806.799 -6.95849 -4.02554 0
M  V30 8792 H 806.531 -0.351797 -0.577248 0
M  V30 8793 H 809.085 -1.56772 -1.32709 0
M  V30 8794 H 807.315 -0.837592 -3.7752 0
M  V30 8795 H 809.004 -1.24724 -3.86263 0
M  V30 8796 H 809.77 -3.64157 -3.20336 0
M  V30 8797 H 805.649 -2.58139 -3.81949 0
M  V30 8798 H 809.193 -6.02082 -3.52339 0
M  V30 8799 H 805.09 -4.95172 -4.14095 0
M  V30 8800 H 805.858 -7.02679 -4.19743 0
M  V30 8801 N 808.521 1.23394 -0.980386 0
M  V30 8802 C 809.767 1.92094 -0.650223 0
M  V30 8803 C 810.1 1.76309 0.814173 0
M  V30 8804 O 809.375 1.12406 1.5873 0
M  V30 8805 C 809.658 3.44713 -1.04139 0
M  V30 8806 C 809.511 3.69606 -2.56342 0
M  V30 8807 C 810.83 4.36191 -0.585296 0
M  V30 8808 H 807.949 0.697618 -0.237695 0
M  V30 8809 H 810.591 1.45517 -1.22167 0
M  V30 8810 H 808.741 3.84513 -0.55515 0
M  V30 8811 H 810.413 3.39288 -3.1254 0
M  V30 8812 H 808.656 3.14318 -2.98976 0
M  V30 8813 H 809.327 4.76441 -2.78762 0
M  V30 8814 H 811.803 4.03836 -1.00276 0
M  V30 8815 H 810.679 5.41679 -0.887428 0
M  V30 8816 H 810.94 4.39097 0.51438 0
M  V30 8817 N 809.999 0.752036 1.385 0
M  V30 8818 C 811.276 0.233075 1.94206 0
M  V30 8819 C 811.656 -1.26838 1.68746 0
M  V30 8820 O 811.004 -2.04214 1.02513 0
M  V30 8821 C 811.214 0.58509 3.44061 0
M  V30 8822 C 812.562 0.543871 4.21102 0
M  V30 8823 O 813.586 0.523291 3.52335 0
M  V30 8824 O 812.445 0.553436 5.4369 0
M  V30 8825 H 809.539 0.0483049 0.825588 0
M  V30 8826 H 812.085 0.832053 1.47902 0
M  V30 8827 H 810.857 1.62212 3.56094 0
M  V30 8828 H 810.48 -0.0419738 3.97578 0
M  V30 8829 N 811.477 -1.49425 0.500989 0
M  V30 8830 C 812.387 -2.32899 -0.282011 0
M  V30 8831 C 813.403 -1.44632 -0.967346 0
M  V30 8832 O 814.579 -1.77654 -0.94873 0
M  V30 8833 C 811.644 -3.20069 -1.33253 0
M  V30 8834 C 810.705 -4.24186 -0.660636 0
M  V30 8835 C 809.938 -5.07191 -1.6611 0
M  V30 8836 O 810.161 -4.91712 -2.89094 0
M  V30 8837 O 809.095 -5.8948 -1.21643 0
M  V30 8838 H 812.921 -3.01038 0.401224 0
M  V30 8839 H 810.506 -1.47079 0.262323 0
M  V30 8840 H 812.388 -3.74071 -1.94033 0
M  V30 8841 H 811.063 -2.54625 -1.9987 0
M  V30 8842 H 809.97 -3.74098 -0.0130959 0
M  V30 8843 H 811.303 -4.92186 -0.0369179 0
M  V30 8844 N 812.955 -0.234822 -1.55841 0
M  V30 8845 C 814.18 0.400741 -2.03492 0
M  V30 8846 C 814.605 1.51618 -1.11327 0
M  V30 8847 O 813.963 1.81002 -0.103922 0
M  V30 8848 C 814.011 0.897184 -3.49261 0
M  V30 8849 O 813.115 2.00764 -3.60233 0
M  V30 8850 H 812.456 0.0890023 -0.658008 0
M  V30 8851 H 814.986 -0.357345 -2.01455 0
M  V30 8852 H 814.996 1.20356 -3.89844 0
M  V30 8853 H 813.671 0.0808639 -4.15821 0
M  V30 8854 H 812.248 1.70689 -3.31541 0
M  V30 8855 N 814.433 1.57553 0.0384317 0
M  V30 8856 C 815.681 1.88468 0.729672 0
M  V30 8857 C 816.002 0.831302 1.76393 0
M  V30 8858 O 815.272 -0.13622 1.95426 0
M  V30 8859 H 813.852 0.695529 0.272485 0
M  V30 8860 H 816.514 1.94899 0.0066032 0
M  V30 8861 H 815.61 2.8705 1.22511 0
M  V30 8862 N 815.911 -0.310526 1.54511 0
M  V30 8863 C 816.859 -1.40272 1.85544 0
M  V30 8864 C 817.853 -1.52941 0.728377 0
M  V30 8865 O 819.059 -1.55172 0.912234 0
M  V30 8866 H 815.434 -0.468355 0.588343 0
M  V30 8867 H 817.405 -1.11329 2.76855 0
M  V30 8868 C 816.154 -2.76279 2.11105 0
M  V30 8869 H 815.477 -2.67308 2.97298 0
M  V30 8870 H 816.917 -3.51736 2.36765 0
M  V30 8871 C 815.376 -3.24472 0.906618 0
M  V30 8872 O 815.906 -4.01514 0.122358 0
M  V30 8873 N 814.112 -2.81676 0.714632 0
M  V30 8874 H 813.659 -2.19143 1.35404 0
M  V30 8875 H 813.617 -3.14272 -0.089703 0
M  V30 8876 N 817.389 -1.46805 -0.573248 0
M  V30 8877 C 818.8 -1.46655 -1.15539 0
M  V30 8878 C 819.151 -0.2125 -1.95046 0
M  V30 8879 O 818.276 0.683759 -2.05314 0
M  V30 8880 C 818.871 -2.65711 -2.10198 0
M  V30 8881 C 817.43 -2.68572 -2.63716 0
M  V30 8882 C 816.577 -2.39498 -1.39772 0
M  V30 8883 H 819.528 -1.54547 -0.36068 0
M  V30 8884 H 819.549 -2.41768 -2.93817 0
M  V30 8885 H 819.061 -3.56967 -1.52303 0
M  V30 8886 H 817.162 -1.81414 -3.25453 0
M  V30 8887 H 817.275 -3.68809 -3.05805 0
M  V30 8888 H 815.639 -1.89749 -1.69904 0
M  V30 8889 H 816.422 -3.32942 -0.836943 0
M  V30 8890 N 818.867 0.818669 -1.34668 0
M  V30 8891 C 819.777 1.9616 -1.2868 0
M  V30 8892 C 820.793 1.72918 -0.193742 0
M  V30 8893 O 821.969 1.96951 -0.420975 0
M  V30 8894 C 819.034 3.30534 -1.04633 0
M  V30 8895 C 818.095 3.66755 -2.23136 0
M  V30 8896 C 817.328 4.94717 -2.00227 0
M  V30 8897 O 817.551 5.62218 -0.96264 0
M  V30 8898 O 816.485 5.28915 -2.87286 0
M  V30 8899 H 820.311 2.04157 -2.24842 0
M  V30 8900 H 817.896 0.954691 -1.14917 0
M  V30 8901 H 819.778 4.11005 -0.930216 0
M  V30 8902 H 818.453 3.23495 -0.115139 0
M  V30 8903 H 817.36 2.8671 -2.40308 0
M  V30 8904 H 818.693 3.78484 -3.1466 0
M  V30 8905 N 820.346 1.18468 1.03938 0
M  V30 8906 C 821.571 1.00638 1.81347 0
M  V30 8907 C 821.996 -0.440477 1.8287 0
M  V30 8908 O 821.354 -1.31609 1.24695 0
M  V30 8909 C 821.402 1.5673 3.24759 0
M  V30 8910 O 820.506 0.789517 4.04772 0
M  V30 8911 H 819.847 0.356432 0.560225 0
M  V30 8912 H 822.377 1.57253 1.30891 0
M  V30 8913 H 822.387 1.59496 3.75533 0
M  V30 8914 H 821.062 2.62043 3.22965 0
M  V30 8915 H 819.639 0.834267 3.63448 0
M  V30 8916 N 821.824 -1.22873 0.986916 0
M  V30 8917 C 823.073 -1.90772 0.654911 0
M  V30 8918 C 823.386 -1.77768 -0.81595 0
M  V30 8919 O 824.592 -2.40529 -1.25929 0
M  V30 8920 C 823.048 -3.42003 1.12081 0
M  V30 8921 C 822.656 -3.63655 2.61647 0
M  V30 8922 C 824.4 -4.15638 0.862854 0
M  V30 8923 C 822.307 -5.08555 3.01871 0
M  V30 8924 H 821.237 -0.714362 0.241252 0
M  V30 8925 H 823.888 -1.39196 1.19568 0
M  V30 8926 H 822.27 -3.92725 0.508207 0
M  V30 8927 H 823.444 -3.2345 3.28202 0
M  V30 8928 H 821.759 -3.03341 2.8526 0
M  V30 8929 H 824.356 -5.22425 1.13915 0
M  V30 8930 H 824.699 -4.15814 -0.201036 0
M  V30 8931 H 825.232 -3.70924 1.43736 0
M  V30 8932 H 821.971 -5.13514 4.07411 0
M  V30 8933 H 821.491 -5.49684 2.40015 0
M  V30 8934 H 823.17 -5.76936 2.92839 0
M  V30 8935 N 823.302 -0.75937 -1.38099 0
M  V30 8936 C 824.718 -0.437606 -1.53483 0
M  V30 8937 C 824.918 1.04849 -1.72072 0
M  V30 8938 O 823.974 1.83448 -1.73502 0
M  V30 8939 C 825.287 -1.24189 -2.73857 0
M  V30 8940 C 826.835 -1.23255 -2.8771 0
M  V30 8941 C 827.31 -2.01992 -4.11051 0
M  V30 8942 N 828.801 -1.99282 -4.1814 0
M  V30 8943 C 829.536 -2.56996 -5.12583 0
M  V30 8944 N 829.032 -3.23446 -6.12662 0
M  V30 8945 N 830.825 -2.46894 -5.04975 0
M  V30 8946 H 822.976 -1.72242 -1.24283 0
M  V30 8947 H 825.239 -0.730507 -0.604205 0
M  V30 8948 H 824.945 -2.29449 -2.66545 0
M  V30 8949 H 824.819 -0.862672 -3.67203 0
M  V30 8950 H 827.206 -0.187988 -2.94501 0
M  V30 8951 H 827.287 -1.65132 -1.95359 0
M  V30 8952 H 826.931 -3.06462 -4.05023 0
M  V30 8953 H 826.861 -1.57505 -5.02494 0
M  V30 8954 H 829.352 -1.50893 -3.46467 0
M  V30 8955 H 829.665 -3.6489 -6.81231 0
M  V30 8956 H 828.01 -3.27543 -6.12977 0
M  V30 8957 H 831.201 -1.94604 -4.25731 0
M  V30 8958 H 831.374 -2.92168 -5.78396 0
M  V30 8959 N 824.78 1.49157 -0.508906 0
M  V30 8960 C 826.029 2.0167 0.0346854 0
M  V30 8961 C 826.342 1.39302 1.37311 0
M  V30 8962 O 827.548 1.83189 2.00385 0
M  V30 8963 C 826.004 3.59725 0.112261 0
M  V30 8964 C 825.612 4.31069 -1.21999 0
M  V30 8965 C 827.356 4.20155 0.605798 0
M  V30 8966 C 825.263 5.81001 -1.10415 0
M  V30 8967 H 824.193 0.753814 0.0167355 0
M  V30 8968 H 826.844 1.7162 -0.649518 0
M  V30 8969 H 825.226 3.86525 0.861087 0
M  V30 8970 H 826.4 4.15962 -1.98273 0
M  V30 8971 H 824.715 3.82418 -1.64759 0
M  V30 8972 H 827.312 5.29964 0.710102 0
M  V30 8973 H 827.655 3.84051 1.60656 0
M  V30 8974 H 828.188 3.97705 -0.0867239 0
M  V30 8975 H 824.927 6.21643 -2.07941 0
M  V30 8976 H 824.447 5.9858 -0.382428 0
M  V30 8977 H 826.126 6.42207 -0.786116 0
M  V30 8978 N 826.258 0.243083 1.55714 0
M  V30 8979 C 827.498 -0.384303 2.00755 0
M  V30 8980 C 827.862 -1.55406 1.12752 0
M  V30 8981 O 829.063 -2.24892 1.47231 0
M  V30 8982 C 827.334 -0.787419 3.48618 0
M  V30 8983 S 828.893 -1.40587 4.15669 0
M  V30 8984 H 825.711 -0.121088 0.700613 0
M  V30 8985 H 828.313 0.357423 1.92205 0
M  V30 8986 H 827.017 0.0732892 4.10335 0
M  V30 8987 H 826.548 -1.56142 3.61086 0
M  V30 8988 H 828.563 -2.69493 4.16639 0
M  V30 8989 N 827.736 -1.57571 -0.0300757 0
M  V30 8990 C 829.013 -1.80381 -0.756447 0
M  V30 8991 C 829.393 -0.840906 -1.93628 0
M  V30 8992 O 828.741 0.117143 -2.282 0
M  V30 8993 C 828.951 -3.2807 -1.19043 0
M  V30 8994 C 830.299 -3.93025 -1.60676 0
M  V30 8995 O 831.323 -3.32213 -1.28503 0
M  V30 8996 O 830.182 -5.00092 -2.20386 0
M  V30 8997 H 827.276 -0.741737 -0.365725 0
M  V30 8998 H 829.822 -1.69699 -0.00693177 0
M  V30 8999 H 828.594 -3.89748 -0.348128 0
M  V30 9000 H 828.217 -3.43637 -1.99999 0
M  V30 9001 N 829.214 0.302327 -1.54673 0
M  V30 9002 C 830.461 1.0377 -1.73891 0
M  V30 9003 C 830.789 1.87309 -0.523979 0
M  V30 9004 O 830.044 1.8936 0.494084 0
M  V30 9005 C 830.343 1.97365 -2.97963 0
M  V30 9006 C 830.009 1.29812 -4.3181 0
M  V30 9007 C 828.671 1.11121 -4.68194 0
M  V30 9008 C 831.023 0.815073 -5.14787 0
M  V30 9009 C 828.351 0.428077 -5.85136 0
M  V30 9010 C 830.703 0.145665 -6.32432 0
M  V30 9011 C 829.367 -0.0532098 -6.67479 0
M  V30 9012 H 828.637 0.379721 -0.636312 0
M  V30 9013 H 831.284 0.312708 -1.8893 0
M  V30 9014 H 829.589 2.76387 -2.777 0
M  V30 9015 H 831.286 2.54331 -3.10027 0
M  V30 9016 H 827.876 1.45366 -4.03196 0
M  V30 9017 H 832.06 0.947191 -4.87178 0
M  V30 9018 H 827.316 0.262995 -6.10834 0
M  V30 9019 H 831.49 -0.236533 -6.95998 0
M  V30 9020 H 829.117 -0.58456 -7.57949 0
M  V30 9021 N 830.692 1.47107 0.565454 0
M  V30 9022 C 831.94 1.53005 1.32038 0
M  V30 9023 C 832.261 0.190453 1.94068 0
M  V30 9024 O 831.531 -0.784783 1.79494 0
M  V30 9025 H 830.111 0.563578 0.490294 0
M  V30 9026 H 832.773 1.83351 0.660928 0
M  V30 9027 H 831.869 2.29215 2.11818 0
M  V30 9028 N 832.17 -0.811516 1.35101 0
M  V30 9029 C 833.417 -1.56835 1.28098 0
M  V30 9030 C 833.745 -1.93951 -0.14597 0
M  V30 9031 O 833 -1.61173 -1.11004 0
M  V30 9032 C 833.299 -2.87121 2.1283 0
M  V30 9033 C 832.965 -2.69245 3.61688 0
M  V30 9034 C 831.627 -2.64078 4.02264 0
M  V30 9035 C 833.979 -2.52122 4.56162 0
M  V30 9036 C 831.307 -2.39724 5.3549 0
M  V30 9037 C 833.659 -2.29298 5.89581 0
M  V30 9038 C 832.323 -2.2255 6.29307 0
M  V30 9039 H 831.593 -0.5739 0.468742 0
M  V30 9040 H 834.24 -0.93806 1.66951 0
M  V30 9041 H 832.545 -3.54502 1.66841 0
M  V30 9042 H 834.242 -3.44788 2.0475 0
M  V30 9043 H 830.832 -2.74112 3.29485 0
M  V30 9044 H 835.016 -2.5513 4.25702 0
M  V30 9045 H 830.272 -2.32965 5.65276 0
M  V30 9046 H 834.446 -2.15038 6.62368 0
M  V30 9047 H 832.073 -2.0344 7.32473 0
M  V30 9048 N 833.648 -1.19017 -1.03309 0
M  V30 9049 C 834.611 -0.926076 -2.09658 0
M  V30 9050 C 835.611 0.0917077 -1.60538 0
M  V30 9051 O 836.801 -0.142574 -1.73616 0
M  V30 9052 C 833.933 -0.390958 -3.38651 0
M  V30 9053 H 835.126 -1.86923 -2.3452 0
M  V30 9054 H 832.679 -1.00325 -1.19853 0
M  V30 9055 H 833.414 0.558446 -3.19456 0
M  V30 9056 H 833.199 -1.12474 -3.75622 0
M  V30 9057 H 834.689 -0.225131 -4.16993 0
M  V30 9058 N 835.127 1.22348 -0.993418 0
M  V30 9059 C 836.074 2.24294 -0.544118 0
M  V30 9060 C 837.044 1.60602 0.42381 0
M  V30 9061 O 838.229 1.87952 0.328453 0
M  V30 9062 C 835.369 3.44837 0.134578 0
M  V30 9063 C 834.482 4.23043 -0.875151 0
M  V30 9064 C 833.617 5.30928 -0.169919 0
M  V30 9065 C 832.656 6.00853 -1.16798 0
M  V30 9066 N 831.793 7.00381 -0.491021 0
M  V30 9067 H 836.633 2.6209 -1.4182 0
M  V30 9068 H 834.17 1.2881 -0.710384 0
M  V30 9069 H 836.128 4.13625 0.544998 0
M  V30 9070 H 834.758 3.07804 0.972446 0
M  V30 9071 H 833.81 3.53546 -1.40389 0
M  V30 9072 H 835.122 4.71237 -1.63516 0
M  V30 9073 H 834.276 6.05972 0.297205 0
M  V30 9074 H 833.015 4.8371 0.622586 0
M  V30 9075 H 832.02 5.24591 -1.64573 0
M  V30 9076 H 833.245 6.50159 -1.96137 0
M  V30 9077 H 831.191 6.55393 0.282037 0
M  V30 9078 H 831.108 7.46584 -1.18947 0
M  V30 9079 H 832.376 7.79486 -0.0467169 0
M  V30 9080 N 836.605 0.766683 1.37694 0
M  V30 9081 C 837.537 0.107798 2.28946 0
M  V30 9082 C 838.55 -0.669701 1.48387 0
M  V30 9083 O 839.739 -0.508629 1.711 0
M  V30 9084 C 836.839 -0.871084 3.27514 0
M  V30 9085 C 836.012 -0.148471 4.37148 0
M  V30 9086 C 835.071 -1.03998 5.1582 0
M  V30 9087 O 834.097 -0.505639 5.6695 0
M  V30 9088 N 835.299 -2.36679 5.3006 0
M  V30 9089 H 838.064 0.89154 2.86132 0
M  V30 9090 H 835.625 0.618593 1.49616 0
M  V30 9091 H 837.617 -1.47081 3.77027 0
M  V30 9092 H 836.187 -1.55582 2.71133 0
M  V30 9093 H 835.407 0.632117 3.89099 0
M  V30 9094 H 836.695 0.351045 5.07588 0
M  V30 9095 H 836.093 -2.82532 4.90094 0
M  V30 9096 H 834.65 -2.9167 5.82899 0
M  V30 9097 N 838.083 -1.48885 0.516809 0
M  V30 9098 C 839.013 -2.32241 -0.242157 0
M  V30 9099 C 839.994 -1.41258 -0.947633 0
M  V30 9100 O 841.179 -1.70156 -0.935973 0
M  V30 9101 C 838.309 -3.22151 -1.29754 0
M  V30 9102 C 837.263 -4.22053 -0.710995 0
M  V30 9103 C 836.589 -5.01007 -1.86806 0
M  V30 9104 C 837.889 -5.21388 0.30853 0
M  V30 9105 H 839.583 -2.95943 0.453651 0
M  V30 9106 H 837.129 -1.42316 0.219612 0
M  V30 9107 H 839.082 -3.79284 -1.83634 0
M  V30 9108 H 837.806 -2.56423 -2.02274 0
M  V30 9109 H 836.465 -3.66087 -0.193819 0
M  V30 9110 H 836.113 -4.31713 -2.58133 0
M  V30 9111 H 835.813 -5.68615 -1.48159 0
M  V30 9112 H 837.337 -5.60989 -2.4109 0
M  V30 9113 H 838.751 -5.73122 -0.142703 0
M  V30 9114 H 837.148 -5.96975 0.611673 0
M  V30 9115 H 838.218 -4.69329 1.21894 0
M  V30 9116 N 839.561 -0.251338 -1.55583 0
M  V30 9117 C 840.977 0.103409 -1.59265 0
M  V30 9118 C 841.177 1.56559 -1.26852 0
M  V30 9119 O 840.233 2.31071 -1.01796 0
M  V30 9120 C 841.546 -0.249781 -2.99661 0
M  V30 9121 C 843.094 -0.194442 -3.12395 0
M  V30 9122 C 843.569 -0.521728 -4.55019 0
M  V30 9123 N 845.06 -0.472393 -4.60785 0
M  V30 9124 C 845.795 -0.698737 -5.69127 0
M  V30 9125 N 845.291 -0.988443 -6.85713 0
M  V30 9126 N 847.084 -0.629143 -5.58568 0
M  V30 9127 H 839.235 -1.20484 -1.74921 0
M  V30 9128 H 841.498 -0.485092 -0.814488 0
M  V30 9129 H 841.204 -1.26577 -3.28133 0
M  V30 9130 H 841.078 0.420973 -3.74844 0
M  V30 9131 H 843.465 0.812229 -2.83702 0
M  V30 9132 H 843.546 -0.899111 -2.39478 0
M  V30 9133 H 843.19 -1.52597 -4.84434 0
M  V30 9134 H 843.12 0.204468 -5.26203 0
M  V30 9135 H 845.611 -0.257386 -3.77022 0
M  V30 9136 H 845.924 -1.14846 -7.64219 0
M  V30 9137 H 844.269 -1.02596 -6.87386 0
M  V30 9138 H 847.46 -0.402826 -4.66364 0
M  V30 9139 H 847.633 -0.808935 -6.42931 0
M  V30 9140 N 841.039 1.57585 0.0217189 0
M  V30 9141 C 842.002 2.06004 1.00474 0
M  V30 9142 C 843.002 0.965461 1.2859 0
M  V30 9143 O 844.192 1.22884 1.23471 0
M  V30 9144 C 841.324 2.48319 2.33561 0
M  V30 9145 H 842.517 2.94112 0.586346 0
M  V30 9146 H 840.07 1.53973 0.268716 0
M  V30 9147 H 840.805 1.63389 2.80133 0
M  V30 9148 H 840.59 3.28239 2.1448 0
M  V30 9149 H 842.08 2.86181 3.04122 0
M  V30 9150 N 842.517 -0.29412 1.54831 0
M  V30 9151 C 843.427 -1.3854 1.89325 0
M  V30 9152 C 844.443 -1.55127 0.788133 0
M  V30 9153 O 845.619 -1.6966 1.08524 0
M  V30 9154 C 842.684 -2.72809 2.13954 0
M  V30 9155 C 841.745 -2.65148 3.37631 0
M  V30 9156 C 840.978 -3.93014 3.61076 0
M  V30 9157 O 841.201 -4.927 2.87406 0
M  V30 9158 O 840.135 -3.94491 4.54599 0
M  V30 9159 H 843.961 -1.12289 2.82179 0
M  V30 9160 H 841.546 -0.490793 1.41108 0
M  V30 9161 H 843.428 -3.52238 2.31315 0
M  V30 9162 H 842.103 -2.9889 1.24285 0
M  V30 9163 H 841.01 -1.84168 3.25627 0
M  V30 9164 H 842.343 -2.4402 4.27452 0
M  V30 9165 N 843.995 -1.47404 -0.557645 0
M  V30 9166 C 844.943 -1.60265 -1.68576 0
M  V30 9167 C 845.937 -0.469982 -1.6275 0
M  V30 9168 O 847.143 -0.647764 -1.67941 0
M  V30 9169 H 843.518 -0.504353 -0.557792 0
M  V30 9170 H 845.489 -2.55066 -1.54867 0
M  V30 9171 C 844.238 -1.63369 -3.0693 0
M  V30 9172 H 843.561 -2.49874 -3.12095 0
M  V30 9173 H 845.001 -1.76417 -3.85556 0
M  V30 9174 C 843.46 -0.366921 -3.34896 0
M  V30 9175 O 843.99 0.53218 -3.98159 0
M  V30 9176 N 842.196 -0.247082 -2.89548 0
M  V30 9177 H 841.743 -0.979669 -2.38244 0
M  V30 9178 H 841.701 0.599552 -3.0863 0
M  V30 9179 N 845.473 0.80434 -1.35529 0
M  V30 9180 C 846.721 1.55845 -1.28673 0
M  V30 9181 C 847.042 1.94511 0.137976 0
M  V30 9182 O 846.312 1.63775 1.07492 0
M  V30 9183 H 844.892 0.577931 -0.473291 0
M  V30 9184 H 847.554 0.959293 -1.69657 0
M  V30 9185 H 846.65 2.47285 -1.90411 0
M  V30 9186 N 846.951 1.19563 1.02676 0
M  V30 9187 C 847.881 0.959024 2.12897 0
M  V30 9188 C 848.862 -0.108382 1.69754 0
M  V30 9189 O 850.047 0.0470698 1.94143 0
M  V30 9190 C 847.177 0.499211 3.43693 0
M  V30 9191 C 846.131 1.5087 4.00528 0
M  V30 9192 C 845.457 0.905884 5.2697 0
M  V30 9193 C 846.757 2.88954 4.3509 0
M  V30 9194 H 848.451 1.88084 2.32948 0
M  V30 9195 H 845.997 0.905731 1.11949 0
M  V30 9196 H 847.95 0.320965 4.20176 0
M  V30 9197 H 846.674 -0.458205 3.2337 0
M  V30 9198 H 845.333 1.67413 3.26142 0
M  V30 9199 H 844.981 -0.0591506 5.02965 0
M  V30 9200 H 844.681 1.58 5.65959 0
M  V30 9201 H 846.205 0.73848 6.06118 0
M  V30 9202 H 847.619 2.75981 5.02501 0
M  V30 9203 H 846.016 3.53177 4.85166 0
M  V30 9204 H 847.086 3.41447 3.44299 0
M  V30 9205 N 848.429 -1.21819 0.999893 0
M  V30 9206 C 849.359 -2.26282 0.576096 0
M  V30 9207 C 850.34 -1.65317 -0.400537 0
M  V30 9208 O 851.525 -1.92028 -0.28964 0
M  V30 9209 C 848.655 -3.47147 -0.103145 0
M  V30 9210 C 847.609 -4.20594 0.792745 0
M  V30 9211 C 846.935 -5.34696 -0.0198026 0
M  V30 9212 C 848.235 -4.78533 2.09293 0
M  V30 9213 H 849.929 -2.61984 1.4493 0
M  V30 9214 H 847.475 -1.25935 0.698316 0
M  V30 9215 H 849.428 -4.1939 -0.411068 0
M  V30 9216 H 848.152 -3.1056 -1.01094 0
M  V30 9217 H 846.811 -3.50194 1.08442 0
M  V30 9218 H 846.459 -4.94352 -0.928729 0
M  V30 9219 H 846.159 -5.84764 0.576661 0
M  V30 9220 H 847.683 -6.09752 -0.321659 0
M  V30 9221 H 849.097 -5.42682 1.8485 0
M  V30 9222 H 847.494 -5.38968 2.63881 0
M  V30 9223 H 848.564 -3.98197 2.76708 0
M  V30 9224 N 849.908 -0.773975 -1.37286 0
M  V30 9225 C 850.841 -0.108019 -2.27944 0
M  V30 9226 C 851.819 0.706737 -1.46438 0
M  V30 9227 O 853.003 0.681025 -1.75768 0
M  V30 9228 C 850.13 0.853199 -3.27778 0
M  V30 9229 C 849.176 0.122164 -4.26325 0
M  V30 9230 S 850.009 -1.19136 -5.22079 0
M  V30 9231 C 851.165 -0.233737 -6.25463 0
M  V30 9232 H 851.398 -0.876743 -2.84078 0
M  V30 9233 H 848.931 -0.567468 -1.43594 0
M  V30 9234 H 850.889 1.40238 -3.85803 0
M  V30 9235 H 849.55 1.59505 -2.70586 0
M  V30 9236 H 848.743 0.850926 -4.96765 0
M  V30 9237 H 848.345 -0.356079 -3.72301 0
M  V30 9238 H 850.637 0.59305 -6.74899 0
M  V30 9239 H 851.58 -0.906373 -7.02275 0
M  V30 9240 H 851.988 0.156048 -5.64284 0
M  V30 9241 N 851.386 1.48609 -0.524698 0
M  V30 9242 C 852.614 2.06899 0.00742946 0
M  V30 9243 C 853.029 1.38196 1.28637 0
M  V30 9244 O 852.386 0.467771 1.76403 0
M  V30 9245 C 852.437 3.60699 0.240548 0
M  V30 9246 O 852.158 4.26821 -0.987715 0
M  V30 9247 C 853.659 4.35769 0.813652 0
M  V30 9248 H 850.879 0.670278 -0.0311294 0
M  V30 9249 H 853.423 1.91071 -0.728832 0
M  V30 9250 H 851.578 3.76149 0.926845 0
M  V30 9251 H 851.992 5.18889 -0.765175 0
M  V30 9252 H 853.466 5.44174 0.926219 0
M  V30 9253 H 853.943 3.9984 1.81728 0
M  V30 9254 H 854.549 4.24983 0.164086 0
M  V30 9255 N 852.864 0.259585 1.55447 0
M  V30 9256 C 854.275 -0.241165 1.85136 0
M  V30 9257 C 854.626 -1.56634 1.18153 0
M  V30 9258 O 853.751 -2.11359 0.464351 0
M  V30 9259 C 854.346 -0.444355 3.35873 0
M  V30 9260 C 852.905 -0.889354 3.65742 0
M  V30 9261 C 852.052 0.0262474 2.77288 0
M  V30 9262 H 855.003 0.481808 1.51209 0
M  V30 9263 H 855.024 -1.28517 3.58139 0
M  V30 9264 H 854.536 0.520289 3.84597 0
M  V30 9265 H 852.637 -1.86602 3.22507 0
M  V30 9266 H 852.75 -0.737432 4.73391 0
M  V30 9267 H 851.114 -0.487361 2.49994 0
M  V30 9268 H 851.897 0.986494 3.28821 0
M  V30 9269 N 854.342 -1.57594 -0.0133615 0
M  V30 9270 C 855.582 -1.91834 -0.705639 0
M  V30 9271 C 855.946 -0.859801 -1.71672 0
M  V30 9272 O 857.147 -1.08702 -2.4584 0
M  V30 9273 C 855.418 -3.31174 -1.34383 0
M  V30 9274 S 856.977 -3.87275 -2.06309 0
M  V30 9275 H 853.795 -0.671598 -0.233404 0
M  V30 9276 H 856.397 -1.95459 0.0401173 0
M  V30 9277 H 855.101 -4.06065 -0.594939 0
M  V30 9278 H 854.632 -3.3089 -2.12781 0
M  V30 9279 H 856.647 -3.67271 -3.33657 0
M  V30 9280 N 855.82 0.285905 -1.54985 0
M  V30 9281 C 857.05 1.03626 -1.78732 0
M  V30 9282 C 857.458 1.80896 -0.554377 0
M  V30 9283 O 856.801 1.77161 0.48578 0
M  V30 9284 C 856.863 2.05185 -2.95193 0
M  V30 9285 C 856.527 1.46973 -4.32722 0
M  V30 9286 C 857.524 0.891986 -5.12191 0
M  V30 9287 C 855.209 1.50081 -4.79355 0
M  V30 9288 C 857.203 0.353078 -6.36421 0
M  V30 9289 C 854.89 0.958037 -6.03544 0
M  V30 9290 C 855.888 0.385157 -6.81913 0
M  V30 9291 O 855.576 -0.149341 -8.03761 0
M  V30 9292 H 855.308 0.312416 -0.599477 0
M  V30 9293 H 857.862 0.326067 -2.02795 0
M  V30 9294 H 856.092 2.79928 -2.66791 0
M  V30 9295 H 857.781 2.66244 -3.0638 0
M  V30 9296 H 858.547 0.860762 -4.77301 0
M  V30 9297 H 854.426 1.9361 -4.18373 0
M  V30 9298 H 857.97 -0.0947181 -6.97536 0
M  V30 9299 H 853.867 0.986458 -6.37918 0
M  V30 9300 H 854.635 -0.0374719 -8.18491 0
M  V30 9301 N 857.298 1.47698 0.54982 0
M  V30 9302 C 858.526 1.5833 1.33188 0
M  V30 9303 C 858.941 0.236193 1.87317 0
M  V30 9304 O 858.298 -0.77167 1.65383 0
M  V30 9305 C 858.349 2.61438 2.49664 0
M  V30 9306 O 858.07 3.9092 1.97771 0
M  V30 9307 C 859.571 2.82324 3.41772 0
M  V30 9308 H 856.791 0.53443 0.405741 0
M  V30 9309 H 859.335 1.93375 0.665309 0
M  V30 9310 H 857.49 2.29307 3.12245 0
M  V30 9311 H 857.904 4.47323 2.73866 0
M  V30 9312 H 859.378 3.58316 4.19897 0
M  V30 9313 H 859.855 1.90416 3.95776 0
M  V30 9314 H 860.461 3.15682 2.85 0
M  V30 9315 N 858.776 -0.797141 1.35954 0
M  V30 9316 C 859.739 -1.89104 1.29508 0
M  V30 9317 C 860.739 -1.59495 0.204444 0
M  V30 9318 O 861.929 -1.68051 0.458746 0
M  V30 9319 C 859.061 -3.25726 1.00576 0
M  V30 9320 H 860.254 -1.96237 2.26785 0
M  V30 9321 H 857.807 -0.994075 1.20614 0
M  V30 9322 H 858.542 -3.24279 0.0372519 0
M  V30 9323 H 858.327 -3.48604 1.79492 0
M  V30 9324 H 859.817 -4.0578 0.986508 0
M  V30 9325 N 860.254 -1.20106 -1.0204 0
M  V30 9326 C 861.202 -0.943231 -2.12617 0
M  V30 9327 C 862.196 0.104042 -1.6908 0
M  V30 9328 O 863.402 -0.0459732 -1.79941 0
M  V30 9329 H 859.777 -0.28767 -0.694802 0
M  V30 9330 H 861.748 -1.88221 -2.3155 0
M  V30 9331 C 860.497 -0.50771 -3.43973 0
M  V30 9332 H 859.82 -1.30514 -3.77897 0
M  V30 9333 H 861.26 -0.366486 -4.22413 0
M  V30 9334 C 859.719 0.77939 -3.27761 0
M  V30 9335 O 860.249 1.83876 -3.57145 0
M  V30 9336 N 858.455 0.739931 -2.81022 0
M  V30 9337 H 858.002 -0.122426 -2.57309 0
M  V30 9338 H 857.96 1.60147 -2.70556 0
M  V30 9339 N 861.732 1.21287 -1.00634 0
M  V30 9340 C 862.979 1.90389 -0.6898 0
M  V30 9341 C 863.307 1.78193 0.779574 0
M  V30 9342 O 862.562 1.15358 1.58085 0
M  V30 9343 C 862.861 3.41374 -1.05824 0
M  V30 9344 C 862.527 3.73766 -2.5221 0
M  V30 9345 C 861.189 3.82317 -2.92211 0
M  V30 9346 C 863.541 3.88871 -3.47028 0
M  V30 9347 C 860.869 4.03423 -4.2599 0
M  V30 9348 C 863.221 4.11484 -4.80483 0
M  V30 9349 C 861.885 4.18263 -5.20204 0
M  V30 9350 H 861.155 0.696683 -0.252416 0
M  V30 9351 H 863.802 1.43769 -1.26502 0
M  V30 9352 H 862.107 3.8974 -0.401281 0
M  V30 9353 H 863.804 3.93118 -0.79116 0
M  V30 9354 H 860.394 3.67702 -2.20212 0
M  V30 9355 H 864.578 3.8163 -3.17289 0
M  V30 9356 H 859.834 4.06902 -4.56334 0
M  V30 9357 H 864.008 4.22115 -5.53888 0
M  V30 9358 H 861.635 4.34369 -6.23881 0
M  V30 9359 N 863.21 0.781244 1.36873 0
M  V30 9360 C 864.456 0.350407 1.9975 0
M  V30 9361 C 864.789 -1.07293 1.6187 0
M  V30 9362 O 864.064 -1.73983 0.869491 0
M  V30 9363 C 864.347 0.504834 3.56544 0
M  V30 9364 C 864.2 1.97127 4.04303 0
M  V30 9365 C 865.519 -0.0851272 4.40018 0
M  V30 9366 H 862.638 0.128794 0.725659 0
M  V30 9367 H 865.28 0.98606 1.6241 0
M  V30 9368 H 863.43 -0.0363006 3.88483 0
M  V30 9369 H 865.102 2.57284 3.82887 0
M  V30 9370 H 863.345 2.47676 3.56145 0
M  V30 9371 H 864.016 2.03033 5.13305 0
M  V30 9372 H 866.492 0.376704 4.14391 0
M  V30 9373 H 865.368 0.0530015 5.48874 0
M  V30 9374 H 865.629 -1.17642 4.2616 0
M  V30 9375 N 864.689 -1.48329 0.532571 0
M  V30 9376 C 865.652 -2.2816 -0.218069 0
M  V30 9377 C 866.652 -1.35526 -0.865409 0
M  V30 9378 O 867.842 -1.58394 -0.725061 0
M  V30 9379 C 864.974 -3.1448 -1.31586 0
M  V30 9380 H 866.167 -2.95987 0.482865 0
M  V30 9381 H 863.72 -1.53612 0.288603 0
M  V30 9382 H 864.455 -2.5129 -2.04997 0
M  V30 9383 H 864.24 -3.82625 -0.856779 0
M  V30 9384 H 865.73 -3.74693 -1.84377 0
M  V30 9385 N 866.167 -0.267825 -1.55308 0
M  V30 9386 C 867.578 0.231344 -1.85261 0
M  V30 9387 C 867.929 1.56006 -1.18982 0
M  V30 9388 O 867.054 2.1111 -0.475554 0
M  V30 9389 C 867.649 0.426537 -3.36104 0
M  V30 9390 C 866.208 0.869945 -3.66209 0
M  V30 9391 C 865.355 -0.0409522 -2.7727 0
M  V30 9392 H 868.306 -0.489821 -1.50952 0
M  V30 9393 H 868.327 1.26616 -3.58816 0
M  V30 9394 H 867.839 -0.540678 -3.84315 0
M  V30 9395 H 865.94 1.84889 -3.23492 0
M  V30 9396 H 866.053 0.712316 -4.73775 0
M  V30 9397 H 864.417 0.474097 -2.50249 0
M  V30 9398 H 865.2 -1.00392 -3.28293 0
M  V30 9399 N 867.645 1.57599 0.00500368 0
M  V30 9400 C 868.555 2.11532 1.01446 0
M  V30 9401 C 869.571 1.05941 1.3803 0
M  V30 9402 O 870.747 1.37815 1.46864 0
M  V30 9403 C 867.812 2.60382 2.28915 0
M  V30 9404 C 866.873 3.80554 1.98689 0
M  V30 9405 C 866.106 4.27064 3.20081 0
M  V30 9406 O 866.329 3.72939 4.31593 0
M  V30 9407 O 865.263 5.1927 3.04371 0
M  V30 9408 H 869.089 2.97993 0.586011 0
M  V30 9409 H 866.674 1.47718 0.223519 0
M  V30 9410 H 868.556 2.92024 3.03809 0
M  V30 9411 H 867.231 1.77022 2.71007 0
M  V30 9412 H 866.138 3.53893 1.21286 0
M  V30 9413 H 867.471 4.64972 1.61437 0
M  V30 9414 N 869.123 -0.277682 1.55134 0
M  V30 9415 C 870.369 -1.0114 1.7578 0
M  V30 9416 C 870.702 -1.86109 0.554719 0
M  V30 9417 O 869.977 -1.89275 -0.447813 0
M  V30 9418 C 870.26 -1.89789 3.06027 0
M  V30 9419 C 870.113 -1.07844 4.3668 0
M  V30 9420 C 871.432 -2.88577 3.32282 0
M  V30 9421 H 868.551 -0.366277 0.639539 0
M  V30 9422 H 871.193 -0.284155 1.87863 0
M  V30 9423 H 869.343 -2.51796 2.95856 0
M  V30 9424 H 871.015 -0.479432 4.58802 0
M  V30 9425 H 869.258 -0.381764 4.32117 0
M  V30 9426 H 869.929 -1.73179 5.24131 0
M  V30 9427 H 872.405 -2.36702 3.42215 0
M  V30 9428 H 871.281 -3.47749 4.2469 0
M  V30 9429 H 871.542 -3.63458 2.51696 0
M  V30 9430 N 870.601 -1.47988 -0.541979 0
M  V30 9431 C 871.531 -1.64503 -1.65713 0
M  V30 9432 C 872.512 -0.494116 -1.62765 0
M  V30 9433 O 873.697 -0.725256 -1.80149 0
M  V30 9434 C 870.827 -1.67337 -3.04328 0
M  V30 9435 C 869.781 -2.81809 -3.2213 0
M  V30 9436 C 869.107 -2.69724 -4.61685 0
M  V30 9437 C 870.407 -4.23241 -3.06046 0
M  V30 9438 H 872.101 -2.5786 -1.52147 0
M  V30 9439 H 869.647 -1.24094 -0.730529 0
M  V30 9440 H 871.6 -1.77481 -3.82202 0
M  V30 9441 H 870.324 -0.705514 -3.18889 0
M  V30 9442 H 868.983 -2.71201 -2.46669 0
M  V30 9443 H 868.631 -1.70934 -4.73065 0
M  V30 9444 H 868.331 -3.4653 -4.74543 0
M  V30 9445 H 869.855 -2.81818 -5.41674 0
M  V30 9446 H 871.269 -4.34746 -3.73723 0
M  V30 9447 H 869.666 -5.00952 -3.30405 0
M  V30 9448 H 870.736 -4.40543 -2.02609 0
M  V30 9449 N 872.079 0.78992 -1.36375 0
M  V30 9450 C 873.026 1.90254 -1.3066 0
M  V30 9451 C 873.996 1.65171 -0.17539 0
M  V30 9452 O 875.181 1.87338 -0.361824 0
M  V30 9453 C 872.321 3.27057 -1.10125 0
M  V30 9454 C 871.434 3.64215 -2.32317 0
M  V30 9455 C 870.569 4.90134 -2.04798 0
M  V30 9456 C 869.608 5.19969 -3.22953 0
M  V30 9457 N 868.745 6.37071 -2.95102 0
M  V30 9458 H 873.585 1.94474 -2.25796 0
M  V30 9459 H 871.122 0.951022 -1.12223 0
M  V30 9460 H 873.08 4.05947 -0.962453 0
M  V30 9461 H 871.71 3.22261 -0.186444 0
M  V30 9462 H 870.762 2.80454 -2.57002 0
M  V30 9463 H 872.074 3.82212 -3.20492 0
M  V30 9464 H 871.228 5.76888 -1.87845 0
M  V30 9465 H 869.967 4.74205 -1.13932 0
M  V30 9466 H 868.972 4.31699 -3.40465 0
M  V30 9467 H 870.197 5.37817 -4.14644 0
M  V30 9468 H 868.143 6.22535 -2.06848 0
M  V30 9469 H 868.06 6.55398 -3.76815 0
M  V30 9470 H 869.328 7.26808 -2.81727 0
M  V30 9471 N 873.557 1.20646 1.01402 0
M  V30 9472 C 874.973 0.961866 1.27359 0
M  V30 9473 C 875.173 -0.357083 1.98311 0
M  V30 9474 O 874.229 -1.08498 2.28001 0
M  V30 9475 C 875.542 2.14627 2.10609 0
M  V30 9476 C 877.09 2.18753 2.23866 0
M  V30 9477 C 877.565 3.36686 3.10494 0
M  V30 9478 N 879.056 3.36716 3.18083 0
M  V30 9479 C 879.791 4.24615 3.85343 0
M  V30 9480 N 879.287 5.22697 4.54708 0
M  V30 9481 N 881.08 4.12449 3.81893 0
M  V30 9482 H 873.231 2.05481 0.537721 0
M  V30 9483 H 875.494 0.899292 0.299963 0
M  V30 9484 H 875.2 3.10159 1.65814 0
M  V30 9485 H 875.074 2.12935 3.11349 0
M  V30 9486 H 877.461 1.23782 2.67885 0
M  V30 9487 H 877.542 2.24492 1.22626 0
M  V30 9488 H 877.186 4.31945 2.67181 0
M  V30 9489 H 877.116 3.28185 4.11828 0
M  V30 9490 H 879.607 2.65728 2.68695 0
M  V30 9491 H 879.92 5.86087 5.03708 0
M  V30 9492 H 878.265 5.26631 4.53525 0
M  V30 9493 H 881.456 3.35091 3.26851 0
M  V30 9494 H 881.629 4.81162 4.34035 0
M  V30 9495 N 875.035 -1.20752 1.01276 0
M  V30 9496 C 875.967 -2.22798 0.537917 0
M  V30 9497 C 876.98 -1.5836 -0.377638 0
M  V30 9498 O 878.169 -1.77624 -0.176599 0
M  V30 9499 C 875.269 -3.38068 -0.237364 0
M  V30 9500 C 874.442 -4.32095 0.679161 0
M  V30 9501 C 873.501 -5.26178 -0.0478676 0
M  V30 9502 O 872.527 -5.66305 0.573366 0
M  V30 9503 N 873.729 -5.65201 -1.32396 0
M  V30 9504 H 876.494 -2.64166 1.4155 0
M  V30 9505 H 874.055 -1.35254 0.889826 0
M  V30 9506 H 876.047 -3.98009 -0.73288 0
M  V30 9507 H 874.617 -2.95622 -1.0162 0
M  V30 9508 H 873.837 -3.70179 1.35505 0
M  V30 9509 H 875.125 -4.91842 1.30263 0
M  V30 9510 H 874.523 -5.34606 -1.84968 0
M  V30 9511 H 873.08 -6.27468 -1.76428 0
M  V30 9512 N 876.513 -0.788492 -1.36457 0
M  V30 9513 C 877.761 -0.359749 -1.98872 0
M  V30 9514 C 878.082 1.07197 -1.62892 0
M  V30 9515 O 877.352 1.73875 -0.902463 0
M  V30 9516 H 875.932 -0.130029 -0.735596 0
M  V30 9517 H 878.594 -1.01033 -1.66668 0
M  V30 9518 H 877.69 -0.450835 -3.08827 0
M  V30 9519 N 877.991 1.48044 -0.54043 0
M  V30 9520 C 879.221 2.06595 -0.0144943 0
M  V30 9521 C 879.629 1.39593 1.27713 0
M  V30 9522 O 878.972 0.480794 1.77297 0
M  V30 9523 C 879.034 3.5849 0.269316 0
M  V30 9524 C 878.698 4.47429 -0.930372 0
M  V30 9525 C 879.695 4.8657 -1.83155 0
M  V30 9526 C 877.38 4.89185 -1.14032 0
M  V30 9527 C 879.374 5.66246 -2.92649 0
M  V30 9528 C 877.061 5.6863 -2.23838 0
M  V30 9529 C 878.059 6.07069 -3.12979 0
M  V30 9530 O 877.747 6.84917 -4.20884 0
M  V30 9531 H 877.479 0.675086 -0.0351467 0
M  V30 9532 H 880.033 1.91275 -0.74853 0
M  V30 9533 H 878.263 3.71961 1.05745 0
M  V30 9534 H 879.952 3.99124 0.738595 0
M  V30 9535 H 880.718 4.54924 -1.68134 0
M  V30 9536 H 876.597 4.58742 -0.455717 0
M  V30 9537 H 880.141 5.96169 -3.62254 0
M  V30 9538 H 876.038 5.99688 -2.38839 0
M  V30 9539 H 876.806 7.03287 -4.18723 0
M  V30 9540 N 879.47 0.276058 1.55163 0
M  V30 9541 C 880.747 -0.392292 1.91626 0
M  V30 9542 C 881.127 -1.73646 1.20043 0
M  V30 9543 O 880.475 -2.26139 0.327606 0
M  V30 9544 C 880.685 -0.531641 3.44927 0
M  V30 9545 C 882.033 -0.8141 4.16722 0
M  V30 9546 O 883.057 -0.616413 3.50826 0
M  V30 9547 O 881.916 -1.19224 5.33337 0
M  V30 9548 H 879.01 -0.214945 0.798579 0
M  V30 9549 H 881.556 0.32228 1.66612 0
M  V30 9550 H 880.328 0.414282 3.89101 0
M  V30 9551 H 879.951 -1.29564 3.75897 0
M  V30 9552 N 880.948 -1.576 0.00335426 0
M  V30 9553 C 881.911 -2.07576 -0.971838 0
M  V30 9554 C 882.911 -0.985796 -1.27038 0
M  V30 9555 O 884.101 -1.24833 -1.21501 0
M  V30 9556 C 881.233 -2.52003 -2.29581 0
M  V30 9557 H 882.426 -2.95008 -0.539481 0
M  V30 9558 H 879.979 -1.54381 -0.244186 0
M  V30 9559 H 880.714 -1.67825 -2.77498 0
M  V30 9560 H 880.499 -3.31609 -2.09231 0
M  V30 9561 H 881.989 -2.90983 -2.99531 0
M  V30 9562 N 882.426 0.269451 -1.5528 0
M  V30 9563 C 883.389 1.31642 -1.87625 0
M  V30 9564 C 884.389 1.42182 -0.751058 0
M  V30 9565 O 885.579 1.41272 -1.01921 0
M  V30 9566 C 882.711 2.6973 -2.08467 0
M  V30 9567 H 883.904 1.0419 -2.81219 0
M  V30 9568 H 881.457 0.507685 -1.47825 0
M  V30 9569 H 882.192 3.02356 -1.17266 0
M  V30 9570 H 881.977 2.63465 -2.90394 0
M  V30 9571 H 883.467 3.4537 -2.34753 0
M  V30 9572 N 883.904 1.48273 0.534124 0
M  V30 9573 C 885.144 1.57674 1.3007 0
M  V30 9574 C 885.508 0.243256 1.90453 0
M  V30 9575 O 886.709 0.212231 2.67961 0
M  V30 9576 C 884.98 2.68044 2.36405 0
M  V30 9577 S 886.539 2.97183 3.22843 0
M  V30 9578 H 883.357 0.55652 0.442501 0
M  V30 9579 H 885.959 1.85774 0.60896 0
M  V30 9580 H 884.663 3.63498 1.90518 0
M  V30 9581 H 884.194 2.41833 3.10291 0
M  V30 9582 H 886.209 2.36164 4.36396 0
M  V30 9583 N 885.382 -0.782676 1.36792 0
M  V30 9584 C 886.659 -1.52939 1.21939 0
M  V30 9585 C 887.039 -2.10228 -0.191639 0
M  V30 9586 O 886.387 -1.94574 -1.19805 0
M  V30 9587 C 886.597 -2.61898 2.30674 0
M  V30 9588 C 887.945 -3.29598 2.67676 0
M  V30 9589 O 888.969 -2.72186 2.29768 0
M  V30 9590 O 887.828 -4.3337 3.32946 0
M  V30 9591 H 884.922 -0.676856 0.47518 0
M  V30 9592 H 887.468 -0.82058 1.48542 0
M  V30 9593 H 886.24 -2.17607 3.25212 0
M  V30 9594 H 885.863 -3.40391 2.05475 0
M  V30 9595 N 886.86 -1.21182 -1.00761 0
M  V30 9596 C 888.109 -1.02166 -1.73911 0
M  V30 9597 C 888.422 0.445638 -1.90456 0
M  V30 9598 O 889.628 0.755132 -2.60787 0
M  V30 9599 C 888.084 -1.77936 -3.12837 0
M  V30 9600 C 887.692 -3.28819 -3.04273 0
M  V30 9601 C 889.436 -1.67319 -3.90134 0
M  V30 9602 C 887.343 -3.97089 -4.38262 0
M  V30 9603 H 886.273 -0.378665 -0.652019 0
M  V30 9604 H 888.924 -1.44891 -1.12601 0
M  V30 9605 H 887.306 -1.28003 -3.74742 0
M  V30 9606 H 888.48 -3.86035 -2.51622 0
M  V30 9607 H 886.795 -3.39949 -2.40465 0
M  V30 9608 H 889.392 -2.15659 -4.8928 0
M  V30 9609 H 889.735 -0.630959 -4.11491 0
M  V30 9610 H 890.268 -2.14716 -3.34876 0
M  V30 9611 H 887.007 -5.01503 -4.22107 0
M  V30 9612 H 886.527 -3.44662 -4.90885 0
M  V30 9613 H 888.206 -4.01854 -5.07072 0
M  V30 9614 N 888.338 1.20213 -1.01915 0
M  V30 9615 C 889.584 1.90203 -0.720724 0
M  V30 9616 C 889.939 1.77526 0.74178 0
M  V30 9617 O 889.232 1.15037 1.53222 0
M  V30 9618 C 889.426 3.40232 -1.09438 0
M  V30 9619 C 889.255 3.67509 -2.59167 0
M  V30 9620 C 888.025 3.86082 -3.25989 0
M  V30 9621 C 890.223 3.69863 -3.5736 0
M  V30 9622 N 888.205 4.009 -4.64922 0
M  V30 9623 C 889.576 3.90136 -4.81865 0
M  V30 9624 C 891.631 3.52839 -3.51296 0
M  V30 9625 C 890.334 3.9515 -6.0104 0
M  V30 9626 C 892.36 3.59125 -4.69875 0
M  V30 9627 C 891.722 3.79874 -5.93191 0
M  V30 9628 H 887.821 0.715556 -0.315442 0
M  V30 9629 H 890.405 1.44538 -1.30449 0
M  V30 9630 H 888.576 3.84643 -0.538933 0
M  V30 9631 H 890.308 3.97704 -0.74923 0
M  V30 9632 H 887.063 3.84569 -2.76413 0
M  V30 9633 H 887.487 4.12181 -5.37062 0
M  V30 9634 H 892.129 3.35762 -2.56951 0
M  V30 9635 H 889.847 4.11022 -6.95763 0
M  V30 9636 H 893.433 3.47257 -4.66802 0
M  V30 9637 H 892.313 3.846 -6.83412 0
M  V30 9638 N 889.816 0.795718 1.36037 0
M  V30 9639 C 891.041 0.38204 2.03851 0
M  V30 9640 C 891.466 -0.995553 1.59594 0
M  V30 9641 O 890.824 -1.64258 0.767401 0
M  V30 9642 C 890.872 0.461248 3.57638 0
M  V30 9643 O 889.976 -0.529448 4.08987 0
M  V30 9644 H 889.317 0.161227 0.644129 0
M  V30 9645 H 891.847 1.07858 1.73861 0
M  V30 9646 H 891.857 0.32712 4.06687 0
M  V30 9647 H 890.532 1.46613 3.89201 0
M  V30 9648 H 889.109 -0.35646 3.71192 0
M  V30 9649 N 891.294 -1.47756 0.548274 0
M  V30 9650 C 892.224 -2.32702 -0.19284 0
M  V30 9651 C 893.205 -1.43237 -0.917457 0
M  V30 9652 O 894.39 -1.72103 -0.89967 0
M  V30 9653 C 891.52 -3.24831 -1.22891 0
M  V30 9654 C 890.474 -4.23466 -0.621312 0
M  V30 9655 C 889.8 -5.04856 -1.76137 0
M  V30 9656 C 891.1 -5.20616 0.419055 0
M  V30 9657 H 892.794 -2.94914 0.516323 0
M  V30 9658 H 890.34 -1.41818 0.24975 0
M  V30 9659 H 892.293 -3.83094 -1.75547 0
M  V30 9660 H 891.017 -2.60656 -1.9679 0
M  V30 9661 H 889.676 -3.66416 -0.116123 0
M  V30 9662 H 889.324 -4.37091 -2.48918 0
M  V30 9663 H 889.024 -5.71629 -1.36065 0
M  V30 9664 H 890.548 -5.65976 -2.29136 0
M  V30 9665 H 891.962 -5.73296 -0.0211034 0
M  V30 9666 H 890.359 -5.95543 0.738163 0
M  V30 9667 H 891.429 -4.66638 1.31822 0
M  V30 9668 N 892.772 -0.284283 -1.55015 0
M  V30 9669 C 894.02 0.329212 -1.99401 0
M  V30 9670 C 894.341 1.55687 -1.17416 0
M  V30 9671 O 893.611 1.94087 -0.265937 0
M  V30 9672 H 892.191 0.12463 -0.73653 0
M  V30 9673 H 894.853 -0.391743 -1.90922 0
M  V30 9674 H 893.949 0.61278 -3.06025 0
M  V30 9675 N 894.251 1.57596 -0.0117121 0
M  V30 9676 C 895.497 1.91355 0.671661 0
M  V30 9677 C 895.83 0.886818 1.72769 0
M  V30 9678 O 895.105 -0.0928813 1.94278 0
M  V30 9679 C 895.388 3.35657 1.30409 0
M  V30 9680 C 895.241 4.49055 0.2588 0
M  V30 9681 C 896.56 3.79595 2.22701 0
M  V30 9682 H 893.679 0.695893 0.242698 0
M  V30 9683 H 896.321 1.89887 -0.0654071 0
M  V30 9684 H 894.471 3.37038 1.9323 0
M  V30 9685 H 896.143 4.59809 -0.370631 0
M  V30 9686 H 894.386 4.31785 -0.417672 0
M  V30 9687 H 895.057 5.4701 0.740578 0
M  V30 9688 H 897.533 3.7984 1.69885 0
M  V30 9689 H 896.409 4.81292 2.63912 0
M  V30 9690 H 896.67 3.14118 3.11098 0
M  V30 9691 N 895.729 -0.261212 1.5542 0
M  V30 9692 C 896.659 -1.32712 1.92119 0
M  V30 9693 C 897.64 -1.50934 0.784406 0
M  V30 9694 O 898.825 -1.63781 1.04352 0
M  V30 9695 C 895.955 -2.68453 2.20341 0
M  V30 9696 C 894.909 -2.64947 3.36136 0
M  V30 9697 C 894.235 -4.04349 3.49865 0
M  V30 9698 C 895.535 -2.23182 4.72215 0
M  V30 9699 H 897.229 -1.02245 2.81401 0
M  V30 9700 H 894.775 -0.490406 1.35392 0
M  V30 9701 H 896.728 -3.43144 2.44603 0
M  V30 9702 H 895.452 -3.00527 1.27871 0
M  V30 9703 H 894.111 -1.92714 3.11861 0
M  V30 9704 H 893.759 -4.33665 2.5484 0
M  V30 9705 H 893.459 -4.02895 4.27726 0
M  V30 9706 H 894.983 -4.80761 3.76432 0
M  V30 9707 H 896.397 -2.87599 4.95943 0
M  V30 9708 H 894.794 -2.32867 5.53076 0
M  V30 9709 H 895.864 -1.18327 4.70241 0
M  V30 9710 N 897.207 -1.48554 -0.526253 0
M  V30 9711 C 898.137 -1.66252 -1.63959 0
M  V30 9712 C 899.118 -0.511351 -1.62232 0
M  V30 9713 O 900.303 -0.744322 -1.7937 0
M  V30 9714 C 897.433 -1.70556 -3.02536 0
M  V30 9715 C 896.387 -2.8521 -3.19123 0
M  V30 9716 C 895.713 -2.74606 -4.58798 0
M  V30 9717 C 897.013 -4.26463 -3.0154 0
M  V30 9718 H 898.707 -2.59459 -1.49404 0
M  V30 9719 H 896.253 -1.24862 -0.717326 0
M  V30 9720 H 898.206 -1.81524 -3.80298 0
M  V30 9721 H 896.93 -0.739297 -3.18123 0
M  V30 9722 H 895.589 -2.73802 -2.43779 0
M  V30 9723 H 895.237 -1.75941 -4.71226 0
M  V30 9724 H 894.937 -3.51544 -4.70841 0
M  V30 9725 H 896.461 -2.87548 -5.38655 0
M  V30 9726 H 897.875 -4.38685 -3.69091 0
M  V30 9727 H 896.272 -5.04428 -3.25073 0
M  V30 9728 H 897.342 -4.42667 -1.97925 0
M  V30 9729 N 898.685 0.775411 -1.37205 0
M  V30 9730 C 899.915 1.56219 -1.352 0
M  V30 9731 C 900.323 1.89087 0.065456 0
M  V30 9732 O 899.666 1.51655 1.03665 0
M  V30 9733 C 899.728 2.9019 -2.12203 0
M  V30 9734 C 899.392 2.79978 -3.61195 0
M  V30 9735 C 900.389 2.51258 -4.55154 0
M  V30 9736 C 898.074 2.98115 -4.04268 0
M  V30 9737 C 900.068 2.40798 -5.90165 0
M  V30 9738 C 897.755 2.87276 -5.39366 0
M  V30 9739 C 898.753 2.58657 -6.32128 0
M  V30 9740 O 898.441 2.47838 -7.64743 0
M  V30 9741 H 898.173 0.490735 -0.464925 0
M  V30 9742 H 900.727 0.969201 -1.81096 0
M  V30 9743 H 898.957 3.51594 -1.60992 0
M  V30 9744 H 900.646 3.51561 -2.02879 0
M  V30 9745 H 901.412 2.36935 -4.23186 0
M  V30 9746 H 897.291 3.19392 -3.3243 0
M  V30 9747 H 900.835 2.18381 -6.62537 0
M  V30 9748 H 896.732 3.01166 -5.70937 0
M  V30 9749 H 897.5 2.63215 -7.75023 0
M  V30 9750 N 900.163 1.21714 1.00117 0
M  V30 9751 C 901.391 1.06278 1.77518 0
M  V30 9752 C 901.806 -0.387193 1.84787 0
M  V30 9753 O 901.163 -1.26854 1.31203 0
M  V30 9754 C 901.214 1.65795 3.21239 0
M  V30 9755 O 900.935 3.05119 3.14378 0
M  V30 9756 C 902.436 1.55521 4.15124 0
M  V30 9757 H 899.656 0.373013 0.557765 0
M  V30 9758 H 902.2 1.61133 1.25922 0
M  V30 9759 H 900.355 1.15022 3.69931 0
M  V30 9760 H 900.769 3.33643 4.04701 0
M  V30 9761 H 902.243 2.01902 5.13751 0
M  V30 9762 H 902.72 0.510307 4.36225 0
M  V30 9763 H 903.326 2.0556 3.72324 0
M  V30 9764 N 901.641 -1.19671 1.02551 0
M  V30 9765 C 902.574 -2.21522 0.547998 0
M  V30 9766 C 903.552 -1.57363 -0.409349 0
M  V30 9767 O 904.736 -1.85638 -0.327248 0
M  V30 9768 C 901.863 -3.38101 -0.201375 0
M  V30 9769 C 900.909 -4.20601 0.706886 0
M  V30 9770 S 901.742 -4.89066 2.18116 0
M  V30 9771 C 902.898 -6.09058 1.4422 0
M  V30 9772 H 903.131 -2.61684 1.41099 0
M  V30 9773 H 900.664 -1.29864 0.835153 0
M  V30 9774 H 902.622 -4.05674 -0.627607 0
M  V30 9775 H 901.283 -2.96381 -1.04005 0
M  V30 9776 H 900.476 -5.03836 0.128554 0
M  V30 9777 H 900.078 -3.58329 1.07129 0
M  V30 9778 H 902.37 -6.73588 0.726975 0
M  V30 9779 H 903.313 -6.71368 2.25102 0
M  V30 9780 H 903.721 -5.56599 0.941176 0
M  V30 9781 N 903.119 -0.802921 -1.35613 0
M  V30 9782 C 904.049 -0.225131 -2.32412 0
M  V30 9783 C 905.03 0.647383 -1.57299 0
M  V30 9784 O 906.215 0.578414 -1.85386 0
M  V30 9785 C 903.345 0.630085 -3.41537 0
M  V30 9786 C 902.299 -0.143635 -4.27759 0
M  V30 9787 C 901.625 0.833046 -5.28171 0
M  V30 9788 C 902.925 -1.34054 -5.04804 0
M  V30 9789 H 904.619 -1.03385 -2.80984 0
M  V30 9790 H 902.165 -0.498593 -1.35093 0
M  V30 9791 H 904.118 1.04433 -4.08254 0
M  V30 9792 H 902.842 1.47165 -2.91565 0
M  V30 9793 H 901.501 -0.539015 -3.62616 0
M  V30 9794 H 901.149 1.67001 -4.74468 0
M  V30 9795 H 900.849 0.319697 -5.8673 0
M  V30 9796 H 902.373 1.24558 -5.97761 0
M  V30 9797 H 903.787 -1.00136 -5.64487 0
M  V30 9798 H 902.184 -1.78812 -5.72841 0
M  V30 9799 H 903.254 -2.12906 -4.35659 0
M  V30 9800 N 904.597 1.47463 -0.556102 0
M  V30 9801 C 905.825 2.06868 -0.0364585 0
M  V30 9802 C 906.24 1.40893 1.25677 0
M  V30 9803 O 905.597 0.505083 1.75371 0
M  V30 9804 C 905.648 3.61128 0.163984 0
M  V30 9805 O 905.369 4.24629 -1.07803 0
M  V30 9806 C 906.87 4.37397 0.721036 0
M  V30 9807 H 904.09 0.669466 -0.0453399 0
M  V30 9808 H 906.634 1.89482 -0.769198 0
M  V30 9809 H 904.789 3.78031 0.84685 0
M  V30 9810 H 905.203 5.17149 -0.875067 0
M  V30 9811 H 906.677 5.46016 0.810584 0
M  V30 9812 H 907.154 4.03604 1.73206 0
M  V30 9813 H 907.76 4.25236 0.073904 0
M  V30 9814 N 906.075 0.2925 1.54862 0
M  V30 9815 C 907.323 -0.318633 1.99572 0
M  V30 9816 C 907.644 -1.55062 1.1824 0
M  V30 9817 O 906.914 -1.93943 0.276226 0
M  V30 9818 H 905.494 -0.120722 0.737181 0
M  V30 9819 H 908.156 0.401862 1.90712 0
M  V30 9820 H 907.252 -0.596542 3.06346 0
M  V30 9821 N 907.553 -1.57587 0.0200696 0
M  V30 9822 C 908.783 -1.95435 -0.669991 0
M  V30 9823 C 909.191 -0.894647 -1.66711 0
M  V30 9824 O 908.534 0.133009 -1.83218 0
M  V30 9825 C 908.596 -3.29379 -1.44047 0
M  V30 9826 C 908.26 -4.53008 -0.602691 0
M  V30 9827 C 909.257 -5.19766 0.118188 0
M  V30 9828 C 906.942 -4.99359 -0.542754 0
M  V30 9829 C 908.936 -6.31187 0.887774 0
M  V30 9830 C 906.623 -6.10665 0.230543 0
M  V30 9831 C 907.621 -6.76438 0.944522 0
M  V30 9832 O 907.309 -7.85608 1.70516 0
M  V30 9833 H 907.041 -0.648681 -0.190234 0
M  V30 9834 H 909.595 -2.05269 0.0733838 0
M  V30 9835 H 907.825 -3.1601 -2.22878 0
M  V30 9836 H 909.514 -3.52194 -2.01777 0
M  V30 9837 H 910.28 -4.84932 0.0811604 0
M  V30 9838 H 906.159 -4.47976 -1.08804 0
M  V30 9839 H 909.703 -6.82458 1.44558 0
M  V30 9840 H 905.6 -6.44938 0.26932 0
M  V30 9841 H 906.368 -8.02228 1.62398 0
M  V30 9842 N 909.032 0.252966 -1.55557 0
M  V30 9843 C 910.26 0.999565 -1.81153 0
M  V30 9844 C 910.675 1.79181 -0.594955 0
M  V30 9845 O 910.032 1.77208 0.436311 0
M  V30 9846 C 910.083 1.94227 -3.04891 0
M  V30 9847 O 909.804 1.18209 -4.21851 0
M  V30 9848 C 911.305 2.80536 -3.43241 0
M  V30 9849 H 908.525 0.294402 -0.602966 0
M  V30 9850 H 911.069 0.277686 -2.02606 0
M  V30 9851 H 909.224 2.6185 -2.85505 0
M  V30 9852 H 909.638 1.81922 -4.9194 0
M  V30 9853 H 911.112 3.42442 -4.32941 0
M  V30 9854 H 911.589 3.51337 -2.6355 0
M  V30 9855 H 912.195 2.18373 -3.64956 0
M  V30 9856 N 910.51 1.48831 0.518367 0
M  V30 9857 C 911.921 1.50842 1.10016 0
M  V30 9858 C 912.272 0.284744 1.94123 0
M  V30 9859 O 911.397 -0.607088 2.0771 0
M  V30 9860 C 911.992 2.73329 2.00191 0
M  V30 9861 C 910.551 2.78175 2.53566 0
M  V30 9862 C 909.698 2.4452 1.30786 0
M  V30 9863 H 912.649 1.55779 0.303073 0
M  V30 9864 H 912.67 2.52506 2.84642 0
M  V30 9865 H 912.182 3.62374 1.3895 0
M  V30 9866 H 910.283 1.93368 3.18496 0
M  V30 9867 H 910.396 3.79905 2.91906 0
M  V30 9868 H 908.76 1.95924 1.62744 0
M  V30 9869 H 909.543 3.35819 0.712797 0
M  V30 9870 N 911.988 -0.768124 1.37614 0
M  V30 9871 C 913.235 -1.5268 1.33022 0
M  V30 9872 C 913.563 -1.94318 -0.0841918 0
M  V30 9873 O 912.818 -1.64623 -1.0582 0
M  V30 9874 C 913.117 -2.80204 2.21856 0
M  V30 9875 C 912.783 -2.57602 3.7007 0
M  V30 9876 C 911.445 -2.51146 4.10462 0
M  V30 9877 C 913.797 -2.37482 4.63952 0
M  V30 9878 C 911.125 -2.22566 5.42846 0
M  V30 9879 C 913.477 -2.10425 5.96577 0
M  V30 9880 C 912.141 -2.02416 6.36069 0
M  V30 9881 H 911.411 -0.558697 0.486763 0
M  V30 9882 H 914.058 -0.88447 1.69851 0
M  V30 9883 H 912.363 -3.49014 1.78034 0
M  V30 9884 H 914.06 -3.38099 2.15615 0
M  V30 9885 H 910.65 -2.63491 3.38039 0
M  V30 9886 H 914.834 -2.41457 4.33604 0
M  V30 9887 H 910.09 -2.14863 5.72402 0
M  V30 9888 H 914.264 -1.93857 6.68874 0
M  V30 9889 H 911.891 -1.80034 7.38574 0
M  V30 9890 N 913.466 -1.22244 -0.994698 0
M  V30 9891 C 914.429 -0.992308 -2.06606 0
M  V30 9892 C 915.429 0.0405872 -1.60749 0
M  V30 9893 O 916.619 -0.197737 -1.73074 0
M  V30 9894 C 913.751 -0.498499 -3.37236 0
M  V30 9895 H 914.944 -1.9429 -2.28455 0
M  V30 9896 H 912.497 -1.04087 -1.166 0
M  V30 9897 H 913.232 0.456531 -3.21071 0
M  V30 9898 H 913.017 -1.24367 -3.71854 0
M  V30 9899 H 914.507 -0.35768 -4.16065 0
M  V30 9900 N 914.944 1.19125 -1.03184 0
M  V30 9901 C 915.892 2.24492 -0.608781 0
M  V30 9902 C 916.886 1.65529 0.360065 0
M  V30 9903 O 918.092 1.78546 0.22832 0
M  V30 9904 H 914.467 0.73048 -0.178616 0
M  V30 9905 H 916.438 2.5749 -1.50803 0
M  V30 9906 C 915.187 3.47693 0.0215126 0
M  V30 9907 H 914.51 3.93354 -0.715024 0
M  V30 9908 H 915.95 4.23072 0.280429 0
M  V30 9909 C 914.409 3.12088 1.26896 0
M  V30 9910 O 914.939 3.25013 2.36071 0
M  V30 9911 N 913.145 2.66494 1.15886 0
M  V30 9912 H 912.692 2.56176 0.270463 0
M  V30 9913 H 912.65 2.43042 1.99444 0
M  V30 9914 N 916.422 0.810101 1.35185 0
M  V30 9915 C 917.67 0.391343 1.98275 0
M  V30 9916 C 917.991 -1.04592 1.64577 0
M  V30 9917 O 917.261 -1.72417 0.93001 0
M  V30 9918 H 915.841 0.141715 0.733434 0
M  V30 9919 H 918.503 1.03672 1.6504 0
M  V30 9920 H 917.599 0.49991 3.0807 0
M  V30 9921 N 917.9 -1.47166 0.563914 0
M  V30 9922 C 919.311 -1.86231 0.132307 0
M  V30 9923 C 919.662 -1.46976 -1.29971 0
M  V30 9924 O 918.787 -0.875911 -1.97881 0
M  V30 9925 C 919.382 -3.37996 0.233335 0
M  V30 9926 C 917.941 -3.76127 -0.143278 0
M  V30 9927 C 917.088 -2.71212 0.577857 0
M  V30 9928 H 920.039 -1.38588 0.773249 0
M  V30 9929 H 920.06 -3.76558 -0.546309 0
M  V30 9930 H 919.572 -3.66535 1.27568 0
M  V30 9931 H 917.673 -3.53205 -1.18648 0
M  V30 9932 H 917.786 -4.78595 0.219952 0
M  V30 9933 H 916.15 -2.54692 0.020186 0
M  V30 9934 H 916.933 -3.02593 1.62149 0
M  V30 9935 N 919.378 -0.300708 -1.54705 0
M  V30 9936 C 920.655 0.361757 -1.92226 0
M  V30 9937 C 921.035 1.71714 -1.2279 0
M  V30 9938 O 920.383 2.2559 -0.363542 0
M  V30 9939 C 920.593 0.476699 -3.45729 0
M  V30 9940 C 921.941 0.7477 -4.17965 0
M  V30 9941 O 922.965 0.560521 -3.51762 0
M  V30 9942 O 921.824 1.10724 -5.35166 0
M  V30 9943 H 918.918 0.202213 -0.801897 0
M  V30 9944 H 921.464 -0.348746 -1.66078 0
M  V30 9945 H 920.236 -0.476132 -3.88392 0
M  V30 9946 H 919.859 1.23568 -3.77911 0
M  V30 9947 N 920.856 1.57574 -0.0284266 0
M  V30 9948 C 922.133 1.83064 0.688979 0
M  V30 9949 C 922.513 0.91219 1.90374 0
M  V30 9950 O 921.861 -0.0323672 2.28477 0
M  V30 9951 C 922.071 3.32262 1.06785 0
M  V30 9952 C 923.419 3.98717 1.45978 0
M  V30 9953 O 924.443 3.36753 1.16085 0
M  V30 9954 O 923.302 5.07927 2.01673 0
M  V30 9955 H 920.396 0.7548 0.337944 0
M  V30 9956 H 922.942 1.69607 -0.0560555 0
M  V30 9957 H 921.714 3.90772 0.203235 0
M  V30 9958 H 921.337 3.50823 1.87107 0
M  V30 9959 N 922.334 -0.244713 1.55689 0
M  V30 9960 C 923.562 -0.989944 1.8168 0
M  V30 9961 C 923.977 -1.78863 0.604449 0
M  V30 9962 O 923.334 -1.77437 -0.426907 0
M  V30 9963 C 923.385 -1.92607 3.05916 0
M  V30 9964 O 923.106 -1.1597 4.22472 0
M  V30 9965 C 924.607 -2.78711 3.44724 0
M  V30 9966 H 921.827 -0.2912 0.604519 0
M  V30 9967 H 924.371 -0.266938 2.0275 0
M  V30 9968 H 922.526 -2.60333 2.8689 0
M  V30 9969 H 922.94 -1.79311 4.92898 0
M  V30 9970 H 924.414 -3.40141 4.34751 0
M  V30 9971 H 924.891 -3.49935 2.6541 0
M  V30 9972 H 925.497 -2.16435 3.66109 0
M  V30 9973 N 923.813 -1.49104 -0.510467 0
M  V30 9974 C 925.224 -1.51423 -1.09215 0
M  V30 9975 C 925.575 -0.295035 -1.93969 0
M  V30 9976 O 924.7 0.596064 -2.08029 0
M  V30 9977 C 925.295 -2.74387 -1.98739 0
M  V30 9978 C 923.854 -2.79515 -2.52088 0
M  V30 9979 C 923.001 -2.4521 -1.29488 0
M  V30 9980 H 925.952 -1.55938 -0.294807 0
M  V30 9981 H 925.973 -2.54012 -2.83298 0
M  V30 9982 H 925.485 -3.63105 -1.37026 0
M  V30 9983 H 923.586 -1.95054 -3.17466 0
M  V30 9984 H 923.699 -3.81447 -2.89887 0
M  V30 9985 H 922.063 -1.96785 -1.61703 0
M  V30 9986 H 922.846 -3.36192 -0.694978 0
M  V30 9987 N 925.291 0.760815 -1.38019 0
M  V30 9988 C 926.201 1.90526 -1.36884 0
M  V30 9989 C 927.217 1.71941 -0.266908 0
M  V30 9990 O 928.393 1.94988 -0.50413 0
M  V30 9991 C 925.458 3.25799 -1.18558 0
M  V30 9992 C 924.519 3.56961 -2.3849 0
M  V30 9993 C 923.752 4.8578 -2.21029 0
M  V30 9994 O 923.975 5.57629 -1.20023 0
M  V30 9995 O 922.909 5.16254 -3.0946 0
M  V30 9996 H 926.735 1.94437 -2.33298 0
M  V30 9997 H 924.32 0.905091 -1.18863 0
M  V30 9998 H 926.202 4.0669 -1.1037 0
M  V30 9999 H 924.877 3.22716 -0.252241 0
M  V30 10000 H 923.784 2.7626 -2.52252 0
M  V30 10001 H 925.117 3.64798 -3.30429 0
M  V30 10002 N 926.769 1.22769 0.988202 0
M  V30 10003 C 927.679 1.01844 2.11341 0
M  V30 10004 C 928.695 -0.0346937 1.73965 0
M  V30 10005 O 929.871 0.159061 2.00771 0
M  V30 10006 C 926.936 0.603837 3.41401 0
M  V30 10007 C 925.997 1.73113 3.92849 0
M  V30 10008 C 925.23 1.33621 5.16702 0
M  V30 10009 O 925.453 0.217041 5.69987 0
M  V30 10010 O 924.387 2.15444 5.62021 0
M  V30 10011 H 928.213 1.96127 2.31879 0
M  V30 10012 H 925.798 1.01405 1.09715 0
M  V30 10013 H 927.68 0.383196 4.19654 0
M  V30 10014 H 926.355 -0.310082 3.22211 0
M  V30 10015 H 925.262 2.00634 3.15748 0
M  V30 10016 H 926.595 2.62308 4.1648 0
M  V30 10017 N 928.247 -1.18576 1.03814 0
M  V30 10018 C 929.496 -1.87822 0.735235 0
M  V30 10019 C 929.809 -1.81069 -0.739819 0
M  V30 10020 O 931.015 -2.45654 -1.15614 0
M  V30 10021 C 929.471 -3.36941 1.26486 0
M  V30 10022 C 929.079 -3.5223 2.76836 0
M  V30 10023 C 930.823 -4.11604 1.03836 0
M  V30 10024 C 928.73 -4.95294 3.23169 0
M  V30 10025 H 927.66 -0.703487 0.271333 0
M  V30 10026 H 930.311 -1.34 1.25365 0
M  V30 10027 H 928.693 -3.90217 0.674318 0
M  V30 10028 H 929.867 -3.09239 3.41625 0
M  V30 10029 H 928.182 -2.90969 2.97869 0
M  V30 10030 H 930.779 -5.17123 1.3597 0
M  V30 10031 H 931.122 -4.16293 -0.0244945 0
M  V30 10032 H 931.655 -3.64494 1.59338 0
M  V30 10033 H 928.394 -4.95772 4.28824 0
M  V30 10034 H 927.914 -5.3901 2.63113 0
M  V30 10035 H 929.593 -5.63996 3.17045 0
M  V30 10036 N 929.725 -0.817259 -1.34754 0
M  V30 10037 C 930.655 -0.249769 -2.3216 0
M  V30 10038 C 931.636 0.630663 -1.57977 0
M  V30 10039 O 932.821 0.558719 -1.85989 0
M  V30 10040 C 929.951 0.593825 -3.42186 0
M  V30 10041 C 928.905 -0.188997 -4.27583 0
M  V30 10042 C 928.231 0.776979 -5.29025 0
M  V30 10043 C 929.531 -1.39401 -5.03354 0
M  V30 10044 H 931.225 -1.06359 -2.79872 0
M  V30 10045 H 928.771 -0.512894 -1.34556 0
M  V30 10046 H 930.724 1.00097 -4.09339 0
M  V30 10047 H 929.448 1.44064 -2.93109 0
M  V30 10048 H 928.107 -0.577445 -3.62024 0
M  V30 10049 H 927.755 1.61959 -4.76212 0
M  V30 10050 H 927.455 0.257448 -5.87036 0
M  V30 10051 H 928.979 1.18211 -5.99048 0
M  V30 10052 H 930.393 -1.06117 -5.63393 0
M  V30 10053 H 928.79 -1.84878 -5.70912 0
M  V30 10054 H 929.86 -2.17515 -4.33377 0
M  V30 10055 N 931.203 1.46865 -0.571711 0
M  V30 10056 C 932.166 2.28658 0.157499 0
M  V30 10057 C 933.166 1.37773 0.829172 0
M  V30 10058 O 934.356 1.6026 0.682811 0
M  V30 10059 C 931.488 3.17859 1.23202 0
M  V30 10060 H 932.681 2.94603 -0.561171 0
M  V30 10061 H 930.234 1.52793 -0.329229 0
M  V30 10062 H 930.969 2.56637 1.98262 0
M  V30 10063 H 930.754 3.84762 0.755031 0
M  V30 10064 H 932.244 3.7945 1.74378 0
M  V30 10065 N 932.681 0.308908 1.54543 0
M  V30 10066 C 934.097 -0.0442273 1.59539 0
M  V30 10067 C 934.297 -1.51743 1.32575 0
M  V30 10068 O 933.353 -2.27134 1.10302 0
M  V30 10069 C 934.666 0.360826 2.98527 0
M  V30 10070 C 936.214 0.310252 3.11459 0
M  V30 10071 C 936.689 0.690246 4.52769 0
M  V30 10072 N 938.18 0.643084 4.58714 0
M  V30 10073 C 938.915 0.909483 5.66141 0
M  V30 10074 N 938.411 1.24226 6.81572 0
M  V30 10075 N 940.204 0.836018 5.55848 0
M  V30 10076 H 932.355 1.26893 1.70329 0
M  V30 10077 H 934.618 0.514986 0.795923 0
M  V30 10078 H 934.324 1.38669 3.23209 0
M  V30 10079 H 934.198 -0.281563 3.76148 0
M  V30 10080 H 936.585 -0.706375 2.86521 0
M  V30 10081 H 936.666 0.987373 2.35976 0
M  V30 10082 H 936.31 1.70472 4.78437 0
M  V30 10083 H 936.24 -0.00903075 5.26599 0
M  V30 10084 H 938.731 0.397138 3.75807 0
M  V30 10085 H 939.044 1.4313 7.5943 0
M  V30 10086 H 937.389 1.28038 6.83104 0
M  V30 10087 H 940.58 0.575637 4.64547 0
M  V30 10088 H 940.753 1.047 6.39486 0
M  V30 10089 N 934.159 -1.57557 0.0367827 0
M  V30 10090 C 935.408 -1.91291 -0.639569 0
M  V30 10091 C 935.721 -0.915601 -1.72847 0
M  V30 10092 O 936.927 -1.14447 -2.46199 0
M  V30 10093 C 935.383 -3.39697 -1.18888 0
M  V30 10094 C 934.991 -4.47803 -0.132851 0
M  V30 10095 C 936.735 -3.82487 -1.8413 0
M  V30 10096 C 934.642 -5.87311 -0.694229 0
M  V30 10097 H 933.572 -0.713886 -0.242658 0
M  V30 10098 H 936.223 -1.83209 0.103332 0
M  V30 10099 H 934.605 -3.42736 -1.98363 0
M  V30 10100 H 935.779 -4.56334 0.640009 0
M  V30 10101 H 934.094 -4.14264 0.421264 0
M  V30 10102 H 936.691 -4.84076 -2.27101 0
M  V30 10103 H 937.034 -3.17959 -2.68716 0
M  V30 10104 H 937.567 -3.81903 -1.11332 0
M  V30 10105 H 934.306 -6.55401 0.113667 0
M  V30 10106 H 933.826 -5.82371 -1.4354 0
M  V30 10107 H 935.505 -6.36119 -1.1816 0
M  V30 10108 N 935.637 0.236453 -1.55816 0
M  V30 10109 C 936.885 0.96111 -1.77784 0
M  V30 10110 C 937.206 1.85454 -0.602648 0
M  V30 10111 O 936.476 1.92157 0.381137 0
M  V30 10112 H 935.056 0.35787 -0.655697 0
M  V30 10113 H 937.718 0.251888 -1.93265 0
M  V30 10114 H 936.814 1.5767 -2.69345 0
M  V30 10115 N 937.115 1.49373 0.502552 0
M  V30 10116 C 938.34 1.62752 1.28556 0
M  V30 10117 C 938.765 0.298285 1.8572 0
M  V30 10118 O 938.123 -0.733885 1.65782 0
M  V30 10119 C 938.171 2.69778 2.39274 0
M  V30 10120 O 937.275 2.28843 3.43081 0
M  V30 10121 H 936.616 0.544799 0.379592 0
M  V30 10122 H 939.146 1.9555 0.601792 0
M  V30 10123 H 939.156 2.91899 2.8506 0
M  V30 10124 H 937.831 3.66266 1.97033 0
M  V30 10125 H 936.408 2.17047 3.03224 0
M  V30 10126 N 938.594 -0.753485 1.38421 0
M  V30 10127 C 939.842 -1.50962 1.34368 0
M  V30 10128 C 940.163 -1.94889 -0.0656895 0
M  V30 10129 O 939.433 -1.67652 -1.01339 0
M  V30 10130 H 938.013 -0.559967 0.494415 0
M  V30 10131 H 940.675 -0.895665 1.73101 0
M  V30 10132 H 939.771 -2.40048 1.99458 0
M  V30 10133 N 940.072 -1.23292 -0.981677 0
M  V30 10134 C 941.019 -1.01296 -2.07383 0
M  V30 10135 C 941.989 0.069139 -1.65956 0
M  V30 10136 O 943.174 -0.0827108 -1.90621 0
M  V30 10137 C 940.314 -0.608876 -3.39686 0
M  V30 10138 C 939.427 -1.76296 -3.9439 0
M  V30 10139 C 938.562 -1.30578 -5.14901 0
M  V30 10140 C 937.601 -2.4307 -5.61768 0
M  V30 10141 N 936.738 -1.98319 -6.73509 0
M  V30 10142 H 941.578 -1.9478 -2.25532 0
M  V30 10143 H 939.115 -0.970356 -1.10555 0
M  V30 10144 H 941.073 -0.355702 -4.15681 0
M  V30 10145 H 939.703 0.288961 -3.21504 0
M  V30 10146 H 938.755 -2.13017 -3.15163 0
M  V30 10147 H 940.067 -2.60871 -4.25145 0
M  V30 10148 H 939.221 -1.01066 -5.98223 0
M  V30 10149 H 937.96 -0.430386 -4.85797 0
M  V30 10150 H 936.965 -2.73358 -4.77028 0
M  V30 10151 H 938.19 -3.31144 -5.92892 0
M  V30 10152 H 936.136 -1.13157 -6.46167 0
M  V30 10153 H 936.053 -2.76454 -7.0364 0
M  V30 10154 H 937.321 -1.71907 -7.60308 0
M  V30 10155 N 941.55 1.18024 -1.04442 0
M  V30 10156 C 942.797 1.88098 -0.750022 0
M  V30 10157 C 943.125 1.80583 0.722489 0
M  V30 10158 O 942.38 1.20329 1.54335 0
M  V30 10159 C 942.679 3.37834 -1.16631 0
M  V30 10160 C 942.345 3.65553 -2.63974 0
M  V30 10161 C 941.007 3.72827 -3.04226 0
M  V30 10162 C 943.359 3.77634 -3.59224 0
M  V30 10163 C 940.687 3.89666 -4.38608 0
M  V30 10164 C 943.039 3.9599 -4.9333 0
M  V30 10165 C 941.703 4.01501 -5.33248 0
M  V30 10166 H 940.973 0.6883 -0.274452 0
M  V30 10167 H 943.62 1.39671 -1.31012 0
M  V30 10168 H 941.925 3.88266 -0.525071 0
M  V30 10169 H 943.622 3.90402 -0.915827 0
M  V30 10170 H 940.212 3.6051 -2.31798 0
M  V30 10171 H 944.396 3.71342 -3.2927 0
M  V30 10172 H 939.652 3.92178 -4.69048 0
M  V30 10173 H 943.826 4.0428 -5.67037 0
M  V30 10174 H 941.453 4.14301 -6.37384 0
M  V30 10175 N 943.028 0.824394 1.34319 0
M  V30 10176 C 944.253 0.425194 2.02995 0
M  V30 10177 C 944.678 -0.961476 1.6167 0
M  V30 10178 O 944.036 -1.62593 0.80207 0
M  V30 10179 C 944.084 0.537004 3.56579 0
M  V30 10180 O 943.188 -0.442576 4.10018 0
M  V30 10181 H 942.529 0.174853 0.640564 0
M  V30 10182 H 945.059 1.11522 1.71534 0
M  V30 10183 H 945.069 0.413311 4.05901 0
M  V30 10184 H 943.744 1.54836 3.86004 0
M  V30 10185 H 942.321 -0.277644 3.71865 0
M  V30 10186 N 944.506 -1.46559 0.579492 0
M  V30 10187 C 945.436 -2.33059 -0.143437 0
M  V30 10188 C 946.417 -1.4515 -0.886868 0
M  V30 10189 O 947.602 -1.73973 -0.862961 0
M  V30 10190 C 944.732 -3.27364 -1.15973 0
M  V30 10191 C 943.686 -4.24689 -0.531348 0
M  V30 10192 C 943.012 -5.08479 -1.65388 0
M  V30 10193 C 944.312 -5.1961 0.529391 0
M  V30 10194 H 946.006 -2.93753 0.578762 0
M  V30 10195 H 943.552 -1.41256 0.279775 0
M  V30 10196 H 945.505 -3.86732 -1.67382 0
M  V30 10197 H 944.229 -2.64771 -1.91217 0
M  V30 10198 H 942.888 -3.6658 -0.0383749 0
M  V30 10199 H 942.536 -4.42273 -2.3959 0
M  V30 10200 H 942.236 -5.74387 -1.23909 0
M  V30 10201 H 943.76 -5.70709 -2.17079 0
M  V30 10202 H 945.174 -5.73212 0.100506 0
M  V30 10203 H 943.571 -5.93843 0.86432 0
M  V30 10204 H 944.641 -4.63737 1.4169 0
M  V30 10205 N 945.984 -0.3171 -1.54377 0
M  V30 10206 C 947.209 0.292311 -2.0533 0
M  V30 10207 C 947.634 1.45503 -1.19207 0
M  V30 10208 O 946.992 1.80197 -0.199721 0
M  V30 10209 C 947.04 0.710787 -3.53525 0
M  V30 10210 O 946.144 1.81387 -3.70368 0
M  V30 10211 H 945.485 0.0539976 -0.661801 0
M  V30 10212 H 948.015 -0.463629 -1.99278 0
M  V30 10213 H 948.025 0.995216 -3.95676 0
M  V30 10214 H 946.7 -0.139668 -4.15665 0
M  V30 10215 H 945.277 1.52875 -3.40123 0
M  V30 10216 N 947.462 1.57535 -0.0451378 0
M  V30 10217 C 948.71 1.92071 0.628743 0
M  V30 10218 C 949.031 0.923635 1.71738 0
M  V30 10219 O 948.301 -0.0324376 1.95873 0
M  V30 10220 H 946.881 0.708995 0.235233 0
M  V30 10221 H 949.543 1.9466 -0.0967177 0
M  V30 10222 H 948.639 2.9314 1.07123 0
M  V30 10223 N 948.94 -0.228186 1.55939 0
M  V30 10224 C 950.188 -0.951668 1.78291 0
M  V30 10225 C 950.509 -1.85132 0.612474 0
M  V30 10226 O 949.779 -1.92356 -0.370942 0
M  V30 10227 H 948.359 -0.354388 0.657585 0
M  V30 10228 H 951.021 -0.241635 1.93396 0
M  V30 10229 H 950.117 -1.56239 2.70177 0
M  V30 10230 N 950.418 -1.49637 -0.494624 0
M  V30 10231 C 951.648 -1.62928 -1.27036 0
M  V30 10232 C 952.056 -0.302464 -1.86767 0
M  V30 10233 O 951.399 0.722878 -1.68879 0
M  V30 10234 C 951.461 -2.64449 -2.43531 0
M  V30 10235 C 951.125 -4.08632 -2.0462 0
M  V30 10236 C 952.122 -4.95238 -1.58225 0
M  V30 10237 C 949.807 -4.54405 -2.1406 0
M  V30 10238 C 951.801 -6.25658 -1.21782 0
M  V30 10239 C 949.488 -5.84836 -1.77228 0
M  V30 10240 C 950.486 -6.70287 -1.31165 0
M  V30 10241 O 950.174 -7.98287 -0.948339 0
M  V30 10242 H 949.906 -0.551263 -0.391261 0
M  V30 10243 H 952.46 -1.96453 -0.599621 0
M  V30 10244 H 950.69 -2.26117 -3.137 0
M  V30 10245 H 952.379 -2.67203 -3.05545 0
M  V30 10246 H 953.145 -4.611 -1.50373 0
M  V30 10247 H 949.024 -3.88056 -2.48865 0
M  V30 10248 H 952.568 -6.92309 -0.857566 0
M  V30 10249 H 948.465 -6.18502 -1.84732 0
M  V30 10250 H 949.233 -8.11353 -1.07925 0
M  V30 10251 N 951.896 0.746133 -1.38819 0
M  V30 10252 C 953.142 1.50669 -1.3664 0
M  V30 10253 C 953.497 1.92356 0.0411513 0
M  V30 10254 O 952.79 1.63104 1.00537 0
M  V30 10255 C 952.984 2.76639 -2.26286 0
M  V30 10256 C 952.813 2.47268 -3.75618 0
M  V30 10257 C 951.583 2.40116 -4.44603 0
M  V30 10258 C 953.781 2.13548 -4.67869 0
M  V30 10259 N 951.763 2.03098 -5.79331 0
M  V30 10260 C 953.134 1.86883 -5.91164 0
M  V30 10261 C 955.189 1.99922 -4.56 0
M  V30 10262 C 953.892 1.47965 -7.03917 0
M  V30 10263 C 955.918 1.62406 -5.68664 0
M  V30 10264 C 955.28 1.36618 -6.91025 0
M  V30 10265 H 951.379 0.550624 -0.555282 0
M  V30 10266 H 953.963 0.868179 -1.74272 0
M  V30 10267 H 952.134 3.38287 -1.9083 0
M  V30 10268 H 953.866 3.42753 -2.1518 0
M  V30 10269 H 950.621 2.56839 -3.97908 0
M  V30 10270 H 951.045 1.87214 -6.506 0
M  V30 10271 H 955.687 2.18531 -3.61945 0
M  V30 10272 H 953.405 1.28096 -7.97883 0
M  V30 10273 H 956.991 1.52483 -5.61462 0
M  V30 10274 H 955.871 1.08021 -7.76725 0
M  V30 10275 N 953.375 1.23811 0.975125 0
M  V30 10276 C 954.323 1.02149 2.0897 0
M  V30 10277 C 955.317 -0.0412172 1.6935 0
M  V30 10278 O 956.523 0.112726 1.79647 0
M  V30 10279 H 952.898 0.313259 0.683647 0
M  V30 10280 H 954.869 1.96686 2.24404 0
M  V30 10281 C 953.618 0.635023 3.41852 0
M  V30 10282 H 952.941 1.44449 3.72793 0
M  V30 10283 H 954.381 0.52301 4.20762 0
M  V30 10284 C 952.84 -0.657207 3.30428 0
M  V30 10285 O 953.37 -1.70494 3.63723 0
M  V30 10286 N 951.576 -0.635122 2.83575 0
M  V30 10287 H 951.123 0.21784 2.56677 0
M  V30 10288 H 951.081 -1.49995 2.76313 0
M  V30 10289 N 954.853 -1.17469 1.05066 0
M  V30 10290 C 956.078 -1.92162 0.780298 0
M  V30 10291 C 956.503 -1.76222 -0.657832 0
M  V30 10292 O 955.861 -1.0791 -1.45688 0
M  V30 10293 C 955.909 -3.41292 1.16414 0
M  V30 10294 O 955.013 -4.1134 0.295531 0
M  V30 10295 H 954.354 -0.599127 0.286257 0
M  V30 10296 H 956.884 -1.48903 1.40318 0
M  V30 10297 H 956.894 -3.92029 1.13036 0
M  V30 10298 H 955.569 -3.52214 2.21175 0
M  V30 10299 H 954.146 -3.70857 0.389797 0
M  V30 10300 N 956.331 -0.831506 -1.3388 0
M  V30 10301 C 957.577 -0.424302 -1.98312 0
M  V30 10302 C 957.91 1.01211 -1.65741 0
M  V30 10303 O 957.185 1.70636 -0.933464 0
M  V30 10304 C 957.468 -0.636815 -3.54424 0
M  V30 10305 C 957.321 -2.11997 -3.96708 0
M  V30 10306 C 958.64 -0.0782411 -4.4003 0
M  V30 10307 H 955.759 -0.155637 -0.720379 0
M  V30 10308 H 958.401 -1.04566 -1.58638 0
M  V30 10309 H 956.551 -0.107907 -3.8835 0
M  V30 10310 H 958.223 -2.71317 -3.73075 0
M  V30 10311 H 956.466 -2.60723 -3.46707 0
M  V30 10312 H 957.137 -2.21944 -5.05416 0
M  V30 10313 H 959.613 -0.530243 -4.12708 0
M  V30 10314 H 958.489 -0.256676 -5.483 0
M  V30 10315 H 958.75 1.01745 -4.30233 0
M  V30 10316 N 957.809 1.4625 -0.587256 0
M  V30 10317 C 959.034 2.07252 -0.0784517 0
M  V30 10318 C 959.459 1.43239 1.21919 0
M  V30 10319 O 958.817 0.517791 1.73749 0
M  V30 10320 C 958.865 3.60534 0.0691037 0
M  V30 10321 O 957.969 3.96773 1.12448 0
M  V30 10322 H 957.31 0.660825 -0.064859 0
M  V30 10323 H 959.84 1.87819 -0.811491 0
M  V30 10324 H 959.85 4.0708 0.273826 0
M  V30 10325 H 958.525 4.06516 -0.878514 0
M  V30 10326 H 957.102 3.6193 0.897852 0
M  V30 10327 N 959.287 0.325282 1.54207 0
M  V30 10328 C 960.564 -0.33113 1.92777 0
M  V30 10329 C 960.944 -1.69739 1.25506 0
M  V30 10330 O 960.292 -2.24983 0.399385 0
M  V30 10331 C 960.502 -0.421636 3.46444 0
M  V30 10332 C 961.85 -0.681111 4.19101 0
M  V30 10333 O 962.874 -0.504488 3.52609 0
M  V30 10334 O 961.733 -1.02196 5.3686 0
M  V30 10335 H 958.827 -0.18943 0.805013 0
M  V30 10336 H 961.373 0.375123 1.65502 0
M  V30 10337 H 960.145 0.537862 3.87586 0
M  V30 10338 H 959.768 -1.1754 3.79829 0
M  V30 10339 N 960.765 -1.57509 0.0534917 0
M  V30 10340 C 961.993 -1.97098 -0.629298 0
M  V30 10341 C 962.408 -0.931128 -1.64242 0
M  V30 10342 O 961.765 0.0843866 -1.82305 0
M  V30 10343 C 961.816 -3.36767 -1.31415 0
M  V30 10344 O 961.537 -4.36766 -0.341599 0
M  V30 10345 C 963.038 -3.91127 -2.08649 0
M  V30 10346 H 960.258 -0.648611 -0.171886 0
M  V30 10347 H 962.802 -2.04145 0.120479 0
M  V30 10348 H 960.957 -3.30863 -2.01515 0
M  V30 10349 H 961.371 -5.1788 -0.830715 0
M  V30 10350 H 962.845 -4.91129 -2.51985 0
M  V30 10351 H 963.322 -3.26679 -2.9356 0
M  V30 10352 H 963.928 -4.00376 -1.43456 0
M  V30 10353 N 962.243 0.219913 -1.56058 0
M  V30 10354 C 963.206 1.25606 -1.91718 0
M  V30 10355 C 964.206 1.39721 -0.795912 0
M  V30 10356 O 965.396 1.37958 -1.06364 0
M  V30 10357 C 962.528 2.62961 -2.16943 0
M  V30 10358 H 963.721 0.951909 -2.84392 0
M  V30 10359 H 961.274 0.460398 -1.49365 0
M  V30 10360 H 962.009 2.98472 -1.26826 0
M  V30 10361 H 961.794 2.54093 -2.98629 0
M  V30 10362 H 963.284 3.37727 -2.45622 0
M  V30 10363 N 963.721 1.49897 0.486681 0
M  V30 10364 C 964.668 1.67619 1.58658 0
M  V30 10365 C 965.638 0.517537 1.57831 0
M  V30 10366 O 966.823 0.746272 1.756 0
M  V30 10367 C 963.963 1.762 2.96728 0
M  V30 10368 C 963.076 3.03465 3.07462 0
M  V30 10369 C 962.211 3.02937 4.36351 0
M  V30 10370 C 961.25 4.24721 4.4077 0
M  V30 10371 N 960.387 4.22021 5.61108 0
M  V30 10372 H 965.227 2.61528 1.42853 0
M  V30 10373 H 962.764 1.29657 0.694807 0
M  V30 10374 H 964.722 1.79156 3.76774 0
M  V30 10375 H 963.352 0.857452 3.11203 0
M  V30 10376 H 962.404 3.10054 2.20387 0
M  V30 10377 H 963.716 3.93454 3.06586 0
M  V30 10378 H 962.87 3.04536 5.24731 0
M  V30 10379 H 961.609 2.10751 4.39813 0
M  V30 10380 H 960.614 4.23352 3.5079 0
M  V30 10381 H 961.839 5.18116 4.39013 0
M  V30 10382 H 959.785 3.3268 5.65385 0
M  V30 10383 H 959.702 5.05761 5.61909 0
M  V30 10384 H 960.97 4.27743 6.51656 0
M  V30 10385 N 965.199 -0.738761 1.39212 0
M  V30 10386 C 966.476 -1.48982 1.26742 0
M  V30 10387 C 966.856 -2.10732 -0.12466 0
M  V30 10388 O 966.204 -1.98287 -1.13554 0
M  V30 10389 C 966.414 -2.54427 2.38889 0
M  V30 10390 C 967.762 -3.20915 2.78027 0
M  V30 10391 O 968.786 -2.64738 2.38311 0
M  V30 10392 O 967.645 -4.22558 3.46565 0
M  V30 10393 H 964.739 -0.661395 0.496473 0
M  V30 10394 H 967.285 -0.772907 1.51077 0
M  V30 10395 H 966.057 -2.07151 3.3197 0
M  V30 10396 H 965.68 -3.33682 2.162 0
M  V30 10397 N 966.677 -1.24326 -0.968545 0
M  V30 10398 C 967.607 -1.05951 -2.08079 0
M  V30 10399 C 968.588 0.0272666 -1.70078 0
M  V30 10400 O 969.773 -0.139644 -1.93697 0
M  V30 10401 C 966.903 -0.662623 -3.4092 0
M  V30 10402 C 965.857 -1.69807 -3.92873 0
M  V30 10403 C 965.183 -1.15628 -5.22048 0
M  V30 10404 C 966.483 -3.09383 -4.20808 0
M  V30 10405 H 968.177 -1.98984 -2.23709 0
M  V30 10406 H 965.723 -0.958112 -1.075 0
M  V30 10407 H 967.676 -0.521071 -4.18166 0
M  V30 10408 H 966.4 0.303399 -3.25188 0
M  V30 10409 H 965.059 -1.82783 -3.17783 0
M  V30 10410 H 964.707 -0.180888 -5.02675 0
M  V30 10411 H 964.407 -1.84822 -5.57776 0
M  V30 10412 H 965.931 -1.02683 -6.01904 0
M  V30 10413 H 967.345 -2.99642 -4.88761 0
M  V30 10414 H 965.742 -3.75923 -4.67763 0
M  V30 10415 H 966.812 -3.57486 -3.27616 0
M  V30 10416 N 968.156 1.1691 -1.05688 0
M  V30 10417 C 969.402 1.8757 -0.771071 0
M  V30 10418 C 969.735 1.8113 0.700399 0
M  V30 10419 O 969.01 1.22273 1.5126 0
M  V30 10420 C 969.293 3.37392 -1.25851 0
M  V30 10421 C 969.146 3.52556 -2.79329 0
M  V30 10422 C 970.465 4.31585 -0.861512 0
M  V30 10423 H 967.584 0.681089 -0.281579 0
M  V30 10424 H 970.226 1.37453 -1.31174 0
M  V30 10425 H 968.376 3.80204 -0.798563 0
M  V30 10426 H 970.048 3.18725 -3.33485 0
M  V30 10427 H 968.291 2.94668 -3.1836 0
M  V30 10428 H 968.962 4.57748 -3.08498 0
M  V30 10429 H 971.438 3.96642 -1.25756 0
M  V30 10430 H 970.314 5.34939 -1.23012 0
M  V30 10431 H 970.575 4.4148 0.234089 0
M  V30 10432 N 969.634 0.838594 1.33437 0
M  V30 10433 C 970.859 0.446701 2.02532 0
M  V30 10434 C 971.284 -0.944275 1.62681 0
M  V30 10435 O 970.642 -1.61733 0.81927 0
M  V30 10436 C 970.69 0.574794 3.55989 0
M  V30 10437 O 969.794 -0.399063 4.10465 0
M  V30 10438 H 969.135 0.181637 0.638674 0
M  V30 10439 H 971.665 1.13335 1.70342 0
M  V30 10440 H 971.675 0.456339 4.0544 0
M  V30 10441 H 970.35 1.58921 3.8434 0
M  V30 10442 H 968.927 -0.238187 3.72139 0
M  V30 10443 N 971.112 -1.45937 0.595003 0
M  V30 10444 C 972.059 -2.30427 -0.131165 0
M  V30 10445 C 973.029 -1.41355 -0.872232 0
M  V30 10446 O 974.214 -1.70296 -0.860467 0
M  V30 10447 C 971.354 -3.26045 -1.13087 0
M  V30 10448 C 970.467 -4.30218 -0.391982 0
M  V30 10449 C 969.602 -5.12953 -1.3803 0
M  V30 10450 C 968.641 -6.08865 -0.628505 0
M  V30 10451 N 967.778 -6.84425 -1.56548 0
M  V30 10452 H 972.618 -2.91992 0.595359 0
M  V30 10453 H 970.155 -1.43895 0.305405 0
M  V30 10454 H 972.113 -3.79937 -1.72348 0
M  V30 10455 H 970.743 -2.66261 -1.82496 0
M  V30 10456 H 969.795 -3.79086 0.315895 0
M  V30 10457 H 971.107 -4.98418 0.195173 0
M  V30 10458 H 970.261 -5.71184 -2.04534 0
M  V30 10459 H 969 -4.44743 -2.00138 0
M  V30 10460 H 968.005 -5.49777 0.0502431 0
M  V30 10461 H 969.23 -6.79099 -0.012641 0
M  V30 10462 H 967.176 -6.18913 -2.17444 0
M  V30 10463 H 967.093 -7.48931 -1.03145 0
M  V30 10464 H 968.361 -7.47204 -2.22049 0
M  V30 10465 N 972.59 -0.333456 -1.54032 0
M  V30 10466 C 973.523 0.570776 -2.20947 0
M  V30 10467 C 974.501 1.10811 -1.18994 0
M  V30 10468 O 975.685 1.17027 -1.47773 0
M  V30 10469 C 972.812 1.7842 -2.87896 0
M  V30 10470 C 971.858 1.37722 -4.03652 0
M  V30 10471 S 972.691 0.405548 -5.33962 0
M  V30 10472 C 973.847 1.62603 -6.0441 0
M  V30 10473 H 974.08 0.0023936 -2.973 0
M  V30 10474 H 971.613 -0.117531 -1.53952 0
M  V30 10475 H 973.571 2.48038 -3.27089 0
M  V30 10476 H 972.232 2.32378 -2.11327 0
M  V30 10477 H 971.425 2.28167 -4.49395 0
M  V30 10478 H 971.027 0.760628 -3.66184 0
M  V30 10479 H 973.319 2.56202 -6.2719 0
M  V30 10480 H 974.262 1.21058 -6.97675 0
M  V30 10481 H 974.67 1.8175 -5.34441 0
M  V30 10482 N 974.068 1.57479 -0.061844 0
M  V30 10483 C 974.998 2.15181 0.9066 0
M  V30 10484 C 975.979 1.07624 1.31724 0
M  V30 10485 O 977.164 1.35614 1.39006 0
M  V30 10486 C 974.294 2.70542 2.17771 0
M  V30 10487 C 973.248 3.83178 1.9068 0
M  V30 10488 C 972.574 4.25099 3.24337 0
M  V30 10489 C 973.874 5.07853 1.21994 0
M  V30 10490 H 975.568 2.96355 0.42594 0
M  V30 10491 H 973.114 1.42556 0.203435 0
M  V30 10492 H 975.067 3.09552 2.85929 0
M  V30 10493 H 973.791 1.86575 2.68062 0
M  V30 10494 H 972.45 3.44656 1.24931 0
M  V30 10495 H 972.098 3.38069 3.72449 0
M  V30 10496 H 971.798 5.01021 3.07005 0
M  V30 10497 H 973.322 4.66718 3.93709 0
M  V30 10498 H 974.736 5.44242 1.80204 0
M  V30 10499 H 973.133 5.88987 1.14954 0
M  V30 10500 H 974.203 4.84497 0.197536 0
M  V30 10501 N 975.546 -0.211634 1.56173 0
M  V30 10502 C 976.496 -1.26602 1.8962 0
M  V30 10503 C 977.48 -1.41808 0.760222 0
M  V30 10504 O 978.672 -1.44456 1.02281 0
M  V30 10505 C 975.801 -2.61438 2.22497 0
M  V30 10506 C 974.887 -2.50094 3.42511 0
M  V30 10507 N 975.278 -2.0841 4.60868 0
M  V30 10508 C 973.576 -2.81028 3.46322 0
M  V30 10509 C 974.277 -2.08557 5.43028 0
M  V30 10510 N 973.253 -2.49427 4.82998 0
M  V30 10511 H 977.055 -0.934806 2.78637 0
M  V30 10512 H 974.569 -0.420154 1.56871 0
M  V30 10513 H 976.566 -3.37577 2.44638 0
M  V30 10514 H 975.226 -2.95397 1.34798 0
M  V30 10515 H 976.237 -1.79382 4.85842 0
M  V30 10516 H 972.914 -3.19294 2.68994 0
M  V30 10517 H 974.304 -1.7837 6.47791 0
M  V30 10518 N 977.024 -1.50153 -0.478725 0
M  V30 10519 C 978.27 -1.60998 -1.23318 0
M  V30 10520 C 978.603 -0.305868 -1.91776 0
M  V30 10521 O 977.878 0.692158 -1.81767 0
M  V30 10522 C 978.161 -2.78495 -2.28282 0
M  V30 10523 C 978.014 -4.18767 -1.64178 0
M  V30 10524 C 979.333 -2.91569 -3.2966 0
M  V30 10525 H 976.452 -0.585983 -0.446982 0
M  V30 10526 H 979.094 -1.82514 -0.528063 0
M  V30 10527 H 977.244 -2.60281 -2.8842 0
M  V30 10528 H 978.916 -4.48552 -1.07696 0
M  V30 10529 H 977.159 -4.23379 -0.94514 0
M  V30 10530 H 977.83 -4.96894 -2.40417 0
M  V30 10531 H 980.306 -3.08219 -2.79536 0
M  V30 10532 H 979.182 -3.75419 -4.0044 0
M  V30 10533 H 979.443 -2.01859 -3.93326 0
M  V30 10534 N 978.502 0.731368 -1.39602 0
M  V30 10535 C 979.779 1.48308 -1.27531 0
M  V30 10536 C 980.159 2.10795 0.113482 0
M  V30 10537 O 979.507 1.98886 1.12501 0
M  V30 10538 C 979.717 2.53156 -2.40235 0
M  V30 10539 C 981.065 3.19436 -2.79725 0
M  V30 10540 O 982.089 2.6347 -2.39712 0
M  V30 10541 O 980.948 4.20714 -3.48801 0
M  V30 10542 H 978.042 0.658753 -0.499973 0
M  V30 10543 H 980.588 0.764884 -1.51485 0
M  V30 10544 H 979.36 2.05387 -3.33064 0
M  V30 10545 H 978.983 3.3253 -2.17966 0
M  V30 10546 N 979.98 1.24838 0.961938 0
M  V30 10547 C 981.391 1.08369 1.5203 0
M  V30 10548 C 981.742 -0.343005 1.93178 0
M  V30 10549 O 980.867 -1.2321 1.779 0
M  V30 10550 C 981.462 1.96102 2.76278 0
M  V30 10551 C 980.021 1.8384 3.28451 0
M  V30 10552 C 979.168 1.9069 2.01327 0
M  V30 10553 H 982.119 1.38231 0.779613 0
M  V30 10554 H 982.14 1.4967 3.49827 0
M  V30 10555 H 981.652 2.99931 2.46298 0
M  V30 10556 H 979.753 0.828653 3.63269 0
M  V30 10557 H 979.866 2.68251 3.96961 0
M  V30 10558 H 978.23 1.34488 2.16299 0
M  V30 10559 H 979.013 2.96111 1.73705 0
M  V30 10560 N 981.458 -1.16348 1.06306 0
M  V30 10561 C 982.408 -2.18717 0.643947 0
M  V30 10562 C 983.392 -1.57574 -0.325445 0
M  V30 10563 O 984.584 -1.76439 -0.140868 0
M  V30 10564 C 981.713 -3.43285 0.0320266 0
M  V30 10565 C 980.799 -4.11504 1.02592 0
M  V30 10566 N 981.19 -4.55374 2.20155 0
M  V30 10567 C 979.488 -4.37691 0.856887 0
M  V30 10568 C 980.189 -5.08149 2.83124 0
M  V30 10569 N 979.165 -5.01042 2.10851 0
M  V30 10570 H 982.967 -2.50353 1.53951 0
M  V30 10571 H 980.481 -1.328 0.934763 0
M  V30 10572 H 982.478 -4.15917 -0.286064 0
M  V30 10573 H 981.138 -3.13137 -0.858786 0
M  V30 10574 H 982.149 -4.49101 2.57931 0
M  V30 10575 H 978.826 -4.17496 0.0180742 0
M  V30 10576 H 980.216 -5.52131 3.82885 0
M  V30 10577 N 982.937 -0.845659 -1.3299 0
M  V30 10578 C 983.869 -0.241097 -2.27928 0
M  V30 10579 C 984.882 0.582048 -1.5204 0
M  V30 10580 O 986.071 0.408008 -1.73774 0
M  V30 10581 C 983.171 0.678652 -3.32035 0
M  V30 10582 C 982.344 -0.106652 -4.3727 0
M  V30 10583 C 981.403 0.737478 -5.21006 0
M  V30 10584 O 980.429 0.174231 -5.68933 0
M  V30 10585 N 981.631 2.05372 -5.42957 0
M  V30 10586 H 984.396 -1.05685 -2.80448 0
M  V30 10587 H 981.957 -0.704771 -1.45755 0
M  V30 10588 H 983.949 1.24849 -3.84961 0
M  V30 10589 H 982.519 1.3951 -2.79742 0
M  V30 10590 H 981.739 -0.857897 -3.84752 0
M  V30 10591 H 983.027 -0.646386 -5.04677 0
M  V30 10592 H 982.425 2.53478 -5.05733 0
M  V30 10593 H 980.982 2.5719 -5.98913 0
M  V30 10594 N 984.415 1.45619 -0.602734 0
M  V30 10595 C 985.831 1.57368 -0.26599 0
M  V30 10596 C 986.031 1.59485 1.23154 0
M  V30 10597 O 985.087 1.52254 2.01432 0
M  V30 10598 C 986.4 2.85863 -0.932881 0
M  V30 10599 C 987.948 2.9953 -0.908344 0
M  V30 10600 C 988.423 4.30789 -1.55515 0
M  V30 10601 N 989.914 4.37536 -1.52042 0
M  V30 10602 C 990.649 5.37758 -1.99008 0
M  V30 10603 N 990.145 6.44544 -2.54038 0
M  V30 10604 N 991.938 5.29085 -1.89805 0
M  V30 10605 H 984.089 1.42489 -1.57514 0
M  V30 10606 H 986.352 0.680948 -0.659556 0
M  V30 10607 H 986.058 2.90183 -1.98713 0
M  V30 10608 H 985.932 3.74467 -0.453209 0
M  V30 10609 H 988.319 2.9478 0.137344 0
M  V30 10610 H 988.4 2.12349 -1.42623 0
M  V30 10611 H 988.044 4.36297 -2.60014 0
M  V30 10612 H 987.974 5.16778 -1.01232 0
M  V30 10613 H 990.465 3.60972 -1.11837 0
M  V30 10614 H 990.778 7.17258 -2.87682 0
M  V30 10615 H 989.123 6.45308 -2.58075 0
M  V30 10616 H 992.314 4.44566 -1.46556 0
M  V30 10617 H 992.487 6.07043 -2.26722 0
M  V30 10618 N 985.893 0.34162 1.53853 0
M  V30 10619 C 986.823 -0.508431 2.27897 0
M  V30 10620 C 987.804 -1.10425 1.29384 0
M  V30 10621 O 988.989 -1.126 1.58224 0
M  V30 10622 C 986.119 -1.66048 3.05034 0
M  V30 10623 C 985.073 -1.19309 4.11035 0
M  V30 10624 C 984.399 -2.4335 4.76114 0
M  V30 10625 C 985.699 -0.294952 5.21467 0
M  V30 10626 H 987.393 0.109251 2.99201 0
M  V30 10627 H 984.939 0.0539847 1.43899 0
M  V30 10628 H 986.892 -2.26158 3.5557 0
M  V30 10629 H 985.616 -2.30503 2.31379 0
M  V30 10630 H 984.275 -0.614809 3.61408 0
M  V30 10631 H 983.923 -3.06208 3.99056 0
M  V30 10632 H 983.623 -2.1276 5.47729 0
M  V30 10633 H 985.147 -3.0419 5.29434 0
M  V30 10634 H 986.561 -0.80285 5.67651 0
M  V30 10635 H 984.958 -0.0810221 6.00045 0
M  V30 10636 H 986.028 0.669433 4.80257 0
M  V30 10637 N 987.371 -1.57444 0.0701946 0
M  V30 10638 C 988.599 -1.97754 -0.608358 0
M  V30 10639 C 989.014 -0.948496 -1.63245 0
M  V30 10640 O 988.371 0.065046 -1.82384 0
M  V30 10641 C 988.422 -3.38142 -1.27836 0
M  V30 10642 O 988.143 -4.37104 -0.295255 0
M  V30 10643 C 989.644 -3.93318 -2.04489 0
M  V30 10644 H 986.864 -0.650398 -0.164997 0
M  V30 10645 H 989.408 -2.04006 0.142124 0
M  V30 10646 H 987.563 -3.32982 -1.97994 0
M  V30 10647 H 987.977 -5.18732 -0.77574 0
M  V30 10648 H 989.451 -4.93774 -2.46762 0
M  V30 10649 H 989.928 -3.29774 -2.90079 0
M  V30 10650 H 990.534 -4.01875 -1.39201 0
M  V30 10651 N 988.849 0.203349 -1.56283 0
M  V30 10652 C 989.812 1.23566 -1.93039 0
M  V30 10653 C 990.812 1.38869 -0.810687 0
M  V30 10654 O 992.002 1.36822 -1.07821 0
M  V30 10655 C 989.134 2.60645 -2.1972 0
M  V30 10656 H 990.327 0.921692 -2.85385 0
M  V30 10657 H 987.88 0.44453 -1.49845 0
M  V30 10658 H 988.615 2.9711 -1.29985 0
M  V30 10659 H 988.4 2.50911 -3.01307 0
M  V30 10660 H 989.89 3.35103 -2.4919 0
M  V30 10661 N 990.327 1.50405 0.470755 0
M  V30 10662 C 991.29 1.68741 1.5511 0
M  V30 10663 C 992.29 0.558116 1.50804 0
M  V30 10664 O 993.48 0.825149 1.53418 0
M  V30 10665 C 990.612 1.71295 2.94739 0
M  V30 10666 H 991.805 2.65127 1.40169 0
M  V30 10667 H 989.358 1.39891 0.697156 0
M  V30 10668 H 990.093 0.766029 3.15123 0
M  V30 10669 H 989.878 2.53336 2.99271 0
M  V30 10670 H 991.368 1.87434 3.73173 0
M  V30 10671 N 991.805 -0.723954 1.39988 0
M  V30 10672 C 992.735 -1.85103 1.42335 0
M  V30 10673 C 993.716 -1.6769 0.285297 0
M  V30 10674 O 994.901 -1.87846 0.492716 0
M  V30 10675 C 992.031 -3.22972 1.27697 0
M  V30 10676 C 990.985 -3.55041 2.39018 0
M  V30 10677 C 990.311 -4.91965 2.09462 0
M  V30 10678 C 991.611 -3.56889 3.8135 0
M  V30 10679 H 993.305 -1.83396 2.36656 0
M  V30 10680 H 990.851 -0.880926 1.13911 0
M  V30 10681 H 992.804 -4.01503 1.27958 0
M  V30 10682 H 991.528 -3.25233 0.298487 0
M  V30 10683 H 990.187 -2.78845 2.37993 0
M  V30 10684 H 989.835 -4.90819 1.10025 0
M  V30 10685 H 989.535 -5.14389 2.84038 0
M  V30 10686 H 991.059 -5.7284 2.11391 0
M  V30 10687 H 992.473 -4.25476 3.84243 0
M  V30 10688 H 990.87 -3.90836 4.55376 0
M  V30 10689 H 991.94 -2.56452 4.11534 0
M  V30 10690 N 993.283 -1.25346 -0.955304 0
M  V30 10691 C 994.529 -1.10218 -1.70235 0
M  V30 10692 C 994.862 0.356124 -1.90907 0
M  V30 10693 O 994.137 1.26253 -1.47954 0
M  V30 10694 C 994.42 -1.85627 -3.08569 0
M  V30 10695 C 994.273 -3.39281 -2.95311 0
M  V30 10696 C 995.592 -1.63886 -4.08448 0
M  V30 10697 H 992.711 -0.401781 -0.617852 0
M  V30 10698 H 995.353 -1.5417 -1.11048 0
M  V30 10699 H 993.503 -1.48269 -3.59094 0
M  V30 10700 H 995.175 -3.8631 -2.52116 0
M  V30 10701 H 993.418 -3.67027 -2.31244 0
M  V30 10702 H 994.089 -3.87258 -3.93364 0
M  V30 10703 H 996.565 -1.96406 -3.6683 0
M  V30 10704 H 995.441 -2.19087 -5.03281 0
M  V30 10705 H 995.702 -0.580021 -4.38279 0
M  V30 10706 N 994.761 1.15782 -1.06922 0
M  V30 10707 C 995.691 2.22538 -0.707045 0
M  V30 10708 C 996.672 1.67371 0.303471 0
M  V30 10709 O 997.857 1.9339 0.177189 0
M  V30 10710 C 994.987 3.47158 -0.0994269 0
M  V30 10711 C 993.941 4.15257 -1.03661 0
M  V30 10712 C 993.267 5.33902 -0.291974 0
M  V30 10713 C 994.567 4.65516 -2.36837 0
M  V30 10714 H 996.261 2.53089 -1.59958 0
M  V30 10715 H 993.807 1.21649 -0.770552 0
M  V30 10716 H 995.76 4.21073 0.165852 0
M  V30 10717 H 994.484 3.15926 0.828155 0
M  V30 10718 H 993.143 3.43276 -1.28674 0
M  V30 10719 H 992.791 4.98926 0.638928 0
M  V30 10720 H 992.491 5.80407 -0.916613 0
M  V30 10721 H 994.015 6.1059 -0.0343915 0
M  V30 10722 H 995.429 5.30981 -2.16175 0
M  V30 10723 H 993.826 5.22666 -2.94856 0
M  V30 10724 H 994.896 3.81387 -2.99453 0
M  V30 10725 N 996.239 0.8527 1.3254 0
M  V30 10726 C 997.655 0.542298 1.50104 0
M  V30 10727 C 997.855 -0.927465 1.78886 0
M  V30 10728 O 996.911 -1.7106 1.85728 0
M  V30 10729 C 998.224 1.4276 2.64651 0
M  V30 10730 C 999.772 1.42782 2.78536 0
M  V30 10731 C 1000.25 2.29828 3.9616 0
M  V30 10732 N 1001.74 2.27613 4.03418 0
M  V30 10733 C 1002.47 2.91696 4.93661 0
M  V30 10734 N 1001.97 3.64883 5.88925 0
M  V30 10735 N 1003.76 2.81094 4.86768 0
M  V30 10736 H 995.913 1.80395 1.12123 0
M  V30 10737 H 998.176 0.770394 0.552446 0
M  V30 10738 H 997.882 2.47266 2.50105 0
M  V30 10739 H 997.756 1.11358 3.60388 0
M  V30 10740 H 1000.14 0.390417 2.92506 0
M  V30 10741 H 1000.22 1.78198 1.83519 0
M  V30 10742 H 999.868 3.33635 3.82949 0
M  V30 10743 H 999.798 1.91746 4.9045 0
M  V30 10744 H 1002.29 1.74402 3.3525 0
M  V30 10745 H 1002.6 4.10952 6.54476 0
M  V30 10746 H 1000.95 3.68991 5.88957 0
M  V30 10747 H 1004.14 2.23469 4.11314 0
M  V30 10748 H 1004.31 3.31318 5.56895 0
M  V30 10749 N 997.718 -1.45297 0.610449 0
M  V30 10750 C 998.668 -2.27639 -0.128194 0
M  V30 10751 C 999.652 -1.37485 -0.835861 0
M  V30 10752 O 1000.84 -1.61454 -0.725378 0
M  V30 10753 C 997.973 -3.24413 -1.123 0
M  V30 10754 C 997.059 -4.22055 -0.416029 0
M  V30 10755 N 997.45 -5.02867 0.543921 0
M  V30 10756 C 995.748 -4.41041 -0.663208 0
M  V30 10757 C 996.449 -5.73728 0.959731 0
M  V30 10758 N 995.425 -5.42756 0.302873 0
M  V30 10759 H 999.227 -2.8752 0.609056 0
M  V30 10760 H 996.741 -1.56484 0.434338 0
M  V30 10761 H 998.738 -3.82139 -1.6666 0
M  V30 10762 H 997.398 -2.66092 -1.86078 0
M  V30 10763 H 998.409 -5.09649 0.920799 0
M  V30 10764 H 995.086 -3.93842 -1.38544 0
M  V30 10765 H 996.476 -6.48666 1.75163 0
M  V30 10766 N 999.196 -0.349774 -1.5367 0
M  V30 10767 C 1000.61 0.132815 -1.86227 0
M  V30 10768 C 1000.96 1.49479 -1.27084 0
M  V30 10769 O 1000.08 2.08292 -0.58679 0
M  V30 10770 C 1000.68 0.247775 -3.37893 0
M  V30 10771 C 999.237 0.674603 -3.70305 0
M  V30 10772 C 998.384 -0.187869 -2.76663 0
M  V30 10773 H 1001.33 -0.569148 -1.48143 0
M  V30 10774 H 1001.36 1.07418 -3.65023 0
M  V30 10775 H 1000.87 -0.743635 -3.80909 0
M  V30 10776 H 998.969 1.67481 -3.32837 0
M  V30 10777 H 999.082 0.460177 -4.76885 0
M  V30 10778 H 997.446 0.340779 -2.5241 0
M  V30 10779 H 998.229 -1.17653 -3.2251 0
M  V30 10780 N 1000.67 1.57404 -0.0785433 0
M  V30 10781 C 1001.92 1.9484 0.583853 0
M  V30 10782 C 1002.27 0.958758 1.6681 0
M  V30 10783 O 1001.57 -0.0179065 1.91592 0
M  V30 10784 C 1001.76 3.36684 1.1991 0
M  V30 10785 C 1001.59 4.49356 0.175978 0
M  V30 10786 C 1000.36 5.04721 -0.241733 0
M  V30 10787 C 1002.56 5.10911 -0.589415 0
M  V30 10788 N 1000.54 6.00938 -1.25485 0
M  V30 10789 C 1001.91 6.0269 -1.45483 0
M  V30 10790 C 1003.97 4.93708 -0.644746 0
M  V30 10791 C 1002.67 6.79111 -2.37066 0
M  V30 10792 C 1004.7 5.70778 -1.54812 0
M  V30 10793 C 1004.06 6.6221 -2.40119 0
M  V30 10794 H 1000.16 0.75993 0.184472 0
M  V30 10795 H 1002.74 1.94064 -0.157259 0
M  V30 10796 H 1000.91 3.38186 1.91011 0
M  V30 10797 H 1002.64 3.6134 1.82251 0
M  V30 10798 H 999.399 4.73385 0.142732 0
M  V30 10799 H 999.823 6.53746 -1.75912 0
M  V30 10800 H 1004.46 4.228 0.000601434 0
M  V30 10801 H 1002.18 7.49292 -3.02634 0
M  V30 10802 H 1005.77 5.59485 -1.59586 0
M  V30 10803 H 1004.65 7.20804 -3.08887 0
M  V30 10804 N 1002.15 -0.195058 1.56388 0
M  V30 10805 C 1003.4 -0.913626 1.79821 0
M  V30 10806 C 1003.71 -1.84422 0.651767 0
M  V30 10807 O 1004.92 -2.6034 0.770402 0
M  V30 10808 C 1003.38 -1.67497 3.18548 0
M  V30 10809 C 1002.98 -0.789205 4.40994 0
M  V30 10810 C 1004.73 -2.38318 3.5129 0
M  V30 10811 C 1002.63 -1.54942 5.70742 0
M  V30 10812 H 1001.56 -0.344891 0.670497 0
M  V30 10813 H 1004.22 -0.166912 1.82739 0
M  V30 10814 H 1002.6 -2.46557 3.0988 0
M  V30 10815 H 1003.77 -0.0372595 4.60785 0
M  V30 10816 H 1002.09 -0.191834 4.15958 0
M  V30 10817 H 1004.68 -2.95745 4.45465 0
M  V30 10818 H 1005.03 -3.12507 2.75037 0
M  V30 10819 H 1005.56 -1.66224 3.61406 0
M  V30 10820 H 1002.3 -0.85031 6.49962 0
M  V30 10821 H 1001.82 -2.2753 5.54969 0
M  V30 10822 H 1003.5 -2.1032 6.11861 0
M  V30 10823 N 1003.63 -1.50653 -0.462772 0
M  V30 10824 C 1004.88 -1.62297 -1.21603 0
M  V30 10825 C 1005.21 -0.326191 -1.91441 0
M  V30 10826 O 1004.48 0.67284 -1.82491 0
M  V30 10827 C 1004.77 -2.80901 -2.25315 0
M  V30 10828 C 1004.62 -4.20484 -1.59728 0
M  V30 10829 C 1005.94 -2.95049 -3.26549 0
M  V30 10830 H 1003.06 -0.590691 -0.440741 0
M  V30 10831 H 1005.7 -1.83064 -0.508675 0
M  V30 10832 H 1003.85 -2.63325 -2.85643 0
M  V30 10833 H 1005.52 -4.49669 -1.02932 0
M  V30 10834 H 1003.76 -4.24357 -0.900181 0
M  V30 10835 H 1004.44 -4.99416 -2.35133 0
M  V30 10836 H 1006.91 -3.11166 -2.76251 0
M  V30 10837 H 1005.79 -3.79645 -3.96435 0
M  V30 10838 H 1006.05 -2.06019 -3.91163 0
M  V30 10839 N 1005.11 0.71652 -1.4037 0
M  V30 10840 C 1006.06 1.82219 -1.37041 0
M  V30 10841 C 1007.04 1.58975 -0.248116 0
M  V30 10842 O 1008.23 1.70164 -0.487147 0
M  V30 10843 C 1005.36 3.20337 -1.23446 0
M  V30 10844 C 1004.45 3.49347 -2.40452 0
M  V30 10845 N 1004.84 3.49179 -3.65934 0
M  V30 10846 C 1003.14 3.798 -2.33811 0
M  V30 10847 C 1003.84 3.76506 -4.43416 0
M  V30 10848 N 1002.82 3.95209 -3.73244 0
M  V30 10849 H 1006.62 1.80421 -2.32003 0
M  V30 10850 H 1004.13 0.915603 -1.34129 0
M  V30 10851 H 1006.13 3.99513 -1.19143 0
M  V30 10852 H 1004.79 3.23362 -0.294497 0
M  V30 10853 H 1005.8 3.30051 -3.99107 0
M  V30 10854 H 1002.48 3.9032 -1.48177 0
M  V30 10855 H 1003.87 3.82689 -5.52267 0
M  V30 10856 N 1006.59 1.25851 0.948643 0
M  V30 10857 C 1007.83 1.12127 1.69703 0
M  V30 10858 C 1008.19 -0.333318 1.89491 0
M  V30 10859 O 1007.48 -1.24181 1.4591 0
M  V30 10860 C 1007.67 1.81565 3.07846 0
M  V30 10861 C 1007.5 3.33626 3.01535 0
M  V30 10862 C 1006.27 4.02897 3.04962 0
M  V30 10863 C 1008.47 4.29934 2.82243 0
M  V30 10864 N 1006.45 5.41688 2.88872 0
M  V30 10865 C 1007.82 5.5585 2.74646 0
M  V30 10866 C 1009.88 4.20276 2.66969 0
M  V30 10867 C 1008.58 6.73212 2.53335 0
M  V30 10868 C 1010.61 5.37336 2.4703 0
M  V30 10869 C 1009.97 6.62196 2.40158 0
M  V30 10870 H 1006.07 0.465047 0.628693 0
M  V30 10871 H 1008.65 1.59035 1.12321 0
M  V30 10872 H 1006.82 1.37143 3.63382 0
M  V30 10873 H 1008.56 1.6053 3.715 0
M  V30 10874 H 1005.31 3.54201 3.14386 0
M  V30 10875 H 1005.74 6.14544 2.84015 0
M  V30 10876 H 1010.38 3.24485 2.71053 0
M  V30 10877 H 1008.1 7.69107 2.47993 0
M  V30 10878 H 1011.68 5.31728 2.36128 0
M  V30 10879 H 1010.56 7.51249 2.24933 0
M  V30 10880 N 1008.06 -1.15214 1.07534 0
M  V30 10881 C 1009.34 -1.82155 0.71267 0
M  V30 10882 C 1009.72 -1.95163 -0.804655 0
M  V30 10883 O 1009.07 -1.50451 -1.71979 0
M  V30 10884 C 1009.28 -3.18392 1.42925 0
M  V30 10885 C 1010.63 -3.94005 1.58256 0
M  V30 10886 O 1011.65 -3.27952 1.39018 0
M  V30 10887 O 1010.51 -5.12436 1.89925 0
M  V30 10888 H 1007.6 -0.78709 0.253808 0
M  V30 10889 H 1010.15 -1.22309 1.17638 0
M  V30 10890 H 1008.92 -3.04034 2.46331 0
M  V30 10891 H 1008.55 -3.85925 0.956439 0
M  V30 10892 N 1009.54 -0.859717 -1.32086 0
M  V30 10893 C 1010.47 -0.265258 -2.2766 0
M  V30 10894 C 1011.49 0.565889 -1.52648 0
M  V30 10895 O 1012.68 0.389554 -1.74197 0
M  V30 10896 C 1009.78 0.643397 -3.32737 0
M  V30 10897 C 1008.95 -0.153024 -4.37132 0
M  V30 10898 C 1008.01 0.682176 -5.21759 0
M  V30 10899 O 1007.03 0.113878 -5.69086 0
M  V30 10900 N 1008.24 1.99602 -5.45105 0
M  V30 10901 H 1011 -1.08653 -2.79311 0
M  V30 10902 H 1008.56 -0.720191 -1.45 0
M  V30 10903 H 1010.55 1.20759 -3.86263 0
M  V30 10904 H 1009.12 1.36535 -2.81206 0
M  V30 10905 H 1008.34 -0.898657 -3.8382 0
M  V30 10906 H 1009.63 -0.699877 -5.03963 0
M  V30 10907 H 1009.03 2.481 -5.08393 0
M  V30 10908 H 1007.59 2.50823 -6.01607 0
M  V30 10909 N 1011.02 1.44971 -0.618145 0
M  V30 10910 C 1011.95 2.33357 0.0815955 0
M  V30 10911 C 1012.93 1.47451 0.848072 0
M  V30 10912 O 1014.12 1.762 0.816532 0
M  V30 10913 C 1011.25 3.30324 1.07253 0
M  V30 10914 C 1010.2 4.25948 0.418563 0
M  V30 10915 C 1009.53 5.12685 1.51849 0
M  V30 10916 C 1010.83 5.18024 -0.66697 0
M  V30 10917 H 1012.52 2.92115 -0.656442 0
M  V30 10918 H 1010.07 1.40465 -0.317129 0
M  V30 10919 H 1012.02 3.91033 1.57069 0
M  V30 10920 H 1010.74 2.69748 1.8413 0
M  V30 10921 H 1009.4 3.66553 -0.0588308 0
M  V30 10922 H 1009.05 4.4847 2.2778 0
M  V30 10923 H 1008.75 5.7747 1.08637 0
M  V30 10924 H 1010.27 5.76264 2.01871 0
M  V30 10925 H 1011.69 5.72744 -0.252448 0
M  V30 10926 H 1010.09 5.91343 -1.02146 0
M  V30 10927 H 1011.16 4.59817 -1.53936 0
M  V30 10928 N 1012.5 0.357919 1.53482 0
M  V30 10929 C 1013.91 -0.122938 1.86295 0
M  V30 10930 C 1014.26 -1.48803 1.27875 0
M  V30 10931 O 1013.39 -2.07978 0.597828 0
M  V30 10932 C 1013.98 -0.229853 3.38019 0
M  V30 10933 C 1012.54 -0.654955 3.70658 0
M  V30 10934 C 1011.69 0.202539 2.76559 0
M  V30 10935 H 1014.64 0.576997 1.47839 0
M  V30 10936 H 1014.66 -1.05481 3.65587 0
M  V30 10937 H 1014.17 0.763825 3.80509 0
M  V30 10938 H 1012.27 -1.65714 3.33721 0
M  V30 10939 H 1012.38 -0.43488 4.77122 0
M  V30 10940 H 1010.75 -0.327388 2.52587 0
M  V30 10941 H 1011.53 1.19361 3.21882 0
M  V30 10942 N 1013.98 -1.5736 0.0868897 0
M  V30 10943 C 1014.91 -2.10582 -0.904858 0
M  V30 10944 C 1015.92 -1.04124 -1.25148 0
M  V30 10945 O 1017.11 -1.31595 -1.20603 0
M  V30 10946 C 1014.21 -2.56381 -2.21635 0
M  V30 10947 C 1013.38 -3.86581 -2.04631 0
M  V30 10948 C 1012.44 -4.18313 -3.19219 0
M  V30 10949 O 1011.47 -4.87669 -2.93544 0
M  V30 10950 N 1012.67 -3.73061 -4.44754 0
M  V30 10951 H 1015.44 -2.96297 -0.450352 0
M  V30 10952 H 1013 -1.616 -0.0984376 0
M  V30 10953 H 1014.99 -2.7466 -2.97227 0
M  V30 10954 H 1013.56 -1.75721 -2.58536 0
M  V30 10955 H 1012.78 -3.77532 -1.13417 0
M  V30 10956 H 1014.07 -4.71777 -1.90537 0
M  V30 10957 H 1013.46 -3.1706 -4.68497 0
M  V30 10958 H 1012.02 -3.96511 -5.17322 0
M  V30 10959 N 1015.45 0.186762 -1.56489 0
M  V30 10960 C 1016.68 0.920495 -1.84961 0
M  V30 10961 C 1017.09 1.77004 -0.668297 0
M  V30 10962 O 1016.44 1.79891 0.37213 0
M  V30 10963 C 1016.5 1.85997 -3.07645 0
M  V30 10964 C 1016.16 1.19156 -4.41193 0
M  V30 10965 C 1017.16 0.564446 -5.16827 0
M  V30 10966 C 1014.84 1.19292 -4.87929 0
M  V30 10967 C 1016.84 -0.0523768 -6.37378 0
M  V30 10968 C 1014.52 0.572266 -6.08415 0
M  V30 10969 C 1015.52 -0.049294 -6.82982 0
M  V30 10970 O 1015.21 -0.660201 -8.01184 0
M  V30 10971 H 1014.94 0.273659 -0.618132 0
M  V30 10972 H 1017.5 0.196437 -2.04459 0
M  V30 10973 H 1015.73 2.62394 -2.84053 0
M  V30 10974 H 1017.42 2.46221 -3.22692 0
M  V30 10975 H 1018.18 0.555474 -4.81809 0
M  V30 10976 H 1014.06 1.66611 -4.29839 0
M  V30 10977 H 1017.6 -0.538133 -6.95521 0
M  V30 10978 H 1013.5 0.578769 -6.429 0
M  V30 10979 H 1014.27 -0.557926 -8.16596 0
M  V30 10980 N 1016.93 1.50896 0.454776 0
M  V30 10981 C 1017.86 1.6712 1.56855 0
M  V30 10982 C 1018.88 0.552223 1.53148 0
M  V30 10983 O 1020.07 0.825969 1.5824 0
M  V30 10984 C 1017.17 1.65464 2.95762 0
M  V30 10985 C 1016.34 2.93662 3.24163 0
M  V30 10986 C 1015.4 2.84428 4.42704 0
M  V30 10987 O 1014.42 3.58382 4.42211 0
M  V30 10988 N 1015.63 1.9909 5.45292 0
M  V30 10989 H 1018.39 2.63194 1.43349 0
M  V30 10990 H 1015.95 1.48564 0.643457 0
M  V30 10991 H 1017.94 1.56878 3.73057 0
M  V30 10992 H 1016.51 0.770568 3.02954 0
M  V30 10993 H 1015.73 3.16251 2.35328 0
M  V30 10994 H 1017.02 3.78558 3.39957 0
M  V30 10995 H 1016.42 1.3835 5.48521 0
M  V30 10996 H 1014.98 1.96396 6.21508 0
M  V30 10997 N 1018.41 -0.709066 1.40748 0
M  V30 10998 C 1019.34 -1.83583 1.4429 0
M  V30 10999 C 1020.32 -1.67378 0.303067 0
M  V30 11000 O 1021.51 -1.87312 0.512612 0
M  V30 11001 C 1018.64 -3.21599 1.31116 0
M  V30 11002 C 1017.59 -3.52486 2.4277 0
M  V30 11003 C 1016.92 -4.89716 2.14668 0
M  V30 11004 C 1018.22 -3.52824 3.85113 0
M  V30 11005 H 1019.91 -1.80876 2.38588 0
M  V30 11006 H 1017.46 -0.868795 1.14839 0
M  V30 11007 H 1019.41 -4.00123 1.32209 0
M  V30 11008 H 1018.13 -3.24898 0.332965 0
M  V30 11009 H 1016.79 -2.76305 2.40937 0
M  V30 11010 H 1016.44 -4.89625 1.15224 0
M  V30 11011 H 1016.14 -5.11347 2.89478 0
M  V30 11012 H 1017.66 -5.70566 2.17455 0
M  V30 11013 H 1019.08 -4.21377 3.88734 0
M  V30 11014 H 1017.48 -3.85984 4.59496 0
M  V30 11015 H 1018.55 -2.52073 4.14231 0
M  V30 11016 N 1019.89 -1.26353 -0.941956 0
M  V30 11017 C 1020.84 -1.07654 -2.06188 0
M  V30 11018 C 1021.83 -0.00369741 -1.694 0
M  V30 11019 O 1023.04 -0.160316 -1.79285 0
M  V30 11020 H 1019.41 -0.331274 -0.675101 0
M  V30 11021 H 1021.38 -2.02566 -2.19111 0
M  V30 11022 C 1020.13 -0.725436 -3.40048 0
M  V30 11023 H 1019.46 -1.54283 -3.68832 0
M  V30 11024 H 1020.9 -0.634383 -4.19227 0
M  V30 11025 C 1019.35 0.569369 -3.32054 0
M  V30 11026 O 1019.88 1.60791 -3.68116 0
M  V30 11027 N 1018.09 0.559714 -2.85159 0
M  V30 11028 H 1017.64 -0.285817 -2.56009 0
M  V30 11029 H 1017.6 1.42617 -2.80193 0
M  V30 11030 N 1021.37 1.14642 -1.08144 0
M  V30 11031 C 1022.78 1.37604 -0.808537 0
M  V30 11032 C 1022.98 1.92868 0.583452 0
M  V30 11033 O 1022.04 2.13964 1.34073 0
M  V30 11034 C 1023.35 2.3396 -1.889 0
M  V30 11035 C 1024.9 2.47605 -1.9147 0
M  V30 11036 C 1025.38 3.47258 -2.98623 0
M  V30 11037 N 1026.87 3.548 -2.97777 0
M  V30 11038 C 1027.6 4.31751 -3.77331 0
M  V30 11039 N 1027.1 5.11966 -4.66757 0
M  V30 11040 N 1028.89 4.2692 -3.65645 0
M  V30 11041 H 1021.04 0.771154 -1.97906 0
M  V30 11042 H 1023.3 0.401694 -0.858688 0
M  V30 11043 H 1023.01 2.00484 -2.88962 0
M  V30 11044 H 1022.88 3.33833 -1.756 0
M  V30 11045 H 1025.27 2.80375 -0.920548 0
M  V30 11046 H 1025.35 1.47702 -2.08848 0
M  V30 11047 H 1025 3.15223 -3.98243 0
M  V30 11048 H 1024.93 4.46935 -2.7849 0
M  V30 11049 H 1027.42 2.97553 -2.3296 0
M  V30 11050 H 1027.73 5.67951 -5.24072 0
M  V30 11051 H 1026.08 5.11245 -4.70801 0
M  V30 11052 H 1029.27 3.63322 -2.95152 0
M  V30 11053 H 1029.44 4.8664 -4.27885 0
M  V30 11054 N 1022.85 0.866709 1.31628 0
M  V30 11055 C 1023.78 0.277328 2.27516 0
M  V30 11056 C 1024.79 -0.557786 1.52946 0
M  V30 11057 O 1025.98 -0.38031 1.74402 0
M  V30 11058 C 1023.08 -0.625742 3.33073 0
M  V30 11059 C 1022.25 0.176204 4.37045 0
M  V30 11060 C 1021.31 -0.654497 5.22114 0
M  V30 11061 O 1020.34 -0.0836961 5.69138 0
M  V30 11062 N 1021.54 -1.96708 5.46156 0
M  V30 11063 H 1024.3 1.10133 2.78731 0
M  V30 11064 H 1021.87 0.72787 1.44616 0
M  V30 11065 H 1023.86 -1.18709 3.86898 0
M  V30 11066 H 1022.43 -1.35042 2.81926 0
M  V30 11067 H 1021.65 0.918999 3.83338 0
M  V30 11068 H 1022.94 0.726594 5.03585 0
M  V30 11069 H 1022.33 -2.454 5.09701 0
M  V30 11070 H 1020.89 -2.47629 6.02929 0
M  V30 11071 N 1024.32 -1.44642 0.625825 0
M  V30 11072 C 1025.6 -1.9551 0.0593587 0
M  V30 11073 C 1025.98 -1.56792 -1.41349 0
M  V30 11074 O 1025.33 -0.839373 -2.12525 0
M  V30 11075 C 1025.54 -3.47902 0.276647 0
M  V30 11076 C 1026.89 -4.24271 0.167044 0
M  V30 11077 O 1027.91 -3.55594 0.207731 0
M  V30 11078 O 1026.77 -5.46458 0.0675 0
M  V30 11079 H 1023.86 -0.826612 -0.0253422 0
M  V30 11080 H 1026.41 -1.54718 0.697159 0
M  V30 11081 H 1025.18 -3.69115 1.29885 0
M  V30 11082 H 1024.8 -3.95628 -0.395547 0
M  V30 11083 N 1025.8 -0.366053 -1.5329 0
M  V30 11084 C 1026.76 0.467904 -2.24373 0
M  V30 11085 C 1027.76 1.00934 -1.25176 0
M  V30 11086 O 1028.95 0.895015 -1.49449 0
M  V30 11087 C 1026.09 1.65405 -2.98084 0
M  V30 11088 H 1027.28 -0.154105 -2.99504 0
M  V30 11089 H 1024.83 -0.117751 -1.55856 0
M  V30 11090 H 1025.57 2.31413 -2.27197 0
M  V30 11091 H 1025.35 1.27277 -3.70868 0
M  V30 11092 H 1026.84 2.24503 -3.52119 0
M  V30 11093 N 1027.28 1.57312 -0.0952337 0
M  V30 11094 C 1028.69 1.81589 0.433875 0
M  V30 11095 C 1029.04 1.01086 1.68155 0
M  V30 11096 O 1028.17 0.240272 2.15062 0
M  V30 11097 C 1028.76 3.29366 0.793931 0
M  V30 11098 C 1027.32 3.54407 1.26778 0
M  V30 11099 C 1026.47 2.76035 0.264518 0
M  V30 11100 H 1029.42 1.55426 -0.320675 0
M  V30 11101 H 1029.44 3.42697 1.65345 0
M  V30 11102 H 1028.95 3.87932 -0.114334 0
M  V30 11103 H 1027.05 3.01173 2.19376 0
M  V30 11104 H 1027.17 4.63055 1.22952 0
M  V30 11105 H 1025.53 2.43509 0.746691 0
M  V30 11106 H 1026.31 3.37349 -0.636429 0
M  V30 11107 N 1028.76 -0.17846 1.56586 0
M  V30 11108 C 1029.71 -1.22552 1.92263 0
M  V30 11109 C 1030.69 -1.40163 0.790131 0
M  V30 11110 O 1031.88 -1.42254 1.05322 0
M  V30 11111 C 1029.01 -2.5666 2.27993 0
M  V30 11112 C 1028.1 -2.42772 3.47739 0
M  V30 11113 N 1028.49 -1.98588 4.65185 0
M  V30 11114 C 1026.79 -2.73619 3.52205 0
M  V30 11115 C 1027.49 -1.96991 5.47329 0
M  V30 11116 N 1026.46 -2.39126 4.8818 0
M  V30 11117 H 1030.27 -0.875493 2.80557 0
M  V30 11118 H 1027.78 -0.386785 1.57727 0
M  V30 11119 H 1029.78 -3.32312 2.51743 0
M  V30 11120 H 1028.44 -2.92472 1.41034 0
M  V30 11121 H 1029.45 -1.69036 4.89538 0
M  V30 11122 H 1026.13 -3.13516 2.75706 0
M  V30 11123 H 1027.52 -1.64589 6.51429 0
M  V30 11124 N 1030.24 -1.51135 -0.446768 0
M  V30 11125 C 1031.17 -1.74709 -1.54916 0
M  V30 11126 C 1032.15 -0.596628 -1.59293 0
M  V30 11127 O 1033.33 -0.838356 -1.75172 0
M  V30 11128 C 1030.46 -1.86353 -2.9307 0
M  V30 11129 C 1029.42 -3.01725 -3.03556 0
M  V30 11130 C 1028.74 -2.9854 -4.43597 0
M  V30 11131 C 1030.04 -4.41848 -2.7851 0
M  V30 11132 H 1031.74 -2.67014 -1.3544 0
M  V30 11133 H 1029.28 -1.28489 -0.650131 0
M  V30 11134 H 1031.23 -2.01428 -3.70141 0
M  V30 11135 H 1029.96 -0.906887 -3.13756 0
M  V30 11136 H 1028.62 -2.86339 -2.28922 0
M  V30 11137 H 1028.27 -2.00673 -4.61237 0
M  V30 11138 H 1027.97 -3.76008 -4.51544 0
M  V30 11139 H 1029.49 -3.15696 -5.22655 0
M  V30 11140 H 1030.9 -4.57633 -3.45319 0
M  V30 11141 H 1029.3 -5.2095 -2.97877 0
M  V30 11142 H 1030.37 -4.52536 -1.74182 0
M  V30 11143 N 1031.71 0.701592 -1.41122 0
M  V30 11144 C 1032.96 1.46376 -1.40363 0
M  V30 11145 C 1033.29 1.94197 -0.0105442 0
M  V30 11146 O 1032.57 1.69121 0.960637 0
M  V30 11147 C 1032.85 2.67994 -2.40523 0
M  V30 11148 C 1032.7 2.25977 -3.88914 0
M  V30 11149 C 1034.02 3.70181 -2.38022 0
M  V30 11150 H 1031.14 0.530929 -0.511159 0
M  V30 11151 H 1033.78 0.799588 -1.72356 0
M  V30 11152 H 1031.93 3.24661 -2.13372 0
M  V30 11153 H 1033.61 1.74684 -4.26946 0
M  V30 11154 H 1031.85 1.57826 -4.04071 0
M  V30 11155 H 1032.52 3.13215 -4.54533 0
M  V30 11156 H 1035 3.23174 -2.62103 0
M  V30 11157 H 1033.87 4.52894 -3.10127 0
M  V30 11158 H 1034.13 4.19458 -1.3967 0
M  V30 11159 N 1033.19 1.2685 0.935242 0
M  V30 11160 C 1034.14 1.08923 2.03481 0
M  V30 11161 C 1035.11 -0.00749786 1.66098 0
M  V30 11162 O 1036.29 0.153401 1.90182 0
M  V30 11163 C 1033.43 0.734529 3.37192 0
M  V30 11164 C 1032.55 1.90812 3.87576 0
M  V30 11165 C 1031.68 1.49599 5.097 0
M  V30 11166 C 1030.72 2.63752 5.5236 0
M  V30 11167 N 1029.86 2.23179 6.65684 0
M  V30 11168 H 1034.7 2.03016 2.18148 0
M  V30 11169 H 1032.23 1.01072 1.06878 0
M  V30 11170 H 1034.19 0.509734 4.14074 0
M  V30 11171 H 1032.82 -0.169438 3.22355 0
M  V30 11172 H 1031.87 2.24567 3.0704 0
M  V30 11173 H 1033.19 2.7647 4.1517 0
M  V30 11174 H 1032.34 1.23199 5.9406 0
M  V30 11175 H 1031.08 0.61039 4.83865 0
M  V30 11176 H 1030.08 2.90874 4.66554 0
M  V30 11177 H 1031.31 3.5292 5.80193 0
M  V30 11178 H 1029.26 1.37061 6.41522 0
M  V30 11179 H 1029.17 3.02379 6.92895 0
M  V30 11180 H 1030.44 2.00007 7.53404 0
M  V30 11181 N 1034.67 -1.14067 1.0875 0
M  V30 11182 C 1035.92 -1.84819 0.817698 0
M  V30 11183 C 1036.24 -1.83545 -0.658488 0
M  V30 11184 O 1035.51 -1.28633 -1.47751 0
M  V30 11185 H 1034.09 -0.68433 0.299502 0
M  V30 11186 H 1036.75 -1.38208 1.37421 0
M  V30 11187 H 1035.85 -2.89541 1.16501 0
M  V30 11188 N 1036.15 -0.873678 -1.31166 0
M  V30 11189 C 1037.11 -0.337069 -2.26708 0
M  V30 11190 C 1038.11 0.51406 -1.52362 0
M  V30 11191 O 1039.3 0.322834 -1.71182 0
M  V30 11192 C 1036.43 0.520897 -3.36897 0
M  V30 11193 H 1037.63 -1.18056 -2.75686 0
M  V30 11194 H 1035.18 -0.649577 -1.42163 0
M  V30 11195 H 1035.91 1.38543 -2.93217 0
M  V30 11196 H 1035.7 -0.0886015 -3.92 0
M  V30 11197 H 1037.19 0.888497 -4.08039 0
M  V30 11198 N 1037.63 1.44308 -0.633487 0
M  V30 11199 C 1038.56 2.27887 0.119397 0
M  V30 11200 C 1039.54 1.38676 0.848981 0
M  V30 11201 O 1040.72 1.68116 0.85259 0
M  V30 11202 C 1037.85 3.17658 1.17521 0
M  V30 11203 C 1036.89 4.22992 0.54589 0
M  V30 11204 S 1037.73 5.31345 -0.6658 0
M  V30 11205 C 1038.88 6.24684 0.389965 0
M  V30 11206 H 1039.12 2.91394 -0.589638 0
M  V30 11207 H 1036.65 1.48529 -0.421727 0
M  V30 11208 H 1038.61 3.69929 1.77941 0
M  V30 11209 H 1037.27 2.53367 1.85645 0
M  V30 11210 H 1036.46 4.85828 1.34115 0
M  V30 11211 H 1036.06 3.73996 0.0162506 0
M  V30 11212 H 1038.36 6.65645 1.26185 0
M  V30 11213 H 1039.3 7.07809 -0.202878 0
M  V30 11214 H 1039.71 5.59929 0.716922 0
M  V30 11215 N 1039.1 0.374177 1.53094 0
M  V30 11216 C 1040.07 -0.455999 2.24618 0
M  V30 11217 C 1041.07 -1.00269 1.25709 0
M  V30 11218 O 1042.26 -0.887077 1.49922 0
M  V30 11219 C 1039.39 -1.63822 2.98957 0
M  V30 11220 H 1040.58 0.169986 2.99418 0
M  V30 11221 H 1038.14 0.126015 1.55791 0
M  V30 11222 H 1038.87 -2.30205 2.28421 0
M  V30 11223 H 1038.66 -1.25308 3.71538 0
M  V30 11224 H 1040.15 -2.22633 3.53305 0
M  V30 11225 N 1040.58 -1.57259 0.103575 0
M  V30 11226 C 1041.55 -2.13337 -0.837859 0
M  V30 11227 C 1042.55 -1.06459 -1.20512 0
M  V30 11228 O 1043.74 -1.32307 -1.13316 0
M  V30 11229 C 1040.87 -2.66093 -2.13089 0
M  V30 11230 H 1042.06 -2.97842 -0.350775 0
M  V30 11231 H 1039.61 -1.55621 -0.145511 0
M  V30 11232 H 1040.35 -1.85133 -2.66264 0
M  V30 11233 H 1040.13 -3.44244 -1.87719 0
M  V30 11234 H 1041.62 -3.09443 -2.80419 0
M  V30 11235 N 1042.06 0.170153 -1.56679 0
M  V30 11236 C 1043.29 0.902134 -1.86197 0
M  V30 11237 C 1043.7 1.75775 -0.689098 0
M  V30 11238 O 1043.06 1.79271 0.341763 0
M  V30 11239 C 1043.11 1.77792 -3.14757 0
M  V30 11240 O 1042.83 0.956817 -4.27524 0
M  V30 11241 C 1044.33 2.61947 -3.57629 0
M  V30 11242 H 1041.55 0.262026 -0.617724 0
M  V30 11243 H 1044.1 0.169899 -2.03793 0
M  V30 11244 H 1042.25 2.46348 -2.98984 0
M  V30 11245 H 1042.67 1.5559 -5.00891 0
M  V30 11246 H 1044.14 3.19011 -4.50484 0
M  V30 11247 H 1044.62 3.36873 -2.81803 0
M  V30 11248 H 1045.22 1.98721 -3.76019 0
M  V30 11249 N 1043.54 1.5137 0.438746 0
M  V30 11250 C 1044.77 1.6753 1.20901 0
M  V30 11251 C 1045.18 0.371573 1.85515 0
M  V30 11252 O 1044.52 -0.659701 1.71446 0
M  V30 11253 C 1044.58 2.73305 2.33548 0
M  V30 11254 C 1044.25 4.15944 1.89313 0
M  V30 11255 C 1045.24 5.00769 1.39736 0
M  V30 11256 C 1042.93 4.62036 1.97047 0
M  V30 11257 C 1044.92 6.29747 0.984773 0
M  V30 11258 C 1042.61 5.91011 1.554 0
M  V30 11259 C 1043.61 6.74693 1.06197 0
M  V30 11260 O 1043.29 8.01256 0.651407 0
M  V30 11261 H 1043.03 0.565404 0.370532 0
M  V30 11262 H 1045.58 1.98543 0.526296 0
M  V30 11263 H 1043.81 2.37604 3.05092 0
M  V30 11264 H 1045.5 2.78359 2.95417 0
M  V30 11265 H 1046.27 4.66363 1.33156 0
M  V30 11266 H 1042.14 3.97025 2.34291 0
M  V30 11267 H 1045.69 6.95015 0.600029 0
M  V30 11268 H 1041.59 6.24932 1.6165 0
M  V30 11269 H 1042.35 8.148 0.777382 0
M  V30 11270 N 1045.02 -0.694098 1.41492 0
M  V30 11271 C 1046.24 -1.48789 1.44488 0
M  V30 11272 C 1046.67 -1.88028 0.0521588 0
M  V30 11273 O 1046.02 -1.54727 -0.944952 0
M  V30 11274 C 1046.07 -2.72586 2.3607 0
M  V30 11275 O 1045.18 -3.70128 1.81876 0
M  V30 11276 H 1044.52 -0.447758 0.490315 0
M  V30 11277 H 1047.05 -0.853036 1.85969 0
M  V30 11278 H 1047.06 -3.20877 2.51995 0
M  V30 11279 H 1045.73 -2.43363 3.37264 0
M  V30 11280 H 1044.31 -3.29069 1.75408 0
M  V30 11281 N 1046.49 -1.27344 -0.928501 0
M  V30 11282 C 1047.46 -1.10043 -2.01055 0
M  V30 11283 C 1048.46 -0.0446793 -1.60738 0
M  V30 11284 O 1049.65 -0.289202 -1.71783 0
M  V30 11285 C 1046.78 -0.676559 -3.34119 0
M  V30 11286 H 1047.97 -2.06126 -2.17835 0
M  V30 11287 H 1045.53 -1.10121 -1.10919 0
M  V30 11288 H 1046.26 0.285697 -3.23039 0
M  V30 11289 H 1046.05 -1.43903 -3.64739 0
M  V30 11290 H 1047.54 -0.577725 -4.13584 0
M  V30 11291 N 1047.97 1.13488 -1.09353 0
M  V30 11292 C 1048.9 2.20988 -0.75409 0
M  V30 11293 C 1049.88 1.67977 0.267901 0
M  V30 11294 O 1051.07 1.93722 0.136128 0
M  V30 11295 C 1048.2 3.46869 -0.173042 0
M  V30 11296 C 1047.15 4.12965 -1.12446 0
M  V30 11297 C 1046.48 5.33163 -0.405157 0
M  V30 11298 C 1047.78 4.60388 -2.46658 0
M  V30 11299 H 1049.47 2.49639 -1.6529 0
M  V30 11300 H 1047.02 1.19987 -0.796182 0
M  V30 11301 H 1048.97 4.21331 0.0764988 0
M  V30 11302 H 1047.7 3.17611 0.760956 0
M  V30 11303 H 1046.35 3.40469 -1.35927 0
M  V30 11304 H 1046 5.00169 0.532955 0
M  V30 11305 H 1045.7 5.78332 -1.03952 0
M  V30 11306 H 1047.23 6.1038 -0.163899 0
M  V30 11307 H 1048.64 5.26276 -2.27389 0
M  V30 11308 H 1047.04 5.16294 -3.05876 0
M  V30 11309 H 1048.11 3.74949 -3.07476 0
M  V30 11310 N 1049.45 0.880621 1.30701 0
M  V30 11311 C 1050.4 0.333562 2.30196 0
M  V30 11312 C 1051.39 -0.557092 1.59978 0
M  V30 11313 O 1052.6 -0.442009 1.74489 0
M  V30 11314 H 1048.97 0.0892036 0.746691 0
M  V30 11315 H 1050.95 1.18644 2.73799 0
M  V30 11316 C 1049.69 -0.440731 3.44895 0
M  V30 11317 H 1049.02 0.235353 3.99107 0
M  V30 11318 H 1050.46 -0.788676 4.166 0
M  V30 11319 C 1048.92 -1.63613 2.94504 0
M  V30 11320 O 1049.45 -2.73549 2.94166 0
M  V30 11321 N 1047.65 -1.47183 2.5057 0
M  V30 11322 H 1047.2 -0.577479 2.51044 0
M  V30 11323 H 1047.16 -2.27303 2.17211 0
M  V30 11324 N 1050.93 -1.4397 0.641131 0
M  V30 11325 C 1052.35 -1.56607 0.30762 0
M  V30 11326 C 1052.55 -1.62694 -1.18882 0
M  V30 11327 O 1051.6 -1.57541 -1.97325 0
M  V30 11328 C 1052.91 -2.83289 1.00834 0
M  V30 11329 C 1054.46 -2.97016 0.98744 0
M  V30 11330 C 1054.94 -4.26514 1.66882 0
M  V30 11331 N 1056.43 -4.33351 1.63589 0
M  V30 11332 C 1057.16 -5.32292 2.13196 0
M  V30 11333 N 1056.66 -6.37582 2.71038 0
M  V30 11334 N 1058.45 -5.23866 2.03766 0
M  V30 11335 H 1050.6 -1.38262 1.61237 0
M  V30 11336 H 1052.87 -0.663221 0.677378 0
M  V30 11337 H 1052.57 -2.84812 2.06337 0
M  V30 11338 H 1052.45 -3.73134 0.552333 0
M  V30 11339 H 1054.83 -2.95041 -0.0591395 0
M  V30 11340 H 1054.91 -2.08493 1.48203 0
M  V30 11341 H 1054.56 -4.2925 2.71491 0
M  V30 11342 H 1054.49 -5.13912 1.14898 0
M  V30 11343 H 1056.98 -3.5788 1.21368 0
M  V30 11344 H 1057.29 -7.09378 3.06597 0
M  V30 11345 H 1055.64 -6.38239 2.75093 0
M  V30 11346 H 1058.83 -4.40524 1.58291 0
M  V30 11347 H 1059 -6.00819 2.42737 0
M  V30 11348 N 1052.41 -0.382291 -1.52893 0
M  V30 11349 C 1053.36 0.471187 -2.27778 0
M  V30 11350 C 1054.35 1.0691 -1.31402 0
M  V30 11351 O 1055.56 1.01038 -1.48967 0
M  V30 11352 H 1051.93 0.170696 -0.732371 0
M  V30 11353 H 1053.9 -0.181954 -2.97845 0
M  V30 11354 C 1052.65 1.59012 -3.09209 0
M  V30 11355 H 1051.97 1.13935 -3.83222 0
M  V30 11356 H 1053.41 2.16167 -3.64757 0
M  V30 11357 C 1051.87 2.54212 -2.21084 0
M  V30 11358 O 1052.4 3.57447 -1.83288 0
M  V30 11359 N 1050.61 2.23789 -1.85383 0
M  V30 11360 H 1050.16 1.39872 -2.16318 0
M  V30 11361 H 1050.11 2.87737 -1.26708 0
M  V30 11362 N 1053.89 1.57202 -0.111913 0
M  V30 11363 C 1054.82 2.11995 0.871242 0
M  V30 11364 C 1055.83 1.06102 1.23475 0
M  V30 11365 O 1057.02 1.33497 1.18494 0
M  V30 11366 C 1054.12 2.59874 2.17528 0
M  V30 11367 C 1053.29 3.89788 1.98455 0
M  V30 11368 C 1052.35 4.23339 3.12523 0
M  V30 11369 O 1051.38 4.92277 2.85748 0
M  V30 11370 N 1052.58 3.80089 4.38762 0
M  V30 11371 H 1055.34 2.96976 0.403157 0
M  V30 11372 H 1052.91 1.61737 0.0727159 0
M  V30 11373 H 1054.9 2.79354 2.9282 0
M  V30 11374 H 1053.47 1.79812 2.55707 0
M  V30 11375 H 1052.69 3.79288 1.07396 0
M  V30 11376 H 1053.98 4.74748 1.83007 0
M  V30 11377 H 1053.37 3.24473 4.63394 0
M  V30 11378 H 1051.93 4.04691 5.10949 0
M  V30 11379 N 1055.36 -0.161842 1.56767 0
M  V30 11380 C 1056.59 -0.896274 1.87034 0
M  V30 11381 C 1057.01 -1.74617 0.699314 0
M  V30 11382 O 1056.37 -1.77861 -0.351435 0
M  V30 11383 C 1056.42 -1.74105 3.15784 0
M  V30 11384 O 1055.52 -2.84372 2.98674 0
M  V30 11385 H 1054.86 -0.250523 0.614926 0
M  V30 11386 H 1057.39 -0.157127 2.03996 0
M  V30 11387 H 1057.4 -2.13907 3.4743 0
M  V30 11388 H 1056.08 -1.11684 4.00624 0
M  V30 11389 H 1054.66 -2.48084 2.78404 0
M  V30 11390 N 1056.84 -1.516 -0.430713 0
M  V30 11391 C 1058.25 -1.57 -1.01035 0
M  V30 11392 C 1058.6 -0.397439 -1.92132 0
M  V30 11393 O 1057.73 0.484954 -2.10896 0
M  V30 11394 C 1058.32 -2.84536 -1.83915 0
M  V30 11395 C 1056.88 -2.92485 -2.36917 0
M  V30 11396 C 1056.03 -2.5173 -1.16308 0
M  V30 11397 H 1058.98 -1.57281 -0.211734 0
M  V30 11398 H 1059 -2.68672 -2.69435 0
M  V30 11399 H 1058.51 -3.69858 -1.17586 0
M  V30 11400 H 1056.61 -2.11608 -3.0668 0
M  V30 11401 H 1056.73 -3.96277 -2.6926 0
M  V30 11402 H 1055.09 -2.05079 -1.51045 0
M  V30 11403 H 1055.87 -3.39403 -0.515793 0
M  V30 11404 N 1058.32 0.686584 -1.41858 0
M  V30 11405 C 1059.57 1.44879 -1.41908 0
M  V30 11406 C 1059.9 1.94175 -0.0311408 0
M  V30 11407 O 1059.17 1.70131 0.942646 0
M  V30 11408 C 1059.46 2.65428 -2.43352 0
M  V30 11409 C 1059.31 2.2184 -3.91289 0
M  V30 11410 C 1060.63 3.67635 -2.41934 0
M  V30 11411 H 1057.75 0.525477 -0.516762 0
M  V30 11412 H 1060.39 0.781263 -1.73194 0
M  V30 11413 H 1058.54 3.2238 -2.16803 0
M  V30 11414 H 1060.21 1.70146 -4.28775 0
M  V30 11415 H 1058.45 1.53531 -4.05722 0
M  V30 11416 H 1059.13 3.08376 -4.5783 0
M  V30 11417 H 1061.6 3.20376 -2.65516 0
M  V30 11418 H 1060.48 4.49579 -3.14913 0
M  V30 11419 H 1060.74 4.17953 -1.44111 0
M  V30 11420 N 1059.8 1.27835 0.921735 0
M  V30 11421 C 1060.73 1.136 2.04003 0
M  V30 11422 C 1061.71 0.0358756 1.70062 0
M  V30 11423 O 1062.89 0.211438 1.93046 0
M  V30 11424 C 1060.02 0.788697 3.38226 0
M  V30 11425 C 1058.98 1.84272 3.863 0
M  V30 11426 C 1058.3 1.34923 5.17397 0
M  V30 11427 C 1059.6 3.24788 4.09035 0
M  V30 11428 H 1061.3 2.07149 2.1617 0
M  V30 11429 H 1058.84 0.997349 1.0387 0
M  V30 11430 H 1060.8 0.675911 4.15944 0
M  V30 11431 H 1059.52 -0.182499 3.2609 0
M  V30 11432 H 1058.18 1.94451 3.1078 0
M  V30 11433 H 1057.83 0.367328 5.01657 0
M  V30 11434 H 1057.53 2.05397 5.50532 0
M  V30 11435 H 1059.05 1.24951 5.97678 0
M  V30 11436 H 1060.47 3.17575 4.77304 0
M  V30 11437 H 1058.86 3.93025 4.53488 0
M  V30 11438 H 1059.93 3.69398 3.14122 0
M  V30 11439 N 1061.28 -1.12907 1.09954 0
M  V30 11440 C 1062.19 -2.22082 0.756095 0
M  V30 11441 C 1063.2 -1.72277 -0.244272 0
M  V30 11442 O 1064.38 -2.01224 -0.0842637 0
M  V30 11443 C 1061.44 -3.46192 0.187642 0
M  V30 11444 C 1060.5 -4.10861 1.24465 0
M  V30 11445 C 1059.74 -5.29047 0.703227 0
M  V30 11446 O 1059.96 -5.68443 -0.472043 0
M  V30 11447 O 1058.89 -5.83904 1.46082 0
M  V30 11448 H 1062.72 -2.53842 1.66727 0
M  V30 11449 H 1060.3 -1.21145 0.874316 0
M  V30 11450 H 1062.19 -4.21212 -0.125774 0
M  V30 11451 H 1060.86 -3.16119 -0.696459 0
M  V30 11452 H 1059.77 -3.37643 1.61085 0
M  V30 11453 H 1061.1 -4.45078 2.10159 0
M  V30 11454 N 1062.75 -0.88754 -1.30232 0
M  V30 11455 C 1064.16 -0.55745 -1.78184 0
M  V30 11456 C 1064.52 0.926474 -1.72948 0
M  V30 11457 O 1063.64 1.72403 -1.3079 0
M  V30 11458 C 1064.24 -1.00512 -3.23547 0
M  V30 11459 C 1062.79 -0.726402 -3.69324 0
M  V30 11460 C 1061.94 -1.18666 -2.50627 0
M  V30 11461 H 1064.89 -1.07151 -1.17066 0
M  V30 11462 H 1064.91 -0.335185 -3.79021 0
M  V30 11463 H 1064.43 -2.08517 -3.27326 0
M  V30 11464 H 1062.53 0.341548 -3.71031 0
M  V30 11465 H 1062.64 -1.31575 -4.60679 0
M  V30 11466 H 1061 -0.605936 -2.47387 0
M  V30 11467 H 1061.79 -2.2745 -2.57141 0
M  V30 11468 N 1064.23 1.43628 -0.648757 0
M  V30 11469 C 1065.48 2.02163 -0.160574 0
M  V30 11470 C 1065.81 1.51037 1.22072 0
M  V30 11471 O 1065.09 0.701633 1.81404 0
M  V30 11472 C 1065.37 3.59715 -0.166528 0
M  V30 11473 C 1065.22 4.21083 -1.58142 0
M  V30 11474 C 1066.54 4.37256 0.499485 0
M  V30 11475 H 1063.66 0.734568 -0.0598238 0
M  V30 11476 H 1066.3 1.70981 -0.828592 0
M  V30 11477 H 1064.45 3.86411 0.402302 0
M  V30 11478 H 1066.12 4.05433 -2.2005 0
M  V30 11479 H 1064.37 3.77904 -2.13005 0
M  V30 11480 H 1065.04 5.30156 -1.53748 0
M  V30 11481 H 1067.51 4.16097 0.0155561 0
M  V30 11482 H 1066.39 5.4693 0.464574 0
M  V30 11483 H 1066.65 4.13175 1.57286 0
M  V30 11484 N 1065.71 0.390394 1.52688 0
M  V30 11485 C 1066.96 -0.191067 2.01195 0
M  V30 11486 C 1067.28 -1.47229 1.27862 0
M  V30 11487 O 1066.55 -1.91793 0.399007 0
M  V30 11488 H 1065.13 -0.073596 0.743366 0
M  V30 11489 H 1067.79 0.522334 1.8777 0
M  V30 11490 H 1066.89 -0.40051 3.0952 0
M  V30 11491 N 1067.19 -1.57141 0.120249 0
M  V30 11492 C 1068.6 -1.5784 -0.236335 0
M  V30 11493 C 1068.8 -1.13304 -1.66626 0
M  V30 11494 O 1067.86 -0.821004 -2.3878 0
M  V30 11495 C 1069.17 -3.007 -0.00188211 0
M  V30 11496 C 1070.72 -3.12927 -0.0676838 0
M  V30 11497 C 1071.2 -4.57789 0.139092 0
M  V30 11498 N 1072.69 -4.63122 0.085104 0
M  V30 11499 C 1073.42 -5.72978 0.219983 0
M  V30 11500 N 1072.92 -6.91579 0.411102 0
M  V30 11501 N 1074.71 -5.61874 0.159469 0
M  V30 11502 H 1066.86 -1.84391 1.05422 0
M  V30 11503 H 1069.13 -0.852228 0.415225 0
M  V30 11504 H 1068.83 -3.37575 0.986718 0
M  V30 11505 H 1068.71 -3.70005 -0.733203 0
M  V30 11506 H 1071.09 -2.75909 -1.04681 0
M  V30 11507 H 1071.17 -2.46162 0.695538 0
M  V30 11508 H 1070.82 -4.95506 1.1152 0
M  V30 11509 H 1070.75 -5.22646 -0.644131 0
M  V30 11510 H 1073.24 -3.77854 -0.0590479 0
M  V30 11511 H 1073.55 -7.71149 0.504851 0
M  V30 11512 H 1071.9 -6.9356 0.447091 0
M  V30 11513 H 1075.09 -4.68099 0.0111131 0
M  V30 11514 H 1075.26 -6.47445 0.268028 0
M  V30 11515 N 1068.67 0.153526 -1.5685 0
M  V30 11516 C 1069.89 0.886343 -1.87507 0
M  V30 11517 C 1070.32 1.74244 -0.708565 0
M  V30 11518 O 1069.67 1.78045 0.341997 0
M  V30 11519 C 1069.72 1.72428 -3.16703 0
M  V30 11520 O 1068.83 2.82784 -3.00178 0
M  V30 11521 H 1068.17 0.247259 -0.616246 0
M  V30 11522 H 1070.7 0.146306 -2.04076 0
M  V30 11523 H 1070.71 2.12062 -3.4856 0
M  V30 11524 H 1069.38 1.09558 -4.01211 0
M  V30 11525 H 1067.96 2.46604 -2.79716 0
M  V30 11526 N 1070.14 1.51827 0.422667 0
M  V30 11527 C 1071.37 1.69049 1.1929 0
M  V30 11528 C 1071.79 0.394095 1.84641 0
M  V30 11529 O 1071.14 -0.628731 1.71328 0
M  V30 11530 C 1071.2 2.81657 2.26609 0
M  V30 11531 O 1070.92 4.06275 1.63929 0
M  V30 11532 C 1072.42 3.10274 3.16615 0
M  V30 11533 H 1069.64 0.566894 0.358988 0
M  V30 11534 H 1072.18 1.98318 0.499029 0
M  V30 11535 H 1070.34 2.54945 2.91688 0
M  V30 11536 H 1070.75 4.68924 2.3497 0
M  V30 11537 H 1072.22 3.92613 3.88019 0
M  V30 11538 H 1072.7 2.23273 3.78214 0
M  V30 11539 H 1073.31 3.387 2.57221 0
M  V30 11540 N 1071.62 -0.679052 1.4222 0
M  V30 11541 C 1072.55 -1.80481 1.48152 0
M  V30 11542 C 1073.53 -1.66698 0.338502 0
M  V30 11543 O 1074.72 -1.86183 0.552228 0
M  V30 11544 C 1071.85 -3.18746 1.37908 0
M  V30 11545 C 1070.8 -3.47258 2.50192 0
M  V30 11546 C 1070.13 -4.85052 2.25008 0
M  V30 11547 C 1071.43 -3.44576 3.92511 0
M  V30 11548 H 1073.12 -1.75774 2.42371 0
M  V30 11549 H 1070.67 -0.844241 1.16656 0
M  V30 11550 H 1072.62 -3.97229 1.40666 0
M  V30 11551 H 1071.35 -3.24119 0.401806 0
M  V30 11552 H 1070 -2.71133 2.46744 0
M  V30 11553 H 1069.65 -4.8707 1.25584 0
M  V30 11554 H 1069.35 -5.05092 3.00259 0
M  V30 11555 H 1070.88 -5.65825 2.29508 0
M  V30 11556 H 1072.29 -4.13036 3.97585 0
M  V30 11557 H 1070.69 -3.76151 4.67579 0
M  V30 11558 H 1071.76 -2.4323 4.19484 0
M  V30 11559 N 1073.1 -1.28322 -0.914942 0
M  V30 11560 C 1074.06 -1.12169 -1.99877 0
M  V30 11561 C 1075.06 -0.0617252 -1.60681 0
M  V30 11562 O 1076.25 -0.307405 -1.71466 0
M  V30 11563 C 1073.39 -0.711959 -3.33383 0
M  V30 11564 H 1074.58 -2.08425 -2.15636 0
M  V30 11565 H 1072.13 -1.11291 -1.09745 0
M  V30 11566 H 1072.87 0.251418 -3.23324 0
M  V30 11567 H 1072.65 -1.47764 -3.63192 0
M  V30 11568 H 1074.14 -0.621558 -4.12948 0
M  V30 11569 N 1074.58 1.12322 -1.10551 0
M  V30 11570 C 1075.51 2.17819 -0.713263 0
M  V30 11571 C 1076.52 1.6086 0.250604 0
M  V30 11572 O 1077.71 1.78466 0.0348909 0
M  V30 11573 C 1074.81 3.38885 -0.0320325 0
M  V30 11574 C 1073.99 4.25332 -1.02038 0
M  V30 11575 C 1073.04 5.24895 -0.370412 0
M  V30 11576 O 1072.07 5.59958 -1.02157 0
M  V30 11577 N 1073.27 5.73934 0.870633 0
M  V30 11578 H 1076.04 2.52083 -1.62094 0
M  V30 11579 H 1073.6 1.27755 -0.994492 0
M  V30 11580 H 1075.59 4.02574 0.414285 0
M  V30 11581 H 1074.16 3.02762 0.778072 0
M  V30 11582 H 1073.38 3.5824 -1.64492 0
M  V30 11583 H 1074.67 4.79936 -1.68936 0
M  V30 11584 H 1074.07 5.47614 1.419 0
M  V30 11585 H 1072.62 6.39504 1.26008 0
M  V30 11586 N 1076.06 0.894434 1.2976 0
M  V30 11587 C 1077.47 0.589778 1.48303 0
M  V30 11588 C 1077.67 -0.870085 1.81746 0
M  V30 11589 O 1076.73 -1.65065 1.91076 0
M  V30 11590 C 1078.04 1.51107 2.59975 0
M  V30 11591 C 1079.59 1.51571 2.73853 0
M  V30 11592 C 1080.06 2.42316 3.88648 0
M  V30 11593 N 1081.56 2.40333 3.95973 0
M  V30 11594 C 1082.29 3.07254 4.84131 0
M  V30 11595 N 1081.79 3.83435 5.77018 0
M  V30 11596 N 1083.58 2.96438 4.77578 0
M  V30 11597 H 1075.73 1.83871 1.06327 0
M  V30 11598 H 1077.99 0.78758 0.527657 0
M  V30 11599 H 1077.7 2.55097 2.42112 0
M  V30 11600 H 1077.57 1.22767 3.56662 0
M  V30 11601 H 1079.96 0.483277 2.91116 0
M  V30 11602 H 1080.04 1.83946 1.77757 0
M  V30 11603 H 1079.69 3.4565 3.72141 0
M  V30 11604 H 1079.62 2.07252 4.84101 0
M  V30 11605 H 1082.11 1.84979 3.29532 0
M  V30 11606 H 1082.42 4.31565 6.4107 0
M  V30 11607 H 1080.76 3.87542 5.7692 0
M  V30 11608 H 1083.96 2.36442 4.03996 0
M  V30 11609 H 1084.13 3.48867 5.46073 0
M  V30 11610 N 1077.53 -1.43282 0.656365 0
M  V30 11611 C 1078.95 -1.56272 0.324213 0
M  V30 11612 C 1079.15 -1.63946 -1.1715 0
M  V30 11613 O 1078.21 -1.59625 -1.95643 0
M  V30 11614 C 1079.52 -2.82204 1.03833 0
M  V30 11615 C 1081.07 -2.95952 1.01889 0
M  V30 11616 C 1081.54 -4.2472 1.71397 0
M  V30 11617 N 1083.03 -4.31591 1.68176 0
M  V30 11618 C 1083.77 -5.30001 2.1883 0
M  V30 11619 N 1083.26 -6.34671 2.77785 0
M  V30 11620 N 1085.06 -5.21676 2.09311 0
M  V30 11621 H 1077.21 -1.36544 1.62694 0
M  V30 11622 H 1079.47 -0.655999 0.684375 0
M  V30 11623 H 1079.18 -2.82608 2.09346 0
M  V30 11624 H 1079.05 -3.72527 0.591878 0
M  V30 11625 H 1081.44 -2.95087 -0.0278431 0
M  V30 11626 H 1081.52 -2.0691 1.50406 0
M  V30 11627 H 1081.16 -4.26346 2.76028 0
M  V30 11628 H 1081.09 -5.12665 1.20342 0
M  V30 11629 H 1083.58 -3.56573 1.25157 0
M  V30 11630 H 1083.9 -7.06087 3.14104 0
M  V30 11631 H 1082.24 -6.35285 2.81847 0
M  V30 11632 H 1085.43 -4.3882 1.62955 0
M  V30 11633 H 1085.61 -5.9821 2.49095 0
M  V30 11634 N 1079.01 -0.398486 -1.52479 0
M  V30 11635 C 1080.26 0.180394 -2.01293 0
M  V30 11636 C 1080.58 1.46548 -1.28641 0
M  V30 11637 O 1079.85 1.91579 -0.409173 0
M  V30 11638 H 1078.43 0.0696528 -0.743746 0
M  V30 11639 H 1081.09 -0.532285 -1.87491 0
M  V30 11640 H 1080.19 0.38409 -3.09728 0
M  V30 11641 N 1080.49 1.57075 -0.12858 0
M  V30 11642 C 1081.74 1.94695 0.526952 0
M  V30 11643 C 1082.05 1.01482 1.67215 0
M  V30 11644 O 1083.26 1.28606 2.39108 0
M  V30 11645 C 1081.72 3.4605 0.988801 0
M  V30 11646 C 1081.32 4.47816 -0.128457 0
M  V30 11647 C 1083.07 3.92572 1.61517 0
M  V30 11648 C 1080.97 5.9036 0.350628 0
M  V30 11649 H 1079.9 0.726819 0.200623 0
M  V30 11650 H 1082.56 1.82295 -0.209972 0
M  V30 11651 H 1080.94 3.53718 1.78043 0
M  V30 11652 H 1082.11 4.51826 -0.904976 0
M  V30 11653 H 1080.43 4.11103 -0.662075 0
M  V30 11654 H 1083.02 4.96493 1.98491 0
M  V30 11655 H 1083.37 3.33085 2.49721 0
M  V30 11656 H 1083.9 3.87744 0.888768 0
M  V30 11657 H 1080.64 6.53624 -0.495592 0
M  V30 11658 H 1080.16 5.89749 1.09342 0
M  V30 11659 H 1081.84 6.41926 0.808717 0
M  V30 11660 N 1081.97 -0.145205 1.5693 0
M  V30 11661 C 1082.92 -1.17923 1.98401 0
M  V30 11662 C 1083.89 -1.42591 0.851885 0
M  V30 11663 O 1085.07 -1.54896 1.11409 0
M  V30 11664 C 1082.21 -2.50727 2.37128 0
M  V30 11665 C 1081.32 -2.33218 3.63639 0
M  V30 11666 C 1080.46 -3.5907 3.91462 0
M  V30 11667 C 1079.5 -3.36605 5.11237 0
M  V30 11668 N 1078.64 -4.54592 5.35061 0
M  V30 11669 H 1083.48 -0.818573 2.86537 0
M  V30 11670 H 1081.01 -0.392739 1.4176 0
M  V30 11671 H 1082.97 -3.28165 2.57611 0
M  V30 11672 H 1081.6 -2.84736 1.52069 0
M  V30 11673 H 1080.65 -1.46826 3.50922 0
M  V30 11674 H 1081.96 -2.12579 4.51234 0
M  V30 11675 H 1081.12 -4.44936 4.12453 0
M  V30 11676 H 1079.86 -3.82715 3.02293 0
M  V30 11677 H 1078.86 -2.49127 4.90118 0
M  V30 11678 H 1080.09 -3.14357 6.01961 0
M  V30 11679 H 1078.03 -4.78406 4.48847 0
M  V30 11680 H 1077.95 -4.36962 6.16928 0
M  V30 11681 H 1079.22 -5.41666 5.60551 0
M  V30 11682 N 1083.45 -1.52049 -0.414609 0
M  V30 11683 C 1084.39 -1.74998 -1.5048 0
M  V30 11684 C 1085.36 -0.592251 -1.55182 0
M  V30 11685 O 1086.55 -0.829203 -1.7184 0
M  V30 11686 C 1083.69 -1.90157 -2.87983 0
M  V30 11687 C 1082.8 -3.17789 -2.92633 0
M  V30 11688 C 1081.94 -3.23411 -4.21401 0
M  V30 11689 C 1080.98 -4.45267 -4.20004 0
M  V30 11690 N 1080.11 -4.48312 -5.40334 0
M  V30 11691 H 1084.95 -2.68046 -1.30212 0
M  V30 11692 H 1082.49 -1.32824 -0.632154 0
M  V30 11693 H 1084.45 -1.96929 -3.67797 0
M  V30 11694 H 1083.08 -1.00496 -3.06758 0
M  V30 11695 H 1082.13 -3.20216 -2.05343 0
M  V30 11696 H 1083.44 -4.07634 -2.87465 0
M  V30 11697 H 1082.6 -3.29224 -5.09604 0
M  V30 11698 H 1081.34 -2.31495 -4.29257 0
M  V30 11699 H 1080.34 -4.39606 -3.30192 0
M  V30 11700 H 1081.57 -5.38472 -4.13793 0
M  V30 11701 H 1079.51 -3.59277 -5.48868 0
M  V30 11702 H 1079.43 -5.31994 -5.37139 0
M  V30 11703 H 1080.7 -4.58347 -6.30506 0
M  V30 11704 N 1084.93 0.6715 -1.42579 0
M  V30 11705 C 1086.17 1.42731 -1.42516 0
M  V30 11706 C 1086.49 1.95545 -0.0462407 0
M  V30 11707 O 1087.69 2.71391 0.0769798 0
M  V30 11708 C 1086.15 2.58215 -2.50705 0
M  V30 11709 C 1085.76 2.12086 -3.94618 0
M  V30 11710 C 1087.5 3.35705 -2.59813 0
M  V30 11711 C 1085.41 3.24672 -4.9431 0
M  V30 11712 H 1084.34 0.536218 -0.530081 0
M  V30 11713 H 1086.99 0.726655 -1.68499 0
M  V30 11714 H 1085.37 3.30665 -2.17892 0
M  V30 11715 H 1086.55 1.46768 -4.36802 0
M  V30 11716 H 1084.86 1.47526 -3.89391 0
M  V30 11717 H 1087.46 4.1956 -3.31472 0
M  V30 11718 H 1087.8 3.82517 -1.64276 0
M  V30 11719 H 1088.33 2.70326 -2.91836 0
M  V30 11720 H 1085.07 2.82848 -5.91335 0
M  V30 11721 H 1084.59 3.88761 -4.56755 0
M  V30 11722 H 1086.27 3.90088 -5.16179 0
M  V30 11723 N 1086.4 1.28806 0.908124 0
M  V30 11724 C 1087.63 1.19153 1.69146 0
M  V30 11725 C 1088.05 -0.249056 1.8715 0
M  V30 11726 O 1087.4 -1.16772 1.40251 0
M  V30 11727 C 1087.45 1.89167 3.08055 0
M  V30 11728 O 1087.18 3.27599 2.90879 0
M  V30 11729 C 1088.68 1.85886 4.02444 0
M  V30 11730 H 1085.9 0.413359 0.528559 0
M  V30 11731 H 1088.44 1.7003 1.13622 0
M  V30 11732 H 1086.6 1.42146 3.60379 0
M  V30 11733 H 1087.01 3.62743 3.78837 0
M  V30 11734 H 1088.48 2.39454 4.97359 0
M  V30 11735 H 1088.96 0.832483 4.31238 0
M  V30 11736 H 1089.57 2.32612 3.5605 0
M  V30 11737 N 1087.88 -1.11734 1.11145 0
M  V30 11738 C 1089.11 -1.87755 0.881062 0
M  V30 11739 C 1089.53 -1.79461 -0.563496 0
M  V30 11740 O 1088.89 -1.15481 -1.39763 0
M  V30 11741 C 1088.94 -3.34641 1.34342 0
M  V30 11742 O 1088.04 -4.09195 0.513157 0
M  V30 11743 H 1087.38 -0.583111 0.317613 0
M  V30 11744 H 1089.91 -1.41256 1.48013 0
M  V30 11745 H 1089.92 -3.85486 1.33658 0
M  V30 11746 H 1088.6 -3.39994 2.39534 0
M  V30 11747 H 1087.17 -3.68269 0.585833 0
M  V30 11748 N 1089.36 -0.901303 -1.29284 0
M  V30 11749 C 1090.59 -0.543511 -1.99634 0
M  V30 11750 C 1091 0.872154 -1.67448 0
M  V30 11751 O 1090.36 1.57591 -0.920406 0
M  V30 11752 C 1090.41 -0.728148 -3.54091 0
M  V30 11753 O 1090.13 -2.08809 -3.85137 0
M  V30 11754 C 1091.63 -0.375519 -4.41707 0
M  V30 11755 H 1088.85 -0.208405 -0.637815 0
M  V30 11756 H 1091.4 -1.21109 -1.64781 0
M  V30 11757 H 1089.55 -0.107728 -3.8725 0
M  V30 11758 H 1089.97 -2.11863 -4.79807 0
M  V30 11759 H 1091.44 -0.555538 -5.49197 0
M  V30 11760 H 1091.92 0.687532 -4.33785 0
M  V30 11761 H 1092.52 -0.972949 -4.14021 0
M  V30 11762 N 1090.84 1.42931 -0.663954 0
M  V30 11763 C 1091.8 2.29197 0.0117626 0
M  V30 11764 C 1092.8 1.42767 0.739875 0
M  V30 11765 O 1093.99 1.64278 0.579509 0
M  V30 11766 C 1091.12 3.2505 1.02738 0
M  V30 11767 H 1092.32 2.90438 -0.747391 0
M  V30 11768 H 1089.87 1.5039 -0.425733 0
M  V30 11769 H 1090.6 2.68726 1.8154 0
M  V30 11770 H 1090.39 3.88785 0.508809 0
M  V30 11771 H 1091.88 3.89771 1.49893 0
M  V30 11772 N 1092.32 0.406567 1.52266 0
M  V30 11773 C 1093.25 -0.411314 2.29849 0
M  V30 11774 C 1094.23 -1.04838 1.33952 0
M  V30 11775 O 1095.41 -1.05788 1.62857 0
M  V30 11776 C 1092.54 -1.52961 3.11802 0
M  V30 11777 C 1091.5 -1.01768 4.15725 0
M  V30 11778 C 1090.82 -2.22938 4.86007 0
M  V30 11779 C 1092.12 -0.073515 5.22248 0
M  V30 11780 H 1093.82 0.236054 2.98468 0
M  V30 11781 H 1091.36 0.114968 1.4354 0
M  V30 11782 H 1093.31 -2.10874 3.64843 0
M  V30 11783 H 1092.04 -2.20482 2.40947 0
M  V30 11784 H 1090.7 -0.46097 3.6369 0
M  V30 11785 H 1090.35 -2.89007 4.11684 0
M  V30 11786 H 1090.05 -1.89338 5.5626 0
M  V30 11787 H 1091.57 -2.81462 5.41859 0
M  V30 11788 H 1092.98 -0.561367 5.70545 0
M  V30 11789 H 1091.38 0.173551 5.99849 0
M  V30 11790 H 1092.45 0.872524 4.76985 0
M  V30 11791 O 1093.83 -1.59097 0.277559 0
M  V30 11792 H 1094.52 -1.91488 -0.291912 0
M  V30 END ATOM
M  V30 BEGIN BOND
M  V30 END BOND
M  V30 END CTAB
M  END
$$$$
