drugbank_target|Q88CZ6 Urocanate hydratase (DB01971)
 OpenBabel12092119543D

  0  0  0     0  0            999 V3000
M  V30 BEGIN CTAB
M  V30 COUNTS 8447 8540 0 0 0
M  V30 BEGIN ATOM
M  V30 1 H -0.908 1.98254 -0.117106 0
M  V30 2 N 0 1.576 0 0
M  V30 3 C 0.933 2.03868 1.02534 0
M  V30 4 C 1.911 0.928543 1.3348 0
M  V30 5 O 3.095 1.19667 1.45644 0
M  V30 6 C 0.222 2.43627 2.35294 0
M  V30 7 C -0.732 3.65373 2.2001 0
M  V30 8 S 0.101 5.13292 1.52614 0
M  V30 9 C 1.257 5.56322 2.86805 0
M  V30 10 H 1.49 2.90518 0.631377 0
M  V30 11 H -0.977 1.52953 0.210867 0
M  V30 12 H 0.981 2.67203 3.11629 0
M  V30 13 H -0.358 1.57376 2.7183 0
M  V30 14 H -1.165 3.90944 3.18086 0
M  V30 15 H -1.563 3.418 1.51819 0
M  V30 16 H 0.729 5.58782 3.83104 0
M  V30 17 H 1.672 6.56266 2.65933 0
M  V30 18 H 2.08 4.83886 2.90714 0
M  V30 19 N 1.4781 -0.272755 1.55222 0
M  V30 20 C 2.7061 -1.02255 1.79865 0
M  V30 21 C 3.1211 -1.79924 0.572088 0
M  V30 22 O 2.4781 -1.76638 -0.458842 0
M  V30 23 C 2.5291 -1.98094 3.02392 0
M  V30 24 O 2.2501 -1.23572 4.20311 0
M  V30 25 C 3.7511 -2.84884 3.39641 0
M  V30 26 H 0.9711 -0.302057 0.599168 0
M  V30 27 H 3.5151 -0.303465 2.02236 0
M  V30 28 H 1.6701 -2.65465 2.82147 0
M  V30 29 H 2.0841 -1.88172 4.89583 0
M  V30 30 H 3.5581 -3.47927 4.28545 0
M  V30 31 H 4.0351 -3.54665 2.59055 0
M  V30 32 H 4.6411 -2.23003 3.62146 0
M  V30 33 N 2.9562 -1.48159 -0.537278 0
M  V30 34 C 4.2332 -1.46291 -1.29839 0
M  V30 35 C 4.6132 -0.170613 -2.10409 0
M  V30 36 O 3.9612 0.847746 -2.12192 0
M  V30 37 C 4.1712 -2.72055 -2.18603 0
M  V30 38 C 5.5192 -3.20087 -2.7898 0
M  V30 39 O 6.5432 -2.72921 -2.28894 0
M  V30 40 O 5.4022 -4.02138 -3.70064 0
M  V30 41 H 2.4962 -0.583906 -0.585647 0
M  V30 42 H 5.0422 -1.60384 -0.554534 0
M  V30 43 H 3.8142 -3.57628 -1.58801 0
M  V30 44 H 3.4372 -2.60646 -3.00249 0
M  V30 45 N 4.4343 0.785586 -1.36625 0
M  V30 46 C 5.3823 1.91978 -1.31329 0
M  V30 47 C 6.3763 1.68162 -0.204416 0
M  V30 48 O 7.5823 1.76122 -0.371645 0
M  V30 49 H 3.9573 0.631087 -0.408942 0
M  V30 50 H 5.9283 1.93562 -2.27104 0
M  V30 51 C 4.6773 3.29055 -1.12329 0
M  V30 52 H 4.0003 3.4795 -1.96903 0
M  V30 53 H 5.4403 4.08756 -1.12671 0
M  V30 54 C 3.8993 3.36461 0.171861 0
M  V30 55 O 4.4293 3.84576 1.16035 0
M  V30 56 N 2.6353 2.89782 0.217846 0
M  V30 57 H 2.1823 2.50819 -0.587183 0
M  V30 58 H 2.1403 2.95119 1.08408 0
M  V30 59 N 5.9124 1.20967 1.01018 0
M  V30 60 C 6.8604 0.961223 2.1181 0
M  V30 61 C 7.8544 -0.0897034 1.69162 0
M  V30 62 O 9.0604 0.0612271 1.79896 0
M  V30 63 H 5.4354 0.29355 0.692338 0
M  V30 64 H 7.4064 1.90178 2.29946 0
M  V30 65 C 6.1554 0.536854 3.4353 0
M  V30 66 H 5.4784 1.33713 3.76777 0
M  V30 67 H 6.9184 0.402286 4.22087 0
M  V30 68 C 5.3774 -0.751574 3.2841 0
M  V30 69 O 5.9074 -1.80841 3.58691 0
M  V30 70 N 4.1134 -0.716079 2.81639 0
M  V30 71 H 3.6604 0.144236 2.57196 0
M  V30 72 H 3.6184 -1.57847 2.71904 0
M  V30 73 N 7.3905 -1.2043 1.01659 0
M  V30 74 C 8.3375 -2.23215 0.586822 0
M  V30 75 C 9.3075 -1.61382 -0.393085 0
M  V30 76 O 10.4925 -1.88544 -0.292525 0
M  V30 77 C 7.6325 -3.45032 -0.0687464 0
M  V30 78 C 6.7455 -4.21296 0.955724 0
M  V30 79 C 5.8805 -5.30507 0.271208 0
M  V30 80 C 4.9195 -5.98515 1.28244 0
M  V30 81 N 4.0565 -6.99316 0.62459 0
M  V30 82 H 8.8965 -2.59336 1.46796 0
M  V30 83 H 6.4335 -1.27431 0.734836 0
M  V30 84 H 8.3915 -4.1459 -0.465965 0
M  V30 85 H 7.0215 -3.09604 -0.913529 0
M  V30 86 H 6.0735 -3.50803 1.4711 0
M  V30 87 H 7.3855 -4.6803 1.72479 0
M  V30 88 H 6.5395 -6.06428 -0.18151 0
M  V30 89 H 5.2785 -4.8481 -0.530163 0
M  V30 90 H 4.2835 -5.21355 1.74554 0
M  V30 91 H 5.5085 -6.46298 2.08509 0
M  V30 92 H 3.4545 -6.55812 -0.156914 0
M  V30 93 H 3.3715 -7.44178 1.33172 0
M  V30 94 H 4.6395 -7.79255 0.195462 0
M  V30 95 N 8.8686 -0.792821 -1.36206 0
M  V30 96 C 10.0986 -0.378275 -2.03107 0
M  V30 97 C 10.5066 1.01119 -1.59911 0
M  V30 98 O 9.8496 1.66052 -0.785658 0
M  V30 99 C 9.9116 -0.366535 -3.57627 0
M  V30 100 C 9.5756 -1.70416 -4.24037 0
M  V30 101 C 10.5726 -2.6602 -4.46687 0
M  V30 102 C 8.2576 -1.98439 -4.6144 0
M  V30 103 C 10.2516 -3.8784 -5.05825 0
M  V30 104 C 7.9386 -3.20525 -5.20295 0
M  V30 105 C 8.9366 -4.15044 -5.42427 0
M  V30 106 O 8.6246 -5.34978 -6.00045 0
M  V30 107 H 8.3566 -0.153543 -0.658332 0
M  V30 108 H 10.9106 -1.07383 -1.75094 0
M  V30 109 H 9.1406 0.385539 -3.84773 0
M  V30 110 H 10.8296 0.0238088 -4.05893 0
M  V30 111 H 11.5956 -2.45658 -4.18183 0
M  V30 112 H 7.4746 -1.25686 -4.43536 0
M  V30 113 H 11.0186 -4.61628 -5.23015 0
M  V30 114 H 6.9156 -3.40764 -5.48225 0
M  V30 115 H 7.6836 -5.36088 -6.18508 0
M  V30 116 N 10.3467 1.47872 -0.545128 0
M  V30 117 C 11.7627 1.5829 -0.204032 0
M  V30 118 C 11.9627 1.54529 1.29317 0
M  V30 119 O 11.0187 1.44232 2.07252 0
M  V30 120 C 12.3317 2.89304 -0.819987 0
M  V30 121 C 13.8797 3.02864 -0.790105 0
M  V30 122 C 14.3547 4.3656 -1.38491 0
M  V30 123 N 15.8457 4.43165 -1.34755 0
M  V30 124 C 16.5807 5.45153 -1.77753 0
M  V30 125 N 16.0767 6.54016 -2.2855 0
M  V30 126 N 17.8697 5.36125 -1.68897 0
M  V30 127 H 10.0207 1.4856 -1.51802 0
M  V30 128 H 12.2837 0.706305 -0.632327 0
M  V30 129 H 11.9897 2.97757 -1.87173 0
M  V30 130 H 11.8637 3.75957 -0.305915 0
M  V30 131 H 14.2507 2.94014 0.252913 0
M  V30 132 H 14.3317 2.17782 -1.34181 0
M  V30 133 H 13.9757 4.46164 -2.42693 0
M  V30 134 H 13.9057 5.20353 -0.808754 0
M  V30 135 H 16.3967 3.65083 -0.975855 0
M  V30 136 H 16.7097 7.27994 -2.59314 0
M  V30 137 H 15.0547 6.54938 -2.32553 0
M  V30 138 H 18.2457 4.49975 -1.28998 0
M  V30 139 H 18.4187 6.15472 -2.02726 0
M  V30 140 N 11.8248 0.280983 1.55075 0
M  V30 141 C 13.1018 -0.386207 1.91749 0
M  V30 142 C 13.4818 -1.73264 1.20594 0
M  V30 143 O 12.8298 -2.26034 0.334784 0
M  V30 144 C 13.0398 -0.520687 3.45094 0
M  V30 145 C 14.3878 -0.800865 4.16979 0
M  V30 146 O 15.4118 -0.605271 3.5102 0
M  V30 147 O 14.2708 -1.1753 5.33712 0
M  V30 148 H 11.3648 -0.212408 0.799257 0
M  V30 149 H 13.9108 0.327568 1.66509 0
M  V30 150 H 12.6828 0.426633 3.88967 0
M  V30 151 H 12.3058 -1.2837 3.76307 0
M  V30 152 N 13.3029 -1.57598 0.00835791 0
M  V30 153 C 14.5489 -1.91211 -0.675732 0
M  V30 154 C 14.8819 -0.883139 -1.72958 0
M  V30 155 O 14.1569 0.097016 -1.94258 0
M  V30 156 C 14.4399 -3.35379 -1.31123 0
M  V30 157 C 14.2929 -4.48999 -0.268356 0
M  V30 158 C 15.6119 -3.7912 -2.23508 0
M  V30 159 H 12.7309 -0.695374 -0.244179 0
M  V30 160 H 15.3729 -1.89901 0.0613655 0
M  V30 161 H 13.5229 -3.36626 -1.93946 0
M  V30 162 H 15.1949 -4.59887 0.360844 0
M  V30 163 H 13.4379 -4.31873 0.408482 0
M  V30 164 H 14.1089 -5.46851 -0.752218 0
M  V30 165 H 16.5849 -3.79477 -1.70693 0
M  V30 166 H 15.4609 -4.80729 -2.64936 0
M  V30 167 H 15.7219 -3.13455 -3.11766 0
M  V30 168 N 14.781 0.264519 -1.55364 0
M  V30 169 C 15.691 1.34902 -1.91934 0
M  V30 170 C 16.707 1.53595 -0.817593 0
M  V30 171 O 17.883 1.67558 -1.11742 0
M  V30 172 C 14.948 2.68676 -2.19121 0
M  V30 173 C 14.009 2.58657 -3.4263 0
M  V30 174 C 13.242 3.86051 -3.68511 0
M  V30 175 O 13.465 4.87126 -2.96757 0
M  V30 176 O 12.399 3.85744 -4.62045 0
M  V30 177 H 16.225 1.06883 -2.8427 0
M  V30 178 H 13.81 0.463775 -1.42019 0
M  V30 179 H 15.692 3.47759 -2.37995 0
M  V30 180 H 14.367 2.96463 -1.29966 0
M  V30 181 H 13.274 1.7792 -3.29082 0
M  V30 182 H 14.607 2.35818 -4.32031 0
M  V30 183 N 16.2591 1.48442 0.529413 0
M  V30 184 C 17.5081 1.55742 1.28169 0
M  V30 185 C 17.8211 0.236511 1.94165 0
M  V30 186 O 19.0271 0.187761 2.7085 0
M  V30 187 C 17.4831 2.74667 2.32564 0
M  V30 188 C 17.0911 4.13402 1.72636 0
M  V30 189 C 18.8351 2.9128 3.08798 0
M  V30 190 C 16.7421 5.23587 2.74975 0
M  V30 191 H 15.6721 0.579796 0.48203 0
M  V30 192 H 18.3231 1.74776 0.559056 0
M  V30 193 H 16.7051 2.49067 3.07866 0
M  V30 194 H 17.8791 4.49022 1.03519 0
M  V30 195 H 16.1941 4.0191 1.08892 0
M  V30 196 H 18.7911 3.70767 3.85274 0
M  V30 197 H 19.1341 2.00757 3.64695 0
M  V30 198 H 19.6671 3.16782 2.40611 0
M  V30 199 H 16.4061 6.16076 2.23897 0
M  V30 200 H 15.9261 4.92454 3.42417 0
M  V30 201 H 17.6051 5.51724 3.37949 0
M  V30 202 N 17.7372 -0.778329 1.37039 0
M  V30 203 C 19.1532 -1.07796 1.17695 0
M  V30 204 C 19.3532 -2.01498 0.00860115 0
M  V30 205 O 18.4092 -2.43901 -0.653352 0
M  V30 206 C 19.7222 -1.68178 2.49272 0
M  V30 207 C 21.2702 -1.80467 2.55735 0
M  V30 208 C 21.7452 -2.44263 3.87427 0
M  V30 209 N 23.2362 -2.51721 3.88833 0
M  V30 210 C 23.9712 -3.01919 4.87476 0
M  V30 211 N 23.4672 -3.5234 5.96513 0
M  V30 212 N 25.2602 -3.00733 4.74885 0
M  V30 213 H 17.4112 -0.156032 2.11826 0
M  V30 214 H 19.6742 -0.131844 0.938787 0
M  V30 215 H 19.3802 -1.06796 3.35093 0
M  V30 216 H 19.2542 -2.67554 2.65885 0
M  V30 217 H 21.6412 -2.40984 1.70325 0
M  V30 218 H 21.7222 -0.798656 2.43013 0
M  V30 219 H 21.3662 -1.84388 4.73248 0
M  V30 220 H 21.2962 -3.45458 3.9745 0
M  V30 221 H 23.7872 -2.1603 3.10063 0
M  V30 222 H 24.1002 -3.89027 6.67741 0
M  V30 223 H 22.4452 -3.50462 6.00168 0
M  V30 224 H 25.6362 -2.60638 3.88826 0
M  V30 225 H 25.8092 -3.39545 5.51918 0
M  V30 226 N 19.2153 -1.21501 -1.00376 0
M  V30 227 C 20.1783 -0.976927 -2.07337 0
M  V30 228 C 21.1783 0.0525322 -1.60714 0
M  V30 229 O 22.3683 -0.184869 -1.73216 0
M  V30 230 C 19.5003 -0.473423 -3.37597 0
M  V30 231 H 20.6933 -1.92587 -2.29892 0
M  V30 232 H 18.2463 -1.03217 -1.17371 0
M  V30 233 H 18.9813 0.480379 -3.20722 0
M  V30 234 H 18.7663 -1.216 -3.72768 0
M  V30 235 H 20.2563 -0.32675 -4.1632 0
M  V30 236 N 20.6934 1.19889 -1.02296 0
M  V30 237 C 22.1044 1.71124 -0.746568 0
M  V30 238 C 22.4554 1.81939 0.734335 0
M  V30 239 O 21.5804 1.48639 1.57275 0
M  V30 240 C 22.1754 3.10804 -1.34857 0
M  V30 241 C 20.7344 3.59323 -1.1209 0
M  V30 242 C 19.8814 2.3635 -1.45031 0
M  V30 243 H 22.8324 1.04813 -1.19163 0
M  V30 244 H 22.8534 3.73186 -0.742437 0
M  V30 245 H 22.3654 3.029 -2.42638 0
M  V30 246 H 20.4664 3.7255 -0.0610337 0
M  V30 247 H 20.5794 4.4378 -1.80544 0
M  V30 248 H 18.9434 2.39399 -0.869487 0
M  V30 249 H 19.7264 2.31081 -2.53883 0
M  V30 250 N 22.1715 0.800033 1.35784 0
M  V30 251 C 23.5875 0.482977 1.52117 0
M  V30 252 C 23.7875 -0.996948 1.75109 0
M  V30 253 O 22.8435 -1.78216 1.78872 0
M  V30 254 C 24.1565 1.32264 2.70049 0
M  V30 255 C 25.7045 1.31742 2.83924 0
M  V30 256 C 26.1795 2.14106 4.04874 0
M  V30 257 N 27.6705 2.11607 4.12039 0
M  V30 258 C 28.4055 2.72099 5.04727 0
M  V30 259 N 27.9015 3.41492 6.02789 0
M  V30 260 N 29.6945 2.61776 4.97423 0
M  V30 261 H 21.8455 1.75856 1.19115 0
M  V30 262 H 24.1085 0.748122 0.582252 0
M  V30 263 H 23.8145 2.37261 2.59616 0
M  V30 264 H 23.6885 0.971303 3.6448 0
M  V30 265 H 26.0755 0.275333 2.93813 0
M  V30 266 H 26.1565 1.70859 1.9037 0
M  V30 267 H 25.8005 3.18351 3.95746 0
M  V30 268 H 25.7305 1.72353 4.97596 0
M  V30 269 H 28.2215 1.61112 3.41835 0
M  V30 270 H 28.5345 3.84953 6.70098 0
M  V30 271 H 26.8795 3.45596 6.02983 0
M  V30 272 H 30.0705 2.07157 4.19766 0
M  V30 273 H 30.2435 3.0921 5.69468 0
M  V30 274 N 23.6496 -1.47581 0.552962 0
M  V30 275 C 24.8976 -2.02082 0.0272703 0
M  V30 276 C 25.2186 -1.4301 -1.32563 0
M  V30 277 O 24.4886 -0.603745 -1.86365 0
M  V30 278 H 23.0686 -0.746966 0.00709182 0
M  V30 279 H 25.7306 -1.81033 0.722008 0
M  V30 280 H 24.8266 -3.12034 -0.0639951 0
M  V30 281 N 25.1277 -0.289203 -1.54924 0
M  V30 282 C 26.0757 0.607966 -2.24514 0
M  V30 283 C 27.0697 1.14655 -1.24702 0
M  V30 284 O 28.2757 1.09856 -1.4259 0
M  V30 285 H 24.6507 0.21464 -0.720718 0
M  V30 286 H 26.6217 -0.00164182 -2.984 0
M  V30 287 C 25.3707 1.77406 -2.99036 0
M  V30 288 H 24.6937 1.36884 -3.75637 0
M  V30 289 H 26.1337 2.37814 -3.51028 0
M  V30 290 C 24.5927 2.67107 -2.05318 0
M  V30 291 O 25.1227 3.6787 -1.61353 0
M  V30 292 N 23.3287 2.34582 -1.71521 0
M  V30 293 H 22.8757 1.52688 -2.07471 0
M  V30 294 H 22.8337 2.94867 -1.0909 0
M  V30 295 N 26.6058 1.57591 -0.0167156 0
M  V30 296 C 27.5528 2.09462 0.969251 0
M  V30 297 C 28.5228 0.99381 1.33089 0
M  V30 298 O 29.7078 1.26726 1.42636 0
M  V30 299 C 26.8478 2.61622 2.25051 0
M  V30 300 C 25.9608 3.85666 1.94642 0
M  V30 301 C 25.0958 4.26266 3.16972 0
M  V30 302 C 24.1348 5.43101 2.82326 0
M  V30 303 N 23.2718 5.78915 3.97243 0
M  V30 304 H 28.1118 2.93428 0.519997 0
M  V30 305 H 25.6488 1.45044 0.245087 0
M  V30 306 H 27.6068 2.89949 2.99976 0
M  V30 307 H 26.2368 1.80505 2.67615 0
M  V30 308 H 25.2888 3.64145 1.10013 0
M  V30 309 H 26.6008 4.70678 1.65117 0
M  V30 310 H 25.7548 4.55963 4.00228 0
M  V30 311 H 24.4938 3.39996 3.49648 0
M  V30 312 H 23.4988 5.1311 1.97479 0
M  V30 313 H 24.7238 6.3106 2.50879 0
M  V30 314 H 22.6698 4.95602 4.29785 0
M  V30 315 H 22.5868 6.58539 3.71299 0
M  V30 316 H 23.8548 6.13212 4.81239 0
M  V30 317 N 28.0839 -0.256276 1.55502 0
M  V30 318 C 29.0139 -1.32102 1.92539 0
M  V30 319 C 29.9949 -1.50684 0.789194 0
M  V30 320 O 31.1799 -1.63449 1.04872 0
M  V30 321 C 28.3099 -2.67752 2.21192 0
M  V30 322 C 27.2639 -2.63878 3.36975 0
M  V30 323 C 26.5899 -4.03236 3.51147 0
M  V30 324 C 27.8899 -2.21682 4.72921 0
M  V30 325 H 29.5839 -1.01351 2.81724 0
M  V30 326 H 27.1299 -0.486105 1.35547 0
M  V30 327 H 29.0829 -3.42365 2.45691 0
M  V30 328 H 27.8069 -3.0012 1.28824 0
M  V30 329 H 26.4659 -1.91722 3.12471 0
M  V30 330 H 26.1139 -4.32854 2.56216 0
M  V30 331 H 25.8139 -4.01535 4.29003 0
M  V30 332 H 27.3379 -4.79563 3.77957 0
M  V30 333 H 28.7519 -2.86023 4.96854 0
M  V30 334 H 27.1489 -2.3111 5.53812 0
M  V30 335 H 28.2189 -1.16833 4.70615 0
M  V30 336 N 29.562 -1.4872 -0.521534 0
M  V30 337 C 30.79 -1.60843 -1.30142 0
M  V30 338 C 31.205 -0.271897 -1.86832 0
M  V30 339 O 30.562 0.739969 -1.66825 0
M  V30 340 C 30.613 -2.66155 -2.4463 0
M  V30 341 O 30.334 -3.94623 -1.90275 0
M  V30 342 C 31.835 -2.88795 -3.36322 0
M  V30 343 H 29.055 -0.542075 -0.395468 0
M  V30 344 H 31.599 -1.94609 -0.628285 0
M  V30 345 H 29.754 -2.35224 -3.07812 0
M  V30 346 H 30.168 -4.52468 -2.65279 0
M  V30 347 H 31.642 -3.66264 -4.12983 0
M  V30 348 H 32.119 -1.97934 -3.9207 0
M  V30 349 H 32.725 -3.21063 -2.78924 0
M  V30 350 N 31.0401 0.771051 -1.3745 0
M  V30 351 C 32.0031 1.86598 -1.33093 0
M  V30 352 C 33.0031 1.59076 -0.234845 0
M  V30 353 O 34.1931 1.67145 -0.490732 0
M  V30 354 C 31.3251 3.23747 -1.06773 0
M  V30 355 H 32.5181 1.91873 -2.30488 0
M  V30 356 H 30.0711 0.970876 -1.2249 0
M  V30 357 H 30.8061 3.24148 -0.099129 0
M  V30 358 H 30.5911 3.45115 -1.86112 0
M  V30 359 H 32.0811 4.03824 -1.06377 0
M  V30 360 N 32.5182 1.22032 0.997298 0
M  V30 361 C 33.4652 0.986467 2.08656 0
M  V30 362 C 34.4352 -0.0902671 1.65855 0
M  V30 363 O 35.6202 0.0584294 1.90711 0
M  V30 364 C 32.7602 0.565569 3.40434 0
M  V30 365 C 31.8732 1.71259 3.96604 0
M  V30 366 C 31.0082 1.24011 5.16522 0
M  V30 367 C 30.0472 2.35896 5.64818 0
M  V30 368 N 29.1842 1.89726 6.7598 0
M  V30 369 H 34.0242 1.91892 2.27994 0
M  V30 370 H 31.5612 0.956199 1.11782 0
M  V30 371 H 33.5192 0.302738 4.161 0
M  V30 372 H 32.1492 -0.329879 3.2111 0
M  V30 373 H 31.2012 2.08986 3.17851 0
M  V30 374 H 32.5132 2.55436 4.28432 0
M  V30 375 H 31.6672 0.934395 5.99461 0
M  V30 376 H 30.4062 0.368487 4.86306 0
M  V30 377 H 29.4112 2.67261 4.8047 0
M  V30 378 H 30.6362 3.23567 5.97061 0
M  V30 379 H 28.5822 1.0492 6.47555 0
M  V30 380 H 28.4992 2.67471 7.07103 0
M  V30 381 H 29.7672 1.62211 7.62435 0
M  V30 382 N 33.9963 -1.19345 1.0293 0
M  V30 383 C 35.2213 -1.93538 0.745511 0
M  V30 384 C 35.6463 -1.75007 -0.689511 0
M  V30 385 O 35.0043 -1.05265 -1.47611 0
M  V30 386 C 35.0523 -3.43336 1.10239 0
M  V30 387 O 34.1563 -4.11806 0.221289 0
M  V30 388 H 33.4973 -0.604193 0.275404 0
M  V30 389 H 36.0273 -1.5141 1.37609 0
M  V30 390 H 36.0373 -3.94004 1.05947 0
M  V30 391 H 34.7123 -3.56146 2.14786 0
M  V30 392 H 33.2893 -3.715 0.322842 0
M  V30 393 N 35.4744 -0.807222 -1.35358 0
M  V30 394 C 36.7204 -0.397594 -1.99476 0
M  V30 395 C 37.0754 1.02405 -1.62883 0
M  V30 396 O 36.3684 1.70077 -0.882282 0
M  V30 397 C 36.5624 -0.519036 -3.53611 0
M  V30 398 C 36.3914 -1.95094 -4.05177 0
M  V30 399 C 35.1614 -2.57945 -4.34503 0
M  V30 400 C 37.3594 -2.91558 -4.23673 0
M  V30 401 N 35.3414 -3.92539 -4.72003 0
M  V30 402 C 36.7124 -4.11024 -4.64176 0
M  V30 403 C 38.7674 -2.88381 -4.05883 0
M  V30 404 C 37.4704 -5.27745 -4.88751 0
M  V30 405 C 39.4964 -4.04306 -4.31614 0
M  V30 406 C 38.8584 -5.22519 -4.72391 0
M  V30 407 H 34.9574 -0.193274 -0.75774 0
M  V30 408 H 37.5414 -1.0486 -1.6405 0
M  V30 409 H 35.7124 0.101979 -3.88266 0
M  V30 410 H 37.4444 -0.0839321 -4.04613 0
M  V30 411 H 34.1994 -2.09295 -4.24844 0
M  V30 412 H 34.6234 -4.61836 -4.95011 0
M  V30 413 H 39.2654 -1.98137 -3.73499 0
M  V30 414 H 36.9834 -6.1856 -5.20008 0
M  V30 415 H 40.5694 -4.03229 -4.19402 0
M  V30 416 H 39.4494 -6.1073 -4.91913 0
M  V30 417 N 36.9525 1.47285 -0.560781 0
M  V30 418 C 37.8825 2.32857 0.173105 0
M  V30 419 C 38.8635 1.44009 0.905281 0
M  V30 420 O 40.0485 1.7286 0.885046 0
M  V30 421 C 37.1785 3.25861 1.20133 0
M  V30 422 C 36.1325 4.23978 0.585388 0
M  V30 423 C 35.4585 5.06332 1.7185 0
M  V30 424 C 36.7585 5.20242 -0.463178 0
M  V30 425 H 38.4525 2.94466 -0.541307 0
M  V30 426 H 35.9985 1.41601 -0.261764 0
M  V30 427 H 37.9515 3.84569 1.72293 0
M  V30 428 H 36.6755 2.62315 1.94573 0
M  V30 429 H 35.3345 3.66501 0.085054 0
M  V30 430 H 34.9825 4.39186 2.45203 0
M  V30 431 H 34.6825 5.72762 1.31213 0
M  V30 432 H 36.2065 5.67899 2.24329 0
M  V30 433 H 37.6205 5.73293 -0.027502 0
M  V30 434 H 36.0175 5.94896 -0.788627 0
M  V30 435 H 37.0875 4.65504 -1.35773 0
M  V30 436 N 38.4306 0.297415 1.54768 0
M  V30 437 C 39.6586 -0.315623 2.04478 0
M  V30 438 C 40.0736 -1.47792 1.17486 0
M  V30 439 O 39.4306 -1.81404 0.19971 0
M  V30 440 C 39.4816 -0.7753 3.53088 0
M  V30 441 O 39.2026 0.340732 4.36773 0
M  V30 442 C 40.7036 -1.45386 4.18781 0
M  V30 443 H 37.9236 -0.0690887 0.667434 0
M  V30 444 H 40.4676 0.436003 1.99798 0
M  V30 445 H 38.6226 -1.47696 3.58141 0
M  V30 446 H 39.0366 -0.0165035 5.24497 0
M  V30 447 H 40.5106 -1.72669 5.24299 0
M  V30 448 H 40.9876 -2.39275 3.68299 0
M  V30 449 H 41.5936 -0.795475 4.17795 0
M  V30 450 N 39.9087 -1.5758 0.0250728 0
M  V30 451 C 40.8187 -2.1343 -0.973905 0
M  V30 452 C 41.8347 -1.08556 -1.35984 0
M  V30 453 O 43.0107 -1.40592 -1.44207 0
M  V30 454 C 40.0757 -2.64703 -2.23904 0
M  V30 455 C 39.1367 -3.84276 -1.91391 0
M  V30 456 C 38.3697 -4.33095 -3.11873 0
M  V30 457 O 38.5927 -3.81107 -4.24398 0
M  V30 458 O 37.5267 -5.24984 -2.94406 0
M  V30 459 H 41.3527 -2.99057 -0.529036 0
M  V30 460 H 38.9377 -1.48118 -0.195288 0
M  V30 461 H 40.8197 -2.97769 -2.98181 0
M  V30 462 H 39.4947 -1.82161 -2.6758 0
M  V30 463 H 38.4017 -3.56143 -1.14511 0
M  V30 464 H 39.7347 -4.67968 -1.52534 0
M  V30 465 N 41.3868 0.248026 -1.55636 0
M  V30 466 C 42.3498 1.29044 -1.89421 0
M  V30 467 C 43.3498 1.41134 -0.770581 0
M  V30 468 O 44.5398 1.39854 -1.03858 0
M  V30 469 C 41.6718 2.66831 -2.12165 0
M  V30 470 H 42.8648 1.00305 -2.82629 0
M  V30 471 H 40.4178 0.487265 -1.48511 0
M  V30 472 H 41.1528 3.00711 -1.21422 0
M  V30 473 H 40.9378 2.59438 -2.93997 0
M  V30 474 H 42.4278 3.42103 -2.3949 0
M  V30 475 N 42.8649 1.48995 0.513639 0
M  V30 476 C 44.2759 1.5119 1.09537 0
M  V30 477 C 44.6269 0.290906 1.94031 0
M  V30 478 O 43.7519 -0.60049 2.07902 0
M  V30 479 C 44.3469 2.73964 1.99322 0
M  V30 480 C 42.9059 2.78978 2.52682 0
M  V30 481 C 42.0529 2.44934 1.30009 0
M  V30 482 H 45.0039 1.55875 0.298125 0
M  V30 483 H 45.0249 2.53409 2.83838 0
M  V30 484 H 44.5369 3.62813 1.37799 0
M  V30 485 H 42.6379 1.94378 3.1788 0
M  V30 486 H 42.7509 3.8083 2.90698 0
M  V30 487 H 41.1149 1.9644 1.62122 0
M  V30 488 H 41.8979 3.36043 0.702131 0
M  V30 489 N 44.343 -0.763751 1.37857 0
M  V30 490 C 45.273 -1.89103 1.36975 0
M  V30 491 C 46.254 -1.68439 0.237152 0
M  V30 492 O 47.439 -1.8918 0.438713 0
M  V30 493 C 44.569 -3.26496 1.18395 0
M  V30 494 C 43.523 -3.61741 2.28751 0
M  V30 495 C 42.849 -4.97762 1.95286 0
M  V30 496 C 44.149 -3.67665 3.70972 0
M  V30 497 H 45.843 -1.90099 2.31307 0
M  V30 498 H 43.389 -0.91319 1.11341 0
M  V30 499 H 45.342 -4.05003 1.16406 0
M  V30 500 H 44.066 -3.25955 0.205215 0
M  V30 501 H 42.725 -2.85547 2.29909 0
M  V30 502 H 42.373 -4.93769 0.959221 0
M  V30 503 H 42.073 -5.22313 2.69189 0
M  V30 504 H 43.597 -5.7866 1.94898 0
M  V30 505 H 45.011 -4.36307 3.719 0
M  V30 506 H 43.408 -4.03718 4.43995 0
M  V30 507 H 44.478 -2.68134 4.0402 0
M  V30 508 N 45.8211 -1.22559 -0.990812 0
M  V30 509 C 47.2371 -0.985996 -1.255 0
M  V30 510 C 47.4371 0.319173 -1.98956 0
M  V30 511 O 46.4931 1.04127 -2.3003 0
M  V30 512 C 47.8061 -2.18607 -2.06474 0
M  V30 513 C 49.3541 -2.22985 -2.19651 0
M  V30 514 C 49.8291 -3.4255 -3.04012 0
M  V30 515 N 51.3201 -3.42725 -3.11599 0
M  V30 516 C 52.0551 -4.31892 -3.7717 0
M  V30 517 N 51.5511 -5.31279 -4.44651 0
M  V30 518 N 53.3441 -4.19662 -3.73952 0
M  V30 519 H 45.4951 -2.06469 -0.49841 0
M  V30 520 H 47.7581 -0.904853 -0.282747 0
M  V30 521 H 47.4641 -3.13267 -1.59865 0
M  V30 522 H 47.3381 -2.18838 -3.07229 0
M  V30 523 H 49.7251 -1.28871 -2.65474 0
M  V30 524 H 49.8061 -2.26791 -1.18319 0
M  V30 525 H 49.4501 -4.36965 -2.58889 0
M  V30 526 H 49.3801 -3.35984 -4.0549 0
M  V30 527 H 51.8711 -2.70807 -2.63575 0
M  V30 528 H 52.1841 -5.95593 -4.92431 0
M  V30 529 H 50.5291 -5.3519 -4.43392 0
M  V30 530 H 53.7201 -3.41268 -3.20396 0
M  V30 531 H 53.8931 -4.89358 -4.24774 0
M  V30 532 N 47.2992 1.18797 -1.03562 0
M  V30 533 C 48.2322 2.2105 -0.56676 0
M  V30 534 C 49.2102 1.57704 0.395993 0
M  V30 535 O 50.3942 1.85908 0.311498 0
M  V30 536 C 47.5212 3.38259 0.172704 0
M  V30 537 C 46.5672 4.19987 -0.74252 0
M  V30 538 S 47.4002 4.87199 -2.22254 0
M  V30 539 C 48.5562 6.07813 -1.49379 0
M  V30 540 H 48.7892 2.60478 -1.43312 0
M  V30 541 H 46.3222 1.29151 -0.846133 0
M  V30 542 H 48.2802 4.06191 0.593191 0
M  V30 543 H 46.9412 2.97252 1.01488 0
M  V30 544 H 46.1342 5.03709 -0.171265 0
M  V30 545 H 45.7362 3.57408 -1.10163 0
M  V30 546 H 48.0282 6.72948 -0.784056 0
M  V30 547 H 48.9712 6.69435 -2.30786 0
M  V30 548 H 49.3792 5.55781 -0.988331 0
M  V30 549 N 48.7773 0.814389 1.34928 0
M  V30 550 C 49.7073 0.244827 2.32213 0
M  V30 551 C 50.6883 -0.634024 1.57842 0
M  V30 552 O 51.8733 -0.562676 1.8587 0
M  V30 553 C 49.0033 -0.601106 3.42058 0
M  V30 554 C 47.9573 0.179896 4.27622 0
M  V30 555 C 47.2833 -0.788237 5.28858 0
M  V30 556 C 48.5833 1.38329 5.03649 0
M  V30 557 H 50.2773 1.05763 2.80097 0
M  V30 558 H 47.8233 0.510029 1.34665 0
M  V30 559 H 49.7763 -1.00968 4.09125 0
M  V30 560 H 48.5003 -1.44688 2.92802 0
M  V30 561 H 47.1593 0.569739 3.62146 0
M  V30 562 H 46.8073 -1.62973 4.75866 0
M  V30 563 H 46.5073 -0.269942 5.8698 0
M  V30 564 H 48.0313 -1.19485 5.98795 0
M  V30 565 H 49.4453 1.04918 5.63618 0
M  V30 566 H 47.8423 1.83662 5.71304 0
M  V30 567 H 48.9123 2.16592 4.33839 0
M  V30 568 N 50.2554 -1.46986 0.568584 0
M  V30 569 C 51.1884 -2.27129 -0.220779 0
M  V30 570 C 52.1664 -1.34757 -0.909905 0
M  V30 571 O 53.3504 -1.64152 -0.926622 0
M  V30 572 C 50.4774 -3.12108 -1.31553 0
M  V30 573 C 49.5234 -4.20141 -0.733748 0
M  V30 574 S 50.3564 -5.33783 0.428479 0
M  V30 575 C 51.5124 -6.22327 -0.667811 0
M  V30 576 H 51.7454 -2.93731 0.459267 0
M  V30 577 H 49.2784 -1.5026 0.355154 0
M  V30 578 H 51.2364 -3.61636 -1.94241 0
M  V30 579 H 49.8974 -2.44847 -1.96746 0
M  V30 580 H 49.0904 -4.79373 -1.5562 0
M  V30 581 H 48.6924 -3.73553 -0.182812 0
M  V30 582 H 50.9844 -6.59364 -1.55708 0
M  V30 583 H 51.9274 -7.0801 -0.11258 0
M  V30 584 H 52.3354 -5.5618 -0.965601 0
M  V30 585 N 51.7335 -0.305618 -1.54608 0
M  V30 586 C 52.6815 0.584119 -2.25146 0
M  V30 587 C 53.6755 1.13326 -1.25911 0
M  V30 588 O 54.8815 1.08337 -1.43747 0
M  V30 589 H 51.2565 0.206983 -0.722954 0
M  V30 590 H 53.2275 -0.033291 -2.98381 0
M  V30 591 C 51.9765 1.74225 -3.009 0
M  V30 592 H 51.2995 1.32892 -3.77067 0
M  V30 593 H 52.7395 2.34077 -3.53531 0
M  V30 594 C 51.1985 2.64914 -2.0814 0
M  V30 595 O 51.7285 3.66137 -1.65246 0
M  V30 596 N 49.9345 2.3275 -1.74 0
M  V30 597 H 49.4815 1.50479 -2.09078 0
M  V30 598 H 49.4395 2.93694 -1.12211 0
M  V30 599 N 53.2116 1.57565 -0.0334293 0
M  V30 600 C 54.1596 2.1164 0.96496 0
M  V30 601 C 55.1536 1.04398 1.33407 0
M  V30 602 O 56.3596 1.22828 1.3158 0
M  V30 603 H 52.7346 0.676222 0.32898 0
M  V30 604 H 54.7056 2.94455 0.483614 0
M  V30 605 C 53.4546 2.66207 2.23672 0
M  V30 606 H 52.7776 3.48378 1.96145 0
M  V30 607 H 54.2176 3.07685 2.9173 0
M  V30 608 C 52.6766 1.59151 2.96939 0
M  V30 609 O 53.2066 0.993858 3.89211 0
M  V30 610 N 51.4126 1.31093 2.59351 0
M  V30 611 H 50.9596 1.7988 1.84393 0
M  V30 612 H 50.9176 0.596889 3.08682 0
M  V30 613 N 54.6897 -0.239769 1.55765 0
M  V30 614 C 55.6197 -1.30052 1.9393 0
M  V30 615 C 56.6007 -1.49839 0.805132 0
M  V30 616 O 57.7857 -1.62328 1.06599 0
M  V30 617 C 54.9157 -2.65391 2.2402 0
M  V30 618 C 53.8697 -2.60289 3.39755 0
M  V30 619 C 53.1957 -3.99489 3.55405 0
M  V30 620 C 54.4957 -2.16654 4.75246 0
M  V30 621 H 56.1897 -0.983573 2.82783 0
M  V30 622 H 53.7357 -0.471701 1.36055 0
M  V30 623 H 55.6887 -3.3974 2.49308 0
M  V30 624 H 54.4127 -2.98736 1.32 0
M  V30 625 H 53.0717 -1.88398 3.14487 0
M  V30 626 H 52.7197 -4.30112 2.60793 0
M  V30 627 H 52.4197 -3.96962 4.33238 0
M  V30 628 H 53.9437 -4.75528 3.83022 0
M  V30 629 H 55.3577 -2.80737 4.99859 0
M  V30 630 H 53.7547 -2.25223 5.56232 0
M  V30 631 H 54.8247 -1.11835 4.71827 0
M  V30 632 N 56.1678 -1.49265 -0.50573 0
M  V30 633 C 57.4448 -1.49012 -1.26707 0
M  V30 634 C 57.8248 -0.215205 -2.1 0
M  V30 635 O 57.1728 0.802547 -2.13943 0
M  V30 636 C 57.3828 -2.7663 -2.12783 0
M  V30 637 C 58.7308 -3.25932 -2.72127 0
M  V30 638 O 59.7548 -2.77715 -2.23054 0
M  V30 639 O 58.6138 -4.09897 -3.61451 0
M  V30 640 H 55.7078 -0.596197 -0.57313 0
M  V30 641 H 58.2538 -1.61524 -0.52039 0
M  V30 642 H 57.0258 -3.60916 -1.5118 0
M  V30 643 H 56.6488 -2.66956 -2.94653 0
M  V30 644 N 57.6459 0.756429 -1.3826 0
M  V30 645 C 59.0569 1.33359 -1.30661 0
M  V30 646 C 59.4079 1.96161 0.0388875 0
M  V30 647 O 58.5329 1.94874 0.940918 0
M  V30 648 C 59.1279 2.42477 -2.36622 0
M  V30 649 C 57.6869 2.95922 -2.3261 0
M  V30 650 C 56.8339 1.69275 -2.19639 0
M  V30 651 H 59.7849 0.55552 -1.4866 0
M  V30 652 H 59.8059 3.22345 -2.02174 0
M  V30 653 H 59.3179 1.96739 -3.34538 0
M  V30 654 H 57.4189 3.45996 -1.38267 0
M  V30 655 H 57.5319 3.50494 -3.26636 0
M  V30 656 H 55.8959 1.92793 -1.66442 0
M  V30 657 H 56.6789 1.25619 -3.19491 0
M  V30 658 N 59.124 1.23083 0.984299 0
M  V30 659 C 60.056 0.96636 2.07832 0
M  V30 660 C 61.069 -0.0582135 1.62696 0
M  V30 661 O 62.258 0.176843 1.77622 0
M  V30 662 C 59.358 0.433397 3.36117 0
M  V30 663 C 58.531 1.51722 4.10243 0
M  V30 664 C 57.59 0.989821 5.16807 0
M  V30 665 O 56.616 1.67794 5.43906 0
M  V30 666 N 57.818 -0.184367 5.80207 0
M  V30 667 H 60.583 1.90824 2.31098 0
M  V30 668 H 58.144 1.13888 1.1507 0
M  V30 669 H 60.136 0.065699 4.04647 0
M  V30 670 H 58.706 -0.413806 3.09849 0
M  V30 671 H 57.926 2.05786 3.36223 0
M  V30 672 H 59.214 2.24619 4.56534 0
M  V30 673 H 58.612 -0.760062 5.60571 0
M  V30 674 H 57.169 -0.493366 6.4993 0
M  V30 675 N 60.6021 -1.18246 1.0419 0
M  V30 676 C 61.8481 -1.88536 0.747122 0
M  V30 677 C 62.1811 -1.80223 -0.723409 0
M  V30 678 O 61.4561 -1.20337 -1.52804 0
M  V30 679 C 61.7391 -3.38968 1.21544 0
M  V30 680 C 61.5921 -3.56084 2.74816 0
M  V30 681 C 62.9111 -4.32648 0.806482 0
M  V30 682 H 60.0301 -0.684619 0.272883 0
M  V30 683 H 62.6721 -1.39113 1.29413 0
M  V30 684 H 60.8221 -3.8119 0.750081 0
M  V30 685 H 62.4941 -3.22946 3.29399 0
M  V30 686 H 60.7371 -2.98699 3.14582 0
M  V30 687 H 61.4081 -4.61639 3.02644 0
M  V30 688 H 63.8841 -3.98211 1.20695 0
M  V30 689 H 62.7601 -5.36462 1.1619 0
M  V30 690 H 63.0211 -4.41146 -0.29029 0
M  V30 691 N 62.0802 -0.821533 -1.34494 0
M  V30 692 C 63.0432 -0.247847 -2.27856 0
M  V30 693 C 64.0432 0.573453 -1.50227 0
M  V30 694 O 65.2332 0.389759 -1.69784 0
M  V30 695 C 62.3652 0.652698 -3.34593 0
M  V30 696 H 63.5582 -1.07146 -2.80107 0
M  V30 697 H 61.1112 -0.593291 -1.44602 0
M  V30 698 H 61.8462 1.49943 -2.87555 0
M  V30 699 H 61.6312 0.065292 -3.92046 0
M  V30 700 H 63.1212 1.04793 -4.04238 0
M  V30 701 N 63.5583 1.46682 -0.576371 0
M  V30 702 C 64.4683 2.34032 0.163141 0
M  V30 703 C 65.4843 1.49367 0.892501 0
M  V30 704 O 66.6603 1.82252 0.857106 0
M  V30 705 C 63.7253 3.26435 1.16795 0
M  V30 706 C 62.7863 4.26998 0.443944 0
M  V30 707 C 62.0193 5.14986 1.40088 0
M  V30 708 O 62.2423 5.05785 2.637 0
M  V30 709 O 61.1763 5.94906 0.914917 0
M  V30 710 H 65.0023 2.98607 -0.55388 0
M  V30 711 H 62.5873 1.45554 -0.336821 0
M  V30 712 H 64.4693 3.83459 1.74748 0
M  V30 713 H 63.1443 2.64465 1.86655 0
M  V30 714 H 62.0513 3.7368 -0.177271 0
M  V30 715 H 63.3843 4.91736 -0.213566 0
M  V30 716 N 65.0364 0.313813 1.54444 0
M  V30 717 C 65.9844 -0.572171 2.25453 0
M  V30 718 C 66.9784 -1.12657 1.2651 0
M  V30 719 O 68.1844 -1.07573 1.44319 0
M  V30 720 H 64.5594 -0.203146 0.724041 0
M  V30 721 H 66.5304 0.0491145 2.9836 0
M  V30 722 C 65.2794 -1.72626 3.0182 0
M  V30 723 H 64.6024 -1.30891 3.77767 0
M  V30 724 H 66.0424 -2.32199 3.54767 0
M  V30 725 C 64.5014 -2.63806 2.09542 0
M  V30 726 O 65.0314 -3.65256 1.67185 0
M  V30 727 N 63.2374 -2.31824 1.75232 0
M  V30 728 H 62.7844 -1.49368 2.09873 0
M  V30 729 H 62.7424 -2.93095 1.13767 0
M  V30 730 N 66.5145 -1.57545 0.0417849 0
M  V30 731 C 67.9255 -1.80011 -0.495259 0
M  V30 732 C 68.2765 -0.953199 -1.71489 0
M  V30 733 O 67.4015 -0.167138 -2.15754 0
M  V30 734 C 67.9965 -3.26482 -0.905265 0
M  V30 735 C 66.5555 -3.499 -1.38734 0
M  V30 736 C 65.7025 -2.74979 -0.358056 0
M  V30 737 H 68.6535 -1.56425 0.267736 0
M  V30 738 H 68.6745 -3.36887 -1.76882 0
M  V30 739 H 68.1865 -3.88096 -0.017401 0
M  V30 740 H 66.2875 -2.93553 -2.29471 0
M  V30 741 H 66.4005 -4.58615 -1.38598 0
M  V30 742 H 64.7645 -2.40834 -0.828912 0
M  V30 743 H 65.5475 -3.39315 0.521561 0
M  V30 744 N 67.9926 0.231505 -1.5589 0
M  V30 745 C 68.9396 1.28682 -1.91598 0
M  V30 746 C 69.9096 1.47071 -0.771974 0
M  V30 747 O 71.0946 1.60802 -1.027 0
M  V30 748 C 68.2346 2.6342 -2.22944 0
M  V30 749 C 67.3476 2.52912 -3.50228 0
M  V30 750 C 66.4826 3.80106 -3.7107 0
M  V30 751 C 65.5216 3.64279 -4.91902 0
M  V30 752 N 64.6586 4.834 -5.09184 0
M  V30 753 H 69.4986 0.975305 -2.81588 0
M  V30 754 H 67.0356 0.470299 -1.39379 0
M  V30 755 H 68.9936 3.41869 -2.39126 0
M  V30 756 H 67.6236 2.92687 -1.36139 0
M  V30 757 H 66.6756 1.6595 -3.42294 0
M  V30 758 H 67.9876 2.37133 -4.38827 0
M  V30 759 H 67.1416 4.66999 -3.87295 0
M  V30 760 H 65.8806 3.98799 -2.80733 0
M  V30 761 H 64.8856 2.7577 -4.75637 0
M  V30 762 H 66.1106 3.47067 -5.83714 0
M  V30 763 H 64.0566 5.02425 -4.21788 0
M  V30 764 H 63.9736 4.70311 -5.91898 0
M  V30 765 H 65.2416 5.71747 -5.29835 0
M  V30 766 N 69.4707 1.49531 0.497807 0
M  V30 767 C 70.3807 1.69176 1.62532 0
M  V30 768 C 71.3967 0.5744 1.64246 0
M  V30 769 O 72.5727 0.849497 1.82608 0
M  V30 770 C 69.6377 1.75695 2.98885 0
M  V30 771 C 68.6987 2.9929 3.07773 0
M  V30 772 C 67.9317 3.05488 4.37622 0
M  V30 773 O 68.1547 2.19192 5.26603 0
M  V30 774 O 67.0887 3.9798 4.51548 0
M  V30 775 H 70.9147 2.647 1.48887 0
M  V30 776 H 68.4997 1.3331 0.674441 0
M  V30 777 H 70.3817 1.82317 3.79919 0
M  V30 778 H 69.0567 0.8335 3.12785 0
M  V30 779 H 67.9637 2.98183 2.25915 0
M  V30 780 H 69.2967 3.91125 2.98801 0
M  V30 781 N 70.9488 -0.749086 1.3866 0
M  V30 782 C 71.8788 -1.8764 1.38973 0
M  V30 783 C 72.8598 -1.68178 0.255004 0
M  V30 784 O 74.0448 -1.88704 0.458754 0
M  V30 785 C 71.1748 -3.25222 1.21851 0
M  V30 786 C 70.1288 -3.59295 2.32575 0
M  V30 787 C 69.4548 -4.95663 2.00555 0
M  V30 788 C 70.7548 -3.63709 3.7485 0
M  V30 789 H 72.4488 -1.87635 2.3331 0
M  V30 790 H 69.9948 -0.901329 1.12303 0
M  V30 791 H 71.9478 -4.03746 1.20695 0
M  V30 792 H 70.6718 -3.25719 0.239775 0
M  V30 793 H 69.3308 -2.83093 2.32925 0
M  V30 794 H 68.9788 -4.92724 1.01154 0
M  V30 795 H 68.6788 -5.19429 2.74714 0
M  V30 796 H 70.2028 -5.7656 2.01024 0
M  V30 797 H 71.6168 -4.32338 3.76506 0
M  V30 798 H 70.0138 -3.98986 4.48252 0
M  V30 799 H 71.0838 -2.63834 4.06841 0
M  V30 800 N 72.4269 -1.23603 -0.977757 0
M  V30 801 C 73.6729 -1.07129 -1.72195 0
M  V30 802 C 74.0059 0.390501 -1.90233 0
M  V30 803 O 73.2809 1.28902 -1.45653 0
M  V30 804 C 73.5639 -1.80031 -3.11867 0
M  V30 805 C 73.4169 -3.33899 -3.01383 0
M  V30 806 C 74.7359 -1.56492 -4.11337 0
M  V30 807 H 71.8549 -0.390571 -0.624999 0
M  V30 808 H 74.4969 -1.52142 -1.13811 0
M  V30 809 H 72.6469 -1.41768 -3.6171 0
M  V30 810 H 74.3189 -3.81699 -2.59043 0
M  V30 811 H 72.5619 -3.62796 -2.37827 0
M  V30 812 H 73.2329 -3.801 -4.00285 0
M  V30 813 H 75.7089 -1.89757 -3.70313 0
M  V30 814 H 74.5849 -2.09973 -5.07151 0
M  V30 815 H 74.8459 -0.500874 -4.39254 0
M  V30 816 N 73.905 1.17692 -1.04816 0
M  V30 817 C 75.151 1.88137 -0.75711 0
M  V30 818 C 75.484 1.80604 0.713841 0
M  V30 819 O 74.759 1.21146 1.52164 0
M  V30 820 C 75.042 3.38318 -1.2334 0
M  V30 821 C 74.895 3.54622 -2.76701 0
M  V30 822 C 76.214 4.32214 -0.829415 0
M  V30 823 H 73.333 0.683163 -0.27651 0
M  V30 824 H 75.975 1.38424 -1.30149 0
M  V30 825 H 74.125 3.80787 -0.770286 0
M  V30 826 H 75.797 3.21194 -3.31107 0
M  V30 827 H 74.04 2.97026 -3.16161 0
M  V30 828 H 74.711 4.60028 -3.05088 0
M  V30 829 H 77.187 3.97565 -1.22805 0
M  V30 830 H 76.063 5.35838 -1.19033 0
M  V30 831 H 76.324 4.41294 0.266891 0
M  V30 832 N 75.3831 0.828654 1.34056 0
M  V30 833 C 76.6131 0.431993 2.02033 0
M  V30 834 C 77.0211 -0.96844 1.62536 0
M  V30 835 O 76.3641 -1.6391 0.829408 0
M  V30 836 C 76.4261 0.461224 3.56529 0
M  V30 837 C 76.0901 1.81599 4.1937 0
M  V30 838 C 77.0871 2.7777 4.39477 0
M  V30 839 C 74.7721 2.10604 4.56017 0
M  V30 840 C 76.7661 4.01115 4.95364 0
M  V30 841 C 74.4531 3.34207 5.11614 0
M  V30 842 C 75.4511 4.2928 5.31232 0
M  V30 843 O 75.1391 5.50699 5.8565 0
M  V30 844 H 74.8711 0.170943 0.654029 0
M  V30 845 H 77.4251 1.11988 1.72185 0
M  V30 846 H 75.6551 -0.283388 3.8566 0
M  V30 847 H 77.3441 0.0838149 4.05813 0
M  V30 848 H 78.1101 2.56659 4.11523 0
M  V30 849 H 73.9891 1.37402 4.40047 0
M  V30 850 H 77.5331 4.75333 5.10592 0
M  V30 851 H 73.4301 3.55179 5.38997 0
M  V30 852 H 74.1981 5.52298 6.04077 0
M  V30 853 N 76.8612 -1.46375 0.584142 0
M  V30 854 C 78.1092 -2.01978 0.0701287 0
M  V30 855 C 78.4302 -1.4579 -1.295 0
M  V30 856 O 77.7002 -0.64314 -1.85042 0
M  V30 857 H 76.2802 -0.746648 0.0229345 0
M  V30 858 H 78.9422 -1.79461 0.760245 0
M  V30 859 H 78.0382 -3.121 0.0022064 0
M  V30 860 N 78.3393 -0.321999 -1.54275 0
M  V30 861 C 79.5873 0.280489 -2.00144 0
M  V30 862 C 79.9083 1.52777 -1.21178 0
M  V30 863 O 79.1783 1.9338 -0.313187 0
M  V30 864 H 77.7583 0.106632 -0.73935 0
M  V30 865 H 80.4203 -0.438184 -1.8991 0
M  V30 866 H 79.5163 0.537972 -3.07428 0
M  V30 867 N 79.8174 1.5752 -0.0501392 0
M  V30 868 C 81.0664 1.91827 0.623328 0
M  V30 869 C 81.3794 0.930222 1.72065 0
M  V30 870 O 82.5854 1.1653 2.4522 0
M  V30 871 C 81.0414 3.40692 1.16003 0
M  V30 872 C 80.6494 4.479 0.0948811 0
M  V30 873 C 82.3934 3.84034 1.80881 0
M  V30 874 C 80.3004 5.87879 0.644411 0
M  V30 875 H 79.2304 0.715918 0.236596 0
M  V30 876 H 81.8814 1.83115 -0.118861 0
M  V30 877 H 80.2634 3.44405 1.9545 0
M  V30 878 H 81.4374 4.55775 -0.678675 0
M  V30 879 H 79.7524 4.13892 -0.45637 0
M  V30 880 H 82.3494 4.85984 2.22988 0
M  V30 881 H 82.6924 3.20225 2.6601 0
M  V30 882 H 83.2254 3.82833 1.0809 0
M  V30 883 H 79.9644 6.55282 -0.169229 0
M  V30 884 H 79.4844 5.83567 1.38598 0
M  V30 885 H 81.1634 6.37098 1.12763 0
M  V30 886 N 81.2955 -0.223234 1.56011 0
M  V30 887 C 82.5435 -0.946003 1.78592 0
M  V30 888 C 82.8645 -1.84936 0.618349 0
M  V30 889 O 82.1345 -1.92473 -0.364833 0
M  V30 890 H 80.7145 -0.352298 0.658707 0
M  V30 891 H 83.3765 -0.235494 1.93472 0
M  V30 892 H 82.4725 -1.55381 2.70672 0
M  V30 893 N 82.7736 -1.49793 -0.48987 0
M  V30 894 C 84.1896 -1.36803 -0.822022 0
M  V30 895 C 84.3896 -0.409652 -1.97292 0
M  V30 896 O 83.4456 0.154614 -2.52026 0
M  V30 897 C 84.7586 -2.77768 -1.15175 0
M  V30 898 C 86.3066 -2.86549 -1.25931 0
M  V30 899 C 86.7816 -4.28306 -1.62228 0
M  V30 900 N 88.2726 -4.31169 -1.69256 0
M  V30 901 C 89.0076 -5.37832 -1.98807 0
M  V30 902 N 88.5036 -6.54726 -2.26507 0
M  V30 903 N 90.2966 -5.25258 -2.00152 0
M  V30 904 H 82.4476 -2.10691 0.268881 0
M  V30 905 H 84.7106 -0.946241 0.057728 0
M  V30 906 H 84.4166 -3.49648 -0.379335 0
M  V30 907 H 84.2906 -3.13836 -2.09253 0
M  V30 908 H 86.6776 -2.14899 -2.02243 0
M  V30 909 H 86.7586 -2.54049 -0.298776 0
M  V30 910 H 86.4026 -5.00486 -0.864622 0
M  V30 911 H 86.3326 -4.58279 -2.594 0
M  V30 912 H 88.8236 -3.4687 -1.49965 0
M  V30 913 H 89.1366 -7.31833 -2.48276 0
M  V30 914 H 87.4816 -6.57933 -2.23939 0
M  V30 915 H 90.6726 -4.32938 -1.77996 0
M  V30 916 H 90.8456 -6.08476 -2.22848 0
M  V30 917 N 84.2517 0.741722 -1.39055 0
M  V30 918 C 85.2147 1.83733 -1.37021 0
M  V30 919 C 86.2147 1.58542 -0.268534 0
M  V30 920 O 87.4047 1.66067 -0.526076 0
M  V30 921 C 84.5367 3.2141 -1.13617 0
M  V30 922 H 85.7297 1.86941 -2.34506 0
M  V30 923 H 83.2827 0.944676 -1.24521 0
M  V30 924 H 84.0177 3.23865 -0.167863 0
M  V30 925 H 83.8027 3.4109 -1.93391 0
M  V30 926 H 85.2927 4.01477 -1.14918 0
M  V30 927 N 85.7298 1.2412 0.971189 0
M  V30 928 C 86.6928 1.03156 2.04674 0
M  V30 929 C 87.6928 -0.00990322 1.60797 0
M  V30 930 O 88.8828 0.230729 1.72665 0
M  V30 931 C 86.0148 0.562765 3.36223 0
M  V30 932 H 87.2078 1.98614 2.24705 0
M  V30 933 H 84.7608 1.06293 1.14593 0
M  V30 934 H 85.4958 -0.395176 3.21883 0
M  V30 935 H 85.2808 1.31441 3.69413 0
M  V30 936 H 86.7708 0.437015 4.15307 0
M  V30 937 N 87.2079 -1.17134 1.05439 0
M  V30 938 C 88.6239 -1.39454 0.776201 0
M  V30 939 C 88.8239 -1.91454 -0.628307 0
M  V30 940 O 87.8799 -2.10777 -1.39031 0
M  V30 941 C 89.1929 -2.38305 1.83388 0
M  V30 942 C 90.7409 -2.52006 1.85639 0
M  V30 943 C 91.2159 -3.54133 2.90437 0
M  V30 944 N 92.7069 -3.61653 2.89415 0
M  V30 945 C 93.4419 -4.4044 3.67152 0
M  V30 946 N 92.9379 -5.22721 4.54681 0
M  V30 947 N 94.7309 -4.35337 3.55581 0
M  V30 948 H 86.8819 -0.817134 1.96053 0
M  V30 949 H 89.1449 -0.421626 0.849079 0
M  V30 950 H 88.8509 -2.07173 2.84204 0
M  V30 951 H 88.7249 -3.37841 1.67761 0
M  V30 952 H 91.1119 -2.82447 0.85486 0
M  V30 953 H 91.1929 -1.52537 2.05344 0
M  V30 954 H 90.8369 -3.24431 3.90777 0
M  V30 955 H 90.7669 -4.53313 2.67983 0
M  V30 956 H 93.2579 -3.02909 2.25952 0
M  V30 957 H 93.5709 -5.80027 5.10674 0
M  V30 958 H 91.9159 -5.22093 4.58741 0
M  V30 959 H 95.1069 -3.70112 2.86592 0
M  V30 960 H 95.2799 -4.96494 4.1641 0
M  V30 961 N 88.686 -0.835752 -1.33615 0
M  V30 962 C 89.634 -0.255238 -2.31195 0
M  V30 963 C 90.628 0.61107 -1.57995 0
M  V30 964 O 91.834 0.500979 -1.72888 0
M  V30 965 H 88.209 -0.0638085 -0.749288 0
M  V30 966 H 90.18 -1.09283 -2.77669 0
M  V30 967 C 88.929 0.55754 -3.43201 0
M  V30 968 H 88.252 -0.0997553 -3.99676 0
M  V30 969 H 89.692 0.929622 -4.13683 0
M  V30 970 C 88.151 1.73515 -2.88781 0
M  V30 971 O 88.681 2.83376 -2.84712 0
M  V30 972 N 86.887 1.55603 -2.4543 0
M  V30 973 H 86.434 0.662354 -2.48939 0
M  V30 974 H 86.392 2.34545 -2.09371 0
M  V30 975 N 90.1641 1.46063 -0.591896 0
M  V30 976 C 91.4101 2.03203 -0.0894879 0
M  V30 977 C 91.7651 1.45407 1.25994 0
M  V30 978 O 91.0581 0.61326 1.8152 0
M  V30 979 C 91.2521 3.57391 0.0249813 0
M  V30 980 C 91.0811 4.30142 -1.3118 0
M  V30 981 C 89.8511 4.68688 -1.88838 0
M  V30 982 C 92.0491 4.63098 -2.23708 0
M  V30 983 N 90.0311 5.26228 -3.1616 0
M  V30 984 C 91.4021 5.21305 -3.3562 0
M  V30 985 C 93.4571 4.45031 -2.23274 0
M  V30 986 C 92.1601 5.63351 -4.47245 0
M  V30 987 C 94.1861 4.881 -3.33935 0
M  V30 988 C 93.5481 5.46386 -4.44569 0
M  V30 989 H 89.6471 0.778323 -0.0757431 0
M  V30 990 H 92.2311 1.78094 -0.78681 0
M  V30 991 H 90.4021 3.82195 0.69149 0
M  V30 992 H 92.1341 4.0118 0.532613 0
M  V30 993 H 88.8891 4.5174 -1.42223 0
M  V30 994 H 89.3131 5.59512 -3.8115 0
M  V30 995 H 93.9551 3.99295 -1.39008 0
M  V30 996 H 91.6731 6.08061 -5.32247 0
M  V30 997 H 95.2591 4.75866 -3.34728 0
M  V30 998 H 94.1391 5.79102 -5.28782 0
M  V30 999 N 91.6422 0.330177 1.54103 0
M  V30 1000 C 92.6052 -0.520144 2.2322 0
M  V30 1001 C 93.6052 -1.03828 1.22786 0
M  V30 1002 O 94.7952 -0.929652 1.4732 0
M  V30 1003 C 91.9272 -1.72317 2.94142 0
M  V30 1004 H 93.1202 0.0841605 2.99782 0
M  V30 1005 H 90.6732 0.0813433 1.56088 0
M  V30 1006 H 91.4082 -2.36653 2.21734 0
M  V30 1007 H 91.1932 -1.35898 3.67796 0
M  V30 1008 H 92.6832 -2.3266 3.46784 0
M  V30 1009 N 93.1203 -1.57491 0.0584922 0
M  V30 1010 C 94.3603 -1.94851 -0.617458 0
M  V30 1011 C 94.7243 -0.937165 -1.67575 0
M  V30 1012 O 95.9253 -1.19795 -2.40629 0
M  V30 1013 C 94.1963 -3.36955 -1.19147 0
M  V30 1014 S 95.7553 -3.96277 -1.8844 0
M  V30 1015 H 92.5733 -0.681539 -0.202547 0
M  V30 1016 H 95.1753 -1.95073 0.129176 0
M  V30 1017 H 93.8793 -4.08355 -0.409215 0
M  V30 1018 H 93.4103 -3.40245 -1.97476 0
M  V30 1019 H 95.4253 -3.82099 -3.16568 0
M  V30 1020 N 94.5984 0.214957 -1.56127 0
M  V30 1021 C 95.8284 0.953707 -1.8327 0
M  V30 1022 C 96.2364 1.78181 -0.636262 0
M  V30 1023 O 95.5794 1.79191 0.404516 0
M  V30 1024 C 95.6414 1.91516 -3.0424 0
M  V30 1025 C 95.3054 1.27094 -4.38972 0
M  V30 1026 C 96.3024 0.657575 -5.15725 0
M  V30 1027 C 93.9874 1.28073 -4.85698 0
M  V30 1028 C 95.9814 0.0625968 -6.37369 0
M  V30 1029 C 93.6684 0.681914 -6.07283 0
M  V30 1030 C 94.6664 0.0739046 -6.8296 0
M  V30 1031 O 94.3544 -0.515582 -8.02245 0
M  V30 1032 H 94.0864 0.284764 -0.613095 0
M  V30 1033 H 96.6404 0.233283 -2.04071 0
M  V30 1034 H 94.8704 2.67475 -2.79274 0
M  V30 1035 H 96.5594 2.52001 -3.18198 0
M  V30 1036 H 97.3254 0.642288 -4.80728 0
M  V30 1037 H 93.2044 1.74337 -4.26764 0
M  V30 1038 H 96.7484 -0.412593 -6.96379 0
M  V30 1039 H 92.6454 0.694636 -6.41752 0
M  V30 1040 H 93.4134 -0.410544 -8.1747 0
M  V30 1041 N 96.0765 1.50051 0.48192 0
M  V30 1042 C 97.3535 1.51009 1.2432 0
M  V30 1043 C 97.7335 0.248587 2.09631 0
M  V30 1044 O 97.0815 -0.768409 2.15192 0
M  V30 1045 C 97.2915 2.79981 2.08355 0
M  V30 1046 C 98.6395 3.3022 2.66908 0
M  V30 1047 O 99.6635 2.81228 2.18607 0
M  V30 1048 O 98.5225 4.15595 3.54884 0
M  V30 1049 H 95.6165 0.605239 0.563573 0
M  V30 1050 H 98.1625 1.62332 0.494627 0
M  V30 1051 H 96.9345 3.63275 1.45419 0
M  V30 1052 H 96.5575 2.7161 2.90368 0
M  V30 1053 N 97.5546 -0.734337 1.39446 0
M  V30 1054 C 98.5016 -1.84835 1.38219 0
M  V30 1055 C 99.4716 -1.64331 0.24179 0
M  V30 1056 O 100.657 -1.85728 0.437002 0
M  V30 1057 C 97.7966 -3.22355 1.23212 0
M  V30 1058 C 96.9096 -3.5456 2.46801 0
M  V30 1059 C 96.0446 -4.81485 2.24377 0
M  V30 1060 C 95.0836 -5.06536 3.43639 0
M  V30 1061 N 94.2206 -6.24665 3.20528 0
M  V30 1062 H 99.0606 -1.85219 2.33448 0
M  V30 1063 H 96.5976 -0.905039 1.15963 0
M  V30 1064 H 98.5556 -4.0174 1.12522 0
M  V30 1065 H 97.1856 -3.21248 0.316121 0
M  V30 1066 H 96.2376 -2.69872 2.68092 0
M  V30 1067 H 97.5496 -3.6899 3.3563 0
M  V30 1068 H 96.7036 -5.68852 2.10933 0
M  V30 1069 H 95.4426 -4.6923 1.32944 0
M  V30 1070 H 94.4476 -4.17632 3.5758 0
M  V30 1071 H 95.6726 -5.20676 4.35974 0
M  V30 1072 H 93.6186 -6.13696 2.3176 0
M  V30 1073 H 93.5356 -6.39685 4.02913 0
M  V30 1074 H 94.8036 -7.14868 3.10779 0
M  V30 1075 N 99.0327 -1.24633 -0.964593 0
M  V30 1076 C 100.282 -1.08188 -1.7023 0
M  V30 1077 C 100.595 0.37873 -1.91898 0
M  V30 1078 O 101.801 0.663427 -2.6327 0
M  V30 1079 C 100.257 -1.88773 -3.06419 0
M  V30 1080 C 99.8647 -3.39263 -2.92582 0
M  V30 1081 C 101.609 -1.80867 -3.84041 0
M  V30 1082 C 99.5157 -4.1218 -4.24101 0
M  V30 1083 H 98.4457 -0.401245 -0.638372 0
M  V30 1084 H 101.097 -1.48742 -1.07462 0
M  V30 1085 H 99.4787 -1.41035 -3.70034 0
M  V30 1086 H 100.653 -3.94603 -2.37961 0
M  V30 1087 H 98.9677 -3.48154 -2.28424 0
M  V30 1088 H 101.565 -2.32646 -4.81435 0
M  V30 1089 H 101.908 -0.774543 -4.09031 0
M  V30 1090 H 102.441 -2.26301 -3.27159 0
M  V30 1091 H 99.1797 -5.15965 -4.04303 0
M  V30 1092 H 98.6997 -3.61626 -4.78526 0
M  V30 1093 H 100.379 -4.19349 -4.92702 0
M  V30 1094 N 100.511 1.16574 -1.06058 0
M  V30 1095 C 101.757 1.87324 -0.777022 0
M  V30 1096 C 102.09 1.81351 0.694645 0
M  V30 1097 O 101.365 1.22753 1.50871 0
M  V30 1098 C 101.648 3.36991 -1.26922 0
M  V30 1099 C 101.501 3.51667 -2.80447 0
M  V30 1100 C 102.82 4.3131 -0.87521 0
M  V30 1101 H 99.9388 0.680191 -0.28374 0
M  V30 1102 H 102.581 1.37036 -1.3161 0
M  V30 1103 H 100.731 3.79949 -0.81063 0
M  V30 1104 H 102.403 3.17664 -3.34495 0
M  V30 1105 H 100.646 2.93656 -3.19294 0
M  V30 1106 H 101.317 4.56766 -3.0995 0
M  V30 1107 H 103.793 3.9624 -1.27014 0
M  V30 1108 H 102.669 5.34545 -1.2471 0
M  V30 1109 H 102.93 4.41552 0.220071 0
M  V30 1110 N 101.989 0.842826 1.3317 0
M  V30 1111 C 102.899 0.281444 2.32906 0
M  V30 1112 C 103.915 -0.594587 1.63526 0
M  V30 1113 O 105.091 -0.49777 1.95152 0
M  V30 1114 C 102.156 -0.530929 3.42611 0
M  V30 1115 C 101.217 0.369843 4.27704 0
M  V30 1116 C 100.45 -0.403853 5.3217 0
M  V30 1117 O 100.673 -1.63513 5.46461 0
M  V30 1118 O 99.6069 0.224199 6.01482 0
M  V30 1119 H 103.433 1.10744 2.82789 0
M  V30 1120 H 101.018 0.60545 1.36582 0
M  V30 1121 H 102.9 -0.992437 4.09547 0
M  V30 1122 H 101.575 -1.33392 2.94938 0
M  V30 1123 H 100.482 0.879275 3.6362 0
M  V30 1124 H 101.815 1.13771 4.78871 0
M  V30 1125 N 103.467 -1.45747 0.599634 0
M  V30 1126 C 104.695 -2.06668 0.0978551 0
M  V30 1127 C 105.11 -1.44562 -1.21439 0
M  V30 1128 O 104.467 -0.556923 -1.73795 0
M  V30 1129 C 104.518 -3.61456 -0.0567044 0
M  V30 1130 O 104.239 -4.21242 1.20361 0
M  V30 1131 C 105.74 -4.39345 -0.590869 0
M  V30 1132 H 102.96 -0.667825 0.0651943 0
M  V30 1133 H 105.504 -1.87115 0.82511 0
M  V30 1134 H 103.659 -3.80378 -0.734251 0
M  V30 1135 H 104.073 -5.14323 1.02821 0
M  V30 1136 H 105.547 -5.48182 -0.648131 0
M  V30 1137 H 106.024 -4.08568 -1.61147 0
M  V30 1138 H 106.63 -4.25268 0.0523679 0
M  V30 1139 N 104.945 -0.338344 -1.53925 0
M  V30 1140 C 105.875 0.51328 -2.27789 0
M  V30 1141 C 106.856 1.107 -1.29149 0
M  V30 1142 O 108.041 1.12937 -1.57984 0
M  V30 1143 C 105.171 1.66697 -3.04679 0
M  V30 1144 C 104.125 1.20183 -4.1078 0
M  V30 1145 C 103.451 2.44363 -4.75595 0
M  V30 1146 C 104.751 0.30605 -5.21403 0
M  V30 1147 H 106.445 -0.102883 -2.99223 0
M  V30 1148 H 103.991 -0.0509219 -1.4391 0
M  V30 1149 H 105.944 2.26915 -3.55088 0
M  V30 1150 H 104.668 2.30995 -2.30887 0
M  V30 1151 H 103.327 0.622499 -3.61276 0
M  V30 1152 H 102.975 3.07057 -3.98403 0
M  V30 1153 H 102.675 2.13925 -5.47275 0
M  V30 1154 H 104.199 3.05317 -5.28786 0
M  V30 1155 H 105.613 0.814929 -5.67478 0
M  V30 1156 H 104.01 0.0937929 -6.00027 0
M  V30 1157 H 105.08 -0.65921 -4.80398 0
M  V30 1158 N 106.423 1.57458 -0.0668435 0
M  V30 1159 C 107.651 1.97624 0.612565 0
M  V30 1160 C 108.066 0.94502 1.63447 0
M  V30 1161 O 107.423 -0.0689276 1.8237 0
M  V30 1162 C 107.474 3.37869 1.28555 0
M  V30 1163 O 107.195 4.3704 0.304557 0
M  V30 1164 C 108.696 3.92882 2.05325 0
M  V30 1165 H 105.916 0.650045 0.166381 0
M  V30 1166 H 108.46 2.04035 -0.137782 0
M  V30 1167 H 106.615 3.3256 1.98702 0
M  V30 1168 H 107.029 5.18565 0.786779 0
M  V30 1169 H 108.503 4.93247 2.47812 0
M  V30 1170 H 108.98 3.29156 2.9078 0
M  V30 1171 H 109.586 4.01577 1.40056 0
M  V30 1172 N 107.901 -0.206675 1.56239 0
M  V30 1173 C 109.317 -0.557025 1.49564 0
M  V30 1174 C 109.517 -1.86424 0.764735 0
M  V30 1175 O 108.573 -2.50584 0.310491 0
M  V30 1176 C 109.886 -0.622478 2.94186 0
M  V30 1177 C 111.434 -0.712099 3.04792 0
M  V30 1178 C 111.909 -0.808767 4.50803 0
M  V30 1179 N 113.4 -0.8726 4.54907 0
M  V30 1180 C 114.135 -0.967365 5.65181 0
M  V30 1181 N 113.631 -1.02515 6.85173 0
M  V30 1182 N 115.424 -1.00366 5.53067 0
M  V30 1183 H 107.575 0.650943 2.02179 0
M  V30 1184 H 109.838 0.230387 0.919579 0
M  V30 1185 H 109.544 0.268727 3.50672 0
M  V30 1186 H 109.418 -1.4811 3.46905 0
M  V30 1187 H 111.805 -1.59374 2.48363 0
M  V30 1188 H 111.886 0.172489 2.55218 0
M  V30 1189 H 111.53 0.0684754 5.07854 0
M  V30 1190 H 111.46 -1.70899 4.98098 0
M  V30 1191 H 113.951 -0.837657 3.68499 0
M  V30 1192 H 114.264 -1.09765 7.64965 0
M  V30 1193 H 112.609 -0.994026 6.87855 0
M  V30 1194 H 115.8 -0.95527 4.58249 0
M  V30 1195 H 115.973 -1.07405 6.39037 0
M  V30 1196 N 109.379 -1.50304 -0.473955 0
M  V30 1197 C 110.309 -1.71886 -1.58042 0
M  V30 1198 C 111.29 -0.567799 -1.60344 0
M  V30 1199 O 112.475 -0.806623 -1.76656 0
M  V30 1200 C 109.605 -1.81036 -2.96384 0
M  V30 1201 C 108.559 -2.962 -3.08949 0
M  V30 1202 C 107.885 -2.9049 -4.48909 0
M  V30 1203 C 109.185 -4.36752 -2.86434 0
M  V30 1204 H 110.879 -2.64527 -1.40234 0
M  V30 1205 H 108.425 -1.27295 -0.673201 0
M  V30 1206 H 110.378 -1.94719 -3.73714 0
M  V30 1207 H 109.102 -0.850147 -3.15341 0
M  V30 1208 H 107.761 -2.82164 -2.3405 0
M  V30 1209 H 107.409 -1.92321 -4.64781 0
M  V30 1210 H 107.109 -3.67802 -4.58253 0
M  V30 1211 H 108.633 -3.06218 -5.28264 0
M  V30 1212 H 110.047 -4.5133 -3.53517 0
M  V30 1213 H 108.444 -5.15493 -3.07225 0
M  V30 1214 H 109.514 -4.49321 -1.82316 0
M  V30 1215 N 110.857 0.726932 -1.39834 0
M  V30 1216 C 111.767 1.87131 -1.41489 0
M  V30 1217 C 112.783 1.71239 -0.308757 0
M  V30 1218 O 113.959 1.93701 -0.551529 0
M  V30 1219 C 111.024 3.22811 -1.26468 0
M  V30 1220 C 110.085 3.51039 -2.47124 0
M  V30 1221 C 109.318 4.80245 -2.3281 0
M  V30 1222 O 109.541 5.54537 -1.33585 0
M  V30 1223 O 108.475 5.08554 -3.21957 0
M  V30 1224 H 112.301 1.8869 -2.3797 0
M  V30 1225 H 109.886 0.875837 -1.21035 0
M  V30 1226 H 111.768 4.03877 -1.20255 0
M  V30 1227 H 110.443 3.22005 -0.330862 0
M  V30 1228 H 109.35 2.70027 -2.58914 0
M  V30 1229 H 110.683 3.56632 -3.39227 0
M  V30 1230 N 112.336 1.25143 0.95797 0
M  V30 1231 C 113.613 1.00472 1.67823 0
M  V30 1232 C 113.993 -0.470056 2.058 0
M  V30 1233 O 113.341 -1.44663 1.76875 0
M  V30 1234 C 113.551 1.9372 2.90299 0
M  V30 1235 C 114.899 2.21371 3.62326 0
M  V30 1236 O 115.923 1.91451 3.00375 0
M  V30 1237 O 114.782 2.72231 4.7387 0
M  V30 1238 H 111.876 0.380752 0.734137 0
M  V30 1239 H 114.422 1.36283 1.01119 0
M  V30 1240 H 113.194 2.93316 2.59001 0
M  V30 1241 H 112.817 1.58286 3.64735 0
M  V30 1242 N 113.814 -1.1601 1.06675 0
M  V30 1243 C 115.091 -1.82679 0.699114 0
M  V30 1244 C 115.471 -1.94559 -0.819137 0
M  V30 1245 O 114.819 -1.49169 -1.73092 0
M  V30 1246 C 115.029 -3.19445 1.40555 0
M  V30 1247 C 116.377 -3.95171 1.55323 0
M  V30 1248 O 117.401 -3.28976 1.36577 0
M  V30 1249 O 116.26 -5.13833 1.86112 0
M  V30 1250 H 113.354 -0.788954 0.247951 0
M  V30 1251 H 115.9 -1.23179 1.16726 0
M  V30 1252 H 114.672 -3.05856 2.44065 0
M  V30 1253 H 114.295 -3.86625 0.927733 0
M  V30 1254 N 115.292 -0.849877 -1.32721 0
M  V30 1255 C 116.202 -0.293791 -2.32753 0
M  V30 1256 C 117.218 0.585906 -1.63839 0
M  V30 1257 O 118.394 0.487413 -1.95413 0
M  V30 1258 C 115.459 0.512752 -3.42887 0
M  V30 1259 C 114.52 -0.39252 -4.27502 0
M  V30 1260 C 113.753 0.375625 -5.32377 0
M  V30 1261 O 113.976 1.60613 -5.4732 0
M  V30 1262 O 112.91 -0.256094 -6.01355 0
M  V30 1263 H 116.736 -1.12242 -2.82197 0
M  V30 1264 H 114.321 -0.612685 -1.36259 0
M  V30 1265 H 116.203 0.970704 -4.10067 0
M  V30 1266 H 114.878 1.31826 -2.95641 0
M  V30 1267 H 113.785 -0.898547 -3.63149 0
M  V30 1268 H 115.118 -1.16309 -4.7826 0
M  V30 1269 N 116.77 1.45427 -0.607355 0
M  V30 1270 C 117.998 2.06614 -0.108814 0
M  V30 1271 C 118.413 1.45204 1.2067 0
M  V30 1272 O 117.77 0.566132 1.73497 0
M  V30 1273 C 117.821 3.61481 0.0375347 0
M  V30 1274 O 117.542 4.20598 -1.22593 0
M  V30 1275 C 119.043 4.39652 0.567561 0
M  V30 1276 H 116.263 0.66747 -0.0687351 0
M  V30 1277 H 118.807 1.86675 -0.835022 0
M  V30 1278 H 116.962 3.80762 0.714068 0
M  V30 1279 H 117.376 5.1377 -1.05547 0
M  V30 1280 H 118.85 5.48518 0.61905 0
M  V30 1281 H 119.327 4.09417 1.58978 0
M  V30 1282 H 119.933 4.25234 -0.0749202 0
M  V30 1283 N 118.248 0.346503 1.53744 0
M  V30 1284 C 119.178 -0.501193 2.28058 0
M  V30 1285 C 120.159 -1.10014 1.29734 0
M  V30 1286 O 121.344 -1.12097 1.58581 0
M  V30 1287 C 118.474 -1.65078 3.05559 0
M  V30 1288 C 117.428 -1.18003 4.11411 0
M  V30 1289 C 116.754 -2.41837 4.76884 0
M  V30 1290 C 118.054 -0.278394 5.21558 0
M  V30 1291 H 119.748 0.11875 2.99164 0
M  V30 1292 H 117.294 0.0585531 1.43881 0
M  V30 1293 H 119.247 -2.25028 3.56287 0
M  V30 1294 H 117.971 -2.29767 2.32109 0
M  V30 1295 H 116.63 -0.603331 3.61601 0
M  V30 1296 H 116.278 -3.0494 4.00026 0
M  V30 1297 H 115.978 -2.1102 5.48402 0
M  V30 1298 H 117.502 -3.02508 5.30397 0
M  V30 1299 H 118.916 -0.784823 5.67903 0
M  V30 1300 H 117.313 -0.0619707 6.00068 0
M  V30 1301 H 118.383 0.684677 4.80042 0
M  V30 1302 N 119.726 -1.57421 0.075193 0
M  V30 1303 C 120.656 -2.15942 -0.888324 0
M  V30 1304 C 121.637 -1.08737 -1.30806 0
M  V30 1305 O 122.822 -1.36787 -1.37851 0
M  V30 1306 C 119.952 -2.72379 -2.1547 0
M  V30 1307 C 118.906 -3.8478 -1.87425 0
M  V30 1308 C 118.232 -4.27834 -3.20721 0
M  V30 1309 C 119.532 -5.08869 -1.17684 0
M  V30 1310 H 121.226 -2.96705 -0.400799 0
M  V30 1311 H 118.772 -1.42723 -0.191342 0
M  V30 1312 H 120.725 -3.11965 -2.83295 0
M  V30 1313 H 119.449 -1.88841 -2.6647 0
M  V30 1314 H 118.108 -3.45703 -1.22004 0
M  V30 1315 H 117.756 -3.41214 -3.6957 0
M  V30 1316 H 117.456 -5.03605 -3.02746 0
M  V30 1317 H 118.98 -4.70039 -3.89738 0
M  V30 1318 H 120.394 -5.4575 -1.75584 0
M  V30 1319 H 118.791 -5.8994 -1.09956 0
M  V30 1320 H 119.861 -4.84648 -0.156453 0
M  V30 1321 N 121.204 0.198386 -1.56346 0
M  V30 1322 C 122.45 0.920648 -1.80698 0
M  V30 1323 C 122.783 1.83045 -0.648697 0
M  V30 1324 O 122.058 1.91308 0.350925 0
M  V30 1325 C 122.341 1.73971 -3.15287 0
M  V30 1326 C 122.194 0.85485 -4.41602 0
M  V30 1327 C 123.513 2.71296 -3.46535 0
M  V30 1328 H 120.632 0.333261 -0.657348 0
M  V30 1329 H 123.274 0.188198 -1.89066 0
M  V30 1330 H 121.424 2.36416 -3.08285 0
M  V30 1331 H 123.096 0.245362 -4.60647 0
M  V30 1332 H 121.339 0.161398 -4.335 0
M  V30 1333 H 122.01 1.46286 -5.32264 0
M  V30 1334 H 124.486 2.18983 -3.53816 0
M  V30 1335 H 123.362 3.2569 -4.41834 0
M  V30 1336 H 123.623 3.5018 -2.69864 0
M  V30 1337 N 122.682 1.50554 0.465978 0
M  V30 1338 C 123.614 1.65949 1.58093 0
M  V30 1339 C 124.627 0.540827 1.53554 0
M  V30 1340 O 125.816 0.814187 1.5885 0
M  V30 1341 C 122.916 1.63261 2.96983 0
M  V30 1342 C 122.089 2.91245 3.26336 0
M  V30 1343 C 121.148 2.8113 4.44806 0
M  V30 1344 O 120.174 3.55086 4.44862 0
M  V30 1345 N 121.376 1.95032 5.46756 0
M  V30 1346 H 124.141 2.62122 1.45301 0
M  V30 1347 H 121.702 1.48082 0.65448 0
M  V30 1348 H 123.694 1.54101 3.74212 0
M  V30 1349 H 122.264 0.748032 3.03518 0
M  V30 1350 H 121.484 3.14493 2.37672 0
M  V30 1351 H 122.772 3.76022 3.42761 0
M  V30 1352 H 122.17 1.3427 5.49534 0
M  V30 1353 H 120.727 1.91772 6.2295 0
M  V30 1354 N 124.16 -0.719506 1.40217 0
M  V30 1355 C 125.385 -1.51371 1.4178 0
M  V30 1356 C 125.81 -1.88091 0.0182355 0
M  V30 1357 O 125.168 -1.52997 -0.972707 0
M  V30 1358 C 125.216 -2.768 2.31115 0
M  V30 1359 O 124.32 -3.73349 1.7517 0
M  V30 1360 H 123.661 -0.456529 0.482159 0
M  V30 1361 H 126.191 -0.88644 1.844 0
M  V30 1362 H 126.201 -3.25371 2.46167 0
M  V30 1363 H 124.876 -2.49407 3.3282 0
M  V30 1364 H 123.453 -3.32179 1.69444 0
M  V30 1365 N 125.638 -1.25649 -0.95132 0
M  V30 1366 C 126.886 -1.10375 -1.69298 0
M  V30 1367 C 127.207 0.355339 -1.91735 0
M  V30 1368 O 126.477 1.25188 -1.50681 0
M  V30 1369 H 125.057 -0.405461 -0.627384 0
M  V30 1370 H 127.719 -1.57823 -1.14358 0
M  V30 1371 H 126.815 -1.61465 -2.67087 0
M  V30 1372 N 127.117 1.15442 -1.07289 0
M  V30 1373 C 128.064 2.20161 -0.692653 0
M  V30 1374 C 129.034 1.63073 0.31564 0
M  V30 1375 O 130.219 1.89725 0.202235 0
M  V30 1376 C 127.359 3.44967 -0.0959509 0
M  V30 1377 C 126.472 4.16256 -1.15564 0
M  V30 1378 C 125.607 5.28609 -0.524011 0
M  V30 1379 C 124.646 5.91715 -1.56653 0
M  V30 1380 N 123.783 6.9554 -0.957531 0
M  V30 1381 H 128.623 2.52037 -1.59002 0
M  V30 1382 H 126.16 1.2378 -0.794798 0
M  V30 1383 H 128.118 4.16341 0.267628 0
M  V30 1384 H 126.748 3.1361 0.764772 0
M  V30 1385 H 125.8 3.43385 -1.6368 0
M  V30 1386 H 127.112 4.59268 -1.94613 0
M  V30 1387 H 126.266 6.06604 -0.108032 0
M  V30 1388 H 125.005 4.86787 0.29825 0
M  V30 1389 H 124.01 5.12433 -1.9923 0
M  V30 1390 H 125.235 6.35614 -2.39107 0
M  V30 1391 H 123.181 6.55814 -0.156162 0
M  V30 1392 H 123.098 7.36977 -1.68526 0
M  V30 1393 H 124.366 7.77435 -0.567032 0
M  V30 1394 N 128.595 0.856903 1.32268 0
M  V30 1395 C 130.006 0.515711 1.79436 0
M  V30 1396 C 130.357 -0.966586 1.70738 0
M  V30 1397 O 129.482 -1.75409 1.26731 0
M  V30 1398 C 130.077 0.929335 3.25805 0
M  V30 1399 C 128.636 0.640006 3.70919 0
M  V30 1400 C 127.783 1.12784 2.53328 0
M  V30 1401 H 130.734 1.04389 1.19535 0
M  V30 1402 H 130.755 0.246633 3.797 0
M  V30 1403 H 130.267 2.00821 3.32103 0
M  V30 1404 H 128.368 -0.428051 3.70133 0
M  V30 1405 H 128.481 1.20788 4.63624 0
M  V30 1406 H 126.845 0.548033 2.48734 0
M  V30 1407 H 127.628 2.21387 2.62379 0
M  V30 1408 N 130.073 -1.45103 0.615059 0
M  V30 1409 C 131.319 -2.02483 0.113347 0
M  V30 1410 C 131.652 -1.48146 -1.25564 0
M  V30 1411 O 130.927 -0.659104 -1.82992 0
M  V30 1412 C 131.21 -3.60005 0.0825278 0
M  V30 1413 C 131.063 -4.2466 1.48271 0
M  V30 1414 C 132.382 -4.35972 -0.601401 0
M  V30 1415 H 129.501 -0.735764 0.0426632 0
M  V30 1416 H 132.143 -1.72868 0.788461 0
M  V30 1417 H 130.293 -3.85367 -0.492378 0
M  V30 1418 H 131.965 -4.10458 2.10527 0
M  V30 1419 H 130.208 -3.82772 2.04127 0
M  V30 1420 H 130.879 -5.336 1.41332 0
M  V30 1421 H 133.355 -4.15947 -0.112666 0
M  V30 1422 H 132.231 -5.45697 -0.592097 0
M  V30 1423 H 132.492 -4.09391 -1.66887 0
M  V30 1424 N 131.551 -0.354651 -1.53558 0
M  V30 1425 C 132.799 0.237972 -2.00694 0
M  V30 1426 C 133.12 1.50173 -1.24391 0
M  V30 1427 O 132.39 1.92673 -0.354135 0
M  V30 1428 H 130.97 0.0909256 -0.741446 0
M  V30 1429 H 133.632 -0.478368 -1.88938 0
M  V30 1430 H 132.728 0.47264 -3.085 0
M  V30 1431 N 133.029 1.57378 -0.0835403 0
M  V30 1432 C 134.275 1.94217 0.583733 0
M  V30 1433 C 134.608 0.964653 1.68547 0
M  V30 1434 O 133.883 -0.00422258 1.945 0
M  V30 1435 C 134.166 3.41253 1.14972 0
M  V30 1436 C 134.019 4.49768 0.0538277 0
M  V30 1437 C 135.338 3.89352 2.05166 0
M  V30 1438 H 132.457 0.706233 0.210724 0
M  V30 1439 H 135.099 1.89392 -0.1519 0
M  V30 1440 H 133.249 3.45496 1.77665 0
M  V30 1441 H 134.921 4.57641 -0.579851 0
M  V30 1442 H 133.164 4.29432 -0.614068 0
M  V30 1443 H 133.835 5.49817 0.490452 0
M  V30 1444 H 136.311 3.87189 1.52393 0
M  V30 1445 H 135.187 4.92822 2.41698 0
M  V30 1446 H 135.448 3.27973 2.96456 0
M  V30 1447 N 134.507 -0.190092 1.56449 0
M  V30 1448 C 135.754 -0.909705 1.80916 0
M  V30 1449 C 136.082 -1.83047 0.657583 0
M  V30 1450 O 135.337 -1.92428 -0.356356 0
M  V30 1451 C 135.636 -1.75382 3.1141 0
M  V30 1452 C 135.302 -0.983606 4.40041 0
M  V30 1453 C 133.964 -0.770967 4.74984 0
M  V30 1454 C 136.316 -0.442024 5.19322 0
M  V30 1455 C 133.644 -0.0053448 5.867 0
M  V30 1456 C 135.996 0.310412 6.31838 0
M  V30 1457 C 134.66 0.534023 6.6536 0
M  V30 1458 H 133.93 -0.332885 0.662019 0
M  V30 1459 H 136.577 -0.175762 1.90692 0
M  V30 1460 H 134.882 -2.55659 2.96893 0
M  V30 1461 H 136.579 -2.31331 3.27547 0
M  V30 1462 H 133.169 -1.15936 4.12622 0
M  V30 1463 H 137.353 -0.593693 4.92736 0
M  V30 1464 H 132.609 0.177825 6.11141 0
M  V30 1465 H 136.783 0.737419 6.92485 0
M  V30 1466 H 134.41 1.12918 7.51767 0
M  V30 1467 N 135.985 -1.50799 -0.457987 0
M  V30 1468 C 136.932 -1.70617 -1.5543 0
M  V30 1469 C 137.902 -0.547562 -1.56815 0
M  V30 1470 O 139.087 -0.779647 -1.74144 0
M  V30 1471 C 136.227 -1.81831 -2.93311 0
M  V30 1472 C 135.34 -3.09278 -3.01615 0
M  V30 1473 C 134.475 -3.11209 -4.30491 0
M  V30 1474 C 133.514 -4.33055 -4.32585 0
M  V30 1475 N 132.651 -4.32652 -5.52952 0
M  V30 1476 H 137.491 -2.64207 -1.37836 0
M  V30 1477 H 135.028 -1.30959 -0.669937 0
M  V30 1478 H 136.986 -1.86314 -3.73287 0
M  V30 1479 H 135.616 -0.916685 -3.0951 0
M  V30 1480 H 134.668 -3.14203 -2.1443 0
M  V30 1481 H 135.98 -3.99233 -2.99022 0
M  V30 1482 H 135.134 -3.14494 -5.18824 0
M  V30 1483 H 133.873 -2.19106 -4.35711 0
M  V30 1484 H 132.878 -4.29969 -3.42647 0
M  V30 1485 H 134.103 -5.264 -4.29046 0
M  V30 1486 H 132.049 -3.43409 -5.58933 0
M  V30 1487 H 131.966 -5.16392 -5.52155 0
M  V30 1488 H 133.234 -4.40101 -6.43375 0
M  V30 1489 N 137.463 0.71206 -1.40597 0
M  V30 1490 C 138.691 1.50111 -1.42388 0
M  V30 1491 C 139.106 1.88784 -0.0245395 0
M  V30 1492 O 138.463 1.55681 0.952351 0
M  V30 1493 C 138.514 2.7742 -2.31776 0
M  V30 1494 O 138.235 2.40382 -3.66262 0
M  V30 1495 C 139.736 3.7129 -2.42196 0
M  V30 1496 H 136.956 0.46314 -0.485533 0
M  V30 1497 H 139.5 0.878068 -1.8469 0
M  V30 1498 H 137.655 3.36001 -1.92827 0
M  V30 1499 H 138.069 3.22324 -4.13772 0
M  V30 1500 H 139.543 4.57448 -3.08943 0
M  V30 1501 H 140.02 4.14641 -1.44809 0
M  V30 1502 H 140.626 3.18619 -2.81712 0
M  V30 1503 N 138.941 1.26152 0.944643 0
M  V30 1504 C 139.891 1.04081 2.02857 0
M  V30 1505 C 140.875 -0.0256555 1.6088 0
M  V30 1506 O 142.067 0.190884 1.75968 0
M  V30 1507 C 139.196 0.672118 3.36656 0
M  V30 1508 C 138.282 1.77586 3.85128 0
M  V30 1509 N 138.673 3.01272 4.06287 0
M  V30 1510 C 136.971 1.65867 4.1401 0
M  V30 1511 C 137.672 3.72983 4.46384 0
M  V30 1512 N 136.648 3.00653 4.52889 0
M  V30 1513 H 140.45 1.97968 2.17223 0
M  V30 1514 H 137.964 1.16618 1.13022 0
M  V30 1515 H 139.961 0.495166 4.13949 0
M  V30 1516 H 138.621 -0.259307 3.23663 0
M  V30 1517 H 139.632 3.37213 3.93075 0
M  V30 1518 H 136.309 0.796907 4.09824 0
M  V30 1519 H 137.699 4.792 4.70975 0
M  V30 1520 N 140.419 -1.14872 1.07899 0
M  V30 1521 C 141.644 -1.90202 0.826926 0
M  V30 1522 C 142.069 -1.77774 -0.614664 0
M  V30 1523 O 141.427 -1.11431 -1.43013 0
M  V30 1524 C 141.475 -3.38352 1.24702 0
M  V30 1525 O 140.579 -4.10497 0.39575 0
M  V30 1526 H 139.92 -0.591968 0.300782 0
M  V30 1527 H 142.45 -1.45437 1.43907 0
M  V30 1528 H 142.46 -3.89156 1.22563 0
M  V30 1529 H 141.135 -3.46715 2.29698 0
M  V30 1530 H 139.712 -3.69796 0.480117 0
M  V30 1531 N 141.898 -0.863906 -1.31812 0
M  V30 1532 C 142.846 -0.30422 -2.30602 0
M  V30 1533 C 143.84 0.577419 -1.59255 0
M  V30 1534 O 145.046 0.464194 -1.73912 0
M  V30 1535 H 141.421 -0.0796877 -0.747766 0
M  V30 1536 H 143.392 -1.15148 -2.75288 0
M  V30 1537 C 142.141 0.484617 -3.44306 0
M  V30 1538 H 141.464 -0.18451 -3.99374 0
M  V30 1539 H 142.904 0.841664 -4.15562 0
M  V30 1540 C 141.363 1.6735 -2.92396 0
M  V30 1541 O 141.893 2.77273 -2.90659 0
M  V30 1542 N 140.099 1.50362 -2.48676 0
M  V30 1543 H 139.646 0.609402 -2.50288 0
M  V30 1544 H 139.604 2.30051 -2.14299 0
M  V30 1545 N 143.376 1.44774 -0.622745 0
M  V30 1546 C 144.339 2.29069 0.0774015 0
M  V30 1547 C 145.339 1.4059 0.780461 0
M  V30 1548 O 146.529 1.62551 0.626322 0
M  V30 1549 C 143.661 3.21974 1.12006 0
M  V30 1550 H 144.854 2.92459 -0.663901 0
M  V30 1551 H 142.407 1.51548 -0.382486 0
M  V30 1552 H 143.142 2.63417 1.89162 0
M  V30 1553 H 142.927 3.87168 0.619951 0
M  V30 1554 H 144.417 3.85318 1.60995 0
M  V30 1555 N 144.854 0.36279 1.53368 0
M  V30 1556 C 146.265 -0.117022 1.86333 0
M  V30 1557 C 146.616 -1.48397 1.28347 0
M  V30 1558 O 145.741 -2.07787 0.604428 0
M  V30 1559 C 146.336 -0.21912 3.38091 0
M  V30 1560 C 144.895 -0.643184 3.70864 0
M  V30 1561 C 144.042 0.211318 2.76494 0
M  V30 1562 H 146.993 0.581687 1.47655 0
M  V30 1563 H 147.014 -1.04319 3.6592 0
M  V30 1564 H 146.526 0.775902 3.80265 0
M  V30 1565 H 144.627 -1.64654 3.34245 0
M  V30 1566 H 144.74 -0.41973 4.77258 0
M  V30 1567 H 143.104 -0.319367 2.5269 0
M  V30 1568 H 143.887 1.20383 3.21501 0
M  V30 1569 N 146.332 -1.57332 0.0918853 0
M  V30 1570 C 147.748 -1.57389 -0.264766 0
M  V30 1571 C 147.948 -1.10281 -1.68643 0
M  V30 1572 O 147.004 -0.777801 -2.40222 0
M  V30 1573 C 148.317 -3.00648 -0.0561195 0
M  V30 1574 C 149.865 -3.12754 -0.124116 0
M  V30 1575 C 150.34 -4.57965 0.0564972 0
M  V30 1576 N 151.831 -4.632 0.00155611 0
M  V30 1577 C 152.566 -5.73281 0.116598 0
M  V30 1578 N 152.062 -6.92208 0.286294 0
M  V30 1579 N 153.855 -5.6207 0.0580973 0
M  V30 1580 H 146.006 -1.86262 1.02079 0
M  V30 1581 H 148.269 -0.859579 0.399786 0
M  V30 1582 H 147.975 -3.393 0.925669 0
M  V30 1583 H 147.849 -3.68623 -0.799823 0
M  V30 1584 H 150.236 -2.73976 -1.09641 0
M  V30 1585 H 150.317 -2.47377 0.651024 0
M  V30 1586 H 149.961 -4.97436 1.02564 0
M  V30 1587 H 149.891 -5.21399 -0.738297 0
M  V30 1588 H 152.382 -3.77686 -0.127192 0
M  V30 1589 H 152.695 -7.71934 0.365676 0
M  V30 1590 H 151.04 -6.94254 0.32192 0
M  V30 1591 H 154.231 -4.68043 -0.0733204 0
M  V30 1592 H 154.404 -6.47824 0.151203 0
M  V30 1593 N 147.81 0.181792 -1.56548 0
M  V30 1594 C 149.056 0.901431 -1.81665 0
M  V30 1595 C 149.389 1.82347 -0.668075 0
M  V30 1596 O 148.664 1.91669 0.330615 0
M  V30 1597 C 148.947 1.70618 -3.17115 0
M  V30 1598 C 148.8 0.807964 -4.42484 0
M  V30 1599 C 150.119 2.67605 -3.49393 0
M  V30 1600 H 147.238 0.32627 -0.660846 0
M  V30 1601 H 149.88 0.168134 -1.89255 0
M  V30 1602 H 148.03 2.33133 -3.10775 0
M  V30 1603 H 149.702 0.19649 -4.60881 0
M  V30 1604 H 147.945 0.115411 -4.33646 0
M  V30 1605 H 148.616 1.40632 -5.33785 0
M  V30 1606 H 151.092 2.15218 -3.56118 0
M  V30 1607 H 149.968 3.20985 -4.45264 0
M  V30 1608 H 150.229 3.47298 -2.73563 0
M  V30 1609 N 149.288 1.51039 0.449983 0
M  V30 1610 C 150.218 1.74379 1.55288 0
M  V30 1611 C 151.199 0.593236 1.5942 0
M  V30 1612 O 152.384 0.834625 1.7535 0
M  V30 1613 C 149.514 1.85728 2.93466 0
M  V30 1614 C 148.468 3.01078 3.04197 0
M  V30 1615 C 147.794 2.97595 4.44231 0
M  V30 1616 C 149.094 4.41254 2.7945 0
M  V30 1617 H 150.788 2.66725 1.36008 0
M  V30 1618 H 148.334 1.2835 0.652864 0
M  V30 1619 H 150.287 2.0064 3.70569 0
M  V30 1620 H 149.011 0.900207 3.13949 0
M  V30 1621 H 147.67 2.85851 2.29531 0
M  V30 1622 H 147.318 1.99691 4.61663 0
M  V30 1623 H 147.018 3.75046 4.52343 0
M  V30 1624 H 148.542 3.14583 5.23326 0
M  V30 1625 H 149.956 4.56897 3.46292 0
M  V30 1626 H 148.353 5.20315 2.98985 0
M  V30 1627 H 149.423 4.52164 1.75144 0
M  V30 1628 N 150.766 -0.704594 1.40972 0
M  V30 1629 C 152.015 -1.46018 1.39146 0
M  V30 1630 C 152.328 -1.956 0.000589254 0
M  V30 1631 O 153.534 -2.71137 -0.1403 0
M  V30 1632 C 151.99 -2.63996 2.4461 0
M  V30 1633 C 151.598 -2.21238 3.89561 0
M  V30 1634 C 153.342 -3.41677 2.51907 0
M  V30 1635 C 151.249 -3.3612 4.86598 0
M  V30 1636 H 150.179 -0.548444 0.517422 0
M  V30 1637 H 152.83 -0.765784 1.66757 0
M  V30 1638 H 151.212 -3.3566 2.10115 0
M  V30 1639 H 152.386 -1.56923 4.33257 0
M  V30 1640 H 150.701 -1.56574 3.85841 0
M  V30 1641 H 153.298 -4.27182 3.2159 0
M  V30 1642 H 153.641 -3.86247 1.55303 0
M  V30 1643 H 154.174 -2.77064 2.85448 0
M  V30 1644 H 150.913 -2.96572 5.84573 0
M  V30 1645 H 150.433 -3.99315 4.47557 0
M  V30 1646 H 152.112 -4.02029 5.06934 0
M  V30 1647 N 152.244 -1.26651 -0.937939 0
M  V30 1648 C 153.207 -1.08546 -2.01867 0
M  V30 1649 C 154.207 -0.0327327 -1.60767 0
M  V30 1650 O 155.397 -0.276427 -1.71993 0
M  V30 1651 C 152.529 -0.651711 -3.34613 0
M  V30 1652 H 153.722 -2.04502 -2.1936 0
M  V30 1653 H 151.275 -1.09294 -1.11734 0
M  V30 1654 H 152.01 0.309696 -3.22818 0
M  V30 1655 H 151.795 -1.41189 -3.65798 0
M  V30 1656 H 153.285 -0.546973 -4.14002 0
M  V30 1657 N 153.722 1.14298 -1.08507 0
M  V30 1658 C 154.67 2.21483 -0.710483 0
M  V30 1659 C 155.664 1.66998 0.284234 0
M  V30 1660 O 156.87 1.79401 0.146692 0
M  V30 1661 H 153.245 0.721578 -0.211729 0
M  V30 1662 H 155.216 2.50348 -1.62384 0
M  V30 1663 C 153.965 3.4743 -0.137007 0
M  V30 1664 H 153.288 3.89686 -0.893592 0
M  V30 1665 H 154.728 4.2391 0.0872789 0
M  V30 1666 C 153.187 3.17548 1.12538 0
M  V30 1667 O 153.717 3.35437 2.21009 0
M  V30 1668 N 151.923 2.71499 1.03617 0
M  V30 1669 H 151.47 2.57143 0.153403 0
M  V30 1670 H 151.428 2.51881 1.88158 0
M  V30 1671 N 155.201 0.870884 1.31352 0
M  V30 1672 C 156.426 0.495957 2.01383 0
M  V30 1673 C 156.851 -0.904324 1.64935 0
M  V30 1674 O 156.209 -1.59687 0.858466 0
M  V30 1675 C 156.257 0.661433 3.54482 0
M  V30 1676 O 155.361 -0.298851 4.11316 0
M  V30 1677 H 154.702 0.197158 0.634054 0
M  V30 1678 H 157.232 1.17455 1.67527 0
M  V30 1679 H 157.242 0.555072 4.04207 0
M  V30 1680 H 155.917 1.68246 3.8035 0
M  V30 1681 H 154.494 -0.147368 3.72609 0
M  V30 1682 N 156.679 -1.44442 0.630414 0
M  V30 1683 C 157.627 -2.32437 -0.0871428 0
M  V30 1684 C 158.621 -1.47304 -0.836525 0
M  V30 1685 O 159.827 -1.63653 -0.749506 0
M  V30 1686 H 156.202 -0.750533 -0.0469495 0
M  V30 1687 H 158.173 -2.90709 0.673096 0
M  V30 1688 C 156.922 -3.31288 -1.05563 0
M  V30 1689 H 156.245 -3.96805 -0.488426 0
M  V30 1690 H 157.685 -3.9554 -1.52721 0
M  V30 1691 C 156.144 -2.6016 -2.14052 0
M  V30 1692 O 156.674 -2.39997 -3.22124 0
M  V30 1693 N 154.88 -2.19911 -1.89967 0
M  V30 1694 H 154.427 -2.36509 -1.02085 0
M  V30 1695 H 154.385 -1.72646 -2.62756 0
M  V30 1696 N 158.157 -0.370918 -1.53173 0
M  V30 1697 C 159.087 0.464847 -2.28826 0
M  V30 1698 C 160.068 1.07936 -1.31468 0
M  V30 1699 O 161.253 1.0956 -1.60344 0
M  V30 1700 C 158.383 1.60196 -3.08147 0
M  V30 1701 C 157.337 1.11443 -4.13237 0
M  V30 1702 C 156.663 2.3422 -4.80672 0
M  V30 1703 C 157.963 0.195384 -5.21934 0
M  V30 1704 H 159.657 -0.166329 -2.98938 0
M  V30 1705 H 157.203 -0.0814359 -1.4377 0
M  V30 1706 H 159.156 2.19332 -3.59822 0
M  V30 1707 H 157.88 2.26045 -2.35735 0
M  V30 1708 H 156.539 0.545727 -3.62515 0
M  V30 1709 H 156.187 2.98537 -4.04827 0
M  V30 1710 H 155.887 2.02269 -5.51689 0
M  V30 1711 H 157.411 2.94032 -5.35143 0
M  V30 1712 H 158.825 0.694375 -5.69079 0
M  V30 1713 H 157.222 -0.0335027 -6.00091 0
M  V30 1714 H 158.292 -0.760961 -4.78892 0
M  V30 1715 N 159.635 1.57281 -0.100228 0
M  V30 1716 C 160.881 1.94826 0.563101 0
M  V30 1717 C 161.214 0.982475 1.67514 0
M  V30 1718 O 160.489 0.0164069 1.94493 0
M  V30 1719 C 160.772 3.42453 1.11346 0
M  V30 1720 C 160.625 4.498 0.00612081 0
M  V30 1721 C 161.944 3.91506 2.01024 0
M  V30 1722 H 159.063 0.708428 0.203221 0
M  V30 1723 H 161.705 1.8922 -0.171979 0
M  V30 1724 H 159.855 3.47361 1.7399 0
M  V30 1725 H 161.527 4.57 -0.628357 0
M  V30 1726 H 159.77 4.28756 -0.659581 0
M  V30 1727 H 160.441 5.50306 0.432109 0
M  V30 1728 H 162.917 3.88784 1.48278 0
M  V30 1729 H 161.793 4.95358 2.36457 0
M  V30 1730 H 162.054 3.31099 2.92961 0
M  V30 1731 N 161.113 -0.173488 1.56642 0
M  V30 1732 C 162.524 -0.736155 1.71574 0
M  V30 1733 C 162.875 -1.82888 0.710389 0
M  V30 1734 O 162 -2.16017 -0.1287 0
M  V30 1735 C 162.595 -1.34211 3.11083 0
M  V30 1736 C 161.154 -1.85162 3.27707 0
M  V30 1737 C 160.301 -0.729765 2.67525 0
M  V30 1738 H 163.252 0.0518786 1.58615 0
M  V30 1739 H 163.273 -2.21178 3.09613 0
M  V30 1740 H 162.785 -0.546579 3.84232 0
M  V30 1741 H 160.886 -2.67366 2.59512 0
M  V30 1742 H 160.999 -1.99855 4.35425 0
M  V30 1743 H 159.363 -1.14965 2.27278 0
M  V30 1744 H 160.146 0.0538806 3.43258 0
M  V30 1745 N 162.591 -1.51276 -0.441967 0
M  V30 1746 C 163.541 -1.6864 -1.53442 0
M  V30 1747 C 164.525 -0.540444 -1.51552 0
M  V30 1748 O 165.717 -0.796157 -1.58083 0
M  V30 1749 C 162.846 -1.8106 -2.91672 0
M  V30 1750 C 161.932 -3.01424 -2.98336 0
M  V30 1751 N 162.323 -4.2467 -2.74752 0
M  V30 1752 C 160.621 -3.00584 -3.29493 0
M  V30 1753 C 161.322 -5.05891 -2.87139 0
M  V30 1754 N 160.298 -4.40442 -3.18609 0
M  V30 1755 H 164.1 -2.61598 -1.33954 0
M  V30 1756 H 161.614 -1.4886 -0.6492 0
M  V30 1757 H 163.611 -1.91609 -3.70259 0
M  V30 1758 H 162.271 -0.892795 -3.12185 0
M  V30 1759 H 163.282 -4.53691 -2.49769 0
M  V30 1760 H 159.959 -2.18417 -3.55809 0
M  V30 1761 H 161.349 -6.13983 -2.72899 0
M  V30 1762 N 164.069 0.697108 -1.41344 0
M  V30 1763 C 165.315 1.45796 -1.41828 0
M  V30 1764 C 165.67 1.92382 -0.0261743 0
M  V30 1765 O 164.963 1.66522 0.947688 0
M  V30 1766 C 165.157 2.68553 -2.35826 0
M  V30 1767 C 164.986 2.33975 -3.84039 0
M  V30 1768 C 163.756 2.24414 -4.52732 0
M  V30 1769 C 165.954 1.97048 -4.75054 0
M  V30 1770 N 163.936 1.82705 -5.86082 0
M  V30 1771 C 165.307 1.66086 -5.9734 0
M  V30 1772 C 167.362 1.83845 -4.62715 0
M  V30 1773 C 166.065 1.23246 -7.08663 0
M  V30 1774 C 168.091 1.4241 -5.73998 0
M  V30 1775 C 167.453 1.12357 -6.95381 0
M  V30 1776 H 163.552 0.530859 -0.574206 0
M  V30 1777 H 166.136 0.806674 -1.77203 0
M  V30 1778 H 164.307 3.31404 -2.02549 0
M  V30 1779 H 166.039 3.35015 -2.2704 0
M  V30 1780 H 162.794 2.4276 -4.0665 0
M  V30 1781 H 163.218 1.64337 -6.56751 0
M  V30 1782 H 167.86 2.05734 -3.69369 0
M  V30 1783 H 165.578 1.00102 -8.01876 0
M  V30 1784 H 169.164 1.32746 -5.66454 0
M  V30 1785 H 168.044 0.807795 -7.80028 0
M  V30 1786 N 165.547 1.27147 0.931209 0
M  V30 1787 C 166.51 1.09615 2.01289 0
M  V30 1788 C 167.51 0.0412581 1.60747 0
M  V30 1789 O 168.7 0.285545 1.71844 0
M  V30 1790 C 165.832 0.669447 3.34262 0
M  V30 1791 H 167.025 2.05662 2.18273 0
M  V30 1792 H 164.578 1.09885 1.11153 0
M  V30 1793 H 165.313 -0.292572 3.22978 0
M  V30 1794 H 165.098 1.43127 3.65044 0
M  V30 1795 H 166.588 0.568921 4.13706 0
M  V30 1796 N 167.025 -1.13721 1.09112 0
M  V30 1797 C 167.973 -2.21103 0.722219 0
M  V30 1798 C 168.967 -1.67147 -0.275374 0
M  V30 1799 O 170.173 -1.79477 -0.137176 0
M  V30 1800 H 166.548 -0.720445 0.215553 0
M  V30 1801 H 168.519 -2.49483 1.63709 0
M  V30 1802 C 167.268 -3.47352 0.15543 0
M  V30 1803 H 166.591 -3.89206 0.914246 0
M  V30 1804 H 168.031 -4.2395 -0.0647967 0
M  V30 1805 C 166.49 -3.1814 -1.10852 0
M  V30 1806 O 167.02 -3.36604 -2.19227 0
M  V30 1807 N 165.226 -2.72045 -1.02176 0
M  V30 1808 H 164.773 -2.57221 -0.139764 0
M  V30 1809 H 164.731 -2.52875 -1.8682 0
M  V30 1810 N 168.503 -0.877838 -1.30888 0
M  V30 1811 C 169.749 -0.502773 -1.97088 0
M  V30 1812 C 170.104 0.936274 -1.68082 0
M  V30 1813 O 169.397 1.65162 -0.971196 0
M  V30 1814 C 169.591 -0.705748 -3.50363 0
M  V30 1815 C 169.42 -2.16297 -3.94266 0
M  V30 1816 C 168.19 -2.80614 -4.20219 0
M  V30 1817 C 170.388 -3.13606 -4.07622 0
M  V30 1818 N 168.37 -4.17007 -4.50532 0
M  V30 1819 C 169.741 -4.35051 -4.41736 0
M  V30 1820 C 171.796 -3.09491 -3.90026 0
M  V30 1821 C 170.499 -5.52911 -4.60089 0
M  V30 1822 C 172.525 -4.26616 -4.09576 0
M  V30 1823 C 171.887 -5.46825 -4.44029 0
M  V30 1824 H 167.986 -0.233168 -0.746429 0
M  V30 1825 H 170.57 -1.13408 -1.58261 0
M  V30 1826 H 168.741 -0.103976 -3.88261 0
M  V30 1827 H 170.473 -0.298291 -4.03599 0
M  V30 1828 H 167.228 -2.3152 -4.13153 0
M  V30 1829 H 167.652 -4.87426 -4.69834 0
M  V30 1830 H 172.294 -2.17657 -3.62471 0
M  V30 1831 H 170.012 -6.45255 -4.86489 0
M  V30 1832 H 173.598 -4.24894 -3.97438 0
M  V30 1833 H 172.478 -6.35947 -4.58848 0
M  V30 1834 N 169.982 1.44106 -0.638065 0
M  V30 1835 C 170.892 2.34513 0.0637334 0
M  V30 1836 C 171.908 1.53018 0.828346 0
M  V30 1837 O 173.084 1.85723 0.779036 0
M  V30 1838 C 170.149 3.31095 1.02844 0
M  V30 1839 C 169.21 4.28497 0.26244 0
M  V30 1840 C 168.443 5.20465 1.1812 0
M  V30 1841 O 168.666 5.16514 2.42011 0
M  V30 1842 O 167.6 5.98251 0.661774 0
M  V30 1843 H 171.426 2.95989 -0.68003 0
M  V30 1844 H 169.011 1.43994 -0.398252 0
M  V30 1845 H 170.893 3.90526 1.58327 0
M  V30 1846 H 169.568 2.72144 1.7527 0
M  V30 1847 H 168.475 3.72592 -0.335602 0
M  V30 1848 H 169.808 4.90388 -0.421936 0
M  V30 1849 N 171.46 0.379036 1.52974 0
M  V30 1850 C 172.41 -0.477772 2.22938 0
M  V30 1851 C 173.394 -1.03792 1.22948 0
M  V30 1852 O 174.586 -0.965725 1.48333 0
M  V30 1853 C 171.715 -1.60994 3.03209 0
M  V30 1854 C 170.801 -1.06203 4.10587 0
M  V30 1855 N 171.192 -0.238214 5.05239 0
M  V30 1856 C 169.49 -1.33554 4.25534 0
M  V30 1857 C 170.191 0.0633235 5.81666 0
M  V30 1858 N 169.167 -0.537901 5.40932 0
M  V30 1859 H 172.969 0.158295 2.93473 0
M  V30 1860 H 170.483 0.187778 1.61311 0
M  V30 1861 H 172.48 -2.23607 3.5186 0
M  V30 1862 H 171.14 -2.24893 2.34207 0
M  V30 1863 H 172.151 0.123695 5.17752 0
M  V30 1864 H 168.828 -1.97632 3.6776 0
M  V30 1865 H 170.218 0.730161 6.67921 0
M  V30 1866 N 172.938 -1.57226 0.108567 0
M  V30 1867 C 174.185 -1.94833 -0.551943 0
M  V30 1868 C 174.513 -0.991204 -1.67348 0
M  V30 1869 O 173.768 -0.0131878 -1.95696 0
M  V30 1870 C 174.067 -3.38911 -1.13463 0
M  V30 1871 C 173.733 -4.50696 -0.135509 0
M  V30 1872 C 172.395 -4.80998 0.139252 0
M  V30 1873 C 174.747 -5.18333 0.545957 0
M  V30 1874 C 172.075 -5.76259 1.10194 0
M  V30 1875 C 174.427 -6.14627 1.49721 0
M  V30 1876 C 173.091 -6.43327 1.78006 0
M  V30 1877 H 172.361 -0.712944 -0.20197 0
M  V30 1878 H 175.008 -1.90582 0.18726 0
M  V30 1879 H 173.313 -3.39805 -1.95037 0
M  V30 1880 H 175.01 -3.65317 -1.65362 0
M  V30 1881 H 171.6 -4.27087 -0.359846 0
M  V30 1882 H 175.784 -4.95087 0.346842 0
M  V30 1883 H 171.04 -5.96804 1.32795 0
M  V30 1884 H 175.214 -6.66126 2.03099 0
M  V30 1885 H 172.841 -7.1695 2.52759 0
M  V30 1886 N 174.416 0.165178 -1.56732 0
M  V30 1887 C 175.364 1.22369 -1.97809 0
M  V30 1888 C 176.358 1.45488 -0.867741 0
M  V30 1889 O 177.564 1.45995 -1.05288 0
M  V30 1890 H 173.939 0.411486 -0.629431 0
M  V30 1891 H 175.91 0.850425 -2.86025 0
M  V30 1892 C 174.659 2.55403 -2.35934 0
M  V30 1893 H 173.982 2.38438 -3.20916 0
M  V30 1894 H 175.422 3.2814 -2.68514 0
M  V30 1895 C 173.881 3.14611 -1.20506 0
M  V30 1896 O 174.411 3.98626 -0.496016 0
M  V30 1897 N 172.617 2.7379 -0.97403 0
M  V30 1898 H 172.164 2.0557 -1.55238 0
M  V30 1899 H 172.122 3.1374 -0.203573 0
M  V30 1900 N 175.894 1.51508 0.433938 0
M  V30 1901 C 176.804 1.75917 1.5521 0
M  V30 1902 C 177.82 0.643545 1.61662 0
M  V30 1903 O 178.996 0.926183 1.7884 0
M  V30 1904 C 176.061 1.88213 2.91164 0
M  V30 1905 C 175.122 3.12074 2.94802 0
M  V30 1906 C 174.355 3.23774 4.24271 0
M  V30 1907 O 174.578 2.4133 5.16833 0
M  V30 1908 O 173.512 4.16774 4.34262 0
M  V30 1909 H 177.338 2.70777 1.37527 0
M  V30 1910 H 174.923 1.36051 0.617293 0
M  V30 1911 H 176.805 1.98267 3.71845 0
M  V30 1912 H 175.48 0.965413 3.08968 0
M  V30 1913 H 174.387 3.07497 2.13065 0
M  V30 1914 H 175.72 4.03446 2.81943 0
M  V30 1915 N 177.372 -0.689602 1.41712 0
M  V30 1916 C 178.302 -1.81577 1.46806 0
M  V30 1917 C 179.283 -1.66945 0.326105 0
M  V30 1918 O 180.468 -1.86588 0.538377 0
M  V30 1919 C 177.598 -3.19762 1.35535 0
M  V30 1920 C 176.552 -3.49107 2.47605 0
M  V30 1921 C 175.878 -4.86711 2.21397 0
M  V30 1922 C 177.178 -3.47483 3.89939 0
M  V30 1923 H 178.872 -1.7757 2.41058 0
M  V30 1924 H 176.418 -0.852887 1.16025 0
M  V30 1925 H 178.371 -3.98263 1.3771 0
M  V30 1926 H 177.095 -3.24409 0.377708 0
M  V30 1927 H 175.754 -2.72959 2.44722 0
M  V30 1928 H 175.402 -4.8799 1.21961 0
M  V30 1929 H 175.102 -5.0731 2.96497 0
M  V30 1930 H 176.626 -5.67515 2.25297 0
M  V30 1931 H 178.04 -4.1598 3.94505 0
M  V30 1932 H 176.437 -3.79615 4.64771 0
M  V30 1933 H 177.507 -2.46341 4.17665 0
M  V30 1934 N 178.85 -1.27639 -0.924453 0
M  V30 1935 C 180.127 -1.04887 -1.651 0
M  V30 1936 C 180.507 0.415327 -2.06974 0
M  V30 1937 O 179.855 1.39923 -1.80648 0
M  V30 1938 C 180.065 -2.01348 -2.85061 0
M  V30 1939 C 181.413 -2.30899 -3.56329 0
M  V30 1940 O 182.437 -1.99348 -2.95193 0
M  V30 1941 O 181.296 -2.84699 -4.66485 0
M  V30 1942 H 178.39 -0.400083 -0.723784 0
M  V30 1943 H 180.936 -1.38916 -0.974703 0
M  V30 1944 H 179.708 -3.0008 -2.51133 0
M  V30 1945 H 179.331 -1.679 -3.6041 0
M  V30 1946 N 180.328 1.1314 -1.09713 0
M  V30 1947 C 181.291 2.16831 -0.742751 0
M  V30 1948 C 182.291 1.59159 0.229129 0
M  V30 1949 O 183.481 1.74199 0.00693237 0
M  V30 1950 C 180.613 3.40756 -0.0989168 0
M  V30 1951 H 181.806 2.49695 -1.66109 0
M  V30 1952 H 179.359 1.2802 -0.896699 0
M  V30 1953 H 180.094 3.13485 0.830514 0
M  V30 1954 H 179.879 3.83888 -0.798265 0
M  V30 1955 H 181.369 4.17386 0.133524 0
M  V30 1956 N 181.806 0.884767 1.30421 0
M  V30 1957 C 182.753 0.349642 2.28136 0
M  V30 1958 C 183.723 -0.560061 1.56373 0
M  V30 1959 O 184.908 -0.488524 1.8444 0
M  V30 1960 C 182.048 -0.42999 3.42411 0
M  V30 1961 C 181.161 0.508907 4.28992 0
M  V30 1962 C 180.296 -0.286301 5.30428 0
M  V30 1963 C 179.335 0.648079 6.08659 0
M  V30 1964 N 178.472 -0.111792 7.02011 0
M  V30 1965 H 183.312 1.18807 2.73293 0
M  V30 1966 H 180.849 0.597231 1.3443 0
M  V30 1967 H 182.807 -0.897923 4.07423 0
M  V30 1968 H 181.437 -1.23299 2.98324 0
M  V30 1969 H 180.489 1.09533 3.64289 0
M  V30 1970 H 181.801 1.22475 4.8353 0
M  V30 1971 H 180.955 -0.816098 6.01186 0
M  V30 1972 H 179.694 -1.03536 4.76583 0
M  V30 1973 H 178.699 1.18951 5.36778 0
M  V30 1974 H 179.924 1.39623 6.64592 0
M  V30 1975 H 177.87 -0.843395 6.50556 0
M  V30 1976 H 177.787 0.544429 7.54037 0
M  V30 1977 H 179.055 -0.622339 7.77012 0
M  V30 1978 N 183.284 -1.43765 0.645699 0
M  V30 1979 C 184.532 -2.01499 0.155731 0
M  V30 1980 C 184.853 -1.51151 -1.232 0
M  V30 1981 O 184.123 -0.721044 -1.82148 0
M  V30 1982 H 182.703 -0.745003 0.0545817 0
M  V30 1983 H 185.365 -1.76075 0.835677 0
M  V30 1984 H 184.461 -3.1181 0.134577 0
M  V30 1985 N 184.763 -0.387143 -1.52771 0
M  V30 1986 C 185.693 0.440551 -2.29306 0
M  V30 1987 C 186.674 1.06535 -1.32606 0
M  V30 1988 O 187.859 1.07853 -1.61497 0
M  V30 1989 C 184.989 1.56919 -3.09829 0
M  V30 1990 C 183.943 1.07054 -4.14395 0
M  V30 1991 C 183.269 2.29109 -4.83129 0
M  V30 1992 C 184.569 0.140015 -5.22112 0
M  V30 1993 H 186.263 -0.198026 -2.98744 0
M  V30 1994 H 183.809 -0.09668 -1.43675 0
M  V30 1995 H 185.762 2.15503 -3.62128 0
M  V30 1996 H 184.486 2.23532 -2.3812 0
M  V30 1997 H 183.145 0.507247 -3.63074 0
M  V30 1998 H 182.793 2.94227 -4.0797 0
M  V30 1999 H 182.493 1.96406 -5.53804 0
M  V30 2000 H 184.017 2.88339 -5.38231 0
M  V30 2001 H 185.431 0.633978 -5.69784 0
M  V30 2002 H 183.828 -0.0971485 -6.00021 0
M  V30 2003 H 184.898 -0.811711 -4.78058 0
M  V30 2004 N 186.241 1.57166 -0.116904 0
M  V30 2005 C 187.204 2.14039 0.819742 0
M  V30 2006 C 188.204 1.07477 1.19605 0
M  V30 2007 O 189.394 1.33263 1.1219 0
M  V30 2008 C 186.526 2.67891 2.10826 0
M  V30 2009 H 187.719 2.98128 0.325511 0
M  V30 2010 H 185.272 1.55739 0.132312 0
M  V30 2011 H 186.007 1.87384 2.64685 0
M  V30 2012 H 185.792 3.45823 1.84793 0
M  V30 2013 H 187.282 3.11809 2.77785 0
M  V30 2014 N 187.719 -0.156864 1.56817 0
M  V30 2015 C 188.652 -1.22316 1.9265 0
M  V30 2016 C 189.63 -1.42059 0.791076 0
M  V30 2017 O 190.814 -1.56831 1.04576 0
M  V30 2018 C 187.941 -2.58375 2.18998 0
M  V30 2019 C 186.987 -2.55284 3.41661 0
M  V30 2020 S 187.82 -2.02946 4.95553 0
M  V30 2021 C 188.976 -3.40753 5.25013 0
M  V30 2022 H 189.209 -0.917403 2.82791 0
M  V30 2023 H 186.742 -0.362059 1.50095 0
M  V30 2024 H 188.7 -3.36677 2.34859 0
M  V30 2025 H 187.361 -2.86145 1.29538 0
M  V30 2026 H 186.554 -3.55418 3.57343 0
M  V30 2027 H 186.156 -1.85086 3.24991 0
M  V30 2028 H 188.448 -4.36819 5.17876 0
M  V30 2029 H 189.391 -3.29933 6.26538 0
M  V30 2030 H 189.799 -3.37433 4.52548 0
M  V30 2031 N 189.197 -1.51736 -0.425897 0
M  V30 2032 C 190.427 -1.68549 -1.19476 0
M  V30 2033 C 190.835 -0.387288 -1.85194 0
M  V30 2034 O 190.178 0.645142 -1.71999 0
M  V30 2035 C 190.24 -2.75275 -2.31223 0
M  V30 2036 C 189.904 -4.17534 -1.8578 0
M  V30 2037 C 190.901 -5.01936 -1.35485 0
M  V30 2038 C 188.586 -4.6369 -1.93123 0
M  V30 2039 C 190.58 -6.30559 -0.931347 0
M  V30 2040 C 188.267 -5.92307 -1.50384 0
M  V30 2041 C 189.265 -6.75569 -1.00473 0
M  V30 2042 O 188.953 -8.0178 -0.583452 0
M  V30 2043 H 188.685 -0.568525 -0.365725 0
M  V30 2044 H 191.239 -1.98982 -0.509444 0
M  V30 2045 H 189.469 -2.40182 -3.03067 0
M  V30 2046 H 191.158 -2.80853 -2.93047 0
M  V30 2047 H 191.924 -4.67475 -1.29197 0
M  V30 2048 H 187.803 -3.98997 -2.30916 0
M  V30 2049 H 191.347 -6.95498 -0.541084 0
M  V30 2050 H 187.244 -6.2628 -1.56346 0
M  V30 2051 H 188.012 -8.1543 -0.708275 0
M  V30 2052 N 190.675 0.682077 -1.42076 0
M  V30 2053 C 191.923 1.4393 -1.41876 0
M  V30 2054 C 192.244 1.94971 -0.0335599 0
M  V30 2055 O 191.514 1.72591 0.926773 0
M  V30 2056 H 190.094 0.534085 -0.522267 0
M  V30 2057 H 192.756 0.806427 -1.77434 0
M  V30 2058 H 191.852 2.29588 -2.11414 0
M  V30 2059 N 192.153 1.28127 0.917671 0
M  V30 2060 C 193.085 1.07517 2.02417 0
M  V30 2061 C 194.098 0.0281099 1.62776 0
M  V30 2062 O 195.287 0.270748 1.76435 0
M  V30 2063 C 192.387 0.610957 3.33347 0
M  V30 2064 C 191.56 1.73255 4.01624 0
M  V30 2065 C 190.619 1.26238 5.10833 0
M  V30 2066 O 189.645 1.96389 5.34247 0
M  V30 2067 N 190.847 0.123448 5.80369 0
M  V30 2068 H 193.612 2.02806 2.20658 0
M  V30 2069 H 191.173 1.19827 1.08871 0
M  V30 2070 H 193.165 0.280101 4.0373 0
M  V30 2071 H 191.735 -0.24898 3.11607 0
M  V30 2072 H 190.955 2.23319 3.24842 0
M  V30 2073 H 192.243 2.48503 4.43986 0
M  V30 2074 H 191.641 -0.461847 5.63812 0
M  V30 2075 H 190.198 -0.148158 6.51632 0
M  V30 2076 N 193.631 -1.12557 1.10312 0
M  V30 2077 C 194.564 -2.1737 0.694674 0
M  V30 2078 C 195.542 -1.59745 -0.303373 0
M  V30 2079 O 196.726 -1.87408 -0.202578 0
M  V30 2080 C 193.853 -3.38691 0.0248052 0
M  V30 2081 C 192.899 -4.14943 0.986121 0
M  V30 2082 S 193.732 -4.73413 2.50281 0
M  V30 2083 C 194.888 -5.9807 1.84562 0
M  V30 2084 H 195.121 -2.5168 1.58255 0
M  V30 2085 H 192.654 -1.23998 0.919992 0
M  V30 2086 H 194.612 -4.08959 -0.355361 0
M  V30 2087 H 193.273 -3.02664 -0.839851 0
M  V30 2088 H 192.466 -5.01854 0.464651 0
M  V30 2089 H 192.068 -3.50377 1.30813 0
M  V30 2090 H 194.36 -6.67232 1.17507 0
M  V30 2091 H 195.303 -6.54841 2.69423 0
M  V30 2092 H 195.711 -5.49073 1.31069 0
M  V30 2093 N 195.109 -0.891671 -1.2995 0
M  V30 2094 C 196.337 -0.52866 -2.00032 0
M  V30 2095 C 196.752 0.884574 -1.66795 0
M  V30 2096 O 196.109 1.5827 -0.908669 0
M  V30 2097 C 196.16 -0.701814 -3.54622 0
M  V30 2098 O 195.881 -2.05942 -3.86678 0
M  V30 2099 C 197.382 -0.342683 -4.41973 0
M  V30 2100 H 194.602 -0.203659 -0.639347 0
M  V30 2101 H 197.146 -1.19881 -1.65677 0
M  V30 2102 H 195.301 -0.0789468 -3.8732 0
M  V30 2103 H 195.715 -2.08291 -4.81368 0
M  V30 2104 H 197.189 -0.514709 -5.49595 0
M  V30 2105 H 197.666 0.71975 -4.33262 0
M  V30 2106 H 198.272 -0.942154 -4.14733 0
M  V30 2107 N 196.587 1.43421 -0.653314 0
M  V30 2108 C 197.55 2.29182 0.0287951 0
M  V30 2109 C 198.55 1.42213 0.750465 0
M  V30 2110 O 199.74 1.63843 0.591701 0
M  V30 2111 C 196.872 3.24278 1.05151 0
M  V30 2112 H 198.065 2.90985 -0.725786 0
M  V30 2113 H 195.618 1.50702 -0.414545 0
M  V30 2114 H 196.353 2.6737 1.83532 0
M  V30 2115 H 196.138 3.88396 0.537687 0
M  V30 2116 H 197.628 3.88647 1.52786 0
M  V30 2117 N 198.065 0.39524 1.52563 0
M  V30 2118 C 199.313 -0.184678 2.01254 0
M  V30 2119 C 199.634 -1.46822 1.28329 0
M  V30 2120 O 198.904 -1.91666 0.405094 0
M  V30 2121 H 197.484 -0.0712355 0.743596 0
M  V30 2122 H 200.146 0.528293 1.87603 0
M  V30 2123 H 199.242 -0.390681 3.09645 0
M  V30 2124 N 199.544 -1.57102 0.125237 0
M  V30 2125 C 200.769 -2.0019 -0.542101 0
M  V30 2126 C 201.194 -1.00449 -1.59034 0
M  V30 2127 O 200.552 0.0229423 -1.81285 0
M  V30 2128 C 200.6 -3.42129 -1.13929 0
M  V30 2129 O 199.704 -3.45307 -2.2547 0
M  V30 2130 H 199.045 -0.650171 -0.134812 0
M  V30 2131 H 201.575 -2.03461 0.215553 0
M  V30 2132 H 201.585 -3.80471 -1.4733 0
M  V30 2133 H 200.26 -4.14237 -0.371531 0
M  V30 2134 H 198.837 -3.1879 -1.93462 0
M  V30 2135 N 201.022 0.148545 -1.56898 0
M  V30 2136 C 202.268 0.857877 -1.84424 0
M  V30 2137 C 202.623 1.7886 -0.709006 0
M  V30 2138 O 201.916 1.89344 0.293139 0
M  V30 2139 C 202.11 1.67064 -3.1595 0
M  V30 2140 C 201.939 0.82011 -4.42159 0
M  V30 2141 C 200.709 0.486328 -5.02954 0
M  V30 2142 C 202.907 0.151155 -5.14078 0
M  V30 2143 N 200.889 -0.377956 -6.12735 0
M  V30 2144 C 202.26 -0.573333 -6.17343 0
M  V30 2145 C 204.315 0.0716685 -4.97848 0
M  V30 2146 C 203.018 -1.3698 -7.06137 0
M  V30 2147 C 205.044 -0.711532 -5.87104 0
M  V30 2148 C 204.406 -1.42431 -6.8985 0
M  V30 2149 H 200.505 0.291798 -0.725519 0
M  V30 2150 H 203.089 0.123347 -1.94309 0
M  V30 2151 H 201.26 2.37642 -3.07215 0
M  V30 2152 H 202.992 2.32302 -3.31388 0
M  V30 2153 H 199.747 0.821753 -4.66416 0
M  V30 2154 H 200.171 -0.801077 -6.72244 0
M  V30 2155 H 204.813 0.608381 -4.184 0
M  V30 2156 H 202.531 -1.91778 -7.85014 0
M  V30 2157 H 206.117 -0.775005 -5.76615 0
M  V30 2158 H 204.997 -2.02061 -7.57721 0
M  V30 2159 N 202.5 1.5196 0.417844 0
M  V30 2160 C 203.749 1.6482 1.16264 0
M  V30 2161 C 204.062 0.379886 1.91876 0
M  V30 2162 O 205.268 0.388154 2.68711 0
M  V30 2163 C 203.724 2.91161 2.1155 0
M  V30 2164 C 203.332 4.25068 1.41495 0
M  V30 2165 C 205.076 3.13383 2.86341 0
M  V30 2166 C 202.983 5.42541 2.35379 0
M  V30 2167 H 201.913 0.613954 0.437694 0
M  V30 2168 H 204.564 1.78442 0.427871 0
M  V30 2169 H 202.946 2.71218 2.88543 0
M  V30 2170 H 204.12 4.55463 0.699263 0
M  V30 2171 H 202.435 4.0888 0.787792 0
M  V30 2172 H 205.032 3.98324 3.5671 0
M  V30 2173 H 205.375 2.27256 3.48798 0
M  V30 2174 H 205.908 3.33757 2.1645 0
M  V30 2175 H 202.647 6.30987 1.77582 0
M  V30 2176 H 202.167 5.16497 3.04945 0
M  V30 2177 H 203.846 5.75272 2.96093 0
M  V30 2178 N 203.978 -0.674533 1.42435 0
M  V30 2179 C 205.208 -1.46071 1.46105 0
M  V30 2180 C 205.616 -1.89067 0.0709605 0
M  V30 2181 O 204.959 -1.58731 -0.924677 0
M  V30 2182 C 205.021 -2.74145 2.32561 0
M  V30 2183 C 204.685 -2.53224 3.8043 0
M  V30 2184 C 205.682 -2.17809 4.72075 0
M  V30 2185 C 203.367 -2.6821 4.24698 0
M  V30 2186 C 205.361 -1.97648 6.05982 0
M  V30 2187 C 203.048 -2.47665 5.58664 0
M  V30 2188 C 204.046 -2.12437 6.49122 0
M  V30 2189 O 203.734 -1.9209 7.80613 0
M  V30 2190 H 203.466 -0.455959 0.499076 0
M  V30 2191 H 206.02 -0.836193 1.87609 0
M  V30 2192 H 204.25 -3.3908 1.85908 0
M  V30 2193 H 205.939 -3.36028 2.27683 0
M  V30 2194 H 206.705 -2.05826 4.39159 0
M  V30 2195 H 202.584 -2.94609 3.54579 0
M  V30 2196 H 206.128 -1.70075 6.7655 0
M  V30 2197 H 202.025 -2.59244 5.91154 0
M  V30 2198 H 202.793 -2.06686 7.91974 0
M  V30 2199 N 205.456 -1.28612 -0.910864 0
M  V30 2200 C 206.705 -1.15311 -1.65488 0
M  V30 2201 C 207.018 0.296999 -1.93332 0
M  V30 2202 O 208.224 0.551168 -2.65847 0
M  V30 2203 C 206.68 -2.01599 -2.98137 0
M  V30 2204 C 206.288 -3.51367 -2.7793 0
M  V30 2205 C 208.032 -1.96993 -3.76024 0
M  V30 2206 C 205.939 -4.29797 -4.06237 0
M  V30 2207 H 204.869 -0.42796 -0.620779 0
M  V30 2208 H 207.52 -1.53166 -1.01057 0
M  V30 2209 H 205.902 -1.56603 -3.63719 0
M  V30 2210 H 207.076 -4.0434 -2.21011 0
M  V30 2211 H 205.391 -3.57529 -2.13452 0
M  V30 2212 H 207.988 -2.52856 -4.71135 0
M  V30 2213 H 208.331 -0.94733 -4.05378 0
M  V30 2214 H 208.864 -2.39973 -3.17266 0
M  V30 2215 H 205.603 -5.32648 -3.82055 0
M  V30 2216 H 205.123 -3.81596 -4.62757 0
M  V30 2217 H 206.802 -4.39869 -4.74473 0
M  V30 2218 N 206.934 1.1197 -1.10907 0
M  V30 2219 C 208.182 1.83225 -0.852819 0
M  V30 2220 C 208.503 1.84769 0.623341 0
M  V30 2221 O 207.773 1.3143 1.45269 0
M  V30 2222 H 206.353 0.67849 -0.312507 0
M  V30 2223 H 209.015 1.3556 -1.40033 0
M  V30 2224 H 208.111 2.87265 -1.22005 0
M  V30 2225 N 208.412 0.89855 1.29475 0
M  V30 2226 C 209.637 0.538561 2.00285 0
M  V30 2227 C 210.062 -0.869135 1.66816 0
M  V30 2228 O 209.42 -1.57831 0.892145 0
M  V30 2229 C 209.468 0.736475 3.52999 0
M  V30 2230 O 208.572 -0.211537 4.11857 0
M  V30 2231 H 207.913 0.210563 0.62973 0
M  V30 2232 H 210.443 1.20982 1.64998 0
M  V30 2233 H 210.453 0.640685 4.02938 0
M  V30 2234 H 209.128 1.76276 3.76696 0
M  V30 2235 H 207.705 -0.0682991 3.72837 0
M  V30 2236 N 209.89 -1.43072 0.660911 0
M  V30 2237 C 210.822 -2.29108 -0.0647641 0
M  V30 2238 C 211.835 -1.42928 -0.779448 0
M  V30 2239 O 213.024 -1.66788 -0.635921 0
M  V30 2240 C 210.124 -3.20032 -1.11503 0
M  V30 2241 C 209.297 -4.34792 -0.476955 0
M  V30 2242 C 208.356 -5.06534 -1.42513 0
M  V30 2243 O 207.382 -5.61538 -0.930771 0
M  V30 2244 N 208.584 -5.1075 -2.75889 0
M  V30 2245 H 211.349 -2.92029 0.673731 0
M  V30 2246 H 208.91 -1.53846 0.50427 0
M  V30 2247 H 210.902 -3.64892 -1.75032 0
M  V30 2248 H 209.472 -2.58658 -1.75541 0
M  V30 2249 H 208.692 -3.92752 0.337572 0
M  V30 2250 H 209.98 -5.0879 -0.0318525 0
M  V30 2251 H 209.378 -4.67447 -3.18606 0
M  V30 2252 H 207.935 -5.59302 -3.347 0
M  V30 2253 N 211.368 -0.403325 -1.52352 0
M  V30 2254 C 212.616 0.174003 -2.0135 0
M  V30 2255 C 212.937 1.46139 -1.29106 0
M  V30 2256 O 212.207 1.91448 -0.415253 0
M  V30 2257 H 210.787 0.0672911 -0.743963 0
M  V30 2258 H 213.449 -0.538235 -1.87321 0
M  V30 2259 H 212.545 0.374254 -3.09848 0
M  V30 2260 N 212.846 1.57033 -0.133567 0
M  V30 2261 C 214.095 1.94861 0.520768 0
M  V30 2262 C 214.408 1.02012 1.66892 0
M  V30 2263 O 215.614 1.29365 2.38699 0
M  V30 2264 C 214.07 3.46362 0.977809 0
M  V30 2265 C 213.678 4.47773 -0.142674 0
M  V30 2266 C 215.422 3.93083 1.60269 0
M  V30 2267 C 213.329 5.90468 0.331883 0
M  V30 2268 H 212.259 0.727453 0.198315 0
M  V30 2269 H 214.91 1.82227 -0.215759 0
M  V30 2270 H 213.292 3.54282 1.7692 0
M  V30 2271 H 214.466 4.51536 -0.919317 0
M  V30 2272 H 212.781 4.10891 -0.675124 0
M  V30 2273 H 215.378 4.97121 1.96914 0
M  V30 2274 H 215.721 3.33876 2.48662 0
M  V30 2275 H 216.254 3.88025 0.876453 0
M  V30 2276 H 212.993 6.53463 -0.516341 0
M  V30 2277 H 212.513 5.90094 1.07469 0
M  V30 2278 H 214.192 6.42179 0.788332 0
M  V30 2279 N 214.325 -0.140222 1.56975 0
M  V30 2280 C 215.571 -0.852949 1.83991 0
M  V30 2281 C 215.904 -1.80512 0.716187 0
M  V30 2282 O 215.179 -1.92479 -0.279681 0
M  V30 2283 C 215.462 -1.6215 3.21527 0
M  V30 2284 C 215.315 -0.690363 4.4447 0
M  V30 2285 C 216.634 -2.58247 3.56366 0
M  V30 2286 H 213.753 -0.308634 0.669264 0
M  V30 2287 H 216.395 -0.117898 1.89634 0
M  V30 2288 H 214.545 -2.24812 3.16847 0
M  V30 2289 H 216.217 -0.0742264 4.6124 0
M  V30 2290 H 214.46 -0.000396433 4.338 0
M  V30 2291 H 215.131 -1.2643 5.37326 0
M  V30 2292 H 217.607 -2.05701 3.61699 0
M  V30 2293 H 216.483 -3.09067 4.53617 0
M  V30 2294 H 216.744 -3.39923 2.82674 0
M  V30 2295 N 215.803 -1.52179 -0.40978 0
M  V30 2296 C 216.735 -1.71703 -1.51825 0
M  V30 2297 C 217.748 -0.597445 -1.51441 0
M  V30 2298 O 218.937 -0.872582 -1.55719 0
M  V30 2299 C 216.037 -1.74171 -2.90719 0
M  V30 2300 C 215.21 -3.03156 -3.15302 0
M  V30 2301 C 214.269 -2.97445 -4.34065 0
M  V30 2302 O 213.295 -3.71352 -4.31377 0
M  V30 2303 N 214.497 -2.15191 -5.39141 0
M  V30 2304 H 217.262 -2.67334 -1.35472 0
M  V30 2305 H 214.823 -1.50409 -0.599069 0
M  V30 2306 H 216.815 -1.67884 -3.68235 0
M  V30 2307 H 215.385 -0.860166 -3.00533 0
M  V30 2308 H 214.605 -3.23097 -2.25836 0
M  V30 2309 H 215.893 -3.88484 -3.28569 0
M  V30 2310 H 215.291 -1.54573 -5.44173 0
M  V30 2311 H 213.848 -2.1476 -6.15403 0
M  V30 2312 N 217.281 0.66697 -1.42791 0
M  V30 2313 C 218.529 1.42417 -1.43394 0
M  V30 2314 C 218.85 1.94925 -0.0542373 0
M  V30 2315 O 218.12 1.73564 0.908415 0
M  V30 2316 H 216.7 0.528515 -0.527902 0
M  V30 2317 H 219.362 0.787562 -1.78279 0
M  V30 2318 H 218.458 2.27333 -2.13837 0
M  V30 2319 N 218.759 1.29093 0.90403 0
M  V30 2320 C 219.987 1.19689 1.68766 0
M  V30 2321 C 220.402 -0.243113 1.87228 0
M  V30 2322 O 219.759 -1.16326 1.40621 0
M  V30 2323 C 219.81 1.90144 3.07453 0
M  V30 2324 O 219.531 3.2852 2.89838 0
M  V30 2325 C 221.032 1.87162 4.01852 0
M  V30 2326 H 218.252 0.415035 0.527244 0
M  V30 2327 H 220.796 1.7039 1.13082 0
M  V30 2328 H 218.951 1.43289 3.59926 0
M  V30 2329 H 219.365 3.63944 3.77684 0
M  V30 2330 H 220.839 2.41032 4.96596 0
M  V30 2331 H 221.316 0.84617 4.30972 0
M  V30 2332 H 221.922 2.33741 3.5531 0
M  V30 2333 N 220.237 -1.11381 1.11499 0
M  V30 2334 C 221.467 -1.86663 0.885464 0
M  V30 2335 C 221.875 -1.80464 -0.568281 0
M  V30 2336 O 221.218 -1.18445 -1.40415 0
M  V30 2337 C 221.28 -3.36337 1.26956 0
M  V30 2338 C 220.944 -3.66304 2.73259 0
M  V30 2339 C 221.941 -3.63733 3.71476 0
M  V30 2340 C 219.626 -3.9529 3.09921 0
M  V30 2341 C 221.62 -3.89725 5.04374 0
M  V30 2342 C 219.307 -4.20941 4.43004 0
M  V30 2343 C 220.305 -4.18147 5.40039 0
M  V30 2344 O 219.993 -4.43153 6.70724 0
M  V30 2345 H 219.725 -0.597114 0.316908 0
M  V30 2346 H 222.279 -1.41782 1.48617 0
M  V30 2347 H 220.509 -3.81826 0.611999 0
M  V30 2348 H 222.198 -3.92986 1.01573 0
M  V30 2349 H 222.964 -3.41389 3.44498 0
M  V30 2350 H 218.843 -3.966 2.35009 0
M  V30 2351 H 222.387 -3.8746 5.80104 0
M  V30 2352 H 218.284 -4.42761 4.69716 0
M  V30 2353 H 219.052 -4.60717 6.76522 0
M  V30 2354 N 221.715 -0.905404 -1.28997 0
M  V30 2355 C 222.625 -0.392246 -2.31298 0
M  V30 2356 C 223.641 0.515889 -1.66176 0
M  V30 2357 O 224.817 0.404093 -1.97304 0
M  V30 2358 C 221.882 0.36686 -3.44754 0
M  V30 2359 C 220.943 -0.573485 -4.25452 0
M  V30 2360 C 220.176 0.149488 -5.33491 0
M  V30 2361 O 220.399 1.37255 -5.5364 0
M  V30 2362 O 219.333 -0.510919 -5.99728 0
M  V30 2363 H 223.159 -1.2411 -2.77183 0
M  V30 2364 H 220.744 -0.669926 -1.33538 0
M  V30 2365 H 222.626 0.795907 -4.13816 0
M  V30 2366 H 221.301 1.19169 -3.00966 0
M  V30 2367 H 220.208 -1.05176 -3.59011 0
M  V30 2368 H 221.541 -1.36489 -4.72897 0
M  V30 2369 N 223.193 1.4272 -0.668489 0
M  V30 2370 C 224.421 2.05966 -0.196348 0
M  V30 2371 C 224.836 1.50191 1.14403 0
M  V30 2372 O 224.193 0.639208 1.7094 0
M  V30 2373 C 224.244 3.61314 -0.115815 0
M  V30 2374 O 223.965 4.1502 -1.40322 0
M  V30 2375 C 225.466 4.41663 0.380579 0
M  V30 2376 H 222.686 0.663954 -0.0969829 0
M  V30 2377 H 225.23 1.82966 -0.913446 0
M  V30 2378 H 223.385 3.83448 0.551931 0
M  V30 2379 H 223.799 5.08832 -1.27243 0
M  V30 2380 H 225.273 5.5065 0.385848 0
M  V30 2381 H 225.75 4.15792 1.41471 0
M  V30 2382 H 226.356 4.24534 -0.255209 0
M  V30 2383 N 224.671 0.411399 1.52136 0
M  V30 2384 C 225.918 -0.163645 2.01838 0
M  V30 2385 C 226.246 -1.4495 1.29691 0
M  V30 2386 O 225.501 -1.91725 0.392431 0
M  V30 2387 C 225.8 -0.455872 3.54481 0
M  V30 2388 C 225.466 0.741055 4.44769 0
M  V30 2389 C 224.128 1.06936 4.69167 0
M  V30 2390 C 226.48 1.54075 4.97906 0
M  V30 2391 C 223.808 2.19851 5.43951 0
M  V30 2392 C 226.16 2.66067 5.73926 0
M  V30 2393 C 224.824 2.99381 5.96596 0
M  V30 2394 H 224.094 -0.0598821 0.738576 0
M  V30 2395 H 226.741 0.553283 1.83333 0
M  V30 2396 H 225.046 -1.2544 3.71177 0
M  V30 2397 H 226.743 -0.913802 3.90449 0
M  V30 2398 H 223.333 0.475192 4.25958 0
M  V30 2399 H 227.517 1.30033 4.78963 0
M  V30 2400 H 222.773 2.46006 5.59724 0
M  V30 2401 H 226.947 3.28419 6.14096 0
M  V30 2402 H 224.574 3.86992 6.54325 0
M  V30 2403 N 226.149 -1.5696 0.141893 0
M  V30 2404 C 227.395 -1.9625 -0.511248 0
M  V30 2405 C 227.728 -1.02654 -1.64851 0
M  V30 2406 O 227.003 -0.0679676 -1.94381 0
M  V30 2407 C 227.286 -3.45285 -1.02227 0
M  V30 2408 C 227.139 -4.49658 0.113138 0
M  V30 2409 C 228.458 -3.96698 -1.90574 0
M  V30 2410 H 225.577 -0.713567 -0.184367 0
M  V30 2411 H 228.219 -1.88698 0.222087 0
M  V30 2412 H 226.369 -3.51852 -1.64719 0
M  V30 2413 H 228.041 -4.55174 0.749302 0
M  V30 2414 H 226.284 -4.26857 0.773026 0
M  V30 2415 H 226.955 -5.51258 -0.286053 0
M  V30 2416 H 229.431 -3.92578 -1.37918 0
M  V30 2417 H 228.307 -5.01453 -2.2324 0
M  V30 2418 H 228.568 -3.3875 -2.84079 0
M  V30 2419 N 227.627 0.131896 -1.57047 0
M  V30 2420 C 228.537 1.1815 -2.02676 0
M  V30 2421 C 229.553 1.46113 -0.944824 0
M  V30 2422 O 230.729 1.57485 -1.25541 0
M  V30 2423 C 227.794 2.49139 -2.41103 0
M  V30 2424 C 226.855 2.28688 -3.63318 0
M  V30 2425 C 226.088 3.53431 -3.99903 0
M  V30 2426 O 226.311 4.60223 -3.36973 0
M  V30 2427 O 225.245 3.45198 -4.93074 0
M  V30 2428 H 229.071 0.824069 -2.92306 0
M  V30 2429 H 226.656 0.341745 -1.45439 0
M  V30 2430 H 228.538 3.26338 -2.66611 0
M  V30 2431 H 227.213 2.84382 -1.54624 0
M  V30 2432 H 226.12 1.4939 -3.42977 0
M  V30 2433 H 227.453 1.98355 -4.50462 0
M  V30 2434 N 229.106 1.52395 0.401703 0
M  V30 2435 C 230.069 1.75636 1.47257 0
M  V30 2436 C 231.069 0.62628 1.48103 0
M  V30 2437 O 232.259 0.894227 1.49497 0
M  V30 2438 C 229.391 1.84553 2.86624 0
M  V30 2439 H 230.584 2.71241 1.27938 0
M  V30 2440 H 228.137 1.42923 0.632662 0
M  V30 2441 H 228.872 0.908882 3.11303 0
M  V30 2442 H 228.657 2.66715 2.87412 0
M  V30 2443 H 230.147 2.04251 3.64241 0
M  V30 2444 N 230.584 -0.659388 1.43143 0
M  V30 2445 C 231.832 -1.41654 1.44147 0
M  V30 2446 C 232.153 -1.94893 0.0645739 0
M  V30 2447 O 231.423 -1.74044 -0.899198 0
M  V30 2448 H 230.003 -0.525708 0.530697 0
M  V30 2449 H 232.665 -0.778097 1.78694 0
M  V30 2450 H 231.761 -2.26195 2.1504 0
M  V30 2451 N 232.062 -1.29571 -0.897171 0
M  V30 2452 C 233.478 -1.07637 -1.17841 0
M  V30 2453 C 233.678 0.170713 -2.00776 0
M  V30 2454 O 232.734 0.867768 -2.3712 0
M  V30 2455 C 234.047 -2.3332 -1.8969 0
M  V30 2456 C 235.595 -2.38664 -2.02505 0
M  V30 2457 C 236.07 -3.64157 -2.77765 0
M  V30 2458 N 237.561 -3.64894 -2.85318 0
M  V30 2459 C 238.296 -4.58679 -3.44094 0
M  V30 2460 N 237.792 -5.62799 -4.04017 0
M  V30 2461 N 239.585 -4.46245 -3.41793 0
M  V30 2462 H 231.736 -2.09598 -0.343883 0
M  V30 2463 H 233.999 -0.923333 -0.214848 0
M  V30 2464 H 233.705 -3.24262 -1.36187 0
M  V30 2465 H 233.579 -2.41025 -2.9015 0
M  V30 2466 H 235.966 -1.48208 -2.55183 0
M  V30 2467 H 236.047 -2.34943 -1.01171 0
M  V30 2468 H 235.691 -4.54965 -2.25763 0
M  V30 2469 H 235.621 -3.65137 -3.7945 0
M  V30 2470 H 238.112 -2.89613 -2.42761 0
M  V30 2471 H 238.425 -6.3048 -4.46895 0
M  V30 2472 H 236.77 -5.66605 -4.02472 0
M  V30 2473 H 239.961 -3.64094 -2.94199 0
M  V30 2474 H 240.134 -5.19518 -3.87304 0
M  V30 2475 N 233.54 1.10788 -1.12088 0
M  V30 2476 C 234.472 2.16816 -0.743213 0
M  V30 2477 C 235.485 1.6119 0.228412 0
M  V30 2478 O 236.674 1.78497 0.0102931 0
M  V30 2479 C 233.774 3.38809 -0.0787313 0
M  V30 2480 C 232.947 4.23885 -1.0789 0
M  V30 2481 C 232.006 5.24334 -0.442713 0
M  V30 2482 O 231.032 5.58497 -1.09864 0
M  V30 2483 N 232.234 5.75079 0.791457 0
M  V30 2484 H 234.999 2.49825 -1.65552 0
M  V30 2485 H 232.56 1.26373 -1.012 0
M  V30 2486 H 234.552 4.03107 0.358766 0
M  V30 2487 H 233.122 3.03805 0.736275 0
M  V30 2488 H 232.342 3.55939 -1.69414 0
M  V30 2489 H 233.63 4.77562 -1.75533 0
M  V30 2490 H 233.028 5.49517 1.3434 0
M  V30 2491 H 231.585 6.4118 1.17183 0
M  V30 2492 N 235.018 0.912232 1.28515 0
M  V30 2493 C 235.968 0.370649 2.24967 0
M  V30 2494 C 236.952 -0.516375 1.52389 0
M  V30 2495 O 238.144 -0.356345 1.73376 0
M  V30 2496 C 235.273 -0.389526 3.41083 0
M  V30 2497 C 234.359 0.51313 4.20984 0
M  V30 2498 N 234.75 1.62604 4.78951 0
M  V30 2499 C 233.048 0.313235 4.44899 0
M  V30 2500 C 233.749 2.18619 5.39055 0
M  V30 2501 N 232.725 1.47765 5.23132 0
M  V30 2502 H 236.527 1.22061 2.67354 0
M  V30 2503 H 234.041 0.764712 1.43269 0
M  V30 2504 H 236.038 -0.794353 4.09262 0
M  V30 2505 H 234.698 -1.2366 3.0023 0
M  V30 2506 H 235.709 2.00864 4.77362 0
M  V30 2507 H 232.386 -0.494452 4.14562 0
M  V30 2508 H 233.776 3.12228 5.94948 0
M  V30 2509 N 236.496 -1.42363 0.676048 0
M  V30 2510 C 237.726 -2.05561 0.206967 0
M  V30 2511 C 238.134 -1.50887 -1.14148 0
M  V30 2512 O 237.477 -0.643933 -1.72044 0
M  V30 2513 C 237.539 -3.5944 0.0659508 0
M  V30 2514 C 237.203 -4.36812 1.34331 0
M  V30 2515 C 238.2 -4.67383 2.27704 0
M  V30 2516 C 235.885 -4.76429 1.59125 0
M  V30 2517 C 237.879 -5.36509 3.44147 0
M  V30 2518 C 235.566 -5.45294 2.75857 0
M  V30 2519 C 236.564 -5.75259 3.68193 0
M  V30 2520 O 236.252 -6.42712 4.82883 0
M  V30 2521 H 235.984 -0.668872 0.0979084 0
M  V30 2522 H 238.538 -1.83467 0.923531 0
M  V30 2523 H 236.768 -3.80197 -0.706204 0
M  V30 2524 H 238.457 -4.0427 -0.363418 0
M  V30 2525 H 239.223 -4.37275 2.09799 0
M  V30 2526 H 235.102 -4.52498 0.881258 0
M  V30 2527 H 238.646 -5.59814 4.16238 0
M  V30 2528 H 234.543 -5.7482 2.93688 0
M  V30 2529 H 235.311 -6.61204 4.82444 0
M  V30 2530 N 237.974 -0.419461 -1.51915 0
M  V30 2531 C 239.222 0.152637 -2.01523 0
M  V30 2532 C 239.543 1.44762 -1.30649 0
M  V30 2533 O 238.813 1.90997 -0.435535 0
M  V30 2534 H 237.393 0.0593966 -0.744635 0
M  V30 2535 H 240.055 -0.558073 -1.86739 0
M  V30 2536 H 239.151 0.341369 -3.10227 0
M  V30 2537 N 239.452 1.56882 -0.150215 0
M  V30 2538 C 240.7 1.9584 0.499105 0
M  V30 2539 C 241.021 1.03623 1.65188 0
M  V30 2540 O 240.291 0.0984084 1.95653 0
M  V30 2541 H 238.871 0.723119 0.187373 0
M  V30 2542 H 241.533 1.9358 -0.226466 0
M  V30 2543 H 240.629 2.99638 0.873122 0
M  V30 2544 N 240.93 -0.123565 1.57115 0
M  V30 2545 C 242.155 -0.850398 1.89164 0
M  V30 2546 C 242.58 -1.7286 0.741688 0
M  V30 2547 O 241.938 -1.78665 -0.307958 0
M  V30 2548 C 241.986 -1.66353 3.19936 0
M  V30 2549 O 241.09 -2.77004 3.0552 0
M  V30 2550 H 240.431 -0.235454 0.620852 0
M  V30 2551 H 242.961 -0.107335 2.04318 0
M  V30 2552 H 242.971 -2.05372 3.52543 0
M  V30 2553 H 241.646 -1.01881 4.03228 0
M  V30 2554 H 240.223 -2.41221 2.84371 0
M  V30 2555 N 242.408 -1.52605 -0.393616 0
M  V30 2556 C 243.338 -1.80022 -1.48709 0
M  V30 2557 C 244.319 -0.651995 -1.57108 0
M  V30 2558 O 245.504 -0.89913 -1.72132 0
M  V30 2559 C 242.634 -1.96492 -2.86371 0
M  V30 2560 C 241.588 -3.12161 -2.92813 0
M  V30 2561 C 240.914 -3.13877 -4.3288 0
M  V30 2562 C 242.214 -4.51322 -2.6288 0
M  V30 2563 H 243.908 -2.71589 -1.26015 0
M  V30 2564 H 241.454 -1.30684 -0.604778 0
M  V30 2565 H 243.407 -2.14255 -3.62867 0
M  V30 2566 H 242.131 -1.01611 -3.10391 0
M  V30 2567 H 240.79 -2.94173 -2.18764 0
M  V30 2568 H 240.438 -2.16687 -4.53933 0
M  V30 2569 H 240.138 -3.91576 -4.38112 0
M  V30 2570 H 241.662 -3.33789 -5.1129 0
M  V30 2571 H 243.076 -4.69435 -3.29096 0
M  V30 2572 H 241.473 -5.31053 -2.79468 0
M  V30 2573 H 242.543 -4.58353 -1.58242 0
M  V30 2574 N 243.887 0.651787 -1.4349 0
M  V30 2575 C 244.834 1.76462 -1.4876 0
M  V30 2576 C 245.804 1.62641 -0.337189 0
M  V30 2577 O 246.989 1.82864 -0.544544 0
M  V30 2578 C 244.129 3.14623 -1.41796 0
M  V30 2579 C 243.242 3.39568 -2.67053 0
M  V30 2580 C 242.377 4.67585 -2.52068 0
M  V30 2581 C 241.416 4.85639 -3.72587 0
M  V30 2582 N 240.553 6.04915 -3.56402 0
M  V30 2583 H 245.393 1.71293 -2.43849 0
M  V30 2584 H 242.93 0.835889 -1.21043 0
M  V30 2585 H 244.888 3.94496 -1.35753 0
M  V30 2586 H 243.518 3.18859 -0.50288 0
M  V30 2587 H 242.57 2.53783 -2.8337 0
M  V30 2588 H 243.882 3.48795 -3.56572 0
M  V30 2589 H 243.036 5.55586 -2.4374 0
M  V30 2590 H 241.775 4.60681 -1.60075 0
M  V30 2591 H 240.78 3.96073 -3.81321 0
M  V30 2592 H 242.005 4.94372 -4.65589 0
M  V30 2593 H 239.951 5.9914 -2.67146 0
M  V30 2594 H 239.868 6.15106 -4.39524 0
M  V30 2595 H 241.136 6.95533 -3.51929 0
M  V30 2596 N 245.365 1.30045 0.890287 0
M  V30 2597 C 246.613 1.18327 1.63839 0
M  V30 2598 C 246.934 -0.263455 1.93212 0
M  V30 2599 O 246.204 -1.17856 1.56482 0
M  V30 2600 H 244.784 0.434933 0.607324 0
M  V30 2601 H 247.446 1.631 1.06698 0
M  V30 2602 H 246.542 1.74024 2.59079 0
M  V30 2603 N 246.843 -1.10192 1.12674 0
M  V30 2604 C 247.79 -2.16606 0.796906 0
M  V30 2605 C 248.76 -1.64394 -0.237476 0
M  V30 2606 O 249.945 -1.90474 -0.111484 0
M  V30 2607 C 247.085 -3.44116 0.26043 0
M  V30 2608 C 246.198 -4.10268 1.35293 0
M  V30 2609 C 245.333 -5.25507 0.775621 0
M  V30 2610 C 244.372 -5.83567 1.84706 0
M  V30 2611 N 243.509 -6.90179 1.28829 0
M  V30 2612 H 248.349 -2.44163 1.70846 0
M  V30 2613 H 245.886 -1.19846 0.85295 0
M  V30 2614 H 247.844 -4.17143 -0.0686814 0
M  V30 2615 H 246.474 -3.16901 -0.614274 0
M  V30 2616 H 245.526 -3.35184 1.79877 0
M  V30 2617 H 246.838 -4.4946 2.16303 0
M  V30 2618 H 245.992 -6.05398 0.397327 0
M  V30 2619 H 244.731 -4.87656 -0.0656581 0
M  V30 2620 H 243.736 -5.02344 2.23452 0
M  V30 2621 H 244.961 -6.23482 2.69161 0
M  V30 2622 H 242.907 -6.54322 0.468881 0
M  V30 2623 H 242.824 -7.28097 2.03497 0
M  V30 2624 H 244.092 -7.73844 0.937311 0
M  V30 2625 N 248.321 -0.919034 -1.28029 0
M  V30 2626 C 249.567 -0.565221 -1.95389 0
M  V30 2627 C 249.922 0.882325 -1.70976 0
M  V30 2628 O 249.215 1.61988 -1.02325 0
M  V30 2629 C 249.409 -0.816855 -3.4794 0
M  V30 2630 C 249.238 -2.28731 -3.87185 0
M  V30 2631 C 248.008 -2.93841 -4.11079 0
M  V30 2632 C 250.206 -3.26415 -3.97439 0
M  V30 2633 N 248.188 -4.31129 -4.37037 0
M  V30 2634 C 249.559 -4.48884 -4.27672 0
M  V30 2635 C 251.614 -3.21742 -3.79982 0
M  V30 2636 C 250.317 -5.67268 -4.42266 0
M  V30 2637 C 252.343 -4.39431 -3.95796 0
M  V30 2638 C 251.705 -5.60675 -4.26407 0
M  V30 2639 H 247.804 -0.256797 -0.738633 0
M  V30 2640 H 250.388 -1.18386 -1.54573 0
M  V30 2641 H 248.559 -0.227445 -3.87733 0
M  V30 2642 H 250.291 -0.426542 -4.02446 0
M  V30 2643 H 247.046 -2.44547 -4.05578 0
M  V30 2644 H 247.47 -5.02127 -4.5409 0
M  V30 2645 H 252.112 -2.29079 -3.55363 0
M  V30 2646 H 249.83 -6.60406 -4.65714 0
M  V30 2647 H 253.416 -4.37323 -3.83719 0
M  V30 2648 H 252.296 -6.50223 -4.38383 0
M  V30 2649 N 249.799 1.42003 -0.683588 0
M  V30 2650 C 251.045 2.01712 -0.209825 0
M  V30 2651 C 251.378 1.53968 1.18353 0
M  V30 2652 O 250.653 0.745661 1.79639 0
M  V30 2653 C 250.936 3.59202 -0.254197 0
M  V30 2654 C 250.789 4.17102 -1.68363 0
M  V30 2655 C 252.108 4.38344 0.392709 0
M  V30 2656 H 249.227 0.732891 -0.0777189 0
M  V30 2657 H 251.869 1.68909 -0.87004 0
M  V30 2658 H 250.019 3.87278 0.307954 0
M  V30 2659 H 251.691 3.99946 -2.29871 0
M  V30 2660 H 249.934 3.72597 -2.22157 0
M  V30 2661 H 250.605 5.26249 -1.6663 0
M  V30 2662 H 253.081 4.16011 -0.0859162 0
M  V30 2663 H 251.957 5.47901 0.331063 0
M  V30 2664 H 252.218 4.16887 1.47164 0
M  V30 2665 N 251.277 0.427512 1.51691 0
M  V30 2666 C 252.207 -0.3796 2.30394 0
M  V30 2667 C 253.188 -1.02982 1.35384 0
M  V30 2668 O 254.373 -1.03534 1.643 0
M  V30 2669 C 251.503 -1.48649 3.1388 0
M  V30 2670 C 250.457 -0.960294 4.17088 0
M  V30 2671 C 249.783 -2.16219 4.89033 0
M  V30 2672 C 251.083 -0.00153679 5.223 0
M  V30 2673 H 252.777 0.277164 2.98114 0
M  V30 2674 H 250.323 0.134739 1.43368 0
M  V30 2675 H 252.276 -2.05826 3.67714 0
M  V30 2676 H 251 -2.1714 2.43962 0
M  V30 2677 H 249.659 -0.410806 3.64291 0
M  V30 2678 H 249.307 -2.83307 4.15628 0
M  V30 2679 H 249.007 -1.81654 5.58816 0
M  V30 2680 H 250.531 -2.73968 5.45687 0
M  V30 2681 H 251.945 -0.482687 5.71264 0
M  V30 2682 H 250.342 0.256199 5.99553 0
M  V30 2683 H 251.412 0.938174 4.75738 0
M  V30 2684 N 252.755 -1.56801 0.158532 0
M  V30 2685 C 253.983 -2.00859 -0.496303 0
M  V30 2686 C 254.398 -1.03871 -1.57659 0
M  V30 2687 O 253.755 -0.0375165 -1.82461 0
M  V30 2688 C 253.806 -3.4479 -1.08638 0
M  V30 2689 O 253.527 -4.38072 -0.0492322 0
M  V30 2690 C 255.028 -4.04185 -1.8207 0
M  V30 2691 H 252.248 -0.65864 -0.128199 0
M  V30 2692 H 254.792 -2.02885 0.256506 0
M  V30 2693 H 252.947 -3.43579 -1.78975 0
M  V30 2694 H 253.361 -5.2227 -0.483102 0
M  V30 2695 H 254.835 -5.06857 -2.18633 0
M  V30 2696 H 255.312 -3.45549 -2.71095 0
M  V30 2697 H 255.918 -4.0906 -1.16405 0
M  V30 2698 N 254.233 0.115231 -1.57178 0
M  V30 2699 C 255.196 1.12526 -1.99676 0
M  V30 2700 C 256.196 1.34095 -0.88742 0
M  V30 2701 O 257.386 1.30548 -1.15337 0
M  V30 2702 C 254.518 2.4789 -2.34015 0
M  V30 2703 H 255.711 0.759912 -2.90113 0
M  V30 2704 H 253.264 0.359648 -1.52106 0
M  V30 2705 H 253.999 2.89339 -1.4647 0
M  V30 2706 H 253.784 2.33588 -3.14927 0
M  V30 2707 H 255.274 3.20575 -2.67622 0
M  V30 2708 N 255.711 1.52812 0.385517 0
M  V30 2709 C 256.959 1.67694 1.12797 0
M  V30 2710 C 257.28 0.421115 1.90399 0
M  V30 2711 O 256.55 -0.564551 1.87589 0
M  V30 2712 H 255.13 0.618155 0.419396 0
M  V30 2713 H 257.792 1.89938 0.436972 0
M  V30 2714 H 256.888 2.52896 1.82894 0
M  V30 2715 N 257.189 -0.644168 1.43834 0
M  V30 2716 C 258.119 -1.76814 1.52509 0
M  V30 2717 C 259.1 -1.65823 0.379052 0
M  V30 2718 O 260.285 -1.84781 0.597466 0
M  V30 2719 C 257.415 -3.15288 1.4564 0
M  V30 2720 C 256.369 -3.41053 2.58586 0
M  V30 2721 C 255.695 -4.79421 2.36769 0
M  V30 2722 C 256.995 -3.34902 4.00797 0
M  V30 2723 H 258.689 -1.69812 2.46586 0
M  V30 2724 H 256.235 -0.815542 1.1868 0
M  V30 2725 H 258.188 -3.93681 1.50311 0
M  V30 2726 H 256.912 -3.23043 0.480725 0
M  V30 2727 H 255.571 -2.65035 2.53282 0
M  V30 2728 H 255.219 -4.83863 1.37424 0
M  V30 2729 H 254.919 -4.9762 3.12487 0
M  V30 2730 H 256.443 -5.6006 2.43238 0
M  V30 2731 H 257.857 -4.03218 4.07539 0
M  V30 2732 H 256.254 -3.64637 4.76613 0
M  V30 2733 H 257.324 -2.32928 4.25291 0
M  V30 2734 N 258.668 -1.30515 -0.883378 0
M  V30 2735 C 259.916 -1.19194 -1.63209 0
M  V30 2736 C 260.237 0.253205 -1.93349 0
M  V30 2737 O 259.507 1.17025 -1.57105 0
M  V30 2738 H 258.087 -0.438148 -0.605009 0
M  V30 2739 H 260.749 -1.63663 -1.05832 0
M  V30 2740 H 259.845 -1.75396 -2.58153 0
M  V30 2741 N 260.146 1.09593 -1.13257 0
M  V30 2742 C 261.394 1.81375 -0.891492 0
M  V30 2743 C 261.715 1.86049 0.584009 0
M  V30 2744 O 260.985 1.34481 1.42449 0
M  V30 2745 H 259.565 0.671708 -0.326828 0
M  V30 2746 H 262.227 1.3256 -1.42877 0
M  V30 2747 H 261.323 2.84612 -1.28071 0
M  V30 2748 N 261.624 0.925811 1.2754 0
M  V30 2749 C 262.557 0.367836 2.25216 0
M  V30 2750 C 263.535 -0.534738 1.53556 0
M  V30 2751 O 264.719 -0.475672 1.824 0
M  V30 2752 C 261.846 -0.47298 3.35381 0
M  V30 2753 C 260.892 0.365898 4.24928 0
M  V30 2754 S 261.725 1.78025 5.05042 0
M  V30 2755 C 262.881 0.947068 6.18693 0
M  V30 2756 H 263.114 1.19568 2.72196 0
M  V30 2757 H 260.647 0.727867 1.36167 0
M  V30 2758 H 262.605 -0.952242 3.99303 0
M  V30 2759 H 261.266 -1.27533 2.87044 0
M  V30 2760 H 260.459 -0.277582 5.03235 0
M  V30 2761 H 260.061 0.779261 3.65792 0
M  V30 2762 H 262.353 0.182201 6.77255 0
M  V30 2763 H 263.296 1.70309 6.87314 0
M  V30 2764 H 263.704 0.489913 5.6237 0
M  V30 2765 N 263.102 -1.41638 0.69111 0
M  V30 2766 C 264.35 -2.00902 0.219758 0
M  V30 2767 C 264.671 -1.54994 -1.18329 0
M  V30 2768 O 263.941 -0.778628 -1.79762 0
M  V30 2769 H 262.521 -0.74289 0.0782558 0
M  V30 2770 H 265.183 -1.73327 0.891271 0
M  V30 2771 H 264.279 -3.11224 0.233708 0
M  V30 2772 N 264.58 -0.43555 -1.51462 0
M  V30 2773 C 265.828 0.131254 -2.01673 0
M  V30 2774 C 266.149 1.43368 -1.32177 0
M  V30 2775 O 265.419 1.90524 -0.455769 0
M  V30 2776 H 263.999 0.0514954 -0.745223 0
M  V30 2777 H 266.661 -0.577847 -1.86137 0
M  V30 2778 H 265.757 0.308446 -3.10572 0
M  V30 2779 N 266.058 1.56714 -0.166846 0
M  V30 2780 C 267.021 2.16539 0.751232 0
M  V30 2781 C 268.021 1.11228 1.16125 0
M  V30 2782 O 269.211 1.36765 1.07894 0
M  V30 2783 C 266.343 2.74462 2.02196 0
M  V30 2784 H 267.536 2.99013 0.230499 0
M  V30 2785 H 265.089 1.56081 0.0826982 0
M  V30 2786 H 265.824 1.95709 2.58589 0
M  V30 2787 H 265.609 3.51527 1.73698 0
M  V30 2788 H 267.099 3.20489 2.67725 0
M  V30 2789 N 267.536 -0.106894 1.57237 0
M  V30 2790 C 268.468 -1.15646 1.97885 0
M  V30 2791 C 269.481 -1.36981 0.879779 0
M  V30 2792 O 270.67 -1.35841 1.15799 0
M  V30 2793 C 267.77 -2.51425 2.27241 0
M  V30 2794 C 266.943 -2.50529 3.58545 0
M  V30 2795 C 266.002 -3.68145 3.75973 0
M  V30 2796 O 265.028 -3.51176 4.47956 0
M  V30 2797 N 266.23 -4.87177 3.15656 0
M  V30 2798 H 268.995 -0.81059 2.8853 0
M  V30 2799 H 266.556 -0.296024 1.59171 0
M  V30 2800 H 268.548 -3.28689 2.36105 0
M  V30 2801 H 267.118 -2.78147 1.42663 0
M  V30 2802 H 266.338 -1.58894 3.60758 0
M  V30 2803 H 267.626 -2.46997 4.44826 0
M  V30 2804 H 267.024 -5.03868 2.57165 0
M  V30 2805 H 265.581 -5.62075 3.30023 0
M  V30 2806 N 269.014 -1.53014 -0.377408 0
M  V30 2807 C 270.425 -1.60438 -0.954798 0
M  V30 2808 C 270.776 -0.464418 -1.90624 0
M  V30 2809 O 269.901 0.41087 -2.12464 0
M  V30 2810 C 270.496 -2.90797 -1.73847 0
M  V30 2811 C 269.055 -3.00595 -2.26538 0
M  V30 2812 C 268.202 -2.55645 -1.07429 0
M  V30 2813 H 271.153 -1.57926 -0.156575 0
M  V30 2814 H 271.174 -2.77935 -2.5987 0
M  V30 2815 H 270.686 -3.73746 -1.04574 0
M  V30 2816 H 268.787 -2.22208 -2.99089 0
M  V30 2817 H 268.9 -4.05456 -2.5523 0
M  V30 2818 H 267.264 -2.10239 -1.43777 0
M  V30 2819 H 268.047 -3.41 -0.396728 0
M  V30 2820 N 270.492 0.636531 -1.44174 0
M  V30 2821 C 271.422 1.76003 -1.53444 0
M  V30 2822 C 272.403 1.65619 -0.387841 0
M  V30 2823 O 273.588 1.84461 -0.607257 0
M  V30 2824 C 270.718 3.14511 -1.4731 0
M  V30 2825 C 269.672 3.39677 -2.60391 0
M  V30 2826 C 268.998 4.78159 -2.39308 0
M  V30 2827 C 270.298 3.32772 -4.02567 0
M  V30 2828 H 271.992 1.68501 -2.47483 0
M  V30 2829 H 269.538 0.809237 -1.19111 0
M  V30 2830 H 271.491 3.92878 -1.52397 0
M  V30 2831 H 270.215 3.22783 -0.49785 0
M  V30 2832 H 268.874 2.63688 -2.54684 0
M  V30 2833 H 268.522 4.83128 -1.39988 0
M  V30 2834 H 268.222 4.95956 -3.15122 0
M  V30 2835 H 269.746 5.58762 -2.46205 0
M  V30 2836 H 271.16 4.01051 -4.09672 0
M  V30 2837 H 269.557 3.62104 -4.7854 0
M  V30 2838 H 270.627 2.30669 -4.2652 0
M  V30 2839 N 271.97 1.30982 0.876444 0
M  V30 2840 C 272.933 1.18054 1.96459 0
M  V30 2841 C 273.933 0.109399 1.60427 0
M  V30 2842 O 275.123 0.358173 1.70478 0
M  V30 2843 C 272.255 0.810616 3.31122 0
M  V30 2844 H 273.448 2.14735 2.09354 0
M  V30 2845 H 271.001 1.145 1.06392 0
M  V30 2846 H 271.736 -0.155322 3.23928 0
M  V30 2847 H 271.521 1.58481 3.58645 0
M  V30 2848 H 273.011 0.743876 4.10921 0
M  V30 2849 N 273.449 -1.08991 1.13837 0
M  V30 2850 C 274.412 -2.13925 0.822715 0
M  V30 2851 C 275.412 -1.599 -0.1699 0
M  V30 2852 O 276.602 -1.74104 0.0577251 0
M  V30 2853 C 273.734 -3.40155 0.225318 0
M  V30 2854 H 274.927 -2.43358 1.75262 0
M  V30 2855 H 272.48 -1.24603 0.943594 0
M  V30 2856 H 273.215 -3.16352 -0.713594 0
M  V30 2857 H 273 -3.80661 0.940193 0
M  V30 2858 H 274.49 -4.17594 0.0214784 0
M  V30 2859 N 274.927 -0.932562 -1.27047 0
M  V30 2860 C 276.155 -0.592031 -1.98249 0
M  V30 2861 C 276.57 0.831062 -1.69525 0
M  V30 2862 O 275.927 1.55299 -0.958561 0
M  V30 2863 C 275.978 -0.814279 -3.5221 0
M  V30 2864 O 275.699 -2.18139 -3.7993 0
M  V30 2865 C 277.2 -0.483121 -4.4066 0
M  V30 2866 H 274.42 -0.223896 -0.632544 0
M  V30 2867 H 276.964 -1.25091 -1.61779 0
M  V30 2868 H 275.119 -0.20213 -3.86872 0
M  V30 2869 H 275.533 -2.235 -4.74498 0
M  V30 2870 H 277.007 -0.689298 -5.47679 0
M  V30 2871 H 277.484 0.581546 -4.35333 0
M  V30 2872 H 278.09 -1.07362 -4.11526 0
M  V30 2873 N 276.405 1.4127 -0.698611 0
M  V30 2874 C 277.335 2.33447 -0.049629 0
M  V30 2875 C 278.316 1.51982 0.763898 0
M  V30 2876 O 279.501 1.80509 0.716257 0
M  V30 2877 C 276.631 3.35828 0.885267 0
M  V30 2878 C 275.585 4.27627 0.178613 0
M  V30 2879 C 274.911 5.20406 1.22807 0
M  V30 2880 C 276.211 5.13459 -0.956933 0
M  V30 2881 H 277.905 2.87966 -0.81951 0
M  V30 2882 H 275.451 1.38461 -0.395538 0
M  V30 2883 H 277.404 3.9924 1.34854 0
M  V30 2884 H 276.128 2.79666 1.68685 0
M  V30 2885 H 274.787 3.65643 -0.26466 0
M  V30 2886 H 274.435 4.60558 2.02226 0
M  V30 2887 H 274.135 5.82661 0.760239 0
M  V30 2888 H 275.659 5.86695 1.69179 0
M  V30 2889 H 277.073 5.70421 -0.573805 0
M  V30 2890 H 275.47 5.8467 -1.35205 0
M  V30 2891 H 276.54 4.50443 -1.79524 0
M  V30 2892 N 277.883 0.443576 1.51229 0
M  V30 2893 C 278.846 -0.353132 2.26463 0
M  V30 2894 C 279.846 -0.944338 1.3015 0
M  V30 2895 O 281.036 -0.817813 1.5381 0
M  V30 2896 C 278.168 -1.50023 3.06114 0
M  V30 2897 H 279.361 0.3063 2.98332 0
M  V30 2898 H 276.914 0.196902 1.55055 0
M  V30 2899 H 277.649 -2.19553 2.38677 0
M  V30 2900 H 277.434 -1.08241 3.76864 0
M  V30 2901 H 278.924 -2.06296 3.63087 0
M  V30 2902 N 279.361 -1.56624 0.175154 0
M  V30 2903 C 280.609 -1.96609 -0.467885 0
M  V30 2904 C 280.93 -1.06238 -1.63519 0
M  V30 2905 O 280.2 -0.129523 -1.95471 0
M  V30 2906 H 278.78 -0.726008 -0.175845 0
M  V30 2907 H 281.442 -1.93195 0.257234 0
M  V30 2908 H 280.538 -3.00989 -0.825342 0
M  V30 2909 N 280.839 0.0985539 -1.57292 0
M  V30 2910 C 281.802 1.10402 -2.00858 0
M  V30 2911 C 282.802 1.33146 -0.901593 0
M  V30 2912 O 283.992 1.29318 -1.16716 0
M  V30 2913 C 281.124 2.45394 -2.36632 0
M  V30 2914 H 282.317 0.729099 -2.90902 0
M  V30 2915 H 279.87 0.343495 -1.52479 0
M  V30 2916 H 280.605 2.87769 -1.49531 0
M  V30 2917 H 280.39 2.30235 -3.17387 0
M  V30 2918 H 281.88 3.17718 -2.71007 0
M  V30 2919 N 282.317 1.53212 0.369288 0
M  V30 2920 C 283.557 1.70915 1.12105 0
M  V30 2921 C 283.921 0.449444 1.86665 0
M  V30 2922 O 285.122 0.503105 2.6405 0
M  V30 2923 C 283.393 2.9222 2.05772 0
M  V30 2924 S 284.952 3.30609 2.88519 0
M  V30 2925 H 281.77 0.601445 0.379189 0
M  V30 2926 H 284.372 1.91306 0.402794 0
M  V30 2927 H 283.076 3.82103 1.49752 0
M  V30 2928 H 282.607 2.7422 2.82076 0
M  V30 2929 H 284.622 2.82333 4.08047 0
M  V30 2930 N 283.795 -0.628877 1.44509 0
M  V30 2931 C 285.02 -1.42048 1.5112 0
M  V30 2932 C 285.445 -1.87594 0.137818 0
M  V30 2933 O 284.803 -1.58873 -0.873437 0
M  V30 2934 C 284.851 -2.61541 2.48251 0
M  V30 2935 O 283.955 -3.61453 1.98559 0
M  V30 2936 H 283.296 -0.424942 0.510216 0
M  V30 2937 H 285.826 -0.767374 1.89664 0
M  V30 2938 H 285.836 -3.09057 2.66361 0
M  V30 2939 H 284.511 -2.27736 3.48007 0
M  V30 2940 H 283.088 -3.20731 1.90227 0
M  V30 2941 N 285.273 -1.31445 -0.869486 0
M  V30 2942 C 286.203 -1.21727 -1.99261 0
M  V30 2943 C 287.184 -0.104359 -1.6978 0
M  V30 2944 O 288.369 -0.289038 -1.92037 0
M  V30 2945 C 285.499 -0.924317 -3.34774 0
M  V30 2946 C 284.453 -1.99685 -3.78563 0
M  V30 2947 C 283.779 -1.55658 -5.11541 0
M  V30 2948 C 285.079 -3.41003 -3.95619 0
M  V30 2949 H 286.773 -2.1569 -2.07649 0
M  V30 2950 H 284.319 -1.03839 -0.997675 0
M  V30 2951 H 286.272 -0.842934 -4.12883 0
M  V30 2952 H 284.996 0.0509793 -3.2656 0
M  V30 2953 H 283.655 -2.06813 -3.02694 0
M  V30 2954 H 283.303 -0.569132 -4.9977 0
M  V30 2955 H 283.003 -2.27409 -5.41811 0
M  V30 2956 H 284.527 -1.48928 -5.92159 0
M  V30 2957 H 285.941 -3.36547 -4.64122 0
M  V30 2958 H 284.338 -4.10975 -4.37286 0
M  V30 2959 H 285.408 -3.81754 -2.98985 0
M  V30 2960 N 286.751 1.08385 -1.14413 0
M  V30 2961 C 287.699 2.17406 -0.826888 0
M  V30 2962 C 288.693 1.6827 0.195312 0
M  V30 2963 O 289.899 1.79927 0.0513892 0
M  V30 2964 H 286.274 0.70934 -0.249681 0
M  V30 2965 H 288.245 2.41388 -1.75426 0
M  V30 2966 C 286.994 3.46215 -0.320979 0
M  V30 2967 H 286.317 3.84401 -1.0989 0
M  V30 2968 H 287.757 4.23777 -0.137549 0
M  V30 2969 C 286.216 3.23067 0.955472 0
M  V30 2970 O 286.746 3.4668 2.02918 0
M  V30 2971 N 284.952 2.7661 0.890798 0
M  V30 2972 H 284.499 2.57594 0.0168815 0
M  V30 2973 H 284.457 2.61501 1.74542 0
M  V30 2974 N 288.23 0.939286 1.26551 0
M  V30 2975 C 289.479 0.581601 1.93133 0
M  V30 2976 C 289.792 -0.883224 1.74524 0
M  V30 2977 O 290.998 -1.3502 2.35546 0
M  V30 2978 C 289.454 0.989425 3.46032 0
M  V30 2979 C 289.062 2.47573 3.73379 0
M  V30 2980 C 290.806 0.703544 4.18629 0
M  V30 2981 C 288.713 2.82235 5.19709 0
M  V30 2982 H 287.643 0.213803 0.723052 0
M  V30 2983 H 290.294 1.14167 1.4366 0
M  V30 2984 H 288.676 0.357902 3.94379 0
M  V30 2985 H 289.85 3.15614 3.35744 0
M  V30 2986 H 288.165 2.73471 3.1401 0
M  V30 2987 H 290.762 0.938869 5.26393 0
M  V30 2988 H 291.105 -0.359639 4.14744 0
M  V30 2989 H 291.638 1.2947 3.76141 0
M  V30 2990 H 288.377 3.87509 5.28694 0
M  V30 2991 H 287.897 2.18854 5.58447 0
M  V30 2992 H 289.576 2.70599 5.87695 0
M  V30 2993 N 289.708 -1.40897 0.706093 0
M  V30 2994 C 290.618 -2.3455 0.0482286 0
M  V30 2995 C 291.634 -1.56796 -0.754396 0
M  V30 2996 O 292.81 -1.89228 -0.689538 0
M  V30 2997 C 289.875 -3.35625 -0.869303 0
M  V30 2998 C 288.936 -4.29261 -0.0576994 0
M  V30 2999 C 288.169 -5.25508 -0.931531 0
M  V30 3000 O 288.392 -5.27472 -2.17092 0
M  V30 3001 O 287.326 -6.00727 -0.375587 0
M  V30 3002 H 291.152 -2.92407 0.820476 0
M  V30 3003 H 288.737 -1.4193 0.4665 0
M  V30 3004 H 290.619 -3.97635 -1.39514 0
M  V30 3005 H 289.294 -2.80196 -1.62086 0
M  V30 3006 H 288.201 -3.70566 0.512988 0
M  V30 3007 H 289.534 -4.87817 0.655426 0
M  V30 3008 N 291.186 -0.45159 -1.50991 0
M  V30 3009 C 292.426 0.109066 -2.04109 0
M  V30 3010 C 292.79 1.38716 -1.32747 0
M  V30 3011 O 293.991 2.02896 -1.76314 0
M  V30 3012 C 292.262 0.308354 -3.56067 0
M  V30 3013 S 293.821 0.830369 -4.30872 0
M  V30 3014 H 290.639 0.0251531 -0.710555 0
M  V30 3015 H 293.241 -0.614264 -1.85599 0
M  V30 3016 H 291.945 -0.627962 -4.05567 0
M  V30 3017 H 291.476 1.05836 -3.78896 0
M  V30 3018 H 293.491 2.10626 -4.49279 0
M  V30 3019 N 292.664 1.56529 -0.183458 0
M  V30 3020 C 293.596 2.15747 0.773697 0
M  V30 3021 C 294.609 1.1162 1.1851 0
M  V30 3022 O 295.798 1.3876 1.12285 0
M  V30 3023 C 292.898 2.6952 2.05456 0
M  V30 3024 C 292.071 3.98429 1.8048 0
M  V30 3025 C 291.13 4.37145 2.92901 0
M  V30 3026 O 290.156 5.04791 2.6301 0
M  V30 3027 N 291.358 3.99695 4.2098 0
M  V30 3028 H 294.123 2.98505 0.26736 0
M  V30 3029 H 291.684 1.619 -0.0010878 0
M  V30 3030 H 293.676 2.92412 2.79781 0
M  V30 3031 H 292.246 1.91282 2.47245 0
M  V30 3032 H 291.466 3.8379 0.899947 0
M  V30 3033 H 292.754 4.82597 1.61175 0
M  V30 3034 H 292.152 3.4526 4.48121 0
M  V30 3035 H 290.709 4.27562 4.9197 0
M  V30 3036 N 294.142 -0.090211 1.57342 0
M  V30 3037 C 295.074 -1.13541 1.99101 0
M  V30 3038 C 296.087 -1.3604 0.894258 0
M  V30 3039 O 297.276 -1.34606 1.17233 0
M  V30 3040 C 294.376 -2.49001 2.29895 0
M  V30 3041 C 293.549 -2.46712 3.61182 0
M  V30 3042 C 292.608 -3.64136 3.79857 0
M  V30 3043 O 291.634 -3.46405 4.51655 0
M  V30 3044 N 292.836 -4.83802 3.20806 0
M  V30 3045 H 295.601 -0.779942 2.89373 0
M  V30 3046 H 293.162 -0.279125 1.59476 0
M  V30 3047 H 295.154 -3.26166 2.39578 0
M  V30 3048 H 293.724 -2.76619 1.45605 0
M  V30 3049 H 292.944 -1.55058 3.62423 0
M  V30 3050 H 294.232 -2.42265 4.4742 0
M  V30 3051 H 293.63 -5.01112 2.62494 0
M  V30 3052 H 292.187 -5.58543 3.35966 0
M  V30 3053 N 295.62 -1.53406 -0.361157 0
M  V30 3054 C 296.845 -1.74024 -1.12829 0
M  V30 3055 C 297.27 -0.470069 -1.82132 0
M  V30 3056 O 296.628 0.57619 -1.719 0
M  V30 3057 C 296.676 -2.90903 -2.13091 0
M  V30 3058 O 295.78 -2.59821 -3.20261 0
M  V30 3059 H 295.121 -0.577804 -0.327168 0
M  V30 3060 H 297.651 -2.00307 -0.41693 0
M  V30 3061 H 297.661 -3.17194 -2.56616 0
M  V30 3062 H 296.336 -3.83034 -1.62042 0
M  V30 3063 H 294.913 -2.44362 -2.81677 0
M  V30 3064 N 297.098 0.621204 -1.44841 0
M  V30 3065 C 298.514 0.94048 -1.28946 0
M  V30 3066 C 298.714 2.00154 -0.23249 0
M  V30 3067 O 297.77 2.49651 0.378237 0
M  V30 3068 C 299.083 1.39433 -2.66419 0
M  V30 3069 C 300.631 1.50927 -2.74208 0
M  V30 3070 C 301.106 1.99692 -4.12174 0
M  V30 3071 N 302.597 2.06947 -4.144 0
M  V30 3072 C 303.332 2.45871 -5.1801 0
M  V30 3073 N 302.828 2.83862 -6.31977 0
M  V30 3074 N 304.621 2.46092 -5.05366 0
M  V30 3075 H 296.772 -0.0803548 -2.12248 0
M  V30 3076 H 299.035 0.0266913 -0.947624 0
M  V30 3077 H 298.741 0.688925 -3.44887 0
M  V30 3078 H 298.615 2.36347 -2.93973 0
M  V30 3079 H 301.002 2.20561 -1.96053 0
M  V30 3080 H 301.083 0.523627 -2.50383 0
M  V30 3081 H 300.727 1.30649 -4.90809 0
M  V30 3082 H 300.657 2.99146 -4.33381 0
M  V30 3083 H 303.148 1.80232 -3.32152 0
M  V30 3084 H 303.461 3.12405 -7.0684 0
M  V30 3085 H 301.806 2.8159 -6.35399 0
M  V30 3086 H 304.997 2.1581 -4.15384 0
M  V30 3087 H 305.17 2.76102 -5.86235 0
M  V30 3088 N 298.576 1.31904 0.862503 0
M  V30 3089 C 299.825 1.21373 1.61094 0
M  V30 3090 C 300.138 -0.22504 1.94301 0
M  V30 3091 O 301.344 -0.452121 2.67709 0
M  V30 3092 C 299.8 2.12525 2.9045 0
M  V30 3093 C 299.408 3.61441 2.64697 0
M  V30 3094 C 301.152 2.10813 3.68454 0
M  V30 3095 C 299.059 4.44578 3.90006 0
M  V30 3096 H 297.989 0.450705 0.604468 0
M  V30 3097 H 300.64 1.56811 0.953027 0
M  V30 3098 H 299.022 1.69994 3.57656 0
M  V30 3099 H 300.196 4.12264 2.05851 0
M  V30 3100 H 298.511 3.65205 2.00036 0
M  V30 3101 H 301.108 2.70167 4.61426 0
M  V30 3102 H 301.451 1.09713 4.01583 0
M  V30 3103 H 301.984 2.51583 3.08141 0
M  V30 3104 H 298.723 5.46461 3.62023 0
M  V30 3105 H 298.243 3.98508 4.48276 0
M  V30 3106 H 299.922 4.57176 4.5782 0
M  V30 3107 N 300.054 -1.07777 1.14986 0
M  V30 3108 C 301.331 -1.7699 0.832695 0
M  V30 3109 C 301.711 -2.001 -0.672561 0
M  V30 3110 O 301.059 -1.61598 -1.6155 0
M  V30 3111 C 301.269 -3.08139 1.63863 0
M  V30 3112 C 302.617 -3.8256 1.84208 0
M  V30 3113 O 303.641 -3.17939 1.60603 0
M  V30 3114 O 302.5 -4.98612 2.23714 0
M  V30 3115 H 299.594 -0.768389 0.305791 0
M  V30 3116 H 302.14 -1.14182 1.25541 0
M  V30 3117 H 300.912 -2.86909 2.6608 0
M  V30 3118 H 300.535 -3.78678 1.21197 0
M  V30 3119 N 301.532 -0.945985 -1.26051 0
M  V30 3120 C 302.779 -0.596118 -1.93527 0
M  V30 3121 C 303.107 0.865559 -1.74179 0
M  V30 3122 O 302.362 1.63524 -1.0751 0
M  V30 3123 C 302.661 -0.890475 -3.46129 0
M  V30 3124 C 302.327 -2.3368 -3.85622 0
M  V30 3125 C 300.989 -2.73216 -3.96114 0
M  V30 3126 C 303.341 -3.27648 -4.05334 0
M  V30 3127 C 300.669 -4.05806 -4.2372 0
M  V30 3128 C 303.021 -4.59841 -4.3443 0
M  V30 3129 C 301.685 -4.99185 -4.43137 0
M  V30 3130 H 300.955 -0.218135 -0.708165 0
M  V30 3131 H 303.602 -1.1934 -1.49768 0
M  V30 3132 H 301.907 -0.210711 -3.91233 0
M  V30 3133 H 303.604 -0.598478 -3.96509 0
M  V30 3134 H 300.194 -2.02015 -3.78005 0
M  V30 3135 H 304.378 -2.98298 -3.96651 0
M  V30 3136 H 299.634 -4.35945 -4.28675 0
M  V30 3137 H 303.808 -5.32641 -4.48628 0
M  V30 3138 H 301.435 -6.01952 -4.64282 0
M  V30 3139 N 303.011 1.40521 -0.713556 0
M  V30 3140 C 304.427 1.54839 -0.386907 0
M  V30 3141 C 304.627 1.68532 1.1045 0
M  V30 3142 O 303.683 1.67377 1.89053 0
M  V30 3143 C 304.996 2.77792 -1.15118 0
M  V30 3144 C 306.544 2.91607 -1.13729 0
M  V30 3145 C 307.019 4.1747 -1.88368 0
M  V30 3146 N 308.51 4.24466 -1.85427 0
M  V30 3147 C 309.245 5.20755 -2.40004 0
M  V30 3148 N 308.741 6.22965 -3.03129 0
M  V30 3149 N 310.534 5.1282 -2.30158 0
M  V30 3150 H 302.685 1.29879 -1.68063 0
M  V30 3151 H 304.948 0.627896 -0.710247 0
M  V30 3152 H 304.654 2.73944 -2.20561 0
M  V30 3153 H 304.528 3.6984 -0.741477 0
M  V30 3154 H 306.915 2.94959 -0.0910608 0
M  V30 3155 H 306.996 2.00682 -1.5862 0
M  V30 3156 H 306.64 4.1488 -2.9298 0
M  V30 3157 H 306.57 5.074 -1.40898 0
M  V30 3158 H 309.061 3.51241 -1.3942 0
M  V30 3159 H 309.374 6.92859 -3.42295 0
M  V30 3160 H 307.719 6.23415 -3.07212 0
M  V30 3161 H 310.91 4.31899 -1.80501 0
M  V30 3162 H 311.083 5.87689 -2.72993 0
M  V30 3163 N 304.489 0.459591 1.5075 0
M  V30 3164 C 305.419 -0.330644 2.31147 0
M  V30 3165 C 306.4 -1.00087 1.37538 0
M  V30 3166 O 307.585 -1.00025 1.66459 0
M  V30 3167 C 304.715 -1.41958 3.16962 0
M  V30 3168 C 303.669 -0.871608 4.19031 0
M  V30 3169 C 302.995 -2.05797 4.9351 0
M  V30 3170 C 304.295 0.109251 5.22186 0
M  V30 3171 H 305.989 0.340336 2.97459 0
M  V30 3172 H 303.535 0.165119 1.4305 0
M  V30 3173 H 305.488 -1.9798 3.71997 0
M  V30 3174 H 304.212 -2.11917 2.48513 0
M  V30 3175 H 302.871 -0.333442 3.6508 0
M  V30 3176 H 302.519 -2.74427 4.21544 0
M  V30 3177 H 302.219 -1.6976 5.62544 0
M  V30 3178 H 303.743 -2.62331 5.51375 0
M  V30 3179 H 305.157 -0.361405 5.7216 0
M  V30 3180 H 303.554 0.383316 5.98875 0
M  V30 3181 H 304.624 1.03887 4.73641 0
M  V30 3182 N 305.967 -1.56429 0.191757 0
M  V30 3183 C 306.877 -2.22541 -0.742481 0
M  V30 3184 C 307.893 -1.22342 -1.23727 0
M  V30 3185 O 309.069 -1.55069 -1.28513 0
M  V30 3186 C 306.134 -2.8692 -1.94623 0
M  V30 3187 C 305.195 -4.02378 -1.49633 0
M  V30 3188 C 304.428 -4.63678 -2.6427 0
M  V30 3189 O 304.651 -4.23895 -3.81666 0
M  V30 3190 O 303.585 -5.53202 -2.37174 0
M  V30 3191 H 307.411 -3.02977 -0.209462 0
M  V30 3192 H 304.996 -1.49353 -0.0373832 0
M  V30 3193 H 306.878 -3.27663 -2.64982 0
M  V30 3194 H 305.553 -2.09466 -2.46791 0
M  V30 3195 H 304.46 -3.66265 -0.761636 0
M  V30 3196 H 305.793 -4.81487 -1.02134 0
M  V30 3197 N 307.445 0.0818655 -1.57387 0
M  V30 3198 C 308.673 0.796108 -1.9097 0
M  V30 3199 C 309.088 1.71626 -0.786757 0
M  V30 3200 O 308.445 1.80908 0.240513 0
M  V30 3201 C 308.496 1.59829 -3.24248 0
M  V30 3202 O 308.217 0.715131 -4.32224 0
M  V30 3203 C 309.718 2.41442 -3.7178 0
M  V30 3204 H 306.938 0.22691 -0.631469 0
M  V30 3205 H 309.482 0.0551439 -2.04426 0
M  V30 3206 H 307.637 2.29163 -3.12351 0
M  V30 3207 H 308.051 1.27205 -5.08841 0
M  V30 3208 H 309.525 2.932 -4.67694 0
M  V30 3209 H 310.002 3.2051 -3.00283 0
M  V30 3210 H 310.608 1.77283 -3.86589 0
M  V30 3211 N 308.923 1.53595 0.353017 0
M  V30 3212 C 310.339 1.43648 0.695516 0
M  V30 3213 C 310.539 0.585617 1.92802 0
M  V30 3214 O 309.595 0.0729223 2.52395 0
M  V30 3215 C 310.908 2.8701 0.896991 0
M  V30 3216 C 312.456 2.96723 0.996209 0
M  V30 3217 C 312.931 4.41173 1.23007 0
M  V30 3218 N 314.422 4.44657 1.29749 0
M  V30 3219 C 315.157 5.53547 1.49577 0
M  V30 3220 N 314.653 6.72461 1.66639 0
M  V30 3221 N 316.446 5.41145 1.52048 0
M  V30 3222 H 308.597 2.07415 -0.457481 0
M  V30 3223 H 310.86 0.9372 -0.142687 0
M  V30 3224 H 310.566 3.51644 0.0629938 0
M  V30 3225 H 310.44 3.31401 1.80148 0
M  V30 3226 H 312.827 2.32235 1.82074 0
M  V30 3227 H 312.908 2.55707 0.0688331 0
M  V30 3228 H 312.552 5.06238 0.410505 0
M  V30 3229 H 312.482 4.79772 2.17086 0
M  V30 3230 H 314.973 3.58963 1.18126 0
M  V30 3231 H 315.286 7.51214 1.81378 0
M  V30 3232 H 313.631 6.75423 1.63794 0
M  V30 3233 H 316.822 4.47205 1.38294 0
M  V30 3234 H 316.995 6.26068 1.67159 0
M  V30 3235 N 310.401 -0.613514 1.45168 0
M  V30 3236 C 311.631 -1.39743 1.52169 0
M  V30 3237 C 312.039 -1.88596 0.151086 0
M  V30 3238 O 311.382 -1.6251 -0.856521 0
M  V30 3239 C 311.444 -2.64035 2.43979 0
M  V30 3240 C 311.108 -2.36861 3.90827 0
M  V30 3241 C 312.105 -1.97591 4.80889 0
M  V30 3242 C 309.79 -2.49956 4.35692 0
M  V30 3243 C 311.784 -1.71768 6.1382 0
M  V30 3244 C 309.471 -2.23747 5.68665 0
M  V30 3245 C 310.469 -1.84714 6.57548 0
M  V30 3246 O 310.157 -1.58809 7.88058 0
M  V30 3247 H 309.889 -0.434382 0.517966 0
M  V30 3248 H 312.443 -0.75587 1.90986 0
M  V30 3249 H 310.673 -3.3089 2.00122 0
M  V30 3250 H 312.362 -3.26069 2.41731 0
M  V30 3251 H 313.128 -1.87015 4.47493 0
M  V30 3252 H 309.007 -2.79305 3.66756 0
M  V30 3253 H 312.551 -1.41227 6.83155 0
M  V30 3254 H 308.448 -2.33938 6.01617 0
M  V30 3255 H 309.216 -1.7291 8.00028 0
M  V30 3256 N 311.879 -1.3236 -0.855495 0
M  V30 3257 C 313.125 -1.23054 -1.612 0
M  V30 3258 C 313.458 0.207404 -1.93089 0
M  V30 3259 O 312.733 1.14432 -1.57275 0
M  V30 3260 C 313.016 -2.08937 -2.93287 0
M  V30 3261 C 312.869 -3.61105 -2.68185 0
M  V30 3262 C 314.188 -1.94986 -3.94549 0
M  V30 3263 H 311.307 -0.448364 -0.584926 0
M  V30 3264 H 313.949 -1.62297 -0.987917 0
M  V30 3265 H 312.099 -1.75599 -3.46551 0
M  V30 3266 H 313.771 -4.04652 -2.21483 0
M  V30 3267 H 312.014 -3.83813 -2.02164 0
M  V30 3268 H 312.685 -4.16522 -3.62234 0
M  V30 3269 H 315.161 -2.24189 -3.5054 0
M  V30 3270 H 314.037 -2.57356 -4.84829 0
M  V30 3271 H 314.298 -0.917263 -4.3248 0
M  V30 3272 N 313.357 1.07166 -1.15556 0
M  V30 3273 C 314.634 1.76546 -0.842069 0
M  V30 3274 C 315.014 2.00453 0.661939 0
M  V30 3275 O 314.362 1.62452 1.60691 0
M  V30 3276 C 314.572 3.07266 -1.65495 0
M  V30 3277 C 315.92 3.81578 -1.86234 0
M  V30 3278 O 316.944 3.17083 -1.62287 0
M  V30 3279 O 315.803 4.97419 -2.26355 0
M  V30 3280 H 312.897 0.766756 -0.309862 0
M  V30 3281 H 315.443 1.13514 -1.26145 0
M  V30 3282 H 314.215 2.85494 -2.67598 0
M  V30 3283 H 313.838 3.7803 -1.23203 0
M  V30 3284 N 314.835 0.952656 1.25548 0
M  V30 3285 C 315.745 0.47782 2.29682 0
M  V30 3286 C 316.761 -0.453859 1.67977 0
M  V30 3287 O 317.937 -0.330587 1.98668 0
M  V30 3288 C 315.002 -0.238655 3.45878 0
M  V30 3289 C 314.063 0.730994 4.23031 0
M  V30 3290 C 313.296 0.0486165 5.33678 0
M  V30 3291 O 313.519 -1.16612 5.58353 0
M  V30 3292 O 312.453 0.733152 5.97418 0
M  V30 3293 H 316.279 1.34312 2.72386 0
M  V30 3294 H 313.864 0.719026 1.30959 0
M  V30 3295 H 315.746 -0.641774 4.16484 0
M  V30 3296 H 314.421 -1.07916 3.05181 0
M  V30 3297 H 313.328 1.18428 3.5486 0
M  V30 3298 H 314.661 1.53946 4.67506 0
M  V30 3299 N 316.313 -1.40141 0.720998 0
M  V30 3300 C 317.245 -2.29177 0.0324669 0
M  V30 3301 C 318.258 -1.46105 -0.718126 0
M  V30 3302 O 319.447 -1.69335 -0.564608 0
M  V30 3303 C 316.547 -3.24473 -0.978292 0
M  V30 3304 C 315.72 -4.36423 -0.292115 0
M  V30 3305 C 314.779 -5.12122 -1.20901 0
M  V30 3306 O 313.805 -5.64981 -0.691766 0
M  V30 3307 N 315.007 -5.21992 -2.53978 0
M  V30 3308 H 317.772 -2.88909 0.796984 0
M  V30 3309 H 315.333 -1.51569 0.569068 0
M  V30 3310 H 317.325 -3.71987 -1.59398 0
M  V30 3311 H 315.895 -2.65871 -1.64413 0
M  V30 3312 H 315.115 -3.90967 0.503847 0
M  V30 3313 H 316.403 -5.08467 0.183971 0
M  V30 3314 H 315.801 -4.8054 -2.98493 0
M  V30 3315 H 314.358 -5.72995 -3.10677 0
M  V30 3316 N 317.792 -0.46758 -1.50504 0
M  V30 3317 C 318.755 0.317059 -2.26996 0
M  V30 3318 C 319.755 0.923513 -1.31635 0
M  V30 3319 O 320.945 0.793239 -1.55091 0
M  V30 3320 C 318.077 1.45134 -3.08462 0
M  V30 3321 H 319.27 -0.353723 -2.97807 0
M  V30 3322 H 316.823 -0.221545 -1.54722 0
M  V30 3323 H 317.558 2.15728 -2.4214 0
M  V30 3324 H 317.343 1.02232 -3.78538 0
M  V30 3325 H 318.833 2.00493 -3.66323 0
M  V30 3326 N 319.27 1.56325 -0.20005 0
M  V30 3327 C 320.498 2.02105 0.442874 0
M  V30 3328 C 320.913 1.08014 1.5485 0
M  V30 3329 O 320.27 0.0858797 1.82298 0
M  V30 3330 C 320.321 3.47549 0.994583 0
M  V30 3331 O 320.042 4.38049 -0.0669322 0
M  V30 3332 C 321.543 4.0887 1.7129 0
M  V30 3333 H 318.763 0.661807 0.110691 0
M  V30 3334 H 321.307 2.02134 -0.310207 0
M  V30 3335 H 319.462 3.48204 1.69803 0
M  V30 3336 H 319.876 5.23368 0.344462 0
M  V30 3337 H 321.35 5.12475 2.05118 0
M  V30 3338 H 321.827 3.52615 2.61838 0
M  V30 3339 H 322.433 4.12002 1.05518 0
M  V30 3340 N 320.748 -0.0735177 1.57428 0
M  V30 3341 C 322.025 -0.805903 1.78226 0
M  V30 3342 C 322.405 -1.95874 0.787189 0
M  V30 3343 O 321.753 -2.2779 -0.180029 0
M  V30 3344 C 321.963 -1.28045 3.24662 0
M  V30 3345 C 323.311 -1.71453 3.88444 0
M  V30 3346 O 324.335 -1.37616 3.28543 0
M  V30 3347 O 323.194 -2.34093 4.93825 0
M  V30 3348 H 320.288 -0.386041 0.73137 0
M  V30 3349 H 322.834 -0.0537269 1.69615 0
M  V30 3350 H 321.606 -0.455476 3.8864 0
M  V30 3351 H 321.229 -2.094 3.37991 0
M  V30 3352 N 322.226 -1.5378 -0.344866 0
M  V30 3353 C 323.156 -1.84662 -1.42906 0
M  V30 3354 C 324.137 -0.701648 -1.54955 0
M  V30 3355 O 325.322 -0.953438 -1.69184 0
M  V30 3356 C 322.452 -2.05503 -2.79974 0
M  V30 3357 C 321.406 -3.21318 -2.82734 0
M  V30 3358 C 320.732 -3.2749 -4.22675 0
M  V30 3359 C 322.032 -4.59456 -2.48389 0
M  V30 3360 H 323.726 -2.75461 -1.17311 0
M  V30 3361 H 321.272 -1.32542 -0.562896 0
M  V30 3362 H 323.225 -2.25691 -3.55867 0
M  V30 3363 H 321.949 -1.11434 -3.07002 0
M  V30 3364 H 320.608 -3.00984 -2.09294 0
M  V30 3365 H 320.256 -2.31019 -4.4681 0
M  V30 3366 H 319.956 -4.05316 -4.25433 0
M  V30 3367 H 321.48 -3.49887 -5.00412 0
M  V30 3368 H 322.894 -4.79667 -3.13995 0
M  V30 3369 H 321.291 -5.39675 -2.62432 0
M  V30 3370 H 322.361 -4.63155 -1.4358 0
M  V30 3371 N 323.704 0.605807 -1.45491 0
M  V30 3372 C 324.981 1.36522 -1.40075 0
M  V30 3373 C 325.361 2.10976 -0.0722744 0
M  V30 3374 O 324.709 2.08007 0.945808 0
M  V30 3375 C 324.919 2.31056 -2.61561 0
M  V30 3376 C 326.267 2.93608 -3.06724 0
M  V30 3377 O 327.291 2.41376 -2.61946 0
M  V30 3378 O 326.15 3.88421 -3.84437 0
M  V30 3379 H 323.244 0.612248 -0.555951 0
M  V30 3380 H 325.79 0.628747 -1.57623 0
M  V30 3381 H 324.562 1.75311 -3.49831 0
M  V30 3382 H 324.185 3.12081 -2.46356 0
M  V30 3383 N 325.182 1.32811 0.848464 0
M  V30 3384 C 326.459 1.14334 1.58704 0
M  V30 3385 C 326.839 -0.293948 2.09043 0
M  V30 3386 O 326.187 -1.29153 1.88499 0
M  V30 3387 C 326.397 2.17626 2.72837 0
M  V30 3388 C 327.745 2.51282 3.42261 0
M  V30 3389 O 328.769 2.16219 2.83068 0
M  V30 3390 O 327.628 3.11413 4.49093 0
M  V30 3391 H 324.722 0.441601 0.699226 0
M  V30 3392 H 327.268 1.44362 0.892053 0
M  V30 3393 H 326.04 3.14211 2.3321 0
M  V30 3394 H 325.663 1.88628 3.50008 0
M  V30 3395 N 326.66 -1.06551 1.16123 0
M  V30 3396 C 327.623 -2.12132 0.867906 0
M  V30 3397 C 328.623 -1.60224 -0.135944 0
M  V30 3398 O 329.813 -1.73943 0.0946422 0
M  V30 3399 C 326.945 -3.396 0.297419 0
M  V30 3400 H 328.138 -2.39586 1.80385 0
M  V30 3401 H 325.691 -1.22574 0.969812 0
M  V30 3402 H 326.426 -3.17794 -0.64633 0
M  V30 3403 H 326.211 -3.78581 1.02073 0
M  V30 3404 H 327.701 -4.17455 0.110052 0
M  V30 3405 N 328.138 -0.959301 -1.25041 0
M  V30 3406 C 329.068 -0.501388 -2.28053 0
M  V30 3407 C 330.049 0.454673 -1.63911 0
M  V30 3408 O 331.234 0.352618 -1.90972 0
M  V30 3409 C 328.364 0.217224 -3.4662 0
M  V30 3410 C 327.318 -0.654034 -4.22973 0
M  V30 3411 C 326.644 0.195589 -5.34342 0
M  V30 3412 C 327.944 -1.93447 -4.85155 0
M  V30 3413 H 329.638 -1.36238 -2.66608 0
M  V30 3414 H 327.184 -0.656534 -1.28163 0
M  V30 3415 H 329.137 0.548732 -4.17812 0
M  V30 3416 H 327.861 1.1125 -3.07068 0
M  V30 3417 H 326.52 -0.968693 -3.5357 0
M  V30 3418 H 326.168 1.09076 -4.91031 0
M  V30 3419 H 325.868 -0.384091 -5.86343 0
M  V30 3420 H 327.392 0.521958 -6.08365 0
M  V30 3421 H 328.806 -1.66908 -5.48466 0
M  V30 3422 H 327.203 -2.46018 -5.47353 0
M  V30 3423 H 328.273 -2.63466 -4.07079 0
M  V30 3424 N 329.616 1.39756 -0.72842 0
M  V30 3425 C 330.579 2.29012 -0.0927297 0
M  V30 3426 C 331.579 1.45992 0.674025 0
M  V30 3427 O 332.769 1.66749 0.50402 0
M  V30 3428 C 329.901 3.29396 0.878137 0
M  V30 3429 H 331.094 2.86729 -0.879011 0
M  V30 3430 H 328.647 1.48293 -0.493847 0
M  V30 3431 H 329.382 2.76722 1.69101 0
M  V30 3432 H 329.167 3.907 0.331051 0
M  V30 3433 H 330.657 3.96199 1.3197 0
M  V30 3434 N 331.094 0.475555 1.50254 0
M  V30 3435 C 332.51 0.12997 1.5907 0
M  V30 3436 C 332.71 -1.36385 1.48328 0
M  V30 3437 O 331.766 -2.13754 1.34407 0
M  V30 3438 C 333.079 0.684139 2.92814 0
M  V30 3439 C 334.627 0.647965 3.0622 0
M  V30 3440 C 335.102 1.17975 4.42545 0
M  V30 3441 N 336.593 1.13936 4.48969 0
M  V30 3442 C 337.328 1.52129 5.52851 0
M  V30 3443 N 336.824 1.97793 6.63965 0
M  V30 3444 N 338.617 1.43704 5.4342 0
M  V30 3445 H 330.768 1.44706 1.55479 0
M  V30 3446 H 333.031 0.598691 0.735033 0
M  V30 3447 H 332.737 1.73079 3.06164 0
M  V30 3448 H 332.611 0.130204 3.76975 0
M  V30 3449 H 334.998 -0.38979 2.92514 0
M  V30 3450 H 335.079 1.23876 2.23805 0
M  V30 3451 H 334.723 2.21616 4.57 0
M  V30 3452 H 334.653 0.565138 5.23559 0
M  V30 3453 H 337.144 0.804488 3.69238 0
M  V30 3454 H 337.457 2.25072 7.39299 0
M  V30 3455 H 335.802 2.01749 6.65073 0
M  V30 3456 H 338.993 1.07867 4.55502 0
M  V30 3457 H 339.166 1.73794 6.24259 0
M  V30 3458 N 332.573 -1.56217 0.208337 0
M  V30 3459 C 333.822 -1.97124 -0.427204 0
M  V30 3460 C 334.135 -1.09859 -1.61835 0
M  V30 3461 O 335.341 -1.40606 -2.32255 0
M  V30 3462 C 333.797 -3.50633 -0.811442 0
M  V30 3463 C 333.405 -4.46582 0.35615 0
M  V30 3464 C 335.149 -4.00282 -1.41332 0
M  V30 3465 C 333.056 -5.91379 -0.0497852 0
M  V30 3466 H 331.986 -0.736086 -0.163381 0
M  V30 3467 H 334.637 -1.8099 0.302456 0
M  V30 3468 H 333.019 -3.62319 -1.59815 0
M  V30 3469 H 334.193 -4.46636 1.1337 0
M  V30 3470 H 332.508 -4.07202 0.870396 0
M  V30 3471 H 335.105 -5.0595 -1.72972 0
M  V30 3472 H 335.448 -3.45359 -2.32449 0
M  V30 3473 H 335.981 -3.91764 -0.690323 0
M  V30 3474 H 332.72 -6.50255 0.827529 0
M  V30 3475 H 332.24 -5.94549 -0.791926 0
M  V30 3476 H 333.919 -6.45209 -0.481042 0
M  V30 3477 N 334.051 0.0651679 -1.57465 0
M  V30 3478 C 335.014 1.06117 -2.03155 0
M  V30 3479 C 336.014 1.31204 -0.929632 0
M  V30 3480 O 337.204 1.26813 -1.19432 0
M  V30 3481 C 334.336 2.4032 -2.41783 0
M  V30 3482 H 335.529 0.667231 -2.92383 0
M  V30 3483 H 333.082 0.311075 -1.53173 0
M  V30 3484 H 333.817 2.84532 -1.55601 0
M  V30 3485 H 333.602 2.23451 -3.22199 0
M  V30 3486 H 335.092 3.11898 -2.77685 0
M  V30 3487 N 335.529 1.53961 0.336706 0
M  V30 3488 C 336.476 1.82428 1.41381 0
M  V30 3489 C 337.446 0.670444 1.51968 0
M  V30 3490 O 338.631 0.915565 1.67398 0
M  V30 3491 C 335.771 2.04564 2.77934 0
M  V30 3492 C 334.884 3.32267 2.76084 0
M  V30 3493 C 334.019 3.44434 4.04399 0
M  V30 3494 C 333.058 4.66061 3.96804 0
M  V30 3495 N 332.195 4.75224 5.16823 0
M  V30 3496 H 337.035 2.74324 1.16405 0
M  V30 3497 H 334.572 1.35869 0.563752 0
M  V30 3498 H 336.53 2.15388 3.57301 0
M  V30 3499 H 335.16 1.15974 3.01247 0
M  V30 3500 H 334.212 3.3025 1.88784 0
M  V30 3501 H 335.524 4.21733 2.66351 0
M  V30 3502 H 334.678 3.54728 4.92192 0
M  V30 3503 H 333.417 2.53037 4.16921 0
M  V30 3504 H 332.422 4.55838 3.07396 0
M  V30 3505 H 333.647 5.58829 3.85858 0
M  V30 3506 H 331.593 3.86739 5.29876 0
M  V30 3507 H 331.51 5.58636 5.09374 0
M  V30 3508 H 332.778 4.89835 6.06367 0
M  V30 3509 N 337.007 -0.598083 1.45811 0
M  V30 3510 C 338.237 -1.38121 1.53643 0
M  V30 3511 C 338.645 -1.88425 0.171081 0
M  V30 3512 O 337.988 -1.63409 -0.839237 0
M  V30 3513 C 338.05 -2.61432 2.46766 0
M  V30 3514 C 337.714 -2.32702 3.93318 0
M  V30 3515 C 338.711 -1.92479 4.82957 0
M  V30 3516 C 336.396 -2.45321 4.38318 0
M  V30 3517 C 338.39 -1.65248 6.15607 0
M  V30 3518 C 336.077 -2.17703 5.71007 0
M  V30 3519 C 337.075 -1.7773 6.5947 0
M  V30 3520 O 336.763 -1.50441 7.89698 0
M  V30 3521 H 336.495 -0.428863 0.522544 0
M  V30 3522 H 339.049 -0.73557 1.91777 0
M  V30 3523 H 337.279 -3.28749 2.0362 0
M  V30 3524 H 338.968 -3.23487 2.45175 0
M  V30 3525 H 339.734 -1.82258 4.49452 0
M  V30 3526 H 335.613 -2.75399 3.69697 0
M  V30 3527 H 339.157 -1.33973 6.84614 0
M  V30 3528 H 335.054 -2.27544 6.04065 0
M  V30 3529 H 335.822 -1.64415 8.01817 0
M  V30 3530 N 338.485 -1.33259 -0.841409 0
M  V30 3531 C 339.713 -1.27605 -1.62864 0
M  V30 3532 C 340.128 0.153507 -1.88175 0
M  V30 3533 O 339.485 1.09485 -1.46011 0
M  V30 3534 C 339.536 -2.04596 -2.98031 0
M  V30 3535 O 339.257 -3.41975 -2.73834 0
M  V30 3536 C 340.758 -2.06122 -3.92465 0
M  V30 3537 H 337.978 -0.439718 -0.506842 0
M  V30 3538 H 340.522 -1.75591 -1.04824 0
M  V30 3539 H 338.677 -1.60299 -3.5268 0
M  V30 3540 H 339.091 -3.81549 -3.59889 0
M  V30 3541 H 340.565 -2.64451 -4.84531 0
M  V30 3542 H 341.042 -1.05083 -4.26444 0
M  V30 3543 H 341.648 -2.50427 -3.43753 0
M  V30 3544 N 339.963 1.05934 -1.16686 0
M  V30 3545 C 340.926 2.11669 -0.879144 0
M  V30 3546 C 341.926 1.60294 0.127445 0
M  V30 3547 O 343.116 1.7389 -0.103865 0
M  V30 3548 C 340.248 3.39438 -0.315425 0
M  V30 3549 H 341.441 2.38626 -1.81653 0
M  V30 3550 H 338.994 1.22058 -0.976299 0
M  V30 3551 H 339.729 3.18132 0.629468 0
M  V30 3552 H 339.514 3.78034 -1.04079 0
M  V30 3553 H 341.004 4.17391 -0.132189 0
M  V30 3554 N 341.441 0.965919 1.2453 0
M  V30 3555 C 342.351 0.502154 2.29163 0
M  V30 3556 C 343.367 -0.436017 1.68448 0
M  V30 3557 O 344.543 -0.309497 1.99008 0
M  V30 3558 C 341.608 -0.201956 3.46111 0
M  V30 3559 C 340.669 0.775821 4.22232 0
M  V30 3560 C 339.902 0.105217 5.33596 0
M  V30 3561 O 340.125 -1.10683 5.59558 0
M  V30 3562 O 339.059 0.796475 5.96607 0
M  V30 3563 H 342.885 1.37194 2.70946 0
M  V30 3564 H 340.47 0.732875 1.30189 0
M  V30 3565 H 342.352 -0.597564 4.17142 0
M  V30 3566 H 341.027 -1.04673 3.06309 0
M  V30 3567 H 339.934 1.22185 3.53584 0
M  V30 3568 H 341.267 1.58896 4.65846 0
M  V30 3569 N 342.919 -1.39368 0.735821 0
M  V30 3570 C 344.167 -2.00101 0.283562 0
M  V30 3571 C 344.488 -1.5868 -1.13338 0
M  V30 3572 O 343.758 -0.835423 -1.77193 0
M  V30 3573 H 342.338 -0.740024 0.101851 0
M  V30 3574 H 345 -1.70404 0.945962 0
M  V30 3575 H 344.096 -3.10323 0.332604 0
M  V30 3576 N 344.397 -0.483516 -1.5 0
M  V30 3577 C 345.344 0.304164 -2.28787 0
M  V30 3578 C 346.314 0.976114 -1.34392 0
M  V30 3579 O 347.499 0.986156 -1.63339 0
M  V30 3580 C 344.639 1.37298 -3.16612 0
M  V30 3581 C 343.752 0.714561 -4.26049 0
M  V30 3582 C 342.887 1.76232 -5.01114 0
M  V30 3583 C 341.926 1.08483 -6.0241 0
M  V30 3584 N 341.063 2.076 -6.70706 0
M  V30 3585 H 345.903 -0.373981 -2.95644 0
M  V30 3586 H 343.44 -0.196275 -1.45785 0
M  V30 3587 H 345.398 2.00445 -3.65893 0
M  V30 3588 H 344.028 2.02012 -2.51776 0
M  V30 3589 H 343.08 -0.0297798 -3.80388 0
M  V30 3590 H 344.392 0.180383 -4.98474 0
M  V30 3591 H 343.546 2.46929 -5.54176 0
M  V30 3592 H 342.285 2.33033 -4.28424 0
M  V30 3593 H 341.29 0.363545 -5.48597 0
M  V30 3594 H 342.515 0.523551 -6.77079 0
M  V30 3595 H 340.461 2.63394 -6.00799 0
M  V30 3596 H 340.378 1.59201 -7.39047 0
M  V30 3597 H 341.646 2.77639 -7.2838 0
M  V30 3598 N 345.875 1.56104 -0.216619 0
M  V30 3599 C 346.838 2.18819 0.681962 0
M  V30 3600 C 347.838 1.14866 1.12528 0
M  V30 3601 O 349.028 1.40128 1.03488 0
M  V30 3602 C 346.16 2.80756 1.93362 0
M  V30 3603 H 347.353 2.99595 0.135254 0
M  V30 3604 H 344.906 1.56265 0.0330003 0
M  V30 3605 H 345.641 2.03837 2.52232 0
M  V30 3606 H 345.426 3.56876 1.62426 0
M  V30 3607 H 346.916 3.28844 2.57393 0
M  V30 3608 N 347.353 -0.0568162 1.57498 0
M  V30 3609 C 348.602 -0.752001 1.87157 0
M  V30 3610 C 348.915 -1.77978 0.811375 0
M  V30 3611 O 350.121 -2.52559 0.996293 0
M  V30 3612 C 348.577 -1.38844 3.3204 0
M  V30 3613 C 348.185 -0.398456 4.46225 0
M  V30 3614 C 349.929 -2.06512 3.70882 0
M  V30 3615 C 347.836 -1.04166 5.82154 0
M  V30 3616 H 346.766 -0.28461 0.698222 0
M  V30 3617 H 349.417 -0.00561272 1.83499 0
M  V30 3618 H 347.799 -2.1836 3.30356 0
M  V30 3619 H 348.973 0.367977 4.59328 0
M  V30 3620 H 347.288 0.174592 4.16034 0
M  V30 3621 H 349.885 -2.55437 4.6974 0
M  V30 3622 H 350.228 -2.87117 3.01445 0
M  V30 3623 H 350.761 -1.33808 3.7462 0
M  V30 3624 H 347.5 -0.275614 6.5492 0
M  V30 3625 H 347.02 -1.7786 5.72823 0
M  V30 3626 H 348.699 -1.55715 6.27982 0
M  V30 3627 N 348.832 -1.54138 -0.328536 0
M  V30 3628 C 350.057 -1.76378 -1.09112 0
M  V30 3629 C 350.482 -0.508596 -1.81094 0
M  V30 3630 O 349.84 0.539598 -1.73084 0
M  V30 3631 C 349.888 -2.95358 -2.06872 0
M  V30 3632 O 348.992 -2.66556 -3.14677 0
M  V30 3633 H 348.333 -0.584614 -0.314838 0
M  V30 3634 H 350.863 -2.01146 -0.374348 0
M  V30 3635 H 350.873 -3.22566 -2.4983 0
M  V30 3636 H 349.548 -3.86385 -1.5388 0
M  V30 3637 H 348.125 -2.50282 -2.7643 0
M  V30 3638 N 350.31 0.590341 -1.46126 0
M  V30 3639 C 351.559 1.34499 -1.50309 0
M  V30 3640 C 351.872 1.94977 -0.156021 0
M  V30 3641 O 353.078 2.71395 -0.0756037 0
M  V30 3642 C 351.534 2.43723 -2.64815 0
M  V30 3643 C 351.142 1.89582 -4.0591 0
M  V30 3644 C 352.886 3.20579 -2.78262 0
M  V30 3645 C 350.793 2.9639 -5.11769 0
M  V30 3646 H 349.723 0.505593 -0.559368 0
M  V30 3647 H 352.374 0.630848 -1.72315 0
M  V30 3648 H 350.756 3.17902 -2.36124 0
M  V30 3649 H 351.93 1.21997 -4.44357 0
M  V30 3650 H 350.245 1.25418 -3.97063 0
M  V30 3651 H 352.842 4.00276 -3.54519 0
M  V30 3652 H 353.185 3.72684 -1.85505 0
M  V30 3653 H 353.718 2.53505 -3.06562 0
M  V30 3654 H 350.457 2.49181 -6.06291 0
M  V30 3655 H 349.977 3.62487 -4.77873 0
M  V30 3656 H 351.656 3.60474 -5.37278 0
M  V30 3657 N 351.788 1.33704 0.83433 0
M  V30 3658 C 352.751 1.24244 1.92603 0
M  V30 3659 C 353.751 0.160383 1.59998 0
M  V30 3660 O 354.941 0.412228 1.69252 0
M  V30 3661 C 352.073 0.91555 3.28376 0
M  V30 3662 H 353.266 2.21287 2.02416 0
M  V30 3663 H 350.819 1.17827 1.02696 0
M  V30 3664 H 351.554 -0.0521886 3.24258 0
M  V30 3665 H 351.339 1.69811 3.53422 0
M  V30 3666 H 352.829 0.874231 4.08347 0
M  V30 3667 N 353.266 -1.05314 1.17247 0
M  V30 3668 C 354.196 -2.1498 0.911362 0
M  V30 3669 C 355.177 -1.69471 -0.146169 0
M  V30 3670 O 356.362 -1.942 0.003812 0
M  V30 3671 C 353.492 -3.4472 0.422528 0
M  V30 3672 C 352.446 -4.03789 1.4191 0
M  V30 3673 C 351.772 -5.28858 0.788274 0
M  V30 3674 C 353.072 -4.41418 2.7919 0
M  V30 3675 H 354.766 -2.3708 1.82848 0
M  V30 3676 H 352.312 -1.13938 0.880569 0
M  V30 3677 H 354.265 -4.20787 0.227289 0
M  V30 3678 H 352.989 -3.22269 -0.530123 0
M  V30 3679 H 351.648 -3.2979 1.60106 0
M  V30 3680 H 351.296 -5.02709 -0.171173 0
M  V30 3681 H 350.996 -5.69338 1.45353 0
M  V30 3682 H 352.52 -6.07612 0.603282 0
M  V30 3683 H 353.934 -5.08524 2.64719 0
M  V30 3684 H 352.331 -4.92913 3.42282 0
M  V30 3685 H 353.401 -3.51819 3.33693 0
M  V30 3686 N 354.744 -0.972509 -1.24016 0
M  V30 3687 C 355.694 -0.477561 -2.22942 0
M  V30 3688 C 356.678 0.44308 -1.54679 0
M  V30 3689 O 357.87 0.273219 -1.74879 0
M  V30 3690 C 354.999 0.226348 -3.42553 0
M  V30 3691 C 354.085 -0.713403 -4.18057 0
M  V30 3692 N 354.476 -1.8527 -4.70647 0
M  V30 3693 C 352.774 -0.525145 -4.42898 0
M  V30 3694 C 353.475 -2.44089 -5.28011 0
M  V30 3695 N 352.451 -1.72556 -5.15486 0
M  V30 3696 H 356.253 -1.34678 -2.61226 0
M  V30 3697 H 353.767 -0.832196 -1.39457 0
M  V30 3698 H 355.764 0.598184 -4.12586 0
M  V30 3699 H 354.424 1.09195 -3.05788 0
M  V30 3700 H 355.435 -2.2341 -4.67235 0
M  V30 3701 H 352.112 0.296096 -4.16449 0
M  V30 3702 H 353.502 -3.40259 -5.79374 0
M  V30 3703 N 356.222 1.38976 -0.743202 0
M  V30 3704 C 357.47 1.99948 -0.29417 0
M  V30 3705 C 357.791 1.59279 1.12495 0
M  V30 3706 O 357.061 0.844808 1.76748 0
M  V30 3707 H 355.641 0.739473 -0.105774 0
M  V30 3708 H 358.303 1.699 -0.954986 0
M  V30 3709 H 357.399 3.10142 -0.349056 0
M  V30 3710 N 357.7 0.491464 1.49741 0
M  V30 3711 C 358.648 -0.305837 2.30581 0
M  V30 3712 C 359.642 -0.971642 1.38764 0
M  V30 3713 O 360.848 -0.90042 1.5586 0
M  V30 3714 H 357.223 -0.117482 0.742767 0
M  V30 3715 H 359.194 0.396093 2.95759 0
M  V30 3716 C 357.943 -1.36319 3.19863 0
M  V30 3717 H 357.266 -0.860258 3.90435 0
M  V30 3718 H 358.706 -1.89323 3.79385 0
M  V30 3719 C 357.165 -2.37621 2.38826 0
M  V30 3720 O 357.695 -3.43311 2.08567 0
M  V30 3721 N 355.901 -2.09849 2.01026 0
M  V30 3722 H 355.448 -1.23922 2.25834 0
M  V30 3723 H 355.406 -2.77859 1.47112 0
M  V30 3724 N 359.178 -1.55987 0.224894 0
M  V30 3725 C 360.141 -2.19178 -0.670348 0
M  V30 3726 C 361.141 -1.15461 -1.11917 0
M  V30 3727 O 362.331 -1.40675 -1.02743 0
M  V30 3728 C 359.463 -2.81777 -1.9187 0
M  V30 3729 H 360.656 -2.99662 -0.119364 0
M  V30 3730 H 358.209 -1.5628 -0.0247128 0
M  V30 3731 H 358.944 -2.05172 -2.51147 0
M  V30 3732 H 358.729 -3.57732 -1.60531 0
M  V30 3733 H 360.219 -3.30205 -2.55645 0
M  V30 3734 N 360.656 0.0484629 -1.57525 0
M  V30 3735 C 361.619 1.03956 -2.04269 0
M  V30 3736 C 362.619 1.30211 -0.943496 0
M  V30 3737 O 363.809 1.25539 -1.20771 0
M  V30 3738 C 360.941 2.37742 -2.44319 0
M  V30 3739 H 362.134 0.636182 -2.93075 0
M  V30 3740 H 359.687 0.294811 -1.53494 0
M  V30 3741 H 360.422 2.82866 -1.5861 0
M  V30 3742 H 360.207 2.20021 -3.24551 0
M  V30 3743 H 361.697 3.08936 -2.80978 0
M  V30 3744 N 362.134 1.5431 0.320358 0
M  V30 3745 C 363.044 1.86946 1.41734 0
M  V30 3746 C 364.06 0.761689 1.56443 0
M  V30 3747 O 365.236 1.05629 1.71477 0
M  V30 3748 C 362.301 2.09293 2.76401 0
M  V30 3749 C 361.362 3.33082 2.70841 0
M  V30 3750 C 360.595 3.54353 3.99086 0
M  V30 3751 O 360.818 2.79002 4.97508 0
M  V30 3752 O 359.752 4.47838 4.0215 0
M  V30 3753 H 363.578 2.80232 1.17062 0
M  V30 3754 H 361.163 1.40255 0.514673 0
M  V30 3755 H 363.045 2.25303 3.56113 0
M  V30 3756 H 361.72 1.19194 3.00956 0
M  V30 3757 H 360.627 3.22454 1.89668 0
M  V30 3758 H 361.96 4.23249 2.5124 0
M  V30 3759 N 363.613 -0.582584 1.46437 0
M  V30 3760 C 364.862 -1.337 1.5102 0
M  V30 3761 C 365.175 -1.94891 0.166359 0
M  V30 3762 O 366.381 -2.71351 0.0899954 0
M  V30 3763 C 364.837 -2.42315 2.66104 0
M  V30 3764 C 364.445 -1.87427 4.06909 0
M  V30 3765 C 366.189 -3.19099 2.79958 0
M  V30 3766 C 364.096 -2.93672 5.13333 0
M  V30 3767 H 363.026 -0.502619 0.562041 0
M  V30 3768 H 365.677 -0.621701 1.72647 0
M  V30 3769 H 364.059 -3.16645 2.37807 0
M  V30 3770 H 365.233 -1.19639 4.44998 0
M  V30 3771 H 363.548 -1.2331 3.97723 0
M  V30 3772 H 366.145 -3.9839 3.56636 0
M  V30 3773 H 366.488 -3.71695 1.87479 0
M  V30 3774 H 367.021 -2.51875 3.07902 0
M  V30 3775 H 363.76 -2.45962 6.07604 0
M  V30 3776 H 363.28 -3.59948 4.79789 0
M  V30 3777 H 364.959 -3.5762 5.39182 0
M  V30 3778 N 365.091 -1.34144 -0.827227 0
M  V30 3779 C 366.021 -1.28005 -1.95287 0
M  V30 3780 C 367.002 -0.158321 -1.69362 0
M  V30 3781 O 368.187 -0.349987 -1.9102 0
M  V30 3782 C 365.317 -1.03036 -3.31664 0
M  V30 3783 C 364.271 -2.11628 -3.72019 0
M  V30 3784 C 363.597 -1.71854 -5.0633 0
M  V30 3785 C 364.897 -3.53417 -3.8457 0
M  V30 3786 H 366.591 -2.22187 -2.00682 0
M  V30 3787 H 364.137 -1.0696 -0.964135 0
M  V30 3788 H 366.09 -0.973863 -4.09993 0
M  V30 3789 H 364.814 -0.0529391 -3.26557 0
M  V30 3790 H 363.473 -2.16339 -2.95961 0
M  V30 3791 H 363.121 -0.727841 -4.97706 0
M  V30 3792 H 362.821 -2.44531 -5.34302 0
M  V30 3793 H 364.345 -1.67692 -5.87122 0
M  V30 3794 H 365.759 -3.51142 -4.5318 0
M  V30 3795 H 364.156 -4.24679 -4.2399 0
M  V30 3796 H 365.226 -3.91072 -2.86689 0
M  V30 3797 N 366.569 1.04691 -1.17803 0
M  V30 3798 C 367.98 1.59238 -0.974689 0
M  V30 3799 C 368.331 1.90306 0.477292 0
M  V30 3800 O 367.456 1.68846 1.35352 0
M  V30 3801 C 368.051 2.89318 -1.76296 0
M  V30 3802 C 366.61 3.40506 -1.60414 0
M  V30 3803 C 365.757 2.14172 -1.76141 0
M  V30 3804 H 368.708 0.874395 -1.32439 0
M  V30 3805 H 368.729 3.5944 -1.24833 0
M  V30 3806 H 368.241 2.66675 -2.81968 0
M  V30 3807 H 366.342 3.68175 -0.572519 0
M  V30 3808 H 366.455 4.14753 -2.39827 0
M  V30 3809 H 364.819 2.25176 -1.19028 0
M  V30 3810 H 365.602 1.93992 -2.83235 0
M  V30 3811 N 368.047 0.979072 1.23499 0
M  V30 3812 C 368.957 0.526431 2.28617 0
M  V30 3813 C 369.973 -0.418126 1.68901 0
M  V30 3814 O 371.149 -0.288372 1.99325 0
M  V30 3815 C 368.214 -0.165235 3.46306 0
M  V30 3816 C 367.275 0.82056 4.21385 0
M  V30 3817 C 366.508 0.161807 5.33455 0
M  V30 3818 O 366.731 -1.04742 5.60701 0
M  V30 3819 O 365.665 0.859708 5.95729 0
M  V30 3820 H 369.491 1.4006 2.69475 0
M  V30 3821 H 367.076 0.746643 1.29405 0
M  V30 3822 H 368.958 -0.553287 4.17752 0
M  V30 3823 H 367.633 -1.01419 3.07402 0
M  V30 3824 H 366.54 1.25929 3.52268 0
M  V30 3825 H 367.873 1.63828 4.64135 0
M  V30 3826 N 369.525 -1.3858 0.750561 0
M  V30 3827 C 370.455 -2.33102 0.136237 0
M  V30 3828 C 371.436 -1.54713 -0.706965 0
M  V30 3829 O 372.621 -1.83043 -0.648769 0
M  V30 3830 C 369.751 -3.38882 -0.760017 0
M  V30 3831 C 368.705 -4.27995 -0.0197785 0
M  V30 3832 C 368.031 -5.24605 -1.03408 0
M  V30 3833 C 369.331 -5.09554 1.14684 0
M  V30 3834 H 371.025 -2.84726 0.925822 0
M  V30 3835 H 368.571 -1.36898 0.446654 0
M  V30 3836 H 370.524 -4.0397 -1.19943 0
M  V30 3837 H 369.248 -2.85734 -1.58189 0
M  V30 3838 H 367.907 -3.64409 0.400184 0
M  V30 3839 H 367.555 -4.67746 -1.84994 0
M  V30 3840 H 367.255 -5.85081 -0.543464 0
M  V30 3841 H 368.779 -5.9257 -1.47288 0
M  V30 3842 H 370.193 -5.67899 0.785118 0
M  V30 3843 H 368.59 -5.7925 1.56812 0
M  V30 3844 H 369.66 -4.4347 1.96118 0
M  V30 3845 N 371.003 -0.499398 -1.49478 0
M  V30 3846 C 372.249 0.0457576 -2.02748 0
M  V30 3847 C 372.582 1.36793 -1.37846 0
M  V30 3848 O 371.857 1.87596 -0.513601 0
M  V30 3849 C 372.14 0.199986 -3.59544 0
M  V30 3850 C 371.993 -1.1452 -4.34977 0
M  V30 3851 C 373.312 0.94137 -4.29914 0
M  V30 3852 H 370.431 0.0151552 -0.736844 0
M  V30 3853 H 373.073 -0.650498 -1.78518 0
M  V30 3854 H 371.223 0.793007 -3.8032 0
M  V30 3855 H 372.895 -1.77697 -4.25701 0
M  V30 3856 H 371.138 -1.73488 -3.97598 0
M  V30 3857 H 371.809 -0.990607 -5.43039 0
M  V30 3858 H 374.285 0.43844 -4.13784 0
M  V30 3859 H 373.161 1.01812 -5.39375 0
M  V30 3860 H 373.422 1.98471 -3.95046 0
M  V30 3861 N 372.481 1.55866 -0.233164 0
M  V30 3862 C 373.428 2.20796 0.67215 0
M  V30 3863 C 374.398 1.16731 1.18166 0
M  V30 3864 O 375.583 1.45129 1.23864 0
M  V30 3865 C 372.723 2.90072 1.86955 0
M  V30 3866 C 371.836 4.08759 1.39786 0
M  V30 3867 C 370.971 4.65787 2.55374 0
M  V30 3868 C 370.01 5.76752 2.04998 0
M  V30 3869 N 369.147 6.28021 3.13901 0
M  V30 3870 H 373.987 2.9779 0.111749 0
M  V30 3871 H 371.524 1.47036 0.0434007 0
M  V30 3872 H 373.482 3.28428 2.57276 0
M  V30 3873 H 372.112 2.15575 2.40265 0
M  V30 3874 H 371.164 3.7581 0.589173 0
M  V30 3875 H 372.476 4.88906 0.98856 0
M  V30 3876 H 371.63 5.06646 3.33758 0
M  V30 3877 H 370.369 3.84828 2.99598 0
M  V30 3878 H 369.374 5.35383 1.25079 0
M  V30 3879 H 370.599 6.59553 1.61759 0
M  V30 3880 H 368.545 5.49971 3.57586 0
M  V30 3881 H 368.462 7.03323 2.7726 0
M  V30 3882 H 369.73 6.73538 3.92386 0
M  V30 3883 N 373.959 -0.0401083 1.57549 0
M  V30 3884 C 375.375 -0.395556 1.54621 0
M  V30 3885 C 375.575 -1.77281 0.957799 0
M  V30 3886 O 374.631 -2.45888 0.574031 0
M  V30 3887 C 375.944 -0.307535 2.99123 0
M  V30 3888 C 377.492 -0.385425 3.10618 0
M  V30 3889 C 377.967 -0.326973 4.56831 0
M  V30 3890 N 379.458 -0.386102 4.61588 0
M  V30 3891 C 380.193 -0.363591 5.72246 0
M  V30 3892 N 379.689 -0.29402 6.92176 0
M  V30 3893 N 381.482 -0.412503 5.60584 0
M  V30 3894 H 373.633 0.861325 1.94152 0
M  V30 3895 H 375.896 0.326445 0.890021 0
M  V30 3896 H 375.602 0.638461 3.45856 0
M  V30 3897 H 375.476 -1.10552 3.60636 0
M  V30 3898 H 377.863 -1.32185 2.63839 0
M  V30 3899 H 377.944 0.44171 2.51957 0
M  V30 3900 H 377.588 0.605738 5.04275 0
M  V30 3901 H 377.518 -1.17207 5.13391 0
M  V30 3902 H 380.009 -0.442832 3.75296 0
M  V30 3903 H 380.322 -0.28164 7.72287 0
M  V30 3904 H 378.667 -0.260232 6.94513 0
M  V30 3905 H 381.858 -0.464769 4.65787 0
M  V30 3906 H 382.031 -0.391492 6.46816 0
M  V30 3907 N 375.437 -1.54477 -0.31217 0
M  V30 3908 C 376.685 -1.72884 -1.04668 0
M  V30 3909 C 377.006 -0.511477 -1.88173 0
M  V30 3910 O 376.276 0.474407 -1.90069 0
M  V30 3911 H 374.856 -0.637461 -0.389425 0
M  V30 3912 H 377.518 -1.91807 -0.345852 0
M  V30 3913 H 376.614 -2.61334 -1.70619 0
M  V30 3914 N 376.915 0.57481 -1.46744 0
M  V30 3915 C 378.161 1.3347 -1.52688 0
M  V30 3916 C 378.494 1.93353 -0.181229 0
M  V30 3917 O 377.769 1.76912 0.808237 0
M  V30 3918 C 378.052 2.45811 -2.63152 0
M  V30 3919 C 377.905 1.90912 -4.07275 0
M  V30 3920 C 379.224 3.47822 -2.69644 0
M  V30 3921 H 376.343 0.483935 -0.555856 0
M  V30 3922 H 378.985 0.644968 -1.78718 0
M  V30 3923 H 377.135 3.04646 -2.41088 0
M  V30 3924 H 378.807 1.36473 -4.4065 0
M  V30 3925 H 377.05 1.21691 -4.16382 0
M  V30 3926 H 377.721 2.72042 -4.80309 0
M  V30 3927 H 380.197 2.9888 -2.895 0
M  V30 3928 H 379.073 4.23876 -3.48742 0
M  V30 3929 H 379.334 4.05555 -1.76005 0
M  V30 3930 N 378.394 1.34581 0.820102 0
M  V30 3931 C 379.81 1.14325 1.11364 0
M  V30 3932 C 380.01 -0.0533648 2.01429 0
M  V30 3933 O 379.066 -0.728044 2.41776 0
M  V30 3934 C 380.379 2.43983 1.75764 0
M  V30 3935 C 381.927 2.50065 1.88246 0
M  V30 3936 C 382.402 3.79732 2.56061 0
M  V30 3937 N 383.893 3.80908 2.63558 0
M  V30 3938 C 384.628 4.77961 3.16766 0
M  V30 3939 N 384.124 5.85397 3.70517 0
M  V30 3940 N 385.917 4.65413 3.15194 0
M  V30 3941 H 378.068 2.11246 0.221096 0
M  V30 3942 H 380.331 0.934289 0.160649 0
M  V30 3943 H 380.037 3.31651 1.1705 0
M  V30 3944 H 379.911 2.57531 2.75604 0
M  V30 3945 H 382.298 1.62834 2.46108 0
M  V30 3946 H 382.379 2.40442 0.873006 0
M  V30 3947 H 382.023 4.67354 1.98853 0
M  V30 3948 H 381.953 3.86639 3.57516 0
M  V30 3949 H 384.444 3.03274 2.25463 0
M  V30 3950 H 384.757 6.55463 4.09376 0
M  V30 3951 H 383.102 5.89107 3.68752 0
M  V30 3952 H 386.293 3.80627 2.72471 0
M  V30 3953 H 386.466 5.41216 3.56356 0
M  V30 3954 N 379.872 -1.04064 1.18357 0
M  V30 3955 C 381.283 -1.58719 0.98312 0
M  V30 3956 C 381.634 -1.90556 -0.467193 0
M  V30 3957 O 380.759 -1.69561 -1.34454 0
M  V30 3958 C 381.354 -2.88379 1.77828 0
M  V30 3959 C 379.913 -3.3965 1.62218 0
M  V30 3960 C 379.06 -2.13235 1.77274 0
M  V30 3961 H 382.011 -0.867359 1.32901 0
M  V30 3962 H 382.032 -3.58773 1.26737 0
M  V30 3963 H 381.544 -2.65176 2.83379 0
M  V30 3964 H 379.645 -3.67866 0.592036 0
M  V30 3965 H 379.758 -4.13475 2.42023 0
M  V30 3966 H 378.122 -2.24542 1.20221 0
M  V30 3967 H 378.905 -1.92487 2.8426 0
M  V30 3968 N 381.35 -0.985608 -1.22978 0
M  V30 3969 C 382.627 -0.573599 -1.87001 0
M  V30 3970 C 383.007 0.949213 -1.88555 0
M  V30 3971 O 382.355 1.82811 -1.37086 0
M  V30 3972 C 382.565 -1.18564 -3.28243 0
M  V30 3973 C 383.913 -1.28163 -4.04796 0
M  V30 3974 O 384.937 -1.13949 -3.37482 0
M  V30 3975 O 383.796 -1.50832 -5.25273 0
M  V30 3976 H 380.89 -0.193868 -0.803955 0
M  V30 3977 H 383.436 -1.08102 -1.30813 0
M  V30 3978 H 382.208 -2.22758 -3.21706 0
M  V30 3979 H 381.831 -0.663363 -3.92027 0
M  V30 3980 N 382.828 1.3818 -0.7579 0
M  V30 3981 C 383.761 2.28055 -0.0814093 0
M  V30 3982 C 384.739 1.45603 0.723779 0
M  V30 3983 O 385.923 1.74961 0.701491 0
M  V30 3984 C 383.05 3.2676 0.891394 0
M  V30 3985 C 382.096 4.26153 0.171909 0
M  V30 3986 S 382.929 5.23434 -1.13035 0
M  V30 3987 C 384.085 6.25694 -0.160727 0
M  V30 3988 H 384.318 2.85082 -0.84353 0
M  V30 3989 H 381.851 1.44246 -0.550671 0
M  V30 3990 H 383.809 3.8414 1.44731 0
M  V30 3991 H 382.47 2.68706 1.62652 0
M  V30 3992 H 381.663 4.95738 0.908843 0
M  V30 3993 H 381.265 3.72691 -0.312606 0
M  V30 3994 H 383.557 6.74161 0.671773 0
M  V30 3995 H 384.5 7.03285 -0.824353 0
M  V30 3996 H 384.908 5.64064 0.221892 0
M  V30 3997 N 384.306 0.507319 1.49211 0
M  V30 3998 C 385.552 -0.0350047 2.0277 0
M  V30 3999 C 385.885 -1.3606 1.38569 0
M  V30 4000 O 385.16 -1.87321 0.523542 0
M  V30 4001 C 385.443 -0.180916 3.59645 0
M  V30 4002 C 385.296 1.16825 4.34364 0
M  V30 4003 C 386.615 -0.918558 4.30407 0
M  V30 4004 H 383.734 -0.0112473 0.736914 0
M  V30 4005 H 386.376 0.659956 1.7817 0
M  V30 4006 H 384.526 -0.772826 3.80736 0
M  V30 4007 H 386.198 1.79952 4.24753 0
M  V30 4008 H 384.441 1.75594 3.96673 0
M  V30 4009 H 385.112 1.01939 5.42506 0
M  V30 4010 H 387.588 -0.41649 4.1401 0
M  V30 4011 H 386.464 -0.989505 5.39907 0
M  V30 4012 H 386.725 -1.96373 3.96093 0
M  V30 4013 N 385.784 -1.5574 0.241426 0
M  V30 4014 C 387.012 -2.03208 -0.389134 0
M  V30 4015 C 387.427 -1.12082 -1.51931 0
M  V30 4016 O 386.784 -0.134183 -1.82006 0
M  V30 4017 C 386.835 -3.50064 -0.902087 0
M  V30 4018 O 386.556 -4.37717 0.18305 0
M  V30 4019 C 388.057 -4.13268 -1.60389 0
M  V30 4020 H 385.277 -0.664509 -0.0931053 0
M  V30 4021 H 387.821 -2.0124 0.36369 0
M  V30 4022 H 385.976 -3.52583 -1.60511 0
M  V30 4023 H 386.39 -5.24097 -0.205579 0
M  V30 4024 H 387.864 -5.17733 -1.91458 0
M  V30 4025 H 388.341 -3.59434 -2.52397 0
M  V30 4026 H 388.947 -4.14655 -0.945576 0
M  V30 4027 N 387.262 0.0317525 -1.57568 0
M  V30 4028 C 388.539 0.758366 -1.803 0
M  V30 4029 C 388.919 1.93718 -0.838845 0
M  V30 4030 O 388.267 2.28187 0.119571 0
M  V30 4031 C 388.477 1.19392 -3.27943 0
M  V30 4032 C 389.825 1.61094 -3.92854 0
M  V30 4033 O 390.849 1.28857 -3.32076 0
M  V30 4034 O 389.708 2.20918 -4.99858 0
M  V30 4035 H 386.802 0.366514 -0.741348 0
M  V30 4036 H 389.348 0.00873765 -1.69698 0
M  V30 4037 H 388.12 0.352275 -3.89711 0
M  V30 4038 H 387.743 2.00365 -3.43424 0
M  V30 4039 N 388.74 1.54641 0.303973 0
M  V30 4040 C 389.672 1.81754 1.39636 0
M  V30 4041 C 390.685 0.70035 1.46966 0
M  V30 4042 O 391.874 0.97778 1.49338 0
M  V30 4043 C 388.974 1.93785 2.7803 0
M  V30 4044 C 388.147 3.24156 2.93669 0
M  V30 4045 C 387.206 3.26641 4.12544 0
M  V30 4046 O 386.232 4.00187 4.04771 0
M  V30 4047 N 387.434 2.5182 5.23036 0
M  V30 4048 H 390.199 2.76031 1.16734 0
M  V30 4049 H 387.76 1.54178 0.494033 0
M  V30 4050 H 389.752 1.92852 3.55795 0
M  V30 4051 H 388.322 1.06515 2.93893 0
M  V30 4052 H 387.542 3.37887 2.03042 0
M  V30 4053 H 388.83 4.10195 3.01027 0
M  V30 4054 H 388.228 1.91692 5.32232 0
M  V30 4055 H 386.785 2.56644 5.99147 0
M  V30 4056 N 390.218 -0.567019 1.47046 0
M  V30 4057 C 391.446 -1.35027 1.56765 0
M  V30 4058 C 391.861 -1.8758 0.214316 0
M  V30 4059 O 391.218 -1.64471 -0.790919 0
M  V30 4060 C 391.269 -2.52698 2.58507 0
M  V30 4061 O 390.99 -2.0232 3.88585 0
M  V30 4062 C 392.491 -3.45043 2.78316 0
M  V30 4063 H 389.711 -0.41195 0.529658 0
M  V30 4064 H 392.255 -0.687832 1.92585 0
M  V30 4065 H 390.41 -3.149 2.25648 0
M  V30 4066 H 390.824 -2.79068 4.44096 0
M  V30 4067 H 392.298 -4.2405 3.53391 0
M  V30 4068 H 392.775 -3.97971 1.85784 0
M  V30 4069 H 393.381 -2.88665 3.12334 0
M  V30 4070 N 391.696 -1.35014 -0.812953 0
M  V30 4071 C 392.921 -1.31187 -1.60639 0
M  V30 4072 C 393.346 0.109382 -1.87782 0
M  V30 4073 O 392.704 1.07424 -1.46047 0
M  V30 4074 C 392.752 -2.11809 -2.91838 0
M  V30 4075 O 391.856 -1.49444 -3.8437 0
M  V30 4076 H 391.197 -0.450084 -0.488181 0
M  V30 4077 H 393.727 -1.77963 -1.00947 0
M  V30 4078 H 393.737 -2.23531 -3.41318 0
M  V30 4079 H 392.412 -3.15137 -2.71407 0
M  V30 4080 H 390.989 -1.46524 -3.42907 0
M  V30 4081 N 393.175 1.03435 -1.18907 0
M  V30 4082 C 394.138 2.09756 -0.923844 0
M  V30 4083 C 395.138 1.60528 0.093416 0
M  V30 4084 O 396.328 1.73631 -0.140727 0
M  V30 4085 C 393.46 3.38692 -0.387354 0
M  V30 4086 H 394.653 2.34719 -1.86674 0
M  V30 4087 H 392.206 1.19959 -1.00197 0
M  V30 4088 H 392.941 3.19396 0.561845 0
M  V30 4089 H 392.726 3.75742 -1.12074 0
M  V30 4090 H 394.216 4.17016 -0.220694 0
M  V30 4091 N 394.653 0.992116 1.22453 0
M  V30 4092 C 395.603 0.512969 2.22155 0
M  V30 4093 C 396.587 -0.418416 1.55364 0
M  V30 4094 O 397.779 -0.245363 1.75291 0
M  V30 4095 C 394.908 -0.171822 3.4287 0
M  V30 4096 C 393.994 0.779822 4.16869 0
M  V30 4097 N 394.385 1.92734 4.6764 0
M  V30 4098 C 392.683 0.59554 4.42006 0
M  V30 4099 C 393.384 2.52458 5.24061 0
M  V30 4100 N 392.36 1.80735 5.12675 0
M  V30 4101 H 396.162 1.38817 2.5905 0
M  V30 4102 H 393.676 0.854277 1.38115 0
M  V30 4103 H 395.673 -0.532469 4.13486 0
M  V30 4104 H 394.333 -1.04317 3.07487 0
M  V30 4105 H 395.344 2.30816 4.63621 0
M  V30 4106 H 392.021 -0.229805 4.16867 0
M  V30 4107 H 393.411 3.49433 5.73887 0
M  V30 4108 N 396.131 -1.37776 0.765217 0
M  V30 4109 C 397.408 -1.93975 0.251596 0
M  V30 4110 C 397.788 -1.69949 -1.25222 0
M  V30 4111 O 397.136 -1.04457 -2.03226 0
M  V30 4112 C 397.346 -3.43487 0.617895 0
M  V30 4113 C 398.694 -4.20564 0.584029 0
M  V30 4114 O 399.718 -3.5182 0.556888 0
M  V30 4115 O 398.577 -5.43138 0.605291 0
M  V30 4116 H 395.671 -0.82509 0.0561806 0
M  V30 4117 H 398.217 -1.47101 0.846128 0
M  V30 4118 H 396.989 -3.5453 1.65602 0
M  V30 4119 H 396.612 -3.976 -0.00403411 0
M  V30 4120 N 397.609 -0.515225 -1.4894 0
M  V30 4121 C 399.02 -0.0710067 -1.86565 0
M  V30 4122 C 399.371 1.34733 -1.42623 0
M  V30 4123 O 398.496 2.00653 -0.810379 0
M  V30 4124 C 399.091 -0.122083 -3.3858 0
M  V30 4125 C 397.65 0.266863 -3.75453 0
M  V30 4126 C 396.797 -0.488376 -2.72966 0
M  V30 4127 H 399.748 -0.727266 -1.41055 0
M  V30 4128 H 399.769 0.669818 -3.74558 0
M  V30 4129 H 399.281 -1.15448 -3.70531 0
M  V30 4130 H 397.382 1.30196 -3.49113 0
M  V30 4131 H 397.495 -0.0624811 -4.79059 0
M  V30 4132 H 395.859 0.0635622 -2.54621 0
M  V30 4133 H 396.642 -1.52113 -3.07761 0
M  V30 4134 N 399.087 1.5561 -0.249682 0
M  V30 4135 C 400.017 2.24477 0.642826 0
M  V30 4136 C 400.998 1.22601 1.17911 0
M  V30 4137 O 402.183 1.5126 1.21795 0
M  V30 4138 C 399.313 2.94638 1.83863 0
M  V30 4139 C 398.267 4.03227 1.435 0
M  V30 4140 C 397.593 4.60828 2.71186 0
M  V30 4141 C 398.893 5.18796 0.604002 0
M  V30 4142 H 400.587 2.99321 0.0685625 0
M  V30 4143 H 398.133 1.43965 0.0315363 0
M  V30 4144 H 400.086 3.41517 2.46868 0
M  V30 4145 H 398.81 2.17287 2.43832 0
M  V30 4146 H 397.469 3.57121 0.828275 0
M  V30 4147 H 397.117 3.80174 3.29358 0
M  V30 4148 H 396.817 5.34132 2.44901 0
M  V30 4149 H 398.341 5.10442 3.35084 0
M  V30 4150 H 399.755 5.61883 1.13842 0
M  V30 4151 H 398.152 5.98506 0.437097 0
M  V30 4152 H 399.222 4.83384 -0.383147 0
M  V30 4153 N 400.565 -0.0233959 1.57583 0
M  V30 4154 C 401.513 -1.04063 2.08023 0
M  V30 4155 C 402.507 -1.37084 0.995204 0
M  V30 4156 O 403.713 -1.35923 1.18004 0
M  V30 4157 H 400.088 -0.353144 0.663922 0
M  V30 4158 H 402.059 -0.589453 2.9252 0
M  V30 4159 C 400.808 -2.33123 2.57971 0
M  V30 4160 H 400.131 -2.08577 3.4108 0
M  V30 4161 H 401.571 -3.02632 2.96967 0
M  V30 4162 C 400.03 -3.02483 1.48342 0
M  V30 4163 O 400.56 -3.92541 0.852898 0
M  V30 4164 N 398.766 -2.63909 1.21658 0
M  V30 4165 H 398.313 -1.90758 1.73116 0
M  V30 4166 H 398.271 -3.10633 0.485218 0
M  V30 4167 N 402.043 -1.548 -0.295768 0
M  V30 4168 C 403.291 -1.73985 -1.02828 0
M  V30 4169 C 403.612 -0.531406 -1.87619 0
M  V30 4170 O 402.882 0.454221 -1.90561 0
M  V30 4171 H 401.462 -0.641556 -0.382642 0
M  V30 4172 H 404.124 -1.92163 -0.325489 0
M  V30 4173 H 403.22 -2.63129 -1.67838 0
M  V30 4174 N 403.521 0.559213 -1.47345 0
M  V30 4175 C 404.751 1.33999 -1.57251 0
M  V30 4176 C 405.159 1.87905 -0.220978 0
M  V30 4177 O 404.502 1.65577 0.795617 0
M  V30 4178 C 404.564 2.54798 -2.53611 0
M  V30 4179 C 404.228 2.22192 -3.99349 0
M  V30 4180 C 405.225 1.79607 -4.87891 0
M  V30 4181 C 402.91 2.33613 -4.44669 0
M  V30 4182 C 404.904 1.48868 -6.19772 0
M  V30 4183 C 402.591 2.02487 -5.76578 0
M  V30 4184 C 403.589 1.60183 -6.63951 0
M  V30 4185 O 403.277 1.29451 -7.93409 0
M  V30 4186 H 403.009 0.414858 -0.533731 0
M  V30 4187 H 405.563 0.684465 -1.9366 0
M  V30 4188 H 403.793 3.23235 -2.12265 0
M  V30 4189 H 405.482 3.16873 -2.53666 0
M  V30 4190 H 406.248 1.70278 -4.54126 0
M  V30 4191 H 402.127 2.65501 -3.76869 0
M  V30 4192 H 405.671 1.15775 -6.87926 0
M  V30 4193 H 401.568 2.11448 -6.09885 0
M  V30 4194 H 402.336 1.43098 -8.05894 0
M  V30 4195 N 404.999 1.35443 0.805782 0
M  V30 4196 C 405.929 1.31095 1.93226 0
M  V30 4197 C 406.91 0.185244 1.69088 0
M  V30 4198 O 408.095 0.380332 1.90439 0
M  V30 4199 C 405.225 1.08299 3.29983 0
M  V30 4200 C 404.179 2.17519 3.68605 0
M  V30 4201 C 403.505 1.79887 5.03532 0
M  V30 4202 C 404.805 3.5949 3.78898 0
M  V30 4203 H 406.499 2.25352 1.97122 0
M  V30 4204 H 404.045 1.0848 0.946996 0
M  V30 4205 H 405.998 1.03897 4.08391 0
M  V30 4206 H 404.722 0.104885 3.26432 0
M  V30 4207 H 403.381 2.2102 2.92482 0
M  V30 4208 H 403.029 0.80693 4.96485 0
M  V30 4209 H 402.729 2.53001 5.30344 0
M  V30 4210 H 404.253 1.77011 5.84379 0
M  V30 4211 H 405.667 3.58307 4.47536 0
M  V30 4212 H 404.064 4.31371 4.1718 0
M  V30 4213 H 405.134 3.95584 2.80431 0
M  V30 4214 N 406.477 -1.02803 1.19454 0
M  V30 4215 C 407.888 -1.57667 0.999899 0
M  V30 4216 C 408.239 -1.91041 -0.446956 0
M  V30 4217 O 407.364 -1.70978 -1.32648 0
M  V30 4218 C 407.959 -2.86477 1.80877 0
M  V30 4219 C 406.518 -3.37911 1.65811 0
M  V30 4220 C 405.665 -2.11343 1.79526 0
M  V30 4221 H 408.616 -0.853214 1.33813 0
M  V30 4222 H 408.637 -3.57408 1.30536 0
M  V30 4223 H 408.149 -2.62155 2.86175 0
M  V30 4224 H 406.25 -3.67218 0.63102 0
M  V30 4225 H 406.363 -4.10885 2.46395 0
M  V30 4226 H 404.727 -2.23254 1.22596 0
M  V30 4227 H 405.51 -1.89461 2.86285 0
M  V30 4228 N 407.956 -0.998596 -1.21925 0
M  V30 4229 C 408.919 -0.558679 -2.22287 0
M  V30 4230 C 409.919 0.361525 -1.56683 0
M  V30 4231 O 411.109 0.152695 -1.73529 0
M  V30 4232 C 408.241 0.18661 -3.40389 0
M  V30 4233 H 409.434 -1.4463 -2.62721 0
M  V30 4234 H 406.987 -0.786413 -1.35075 0
M  V30 4235 H 407.722 1.08996 -3.05435 0
M  V30 4236 H 407.507 -0.474188 -3.89222 0
M  V30 4237 H 408.997 0.482367 -4.14805 0
M  V30 4238 N 409.434 1.37368 -0.772513 0
M  V30 4239 C 410.682 1.99279 -0.336516 0
M  V30 4240 C 411.003 1.6163 1.09091 0
M  V30 4241 O 410.273 0.882109 1.74916 0
M  V30 4242 H 408.853 0.737063 -0.121435 0
M  V30 4243 H 411.515 1.67836 -0.990809 0
M  V30 4244 H 410.611 3.09332 -0.414763 0
M  V30 4245 N 410.912 0.523116 1.48665 0
M  V30 4246 C 412.158 -0.00540031 2.03399 0
M  V30 4247 C 412.513 -1.3264 1.39372 0
M  V30 4248 O 411.806 -1.84184 0.527916 0
M  V30 4249 C 412 -0.191671 3.56886 0
M  V30 4250 C 411.829 1.10972 4.35793 0
M  V30 4251 C 410.599 1.66769 4.76987 0
M  V30 4252 C 412.797 2.01861 4.73029 0
M  V30 4253 N 410.779 2.91268 5.40404 0
M  V30 4254 C 412.15 3.10937 5.36394 0
M  V30 4255 C 414.205 2.02271 4.54962 0
M  V30 4256 C 412.908 4.20478 5.83601 0
M  V30 4257 C 414.934 3.10802 5.03146 0
M  V30 4258 C 414.296 4.18597 5.6653 0
M  V30 4259 H 410.395 0.0393531 0.781009 0
M  V30 4260 H 412.979 0.702876 1.8157 0
M  V30 4261 H 411.15 -0.869025 3.78553 0
M  V30 4262 H 412.882 -0.719177 3.98259 0
M  V30 4263 H 409.637 1.20996 4.57883 0
M  V30 4264 H 410.061 3.54635 5.76683 0
M  V30 4265 H 414.703 1.2023 4.05345 0
M  V30 4266 H 412.421 5.03303 6.32228 0
M  V30 4267 H 416.007 3.12166 4.90962 0
M  V30 4268 H 414.887 5.01193 6.03138 0
M  V30 4269 N 412.39 -1.55475 0.257931 0
M  V30 4270 C 413.618 -2.03609 -0.367559 0
M  V30 4271 C 414.033 -1.13687 -1.50734 0
M  V30 4272 O 413.39 -0.153479 -1.81853 0
M  V30 4273 C 413.441 -3.51001 -0.864908 0
M  V30 4274 O 413.162 -4.37499 0.229465 0
M  V30 4275 C 414.663 -4.14946 -1.55997 0
M  V30 4276 H 411.883 -0.665459 -0.0860521 0
M  V30 4277 H 414.427 -2.00843 0.385014 0
M  V30 4278 H 412.582 -3.54266 -1.56762 0
M  V30 4279 H 412.996 -5.24286 -0.14998 0
M  V30 4280 H 414.47 -5.19735 -1.85956 0
M  V30 4281 H 414.947 -3.6209 -2.4857 0
M  V30 4282 H 415.553 -4.15635 -0.901543 0
M  V30 4283 N 413.868 0.0150385 -1.57593 0
M  V30 4284 C 415.114 0.69849 -1.91031 0
M  V30 4285 C 415.469 1.72208 -0.85804 0
M  V30 4286 O 414.762 1.91147 0.131614 0
M  V30 4287 C 414.956 1.39686 -3.28972 0
M  V30 4288 C 414.785 0.442428 -4.47518 0
M  V30 4289 C 413.555 0.0583223 -5.05266 0
M  V30 4290 C 415.753 -0.285072 -5.13509 0
M  V30 4291 N 413.735 -0.895893 -6.07328 0
M  V30 4292 C 415.106 -1.09447 -6.10263 0
M  V30 4293 C 417.161 -0.350518 -4.96665 0
M  V30 4294 C 415.864 -1.96333 -6.91987 0
M  V30 4295 C 417.89 -1.20655 -5.78962 0
M  V30 4296 C 417.252 -2.00383 -6.75297 0
M  V30 4297 H 413.351 0.22926 -0.747639 0
M  V30 4298 H 415.935 -0.0417748 -1.94655 0
M  V30 4299 H 414.106 2.1075 -3.2625 0
M  V30 4300 H 415.838 2.03381 -3.49883 0
M  V30 4301 H 412.593 0.423506 -4.71703 0
M  V30 4302 H 413.017 -1.36792 -6.63036 0
M  V30 4303 H 417.659 0.251596 -4.22051 0
M  V30 4304 H 415.377 -2.57618 -7.65936 0
M  V30 4305 H 418.963 -1.2609 -5.67972 0
M  V30 4306 H 417.843 -2.65552 -7.3787 0
M  V30 4307 N 415.346 1.54954 0.287554 0
M  V30 4308 C 416.256 1.8991 1.37736 0
M  V30 4309 C 417.272 0.794701 1.54792 0
M  V30 4310 O 418.448 1.09243 1.69198 0
M  V30 4311 C 415.513 2.15108 2.71899 0
M  V30 4312 C 414.574 3.38752 2.63715 0
M  V30 4313 C 413.807 3.62739 3.91479 0
M  V30 4314 O 414.03 2.89492 4.91478 0
M  V30 4315 O 412.964 4.56267 3.92561 0
M  V30 4316 H 416.79 2.82652 1.11092 0
M  V30 4317 H 414.375 1.41315 0.484807 0
M  V30 4318 H 416.257 2.32806 3.51254 0
M  V30 4319 H 414.932 1.25551 2.9836 0
M  V30 4320 H 413.839 3.26405 1.82786 0
M  V30 4321 H 415.172 4.28483 2.42205 0
M  V30 4322 N 416.824 -0.551391 1.4764 0
M  V30 4323 C 417.756 -1.67333 1.56628 0
M  V30 4324 C 418.769 -1.56398 0.452045 0
M  V30 4325 O 419.958 -1.6325 0.721926 0
M  V30 4326 C 417.058 -3.05841 1.45994 0
M  V30 4327 C 416.231 -3.42472 2.72088 0
M  V30 4328 C 415.29 -4.60168 2.55209 0
M  V30 4329 O 414.316 -4.64458 3.2904 0
M  V30 4330 N 415.518 -5.57024 1.63416 0
M  V30 4331 H 418.283 -1.60066 2.53375 0
M  V30 4332 H 415.844 -0.738169 1.44093 0
M  V30 4333 H 417.836 -3.8242 1.32428 0
M  V30 4334 H 416.406 -3.07302 0.573071 0
M  V30 4335 H 415.626 -2.55284 3.00373 0
M  V30 4336 H 416.914 -3.63723 3.55785 0
M  V30 4337 H 416.312 -5.56319 1.02594 0
M  V30 4338 H 414.869 -6.32906 1.558 0
M  V30 4339 N 418.302 -1.35869 -0.798587 0
M  V30 4340 C 419.532 -1.32529 -1.58491 0
M  V30 4341 C 419.94 0.0975405 -1.88948 0
M  V30 4342 O 419.283 1.06224 -1.49874 0
M  V30 4343 C 419.345 -2.07247 -2.9375 0
M  V30 4344 C 419.009 -3.56391 -2.86068 0
M  V30 4345 C 420.006 -4.50824 -2.58947 0
M  V30 4346 C 417.691 -3.9915 -3.04933 0
M  V30 4347 C 419.685 -5.85993 -2.5078 0
M  V30 4348 C 417.372 -5.34413 -2.96389 0
M  V30 4349 C 418.37 -6.27646 -2.69349 0
M  V30 4350 O 418.058 -7.60426 -2.60782 0
M  V30 4351 H 417.79 -0.456529 -0.498556 0
M  V30 4352 H 420.344 -1.79425 -0.999799 0
M  V30 4353 H 418.574 -1.55001 -3.54276 0
M  V30 4354 H 420.263 -1.96883 -3.54954 0
M  V30 4355 H 421.029 -4.19104 -2.44084 0
M  V30 4356 H 416.908 -3.26961 -3.24989 0
M  V30 4357 H 420.452 -6.58735 -2.29595 0
M  V30 4358 H 416.349 -5.65743 -3.10813 0
M  V30 4359 H 417.117 -7.70444 -2.76331 0
M  V30 4360 N 419.78 1.02168 -1.19998 0
M  V30 4361 C 421.196 1.27969 -0.953737 0
M  V30 4362 C 421.396 1.98079 0.369703 0
M  V30 4363 O 420.452 2.27306 1.09947 0
M  V30 4364 C 421.765 2.11971 -2.13281 0
M  V30 4365 C 423.313 2.25255 -2.17323 0
M  V30 4366 C 423.788 3.12632 -3.34702 0
M  V30 4367 N 425.279 3.2022 -3.34684 0
M  V30 4368 C 426.014 3.88039 -4.22153 0
M  V30 4369 N 425.51 4.58027 -5.19791 0
M  V30 4370 N 427.303 3.84511 -4.10009 0
M  V30 4371 H 419.454 0.550794 -2.05134 0
M  V30 4372 H 421.717 0.305683 -0.897364 0
M  V30 4373 H 421.423 1.67785 -3.09097 0
M  V30 4374 H 421.297 3.12699 -2.10949 0
M  V30 4375 H 423.684 2.68667 -1.22073 0
M  V30 4376 H 423.765 1.24053 -2.23706 0
M  V30 4377 H 423.409 2.69926 -4.30235 0
M  V30 4378 H 423.339 4.13909 -3.25556 0
M  V30 4379 H 425.83 2.70382 -2.64012 0
M  V30 4380 H 426.143 5.07429 -5.82868 0
M  V30 4381 H 424.488 4.56869 -5.23733 0
M  V30 4382 H 427.679 3.28978 -3.33003 0
M  V30 4383 H 427.852 4.3709 -4.78389 0
M  V30 4384 N 421.258 1.00505 1.21394 0
M  V30 4385 C 422.535 0.603277 1.86064 0
M  V30 4386 C 422.915 -0.919095 1.90042 0
M  V30 4387 O 422.263 -1.80607 1.39977 0
M  V30 4388 C 422.473 1.23772 3.26315 0
M  V30 4389 C 423.821 1.34586 4.02705 0
M  V30 4390 O 424.845 1.19304 3.35626 0
M  V30 4391 O 423.704 1.59169 5.22807 0
M  V30 4392 H 420.798 0.206634 0.800769 0
M  V30 4393 H 423.344 1.1017 1.29076 0
M  V30 4394 H 422.116 2.27848 3.18121 0
M  V30 4395 H 421.739 0.725648 3.90922 0
M  V30 4396 N 422.737 -1.36956 0.779787 0
M  V30 4397 C 424.153 -1.52817 0.460342 0
M  V30 4398 C 424.353 -1.7361 -1.02283 0
M  V30 4399 O 423.409 -1.76207 -1.80852 0
M  V30 4400 C 424.722 -2.71983 1.28241 0
M  V30 4401 C 426.27 -2.85849 1.27512 0
M  V30 4402 C 426.745 -4.08008 2.08072 0
M  V30 4403 N 428.236 -4.15135 2.05467 0
M  V30 4404 C 428.971 -5.08711 2.64577 0
M  V30 4405 N 428.467 -6.07792 3.32506 0
M  V30 4406 N 430.26 -5.01254 2.54363 0
M  V30 4407 H 422.411 -1.21713 1.74068 0
M  V30 4408 H 424.674 -0.593294 0.739396 0
M  V30 4409 H 424.38 -2.63109 2.33381 0
M  V30 4410 H 424.254 -3.65882 0.917088 0
M  V30 4411 H 426.641 -2.94189 0.231686 0
M  V30 4412 H 426.722 -1.92886 1.68014 0
M  V30 4413 H 426.366 -4.00429 3.12441 0
M  V30 4414 H 426.296 -5.001 1.64947 0
M  V30 4415 H 428.787 -3.44189 1.5602 0
M  V30 4416 H 429.1 -6.75739 3.74963 0
M  V30 4417 H 427.445 -6.08047 3.36606 0
M  V30 4418 H 430.636 -4.22795 2.00902 0
M  V30 4419 H 430.809 -5.73995 3.00722 0
M  V30 4420 N 424.215 -0.530993 -1.48385 0
M  V30 4421 C 425.178 0.220497 -2.28137 0
M  V30 4422 C 426.178 0.866851 -1.35434 0
M  V30 4423 O 427.368 0.726746 -1.58316 0
M  V30 4424 C 424.5 1.31921 -3.1434 0
M  V30 4425 H 425.693 -0.479714 -2.96038 0
M  V30 4426 H 423.246 -0.286968 -1.53643 0
M  V30 4427 H 423.981 2.05264 -2.51072 0
M  V30 4428 H 423.766 0.86085 -3.82533 0
M  V30 4429 H 425.256 1.84776 -3.74497 0
M  V30 4430 N 425.693 1.55336 -0.266172 0
M  V30 4431 C 426.625 2.19544 0.658247 0
M  V30 4432 C 427.638 1.17746 1.12427 0
M  V30 4433 O 428.827 1.44517 1.04772 0
M  V30 4434 C 425.927 2.80032 1.9088 0
M  V30 4435 C 425.1 4.07436 1.59106 0
M  V30 4436 C 424.159 4.52056 2.69317 0
M  V30 4437 O 423.185 5.18023 2.35883 0
M  V30 4438 N 424.387 4.21448 3.99201 0
M  V30 4439 H 427.152 2.99503 0.108754 0
M  V30 4440 H 424.713 1.61667 -0.0869059 0
M  V30 4441 H 426.705 3.06831 2.63888 0
M  V30 4442 H 425.275 2.04119 2.36758 0
M  V30 4443 H 424.495 3.88021 0.695243 0
M  V30 4444 H 425.783 4.90462 1.35367 0
M  V30 4445 H 425.181 3.68528 4.29189 0
M  V30 4446 H 423.738 4.53039 4.68614 0
M  V30 4447 N 427.171 -0.0066808 1.57599 0
M  V30 4448 C 428.399 -0.704087 1.94551 0
M  V30 4449 C 428.814 -1.67677 0.867746 0
M  V30 4450 O 428.171 -1.8185 -0.153925 0
M  V30 4451 C 428.222 -1.44177 3.31505 0
M  V30 4452 O 427.943 -0.508097 4.35144 0
M  V30 4453 C 429.444 -2.23429 3.82876 0
M  V30 4454 H 426.664 -0.196523 0.641576 0
M  V30 4455 H 429.208 0.042453 2.04456 0
M  V30 4456 H 427.363 -2.13999 3.22929 0
M  V30 4457 H 427.777 -1.02782 5.14331 0
M  V30 4458 H 429.251 -2.70552 4.8115 0
M  V30 4459 H 429.728 -3.05818 3.15233 0
M  V30 4460 H 430.334 -1.58636 3.94607 0
M  V30 4461 N 428.649 -1.55105 -0.279332 0
M  V30 4462 C 429.559 -1.90638 -1.36727 0
M  V30 4463 C 430.575 -0.802899 -1.54368 0
M  V30 4464 O 431.751 -1.10138 -1.68616 0
M  V30 4465 C 428.816 -2.16547 -2.70755 0
M  V30 4466 C 427.877 -3.40146 -2.61915 0
M  V30 4467 C 427.11 -3.6481 -3.8955 0
M  V30 4468 O 427.333 -2.92095 -4.89935 0
M  V30 4469 O 426.267 -4.58343 -3.90135 0
M  V30 4470 H 430.093 -2.83237 -1.09591 0
M  V30 4471 H 427.678 -1.4157 -0.477306 0
M  V30 4472 H 429.56 -2.34665 -3.50014 0
M  V30 4473 H 428.235 -1.27131 -2.9769 0
M  V30 4474 H 427.142 -3.2737 -1.81052 0
M  V30 4475 H 428.475 -4.29761 -2.3993 0
M  V30 4476 N 430.127 0.543554 -1.4793 0
M  V30 4477 C 431.538 1.12561 -1.48953 0
M  V30 4478 C 431.889 1.94578 -0.251754 0
M  V30 4479 O 431.014 2.0665 0.642255 0
M  V30 4480 C 431.609 2.04801 -2.69892 0
M  V30 4481 C 430.168 2.58251 -2.73831 0
M  V30 4482 C 429.315 1.34918 -2.42265 0
M  V30 4483 H 432.266 0.32947 -1.55242 0
M  V30 4484 H 432.287 2.88886 -2.47639 0
M  V30 4485 H 431.799 1.4508 -3.59963 0
M  V30 4486 H 429.9 3.21732 -1.87934 0
M  V30 4487 H 430.013 2.98312 -3.74895 0
M  V30 4488 H 428.377 1.66046 -1.93134 0
M  V30 4489 H 429.16 0.769693 -3.3456 0
M  V30 4490 N 431.605 1.3629 0.791371 0
M  V30 4491 C 432.568 1.30309 1.88553 0
M  V30 4492 C 433.568 0.211204 1.59407 0
M  V30 4493 O 434.758 0.465865 1.67855 0
M  V30 4494 C 431.89 1.01956 3.25297 0
M  V30 4495 H 433.083 2.27614 1.95273 0
M  V30 4496 H 430.636 1.21035 0.988953 0
M  V30 4497 H 431.371 0.050998 3.2426 0
M  V30 4498 H 431.156 1.80968 3.4784 0
M  V30 4499 H 432.646 1.0037 4.05359 0
M  V30 4500 N 433.083 -1.0153 1.20538 0
M  V30 4501 C 434.046 -2.0826 0.957098 0
M  V30 4502 C 435.046 -1.60657 -0.0678655 0
M  V30 4503 O 436.236 -1.73385 0.168332 0
M  V30 4504 C 433.368 -3.38033 0.441188 0
M  V30 4505 H 434.561 -2.31719 1.90384 0
M  V30 4506 H 432.114 -1.1835 1.02093 0
M  V30 4507 H 432.849 -3.20249 -0.510961 0
M  V30 4508 H 432.634 -3.73911 1.18038 0
M  V30 4509 H 434.124 -4.16613 0.287009 0
M  V30 4510 N 434.561 -1.01147 -1.20859 0
M  V30 4511 C 435.807 -0.698899 -1.90377 0
M  V30 4512 C 436.14 0.76904 -1.78324 0
M  V30 4513 O 435.415 1.55817 -1.16409 0
M  V30 4514 C 435.698 -1.12878 -3.41951 0
M  V30 4515 C 435.551 -2.65665 -3.62963 0
M  V30 4516 C 436.87 -0.696114 -4.3456 0
M  V30 4517 H 433.989 -0.255372 -0.691342 0
M  V30 4518 H 436.631 -1.25831 -1.42361 0
M  V30 4519 H 434.781 -0.652827 -3.82976 0
M  V30 4520 H 436.453 -3.21074 -3.31224 0
M  V30 4521 H 434.696 -3.06878 -3.06608 0
M  V30 4522 H 435.367 -2.90797 -4.69192 0
M  V30 4523 H 437.843 -1.10521 -4.01154 0
M  V30 4524 H 436.719 -1.025 -5.39245 0
M  V30 4525 H 436.98 0.402465 -4.40264 0
M  V30 4526 N 436.039 1.36541 -0.78704 0
M  V30 4527 C 437.285 1.99599 -0.358872 0
M  V30 4528 C 437.618 1.62323 1.06606 0
M  V30 4529 O 436.893 0.876858 1.73613 0
M  V30 4530 C 437.176 3.56327 -0.519944 0
M  V30 4531 C 437.029 4.03464 -1.98839 0
M  V30 4532 C 438.348 4.4005 0.0664737 0
M  V30 4533 H 435.467 0.725107 -0.131869 0
M  V30 4534 H 438.109 1.6199 -0.992936 0
M  V30 4535 H 436.259 3.88495 0.0198321 0
M  V30 4536 H 437.931 3.81793 -2.58905 0
M  V30 4537 H 436.174 3.55092 -2.49183 0
M  V30 4538 H 436.845 5.12439 -2.05207 0
M  V30 4539 H 439.321 4.14228 -0.394267 0
M  V30 4540 H 438.197 5.48847 -0.0762682 0
M  V30 4541 H 438.458 4.26655 1.15835 0
M  V30 4542 N 437.518 0.538854 1.48102 0
M  V30 4543 C 438.465 -0.219042 2.29758 0
M  V30 4544 C 439.435 -0.925562 1.37922 0
M  V30 4545 O 440.62 -0.924855 1.66886 0
M  V30 4546 C 437.76 -1.25452 3.2149 0
M  V30 4547 C 436.873 -0.555943 4.28408 0
M  V30 4548 C 436.008 -1.57512 5.0731 0
M  V30 4549 C 435.047 -0.860498 6.06021 0
M  V30 4550 N 434.184 -1.82564 6.77949 0
M  V30 4551 H 439.024 0.483449 2.94052 0
M  V30 4552 H 436.561 0.250247 1.44956 0
M  V30 4553 H 438.519 -1.86727 3.7308 0
M  V30 4554 H 437.149 -1.92528 2.591 0
M  V30 4555 H 436.201 0.170938 3.80016 0
M  V30 4556 H 437.513 0.00474616 4.988 0
M  V30 4557 H 436.667 -2.26191 5.62959 0
M  V30 4558 H 435.406 -2.16972 4.36778 0
M  V30 4559 H 434.411 -0.159686 5.49568 0
M  V30 4560 H 435.636 -0.271897 6.78555 0
M  V30 4561 H 433.582 -2.40915 6.10161 0
M  V30 4562 H 433.499 -1.31662 7.44447 0
M  V30 4563 H 434.767 -2.50414 7.38182 0
M  V30 4564 N 438.996 -1.55193 0.274407 0
M  V30 4565 C 439.959 -2.212 -0.600279 0
M  V30 4566 C 440.959 -1.18963 -1.08187 0
M  V30 4567 O 442.149 -1.43873 -0.982158 0
M  V30 4568 C 439.281 -2.87739 -1.82809 0
M  V30 4569 H 440.474 -2.9989 -0.0239682 0
M  V30 4570 H 438.027 -1.5628 0.0250192 0
M  V30 4571 H 438.762 -2.13058 -2.44493 0
M  V30 4572 H 438.547 -3.62658 -1.49069 0
M  V30 4573 H 440.037 -3.38171 -2.45011 0
M  V30 4574 N 440.474 -0.00167713 -1.576 0
M  V30 4575 C 441.437 0.974046 -2.07473 0
M  V30 4576 C 442.437 1.27143 -0.984444 0
M  V30 4577 O 443.627 1.21633 -1.24703 0
M  V30 4578 C 440.759 2.29849 -2.51759 0
M  V30 4579 H 441.952 0.54262 -2.9495 0
M  V30 4580 H 439.505 0.245829 -1.54355 0
M  V30 4581 H 440.24 2.77677 -1.67529 0
M  V30 4582 H 440.025 2.09584 -3.31386 0
M  V30 4583 H 441.515 2.9984 -2.90664 0
M  V30 4584 N 441.952 1.55251 0.271103 0
M  V30 4585 C 442.899 1.88261 1.33516 0
M  V30 4586 C 443.869 0.734296 1.48988 0
M  V30 4587 O 445.054 0.985741 1.63364 0
M  V30 4588 C 442.194 2.16168 2.69008 0
M  V30 4589 C 441.307 3.43678 2.61743 0
M  V30 4590 C 440.442 3.61276 3.89427 0
M  V30 4591 C 439.481 4.82472 3.7668 0
M  V30 4592 N 438.618 4.96717 4.96202 0
M  V30 4593 H 443.458 2.79015 1.04665 0
M  V30 4594 H 440.995 1.38137 0.505618 0
M  V30 4595 H 442.953 2.30349 3.47844 0
M  V30 4596 H 441.583 1.28646 2.96057 0
M  V30 4597 H 440.635 3.37959 1.74607 0
M  V30 4598 H 441.947 4.3265 2.48224 0
M  V30 4599 H 441.101 3.75284 4.76704 0
M  V30 4600 H 439.84 2.70492 4.05814 0
M  V30 4601 H 438.845 4.68465 2.87786 0
M  V30 4602 H 440.07 5.74692 3.61809 0
M  V30 4603 H 438.016 4.08865 5.12997 0
M  V30 4604 H 437.933 5.79738 4.85222 0
M  V30 4605 H 439.201 5.15113 5.85046 0
M  V30 4606 N 443.43 -0.535701 1.48216 0
M  V30 4607 C 444.362 -1.65662 1.58394 0
M  V30 4608 C 445.375 -1.5591 0.468607 0
M  V30 4609 O 446.564 -1.62475 0.7392 0
M  V30 4610 C 443.664 -3.04276 1.4923 0
M  V30 4611 C 442.837 -3.39567 2.75705 0
M  V30 4612 C 441.896 -4.57436 2.60075 0
M  V30 4613 O 440.922 -4.60942 3.33948 0
M  V30 4614 N 442.124 -5.55259 1.69315 0
M  V30 4615 H 444.889 -1.5737 2.55058 0
M  V30 4616 H 442.45 -0.722845 1.44867 0
M  V30 4617 H 444.442 -3.80994 1.36477 0
M  V30 4618 H 443.012 -3.06677 0.605632 0
M  V30 4619 H 442.232 -2.52083 3.03064 0
M  V30 4620 H 443.52 -3.59929 3.59623 0
M  V30 4621 H 442.918 -5.552 1.08489 0
M  V30 4622 H 441.475 -6.31218 1.62504 0
M  V30 4623 N 444.908 -1.36708 -0.784132 0
M  V30 4624 C 446.133 -1.34565 -1.5782 0
M  V30 4625 C 446.558 0.0695257 -1.87971 0
M  V30 4626 O 445.916 1.04302 -1.48293 0
M  V30 4627 C 445.964 -2.17952 -2.87279 0
M  V30 4628 O 445.068 -1.57563 -3.81114 0
M  V30 4629 H 444.409 -0.460337 -0.478524 0
M  V30 4630 H 446.939 -1.80064 -0.971495 0
M  V30 4631 H 446.949 -2.30721 -3.365 0
M  V30 4632 H 445.624 -3.20823 -2.64661 0
M  V30 4633 H 444.201 -1.53764 -3.39722 0
M  V30 4634 N 446.386 1.0089 -1.21074 0
M  V30 4635 C 447.319 2.09279 -0.909806 0
M  V30 4636 C 448.297 1.61986 0.141145 0
M  V30 4637 O 449.481 1.88495 0.0130332 0
M  V30 4638 C 446.608 3.36723 -0.365374 0
M  V30 4639 C 445.654 4.02919 -1.39852 0
M  V30 4640 S 446.487 4.45835 -2.96633 0
M  V30 4641 C 447.643 5.76471 -2.43786 0
M  V30 4642 H 447.876 2.34484 -1.82769 0
M  V30 4643 H 445.409 1.14115 -1.04006 0
M  V30 4644 H 447.367 4.10459 -0.0578203 0
M  V30 4645 H 446.028 3.09577 0.531136 0
M  V30 4646 H 445.221 4.94634 -0.967117 0
M  V30 4647 H 444.823 3.35441 -1.65395 0
M  V30 4648 H 447.115 6.52027 -1.84029 0
M  V30 4649 H 448.058 6.24418 -3.33928 0
M  V30 4650 H 448.466 5.33104 -1.85636 0
M  V30 4651 N 447.864 1.01787 1.20321 0
M  V30 4652 C 448.827 0.593972 2.2137 0
M  V30 4653 C 449.827 -0.336553 1.57239 0
M  V30 4654 O 451.017 -0.125069 1.7375 0
M  V30 4655 C 448.149 -0.132433 3.40643 0
M  V30 4656 H 449.342 1.48791 2.60387 0
M  V30 4657 H 446.895 0.807803 1.33807 0
M  V30 4658 H 447.63 -1.04123 3.0713 0
M  V30 4659 H 447.415 0.53605 3.88418 0
M  V30 4660 H 448.905 -0.416314 4.1552 0
M  V30 4661 N 449.342 -1.36122 0.79427 0
M  V30 4662 C 450.588 -1.99406 0.369452 0
M  V30 4663 C 450.921 -1.62886 -1.05743 0
M  V30 4664 O 450.196 -0.886053 -1.73145 0
M  V30 4665 C 450.479 -3.56046 0.538833 0
M  V30 4666 C 450.332 -4.02404 2.00976 0
M  V30 4667 C 451.651 -4.40079 -0.0431359 0
M  V30 4668 H 448.77 -0.724397 0.135712 0
M  V30 4669 H 451.412 -1.61461 1.00151 0
M  V30 4670 H 449.562 -3.885 0.000771004 0
M  V30 4671 H 451.234 -3.80415 2.60926 0
M  V30 4672 H 449.477 -3.53765 2.51063 0
M  V30 4673 H 450.148 -5.11344 2.07922 0
M  V30 4674 H 452.624 -4.14013 0.416228 0
M  V30 4675 H 451.5 -5.48799 0.105374 0
M  V30 4676 H 451.761 -4.27264 -1.13571 0
M  V30 4677 N 450.82 -0.546701 -1.47814 0
M  V30 4678 C 451.77 0.227042 -2.26867 0
M  V30 4679 C 452.754 0.894844 -1.33721 0
M  V30 4680 O 453.946 0.794887 -1.58147 0
M  V30 4681 C 451.075 1.26299 -3.19223 0
M  V30 4682 C 450.161 0.59913 -4.19847 0
M  V30 4683 N 450.552 -0.324777 -5.04756 0
M  V30 4684 C 448.85 0.854331 -4.37741 0
M  V30 4685 C 449.551 -0.709386 -5.77358 0
M  V30 4686 N 448.527 -0.0666153 -5.43559 0
M  V30 4687 H 452.329 -0.483476 -2.89896 0
M  V30 4688 H 449.843 -0.365893 -1.58224 0
M  V30 4689 H 451.84 1.83116 -3.74532 0
M  V30 4690 H 450.5 1.97471 -2.57751 0
M  V30 4691 H 451.511 -0.698351 -5.1317 0
M  V30 4692 H 448.188 1.55536 -3.87447 0
M  V30 4693 H 449.578 -1.46796 -6.55668 0
M  V30 4694 N 452.299 1.55045 -0.282633 0
M  V30 4695 C 453.545 2.00056 0.332481 0
M  V30 4696 C 453.878 1.1708 1.54939 0
M  V30 4697 O 453.153 0.2427 1.9298 0
M  V30 4698 C 453.436 3.53086 0.70725 0
M  V30 4699 C 453.289 4.46813 -0.517521 0
M  V30 4700 C 454.608 4.12245 1.54084 0
M  V30 4701 H 451.727 0.727268 0.119373 0
M  V30 4702 H 454.369 1.85932 -0.391076 0
M  V30 4703 H 452.519 3.65253 1.32372 0
M  V30 4704 H 454.191 4.46579 -1.15607 0
M  V30 4705 H 452.434 4.18163 -1.1542 0
M  V30 4706 H 453.105 5.51595 -0.211426 0
M  V30 4707 H 455.581 4.03401 1.02013 0
M  V30 4708 H 454.457 5.19515 1.77186 0
M  V30 4709 H 454.718 3.62951 2.52427 0
M  V30 4710 N 453.777 0.010035 1.57597 0
M  V30 4711 C 454.709 -1.00649 2.05918 0
M  V30 4712 C 455.722 -1.30077 0.978964 0
M  V30 4713 O 456.911 -1.26878 1.25556 0
M  V30 4714 C 454.011 -2.33876 2.45265 0
M  V30 4715 C 453.184 -2.23242 3.7614 0
M  V30 4716 C 452.243 -3.39242 4.02245 0
M  V30 4717 O 451.269 -3.1698 4.72771 0
M  V30 4718 N 452.471 -4.6242 3.50924 0
M  V30 4719 H 455.236 -0.594333 2.93748 0
M  V30 4720 H 452.797 -0.17714 1.60928 0
M  V30 4721 H 454.789 -3.1027 2.59836 0
M  V30 4722 H 453.359 -2.66799 1.62902 0
M  V30 4723 H 452.579 -1.31696 3.71551 0
M  V30 4724 H 453.867 -2.13321 4.61922 0
M  V30 4725 H 453.265 -4.83404 2.93832 0
M  V30 4726 H 451.822 -5.36046 3.70807 0
M  V30 4727 N 455.255 -1.55392 -0.262866 0
M  V30 4728 C 456.218 -1.88181 -1.30846 0
M  V30 4729 C 457.218 -0.757079 -1.41862 0
M  V30 4730 O 458.408 -1.02519 -1.40838 0
M  V30 4731 C 455.54 -2.09609 -2.68844 0
M  V30 4732 H 456.733 -2.81659 -1.02997 0
M  V30 4733 H 454.286 -1.48039 -0.501414 0
M  V30 4734 H 455.021 -1.18547 -3.01856 0
M  V30 4735 H 454.806 -2.91508 -2.62231 0
M  V30 4736 H 456.296 -2.36215 -3.44372 0
M  V30 4737 N 456.733 0.527833 -1.48498 0
M  V30 4738 C 457.666 1.64892 -1.57753 0
M  V30 4739 C 458.644 1.5687 -0.427867 0
M  V30 4740 O 459.828 1.77311 -0.639764 0
M  V30 4741 C 456.955 3.03301 -1.50752 0
M  V30 4742 C 456.001 3.29675 -2.70586 0
M  V30 4743 S 456.834 3.15712 -4.32535 0
M  V30 4744 C 457.99 4.56564 -4.28136 0
M  V30 4745 H 458.223 1.56792 -2.52594 0
M  V30 4746 H 455.756 0.710959 -1.37057 0
M  V30 4747 H 457.714 3.83123 -1.474 0
M  V30 4748 H 456.375 3.08839 -0.572454 0
M  V30 4749 H 455.568 4.3065 -2.61833 0
M  V30 4750 H 455.17 2.57526 -2.71212 0
M  V30 4751 H 457.462 5.48126 -3.98201 0
M  V30 4752 H 458.405 4.70371 -5.29298 0
M  V30 4753 H 458.813 4.35987 -3.58574 0
M  V30 4754 N 458.211 1.37122 0.776871 0
M  V30 4755 C 459.141 1.35164 1.90402 0
M  V30 4756 C 460.122 0.221069 1.68657 0
M  V30 4757 O 461.307 0.420642 1.8959 0
M  V30 4758 C 458.437 1.15274 3.27611 0
M  V30 4759 C 457.391 2.25289 3.63908 0
M  V30 4760 C 456.717 1.90527 4.99603 0
M  V30 4761 C 458.017 3.67446 3.71188 0
M  V30 4762 H 459.711 2.29482 1.92297 0
M  V30 4763 H 457.257 1.10465 0.923773 0
M  V30 4764 H 459.21 1.12536 4.06096 0
M  V30 4765 H 457.934 0.174102 3.26136 0
M  V30 4766 H 456.593 2.27174 2.87728 0
M  V30 4767 H 456.241 0.91206 4.94662 0
M  V30 4768 H 455.941 2.64193 5.24858 0
M  V30 4769 H 457.465 1.89367 5.80493 0
M  V30 4770 H 458.879 3.67719 4.39836 0
M  V30 4771 H 457.276 4.40123 4.07936 0
M  V30 4772 H 458.346 4.01443 2.71977 0
M  V30 4773 N 459.689 -1.00246 1.21608 0
M  V30 4774 C 460.966 -1.71336 0.943568 0
M  V30 4775 C 461.346 -2.03972 -0.543943 0
M  V30 4776 O 460.694 -1.71545 -1.50946 0
M  V30 4777 C 460.904 -2.97094 1.83128 0
M  V30 4778 C 462.252 -3.70071 2.08165 0
M  V30 4779 O 463.276 -3.07081 1.80498 0
M  V30 4780 O 462.135 -4.83376 2.54971 0
M  V30 4781 H 459.229 -0.747386 0.354039 0
M  V30 4782 H 461.775 -1.05967 1.32549 0
M  V30 4783 H 460.547 -2.69407 2.83788 0
M  V30 4784 H 460.17 -3.70204 1.45034 0
M  V30 4785 N 461.167 -1.02423 -1.1978 0
M  V30 4786 C 462.414 -0.717988 -1.89344 0
M  V30 4787 C 462.742 0.753036 -1.79331 0
M  V30 4788 O 461.997 1.56355 -1.17692 0
M  V30 4789 C 462.296 -1.1088 -3.39765 0
M  V30 4790 C 461.962 -2.57731 -3.6998 0
M  V30 4791 C 460.624 -2.97854 -3.77937 0
M  V30 4792 C 462.976 -3.52763 -3.83677 0
M  V30 4793 C 460.304 -4.31931 -3.97054 0
M  V30 4794 C 462.656 -4.86538 -4.04306 0
M  V30 4795 C 461.32 -5.26356 -4.10494 0
M  V30 4796 H 460.59 -0.26273 -0.692859 0
M  V30 4797 H 463.237 -1.28623 -1.41875 0
M  V30 4798 H 461.542 -0.459094 -3.89101 0
M  V30 4799 H 463.239 -0.849432 -3.919 0
M  V30 4800 H 459.829 -2.25646 -3.64393 0
M  V30 4801 H 464.013 -3.2292 -3.76877 0
M  V30 4802 H 459.269 -4.62324 -4.00083 0
M  V30 4803 H 463.443 -5.60093 -4.13846 0
M  V30 4804 H 461.07 -6.3026 -4.2506 0
M  V30 4805 N 462.645 1.35699 -0.801477 0
M  V30 4806 C 463.577 2.28598 -0.166028 0
M  V30 4807 C 464.59 1.50044 0.631721 0
M  V30 4808 O 465.779 1.72339 0.464921 0
M  V30 4809 C 462.879 3.29625 0.787451 0
M  V30 4810 C 462.052 4.37384 0.037171 0
M  V30 4811 C 461.111 5.183 0.908375 0
M  V30 4812 O 460.137 5.68053 0.361189 0
M  V30 4813 N 461.339 5.35912 2.23112 0
M  V30 4814 H 464.104 2.83771 -0.964071 0
M  V30 4815 H 461.665 1.47994 -0.656469 0
M  V30 4816 H 463.657 3.80648 1.37439 0
M  V30 4817 H 462.227 2.75004 1.48632 0
M  V30 4818 H 461.447 3.87364 -0.730935 0
M  V30 4819 H 462.735 5.0653 -0.480109 0
M  V30 4820 H 462.133 4.97125 2.69968 0
M  V30 4821 H 460.69 5.90133 2.76741 0
M  V30 4822 N 464.123 0.554532 1.47522 0
M  V30 4823 C 465.07 -0.19466 2.29978 0
M  V30 4824 C 466.04 -0.910882 1.38896 0
M  V30 4825 O 467.225 -0.907102 1.67858 0
M  V30 4826 C 464.365 -1.22035 3.22802 0
M  V30 4827 C 463.478 -0.510474 4.28973 0
M  V30 4828 C 462.613 -1.52123 5.08952 0
M  V30 4829 C 461.652 -0.796173 6.069 0
M  V30 4830 N 460.789 -1.75363 6.79847 0
M  V30 4831 H 465.629 0.51461 2.93523 0
M  V30 4832 H 463.166 0.265607 1.44682 0
M  V30 4833 H 465.124 -1.8276 3.7504 0
M  V30 4834 H 463.754 -1.89769 2.61127 0
M  V30 4835 H 462.806 0.211234 3.79813 0
M  V30 4836 H 464.118 0.0576503 4.98767 0
M  V30 4837 H 463.272 -2.20207 5.65326 0
M  V30 4838 H 462.011 -2.12327 4.39054 0
M  V30 4839 H 461.016 -0.101388 5.49707 0
M  V30 4840 H 462.241 -0.199911 6.78806 0
M  V30 4841 H 460.187 -2.3443 6.12682 0
M  V30 4842 H 460.104 -1.23759 7.45801 0
M  V30 4843 H 461.372 -2.4257 7.40797 0
M  V30 4844 N 465.601 -1.54893 0.290851 0
M  V30 4845 C 466.533 -2.20564 -0.623236 0
M  V30 4846 C 467.546 -1.19519 -1.1054 0
M  V30 4847 O 468.735 -1.46165 -1.02459 0
M  V30 4848 C 465.835 -2.83033 -1.86401 0
M  V30 4849 C 465.008 -4.09916 -1.52604 0
M  V30 4850 C 464.067 -4.56284 -2.62091 0
M  V30 4851 O 463.093 -5.2171 -2.27612 0
M  V30 4852 N 464.295 -4.27746 -3.92446 0
M  V30 4853 H 467.06 -2.99638 -0.0610915 0
M  V30 4854 H 464.621 -1.61508 0.112615 0
M  V30 4855 H 466.613 -3.1099 -2.58973 0
M  V30 4856 H 465.183 -2.0786 -2.33481 0
M  V30 4857 H 464.403 -3.89078 -0.633424 0
M  V30 4858 H 465.691 -4.92554 -1.27547 0
M  V30 4859 H 465.089 -3.7531 -4.23272 0
M  V30 4860 H 463.646 -4.60437 -4.61347 0
M  V30 4861 N 467.08 -0.0183926 -1.57589 0
M  V30 4862 C 468.328 0.661253 -1.90976 0
M  V30 4863 C 468.649 1.73281 -0.894353 0
M  V30 4864 O 467.919 1.9579 0.0656788 0
M  V30 4865 H 466.499 0.247233 -0.704901 0
M  V30 4866 H 469.161 -0.0636639 -1.94796 0
M  V30 4867 H 468.257 1.12083 -2.9128 0
M  V30 4868 N 468.558 1.5553 0.254621 0
M  V30 4869 C 469.807 1.76202 0.981612 0
M  V30 4870 C 470.12 0.580883 1.86776 0
M  V30 4871 O 471.326 0.670448 2.63092 0
M  V30 4872 C 469.782 3.11921 1.79537 0
M  V30 4873 C 469.39 4.37659 0.956991 0
M  V30 4874 C 471.134 3.41936 2.51555 0
M  V30 4875 C 469.041 5.64411 1.76619 0
M  V30 4876 H 467.971 0.656841 0.370237 0
M  V30 4877 H 470.622 1.81969 0.236556 0
M  V30 4878 H 469.004 3.00241 2.58208 0
M  V30 4879 H 470.178 4.60307 0.21315 0
M  V30 4880 H 468.493 4.14922 0.350497 0
M  V30 4881 H 471.09 4.33849 3.12536 0
M  V30 4882 H 471.433 2.62905 3.22779 0
M  V30 4883 H 471.966 3.54797 1.799 0
M  V30 4884 H 468.705 6.46241 1.09783 0
M  V30 4885 H 468.225 5.45877 2.48551 0
M  V30 4886 H 469.904 6.03386 2.33527 0
M  V30 4887 N 470.036 -0.519951 1.48776 0
M  V30 4888 C 471.447 -1.10177 1.50725 0
M  V30 4889 C 471.798 -1.94153 0.282678 0
M  V30 4890 O 470.923 -2.07645 -0.609298 0
M  V30 4891 C 471.518 -2.00482 2.73116 0
M  V30 4892 C 470.077 -2.53862 2.77905 0
M  V30 4893 C 469.224 -1.31047 2.44381 0
M  V30 4894 H 472.175 -0.30473 1.55747 0
M  V30 4895 H 472.196 -2.8491 2.52203 0
M  V30 4896 H 471.708 -1.39335 3.62225 0
M  V30 4897 H 469.809 -3.18702 1.93029 0
M  V30 4898 H 469.922 -2.9231 3.79594 0
M  V30 4899 H 468.286 -1.62953 1.95751 0
M  V30 4900 H 469.069 -0.71637 3.35743 0
M  V30 4901 N 471.514 -1.37532 -0.769588 0
M  V30 4902 C 472.742 -1.36059 -1.55871 0
M  V30 4903 C 473.157 0.053544 -1.88724 0
M  V30 4904 O 472.514 1.01591 -1.5161 0
M  V30 4905 C 472.565 -2.20107 -2.86767 0
M  V30 4906 O 472.286 -3.56009 -2.55321 0
M  V30 4907 C 473.787 -2.26636 -3.80987 0
M  V30 4908 H 471.007 -0.465967 -0.482821 0
M  V30 4909 H 473.551 -1.80901 -0.953686 0
M  V30 4910 H 471.706 -1.78768 -3.43687 0
M  V30 4911 H 472.12 -4.0009 -3.39158 0
M  V30 4912 H 473.594 -2.89763 -4.69831 0
M  V30 4913 H 474.071 -1.2754 -4.20274 0
M  V30 4914 H 474.677 -2.68296 -3.29996 0
M  V30 4915 N 472.992 0.995999 -1.22138 0
M  V30 4916 C 474.239 1.7351 -1.04406 0
M  V30 4917 C 474.567 1.89884 0.421244 0
M  V30 4918 O 473.822 1.43683 1.32867 0
M  V30 4919 C 474.121 3.14553 -1.6968 0
M  V30 4920 C 473.787 3.18102 -3.19565 0
M  V30 4921 C 472.449 3.18778 -3.60464 0
M  V30 4922 C 474.801 3.14636 -4.15516 0
M  V30 4923 C 472.129 3.13684 -4.95801 0
M  V30 4924 C 474.481 3.11084 -5.50826 0
M  V30 4925 C 473.145 3.10074 -5.91109 0
M  V30 4926 H 472.415 0.634916 -0.38205 0
M  V30 4927 H 475.062 1.1667 -1.51857 0
M  V30 4928 H 473.367 3.74682 -1.14546 0
M  V30 4929 H 475.064 3.70477 -1.53454 0
M  V30 4930 H 471.654 3.18324 -2.86998 0
M  V30 4931 H 475.838 3.13266 -3.84939 0
M  V30 4932 H 471.094 3.11245 -5.26247 0
M  V30 4933 H 475.268 3.07357 -6.24904 0
M  V30 4934 H 472.895 3.05882 -6.95946 0
M  V30 4935 N 474.47 1.03057 1.19235 0
M  V30 4936 C 475.747 0.642608 1.84743 0
M  V30 4937 C 476.127 -0.878577 1.91948 0
M  V30 4938 O 475.475 -1.77597 1.43776 0
M  V30 4939 C 475.685 1.30665 3.23616 0
M  V30 4940 C 477.033 1.43098 3.9976 0
M  V30 4941 O 478.057 1.26396 3.3302 0
M  V30 4942 O 476.916 1.70223 5.19313 0
M  V30 4943 H 474.01 0.223573 0.796206 0
M  V30 4944 H 476.556 1.12883 1.26711 0
M  V30 4945 H 475.328 2.34544 3.13217 0
M  V30 4946 H 474.951 0.808405 3.89295 0
M  V30 4947 N 475.948 -1.35272 0.808662 0
M  V30 4948 C 477.178 -2.02652 0.401953 0
M  V30 4949 C 477.586 -1.6108 -0.992462 0
M  V30 4950 O 476.929 -0.804984 -1.65123 0
M  V30 4951 C 476.991 -3.57174 0.408246 0
M  V30 4952 C 476.655 -4.22019 1.75353 0
M  V30 4953 C 477.652 -4.43552 2.71215 0
M  V30 4954 C 475.337 -4.59093 2.03811 0
M  V30 4955 C 477.331 -5.01264 3.93717 0
M  V30 4956 C 475.018 -5.16519 3.26576 0
M  V30 4957 C 476.016 -5.37546 4.21347 0
M  V30 4958 O 475.704 -5.93761 5.41944 0
M  V30 4959 H 475.436 -0.656495 0.161216 0
M  V30 4960 H 477.99 -1.73829 1.0942 0
M  V30 4961 H 476.22 -3.85197 -0.340608 0
M  V30 4962 H 477.909 -4.05893 0.0235623 0
M  V30 4963 H 478.675 -4.15288 2.50522 0
M  V30 4964 H 474.554 -4.42039 1.30854 0
M  V30 4965 H 478.098 -5.17592 4.67701 0
M  V30 4966 H 473.995 -5.4421 3.47139 0
M  V30 4967 H 474.763 -6.1221 5.43269 0
M  V30 4968 N 477.426 -0.562348 -1.47226 0
M  V30 4969 C 478.674 -0.0401371 -2.0206 0
M  V30 4970 C 478.995 1.3165 -1.43852 0
M  V30 4971 O 478.265 1.85976 -0.615599 0
M  V30 4972 H 476.845 -0.0118479 -0.746906 0
M  V30 4973 H 479.507 -0.73352 -1.8057 0
M  V30 4974 H 478.603 0.0441254 -3.12069 0
M  V30 4975 N 478.904 1.54736 -0.299062 0
M  V30 4976 C 479.852 2.24897 0.593658 0
M  V30 4977 C 480.846 1.25429 1.13859 0
M  V30 4978 O 482.052 1.43286 1.08945 0
M  V30 4979 H 478.427 0.72207 0.210046 0
M  V30 4980 H 480.398 2.98393 -0.0206421 0
M  V30 4981 C 479.147 3.00159 1.75499 0
M  V30 4982 H 478.47 3.76501 1.34489 0
M  V30 4983 H 479.91 3.52535 2.35574 0
M  V30 4984 C 478.369 2.07015 2.65794 0
M  V30 4985 O 478.899 1.63692 3.66835 0
M  V30 4986 N 477.105 1.73012 2.33485 0
M  V30 4987 H 476.652 2.08439 1.51364 0
M  V30 4988 H 476.61 1.10965 2.94167 0
M  V30 4989 N 480.382 0.0267497 1.57577 0
M  V30 4990 C 481.33 -0.973923 2.11229 0
M  V30 4991 C 482.324 -1.33849 1.03831 0
M  V30 4992 O 483.53 -1.321 1.22269 0
M  V30 4993 H 479.905 -0.331844 0.674821 0
M  V30 4994 H 481.876 -0.496092 2.94247 0
M  V30 4995 C 480.625 -2.24798 2.65257 0
M  V30 4996 H 479.948 -1.9762 3.47543 0
M  V30 4997 H 481.388 -2.93031 3.06445 0
M  V30 4998 C 479.847 -2.97611 1.57891 0
M  V30 4999 O 480.377 -3.89629 0.97735 0
M  V30 5000 N 478.583 -2.59905 1.29992 0
M  V30 5001 H 478.13 -1.85154 1.79097 0
M  V30 5002 H 478.088 -3.08932 0.583798 0
M  V30 5003 N 481.861 -1.55662 -0.24637 0
M  V30 5004 C 483.11 -1.7672 -0.972254 0
M  V30 5005 C 483.423 -0.59078 -1.86465 0
M  V30 5006 O 484.629 -0.684391 -2.62732 0
M  V30 5007 C 483.085 -3.12869 -1.7788 0
M  V30 5008 C 482.693 -4.38161 -0.933768 0
M  V30 5009 C 484.437 -3.43265 -2.49738 0
M  V30 5010 C 482.344 -5.6534 -1.73623 0
M  V30 5011 H 481.274 -0.658795 -0.366749 0
M  V30 5012 H 483.925 -1.82092 -0.226902 0
M  V30 5013 H 482.307 -3.01606 -2.56612 0
M  V30 5014 H 483.481 -4.60413 -0.188736 0
M  V30 5015 H 481.796 -4.15102 -0.328488 0
M  V30 5016 H 484.393 -4.35501 -3.10231 0
M  V30 5017 H 484.736 -2.64614 -3.2138 0
M  V30 5018 H 485.269 -3.55746 -1.78016 0
M  V30 5019 H 482.008 -6.46814 -1.06354 0
M  V30 5020 H 481.528 -5.47188 -2.45653 0
M  V30 5021 H 483.207 -6.04616 -2.30323 0
M  V30 5022 N 483.339 0.512053 -1.4905 0
M  V30 5023 C 484.755 0.84224 -1.35567 0
M  V30 5024 C 484.955 1.97878 -0.380319 0
M  V30 5025 O 484.011 2.51769 0.19201 0
M  V30 5026 C 485.324 1.19286 -2.76028 0
M  V30 5027 C 486.872 1.30171 -2.84648 0
M  V30 5028 C 487.347 1.68568 -4.25851 0
M  V30 5029 N 488.838 1.75638 -4.28609 0
M  V30 5030 C 489.573 2.06769 -5.34821 0
M  V30 5031 N 489.069 2.36201 -6.51292 0
M  V30 5032 N 490.862 2.07927 -5.22229 0
M  V30 5033 H 483.013 -0.237574 -2.11067 0
M  V30 5034 H 485.276 -0.0436747 -0.946993 0
M  V30 5035 H 484.982 0.431199 -3.49047 0
M  V30 5036 H 484.856 2.13889 -3.10695 0
M  V30 5037 H 487.243 2.05411 -2.11873 0
M  V30 5038 H 487.324 0.336457 -2.53578 0
M  V30 5039 H 486.968 0.938824 -4.99148 0
M  V30 5040 H 486.898 2.66174 -4.54377 0
M  V30 5041 H 489.389 1.55097 -3.44606 0
M  V30 5042 H 489.702 2.59112 -7.28066 0
M  V30 5043 H 488.047 2.33681 -6.54536 0
M  V30 5044 H 491.238 1.84403 -4.30248 0
M  V30 5045 H 491.411 2.31856 -6.05101 0
M  V30 5046 N 484.817 1.37938 0.762283 0
M  V30 5047 C 485.749 1.30349 1.88525 0
M  V30 5048 C 486.762 0.217402 1.61342 0
M  V30 5049 O 487.951 0.474291 1.72084 0
M  V30 5050 C 485.051 0.994844 3.23969 0
M  V30 5051 C 484.224 2.18829 3.78725 0
M  V30 5052 C 483.283 1.84844 4.92665 0
M  V30 5053 O 482.309 2.57244 5.07754 0
M  V30 5054 N 483.511 0.798201 5.74986 0
M  V30 5055 H 486.276 2.27114 1.95549 0
M  V30 5056 H 483.837 1.31686 0.941825 0
M  V30 5057 H 485.829 0.748168 3.97724 0
M  V30 5058 H 484.399 0.115446 3.12387 0
M  V30 5059 H 483.619 2.59615 2.96637 0
M  V30 5060 H 484.907 2.98497 4.1204 0
M  V30 5061 H 484.305 0.197611 5.65355 0
M  V30 5062 H 482.862 0.611396 6.48926 0
M  V30 5063 N 486.295 -0.989507 1.22664 0
M  V30 5064 C 487.228 -2.07805 0.942985 0
M  V30 5065 C 488.206 -1.6219 -0.115356 0
M  V30 5066 O 489.39 -1.88492 0.0169565 0
M  V30 5067 C 486.517 -3.361 0.418898 0
M  V30 5068 C 485.563 -4.00643 1.46244 0
M  V30 5069 S 486.396 -4.41059 3.03689 0
M  V30 5070 C 487.552 -5.7252 2.52927 0
M  V30 5071 H 487.785 -2.31547 1.86476 0
M  V30 5072 H 485.318 -1.12446 1.05808 0
M  V30 5073 H 487.276 -4.10315 0.123114 0
M  V30 5074 H 485.937 -3.10383 -0.481818 0
M  V30 5075 H 485.13 -4.93033 1.04569 0
M  V30 5076 H 484.732 -3.32767 1.7071 0
M  V30 5077 H 487.024 -6.49017 1.94379 0
M  V30 5078 H 487.967 -6.19026 3.4382 0
M  V30 5079 H 488.375 -5.30083 1.94094 0
M  V30 5080 N 487.773 -1.03688 -1.18687 0
M  V30 5081 C 488.736 -0.629115 -2.20397 0
M  V30 5082 C 489.736 0.311495 -1.57754 0
M  V30 5083 O 490.926 0.0974107 -1.73927 0
M  V30 5084 C 488.058 0.0782231 -3.4081 0
M  V30 5085 H 489.251 -1.52915 -2.57987 0
M  V30 5086 H 486.804 -0.828988 -1.32505 0
M  V30 5087 H 487.539 0.992233 -3.08748 0
M  V30 5088 H 487.324 -0.597776 -3.87517 0
M  V30 5089 H 488.814 0.350156 -4.16129 0
M  V30 5090 N 489.251 1.34841 -0.815825 0
M  V30 5091 C 490.198 2.29644 -0.230664 0
M  V30 5092 C 491.168 1.53253 0.640533 0
M  V30 5093 O 492.353 1.81653 0.583672 0
M  V30 5094 C 489.493 3.39715 0.607275 0
M  V30 5095 C 488.606 4.31056 -0.28538 0
M  V30 5096 C 487.741 5.28225 0.561446 0
M  V30 5097 C 486.78 6.11204 -0.331035 0
M  V30 5098 N 485.917 7.00483 0.476302 0
M  V30 5099 H 490.757 2.79095 -1.0445 0
M  V30 5100 H 488.294 1.37351 -0.526595 0
M  V30 5101 H 490.252 4.02208 1.10835 0
M  V30 5102 H 488.882 2.91517 1.38629 0
M  V30 5103 H 487.934 3.69487 -0.904621 0
M  V30 5104 H 489.246 4.89239 -0.97193 0
M  V30 5105 H 488.4 5.96135 1.12728 0
M  V30 5106 H 487.139 4.70562 1.28153 0
M  V30 5107 H 486.144 5.42232 -0.909069 0
M  V30 5108 H 487.369 6.70947 -1.04912 0
M  V30 5109 H 485.315 6.45296 1.18019 0
M  V30 5110 H 485.232 7.55847 -0.152008 0
M  V30 5111 H 486.5 7.7273 1.02512 0
M  V30 5112 N 490.729 0.570148 1.46925 0
M  V30 5113 C 491.639 -0.173061 2.33961 0
M  V30 5114 C 492.655 -0.898825 1.48987 0
M  V30 5115 O 493.831 -0.864825 1.81887 0
M  V30 5116 C 490.896 -1.18177 3.25937 0
M  V30 5117 C 489.957 -0.462041 4.26806 0
M  V30 5118 C 489.19 -1.4227 5.14388 0
M  V30 5119 O 489.413 -2.65842 5.04662 0
M  V30 5120 O 488.347 -0.940127 5.94513 0
M  V30 5121 H 492.173 0.541216 2.98839 0
M  V30 5122 H 489.758 0.330647 1.45695 0
M  V30 5123 H 491.64 -1.76372 3.82715 0
M  V30 5124 H 490.315 -1.87774 2.63671 0
M  V30 5125 H 489.222 0.161429 3.73752 0
M  V30 5126 H 490.555 0.192719 4.91823 0
M  V30 5127 N 492.207 -1.54576 0.307264 0
M  V30 5128 C 493.117 -2.27435 -0.57536 0
M  V30 5129 C 494.133 -1.31183 -1.14311 0
M  V30 5130 O 495.309 -1.64175 -1.16656 0
M  V30 5131 C 492.374 -3.00566 -1.72803 0
M  V30 5132 C 491.435 -4.12369 -1.19373 0
M  V30 5133 C 490.668 -4.82003 -2.29147 0
M  V30 5134 O 490.891 -4.51038 -3.49171 0
M  V30 5135 O 489.825 -5.69271 -1.95485 0
M  V30 5136 H 493.651 -3.03696 0.0158558 0
M  V30 5137 H 491.236 -1.49219 0.0735064 0
M  V30 5138 H 493.118 -3.46416 -2.39946 0
M  V30 5139 H 491.793 -2.27195 -2.30574 0
M  V30 5140 H 490.7 -3.70905 -0.487851 0
M  V30 5141 H 492.033 -4.87736 -0.661376 0
M  V30 5142 N 493.685 -0.035106 -1.57561 0
M  V30 5143 C 494.933 0.64096 -1.91667 0
M  V30 5144 C 495.254 1.72323 -0.912681 0
M  V30 5145 O 494.524 1.95849 0.0449089 0
M  V30 5146 H 493.104 0.239743 -0.707483 0
M  V30 5147 H 495.766 -0.084321 -1.94718 0
M  V30 5148 H 494.862 1.08987 -2.92452 0
M  V30 5149 N 495.163 1.55791 0.238111 0
M  V30 5150 C 496.409 1.78297 0.966337 0
M  V30 5151 C 496.742 0.601903 1.84637 0
M  V30 5152 O 496.017 -0.399499 1.90353 0
M  V30 5153 C 496.3 3.10758 1.81939 0
M  V30 5154 C 496.153 4.39283 0.966958 0
M  V30 5155 C 497.472 3.39519 2.80027 0
M  V30 5156 H 494.591 0.648654 0.349882 0
M  V30 5157 H 497.233 1.88525 0.236253 0
M  V30 5158 H 495.383 3.02168 2.44185 0
M  V30 5159 H 497.055 4.59873 0.362514 0
M  V30 5160 H 495.298 4.32948 0.271669 0
M  V30 5161 H 495.969 5.28368 1.59784 0
M  V30 5162 H 498.445 3.48128 2.27917 0
M  V30 5163 H 497.321 4.33402 3.36829 0
M  V30 5164 H 497.582 2.60864 3.56934 0
M  V30 5165 N 496.642 -0.504142 1.49319 0
M  V30 5166 C 497.605 -1.5883 1.65244 0
M  V30 5167 C 498.605 -1.52009 0.524386 0
M  V30 5168 O 499.795 -1.55218 0.79077 0
M  V30 5169 C 496.927 -2.98481 1.64687 0
M  V30 5170 H 498.12 -1.4604 2.61939 0
M  V30 5171 H 495.673 -0.728144 1.38303 0
M  V30 5172 H 496.408 -3.16751 0.695644 0
M  V30 5173 H 496.193 -3.0484 2.46607 0
M  V30 5174 H 497.683 -3.77256 1.79075 0
M  V30 5175 N 498.12 -1.38341 -0.754957 0
M  V30 5176 C 499.068 -1.35573 -1.89005 0
M  V30 5177 C 500.062 -0.241824 -1.67665 0
M  V30 5178 O 501.268 -0.410785 -1.7525 0
M  V30 5179 H 497.643 -0.422898 -0.621821 0
M  V30 5180 H 499.614 -2.31359 -1.88455 0
M  V30 5181 C 498.363 -1.19631 -3.26471 0
M  V30 5182 H 497.686 -2.04605 -3.43477 0
M  V30 5183 H 499.126 -1.21748 -4.06144 0
M  V30 5184 C 497.585 0.0968705 -3.36761 0
M  V30 5185 O 498.115 1.07439 -3.87066 0
M  V30 5186 N 496.321 0.153242 -2.90196 0
M  V30 5187 H 495.868 -0.642908 -2.49448 0
M  V30 5188 H 495.826 1.01807 -2.9746 0
M  V30 5189 N 499.598 0.982988 -1.23187 0
M  V30 5190 C 500.561 2.05649 -1.01198 0
M  V30 5191 C 501.561 1.6078 0.0252464 0
M  V30 5192 O 502.751 1.72878 -0.214243 0
M  V30 5193 C 499.883 3.36744 -0.530656 0
M  V30 5194 H 501.076 2.2659 -1.96461 0
M  V30 5195 H 498.629 1.15602 -1.05195 0
M  V30 5196 H 499.364 3.21492 0.425873 0
M  V30 5197 H 499.149 3.7065 -1.2791 0
M  V30 5198 H 500.639 4.15705 -0.397366 0
M  V30 5199 N 501.076 1.04316 1.18135 0
M  V30 5200 C 502.323 0.74802 1.88178 0
M  V30 5201 C 502.651 -0.72441 1.80506 0
M  V30 5202 O 501.906 -1.54463 1.20165 0
M  V30 5203 C 502.205 1.16271 3.37958 0
M  V30 5204 C 501.871 2.63585 3.65833 0
M  V30 5205 C 500.533 3.03829 3.73151 0
M  V30 5206 C 502.885 3.58822 3.78016 0
M  V30 5207 C 500.213 4.38194 3.90132 0
M  V30 5208 C 502.565 4.92909 3.96514 0
M  V30 5209 C 501.229 5.3282 4.02068 0
M  V30 5210 H 500.499 0.27372 0.688592 0
M  V30 5211 H 503.146 1.30863 1.39811 0
M  V30 5212 H 501.451 0.520938 3.88321 0
M  V30 5213 H 503.148 0.911672 3.90499 0
M  V30 5214 H 499.738 2.31414 3.60757 0
M  V30 5215 H 503.922 3.28875 3.71692 0
M  V30 5216 H 499.178 4.68631 3.92677 0
M  V30 5217 H 503.352 5.66606 4.04883 0
M  V30 5218 H 500.979 6.36943 4.14979 0
M  V30 5219 N 502.554 -1.34406 0.822964 0
M  V30 5220 C 503.831 -1.92733 0.333641 0
M  V30 5221 C 504.211 -1.75107 -1.17901 0
M  V30 5222 O 503.559 -1.12983 -1.98613 0
M  V30 5223 C 503.769 -3.40557 0.763023 0
M  V30 5224 C 505.117 -4.17709 0.761879 0
M  V30 5225 O 506.141 -3.49141 0.705606 0
M  V30 5226 O 505 -5.40082 0.835109 0
M  V30 5227 H 502.094 -0.821964 0.0911249 0
M  V30 5228 H 504.64 -1.4338 0.907757 0
M  V30 5229 H 503.412 -3.47187 1.8049 0
M  V30 5230 H 503.035 -3.97259 0.164605 0
M  V30 5231 N 504.032 -0.577932 -1.46621 0
M  V30 5232 C 505.279 -0.0616879 -2.02406 0
M  V30 5233 C 505.607 1.29638 -1.44997 0
M  V30 5234 O 504.862 1.86176 -0.60308 0
M  V30 5235 C 505.161 0.0590832 -3.57351 0
M  V30 5236 C 504.827 -1.23077 -4.33777 0
M  V30 5237 C 503.489 -1.58416 -4.54376 0
M  V30 5238 C 505.841 -2.08457 -4.77698 0
M  V30 5239 C 503.169 -2.78943 -5.16147 0
M  V30 5240 C 505.521 -3.28204 -5.408 0
M  V30 5241 C 504.185 -3.63832 -5.59627 0
M  V30 5242 H 503.455 -0.0225732 -0.740656 0
M  V30 5243 H 506.102 -0.753609 -1.76048 0
M  V30 5244 H 504.407 0.834104 -3.82818 0
M  V30 5245 H 506.104 0.474202 -3.98186 0
M  V30 5246 H 502.694 -0.945652 -4.18038 0
M  V30 5247 H 506.878 -1.82459 -4.61544 0
M  V30 5248 H 502.134 -3.06689 -5.28916 0
M  V30 5249 H 506.308 -3.94634 -5.73792 0
M  V30 5250 H 503.935 -4.57315 -6.07262 0
M  V30 5251 N 505.51 1.54411 -0.315457 0
M  V30 5252 C 506.921 1.85885 0.174265 0
M  V30 5253 C 507.272 1.23723 1.52273 0
M  V30 5254 O 506.397 0.540246 2.09548 0
M  V30 5255 C 506.992 3.37257 0.322981 0
M  V30 5256 C 505.551 3.68711 0.756922 0
M  V30 5257 C 504.698 2.77013 -0.126195 0
M  V30 5258 H 507.649 1.49374 -0.536007 0
M  V30 5259 H 507.67 3.62539 1.15522 0
M  V30 5260 H 507.182 3.82471 -0.658602 0
M  V30 5261 H 505.283 3.29024 1.74854 0
M  V30 5262 H 505.396 4.75741 0.566291 0
M  V30 5263 H 503.76 2.51588 0.39692 0
M  V30 5264 H 504.543 3.25051 -1.1044 0
M  V30 5265 N 506.988 0.0434614 1.5754 0
M  V30 5266 C 508.236 -0.630786 1.92004 0
M  V30 5267 C 508.557 -1.71836 0.921807 0
M  V30 5268 O 507.827 -1.9587 -0.034522 0
M  V30 5269 H 506.407 -0.235988 0.708745 0
M  V30 5270 H 509.069 0.0946462 1.9467 0
M  V30 5271 H 508.165 -1.07434 2.93026 0
M  V30 5272 N 508.466 -1.55915 -0.229846 0
M  V30 5273 C 509.713 -1.78542 -0.955452 0
M  V30 5274 C 510.041 -0.610785 -1.84661 0
M  V30 5275 O 509.296 0.405213 -1.91459 0
M  V30 5276 C 509.595 -3.06845 -1.8325 0
M  V30 5277 C 509.261 -4.37395 -1.09528 0
M  V30 5278 C 507.923 -4.72868 -0.891598 0
M  V30 5279 C 510.275 -5.18029 -0.574046 0
M  V30 5280 C 507.603 -5.86496 -0.154655 0
M  V30 5281 C 509.955 -6.32423 0.149513 0
M  V30 5282 C 508.619 -6.66504 0.364519 0
M  V30 5283 H 507.889 -0.653333 -0.349625 0
M  V30 5284 H 510.536 -1.90183 -0.224235 0
M  V30 5285 H 508.841 -2.90291 -2.63132 0
M  V30 5286 H 510.538 -3.21553 -2.39592 0
M  V30 5287 H 507.128 -4.09538 -1.26399 0
M  V30 5288 H 511.312 -4.91066 -0.718899 0
M  V30 5289 H 506.568 -6.11396 0.0222356 0
M  V30 5290 H 510.742 -6.94137 0.560947 0
M  V30 5291 H 508.369 -7.54397 0.937495 0
M  V30 5292 N 509.944 0.496216 -1.49584 0
M  V30 5293 C 511.19 1.25189 -1.59548 0
M  V30 5294 C 511.523 1.9212 -0.283466 0
M  V30 5295 O 510.798 1.80947 0.713324 0
M  V30 5296 C 511.081 2.31516 -2.75812 0
M  V30 5297 C 510.934 1.69054 -4.16822 0
M  V30 5298 C 512.253 3.3304 -2.87702 0
M  V30 5299 H 509.372 0.45379 -0.580727 0
M  V30 5300 H 512.014 0.549327 -1.81886 0
M  V30 5301 H 510.164 2.91438 -2.56897 0
M  V30 5302 H 511.836 1.12923 -4.47265 0
M  V30 5303 H 510.079 0.994485 -4.22247 0
M  V30 5304 H 510.75 2.462 -4.94054 0
M  V30 5305 H 513.226 2.83114 -3.04936 0
M  V30 5306 H 512.102 4.04794 -3.7072 0
M  V30 5307 H 512.363 3.95655 -1.97255 0
M  V30 5308 N 511.423 1.38739 0.74761 0
M  V30 5309 C 512.834 1.31507 1.32524 0
M  V30 5310 C 513.185 -0.0263963 1.96182 0
M  V30 5311 O 512.31 -0.92849 1.95469 0
M  V30 5312 C 512.905 2.38162 2.40966 0
M  V30 5313 C 511.464 2.34489 2.94434 0
M  V30 5314 C 510.611 2.20712 1.67873 0
M  V30 5315 H 513.562 1.4901 0.546043 0
M  V30 5316 H 513.583 2.04222 3.21051 0
M  V30 5317 H 513.095 3.35783 1.94605 0
M  V30 5318 H 511.196 1.40467 3.45108 0
M  V30 5319 H 511.309 3.28861 3.48407 0
M  V30 5320 H 509.673 1.67667 1.91729 0
M  V30 5321 H 510.456 3.20285 1.23582 0
M  V30 5322 N 512.901 -0.976442 1.23707 0
M  V30 5323 C 513.864 -2.0511 1.02287 0
M  V30 5324 C 514.864 -1.60791 -0.0167195 0
M  V30 5325 O 516.054 -1.72761 0.223408 0
M  V30 5326 C 513.186 -3.36458 0.548507 0
M  V30 5327 H 514.379 -2.25545 1.9766 0
M  V30 5328 H 511.932 -1.15042 1.05806 0
M  V30 5329 H 512.667 -3.21713 -0.408818 0
M  V30 5330 H 512.452 -3.69967 1.29874 0
M  V30 5331 H 513.942 -4.15489 0.419406 0
M  V30 5332 N 514.379 -1.04941 -1.1758 0
M  V30 5333 C 515.609 -0.777166 -1.91425 0
M  V30 5334 C 516.017 0.670647 -1.76915 0
M  V30 5335 O 515.36 1.46965 -1.10213 0
M  V30 5336 C 515.422 -1.07495 -3.43052 0
M  V30 5337 C 515.086 -2.51844 -3.81345 0
M  V30 5338 C 516.083 -3.50047 -3.844 0
M  V30 5339 C 513.768 -2.86787 -4.12382 0
M  V30 5340 C 515.762 -4.81239 -4.17957 0
M  V30 5341 C 513.449 -4.18182 -4.45608 0
M  V30 5342 C 514.447 -5.15219 -4.48373 0
M  V30 5343 O 514.135 -6.44258 -4.80819 0
M  V30 5344 H 513.867 -0.282209 -0.614275 0
M  V30 5345 H 516.421 -1.40258 -1.50056 0
M  V30 5346 H 514.651 -0.392437 -3.84704 0
M  V30 5347 H 516.34 -0.78912 -3.98155 0
M  V30 5348 H 517.106 -3.24391 -3.60548 0
M  V30 5349 H 512.985 -2.11922 -4.09402 0
M  V30 5350 H 516.529 -5.56974 -4.2003 0
M  V30 5351 H 512.426 -4.43602 -4.68922 0
M  V30 5352 H 513.194 -6.49041 -4.98686 0
M  V30 5353 N 515.857 1.33968 -0.830081 0
M  V30 5354 C 517.106 1.97323 -0.417928 0
M  V30 5355 C 517.419 1.6652 1.02618 0
M  V30 5356 O 518.625 2.2342 1.54259 0
M  V30 5357 C 517.081 3.53099 -0.696359 0
M  V30 5358 C 516.689 3.92788 -2.15457 0
M  V30 5359 C 518.433 4.23049 -0.350724 0
M  V30 5360 C 516.34 5.41506 -2.37751 0
M  V30 5361 H 515.27 0.738409 -0.152541 0
M  V30 5362 H 517.921 1.52711 -1.01744 0
M  V30 5363 H 516.303 3.95991 -0.0265904 0
M  V30 5364 H 517.477 3.6098 -2.86408 0
M  V30 5365 H 515.792 3.35795 -2.46232 0
M  V30 5366 H 518.389 5.32403 -0.495036 0
M  V30 5367 H 518.732 4.10279 0.705476 0
M  V30 5368 H 519.265 3.85657 -0.975362 0
M  V30 5369 H 516.004 5.5927 -3.41903 0
M  V30 5370 H 515.524 5.74804 -1.7135 0
M  V30 5371 H 517.203 6.0828 -2.20465 0
M  V30 5372 N 517.335 0.585699 1.46312 0
M  V30 5373 C 518.751 0.247607 1.57668 0
M  V30 5374 C 518.951 -1.25007 1.58037 0
M  V30 5375 O 518.007 -2.03196 1.49893 0
M  V30 5376 C 519.32 0.899456 2.86933 0
M  V30 5377 C 520.868 0.873326 3.00569 0
M  V30 5378 C 521.343 1.50477 4.32574 0
M  V30 5379 N 522.834 1.46925 4.3928 0
M  V30 5380 C 523.569 1.92719 5.40044 0
M  V30 5381 N 523.065 2.46499 6.47464 0
M  V30 5382 N 524.858 1.83617 5.31264 0
M  V30 5383 H 517.009 1.55841 1.44317 0
M  V30 5384 H 519.272 0.651564 0.688599 0
M  V30 5385 H 518.978 1.95313 2.92482 0
M  V30 5386 H 518.852 0.409476 3.74971 0
M  V30 5387 H 521.239 -0.171736 2.946 0
M  V30 5388 H 521.32 1.40136 2.13999 0
M  V30 5389 H 520.964 2.54905 4.39302 0
M  V30 5390 H 520.894 0.951944 5.17924 0
M  V30 5391 H 523.385 1.07616 3.62253 0
M  V30 5392 H 523.698 2.79291 7.20567 0
M  V30 5393 H 522.043 2.50526 6.48276 0
M  V30 5394 H 525.234 1.41358 4.46246 0
M  V30 5395 H 525.407 2.19622 6.09648 0
M  V30 5396 N 518.813 -1.54241 0.323641 0
M  V30 5397 C 520.224 -1.85975 -0.164405 0
M  V30 5398 C 520.575 -1.24529 -1.51615 0
M  V30 5399 O 519.7 -0.551351 -2.09258 0
M  V30 5400 C 520.295 -3.37424 -0.305091 0
M  V30 5401 C 518.854 -3.69107 -0.737358 0
M  V30 5402 C 518.001 -2.76942 0.140884 0
M  V30 5403 H 520.952 -1.49088 0.543922 0
M  V30 5404 H 520.973 -3.63147 -1.13598 0
M  V30 5405 H 520.485 -3.82116 0.678876 0
M  V30 5406 H 518.586 -3.29947 -1.73107 0
M  V30 5407 H 518.699 -4.76035 -0.541053 0
M  V30 5408 H 517.063 -2.51795 -0.383572 0
M  V30 5409 H 517.846 -3.24461 1.12162 0
M  V30 5410 N 520.291 -0.0518155 -1.57515 0
M  V30 5411 C 521.221 0.920283 -2.146 0
M  V30 5412 C 522.202 1.32406 -1.06783 0
M  V30 5413 O 523.387 1.39866 -1.34726 0
M  V30 5414 C 520.517 2.1949 -2.6915 0
M  V30 5415 C 519.471 1.93116 -3.81956 0
M  V30 5416 C 518.797 3.27037 -4.23026 0
M  V30 5417 C 520.097 1.25225 -5.07066 0
M  V30 5418 H 521.791 0.444801 -2.96077 0
M  V30 5419 H 519.337 0.212508 -1.42423 0
M  V30 5420 H 521.29 2.87894 -3.07725 0
M  V30 5421 H 520.014 2.69244 -1.84865 0
M  V30 5422 H 518.673 1.27123 -3.43854 0
M  V30 5423 H 518.321 3.74595 -3.3569 0
M  V30 5424 H 518.021 3.10189 -4.99056 0
M  V30 5425 H 519.545 3.96673 -4.64202 0
M  V30 5426 H 520.959 1.83666 -5.43083 0
M  V30 5427 H 519.356 1.18702 -5.88243 0
M  V30 5428 H 520.426 0.228382 -4.84362 0
M  V30 5429 N 521.769 1.56035 0.221574 0
M  V30 5430 C 523.016 1.79047 0.94597 0
M  V30 5431 C 523.344 0.62057 1.84334 0
M  V30 5432 O 522.599 -0.395053 1.91671 0
M  V30 5433 C 522.898 3.07813 1.8162 0
M  V30 5434 C 522.564 4.3797 1.07206 0
M  V30 5435 C 521.226 4.73334 0.866508 0
M  V30 5436 C 523.578 5.18326 0.546565 0
M  V30 5437 C 520.906 5.8657 0.123549 0
M  V30 5438 C 523.258 6.32335 -0.18305 0
M  V30 5439 C 521.922 6.66301 -0.399861 0
M  V30 5440 H 521.192 0.655178 0.346155 0
M  V30 5441 H 523.839 1.90299 0.214146 0
M  V30 5442 H 522.144 2.91682 2.61589 0
M  V30 5443 H 523.841 3.2282 2.37884 0
M  V30 5444 H 520.431 4.10202 1.24226 0
M  V30 5445 H 524.615 4.9144 0.692847 0
M  V30 5446 H 519.871 6.11376 -0.0546591 0
M  V30 5447 H 524.045 6.9383 -0.59775 0
M  V30 5448 H 521.672 7.53889 -0.977489 0
M  V30 5449 N 523.247 -0.488276 1.49845 0
M  V30 5450 C 524.487 -1.2516 1.61599 0
M  V30 5451 C 524.851 -1.89615 0.301706 0
M  V30 5452 O 526.052 -2.67182 0.29453 0
M  V30 5453 C 524.323 -2.2805 2.75187 0
M  V30 5454 S 525.882 -3.13552 3.0697 0
M  V30 5455 H 522.7 -0.425178 0.569864 0
M  V30 5456 H 525.302 -0.551545 1.87559 0
M  V30 5457 H 524.006 -1.7925 3.69185 0
M  V30 5458 H 523.537 -3.02708 2.5126 0
M  V30 5459 H 525.552 -4.28927 2.49471 0
M  V30 5460 N 524.725 -1.39134 -0.740242 0
M  V30 5461 C 526.141 -1.20623 -1.0451 0
M  V30 5462 C 526.341 -0.0641651 -2.01398 0
M  V30 5463 O 525.397 0.585843 -2.4561 0
M  V30 5464 C 526.71 -2.53815 -1.6124 0
M  V30 5465 C 528.258 -2.60615 -1.73346 0
M  V30 5466 C 528.733 -3.94015 -2.33486 0
M  V30 5467 N 530.224 -3.95627 -2.40902 0
M  V30 5468 C 530.959 -4.95616 -2.88361 0
M  V30 5469 N 530.455 -6.06003 -3.35756 0
M  V30 5470 N 532.248 -4.82998 -2.87523 0
M  V30 5471 H 524.399 -2.12176 -0.0975576 0
M  V30 5472 H 526.662 -0.942066 -0.105904 0
M  V30 5473 H 526.368 -3.37911 -0.975144 0
M  V30 5474 H 526.242 -2.73162 -2.6012 0
M  V30 5475 H 528.629 -1.76906 -2.36195 0
M  V30 5476 H 528.71 -2.45123 -0.731336 0
M  V30 5477 H 528.354 -4.78153 -1.71267 0
M  V30 5478 H 528.284 -4.06825 -3.34366 0
M  V30 5479 H 530.775 -3.15903 -2.07398 0
M  V30 5480 H 531.088 -6.78215 -3.70464 0
M  V30 5481 H 529.433 -6.09604 -3.33778 0
M  V30 5482 H 532.624 -3.95866 -2.49816 0
M  V30 5483 H 532.797 -5.61072 -3.24196 0
M  V30 5484 N 526.204 0.969867 -1.24223 0
M  V30 5485 C 527.452 1.70918 -1.0785 0
M  V30 5486 C 527.773 1.91186 0.383763 0
M  V30 5487 O 527.043 1.48806 1.27411 0
M  V30 5488 H 525.623 0.633334 -0.396103 0
M  V30 5489 H 528.285 1.16689 -1.56108 0
M  V30 5490 H 527.381 2.69455 -1.57482 0
M  V30 5491 N 527.682 1.05563 1.17022 0
M  V30 5492 C 528.928 0.769074 1.87652 0
M  V30 5493 C 529.261 -0.702326 1.81055 0
M  V30 5494 O 528.536 -1.5139 1.22112 0
M  V30 5495 C 528.819 1.25492 3.37526 0
M  V30 5496 C 528.672 2.78953 3.52853 0
M  V30 5497 C 529.991 0.856919 4.31677 0
M  V30 5498 H 527.11 0.280854 0.681388 0
M  V30 5499 H 529.752 1.31027 1.37593 0
M  V30 5500 H 527.902 0.794516 3.80289 0
M  V30 5501 H 529.574 3.33146 3.19079 0
M  V30 5502 H 527.817 3.18046 2.95007 0
M  V30 5503 H 528.488 3.08011 4.58076 0
M  V30 5504 H 530.964 1.25334 3.96775 0
M  V30 5505 H 529.84 1.22443 5.35069 0
M  V30 5506 H 530.101 -0.238787 4.41455 0
M  V30 5507 N 529.16 -1.33526 0.837174 0
M  V30 5508 C 530.408 -1.97446 0.431211 0
M  V30 5509 C 530.729 -1.6665 -1.01255 0
M  V30 5510 O 529.999 -0.964559 -1.70508 0
M  V30 5511 H 528.579 -0.73043 0.156463 0
M  V30 5512 H 531.241 -1.62918 1.06976 0
M  V30 5513 H 530.337 -3.07001 0.561877 0
M  V30 5514 N 530.638 -0.59345 -1.46 0
M  V30 5515 C 532.049 -0.169801 -1.85926 0
M  V30 5516 C 532.4 1.26984 -1.49565 0
M  V30 5517 O 531.525 1.96076 -0.915602 0
M  V30 5518 C 532.12 -0.301385 -3.37457 0
M  V30 5519 C 530.679 0.0674684 -3.7634 0
M  V30 5520 C 529.826 -0.632383 -2.69993 0
M  V30 5521 H 532.777 -0.801014 -1.37002 0
M  V30 5522 H 532.798 0.470331 -3.77582 0
M  V30 5523 H 532.31 -1.34927 -3.63891 0
M  V30 5524 H 530.411 1.11507 -3.55523 0
M  V30 5525 H 530.524 -0.316332 -4.78055 0
M  V30 5526 H 528.888 -0.0714961 -2.546 0
M  V30 5527 H 529.671 -1.68212 -2.99265 0
M  V30 5528 N 532.116 1.54067 -0.331816 0
M  V30 5529 C 533.363 2.00715 0.268269 0
M  V30 5530 C 533.691 1.21986 1.51491 0
M  V30 5531 O 532.946 0.292309 1.93505 0
M  V30 5532 C 533.245 3.51634 0.639392 0
M  V30 5533 C 532.911 4.48018 -0.509019 0
M  V30 5534 C 531.573 4.74089 -0.824209 0
M  V30 5535 C 533.925 5.05237 -1.28003 0
M  V30 5536 C 531.253 5.54637 -1.91298 0
M  V30 5537 C 533.605 5.86972 -2.35895 0
M  V30 5538 C 532.269 6.11342 -2.67987 0
M  V30 5539 H 531.539 0.734469 0.0981667 0
M  V30 5540 H 534.186 1.8596 -0.457304 0
M  V30 5541 H 532.491 3.6416 1.44551 0
M  V30 5542 H 534.188 3.85175 1.11539 0
M  V30 5543 H 530.778 4.27851 -0.253287 0
M  V30 5544 H 534.962 4.8507 -1.04978 0
M  V30 5545 H 530.218 5.71747 -2.16599 0
M  V30 5546 H 534.392 6.30327 -2.96076 0
M  V30 5547 H 532.019 6.73544 -3.5248 0
M  V30 5548 N 533.594 0.0601682 1.57485 0
M  V30 5549 C 535.01 -0.296422 1.56823 0
M  V30 5550 C 535.21 -1.70831 1.0686 0
M  V30 5551 O 534.266 -2.4174 0.729245 0
M  V30 5552 C 535.579 -0.116681 3.00474 0
M  V30 5553 C 537.127 -0.187103 3.1244 0
M  V30 5554 C 537.602 -0.035783 4.57986 0
M  V30 5555 N 539.093 -0.0917676 4.63109 0
M  V30 5556 C 539.828 0.00107251 5.734 0
M  V30 5557 N 539.324 0.146773 6.92645 0
M  V30 5558 N 541.117 -0.0551577 5.62073 0
M  V30 5559 H 533.268 0.983055 1.88281 0
M  V30 5560 H 535.531 0.382386 0.867459 0
M  V30 5561 H 535.237 0.85712 3.41096 0
M  V30 5562 H 535.111 -0.873929 3.66936 0
M  V30 5563 H 537.498 -1.15138 2.71712 0
M  V30 5564 H 537.579 0.601052 2.48638 0
M  V30 5565 H 537.223 0.925212 4.99402 0
M  V30 5566 H 537.153 -0.843196 5.19806 0
M  V30 5567 H 539.644 -0.203261 3.77353 0
M  V30 5568 H 539.957 0.210076 7.72514 0
M  V30 5569 H 538.302 0.181979 6.94762 0
M  V30 5570 H 541.493 -0.167605 4.678 0
M  V30 5571 H 541.666 0.020652 6.47997 0
M  V30 5572 N 535.072 -1.5615 -0.213296 0
M  V30 5573 C 536.318 -1.80718 -0.933402 0
M  V30 5574 C 536.673 -0.634441 -1.81639 0
M  V30 5575 O 535.966 0.371182 -1.8797 0
M  V30 5576 C 536.16 -3.08772 -1.79985 0
M  V30 5577 C 535.989 -4.38389 -1.00224 0
M  V30 5578 C 534.759 -5.00513 -0.693885 0
M  V30 5579 C 536.957 -5.13013 -0.363598 0
M  V30 5580 N 534.939 -6.13774 0.124266 0
M  V30 5581 C 536.31 -6.19186 0.31757 0
M  V30 5582 C 538.365 -4.97126 -0.277468 0
M  V30 5583 C 537.068 -7.11197 1.07664 0
M  V30 5584 C 539.094 -5.89544 0.468155 0
M  V30 5585 C 538.456 -6.95149 1.13784 0
M  V30 5586 H 534.555 -0.712833 -0.321549 0
M  V30 5587 H 537.139 -1.93633 -0.203588 0
M  V30 5588 H 535.31 -2.97126 -2.50142 0
M  V30 5589 H 537.042 -3.21499 -2.45806 0
M  V30 5590 H 533.797 -4.62619 -1.01391 0
M  V30 5591 H 534.221 -6.74981 0.522418 0
M  V30 5592 H 538.863 -4.15526 -0.78087 0
M  V30 5593 H 536.581 -7.92273 1.59153 0
M  V30 5594 H 540.167 -5.79327 0.535911 0
M  V30 5595 H 539.047 -7.65428 1.70557 0
M  V30 5596 N 536.55 0.480323 -1.50102 0
M  V30 5597 C 537.513 1.56181 -1.6775 0
M  V30 5598 C 538.513 1.51156 -0.548503 0
M  V30 5599 O 539.703 1.5394 -0.815363 0
M  V30 5600 C 536.835 2.95823 -1.69415 0
M  V30 5601 H 538.028 1.41855 -2.6423 0
M  V30 5602 H 535.581 0.70605 -1.39444 0
M  V30 5603 H 536.316 3.15604 -0.745948 0
M  V30 5604 H 536.101 3.00878 -2.51425 0
M  V30 5605 H 537.591 3.74359 -1.85054 0
M  V30 5606 N 538.028 1.39524 0.732853 0
M  V30 5607 C 538.991 1.38189 1.82857 0
M  V30 5608 C 539.991 0.278624 1.58368 0
M  V30 5609 O 541.181 0.536639 1.65728 0
M  V30 5610 C 538.313 1.15661 3.2068 0
M  V30 5611 H 539.506 2.35692 1.85444 0
M  V30 5612 H 537.059 1.2512 0.936728 0
M  V30 5613 H 537.794 0.188482 3.23752 0
M  V30 5614 H 537.579 1.95559 3.39852 0
M  V30 5615 H 539.069 1.17472 4.00737 0
M  V30 5616 N 539.506 -0.963266 1.24736 0
M  V30 5617 C 540.436 -2.07628 1.06832 0
M  V30 5618 C 541.417 -1.70088 -0.0200566 0
M  V30 5619 O 542.602 -1.93636 0.147854 0
M  V30 5620 C 539.732 -3.40636 0.677069 0
M  V30 5621 C 538.686 -3.9215 1.71471 0
M  V30 5622 C 538.012 -5.21553 1.1784 0
M  V30 5623 C 539.312 -4.19493 3.11164 0
M  V30 5624 H 541.006 -2.22864 1.9993 0
M  V30 5625 H 538.552 -1.07093 0.96266 0
M  V30 5626 H 540.505 -4.17941 0.538792 0
M  V30 5627 H 539.229 -3.25313 -0.289612 0
M  V30 5628 H 537.888 -3.17005 1.84128 0
M  V30 5629 H 537.536 -5.02593 0.202195 0
M  V30 5630 H 537.236 -5.56988 1.87185 0
M  V30 5631 H 538.76 -6.01463 1.05233 0
M  V30 5632 H 540.174 -4.87487 3.01711 0
M  V30 5633 H 538.571 -4.66165 3.77902 0
M  V30 5634 H 539.641 -3.26097 3.58871 0
M  V30 5635 N 540.985 -1.06182 -1.16461 0
M  V30 5636 C 542.21 -0.798599 -1.91408 0
M  V30 5637 C 542.635 0.640987 -1.76842 0
M  V30 5638 O 541.993 1.44652 -1.09296 0
M  V30 5639 C 542.041 -1.19665 -3.40165 0
M  V30 5640 O 541.145 -0.334768 -4.11039 0
M  V30 5641 H 540.486 -0.291961 -0.596368 0
M  V30 5642 H 543.016 -1.41732 -1.47557 0
M  V30 5643 H 543.026 -1.16772 -3.90933 0
M  V30 5644 H 541.701 -2.24526 -3.50087 0
M  V30 5645 H 540.278 -0.425168 -3.70468 0
M  V30 5646 N 542.463 1.3308 -0.844243 0
M  V30 5647 C 543.711 1.97215 -0.441676 0
M  V30 5648 C 544.032 1.67185 1.0037 0
M  V30 5649 O 543.302 0.973588 1.69994 0
M  V30 5650 H 541.882 0.72959 -0.160335 0
M  V30 5651 H 544.544 1.62348 -1.07838 0
M  V30 5652 H 543.64 3.06698 -0.57815 0
M  V30 5653 N 543.941 0.601185 1.45683 0
M  V30 5654 C 544.851 -0.123395 2.34275 0
M  V30 5655 C 545.867 -0.86702 1.5086 0
M  V30 5656 O 547.043 -0.826049 1.8368 0
M  V30 5657 C 544.108 -1.11237 3.2837 0
M  V30 5658 C 543.169 -0.371405 4.2769 0
M  V30 5659 C 542.402 -1.31327 5.1729 0
M  V30 5660 O 542.625 -2.55078 5.10188 0
M  V30 5661 O 541.559 -0.813811 5.96373 0
M  V30 5662 H 545.385 0.604483 2.97623 0
M  V30 5663 H 542.97 0.361477 1.44961 0
M  V30 5664 H 544.852 -1.68214 3.8637 0
M  V30 5665 H 543.527 -1.82139 2.67595 0
M  V30 5666 H 542.434 0.24067 3.73325 0
M  V30 5667 H 543.767 0.296998 4.91303 0
M  V30 5668 N 545.419 -1.53889 0.339982 0
M  V30 5669 C 546.382 -2.23547 -0.50592 0
M  V30 5670 C 547.382 -1.23445 -1.03044 0
M  V30 5671 O 548.572 -1.47909 -0.920253 0
M  V30 5672 C 545.704 -2.95234 -1.7044 0
M  V30 5673 H 546.897 -2.99722 0.103247 0
M  V30 5674 H 544.45 -1.56033 0.0912804 0
M  V30 5675 H 545.185 -2.23236 -2.35236 0
M  V30 5676 H 544.97 -3.68654 -1.33553 0
M  V30 5677 H 546.46 -3.48258 -2.30447 0
M  V30 5678 N 546.897 -0.0685191 -1.57451 0
M  V30 5679 C 547.807 0.914677 -2.16034 0
M  V30 5680 C 548.823 1.32938 -1.12265 0
M  V30 5681 O 549.999 1.40275 -1.44516 0
M  V30 5682 C 547.064 2.16519 -2.70777 0
M  V30 5683 C 546.125 1.80721 -3.89408 0
M  V30 5684 C 545.358 2.9981 -4.41531 0
M  V30 5685 O 545.581 4.13727 -3.92666 0
M  V30 5686 O 544.515 2.79817 -5.32903 0
M  V30 5687 H 548.341 0.446364 -3.00402 0
M  V30 5688 H 545.926 0.154367 -1.486 0
M  V30 5689 H 547.808 2.89856 -3.05878 0
M  V30 5690 H 546.483 2.62454 -1.89471 0
M  V30 5691 H 545.39 1.04646 -3.59166 0
M  V30 5692 H 546.723 1.39571 -4.71997 0
M  V30 5693 N 548.375 1.56261 0.205012 0
M  V30 5694 C 549.652 1.70856 0.952233 0
M  V30 5695 C 550.032 0.620501 2.01775 0
M  V30 5696 O 549.38 -0.370035 2.25484 0
M  V30 5697 C 549.59 3.12807 1.54767 0
M  V30 5698 C 550.938 3.72733 2.0336 0
M  V30 5699 O 551.962 3.15873 1.64629 0
M  V30 5700 O 550.821 4.72501 2.746 0
M  V30 5701 H 547.915 0.696496 0.445895 0
M  V30 5702 H 550.461 1.6857 0.195489 0
M  V30 5703 H 549.233 3.83465 0.779132 0
M  V30 5704 H 548.856 3.1928 2.36951 0
M  V30 5705 N 549.853 -0.472356 1.50355 0
M  V30 5706 C 551.102 -1.2213 1.60522 0
M  V30 5707 C 551.415 -1.9312 0.310466 0
M  V30 5708 O 552.621 -2.69936 0.291029 0
M  V30 5709 C 551.077 -2.21909 2.83345 0
M  V30 5710 C 550.685 -1.56727 4.19691 0
M  V30 5711 C 552.429 -2.97453 3.02856 0
M  V30 5712 C 550.336 -2.54785 5.33703 0
M  V30 5713 H 549.266 -0.459543 0.597776 0
M  V30 5714 H 551.917 -0.491922 1.76783 0
M  V30 5715 H 550.299 -2.98133 2.60639 0
M  V30 5716 H 551.473 -0.863007 4.52646 0
M  V30 5717 H 549.788 -0.934685 4.05774 0
M  V30 5718 H 552.385 -3.70838 3.85205 0
M  V30 5719 H 552.728 -3.56764 2.14534 0
M  V30 5720 H 553.261 -2.28342 3.25737 0
M  V30 5721 H 550 -2.00214 6.24175 0
M  V30 5722 H 549.52 -3.23367 5.05167 0
M  V30 5723 H 551.199 -3.16639 5.64224 0
M  V30 5724 N 551.331 -1.39911 -0.725443 0
M  V30 5725 C 552.561 -1.40744 -1.51244 0
M  V30 5726 C 552.969 -0.00275403 -1.892 0
M  V30 5727 O 552.312 0.981299 -1.55294 0
M  V30 5728 C 552.374 -2.22527 -2.82351 0
M  V30 5729 C 552.038 -3.71053 -2.66774 0
M  V30 5730 C 553.035 -4.63916 -2.34686 0
M  V30 5731 C 550.72 -4.14753 -2.83347 0
M  V30 5732 C 552.714 -5.98463 -2.19366 0
M  V30 5733 C 550.401 -5.49372 -2.67644 0
M  V30 5734 C 551.399 -6.41042 -2.357 0
M  V30 5735 O 551.087 -7.73181 -2.20107 0
M  V30 5736 H 550.819 -0.482314 -0.473655 0
M  V30 5737 H 553.373 -1.84472 -0.903284 0
M  V30 5738 H 551.603 -1.73563 -3.45562 0
M  V30 5739 H 553.292 -2.15421 -3.44018 0
M  V30 5740 H 554.058 -4.31453 -2.21525 0
M  V30 5741 H 549.937 -3.43728 -3.072 0
M  V30 5742 H 553.481 -6.69979 -1.94354 0
M  V30 5743 H 549.378 -5.81424 -2.80387 0
M  V30 5744 H 550.146 -7.84008 -2.35103 0
M  V30 5745 N 552.809 0.956637 -1.25245 0
M  V30 5746 C 553.756 2.053 -1.05454 0
M  V30 5747 C 554.726 1.66062 0.0356889 0
M  V30 5748 O 555.911 1.90415 -0.121099 0
M  V30 5749 C 553.051 3.38391 -0.677191 0
M  V30 5750 C 552.164 3.90758 -1.84206 0
M  V30 5751 C 551.299 5.12165 -1.40926 0
M  V30 5752 C 550.338 5.56757 -2.54338 0
M  V30 5753 N 549.475 6.69376 -2.11848 0
M  V30 5754 H 554.315 2.21562 -1.99284 0
M  V30 5755 H 551.852 1.08578 -0.992434 0
M  V30 5756 H 553.81 4.1488 -0.43938 0
M  V30 5757 H 552.44 3.22021 0.224127 0
M  V30 5758 H 551.492 3.10808 -2.19323 0
M  V30 5759 H 552.804 4.19802 -2.69383 0
M  V30 5760 H 551.958 5.96065 -1.13098 0
M  V30 5761 H 550.697 4.84832 -0.528175 0
M  V30 5762 H 549.702 4.71423 -2.82913 0
M  V30 5763 H 550.927 5.861 -3.43022 0
M  V30 5764 H 548.873 6.43756 -1.26153 0
M  V30 5765 H 548.79 6.97927 -2.90574 0
M  V30 5766 H 550.058 7.5669 -1.87191 0
M  V30 5767 N 554.287 1.06798 1.15896 0
M  V30 5768 C 555.515 0.808694 1.90441 0
M  V30 5769 C 555.93 -0.637506 1.77711 0
M  V30 5770 O 555.287 -1.43684 1.12522 0
M  V30 5771 C 555.338 1.20068 3.40978 0
M  V30 5772 O 555.059 2.59013 3.53333 0
M  V30 5773 C 556.56 0.96987 4.3256 0
M  V30 5774 H 553.78 0.292809 0.603742 0
M  V30 5775 H 556.324 1.42296 1.46874 0
M  V30 5776 H 554.479 0.630842 3.82229 0
M  V30 5777 H 554.893 2.7485 4.46719 0
M  V30 5778 H 556.367 1.29371 5.36626 0
M  V30 5779 H 556.844 -0.0941209 4.39099 0
M  V30 5780 H 557.45 1.52433 3.97044 0
M  V30 5781 N 555.766 -1.3263 0.851289 0
M  V30 5782 C 557.043 -1.91982 0.374448 0
M  V30 5783 C 557.423 -1.77568 -1.14161 0
M  V30 5784 O 556.771 -1.1717 -1.96172 0
M  V30 5785 C 556.981 -3.38862 0.835088 0
M  V30 5786 C 558.329 -4.15999 0.850309 0
M  V30 5787 O 559.353 -3.47566 0.779505 0
M  V30 5788 O 558.212 -5.38189 0.949481 0
M  V30 5789 H 555.306 -0.819846 0.10854 0
M  V30 5790 H 557.852 -1.41422 0.937966 0
M  V30 5791 H 556.624 -3.43281 1.87814 0
M  V30 5792 H 556.247 -3.96821 0.248833 0
M  V30 5793 N 557.244 -0.608902 -1.45362 0
M  V30 5794 C 558.207 0.0992563 -2.28985 0
M  V30 5795 C 559.207 0.793841 -1.39838 0
M  V30 5796 O 560.397 0.641804 -1.61946 0
M  V30 5797 C 557.529 1.15073 -3.20891 0
M  V30 5798 H 558.722 -0.635964 -2.93079 0
M  V30 5799 H 556.275 -0.368007 -1.51906 0
M  V30 5800 H 557.01 1.91667 -2.616 0
M  V30 5801 H 556.795 0.656867 -3.86559 0
M  V30 5802 H 558.285 1.64665 -3.83765 0
M  V30 5803 N 558.722 1.53707 -0.348139 0
M  V30 5804 C 559.669 2.25173 0.506518 0
M  V30 5805 C 560.639 1.25174 1.09182 0
M  V30 5806 O 561.824 1.53917 1.12757 0
M  V30 5807 C 558.964 3.03141 1.64923 0
M  V30 5808 C 558.077 4.18002 1.0908 0
M  V30 5809 C 557.212 4.83447 2.20119 0
M  V30 5810 C 556.251 5.90369 1.61651 0
M  V30 5811 N 555.388 6.49575 2.66451 0
M  V30 5812 H 560.228 2.97799 -0.109452 0
M  V30 5813 H 557.765 1.46953 -0.0657866 0
M  V30 5814 H 559.723 3.46607 2.32205 0
M  V30 5815 H 558.353 2.32803 2.23612 0
M  V30 5816 H 557.405 3.79145 0.308783 0
M  V30 5817 H 558.717 4.94892 0.623178 0
M  V30 5818 H 557.871 5.30008 2.95257 0
M  V30 5819 H 556.61 4.05991 2.70227 0
M  V30 5820 H 555.615 5.43186 0.850209 0
M  V30 5821 H 556.84 6.69735 1.1239 0
M  V30 5822 H 554.786 5.74981 3.15805 0
M  V30 5823 H 554.703 7.21952 2.24325 0
M  V30 5824 H 555.971 7.00789 3.41344 0
M  V30 5825 N 560.2 0.0768682 1.57412 0
M  V30 5826 C 561.446 -0.591961 1.93968 0
M  V30 5827 C 561.779 -1.68954 0.9575 0
M  V30 5828 O 561.054 -1.94496 -0.0124675 0
M  V30 5829 C 561.337 -1.16418 3.40762 0
M  V30 5830 C 561.19 -0.0728933 4.49741 0
M  V30 5831 C 562.509 -2.06814 3.88479 0
M  V30 5832 H 559.628 -0.213716 0.705333 0
M  V30 5833 H 562.27 0.14387 1.89455 0
M  V30 5834 H 560.42 -1.79128 3.4474 0
M  V30 5835 H 562.092 0.560446 4.57883 0
M  V30 5836 H 560.335 0.595859 4.29688 0
M  V30 5837 H 561.006 -0.513755 5.49604 0
M  V30 5838 H 563.482 -1.54033 3.8654 0
M  V30 5839 H 562.358 -2.43785 4.91793 0
M  V30 5840 H 562.619 -2.97844 3.26713 0
M  V30 5841 N 561.678 -1.56367 -0.196722 0
M  V30 5842 C 562.625 -1.94417 -1.24382 0
M  V30 5843 C 563.595 -0.804543 -1.45315 0
M  V30 5844 O 564.78 -1.06256 -1.58475 0
M  V30 5845 C 561.92 -2.28757 -2.58388 0
M  V30 5846 C 561.033 -3.55775 -2.45047 0
M  V30 5847 C 560.168 -3.79445 -3.71746 0
M  V30 5848 C 559.207 -4.99894 -3.53231 0
M  V30 5849 N 558.344 -5.19826 -4.71938 0
M  V30 5850 H 563.184 -2.83691 -0.912338 0
M  V30 5851 H 560.721 -1.40392 -0.439135 0
M  V30 5852 H 562.679 -2.46682 -3.36457 0
M  V30 5853 H 561.309 -1.42625 -2.89582 0
M  V30 5854 H 560.361 -3.45905 -1.58284 0
M  V30 5855 H 561.673 -4.44 -2.27299 0
M  V30 5856 H 560.827 -3.97601 -4.58256 0
M  V30 5857 H 559.566 -2.89546 -3.92446 0
M  V30 5858 H 558.571 -4.81662 -2.65107 0
M  V30 5859 H 559.796 -5.913 -3.33978 0
M  V30 5860 H 557.742 -4.32875 -4.92905 0
M  V30 5861 H 557.659 -6.02228 -4.57009 0
M  V30 5862 H 558.927 -5.42439 -5.59803 0
M  V30 5863 N 563.156 0.464375 -1.50603 0
M  V30 5864 C 564.066 1.58723 -1.72754 0
M  V30 5865 C 565.082 1.62925 -0.610844 0
M  V30 5866 O 566.258 1.8067 -0.889963 0
M  V30 5867 C 563.323 2.94897 -1.82309 0
M  V30 5868 C 562.384 3.0103 -3.06071 0
M  V30 5869 C 561.617 4.30708 -3.1516 0
M  V30 5870 O 561.84 5.2159 -2.30868 0
M  V30 5871 O 560.774 4.42571 -4.0794 0
M  V30 5872 H 564.6 1.42954 -2.67951 0
M  V30 5873 H 562.185 0.644579 -1.3478 0
M  V30 5874 H 564.067 3.75764 -1.90735 0
M  V30 5875 H 562.742 3.10851 -0.902967 0
M  V30 5876 H 561.649 2.19217 -3.03142 0
M  V30 5877 H 562.982 2.90014 -3.97684 0
M  V30 5878 N 564.634 1.40294 0.718013 0
M  V30 5879 C 565.564 1.43118 1.84498 0
M  V30 5880 C 566.545 0.292403 1.67568 0
M  V30 5881 O 567.73 0.500675 1.87635 0
M  V30 5882 C 564.86 1.29065 3.22427 0
M  V30 5883 C 563.814 2.40521 3.54025 0
M  V30 5884 C 563.14 2.11546 4.91073 0
M  V30 5885 C 564.44 3.82859 3.55269 0
M  V30 5886 H 566.134 2.37432 1.82391 0
M  V30 5887 H 563.68 1.14283 0.87609 0
M  V30 5888 H 565.633 1.29658 4.00957 0
M  V30 5889 H 564.357 0.312271 3.25104 0
M  V30 5890 H 563.016 2.39173 2.77834 0
M  V30 5891 H 562.664 1.12104 4.90348 0
M  V30 5892 H 562.364 2.86216 5.1318 0
M  V30 5893 H 563.888 2.13817 5.71939 0
M  V30 5894 H 565.302 3.86044 4.23843 0
M  V30 5895 H 563.699 4.57029 3.88902 0
M  V30 5896 H 564.769 4.12617 2.54706 0
M  V30 5897 N 566.112 -0.949982 1.2575 0
M  V30 5898 C 567.361 -1.68956 1.10168 0
M  V30 5899 C 567.674 -1.92327 -0.356309 0
M  V30 5900 O 568.88 -2.64026 -0.632657 0
M  V30 5901 C 567.336 -3.04196 1.92336 0
M  V30 5902 C 566.944 -2.88603 3.42655 0
M  V30 5903 C 568.688 -3.81904 1.85336 0
M  V30 5904 C 566.595 -4.19262 4.17101 0
M  V30 5905 H 565.525 -0.633645 0.408668 0
M  V30 5906 H 568.176 -1.05719 1.49986 0
M  V30 5907 H 566.558 -3.68363 1.45344 0
M  V30 5908 H 567.732 -2.3334 3.97353 0
M  V30 5909 H 566.047 -2.24345 3.50796 0
M  V30 5910 H 568.644 -4.78688 2.38248 0
M  V30 5911 H 568.987 -4.08099 0.822226 0
M  V30 5912 H 569.52 -3.24495 2.30104 0
M  V30 5913 H 566.259 -3.98254 5.20648 0
M  V30 5914 H 565.779 -4.74273 3.67186 0
M  V30 5915 H 567.458 -4.87775 4.25071 0
M  V30 5916 N 567.59 -1.07411 -1.15328 0
M  V30 5917 C 569.001 -0.820261 -1.67716 0
M  V30 5918 C 569.352 0.654539 -1.8496 0
M  V30 5919 O 568.477 1.50664 -1.55337 0
M  V30 5920 C 569.072 -1.48242 -3.04647 0
M  V30 5921 C 567.631 -1.27606 -3.5411 0
M  V30 5922 C 566.778 -1.5517 -2.29821 0
M  V30 5923 H 569.729 -1.23608 -0.995332 0
M  V30 5924 H 569.75 -0.903984 -3.69606 0
M  V30 5925 H 569.262 -2.55578 -2.92064 0
M  V30 5926 H 567.363 -0.222948 -3.71932 0
M  V30 5927 H 567.476 -1.99667 -4.35511 0
M  V30 5928 H 565.84 -0.972747 -2.35393 0
M  V30 5929 H 566.623 -2.63689 -2.19824 0
M  V30 5930 N 569.068 1.32177 -0.85831 0
M  V30 5931 C 570.345 1.91781 -0.384624 0
M  V30 5932 C 570.725 1.78171 1.13217 0
M  V30 5933 O 570.073 1.18209 1.95548 0
M  V30 5934 C 570.283 3.38414 -0.853047 0
M  V30 5935 C 571.631 4.15542 -0.872359 0
M  V30 5936 O 572.655 3.47148 -0.797926 0
M  V30 5937 O 571.514 5.37678 -0.978009 0
M  V30 5938 H 568.608 0.819259 -0.112886 0
M  V30 5939 H 571.154 1.40923 -0.945453 0
M  V30 5940 H 569.926 3.4228 -1.89632 0
M  V30 5941 H 569.549 3.96683 -0.269874 0
M  V30 5942 N 570.547 0.616602 1.45037 0
M  V30 5943 C 571.824 0.0469086 1.95544 0
M  V30 5944 C 572.204 -1.42345 1.55888 0
M  V30 5945 O 571.552 -2.13055 0.825824 0
M  V30 5946 C 571.762 0.254489 3.48071 0
M  V30 5947 C 573.11 0.140025 4.24369 0
M  V30 5948 O 574.134 0.185084 3.55719 0
M  V30 5949 O 572.993 0.0327034 5.4649 0
M  V30 5950 H 570.087 -0.0306051 0.826433 0
M  V30 5951 H 572.633 0.687293 1.55159 0
M  V30 5952 H 571.405 1.27532 3.69934 0
M  V30 5953 H 571.028 -0.42073 3.95368 0
M  V30 5954 N 572.025 -1.5352 0.356285 0
M  V30 5955 C 572.988 -2.24071 -0.482182 0
M  V30 5956 C 573.988 -1.24531 -1.01729 0
M  V30 5957 O 575.178 -1.48876 -0.904513 0
M  V30 5958 C 572.31 -2.97025 -1.67299 0
M  V30 5959 H 573.503 -2.99596 0.135031 0
M  V30 5960 H 571.056 -1.55928 0.107825 0
M  V30 5961 H 571.791 -2.25719 -2.32855 0
M  V30 5962 H 571.576 -3.7005 -1.29636 0
M  V30 5963 H 573.066 -3.50683 -2.26741 0
M  V30 5964 N 573.503 -0.0852151 -1.57369 0
M  V30 5965 C 574.453 0.88767 -2.10011 0
M  V30 5966 C 575.437 1.25021 -1.01285 0
M  V30 5967 O 576.629 1.22694 -1.27574 0
M  V30 5968 C 573.758 2.15037 -2.67608 0
M  V30 5969 C 572.844 1.81371 -3.83361 0
M  V30 5970 N 573.235 1.18216 -4.91791 0
M  V30 5971 C 571.533 2.11041 -3.92909 0
M  V30 5972 C 572.234 1.02941 -5.72519 0
M  V30 5973 N 571.21 1.54351 -5.21226 0
M  V30 5974 H 575.012 0.395279 -2.9123 0
M  V30 5975 H 572.526 0.11829 -1.61969 0
M  V30 5976 H 574.523 2.85667 -3.03644 0
M  V30 5977 H 573.183 2.64851 -1.8784 0
M  V30 5978 H 574.194 0.850168 -5.10874 0
M  V30 5979 H 570.871 2.63138 -3.24136 0
M  V30 5980 H 572.261 0.536298 -6.69756 0
M  V30 5981 N 574.981 1.5647 0.188427 0
M  V30 5982 C 575.911 1.98101 1.23606 0
M  V30 5983 C 576.892 0.853961 1.47111 0
M  V30 5984 O 578.077 1.11879 1.58735 0
M  V30 5985 C 575.207 2.32624 2.57882 0
M  V30 5986 C 574.161 3.48129 2.48978 0
M  V30 5987 C 573.487 3.68347 3.87588 0
M  V30 5988 C 574.787 4.82112 2.00911 0
M  V30 5989 H 576.481 2.85864 0.890068 0
M  V30 5990 H 574.027 1.37532 0.426714 0
M  V30 5991 H 575.98 2.60343 3.3136 0
M  V30 5992 H 574.704 1.41751 2.94235 0
M  V30 5993 H 573.363 3.20511 1.77956 0
M  V30 5994 H 573.011 2.74793 4.21305 0
M  V30 5995 H 572.711 4.46055 3.82503 0
M  V30 5996 H 574.235 3.98449 4.62678 0
M  V30 5997 H 575.649 5.08819 2.64151 0
M  V30 5998 H 574.046 5.63337 2.06814 0
M  V30 5999 H 575.116 4.75249 0.96262 0
M  V30 6000 N 576.459 -0.456382 1.50847 0
M  V30 6001 C 577.409 -1.55045 1.67168 0
M  V30 6002 C 578.393 -1.52061 0.525958 0
M  V30 6003 O 579.585 -1.58836 0.781036 0
M  V30 6004 C 576.714 -2.93386 1.78268 0
M  V30 6005 C 575.8 -3.01198 2.98564 0
M  V30 6006 N 576.191 -2.78792 4.22029 0
M  V30 6007 C 574.489 -3.32346 2.97426 0
M  V30 6008 C 575.19 -2.91953 5.03128 0
M  V30 6009 N 574.166 -3.22797 4.37382 0
M  V30 6010 H 577.968 -1.36444 2.60308 0
M  V30 6011 H 575.482 -0.663375 1.48233 0
M  V30 6012 H 577.479 -3.72071 1.88067 0
M  V30 6013 H 576.139 -3.13022 0.862965 0
M  V30 6014 H 577.15 -2.54087 4.51287 0
M  V30 6015 H 573.827 -3.57877 2.15012 0
M  V30 6016 H 575.217 -2.78745 6.11351 0
M  V30 6017 N 577.937 -1.40673 -0.710563 0
M  V30 6018 C 579.353 -1.22813 -1.01928 0
M  V30 6019 C 579.553 -0.10687 -2.01216 0
M  V30 6020 O 578.609 0.533614 -2.46797 0
M  V30 6021 C 579.922 -2.57178 -1.5582 0
M  V30 6022 C 581.47 -2.64233 -1.67779 0
M  V30 6023 C 581.945 -3.98879 -2.25076 0
M  V30 6024 N 583.436 -4.00647 -2.32456 0
M  V30 6025 C 584.171 -5.01621 -2.77784 0
M  V30 6026 N 583.667 -6.12989 -3.22826 0
M  V30 6027 N 585.46 -4.88988 -2.77213 0
M  V30 6028 H 577.611 -2.12335 -0.05253 0
M  V30 6029 H 579.874 -0.9441 -0.085898 0
M  V30 6030 H 579.58 -3.39903 -0.903249 0
M  V30 6031 H 579.454 -2.78618 -2.54267 0
M  V30 6032 H 581.841 -1.81876 -2.3239 0
M  V30 6033 H 581.922 -2.46619 -0.679178 0
M  V30 6034 H 581.566 -4.81678 -1.61086 0
M  V30 6035 H 581.496 -4.13826 -3.25661 0
M  V30 6036 H 583.987 -3.20231 -2.0065 0
M  V30 6037 H 584.3 -6.85921 -3.55995 0
M  V30 6038 H 582.645 -6.16547 -3.20773 0
M  V30 6039 H 585.836 -4.01075 -2.41363 0
M  V30 6040 H 586.009 -5.67822 -3.12221 0
M  V30 6041 N 579.415 0.9433 -1.26252 0
M  V30 6042 C 580.661 1.69226 -1.12846 0
M  V30 6043 C 581.016 1.8963 0.325282 0
M  V30 6044 O 580.309 1.46435 1.23561 0
M  V30 6045 C 580.503 3.07073 -1.82868 0
M  V30 6046 C 580.332 3.00118 -3.34902 0
M  V30 6047 C 579.102 3.03251 -4.04186 0
M  V30 6048 C 581.3 2.80418 -4.31127 0
M  V30 6049 N 579.282 2.86573 -5.42908 0
M  V30 6050 C 580.653 2.72287 -5.5701 0
M  V30 6051 C 582.708 2.65185 -4.21404 0
M  V30 6052 C 581.411 2.50479 -6.74279 0
M  V30 6053 C 583.437 2.4475 -5.38378 0
M  V30 6054 C 582.799 2.37349 -6.63208 0
M  V30 6055 H 578.898 0.626716 -0.467708 0
M  V30 6056 H 581.482 1.11645 -1.5951 0
M  V30 6057 H 579.653 3.62797 -1.38682 0
M  V30 6058 H 581.385 3.70816 -1.62103 0
M  V30 6059 H 578.14 3.12882 -3.55531 0
M  V30 6060 H 578.564 2.81408 -6.15742 0
M  V30 6061 H 583.206 2.69675 -3.25631 0
M  V30 6062 H 580.924 2.4473 -7.70151 0
M  V30 6063 H 584.51 2.33872 -5.32724 0
M  V30 6064 H 583.39 2.21746 -7.52196 0
M  V30 6065 N 580.893 1.08022 1.14757 0
M  V30 6066 C 581.823 0.728248 2.21853 0
M  V30 6067 C 582.804 -0.287486 1.67653 0
M  V30 6068 O 583.989 -0.158727 1.9355 0
M  V30 6069 C 581.119 0.132549 3.47047 0
M  V30 6070 C 580.073 1.07619 4.14249 0
M  V30 6071 C 579.399 0.342907 5.33599 0
M  V30 6072 C 580.699 2.41268 4.63235 0
M  V30 6073 H 582.393 1.62365 2.51551 0
M  V30 6074 H 579.939 0.782125 1.20908 0
M  V30 6075 H 581.892 -0.125665 4.21213 0
M  V30 6076 H 580.616 -0.797971 3.16702 0
M  V30 6077 H 579.275 1.31944 3.42033 0
M  V30 6078 H 578.923 -0.59129 4.99513 0
M  V30 6079 H 578.623 0.971955 5.79506 0
M  V30 6080 H 580.147 0.0926538 6.1053 0
M  V30 6081 H 581.561 2.21232 5.28894 0
M  V30 6082 H 579.958 2.9983 5.19829 0
M  V30 6083 H 581.028 3.03079 3.78512 0
M  V30 6084 N 582.371 -1.3172 0.865308 0
M  V30 6085 C 583.648 -1.91574 0.394789 0
M  V30 6086 C 584.028 -1.78769 -1.12271 0
M  V30 6087 O 583.376 -1.19245 -1.94918 0
M  V30 6088 C 583.586 -3.37957 0.870982 0
M  V30 6089 C 584.934 -4.15073 0.894384 0
M  V30 6090 O 585.958 -3.4672 0.816325 0
M  V30 6091 O 584.817 -5.37151 1.00651 0
M  V30 6092 H 581.911 -0.818649 0.117229 0
M  V30 6093 H 584.457 -1.4042 0.952913 0
M  V30 6094 H 583.229 -3.41269 1.91444 0
M  V30 6095 H 582.852 -3.96534 0.290907 0
M  V30 6096 N 583.85 -0.624285 -1.44708 0
M  V30 6097 C 584.783 0.133905 -2.27807 0
M  V30 6098 C 585.76 0.857794 -1.38133 0
M  V30 6099 O 586.945 0.863277 -1.6757 0
M  V30 6100 C 584.072 1.19541 -3.16903 0
M  V30 6101 C 583.118 0.572813 -4.22636 0
M  V30 6102 S 583.951 -0.631953 -5.31758 0
M  V30 6103 C 585.106 0.429733 -6.24423 0
M  V30 6104 H 585.34 -0.571072 -2.91764 0
M  V30 6105 H 582.873 -0.412261 -1.48794 0
M  V30 6106 H 584.831 1.80293 -3.68788 0
M  V30 6107 H 583.492 1.87255 -2.5218 0
M  V30 6108 H 582.685 1.37205 -4.84965 0
M  V30 6109 H 582.287 0.0400641 -3.73979 0
M  V30 6110 H 584.579 1.30421 -6.64828 0
M  V30 6111 H 585.522 -0.157804 -7.07924 0
M  V30 6112 H 585.93 0.75256 -5.59461 0
M  V30 6113 N 585.328 1.53329 -0.364422 0
M  V30 6114 C 586.291 2.24323 0.470292 0
M  V30 6115 C 587.291 1.25068 1.01067 0
M  V30 6116 O 588.481 1.49354 0.896605 0
M  V30 6117 C 585.613 2.97908 1.65722 0
M  V30 6118 H 586.806 2.9952 -0.150917 0
M  V30 6119 H 584.359 1.55868 -0.116092 0
M  V30 6120 H 585.094 2.2695 2.31655 0
M  V30 6121 H 584.879 3.70732 1.27671 0
M  V30 6122 H 586.369 3.5188 2.24878 0
M  V30 6123 N 586.806 0.0935595 1.57322 0
M  V30 6124 C 588.222 -0.263091 1.57417 0
M  V30 6125 C 588.422 -1.68526 1.1046 0
M  V30 6126 O 587.478 -2.40139 0.780357 0
M  V30 6127 C 588.791 -0.0529201 3.00653 0
M  V30 6128 C 590.339 -0.120788 3.12767 0
M  V30 6129 C 590.814 0.0613707 4.57959 0
M  V30 6130 N 592.305 0.00648534 4.632 0
M  V30 6131 C 593.04 0.122699 5.73269 0
M  V30 6132 N 592.536 0.29366 6.92177 0
M  V30 6133 N 594.329 0.0640787 5.62063 0
M  V30 6134 H 586.48 1.02277 1.86154 0
M  V30 6135 H 588.743 0.4007 0.859153 0
M  V30 6136 H 588.449 0.929279 3.39201 0
M  V30 6137 H 588.323 -0.795899 3.68708 0
M  V30 6138 H 590.71 -1.09349 2.74093 0
M  V30 6139 H 590.791 0.653656 2.47307 0
M  V30 6140 H 590.435 1.03093 4.97327 0
M  V30 6141 H 590.365 -0.732748 5.21477 0
M  V30 6142 H 592.856 -0.123173 3.77699 0
M  V30 6143 H 593.169 0.37389 7.71895 0
M  V30 6144 H 591.514 0.329307 6.94219 0
M  V30 6145 H 594.705 -0.0683396 4.6805 0
M  V30 6146 H 594.878 0.158097 6.47807 0
M  V30 6147 N 588.284 -1.56567 -0.180126 0
M  V30 6148 C 589.194 -1.98947 -1.24327 0
M  V30 6149 C 590.21 -0.899446 -1.4895 0
M  V30 6150 O 591.386 -1.20639 -1.61271 0
M  V30 6151 C 588.451 -2.33328 -2.56435 0
M  V30 6152 C 587.512 -3.56114 -2.39752 0
M  V30 6153 C 586.745 -3.88845 -3.65561 0
M  V30 6154 O 586.968 -3.22662 -4.70368 0
M  V30 6155 O 585.902 -4.82226 -3.60197 0
M  V30 6156 H 589.728 -2.89634 -0.913565 0
M  V30 6157 H 587.313 -1.44319 -0.386306 0
M  V30 6158 H 589.195 -2.5645 -3.34382 0
M  V30 6159 H 587.87 -1.45806 -2.89002 0
M  V30 6160 H 586.777 -3.38221 -1.59866 0
M  V30 6161 H 588.11 -4.4415 -2.12113 0
M  V30 6162 N 589.762 0.448376 -1.51087 0
M  V30 6163 C 591.178 0.783984 -1.39017 0
M  V30 6164 C 591.378 1.96087 -0.463904 0
M  V30 6165 O 590.434 2.52357 0.0850534 0
M  V30 6166 C 591.747 1.07471 -2.80839 0
M  V30 6167 C 593.295 1.17981 -2.89913 0
M  V30 6168 C 593.77 1.50354 -4.32617 0
M  V30 6169 N 595.261 1.57301 -4.35673 0
M  V30 6170 C 595.996 1.839 -5.4311 0
M  V30 6171 N 595.492 2.08365 -6.60724 0
M  V30 6172 N 597.285 1.8559 -5.30578 0
M  V30 6173 H 589.436 -0.326881 -2.0987 0
M  V30 6174 H 591.699 -0.0838006 -0.944289 0
M  V30 6175 H 591.405 0.282768 -3.50561 0
M  V30 6176 H 591.279 2.00519 -3.19487 0
M  V30 6177 H 593.666 1.9624 -2.20395 0
M  V30 6178 H 593.747 0.228603 -2.54776 0
M  V30 6179 H 593.391 0.726273 -5.0268 0
M  V30 6180 H 593.321 2.46663 -4.65258 0
M  V30 6181 H 595.812 1.40342 -3.50874 0
M  V30 6182 H 596.125 2.27999 -7.38401 0
M  V30 6183 H 594.47 2.0571 -6.63859 0
M  V30 6184 H 597.661 1.65989 -4.37682 0
M  V30 6185 H 597.834 2.05983 -6.1439 0
M  V30 6186 N 591.24 1.41047 0.703093 0
M  V30 6187 C 592.489 1.39301 1.4587 0
M  V30 6188 C 592.802 0.00267077 1.956 0
M  V30 6189 O 594.008 -0.137414 2.71152 0
M  V30 6190 C 592.464 2.44891 2.63735 0
M  V30 6191 C 592.072 3.89796 2.20824 0
M  V30 6192 C 593.816 2.5227 3.41409 0
M  V30 6193 C 591.723 4.86955 3.35602 0
M  V30 6194 H 590.653 0.518005 0.547893 0
M  V30 6195 H 593.304 1.66839 0.764009 0
M  V30 6196 H 591.686 2.10472 3.35436 0
M  V30 6197 H 592.86 4.33424 1.56461 0
M  V30 6198 H 591.175 3.86008 1.56163 0
M  V30 6199 H 593.772 3.22044 4.26839 0
M  V30 6200 H 594.115 1.55714 3.86081 0
M  V30 6201 H 594.648 2.85742 2.7676 0
M  V30 6202 H 591.387 5.84888 2.9595 0
M  V30 6203 H 590.907 4.47982 3.98839 0
M  V30 6204 H 592.586 5.07361 4.01489 0
M  V30 6205 N 592.718 -0.936591 1.26751 0
M  V30 6206 C 593.943 -1.72288 1.15462 0
M  V30 6207 C 594.368 -1.85915 -0.285887 0
M  V30 6208 O 593.726 -1.35272 -1.20711 0
M  V30 6209 C 593.774 -3.10503 1.83359 0
M  V30 6210 O 592.878 -3.96745 1.1255 0
M  V30 6211 H 592.219 -0.52843 0.402067 0
M  V30 6212 H 594.749 -1.17271 1.67656 0
M  V30 6213 H 594.759 -3.60867 1.90365 0
M  V30 6214 H 593.434 -2.99901 2.88153 0
M  V30 6215 H 592.011 -3.55191 1.13551 0
M  V30 6216 N 594.196 -1.08629 -1.14182 0
M  V30 6217 C 595.443 -0.817345 -1.85272 0
M  V30 6218 C 595.771 0.656917 -1.83071 0
M  V30 6219 O 595.026 1.49897 -1.25815 0
M  V30 6220 C 595.325 -1.28734 -3.3341 0
M  V30 6221 C 594.991 -2.76981 -3.55798 0
M  V30 6222 C 593.653 -3.17469 -3.61617 0
M  V30 6223 C 596.005 -3.72605 -3.64438 0
M  V30 6224 C 593.333 -4.52371 -3.736 0
M  V30 6225 C 595.685 -5.07286 -3.77947 0
M  V30 6226 C 594.349 -5.47376 -3.82016 0
M  V30 6227 H 593.619 -0.299088 -0.677958 0
M  V30 6228 H 596.266 -1.35962 -1.34857 0
M  V30 6229 H 594.571 -0.664702 -3.8612 0
M  V30 6230 H 596.268 -1.05598 -3.86846 0
M  V30 6231 H 592.858 -2.44644 -3.51919 0
M  V30 6232 H 597.042 -3.42443 -3.5923 0
M  V30 6233 H 592.298 -4.82882 -3.75013 0
M  V30 6234 H 596.472 -5.81243 -3.83575 0
M  V30 6235 H 594.099 -6.51906 -3.91054 0
M  V30 6236 N 595.674 1.31259 -0.872281 0
M  V30 6237 C 596.606 2.27396 -0.28697 0
M  V30 6238 C 597.619 1.53181 0.551297 0
M  V30 6239 O 598.808 1.74561 0.372914 0
M  V30 6240 C 595.908 3.33335 0.611617 0
M  V30 6241 C 595.081 4.36966 -0.194729 0
M  V30 6242 C 594.14 5.22387 0.632358 0
M  V30 6243 O 593.166 5.69169 0.0595691 0
M  V30 6244 N 594.368 5.46985 1.94391 0
M  V30 6245 H 597.133 2.78261 -1.11314 0
M  V30 6246 H 594.694 1.44306 -0.733994 0
M  V30 6247 H 596.686 3.87398 1.17068 0
M  V30 6248 H 595.256 2.82496 1.33846 0
M  V30 6249 H 594.476 3.82945 -0.935241 0
M  V30 6250 H 595.764 5.03273 -0.747935 0
M  V30 6251 H 595.162 5.10737 2.43237 0
M  V30 6252 H 593.719 6.03973 2.45071 0
M  V30 6253 N 597.152 0.631951 1.44375 0
M  V30 6254 C 598.4 0.136497 2.01639 0
M  V30 6255 C 598.721 -1.24637 1.49969 0
M  V30 6256 O 597.991 -1.82827 0.70363 0
M  V30 6257 H 596.571 0.0474703 0.74549 0
M  V30 6258 H 599.233 0.818837 1.76865 0
M  V30 6259 H 598.329 0.104817 3.11924 0
M  V30 6260 N 598.631 -1.53133 0.372548 0
M  V30 6261 C 599.561 -2.28876 -0.462412 0
M  V30 6262 C 600.542 -1.31583 -1.07796 0
M  V30 6263 O 601.727 -1.60461 -1.09389 0
M  V30 6264 C 598.857 -3.08317 -1.59868 0
M  V30 6265 C 597.811 -4.13355 -1.11003 0
M  V30 6266 C 597.137 -4.8092 -2.33708 0
M  V30 6267 C 598.437 -5.21955 -0.18983 0
M  V30 6268 H 600.131 -2.9892 0.169511 0
M  V30 6269 H 597.677 -1.43761 0.0829658 0
M  V30 6270 H 599.63 -3.60055 -2.18949 0
M  V30 6271 H 598.354 -2.35976 -2.25794 0
M  V30 6272 H 597.013 -3.62573 -0.541869 0
M  V30 6273 H 596.661 -4.05144 -2.98106 0
M  V30 6274 H 596.361 -5.51904 -2.01682 0
M  V30 6275 H 597.885 -5.35455 -2.93462 0
M  V30 6276 H 599.299 -5.69153 -0.688319 0
M  V30 6277 H 597.696 -6.00087 0.0398887 0
M  V30 6278 H 598.766 -4.78811 0.766057 0
M  V30 6279 N 600.109 -0.101901 -1.5727 0
M  V30 6280 C 601.52 0.426173 -1.81771 0
M  V30 6281 C 601.871 1.67725 -1.01797 0
M  V30 6282 O 600.996 2.14958 -0.249386 0
M  V30 6283 C 601.591 0.779962 -3.297 0
M  V30 6284 C 600.15 1.25275 -3.54941 0
M  V30 6285 C 599.297 0.252814 -2.76145 0
M  V30 6286 H 602.248 -0.32726 -1.55289 0
M  V30 6287 H 602.269 1.63891 -3.43395 0
M  V30 6288 H 601.781 -0.130778 -3.8788 0
M  V30 6289 H 599.882 2.18097 -3.021 0
M  V30 6290 H 599.995 1.20988 -4.63572 0
M  V30 6291 H 598.359 0.736362 -2.43823 0
M  V30 6292 H 599.142 -0.650724 -3.37076 0
M  V30 6293 N 601.587 1.56661 0.17182 0
M  V30 6294 C 602.55 1.9549 1.19651 0
M  V30 6295 C 603.55 0.838501 1.37207 0
M  V30 6296 O 604.74 1.10556 1.34622 0
M  V30 6297 C 601.872 2.24927 2.56166 0
M  V30 6298 H 603.065 2.87184 0.864007 0
M  V30 6299 H 600.618 1.50711 0.41425 0
M  V30 6300 H 601.353 1.35944 2.94431 0
M  V30 6301 H 601.138 3.06301 2.4479 0
M  V30 6302 H 602.628 2.55891 3.30014 0
M  V30 6303 N 603.065 -0.440357 1.51323 0
M  V30 6304 C 604.481 -0.7766 1.39431 0
M  V30 6305 C 604.681 -1.95838 0.474296 0
M  V30 6306 O 603.737 -2.52398 -0.0716692 0
M  V30 6307 C 605.05 -1.05981 2.81405 0
M  V30 6308 C 606.598 -1.16442 2.90534 0
M  V30 6309 C 607.073 -1.48058 4.33408 0
M  V30 6310 N 608.564 -1.54988 4.36501 0
M  V30 6311 C 609.299 -1.81017 5.44078 0
M  V30 6312 N 608.795 -2.04858 6.61819 0
M  V30 6313 N 610.588 -1.82774 5.31554 0
M  V30 6314 H 602.739 0.338006 2.09693 0
M  V30 6315 H 605.002 0.0888072 0.943831 0
M  V30 6316 H 604.708 -0.264173 3.50706 0
M  V30 6317 H 604.582 -1.98822 3.20546 0
M  V30 6318 H 606.969 -1.95068 2.21432 0
M  V30 6319 H 607.05 -0.215088 2.54894 0
M  V30 6320 H 606.694 -0.699605 5.03059 0
M  V30 6321 H 606.624 -2.44192 4.66559 0
M  V30 6322 H 609.115 -1.38479 3.51613 0
M  V30 6323 H 609.428 -2.2408 7.396 0
M  V30 6324 H 607.773 -2.02187 6.6494 0
M  V30 6325 H 610.964 -1.63665 4.38556 0
M  V30 6326 H 611.137 -2.02722 6.15474 0
M  V30 6327 N 604.543 -1.41418 -0.695603 0
M  V30 6328 C 605.792 -1.40073 -1.4513 0
M  V30 6329 C 606.105 -0.0130439 -1.95596 0
M  V30 6330 O 607.311 0.123032 -2.71221 0
M  V30 6331 C 605.767 -2.46286 -2.62433 0
M  V30 6332 C 605.375 -3.90962 -2.18753 0
M  V30 6333 C 607.119 -2.54077 -3.40066 0
M  V30 6334 C 605.026 -4.88728 -3.33015 0
M  V30 6335 H 603.956 -0.520903 -0.545138 0
M  V30 6336 H 606.607 -1.67242 -0.75515 0
M  V30 6337 H 604.989 -2.12248 -3.34315 0
M  V30 6338 H 606.163 -4.34248 -1.54161 0
M  V30 6339 H 604.478 -3.86831 -1.54114 0
M  V30 6340 H 607.075 -3.24303 -4.25125 0
M  V30 6341 H 607.418 -1.5776 -3.8525 0
M  V30 6342 H 607.951 -2.87206 -2.75241 0
M  V30 6343 H 604.69 -5.86449 -2.92844 0
M  V30 6344 H 604.21 -4.50091 -3.96457 0
M  V30 6345 H 605.889 -5.09483 -3.98793 0
M  V30 6346 N 606.021 0.929856 -1.27246 0
M  V30 6347 C 607.261 1.6919 -1.14691 0
M  V30 6348 C 607.625 1.896 0.302621 0
M  V30 6349 O 608.826 2.63102 0.550543 0
M  V30 6350 C 607.097 3.02291 -1.9067 0
M  V30 6351 S 608.656 3.93436 -1.94303 0
M  V30 6352 H 605.474 0.581248 -0.409477 0
M  V30 6353 H 608.076 1.10722 -1.61124 0
M  V30 6354 H 606.78 2.85125 -2.95181 0
M  V30 6355 H 606.311 3.65813 -1.44723 0
M  V30 6356 H 608.326 4.85224 -1.0379 0
M  V30 6357 N 607.499 1.09233 1.13605 0
M  V30 6358 C 608.745 0.838255 1.85324 0
M  V30 6359 C 609.1 -0.629314 1.81817 0
M  V30 6360 O 608.393 -1.45729 1.24393 0
M  V30 6361 C 608.587 1.305 3.32723 0
M  V30 6362 C 608.416 2.81641 3.50583 0
M  V30 6363 C 607.186 3.49494 3.64941 0
M  V30 6364 C 609.384 3.79789 3.46792 0
M  V30 6365 N 607.366 4.89082 3.71042 0
M  V30 6366 C 608.737 5.05319 3.59239 0
M  V30 6367 C 610.792 3.72673 3.30181 0
M  V30 6368 C 609.495 6.24574 3.56791 0
M  V30 6369 C 611.521 4.91413 3.29039 0
M  V30 6370 C 610.883 6.15785 3.42035 0
M  V30 6371 H 606.982 0.359572 0.69443 0
M  V30 6372 H 609.566 1.39232 1.36098 0
M  V30 6373 H 607.737 0.778411 3.8052 0
M  V30 6374 H 609.469 0.996465 3.92241 0
M  V30 6375 H 606.224 2.9992 3.66531 0
M  V30 6376 H 606.648 5.61787 3.77789 0
M  V30 6377 H 611.29 2.77444 3.19037 0
M  V30 6378 H 609.008 7.20105 3.66708 0
M  V30 6379 H 612.594 4.87604 3.17386 0
M  V30 6380 H 611.474 7.06126 3.41111 0
M  V30 6381 N 608.977 -1.30795 0.87923 0
M  V30 6382 C 610.223 -1.96653 0.495519 0
M  V30 6383 C 610.556 -1.69282 -0.951703 0
M  V30 6384 O 609.831 -0.994374 -1.6716 0
M  V30 6385 C 610.114 -3.51898 0.764174 0
M  V30 6386 C 609.967 -3.88808 2.2616 0
M  V30 6387 C 611.286 -4.39462 0.236825 0
M  V30 6388 H 608.405 -0.7143 0.181507 0
M  V30 6389 H 611.047 -1.54765 1.10217 0
M  V30 6390 H 609.197 -3.87709 0.247841 0
M  V30 6391 H 610.869 -3.63051 2.8459 0
M  V30 6392 H 609.112 -3.37082 2.73053 0
M  V30 6393 H 609.783 -4.97086 2.4002 0
M  V30 6394 H 612.259 -4.10528 0.678683 0
M  V30 6395 H 611.135 -5.47018 0.454176 0
M  V30 6396 H 611.396 -4.33621 -0.861683 0
M  V30 6397 N 610.455 -0.639598 -1.44038 0
M  V30 6398 C 611.703 -0.147188 -2.01563 0
M  V30 6399 C 612.024 1.2384 -1.50628 0
M  V30 6400 O 611.294 1.82452 -0.713316 0
M  V30 6401 H 609.874 -0.0514231 -0.745228 0
M  V30 6402 H 612.536 -0.828205 -1.76428 0
M  V30 6403 H 611.632 -0.121358 -3.11864 0
M  V30 6404 N 611.933 1.52934 -0.380664 0
M  V30 6405 C 612.863 2.29118 0.450268 0
M  V30 6406 C 613.844 1.32153 1.07096 0
M  V30 6407 O 615.029 1.61038 1.08537 0
M  V30 6408 C 612.159 3.09161 1.58231 0
M  V30 6409 C 611.113 4.13938 1.0881 0
M  V30 6410 C 610.439 4.82153 2.31155 0
M  V30 6411 C 611.739 5.22048 0.162146 0
M  V30 6412 H 613.433 2.98826 -0.185361 0
M  V30 6413 H 610.979 1.43715 -0.0905886 0
M  V30 6414 H 612.932 3.61211 2.17036 0
M  V30 6415 H 611.656 2.3717 2.2454 0
M  V30 6416 H 610.315 3.62855 0.522633 0
M  V30 6417 H 609.963 4.06719 2.95953 0
M  V30 6418 H 609.663 5.52966 1.98752 0
M  V30 6419 H 611.187 5.37004 2.90618 0
M  V30 6420 H 612.601 5.6951 0.658126 0
M  V30 6421 H 610.998 6.00057 -0.0717122 0
M  V30 6422 H 612.068 4.78398 -0.791438 0
M  V30 6423 N 613.412 0.11024 1.57214 0
M  V30 6424 C 614.66 -0.548783 1.94506 0
M  V30 6425 C 614.981 -1.67772 0.99386 0
M  V30 6426 O 614.251 -1.9584 0.0485841 0
M  V30 6427 H 612.831 -0.205715 0.718116 0
M  V30 6428 H 615.493 0.177127 1.94093 0
M  V30 6429 H 614.589 -0.949096 2.97319 0
M  V30 6430 N 614.89 -1.56749 -0.16351 0
M  V30 6431 C 615.82 -2.00042 -1.20438 0
M  V30 6432 C 616.801 -0.877256 -1.45733 0
M  V30 6433 O 617.986 -1.1439 -1.56935 0
M  V30 6434 C 615.116 -2.36697 -2.54149 0
M  V30 6435 C 614.07 -3.52046 -2.43408 0
M  V30 6436 C 613.396 -3.74466 -3.81679 0
M  V30 6437 C 614.696 -4.85247 -1.93216 0
M  V30 6438 H 616.39 -2.87244 -0.844477 0
M  V30 6439 H 613.936 -1.38194 -0.40478 0
M  V30 6440 H 615.889 -2.65582 -3.27176 0
M  V30 6441 H 614.613 -1.46414 -2.91943 0
M  V30 6442 H 613.272 -3.23301 -1.72834 0
M  V30 6443 H 612.92 -2.81461 -4.1688 0
M  V30 6444 H 612.62 -4.52084 -3.75359 0
M  V30 6445 H 614.144 -4.0576 -4.5628 0
M  V30 6446 H 615.558 -5.12957 -2.56023 0
M  V30 6447 H 613.955 -5.66556 -1.97825 0
M  V30 6448 H 615.025 -4.7672 -0.88689 0
M  V30 6449 N 616.368 0.432326 -1.51554 0
M  V30 6450 C 617.784 0.769195 -1.39841 0
M  V30 6451 C 617.984 1.95584 -0.484675 0
M  V30 6452 O 617.04 2.52433 0.0582829 0
M  V30 6453 C 618.353 1.04487 -2.81963 0
M  V30 6454 C 619.901 1.149 -2.91148 0
M  V30 6455 C 620.376 1.45758 -4.34187 0
M  V30 6456 N 621.867 1.52671 -4.37317 0
M  V30 6457 C 622.602 1.78129 -5.4503 0
M  V30 6458 N 622.098 2.01345 -6.62897 0
M  V30 6459 N 623.891 1.79953 -5.32516 0
M  V30 6460 H 616.042 -0.349122 -2.09511 0
M  V30 6461 H 618.305 -0.0938113 -0.943347 0
M  V30 6462 H 618.011 0.24557 -3.50842 0
M  V30 6463 H 617.885 1.97119 -3.21596 0
M  V30 6464 H 620.272 1.93891 -2.22464 0
M  V30 6465 H 620.353 0.201568 -2.55005 0
M  V30 6466 H 619.997 0.672917 -5.03423 0
M  V30 6467 H 619.927 2.41715 -4.67848 0
M  V30 6468 H 622.418 1.36612 -3.52343 0
M  V30 6469 H 622.731 2.20155 -7.40778 0
M  V30 6470 H 621.076 1.98657 -6.66003 0
M  V30 6471 H 624.267 1.61337 -4.39418 0
M  V30 6472 H 624.44 1.99455 -6.1654 0
M  V30 6473 N 617.846 1.41785 0.688094 0
M  V30 6474 C 618.809 1.43936 1.78368 0
M  V30 6475 C 619.809 0.328866 1.57401 0
M  V30 6476 O 620.999 0.589093 1.63937 0
M  V30 6477 C 618.131 1.25804 3.16838 0
M  V30 6478 H 619.324 2.41472 1.77852 0
M  V30 6479 H 616.877 1.28037 0.896448 0
M  V30 6480 H 617.612 0.291386 3.22988 0
M  V30 6481 H 617.397 2.06272 3.33458 0
M  V30 6482 H 618.887 1.30162 3.96797 0
M  V30 6483 N 619.324 -0.923095 1.27737 0
M  V30 6484 C 620.271 -2.02432 1.1086 0
M  V30 6485 C 621.241 -1.66098 0.00835195 0
M  V30 6486 O 622.426 -1.90027 0.171542 0
M  V30 6487 C 619.566 -3.36476 0.766671 0
M  V30 6488 C 618.679 -3.85737 1.94501 0
M  V30 6489 C 617.814 -5.08249 1.54455 0
M  V30 6490 C 616.853 -5.49818 2.6901 0
M  V30 6491 N 615.99 -6.63524 2.29521 0
M  V30 6492 H 620.83 -2.16201 2.05089 0
M  V30 6493 H 618.367 -1.05909 1.02087 0
M  V30 6494 H 620.325 -4.13569 0.549223 0
M  V30 6495 H 618.955 -3.22502 -0.13867 0
M  V30 6496 H 618.007 -3.04883 2.27487 0
M  V30 6497 H 619.319 -4.12513 2.80419 0
M  V30 6498 H 618.473 -5.92857 1.28862 0
M  V30 6499 H 617.212 -4.83261 0.656534 0
M  V30 6500 H 616.217 -4.63757 2.95313 0
M  V30 6501 H 617.442 -5.76799 3.5844 0
M  V30 6502 H 615.388 -6.40185 1.43177 0
M  V30 6503 H 615.305 -6.89978 3.08977 0
M  V30 6504 H 616.573 -7.51461 2.07187 0
M  V30 6505 N 620.802 -1.09834 -1.13024 0
M  V30 6506 C 621.732 -0.763451 -2.20666 0
M  V30 6507 C 622.713 0.260778 -1.68089 0
M  V30 6508 O 623.898 0.127915 -1.93778 0
M  V30 6509 C 621.028 -0.187744 -3.46792 0
M  V30 6510 C 619.982 -1.14196 -4.12484 0
M  V30 6511 C 619.308 -0.427755 -5.32986 0
M  V30 6512 C 620.608 -2.48607 -4.59338 0
M  V30 6513 H 622.302 -1.66347 -2.48936 0
M  V30 6514 H 619.848 -0.801261 -1.19649 0
M  V30 6515 H 621.801 0.0586375 -4.21359 0
M  V30 6516 H 620.525 0.747485 -3.17931 0
M  V30 6517 H 619.184 -1.37369 -3.3989 0
M  V30 6518 H 618.832 0.511747 -5.0039 0
M  V30 6519 H 618.532 -1.06403 -5.77886 0
M  V30 6520 H 620.056 -0.189772 -6.10305 0
M  V30 6521 H 621.47 -2.29618 -5.25308 0
M  V30 6522 H 619.867 -3.08062 -5.14993 0
M  V30 6523 H 620.937 -3.09062 -3.73642 0
M  V30 6524 N 622.28 1.30327 -0.886154 0
M  V30 6525 C 623.528 1.9571 -0.504195 0
M  V30 6526 C 623.849 1.70294 0.950003 0
M  V30 6527 O 623.119 1.02718 1.66811 0
M  V30 6528 H 621.699 0.72412 -0.183465 0
M  V30 6529 H 624.361 1.58835 -1.12949 0
M  V30 6530 H 623.457 3.04704 -0.675431 0
M  V30 6531 N 623.758 0.647228 1.43697 0
M  V30 6532 C 624.688 -0.0345631 2.33474 0
M  V30 6533 C 625.669 -0.818193 1.4913 0
M  V30 6534 O 626.854 -0.780867 1.77809 0
M  V30 6535 C 623.984 -1.00576 3.32418 0
M  V30 6536 C 622.938 -0.33266 4.26705 0
M  V30 6537 C 622.264 -1.41489 5.1564 0
M  V30 6538 C 623.564 0.771204 5.16575 0
M  V30 6539 H 625.258 0.715163 2.90733 0
M  V30 6540 H 622.804 0.345364 1.39797 0
M  V30 6541 H 624.757 -1.49159 3.94119 0
M  V30 6542 H 623.481 -1.78657 2.73403 0
M  V30 6543 H 622.14 0.13267 3.6636 0
M  V30 6544 H 621.788 -2.18698 4.52968 0
M  V30 6545 H 621.488 -0.969799 5.79542 0
M  V30 6546 H 623.012 -1.9022 5.80214 0
M  V30 6547 H 624.426 0.36779 5.72119 0
M  V30 6548 H 622.823 1.1404 5.89165 0
M  V30 6549 H 623.893 1.63169 4.56622 0
M  V30 6550 N 625.236 -1.5273 0.388769 0
M  V30 6551 C 626.199 -2.25043 -0.434544 0
M  V30 6552 C 627.199 -1.26661 -0.990644 0
M  V30 6553 O 628.389 -1.50762 -0.872731 0
M  V30 6554 C 625.521 -3.00507 -1.60961 0
M  V30 6555 H 626.714 -2.99242 0.198549 0
M  V30 6556 H 624.267 -1.55664 0.140875 0
M  V30 6557 H 625.002 -2.30607 -2.28015 0
M  V30 6558 H 624.787 -3.72716 -1.21757 0
M  V30 6559 H 626.277 -3.55413 -2.19251 0
M  V30 6560 N 626.714 -0.118576 -1.57153 0
M  V30 6561 C 627.961 0.539526 -1.9518 0
M  V30 6562 C 628.289 1.66714 -1.00184 0
M  V30 6563 O 627.544 1.95683 -0.0256482 0
M  V30 6564 C 627.843 1.11303 -3.39627 0
M  V30 6565 C 627.509 0.106809 -4.50773 0
M  V30 6566 C 626.171 -0.169876 -4.809 0
M  V30 6567 C 628.523 -0.57895 -5.17975 0
M  V30 6568 C 625.851 -1.13861 -5.75545 0
M  V30 6569 C 628.203 -1.53631 -6.13661 0
M  V30 6570 C 626.867 -1.82099 -6.42181 0
M  V30 6571 H 626.137 0.197427 -0.714215 0
M  V30 6572 H 628.784 -0.199391 -1.90459 0
M  V30 6573 H 627.089 1.92869 -3.4104 0
M  V30 6574 H 628.786 1.63032 -3.66363 0
M  V30 6575 H 625.376 0.332645 -4.27307 0
M  V30 6576 H 629.56 -0.378359 -4.94856 0
M  V30 6577 H 624.816 -1.36592 -5.95947 0
M  V30 6578 H 628.99 -2.07337 -6.64819 0
M  V30 6579 H 626.617 -2.57319 -7.15326 0
M  V30 6580 N 628.193 1.56834 0.155195 0
M  V30 6581 C 629.141 1.98584 1.21107 0
M  V30 6582 C 630.135 0.876987 1.44932 0
M  V30 6583 O 631.341 1.06215 1.45322 0
M  V30 6584 H 627.716 0.632039 0.407469 0
M  V30 6585 H 629.687 2.86561 0.832195 0
M  V30 6586 C 628.436 2.37555 2.53895 0
M  V30 6587 H 627.759 3.22428 2.3639 0
M  V30 6588 H 629.199 2.70598 3.26424 0
M  V30 6589 C 627.658 1.22507 3.13837 0
M  V30 6590 O 628.188 0.521388 3.98302 0
M  V30 6591 N 626.394 0.991444 2.73164 0
M  V30 6592 H 625.941 1.56544 2.04577 0
M  V30 6593 H 625.899 0.223546 3.13604 0
M  V30 6594 N 629.671 -0.424282 1.51781 0
M  V30 6595 C 630.581 -1.54087 1.76902 0
M  V30 6596 C 631.597 -1.61249 0.653826 0
M  V30 6597 O 632.773 -1.78247 0.937552 0
M  V30 6598 C 629.838 -2.8996 1.90063 0
M  V30 6599 C 628.899 -2.92809 3.13945 0
M  V30 6600 C 628.132 -4.22201 3.26469 0
M  V30 6601 O 628.355 -5.15286 2.44616 0
M  V30 6602 O 627.289 -4.31599 4.1953 0
M  V30 6603 H 631.115 -1.358 2.71647 0
M  V30 6604 H 628.7 -0.608618 1.36441 0
M  V30 6605 H 630.582 -3.70575 2.0063 0
M  V30 6606 H 629.257 -3.08347 0.985067 0
M  V30 6607 H 628.164 -2.11102 3.08847 0
M  V30 6608 H 629.497 -2.79369 4.05233 0
M  V30 6609 N 631.149 -1.42148 -0.680565 0
M  V30 6610 C 632.082 -1.39602 -1.80517 0
M  V30 6611 C 633.06 -0.261098 -1.6049 0
M  V30 6612 O 634.244 -0.450404 -1.8304 0
M  V30 6613 C 631.371 -1.18134 -3.1743 0
M  V30 6614 C 630.417 -2.34543 -3.56219 0
M  V30 6615 S 631.25 -3.97063 -3.59306 0
M  V30 6616 C 632.406 -3.77926 -4.98921 0
M  V30 6617 H 632.639 -2.3477 -1.82402 0
M  V30 6618 H 630.172 -1.28851 -0.850691 0
M  V30 6619 H 632.13 -1.06434 -3.96462 0
M  V30 6620 H 630.791 -0.245611 -3.13138 0
M  V30 6621 H 629.984 -2.15255 -4.55721 0
M  V30 6622 H 629.586 -2.42728 -2.84533 0
M  V30 6623 H 631.878 -3.3856 -5.86842 0
M  V30 6624 H 632.821 -4.77084 -5.23256 0
M  V30 6625 H 633.229 -3.10904 -4.71167 0
M  V30 6626 N 632.627 0.916307 -1.28225 0
M  V30 6627 C 633.873 1.66765 -1.154 0
M  V30 6628 C 634.206 1.91912 0.297251 0
M  V30 6629 O 633.481 1.51766 1.21644 0
M  V30 6630 C 633.764 3.02715 -1.95028 0
M  V30 6631 C 633.617 2.84738 -3.48201 0
M  V30 6632 C 634.936 4.03215 -1.76369 0
M  V30 6633 H 632.055 0.605205 -0.42059 0
M  V30 6634 H 634.697 1.06255 -1.57512 0
M  V30 6635 H 632.847 3.54365 -1.59242 0
M  V30 6636 H 634.519 2.40118 -3.9388 0
M  V30 6637 H 632.762 2.19848 -3.73964 0
M  V30 6638 H 633.433 3.8127 -3.99171 0
M  V30 6639 H 635.909 3.60617 -2.07593 0
M  V30 6640 H 634.785 4.96306 -2.34459 0
M  V30 6641 H 635.046 4.36288 -0.71452 0
M  V30 6642 N 634.105 1.10431 1.1244 0
M  V30 6643 C 635.521 0.836096 1.35947 0
M  V30 6644 C 635.721 -0.544475 1.94004 0
M  V30 6645 O 634.777 -1.29735 2.16622 0
M  V30 6646 C 636.09 1.93575 2.30107 0
M  V30 6647 C 637.638 1.9642 2.43697 0
M  V30 6648 C 638.113 3.05559 3.41171 0
M  V30 6649 N 639.604 3.04865 3.48728 0
M  V30 6650 C 640.339 3.85954 4.24061 0
M  V30 6651 N 639.835 4.76977 5.02458 0
M  V30 6652 N 641.628 3.74172 4.19466 0
M  V30 6653 H 633.779 1.9942 0.731124 0
M  V30 6654 H 636.042 0.866607 0.384312 0
M  V30 6655 H 635.748 2.92943 1.94621 0
M  V30 6656 H 635.622 1.8229 3.30227 0
M  V30 6657 H 638.009 0.97685 2.78463 0
M  V30 6658 H 638.09 2.11782 1.43465 0
M  V30 6659 H 637.734 4.04513 3.07135 0
M  V30 6660 H 637.664 2.87438 4.41234 0
M  V30 6661 H 640.155 2.38908 2.92799 0
M  V30 6662 H 640.468 5.35409 5.57277 0
M  V30 6663 H 638.813 4.81006 5.01655 0
M  V30 6664 H 642.004 3.02412 3.57302 0
M  V30 6665 H 642.177 4.37602 4.77921 0
M  V30 6666 N 635.583 -1.29855 0.893053 0
M  V30 6667 C 636.808 -2.00512 0.530066 0
M  V30 6668 C 637.233 -1.66446 -0.876199 0
M  V30 6669 O 636.591 -0.885446 -1.58207 0
M  V30 6670 C 636.639 -3.53308 0.721505 0
M  V30 6671 O 635.743 -4.11764 -0.228994 0
M  V30 6672 H 635.084 -0.630617 0.207891 0
M  V30 6673 H 637.614 -1.6551 1.20282 0
M  V30 6674 H 637.624 -4.03206 0.623599 0
M  V30 6675 H 636.299 -3.77439 1.74678 0
M  V30 6676 H 634.876 -3.72805 -0.0841034 0
M  V30 6677 N 637.061 -0.65484 -1.43351 0
M  V30 6678 C 638.309 -0.168559 -2.01396 0
M  V30 6679 C 638.63 1.22235 -1.51933 0
M  V30 6680 O 637.9 1.81685 -0.732627 0
M  V30 6681 H 636.48 -0.0593244 -0.744641 0
M  V30 6682 H 639.142 -0.846871 -1.75539 0
M  V30 6683 H 638.238 -0.154428 -3.11718 0
M  V30 6684 N 638.539 1.52521 -0.396863 0
M  V30 6685 C 639.449 2.30403 0.44178 0
M  V30 6686 C 640.465 1.37625 1.06468 0
M  V30 6687 O 641.641 1.70697 1.06886 0
M  V30 6688 C 638.706 3.1013 1.54986 0
M  V30 6689 C 637.767 4.18628 0.951279 0
M  V30 6690 C 637 4.94543 2.00655 0
M  V30 6691 O 637.223 4.70629 3.22281 0
M  V30 6692 O 636.157 5.797 1.61962 0
M  V30 6693 H 639.983 3.03087 -0.192892 0
M  V30 6694 H 637.568 1.48537 -0.16038 0
M  V30 6695 H 639.45 3.59816 2.19341 0
M  V30 6696 H 638.125 2.40251 2.16935 0
M  V30 6697 H 637.032 3.73119 0.270773 0
M  V30 6698 H 638.365 4.90763 0.375887 0
M  V30 6699 N 640.017 0.126909 1.57088 0
M  V30 6700 C 640.947 -0.816847 2.18746 0
M  V30 6701 C 641.928 -1.27161 1.12979 0
M  V30 6702 O 643.113 -1.33279 1.41246 0
M  V30 6703 C 640.243 -2.06398 2.79315 0
M  V30 6704 C 639.197 -1.74673 3.90735 0
M  V30 6705 C 638.523 -3.06482 4.38147 0
M  V30 6706 C 639.823 -1.0089 5.12463 0
M  V30 6707 H 641.517 -0.303032 2.97863 0
M  V30 6708 H 639.063 -0.144314 1.43275 0
M  V30 6709 H 641.016 -2.72885 3.2111 0
M  V30 6710 H 639.74 -2.60118 1.975 0
M  V30 6711 H 638.399 -1.10572 3.49527 0
M  V30 6712 H 638.047 -3.58152 3.5318 0
M  V30 6713 H 637.747 -2.86025 5.13287 0
M  V30 6714 H 639.271 -3.74073 4.82599 0
M  V30 6715 H 640.685 -1.57546 5.51228 0
M  V30 6716 H 639.082 -0.905006 5.93237 0
M  V30 6717 H 640.152 0.00297335 4.849 0
M  V30 6718 N 641.495 -1.56914 -0.146875 0
M  V30 6719 C 642.72 -1.87881 -0.878386 0
M  V30 6720 C 643.145 -0.715945 -1.73942 0
M  V30 6721 O 642.503 0.334447 -1.78189 0
M  V30 6722 C 642.551 -3.17431 -1.71084 0
M  V30 6723 O 641.655 -3.01374 -2.81509 0
M  V30 6724 H 640.996 -0.617289 -0.244644 0
M  V30 6725 H 643.526 -2.04136 -0.137654 0
M  V30 6726 H 643.536 -3.49455 -2.10582 0
M  V30 6727 H 642.211 -4.01671 -1.07856 0
M  V30 6728 H 640.788 -2.80758 -2.45416 0
M  V30 6729 N 642.974 0.416227 -1.52004 0
M  V30 6730 C 643.937 1.48926 -1.74223 0
M  V30 6731 C 644.937 1.48693 -0.612119 0
M  V30 6732 O 646.127 1.50343 -0.879921 0
M  V30 6733 C 643.259 2.88372 -1.81809 0
M  V30 6734 H 644.452 1.3052 -2.70008 0
M  V30 6735 H 642.005 0.646271 -1.42313 0
M  V30 6736 H 642.74 3.12157 -0.879135 0
M  V30 6737 H 642.525 2.89944 -2.6396 0
M  V30 6738 H 644.015 3.66173 -2.00766 0
M  V30 6739 N 644.452 1.42507 0.673017 0
M  V30 6740 C 645.863 1.38347 1.25367 0
M  V30 6741 C 646.214 0.0776327 1.96046 0
M  V30 6742 O 645.339 -0.823571 2.00116 0
M  V30 6743 C 645.934 2.506 2.28002 0
M  V30 6744 C 644.493 2.49767 2.81591 0
M  V30 6745 C 643.64 2.293 1.55938 0
M  V30 6746 H 646.591 1.51695 0.466288 0
M  V30 6747 H 646.612 2.20953 3.09774 0
M  V30 6748 H 646.124 3.45627 1.76532 0
M  V30 6749 H 644.225 1.58563 3.37177 0
M  V30 6750 H 644.338 3.46867 3.30485 0
M  V30 6751 H 642.702 1.77594 1.82572 0
M  V30 6752 H 643.485 3.26385 1.06431 0
M  V30 6753 N 645.93 -0.909495 1.28709 0
M  V30 6754 C 647.176 -1.66151 1.16283 0
M  V30 6755 C 647.509 -1.92067 -0.287069 0
M  V30 6756 O 646.784 -1.52409 -1.20837 0
M  V30 6757 C 647.067 -3.01676 1.9663 0
M  V30 6758 C 646.92 -2.82888 3.49707 0
M  V30 6759 C 648.239 -4.02274 1.78504 0
M  V30 6760 H 645.358 -0.602966 0.423793 0
M  V30 6761 H 648 -1.05418 1.58073 0
M  V30 6762 H 646.15 -3.53515 1.61119 0
M  V30 6763 H 647.822 -2.38026 3.95147 0
M  V30 6764 H 646.065 -2.17862 3.75125 0
M  V30 6765 H 646.736 -3.79147 4.01187 0
M  V30 6766 H 649.212 -3.59511 2.09503 0
M  V30 6767 H 648.088 -4.95056 2.37088 0
M  V30 6768 H 648.349 -4.35903 0.737647 0
M  V30 6769 N 647.408 -1.11026 -1.11852 0
M  V30 6770 C 648.654 -0.857729 -1.83768 0
M  V30 6771 C 648.987 0.615143 -1.842 0
M  V30 6772 O 648.262 1.45391 -1.29196 0
M  V30 6773 C 648.545 -1.41453 -3.31154 0
M  V30 6774 C 648.398 -2.95471 -3.39142 0
M  V30 6775 C 649.717 -1.0619 -4.27097 0
M  V30 6776 H 646.836 -0.313044 -0.667212 0
M  V30 6777 H 649.478 -1.37443 -1.31185 0
M  V30 6778 H 647.628 -0.975052 -3.76065 0
M  V30 6779 H 649.3 -3.4799 -3.02821 0
M  V30 6780 H 647.543 -3.31759 -2.79497 0
M  V30 6781 H 648.214 -3.29515 -4.42859 0
M  V30 6782 H 650.69 -1.44122 -3.90344 0
M  V30 6783 H 649.566 -1.47832 -5.28618 0
M  V30 6784 H 649.827 0.0278912 -4.42091 0
M  V30 6785 N 648.886 1.2938 -0.899927 0
M  V30 6786 C 650.135 1.9483 -0.521937 0
M  V30 6787 C 650.448 1.71725 0.936473 0
M  V30 6788 O 651.654 2.31282 1.42199 0
M  V30 6789 C 650.11 3.48911 -0.88255 0
M  V30 6790 C 649.718 3.80815 -2.35974 0
M  V30 6791 C 651.462 4.20595 -0.57448 0
M  V30 6792 C 649.369 5.28142 -2.66121 0
M  V30 6793 H 648.299 0.729285 -0.191468 0
M  V30 6794 H 650.95 1.47103 -1.09695 0
M  V30 6795 H 649.332 3.95293 -0.236459 0
M  V30 6796 H 650.506 3.45291 -3.05141 0
M  V30 6797 H 648.821 3.22271 -2.63686 0
M  V30 6798 H 651.418 5.29031 -0.776556 0
M  V30 6799 H 651.761 4.13442 0.487005 0
M  V30 6800 H 652.294 3.79945 -1.17842 0
M  V30 6801 H 649.033 5.4036 -3.71068 0
M  V30 6802 H 648.553 5.64913 -2.01578 0
M  V30 6803 H 650.232 5.95738 -2.52399 0
M  V30 6804 N 650.364 0.662433 1.43002 0
M  V30 6805 C 651.612 0.179237 2.01304 0
M  V30 6806 C 651.933 -1.21428 1.52579 0
M  V30 6807 O 651.203 -1.81294 0.742252 0
M  V30 6808 H 649.783 0.0632725 0.744316 0
M  V30 6809 H 652.445 0.856169 1.75088 0
M  V30 6810 H 651.541 0.170957 3.11631 0
M  V30 6811 N 651.842 -1.52309 0.404946 0
M  V30 6812 C 653.258 -1.59503 0.0556255 0
M  V30 6813 C 653.458 -1.41805 -1.43156 0
M  V30 6814 O 652.514 -1.2429 -2.19792 0
M  V30 6815 C 653.827 -2.95687 0.546801 0
M  V30 6816 C 655.375 -3.08909 0.504413 0
M  V30 6817 C 655.85 -4.47566 0.97203 0
M  V30 6818 N 657.341 -4.53795 0.928679 0
M  V30 6819 C 658.076 -5.59346 1.26174 0
M  V30 6820 N 657.572 -6.72469 1.66604 0
M  V30 6821 N 659.365 -5.49532 1.18198 0
M  V30 6822 H 651.516 -1.6206 1.37296 0
M  V30 6823 H 653.779 -0.762161 0.563751 0
M  V30 6824 H 653.485 -3.13905 1.58609 0
M  V30 6825 H 653.359 -3.77172 -0.0457905 0
M  V30 6826 H 655.746 -2.90378 -0.525819 0
M  V30 6827 H 655.827 -2.2934 1.13301 0
M  V30 6828 H 655.471 -4.6684 2.00057 0
M  V30 6829 H 655.401 -5.25625 0.320292 0
M  V30 6830 H 657.892 -3.72588 0.631369 0
M  V30 6831 H 658.205 -7.48993 1.9034 0
M  V30 6832 H 656.55 -6.73761 1.70504 0
M  V30 6833 H 659.741 -4.60038 0.865011 0
M  V30 6834 H 659.914 -6.31687 1.44485 0
M  V30 6835 N 653.32 -0.135238 -1.57019 0
M  V30 6836 C 654.597 0.563227 -1.87316 0
M  V30 6837 C 654.977 1.83749 -1.03921 0
M  V30 6838 O 654.325 2.2817 -0.122675 0
M  V30 6839 C 654.535 0.840031 -3.3874 0
M  V30 6840 C 655.883 1.18598 -4.077 0
M  V30 6841 O 656.907 0.92977 -3.43851 0
M  V30 6842 O 655.766 1.66758 -5.20436 0
M  V30 6843 H 652.86 0.285971 -0.775983 0
M  V30 6844 H 655.406 -0.170965 -1.68837 0
M  V30 6845 H 654.178 -0.0622785 -3.9125 0
M  V30 6846 H 653.801 1.62882 -3.62706 0
M  V30 6847 N 654.798 1.5699 0.138552 0
M  V30 6848 C 655.748 1.9532 1.17619 0
M  V30 6849 C 656.732 0.825545 1.38107 0
M  V30 6850 O 657.924 1.08908 1.39528 0
M  V30 6851 C 655.053 2.34451 2.50774 0
M  V30 6852 C 654.139 3.53805 2.33844 0
M  V30 6853 N 654.53 4.70088 1.86685 0
M  V30 6854 C 652.828 3.59055 2.64567 0
M  V30 6855 C 653.529 5.52165 1.82998 0
M  V30 6856 N 652.505 4.94108 2.26624 0
M  V30 6857 H 656.307 2.82694 0.803809 0
M  V30 6858 H 653.821 1.5866 0.346519 0
M  V30 6859 H 655.818 2.60119 3.25797 0
M  V30 6860 H 654.478 1.48431 2.88788 0
M  V30 6861 H 655.489 4.93681 1.56523 0
M  V30 6862 H 652.166 2.83596 3.06398 0
M  V30 6863 H 653.556 6.55407 1.47957 0
M  V30 6864 N 656.276 -0.40816 1.52223 0
M  V30 6865 C 657.206 -1.5042 1.78595 0
M  V30 6866 C 658.187 -1.57723 0.636974 0
M  V30 6867 O 659.372 -1.72982 0.882664 0
M  V30 6868 C 656.502 -2.88232 1.93751 0
M  V30 6869 C 655.456 -2.95779 3.09352 0
M  V30 6870 C 654.782 -4.35855 3.09732 0
M  V30 6871 C 656.082 -2.67175 4.48793 0
M  V30 6872 H 657.776 -1.28601 2.70374 0
M  V30 6873 H 655.322 -0.617221 1.30101 0
M  V30 6874 H 657.275 -3.64895 2.10783 0
M  V30 6875 H 655.999 -3.11347 0.986443 0
M  V30 6876 H 654.658 -2.21561 2.92072 0
M  V30 6877 H 654.306 -4.55981 2.12346 0
M  V30 6878 H 654.006 -4.41829 3.87377 0
M  V30 6879 H 655.53 -5.14451 3.28895 0
M  V30 6880 H 656.944 -3.3356 4.66273 0
M  V30 6881 H 655.341 -2.84523 5.28362 0
M  V30 6882 H 656.411 -1.62609 4.56822 0
M  V30 6883 N 657.755 -1.42862 -0.66545 0
M  V30 6884 C 659.032 -1.3431 -1.42197 0
M  V30 6885 C 659.412 0.0150265 -2.11095 0
M  V30 6886 O 658.76 1.03101 -2.03918 0
M  V30 6887 C 658.97 -2.51783 -2.41674 0
M  V30 6888 C 660.318 -2.94321 -3.0604 0
M  V30 6889 O 661.342 -2.51741 -2.52001 0
M  V30 6890 O 660.201 -3.68047 -4.03985 0
M  V30 6891 H 657.295 -0.530159 -0.634713 0
M  V30 6892 H 659.841 -1.54888 -0.693386 0
M  V30 6893 H 658.613 -3.42282 -1.89627 0
M  V30 6894 H 658.236 -2.33241 -3.22001 0
M  V30 6895 N 659.233 0.902656 -1.29189 0
M  V30 6896 C 660.458 1.69167 -1.19989 0
M  V30 6897 C 660.883 1.86607 0.236495 0
M  V30 6898 O 660.241 1.38425 1.17082 0
M  V30 6899 C 660.289 3.05532 -1.91527 0
M  V30 6900 O 659.393 3.93621 -1.2303 0
M  V30 6901 H 658.734 0.517584 -0.415936 0
M  V30 6902 H 661.264 1.12785 -1.70706 0
M  V30 6903 H 661.274 3.55693 -1.99866 0
M  V30 6904 H 659.949 2.92156 -2.96003 0
M  V30 6905 H 658.526 3.52055 -1.22928 0
M  V30 6906 N 660.711 1.11618 1.11262 0
M  V30 6907 C 661.959 0.864469 1.82678 0
M  V30 6908 C 662.28 -0.611564 1.85162 0
M  V30 6909 O 661.55 -1.44429 1.32352 0
M  V30 6910 H 660.13 0.316821 0.676486 0
M  V30 6911 H 662.792 1.40894 1.34666 0
M  V30 6912 H 661.888 1.23832 2.86482 0
M  V30 6913 N 662.189 -1.289 0.906776 0
M  V30 6914 C 663.414 -1.99939 0.551303 0
M  V30 6915 C 663.839 -1.67366 -0.858496 0
M  V30 6916 O 663.197 -0.902176 -1.57259 0
M  V30 6917 C 663.245 -3.52523 0.758937 0
M  V30 6918 O 662.349 -4.11983 -0.185308 0
M  V30 6919 H 661.69 -0.628376 0.214568 0
M  V30 6920 H 664.22 -1.64225 1.2203 0
M  V30 6921 H 664.23 -4.02522 0.666329 0
M  V30 6922 H 662.905 -3.75566 1.78671 0
M  V30 6923 H 661.482 -3.72873 -0.0445577 0
M  V30 6924 N 663.667 -0.670007 -1.42649 0
M  V30 6925 C 664.913 -0.190568 -2.01903 0
M  V30 6926 C 665.246 1.19817 -1.52832 0
M  V30 6927 O 664.521 1.80342 -0.728485 0
M  V30 6928 C 664.804 -0.21991 -3.59428 0
M  V30 6929 C 664.657 -1.64376 -4.18689 0
M  V30 6930 C 665.976 0.434519 -4.3795 0
M  V30 6931 H 663.095 -0.0707219 -0.733599 0
M  V30 6932 H 665.737 -0.853883 -1.69732 0
M  V30 6933 H 663.887 0.344894 -3.86966 0
M  V30 6934 H 665.559 -2.26044 -4.02122 0
M  V30 6935 H 663.802 -2.18591 -3.747 0
M  V30 6936 H 664.473 -1.61601 -5.27815 0
M  V30 6937 H 666.949 -0.0462156 -4.16074 0
M  V30 6938 H 665.825 0.38333 -5.4756 0
M  V30 6939 H 666.086 1.51135 -4.15464 0
M  V30 6940 N 665.145 1.52092 -0.413018 0
M  V30 6941 C 666.37 2.06756 0.163338 0
M  V30 6942 C 666.795 1.28073 1.37764 0
M  V30 6943 O 666.153 0.312015 1.78595 0
M  V30 6944 C 666.201 3.57278 0.488322 0
M  V30 6945 O 665.305 3.80986 1.57871 0
M  V30 6946 H 664.646 0.663882 0.0125068 0
M  V30 6947 H 667.176 1.95988 -0.587339 0
M  V30 6948 H 667.186 4.01125 0.745836 0
M  V30 6949 H 665.861 4.13978 -0.399327 0
M  V30 6950 H 664.438 3.49017 1.31306 0
M  V30 6951 N 666.623 0.143563 1.56945 0
M  V30 6952 C 667.848 -0.518701 2.00809 0
M  V30 6953 C 668.273 -1.5785 1.02298 0
M  V30 6954 O 667.631 -1.813 -0.0017839 0
M  V30 6955 C 667.679 -1.09929 3.43436 0
M  V30 6956 O 666.783 -2.21425 3.47915 0
M  V30 6957 H 666.124 -0.127215 0.6517 0
M  V30 6958 H 668.654 0.239283 2.03196 0
M  V30 6959 H 668.664 -1.4288 3.82164 0
M  V30 6960 H 667.339 -0.323162 4.14643 0
M  V30 6961 H 665.916 -1.89728 3.21026 0
M  V30 6962 N 668.101 -1.57061 -0.130224 0
M  V30 6963 C 669.512 -1.73539 -0.68856 0
M  V30 6964 C 669.863 -0.760554 -1.80859 0
M  V30 6965 O 668.988 0.0690796 -2.1629 0
M  V30 6966 C 669.583 -3.14666 -1.25581 0
M  V30 6967 C 668.142 -3.32689 -1.76055 0
M  V30 6968 C 667.289 -2.69436 -0.655712 0
M  V30 6969 H 670.24 -1.58412 0.0956002 0
M  V30 6970 H 670.261 -3.15595 -2.12556 0
M  V30 6971 H 669.773 -3.85593 -0.440412 0
M  V30 6972 H 667.874 -2.66786 -2.60108 0
M  V30 6973 H 667.987 -4.4077 -1.87772 0
M  V30 6974 H 666.351 -2.30362 -1.08654 0
M  V30 6975 H 667.134 -3.42979 0.14852 0
M  V30 6976 N 669.579 0.400081 -1.52437 0
M  V30 6977 C 670.527 1.50851 -1.7705 0
M  V30 6978 C 671.521 1.56928 -0.637969 0
M  V30 6979 O 672.727 1.60226 -0.820212 0
M  V30 6980 H 669.102 0.50186 -0.560036 0
M  V30 6981 H 671.073 1.27281 -2.69893 0
M  V30 6982 C 669.822 2.88117 -1.94638 0
M  V30 6983 H 669.145 2.84187 -2.81208 0
M  V30 6984 H 670.585 3.64942 -2.15855 0
M  V30 6985 C 669.044 3.29206 -0.715899 0
M  V30 6986 O 669.574 4.01544 0.111944 0
M  V30 6987 N 667.78 2.85363 -0.549191 0
M  V30 6988 H 667.327 2.26664 -1.22397 0
M  V30 6989 H 667.285 3.13214 0.27278 0
M  V30 6990 N 671.057 1.43213 0.657864 0
M  V30 6991 C 672.473 1.26511 0.972992 0
M  V30 6992 C 672.673 0.181477 2.00681 0
M  V30 6993 O 671.729 -0.441649 2.48608 0
M  V30 6994 C 673.042 2.62784 1.46168 0
M  V30 6995 C 674.59 2.70278 1.57857 0
M  V30 6996 C 675.065 4.06958 2.10117 0
M  V30 6997 N 676.556 4.08999 2.17426 0
M  V30 6998 C 677.291 5.11585 2.58975 0
M  V30 6999 N 676.787 6.24548 2.99853 0
M  V30 7000 N 678.58 4.9894 2.58873 0
M  V30 7001 H 670.731 2.12384 -0.0263129 0
M  V30 7002 H 672.994 0.946638 0.0507992 0
M  V30 7003 H 672.7 3.43022 0.776474 0
M  V30 7004 H 672.574 2.87863 2.43751 0
M  V30 7005 H 674.961 1.90376 2.25479 0
M  V30 7006 H 675.042 2.4897 0.587179 0
M  V30 7007 H 674.686 4.87325 1.43098 0
M  V30 7008 H 674.616 4.25628 3.10078 0
M  V30 7009 H 677.107 3.27457 1.88627 0
M  V30 7010 H 677.42 6.98661 3.30292 0
M  V30 7011 H 675.765 6.28027 2.97669 0
M  V30 7012 H 678.956 4.09757 2.26311 0
M  V30 7013 H 679.129 5.79019 2.90932 0
M  V30 7014 N 672.536 -0.895792 1.29666 0
M  V30 7015 C 673.446 -2.03329 1.17024 0
M  V30 7016 C 674.462 -1.73753 0.0925962 0
M  V30 7017 O 675.638 -1.99071 0.305431 0
M  V30 7018 C 672.703 -3.36072 0.851841 0
M  V30 7019 C 671.764 -3.7914 2.01373 0
M  V30 7020 C 670.997 -5.05549 1.71043 0
M  V30 7021 O 671.22 -5.66874 0.633213 0
M  V30 7022 O 670.154 -5.44764 2.5596 0
M  V30 7023 H 673.98 -2.16918 2.12556 0
M  V30 7024 H 671.565 -1.02007 1.09156 0
M  V30 7025 H 673.447 -4.15729 0.689006 0
M  V30 7026 H 672.122 -3.23616 -0.0736634 0
M  V30 7027 H 671.029 -3.00233 2.23183 0
M  V30 7028 H 672.362 -3.96186 2.92058 0
M  V30 7029 N 674.014 -1.12206 -1.10668 0
M  V30 7030 C 675.242 -0.898635 -1.86366 0
M  V30 7031 C 675.657 0.551991 -1.80551 0
M  V30 7032 O 675.014 1.38152 -1.19249 0
M  V30 7033 C 675.065 -1.36199 -3.34861 0
M  V30 7034 O 674.786 -2.75576 -3.40573 0
M  V30 7035 C 676.287 -1.17515 -4.2744 0
M  V30 7036 H 673.507 -0.321281 -0.589084 0
M  V30 7037 H 676.051 -1.49142 -1.39918 0
M  V30 7038 H 674.206 -0.81249 -3.78784 0
M  V30 7039 H 674.62 -2.95851 -4.33096 0
M  V30 7040 H 676.094 -1.54827 -5.29842 0
M  V30 7041 H 676.571 -0.115486 -4.39048 0
M  V30 7042 H 677.177 -1.71203 -3.89319 0
M  V30 7043 N 675.492 1.28418 -0.913599 0
M  V30 7044 C 676.402 2.31043 -0.406965 0
M  V30 7045 C 677.418 1.66501 0.505298 0
M  V30 7046 O 678.594 1.97558 0.391522 0
M  V30 7047 C 675.659 3.4498 0.344901 0
M  V30 7048 C 674.72 4.25078 -0.600563 0
M  V30 7049 C 673.953 5.33575 0.115516 0
M  V30 7050 O 674.176 5.54503 1.33727 0
M  V30 7051 O 673.11 5.9939 -0.549095 0
M  V30 7052 H 676.936 2.76387 -1.25873 0
M  V30 7053 H 674.521 1.33109 -0.678415 0
M  V30 7054 H 676.403 4.14314 0.769542 0
M  V30 7055 H 675.078 3.01719 1.1725 0
M  V30 7056 H 673.985 3.58334 -1.0746 0
M  V30 7057 H 675.318 4.72018 -1.39497 0
M  V30 7058 N 676.97 0.677563 1.42291 0
M  V30 7059 C 677.933 0.0101085 2.29198 0
M  V30 7060 C 678.933 -0.726219 1.43467 0
M  V30 7061 O 680.123 -0.563807 1.64824 0
M  V30 7062 C 677.255 -0.996316 3.26016 0
M  V30 7063 H 678.448 0.775071 2.89711 0
M  V30 7064 H 676.001 0.440065 1.49977 0
M  V30 7065 H 676.736 -1.78967 2.70446 0
M  V30 7066 H 676.521 -0.471687 3.89253 0
M  V30 7067 H 678.011 -1.46167 3.91184 0
M  V30 7068 N 678.448 -1.51871 0.421078 0
M  V30 7069 C 679.381 -2.23851 -0.443369 0
M  V30 7070 C 680.359 -1.25142 -1.03818 0
M  V30 7071 O 681.543 -1.5423 -1.08377 0
M  V30 7072 C 678.67 -2.97637 -1.61648 0
M  V30 7073 C 677.716 -4.10873 -1.14391 0
M  V30 7074 S 678.549 -5.35408 -0.0992403 0
M  V30 7075 C 679.705 -6.12726 -1.27739 0
M  V30 7076 H 679.938 -2.96826 0.167786 0
M  V30 7077 H 677.471 -1.53027 0.205461 0
M  V30 7078 H 679.429 -3.40751 -2.28909 0
M  V30 7079 H 678.09 -2.24282 -2.199 0
M  V30 7080 H 677.283 -4.61718 -2.02069 0
M  V30 7081 H 676.885 -3.69937 -0.549775 0
M  V30 7082 H 679.177 -6.40827 -2.19881 0
M  V30 7083 H 680.12 -7.03461 -0.809239 0
M  V30 7084 H 680.528 -5.43968 -1.5086 0
M  V30 7085 N 679.926 -0.151884 -1.56866 0
M  V30 7086 C 681.342 0.204486 -1.58285 0
M  V30 7087 C 681.542 1.6431 -1.16639 0
M  V30 7088 O 680.598 2.37077 -0.868946 0
M  V30 7089 C 681.911 -0.0587019 -3.00643 0
M  V30 7090 C 683.459 0.00462303 -3.13 0
M  V30 7091 C 683.934 -0.231297 -4.57416 0
M  V30 7092 N 685.425 -0.178394 -4.62856 0
M  V30 7093 C 686.16 -0.335379 -5.72418 0
M  V30 7094 N 685.656 -0.550355 -6.90611 0
M  V30 7095 N 687.449 -0.272641 -5.61438 0
M  V30 7096 H 679.6 -1.09116 -1.82229 0
M  V30 7097 H 681.863 -0.432311 -0.843689 0
M  V30 7098 H 681.569 -1.05453 -3.35518 0
M  V30 7099 H 681.443 0.658508 -3.71407 0
M  V30 7100 H 683.83 0.991009 -2.77962 0
M  V30 7101 H 683.911 -0.744992 -2.44711 0
M  V30 7102 H 683.555 -1.2148 -4.93158 0
M  V30 7103 H 683.485 0.5387 -5.23837 0
M  V30 7104 H 685.976 -0.0170923 -3.77896 0
M  V30 7105 H 686.289 -0.660116 -7.69976 0
M  V30 7106 H 684.634 -0.586736 -6.92519 0
M  V30 7107 H 687.825 -0.105421 -4.67981 0
M  V30 7108 H 687.998 -0.398418 -6.46774 0
M  V30 7109 N 681.404 1.57128 0.121893 0
M  V30 7110 C 682.681 1.75664 0.860327 0
M  V30 7111 C 683.061 0.726585 1.98202 0
M  V30 7112 O 682.409 -0.24999 2.27128 0
M  V30 7113 C 682.619 3.20571 1.37968 0
M  V30 7114 C 683.967 3.82988 1.83317 0
M  V30 7115 O 684.991 3.24156 1.47654 0
M  V30 7116 O 683.85 4.86393 2.49168 0
M  V30 7117 H 680.944 0.719153 0.408348 0
M  V30 7118 H 683.49 1.6937 0.105859 0
M  V30 7119 H 682.262 3.87056 0.57477 0
M  V30 7120 H 681.885 3.31392 2.19694 0
M  V30 7121 N 682.882 -0.391992 1.52647 0
M  V30 7122 C 684.13 -1.13507 1.67214 0
M  V30 7123 C 684.451 -1.90575 0.41304 0
M  V30 7124 O 683.721 -1.87348 -0.572498 0
M  V30 7125 H 682.301 -0.422013 0.616372 0
M  V30 7126 H 684.963 -0.44502 1.89751 0
M  V30 7127 H 684.059 -1.83964 2.52118 0
M  V30 7128 N 684.36 -1.4356 -0.65026 0
M  V30 7129 C 685.585 -1.48995 -1.44275 0
M  V30 7130 C 686.01 -0.109954 -1.87778 0
M  V30 7131 O 685.368 0.896926 -1.57559 0
M  V30 7132 C 685.416 -2.44341 -2.65198 0
M  V30 7133 O 684.52 -1.93172 -3.6436 0
M  V30 7134 H 683.861 -0.503852 -0.432469 0
M  V30 7135 H 686.391 -1.88504 -0.795446 0
M  V30 7136 H 686.401 -2.61743 -3.12977 0
M  V30 7137 H 685.076 -3.44588 -2.32877 0
M  V30 7138 H 683.653 -1.85445 -3.23519 0
M  V30 7139 N 685.838 0.888903 -1.30139 0
M  V30 7140 C 687.115 1.62145 -1.094 0
M  V30 7141 C 687.495 2.08041 0.358091 0
M  V30 7142 O 686.843 1.84438 1.34888 0
M  V30 7143 C 687.053 2.794 -2.09133 0
M  V30 7144 C 688.401 3.49826 -2.40638 0
M  V30 7145 O 689.425 2.89583 -2.07412 0
M  V30 7146 O 688.284 4.58457 -2.97455 0
M  V30 7147 H 685.378 0.712475 -0.41989 0
M  V30 7148 H 687.924 0.936023 -1.41551 0
M  V30 7149 H 686.696 2.42762 -3.06891 0
M  V30 7150 H 686.319 3.55643 -1.77776 0
M  V30 7151 N 687.317 1.12792 1.10072 0
M  V30 7152 C 688.28 0.802264 2.14701 0
M  V30 7153 C 689.28 -0.18515 1.59731 0
M  V30 7154 O 690.47 0.041109 1.74151 0
M  V30 7155 C 687.602 0.19285 3.40354 0
M  V30 7156 H 688.795 1.72932 2.45019 0
M  V30 7157 H 686.348 0.931662 1.25498 0
M  V30 7158 H 687.083 -0.743748 3.15656 0
M  V30 7159 H 686.868 0.903827 3.81541 0
M  V30 7160 H 688.358 -0.0183704 4.17596 0
M  V30 7161 N 688.795 -1.27931 0.920396 0
M  V30 7162 C 690.041 -1.94977 0.557832 0
M  V30 7163 C 690.374 -1.72224 -0.897365 0
M  V30 7164 O 689.649 -1.04705 -1.63912 0
M  V30 7165 C 689.932 -3.49289 0.875741 0
M  V30 7166 C 689.785 -3.81416 2.38416 0
M  V30 7167 C 691.104 -4.38486 0.376517 0
M  V30 7168 H 688.223 -0.708164 0.20414 0
M  V30 7169 H 690.865 -1.5118 1.15085 0
M  V30 7170 H 689.015 -3.86724 0.371062 0
M  V30 7171 H 690.687 -3.53813 2.95997 0
M  V30 7172 H 688.93 -3.28225 2.83639 0
M  V30 7173 H 689.601 -4.89198 2.55713 0
M  V30 7174 H 692.077 -4.08161 0.808945 0
M  V30 7175 H 690.953 -5.45296 0.627976 0
M  V30 7176 H 691.214 -4.36143 -0.723293 0
M  V30 7177 N 690.273 -0.685099 -1.4193 0
M  V30 7178 C 691.498 -0.218842 -2.06242 0
M  V30 7179 C 691.923 1.11923 -1.51178 0
M  V30 7180 O 691.281 1.69837 -0.634446 0
M  V30 7181 C 691.329 -0.175592 -3.60172 0
M  V30 7182 O 690.433 0.852776 -4.03487 0
M  V30 7183 H 689.774 -0.109531 -0.654904 0
M  V30 7184 H 692.304 -0.937013 -1.81882 0
M  V30 7185 H 692.314 -0.00291151 -4.08 0
M  V30 7186 H 690.989 -1.15222 -3.99621 0
M  V30 7187 H 689.566 0.650301 -3.67186 0
M  V30 7188 N 691.751 1.51645 -0.429126 0
M  V30 7189 C 693.028 1.94579 0.199614 0
M  V30 7190 C 693.408 1.3673 1.60836 0
M  V30 7191 O 692.756 0.551062 2.21756 0
M  V30 7192 C 692.966 3.48506 0.185685 0
M  V30 7193 C 694.314 4.22756 0.395282 0
M  V30 7194 O 695.338 3.55219 0.264165 0
M  V30 7195 O 694.197 5.42555 0.655475 0
M  V30 7196 H 691.291 0.816007 0.134393 0
M  V30 7197 H 693.837 1.62577 -0.486513 0
M  V30 7198 H 692.609 3.83045 -0.799508 0
M  V30 7199 H 692.232 3.86927 0.91507 0
M  V30 7200 N 693.229 0.160201 1.56784 0
M  V30 7201 C 694.475 -0.481855 1.9761 0
M  V30 7202 C 694.83 -1.61605 1.04411 0
M  V30 7203 O 694.123 -1.91426 0.0816402 0
M  V30 7204 C 694.317 -1.02259 3.42459 0
M  V30 7205 C 694.146 0.0576781 4.49663 0
M  V30 7206 C 692.916 0.503585 5.02784 0
M  V30 7207 C 695.114 0.854013 5.0716 0
M  V30 7208 N 693.096 1.56532 5.93608 0
M  V30 7209 C 694.467 1.76593 5.94319 0
M  V30 7210 C 696.522 0.900333 4.89692 0
M  V30 7211 C 695.225 2.72023 6.6588 0
M  V30 7212 C 697.251 1.84252 5.61965 0
M  V30 7213 C 696.613 2.74194 6.48843 0
M  V30 7214 H 692.712 -0.144748 0.768487 0
M  V30 7215 H 695.296 0.257853 1.92985 0
M  V30 7216 H 693.467 -1.73186 3.47651 0
M  V30 7217 H 695.199 -1.63235 3.70319 0
M  V30 7218 H 691.954 0.103361 4.73487 0
M  V30 7219 H 692.378 2.09634 6.43726 0
M  V30 7220 H 697.02 0.219023 4.22232 0
M  V30 7221 H 694.738 3.41147 7.3256 0
M  V30 7222 H 698.324 1.88433 5.5044 0
M  V30 7223 H 697.204 3.45912 7.03786 0
M  V30 7224 N 694.707 -1.5719 -0.113559 0
M  V30 7225 C 696.118 -1.74259 -0.670116 0
M  V30 7226 C 696.469 -0.779694 -1.80042 0
M  V30 7227 O 695.594 0.0461353 -2.16351 0
M  V30 7228 C 696.189 -3.15981 -1.22236 0
M  V30 7229 C 694.748 -3.34537 -1.72516 0
M  V30 7230 C 693.895 -2.70116 -0.627098 0
M  V30 7231 H 696.846 -1.58301 0.112396 0
M  V30 7232 H 696.867 -3.17832 -2.09197 0
M  V30 7233 H 696.379 -3.86038 -0.39949 0
M  V30 7234 H 694.48 -2.6953 -2.57263 0
M  V30 7235 H 694.593 -4.42737 -1.83086 0
M  V30 7236 H 692.957 -2.31501 -1.06204 0
M  V30 7237 H 693.74 -3.42802 0.184889 0
M  V30 7238 N 696.185 0.383891 -1.52853 0
M  V30 7239 C 697.115 1.47559 -1.80965 0
M  V30 7240 C 698.096 1.5669 -0.661986 0
M  V30 7241 O 699.281 1.71556 -0.910072 0
M  V30 7242 C 696.411 2.85114 -1.98312 0
M  V30 7243 C 695.365 2.9082 -3.14019 0
M  V30 7244 C 694.691 4.30873 -3.16627 0
M  V30 7245 C 695.991 2.60001 -4.52986 0
M  V30 7246 H 697.685 1.24283 -2.72386 0
M  V30 7247 H 695.231 0.596445 -1.31067 0
M  V30 7248 H 697.184 3.61496 -2.16561 0
M  V30 7249 H 695.908 3.09738 -1.03585 0
M  V30 7250 H 694.567 2.16886 -2.9556 0
M  V30 7251 H 694.215 4.52545 -2.19573 0
M  V30 7252 H 693.915 4.3561 -3.94357 0
M  V30 7253 H 695.439 5.09154 -3.37038 0
M  V30 7254 H 696.853 3.261 -4.71521 0
M  V30 7255 H 695.25 2.76081 -5.32822 0
M  V30 7256 H 696.32 1.5532 -4.59351 0
M  V30 7257 N 697.663 1.43903 0.642637 0
M  V30 7258 C 698.593 1.52697 1.76652 0
M  V30 7259 C 699.574 0.380816 1.65782 0
M  V30 7260 O 700.759 0.599432 1.84717 0
M  V30 7261 C 697.889 1.45975 3.15133 0
M  V30 7262 C 696.843 2.58949 3.40778 0
M  V30 7263 C 696.169 2.37279 4.79169 0
M  V30 7264 C 697.469 4.01153 3.34475 0
M  V30 7265 H 699.163 2.46766 1.69549 0
M  V30 7266 H 696.709 1.18767 0.814279 0
M  V30 7267 H 698.662 1.5073 3.93521 0
M  V30 7268 H 697.386 0.484162 3.22991 0
M  V30 7269 H 696.045 2.53564 2.64765 0
M  V30 7270 H 695.693 1.37939 4.83717 0
M  V30 7271 H 695.393 3.13016 4.97287 0
M  V30 7272 H 696.917 2.43834 5.59801 0
M  V30 7273 H 698.331 4.07968 4.02784 0
M  V30 7274 H 696.728 4.77001 3.64129 0
M  V30 7275 H 697.798 4.25539 2.32475 0
M  V30 7276 N 699.141 -0.881989 1.30609 0
M  V30 7277 C 700.089 -2.00942 1.17155 0
M  V30 7278 C 701.083 -1.69198 0.0827154 0
M  V30 7279 O 702.289 -1.78342 0.243775 0
M  V30 7280 H 698.664 -0.658913 0.362406 0
M  V30 7281 H 700.635 -2.09423 2.12567 0
M  V30 7282 C 699.384 -3.36294 0.883273 0
M  V30 7283 H 698.707 -3.61233 1.7132 0
M  V30 7284 H 700.147 -4.15812 0.829255 0
M  V30 7285 C 698.606 -3.34348 -0.413851 0
M  V30 7286 O 699.136 -3.75216 -1.43444 0
M  V30 7287 N 697.342 -2.87459 -0.426082 0
M  V30 7288 H 696.889 -2.54397 0.40493 0
M  V30 7289 H 696.847 -2.8654 -1.29391 0
M  V30 7290 N 700.619 -1.13374 -1.09472 0
M  V30 7291 C 701.582 -0.813639 -2.14272 0
M  V30 7292 C 702.582 0.176677 -1.59826 0
M  V30 7293 O 703.772 -0.0503441 -1.74127 0
M  V30 7294 C 700.904 -0.210897 -3.40247 0
M  V30 7295 H 702.097 -1.74229 -2.44099 0
M  V30 7296 H 699.65 -0.938304 -1.25002 0
M  V30 7297 H 700.385 0.726998 -3.16046 0
M  V30 7298 H 700.17 -0.924048 -3.81056 0
M  V30 7299 H 701.66 -0.00377603 -4.176 0
M  V30 7300 N 702.098 1.27442 -0.927168 0
M  V30 7301 C 703.028 2.29256 -0.443188 0
M  V30 7302 C 704.009 1.62701 0.49624 0
M  V30 7303 O 705.194 1.90013 0.401105 0
M  V30 7304 C 702.324 3.45955 0.305366 0
M  V30 7305 C 701.278 4.24501 -0.546178 0
M  V30 7306 C 700.604 5.33671 0.331512 0
M  V30 7307 C 701.904 4.89921 -1.81037 0
M  V30 7308 H 703.598 2.69988 -1.29409 0
M  V30 7309 H 701.144 1.29792 -0.623705 0
M  V30 7310 H 703.097 4.1628 0.654885 0
M  V30 7311 H 701.821 3.04138 1.19029 0
M  V30 7312 H 700.48 3.55921 -0.878398 0
M  V30 7313 H 700.128 4.88096 1.21537 0
M  V30 7314 H 699.828 5.87131 -0.234746 0
M  V30 7315 H 701.352 6.0684 0.676614 0
M  V30 7316 H 702.766 5.52536 -1.52895 0
M  V30 7317 H 701.163 5.53436 -2.32009 0
M  V30 7318 H 702.233 4.13652 -2.53021 0
M  V30 7319 N 703.576 0.692616 1.41565 0
M  V30 7320 C 704.506 0.0397325 2.33466 0
M  V30 7321 C 705.487 -0.770334 1.51657 0
M  V30 7322 O 706.672 -0.723903 1.80203 0
M  V30 7323 C 703.802 -0.899495 3.3545 0
M  V30 7324 C 702.756 -0.196738 4.27548 0
M  V30 7325 C 702.082 -1.25012 5.19881 0
M  V30 7326 C 703.382 0.935158 5.1386 0
M  V30 7327 H 705.076 0.807296 2.88311 0
M  V30 7328 H 702.622 0.389665 1.38628 0
M  V30 7329 H 704.575 -1.36545 3.98665 0
M  V30 7330 H 703.299 -1.69869 2.78948 0
M  V30 7331 H 701.958 0.249158 3.65752 0
M  V30 7332 H 701.606 -2.04177 4.59696 0
M  V30 7333 H 701.306 -0.784931 5.82334 0
M  V30 7334 H 702.83 -1.71665 5.85972 0
M  V30 7335 H 704.244 0.549619 5.70659 0
M  V30 7336 H 702.641 1.32726 5.85238 0
M  V30 7337 H 703.711 1.77613 4.512 0
M  V30 7338 N 705.054 -1.51416 0.437162 0
M  V30 7339 C 706.002 -2.29328 -0.388765 0
M  V30 7340 C 706.996 -1.35171 -1.02104 0
M  V30 7341 O 708.202 -1.52513 -0.956024 0
M  V30 7342 H 704.577 -0.738048 -0.144183 0
M  V30 7343 H 706.548 -2.96995 0.289212 0
M  V30 7344 C 705.297 -3.14741 -1.47761 0
M  V30 7345 H 704.62 -3.8708 -1.00045 0
M  V30 7346 H 706.06 -3.72313 -2.02877 0
M  V30 7347 C 704.519 -2.30105 -2.46076 0
M  V30 7348 O 705.049 -1.96055 -3.50607 0
M  V30 7349 N 703.255 -1.93331 -2.1696 0
M  V30 7350 H 702.802 -2.2122 -1.31983 0
M  V30 7351 H 702.76 -1.36999 -2.82982 0
M  V30 7352 N 706.532 -0.168513 -1.56696 0
M  V30 7353 C 707.76 0.483503 -2.01171 0
M  V30 7354 C 708.175 1.56994 -1.04872 0
M  V30 7355 O 707.532 1.82434 -0.0491337 0
M  V30 7356 C 707.583 1.0644 -3.45475 0
M  V30 7357 O 707.304 0.0213375 -4.38095 0
M  V30 7358 C 708.805 1.79493 -4.05336 0
M  V30 7359 H 706.025 0.124002 -0.659443 0
M  V30 7360 H 708.569 -0.269419 -2.02717 0
M  V30 7361 H 706.724 1.76784 -3.44712 0
M  V30 7362 H 707.138 0.449837 -5.22567 0
M  V30 7363 H 708.612 2.15401 -5.08238 0
M  V30 7364 H 709.089 2.68889 -3.47269 0
M  V30 7365 H 709.695 1.13798 -4.09793 0
M  V30 7366 N 708.01 1.57248 0.105221 0
M  V30 7367 C 708.973 2.00388 1.11252 0
M  V30 7368 C 709.973 0.89594 1.33527 0
M  V30 7369 O 711.163 1.16166 1.29811 0
M  V30 7370 C 708.295 2.35589 2.46395 0
M  V30 7371 H 709.488 2.90591 0.741424 0
M  V30 7372 H 707.041 1.52332 0.349956 0
M  V30 7373 H 707.776 1.4831 2.884 0
M  V30 7374 H 707.561 3.16408 2.31578 0
M  V30 7375 H 709.051 2.69658 3.18864 0
M  V30 7376 N 709.488 -0.375779 1.53054 0
M  V30 7377 C 710.736 -1.11727 1.68409 0
M  V30 7378 C 711.057 -1.90127 0.43323 0
M  V30 7379 O 710.327 -1.87945 -0.552595 0
M  V30 7380 H 708.907 -0.415451 0.620813 0
M  V30 7381 H 711.569 -0.424869 1.90213 0
M  V30 7382 H 710.665 -1.8128 2.54055 0
M  V30 7383 N 710.966 -1.44241 -0.634997 0
M  V30 7384 C 712.214 -1.46531 -1.39187 0
M  V30 7385 C 712.535 -0.0976441 -1.94755 0
M  V30 7386 O 711.805 0.869528 -1.75545 0
M  V30 7387 H 710.385 -0.539544 -0.516625 0
M  V30 7388 H 713.047 -1.79989 -0.747655 0
M  V30 7389 H 712.143 -2.18848 -2.22513 0
M  V30 7390 N 712.444 0.87505 -1.31075 0
M  V30 7391 C 713.407 1.96333 -1.18263 0
M  V30 7392 C 714.407 1.60416 -0.111106 0
M  V30 7393 O 715.597 1.7044 -0.359987 0
M  V30 7394 C 712.729 3.31036 -0.81414 0
M  V30 7395 H 713.922 2.09125 -2.14958 0
M  V30 7396 H 711.475 1.06271 -1.14614 0
M  V30 7397 H 712.21 3.23944 0.151875 0
M  V30 7398 H 711.995 3.58476 -1.58862 0
M  V30 7399 H 713.485 4.10842 -0.748249 0
M  V30 7400 N 713.922 1.13953 1.08869 0
M  V30 7401 C 715.15 0.92817 1.84912 0
M  V30 7402 C 715.565 -0.523197 1.81406 0
M  V30 7403 O 714.922 -1.36237 1.21432 0
M  V30 7404 C 714.973 1.41509 3.32652 0
M  V30 7405 O 714.694 2.80959 3.36145 0
M  V30 7406 C 716.195 1.243 4.25517 0
M  V30 7407 H 713.415 0.330612 0.583898 0
M  V30 7408 H 715.959 1.51349 1.37527 0
M  V30 7409 H 714.114 0.872648 3.77444 0
M  V30 7410 H 714.528 3.02704 4.28335 0
M  V30 7411 H 716.002 1.63237 5.27312 0
M  V30 7412 H 716.479 0.18532 4.38809 0
M  V30 7413 H 717.085 1.77375 3.86546 0
M  V30 7414 N 715.4 -1.26948 0.933913 0
M  V30 7415 C 716.646 -1.94716 0.587985 0
M  V30 7416 C 717.001 -1.71994 -0.862312 0
M  V30 7417 O 716.294 -1.04208 -1.60783 0
M  V30 7418 C 716.488 -3.46963 0.857406 0
M  V30 7419 C 716.317 -3.84489 2.33234 0
M  V30 7420 C 715.087 -4.07621 2.98618 0
M  V30 7421 C 717.285 -3.93602 3.31031 0
M  V30 7422 N 715.267 -4.31976 4.362 0
M  V30 7423 C 716.638 -4.22404 4.53845 0
M  V30 7424 C 718.693 -3.76201 3.26155 0
M  V30 7425 C 717.396 -4.35615 5.72391 0
M  V30 7426 C 719.422 -3.90641 4.4402 0
M  V30 7427 C 718.784 -4.19835 5.65613 0
M  V30 7428 H 714.883 -0.735586 0.2654 0
M  V30 7429 H 717.467 -1.53181 1.20182 0
M  V30 7430 H 715.638 -3.87442 0.27268 0
M  V30 7431 H 717.37 -4.01921 0.47348 0
M  V30 7432 H 714.125 -4.02696 2.49264 0
M  V30 7433 H 714.549 -4.48199 5.07392 0
M  V30 7434 H 719.191 -3.52665 2.3321 0
M  V30 7435 H 716.909 -4.57975 6.65796 0
M  V30 7436 H 720.495 -3.78589 4.41771 0
M  V30 7437 H 719.375 -4.30765 6.55295 0
M  V30 7438 N 716.879 -0.700114 -1.41195 0
M  V30 7439 C 718.125 -0.233351 -2.01453 0
M  V30 7440 C 718.458 1.16548 -1.55339 0
M  V30 7441 O 717.733 1.78756 -0.766575 0
M  V30 7442 C 718.016 -0.2961 -3.58881 0
M  V30 7443 C 717.869 -1.7322 -4.15108 0
M  V30 7444 C 719.188 0.341525 -4.38773 0
M  V30 7445 H 716.307 -0.0862667 -0.731934 0
M  V30 7446 H 718.949 -0.889693 -1.67882 0
M  V30 7447 H 717.099 0.262736 -3.87611 0
M  V30 7448 H 718.771 -2.34523 -3.97236 0
M  V30 7449 H 717.014 -2.2649 -3.69979 0
M  V30 7450 H 717.685 -1.7276 -5.24269 0
M  V30 7451 H 720.161 -0.134461 -4.15883 0
M  V30 7452 H 719.037 0.267098 -5.4825 0
M  V30 7453 H 719.298 1.42289 -4.18577 0
M  V30 7454 N 718.357 1.51182 -0.445186 0
M  V30 7455 C 719.582 2.07056 0.119445 0
M  V30 7456 C 720.007 1.30966 1.35016 0
M  V30 7457 O 719.365 0.349827 1.77893 0
M  V30 7458 C 719.413 3.58234 0.412428 0
M  V30 7459 O 718.517 3.84249 1.49754 0
M  V30 7460 H 717.858 0.663998 -0.00157797 0
M  V30 7461 H 720.388 1.94699 -0.628779 0
M  V30 7462 H 720.398 4.02617 0.660583 0
M  V30 7463 H 719.073 4.13038 -0.487049 0
M  V30 7464 H 717.65 3.51724 1.23873 0
M  V30 7465 N 719.835 0.176821 1.56605 0
M  V30 7466 C 720.765 -0.746841 2.21234 0
M  V30 7467 C 721.746 -1.23502 1.16967 0
M  V30 7468 O 722.931 -1.28718 1.45414 0
M  V30 7469 C 720.061 -1.97407 2.8574 0
M  V30 7470 C 719.015 -1.62153 3.96094 0
M  V30 7471 C 718.341 -2.92387 4.47676 0
M  V30 7472 C 719.641 -0.845353 5.15413 0
M  V30 7473 H 721.335 -0.208116 2.98676 0
M  V30 7474 H 718.881 -0.0986594 1.43662 0
M  V30 7475 H 720.834 -2.62531 3.2963 0
M  V30 7476 H 719.558 -2.53703 2.05676 0
M  V30 7477 H 718.217 -0.993964 3.52868 0
M  V30 7478 H 717.865 -3.46734 3.64396 0
M  V30 7479 H 717.565 -2.69551 5.22127 0
M  V30 7480 H 719.089 -3.5853 4.94255 0
M  V30 7481 H 720.503 -1.39929 5.55961 0
M  V30 7482 H 718.9 -0.715814 5.95815 0
M  V30 7483 H 719.97 0.157239 4.84645 0
M  V30 7484 N 721.313 -1.57302 -0.09688 0
M  V30 7485 C 722.263 -1.98369 -1.12399 0
M  V30 7486 C 723.247 -0.861872 -1.3587 0
M  V30 7487 O 724.439 -1.1257 -1.36591 0
M  V30 7488 C 721.568 -2.41017 -2.4447 0
M  V30 7489 C 720.654 -3.59881 -2.24381 0
M  V30 7490 N 721.045 -4.74872 -1.74155 0
M  V30 7491 C 719.343 -3.65943 -2.54954 0
M  V30 7492 C 720.044 -5.56823 -1.68294 0
M  V30 7493 N 719.02 -4.99942 -2.13444 0
M  V30 7494 H 722.822 -2.84726 -0.728575 0
M  V30 7495 H 720.336 -1.59523 -0.304332 0
M  V30 7496 H 722.333 -2.68665 -3.18786 0
M  V30 7497 H 720.993 -1.56036 -2.84751 0
M  V30 7498 H 722.004 -4.97657 -1.43379 0
M  V30 7499 H 718.681 -2.9162 -2.98771 0
M  V30 7500 H 720.071 -6.59099 -1.30528 0
M  V30 7501 N 722.791 0.367657 -1.53252 0
M  V30 7502 C 723.741 1.45035 -1.75923 0
M  V30 7503 C 724.725 1.48736 -0.613719 0
M  V30 7504 O 725.917 1.54012 -0.872313 0
M  V30 7505 C 723.046 2.82493 -1.9507 0
M  V30 7506 C 722.132 2.83279 -3.15617 0
M  V30 7507 N 722.523 2.53712 -4.37566 0
M  V30 7508 C 720.821 3.1444 -3.16297 0
M  V30 7509 C 721.522 2.62123 -5.19294 0
M  V30 7510 N 720.498 2.96747 -4.55458 0
M  V30 7511 H 724.3 1.21035 -2.6782 0
M  V30 7512 H 721.814 0.575822 -1.51849 0
M  V30 7513 H 723.811 3.60473 -2.0944 0
M  V30 7514 H 722.471 3.07459 -1.044 0
M  V30 7515 H 723.482 2.27344 -4.65333 0
M  V30 7516 H 720.159 3.44733 -2.35511 0
M  V30 7517 H 721.549 2.42628 -6.26563 0
M  V30 7518 N 724.269 1.44576 0.627338 0
M  V30 7519 C 725.517 1.47267 1.38408 0
M  V30 7520 C 725.838 0.107971 1.94701 0
M  V30 7521 O 725.108 -0.860206 1.76004 0
M  V30 7522 H 723.688 0.542276 0.513756 0
M  V30 7523 H 726.35 1.80383 0.738099 0
M  V30 7524 H 725.446 2.20025 2.21349 0
M  V30 7525 N 725.747 -0.868086 1.31537 0
M  V30 7526 C 726.995 -1.61807 1.21091 0
M  V30 7527 C 727.316 -1.93631 -0.230623 0
M  V30 7528 O 726.586 -1.5846 -1.15183 0
M  V30 7529 H 725.166 -0.599854 0.445178 0
M  V30 7530 H 727.828 -1.03915 1.64887 0
M  V30 7531 H 726.924 -2.56088 1.78396 0
M  V30 7532 N 727.225 -1.14528 -1.08264 0
M  V30 7533 C 728.473 -0.912599 -1.80322 0
M  V30 7534 C 728.794 0.562256 -1.86718 0
M  V30 7535 O 728.064 1.40869 -1.36135 0
M  V30 7536 H 726.644 -0.334645 -0.667849 0
M  V30 7537 H 729.306 -1.44415 -1.30883 0
M  V30 7538 H 728.402 -1.31384 -2.83098 0
M  V30 7539 N 728.703 1.26451 -0.940633 0
M  V30 7540 C 729.949 1.94065 -0.58878 0
M  V30 7541 C 730.282 1.7363 0.869853 0
M  V30 7542 O 729.557 1.073 1.62225 0
M  V30 7543 C 729.84 3.47852 -0.931199 0
M  V30 7544 C 729.693 3.77575 -2.44453 0
M  V30 7545 C 731.012 4.37832 -0.446229 0
M  V30 7546 H 728.131 0.704827 -0.21538 0
M  V30 7547 H 730.773 1.4933 -1.17475 0
M  V30 7548 H 728.923 3.86085 -0.432539 0
M  V30 7549 H 730.595 3.49059 -3.01588 0
M  V30 7550 H 728.838 3.23671 -2.88825 0
M  V30 7551 H 729.509 4.85068 -2.63464 0
M  V30 7552 H 731.985 4.06822 -0.873778 0
M  V30 7553 H 730.861 5.44228 -0.714648 0
M  V30 7554 H 731.122 4.37239 0.653815 0
M  V30 7555 N 730.181 0.707592 1.40822 0
M  V30 7556 C 731.429 0.243189 2.00632 0
M  V30 7557 C 731.75 -1.16512 1.56365 0
M  V30 7558 O 731.02 -1.78841 0.799553 0
M  V30 7559 H 729.6 0.0869203 0.741926 0
M  V30 7560 H 732.262 0.911438 1.72275 0
M  V30 7561 H 731.358 0.270014 3.1093 0
M  V30 7562 N 731.66 -1.50943 0.453197 0
M  V30 7563 C 732.593 -2.24742 -0.395787 0
M  V30 7564 C 733.571 -1.27316 -1.01141 0
M  V30 7565 O 734.755 -1.56494 -1.05081 0
M  V30 7566 C 731.882 -3.00999 -1.55298 0
M  V30 7567 C 730.928 -4.13207 -1.0565 0
M  V30 7568 S 731.761 -5.35498 0.01435 0
M  V30 7569 C 732.917 -6.15298 -1.14714 0
M  V30 7570 H 733.15 -2.96403 0.23071 0
M  V30 7571 H 730.683 -1.52557 0.237874 0
M  V30 7572 H 732.641 -3.45529 -2.2163 0
M  V30 7573 H 731.302 -2.28896 -2.15094 0
M  V30 7574 H 730.495 -4.65901 -1.9223 0
M  V30 7575 H 730.097 -3.7102 -0.471182 0
M  V30 7576 H 732.389 -6.45346 -2.06239 0
M  V30 7577 H 733.332 -7.05019 -0.659842 0
M  V30 7578 H 733.74 -5.47046 -1.39288 0
M  V30 7579 N 733.138 -0.185124 -1.56509 0
M  V30 7580 C 734.386 0.455357 -1.96903 0
M  V30 7581 C 734.707 1.62839 -1.07277 0
M  V30 7582 O 733.977 1.95385 -0.141966 0
M  V30 7583 H 732.557 0.171218 -0.727113 0
M  V30 7584 H 735.219 -0.26953 -1.93027 0
M  V30 7585 H 734.315 0.80616 -3.01509 0
M  V30 7586 N 734.616 1.57351 0.0885366 0
M  V30 7587 C 735.863 1.86419 0.790824 0
M  V30 7588 C 736.191 0.774561 1.78412 0
M  V30 7589 O 735.446 -0.23119 1.9433 0
M  V30 7590 C 735.745 3.22098 1.5488 0
M  V30 7591 C 735.411 4.4548 0.697025 0
M  V30 7592 C 734.073 4.78975 0.462237 0
M  V30 7593 C 736.425 5.21094 0.105315 0
M  V30 7594 C 733.753 5.85507 -0.374016 0
M  V30 7595 C 736.105 6.28509 -0.718298 0
M  V30 7596 C 734.769 6.60515 -0.963116 0
M  V30 7597 H 734.039 0.682157 0.289383 0
M  V30 7598 H 736.686 1.91429 0.0520961 0
M  V30 7599 H 734.991 3.12803 2.35927 0
M  V30 7600 H 736.688 3.41819 2.09669 0
M  V30 7601 H 733.278 4.19255 0.890137 0
M  V30 7602 H 737.462 4.95544 0.273856 0
M  V30 7603 H 732.718 6.08713 -0.572606 0
M  V30 7604 H 736.892 6.86268 -1.18362 0
M  V30 7605 H 734.519 7.42893 -1.6129 0
M  V30 7606 N 736.094 -0.359525 1.53444 0
M  V30 7607 C 737.319 -1.12644 1.74144 0
M  V30 7608 C 737.744 -1.82082 0.472007 0
M  V30 7609 O 737.102 -1.71962 -0.57436 0
M  V30 7610 C 737.15 -2.12781 2.9113 0
M  V30 7611 O 736.254 -3.19984 2.60162 0
M  V30 7612 H 735.595 -0.326553 0.578152 0
M  V30 7613 H 738.125 -0.414798 2.00351 0
M  V30 7614 H 738.135 -2.56278 3.17467 0
M  V30 7615 H 736.81 -1.61634 3.83207 0
M  V30 7616 H 735.387 -2.81417 2.44661 0
M  V30 7617 N 737.572 -1.44907 -0.619662 0
M  V30 7618 C 738.504 -1.48652 -1.74457 0
M  V30 7619 C 739.517 -0.378596 -1.58337 0
M  V30 7620 O 740.706 -0.644987 -1.6644 0
M  V30 7621 C 737.806 -1.31568 -3.12319 0
M  V30 7622 C 736.979 -2.55816 -3.54792 0
M  V30 7623 C 736.038 -2.33465 -4.71573 0
M  V30 7624 O 735.064 -3.07015 -4.79302 0
M  V30 7625 N 736.266 -1.37254 -5.6404 0
M  V30 7626 H 739.031 -2.45632 -1.71712 0
M  V30 7627 H 736.592 -1.40492 -0.804582 0
M  V30 7628 H 738.584 -1.14445 -3.88181 0
M  V30 7629 H 737.154 -0.429095 -3.09641 0
M  V30 7630 H 736.374 -2.88137 -2.69018 0
M  V30 7631 H 737.662 -3.38431 -3.79924 0
M  V30 7632 H 737.06 -0.765309 -5.60499 0
M  V30 7633 H 735.617 -1.26106 -6.39485 0
M  V30 7634 N 739.05 0.861098 -1.31996 0
M  V30 7635 C 740 1.95703 -1.1698 0
M  V30 7636 C 740.984 1.60709 -0.0784201 0
M  V30 7637 O 742.176 1.74365 -0.304262 0
M  V30 7638 C 739.305 3.31606 -0.888388 0
M  V30 7639 C 738.391 3.7284 -2.02117 0
M  V30 7640 N 738.782 3.85957 -3.26911 0
M  V30 7641 C 737.08 4.02419 -1.92289 0
M  V30 7642 C 737.781 4.21333 -4.01065 0
M  V30 7643 N 736.757 4.32502 -3.29307 0
M  V30 7644 H 740.559 2.03968 -2.11599 0
M  V30 7645 H 738.073 1.05245 -1.23682 0
M  V30 7646 H 740.07 4.09881 -0.761782 0
M  V30 7647 H 738.73 3.24662 0.0494898 0
M  V30 7648 H 739.741 3.70449 -3.61923 0
M  V30 7649 H 736.418 4.03814 -1.06022 0
M  V30 7650 H 737.808 4.39005 -5.08649 0
M  V30 7651 N 740.528 1.15101 1.07655 0
M  V30 7652 C 741.753 0.948177 1.84457 0
M  V30 7653 C 742.178 -0.498432 1.81376 0
M  V30 7654 O 741.536 -1.35509 1.20445 0
M  V30 7655 C 741.584 1.46318 3.29581 0
M  V30 7656 O 740.688 0.660342 4.07079 0
M  V30 7657 H 740.029 0.338428 0.571281 0
M  V30 7658 H 742.559 1.5301 1.35828 0
M  V30 7659 H 742.569 1.47468 3.80417 0
M  V30 7660 H 741.244 2.51635 3.31138 0
M  V30 7661 H 739.821 0.718216 3.65918 0
M  V30 7662 N 742.006 -1.2595 0.947325 0
M  V30 7663 C 743.254 -1.93081 0.596996 0
M  V30 7664 C 743.575 -1.74632 -0.867672 0
M  V30 7665 O 742.845 -1.1056 -1.6172 0
M  V30 7666 H 741.425 -0.714542 0.217805 0
M  V30 7667 H 744.087 -1.53265 1.20398 0
M  V30 7668 H 743.183 -3.01134 0.82004 0
M  V30 7669 N 743.484 -0.715051 -1.40445 0
M  V30 7670 C 744.417 -0.0112426 -2.28197 0
M  V30 7671 C 745.395 0.768211 -1.43308 0
M  V30 7672 O 746.579 0.754961 -1.72721 0
M  V30 7673 C 743.706 0.991453 -3.23864 0
M  V30 7674 C 742.752 0.302873 -4.25423 0
M  V30 7675 S 743.585 -0.968852 -5.26663 0
M  V30 7676 C 744.741 0.0317538 -6.25892 0
M  V30 7677 H 744.974 -0.755467 -2.87541 0
M  V30 7678 H 742.507 -0.506054 -1.45871 0
M  V30 7679 H 744.465 1.56475 -3.79507 0
M  V30 7680 H 743.126 1.70838 -2.63578 0
M  V30 7681 H 742.319 1.06086 -4.92709 0
M  V30 7682 H 741.921 -0.197853 -3.73476 0
M  V30 7683 H 744.213 0.878764 -6.71777 0
M  V30 7684 H 745.156 -0.607698 -7.05488 0
M  V30 7685 H 745.564 0.39524 -5.63115 0
M  V30 7686 N 744.962 1.50701 -0.461195 0
M  V30 7687 C 746.208 2.02566 0.0973411 0
M  V30 7688 C 746.541 1.3432 1.40257 0
M  V30 7689 O 745.816 0.465692 1.88843 0
M  V30 7690 C 746.099 3.58919 0.291423 0
M  V30 7691 C 745.952 4.37751 -1.03413 0
M  V30 7692 C 747.271 4.27379 1.05048 0
M  V30 7693 H 744.39 0.73622 0.0339026 0
M  V30 7694 H 747.032 1.80115 -0.604855 0
M  V30 7695 H 745.182 3.78179 0.889539 0
M  V30 7696 H 746.854 4.30085 -1.66806 0
M  V30 7697 H 745.097 4.01885 -1.63313 0
M  V30 7698 H 745.768 5.45384 -0.852085 0
M  V30 7699 H 748.244 4.12534 0.543603 0
M  V30 7700 H 747.12 5.36609 1.15506 0
M  V30 7701 H 747.381 3.89868 2.0846 0
M  V30 7702 N 746.441 0.193421 1.56409 0
M  V30 7703 C 747.69 -0.445995 1.96707 0
M  V30 7704 C 748.003 -1.62876 1.08309 0
M  V30 7705 O 749.209 -2.33586 1.38383 0
M  V30 7706 C 747.665 -0.844863 3.49843 0
M  V30 7707 C 747.273 0.31352 4.46902 0
M  V30 7708 C 749.017 -1.45146 3.98915 0
M  V30 7709 C 746.924 -0.106214 5.91305 0
M  V30 7710 H 745.854 -0.170398 0.734493 0
M  V30 7711 H 748.505 0.285172 1.81271 0
M  V30 7712 H 746.887 -1.63265 3.60778 0
M  V30 7713 H 748.061 1.09103 4.47698 0
M  V30 7714 H 746.376 0.8315 4.08014 0
M  V30 7715 H 748.973 -1.77792 5.04276 0
M  V30 7716 H 749.316 -2.35734 3.43126 0
M  V30 7717 H 749.849 -0.727675 3.91088 0
M  V30 7718 H 746.588 0.765442 6.51016 0
M  V30 7719 H 746.108 -0.848623 5.93766 0
M  V30 7720 H 747.787 -0.542588 6.44721 0
M  V30 7721 N 747.919 -1.57396 -0.0801906 0
M  V30 7722 C 749.165 -1.87113 -0.782083 0
M  V30 7723 C 749.498 -0.78458 -1.77646 0
M  V30 7724 O 748.773 0.205993 -1.93406 0
M  V30 7725 C 749.056 -3.27483 -1.49756 0
M  V30 7726 C 748.909 -4.46782 -0.520171 0
M  V30 7727 C 750.228 -3.65965 -2.44454 0
M  V30 7728 H 747.347 -0.680559 -0.282858 0
M  V30 7729 H 749.989 -1.89946 -0.0454139 0
M  V30 7730 H 748.139 -3.25199 -2.12551 0
M  V30 7731 H 749.811 -4.61187 0.101919 0
M  V30 7732 H 748.054 -4.33485 0.165219 0
M  V30 7733 H 748.725 -5.41761 -1.05824 0
M  V30 7734 H 751.201 -3.69289 -1.91742 0
M  V30 7735 H 750.077 -4.65086 -2.91524 0
M  V30 7736 H 750.338 -2.95446 -3.28883 0
M  V30 7737 N 749.397 0.351382 -1.53633 0
M  V30 7738 C 750.637 1.10102 -1.72212 0
M  V30 7739 C 751.001 1.86128 -0.471198 0
M  V30 7740 O 752.202 2.63445 -0.533887 0
M  V30 7741 C 750.473 2.02348 -2.94602 0
M  V30 7742 S 752.032 2.84641 -3.33954 0
M  V30 7743 H 748.85 0.372145 -0.60583 0
M  V30 7744 H 751.452 0.38044 -1.91763 0
M  V30 7745 H 750.156 1.45283 -3.83824 0
M  V30 7746 H 749.687 2.78856 -2.77493 0
M  V30 7747 H 751.702 4.04724 -2.87076 0
M  V30 7748 N 750.875 1.45233 0.611969 0
M  V30 7749 C 752.152 1.39495 1.37115 0
M  V30 7750 C 752.532 0.0633303 2.11005 0
M  V30 7751 O 751.88 -0.954617 2.07604 0
M  V30 7752 C 752.09 2.60579 2.32163 0
M  V30 7753 C 753.438 3.05477 2.94905 0
M  V30 7754 O 754.462 2.60921 2.42485 0
M  V30 7755 O 753.321 3.82787 3.90047 0
M  V30 7756 H 750.415 0.55335 0.614599 0
M  V30 7757 H 752.961 1.57355 0.635423 0
M  V30 7758 H 751.733 3.49085 1.76793 0
M  V30 7759 H 751.356 2.45031 3.13122 0
M  V30 7760 N 752.353 -0.854086 1.3245 0
M  V30 7761 C 753.601 -1.60513 1.228 0
M  V30 7762 C 753.922 -1.93865 -0.210073 0
M  V30 7763 O 753.192 -1.59673 -1.13496 0
M  V30 7764 H 751.772 -0.595099 0.451516 0
M  V30 7765 H 754.434 -1.0216 1.6598 0
M  V30 7766 H 753.53 -2.54182 1.81102 0
M  V30 7767 N 753.831 -1.1567 -1.07043 0
M  V30 7768 C 755.059 -0.957471 -1.83412 0
M  V30 7769 C 755.474 0.494271 -1.82215 0
M  V30 7770 O 754.831 1.34288 -1.23584 0
M  V30 7771 C 754.882 -1.46784 -3.30359 0
M  V30 7772 O 754.603 -2.86271 -3.31633 0
M  V30 7773 C 756.104 -1.31054 -4.23485 0
M  V30 7774 H 753.324 -0.33986 -0.578564 0
M  V30 7775 H 755.868 -1.53518 -1.35102 0
M  V30 7776 H 754.023 -0.932586 -3.76007 0
M  V30 7777 H 754.437 -3.0948 -4.23465 0
M  V30 7778 H 755.911 -1.71605 -5.24648 0
M  V30 7779 H 756.388 -0.255107 -4.38458 0
M  V30 7780 H 756.994 -1.83503 -3.83676 0
M  V30 7781 N 755.309 1.25446 -0.953992 0
M  V30 7782 C 756.586 1.884 -0.525823 0
M  V30 7783 C 756.966 1.86079 0.996891 0
M  V30 7784 O 756.314 1.32389 1.8624 0
M  V30 7785 C 756.524 3.31154 -1.10172 0
M  V30 7786 C 757.872 4.07926 -1.17819 0
M  V30 7787 O 758.896 3.40273 -1.05323 0
M  V30 7788 O 757.755 5.28942 -1.37415 0
M  V30 7789 H 754.849 0.808629 -0.173345 0
M  V30 7790 H 757.395 1.33522 -1.04738 0
M  V30 7791 H 756.167 3.27271 -2.14499 0
M  V30 7792 H 755.79 3.93588 -0.56338 0
M  V30 7793 N 756.787 0.722489 1.40064 0
M  V30 7794 C 757.697 0.0755984 2.34478 0
M  V30 7795 C 758.713 -0.736046 1.57665 0
M  V30 7796 O 759.889 -0.667407 1.9002 0
M  V30 7797 C 756.954 -0.830075 3.36616 0
M  V30 7798 C 756.015 -0.00759884 4.29299 0
M  V30 7799 C 755.248 -0.870139 5.26559 0
M  V30 7800 O 755.471 -2.10921 5.2997 0
M  V30 7801 O 754.405 -0.305454 6.01124 0
M  V30 7802 H 758.231 0.854545 2.9143 0
M  V30 7803 H 755.816 0.483032 1.41376 0
M  V30 7804 H 757.698 -1.34864 3.99236 0
M  V30 7805 H 756.373 -1.58805 2.82069 0
M  V30 7806 H 755.28 0.556199 3.69942 0
M  V30 7807 H 756.613 0.712312 4.87018 0
M  V30 7808 N 758.265 -1.50454 0.469181 0
M  V30 7809 C 759.228 -2.2703 -0.314643 0
M  V30 7810 C 760.228 -1.31734 -0.922111 0
M  V30 7811 O 761.418 -1.55176 -0.791588 0
M  V30 7812 C 758.55 -3.08616 -1.44806 0
M  V30 7813 H 759.743 -2.97769 0.356892 0
M  V30 7814 H 757.296 -1.54698 0.223191 0
M  V30 7815 H 758.031 -2.42369 -2.1547 0
M  V30 7816 H 757.816 -3.78647 -1.01829 0
M  V30 7817 H 759.306 -3.66536 -2.00103 0
M  V30 7818 N 759.743 -0.201713 -1.56304 0
M  V30 7819 C 760.706 0.702811 -2.18159 0
M  V30 7820 C 761.706 1.13619 -1.13787 0
M  V30 7821 O 762.896 1.0482 -1.39134 0
M  V30 7822 C 760.028 1.96032 -2.78898 0
M  V30 7823 H 761.221 0.163836 -2.99452 0
M  V30 7824 H 758.774 0.04791 -1.56227 0
M  V30 7825 H 759.509 2.54165 -2.01421 0
M  V30 7826 H 759.294 1.65824 -3.55309 0
M  V30 7827 H 760.784 2.60519 -3.26373 0
M  V30 7828 N 761.222 1.57436 0.0718424 0
M  V30 7829 C 762.132 2.07039 1.10326 0
M  V30 7830 C 763.148 0.999918 1.424 0
M  V30 7831 O 764.324 1.31462 1.52577 0
M  V30 7832 C 761.389 2.50439 2.39752 0
M  V30 7833 C 760.45 3.71784 2.14651 0
M  V30 7834 C 759.683 4.13104 3.37906 0
M  V30 7835 O 759.906 3.54298 4.47023 0
M  V30 7836 O 758.84 5.05894 3.26121 0
M  V30 7837 H 762.666 2.95239 0.711872 0
M  V30 7838 H 760.251 1.46638 0.28597 0
M  V30 7839 H 762.133 2.78876 3.15921 0
M  V30 7840 H 760.808 1.65368 2.78271 0
M  V30 7841 H 759.715 3.48431 1.36187 0
M  V30 7842 H 761.048 4.57707 1.81012 0
M  V30 7843 N 762.7 -0.34323 1.53817 0
M  V30 7844 C 764.116 -0.686355 1.44088 0
M  V30 7845 C 764.316 -1.92426 0.597882 0
M  V30 7846 O 763.372 -2.52343 0.0889918 0
M  V30 7847 C 764.685 -0.878698 2.87575 0
M  V30 7848 C 766.233 -0.977296 2.97352 0
M  V30 7849 C 766.708 -1.20195 4.41947 0
M  V30 7850 N 768.199 -1.26915 4.45474 0
M  V30 7851 C 768.934 -1.46049 5.54488 0
M  V30 7852 N 768.43 -1.62354 6.73508 0
M  V30 7853 N 770.223 -1.48599 5.42102 0
M  V30 7854 H 762.374 0.470679 2.07119 0
M  V30 7855 H 764.637 0.148652 0.936273 0
M  V30 7856 H 764.343 -0.040602 3.51677 0
M  V30 7857 H 764.217 -1.78034 3.32541 0
M  V30 7858 H 766.604 -1.80591 2.3339 0
M  V30 7859 H 766.685 -0.0525498 2.55746 0
M  V30 7860 H 766.329 -0.378262 5.06489 0
M  V30 7861 H 766.259 -2.14027 4.81145 0
M  V30 7862 H 768.75 -1.15837 3.59708 0
M  V30 7863 H 769.063 -1.76591 7.52353 0
M  V30 7864 H 767.408 -1.5949 6.76453 0
M  V30 7865 H 770.599 -1.35443 4.48077 0
M  V30 7866 H 770.772 -1.6317 6.2712 0
M  V30 7867 N 764.178 -1.45556 -0.604258 0
M  V30 7868 C 765.427 -1.49019 -1.35928 0
M  V30 7869 C 765.74 -0.137409 -1.95117 0
M  V30 7870 O 766.946 -0.0497032 -2.71455 0
M  V30 7871 C 765.402 -2.62477 -2.46239 0
M  V30 7872 C 765.01 -4.04082 -1.93447 0
M  V30 7873 C 766.754 -2.7519 -3.23219 0
M  V30 7874 C 764.661 -5.08917 -3.0126 0
M  V30 7875 H 763.591 -0.554518 -0.510907 0
M  V30 7876 H 766.242 -1.71705 -0.647262 0
M  V30 7877 H 764.624 -2.3308 -3.2014 0
M  V30 7878 H 765.798 -4.43173 -1.26232 0
M  V30 7879 H 764.113 -3.95849 -1.29201 0
M  V30 7880 H 766.71 -3.50683 -4.0364 0
M  V30 7881 H 767.053 -1.81941 -3.74437 0
M  V30 7882 H 767.586 -3.04129 -2.56418 0
M  V30 7883 H 764.325 -6.03886 -2.54955 0
M  V30 7884 H 763.845 -4.74393 -3.67031 0
M  V30 7885 H 765.524 -5.33814 -3.65584 0
M  V30 7886 N 765.656 0.84705 -1.32902 0
M  V30 7887 C 766.619 1.9378 -1.224 0
M  V30 7888 C 767.619 1.60144 -0.145108 0
M  V30 7889 O 768.809 1.69638 -0.396058 0
M  V30 7890 C 765.941 3.29234 -0.884174 0
M  V30 7891 H 767.134 2.04518 -2.19345 0
M  V30 7892 H 764.687 1.03816 -1.16842 0
M  V30 7893 H 765.422 3.24193 0.0831277 0
M  V30 7894 H 765.207 3.55026 -1.6643 0
M  V30 7895 H 766.697 4.09162 -0.835226 0
M  V30 7896 N 767.134 1.16236 1.06428 0
M  V30 7897 C 768.55 0.906983 1.31324 0
M  V30 7898 C 768.75 -0.440872 1.96618 0
M  V30 7899 O 767.806 -1.1807 2.23194 0
M  V30 7900 C 769.119 2.05501 2.19522 0
M  V30 7901 C 770.667 2.09061 2.32943 0
M  V30 7902 C 771.142 3.23214 3.24495 0
M  V30 7903 N 772.633 3.22922 3.32078 0
M  V30 7904 C 773.368 4.07889 4.03006 0
M  V30 7905 N 772.864 5.02941 4.76469 0
M  V30 7906 N 774.657 3.95881 3.99043 0
M  V30 7907 H 766.808 2.03015 0.624388 0
M  V30 7908 H 769.071 0.88576 0.337835 0
M  V30 7909 H 768.777 3.02847 1.78819 0
M  V30 7910 H 768.651 1.99538 3.201 0
M  V30 7911 H 771.038 1.12308 2.72893 0
M  V30 7912 H 771.119 2.19089 1.32037 0
M  V30 7913 H 770.763 4.20225 2.85261 0
M  V30 7914 H 770.693 3.10423 4.25377 0
M  V30 7915 H 773.184 2.54093 2.79724 0
M  V30 7916 H 773.497 5.64196 5.28112 0
M  V30 7917 H 771.842 5.06922 4.75453 0
M  V30 7918 H 775.033 3.20927 3.40769 0
M  V30 7919 H 775.206 4.62321 4.54052 0
M  V30 7920 N 768.612 -1.24939 0.960631 0
M  V30 7921 C 769.858 -1.93104 0.61958 0
M  V30 7922 C 770.191 -1.74991 -0.84212 0
M  V30 7923 O 769.466 -1.09867 -1.60498 0
M  V30 7924 C 769.749 -3.46326 0.986422 0
M  V30 7925 C 769.602 -3.73638 2.50429 0
M  V30 7926 C 770.921 -4.37067 0.515827 0
M  V30 7927 H 768.04 -0.701311 0.226566 0
M  V30 7928 H 770.682 -1.47442 1.19836 0
M  V30 7929 H 768.832 -3.85348 0.493907 0
M  V30 7930 H 770.504 -3.44217 3.07103 0
M  V30 7931 H 768.747 -3.19035 2.93937 0
M  V30 7932 H 769.418 -4.80815 2.71147 0
M  V30 7933 H 771.894 -4.05381 0.938389 0
M  V30 7934 H 770.77 -5.43022 0.80114 0
M  V30 7935 H 771.031 -4.38224 -0.584171 0
M  V30 7936 N 770.09 -0.729906 -1.39679 0
M  V30 7937 C 771.02 -0.101618 -2.33279 0
M  V30 7938 C 772.001 0.729854 -1.53646 0
M  V30 7939 O 773.186 0.67587 -1.82059 0
M  V30 7940 C 770.316 0.81024 -3.37716 0
M  V30 7941 C 769.27 0.0833126 -4.27919 0
M  V30 7942 C 768.596 1.11185 -5.23012 0
M  V30 7943 C 769.896 -1.07107 -5.112 0
M  V30 7944 H 771.59 -0.883452 -2.86069 0
M  V30 7945 H 769.136 -0.426283 -1.37546 0
M  V30 7946 H 771.089 1.25927 -4.02145 0
M  V30 7947 H 769.813 1.62413 -2.83354 0
M  V30 7948 H 768.472 -0.346043 -3.64963 0
M  V30 7949 H 768.12 1.91917 -4.64948 0
M  V30 7950 H 767.82 0.63026 -5.8421 0
M  V30 7951 H 769.344 1.56068 -5.90318 0
M  V30 7952 H 770.758 -0.700726 -5.69002 0
M  V30 7953 H 769.155 -1.48196 -5.81514 0
M  V30 7954 H 770.225 -1.89513 -4.46332 0
M  V30 7955 N 771.568 1.50203 -0.477153 0
M  V30 7956 C 772.796 2.0677 0.0732489 0
M  V30 7957 C 773.211 1.34033 1.32968 0
M  V30 7958 O 772.568 0.411412 1.77802 0
M  V30 7959 C 772.619 3.59751 0.35518 0
M  V30 7960 O 772.34 4.29747 -0.851425 0
M  V30 7961 C 773.841 4.3296 0.951877 0
M  V30 7962 H 771.061 0.670929 -0.00978923 0
M  V30 7963 H 773.605 1.93293 -0.667676 0
M  V30 7964 H 771.76 3.7301 1.04605 0
M  V30 7965 H 772.174 5.2106 -0.599708 0
M  V30 7966 H 773.648 5.40952 1.09888 0
M  V30 7967 H 774.125 3.93856 1.94356 0
M  V30 7968 H 774.731 4.24246 0.299208 0
M  V30 7969 N 773.046 0.209999 1.56195 0
M  V30 7970 C 773.994 -0.721416 2.2113 0
M  V30 7971 C 774.988 -1.20852 1.18706 0
M  V30 7972 O 776.194 -1.16968 1.36815 0
M  V30 7973 H 772.569 -0.251033 0.708863 0
M  V30 7974 H 774.54 -0.150193 2.98022 0
M  V30 7975 C 773.289 -1.92392 2.89621 0
M  V30 7976 H 772.612 -1.5582 3.68185 0
M  V30 7977 H 774.052 -2.55367 3.38473 0
M  V30 7978 C 772.511 -2.77208 1.91461 0
M  V30 7979 O 773.041 -3.75603 1.42426 0
M  V30 7980 N 771.247 -2.43006 1.59363 0
M  V30 7981 H 770.794 -1.63047 1.99433 0
M  V30 7982 H 770.752 -3.00036 0.939449 0
M  V30 7983 N 774.524 -1.57472 -0.0634922 0
M  V30 7984 C 775.801 -1.78736 -0.794538 0
M  V30 7985 C 776.181 -0.799645 -1.95369 0
M  V30 7986 O 775.529 0.165521 -2.279 0
M  V30 7987 C 775.739 -3.25471 -1.25975 0
M  V30 7988 C 777.087 -3.89528 -1.68976 0
M  V30 7989 O 778.111 -3.29412 -1.35521 0
M  V30 7990 O 776.97 -4.95305 -2.30944 0
M  V30 7991 H 774.064 -0.733813 -0.381376 0
M  V30 7992 H 776.61 -1.69646 -0.0429258 0
M  V30 7993 H 775.382 -3.88922 -0.430721 0
M  V30 7994 H 775.005 -3.39317 -2.07243 0
M  V30 7995 N 776.003 0.335068 -1.53997 0
M  V30 7996 C 777.414 0.910191 -1.6301 0
M  V30 7997 C 777.765 1.89271 -0.516809 0
M  V30 7998 O 776.89 2.13516 0.352123 0
M  V30 7999 C 777.485 1.65761 -2.9548 0
M  V30 8000 C 776.044 2.18163 -3.06728 0
M  V30 8001 C 775.191 1.00338 -2.5851 0
M  V30 8002 H 778.142 0.112965 -1.58297 0
M  V30 8003 H 778.163 2.52107 -2.84995 0
M  V30 8004 H 777.675 0.94227 -3.76488 0
M  V30 8005 H 775.776 2.92847 -2.30372 0
M  V30 8006 H 775.889 2.43952 -4.1234 0
M  V30 8007 H 774.253 1.37925 -2.14124 0
M  V30 8008 H 775.036 0.30254 -3.41964 0
M  V30 8009 N 777.481 1.45874 0.596531 0
M  V30 8010 C 778.729 1.5017 1.35253 0
M  V30 8011 C 779.05 0.149246 1.94428 0
M  V30 8012 O 778.32 -0.82268 1.77789 0
M  V30 8013 H 776.9 0.553052 0.502138 0
M  V30 8014 H 779.562 1.81908 0.699671 0
M  V30 8015 H 778.658 2.24671 2.16632 0
M  V30 8016 N 778.959 -0.83999 1.33349 0
M  V30 8017 C 780.187 -1.62728 1.27778 0
M  V30 8018 C 780.602 -1.88191 -0.151505 0
M  V30 8019 O 779.959 -1.46128 -1.09329 0
M  V30 8020 C 780.01 -2.97813 2.04913 0
M  V30 8021 O 779.731 -2.73469 3.42266 0
M  V30 8022 C 781.232 -3.92245 2.0654 0
M  V30 8023 H 778.452 -0.506374 0.440257 0
M  V30 8024 H 780.996 -1.04637 1.75703 0
M  V30 8025 H 779.151 -3.52509 1.60674 0
M  V30 8026 H 779.565 -3.59483 3.81932 0
M  V30 8027 H 781.039 -4.84249 2.64966 0
M  V30 8028 H 781.516 -4.26332 1.05537 0
M  V30 8029 H 782.122 -3.43487 2.50793 0
M  V30 8030 N 780.437 -1.16799 -1.0581 0
M  V30 8031 C 781.685 -0.950642 -1.78346 0
M  V30 8032 C 782.006 0.522524 -1.87869 0
M  V30 8033 O 781.276 1.3795 -1.39092 0
M  V30 8034 H 779.856 -0.348736 -0.6606 0
M  V30 8035 H 782.518 -1.47158 -1.27791 0
M  V30 8036 H 781.614 -1.37359 -2.80248 0
M  V30 8037 N 781.915 1.24427 -0.967243 0
M  V30 8038 C 783.161 1.92772 -0.629812 0
M  V30 8039 C 783.494 1.75436 0.832827 0
M  V30 8040 O 782.769 1.10716 1.59913 0
M  V30 8041 C 783.052 3.45798 -1.00477 0
M  V30 8042 C 782.905 3.72304 -2.52407 0
M  V30 8043 C 784.224 4.36787 -0.538999 0
M  V30 8044 H 781.343 0.700099 -0.230282 0
M  V30 8045 H 783.985 1.46805 -1.20616 0
M  V30 8046 H 782.135 3.8508 -0.514336 0
M  V30 8047 H 783.807 3.42584 -3.08924 0
M  V30 8048 H 782.05 3.17472 -2.95625 0
M  V30 8049 H 782.721 4.7937 -2.73693 0
M  V30 8050 H 785.197 4.04877 -0.959874 0
M  V30 8051 H 784.073 5.4259 -0.829926 0
M  V30 8052 H 784.334 4.38527 0.560923 0
M  V30 8053 N 783.393 0.737304 1.3929 0
M  V30 8054 C 784.326 0.0475454 2.2815 0
M  V30 8055 C 785.304 -0.745314 1.44512 0
M  V30 8056 O 786.488 -0.727387 1.739 0
M  V30 8057 C 783.615 -0.939803 3.254 0
M  V30 8058 C 782.661 -0.235153 4.25851 0
M  V30 8059 S 783.494 1.05252 5.25055 0
M  V30 8060 C 784.65 0.0678242 6.25863 0
M  V30 8061 H 784.883 0.801117 2.86303 0
M  V30 8062 H 782.416 0.529197 1.45048 0
M  V30 8063 H 784.374 -1.50417 3.81949 0
M  V30 8064 H 783.035 -1.66623 2.66262 0
M  V30 8065 H 782.228 -0.982336 4.94334 0
M  V30 8066 H 781.83 0.257245 3.73114 0
M  V30 8067 H 784.122 -0.771779 6.7309 0
M  V30 8068 H 785.065 0.719858 7.04431 0
M  V30 8069 H 785.473 -0.305604 5.63672 0
M  V30 8070 N 784.871 -1.49948 0.485112 0
M  V30 8071 C 786.287 -1.58984 0.140096 0
M  V30 8072 C 786.487 -1.49194 -1.35438 0
M  V30 8073 O 785.543 -1.35765 -2.12894 0
M  V30 8074 C 786.856 -2.92372 0.702769 0
M  V30 8075 C 788.404 -3.05801 0.66745 0
M  V30 8076 C 788.879 -4.41785 1.20791 0
M  V30 8077 N 790.37 -4.48234 1.16792 0
M  V30 8078 C 791.105 -5.51871 1.55646 0
M  V30 8079 N 790.601 -6.62692 2.02016 0
M  V30 8080 N 792.394 -5.42494 1.47161 0
M  V30 8081 H 784.545 -1.54555 1.45693 0
M  V30 8082 H 786.808 -0.731206 0.603359 0
M  V30 8083 H 786.514 -3.05056 1.75025 0
M  V30 8084 H 786.388 -3.76885 0.154205 0
M  V30 8085 H 788.775 -2.92757 -0.371157 0
M  V30 8086 H 788.856 -2.23011 1.25298 0
M  V30 8087 H 788.5 -4.55579 2.24522 0
M  V30 8088 H 788.43 -5.23188 0.598464 0
M  V30 8089 H 790.921 -3.68718 0.827982 0
M  V30 8090 H 791.234 -7.3785 2.29775 0
M  V30 8091 H 789.579 -6.63775 2.05979 0
M  V30 8092 H 792.77 -4.54806 1.10765 0
M  V30 8093 H 792.943 -6.2314 1.77766 0
M  V30 8094 N 786.349 -0.21828 -1.56081 0
M  V30 8095 C 787.299 0.706492 -2.16778 0
M  V30 8096 C 788.283 1.15987 -1.11516 0
M  V30 8097 O 789.475 1.11441 -1.37513 0
M  V30 8098 C 786.604 1.91583 -2.8487 0
M  V30 8099 C 785.69 1.48228 -3.97353 0
M  V30 8100 N 786.081 0.761113 -5.00041 0
M  V30 8101 C 784.379 1.76982 -4.09382 0
M  V30 8102 C 785.08 0.540496 -5.79184 0
M  V30 8103 N 784.056 1.09622 -5.32432 0
M  V30 8104 H 787.858 0.147038 -2.93532 0
M  V30 8105 H 785.372 -0.0194049 -1.62388 0
M  V30 8106 H 787.369 2.58906 -3.26762 0
M  V30 8107 H 786.029 2.47979 -2.09611 0
M  V30 8108 H 787.04 0.414141 -5.16241 0
M  V30 8109 H 783.717 2.34721 -3.45271 0
M  V30 8110 H 785.107 -0.0332531 -6.71892 0
M  V30 8111 N 787.827 1.57504 0.0551401 0
M  V30 8112 C 788.79 2.03826 1.04821 0
M  V30 8113 C 789.79 0.937968 1.30609 0
M  V30 8114 O 790.98 1.20237 1.2605 0
M  V30 8115 C 788.112 2.43309 2.38775 0
M  V30 8116 H 789.305 2.92802 0.6486 0
M  V30 8117 H 786.858 1.53368 0.301315 0
M  V30 8118 H 787.593 1.5741 2.83536 0
M  V30 8119 H 787.378 3.23615 2.21395 0
M  V30 8120 H 788.868 2.79666 3.10124 0
M  V30 8121 N 789.305 -0.326896 1.54172 0
M  V30 8122 C 790.582 -1.08326 1.62864 0
M  V30 8123 C 790.962 -2.06018 0.46039 0
M  V30 8124 O 790.31 -2.21889 -0.545685 0
M  V30 8125 C 790.52 -1.78816 2.9971 0
M  V30 8126 C 791.868 -2.31958 3.55641 0
M  V30 8127 O 792.892 -1.88888 3.01993 0
M  V30 8128 O 791.751 -3.10801 4.49517 0
M  V30 8129 H 788.845 -0.499131 0.659392 0
M  V30 8130 H 791.391 -0.327054 1.66519 0
M  V30 8131 H 790.163 -1.07739 3.76176 0
M  V30 8132 H 789.786 -2.61255 2.99719 0
M  V30 8133 N 790.784 -1.46188 -0.588786 0
M  V30 8134 C 791.747 -1.55882 -1.68029 0
M  V30 8135 C 792.747 -0.436515 -1.54762 0
M  V30 8136 O 793.937 -0.700626 -1.59489 0
M  V30 8137 C 791.069 -1.47332 -3.07418 0
M  V30 8138 H 792.262 -2.5315 -1.60795 0
M  V30 8139 H 789.815 -1.33908 -0.806116 0
M  V30 8140 H 790.55 -0.513193 -3.20214 0
M  V30 8141 H 790.335 -2.28753 -3.18456 0
M  V30 8142 H 791.825 -1.57187 -3.86887 0
M  V30 8143 N 792.262 0.832906 -1.33792 0
M  V30 8144 C 793.51 1.58539 -1.25338 0
M  V30 8145 C 793.831 1.94175 0.179204 0
M  V30 8146 O 793.101 1.61458 1.10941 0
M  V30 8147 H 791.681 0.58784 -0.460926 0
M  V30 8148 H 794.343 0.995064 -1.67584 0
M  V30 8149 H 793.439 2.51268 -1.85123 0
M  V30 8150 N 793.74 1.17359 1.05189 0
M  V30 8151 C 794.97 0.985099 1.81602 0
M  V30 8152 C 795.378 -0.469872 1.83273 0
M  V30 8153 O 794.721 -1.33806 1.25864 0
M  V30 8154 C 794.783 1.44956 3.2898 0
M  V30 8155 C 794.447 2.92666 3.50993 0
M  V30 8156 C 795.444 3.906 3.43115 0
M  V30 8157 C 793.129 3.30841 3.77954 0
M  V30 8158 C 795.123 5.24709 3.61883 0
M  V30 8159 C 792.81 4.65116 3.96371 0
M  V30 8160 C 793.808 5.61859 3.88335 0
M  V30 8161 O 793.496 6.93704 4.06238 0
M  V30 8162 H 793.228 0.348731 0.579105 0
M  V30 8163 H 795.782 1.56066 1.33539 0
M  V30 8164 H 794.012 0.817559 3.77959 0
M  V30 8165 H 795.701 1.22674 3.86919 0
M  V30 8166 H 796.467 3.62453 3.22262 0
M  V30 8167 H 792.346 2.5611 3.83313 0
M  V30 8168 H 795.89 6.00205 3.55527 0
M  V30 8169 H 791.787 4.92969 4.16715 0
M  V30 8170 H 792.555 7.00443 4.23463 0
M  V30 8171 N 795.218 -1.23913 0.973828 0
M  V30 8172 C 796.495 -1.87539 0.555729 0
M  V30 8173 C 796.875 -1.87641 -0.967162 0
M  V30 8174 O 796.223 -1.35335 -1.84111 0
M  V30 8175 C 796.433 -3.29359 1.15427 0
M  V30 8176 C 797.781 -4.06 1.24294 0
M  V30 8177 O 798.805 -3.38554 1.10723 0
M  V30 8178 O 797.664 -5.26689 1.45813 0
M  V30 8179 H 794.758 -0.805769 0.186188 0
M  V30 8180 H 797.304 -1.31838 1.06849 0
M  V30 8181 H 796.076 -3.23817 2.19678 0
M  V30 8182 H 795.699 -3.92642 0.625925 0
M  V30 8183 N 796.696 -0.74468 -1.38897 0
M  V30 8184 C 797.945 -0.293716 -1.9955 0
M  V30 8185 C 798.258 1.12831 -1.59777 0
M  V30 8186 O 799.464 1.67929 -2.13336 0
M  V30 8187 C 797.92 -0.474188 -3.56762 0
M  V30 8188 C 797.528 -1.90472 -4.05493 0
M  V30 8189 C 799.272 -0.0854875 -4.24414 0
M  V30 8190 C 797.179 -2.03423 -5.55314 0
M  V30 8191 H 796.109 -0.106066 -0.746502 0
M  V30 8192 H 798.76 -0.919948 -1.58774 0
M  V30 8193 H 797.142 0.221092 -3.95382 0
M  V30 8194 H 798.316 -2.63274 -3.78184 0
M  V30 8195 H 796.631 -2.24752 -3.50536 0
M  V30 8196 H 799.228 -0.161133 -5.34457 0
M  V30 8197 H 799.571 0.96066 -4.05064 0
M  V30 8198 H 800.104 -0.732286 -3.91002 0
M  V30 8199 H 796.843 -3.0626 -5.79556 0
M  V30 8200 H 796.363 -1.3507 -5.84394 0
M  V30 8201 H 798.042 -1.81996 -6.20876 0
M  V30 8202 N 798.174 1.49689 -0.493057 0
M  V30 8203 C 799.137 2.27502 0.278485 0
M  V30 8204 C 800.137 1.33184 0.901037 0
M  V30 8205 O 801.327 1.56415 0.766801 0
M  V30 8206 C 798.459 3.10881 1.39878 0
M  V30 8207 H 799.652 2.97163 -0.404219 0
M  V30 8208 H 797.205 1.54324 -0.247774 0
M  V30 8209 H 797.94 2.45767 2.11587 0
M  V30 8210 H 797.725 3.80219 0.957924 0
M  V30 8211 H 799.215 3.69673 1.94247 0
M  V30 8212 N 799.652 0.226554 1.55963 0
M  V30 8213 C 800.901 -0.40417 1.97609 0
M  V30 8214 C 801.214 -1.60541 1.1174 0
M  V30 8215 O 802.42 -2.30598 1.43307 0
M  V30 8216 C 800.876 -0.770466 3.51556 0
M  V30 8217 C 800.484 0.408244 4.46136 0
M  V30 8218 C 802.228 -1.36651 4.01904 0
M  V30 8219 C 800.135 0.0192347 5.91397 0
M  V30 8220 H 799.065 -0.15478 0.737943 0
M  V30 8221 H 801.716 0.323558 1.80625 0
M  V30 8222 H 800.098 -1.55575 3.6416 0
M  V30 8223 H 801.272 1.18575 4.45283 0
M  V30 8224 H 799.587 0.917859 4.06158 0
M  V30 8225 H 802.184 -1.67055 5.07934 0
M  V30 8226 H 802.527 -2.28403 3.48049 0
M  V30 8227 H 803.06 -0.644556 3.92543 0
M  V30 8228 H 799.799 0.90336 6.49245 0
M  V30 8229 H 799.319 -0.722485 5.95433 0
M  V30 8230 H 800.998 -0.405711 6.45727 0
M  V30 8231 N 801.13 -1.57531 -0.0467866 0
M  V30 8232 C 802.407 -1.79568 -0.775536 0
M  V30 8233 C 802.787 -0.820322 -1.94509 0
M  V30 8234 O 802.135 0.14134 -2.28062 0
M  V30 8235 C 802.345 -3.26789 -1.22516 0
M  V30 8236 C 803.693 -3.91299 -1.64835 0
M  V30 8237 O 804.717 -3.30831 -1.3202 0
M  V30 8238 O 803.576 -4.97727 -2.25677 0
M  V30 8239 H 800.67 -0.737817 -0.373572 0
M  V30 8240 H 803.216 -1.69682 -0.0249302 0
M  V30 8241 H 801.988 -3.89357 -0.389446 0
M  V30 8242 H 801.611 -3.41496 -2.03633 0
M  V30 8243 N 802.608 0.318715 -1.54344 0
M  V30 8244 C 803.848 1.06425 -1.74508 0
M  V30 8245 C 804.212 1.85087 -0.510572 0
M  V30 8246 O 805.413 2.62253 -0.589647 0
M  V30 8247 C 803.684 1.96054 -2.98827 0
M  V30 8248 S 805.243 2.77493 -3.39916 0
M  V30 8249 H 802.061 0.35921 -0.613587 0
M  V30 8250 H 804.663 0.339679 -1.92526 0
M  V30 8251 H 803.367 1.37109 -3.8682 0
M  V30 8252 H 802.898 2.72908 -2.83346 0
M  V30 8253 H 804.913 3.98544 -2.95596 0
M  V30 8254 N 804.086 1.46499 0.581025 0
M  V30 8255 C 805.049 1.5677 1.672 0
M  V30 8256 C 806.049 0.444716 1.54528 0
M  V30 8257 O 807.239 0.709074 1.59116 0
M  V30 8258 C 804.371 1.4896 3.06633 0
M  V30 8259 H 805.564 2.54 1.5945 0
M  V30 8260 H 803.117 1.34334 0.799003 0
M  V30 8261 H 803.852 0.530168 3.19937 0
M  V30 8262 H 803.637 2.30439 3.17239 0
M  V30 8263 H 805.127 1.59237 3.86048 0
M  V30 8264 N 805.565 -0.825799 1.34232 0
M  V30 8265 C 806.512 -1.93651 1.2557 0
M  V30 8266 C 807.482 -1.65578 0.131536 0
M  V30 8267 O 808.667 -1.88231 0.312027 0
M  V30 8268 C 805.807 -3.29862 1.01415 0
M  V30 8269 C 804.92 -3.70247 2.22579 0
M  V30 8270 C 804.055 -4.95392 1.91731 0
M  V30 8271 C 803.094 -5.28349 3.09053 0
M  V30 8272 N 802.231 -6.44671 2.78107 0
M  V30 8273 H 807.071 -2.00392 2.20561 0
M  V30 8274 H 804.608 -0.980441 1.09662 0
M  V30 8275 H 806.566 -4.08356 0.854485 0
M  V30 8276 H 805.196 -3.22642 0.100936 0
M  V30 8277 H 804.248 -2.87169 2.49476 0
M  V30 8278 H 805.56 -3.90575 3.10246 0
M  V30 8279 H 804.714 -5.81665 1.72484 0
M  V30 8280 H 803.453 -4.77059 1.0132 0
M  V30 8281 H 802.458 -4.40574 3.289 0
M  V30 8282 H 803.683 -5.48622 4.00239 0
M  V30 8283 H 801.629 -6.278 1.9027 0
M  V30 8284 H 801.546 -6.65158 3.59306 0
M  V30 8285 H 802.814 -7.34022 2.62358 0
M  V30 8286 N 807.043 -1.17915 -1.04565 0
M  V30 8287 C 807.953 -0.916449 -2.15959 0
M  V30 8288 C 808.969 0.117655 -1.73602 0
M  V30 8289 O 810.145 -0.063089 -2.01301 0
M  V30 8290 C 807.21 -0.440262 -3.43893 0
M  V30 8291 C 806.271 -1.54172 -4.00661 0
M  V30 8292 C 805.504 -1.08816 -5.22489 0
M  V30 8293 O 805.727 0.0551547 -5.70373 0
M  V30 8294 O 804.661 -1.88383 -5.7166 0
M  V30 8295 H 808.487 -1.8484 -2.40972 0
M  V30 8296 H 806.072 -0.960552 -1.14428 0
M  V30 8297 H 807.954 -0.182537 -4.21004 0
M  V30 8298 H 806.629 0.46346 -3.20365 0
M  V30 8299 H 805.536 -1.85341 -3.24961 0
M  V30 8300 H 806.869 -2.42139 -4.2852 0
M  V30 8301 N 808.521 1.23394 -0.980386 0
M  V30 8302 C 809.453 2.24146 -0.478657 0
M  V30 8303 C 810.466 1.57303 0.419492 0
M  V30 8304 O 811.655 1.77094 0.223631 0
M  V30 8305 C 808.755 3.3732 0.326913 0
M  V30 8306 C 807.928 4.33744 -0.56436 0
M  V30 8307 C 806.987 5.25866 0.187358 0
M  V30 8308 O 806.013 5.67626 -0.423019 0
M  V30 8309 N 807.215 5.61492 1.47335 0
M  V30 8310 H 809.98 2.67826 -1.34496 0
M  V30 8311 H 807.541 1.37566 -0.853653 0
M  V30 8312 H 809.533 3.95926 0.838148 0
M  V30 8313 H 808.103 2.92823 1.09422 0
M  V30 8314 H 807.323 3.73641 -1.25642 0
M  V30 8315 H 808.611 4.95123 -1.17177 0
M  V30 8316 H 808.009 5.29514 1.99077 0
M  V30 8317 H 806.566 6.2257 1.93002 0
M  V30 8318 N 809.999 0.752036 1.385 0
M  V30 8319 C 811.247 0.306895 1.99756 0
M  V30 8320 C 811.568 -1.11478 1.59992 0
M  V30 8321 O 810.838 -1.76206 0.856045 0
M  V30 8322 H 809.418 0.11048 0.738785 0
M  V30 8323 H 812.08 0.965785 1.69289 0
M  V30 8324 H 811.176 0.368797 3.09913 0
M  V30 8325 N 811.477 -1.49425 0.500989 0
M  V30 8326 C 812.407 -2.31971 -0.266775 0
M  V30 8327 C 813.388 -1.40245 -0.962563 0
M  V30 8328 O 814.573 -1.69154 -0.953968 0
M  V30 8329 C 811.703 -3.20757 -1.33163 0
M  V30 8330 C 810.657 -4.21275 -0.75572 0
M  V30 8331 C 809.983 -4.98997 -1.92109 0
M  V30 8332 C 811.283 -5.21686 0.253213 0
M  V30 8333 H 812.977 -2.96408 0.422237 0
M  V30 8334 H 810.523 -1.4254 0.204505 0
M  V30 8335 H 812.476 -3.77315 -1.87646 0
M  V30 8336 H 811.2 -2.54263 -2.04983 0
M  V30 8337 H 809.859 -3.65861 -0.232637 0
M  V30 8338 H 809.507 -4.28951 -2.62698 0
M  V30 8339 H 809.207 -5.67011 -1.54182 0
M  V30 8340 H 810.731 -5.584 -2.47026 0
M  V30 8341 H 812.145 -5.72939 -0.203483 0
M  V30 8342 H 810.542 -5.9759 0.548322 0
M  V30 8343 H 811.612 -4.70596 1.16909 0
M  V30 8344 N 812.955 -0.234822 -1.55841 0
M  V30 8345 C 814.232 0.442961 -1.90518 0
M  V30 8346 C 814.612 1.76768 -1.15397 0
M  V30 8347 O 813.96 2.26928 -0.267534 0
M  V30 8348 C 814.17 0.622905 -3.43396 0
M  V30 8349 C 815.518 0.9243 -4.14417 0
M  V30 8350 O 816.542 0.709211 -3.49068 0
M  V30 8351 O 815.401 1.33323 -5.29988 0
M  V30 8352 H 812.495 0.236042 -0.792599 0
M  V30 8353 H 815.041 -0.277992 -1.67408 0
M  V30 8354 H 813.813 -0.310973 -3.90062 0
M  V30 8355 H 813.436 1.39485 -3.7233 0
M  V30 8356 N 814.433 1.57553 0.0384317 0
M  V30 8357 C 815.363 2.0898 1.04161 0
M  V30 8358 C 816.344 0.99029 1.38301 0
M  V30 8359 O 817.529 1.26499 1.47349 0
M  V30 8360 C 814.659 2.56145 2.34536 0
M  V30 8361 C 813.613 3.70275 2.14663 0
M  V30 8362 C 812.939 4.03612 3.50715 0
M  V30 8363 C 814.239 4.99067 1.54045 0
M  V30 8364 H 815.933 2.93046 0.613548 0
M  V30 8365 H 813.479 1.40973 0.293684 0
M  V30 8366 H 815.432 2.90741 3.05037 0
M  V30 8367 H 814.156 1.6915 2.79385 0
M  V30 8368 H 812.815 3.36013 1.46597 0
M  V30 8369 H 812.463 3.13698 3.93195 0
M  V30 8370 H 812.163 4.80482 3.38247 0
M  V30 8371 H 813.687 4.40735 4.22593 0
M  V30 8372 H 815.101 5.3168 2.14451 0
M  V30 8373 H 813.498 5.80484 1.52178 0
M  V30 8374 H 814.568 4.8226 0.505259 0
M  V30 8375 N 815.911 -0.310526 1.54511 0
M  V30 8376 C 817.322 -0.884142 1.64438 0
M  V30 8377 C 817.673 -1.88425 0.546855 0
M  V30 8378 O 816.798 -2.14049 -0.31811 0
M  V30 8379 C 817.393 -1.6104 2.9808 0
M  V30 8380 C 815.952 -2.13255 3.1016 0
M  V30 8381 C 815.099 -0.96213 2.60074 0
M  V30 8382 H 818.05 -0.0877666 1.58457 0
M  V30 8383 H 818.071 -2.47541 2.8897 0
M  V30 8384 H 817.583 -0.882255 3.77939 0
M  V30 8385 H 815.684 -2.89145 2.35002 0
M  V30 8386 H 815.797 -2.37361 4.16169 0
M  V30 8387 H 814.161 -1.34501 2.16291 0
M  V30 8388 H 814.944 -0.248098 3.42402 0
M  V30 8389 N 817.389 -1.46805 -0.573248 0
M  V30 8390 C 818.322 -1.52608 -1.69665 0
M  V30 8391 C 819.3 -0.379426 -1.58111 0
M  V30 8392 O 820.484 -0.584938 -1.79195 0
M  V30 8393 C 817.611 -1.41355 -3.07793 0
M  V30 8394 C 816.657 -2.60321 -3.37839 0
M  V30 8395 S 817.49 -4.22622 -3.28863 0
M  V30 8396 C 818.646 -4.13894 -4.69513 0
M  V30 8397 H 818.879 -2.47653 -1.64485 0
M  V30 8398 H 816.412 -1.34806 -0.752769 0
M  V30 8399 H 818.37 -1.35549 -3.87475 0
M  V30 8400 H 817.031 -0.477213 -3.10454 0
M  V30 8401 H 816.224 -2.48466 -4.38498 0
M  V30 8402 H 815.826 -2.63165 -2.65745 0
M  V30 8403 H 818.118 -3.81158 -5.60111 0
M  V30 8404 H 819.061 -5.14584 -4.86425 0
M  V30 8405 H 819.469 -3.44998 -4.46807 0
M  V30 8406 N 818.867 0.818669 -1.34668 0
M  V30 8407 C 820.116 1.57017 -1.26604 0
M  V30 8408 C 820.429 1.94936 0.161036 0
M  V30 8409 O 821.635 2.69051 0.36386 0
M  V30 8410 C 820.091 2.83305 -2.2196 0
M  V30 8411 C 819.699 2.52671 -3.69948 0
M  V30 8412 C 821.443 3.61324 -2.22813 0
M  V30 8413 C 819.35 3.75178 -4.5716 0
M  V30 8414 H 818.28 0.589323 -0.470335 0
M  V30 8415 H 820.931 0.900956 -1.59859 0
M  V30 8416 H 819.313 3.51874 -1.81661 0
M  V30 8417 H 820.487 1.92186 -4.18809 0
M  V30 8418 H 818.802 1.8792 -3.71584 0
M  V30 8419 H 821.399 4.52294 -2.85192 0
M  V30 8420 H 821.742 3.97759 -1.22857 0
M  V30 8421 H 822.275 2.99703 -2.61578 0
M  V30 8422 H 819.014 3.43861 -5.58068 0
M  V30 8423 H 818.534 4.34931 -4.13031 0
M  V30 8424 H 820.213 4.42542 -4.71981 0
M  V30 8425 N 820.346 1.18468 1.03938 0
M  V30 8426 C 821.574 1.00576 1.80809 0
M  V30 8427 C 821.989 -0.445786 1.83462 0
M  V30 8428 O 821.346 -1.30964 1.27101 0
M  V30 8429 C 821.397 1.55491 3.26351 0
M  V30 8430 O 821.118 2.94963 3.23926 0
M  V30 8431 C 822.619 1.42236 4.19862 0
M  V30 8432 H 819.839 0.35508 0.56935 0
M  V30 8433 H 822.383 1.57046 1.30984 0
M  V30 8434 H 820.538 1.03195 3.73403 0
M  V30 8435 H 820.952 3.20598 4.15111 0
M  V30 8436 H 822.426 1.85455 5.19914 0
M  V30 8437 H 822.903 0.371267 4.37628 0
M  V30 8438 H 823.509 1.9361 3.78675 0
M  V30 8439 N 821.824 -1.22873 0.986916 0
M  V30 8440 C 823.072 -1.91084 0.658121 0
M  V30 8441 C 823.393 -1.77304 -0.811675 0
M  V30 8442 O 822.663 -1.15649 -1.58121 0
M  V30 8443 H 821.243 -0.707251 0.240427 0
M  V30 8444 H 823.905 -1.49357 1.25213 0
M  V30 8445 H 823.001 -2.98373 0.915428 0
M  V30 8446 O 823.341 -0.896491 -1.34333 0
M  V30 8447 H 824.032 -0.506358 -1.86964 0
M  V30 END ATOM
M  V30 BEGIN BOND
M  V30 END BOND
M  V30 END CTAB
M  END
$$$$
