drugbank_target|P55011 Solute carrier family 12 member 2 (DB00214; DB00761; DB00887; DB01325)
 OpenBabel12092119283D

  0  0  0     0  0            999 V3000
M  V30 BEGIN CTAB
M  V30 COUNTS 18560 18763 0 0 0
M  V30 BEGIN ATOM
M  V30 1 H -0.908 1.98254 -0.117106 0
M  V30 2 N 0 1.576 0 0
M  V30 3 C 0.933 2.03868 1.02534 0
M  V30 4 C 1.911 0.928543 1.3348 0
M  V30 5 O 3.095 1.19667 1.45644 0
M  V30 6 C 0.222 2.43627 2.35294 0
M  V30 7 C -0.732 3.65373 2.2001 0
M  V30 8 S 0.101 5.13292 1.52614 0
M  V30 9 C 1.257 5.56322 2.86805 0
M  V30 10 H 1.49 2.90518 0.631377 0
M  V30 11 H -0.977 1.52953 0.210867 0
M  V30 12 H 0.981 2.67203 3.11629 0
M  V30 13 H -0.358 1.57376 2.7183 0
M  V30 14 H -1.165 3.90944 3.18086 0
M  V30 15 H -1.563 3.418 1.51819 0
M  V30 16 H 0.729 5.58782 3.83104 0
M  V30 17 H 1.672 6.56266 2.65933 0
M  V30 18 H 2.08 4.83886 2.90714 0
M  V30 19 N 1.4781 -0.272755 1.55222 0
M  V30 20 C 2.3881 -1.35918 1.91216 0
M  V30 21 C 3.4041 -1.54026 0.809436 0
M  V30 22 O 4.5801 -1.68148 1.10852 0
M  V30 23 C 1.6451 -2.69834 2.17693 0
M  V30 24 C 0.7061 -2.6047 3.41253 0
M  V30 25 C -0.0609 -3.88 3.66458 0
M  V30 26 O 0.1621 -4.88693 2.94169 0
M  V30 27 O -0.9039 -3.88189 4.59992 0
M  V30 28 H 2.9221 -1.0839 2.83699 0
M  V30 29 H 0.5071 -0.471301 1.41771 0
M  V30 30 H 2.3891 -3.49017 2.36147 0
M  V30 31 H 1.0641 -2.97148 1.28392 0
M  V30 32 H -0.0289 -1.79663 3.28134 0
M  V30 33 H 1.3041 -2.38106 4.30774 0
M  V30 34 N 2.9562 -1.48159 -0.537278 0
M  V30 35 C 4.3672 -1.49429 -1.11928 0
M  V30 36 C 4.7182 -0.26 -1.9447 0
M  V30 37 O 3.8432 0.633489 -2.0692 0
M  V30 38 C 4.4382 -2.70758 -2.03656 0
M  V30 39 C 2.9972 -2.74923 -2.57088 0
M  V30 40 C 2.1442 -2.42835 -1.3389 0
M  V30 41 H 5.0952 -1.55381 -0.322886 0
M  V30 42 H 5.1162 -2.48861 -2.87834 0
M  V30 43 H 4.6282 -3.60575 -1.43553 0
M  V30 44 H 2.7292 -1.89296 -3.20933 0
M  V30 45 H 2.8422 -3.76157 -2.9672 0
M  V30 46 H 1.2062 -1.93836 -1.65226 0
M  V30 47 H 1.9892 -3.34884 -0.755504 0
M  V30 48 N 4.4343 0.785586 -1.36625 0
M  V30 49 C 5.8503 1.08419 -1.17122 0
M  V30 50 C 6.0503 2.015 0.00208491 0
M  V30 51 O 5.1063 2.43551 0.666278 0
M  V30 52 C 6.4193 1.69498 -2.48377 0
M  V30 53 C 7.9673 1.81821 -2.54775 0
M  V30 54 C 8.4423 2.46315 -3.86126 0
M  V30 55 N 9.9333 2.53779 -3.87492 0
M  V30 56 C 10.6683 3.045 -4.85868 0
M  V30 57 N 10.1643 3.55499 -5.94637 0
M  V30 58 N 11.9573 3.03247 -4.73284 0
M  V30 59 H 4.1083 0.167264 -2.1174 0
M  V30 60 H 6.3713 0.13682 -0.938075 0
M  V30 61 H 6.0773 1.08571 -3.34522 0
M  V30 62 H 5.9513 2.6896 -2.64462 0
M  V30 63 H 8.3383 2.41884 -1.69045 0
M  V30 64 H 8.4193 0.811532 -2.42586 0
M  V30 65 H 8.0633 1.86895 -4.72263 0
M  V30 66 H 7.9933 3.47561 -3.95612 0
M  V30 67 H 10.4843 2.17672 -3.08913 0
M  V30 68 H 10.7973 3.92562 -6.65669 0
M  V30 69 H 9.1423 3.5364 -5.98301 0
M  V30 70 H 12.3333 2.62696 -3.87438 0
M  V30 71 H 12.5063 3.42467 -5.50109 0
M  V30 72 N 5.9124 1.20967 1.01018 0
M  V30 73 C 7.3234 1.02319 1.56165 0
M  V30 74 C 7.6744 -0.418546 1.91684 0
M  V30 75 O 6.7994 -1.30096 1.72928 0
M  V30 76 C 7.3944 1.85109 2.8376 0
M  V30 77 C 5.9534 1.70809 3.35412 0
M  V30 78 C 5.1004 1.82643 2.08655 0
M  V30 79 H 8.0514 1.35065 0.833255 0
M  V30 80 H 8.0724 1.35827 3.55431 0
M  V30 81 H 7.5844 2.90035 2.57878 0
M  V30 82 H 5.6854 0.685464 3.66241 0
M  V30 83 H 5.7984 2.52467 4.07182 0
M  V30 84 H 4.1624 1.25896 2.21409 0
M  V30 85 H 4.9454 2.89066 1.85191 0
M  V30 86 N 7.3905 -1.2043 1.01659 0
M  V30 87 C 8.6185 -1.93777 0.725132 0
M  V30 88 C 9.0335 -1.74772 -0.714166 0
M  V30 89 O 8.3905 -1.06169 -1.4844 0
M  V30 90 C 8.4415 -3.45876 1.05129 0
M  V30 91 O 8.1625 -3.6426 2.43406 0
M  V30 92 C 9.6635 -4.36368 0.780891 0
M  V30 93 H 6.8835 -0.615901 0.266284 0
M  V30 94 H 9.4275 -1.52922 1.35776 0
M  V30 95 H 7.5825 -3.8461 0.464065 0
M  V30 96 H 7.9965 -4.58246 2.55169 0
M  V30 97 H 9.4705 -5.41743 1.05918 0
M  V30 98 H 9.9475 -4.38275 -0.284937 0
M  V30 99 H 10.5535 -4.03296 1.35027 0
M  V30 100 N 8.8686 -0.792821 -1.36206 0
M  V30 101 C 9.8316 -0.199459 -2.2833 0
M  V30 102 C 10.8316 0.605189 -1.48977 0
M  V30 103 O 12.0216 0.425685 -1.68919 0
M  V30 104 C 9.1536 0.723523 -3.33134 0
M  V30 105 H 10.3466 -1.01181 -2.82316 0
M  V30 106 H 7.8996 -0.562485 -1.45828 0
M  V30 107 H 8.6346 1.56008 -2.84309 0
M  V30 108 H 8.4196 0.148436 -3.91819 0
M  V30 109 H 9.9096 1.13344 -4.01924 0
M  V30 110 N 10.3467 1.47872 -0.545128 0
M  V30 111 C 11.7577 1.86384 -0.108581 0
M  V30 112 C 12.1087 1.45309 1.31832 0
M  V30 113 O 11.2337 0.850641 1.9898 0
M  V30 114 C 11.8287 3.38265 -0.190274 0
M  V30 115 C 10.3877 3.75914 0.191164 0
M  V30 116 C 9.5347 2.71926 -0.543273 0
M  V30 117 H 12.4857 1.39561 -0.755537 0
M  V30 118 H 12.5067 3.75831 0.594217 0
M  V30 119 H 12.0187 3.6813 -1.2289 0
M  V30 120 H 10.1197 3.51665 1.23136 0
M  V30 121 H 10.2327 4.78836 -0.158987 0
M  V30 122 H 8.5967 2.54697 0.0122495 0
M  V30 123 H 9.3797 3.04634 -1.58282 0
M  V30 124 N 11.8248 0.280983 1.55075 0
M  V30 125 C 13.0498 -0.340154 2.04592 0
M  V30 126 C 13.4748 -1.48246 1.15779 0
M  V30 127 O 12.8328 -1.80614 0.15761 0
M  V30 128 C 12.8808 -0.793104 3.5177 0
M  V30 129 O 11.9848 -1.89981 3.66034 0
M  V30 130 H 11.3258 -0.0694289 0.66036 0
M  V30 131 H 13.8558 0.416993 2.00306 0
M  V30 132 H 13.8658 -1.08729 3.93245 0
M  V30 133 H 12.5408 0.0426163 4.15878 0
M  V30 134 H 11.1178 -1.60771 3.36463 0
M  V30 135 N 13.3029 -1.57598 0.00835791 0
M  V30 136 C 14.5279 -1.95617 -0.689103 0
M  V30 137 C 14.9529 -0.883753 -1.66046 0
M  V30 138 O 14.3109 0.157352 -1.80616 0
M  V30 139 C 14.3589 -3.32736 -1.38994 0
M  V30 140 O 13.4629 -3.27631 -2.50463 0
M  V30 141 H 12.8039 -0.638379 -0.182668 0
M  V30 142 H 15.3339 -2.045 0.064036 0
M  V30 143 H 15.3439 -3.68494 -1.75147 0
M  V30 144 H 14.0189 -4.1034 -0.677778 0
M  V30 145 H 12.5959 -3.03561 -2.16576 0
M  V30 146 N 14.781 0.264519 -1.55364 0
M  V30 147 C 16.029 0.993021 -1.76021 0
M  V30 148 C 16.35 1.86511 -0.569099 0
M  V30 149 O 15.62 1.91438 0.415735 0
M  V30 150 H 14.2 0.369639 -0.649135 0
M  V30 151 H 16.862 0.286707 -1.9278 0
M  V30 152 H 15.958 1.62502 -2.66457 0
M  V30 153 N 16.2591 1.48442 0.529413 0
M  V30 154 C 17.2221 1.62524 1.61612 0
M  V30 155 C 18.2221 0.498509 1.52877 0
M  V30 156 O 19.4121 0.76431 1.56537 0
M  V30 157 C 16.5441 1.59597 3.01233 0
M  V30 158 H 17.7371 2.59423 1.50465 0
M  V30 159 H 15.2901 1.37047 0.751514 0
M  V30 160 H 16.0251 0.641781 3.17886 0
M  V30 161 H 15.8101 2.41397 3.08982 0
M  V30 162 H 17.3001 1.72646 3.80241 0
M  V30 163 N 17.7372 -0.778329 1.37039 0
M  V30 164 C 19.1482 -1.35421 1.28523 0
M  V30 165 C 19.4992 -1.96075 -0.0700901 0
M  V30 166 O 18.6242 -1.93352 -0.971801 0
M  V30 167 C 19.2192 -2.46211 2.32735 0
M  V30 168 C 17.7782 -2.99585 2.27873 0
M  V30 169 C 16.9252 -1.72748 2.16918 0
M  V30 170 H 19.8762 -0.5791 1.47757 0
M  V30 171 H 19.8972 -3.2552 1.9702 0
M  V30 172 H 19.4092 -2.02036 3.31365 0
M  V30 173 H 17.5102 -3.48152 1.32745 0
M  V30 174 H 17.6232 -3.55646 3.21018 0
M  V30 175 H 15.9872 -1.95416 1.63354 0
M  V30 176 H 16.7702 -1.30686 3.17452 0
M  V30 177 N 19.2153 -1.21501 -1.00376 0
M  V30 178 C 20.4633 -1.03095 -1.73827 0
M  V30 179 C 20.7843 0.436341 -1.90055 0
M  V30 180 O 20.0543 1.31466 -1.45236 0
M  V30 181 H 18.6343 -0.378487 -0.644016 0
M  V30 182 H 21.2963 -1.52831 -1.20949 0
M  V30 183 H 20.3923 -1.49991 -2.73695 0
M  V30 184 N 20.6934 1.19889 -1.02296 0
M  V30 185 C 21.6234 2.25141 -0.619174 0
M  V30 186 C 22.6044 1.66051 0.368915 0
M  V30 187 O 23.7894 1.92546 0.252941 0
M  V30 188 C 20.9194 3.4728 0.0368783 0
M  V30 189 C 19.8734 4.19005 -0.872865 0
M  V30 190 C 19.1994 5.34637 -0.0822402 0
M  V30 191 C 20.4994 4.74452 -2.18387 0
M  V30 192 H 22.1934 2.59171 -1.49903 0
M  V30 193 H 19.7394 1.24579 -0.722222 0
M  V30 194 H 21.6924 4.20098 0.330958 0
M  V30 195 H 20.4164 3.12433 0.95149 0
M  V30 196 H 19.0754 3.48061 -1.15105 0
M  V30 197 H 18.7234 4.96034 0.83422 0
M  V30 198 H 18.4234 5.83557 -0.688149 0
M  V30 199 H 19.9474 6.10255 0.205238 0
M  V30 200 H 21.3614 5.39055 -1.95172 0
M  V30 201 H 19.7584 5.33834 -2.74119 0
M  V30 202 H 20.8284 3.92844 -2.84257 0
M  V30 203 N 22.1715 0.800033 1.35784 0
M  V30 204 C 23.1345 0.211565 2.28221 0
M  V30 205 C 24.1345 -0.59728 1.49296 0
M  V30 206 O 25.3245 -0.416721 1.69142 0
M  V30 207 C 22.4565 -0.705846 3.33513 0
M  V30 208 H 23.6495 1.02677 2.81776 0
M  V30 209 H 21.2025 0.570211 1.45528 0
M  V30 210 H 21.9375 -1.54498 2.85133 0
M  V30 211 H 21.7225 -0.127655 3.91892 0
M  V30 212 H 23.2125 -1.11211 4.02519 0
M  V30 213 N 23.6496 -1.47581 0.552962 0
M  V30 214 C 24.8976 -2.02082 0.0272703 0
M  V30 215 C 25.2186 -1.4301 -1.32563 0
M  V30 216 O 24.4886 -0.603745 -1.86365 0
M  V30 217 H 23.0686 -0.746966 0.00709182 0
M  V30 218 H 25.7306 -1.81033 0.722008 0
M  V30 219 H 24.8266 -3.12034 -0.0639951 0
M  V30 220 N 25.1277 -0.289203 -1.54924 0
M  V30 221 C 26.3737 0.323998 -2.00195 0
M  V30 222 C 26.7067 1.54441 -1.17735 0
M  V30 223 O 25.9817 1.92875 -0.250878 0
M  V30 224 C 26.2647 0.692276 -3.53383 0
M  V30 225 C 26.1177 -0.536457 -4.46589 0
M  V30 226 C 27.4367 1.52335 -4.12895 0
M  V30 227 H 24.5557 0.116289 -0.727768 0
M  V30 228 H 27.1977 -0.398954 -1.85764 0
M  V30 229 H 25.3477 1.30822 -3.65811 0
M  V30 230 H 27.0197 -1.17499 -4.46085 0
M  V30 231 H 25.2627 -1.17192 -4.1767 0
M  V30 232 H 25.9337 -0.234806 -5.515 0
M  V30 233 H 28.4097 1.00302 -4.0383 0
M  V30 234 H 27.2857 1.74982 -5.20262 0
M  V30 235 H 27.5467 2.50886 -3.64018 0
M  V30 236 N 26.6058 1.57591 -0.0167156 0
M  V30 237 C 27.8538 1.90906 0.663285 0
M  V30 238 C 28.1748 0.892509 1.73376 0
M  V30 239 O 27.4448 -0.0677623 1.95783 0
M  V30 240 H 26.0248 0.704637 0.247983 0
M  V30 241 H 28.6868 1.94803 -0.0615909 0
M  V30 242 H 27.7828 2.9116 1.12393 0
M  V30 243 N 28.0839 -0.256276 1.55502 0
M  V30 244 C 28.9939 -1.33882 1.92647 0
M  V30 245 C 30.0099 -1.53159 0.825727 0
M  V30 246 O 31.1859 -1.66963 1.12629 0
M  V30 247 C 28.2509 -2.6751 2.20543 0
M  V30 248 C 27.3119 -2.56836 3.43997 0
M  V30 249 C 26.5449 -3.84092 3.70553 0
M  V30 250 O 26.7679 -4.85545 2.99336 0
M  V30 251 O 25.7019 -3.83288 4.64084 0
M  V30 252 H 29.5279 -1.05374 2.84833 0
M  V30 253 H 27.1129 -0.456237 1.42263 0
M  V30 254 H 28.9949 -3.46492 2.39835 0
M  V30 255 H 27.6699 -2.9577 1.31536 0
M  V30 256 H 26.5769 -1.76172 3.30021 0
M  V30 257 H 27.9099 -2.33523 4.33275 0
M  V30 258 N 29.562 -1.4872 -0.521534 0
M  V30 259 C 30.79 -1.60843 -1.30142 0
M  V30 260 C 31.205 -0.271897 -1.86832 0
M  V30 261 O 30.562 0.739969 -1.66825 0
M  V30 262 C 30.613 -2.66155 -2.4463 0
M  V30 263 O 30.334 -3.94623 -1.90275 0
M  V30 264 C 31.835 -2.88795 -3.36322 0
M  V30 265 H 29.055 -0.542075 -0.395468 0
M  V30 266 H 31.599 -1.94609 -0.628285 0
M  V30 267 H 29.754 -2.35224 -3.07812 0
M  V30 268 H 30.168 -4.52468 -2.65279 0
M  V30 269 H 31.642 -3.66264 -4.12983 0
M  V30 270 H 32.119 -1.97934 -3.9207 0
M  V30 271 H 32.725 -3.21063 -2.78924 0
M  V30 272 N 31.0401 0.771051 -1.3745 0
M  V30 273 C 32.4511 1.34737 -1.29239 0
M  V30 274 C 32.8021 1.96109 0.0596908 0
M  V30 275 O 31.9271 1.93865 0.961534 0
M  V30 276 C 32.5221 2.44973 -2.34037 0
M  V30 277 C 31.0811 2.98372 -2.29458 0
M  V30 278 C 30.2281 1.71595 -2.17831 0
M  V30 279 H 33.1791 0.571256 -1.48062 0
M  V30 280 H 33.2001 3.24471 -1.98744 0
M  V30 281 H 32.7121 2.00276 -3.32432 0
M  V30 282 H 30.8131 3.47443 -1.34589 0
M  V30 283 H 30.9261 3.53939 -3.229 0
M  V30 284 H 29.2901 1.94547 -1.64388 0
M  V30 285 H 30.0731 1.29001 -3.18141 0
M  V30 286 N 32.5182 1.22032 0.997298 0
M  V30 287 C 33.7432 1.06921 1.77715 0
M  V30 288 C 34.1682 -0.376226 1.84299 0
M  V30 289 O 33.5262 -1.27165 1.29223 0
M  V30 290 C 33.5742 1.67996 3.19076 0
M  V30 291 O 32.6782 0.930653 4.01762 0
M  V30 292 H 32.0192 0.375814 0.547412 0
M  V30 293 H 34.5492 1.61737 1.25309 0
M  V30 294 H 34.5592 1.72538 3.69723 0
M  V30 295 H 33.2342 2.73182 3.13599 0
M  V30 296 H 31.8112 0.960917 3.60307 0
M  V30 297 N 33.9963 -1.19345 1.0293 0
M  V30 298 C 34.9593 -2.20793 0.615069 0
M  V30 299 C 35.9593 -1.57553 -0.321533 0
M  V30 300 O 37.1493 -1.73862 -0.108483 0
M  V30 301 C 34.2813 -3.40754 -0.0999222 0
M  V30 302 H 35.4743 -2.58955 1.51269 0
M  V30 303 H 33.0273 -1.3303 0.820534 0
M  V30 304 H 33.7623 -3.0811 -1.01187 0
M  V30 305 H 33.5473 -3.87889 0.57309 0
M  V30 306 H 35.0373 -4.15898 -0.376645 0
M  V30 307 N 35.4744 -0.807222 -1.35358 0
M  V30 308 C 36.4374 -0.223665 -2.28106 0
M  V30 309 C 37.4374 0.589354 -1.4961 0
M  V30 310 O 38.6274 0.407745 -1.69361 0
M  V30 311 C 35.7594 0.688149 -3.33882 0
M  V30 312 H 36.9524 -1.04169 -2.81227 0
M  V30 313 H 34.5054 -0.577921 -1.45223 0
M  V30 314 H 35.2404 1.52984 -2.85948 0
M  V30 315 H 35.0254 0.10687 -3.91954 0
M  V30 316 H 36.5154 1.09075 -4.03104 0
M  V30 317 N 36.9525 1.47285 -0.560781 0
M  V30 318 C 37.9155 2.28535 0.174488 0
M  V30 319 C 38.9155 1.37153 0.839388 0
M  V30 320 O 40.1055 1.59748 0.694702 0
M  V30 321 C 37.2375 3.16934 1.25561 0
M  V30 322 H 38.4305 2.95012 -0.539262 0
M  V30 323 H 35.9835 1.53034 -0.317865 0
M  V30 324 H 36.7185 2.55157 2.00164 0
M  V30 325 H 36.5035 3.8419 0.783604 0
M  V30 326 H 37.9935 3.78143 1.77193 0
M  V30 327 N 38.4306 0.297415 1.54768 0
M  V30 328 C 39.3606 -0.573494 2.26348 0
M  V30 329 C 40.3416 -1.14085 1.26169 0
M  V30 330 O 41.5266 -1.17086 1.54934 0
M  V30 331 C 38.6566 -1.74716 3.00153 0
M  V30 332 C 37.6106 -1.31032 4.07449 0
M  V30 333 C 36.9366 -2.56887 4.68949 0
M  V30 334 C 38.2366 -0.444183 5.20408 0
M  V30 335 H 39.9306 0.0235131 2.99391 0
M  V30 336 H 37.4766 0.0127488 1.43994 0
M  V30 337 H 39.4296 -2.3625 3.48947 0
M  V30 338 H 38.1536 -2.37035 2.24682 0
M  V30 339 H 36.8126 -0.718066 3.59499 0
M  V30 340 H 36.4606 -3.17512 3.90122 0
M  V30 341 H 36.1606 -2.2836 5.41411 0
M  V30 342 H 37.6846 -3.19229 5.20505 0
M  V30 343 H 39.0986 -0.9651 5.65118 0
M  V30 344 H 37.4956 -0.252846 5.99567 0
M  V30 345 H 38.5656 0.531609 4.81977 0
M  V30 346 N 39.9087 -1.5758 0.0250728 0
M  V30 347 C 40.8717 -2.08896 -0.943139 0
M  V30 348 C 41.8717 -1.00321 -1.25668 0
M  V30 349 O 43.0617 -1.26495 -1.19769 0
M  V30 350 C 40.1937 -2.55143 -2.26086 0
M  V30 351 H 41.3867 -2.95723 -0.498775 0
M  V30 352 H 38.9397 -1.54703 -0.222888 0
M  V30 353 H 39.6747 -1.71633 -2.75159 0
M  V30 354 H 39.4597 -3.34461 -2.04641 0
M  V30 355 H 40.9497 -2.95083 -2.95492 0
M  V30 356 N 41.3868 0.248026 -1.55636 0
M  V30 357 C 42.3498 1.29044 -1.89421 0
M  V30 358 C 43.3498 1.41134 -0.770581 0
M  V30 359 O 44.5398 1.39854 -1.03858 0
M  V30 360 C 41.6718 2.66831 -2.12165 0
M  V30 361 H 42.8648 1.00305 -2.82629 0
M  V30 362 H 40.4178 0.487265 -1.48511 0
M  V30 363 H 41.1528 3.00711 -1.21422 0
M  V30 364 H 40.9378 2.59438 -2.93997 0
M  V30 365 H 42.4278 3.42103 -2.3949 0
M  V30 366 N 42.8649 1.48995 0.513639 0
M  V30 367 C 43.8279 1.64229 1.59879 0
M  V30 368 C 44.8279 0.514696 1.5234 0
M  V30 369 O 46.0179 0.78087 1.55718 0
M  V30 370 C 43.1499 1.62783 2.99524 0
M  V30 371 H 44.3429 2.61004 1.47705 0
M  V30 372 H 41.8959 1.37837 0.736936 0
M  V30 373 H 42.6309 0.675461 3.17188 0
M  V30 374 H 42.4159 2.4466 3.06404 0
M  V30 375 H 43.9059 1.76669 3.78388 0
M  V30 376 N 44.343 -0.763751 1.37857 0
M  V30 377 C 45.759 -1.06542 1.18832 0
M  V30 378 C 45.959 -2.01478 0.0299722 0
M  V30 379 O 45.015 -2.4458 -0.627447 0
M  V30 380 C 46.328 -1.65525 2.51042 0
M  V30 381 C 47.876 -1.77745 2.57635 0
M  V30 382 C 48.351 -2.4014 3.89996 0
M  V30 383 N 49.842 -2.47582 3.91481 0
M  V30 384 C 50.577 -2.96732 4.9065 0
M  V30 385 N 50.073 -3.45993 6.00217 0
M  V30 386 N 51.866 -2.95679 4.78048 0
M  V30 387 H 44.017 -0.133556 2.1198 0
M  V30 388 H 46.28 -0.121879 0.940133 0
M  V30 389 H 45.986 -1.03236 3.36207 0
M  V30 390 H 45.86 -2.64719 2.68707 0
M  V30 391 H 48.247 -2.39164 1.72872 0
M  V30 392 H 48.328 -0.772836 2.43846 0
M  V30 393 H 47.972 -1.79358 4.75177 0
M  V30 394 H 47.902 -3.41223 4.01092 0
M  V30 395 H 50.393 -2.1273 3.12337 0
M  V30 396 H 50.706 -3.81922 6.7183 0
M  V30 397 H 49.051 -3.44077 6.03851 0
M  V30 398 H 52.242 -2.56499 3.91568 0
M  V30 399 H 52.415 -3.33672 5.55488 0
M  V30 400 N 45.8211 -1.22559 -0.990812 0
M  V30 401 C 47.0671 -1.05297 -1.73322 0
M  V30 402 C 47.4001 0.410655 -1.89808 0
M  V30 403 O 46.6751 1.30439 -1.44277 0
M  V30 404 C 46.9581 -1.76713 -3.13759 0
M  V30 405 C 46.8111 -3.30684 -3.04907 0
M  V30 406 C 48.1301 -1.52121 -4.12974 0
M  V30 407 H 45.2491 -0.38392 -0.629106 0
M  V30 408 H 47.8911 -1.50926 -1.15418 0
M  V30 409 H 46.0411 -1.37924 -3.63193 0
M  V30 410 H 47.7131 -3.7893 -2.63077 0
M  V30 411 H 45.9561 -3.60253 -2.41661 0
M  V30 412 H 46.6271 -3.75833 -4.04294 0
M  V30 413 H 49.1031 -1.85819 -3.72304 0
M  V30 414 H 47.9791 -2.04582 -5.0935 0
M  V30 415 H 48.2401 -0.454257 -4.3976 0
M  V30 416 N 47.2992 1.18797 -1.03562 0
M  V30 417 C 48.2092 2.25913 -0.632505 0
M  V30 418 C 49.2252 1.70668 0.338882 0
M  V30 419 O 50.4012 2.00453 0.195076 0
M  V30 420 C 47.4662 3.467 0.00350942 0
M  V30 421 C 46.5272 4.17098 -1.01624 0
M  V30 422 C 45.7602 5.32119 -0.410478 0
M  V30 423 O 45.9832 5.64976 0.784725 0
M  V30 424 O 44.9172 5.9107 -1.13667 0
M  V30 425 H 48.7432 2.62648 -1.52478 0
M  V30 426 H 46.3282 1.25781 -0.806195 0
M  V30 427 H 48.2102 4.19878 0.35781 0
M  V30 428 H 46.8852 3.11798 0.869686 0
M  V30 429 H 45.7922 3.4601 -1.42224 0
M  V30 430 H 47.1252 4.55987 -1.85301 0
M  V30 431 N 48.7773 0.814389 1.34928 0
M  V30 432 C 49.7073 0.244827 2.32213 0
M  V30 433 C 50.6883 -0.634024 1.57842 0
M  V30 434 O 51.8733 -0.562676 1.8587 0
M  V30 435 C 49.0033 -0.601106 3.42058 0
M  V30 436 C 47.9573 0.179896 4.27622 0
M  V30 437 C 47.2833 -0.788237 5.28858 0
M  V30 438 C 48.5833 1.38329 5.03649 0
M  V30 439 H 50.2773 1.05763 2.80097 0
M  V30 440 H 47.8233 0.510029 1.34665 0
M  V30 441 H 49.7763 -1.00968 4.09125 0
M  V30 442 H 48.5003 -1.44688 2.92802 0
M  V30 443 H 47.1593 0.569739 3.62146 0
M  V30 444 H 46.8073 -1.62973 4.75866 0
M  V30 445 H 46.5073 -0.269942 5.8698 0
M  V30 446 H 48.0313 -1.19485 5.98795 0
M  V30 447 H 49.4453 1.04918 5.63618 0
M  V30 448 H 47.8423 1.83662 5.71304 0
M  V30 449 H 48.9123 2.16592 4.33839 0
M  V30 450 N 50.2554 -1.46986 0.568584 0
M  V30 451 C 51.6664 -1.86188 0.138219 0
M  V30 452 C 52.0174 -1.47388 -1.29504 0
M  V30 453 O 51.1424 -0.88219 -1.97602 0
M  V30 454 C 51.7374 -3.3792 0.244065 0
M  V30 455 C 50.2964 -3.76171 -0.131335 0
M  V30 456 C 49.4434 -2.71027 0.586465 0
M  V30 457 H 52.3944 -1.38342 0.777645 0
M  V30 458 H 52.4154 -3.76729 -0.534351 0
M  V30 459 H 51.9274 -3.66128 1.28731 0
M  V30 460 H 50.0284 -3.5358 -1.17526 0
M  V30 461 H 50.1414 -4.78523 0.235146 0
M  V30 462 H 48.5054 -2.54684 0.0282722 0
M  V30 463 H 49.2884 -3.02077 1.63109 0
M  V30 464 N 51.7335 -0.305618 -1.54608 0
M  V30 465 C 52.9815 0.301701 -1.99835 0
M  V30 466 C 53.3025 1.54054 -1.19551 0
M  V30 467 O 52.5725 1.93702 -0.292658 0
M  V30 468 H 51.1525 0.114468 -0.738178 0
M  V30 469 H 53.8145 -0.418016 -1.90364 0
M  V30 470 H 52.9105 0.570548 -3.06841 0
M  V30 471 N 53.2116 1.57565 -0.0334293 0
M  V30 472 C 54.4396 1.9628 0.654347 0
M  V30 473 C 54.8546 0.910138 1.65414 0
M  V30 474 O 54.2116 -0.107595 1.82183 0
M  V30 475 C 54.2626 3.35067 1.35693 0
M  V30 476 O 53.9836 4.36296 0.397191 0
M  V30 477 C 55.4846 3.88439 2.13613 0
M  V30 478 H 52.7046 0.646369 0.180132 0
M  V30 479 H 55.2486 2.04282 -0.0944721 0
M  V30 480 H 53.4036 3.2827 2.05712 0
M  V30 481 H 53.8176 5.1678 0.896597 0
M  V30 482 H 55.2916 4.8788 2.58219 0
M  V30 483 H 55.7686 3.22914 2.97696 0
M  V30 484 H 56.3746 3.98516 1.48543 0
M  V30 485 N 54.6897 -0.239769 1.55765 0
M  V30 486 C 55.6527 -1.28038 1.90103 0
M  V30 487 C 56.6527 -1.40723 0.778055 0
M  V30 488 O 57.8427 -1.39301 1.04599 0
M  V30 489 C 54.9747 -2.65702 2.13577 0
M  V30 490 H 56.1677 -0.988048 2.83157 0
M  V30 491 H 53.7207 -0.479382 1.48767 0
M  V30 492 H 54.4557 -3.00063 1.23015 0
M  V30 493 H 54.2407 -2.57875 2.95369 0
M  V30 494 H 55.7307 -3.40828 2.41301 0
M  V30 495 N 56.1678 -1.49265 -0.50573 0
M  V30 496 C 57.4138 -1.58748 -1.26202 0
M  V30 497 C 57.7468 -0.271227 -1.92297 0
M  V30 498 O 57.0218 0.724831 -1.80489 0
M  V30 499 C 57.3048 -2.74332 -2.33268 0
M  V30 500 C 57.1578 -4.15737 -1.71705 0
M  V30 501 C 58.4768 -2.85576 -3.34865 0
M  V30 502 H 55.5958 -0.577826 -0.457478 0
M  V30 503 H 58.2378 -1.81532 -0.560897 0
M  V30 504 H 56.3878 -2.55036 -2.93068 0
M  V30 505 H 58.0598 -4.46537 -1.15769 0
M  V30 506 H 56.3028 -4.21605 -1.02135 0
M  V30 507 H 56.9738 -4.92477 -2.49341 0
M  V30 508 H 59.4498 -3.03127 -2.8505 0
M  V30 509 H 58.3258 -3.68135 -4.07146 0
M  V30 510 H 58.5868 -1.94732 -3.96903 0
M  V30 511 N 57.6459 0.756429 -1.3826 0
M  V30 512 C 59.0569 1.33359 -1.30661 0
M  V30 513 C 59.4079 1.96161 0.0388875 0
M  V30 514 O 58.5329 1.94874 0.940918 0
M  V30 515 C 59.1279 2.42477 -2.36622 0
M  V30 516 C 57.6869 2.95922 -2.3261 0
M  V30 517 C 56.8339 1.69275 -2.19639 0
M  V30 518 H 59.7849 0.55552 -1.4866 0
M  V30 519 H 59.8059 3.22345 -2.02174 0
M  V30 520 H 59.3179 1.96739 -3.34538 0
M  V30 521 H 57.4189 3.45996 -1.38267 0
M  V30 522 H 57.5319 3.50494 -3.26636 0
M  V30 523 H 55.8959 1.92793 -1.66442 0
M  V30 524 H 56.6789 1.25619 -3.19491 0
M  V30 525 N 59.124 1.23083 0.984299 0
M  V30 526 C 60.349 1.088 1.76571 0
M  V30 527 C 60.774 -0.356657 1.84688 0
M  V30 528 O 60.132 -1.25788 1.30565 0
M  V30 529 C 60.18 1.71371 3.17277 0
M  V30 530 O 59.284 0.973213 4.00752 0
M  V30 531 H 58.625 0.381599 0.543395 0
M  V30 532 H 61.155 1.63057 1.23587 0
M  V30 533 H 61.165 1.76449 3.67872 0
M  V30 534 H 59.84 2.76493 3.10684 0
M  V30 535 H 58.417 0.999078 3.59267 0
M  V30 536 N 60.6021 -1.18246 1.0419 0
M  V30 537 C 61.8481 -1.88536 0.747122 0
M  V30 538 C 62.1811 -1.80223 -0.723409 0
M  V30 539 O 61.4561 -1.20337 -1.52804 0
M  V30 540 C 61.7391 -3.38968 1.21544 0
M  V30 541 C 61.5921 -3.56084 2.74816 0
M  V30 542 C 62.9111 -4.32648 0.806482 0
M  V30 543 H 60.0301 -0.684619 0.272883 0
M  V30 544 H 62.6721 -1.39113 1.29413 0
M  V30 545 H 60.8221 -3.8119 0.750081 0
M  V30 546 H 62.4941 -3.22946 3.29399 0
M  V30 547 H 60.7371 -2.98699 3.14582 0
M  V30 548 H 61.4081 -4.61639 3.02644 0
M  V30 549 H 63.8841 -3.98211 1.20695 0
M  V30 550 H 62.7601 -5.36462 1.1619 0
M  V30 551 H 63.0211 -4.41146 -0.29029 0
M  V30 552 N 62.0802 -0.821533 -1.34494 0
M  V30 553 C 63.4912 -0.467956 -1.8074 0
M  V30 554 C 63.8422 1.01151 -1.68116 0
M  V30 555 O 62.9672 1.78707 -1.22036 0
M  V30 556 C 63.5622 -0.842627 -3.28154 0
M  V30 557 C 62.1212 -0.541439 -3.72485 0
M  V30 558 C 61.2682 -1.06028 -2.56229 0
M  V30 559 H 64.2192 -1.01183 -1.22261 0
M  V30 560 H 64.2402 -0.145876 -3.8022 0
M  V30 561 H 63.7522 -1.91945 -3.37311 0
M  V30 562 H 61.8532 0.526034 -3.68868 0
M  V30 563 H 61.9662 -1.08453 -4.66663 0
M  V30 564 H 60.3302 -0.481892 -2.501 0
M  V30 565 H 61.1132 -2.14352 -2.68157 0
M  V30 566 N 63.5583 1.46682 -0.576371 0
M  V30 567 C 64.4683 2.34032 0.163141 0
M  V30 568 C 65.4843 1.49367 0.892501 0
M  V30 569 O 66.6603 1.82252 0.857106 0
M  V30 570 C 63.7253 3.26435 1.16795 0
M  V30 571 C 62.7863 4.26998 0.443944 0
M  V30 572 C 62.0193 5.14986 1.40088 0
M  V30 573 O 62.2423 5.05785 2.637 0
M  V30 574 O 61.1763 5.94906 0.914917 0
M  V30 575 H 65.0023 2.98607 -0.55388 0
M  V30 576 H 62.5873 1.45554 -0.336821 0
M  V30 577 H 64.4693 3.83459 1.74748 0
M  V30 578 H 63.1443 2.64465 1.86655 0
M  V30 579 H 62.0513 3.7368 -0.177271 0
M  V30 580 H 63.3843 4.91736 -0.213566 0
M  V30 581 N 65.0364 0.313813 1.54444 0
M  V30 582 C 66.3134 -0.345447 1.92525 0
M  V30 583 C 66.6934 -1.70667 1.24242 0
M  V30 584 O 66.0414 -2.25273 0.382654 0
M  V30 585 C 66.2514 -0.44737 3.46121 0
M  V30 586 C 67.5994 -0.712238 4.18584 0
M  V30 587 O 68.6234 -0.530678 3.52225 0
M  V30 588 O 67.4824 -1.06183 5.36085 0
M  V30 589 H 64.5764 -0.195407 0.803583 0
M  V30 590 H 67.1224 0.362813 1.65776 0
M  V30 591 H 65.8944 0.509043 3.87975 0
M  V30 592 H 65.5174 -1.20359 3.78945 0
M  V30 593 N 66.5145 -1.57545 0.0417849 0
M  V30 594 C 67.4775 -2.09885 -0.92093 0
M  V30 595 C 68.4775 -1.01648 -1.24596 0
M  V30 596 O 69.6675 -1.27759 -1.1842 0
M  V30 597 C 66.7995 -2.57527 -2.23367 0
M  V30 598 H 67.9925 -2.96236 -0.467382 0
M  V30 599 H 65.5455 -1.5493 -0.206467 0
M  V30 600 H 66.2805 -1.74542 -2.73323 0
M  V30 601 H 66.0655 -3.36613 -2.01083 0
M  V30 602 H 67.5555 -2.98201 -2.92346 0
M  V30 603 N 67.9926 0.231505 -1.5589 0
M  V30 604 C 68.9556 1.27028 -1.90779 0
M  V30 605 C 69.9556 1.40308 -0.785507 0
M  V30 606 O 71.1456 1.38744 -1.05336 0
M  V30 607 C 68.2776 2.64566 -2.14983 0
M  V30 608 H 69.4706 0.973017 -2.83677 0
M  V30 609 H 67.0236 0.471486 -1.49019 0
M  V30 610 H 67.7586 2.99406 -1.24604 0
M  V30 611 H 67.5436 2.56305 -2.96732 0
M  V30 612 H 69.0336 3.39543 -2.43105 0
M  V30 613 N 69.4707 1.49531 0.497807 0
M  V30 614 C 70.8817 1.52344 1.07927 0
M  V30 615 C 71.2327 0.311469 1.93712 0
M  V30 616 O 70.3577 -0.578405 2.08527 0
M  V30 617 C 70.9527 2.76062 1.96405 0
M  V30 618 C 69.5117 2.81643 2.49709 0
M  V30 619 C 68.6587 2.46299 1.27404 0
M  V30 620 H 71.6097 1.56182 0.281576 0
M  V30 621 H 71.6307 2.56405 2.81135 0
M  V30 622 H 71.1427 3.64254 1.33943 0
M  V30 623 H 69.2437 1.97739 3.15801 0
M  V30 624 H 69.3567 3.83891 2.86643 0
M  V30 625 H 67.7207 1.98148 1.60029 0
M  V30 626 H 68.5037 3.36769 0.66645 0
M  V30 627 N 70.9488 -0.749086 1.3866 0
M  V30 628 C 71.9118 -1.84457 1.36045 0
M  V30 629 C 72.9118 -1.58682 0.260122 0
M  V30 630 O 74.1018 -1.66343 0.517261 0
M  V30 631 C 71.2338 -3.22008 1.11911 0
M  V30 632 H 72.4268 -1.88182 2.33512 0
M  V30 633 H 69.9798 -0.951266 1.24019 0
M  V30 634 H 70.7148 -3.2395 0.150686 0
M  V30 635 H 70.4998 -3.42111 1.91579 0
M  V30 636 H 71.9898 -4.0208 1.12788 0
M  V30 637 N 72.4269 -1.23603 -0.977757 0
M  V30 638 C 73.6519 -1.09735 -1.75991 0
M  V30 639 C 74.0769 0.346858 -1.84874 0
M  V30 640 O 73.4349 1.25093 -1.3123 0
M  V30 641 C 73.4829 -1.73051 -3.16363 0
M  V30 642 O 72.5869 -0.994452 -4.0023 0
M  V30 643 H 71.9279 -0.384476 -0.541364 0
M  V30 644 H 74.4579 -1.6371 -1.2272 0
M  V30 645 H 74.4679 -1.78398 -3.66931 0
M  V30 646 H 73.1429 -2.78137 -3.09213 0
M  V30 647 H 71.7199 -1.01812 -3.58732 0
M  V30 648 N 73.905 1.17692 -1.04816 0
M  V30 649 C 75.321 1.39863 -0.768794 0
M  V30 650 C 75.521 1.91118 0.638451 0
M  V30 651 O 74.577 2.10036 1.40146 0
M  V30 652 C 75.89 2.39274 -1.82122 0
M  V30 653 C 77.438 2.52987 -1.843 0
M  V30 654 C 77.913 3.55669 -2.88555 0
M  V30 655 N 79.404 3.63183 -2.87493 0
M  V30 656 C 80.139 4.42381 -3.64811 0
M  V30 657 N 79.635 5.25125 -4.51903 0
M  V30 658 N 81.428 4.37217 -3.53267 0
M  V30 659 H 73.579 0.82752 -1.95617 0
M  V30 660 H 75.842 0.426123 -0.846831 0
M  V30 661 H 75.548 2.08678 -2.83102 0
M  V30 662 H 75.422 3.38725 -1.65967 0
M  V30 663 H 77.809 2.82896 -0.839869 0
M  V30 664 H 77.89 1.53623 -2.04532 0
M  V30 665 H 77.534 3.26499 -3.89051 0
M  V30 666 H 77.464 4.54728 -2.65575 0
M  V30 667 H 79.955 3.04103 -2.24343 0
M  V30 668 H 80.268 5.82728 -5.07591 0
M  V30 669 H 78.613 5.24519 -4.55966 0
M  V30 670 H 81.804 3.71626 -2.84625 0
M  V30 671 H 81.977 4.98696 -4.13771 0
M  V30 672 N 75.3831 0.828654 1.34056 0
M  V30 673 C 76.6601 0.341809 1.9259 0
M  V30 674 C 77.0401 -1.17158 1.75605 0
M  V30 675 O 76.3881 -1.98132 1.13824 0
M  V30 676 C 76.5981 0.777453 3.4023 0
M  V30 677 C 77.9461 0.779579 4.17382 0
M  V30 678 O 78.9701 0.7204 3.48839 0
M  V30 679 O 77.8291 0.857996 5.39723 0
M  V30 680 H 74.9231 0.0946085 0.821571 0
M  V30 681 H 77.4691 0.913827 1.42994 0
M  V30 682 H 76.2411 1.8196 3.46419 0
M  V30 683 H 75.8641 0.181444 3.97186 0
M  V30 684 N 76.8612 -1.46375 0.584142 0
M  V30 685 C 78.1092 -2.01978 0.0701287 0
M  V30 686 C 78.4302 -1.4579 -1.295 0
M  V30 687 O 77.7002 -0.64314 -1.85042 0
M  V30 688 H 76.2802 -0.746648 0.0229345 0
M  V30 689 H 78.9422 -1.79461 0.760245 0
M  V30 690 H 78.0382 -3.121 0.0022064 0
M  V30 691 N 78.3393 -0.321999 -1.54275 0
M  V30 692 C 79.5873 0.280489 -2.00144 0
M  V30 693 C 79.9083 1.52777 -1.21178 0
M  V30 694 O 79.1783 1.9338 -0.313187 0
M  V30 695 H 77.7583 0.106632 -0.73935 0
M  V30 696 H 80.4203 -0.438184 -1.8991 0
M  V30 697 H 79.5163 0.537972 -3.07428 0
M  V30 698 N 79.8174 1.5752 -0.0501392 0
M  V30 699 C 81.0654 1.9227 0.622642 0
M  V30 700 C 81.3864 0.929083 1.71444 0
M  V30 701 O 80.6564 -0.0262186 1.95882 0
M  V30 702 H 79.2364 0.709739 0.232981 0
M  V30 703 H 81.8984 1.94628 -0.102898 0
M  V30 704 H 80.9944 2.93479 1.06191 0
M  V30 705 N 81.2955 -0.223234 1.56011 0
M  V30 706 C 82.5415 -0.949279 1.79211 0
M  V30 707 C 82.8745 -1.84054 0.619494 0
M  V30 708 O 82.1495 -1.90726 -0.381317 0
M  V30 709 C 82.4325 -1.78965 3.12479 0
M  V30 710 C 82.2855 -0.924997 4.40186 0
M  V30 711 C 83.6045 -2.76774 3.42175 0
M  V30 712 H 80.7235 -0.343676 0.651963 0
M  V30 713 H 83.3655 -0.218253 1.88742 0
M  V30 714 H 81.5155 -2.41291 3.04485 0
M  V30 715 H 83.1875 -0.318615 4.60198 0
M  V30 716 H 81.4305 -0.230344 4.33188 0
M  V30 717 H 82.1015 -1.54735 5.29869 0
M  V30 718 H 84.5775 -2.24584 3.50287 0
M  V30 719 H 83.4535 -3.32678 4.36597 0
M  V30 720 H 83.7145 -3.54429 2.64258 0
M  V30 721 N 82.7736 -1.49793 -0.48987 0
M  V30 722 C 84.1896 -1.36803 -0.822022 0
M  V30 723 C 84.3896 -0.409652 -1.97292 0
M  V30 724 O 83.4456 0.154614 -2.52026 0
M  V30 725 C 84.7586 -2.77768 -1.15175 0
M  V30 726 C 86.3066 -2.86549 -1.25931 0
M  V30 727 C 86.7816 -4.28306 -1.62228 0
M  V30 728 N 88.2726 -4.31169 -1.69256 0
M  V30 729 C 89.0076 -5.37832 -1.98807 0
M  V30 730 N 88.5036 -6.54726 -2.26507 0
M  V30 731 N 90.2966 -5.25258 -2.00152 0
M  V30 732 H 82.4476 -2.10691 0.268881 0
M  V30 733 H 84.7106 -0.946241 0.057728 0
M  V30 734 H 84.4166 -3.49648 -0.379335 0
M  V30 735 H 84.2906 -3.13836 -2.09253 0
M  V30 736 H 86.6776 -2.14899 -2.02243 0
M  V30 737 H 86.7586 -2.54049 -0.298776 0
M  V30 738 H 86.4026 -5.00486 -0.864622 0
M  V30 739 H 86.3326 -4.58279 -2.594 0
M  V30 740 H 88.8236 -3.4687 -1.49965 0
M  V30 741 H 89.1366 -7.31833 -2.48276 0
M  V30 742 H 87.4816 -6.57933 -2.23939 0
M  V30 743 H 90.6726 -4.32938 -1.77996 0
M  V30 744 H 90.8456 -6.08476 -2.22848 0
M  V30 745 N 84.2517 0.741722 -1.39055 0
M  V30 746 C 85.5287 1.49252 -1.26425 0
M  V30 747 C 85.9087 2.10705 0.129144 0
M  V30 748 O 85.2567 1.98045 1.13976 0
M  V30 749 C 85.4667 2.54934 -2.38347 0
M  V30 750 C 86.8147 3.21506 -2.77343 0
M  V30 751 O 87.8387 2.65245 -2.37747 0
M  V30 752 O 86.6977 4.23294 -3.45665 0
M  V30 753 H 83.7917 0.662451 -0.495064 0
M  V30 754 H 86.3377 0.776121 -1.50912 0
M  V30 755 H 85.1097 2.07857 -3.31529 0
M  V30 756 H 84.7327 3.34141 -2.15489 0
M  V30 757 N 85.7298 1.2412 0.971189 0
M  V30 758 C 86.6398 1.04747 2.09917 0
M  V30 759 C 87.6558 -0.0107162 1.73997 0
M  V30 760 O 88.8318 0.186714 2.00533 0
M  V30 761 C 85.8968 0.650828 3.40537 0
M  V30 762 C 84.9578 1.7851 3.90426 0
M  V30 763 C 84.1908 1.40729 5.14812 0
M  V30 764 O 84.4138 0.29557 5.69634 0
M  V30 765 O 83.3478 2.23168 5.58999 0
M  V30 766 H 87.1738 1.99304 2.29154 0
M  V30 767 H 84.7588 1.02908 1.08307 0
M  V30 768 H 86.6408 0.440992 4.19086 0
M  V30 769 H 85.3158 -0.265649 3.22608 0
M  V30 770 H 84.2228 2.04966 3.12953 0
M  V30 771 H 85.5558 2.68023 4.12825 0
M  V30 772 N 87.2079 -1.17134 1.05439 0
M  V30 773 C 88.4559 -1.87085 0.764429 0
M  V30 774 C 88.7769 -1.81584 -0.710787 0
M  V30 775 O 88.0469 -1.24349 -1.51374 0
M  V30 776 H 86.6269 -0.692627 0.279779 0
M  V30 777 H 89.2889 -1.42087 1.33406 0
M  V30 778 H 88.3849 -2.92759 1.0816 0
M  V30 779 N 88.686 -0.835752 -1.33615 0
M  V30 780 C 90.097 -0.487099 -1.80234 0
M  V30 781 C 90.448 0.993627 -1.69179 0
M  V30 782 O 89.573 1.77403 -1.23924 0
M  V30 783 C 90.168 -0.877385 -3.27242 0
M  V30 784 C 88.727 -0.580915 -3.7189 0
M  V30 785 C 87.874 -1.0874 -2.5509 0
M  V30 786 H 90.825 -1.02474 -1.2118 0
M  V30 787 H 90.846 -0.186195 -3.80044 0
M  V30 788 H 90.358 -1.95512 -3.35256 0
M  V30 789 H 88.459 0.486881 -3.69405 0
M  V30 790 H 88.572 -1.13396 -4.65487 0
M  V30 791 H 86.936 -0.508392 -2.49575 0
M  V30 792 H 87.719 -2.17184 -2.65868 0
M  V30 793 N 90.1641 1.46063 -0.591896 0
M  V30 794 C 91.1271 2.28854 0.125973 0
M  V30 795 C 92.1271 1.38903 0.810107 0
M  V30 796 O 93.3171 1.61186 0.66066 0
M  V30 797 C 90.4491 3.19526 1.1881 0
M  V30 798 H 91.6421 2.93802 -0.601717 0
M  V30 799 H 89.1951 1.52325 -0.350254 0
M  V30 800 H 89.9301 2.59345 1.94707 0
M  V30 801 H 89.7151 3.85766 0.701936 0
M  V30 802 H 91.2051 3.81817 1.69132 0
M  V30 803 N 91.6422 0.330177 1.54103 0
M  V30 804 C 92.6052 -0.520144 2.2322 0
M  V30 805 C 93.6052 -1.03828 1.22786 0
M  V30 806 O 94.7952 -0.929652 1.4732 0
M  V30 807 C 91.9272 -1.72317 2.94142 0
M  V30 808 H 93.1202 0.0841605 2.99782 0
M  V30 809 H 90.6732 0.0813433 1.56088 0
M  V30 810 H 91.4082 -2.36653 2.21734 0
M  V30 811 H 91.1932 -1.35898 3.67796 0
M  V30 812 H 92.6832 -2.3266 3.46784 0
M  V30 813 N 93.1203 -1.57491 0.0584922 0
M  V30 814 C 94.0833 -2.1085 -0.898617 0
M  V30 815 C 95.0833 -1.02964 -1.23511 0
M  V30 816 O 96.2733 -1.29007 -1.17059 0
M  V30 817 C 93.4053 -2.59881 -2.20623 0
M  V30 818 H 94.5983 -2.96715 -0.435936 0
M  V30 819 H 92.1513 -1.55141 -0.190023 0
M  V30 820 H 92.8863 -1.77431 -2.71457 0
M  V30 821 H 92.6713 -3.38727 -1.97501 0
M  V30 822 H 94.1613 -3.01285 -2.89166 0
M  V30 823 N 94.5984 0.214957 -1.56127 0
M  V30 824 C 95.8464 0.936518 -1.79091 0
M  V30 825 C 96.1674 1.84606 -0.628148 0
M  V30 826 O 95.4374 1.92664 0.35462 0
M  V30 827 H 94.0174 0.3488 -0.660566 0
M  V30 828 H 96.6794 0.22523 -1.93594 0
M  V30 829 H 95.7754 1.53943 -2.71492 0
M  V30 830 N 96.0765 1.50051 0.48192 0
M  V30 831 C 97.3535 1.51009 1.2432 0
M  V30 832 C 97.7335 0.248587 2.09631 0
M  V30 833 O 97.0815 -0.768409 2.15192 0
M  V30 834 C 97.2915 2.79981 2.08355 0
M  V30 835 C 98.6395 3.3022 2.66908 0
M  V30 836 O 99.6635 2.81228 2.18607 0
M  V30 837 O 98.5225 4.15595 3.54884 0
M  V30 838 H 95.6165 0.605239 0.563573 0
M  V30 839 H 98.1625 1.62332 0.494627 0
M  V30 840 H 96.9345 3.63275 1.45419 0
M  V30 841 H 96.5575 2.7161 2.90368 0
M  V30 842 N 97.5546 -0.734337 1.39446 0
M  V30 843 C 98.8026 -1.49096 1.36436 0
M  V30 844 C 99.1236 -1.94961 -0.0388255 0
M  V30 845 O 98.3936 -1.69033 -0.990191 0
M  V30 846 H 96.9736 -0.5531 0.502085 0
M  V30 847 H 99.6356 -0.871725 1.74319 0
M  V30 848 H 98.7316 -2.37276 2.02747 0
M  V30 849 N 99.0327 -1.24633 -0.964593 0
M  V30 850 C 99.9627 -1.06611 -2.07741 0
M  V30 851 C 100.944 0.0218666 -1.70086 0
M  V30 852 O 102.129 -0.145793 -1.93652 0
M  V30 853 C 99.2587 -0.673444 -3.40708 0
M  V30 854 C 98.2127 -1.71054 -3.92332 0
M  V30 855 C 97.5387 -1.17285 -5.21678 0
M  V30 856 C 98.8387 -3.10718 -4.19824 0
M  V30 857 H 100.533 -1.99693 -2.23076 0
M  V30 858 H 98.0787 -0.96152 -1.07195 0
M  V30 859 H 100.032 -0.534345 -4.17998 0
M  V30 860 H 98.7557 0.293073 -3.25282 0
M  V30 861 H 97.4147 -1.83791 -3.17201 0
M  V30 862 H 97.0627 -0.196847 -5.02615 0
M  V30 863 H 96.7627 -1.86592 -5.57187 0
M  V30 864 H 98.2867 -1.04593 -6.01575 0
M  V30 865 H 99.7007 -3.01192 -4.87808 0
M  V30 866 H 98.0977 -3.77406 -4.66567 0
M  V30 867 H 99.1677 -3.58524 -3.26479 0
M  V30 868 N 100.511 1.16574 -1.06058 0
M  V30 869 C 101.759 1.86677 -0.77434 0
M  V30 870 C 102.08 1.81959 0.701147 0
M  V30 871 O 101.35 1.2515 1.50713 0
M  V30 872 H 99.9298 0.691134 -0.283449 0
M  V30 873 H 102.592 1.41378 -1.34158 0
M  V30 874 H 101.688 2.92181 -1.09711 0
M  V30 875 N 101.989 0.842826 1.3317 0
M  V30 876 C 103.405 0.531128 1.50503 0
M  V30 877 C 103.605 -0.940734 1.78192 0
M  V30 878 O 102.661 -1.72436 1.84451 0
M  V30 879 C 103.974 1.40789 2.65705 0
M  V30 880 C 105.522 1.40708 2.79589 0
M  V30 881 C 105.997 2.26878 3.97857 0
M  V30 882 N 107.488 2.24609 4.05099 0
M  V30 883 C 108.223 2.88019 4.95815 0
M  V30 884 N 107.719 3.60496 5.9162 0
M  V30 885 N 109.512 2.77469 4.88843 0
M  V30 886 H 101.663 1.79557 1.1346 0
M  V30 887 H 103.926 0.766267 0.558156 0
M  V30 888 H 103.632 2.454 2.51936 0
M  V30 889 H 103.506 1.08677 3.61205 0
M  V30 890 H 105.893 0.368668 2.92788 0
M  V30 891 H 105.974 1.76829 1.84838 0
M  V30 892 H 105.618 3.3078 3.85418 0
M  V30 893 H 105.548 1.88096 4.91861 0
M  V30 894 H 108.039 1.71906 3.36536 0
M  V30 895 H 108.352 4.06076 6.57512 0
M  V30 896 H 106.697 3.64604 5.91683 0
M  V30 897 H 109.888 2.20406 4.12963 0
M  V30 898 H 110.061 3.2717 5.59342 0
M  V30 899 N 103.467 -1.45747 0.599634 0
M  V30 900 C 104.878 -1.85853 0.177681 0
M  V30 901 C 105.229 -1.50102 -1.26348 0
M  V30 902 O 104.354 -0.923905 -1.95686 0
M  V30 903 C 104.949 -3.37326 0.315688 0
M  V30 904 C 103.508 -3.76365 -0.0515144 0
M  V30 905 C 102.655 -2.69722 0.643822 0
M  V30 906 H 105.606 -1.36661 0.806814 0
M  V30 907 H 105.627 -3.77778 -0.454321 0
M  V30 908 H 105.139 -3.63315 1.36468 0
M  V30 909 H 103.24 -3.55993 -1.09999 0
M  V30 910 H 103.353 -4.77916 0.336594 0
M  V30 911 H 101.717 -2.54567 0.0822881 0
M  V30 912 H 102.5 -2.98549 1.6948 0
M  V30 913 N 104.945 -0.338344 -1.53925 0
M  V30 914 C 105.875 0.51328 -2.27789 0
M  V30 915 C 106.856 1.107 -1.29149 0
M  V30 916 O 108.041 1.12937 -1.57984 0
M  V30 917 C 105.171 1.66697 -3.04679 0
M  V30 918 C 104.125 1.20183 -4.1078 0
M  V30 919 C 103.451 2.44363 -4.75595 0
M  V30 920 C 104.751 0.30605 -5.21403 0
M  V30 921 H 106.445 -0.102883 -2.99223 0
M  V30 922 H 103.991 -0.0509219 -1.4391 0
M  V30 923 H 105.944 2.26915 -3.55088 0
M  V30 924 H 104.668 2.30995 -2.30887 0
M  V30 925 H 103.327 0.622499 -3.61276 0
M  V30 926 H 102.975 3.07057 -3.98403 0
M  V30 927 H 102.675 2.13925 -5.47275 0
M  V30 928 H 104.199 3.05317 -5.28786 0
M  V30 929 H 105.613 0.814929 -5.67478 0
M  V30 930 H 104.01 0.0937929 -6.00027 0
M  V30 931 H 105.08 -0.65921 -4.80398 0
M  V30 932 N 106.423 1.57458 -0.0668435 0
M  V30 933 C 107.671 1.92919 0.602214 0
M  V30 934 C 107.992 0.947215 1.70449 0
M  V30 935 O 107.262 -0.00544117 1.95899 0
M  V30 936 H 105.842 0.71217 0.22544 0
M  V30 937 H 108.504 1.94508 -0.123535 0
M  V30 938 H 107.6 2.94589 1.03073 0
M  V30 939 N 107.901 -0.206675 1.56239 0
M  V30 940 C 109.312 -0.772383 1.69974 0
M  V30 941 C 109.663 -1.84353 0.671436 0
M  V30 942 O 108.788 -2.15695 -0.174491 0
M  V30 943 C 109.383 -1.40779 3.08167 0
M  V30 944 C 107.942 -1.92072 3.23706 0
M  V30 945 C 107.089 -0.786347 2.65917 0
M  V30 946 H 110.04 0.0182223 1.5869 0
M  V30 947 H 110.061 -2.27696 3.04852 0
M  V30 948 H 109.573 -0.627958 3.82986 0
M  V30 949 H 107.674 -2.7281 2.53782 0
M  V30 950 H 107.787 -2.09046 4.31087 0
M  V30 951 H 106.151 -1.1976 2.24788 0
M  V30 952 H 106.934 -0.0189416 3.43295 0
M  V30 953 N 109.379 -1.50304 -0.473955 0
M  V30 954 C 110.607 -1.64902 -1.24959 0
M  V30 955 C 111.022 -0.331198 -1.85872 0
M  V30 956 O 110.379 0.68652 -1.69095 0
M  V30 957 C 110.43 -2.73803 -2.36038 0
M  V30 958 O 110.151 -4.00477 -1.77624 0
M  V30 959 C 111.652 -2.99349 -3.26964 0
M  V30 960 H 108.872 -0.554383 -0.378022 0
M  V30 961 H 111.416 -1.9651 -0.566054 0
M  V30 962 H 109.571 -2.44898 -3.00173 0
M  V30 963 H 109.985 -4.60678 -2.5075 0
M  V30 964 H 111.459 -3.79217 -4.01121 0
M  V30 965 H 111.936 -2.10307 -3.85574 0
M  V30 966 H 112.542 -3.29774 -2.68569 0
M  V30 967 N 110.857 0.726932 -1.39834 0
M  V30 968 C 112.268 1.30558 -1.3346 0
M  V30 969 C 112.619 1.962 -0.00273003 0
M  V30 970 O 111.744 1.96826 0.899371 0
M  V30 971 C 112.339 2.37404 -2.41713 0
M  V30 972 C 110.898 2.90921 -2.38835 0
M  V30 973 C 110.045 1.64578 -2.2318 0
M  V30 974 H 112.996 0.523862 -1.49804 0
M  V30 975 H 113.017 3.17984 -2.08966 0
M  V30 976 H 112.529 1.89599 -3.38635 0
M  V30 977 H 110.63 3.42985 -1.45575 0
M  V30 978 H 110.743 3.43487 -3.33997 0
M  V30 979 H 109.107 1.89219 -1.70494 0
M  V30 980 H 109.89 1.18814 -3.22084 0
M  V30 981 N 112.336 1.25143 0.95797 0
M  V30 982 C 113.561 1.12521 1.74223 0
M  V30 983 C 113.986 -0.317402 1.85403 0
M  V30 984 O 113.344 -1.2299 1.33204 0
M  V30 985 C 113.392 1.78062 3.1357 0
M  V30 986 O 112.496 1.058 3.98598 0
M  V30 987 H 111.837 0.39304 0.535178 0
M  V30 988 H 114.367 1.65641 1.201 0
M  V30 989 H 114.377 1.84213 3.64046 0
M  V30 990 H 113.052 2.83021 3.04749 0
M  V30 991 H 111.629 1.07506 3.57067 0
M  V30 992 N 113.814 -1.1601 1.06675 0
M  V30 993 C 114.746 -2.20115 0.638921 0
M  V30 994 C 115.759 -1.59916 -0.305057 0
M  V30 995 O 116.948 -1.78245 -0.0954446 0
M  V30 996 C 114.048 -3.38798 -0.0830083 0
M  V30 997 C 113.221 -4.2855 0.875426 0
M  V30 998 C 112.28 -5.25849 0.192042 0
M  V30 999 O 111.306 -5.63102 0.830921 0
M  V30 1000 N 112.508 -5.70648 -1.06493 0
M  V30 1001 H 115.273 -2.57439 1.53444 0
M  V30 1002 H 112.834 -1.31057 0.950557 0
M  V30 1003 H 114.826 -4.00936 -0.550685 0
M  V30 1004 H 113.396 -2.99947 -0.880386 0
M  V30 1005 H 112.616 -3.63617 1.52238 0
M  V30 1006 H 113.904 -4.85393 1.52548 0
M  V30 1007 H 113.302 -5.42482 -1.60405 0
M  V30 1008 H 111.859 -6.34859 -1.47641 0
M  V30 1009 N 115.292 -0.849877 -1.32721 0
M  V30 1010 C 116.517 -0.463856 -2.02146 0
M  V30 1011 C 116.942 0.930449 -1.63476 0
M  V30 1012 O 116.3 1.61033 -0.832952 0
M  V30 1013 C 116.348 -0.604955 -3.55489 0
M  V30 1014 O 115.452 0.36425 -4.10788 0
M  V30 1015 H 114.793 -0.187046 -0.637111 0
M  V30 1016 H 117.323 -1.14775 -1.69375 0
M  V30 1017 H 117.333 -0.490696 -4.05038 0
M  V30 1018 H 116.008 -1.62174 -3.82978 0
M  V30 1019 H 114.585 0.206628 -3.72327 0
M  V30 1020 N 116.77 1.45427 -0.607355 0
M  V30 1021 C 118.186 1.57283 -0.270985 0
M  V30 1022 C 118.386 1.59875 1.22647 0
M  V30 1023 O 117.442 1.52893 2.00948 0
M  V30 1024 C 118.755 2.85566 -0.941952 0
M  V30 1025 C 120.303 2.9924 -0.917849 0
M  V30 1026 C 120.778 4.30293 -1.56882 0
M  V30 1027 N 122.269 4.37051 -1.5343 0
M  V30 1028 C 123.004 5.37123 -2.00715 0
M  V30 1029 N 122.5 6.43734 -2.56084 0
M  V30 1030 N 124.293 5.28479 -1.91484 0
M  V30 1031 H 116.444 1.41988 -1.57966 0
M  V30 1032 H 118.707 0.67885 -0.661715 0
M  V30 1033 H 118.413 2.8955 -1.99633 0
M  V30 1034 H 118.287 3.74322 -0.465096 0
M  V30 1035 H 120.674 2.94822 0.127984 0
M  V30 1036 H 120.755 2.11895 -1.43297 0
M  V30 1037 H 120.399 4.35469 -2.61398 0
M  V30 1038 H 120.329 5.16454 -1.02873 0
M  V30 1039 H 122.82 3.60615 -1.12982 0
M  V30 1040 H 123.133 7.16341 -2.89958 0
M  V30 1041 H 121.478 6.44485 -2.60122 0
M  V30 1042 H 124.669 4.44098 -1.47967 0
M  V30 1043 H 124.842 6.0632 -2.28648 0
M  V30 1044 N 118.248 0.346503 1.53744 0
M  V30 1045 C 119.495 -0.249104 2.00962 0
M  V30 1046 C 119.823 -1.5032 1.23426 0
M  V30 1047 O 119.078 -1.93217 0.310761 0
M  V30 1048 C 119.377 -0.605809 3.52228 0
M  V30 1049 C 119.043 0.551747 4.47512 0
M  V30 1050 C 117.705 0.86941 4.73281 0
M  V30 1051 C 120.057 1.32818 5.03993 0
M  V30 1052 C 117.385 1.96582 5.52786 0
M  V30 1053 C 119.737 2.41486 5.84694 0
M  V30 1054 C 118.401 2.73808 6.08757 0
M  V30 1055 H 117.671 -0.0911538 0.735372 0
M  V30 1056 H 120.318 0.475027 1.85515 0
M  V30 1057 H 118.623 -1.4107 3.65522 0
M  V30 1058 H 120.32 -1.07858 3.86222 0
M  V30 1059 H 116.91 0.294102 4.2759 0
M  V30 1060 H 121.094 1.09602 4.84047 0
M  V30 1061 H 116.35 2.22045 5.69654 0
M  V30 1062 H 120.524 3.02078 6.27473 0
M  V30 1063 H 118.151 3.58892 6.7015 0
M  V30 1064 N 119.726 -1.57421 0.075193 0
M  V30 1065 C 120.658 -2.09904 -0.920483 0
M  V30 1066 C 121.671 -1.03191 -1.25918 0
M  V30 1067 O 122.86 -1.30695 -1.21577 0
M  V30 1068 C 119.96 -2.54726 -2.23534 0
M  V30 1069 C 119.133 -3.8505 -2.07498 0
M  V30 1070 C 118.192 -4.15929 -3.22319 0
M  V30 1071 O 117.218 -4.85474 -2.9716 0
M  V30 1072 N 118.42 -3.69745 -4.47514 0
M  V30 1073 H 121.185 -2.95954 -0.472359 0
M  V30 1074 H 118.746 -1.61523 -0.110444 0
M  V30 1075 H 120.738 -2.72443 -2.9926 0
M  V30 1076 H 119.308 -1.73795 -2.59835 0
M  V30 1077 H 118.528 -3.76679 -1.16219 0
M  V30 1078 H 119.816 -4.70348 -1.94038 0
M  V30 1079 H 119.214 -3.13569 -4.7084 0
M  V30 1080 H 117.771 -3.92655 -5.20255 0
M  V30 1081 N 121.204 0.198386 -1.56346 0
M  V30 1082 C 122.45 0.920648 -1.80698 0
M  V30 1083 C 122.783 1.83045 -0.648697 0
M  V30 1084 O 122.058 1.91308 0.350925 0
M  V30 1085 C 122.341 1.73971 -3.15287 0
M  V30 1086 C 122.194 0.85485 -4.41602 0
M  V30 1087 C 123.513 2.71296 -3.46535 0
M  V30 1088 H 120.632 0.333261 -0.657348 0
M  V30 1089 H 123.274 0.188198 -1.89066 0
M  V30 1090 H 121.424 2.36416 -3.08285 0
M  V30 1091 H 123.096 0.245362 -4.60647 0
M  V30 1092 H 121.339 0.161398 -4.335 0
M  V30 1093 H 122.01 1.46286 -5.32264 0
M  V30 1094 H 124.486 2.18983 -3.53816 0
M  V30 1095 H 123.362 3.2569 -4.41834 0
M  V30 1096 H 123.623 3.5018 -2.69864 0
M  V30 1097 N 122.682 1.50554 0.465978 0
M  V30 1098 C 123.959 1.5232 1.22712 0
M  V30 1099 C 124.339 0.270807 2.09356 0
M  V30 1100 O 123.687 -0.745541 2.15995 0
M  V30 1101 C 123.897 2.82175 2.05374 0
M  V30 1102 C 125.245 3.33033 2.6339 0
M  V30 1103 O 126.269 2.83531 2.15612 0
M  V30 1104 O 125.128 4.19336 3.50456 0
M  V30 1105 H 122.222 0.611183 0.557122 0
M  V30 1106 H 124.768 1.62847 0.477381 0
M  V30 1107 H 123.54 3.64797 1.41558 0
M  V30 1108 H 123.163 2.74675 2.87471 0
M  V30 1109 N 124.16 -0.719506 1.40217 0
M  V30 1110 C 125.09 -1.8465 1.42922 0
M  V30 1111 C 126.071 -1.67599 0.29062 0
M  V30 1112 O 127.256 -1.87688 0.498677 0
M  V30 1113 C 124.386 -3.22565 1.28722 0
M  V30 1114 C 123.34 -3.54281 2.40144 0
M  V30 1115 C 122.666 -4.91298 2.11023 0
M  V30 1116 C 123.966 -3.55676 3.82481 0
M  V30 1117 H 125.66 -1.82644 2.37237 0
M  V30 1118 H 123.206 -0.877305 1.1419 0
M  V30 1119 H 125.159 -4.01095 1.29232 0
M  V30 1120 H 123.883 -3.25137 0.308811 0
M  V30 1121 H 122.542 -2.78088 2.38877 0
M  V30 1122 H 122.19 -4.90468 1.11582 0
M  V30 1123 H 121.89 -5.13485 2.8567 0
M  V30 1124 H 123.414 -5.72166 2.13209 0
M  V30 1125 H 124.828 -4.24254 3.85592 0
M  V30 1126 H 123.225 -3.89388 4.56614 0
M  V30 1127 H 124.295 -2.55144 4.12346 0
M  V30 1128 N 125.638 -1.25649 -0.95132 0
M  V30 1129 C 126.884 -1.10757 -1.69884 0
M  V30 1130 C 127.217 0.350061 -1.91019 0
M  V30 1131 O 126.492 1.25783 -1.48354 0
M  V30 1132 C 126.775 -1.86606 -3.07978 0
M  V30 1133 C 126.628 -3.40217 -2.94232 0
M  V30 1134 C 127.947 -1.65182 -4.07925 0
M  V30 1135 H 125.066 -0.40374 -0.616574 0
M  V30 1136 H 127.708 -1.54521 -1.10558 0
M  V30 1137 H 125.858 -1.49409 -3.58621 0
M  V30 1138 H 127.53 -3.87108 -2.50889 0
M  V30 1139 H 125.773 -3.67759 -2.30078 0
M  V30 1140 H 126.444 -3.88505 -3.92133 0
M  V30 1141 H 128.92 -1.9757 -3.66204 0
M  V30 1142 H 127.796 -2.20683 -5.02583 0
M  V30 1143 H 128.057 -0.593933 -4.38092 0
M  V30 1144 N 127.117 1.15442 -1.07289 0
M  V30 1145 C 128.342 1.90638 -0.816828 0
M  V30 1146 C 128.767 1.77445 0.624083 0
M  V30 1147 O 128.125 1.10671 1.43602 0
M  V30 1148 C 128.173 3.39008 -1.22906 0
M  V30 1149 O 127.277 4.10701 -0.373975 0
M  V30 1150 H 126.618 0.593555 -0.297638 0
M  V30 1151 H 129.148 1.46198 -1.43134 0
M  V30 1152 H 129.158 3.89801 -1.20497 0
M  V30 1153 H 127.833 3.47929 -2.27856 0
M  V30 1154 H 126.41 3.70046 -0.460499 0
M  V30 1155 N 128.595 0.856903 1.32268 0
M  V30 1156 C 129.505 0.306131 2.32594 0
M  V30 1157 C 130.521 -0.577209 1.64147 0
M  V30 1158 O 131.697 -0.477043 1.95669 0
M  V30 1159 C 128.762 -0.494561 3.43154 0
M  V30 1160 C 127.823 0.415186 4.27288 0
M  V30 1161 C 127.056 -0.347387 5.32568 0
M  V30 1162 O 127.279 -1.57708 5.48165 0
M  V30 1163 O 126.213 0.287982 6.01211 0
M  V30 1164 H 130.039 1.13737 2.81598 0
M  V30 1165 H 127.624 0.619902 1.35932 0
M  V30 1166 H 129.506 -0.948944 4.10576 0
M  V30 1167 H 128.181 -1.30257 2.96336 0
M  V30 1168 H 127.088 0.917793 3.62667 0
M  V30 1169 H 128.421 1.18844 4.77637 0
M  V30 1170 N 130.073 -1.45103 0.615059 0
M  V30 1171 C 131.021 -2.32331 -0.111791 0
M  V30 1172 C 132.015 -1.46409 -0.852102 0
M  V30 1173 O 133.221 -1.62849 -0.766821 0
M  V30 1174 H 129.596 -0.749993 -0.0549072 0
M  V30 1175 H 131.567 -2.91407 0.642225 0
M  V30 1176 C 130.316 -3.3015 -1.09071 0
M  V30 1177 H 129.639 -3.96265 -0.530485 0
M  V30 1178 H 131.079 -3.93898 -1.56908 0
M  V30 1179 C 129.538 -2.57875 -2.168 0
M  V30 1180 O 130.068 -2.36567 -3.24652 0
M  V30 1181 N 128.274 -2.17884 -1.92289 0
M  V30 1182 H 127.821 -2.35413 -1.04587 0
M  V30 1183 H 127.779 -1.6985 -2.64572 0
M  V30 1184 N 131.551 -0.354651 -1.53558 0
M  V30 1185 C 132.514 0.484566 -2.24019 0
M  V30 1186 C 133.514 1.01861 -1.24422 0
M  V30 1187 O 134.704 0.906097 -1.4878 0
M  V30 1188 C 131.836 1.67615 -2.96847 0
M  V30 1189 H 133.029 -0.131843 -2.9961 0
M  V30 1190 H 130.582 -0.106165 -1.55939 0
M  V30 1191 H 131.317 2.33095 -2.25471 0
M  V30 1192 H 131.102 1.30029 -3.69912 0
M  V30 1193 H 132.592 2.27114 -3.50441 0
M  V30 1194 N 133.029 1.57378 -0.0835403 0
M  V30 1195 C 134.277 1.93547 0.581718 0
M  V30 1196 C 134.598 0.96524 1.69435 0
M  V30 1197 O 133.868 0.0153369 1.95894 0
M  V30 1198 H 132.448 0.714521 0.217874 0
M  V30 1199 H 135.11 1.94366 -0.144158 0
M  V30 1200 H 134.206 2.95665 0.999423 0
M  V30 1201 N 134.507 -0.190092 1.56449 0
M  V30 1202 C 135.923 -0.54113 1.50146 0
M  V30 1203 C 136.123 -1.85603 0.784465 0
M  V30 1204 O 135.179 -2.5024 0.337051 0
M  V30 1205 C 136.492 -0.591241 2.9483 0
M  V30 1206 C 138.04 -0.679732 3.0553 0
M  V30 1207 C 138.515 -0.760908 4.51635 0
M  V30 1208 N 140.006 -0.824302 4.55806 0
M  V30 1209 C 140.741 -0.907365 5.66175 0
M  V30 1210 N 140.237 -0.952422 6.86222 0
M  V30 1211 N 142.03 -0.94494 5.541 0
M  V30 1212 H 134.181 0.67235 2.01478 0
M  V30 1213 H 136.444 0.240127 0.917084 0
M  V30 1214 H 136.15 0.305905 3.50367 0
M  V30 1215 H 136.024 -1.44422 3.48457 0
M  V30 1216 H 138.411 -1.56731 2.50039 0
M  V30 1217 H 138.492 0.199549 2.5502 0
M  V30 1218 H 138.136 0.122336 5.07753 0
M  V30 1219 H 138.066 -1.65606 4.99882 0
M  V30 1220 H 140.557 -0.798526 3.69367 0
M  V30 1221 H 140.87 -1.01645 7.66086 0
M  V30 1222 H 139.215 -0.921014 6.8887 0
M  V30 1223 H 142.406 -0.906612 4.59236 0
M  V30 1224 H 142.579 -1.00622 6.4014 0
M  V30 1225 N 135.985 -1.50799 -0.457987 0
M  V30 1226 C 136.948 -1.7005 -1.53674 0
M  V30 1227 C 137.948 -0.570881 -1.50325 0
M  V30 1228 O 139.138 -0.838126 -1.52712 0
M  V30 1229 C 136.27 -1.73788 -2.93276 0
M  V30 1230 H 137.463 -2.66306 -1.37917 0
M  V30 1231 H 135.016 -1.40477 -0.685271 0
M  V30 1232 H 135.751 -0.792717 -3.14462 0
M  V30 1233 H 135.536 -2.55864 -2.97113 0
M  V30 1234 H 137.026 -1.90591 -3.71571 0
M  V30 1235 N 137.463 0.71206 -1.40597 0
M  V30 1236 C 138.426 1.80785 -1.40888 0
M  V30 1237 C 139.426 1.57937 -0.302103 0
M  V30 1238 O 140.616 1.64913 -0.561182 0
M  V30 1239 C 137.748 3.18927 -1.20409 0
M  V30 1240 H 138.941 1.81924 -2.38419 0
M  V30 1241 H 136.494 0.91805 -1.26497 0
M  V30 1242 H 137.229 3.23436 -0.236522 0
M  V30 1243 H 137.014 3.36911 -2.00582 0
M  V30 1244 H 138.504 3.98949 -1.23408 0
M  V30 1245 N 138.941 1.26152 0.944643 0
M  V30 1246 C 139.904 1.07474 2.0244 0
M  V30 1247 C 140.904 0.0242064 1.60782 0
M  V30 1248 O 142.094 0.267302 1.72137 0
M  V30 1249 C 139.226 0.633956 3.34953 0
M  V30 1250 H 140.419 2.03336 2.20442 0
M  V30 1251 H 137.972 1.087 1.12312 0
M  V30 1252 H 138.707 -0.326811 3.22649 0
M  V30 1253 H 138.492 1.39247 3.66542 0
M  V30 1254 H 139.982 0.52501 4.14287 0
M  V30 1255 N 140.419 -1.14872 1.07899 0
M  V30 1256 C 141.382 -2.17986 0.708161 0
M  V30 1257 C 142.382 -1.58775 -0.25442 0
M  V30 1258 O 143.572 -1.74166 -0.034645 0
M  V30 1259 C 140.704 -3.40871 0.0446929 0
M  V30 1260 H 141.897 -2.52306 1.62116 0
M  V30 1261 H 139.45 -1.2943 0.876218 0
M  V30 1262 H 140.185 -3.12124 -0.880281 0
M  V30 1263 H 139.97 -3.8511 0.737091 0
M  V30 1264 H 141.46 -4.17121 -0.19991 0
M  V30 1265 N 141.898 -0.863906 -1.31812 0
M  V30 1266 C 142.861 -0.320212 -2.26952 0
M  V30 1267 C 143.861 0.525369 -1.51975 0
M  V30 1268 O 145.051 0.335547 -1.70938 0
M  V30 1269 C 142.183 0.545919 -3.365 0
M  V30 1270 H 143.376 -1.16004 -2.76556 0
M  V30 1271 H 140.929 -0.638995 -1.42641 0
M  V30 1272 H 141.664 1.40718 -2.92179 0
M  V30 1273 H 141.449 -0.0594674 -3.92055 0
M  V30 1274 H 142.939 0.918796 -4.07367 0
M  V30 1275 N 143.376 1.44774 -0.622745 0
M  V30 1276 C 144.339 2.29069 0.0774015 0
M  V30 1277 C 145.339 1.4059 0.780461 0
M  V30 1278 O 146.529 1.62551 0.626322 0
M  V30 1279 C 143.661 3.21974 1.12006 0
M  V30 1280 H 144.854 2.92459 -0.663901 0
M  V30 1281 H 142.407 1.51548 -0.382486 0
M  V30 1282 H 143.142 2.63417 1.89162 0
M  V30 1283 H 142.927 3.87168 0.619951 0
M  V30 1284 H 144.417 3.85318 1.60995 0
M  V30 1285 N 144.854 0.36279 1.53368 0
M  V30 1286 C 145.817 -0.472679 2.24273 0
M  V30 1287 C 146.817 -1.012 1.24961 0
M  V30 1288 O 148.007 -0.898194 1.49259 0
M  V30 1289 C 145.139 -1.66039 2.97731 0
M  V30 1290 H 146.332 0.14773 2.99536 0
M  V30 1291 H 143.885 0.114434 1.55881 0
M  V30 1292 H 144.62 -2.31896 2.26704 0
M  V30 1293 H 144.405 -1.28066 3.70596 0
M  V30 1294 H 145.895 -2.25252 3.51641 0
M  V30 1295 N 146.332 -1.57332 0.0918853 0
M  V30 1296 C 147.295 -2.12708 -0.85369 0
M  V30 1297 C 148.295 -1.05561 -1.213 0
M  V30 1298 O 149.485 -1.31461 -1.14296 0
M  V30 1299 C 146.617 -2.64503 -2.15061 0
M  V30 1300 H 147.81 -2.97573 -0.3729 0
M  V30 1301 H 145.363 -1.55509 -0.157072 0
M  V30 1302 H 146.098 -1.83149 -2.67632 0
M  V30 1303 H 145.883 -3.4284 -1.90272 0
M  V30 1304 H 147.373 -3.07351 -2.82711 0
M  V30 1305 N 147.81 0.181792 -1.56548 0
M  V30 1306 C 148.773 1.20894 -1.94724 0
M  V30 1307 C 149.773 1.37738 -0.829747 0
M  V30 1308 O 150.963 1.35323 -1.09697 0
M  V30 1309 C 148.095 2.57593 -2.23291 0
M  V30 1310 H 149.288 0.882275 -2.86629 0
M  V30 1311 H 146.841 0.423838 -1.50444 0
M  V30 1312 H 147.576 2.95291 -1.34067 0
M  V30 1313 H 147.361 2.46735 -3.04736 0
M  V30 1314 H 148.851 3.31637 -2.53785 0
M  V30 1315 N 149.288 1.51039 0.449983 0
M  V30 1316 C 150.251 1.70863 1.5277 0
M  V30 1317 C 151.251 0.578846 1.5002 0
M  V30 1318 O 152.441 0.846213 1.52266 0
M  V30 1319 C 149.573 1.75341 2.9235 0
M  V30 1320 H 150.766 2.67034 1.36502 0
M  V30 1321 H 148.319 1.40838 0.677812 0
M  V30 1322 H 149.054 0.809383 3.14037 0
M  V30 1323 H 148.839 2.57436 2.95752 0
M  V30 1324 H 150.329 1.92559 3.70555 0
M  V30 1325 N 150.766 -0.704594 1.40972 0
M  V30 1326 C 151.729 -1.80035 1.41845 0
M  V30 1327 C 152.729 -1.57774 0.310474 0
M  V30 1328 O 153.919 -1.64613 0.56992 0
M  V30 1329 C 151.051 -3.18284 1.22098 0
M  V30 1330 H 152.244 -1.80658 2.3938 0
M  V30 1331 H 149.797 -0.911329 1.26982 0
M  V30 1332 H 150.532 -3.23306 0.253672 0
M  V30 1333 H 150.317 -3.35843 2.02366 0
M  V30 1334 H 151.807 -3.98289 1.25522 0
M  V30 1335 N 152.244 -1.26651 -0.937939 0
M  V30 1336 C 153.207 -1.08546 -2.01867 0
M  V30 1337 C 154.207 -0.0327327 -1.60767 0
M  V30 1338 O 155.397 -0.276427 -1.71993 0
M  V30 1339 C 152.529 -0.651711 -3.34613 0
M  V30 1340 H 153.722 -2.04502 -2.1936 0
M  V30 1341 H 151.275 -1.09294 -1.11734 0
M  V30 1342 H 152.01 0.309696 -3.22818 0
M  V30 1343 H 151.795 -1.41189 -3.65798 0
M  V30 1344 H 153.285 -0.546973 -4.14002 0
M  V30 1345 N 153.722 1.14298 -1.08507 0
M  V30 1346 C 154.685 2.17607 -0.719711 0
M  V30 1347 C 155.685 1.58907 0.245997 0
M  V30 1348 O 156.875 1.74181 0.0254081 0
M  V30 1349 C 154.007 3.40842 -0.0627695 0
M  V30 1350 H 155.2 2.51443 -1.63452 0
M  V30 1351 H 152.753 1.28963 -0.88307 0
M  V30 1352 H 153.488 3.12587 0.863716 0
M  V30 1353 H 153.273 3.84713 -0.757504 0
M  V30 1354 H 154.763 4.17221 0.177786 0
M  V30 1355 N 155.201 0.870884 1.31352 0
M  V30 1356 C 156.164 0.332243 2.26779 0
M  V30 1357 C 157.164 -0.517302 1.52252 0
M  V30 1358 O 158.354 -0.326477 1.71113 0
M  V30 1359 C 155.486 -0.528066 3.36785 0
M  V30 1360 H 156.679 1.17469 2.75937 0
M  V30 1361 H 154.232 0.64655 1.423 0
M  V30 1362 H 154.967 -1.39167 2.92922 0
M  V30 1363 H 154.752 0.0802582 3.92018 0
M  V30 1364 H 156.242 -0.897179 4.07849 0
M  V30 1365 N 156.679 -1.44442 0.630414 0
M  V30 1366 C 157.642 -2.29107 -0.0652523 0
M  V30 1367 C 158.642 -1.41002 -0.772995 0
M  V30 1368 O 159.832 -1.62881 -0.617692 0
M  V30 1369 C 156.964 -3.22564 -1.10296 0
M  V30 1370 H 158.157 -2.92103 0.679401 0
M  V30 1371 H 155.71 -1.51343 0.390517 0
M  V30 1372 H 156.445 -2.64416 -1.87762 0
M  V30 1373 H 156.23 -3.87491 -0.59941 0
M  V30 1374 H 157.72 -3.86167 -1.5895 0
M  V30 1375 N 158.157 -0.370918 -1.53173 0
M  V30 1376 C 159.405 0.216673 -2.00935 0
M  V30 1377 C 159.726 1.48845 -1.25977 0
M  V30 1378 O 158.996 1.92286 -0.374551 0
M  V30 1379 H 157.576 0.0830565 -0.742368 0
M  V30 1380 H 160.238 -0.49838 -1.8842 0
M  V30 1381 H 159.334 0.439893 -3.08984 0
M  V30 1382 N 159.635 1.57281 -0.100228 0
M  V30 1383 C 160.598 2.13158 0.842398 0
M  V30 1384 C 161.598 1.06202 1.20738 0
M  V30 1385 O 162.788 1.32066 1.13597 0
M  V30 1386 C 159.92 2.65639 2.13655 0
M  V30 1387 H 161.113 2.97766 0.357114 0
M  V30 1388 H 158.666 1.5559 0.148823 0
M  V30 1389 H 159.401 1.84566 2.66657 0
M  V30 1390 H 159.186 3.43844 1.88451 0
M  V30 1391 H 160.676 3.08846 2.81077 0
M  V30 1392 N 161.113 -0.173488 1.56642 0
M  V30 1393 C 162.361 -0.888706 1.81512 0
M  V30 1394 C 162.682 -1.82875 0.676872 0
M  V30 1395 O 161.952 -1.93536 -0.303414 0
M  V30 1396 H 160.532 -0.331164 0.669582 0
M  V30 1397 H 163.194 -0.173823 1.94123 0
M  V30 1398 H 162.29 -1.46691 2.75478 0
M  V30 1399 N 162.591 -1.51276 -0.441967 0
M  V30 1400 C 163.554 -1.7167 -1.51862 0
M  V30 1401 C 164.554 -0.586793 -1.49711 0
M  V30 1402 O 165.744 -0.854276 -1.51815 0
M  V30 1403 C 162.876 -1.76889 -2.91416 0
M  V30 1404 H 164.069 -2.67754 -1.35084 0
M  V30 1405 H 161.622 -1.41196 -0.670333 0
M  V30 1406 H 162.357 -0.826026 -3.13604 0
M  V30 1407 H 162.142 -2.59001 -2.94382 0
M  V30 1408 H 163.632 -1.94522 -3.69528 0
M  V30 1409 N 164.069 0.697108 -1.41344 0
M  V30 1410 C 165.317 1.45426 -1.40341 0
M  V30 1411 C 165.638 1.94996 -0.0128787 0
M  V30 1412 O 164.908 1.71599 0.945027 0
M  V30 1413 H 163.488 0.539594 -0.516573 0
M  V30 1414 H 166.15 0.825201 -1.76569 0
M  V30 1415 H 165.246 2.31817 -2.08967 0
M  V30 1416 N 165.547 1.27147 0.931209 0
M  V30 1417 C 166.51 1.09615 2.01289 0
M  V30 1418 C 167.51 0.0412581 1.60747 0
M  V30 1419 O 168.7 0.285545 1.71844 0
M  V30 1420 C 165.832 0.669447 3.34262 0
M  V30 1421 H 167.025 2.05662 2.18273 0
M  V30 1422 H 164.578 1.09885 1.11153 0
M  V30 1423 H 165.313 -0.292572 3.22978 0
M  V30 1424 H 165.098 1.43127 3.65044 0
M  V30 1425 H 166.588 0.568921 4.13706 0
M  V30 1426 N 167.025 -1.13721 1.09112 0
M  V30 1427 C 167.972 -2.19031 0.727591 0
M  V30 1428 C 168.942 -1.63555 -0.289656 0
M  V30 1429 O 170.127 -1.90023 -0.172026 0
M  V30 1430 C 167.267 -3.4477 0.15082 0
M  V30 1431 C 166.38 -4.14365 1.22172 0
M  V30 1432 C 165.515 -5.27709 0.608042 0
M  V30 1433 C 164.554 -5.89147 1.66047 0
M  V30 1434 N 163.691 -6.93929 1.06806 0
M  V30 1435 H 168.531 -2.49475 1.62991 0
M  V30 1436 H 166.068 -1.22499 0.81439 0
M  V30 1437 H 168.026 -4.16714 -0.201358 0
M  V30 1438 H 166.656 -3.14787 -0.714783 0
M  V30 1439 H 165.708 -3.40737 1.69122 0
M  V30 1440 H 167.02 -4.56114 2.01895 0
M  V30 1441 H 166.174 -6.06355 0.204523 0
M  V30 1442 H 164.913 -4.872 -0.220769 0
M  V30 1443 H 163.918 -5.09198 2.07357 0
M  V30 1444 H 165.143 -6.31729 2.49189 0
M  V30 1445 H 163.089 -6.55483 0.260476 0
M  V30 1446 H 163.006 -7.34202 1.8023 0
M  V30 1447 H 164.274 -7.76434 0.690644 0
M  V30 1448 N 168.503 -0.877838 -1.30888 0
M  V30 1449 C 169.435 -0.296607 -2.27273 0
M  V30 1450 C 170.448 0.544799 -1.53414 0
M  V30 1451 O 171.637 0.365511 -1.74718 0
M  V30 1452 C 168.737 0.597481 -3.33592 0
M  V30 1453 C 167.91 -0.213251 -4.3688 0
M  V30 1454 C 166.969 0.610208 -5.2265 0
M  V30 1455 O 165.995 0.035441 -5.69189 0
M  V30 1456 N 167.197 1.92071 -5.47804 0
M  V30 1457 H 169.962 -1.12492 -2.77787 0
M  V30 1458 H 167.523 -0.740105 -1.43993 0
M  V30 1459 H 169.515 1.15425 -3.87891 0
M  V30 1460 H 168.085 1.32647 -2.83061 0
M  V30 1461 H 167.305 -0.951466 -3.82545 0
M  V30 1462 H 168.593 -0.769262 -5.02951 0
M  V30 1463 H 167.991 2.4107 -5.11763 0
M  V30 1464 H 166.548 2.42508 -6.05007 0
M  V30 1465 N 169.982 1.44106 -0.638065 0
M  V30 1466 C 171.21 2.06336 -0.152615 0
M  V30 1467 C 171.625 1.47731 1.17563 0
M  V30 1468 O 170.982 0.602806 1.72257 0
M  V30 1469 C 171.033 3.61479 -0.0391491 0
M  V30 1470 O 170.754 4.17903 -1.31487 0
M  V30 1471 C 172.255 4.40757 0.474176 0
M  V30 1472 H 169.475 0.665862 -0.0828776 0
M  V30 1473 H 172.019 1.84862 -0.87443 0
M  V30 1474 H 170.174 3.82191 0.633142 0
M  V30 1475 H 170.588 5.11416 -1.16421 0
M  V30 1476 H 172.062 5.49707 0.502562 0
M  V30 1477 H 172.539 4.12697 1.50258 0
M  V30 1478 H 173.145 4.24979 -0.165102 0
M  V30 1479 N 171.46 0.379036 1.52974 0
M  V30 1480 C 172.871 -0.0972525 1.86447 0
M  V30 1481 C 173.222 -1.47027 1.29914 0
M  V30 1482 O 172.347 -2.07135 0.626433 0
M  V30 1483 C 172.942 -0.183248 3.38304 0
M  V30 1484 C 171.501 -0.603812 3.71525 0
M  V30 1485 C 170.648 0.240632 2.76254 0
M  V30 1486 H 173.599 0.597316 1.4703 0
M  V30 1487 H 173.62 -1.00432 3.67006 0
M  V30 1488 H 173.132 0.816191 3.79421 0
M  V30 1489 H 171.233 -1.61099 3.35973 0
M  V30 1490 H 171.346 -0.369086 4.77676 0
M  V30 1491 H 169.71 -0.292548 2.53014 0
M  V30 1492 H 170.493 1.23786 3.20206 0
M  V30 1493 N 172.938 -1.57226 0.108567 0
M  V30 1494 C 173.901 -2.13602 -0.831082 0
M  V30 1495 C 174.901 -1.06841 -1.20173 0
M  V30 1496 O 176.091 -1.32666 -1.12895 0
M  V30 1497 C 173.223 -2.66769 -2.12243 0
M  V30 1498 H 174.416 -2.97951 -0.341317 0
M  V30 1499 H 171.969 -1.55667 -0.14057 0
M  V30 1500 H 172.704 -1.85977 -2.65675 0
M  V30 1501 H 172.489 -3.44839 -1.86625 0
M  V30 1502 H 173.979 -3.10332 -2.79435 0
M  V30 1503 N 174.416 0.165178 -1.56732 0
M  V30 1504 C 175.693 0.908443 -1.73224 0
M  V30 1505 C 176.073 2.0013 -0.67165 0
M  V30 1506 O 175.421 2.26353 0.31253 0
M  V30 1507 C 175.631 1.46756 -3.16644 0
M  V30 1508 C 176.979 1.93809 -3.77787 0
M  V30 1509 O 178.003 1.56537 -3.1996 0
M  V30 1510 O 176.862 2.62486 -4.79336 0
M  V30 1511 H 173.956 0.428025 -0.707618 0
M  V30 1512 H 176.502 0.152526 -1.69013 0
M  V30 1513 H 175.274 0.68129 -3.85323 0
M  V30 1514 H 174.897 2.28749 -3.25207 0
M  V30 1515 N 175.894 1.51508 0.433938 0
M  V30 1516 C 177.142 1.6402 1.18075 0
M  V30 1517 C 177.463 0.360328 1.91642 0
M  V30 1518 O 176.733 -0.623945 1.85698 0
M  V30 1519 H 175.313 0.6045 0.43885 0
M  V30 1520 H 177.975 1.88452 0.497178 0
M  V30 1521 H 177.071 2.46949 1.90847 0
M  V30 1522 N 177.372 -0.689602 1.41712 0
M  V30 1523 C 178.282 -1.83314 1.46401 0
M  V30 1524 C 179.298 -1.7036 0.35405 0
M  V30 1525 O 180.474 -1.92171 0.602692 0
M  V30 1526 C 177.539 -3.19344 1.34982 0
M  V30 1527 C 176.6 -3.44363 2.56344 0
M  V30 1528 C 175.833 -4.73904 2.45461 0
M  V30 1529 O 176.056 -5.508 1.48241 0
M  V30 1530 O 174.99 -4.99839 3.35328 0
M  V30 1531 H 178.816 -1.82314 2.42889 0
M  V30 1532 H 176.401 -0.843438 1.23315 0
M  V30 1533 H 178.283 -4.00547 1.3092 0
M  V30 1534 H 176.958 -3.21014 0.41612 0
M  V30 1535 H 175.865 -2.63067 2.65982 0
M  V30 1536 H 177.198 -3.47512 3.48563 0
M  V30 1537 N 178.85 -1.27639 -0.924453 0
M  V30 1538 C 179.813 -1.10681 -2.00705 0
M  V30 1539 C 180.813 -0.0497823 -1.60723 0
M  V30 1540 O 182.003 -0.294654 -1.7169 0
M  V30 1541 C 179.135 -0.687164 -3.33902 0
M  V30 1542 H 180.328 -2.06817 -2.17179 0
M  V30 1543 H 177.881 -1.10473 -1.10569 0
M  V30 1544 H 178.616 0.275439 -3.23128 0
M  V30 1545 H 178.401 -1.45061 -3.6428 0
M  V30 1546 H 179.891 -0.590853 -4.13399 0
M  V30 1547 N 180.328 1.1314 -1.09713 0
M  V30 1548 C 181.553 1.88862 -0.857081 0
M  V30 1549 C 181.978 1.78729 0.586304 0
M  V30 1550 O 181.336 1.13692 1.41222 0
M  V30 1551 C 181.384 3.36325 -1.30069 0
M  V30 1552 O 180.488 4.09815 -0.461007 0
M  V30 1553 H 179.829 0.587108 -0.310162 0
M  V30 1554 H 182.359 1.43129 -1.46203 0
M  V30 1555 H 182.369 3.87157 -1.28738 0
M  V30 1556 H 181.044 3.43017 -2.35185 0
M  V30 1557 H 179.621 3.68986 -0.538888 0
M  V30 1558 N 181.806 0.884767 1.30421 0
M  V30 1559 C 183.054 0.502112 1.95763 0
M  V30 1560 C 183.375 -0.951815 1.70192 0
M  V30 1561 O 182.645 -1.6692 1.0254 0
M  V30 1562 H 181.225 0.182694 0.724315 0
M  V30 1563 H 183.887 1.1278 1.58955 0
M  V30 1564 H 182.983 0.672188 3.04775 0
M  V30 1565 N 183.284 -1.43765 0.645699 0
M  V30 1566 C 184.194 -2.34544 -0.0512957 0
M  V30 1567 C 185.21 -1.53455 -0.82022 0
M  V30 1568 O 186.386 -1.86133 -0.769176 0
M  V30 1569 C 183.451 -3.31636 -1.01087 0
M  V30 1570 C 182.512 -4.2863 -0.239712 0
M  V30 1571 C 181.745 -5.21084 -1.15358 0
M  V30 1572 O 181.968 -5.1779 -2.39269 0
M  V30 1573 O 180.902 -5.98593 -0.630038 0
M  V30 1574 H 184.728 -2.95624 0.695718 0
M  V30 1575 H 182.313 -1.43781 0.405882 0
M  V30 1576 H 184.195 -3.9136 -1.56254 0
M  V30 1577 H 182.87 -2.73069 -1.73824 0
M  V30 1578 H 181.777 -3.72408 0.355356 0
M  V30 1579 H 183.11 -4.90157 0.447936 0
M  V30 1580 N 184.763 -0.387143 -1.52771 0
M  V30 1581 C 185.988 0.198407 -2.06449 0
M  V30 1582 C 186.413 1.39918 -1.25716 0
M  V30 1583 O 185.771 1.79099 -0.281657 0
M  V30 1584 C 185.819 0.548893 -3.56398 0
M  V30 1585 O 184.923 1.64315 -3.78252 0
M  V30 1586 H 184.264 0.0237731 -0.663574 0
M  V30 1587 H 186.794 -0.553989 -1.96957 0
M  V30 1588 H 186.804 0.813812 -3.99801 0
M  V30 1589 H 185.479 -0.329005 -4.14597 0
M  V30 1590 H 184.056 1.37211 -3.46738 0
M  V30 1591 N 186.241 1.57166 -0.116904 0
M  V30 1592 C 187.151 2.18745 0.847812 0
M  V30 1593 C 188.167 1.163 1.29423 0
M  V30 1594 O 189.343 1.48761 1.35765 0
M  V30 1595 C 186.408 2.77307 2.0809 0
M  V30 1596 C 185.469 3.94781 1.68661 0
M  V30 1597 C 184.702 4.50541 2.86091 0
M  V30 1598 O 184.925 4.05202 4.01456 0
M  V30 1599 O 183.859 5.41256 2.63298 0
M  V30 1600 H 187.685 3.01632 0.353778 0
M  V30 1601 H 185.27 1.49005 0.108599 0
M  V30 1602 H 187.152 3.14647 2.80313 0
M  V30 1603 H 185.827 1.97452 2.56504 0
M  V30 1604 H 184.734 3.62214 0.935518 0
M  V30 1605 H 186.067 4.76065 1.24991 0
M  V30 1606 N 187.719 -0.156864 1.56817 0
M  V30 1607 C 189.13 -0.717916 1.72345 0
M  V30 1608 C 189.481 -1.82124 0.729747 0
M  V30 1609 O 188.606 -2.16141 -0.105781 0
M  V30 1610 C 189.201 -1.30904 3.12489 0
M  V30 1611 C 187.76 -1.81676 3.29653 0
M  V30 1612 C 186.907 -0.701349 2.68284 0
M  V30 1613 H 189.858 0.0686989 1.58551 0
M  V30 1614 H 189.879 -2.17882 3.11942 0
M  V30 1615 H 189.391 -0.505796 3.8479 0
M  V30 1616 H 187.492 -2.64598 2.62333 0
M  V30 1617 H 187.605 -1.95226 4.3752 0
M  V30 1618 H 185.969 -1.12548 2.28484 0
M  V30 1619 H 186.752 0.0902846 3.43181 0
M  V30 1620 N 189.197 -1.51736 -0.425897 0
M  V30 1621 C 190.16 -1.73271 -1.50032 0
M  V30 1622 C 191.16 -0.602639 -1.4908 0
M  V30 1623 O 192.35 -0.87033 -1.509 0
M  V30 1624 C 189.482 -1.79969 -2.89523 0
M  V30 1625 H 190.675 -2.69172 -1.32237 0
M  V30 1626 H 188.228 -1.41899 -0.65532 0
M  V30 1627 H 188.963 -0.859241 -3.1271 0
M  V30 1628 H 188.748 -2.62109 -2.91619 0
M  V30 1629 H 190.238 -1.9843 -3.67444 0
M  V30 1630 N 190.675 0.682077 -1.42076 0
M  V30 1631 C 191.622 1.79578 -1.44984 0
M  V30 1632 C 192.592 1.6332 -0.302614 0
M  V30 1633 O 193.777 1.83978 -0.505633 0
M  V30 1634 C 190.917 3.1756 -1.35091 0
M  V30 1635 C 190.03 3.45156 -2.59791 0
M  V30 1636 C 189.165 4.72826 -2.42093 0
M  V30 1637 C 188.204 4.93433 -3.62202 0
M  V30 1638 N 187.341 6.12338 -3.43491 0
M  V30 1639 H 192.181 1.76427 -2.40161 0
M  V30 1640 H 189.718 0.861376 -1.19242 0
M  V30 1641 H 191.676 3.97287 -1.27354 0
M  V30 1642 H 190.306 3.19854 -0.435133 0
M  V30 1643 H 189.358 2.59736 -2.77923 0
M  V30 1644 H 190.67 3.5628 -3.49094 0
M  V30 1645 H 189.824 5.60631 -2.319 0
M  V30 1646 H 188.563 4.63973 -1.50268 0
M  V30 1647 H 187.568 4.04073 -3.72834 0
M  V30 1648 H 188.793 5.04136 -4.54998 0
M  V30 1649 H 186.739 6.04672 -2.54377 0
M  V30 1650 H 186.656 6.2429 -4.26377 0
M  V30 1651 H 187.924 7.02841 -3.37097 0
M  V30 1652 N 192.153 1.28127 0.917671 0
M  V30 1653 C 193.401 1.14825 1.66312 0
M  V30 1654 C 193.722 -0.304379 1.9261 0
M  V30 1655 O 192.992 -1.21149 1.53947 0
M  V30 1656 H 191.572 0.421953 0.616413 0
M  V30 1657 H 194.234 1.608 1.10134 0
M  V30 1658 H 193.33 1.68489 2.62712 0
M  V30 1659 N 193.631 -1.12557 1.10312 0
M  V30 1660 C 194.856 -1.88405 0.867085 0
M  V30 1661 C 195.281 -1.79038 -0.576817 0
M  V30 1662 O 194.639 -1.14439 -1.40618 0
M  V30 1663 C 194.687 -3.3563 1.31851 0
M  V30 1664 O 193.791 -4.09565 0.482734 0
M  V30 1665 H 193.132 -0.585455 0.313271 0
M  V30 1666 H 195.662 -1.42352 1.4696 0
M  V30 1667 H 195.672 -3.86469 1.3079 0
M  V30 1668 H 194.347 -3.41765 2.37001 0
M  V30 1669 H 192.924 -3.68695 0.558448 0
M  V30 1670 N 195.109 -0.891671 -1.2995 0
M  V30 1671 C 196.019 -0.367691 -2.31701 0
M  V30 1672 C 197.035 0.533486 -1.6562 0
M  V30 1673 O 198.211 0.424997 -1.96865 0
M  V30 1674 C 195.276 0.403406 -3.44345 0
M  V30 1675 C 194.337 -0.528328 -4.26037 0
M  V30 1676 C 193.57 0.206063 -5.33302 0
M  V30 1677 O 193.793 1.43119 -5.52153 0
M  V30 1678 O 192.727 -0.447281 -6.00236 0
M  V30 1679 H 196.553 -1.21163 -2.78484 0
M  V30 1680 H 194.138 -0.655725 -1.34241 0
M  V30 1681 H 196.02 0.839753 -4.12948 0
M  V30 1682 H 194.695 1.22354 -2.99685 0
M  V30 1683 H 193.602 -1.01362 -3.60106 0
M  V30 1684 H 194.935 -1.31465 -4.74318 0
M  V30 1685 N 196.587 1.43421 -0.653314 0
M  V30 1686 C 197.497 2.34568 0.0388565 0
M  V30 1687 C 198.513 1.53888 0.81207 0
M  V30 1688 O 199.689 1.86539 0.759294 0
M  V30 1689 C 196.754 3.32167 0.993269 0
M  V30 1690 C 195.815 4.28751 0.216977 0
M  V30 1691 C 195.048 5.21688 1.12593 0
M  V30 1692 O 195.271 5.19052 2.36519 0
M  V30 1693 O 194.205 5.98919 0.598284 0
M  V30 1694 H 198.031 2.95251 -0.711386 0
M  V30 1695 H 195.616 1.43564 -0.413502 0
M  V30 1696 H 197.498 3.92183 1.54176 0
M  V30 1697 H 196.173 2.73987 1.72374 0
M  V30 1698 H 195.08 3.72215 -0.375101 0
M  V30 1699 H 196.413 4.89913 -0.473924 0
M  V30 1700 N 198.065 0.39524 1.52563 0
M  V30 1701 C 199.028 -0.425001 2.25225 0
M  V30 1702 C 200.028 -0.985266 1.27079 0
M  V30 1703 O 201.218 -0.866332 1.5113 0
M  V30 1704 C 198.35 -1.59686 3.01186 0
M  V30 1705 H 199.543 0.211233 2.99155 0
M  V30 1706 H 197.096 0.147472 1.55603 0
M  V30 1707 H 197.831 -2.27035 2.31572 0
M  V30 1708 H 197.616 -1.20176 3.73229 0
M  V30 1709 H 199.106 -2.17743 3.5634 0
M  V30 1710 N 199.544 -1.57102 0.125237 0
M  V30 1711 C 200.491 -2.15641 -0.822655 0
M  V30 1712 C 201.461 -1.08313 -1.25927 0
M  V30 1713 O 202.646 -1.36251 -1.33567 0
M  V30 1714 C 199.786 -2.76504 -2.06494 0
M  V30 1715 C 198.899 -3.98158 -1.67612 0
M  V30 1716 C 198.034 -4.47088 -2.86854 0
M  V30 1717 C 197.073 -5.6126 -2.44242 0
M  V30 1718 N 196.21 -6.04905 -3.56419 0
M  V30 1719 H 201.05 -2.96313 -0.316625 0
M  V30 1720 H 198.587 -1.46388 -0.144588 0
M  V30 1721 H 200.545 -3.09925 -2.79289 0
M  V30 1722 H 199.175 -1.98512 -2.54545 0
M  V30 1723 H 198.227 -3.70858 -0.846661 0
M  V30 1724 H 199.539 -4.80934 -1.32301 0
M  V30 1725 H 198.693 -4.82451 -3.67867 0
M  V30 1726 H 197.432 -3.63275 -3.25396 0
M  V30 1727 H 196.437 -5.25495 -1.61663 0
M  V30 1728 H 197.662 -6.46843 -2.0681 0
M  V30 1729 H 195.608 -5.24032 -3.94623 0
M  V30 1730 H 195.525 -6.82552 -3.25051 0
M  V30 1731 H 196.793 -6.44907 -4.37853 0
M  V30 1732 N 201.022 0.148545 -1.56898 0
M  V30 1733 C 202.27 0.859717 -1.82902 0
M  V30 1734 C 202.591 1.81775 -0.70588 0
M  V30 1735 O 201.861 1.93994 0.272586 0
M  V30 1736 H 200.441 0.320469 -0.674766 0
M  V30 1737 H 203.103 0.142918 -1.94375 0
M  V30 1738 H 202.199 1.4229 -2.77777 0
M  V30 1739 N 202.5 1.5196 0.417844 0
M  V30 1740 C 203.916 1.40569 0.755816 0
M  V30 1741 C 204.116 0.503316 1.95113 0
M  V30 1742 O 203.172 -0.0341925 2.52477 0
M  V30 1743 C 204.485 2.82947 1.01791 0
M  V30 1744 C 206.033 2.92231 1.12116 0
M  V30 1745 C 206.508 4.35559 1.41608 0
M  V30 1746 N 207.999 4.38753 1.48491 0
M  V30 1747 C 208.734 5.46705 1.7292 0
M  V30 1748 N 208.23 6.64788 1.95011 0
M  V30 1749 N 210.023 5.34209 1.74863 0
M  V30 1750 H 202.174 2.09168 -0.369098 0
M  V30 1751 H 204.437 0.942409 -0.102809 0
M  V30 1752 H 204.143 3.5106 0.212081 0
M  V30 1753 H 204.017 3.23462 1.94042 0
M  V30 1754 H 206.404 2.24304 1.9176 0
M  V30 1755 H 206.485 2.55185 0.177225 0
M  V30 1756 H 206.129 5.04042 0.624848 0
M  V30 1757 H 206.059 4.70133 2.37239 0
M  V30 1758 H 208.55 3.5363 1.33244 0
M  V30 1759 H 208.863 7.42845 2.13076 0
M  V30 1760 H 207.208 6.67869 1.92293 0
M  V30 1761 H 210.399 4.40937 1.57137 0
M  V30 1762 H 210.572 6.18415 1.93563 0
M  V30 1763 N 203.978 -0.674533 1.42435 0
M  V30 1764 C 205.225 -1.43459 1.42919 0
M  V30 1765 C 205.553 -1.94446 0.0457312 0
M  V30 1766 O 204.808 -1.7132 -0.94593 0
M  V30 1767 C 205.107 -2.64767 2.40069 0
M  V30 1768 C 204.773 -2.3232 3.86443 0
M  V30 1769 C 203.435 -2.23182 4.26314 0
M  V30 1770 C 205.787 -2.05977 4.78773 0
M  V30 1771 C 203.115 -1.85827 5.56494 0
M  V30 1772 C 205.467 -1.70125 6.09295 0
M  V30 1773 C 204.131 -1.59498 6.48164 0
M  V30 1774 H 203.401 -0.524952 0.522978 0
M  V30 1775 H 206.048 -0.769097 1.75377 0
M  V30 1776 H 204.353 -3.36349 2.00939 0
M  V30 1777 H 206.05 -3.22949 2.37707 0
M  V30 1778 H 202.64 -2.40334 3.54877 0
M  V30 1779 H 206.824 -2.11969 4.48757 0
M  V30 1780 H 202.08 -1.76168 5.8547 0
M  V30 1781 H 206.254 -1.48767 6.80324 0
M  V30 1782 H 203.881 -1.30322 7.48946 0
M  V30 1783 N 205.456 -1.28612 -0.910864 0
M  V30 1784 C 206.872 -1.06381 -1.18976 0
M  V30 1785 C 207.072 0.191998 -2.00583 0
M  V30 1786 O 206.128 0.892869 -2.36187 0
M  V30 1787 C 207.441 -2.31295 -1.92154 0
M  V30 1788 C 208.989 -2.36503 -2.05025 0
M  V30 1789 C 209.464 -3.61191 -2.81612 0
M  V30 1790 N 210.955 -3.61847 -2.89172 0
M  V30 1791 C 211.69 -4.55004 -3.4894 0
M  V30 1792 N 211.186 -5.58482 -4.09963 0
M  V30 1793 N 212.979 -4.42594 -3.46506 0
M  V30 1794 H 205.13 -2.09221 -0.366094 0
M  V30 1795 H 207.393 -0.921003 -0.224629 0
M  V30 1796 H 207.099 -3.228 -1.39618 0
M  V30 1797 H 206.973 -2.37934 -2.9269 0
M  V30 1798 H 209.36 -1.45494 -2.5674 0
M  V30 1799 H 209.441 -2.33857 -1.03657 0
M  V30 1800 H 209.085 -4.52545 -2.30576 0
M  V30 1801 H 209.015 -3.61092 -3.83302 0
M  V30 1802 H 211.506 -2.87022 -2.45819 0
M  V30 1803 H 211.819 -6.25704 -4.53557 0
M  V30 1804 H 210.164 -5.62305 -4.08459 0
M  V30 1805 H 213.355 -3.60953 -2.98045 0
M  V30 1806 H 213.528 -5.15381 -3.92793 0
M  V30 1807 N 206.934 1.1197 -1.10907 0
M  V30 1808 C 208.18 1.8386 -0.855773 0
M  V30 1809 C 208.513 1.84134 0.617103 0
M  V30 1810 O 207.788 1.29041 1.45529 0
M  V30 1811 C 208.071 3.31305 -1.411 0
M  V30 1812 C 207.924 3.39456 -2.9511 0
M  V30 1813 C 209.243 4.2721 -1.05736 0
M  V30 1814 H 206.362 0.667545 -0.312334 0
M  V30 1815 H 209.004 1.31331 -1.37303 0
M  V30 1816 H 207.154 3.76169 -0.97105 0
M  V30 1817 H 208.826 3.03191 -3.47668 0
M  V30 1818 H 207.069 2.79849 -3.31462 0
M  V30 1819 H 207.74 4.43209 -3.29044 0
M  V30 1820 H 210.216 3.90497 -1.43706 0
M  V30 1821 H 209.092 5.28775 -1.47269 0
M  V30 1822 H 209.353 4.42088 0.0325958 0
M  V30 1823 N 208.412 0.89855 1.29475 0
M  V30 1824 C 209.36 0.365253 2.29714 0
M  V30 1825 C 210.354 -0.534993 1.6073 0
M  V30 1826 O 211.56 -0.417921 1.75081 0
M  V30 1827 H 207.935 0.0994853 0.74539 0
M  V30 1828 H 209.906 1.22406 2.72138 0
M  V30 1829 C 208.655 -0.393159 3.4547 0
M  V30 1830 H 207.978 0.290332 3.98744 0
M  V30 1831 H 209.418 -0.731189 4.17648 0
M  V30 1832 C 207.877 -1.59539 2.9673 0
M  V30 1833 O 208.407 -2.69469 2.97908 0
M  V30 1834 N 206.613 -1.43716 2.52575 0
M  V30 1835 H 206.16 -0.542828 2.51816 0
M  V30 1836 H 206.118 -2.24288 2.20323 0
M  V30 1837 N 209.89 -1.43072 0.660911 0
M  V30 1838 C 211.137 -2.01721 0.177445 0
M  V30 1839 C 211.465 -1.5218 -1.21126 0
M  V30 1840 O 210.72 -0.708659 -1.82419 0
M  V30 1841 C 211.019 -3.57103 0.145563 0
M  V30 1842 C 210.685 -4.26021 1.47705 0
M  V30 1843 C 209.347 -4.44563 1.84165 0
M  V30 1844 C 211.699 -4.64983 2.35458 0
M  V30 1845 C 209.027 -4.99334 3.0803 0
M  V30 1846 C 211.379 -5.21127 3.58622 0
M  V30 1847 C 210.043 -5.37884 3.95268 0
M  V30 1848 H 209.313 -0.73815 0.0649317 0
M  V30 1849 H 211.96 -1.71446 0.853144 0
M  V30 1850 H 210.265 -3.86965 -0.61361 0
M  V30 1851 H 211.962 -4.00248 -0.2455 0
M  V30 1852 H 208.552 -4.11939 1.18339 0
M  V30 1853 H 212.736 -4.50343 2.08579 0
M  V30 1854 H 207.992 -5.10493 3.36462 0
M  V30 1855 H 212.166 -5.50262 4.26831 0
M  V30 1856 H 209.793 -5.80089 4.91325 0
M  V30 1857 N 211.368 -0.403325 -1.52352 0
M  V30 1858 C 212.614 0.174605 -2.02047 0
M  V30 1859 C 212.947 1.45282 -1.28867 0
M  V30 1860 O 212.222 1.90483 -0.393257 0
M  V30 1861 C 212.505 0.428238 -3.57545 0
M  V30 1862 C 212.358 -0.866248 -4.4138 0
M  V30 1863 C 213.677 1.21287 -4.23057 0
M  V30 1864 H 210.796 0.0619851 -0.734389 0
M  V30 1865 H 213.438 -0.53565 -1.82293 0
M  V30 1866 H 211.588 1.03327 -3.74507 0
M  V30 1867 H 213.26 -1.50265 -4.3614 0
M  V30 1868 H 211.503 -1.47851 -4.07827 0
M  V30 1869 H 212.174 -0.643249 -5.48239 0
M  V30 1870 H 214.65 0.700703 -4.10158 0
M  V30 1871 H 213.526 1.35909 -5.31808 0
M  V30 1872 H 213.787 2.23193 -3.81625 0
M  V30 1873 N 212.846 1.57033 -0.133567 0
M  V30 1874 C 214.123 1.87256 0.56522 0
M  V30 1875 C 214.503 1.03726 1.83859 0
M  V30 1876 O 213.851 0.120247 2.28183 0
M  V30 1877 C 214.061 3.3865 0.843636 0
M  V30 1878 C 215.409 4.07574 1.19032 0
M  V30 1879 O 216.433 3.43752 0.933429 0
M  V30 1880 O 215.292 5.20259 1.67312 0
M  V30 1881 H 212.386 0.775678 0.286796 0
M  V30 1882 H 214.932 1.68855 -0.169168 0
M  V30 1883 H 213.704 3.91257 -0.0581149 0
M  V30 1884 H 213.327 3.62532 1.63268 0
M  V30 1885 N 214.325 -0.140222 1.56975 0
M  V30 1886 C 215.736 -0.699596 1.73097 0
M  V30 1887 C 216.087 -1.8134 0.749022 0
M  V30 1888 O 215.212 -2.16241 -0.0828503 0
M  V30 1889 C 215.807 -1.27582 3.1386 0
M  V30 1890 C 214.366 -1.78169 3.31561 0
M  V30 1891 C 213.513 -0.672855 2.69013 0
M  V30 1892 H 216.464 0.0855115 1.58469 0
M  V30 1893 H 216.485 -2.14561 3.14235 0
M  V30 1894 H 215.997 -0.464955 3.85305 0
M  V30 1895 H 214.098 -2.61801 2.65124 0
M  V30 1896 H 214.211 -1.90574 4.39566 0
M  V30 1897 H 212.575 -1.10118 2.29665 0
M  V30 1898 H 213.358 0.126679 3.43066 0
M  V30 1899 N 215.803 -1.52179 -0.40978 0
M  V30 1900 C 216.766 -1.74853 -1.48186 0
M  V30 1901 C 217.766 -0.618417 -1.48433 0
M  V30 1902 O 218.956 -0.886286 -1.49969 0
M  V30 1903 C 216.088 -1.8303 -2.87598 0
M  V30 1904 H 217.281 -2.70559 -1.29374 0
M  V30 1905 H 214.834 -1.42586 -0.640233 0
M  V30 1906 H 215.569 -0.89236 -3.11781 0
M  V30 1907 H 215.354 -2.65187 -2.88822 0
M  V30 1908 H 216.844 -2.02316 -3.65319 0
M  V30 1909 N 217.281 0.66697 -1.42791 0
M  V30 1910 C 218.244 1.76211 -1.46568 0
M  V30 1911 C 219.244 1.56896 -0.352196 0
M  V30 1912 O 220.434 1.63044 -0.613364 0
M  V30 1913 C 217.566 3.14935 -1.30494 0
M  V30 1914 H 218.759 1.74247 -2.44086 0
M  V30 1915 H 216.312 0.877342 -1.29354 0
M  V30 1916 H 217.047 3.2252 -0.339301 0
M  V30 1917 H 216.832 3.30359 -2.11199 0
M  V30 1918 H 218.322 3.94821 -1.36038 0
M  V30 1919 N 218.759 1.29093 0.90403 0
M  V30 1920 C 219.984 1.19809 1.69294 0
M  V30 1921 C 220.409 -0.238481 1.86582 0
M  V30 1922 O 219.767 -1.1723 1.383 0
M  V30 1923 C 219.815 1.91202 3.05736 0
M  V30 1924 O 218.919 1.22611 3.93752 0
M  V30 1925 H 218.26 0.415385 0.518027 0
M  V30 1926 H 220.79 1.70586 1.12967 0
M  V30 1927 H 220.8 1.99487 3.55906 0
M  V30 1928 H 219.475 2.95692 2.92471 0
M  V30 1929 H 218.052 1.22554 3.52186 0
M  V30 1930 N 220.237 -1.11381 1.11499 0
M  V30 1931 C 221.462 -1.87475 0.887019 0
M  V30 1932 C 221.887 -1.79639 -0.557796 0
M  V30 1933 O 221.245 -1.15924 -1.39396 0
M  V30 1934 C 221.293 -3.34213 1.35403 0
M  V30 1935 O 220.397 -4.0903 0.526146 0
M  V30 1936 H 219.738 -0.582099 0.319463 0
M  V30 1937 H 222.268 -1.40785 1.48461 0
M  V30 1938 H 222.278 -3.8506 1.34881 0
M  V30 1939 H 220.953 -3.39232 2.40612 0
M  V30 1940 H 219.53 -3.68082 0.597522 0
M  V30 1941 N 221.715 -0.905404 -1.28997 0
M  V30 1942 C 222.94 -0.549175 -1.99997 0
M  V30 1943 C 223.365 0.860276 -1.67275 0
M  V30 1944 O 222.723 1.57355 -0.900502 0
M  V30 1945 C 222.771 -0.755185 -3.52604 0
M  V30 1946 O 221.875 0.189692 -4.11964 0
M  V30 1947 H 221.216 -0.213899 -0.628604 0
M  V30 1948 H 223.746 -1.21856 -1.64354 0
M  V30 1949 H 223.756 -0.662045 -4.02593 0
M  V30 1950 H 222.431 -1.78271 -3.75755 0
M  V30 1951 H 221.008 0.0485257 -3.72868 0
M  V30 1952 N 223.193 1.4272 -0.668489 0
M  V30 1953 C 224.156 2.292 0.00448567 0
M  V30 1954 C 225.156 1.43001 0.735339 0
M  V30 1955 O 226.346 1.64461 0.57429 0
M  V30 1956 C 223.478 3.25375 1.01705 0
M  V30 1957 H 224.671 2.90199 -0.756608 0
M  V30 1958 H 222.224 1.50254 -0.430506 0
M  V30 1959 H 222.959 2.69301 1.80686 0
M  V30 1960 H 222.744 3.88944 0.496463 0
M  V30 1961 H 224.234 3.90245 1.48655 0
M  V30 1962 N 224.671 0.411399 1.52136 0
M  V30 1963 C 225.581 -0.419774 2.30814 0
M  V30 1964 C 226.597 -1.0515 1.38634 0
M  V30 1965 O 227.773 -1.05252 1.71709 0
M  V30 1966 C 224.838 -1.52019 3.11594 0
M  V30 1967 C 223.899 -0.91129 4.19516 0
M  V30 1968 C 223.132 -1.95927 4.96436 0
M  V30 1969 O 223.355 -3.17775 4.73683 0
M  V30 1970 O 222.289 -1.56423 5.81219 0
M  V30 1971 H 226.115 0.221805 3.02889 0
M  V30 1972 H 223.7 0.174547 1.48377 0
M  V30 1973 H 225.582 -2.15898 3.61892 0
M  V30 1974 H 224.257 -2.14633 2.42311 0
M  V30 1975 H 223.164 -0.235157 3.7336 0
M  V30 1976 H 224.497 -0.32904 4.91099 0
M  V30 1977 N 226.149 -1.5696 0.141893 0
M  V30 1978 C 227.426 -1.87553 -0.555281 0
M  V30 1979 C 227.806 -1.04699 -1.83306 0
M  V30 1980 O 227.154 -0.132346 -2.28116 0
M  V30 1981 C 227.364 -3.39093 -0.825664 0
M  V30 1982 C 228.712 -4.08199 -1.16869 0
M  V30 1983 O 229.736 -3.44242 -0.915185 0
M  V30 1984 O 228.595 -5.21139 -1.6455 0
M  V30 1985 H 225.689 -0.777188 -0.282679 0
M  V30 1986 H 228.235 -1.68763 0.17812 0
M  V30 1987 H 227.007 -3.91221 0.0788633 0
M  V30 1988 H 226.63 -3.63393 -1.61343 0
M  V30 1989 N 227.627 0.131896 -1.57047 0
M  V30 1990 C 228.852 0.860418 -1.8871 0
M  V30 1991 C 229.277 1.73251 -0.73251 0
M  V30 1992 O 228.635 1.785 0.317429 0
M  V30 1993 C 228.683 1.68047 -3.19049 0
M  V30 1994 O 227.787 2.7862 -3.04047 0
M  V30 1995 H 227.128 0.238743 -0.619595 0
M  V30 1996 H 229.658 0.118169 -2.04258 0
M  V30 1997 H 229.668 2.07238 -3.51449 0
M  V30 1998 H 228.343 1.04018 -4.02682 0
M  V30 1999 H 226.92 2.42726 -2.83088 0
M  V30 2000 N 229.106 1.52395 0.401703 0
M  V30 2001 C 230.036 1.79231 1.49661 0
M  V30 2002 C 231.017 0.643654 1.57452 0
M  V30 2003 O 232.202 0.889989 1.72606 0
M  V30 2004 C 229.332 1.94971 2.87409 0
M  V30 2005 C 228.286 3.10604 2.94465 0
M  V30 2006 C 227.612 3.11577 4.34538 0
M  V30 2007 C 228.912 4.49921 2.6527 0
M  V30 2008 H 230.606 2.70917 1.27454 0
M  V30 2009 H 228.152 1.30362 0.6117 0
M  V30 2010 H 230.105 2.12328 3.63999 0
M  V30 2011 H 228.829 0.999632 3.10926 0
M  V30 2012 H 227.488 2.93009 2.20321 0
M  V30 2013 H 227.136 2.14277 4.55076 0
M  V30 2014 H 226.836 3.89247 4.40183 0
M  V30 2015 H 228.36 3.31073 5.13053 0
M  V30 2016 H 229.774 4.67683 3.31581 0
M  V30 2017 H 228.171 5.29564 2.82281 0
M  V30 2018 H 229.241 4.57507 1.60671 0
M  V30 2019 N 230.584 -0.659388 1.43143 0
M  V30 2020 C 231.809 -1.45221 1.48073 0
M  V30 2021 C 232.234 -1.87845 0.097995 0
M  V30 2022 O 231.592 -1.56985 -0.90694 0
M  V30 2023 C 231.64 -2.66748 2.42647 0
M  V30 2024 O 230.744 -3.65583 1.90848 0
M  V30 2025 H 230.085 -0.435669 0.501088 0
M  V30 2026 H 232.615 -0.807432 1.87994 0
M  V30 2027 H 232.625 -3.14637 2.59745 0
M  V30 2028 H 231.3 -2.35067 3.43098 0
M  V30 2029 H 229.877 -3.24693 1.83381 0
M  V30 2030 N 232.062 -1.29571 -0.897171 0
M  V30 2031 C 233.339 -1.08365 -1.62839 0
M  V30 2032 C 233.719 0.371331 -2.07808 0
M  V30 2033 O 233.067 1.3606 -1.83576 0
M  V30 2034 C 233.277 -2.0735 -2.80726 0
M  V30 2035 C 234.625 -2.38406 -3.51351 0
M  V30 2036 O 235.649 -2.05564 -2.90898 0
M  V30 2037 O 234.508 -2.9453 -4.60341 0
M  V30 2038 H 231.602 -0.415345 -0.715134 0
M  V30 2039 H 234.148 -1.40952 -0.945018 0
M  V30 2040 H 232.92 -3.05339 -2.44711 0
M  V30 2041 H 232.543 -1.75507 -3.56767 0
M  V30 2042 N 233.54 1.10788 -1.12088 0
M  V30 2043 C 234.503 2.15207 -0.788577 0
M  V30 2044 C 235.503 1.59609 0.195317 0
M  V30 2045 O 236.693 1.74174 -0.0300193 0
M  V30 2046 C 233.825 3.4047 -0.171174 0
M  V30 2047 H 235.018 2.46116 -1.71368 0
M  V30 2048 H 232.571 1.26089 -0.923652 0
M  V30 2049 H 233.306 3.15176 0.763832 0
M  V30 2050 H 233.091 3.82109 -0.879514 0
M  V30 2051 H 234.581 4.17576 0.04496 0
M  V30 2052 N 235.018 0.912232 1.28515 0
M  V30 2053 C 235.981 0.404223 2.25607 0
M  V30 2054 C 236.981 -0.468602 1.53821 0
M  V30 2055 O 238.171 -0.271873 1.72065 0
M  V30 2056 C 235.303 -0.420653 3.38295 0
M  V30 2057 H 236.496 1.26188 2.7206 0
M  V30 2058 H 234.049 0.691495 1.40171 0
M  V30 2059 H 234.784 -1.29777 2.97201 0
M  V30 2060 H 234.569 0.204935 3.91564 0
M  V30 2061 H 236.059 -0.766971 4.10496 0
M  V30 2062 N 236.496 -1.42363 0.676048 0
M  V30 2063 C 237.744 -2.01123 0.198437 0
M  V30 2064 C 238.065 -1.53731 -1.19966 0
M  V30 2065 O 237.335 -0.759518 -1.80577 0
M  V30 2066 H 235.915 -0.743678 0.0703721 0
M  V30 2067 H 238.577 -1.74263 0.872837 0
M  V30 2068 H 237.673 -3.11454 0.200686 0
M  V30 2069 N 237.974 -0.419461 -1.51915 0
M  V30 2070 C 239.22 0.153166 -2.02221 0
M  V30 2071 C 239.553 1.43907 -1.30401 0
M  V30 2072 O 238.828 1.90055 -0.413438 0
M  V30 2073 C 239.111 0.390291 -3.57979 0
M  V30 2074 C 238.964 -0.913014 -4.40436 0
M  V30 2075 C 240.283 1.16794 -4.2432 0
M  V30 2076 H 237.402 0.0541924 -0.735005 0
M  V30 2077 H 240.044 -0.554955 -1.81715 0
M  V30 2078 H 238.194 0.993491 -3.75582 0
M  V30 2079 H 239.866 -1.54882 -4.34522 0
M  V30 2080 H 238.109 -1.52168 -4.06236 0
M  V30 2081 H 238.78 -0.701361 -5.47526 0
M  V30 2082 H 241.256 0.657161 -4.10878 0
M  V30 2083 H 240.132 1.3026 -5.3322 0
M  V30 2084 H 240.393 2.19132 -3.83971 0
M  V30 2085 N 239.452 1.56882 -0.150215 0
M  V30 2086 C 240.7 1.9584 0.499105 0
M  V30 2087 C 241.021 1.03623 1.65188 0
M  V30 2088 O 240.291 0.0984084 1.95653 0
M  V30 2089 H 238.871 0.723119 0.187373 0
M  V30 2090 H 241.533 1.9358 -0.226466 0
M  V30 2091 H 240.629 2.99638 0.873122 0
M  V30 2092 N 240.93 -0.123565 1.57115 0
M  V30 2093 C 242.176 -0.833386 1.84885 0
M  V30 2094 C 242.509 -1.79742 0.735292 0
M  V30 2095 O 241.784 -1.92764 -0.25925 0
M  V30 2096 C 242.067 -1.5873 3.23228 0
M  V30 2097 C 241.92 -0.643183 4.45178 0
M  V30 2098 C 243.239 -2.54453 3.59085 0
M  V30 2099 H 240.358 -0.301518 0.6725 0
M  V30 2100 H 243 -0.097778 1.89748 0
M  V30 2101 H 241.15 -2.21438 3.19214 0
M  V30 2102 H 242.822 -0.0253015 4.61293 0
M  V30 2103 H 241.065 0.0456139 4.33776 0
M  V30 2104 H 241.736 -1.20724 5.38637 0
M  V30 2105 H 244.212 -2.01853 3.63861 0
M  V30 2106 H 243.088 -3.04238 4.5687 0
M  V30 2107 H 243.349 -3.36906 2.86264 0
M  V30 2108 N 242.408 -1.52605 -0.393616 0
M  V30 2109 C 243.685 -1.58001 -1.15304 0
M  V30 2110 C 244.065 -0.370385 -2.07825 0
M  V30 2111 O 243.413 0.641638 -2.19306 0
M  V30 2112 C 243.623 -2.91652 -1.91677 0
M  V30 2113 C 244.971 -3.4522 -2.47201 0
M  V30 2114 O 245.995 -2.93495 -2.01839 0
M  V30 2115 O 244.854 -4.35579 -3.3005 0
M  V30 2116 H 241.948 -0.637068 -0.527327 0
M  V30 2117 H 244.494 -1.64939 -0.399141 0
M  V30 2118 H 243.266 -3.71136 -1.23992 0
M  V30 2119 H 242.889 -2.88077 -2.74039 0
M  V30 2120 N 243.887 0.651787 -1.4349 0
M  V30 2121 C 245.135 1.40888 -1.44897 0
M  V30 2122 C 245.456 1.94856 -0.0749086 0
M  V30 2123 O 244.726 1.74518 0.889956 0
M  V30 2124 H 243.306 0.522887 -0.533478 0
M  V30 2125 H 245.968 0.768609 -1.79104 0
M  V30 2126 H 245.064 2.25052 -2.16236 0
M  V30 2127 N 245.365 1.30045 0.890287 0
M  V30 2128 C 246.776 1.16738 1.45702 0
M  V30 2129 C 247.127 -0.233939 1.948 0
M  V30 2130 O 246.252 -1.13021 1.84541 0
M  V30 2131 C 246.847 2.11313 2.64825 0
M  V30 2132 C 245.406 2.02001 3.17604 0
M  V30 2133 C 244.553 2.01699 1.90296 0
M  V30 2134 H 247.504 1.42392 0.700726 0
M  V30 2135 H 247.525 1.69086 3.40867 0
M  V30 2136 H 247.037 3.13294 2.2906 0
M  V30 2137 H 245.138 1.03142 3.5804 0
M  V30 2138 H 245.251 2.90128 3.81264 0
M  V30 2139 H 243.615 1.46427 2.08402 0
M  V30 2140 H 244.398 3.05402 1.56795 0
M  V30 2141 N 246.843 -1.10192 1.12674 0
M  V30 2142 C 247.791 -2.18694 0.792196 0
M  V30 2143 C 248.785 -1.67938 -0.222058 0
M  V30 2144 O 249.991 -1.79822 -0.0800074 0
M  V30 2145 H 246.366 -0.713223 0.238364 0
M  V30 2146 H 248.337 -2.44149 1.71564 0
M  V30 2147 C 247.086 -3.46682 0.265859 0
M  V30 2148 H 246.409 -3.86101 1.03761 0
M  V30 2149 H 247.849 -4.23942 0.0701128 0
M  V30 2150 C 246.308 -3.21506 -1.00675 0
M  V30 2151 O 246.838 -3.43408 -2.08408 0
M  V30 2152 N 245.044 -2.75158 -0.934692 0
M  V30 2153 H 244.591 -2.57535 -0.0578604 0
M  V30 2154 H 244.549 -2.58691 -1.7868 0
M  V30 2155 N 248.321 -0.919034 -1.28029 0
M  V30 2156 C 249.567 -0.555757 -1.95036 0
M  V30 2157 C 249.9 0.899198 -1.72128 0
M  V30 2158 O 249.175 1.64023 -1.04531 0
M  V30 2159 C 249.458 -0.872024 -3.49382 0
M  V30 2160 C 249.311 -2.3801 -3.81669 0
M  V30 2161 C 250.63 -0.37185 -4.38526 0
M  V30 2162 H 247.749 -0.203386 -0.708381 0
M  V30 2163 H 250.391 -1.14924 -1.51303 0
M  V30 2164 H 248.541 -0.366946 -3.86763 0
M  V30 2165 H 250.213 -2.9562 -3.54128 0
M  V30 2166 H 248.456 -2.83289 -3.28526 0
M  V30 2167 H 249.127 -2.55192 -4.8947 0
M  V30 2168 H 251.603 -0.804602 -4.08247 0
M  V30 2169 H 250.479 -0.622173 -5.45362 0
M  V30 2170 H 250.74 0.727934 -4.36066 0
M  V30 2171 N 249.799 1.42003 -0.683588 0
M  V30 2172 C 251.024 2.06265 -0.216647 0
M  V30 2173 C 251.449 1.51059 1.12083 0
M  V30 2174 O 250.807 0.632638 1.69904 0
M  V30 2175 C 250.855 3.60191 -0.171759 0
M  V30 2176 O 249.959 4.03396 0.857069 0
M  V30 2177 H 249.3 0.65502 -0.108834 0
M  V30 2178 H 251.83 1.81982 -0.935077 0
M  V30 2179 H 251.84 4.08 0.0014303 0
M  V30 2180 H 250.515 3.99743 -1.14796 0
M  V30 2181 H 249.092 3.67117 0.654208 0
M  V30 2182 N 251.277 0.427512 1.51691 0
M  V30 2183 C 252.524 -0.142229 2.02 0
M  V30 2184 C 252.852 -1.43566 1.31221 0
M  V30 2185 O 252.107 -1.91298 0.412744 0
M  V30 2186 C 252.406 -0.418249 3.54944 0
M  V30 2187 C 252.072 0.788187 4.43958 0
M  V30 2188 C 250.734 1.11906 4.68007 0
M  V30 2189 C 253.086 1.59347 4.96244 0
M  V30 2190 C 250.414 2.25608 5.41588 0
M  V30 2191 C 252.766 2.7214 5.71072 0
M  V30 2192 C 251.43 3.05692 5.93387 0
M  V30 2193 H 250.7 -0.0520451 0.73917 0
M  V30 2194 H 253.347 0.572697 1.82736 0
M  V30 2195 H 251.652 -1.21496 3.72486 0
M  V30 2196 H 253.349 -0.872339 3.91397 0
M  V30 2197 H 249.939 0.520344 4.2543 0
M  V30 2198 H 254.123 1.35106 4.77556 0
M  V30 2199 H 249.379 2.51929 5.57083 0
M  V30 2200 H 253.553 3.34914 6.10578 0
M  V30 2201 H 251.18 3.9391 6.50184 0
M  V30 2202 N 252.755 -1.56801 0.158532 0
M  V30 2203 C 253.687 -2.14488 -0.807923 0
M  V30 2204 C 254.7 -1.09721 -1.20271 0
M  V30 2205 O 255.889 -1.36956 -1.14478 0
M  V30 2206 C 252.989 -2.66217 -2.09718 0
M  V30 2207 C 252.162 -3.95507 -1.86796 0
M  V30 2208 C 251.221 -4.3243 -2.99818 0
M  V30 2209 O 250.247 -5.00543 -2.71008 0
M  V30 2210 N 251.449 -3.92947 -4.27285 0
M  V30 2211 H 254.214 -2.98042 -0.314816 0
M  V30 2212 H 251.775 -1.61881 -0.0246692 0
M  V30 2213 H 253.767 -2.87924 -2.84398 0
M  V30 2214 H 252.337 -1.87324 -2.50257 0
M  V30 2215 H 251.557 -3.82309 -0.96089 0
M  V30 2216 H 252.845 -4.79972 -1.68833 0
M  V30 2217 H 252.243 -3.38087 -4.53557 0
M  V30 2218 H 250.8 -4.19681 -4.9871 0
M  V30 2219 N 254.233 0.115231 -1.57178 0
M  V30 2220 C 255.181 1.16014 -2.01602 0
M  V30 2221 C 256.175 1.42653 -0.913587 0
M  V30 2222 O 257.381 1.42571 -1.09879 0
M  V30 2223 H 253.756 0.391252 -0.642204 0
M  V30 2224 H 255.727 0.758998 -2.88586 0
M  V30 2225 C 254.476 2.47767 -2.4394 0
M  V30 2226 H 253.799 2.28108 -3.28339 0
M  V30 2227 H 255.239 3.19432 -2.78818 0
M  V30 2228 C 253.698 3.10617 -1.30455 0
M  V30 2229 O 254.228 3.96846 -0.622585 0
M  V30 2230 N 252.434 2.70553 -1.06064 0
M  V30 2231 H 251.981 2.00527 -1.61699 0
M  V30 2232 H 251.939 3.12934 -0.303284 0
M  V30 2233 N 255.711 1.52812 0.385517 0
M  V30 2234 C 256.959 1.67694 1.12797 0
M  V30 2235 C 257.28 0.421115 1.90399 0
M  V30 2236 O 256.55 -0.564551 1.87589 0
M  V30 2237 H 255.13 0.618155 0.419396 0
M  V30 2238 H 257.792 1.89938 0.436972 0
M  V30 2239 H 256.888 2.52896 1.82894 0
M  V30 2240 N 257.189 -0.644168 1.43834 0
M  V30 2241 C 258.437 -1.40117 1.45642 0
M  V30 2242 C 258.758 -1.94814 0.0852413 0
M  V30 2243 O 258.028 -1.74988 -0.880688 0
M  V30 2244 H 256.608 -0.52005 0.536243 0
M  V30 2245 H 259.27 -0.7591 1.7951 0
M  V30 2246 H 258.366 -2.23902 2.17427 0
M  V30 2247 N 258.668 -1.30515 -0.883378 0
M  V30 2248 C 259.945 -1.10086 -1.6168 0
M  V30 2249 C 260.325 0.349269 -2.08191 0
M  V30 2250 O 259.673 1.34105 -1.85008 0
M  V30 2251 C 259.883 -2.10315 -2.78511 0
M  V30 2252 C 261.231 -2.42119 -3.48803 0
M  V30 2253 O 262.255 -2.08638 -2.88702 0
M  V30 2254 O 261.114 -2.99396 -4.57192 0
M  V30 2255 H 258.208 -0.422907 -0.710689 0
M  V30 2256 H 260.754 -1.41947 -0.930015 0
M  V30 2257 H 259.526 -3.07917 -2.41459 0
M  V30 2258 H 259.149 -1.79282 -3.54886 0
M  V30 2259 N 260.146 1.09593 -1.13257 0
M  V30 2260 C 261.374 1.855 -0.916378 0
M  V30 2261 C 261.789 1.81069 0.534738 0
M  V30 2262 O 261.146 1.20562 1.37007 0
M  V30 2263 C 261.197 3.33546 -1.39388 0
M  V30 2264 O 260.918 3.37927 -2.78813 0
M  V30 2265 C 262.419 4.26299 -1.21588 0
M  V30 2266 H 259.639 0.585991 -0.326887 0
M  V30 2267 H 262.183 1.38488 -1.5047 0
M  V30 2268 H 260.338 3.77992 -0.848597 0
M  V30 2269 H 260.752 4.30254 -2.9997 0
M  V30 2270 H 262.226 5.28341 -1.59876 0
M  V30 2271 H 262.703 4.38918 -0.157376 0
M  V30 2272 H 263.309 3.87668 -1.7491 0
M  V30 2273 N 261.624 0.925811 1.2754 0
M  V30 2274 C 262.87 0.566092 1.94739 0
M  V30 2275 C 263.203 -0.890057 1.72603 0
M  V30 2276 O 262.478 -1.63467 1.05399 0
M  V30 2277 C 262.761 0.89054 3.48915 0
M  V30 2278 C 262.614 2.4003 3.80402 0
M  V30 2279 C 263.933 0.395101 4.38323 0
M  V30 2280 H 261.052 0.20714 0.707292 0
M  V30 2281 H 263.694 1.15725 1.50691 0
M  V30 2282 H 261.844 0.387452 3.86563 0
M  V30 2283 H 263.516 2.97494 3.52555 0
M  V30 2284 H 261.759 2.85028 3.2702 0
M  V30 2285 H 262.43 2.57785 4.8811 0
M  V30 2286 H 264.906 0.826241 4.07814 0
M  V30 2287 H 263.782 0.651086 5.45025 0
M  V30 2288 H 264.043 -0.704798 4.36446 0
M  V30 2289 N 263.102 -1.41638 0.69111 0
M  V30 2290 C 264.032 -2.3347 0.037248 0
M  V30 2291 C 265.013 -1.51575 -0.771947 0
M  V30 2292 O 266.198 -1.80126 -0.72582 0
M  V30 2293 C 263.328 -3.35354 -0.903064 0
M  V30 2294 C 262.282 -4.27526 -0.201288 0
M  V30 2295 C 261.608 -5.19747 -1.25565 0
M  V30 2296 C 262.908 -5.13959 0.929689 0
M  V30 2297 H 264.602 -2.88397 0.804227 0
M  V30 2298 H 262.148 -1.38669 0.388189 0
M  V30 2299 H 264.101 -3.98519 -1.36969 0
M  V30 2300 H 262.825 -2.78767 -1.70166 0
M  V30 2301 H 261.484 -3.65779 0.245265 0
M  V30 2302 H 261.132 -4.59479 -2.04666 0
M  V30 2303 H 260.832 -5.8225 -0.791128 0
M  V30 2304 H 262.356 -5.85789 -1.72288 0
M  V30 2305 H 263.77 -5.70718 0.543546 0
M  V30 2306 H 262.167 -5.85379 1.32103 0
M  V30 2307 H 263.237 -4.51389 1.77133 0
M  V30 2308 N 264.58 -0.43555 -1.51462 0
M  V30 2309 C 265.805 0.132627 -2.06976 0
M  V30 2310 C 266.23 1.35848 -1.30104 0
M  V30 2311 O 265.588 1.78112 -0.338493 0
M  V30 2312 C 265.636 0.43523 -3.57964 0
M  V30 2313 O 264.74 1.52198 -3.83288 0
M  V30 2314 H 264.081 0.00265 -0.663995 0
M  V30 2315 H 266.611 -0.616369 -1.95095 0
M  V30 2316 H 266.621 0.686206 -4.02188 0
M  V30 2317 H 265.296 -0.460739 -4.1334 0
M  V30 2318 H 263.873 1.2611 -3.50928 0
M  V30 2319 N 266.058 1.56714 -0.166846 0
M  V30 2320 C 266.968 2.21331 0.777791 0
M  V30 2321 C 267.984 1.20358 1.25658 0
M  V30 2322 O 269.16 1.53005 1.30964 0
M  V30 2323 C 266.225 2.83787 1.99163 0
M  V30 2324 C 265.286 3.99947 1.56016 0
M  V30 2325 C 264.519 4.59415 2.71613 0
M  V30 2326 O 264.742 4.17769 3.88362 0
M  V30 2327 O 263.676 5.49359 2.45945 0
M  V30 2328 H 267.502 3.02605 0.257636 0
M  V30 2329 H 265.087 1.49275 0.0611393 0
M  V30 2330 H 266.969 3.23405 2.70161 0
M  V30 2331 H 265.644 2.05513 2.50092 0
M  V30 2332 H 264.551 3.65007 0.819809 0
M  V30 2333 H 265.884 4.79801 1.09782 0
M  V30 2334 N 267.536 -0.106894 1.57237 0
M  V30 2335 C 268.784 -0.810921 1.85117 0
M  V30 2336 C 269.105 -1.7984 0.753827 0
M  V30 2337 O 268.375 -1.94649 -0.221056 0
M  V30 2338 H 266.955 -0.302466 0.683025 0
M  V30 2339 H 269.617 -0.0913324 1.94686 0
M  V30 2340 H 268.713 -1.34875 2.81452 0
M  V30 2341 N 269.014 -1.53014 -0.377408 0
M  V30 2342 C 270.239 -1.72818 -1.14668 0
M  V30 2343 C 270.664 -0.450725 -1.8262 0
M  V30 2344 O 270.022 0.59439 -1.7128 0
M  V30 2345 C 270.07 -2.88627 -2.16164 0
M  V30 2346 O 269.174 -2.56409 -3.22998 0
M  V30 2347 H 268.515 -0.574301 -0.333278 0
M  V30 2348 H 271.045 -1.99853 -0.438152 0
M  V30 2349 H 271.055 -3.14455 -2.59966 0
M  V30 2350 H 269.73 -3.81294 -1.66095 0
M  V30 2351 H 268.307 -2.4136 -2.84253 0
M  V30 2352 N 270.492 0.636531 -1.44174 0
M  V30 2353 C 271.717 1.42847 -1.50364 0
M  V30 2354 C 272.142 1.87665 -0.127867 0
M  V30 2355 O 271.5 1.58408 0.88185 0
M  V30 2356 C 271.548 2.62854 -2.4686 0
M  V30 2357 O 270.652 3.62501 -1.9664 0
M  V30 2358 H 269.993 0.427642 -0.507955 0
M  V30 2359 H 272.523 0.777422 -1.89255 0
M  V30 2360 H 272.533 3.10465 -2.64718 0
M  V30 2361 H 271.208 2.29578 -3.46795 0
M  V30 2362 H 269.785 3.21735 -1.88523 0
M  V30 2363 N 271.97 1.30982 0.876444 0
M  V30 2364 C 272.9 1.20668 1.99903 0
M  V30 2365 C 273.881 0.095354 1.69833 0
M  V30 2366 O 275.066 0.27885 1.92188 0
M  V30 2367 C 272.196 0.90655 3.3526 0
M  V30 2368 C 271.15 1.97675 3.79617 0
M  V30 2369 C 270.476 1.52943 5.1236 0
M  V30 2370 C 271.776 3.389 3.97422 0
M  V30 2371 H 273.47 2.14586 2.0879 0
M  V30 2372 H 271.016 1.03308 1.00317 0
M  V30 2373 H 272.969 0.821025 4.13324 0
M  V30 2374 H 271.693 -0.0682969 3.26529 0
M  V30 2375 H 270.352 2.05205 3.03787 0
M  V30 2376 H 270 0.54262 5.00065 0
M  V30 2377 H 269.7 2.24532 5.43009 0
M  V30 2378 H 271.224 1.45786 5.92941 0
M  V30 2379 H 272.638 3.34081 4.659 0
M  V30 2380 H 271.035 4.0865 4.3946 0
M  V30 2381 H 272.105 3.80163 3.01006 0
M  V30 2382 N 273.449 -1.08991 1.13837 0
M  V30 2383 C 274.399 -2.1393 0.788535 0
M  V30 2384 C 275.383 -1.59396 -0.219516 0
M  V30 2385 O 276.575 -1.76985 -0.0227557 0
M  V30 2386 C 273.704 -3.42305 0.261147 0
M  V30 2387 C 272.79 -4.03736 1.29837 0
M  V30 2388 N 273.181 -4.39659 2.50067 0
M  V30 2389 C 271.479 -4.30993 1.1472 0
M  V30 2390 C 272.18 -4.88113 3.16419 0
M  V30 2391 N 271.156 -4.85846 2.43832 0
M  V30 2392 H 274.958 -2.39516 1.70322 0
M  V30 2393 H 272.472 -1.26263 1.02134 0
M  V30 2394 H 274.469 -4.16899 -0.0077405 0
M  V30 2395 H 273.129 -3.18172 -0.647805 0
M  V30 2396 H 274.14 -4.30878 2.8734 0
M  V30 2397 H 270.817 -4.16444 0.296773 0
M  V30 2398 H 272.207 -5.25336 4.18894 0
M  V30 2399 N 274.927 -0.932562 -1.27047 0
M  V30 2400 C 276.152 -0.591474 -1.98787 0
M  V30 2401 C 276.577 0.824601 -1.69062 0
M  V30 2402 O 275.935 1.5541 -0.933677 0
M  V30 2403 C 275.983 -0.829808 -3.50922 0
M  V30 2404 O 275.087 0.102266 -4.12273 0
M  V30 2405 H 274.428 -0.227185 -0.623926 0
M  V30 2406 H 276.958 -1.25314 -1.61733 0
M  V30 2407 H 276.968 -0.747292 -4.01098 0
M  V30 2408 H 275.643 -1.86201 -3.7189 0
M  V30 2409 H 274.22 -0.0305761 -3.72887 0
M  V30 2410 N 276.405 1.4127 -0.698611 0
M  V30 2411 C 277.653 2.00782 -0.230409 0
M  V30 2412 C 277.974 1.5562 1.17505 0
M  V30 2413 O 277.244 0.78815 1.79346 0
M  V30 2414 H 275.824 0.742464 -0.0821944 0
M  V30 2415 H 278.486 1.72852 -0.90045 0
M  V30 2416 H 277.582 3.11095 -0.25021 0
M  V30 2417 N 277.883 0.443576 1.51229 0
M  V30 2418 C 279.131 -0.120557 2.0174 0
M  V30 2419 C 279.452 -1.42665 1.32935 0
M  V30 2420 O 278.722 -1.9028 0.465866 0
M  V30 2421 H 277.302 -0.0475426 0.745486 0
M  V30 2422 H 279.964 0.587711 1.85828 0
M  V30 2423 H 279.06 -0.291972 3.10731 0
M  V30 2424 N 279.361 -1.56624 0.175154 0
M  V30 2425 C 280.609 -1.96609 -0.467885 0
M  V30 2426 C 280.93 -1.06238 -1.63519 0
M  V30 2427 O 280.2 -0.129523 -1.95471 0
M  V30 2428 H 278.78 -0.726008 -0.175845 0
M  V30 2429 H 281.442 -1.93195 0.257234 0
M  V30 2430 H 280.538 -3.00989 -0.825342 0
M  V30 2431 N 280.839 0.0985539 -1.57292 0
M  V30 2432 C 282.087 0.801092 -1.85545 0
M  V30 2433 C 282.408 1.79438 -0.763353 0
M  V30 2434 O 281.678 1.94763 0.21073 0
M  V30 2435 H 280.258 0.29884 -0.684619 0
M  V30 2436 H 282.92 0.0810064 -1.94732 0
M  V30 2437 H 282.016 1.3338 -2.82163 0
M  V30 2438 N 282.317 1.53212 0.369288 0
M  V30 2439 C 283.565 1.68881 1.11012 0
M  V30 2440 C 283.886 0.441285 1.89941 0
M  V30 2441 O 283.156 -0.544623 1.88177 0
M  V30 2442 H 281.736 0.622569 0.412816 0
M  V30 2443 H 284.398 1.90391 0.416802 0
M  V30 2444 H 283.494 2.54822 1.80201 0
M  V30 2445 N 283.795 -0.628877 1.44509 0
M  V30 2446 C 285.02 -1.42048 1.5112 0
M  V30 2447 C 285.445 -1.87594 0.137818 0
M  V30 2448 O 284.803 -1.58873 -0.873437 0
M  V30 2449 C 284.851 -2.61541 2.48251 0
M  V30 2450 O 283.955 -3.61453 1.98559 0
M  V30 2451 H 283.296 -0.424942 0.510216 0
M  V30 2452 H 285.826 -0.767374 1.89664 0
M  V30 2453 H 285.836 -3.09057 2.66361 0
M  V30 2454 H 284.511 -2.27736 3.48007 0
M  V30 2455 H 283.088 -3.20731 1.90227 0
M  V30 2456 N 285.273 -1.31445 -0.869486 0
M  V30 2457 C 286.521 -1.20918 -1.61936 0
M  V30 2458 C 286.842 0.232683 -1.93607 0
M  V30 2459 O 286.112 1.15352 -1.58338 0
M  V30 2460 H 284.692 -0.44454 -0.600328 0
M  V30 2461 H 287.354 -1.64776 -1.0409 0
M  V30 2462 H 286.45 -1.78124 -2.56278 0
M  V30 2463 N 286.751 1.08385 -1.14413 0
M  V30 2464 C 287.701 2.13509 -0.79987 0
M  V30 2465 C 288.685 1.5951 0.211059 0
M  V30 2466 O 289.877 1.76995 0.0133694 0
M  V30 2467 C 287.006 3.42162 -0.279297 0
M  V30 2468 C 286.092 4.03042 -1.31976 0
M  V30 2469 N 286.483 4.38327 -2.52395 0
M  V30 2470 C 284.781 4.30379 -1.17004 0
M  V30 2471 C 285.482 4.86428 -3.19003 0
M  V30 2472 N 284.458 4.84547 -2.46405 0
M  V30 2473 H 288.26 2.38609 -1.7159 0
M  V30 2474 H 285.774 1.2572 -1.02802 0
M  V30 2475 H 287.771 4.16898 -0.0143688 0
M  V30 2476 H 286.431 3.18511 0.630923 0
M  V30 2477 H 287.442 4.29349 -2.89621 0
M  V30 2478 H 284.119 4.16281 -0.318854 0
M  V30 2479 H 285.509 5.23107 -4.21674 0
M  V30 2480 N 288.23 0.939286 1.26551 0
M  V30 2481 C 289.18 0.418284 2.2413 0
M  V30 2482 C 290.164 -0.483935 1.5345 0
M  V30 2483 O 291.356 -0.319489 1.74093 0
M  V30 2484 C 288.485 -0.31709 3.41832 0
M  V30 2485 C 287.571 0.602311 4.19801 0
M  V30 2486 N 287.962 1.72726 4.75394 0
M  V30 2487 C 286.26 0.407534 4.44134 0
M  V30 2488 C 286.961 2.30004 5.34297 0
M  V30 2489 N 285.937 1.58828 5.1988 0
M  V30 2490 H 289.739 1.27705 2.64705 0
M  V30 2491 H 287.253 0.794929 1.41614 0
M  V30 2492 H 289.25 -0.707364 4.10855 0
M  V30 2493 H 287.91 -1.17264 3.02786 0
M  V30 2494 H 288.921 2.10944 4.72994 0
M  V30 2495 H 285.598 -0.406406 4.15517 0
M  V30 2496 H 286.988 3.24778 5.88191 0
M  V30 2497 N 289.708 -1.40897 0.706093 0
M  V30 2498 C 290.64 -2.29199 0.00815776 0
M  V30 2499 C 291.653 -1.45336 -0.733582 0
M  V30 2500 O 292.842 -1.68727 -0.582537 0
M  V30 2501 C 289.942 -3.23417 -1.01265 0
M  V30 2502 C 289.115 -4.36089 -0.338387 0
M  V30 2503 C 288.174 -5.10811 -1.26326 0
M  V30 2504 O 287.2 -5.64215 -0.751651 0
M  V30 2505 N 288.402 -5.19269 -2.595 0
M  V30 2506 H 291.167 -2.89738 0.766297 0
M  V30 2507 H 288.728 -1.52164 0.55296 0
M  V30 2508 H 290.72 -3.70276 -1.63334 0
M  V30 2509 H 289.29 -2.64112 -1.67223 0
M  V30 2510 H 288.51 -3.91479 0.462352 0
M  V30 2511 H 289.798 -5.08634 0.130031 0
M  V30 2512 H 289.196 -4.77347 -3.03573 0
M  V30 2513 H 287.753 -5.69667 -3.16737 0
M  V30 2514 N 291.186 -0.45159 -1.50991 0
M  V30 2515 C 292.136 0.370861 -2.24964 0
M  V30 2516 C 293.12 0.978074 -1.2776 0
M  V30 2517 O 294.312 0.893854 -1.52772 0
M  V30 2518 C 291.441 1.46344 -3.10545 0
M  V30 2519 C 290.527 0.864924 -4.15187 0
M  V30 2520 N 290.918 -0.00311354 -5.058 0
M  V30 2521 C 289.216 1.13099 -4.31422 0
M  V30 2522 C 289.917 -0.340772 -5.80701 0
M  V30 2523 N 288.893 0.279203 -5.42883 0
M  V30 2524 H 292.695 -0.298134 -2.92384 0
M  V30 2525 H 290.209 -0.264528 -1.60231 0
M  V30 2526 H 292.206 2.06565 -3.62128 0
M  V30 2527 H 290.866 2.13463 -2.4467 0
M  V30 2528 H 291.877 -0.37058 -5.16572 0
M  V30 2529 H 288.554 1.79861 -3.76771 0
M  V30 2530 H 289.944 -1.048 -6.63677 0
M  V30 2531 N 292.664 1.56529 -0.183458 0
M  V30 2532 C 293.894 2.01331 0.463612 0
M  V30 2533 C 294.302 1.06278 1.5653 0
M  V30 2534 O 293.645 0.0577976 1.83609 0
M  V30 2535 C 293.707 3.42547 1.09096 0
M  V30 2536 C 293.371 4.56817 0.129442 0
M  V30 2537 C 294.368 5.15734 -0.656807 0
M  V30 2538 C 292.053 5.02295 0.02174 0
M  V30 2539 C 294.047 6.1857 -1.53784 0
M  V30 2540 C 291.734 6.04978 -0.862864 0
M  V30 2541 C 292.732 6.62988 -1.64123 0
M  V30 2542 O 292.42 7.63677 -2.51103 0
M  V30 2543 H 292.152 0.664917 0.121907 0
M  V30 2544 H 294.706 2.034 -0.285954 0
M  V30 2545 H 292.936 3.37428 1.88889 0
M  V30 2546 H 294.625 3.71228 1.64148 0
M  V30 2547 H 295.391 4.81473 -0.583839 0
M  V30 2548 H 291.27 4.56847 0.617392 0
M  V30 2549 H 294.814 6.63777 -2.14583 0
M  V30 2550 H 290.711 6.38663 -0.93699 0
M  V30 2551 H 291.479 7.81049 -2.44753 0
M  V30 2552 N 294.142 -0.090211 1.57342 0
M  V30 2553 C 295.372 -0.805055 1.90269 0
M  V30 2554 C 295.78 -1.72561 0.775842 0
M  V30 2555 O 295.123 -1.81839 -0.260843 0
M  V30 2556 C 295.185 -1.66734 3.18497 0
M  V30 2557 C 294.849 -0.918092 4.47683 0
M  V30 2558 C 295.846 -0.245674 5.19319 0
M  V30 2559 C 293.531 -0.890724 4.94339 0
M  V30 2560 C 295.525 0.444088 6.35851 0
M  V30 2561 C 293.212 -0.197179 6.10782 0
M  V30 2562 C 294.21 0.469044 6.81388 0
M  V30 2563 O 293.898 1.15146 7.95611 0
M  V30 2564 H 293.63 -0.235143 0.633785 0
M  V30 2565 H 296.184 -0.0703805 2.05279 0
M  V30 2566 H 294.414 -2.44437 2.99646 0
M  V30 2567 H 296.103 -2.25919 3.37217 0
M  V30 2568 H 296.869 -0.258246 4.84312 0
M  V30 2569 H 292.748 -1.39873 4.39268 0
M  V30 2570 H 296.292 0.964667 6.90898 0
M  V30 2571 H 292.189 -0.18247 6.45242 0
M  V30 2572 H 292.957 1.05885 8.11622 0
M  V30 2573 N 295.62 -1.53406 -0.361157 0
M  V30 2574 C 296.85 -1.73465 -1.1222 0
M  V30 2575 C 297.258 -0.465486 -1.83384 0
M  V30 2576 O 296.601 0.571611 -1.7458 0
M  V30 2577 C 296.663 -2.84834 -2.19339 0
M  V30 2578 C 296.327 -4.25038 -1.67903 0
M  V30 2579 C 297.324 -5.07231 -1.14074 0
M  V30 2580 C 295.009 -4.71464 -1.73282 0
M  V30 2581 C 297.003 -6.33942 -0.663068 0
M  V30 2582 C 294.69 -5.98153 -1.25127 0
M  V30 2583 C 295.688 -6.79223 -0.717296 0
M  V30 2584 O 295.376 -8.03533 -0.242865 0
M  V30 2585 H 295.108 -0.583526 -0.341283 0
M  V30 2586 H 297.662 -2.00964 -0.424591 0
M  V30 2587 H 295.892 -2.5282 -2.92607 0
M  V30 2588 H 297.581 -2.9303 -2.80871 0
M  V30 2589 H 298.347 -4.72534 -1.09254 0
M  V30 2590 H 294.226 -4.08432 -2.13786 0
M  V30 2591 H 297.77 -6.97167 -0.245612 0
M  V30 2592 H 293.667 -6.32347 -1.29642 0
M  V30 2593 H 294.435 -8.177 -0.361786 0
M  V30 2594 N 297.098 0.621204 -1.44841 0
M  V30 2595 C 298.375 1.38 -1.38619 0
M  V30 2596 C 298.755 2.11041 -0.0498935 0
M  V30 2597 O 298.103 2.06992 0.967816 0
M  V30 2598 C 298.313 2.33817 -2.59096 0
M  V30 2599 C 299.661 2.96844 -3.03593 0
M  V30 2600 O 300.685 2.44141 -2.59371 0
M  V30 2601 O 299.544 3.92476 -3.80296 0
M  V30 2602 H 296.638 0.61811 -0.549426 0
M  V30 2603 H 299.184 0.645429 -1.56947 0
M  V30 2604 H 297.956 1.79012 -3.47952 0
M  V30 2605 H 297.579 3.14676 -2.43032 0
M  V30 2606 N 298.576 1.31904 0.862503 0
M  V30 2607 C 299.804 1.24998 1.64873 0
M  V30 2608 C 300.219 -0.183425 1.87907 0
M  V30 2609 O 299.576 -1.11794 1.44251 0
M  V30 2610 C 299.627 1.99829 3.01248 0
M  V30 2611 O 299.348 3.37575 2.79239 0
M  V30 2612 C 300.849 1.99852 3.95694 0
M  V30 2613 H 298.069 0.431599 0.513773 0
M  V30 2614 H 300.613 1.73901 1.07604 0
M  V30 2615 H 298.768 1.54668 3.55185 0
M  V30 2616 H 299.182 3.75776 3.65914 0
M  V30 2617 H 300.656 2.56709 4.88676 0
M  V30 2618 H 301.133 0.982852 4.28062 0
M  V30 2619 H 301.739 2.44926 3.47694 0
M  V30 2620 N 300.054 -1.07777 1.14986 0
M  V30 2621 C 301.004 -2.13082 0.811181 0
M  V30 2622 C 301.988 -1.59619 -0.202597 0
M  V30 2623 O 303.18 -1.77 -0.00398275 0
M  V30 2624 C 300.309 -3.42009 0.297439 0
M  V30 2625 C 299.395 -4.02337 1.34112 0
M  V30 2626 N 299.786 -4.36982 2.54716 0
M  V30 2627 C 298.084 -4.29752 1.19285 0
M  V30 2628 C 298.785 -4.84729 3.21578 0
M  V30 2629 N 297.761 -4.83233 2.48972 0
M  V30 2630 H 301.563 -2.37696 1.72853 0
M  V30 2631 H 299.077 -1.25173 1.03468 0
M  V30 2632 H 301.074 -4.16884 0.0364777 0
M  V30 2633 H 299.734 -3.18841 -0.614022 0
M  V30 2634 H 300.745 -4.27807 2.91894 0
M  V30 2635 H 297.422 -4.16106 0.340926 0
M  V30 2636 H 298.812 -5.20863 4.24442 0
M  V30 2637 N 301.532 -0.945985 -1.26051 0
M  V30 2638 C 302.76 -0.613025 -1.9761 0
M  V30 2639 C 303.175 0.813035 -1.70397 0
M  V30 2640 O 302.532 1.54274 -0.974979 0
M  V30 2641 C 302.583 -0.85159 -3.51326 0
M  V30 2642 O 302.304 -2.22157 -3.77595 0
M  V30 2643 C 303.805 -0.529831 -4.40122 0
M  V30 2644 H 301.025 -0.230593 -0.630133 0
M  V30 2645 H 303.569 -1.268 -1.60443 0
M  V30 2646 H 301.724 -0.243151 -3.86636 0
M  V30 2647 H 302.138 -2.2852 -4.721 0
M  V30 2648 H 303.612 -0.747348 -5.46917 0
M  V30 2649 H 304.089 0.535341 -4.35925 0
M  V30 2650 H 304.695 -1.11721 -4.10364 0
M  V30 2651 N 303.011 1.40521 -0.713556 0
M  V30 2652 C 303.959 2.32549 -0.0485227 0
M  V30 2653 C 304.953 1.51931 0.74922 0
M  V30 2654 O 306.159 1.67745 0.652816 0
M  V30 2655 H 302.534 0.751994 0.00311138 0
M  V30 2656 H 304.505 2.86291 -0.841443 0
M  V30 2657 C 303.254 3.36879 0.860687 0
M  V30 2658 H 302.577 3.98978 0.256246 0
M  V30 2659 H 304.017 4.03772 1.294 0
M  V30 2660 C 302.476 2.72197 1.9852 0
M  V30 2661 O 303.006 2.5837 3.07584 0
M  V30 2662 N 301.212 2.30612 1.76823 0
M  V30 2663 H 300.759 2.42059 0.881217 0
M  V30 2664 H 300.717 1.87672 2.52243 0
M  V30 2665 N 304.489 0.459591 1.5075 0
M  V30 2666 C 305.717 -0.0973749 2.06671 0
M  V30 2667 C 306.132 -1.34524 1.32472 0
M  V30 2668 O 305.489 -1.7827 0.390634 0
M  V30 2669 C 305.54 -0.39714 3.59312 0
M  V30 2670 O 305.261 0.801214 4.30711 0
M  V30 2671 C 306.762 -1.00234 4.31819 0
M  V30 2672 H 303.982 0.00195854 0.670997 0
M  V30 2673 H 306.526 0.645072 1.94059 0
M  V30 2674 H 304.681 -1.08951 3.71764 0
M  V30 2675 H 305.095 0.538857 5.21725 0
M  V30 2676 H 306.569 -1.16193 5.39632 0
M  V30 2677 H 307.046 -1.98939 3.91561 0
M  V30 2678 H 307.652 -0.348699 4.23868 0
M  V30 2679 N 305.967 -1.56429 0.191757 0
M  V30 2680 C 307.197 -2.01574 -0.452928 0
M  V30 2681 C 307.605 -1.07107 -1.55964 0
M  V30 2682 O 306.948 -0.067534 -1.83576 0
M  V30 2683 C 307.01 -3.43121 -1.07278 0
M  V30 2684 C 306.674 -4.56879 -0.105214 0
M  V30 2685 C 307.671 -5.15379 0.684149 0
M  V30 2686 C 305.356 -5.023 0.00489824 0
M  V30 2687 C 307.35 -6.17746 1.57062 0
M  V30 2688 C 305.037 -6.04511 0.894935 0
M  V30 2689 C 306.035 -6.62108 1.67637 0
M  V30 2690 O 305.723 -7.62335 2.55149 0
M  V30 2691 H 305.455 -0.665554 -0.118379 0
M  V30 2692 H 308.009 -2.03245 0.296737 0
M  V30 2693 H 306.239 -3.38425 -1.87097 0
M  V30 2694 H 307.928 -3.72093 -1.62177 0
M  V30 2695 H 308.694 -4.81157 0.609365 0
M  V30 2696 H 304.573 -4.57168 -0.593156 0
M  V30 2697 H 308.117 -6.6263 2.181 0
M  V30 2698 H 304.014 -6.38157 0.970847 0
M  V30 2699 H 304.782 -7.79741 2.48892 0
M  V30 2700 N 307.445 0.0818655 -1.57387 0
M  V30 2701 C 308.675 0.794954 -1.90694 0
M  V30 2702 C 309.083 1.72147 -0.784982 0
M  V30 2703 O 308.426 1.81974 0.251196 0
M  V30 2704 C 308.488 1.65042 -3.19376 0
M  V30 2705 C 308.152 0.894337 -4.48164 0
M  V30 2706 C 309.149 0.21813 -5.19442 0
M  V30 2707 C 306.834 0.864495 -4.94805 0
M  V30 2708 C 308.828 -0.477802 -6.35607 0
M  V30 2709 C 306.515 0.164785 -6.10878 0
M  V30 2710 C 307.513 -0.505173 -6.81129 0
M  V30 2711 O 307.201 -1.19363 -7.94989 0
M  V30 2712 H 306.933 0.231779 -0.635023 0
M  V30 2713 H 309.487 0.059493 -2.05314 0
M  V30 2714 H 307.717 2.42844 -3.00938 0
M  V30 2715 H 309.406 2.24127 -3.38411 0
M  V30 2716 H 310.172 0.232558 -4.84442 0
M  V30 2717 H 306.051 1.37542 -4.40004 0
M  V30 2718 H 309.595 -1.00129 -6.90377 0
M  V30 2719 H 305.492 0.148249 -6.4533 0
M  V30 2720 H 306.26 -1.10188 -8.11049 0
M  V30 2721 N 308.923 1.53595 0.353017 0
M  V30 2722 C 309.853 1.83902 1.43883 0
M  V30 2723 C 310.834 0.693421 1.55324 0
M  V30 2724 O 312.019 0.944452 1.69687 0
M  V30 2725 C 309.149 2.04016 2.8106 0
M  V30 2726 C 308.103 3.19814 2.84434 0
M  V30 2727 C 307.429 3.25244 4.24406 0
M  V30 2728 C 308.729 4.58133 2.50822 0
M  V30 2729 H 310.423 2.74835 1.1877 0
M  V30 2730 H 307.969 1.32242 0.569917 0
M  V30 2731 H 309.922 2.238 3.57059 0
M  V30 2732 H 308.646 1.09804 3.07588 0
M  V30 2733 H 307.305 2.9987 2.10887 0
M  V30 2734 H 306.953 2.28646 4.48029 0
M  V30 2735 H 306.653 4.03054 4.27576 0
M  V30 2736 H 308.177 3.47228 5.0226 0
M  V30 2737 H 309.591 4.77995 3.16534 0
M  V30 2738 H 307.988 5.38276 2.6529 0
M  V30 2739 H 309.058 4.62387 1.46034 0
M  V30 2740 N 310.401 -0.613514 1.45168 0
M  V30 2741 C 311.817 -0.933629 1.29443 0
M  V30 2742 C 312.017 -2.00028 0.243101 0
M  V30 2743 O 311.073 -2.49848 -0.364992 0
M  V30 2744 C 312.386 -1.38018 2.67155 0
M  V30 2745 C 313.934 -1.49471 2.75004 0
M  V30 2746 C 314.409 -1.97503 4.13227 0
M  V30 2747 N 315.9 -2.04746 4.15491 0
M  V30 2748 C 316.635 -2.43121 5.19307 0
M  V30 2749 N 316.131 -2.80506 6.33473 0
M  V30 2750 N 317.924 -2.43408 5.06664 0
M  V30 2751 H 310.075 0.0916097 2.12202 0
M  V30 2752 H 312.338 -0.0216655 0.947752 0
M  V30 2753 H 312.044 -0.670625 3.45247 0
M  V30 2754 H 311.918 -2.34784 2.95222 0
M  V30 2755 H 314.305 -2.19519 1.9722 0
M  V30 2756 H 314.386 -0.510342 2.50657 0
M  V30 2757 H 314.03 -1.28045 4.91495 0
M  V30 2758 H 313.96 -2.96843 4.34962 0
M  V30 2759 H 316.451 -1.78468 3.33103 0
M  V30 2760 H 316.764 -3.08652 7.08487 0
M  V30 2761 H 315.109 -2.78216 6.36884 0
M  V30 2762 H 318.3 -2.13604 4.16523 0
M  V30 2763 H 318.473 -2.72989 5.87691 0
M  V30 2764 N 311.879 -1.3236 -0.855495 0
M  V30 2765 C 313.107 -1.2587 -1.64208 0
M  V30 2766 C 313.522 0.173457 -1.88002 0
M  V30 2767 O 312.879 1.11027 -1.44842 0
M  V30 2768 C 312.93 -2.01424 -3.00184 0
M  V30 2769 O 312.651 -3.39051 -2.77445 0
M  V30 2770 C 314.152 -2.01948 -3.94629 0
M  V30 2771 H 311.372 -0.434318 -0.511477 0
M  V30 2772 H 313.916 -1.74469 -1.0668 0
M  V30 2773 H 312.071 -1.56549 -3.5436 0
M  V30 2774 H 312.485 -3.77711 -3.63916 0
M  V30 2775 H 313.959 -2.59297 -4.87308 0
M  V30 2776 H 314.436 -1.00554 -4.27534 0
M  V30 2777 H 315.042 -2.46767 -3.4639 0
M  V30 2778 N 313.357 1.07166 -1.15556 0
M  V30 2779 C 314.604 1.79798 -0.931604 0
M  V30 2780 C 314.932 1.8682 0.54115 0
M  V30 2781 O 314.187 1.34942 1.41736 0
M  V30 2782 C 314.486 3.24707 -1.49332 0
M  V30 2783 C 314.152 3.37781 -2.98688 0
M  V30 2784 C 312.814 3.41057 -3.39461 0
M  V30 2785 C 315.166 3.40424 -3.94665 0
M  V30 2786 C 312.494 3.4458 -4.74849 0
M  V30 2787 C 314.846 3.45485 -5.29927 0
M  V30 2788 C 313.51 3.47039 -5.70193 0
M  V30 2789 H 312.78 0.657928 -0.340898 0
M  V30 2790 H 315.427 1.26091 -1.44129 0
M  V30 2791 H 313.732 3.81208 -0.904859 0
M  V30 2792 H 315.429 3.79486 -1.29582 0
M  V30 2793 H 312.019 3.35932 -2.66172 0
M  V30 2794 H 316.203 3.37113 -3.64237 0
M  V30 2795 H 311.459 3.44083 -5.05388 0
M  V30 2796 H 315.633 3.46476 -6.04092 0
M  V30 2797 H 313.26 3.49522 -6.75084 0
M  V30 2798 N 314.835 0.952656 1.25548 0
M  V30 2799 C 316.083 0.605176 1.92826 0
M  V30 2800 C 316.404 -0.860261 1.74999 0
M  V30 2801 O 315.674 -1.6125 1.11244 0
M  V30 2802 H 314.254 0.220832 0.713612 0
M  V30 2803 H 316.916 1.21047 1.52754 0
M  V30 2804 H 316.012 0.832798 3.00784 0
M  V30 2805 N 316.313 -1.40141 0.720998 0
M  V30 2806 C 317.263 -2.27949 0.0482544 0
M  V30 2807 C 318.247 -1.43538 -0.727021 0
M  V30 2808 O 319.439 -1.6658 -0.598332 0
M  V30 2809 C 316.568 -3.32126 -0.868729 0
M  V30 2810 C 315.654 -4.24008 -0.0883515 0
M  V30 2811 N 316.045 -4.97154 0.931226 0
M  V30 2812 C 314.343 -4.4485 -0.320105 0
M  V30 2813 C 315.044 -5.64587 1.4006 0
M  V30 2814 N 314.02 -5.38787 0.721752 0
M  V30 2815 H 317.822 -2.81948 0.829609 0
M  V30 2816 H 315.336 -1.52656 0.554067 0
M  V30 2817 H 317.333 -3.93884 -1.36605 0
M  V30 2818 H 315.993 -2.79687 -1.6494 0
M  V30 2819 H 317.004 -5.01 1.31222 0
M  V30 2820 H 313.681 -4.03378 -1.07668 0
M  V30 2821 H 315.071 -6.33175 2.24808 0
M  V30 2822 N 317.792 -0.46758 -1.50504 0
M  V30 2823 C 318.74 0.342482 -2.30065 0
M  V30 2824 C 319.734 0.993596 -1.37201 0
M  V30 2825 O 320.94 0.925102 -1.54408 0
M  V30 2826 H 317.315 0.129283 -0.740803 0
M  V30 2827 H 319.286 -0.34899 -2.96352 0
M  V30 2828 C 318.035 1.4139 -3.17654 0
M  V30 2829 H 317.358 0.922264 -3.89017 0
M  V30 2830 H 318.798 1.95335 -3.76325 0
M  V30 2831 C 317.257 2.4139 -2.35016 0
M  V30 2832 O 317.787 3.46586 -2.03079 0
M  V30 2833 N 315.993 2.13021 -1.97662 0
M  V30 2834 H 315.54 1.27499 -2.23834 0
M  V30 2835 H 315.498 2.80164 -1.42673 0
M  V30 2836 N 319.27 1.56325 -0.20005 0
M  V30 2837 C 320.498 2.02105 0.442874 0
M  V30 2838 C 320.913 1.08014 1.5485 0
M  V30 2839 O 320.27 0.0858797 1.82298 0
M  V30 2840 C 320.321 3.47549 0.994583 0
M  V30 2841 O 320.042 4.38049 -0.0669322 0
M  V30 2842 C 321.543 4.0887 1.7129 0
M  V30 2843 H 318.763 0.661807 0.110691 0
M  V30 2844 H 321.307 2.02134 -0.310207 0
M  V30 2845 H 319.462 3.48204 1.69803 0
M  V30 2846 H 319.876 5.23368 0.344462 0
M  V30 2847 H 321.35 5.12475 2.05118 0
M  V30 2848 H 321.827 3.52615 2.61838 0
M  V30 2849 H 322.433 4.12002 1.05518 0
M  V30 2850 N 320.748 -0.0735177 1.57428 0
M  V30 2851 C 321.681 -1.11932 1.98863 0
M  V30 2852 C 322.659 -1.37666 0.865266 0
M  V30 2853 O 323.843 -1.51068 1.12742 0
M  V30 2854 C 320.97 -2.46403 2.32386 0
M  V30 2855 C 320.016 -2.36815 3.54713 0
M  V30 2856 S 320.849 -1.76392 5.05614 0
M  V30 2857 C 322.005 -3.12444 5.42337 0
M  V30 2858 H 322.238 -0.766212 2.87257 0
M  V30 2859 H 319.771 -0.281987 1.51803 0
M  V30 2860 H 321.729 -3.23755 2.52375 0
M  V30 2861 H 320.39 -2.78876 1.44524 0
M  V30 2862 H 319.583 -3.35977 3.7568 0
M  V30 2863 H 319.185 -1.67598 3.34345 0
M  V30 2864 H 321.477 -4.08753 5.40303 0
M  V30 2865 H 322.42 -2.96258 6.43146 0
M  V30 2866 H 322.828 -3.1297 4.69798 0
M  V30 2867 N 322.226 -1.5378 -0.344866 0
M  V30 2868 C 323.503 -1.61589 -1.10219 0
M  V30 2869 C 323.883 -0.436316 -2.06542 0
M  V30 2870 O 323.231 0.571543 -2.21237 0
M  V30 2871 C 323.441 -2.97602 -1.82301 0
M  V30 2872 C 324.789 -3.5291 -2.36093 0
M  V30 2873 O 325.813 -2.99768 -1.924 0
M  V30 2874 O 324.672 -4.45859 -3.16026 0
M  V30 2875 H 321.766 -0.653522 -0.506792 0
M  V30 2876 H 324.312 -1.66126 -0.346465 0
M  V30 2877 H 323.084 -3.74893 -1.12121 0
M  V30 2878 H 322.707 -2.9665 -2.64735 0
M  V30 2879 N 323.704 0.605807 -1.45491 0
M  V30 2880 C 324.667 1.69836 -1.5391 0
M  V30 2881 C 325.667 1.55261 -0.418424 0
M  V30 2882 O 326.857 1.60296 -0.681965 0
M  V30 2883 C 323.989 3.09117 -1.43734 0
M  V30 2884 H 325.182 1.63738 -2.51257 0
M  V30 2885 H 322.735 0.821689 -1.32959 0
M  V30 2886 H 323.47 3.20791 -0.475788 0
M  V30 2887 H 323.255 3.21104 -2.25021 0
M  V30 2888 H 324.745 3.88696 -1.52661 0
M  V30 2889 N 325.182 1.32811 0.848464 0
M  V30 2890 C 326.428 1.23907 1.60546 0
M  V30 2891 C 326.761 -0.197161 1.93197 0
M  V30 2892 O 326.036 -1.13596 1.5788 0
M  V30 2893 C 326.319 2.10489 2.92175 0
M  V30 2894 C 326.172 3.62522 2.66266 0
M  V30 2895 C 327.491 1.97075 3.93509 0
M  V30 2896 H 324.61 0.451459 0.58254 0
M  V30 2897 H 327.252 1.62818 0.979296 0
M  V30 2898 H 325.402 1.77434 3.45614 0
M  V30 2899 H 327.074 4.05821 2.19334 0
M  V30 2900 H 325.317 3.84879 2.00126 0
M  V30 2901 H 325.988 4.18437 3.6002 0
M  V30 2902 H 328.464 2.26045 3.49346 0
M  V30 2903 H 327.34 2.59923 4.83457 0
M  V30 2904 H 327.601 0.940186 4.31987 0
M  V30 2905 N 326.66 -1.06551 1.16123 0
M  V30 2906 C 328.071 -1.60768 0.949232 0
M  V30 2907 C 328.422 -1.89523 -0.507508 0
M  V30 2908 O 327.547 -1.66671 -1.38021 0
M  V30 2909 C 328.142 -2.92086 1.71671 0
M  V30 2910 C 326.701 -3.43015 1.54977 0
M  V30 2911 C 325.848 -2.16947 1.72711 0
M  V30 2912 H 328.799 -0.895354 1.31031 0
M  V30 2913 H 328.82 -3.6138 1.19099 0
M  V30 2914 H 328.332 -2.71127 2.7769 0
M  V30 2915 H 326.433 -3.69039 0.513873 0
M  V30 2916 H 326.546 -4.18516 2.33198 0
M  V30 2917 H 324.91 -2.27041 1.15431 0
M  V30 2918 H 325.693 -1.98473 2.80113 0
M  V30 2919 N 328.138 -0.959301 -1.25041 0
M  V30 2920 C 329.554 -0.664474 -1.4511 0
M  V30 2921 C 329.754 0.776481 -1.85938 0
M  V30 2922 O 328.81 1.55128 -1.99227 0
M  V30 2923 C 330.123 -1.64139 -2.5195 0
M  V30 2924 C 331.671 -1.65309 -2.65786 0
M  V30 2925 C 332.146 -2.61777 -3.75815 0
M  V30 2926 N 333.637 -2.60169 -3.83231 0
M  V30 2927 C 334.372 -3.31489 -4.6787 0
M  V30 2928 N 333.868 -4.12298 -5.56761 0
M  V30 2929 N 335.661 -3.20354 -4.61876 0
M  V30 2930 H 327.812 -1.89043 -0.968332 0
M  V30 2931 H 330.075 -0.813408 -0.4869 0
M  V30 2932 H 329.781 -2.67086 -2.28819 0
M  V30 2933 H 329.655 -1.40756 -3.49954 0
M  V30 2934 H 332.042 -0.630778 -2.8828 0
M  V30 2935 H 332.123 -1.92753 -1.68167 0
M  V30 2936 H 331.767 -3.64137 -3.54071 0
M  V30 2937 H 331.697 -2.31616 -4.72929 0
M  V30 2938 H 334.188 -2.01507 -3.19692 0
M  V30 2939 H 334.501 -4.63625 -6.18281 0
M  V30 2940 H 332.846 -4.16395 -5.56454 0
M  V30 2941 H 336.037 -2.56692 -3.91442 0
M  V30 2942 H 336.21 -3.76201 -5.27614 0
M  V30 2943 N 329.616 1.39756 -0.72842 0
M  V30 2944 C 330.865 1.99879 -0.270407 0
M  V30 2945 C 331.178 1.58449 1.14688 0
M  V30 2946 O 332.384 2.11362 1.70407 0
M  V30 2947 C 330.84 3.57292 -0.43252 0
M  V30 2948 C 330.448 4.07688 -1.85727 0
M  V30 2949 C 332.192 4.24485 -0.0359507 0
M  V30 2950 C 330.099 5.5765 -1.96928 0
M  V30 2951 H 329.029 0.747689 -0.0973472 0
M  V30 2952 H 331.68 1.59837 -0.901355 0
M  V30 2953 H 330.062 3.95097 0.267219 0
M  V30 2954 H 331.236 3.81231 -2.58843 0
M  V30 2955 H 329.551 3.53135 -2.20646 0
M  V30 2956 H 332.148 5.34609 -0.0987484 0
M  V30 2957 H 332.491 4.03915 1.00787 0
M  V30 2958 H 333.024 3.9183 -0.686604 0
M  V30 2959 H 329.763 5.8309 -2.99476 0
M  V30 2960 H 329.283 5.8593 -1.28241 0
M  V30 2961 H 330.962 6.22957 -1.74737 0
M  V30 2962 N 331.094 0.475555 1.50254 0
M  V30 2963 C 332.371 -0.139685 1.95101 0
M  V30 2964 C 332.751 -1.56555 1.41611 0
M  V30 2965 O 332.099 -2.19956 0.618993 0
M  V30 2966 C 332.309 -0.0784298 3.48912 0
M  V30 2967 C 333.657 -0.265095 4.23772 0
M  V30 2968 O 334.681 -0.154808 3.55863 0
M  V30 2969 O 333.54 -0.488327 5.44314 0
M  V30 2970 H 330.634 -0.109236 0.819754 0
M  V30 2971 H 333.18 0.536276 1.61004 0
M  V30 2972 H 331.952 0.916918 3.80405 0
M  V30 2973 H 331.575 -0.795655 3.89558 0
M  V30 2974 N 332.573 -1.56217 0.208337 0
M  V30 2975 C 333.523 -2.16324 -0.720281 0
M  V30 2976 C 334.507 -1.10775 -1.16695 0
M  V30 2977 O 335.699 -1.36801 -1.12314 0
M  V30 2978 C 332.828 -2.83644 -1.93393 0
M  V30 2979 C 331.914 -3.96401 -1.50755 0
M  V30 2980 N 332.305 -4.99546 -0.792937 0
M  V30 2981 C 330.603 -4.08246 -1.79585 0
M  V30 2982 C 331.304 -5.78828 -0.577364 0
M  V30 2983 N 330.28 -5.31723 -1.1301 0
M  V30 2984 H 334.082 -2.93432 -0.165725 0
M  V30 2985 H 331.596 -1.62397 0.00906463 0
M  V30 2986 H 333.593 -3.25107 -2.60981 0
M  V30 2987 H 332.253 -2.08027 -2.49308 0
M  V30 2988 H 333.264 -5.15967 -0.447004 0
M  V30 2989 H 329.941 -3.4377 -2.36915 0
M  V30 2990 H 331.331 -6.71899 -0.00952956 0
M  V30 2991 N 334.051 0.0651679 -1.57465 0
M  V30 2992 C 335.281 0.774683 -1.91526 0
M  V30 2993 C 335.689 1.71305 -0.803196 0
M  V30 2994 O 335.032 1.82231 0.231881 0
M  V30 2995 C 335.094 1.61645 -3.21109 0
M  V30 2996 C 334.758 0.846753 -4.49087 0
M  V30 2997 C 335.755 0.163024 -5.19644 0
M  V30 2998 C 333.44 0.811966 -4.95694 0
M  V30 2999 C 335.434 -0.54519 -6.35064 0
M  V30 3000 C 333.121 0.0999836 -6.11018 0
M  V30 3001 C 334.119 -0.577388 -6.80555 0
M  V30 3002 O 333.807 -1.27789 -7.93678 0
M  V30 3003 H 333.539 0.225031 -0.637446 0
M  V30 3004 H 336.093 0.0377134 -2.05365 0
M  V30 3005 H 334.323 2.39638 -3.03497 0
M  V30 3006 H 336.012 2.20525 -3.40769 0
M  V30 3007 H 336.778 0.181163 -4.84662 0
M  V30 3008 H 332.657 1.32867 -4.41438 0
M  V30 3009 H 336.201 -1.07446 -6.89276 0
M  V30 3010 H 332.098 0.0797945 -6.45451 0
M  V30 3011 H 332.866 -1.18784 -8.09835 0
M  V30 3012 N 335.529 1.53961 0.336706 0
M  V30 3013 C 336.945 1.44378 0.680241 0
M  V30 3014 C 337.145 0.606034 1.9217 0
M  V30 3015 O 336.201 0.099688 2.52303 0
M  V30 3016 C 337.514 2.87945 0.8665 0
M  V30 3017 C 339.062 2.97763 0.964682 0
M  V30 3018 C 339.537 4.42453 1.18321 0
M  V30 3019 N 341.028 4.46008 1.25025 0
M  V30 3020 C 341.763 5.55102 1.43697 0
M  V30 3021 N 341.259 6.7419 1.59498 0
M  V30 3022 N 343.052 5.42727 1.463 0
M  V30 3023 H 335.203 2.06918 -0.479455 0
M  V30 3024 H 337.466 0.935634 -0.152619 0
M  V30 3025 H 337.172 3.51691 0.0256937 0
M  V30 3026 H 337.046 3.33293 1.76623 0
M  V30 3027 H 339.433 2.34153 1.796 0
M  V30 3028 H 339.514 2.55766 0.041708 0
M  V30 3029 H 339.158 5.06645 0.356788 0
M  V30 3030 H 339.088 4.82048 2.11985 0
M  V30 3031 H 341.579 3.60196 1.14312 0
M  V30 3032 H 341.892 7.53095 1.734 0
M  V30 3033 H 340.237 6.77123 1.56621 0
M  V30 3034 H 343.428 4.48647 1.33543 0
M  V30 3035 H 343.601 6.27806 1.6051 0
M  V30 3036 N 337.007 -0.598083 1.45811 0
M  V30 3037 C 337.957 -1.70272 1.51629 0
M  V30 3038 C 338.941 -1.56382 0.378629 0
M  V30 3039 O 340.133 -1.65557 0.626087 0
M  V30 3040 C 337.262 -3.09042 1.49493 0
M  V30 3041 C 336.348 -3.28284 2.68496 0
M  V30 3042 N 336.739 -3.17748 3.93535 0
M  V30 3043 C 335.037 -3.59182 2.64394 0
M  V30 3044 C 335.738 -3.38579 4.7301 0
M  V30 3045 N 334.714 -3.63016 4.04624 0
M  V30 3046 H 338.516 -1.60634 2.46118 0
M  V30 3047 H 336.03 -0.801642 1.41235 0
M  V30 3048 H 338.027 -3.88302 1.51747 0
M  V30 3049 H 336.687 -3.19823 0.560683 0
M  V30 3050 H 337.698 -2.95944 4.25014 0
M  V30 3051 H 334.375 -3.76742 1.79922 0
M  V30 3052 H 335.765 -3.35747 5.82 0
M  V30 3053 N 338.485 -1.33259 -0.841409 0
M  V30 3054 C 339.713 -1.27605 -1.62864 0
M  V30 3055 C 340.128 0.153507 -1.88175 0
M  V30 3056 O 339.485 1.09485 -1.46011 0
M  V30 3057 C 339.536 -2.04596 -2.98031 0
M  V30 3058 O 339.257 -3.41975 -2.73834 0
M  V30 3059 C 340.758 -2.06122 -3.92465 0
M  V30 3060 H 337.978 -0.439718 -0.506842 0
M  V30 3061 H 340.522 -1.75591 -1.04824 0
M  V30 3062 H 338.677 -1.60299 -3.5268 0
M  V30 3063 H 339.091 -3.81549 -3.59889 0
M  V30 3064 H 340.565 -2.64451 -4.84531 0
M  V30 3065 H 341.042 -1.05083 -4.26444 0
M  V30 3066 H 341.648 -2.50427 -3.43753 0
M  V30 3067 N 339.963 1.05934 -1.16686 0
M  V30 3068 C 340.926 2.11669 -0.879144 0
M  V30 3069 C 341.926 1.60294 0.127445 0
M  V30 3070 O 343.116 1.7389 -0.103865 0
M  V30 3071 C 340.248 3.39438 -0.315425 0
M  V30 3072 H 341.441 2.38626 -1.81653 0
M  V30 3073 H 338.994 1.22058 -0.976299 0
M  V30 3074 H 339.729 3.18132 0.629468 0
M  V30 3075 H 339.514 3.78034 -1.04079 0
M  V30 3076 H 341.004 4.17391 -0.132189 0
M  V30 3077 N 341.441 0.965919 1.2453 0
M  V30 3078 C 342.404 0.499547 2.2369 0
M  V30 3079 C 343.404 -0.40294 1.5567 0
M  V30 3080 O 344.594 -0.19865 1.73064 0
M  V30 3081 C 341.726 -0.276792 3.39774 0
M  V30 3082 H 342.919 1.37613 2.66463 0
M  V30 3083 H 340.472 0.750324 1.37112 0
M  V30 3084 H 341.207 -1.17055 3.02438 0
M  V30 3085 H 340.992 0.370826 3.90343 0
M  V30 3086 H 342.482 -0.592175 4.1338 0
M  V30 3087 N 342.919 -1.39368 0.735821 0
M  V30 3088 C 343.851 -2.2913 0.0567723 0
M  V30 3089 C 344.864 -1.46859 -0.702589 0
M  V30 3090 O 346.053 -1.69925 -0.546616 0
M  V30 3091 C 343.153 -3.25492 -0.943823 0
M  V30 3092 C 342.326 -4.36709 -0.24581 0
M  V30 3093 C 341.385 -5.13376 -1.15463 0
M  V30 3094 O 340.411 -5.65683 -0.631803 0
M  V30 3095 N 341.613 -5.24656 -2.48427 0
M  V30 3096 H 344.378 -2.88047 0.827582 0
M  V30 3097 H 341.939 -1.50957 0.585112 0
M  V30 3098 H 343.931 -3.73657 -1.55443 0
M  V30 3099 H 342.501 -2.676 -1.61583 0
M  V30 3100 H 341.721 -3.9041 0.545286 0
M  V30 3101 H 343.009 -5.08244 0.237891 0
M  V30 3102 H 342.407 -4.83679 -2.93379 0
M  V30 3103 H 340.964 -5.76258 -3.04582 0
M  V30 3104 N 344.397 -0.483516 -1.5 0
M  V30 3105 C 345.327 0.293829 -2.31644 0
M  V30 3106 C 346.308 0.978864 -1.39112 0
M  V30 3107 O 347.493 0.973644 -1.68029 0
M  V30 3108 C 344.623 1.36897 -3.19181 0
M  V30 3109 C 343.577 0.804833 -4.20365 0
M  V30 3110 C 342.903 1.9792 -4.96721 0
M  V30 3111 C 344.203 -0.192313 -5.21946 0
M  V30 3112 H 345.897 -0.387616 -2.9688 0
M  V30 3113 H 343.443 -0.187856 -1.42769 0
M  V30 3114 H 345.396 1.92037 -3.751 0
M  V30 3115 H 344.12 2.07936 -2.51853 0
M  V30 3116 H 342.779 0.275319 -3.65565 0
M  V30 3117 H 342.427 2.67686 -4.25856 0
M  V30 3118 H 342.127 1.60789 -5.65173 0
M  V30 3119 H 343.651 2.53526 -5.55479 0
M  V30 3120 H 345.065 0.270333 -5.72662 0
M  V30 3121 H 343.462 -0.478543 -5.98189 0
M  V30 3122 H 344.532 -1.11409 -4.71928 0
M  V30 3123 N 345.875 1.56104 -0.216619 0
M  V30 3124 C 347.123 1.97781 0.415593 0
M  V30 3125 C 347.444 1.10536 1.60645 0
M  V30 3126 O 346.714 0.181303 1.95059 0
M  V30 3127 H 345.294 0.730415 0.156534 0
M  V30 3128 H 347.956 1.92445 -0.308366 0
M  V30 3129 H 347.052 3.03072 0.74525 0
M  V30 3130 N 347.353 -0.0568162 1.57498 0
M  V30 3131 C 348.263 -1.08346 2.08083 0
M  V30 3132 C 349.279 -1.41439 1.01346 0
M  V30 3133 O 350.455 -1.51316 1.32912 0
M  V30 3134 C 347.52 -2.37352 2.52715 0
M  V30 3135 C 346.581 -2.11093 3.73816 0
M  V30 3136 C 345.814 -3.33949 4.1631 0
M  V30 3137 O 346.037 -4.43622 3.58547 0
M  V30 3138 O 344.971 -3.21279 5.08983 0
M  V30 3139 H 348.797 -0.683667 2.95905 0
M  V30 3140 H 346.382 -0.271965 1.46904 0
M  V30 3141 H 348.264 -3.13246 2.81877 0
M  V30 3142 H 346.939 -2.76681 1.68016 0
M  V30 3143 H 345.846 -1.32856 3.49714 0
M  V30 3144 H 347.179 -1.76637 4.59413 0
M  V30 3145 N 348.832 -1.54138 -0.328536 0
M  V30 3146 C 349.779 -1.83176 -1.40411 0
M  V30 3147 C 350.749 -0.678494 -1.5161 0
M  V30 3148 O 351.934 -0.92443 -1.6691 0
M  V30 3149 C 349.074 -2.06035 -2.76846 0
M  V30 3150 C 348.187 -3.33727 -2.74318 0
M  V30 3151 C 347.322 -3.46574 -4.02567 0
M  V30 3152 C 346.361 -4.68159 -3.94327 0
M  V30 3153 N 345.498 -4.77959 -5.14296 0
M  V30 3154 H 350.338 -2.74938 -1.14948 0
M  V30 3155 H 347.875 -1.36166 -0.556538 0
M  V30 3156 H 349.833 -2.1728 -3.56153 0
M  V30 3157 H 348.463 -1.1757 -3.00628 0
M  V30 3158 H 347.515 -3.31246 -1.8703 0
M  V30 3159 H 348.827 -4.23139 -2.64111 0
M  V30 3160 H 347.981 -3.57333 -4.90304 0
M  V30 3161 H 346.72 -2.55245 -4.15574 0
M  V30 3162 H 345.725 -4.57461 -3.04974 0
M  V30 3163 H 346.95 -5.60868 -3.82889 0
M  V30 3164 H 344.896 -3.89544 -5.27818 0
M  V30 3165 H 344.813 -5.6133 -5.06404 0
M  V30 3166 H 346.081 -4.93044 -6.03761 0
M  V30 3167 N 350.31 0.590341 -1.46126 0
M  V30 3168 C 351.24 1.71032 -1.58966 0
M  V30 3169 C 352.221 1.64302 -0.440335 0
M  V30 3170 O 353.406 1.82436 -0.665634 0
M  V30 3171 C 350.536 3.09665 -1.57241 0
M  V30 3172 C 349.49 3.31221 -2.71066 0
M  V30 3173 C 348.816 4.70303 -2.54399 0
M  V30 3174 C 350.116 3.19796 -4.1295 0
M  V30 3175 H 351.81 1.60543 -2.52718 0
M  V30 3176 H 349.356 0.770933 -1.21625 0
M  V30 3177 H 351.309 3.87831 -1.64819 0
M  V30 3178 H 350.033 3.21036 -0.600289 0
M  V30 3179 H 348.692 2.55452 -2.62944 0
M  V30 3180 H 348.34 4.78429 -1.55288 0
M  V30 3181 H 348.04 4.85679 -3.30741 0
M  V30 3182 H 349.564 5.50647 -2.63857 0
M  V30 3183 H 350.978 3.87815 -4.22223 0
M  V30 3184 H 349.375 3.46696 -4.89818 0
M  V30 3185 H 350.445 2.16983 -4.33643 0
M  V30 3186 N 351.788 1.33704 0.83433 0
M  V30 3187 C 352.718 1.26967 1.95963 0
M  V30 3188 C 353.699 0.149337 1.69443 0
M  V30 3189 O 354.884 0.339852 1.91203 0
M  V30 3190 C 352.014 1.01275 3.32206 0
M  V30 3191 C 350.968 2.09652 3.73136 0
M  V30 3192 C 350.294 1.69166 5.07235 0
M  V30 3193 C 351.594 3.51372 3.86439 0
M  V30 3194 H 353.288 2.2112 2.01857 0
M  V30 3195 H 350.834 1.06447 0.969793 0
M  V30 3196 H 352.787 0.952106 4.10503 0
M  V30 3197 H 351.511 0.0356203 3.26581 0
M  V30 3198 H 350.17 2.14766 2.97104 0
M  V30 3199 H 349.818 0.701437 4.98085 0
M  V30 3200 H 349.518 2.41694 5.35591 0
M  V30 3201 H 351.042 1.64576 5.88003 0
M  V30 3202 H 352.456 3.48734 4.55036 0
M  V30 3203 H 350.853 4.22425 4.26236 0
M  V30 3204 H 351.923 3.89546 2.88759 0
M  V30 3205 N 353.266 -1.05314 1.17247 0
M  V30 3206 C 354.682 -1.30452 0.919473 0
M  V30 3207 C 354.882 -1.9703 -0.42209 0
M  V30 3208 O 353.938 -2.24311 -1.15935 0
M  V30 3209 C 355.251 -2.17551 2.07586 0
M  V30 3210 C 356.799 -2.30937 2.11275 0
M  V30 3211 C 357.274 -3.21396 3.26296 0
M  V30 3212 N 358.765 -3.28981 3.26076 0
M  V30 3213 C 359.5 -3.99095 4.11716 0
M  V30 3214 N 358.996 -4.71648 5.07465 0
M  V30 3215 N 360.789 -3.95247 3.9967 0
M  V30 3216 H 352.94 -0.604988 2.03602 0
M  V30 3217 H 355.203 -0.329368 0.888944 0
M  V30 3218 H 354.909 -1.75921 3.0454 0
M  V30 3219 H 354.783 -3.18182 2.02584 0
M  V30 3220 H 357.17 -2.71809 1.14907 0
M  V30 3221 H 357.251 -1.2994 2.20339 0
M  V30 3222 H 356.895 -2.81238 4.22927 0
M  V30 3223 H 356.825 -4.22395 3.14467 0
M  V30 3224 H 359.316 -2.77286 2.5675 0
M  V30 3225 H 359.629 -5.22705 5.6921 0
M  V30 3226 H 357.974 -4.70594 5.11435 0
M  V30 3227 H 361.165 -3.37691 3.24164 0
M  V30 3228 H 361.338 -4.4962 4.66632 0
M  V30 3229 N 354.744 -0.972509 -1.24016 0
M  V30 3230 C 356.155 -0.67517 -1.74064 0
M  V30 3231 C 356.506 0.808939 -1.78747 0
M  V30 3232 O 355.631 1.63286 -1.42009 0
M  V30 3233 C 356.226 -1.21889 -3.16115 0
M  V30 3234 C 354.785 -0.971358 -3.6365 0
M  V30 3235 C 353.932 -1.35134 -2.42145 0
M  V30 3236 H 356.883 -1.14727 -1.09651 0
M  V30 3237 H 356.904 -0.587489 -3.75937 0
M  V30 3238 H 356.416 -2.29906 -3.12674 0
M  V30 3239 H 354.517 0.0930686 -3.72484 0
M  V30 3240 H 354.63 -1.62039 -4.50866 0
M  V30 3241 H 352.994 -0.769751 -2.4279 0
M  V30 3242 H 353.777 -2.4411 -2.41381 0
M  V30 3243 N 356.222 1.38976 -0.743202 0
M  V30 3244 C 357.447 2.05161 -0.303936 0
M  V30 3245 C 357.872 1.55677 1.05576 0
M  V30 3246 O 357.23 0.704131 1.67068 0
M  V30 3247 C 357.278 3.59138 -0.324373 0
M  V30 3248 O 356.382 4.06668 0.685204 0
M  V30 3249 H 355.723 0.649815 -0.136518 0
M  V30 3250 H 358.253 1.77852 -1.01142 0
M  V30 3251 H 358.263 4.07639 -0.171618 0
M  V30 3252 H 356.938 3.94515 -1.31647 0
M  V30 3253 H 355.515 3.69561 0.497913 0
M  V30 3254 N 357.7 0.491464 1.49741 0
M  V30 3255 C 358.63 -0.28154 2.31796 0
M  V30 3256 C 359.611 -0.971473 1.3963 0
M  V30 3257 O 360.796 -0.964719 1.68543 0
M  V30 3258 C 357.926 -1.35203 3.19902 0
M  V30 3259 C 356.88 -0.782529 4.20786 0
M  V30 3260 C 356.206 -1.95283 4.97764 0
M  V30 3261 C 357.506 0.21999 5.21837 0
M  V30 3262 H 359.2 0.403355 2.96671 0
M  V30 3263 H 356.746 0.195425 1.42668 0
M  V30 3264 H 358.699 -1.90045 3.76113 0
M  V30 3265 H 357.423 -2.06598 2.52953 0
M  V30 3266 H 356.082 -0.255928 3.65706 0
M  V30 3267 H 355.73 -2.65423 4.2727 0
M  V30 3268 H 355.43 -1.57789 5.66018 0
M  V30 3269 H 356.954 -2.50577 5.56816 0
M  V30 3270 H 358.368 -0.23996 5.72798 0
M  V30 3271 H 356.765 0.51026 5.97927 0
M  V30 3272 H 357.835 1.13911 4.7133 0
M  V30 3273 N 359.178 -1.55987 0.224894 0
M  V30 3274 C 360.141 -2.19178 -0.670348 0
M  V30 3275 C 361.141 -1.15461 -1.11917 0
M  V30 3276 O 362.331 -1.40675 -1.02743 0
M  V30 3277 C 359.463 -2.81777 -1.9187 0
M  V30 3278 H 360.656 -2.99662 -0.119364 0
M  V30 3279 H 358.209 -1.5628 -0.0247128 0
M  V30 3280 H 358.944 -2.05172 -2.51147 0
M  V30 3281 H 358.729 -3.57732 -1.60531 0
M  V30 3282 H 360.219 -3.30205 -2.55645 0
M  V30 3283 N 360.656 0.0484629 -1.57525 0
M  V30 3284 C 361.566 1.07241 -2.08654 0
M  V30 3285 C 362.582 1.409 -1.02095 0
M  V30 3286 O 363.758 1.50609 -1.33712 0
M  V30 3287 C 360.823 2.36008 -2.5397 0
M  V30 3288 C 359.884 2.09108 -3.7493 0
M  V30 3289 C 359.117 3.31736 -4.18075 0
M  V30 3290 O 359.34 4.41714 -3.60895 0
M  V30 3291 O 358.274 3.18576 -5.10679 0
M  V30 3292 H 362.1 0.667965 -2.96263 0
M  V30 3293 H 359.685 0.26417 -1.47046 0
M  V30 3294 H 361.567 3.11747 -2.83535 0
M  V30 3295 H 360.242 2.75786 -1.69481 0
M  V30 3296 H 359.149 1.31 -3.50414 0
M  V30 3297 H 360.482 1.74198 -4.60343 0
M  V30 3298 N 362.134 1.5431 0.320358 0
M  V30 3299 C 363.064 1.86912 1.3995 0
M  V30 3300 C 364.045 0.726211 1.53819 0
M  V30 3301 O 365.23 0.980233 1.67646 0
M  V30 3302 C 362.36 2.09932 2.7667 0
M  V30 3303 C 361.314 3.25776 2.77586 0
M  V30 3304 C 360.64 3.34173 4.17412 0
M  V30 3305 C 361.94 4.6335 2.41048 0
M  V30 3306 H 363.634 2.77292 1.12914 0
M  V30 3307 H 361.18 1.33421 0.541738 0
M  V30 3308 H 363.133 2.31324 3.52232 0
M  V30 3309 H 361.857 1.16304 3.0519 0
M  V30 3310 H 360.516 3.04276 2.04479 0
M  V30 3311 H 360.164 2.38098 4.43078 0
M  V30 3312 H 359.864 4.12033 4.18931 0
M  V30 3313 H 361.388 3.57803 4.94782 0
M  V30 3314 H 362.802 4.84602 3.06324 0
M  V30 3315 H 361.199 5.43782 2.53813 0
M  V30 3316 H 362.269 4.65381 1.36193 0
M  V30 3317 N 363.613 -0.582584 1.46437 0
M  V30 3318 C 364.563 -1.68654 1.53426 0
M  V30 3319 C 365.547 -1.55971 0.395194 0
M  V30 3320 O 366.739 -1.64884 0.643612 0
M  V30 3321 C 363.868 -3.07439 1.52762 0
M  V30 3322 C 362.954 -3.25418 2.71963 0
M  V30 3323 N 363.345 -3.13556 3.96883 0
M  V30 3324 C 361.643 -3.56357 2.68189 0
M  V30 3325 C 362.344 -3.33543 4.76575 0
M  V30 3326 N 361.32 -3.58704 4.08451 0
M  V30 3327 H 365.122 -1.58014 2.47808 0
M  V30 3328 H 362.636 -0.786617 1.42078 0
M  V30 3329 H 364.633 -3.86671 1.55857 0
M  V30 3330 H 363.293 -3.1921 0.594573 0
M  V30 3331 H 364.304 -2.9142 4.28129 0
M  V30 3332 H 360.981 -3.74812 1.83908 0
M  V30 3333 H 362.371 -3.29555 5.85528 0
M  V30 3334 N 365.091 -1.34144 -0.827227 0
M  V30 3335 C 366.368 -1.16844 -1.56865 0
M  V30 3336 C 366.748 0.260654 -2.09485 0
M  V30 3337 O 366.096 1.26138 -1.9053 0
M  V30 3338 C 366.306 -2.21939 -2.6934 0
M  V30 3339 C 367.654 -2.56695 -3.3822 0
M  V30 3340 O 368.678 -2.20695 -2.79593 0
M  V30 3341 O 367.537 -3.18518 -4.44082 0
M  V30 3342 H 364.631 -0.452669 -0.692112 0
M  V30 3343 H 367.177 -1.45763 -0.868973 0
M  V30 3344 H 365.949 -3.17882 -2.28182 0
M  V30 3345 H 365.572 -1.94172 -3.46962 0
M  V30 3346 N 366.569 1.04691 -1.17803 0
M  V30 3347 C 367.479 2.16057 -0.914151 0
M  V30 3348 C 368.495 1.73589 0.119503 0
M  V30 3349 O 369.671 2.01308 -0.0609468 0
M  V30 3350 C 366.736 3.4394 -0.436603 0
M  V30 3351 C 365.797 4.00825 -1.53746 0
M  V30 3352 C 365.03 5.22604 -1.0826 0
M  V30 3353 O 365.253 5.70367 0.0612244 0
M  V30 3354 O 364.187 5.7186 -1.87775 0
M  V30 3355 H 368.013 2.41169 -1.84584 0
M  V30 3356 H 365.598 1.1453 -0.959334 0
M  V30 3357 H 367.48 4.21024 -0.178057 0
M  V30 3358 H 366.155 3.20316 0.466869 0
M  V30 3359 H 365.062 3.25158 -1.84995 0
M  V30 3360 H 366.395 4.28778 -2.41683 0
M  V30 3361 N 368.047 0.979072 1.23499 0
M  V30 3362 C 368.977 0.537606 2.27227 0
M  V30 3363 C 369.958 -0.428539 1.64613 0
M  V30 3364 O 371.143 -0.322191 1.91509 0
M  V30 3365 C 368.273 -0.162052 3.46922 0
M  V30 3366 C 367.227 0.721242 4.21879 0
M  V30 3367 C 366.553 -0.110555 5.34586 0
M  V30 3368 C 367.853 2.01141 4.82016 0
M  V30 3369 H 369.547 1.40462 2.64406 0
M  V30 3370 H 367.093 0.67684 1.27102 0
M  V30 3371 H 369.046 -0.482192 4.18632 0
M  V30 3372 H 367.77 -1.06351 3.08799 0
M  V30 3373 H 366.429 1.02482 3.51984 0
M  V30 3374 H 366.077 -1.0125 4.92704 0
M  V30 3375 H 365.777 0.477325 5.85658 0
M  V30 3376 H 367.301 -0.425107 6.09118 0
M  V30 3377 H 368.715 1.75612 5.45741 0
M  V30 3378 H 367.112 2.54695 5.43369 0
M  V30 3379 H 368.182 2.69909 4.02836 0
M  V30 3380 N 369.525 -1.3858 0.750561 0
M  V30 3381 C 370.435 -2.34278 0.122825 0
M  V30 3382 C 371.451 -1.59116 -0.704131 0
M  V30 3383 O 372.627 -1.91326 -0.628987 0
M  V30 3384 C 369.692 -3.38221 -0.762086 0
M  V30 3385 C 368.753 -4.29227 0.078896 0
M  V30 3386 C 367.986 -5.28205 -0.763874 0
M  V30 3387 O 368.209 -5.34112 -2.00201 0
M  V30 3388 O 367.143 -6.01618 -0.18428 0
M  V30 3389 H 370.969 -2.89649 0.913088 0
M  V30 3390 H 368.554 -1.40374 0.511417 0
M  V30 3391 H 370.436 -4.01872 -1.26793 0
M  V30 3392 H 369.111 -2.85211 -1.5309 0
M  V30 3393 H 368.018 -3.68747 0.630621 0
M  V30 3394 H 369.351 -4.85484 0.810289 0
M  V30 3395 N 371.003 -0.499398 -1.49478 0
M  V30 3396 C 371.95 0.279881 -2.29097 0
M  V30 3397 C 372.92 0.961805 -1.3542 0
M  V30 3398 O 374.105 0.968777 -1.64376 0
M  V30 3399 C 371.245 1.33932 -3.18051 0
M  V30 3400 C 370.358 0.669333 -4.26783 0
M  V30 3401 C 369.493 1.70907 -5.02955 0
M  V30 3402 C 368.532 1.02087 -6.03527 0
M  V30 3403 N 367.669 2.00474 -6.7287 0
M  V30 3404 H 372.509 -0.405317 -2.95231 0
M  V30 3405 H 370.046 -0.211726 -1.45568 0
M  V30 3406 H 372.004 1.96553 -3.67998 0
M  V30 3407 H 370.634 1.9933 -2.53904 0
M  V30 3408 H 369.686 -0.0701234 -3.80335 0
M  V30 3409 H 370.998 0.127503 -4.98637 0
M  V30 3410 H 370.152 2.41037 -5.56764 0
M  V30 3411 H 368.891 2.28476 -4.30871 0
M  V30 3412 H 367.896 0.305338 -5.48951 0
M  V30 3413 H 369.121 0.451708 -6.77596 0
M  V30 3414 H 367.067 2.57007 -6.03559 0
M  V30 3415 H 366.984 1.51353 -7.40694 0
M  V30 3416 H 368.252 2.69897 -7.31284 0
M  V30 3417 N 372.481 1.55866 -0.233164 0
M  V30 3418 C 373.391 2.24431 0.683217 0
M  V30 3419 C 374.407 1.2558 1.2044 0
M  V30 3420 O 375.583 1.58422 1.24356 0
M  V30 3421 C 372.648 2.91979 1.86947 0
M  V30 3422 C 371.709 4.06204 1.38912 0
M  V30 3423 C 370.942 4.70522 2.51883 0
M  V30 3424 O 371.165 4.33865 3.70293 0
M  V30 3425 O 370.099 5.59296 2.22423 0
M  V30 3426 H 373.925 3.03426 0.129059 0
M  V30 3427 H 371.51 1.494 -0.0022283 0
M  V30 3428 H 373.392 3.34573 2.56201 0
M  V30 3429 H 372.067 2.15935 2.41151 0
M  V30 3430 H 370.974 3.68155 0.664259 0
M  V30 3431 H 372.307 4.84025 0.893328 0
M  V30 3432 N 373.959 -0.0401083 1.57549 0
M  V30 3433 C 375.37 -0.588097 1.77196 0
M  V30 3434 C 375.721 -1.76209 0.862832 0
M  V30 3435 O 374.846 -2.16331 0.0548389 0
M  V30 3436 C 375.441 -1.07363 3.21339 0
M  V30 3437 C 374 -1.56723 3.42221 0
M  V30 3438 C 373.147 -0.50041 2.72747 0
M  V30 3439 H 376.098 0.186119 1.57605 0
M  V30 3440 H 376.119 -1.94143 3.27244 0
M  V30 3441 H 375.631 -0.218975 3.87482 0
M  V30 3442 H 373.732 -2.4441 2.81237 0
M  V30 3443 H 373.845 -1.62234 4.50796 0
M  V30 3444 H 372.209 -0.952894 2.36203 0
M  V30 3445 H 372.992 0.344599 3.41566 0
M  V30 3446 N 375.437 -1.54477 -0.31217 0
M  V30 3447 C 376.684 -1.73227 -1.04875 0
M  V30 3448 C 377.012 -0.512042 -1.87639 0
M  V30 3449 O 376.267 0.506131 -1.89042 0
M  V30 3450 C 376.566 -2.967 -1.99258 0
M  V30 3451 C 376.232 -4.30974 -1.32559 0
M  V30 3452 C 374.894 -4.67477 -1.141 0
M  V30 3453 C 377.246 -5.14258 -0.847835 0
M  V30 3454 C 374.574 -5.84852 -0.465326 0
M  V30 3455 C 376.926 -6.32327 -0.185931 0
M  V30 3456 C 375.59 -6.67499 0.0107077 0
M  V30 3457 H 374.86 -0.633881 -0.383765 0
M  V30 3458 H 377.507 -1.88727 -0.324731 0
M  V30 3459 H 375.812 -2.75935 -2.7815 0
M  V30 3460 H 377.509 -3.08401 -2.563 0
M  V30 3461 H 374.099 -4.02262 -1.4793 0
M  V30 3462 H 378.283 -4.86565 -0.978192 0
M  V30 3463 H 373.539 -6.10654 -0.301883 0
M  V30 3464 H 377.713 -6.96135 0.192211 0
M  V30 3465 H 375.34 -7.58306 0.536287 0
M  V30 3466 N 376.915 0.57481 -1.46744 0
M  V30 3467 C 377.825 1.711 -1.60505 0
M  V30 3468 C 378.841 1.67008 -0.488307 0
M  V30 3469 O 380.017 1.86774 -0.753495 0
M  V30 3470 C 377.082 3.07608 -1.59932 0
M  V30 3471 C 376.143 3.22904 -2.82898 0
M  V30 3472 C 375.376 4.529 -2.82343 0
M  V30 3473 O 375.599 5.37278 -1.91542 0
M  V30 3474 O 374.533 4.71611 -3.73987 0
M  V30 3475 H 378.359 1.62436 -2.56609 0
M  V30 3476 H 375.944 0.742779 -1.29627 0
M  V30 3477 H 377.826 3.88877 -1.62336 0
M  V30 3478 H 376.501 3.16692 -0.669898 0
M  V30 3479 H 375.408 2.41099 -2.86046 0
M  V30 3480 H 376.741 3.18715 -3.75076 0
M  V30 3481 N 378.394 1.34581 0.820102 0
M  V30 3482 C 379.671 1.17675 1.56244 0
M  V30 3483 C 380.051 -0.249541 2.0962 0
M  V30 3484 O 379.399 -1.25125 1.91196 0
M  V30 3485 C 379.609 2.23364 2.6816 0
M  V30 3486 C 380.957 2.58485 3.36854 0
M  V30 3487 O 381.981 2.22175 2.78418 0
M  V30 3488 O 380.84 3.20868 4.42386 0
M  V30 3489 H 377.934 0.456333 0.689702 0
M  V30 3490 H 380.48 1.46222 0.861231 0
M  V30 3491 H 379.252 3.19087 2.26493 0
M  V30 3492 H 378.875 1.96009 3.45928 0
M  V30 3493 N 379.872 -1.04064 1.18357 0
M  V30 3494 C 381.12 -1.76915 0.977013 0
M  V30 3495 C 381.441 -1.88624 -0.494577 0
M  V30 3496 O 380.711 -1.41125 -1.3587 0
M  V30 3497 H 379.291 -0.65535 0.358504 0
M  V30 3498 H 381.953 -1.25592 1.49039 0
M  V30 3499 H 381.049 -2.78178 1.41504 0
M  V30 3500 N 381.35 -0.985608 -1.22978 0
M  V30 3501 C 382.597 -0.657386 -1.91532 0
M  V30 3502 C 382.925 0.809707 -1.76845 0
M  V30 3503 O 382.18 1.60021 -1.12658 0
M  V30 3504 C 382.479 -1.00014 -3.43121 0
M  V30 3505 C 382.145 -2.4583 -3.77993 0
M  V30 3506 C 380.807 -2.85679 -3.87222 0
M  V30 3507 C 383.159 -3.40378 -3.94705 0
M  V30 3508 C 380.487 -4.19081 -4.10595 0
M  V30 3509 C 382.839 -4.73429 -4.1958 0
M  V30 3510 C 381.503 -5.1303 -4.27032 0
M  V30 3511 H 380.773 -0.240555 -0.700867 0
M  V30 3512 H 383.42 -1.24044 -1.45895 0
M  V30 3513 H 381.725 -0.335072 -3.90365 0
M  V30 3514 H 383.422 -0.724322 -3.94404 0
M  V30 3515 H 380.012 -2.13939 -3.71387 0
M  V30 3516 H 384.196 -3.10766 -3.8696 0
M  V30 3517 H 379.452 -4.49362 -4.14589 0
M  V30 3518 H 383.626 -5.46644 -4.31455 0
M  V30 3519 H 381.253 -6.16418 -4.44896 0
M  V30 3520 N 382.828 1.3818 -0.7579 0
M  V30 3521 C 383.791 2.28764 -0.141286 0
M  V30 3522 C 384.791 1.47388 0.642907 0
M  V30 3523 O 385.981 1.67781 0.468536 0
M  V30 3524 C 383.113 3.31184 0.808069 0
M  V30 3525 H 384.306 2.848 -0.939633 0
M  V30 3526 H 381.859 1.47212 -0.525191 0
M  V30 3527 H 382.594 2.80247 1.63193 0
M  V30 3528 H 382.379 3.91314 0.248104 0
M  V30 3529 H 383.869 3.98909 1.23536 0
M  V30 3530 N 384.306 0.507319 1.49211 0
M  V30 3531 C 385.254 -0.281364 2.30892 0
M  V30 3532 C 386.248 -0.95687 1.39787 0
M  V30 3533 O 387.454 -0.883838 1.56807 0
M  V30 3534 H 383.829 -0.109597 0.743971 0
M  V30 3535 H 385.8 0.42744 2.95323 0
M  V30 3536 C 384.549 -1.32918 3.21291 0
M  V30 3537 H 383.872 -0.818799 3.91326 0
M  V30 3538 H 385.312 -1.85288 3.81372 0
M  V30 3539 C 383.771 -2.35074 2.41333 0
M  V30 3540 O 384.301 -3.4108 2.12197 0
M  V30 3541 N 382.507 -2.07705 2.03241 0
M  V30 3542 H 382.054 -1.2152 2.27136 0
M  V30 3543 H 382.012 -2.76283 1.50051 0
M  V30 3544 N 385.784 -1.5574 0.241426 0
M  V30 3545 C 387.032 -1.98417 -0.384075 0
M  V30 3546 C 387.353 -1.13078 -1.58866 0
M  V30 3547 O 386.623 -0.212312 -1.94746 0
M  V30 3548 H 385.203 -0.732813 -0.144894 0
M  V30 3549 H 387.865 -1.9193 0.338943 0
M  V30 3550 H 386.961 -3.04219 -0.696939 0
M  V30 3551 N 387.262 0.0317525 -1.57568 0
M  V30 3552 C 388.172 1.05021 -2.0978 0
M  V30 3553 C 389.188 1.39809 -1.03583 0
M  V30 3554 O 390.364 1.49182 -1.35302 0
M  V30 3555 C 387.429 2.33301 -2.56459 0
M  V30 3556 C 386.49 2.0512 -3.77127 0
M  V30 3557 C 385.723 3.27283 -4.2157 0
M  V30 3558 O 385.946 4.37861 -3.65559 0
M  V30 3559 O 384.88 3.13141 -5.14029 0
M  V30 3560 H 388.706 0.636505 -2.96955 0
M  V30 3561 H 386.291 0.248559 -1.47318 0
M  V30 3562 H 388.173 3.08722 -2.86825 0
M  V30 3563 H 386.848 2.73973 -1.72397 0
M  V30 3564 H 385.755 1.27276 -3.51784 0
M  V30 3565 H 387.088 1.69305 -4.62165 0
M  V30 3566 N 388.74 1.54641 0.303973 0
M  V30 3567 C 389.65 1.88439 1.39743 0
M  V30 3568 C 390.666 0.778239 1.55626 0
M  V30 3569 O 391.842 1.07442 1.70347 0
M  V30 3570 C 388.907 2.12212 2.74166 0
M  V30 3571 C 387.968 3.35936 2.67293 0
M  V30 3572 C 387.201 3.58566 3.95305 0
M  V30 3573 O 387.424 2.84263 4.9452 0
M  V30 3574 O 386.358 4.52078 3.97378 0
M  V30 3575 H 390.184 2.81458 1.14083 0
M  V30 3576 H 387.769 1.40793 0.499768 0
M  V30 3577 H 389.651 2.29067 3.53704 0
M  V30 3578 H 388.326 1.22379 2.99675 0
M  V30 3579 H 387.233 3.24448 1.86237 0
M  V30 3580 H 388.566 4.2589 2.46736 0
M  V30 3581 N 390.218 -0.567019 1.47046 0
M  V30 3582 C 391.443 -1.3551 1.57009 0
M  V30 3583 C 391.868 -1.86841 0.217259 0
M  V30 3584 O 391.226 -1.62435 -0.805268 0
M  V30 3585 C 391.274 -2.50777 2.5912 0
M  V30 3586 O 390.378 -3.52706 2.13711 0
M  V30 3587 H 389.719 -0.402919 0.52778 0
M  V30 3588 H 392.249 -0.686241 1.92748 0
M  V30 3589 H 392.259 -2.97481 2.79229 0
M  V30 3590 H 390.934 -2.12771 3.57353 0
M  V30 3591 H 389.511 -3.12374 2.03659 0
M  V30 3592 N 391.696 -1.35014 -0.812953 0
M  V30 3593 C 392.924 -1.31031 -1.6012 0
M  V30 3594 C 393.339 0.113558 -1.88458 0
M  V30 3595 O 392.696 1.06363 -1.48301 0
M  V30 3596 C 392.747 -2.10872 -2.93624 0
M  V30 3597 O 392.468 -3.47706 -2.66518 0
M  V30 3598 C 393.969 -2.14401 -3.88004 0
M  V30 3599 H 391.189 -0.45037 -0.497401 0
M  V30 3600 H 393.733 -1.77775 -1.01076 0
M  V30 3601 H 391.888 -1.67744 -3.492 0
M  V30 3602 H 392.302 -3.89097 -3.51715 0
M  V30 3603 H 393.776 -2.74669 -4.78812 0
M  V30 3604 H 394.253 -1.14105 -4.24119 0
M  V30 3605 H 394.859 -2.57662 -3.38364 0
M  V30 3606 N 393.175 1.03435 -1.18907 0
M  V30 3607 C 394.586 1.58195 -0.991523 0
M  V30 3608 C 394.937 1.90801 0.457081 0
M  V30 3609 O 394.062 1.70272 1.33553 0
M  V30 3610 C 394.657 2.87432 -1.79355 0
M  V30 3611 C 393.216 3.38785 -1.64017 0
M  V30 3612 C 392.363 2.12292 -1.78402 0
M  V30 3613 H 395.314 0.860299 -1.33359 0
M  V30 3614 H 395.335 3.58096 -1.28638 0
M  V30 3615 H 394.847 2.63669 -2.84781 0
M  V30 3616 H 392.948 3.67547 -0.611536 0
M  V30 3617 H 393.061 4.12186 -2.44212 0
M  V30 3618 H 391.425 2.23901 -1.2141 0
M  V30 3619 H 392.208 1.90977 -2.85277 0
M  V30 3620 N 394.653 0.992116 1.22453 0
M  V30 3621 C 395.881 0.685944 1.95198 0
M  V30 3622 C 396.296 -0.749233 1.73297 0
M  V30 3623 O 395.653 -1.50549 1.03156 0
M  V30 3624 C 395.704 0.981395 3.47924 0
M  V30 3625 O 395.425 2.36018 3.6909 0
M  V30 3626 C 396.926 0.692815 4.37853 0
M  V30 3627 H 394.146 0.253821 0.621141 0
M  V30 3628 H 396.69 1.32668 1.55626 0
M  V30 3629 H 394.845 0.386481 3.85467 0
M  V30 3630 H 395.259 2.45884 4.63294 0
M  V30 3631 H 396.733 0.949818 5.43767 0
M  V30 3632 H 397.21 -0.373181 4.37612 0
M  V30 3633 H 397.816 1.26874 4.05935 0
M  V30 3634 N 396.131 -1.37776 0.765217 0
M  V30 3635 C 397.547 -1.53297 0.444108 0
M  V30 3636 C 397.747 -1.72515 -1.04119 0
M  V30 3637 O 396.803 -1.74278 -1.82711 0
M  V30 3638 C 398.116 -2.73328 1.25349 0
M  V30 3639 C 399.664 -2.87185 1.24473 0
M  V30 3640 C 400.139 -4.10191 2.03733 0
M  V30 3641 N 401.63 -4.17291 2.01053 0
M  V30 3642 C 402.365 -5.11488 2.59166 0
M  V30 3643 N 401.861 -6.11285 3.26041 0
M  V30 3644 N 403.654 -5.03924 2.49032 0
M  V30 3645 H 395.805 -1.23552 1.72768 0
M  V30 3646 H 398.068 -0.601103 0.733062 0
M  V30 3647 H 397.774 -2.6557 2.30577 0
M  V30 3648 H 397.648 -3.66834 0.87823 0
M  V30 3649 H 400.035 -2.94418 0.20047 0
M  V30 3650 H 400.116 -1.94657 1.65959 0
M  V30 3651 H 399.76 -4.0372 3.08176 0
M  V30 3652 H 399.69 -5.01821 1.59633 0
M  V30 3653 H 402.181 -3.45825 1.5236 0
M  V30 3654 H 402.494 -6.79678 3.67774 0
M  V30 3655 H 400.839 -6.11583 3.30138 0
M  V30 3656 H 404.03 -4.24902 1.96407 0
M  V30 3657 H 404.203 -5.77152 2.94617 0
M  V30 3658 N 397.609 -0.515225 -1.4894 0
M  V30 3659 C 398.886 0.0879088 -1.95402 0
M  V30 3660 C 399.266 1.52745 -1.45712 0
M  V30 3661 O 398.614 2.18238 -0.677093 0
M  V30 3662 C 398.824 -0.0141055 -3.48997 0
M  V30 3663 C 400.172 0.152646 -4.24326 0
M  V30 3664 O 401.196 0.0604025 -3.56149 0
M  V30 3665 O 400.055 0.34384 -5.45417 0
M  V30 3666 H 397.149 0.0874636 -0.822362 0
M  V30 3667 H 399.695 -0.578775 -1.59525 0
M  V30 3668 H 398.467 -1.01745 -3.77841 0
M  V30 3669 H 398.09 0.692091 -3.9153 0
M  V30 3670 N 399.087 1.5561 -0.249682 0
M  V30 3671 C 400.05 2.20217 0.635394 0
M  V30 3672 C 401.05 1.17227 1.10066 0
M  V30 3673 O 402.24 1.42292 1.00492 0
M  V30 3674 C 399.372 2.84794 1.87363 0
M  V30 3675 H 400.565 2.99814 0.0716752 0
M  V30 3676 H 398.118 1.563 -0.000153234 0
M  V30 3677 H 398.853 2.09142 2.47851 0
M  V30 3678 H 398.638 3.60241 1.5482 0
M  V30 3679 H 400.128 3.3423 2.5036 0
M  V30 3680 N 400.565 -0.0233959 1.57583 0
M  V30 3681 C 401.811 -0.714119 1.89811 0
M  V30 3682 C 402.144 -1.74702 0.848113 0
M  V30 3683 O 401.419 -1.94023 -0.136135 0
M  V30 3684 C 401.702 -1.37853 3.32669 0
M  V30 3685 C 401.555 -0.358764 4.48367 0
M  V30 3686 C 402.874 -2.31101 3.7454 0
M  V30 3687 H 399.993 -0.25814 0.690314 0
M  V30 3688 H 402.635 0.0230927 1.89986 0
M  V30 3689 H 400.785 -2.00689 3.3265 0
M  V30 3690 H 402.457 0.268115 4.6052 0
M  V30 3691 H 400.7 0.321387 4.32608 0
M  V30 3692 H 401.371 -0.862242 5.45224 0
M  V30 3693 H 403.847 -1.78304 3.75961 0
M  V30 3694 H 402.723 -2.74567 4.75294 0
M  V30 3695 H 402.984 -3.18018 3.0711 0
M  V30 3696 N 402.043 -1.548 -0.295768 0
M  V30 3697 C 403.289 -1.74588 -1.03184 0
M  V30 3698 C 403.622 -0.532962 -1.86744 0
M  V30 3699 O 402.897 0.469872 -1.88739 0
M  V30 3700 C 403.18 -3.03791 -1.93347 0
M  V30 3701 C 403.033 -4.35392 -1.12933 0
M  V30 3702 C 404.352 -3.28892 -2.92435 0
M  V30 3703 H 401.471 -0.635221 -0.373715 0
M  V30 3704 H 404.113 -1.87519 -0.30606 0
M  V30 3705 H 402.263 -2.92898 -2.55232 0
M  V30 3706 H 403.935 -4.58211 -0.532943 0
M  V30 3707 H 402.178 -4.31642 -0.432168 0
M  V30 3708 H 402.849 -5.22074 -1.79284 0
M  V30 3709 H 405.325 -3.39429 -2.4068 0
M  V30 3710 H 404.201 -4.20603 -3.52682 0
M  V30 3711 H 404.462 -2.47437 -3.6637 0
M  V30 3712 N 403.521 0.559213 -1.47345 0
M  V30 3713 C 404.749 1.34194 -1.57479 0
M  V30 3714 C 405.164 1.87463 -0.224261 0
M  V30 3715 O 404.521 1.64888 0.782185 0
M  V30 3716 C 404.572 2.51324 -2.59843 0
M  V30 3717 O 404.293 2.00256 -3.89653 0
M  V30 3718 C 405.794 3.43563 -2.80142 0
M  V30 3719 H 403.014 0.409136 -0.531835 0
M  V30 3720 H 405.558 0.677609 -1.92947 0
M  V30 3721 H 403.713 3.13699 -2.27314 0
M  V30 3722 H 404.127 2.76708 -4.4557 0
M  V30 3723 H 405.601 4.2217 -3.55635 0
M  V30 3724 H 406.078 3.9698 -1.87892 0
M  V30 3725 H 406.684 2.87005 -3.1386 0
M  V30 3726 N 404.999 1.35443 0.805782 0
M  V30 3727 C 406.229 1.31687 1.59192 0
M  V30 3728 C 406.637 -0.10756 1.88894 0
M  V30 3729 O 405.98 -1.07017 1.49309 0
M  V30 3730 C 406.042 2.05686 2.94845 0
M  V30 3731 C 405.706 3.54868 2.87954 0
M  V30 3732 C 406.703 4.49444 2.61335 0
M  V30 3733 C 404.388 3.97528 3.07046 0
M  V30 3734 C 406.382 5.84655 2.53885 0
M  V30 3735 C 404.069 5.32833 2.99219 0
M  V30 3736 C 405.067 6.26209 2.72674 0
M  V30 3737 O 404.755 7.59032 2.64811 0
M  V30 3738 H 404.487 0.453878 0.50097 0
M  V30 3739 H 407.041 1.78892 1.0093 0
M  V30 3740 H 405.271 1.5312 3.55093 0
M  V30 3741 H 406.96 1.94998 3.55993 0
M  V30 3742 H 407.726 4.17804 2.46303 0
M  V30 3743 H 403.605 3.25233 3.26718 0
M  V30 3744 H 407.149 6.57508 2.33086 0
M  V30 3745 H 403.046 5.64087 3.13809 0
M  V30 3746 H 403.814 7.68967 2.80413 0
M  V30 3747 N 406.477 -1.02803 1.19454 0
M  V30 3748 C 407.705 -1.79841 1.02297 0
M  V30 3749 C 408.12 -1.83879 -0.428259 0
M  V30 3750 O 407.477 -1.28345 -1.29745 0
M  V30 3751 C 407.528 -3.24852 1.58598 0
M  V30 3752 O 407.249 -3.21097 2.98041 0
M  V30 3753 C 408.75 -4.18485 1.46236 0
M  V30 3754 H 405.97 -0.565936 0.360496 0
M  V30 3755 H 408.514 -1.2948 1.58288 0
M  V30 3756 H 406.669 -3.72401 1.06753 0
M  V30 3757 H 407.083 -4.12033 3.24545 0
M  V30 3758 H 408.557 -5.18121 1.90407 0
M  V30 3759 H 409.034 -4.37254 0.41301 0
M  V30 3760 H 409.64 -3.76811 1.97215 0
M  V30 3761 N 407.956 -0.998596 -1.21925 0
M  V30 3762 C 408.919 -0.558679 -2.22287 0
M  V30 3763 C 409.919 0.361525 -1.56683 0
M  V30 3764 O 411.109 0.152695 -1.73529 0
M  V30 3765 C 408.241 0.18661 -3.40389 0
M  V30 3766 H 409.434 -1.4463 -2.62721 0
M  V30 3767 H 406.987 -0.786413 -1.35075 0
M  V30 3768 H 407.722 1.08996 -3.05435 0
M  V30 3769 H 407.507 -0.474188 -3.89222 0
M  V30 3770 H 408.997 0.482367 -4.14805 0
M  V30 3771 N 409.434 1.37368 -0.772513 0
M  V30 3772 C 410.344 2.34053 -0.160081 0
M  V30 3773 C 411.36 1.60216 0.678728 0
M  V30 3774 O 412.536 1.92303 0.59847 0
M  V30 3775 C 409.601 3.3939 0.708182 0
M  V30 3776 C 408.662 4.29048 -0.147172 0
M  V30 3777 C 407.895 5.29354 0.679744 0
M  V30 3778 O 408.118 5.3723 1.91678 0
M  V30 3779 O 407.052 6.01835 0.0885444 0
M  V30 3780 H 410.878 2.88159 -0.959053 0
M  V30 3781 H 408.463 1.39543 -0.533685 0
M  V30 3782 H 410.345 4.03839 1.20384 0
M  V30 3783 H 409.02 2.8761 1.48533 0
M  V30 3784 H 407.927 3.67697 -0.689205 0
M  V30 3785 H 409.26 4.84134 -0.887423 0
M  V30 3786 N 410.912 0.523116 1.48665 0
M  V30 3787 C 412.137 -0.0117284 2.07397 0
M  V30 3788 C 412.562 -1.28031 1.37803 0
M  V30 3789 O 411.92 -1.75836 0.441762 0
M  V30 3790 C 411.968 -0.225786 3.59892 0
M  V30 3791 O 411.072 -1.29592 3.91509 0
M  V30 3792 H 410.413 0.0360673 0.66302 0
M  V30 3793 H 412.943 0.729066 1.9117 0
M  V30 3794 H 412.953 -0.450552 4.05505 0
M  V30 3795 H 411.628 0.700944 4.09951 0
M  V30 3796 H 410.205 -1.05436 3.57684 0
M  V30 3797 N 412.39 -1.55475 0.257931 0
M  V30 3798 C 413.337 -2.21837 -0.636939 0
M  V30 3799 C 414.307 -1.18596 -1.16294 0
M  V30 3800 O 415.492 -1.47081 -1.21539 0
M  V30 3801 C 412.632 -2.9301 -1.82317 0
M  V30 3802 C 411.745 -4.10931 -1.33265 0
M  V30 3803 C 410.88 -4.69791 -2.47931 0
M  V30 3804 C 409.919 -5.7994 -1.95796 0
M  V30 3805 N 409.056 -6.32935 -3.0387 0
M  V30 3806 H 413.896 -2.9793 -0.0643591 0
M  V30 3807 H 411.433 -1.47086 -0.0200031 0
M  V30 3808 H 413.391 -3.3248 -2.52018 0
M  V30 3809 H 412.021 -2.1937 -2.36805 0
M  V30 3810 H 411.073 -3.76699 -0.52931 0
M  V30 3811 H 412.385 -4.90417 -0.910654 0
M  V30 3812 H 411.539 -5.11892 -3.25656 0
M  V30 3813 H 410.278 -3.89545 -2.93438 0
M  V30 3814 H 409.283 -5.37305 -1.16546 0
M  V30 3815 H 410.508 -6.62043 -1.51246 0
M  V30 3816 H 408.454 -5.55591 -3.48791 0
M  V30 3817 H 408.371 -7.07645 -2.66035 0
M  V30 3818 H 409.639 -6.79695 -3.81621 0
M  V30 3819 N 413.868 0.0150385 -1.57593 0
M  V30 3820 C 415.116 0.701613 -1.8953 0
M  V30 3821 C 415.437 1.75139 -0.857396 0
M  V30 3822 O 414.707 1.95607 0.107194 0
M  V30 3823 H 413.287 0.26213 -0.699498 0
M  V30 3824 H 415.949 -0.0223304 -1.94887 0
M  V30 3825 H 415.045 1.18236 -2.88837 0
M  V30 3826 N 415.346 1.54954 0.287554 0
M  V30 3827 C 416.592 1.75132 1.02257 0
M  V30 3828 C 416.925 0.542858 1.86458 0
M  V30 3829 O 416.2 -0.459856 1.88986 0
M  V30 3830 C 416.483 3.04812 1.91733 0
M  V30 3831 C 416.336 4.35985 1.10622 0
M  V30 3832 C 417.655 3.30438 2.90687 0
M  V30 3833 H 414.774 0.637194 0.370341 0
M  V30 3834 H 417.416 1.87678 0.296111 0
M  V30 3835 H 415.566 2.94247 2.53675 0
M  V30 3836 H 417.238 4.58487 0.508636 0
M  V30 3837 H 415.481 4.31865 0.409271 0
M  V30 3838 H 416.152 5.23017 1.76513 0
M  V30 3839 H 418.628 3.40701 2.38877 0
M  V30 3840 H 417.504 4.22467 3.50447 0
M  V30 3841 H 417.765 2.49377 3.65053 0
M  V30 3842 N 416.824 -0.551391 1.4764 0
M  V30 3843 C 418.07 -1.31024 1.54792 0
M  V30 3844 C 418.403 -1.9304 0.211967 0
M  V30 3845 O 417.678 -1.78175 -0.77999 0
M  V30 3846 C 417.961 -2.41593 2.67029 0
M  V30 3847 C 417.814 -1.84408 4.10261 0
M  V30 3848 C 419.133 -3.43488 2.75143 0
M  V30 3849 H 416.252 -0.475031 0.563485 0
M  V30 3850 H 418.894 -0.616454 1.79722 0
M  V30 3851 H 417.044 -3.00772 2.45904 0
M  V30 3852 H 418.716 -1.29445 4.42766 0
M  V30 3853 H 416.959 -1.15051 4.18265 0
M  V30 3854 H 417.63 -2.64367 4.84576 0
M  V30 3855 H 420.106 -2.94236 2.94218 0
M  V30 3856 H 418.982 -4.18274 3.55441 0
M  V30 3857 H 419.243 -4.02703 1.82435 0
M  V30 3858 N 418.302 -1.35869 -0.798587 0
M  V30 3859 C 419.249 -1.29446 -1.91082 0
M  V30 3860 C 420.219 -0.16487 -1.6528 0
M  V30 3861 O 421.404 -0.349888 -1.87564 0
M  V30 3862 C 418.544 -1.0804 -3.27752 0
M  V30 3863 C 417.657 -2.29993 -3.65687 0
M  V30 3864 C 416.792 -2.01673 -4.91428 0
M  V30 3865 C 415.831 -3.19636 -5.22015 0
M  V30 3866 N 414.968 -2.91039 -6.38937 0
M  V30 3867 H 419.808 -2.24553 -1.95907 0
M  V30 3868 H 417.345 -1.11615 -0.958148 0
M  V30 3869 H 419.303 -0.936586 -4.06551 0
M  V30 3870 H 417.933 -0.16592 -3.22373 0
M  V30 3871 H 416.985 -2.55211 -2.82085 0
M  V30 3872 H 418.297 -3.18052 -3.84245 0
M  V30 3873 H 417.451 -1.84168 -5.78072 0
M  V30 3874 H 416.19 -1.10911 -4.74921 0
M  V30 3875 H 415.195 -3.37709 -4.33858 0
M  V30 3876 H 416.42 -4.11211 -5.40447 0
M  V30 3877 H 414.366 -2.0288 -6.2384 0
M  V30 3878 H 414.283 -3.72635 -6.57784 0
M  V30 3879 H 415.551 -2.77093 -7.28587 0
M  V30 3880 N 419.78 1.02168 -1.19998 0
M  V30 3881 C 421.027 1.75685 -1.00702 0
M  V30 3882 C 421.355 1.88947 0.461426 0
M  V30 3883 O 420.61 1.40832 1.35885 0
M  V30 3884 C 420.909 3.18081 -1.62969 0
M  V30 3885 C 420.575 3.24809 -3.12746 0
M  V30 3886 C 419.237 3.26352 -3.53621 0
M  V30 3887 C 421.589 3.23379 -4.08749 0
M  V30 3888 C 418.917 3.2413 -4.89036 0
M  V30 3889 C 421.269 3.22698 -5.44104 0
M  V30 3890 C 419.933 3.22542 -5.84399 0
M  V30 3891 H 419.203 0.642877 -0.368496 0
M  V30 3892 H 421.85 1.19865 -1.49348 0
M  V30 3893 H 420.155 3.77027 -1.06573 0
M  V30 3894 H 421.852 3.73648 -1.45561 0
M  V30 3895 H 418.442 3.2434 -2.80181 0
M  V30 3896 H 422.626 3.21361 -3.78207 0
M  V30 3897 H 417.882 3.22338 -5.19527 0
M  V30 3898 H 422.056 3.20543 -6.18244 0
M  V30 3899 H 419.683 3.20575 -6.89301 0
M  V30 3900 N 421.258 1.00505 1.21394 0
M  V30 3901 C 422.506 0.686415 1.90086 0
M  V30 3902 C 422.827 -0.785264 1.7849 0
M  V30 3903 O 422.097 -1.56387 1.17983 0
M  V30 3904 H 420.677 0.2509 0.703604 0
M  V30 3905 H 423.339 1.27417 1.47482 0
M  V30 3906 H 422.435 0.959621 2.96981 0
M  V30 3907 N 422.737 -1.36956 0.779787 0
M  V30 3908 C 423.983 -2.00237 0.357324 0
M  V30 3909 C 424.338 -1.60787 -1.05666 0
M  V30 3910 O 423.631 -0.847836 -1.71821 0
M  V30 3911 C 423.825 -3.54585 0.447686 0
M  V30 3912 C 423.654 -4.09025 1.86891 0
M  V30 3913 C 422.424 -4.39612 2.49138 0
M  V30 3914 C 424.622 -4.29461 2.82963 0
M  V30 3915 N 422.604 -4.79816 3.82949 0
M  V30 3916 C 423.975 -4.72363 4.01588 0
M  V30 3917 C 426.03 -4.1161 2.80145 0
M  V30 3918 C 424.733 -4.99284 5.17791 0
M  V30 3919 C 426.759 -4.39672 3.95528 0
M  V30 3920 C 426.121 -4.82822 5.12896 0
M  V30 3921 H 422.22 -0.76148 0.177968 0
M  V30 3922 H 424.804 -1.6613 1.01533 0
M  V30 3923 H 422.975 -3.87982 -0.180184 0
M  V30 3924 H 424.707 -4.047 0.0023955 0
M  V30 3925 H 421.462 -4.28975 2.00693 0
M  V30 3926 H 421.886 -5.04216 4.51769 0
M  V30 3927 H 426.528 -3.77415 1.90572 0
M  V30 3928 H 424.246 -5.32365 6.07958 0
M  V30 3929 H 427.832 -4.27441 3.94697 0
M  V30 3930 H 426.712 -5.04118 6.00695 0
M  V30 3931 N 424.215 -0.530993 -1.48385 0
M  V30 3932 C 425.464 0.00474348 -2.01699 0
M  V30 3933 C 425.777 1.35227 -1.41325 0
M  V30 3934 O 426.983 1.97643 -1.86144 0
M  V30 3935 C 425.439 0.0588473 -3.59852 0
M  V30 3936 C 425.047 -1.28385 -4.2921 0
M  V30 3937 C 426.791 0.543358 -4.21008 0
M  V30 3938 C 424.698 -1.19028 -5.79298 0
M  V30 3939 H 423.628 0.00554317 -0.75398 0
M  V30 3940 H 426.279 -0.674924 -1.70637 0
M  V30 3941 H 424.661 0.803612 -3.8776 0
M  V30 3942 H 425.835 -2.04426 -4.12973 0
M  V30 3943 H 424.15 -1.70418 -3.7993 0
M  V30 3944 H 426.747 0.631351 -5.3096 0
M  V30 3945 H 427.09 1.54937 -3.86394 0
M  V30 3946 H 427.623 -0.145754 -3.97533 0
M  V30 3947 H 424.362 -2.17147 -6.18488 0
M  V30 3948 H 423.882 -0.471246 -5.97946 0
M  V30 3949 H 425.561 -0.881365 -6.40969 0
M  V30 3950 N 425.693 1.55336 -0.266172 0
M  V30 3951 C 426.64 2.22172 0.625165 0
M  V30 3952 C 427.61 1.19211 1.15663 0
M  V30 3953 O 428.795 1.47723 1.20758 0
M  V30 3954 C 425.935 2.93972 1.8076 0
M  V30 3955 C 425.048 4.11632 1.31084 0
M  V30 3956 C 424.183 4.71099 2.45436 0
M  V30 3957 C 423.222 5.8097 1.92718 0
M  V30 3958 N 422.359 6.34538 3.00509 0
M  V30 3959 H 427.199 2.9796 0.0485582 0
M  V30 3960 H 424.736 1.47095 0.0122024 0
M  V30 3961 H 426.694 3.33811 2.50251 0
M  V30 3962 H 425.324 2.20623 2.35638 0
M  V30 3963 H 424.376 3.76975 0.509326 0
M  V30 3964 H 425.688 4.90893 0.884633 0
M  V30 3965 H 424.842 5.13612 3.22936 0
M  V30 3966 H 423.581 3.91096 2.91368 0
M  V30 3967 H 422.586 5.37916 1.13695 0
M  V30 3968 H 423.811 6.62836 1.47733 0
M  V30 3969 H 421.757 5.57433 3.45839 0
M  V30 3970 H 421.674 7.09046 2.62279 0
M  V30 3971 H 422.942 6.81709 3.78011 0
M  V30 3972 N 427.171 -0.0066808 1.57599 0
M  V30 3973 C 428.419 -0.691552 1.899 0
M  V30 3974 C 428.74 -1.74682 0.866672 0
M  V30 3975 O 428.01 -1.95661 -0.0968189 0
M  V30 3976 H 426.59 -0.258416 0.700878 0
M  V30 3977 H 429.252 0.0326655 1.94873 0
M  V30 3978 H 428.348 -1.16702 2.8946 0
M  V30 3979 N 428.649 -1.55105 -0.279332 0
M  V30 3980 C 429.895 -1.75672 -1.01327 0
M  V30 3981 C 430.228 -0.552739 -1.86168 0
M  V30 3982 O 429.503 0.449827 -1.89227 0
M  V30 3983 C 429.786 -3.05825 -1.90114 0
M  V30 3984 C 429.639 -4.36565 -1.08309 0
M  V30 3985 C 430.958 -3.31975 -2.8893 0
M  V30 3986 H 428.077 -0.639149 -0.366957 0
M  V30 3987 H 430.719 -1.87833 -0.286154 0
M  V30 3988 H 428.869 -2.95588 -2.52111 0
M  V30 3989 H 430.541 -4.58751 -0.484314 0
M  V30 3990 H 428.784 -4.32076 -0.386362 0
M  V30 3991 H 429.455 -5.23946 -1.73737 0
M  V30 3992 H 431.931 -3.41963 -2.37067 0
M  V30 3993 H 430.807 -4.2432 -3.48201 0
M  V30 3994 H 431.068 -2.51309 -3.63725 0
M  V30 3995 N 430.127 0.543554 -1.4793 0
M  V30 3996 C 431.057 1.65888 -1.64327 0
M  V30 3997 C 432.038 1.62818 -0.492383 0
M  V30 3998 O 433.223 1.80226 -0.723338 0
M  V30 3999 C 430.353 3.04506 -1.67013 0
M  V30 4000 C 429.307 3.2243 -2.81466 0
M  V30 4001 C 428.633 4.61972 -2.69233 0
M  V30 4002 C 429.933 3.06496 -4.22915 0
M  V30 4003 H 431.627 1.52421 -2.57698 0
M  V30 4004 H 429.173 0.731849 -1.24016 0
M  V30 4005 H 431.126 3.82391 -1.77074 0
M  V30 4006 H 429.85 3.18964 -0.70212 0
M  V30 4007 H 428.509 2.46957 -2.70938 0
M  V30 4008 H 428.157 4.73247 -1.7043 0
M  V30 4009 H 427.857 4.74911 -3.46025 0
M  V30 4010 H 429.381 5.41974 -2.81242 0
M  V30 4011 H 430.795 3.74186 -4.34348 0
M  V30 4012 H 429.192 3.30938 -5.006 0
M  V30 4013 H 430.262 2.03077 -4.40327 0
M  V30 4014 N 431.605 1.3629 0.791371 0
M  V30 4015 C 432.851 1.30605 1.55146 0
M  V30 4016 C 433.184 -0.115042 1.93859 0
M  V30 4017 O 432.459 -1.06798 1.62556 0
M  V30 4018 C 432.742 2.22692 2.82985 0
M  V30 4019 C 432.595 3.73489 2.50651 0
M  V30 4020 C 433.914 2.13588 3.84796 0
M  V30 4021 H 431.033 0.475761 0.562868 0
M  V30 4022 H 433.675 1.66825 0.909358 0
M  V30 4023 H 431.825 1.91933 3.37778 0
M  V30 4024 H 433.497 4.14758 2.01924 0
M  V30 4025 H 431.74 3.93021 1.83622 0
M  V30 4026 H 432.411 4.3333 3.41949 0
M  V30 4027 H 434.887 2.40659 3.39445 0
M  V30 4028 H 433.763 2.80195 4.71998 0
M  V30 4029 H 434.024 1.12256 4.27611 0
M  V30 4030 N 433.083 -1.0153 1.20538 0
M  V30 4031 C 434.499 -1.27461 0.96051 0
M  V30 4032 C 434.699 -1.98273 -0.359193 0
M  V30 4033 O 433.755 -2.27886 -1.0874 0
M  V30 4034 C 435.068 -2.10837 2.14402 0
M  V30 4035 C 436.616 -2.24099 2.18515 0
M  V30 4036 C 437.091 -3.10852 3.36355 0
M  V30 4037 N 438.582 -3.18441 3.36377 0
M  V30 4038 C 439.317 -3.85795 4.24205 0
M  V30 4039 N 438.813 -4.55264 5.22213 0
M  V30 4040 N 440.606 -3.82331 4.12043 0
M  V30 4041 H 432.757 -0.539907 2.05423 0
M  V30 4042 H 435.02 -0.30092 0.898972 0
M  V30 4043 H 434.726 -1.66144 3.09983 0
M  V30 4044 H 434.6 -3.11576 2.12604 0
M  V30 4045 H 436.987 -2.68016 1.23497 0
M  V30 4046 H 437.068 -1.22865 2.24361 0
M  V30 4047 H 436.712 -2.6764 4.31661 0
M  V30 4048 H 436.642 -4.12177 3.27746 0
M  V30 4049 H 439.133 -2.68978 2.65442 0
M  V30 4050 H 439.446 -5.04331 5.85551 0
M  V30 4051 H 437.791 -4.54085 5.26148 0
M  V30 4052 H 440.982 -3.27207 3.34743 0
M  V30 4053 H 441.155 -4.34547 4.807 0
M  V30 4054 N 434.561 -1.01147 -1.20859 0
M  V30 4055 C 435.801 -0.706331 -1.91808 0
M  V30 4056 C 436.165 0.749736 -1.76757 0
M  V30 4057 O 437.366 1.16716 -2.42138 0
M  V30 4058 C 435.637 -1.12371 -3.39275 0
M  V30 4059 S 437.196 -0.939764 -4.28619 0
M  V30 4060 H 434.014 -0.257665 -0.662669 0
M  V30 4061 H 436.616 -1.29766 -1.46223 0
M  V30 4062 H 435.32 -2.17943 -3.47749 0
M  V30 4063 H 434.851 -0.524952 -3.89882 0
M  V30 4064 H 436.866 0.159556 -4.95943 0
M  V30 4065 N 436.039 1.36541 -0.78704 0
M  V30 4066 C 436.972 2.27831 -0.129765 0
M  V30 4067 C 437.95 1.47105 0.692732 0
M  V30 4068 O 439.134 1.7641 0.664222 0
M  V30 4069 C 436.261 3.28577 0.821883 0
M  V30 4070 C 435.307 4.26422 0.0814771 0
M  V30 4071 S 436.14 5.20919 -1.24112 0
M  V30 4072 C 437.296 6.25212 -0.293409 0
M  V30 4073 H 437.529 2.83229 -0.903811 0
M  V30 4074 H 435.062 1.43046 -0.581144 0
M  V30 4075 H 437.02 3.87123 1.3655 0
M  V30 4076 H 435.681 2.72096 1.56916 0
M  V30 4077 H 434.874 4.97554 0.803485 0
M  V30 4078 H 434.476 3.71944 -0.391589 0
M  V30 4079 H 436.768 6.75435 0.528622 0
M  V30 4080 H 437.711 7.01378 -0.973344 0
M  V30 4081 H 438.119 5.64407 0.102196 0
M  V30 4082 N 437.518 0.538854 1.48102 0
M  V30 4083 C 438.448 -0.207654 2.32575 0
M  V30 4084 C 439.429 -0.926559 1.4265 0
M  V30 4085 O 440.614 -0.91061 1.71527 0
M  V30 4086 C 437.744 -1.24957 3.24042 0
M  V30 4087 C 436.698 -0.648263 4.23062 0
M  V30 4088 C 436.024 -1.79348 5.03725 0
M  V30 4089 C 437.324 0.385897 5.20872 0
M  V30 4090 H 439.018 0.497534 2.95237 0
M  V30 4091 H 436.564 0.240715 1.41974 0
M  V30 4092 H 438.517 -1.77983 3.81969 0
M  V30 4093 H 437.241 -1.98446 2.59397 0
M  V30 4094 H 435.9 -0.139452 3.66335 0
M  V30 4095 H 435.548 -2.51696 4.35498 0
M  V30 4096 H 435.248 -1.39702 5.70751 0
M  V30 4097 H 436.772 -2.32735 5.64506 0
M  V30 4098 H 438.186 -0.057607 5.73271 0
M  V30 4099 H 436.583 0.700227 5.96001 0
M  V30 4100 H 437.653 1.28848 4.67468 0
M  V30 4101 N 438.996 -1.55193 0.274407 0
M  V30 4102 C 439.944 -2.23924 -0.629362 0
M  V30 4103 C 440.938 -1.23602 -1.1584 0
M  V30 4104 O 442.144 -1.41535 -1.11211 0
M  V30 4105 H 438.519 -0.718637 -0.221507 0
M  V30 4106 H 440.49 -2.98388 -0.0268322 0
M  V30 4107 C 439.239 -2.97329 -1.80252 0
M  V30 4108 H 438.562 -3.74313 -1.40462 0
M  V30 4109 H 440.002 -3.48743 -2.41152 0
M  V30 4110 C 438.461 -2.0276 -2.69054 0
M  V30 4111 O 438.991 -1.57836 -3.69392 0
M  V30 4112 N 437.197 -1.69275 -2.36208 0
M  V30 4113 H 436.744 -2.06004 -1.54661 0
M  V30 4114 H 436.702 -1.06271 -2.95895 0
M  V30 4115 N 440.474 -0.00167713 -1.576 0
M  V30 4116 C 441.723 0.682021 -1.89819 0
M  V30 4117 C 442.036 1.74844 -0.876871 0
M  V30 4118 O 443.242 2.48688 -1.08934 0
M  V30 4119 C 441.698 1.26425 -3.36964 0
M  V30 4120 C 441.306 0.232568 -4.47396 0
M  V30 4121 C 443.05 1.92604 -3.78291 0
M  V30 4122 C 440.957 0.824882 -5.85619 0
M  V30 4123 H 439.887 0.258499 -0.708304 0
M  V30 4124 H 442.538 -0.0624957 -1.83394 0
M  V30 4125 H 440.92 2.05949 -3.38232 0
M  V30 4126 H 442.094 -0.5382 -4.57646 0
M  V30 4127 H 440.409 -0.32888 -4.15099 0
M  V30 4128 H 443.006 2.37827 -4.78897 0
M  V30 4129 H 443.349 2.75732 -3.11894 0
M  V30 4130 H 443.882 1.19812 -3.79328 0
M  V30 4131 H 440.621 0.0323542 -6.55492 0
M  V30 4132 H 440.141 1.56477 -5.79029 0
M  V30 4133 H 441.82 1.32301 -6.33329 0
M  V30 4134 N 441.952 1.55251 0.271103 0
M  V30 4135 C 443.198 1.7713 0.999832 0
M  V30 4136 C 443.553 0.56659 1.83868 0
M  V30 4137 O 442.846 -0.44069 1.86463 0
M  V30 4138 C 443.04 3.01879 1.91321 0
M  V30 4139 C 442.869 4.34368 1.16426 0
M  V30 4140 C 441.639 4.97593 0.879169 0
M  V30 4141 C 443.837 5.1131 0.553749 0
M  V30 4142 N 441.819 6.13813 0.103618 0
M  V30 4143 C 443.19 6.19938 -0.0875442 0
M  V30 4144 C 445.245 4.95754 0.461782 0
M  V30 4145 C 443.948 7.14703 -0.811942 0
M  V30 4146 C 445.974 5.90875 -0.249027 0
M  V30 4147 C 445.336 6.98893 -0.879051 0
M  V30 4148 H 441.435 0.700407 0.347784 0
M  V30 4149 H 444.019 1.92744 0.275314 0
M  V30 4150 H 442.19 2.87637 2.60997 0
M  V30 4151 H 443.922 3.12154 2.57569 0
M  V30 4152 H 440.677 4.58538 1.18491 0
M  V30 4153 H 441.101 6.76455 -0.271543 0
M  V30 4154 H 445.743 4.12342 0.934552 0
M  V30 4155 H 443.461 7.97634 -1.29639 0
M  V30 4156 H 447.047 5.80916 -0.320529 0
M  V30 4157 H 445.927 7.71231 -1.42031 0
M  V30 4158 N 443.43 -0.535701 1.48216 0
M  V30 4159 C 444.678 -1.28928 1.55634 0
M  V30 4160 C 444.999 -1.93645 0.229514 0
M  V30 4161 O 444.269 -1.81038 -0.74846 0
M  V30 4162 H 442.849 -0.47884 0.573342 0
M  V30 4163 H 445.511 -0.623853 1.84646 0
M  V30 4164 H 444.607 -2.07157 2.33436 0
M  V30 4165 N 444.908 -1.36708 -0.784132 0
M  V30 4166 C 446.154 -1.31426 -1.54451 0
M  V30 4167 C 446.487 0.10476 -1.93917 0
M  V30 4168 O 445.762 1.05934 -1.6312 0
M  V30 4169 C 446.045 -2.24189 -2.818 0
M  V30 4170 C 445.898 -3.74813 -2.48667 0
M  V30 4171 C 447.217 -2.15626 -3.83658 0
M  V30 4172 H 444.336 -0.478739 -0.560337 0
M  V30 4173 H 446.978 -1.67305 -0.900498 0
M  V30 4174 H 445.128 -1.93722 -3.36755 0
M  V30 4175 H 446.8 -4.15823 -1.99722 0
M  V30 4176 H 445.043 -3.93989 -1.81535 0
M  V30 4177 H 445.714 -4.35138 -3.39646 0
M  V30 4178 H 448.19 -2.42456 -3.38163 0
M  V30 4179 H 447.066 -2.82694 -4.70506 0
M  V30 4180 H 447.327 -1.14522 -4.27009 0
M  V30 4181 N 446.386 1.0089 -1.21074 0
M  V30 4182 C 447.319 2.09279 -0.909806 0
M  V30 4183 C 448.297 1.61986 0.141145 0
M  V30 4184 O 449.481 1.88495 0.0130332 0
M  V30 4185 C 446.608 3.36723 -0.365374 0
M  V30 4186 C 445.654 4.02919 -1.39852 0
M  V30 4187 S 446.487 4.45835 -2.96633 0
M  V30 4188 C 447.643 5.76471 -2.43786 0
M  V30 4189 H 447.876 2.34484 -1.82769 0
M  V30 4190 H 445.409 1.14115 -1.04006 0
M  V30 4191 H 447.367 4.10459 -0.0578203 0
M  V30 4192 H 446.028 3.09577 0.531136 0
M  V30 4193 H 445.221 4.94634 -0.967117 0
M  V30 4194 H 444.823 3.35441 -1.65395 0
M  V30 4195 H 447.115 6.52027 -1.84029 0
M  V30 4196 H 448.058 6.24418 -3.33928 0
M  V30 4197 H 448.466 5.33104 -1.85636 0
M  V30 4198 N 447.864 1.01787 1.20321 0
M  V30 4199 C 448.794 0.609625 2.25401 0
M  V30 4200 C 449.775 -0.375951 1.65893 0
M  V30 4201 O 450.96 -0.261101 1.92437 0
M  V30 4202 C 448.09 -0.0515995 3.47262 0
M  V30 4203 C 447.044 0.855095 4.19371 0
M  V30 4204 C 446.37 0.0595757 5.34667 0
M  V30 4205 C 447.67 2.16374 4.75373 0
M  V30 4206 H 449.364 1.48803 2.59804 0
M  V30 4207 H 446.91 0.716934 1.24884 0
M  V30 4208 H 448.863 -0.348764 4.19954 0
M  V30 4209 H 447.587 -0.964726 3.12027 0
M  V30 4210 H 446.246 1.13628 3.48546 0
M  V30 4211 H 445.894 -0.85524 4.95676 0
M  V30 4212 H 445.594 0.663406 5.83843 0
M  V30 4213 H 447.118 -0.231105 6.10162 0
M  V30 4214 H 448.532 1.92885 5.39878 0
M  V30 4215 H 446.929 2.71853 5.34991 0
M  V30 4216 H 447.999 2.82589 3.94045 0
M  V30 4217 N 449.342 -1.36122 0.79427 0
M  V30 4218 C 450.589 -1.99111 0.368905 0
M  V30 4219 C 450.917 -1.63032 -1.0607 0
M  V30 4220 O 450.172 -0.879303 -1.74833 0
M  V30 4221 C 450.471 -3.5409 0.48527 0
M  V30 4222 C 450.137 -4.10003 1.87638 0
M  V30 4223 C 448.799 -4.24986 2.257 0
M  V30 4224 C 451.151 -4.40423 2.78706 0
M  V30 4225 C 448.479 -4.67701 3.54221 0
M  V30 4226 C 450.831 -4.84573 4.0666 0
M  V30 4227 C 449.495 -4.97761 4.44737 0
M  V30 4228 H 448.765 -0.7286 0.134992 0
M  V30 4229 H 451.412 -1.62534 1.01267 0
M  V30 4230 H 449.717 -3.91052 -0.241984 0
M  V30 4231 H 451.414 -4.00766 0.137109 0
M  V30 4232 H 448.004 -3.98784 1.57064 0
M  V30 4233 H 452.188 -4.28412 2.50553 0
M  V30 4234 H 447.444 -4.761 3.83587 0
M  V30 4235 H 451.618 -5.07074 4.77336 0
M  V30 4236 H 449.245 -5.30618 5.44379 0
M  V30 4237 N 450.82 -0.546701 -1.47814 0
M  V30 4238 C 452.069 -0.0166497 -2.01693 0
M  V30 4239 C 452.382 1.33721 -1.42752 0
M  V30 4240 O 453.588 1.95658 -1.8823 0
M  V30 4241 C 452.044 0.0206769 -3.59894 0
M  V30 4242 C 451.652 -1.3293 -4.27824 0
M  V30 4243 C 453.396 0.498674 -4.21561 0
M  V30 4244 C 451.303 -1.25165 -5.78003 0
M  V30 4245 H 450.233 -0.0024541 -0.753996 0
M  V30 4246 H 452.884 -0.692984 -1.69912 0
M  V30 4247 H 451.266 0.76244 -3.88591 0
M  V30 4248 H 452.44 -2.08795 -4.10781 0
M  V30 4249 H 450.755 -1.74438 -3.78101 0
M  V30 4250 H 453.352 0.575 -5.31599 0
M  V30 4251 H 453.695 1.5083 -3.88016 0
M  V30 4252 H 454.228 -0.18791 -3.97356 0
M  V30 4253 H 450.967 -2.23695 -6.1615 0
M  V30 4254 H 450.487 -0.53464 -5.97412 0
M  V30 4255 H 452.166 -0.949299 -6.39998 0
M  V30 4256 N 452.299 1.55045 -0.282633 0
M  V30 4257 C 453.715 1.59441 0.0712997 0
M  V30 4258 C 453.915 1.2998 1.53972 0
M  V30 4259 O 452.971 1.06431 2.28973 0
M  V30 4260 C 454.284 2.99097 -0.310104 0
M  V30 4261 C 455.832 3.1194 -0.257343 0
M  V30 4262 C 456.307 4.53875 -0.613297 0
M  V30 4263 N 457.798 4.5974 -0.565134 0
M  V30 4264 C 458.533 5.67603 -0.81326 0
M  V30 4265 N 458.029 6.83582 -1.1264 0
M  V30 4266 N 459.822 5.57187 -0.741553 0
M  V30 4267 H 451.973 1.72458 -1.23984 0
M  V30 4268 H 454.236 0.804549 -0.501403 0
M  V30 4269 H 453.942 3.25516 -1.33163 0
M  V30 4270 H 453.816 3.75616 0.345366 0
M  V30 4271 H 456.203 2.85281 0.754905 0
M  V30 4272 H 456.284 2.37618 -0.947178 0
M  V30 4273 H 455.928 4.81261 -1.62327 0
M  V30 4274 H 455.858 5.26508 0.09841 0
M  V30 4275 H 458.349 3.76427 -0.333294 0
M  V30 4276 H 458.662 7.6175 -1.30219 0
M  V30 4277 H 457.007 6.85179 -1.16425 0
M  V30 4278 H 460.198 4.65457 -0.496705 0
M  V30 4279 H 460.371 6.41171 -0.938306 0
M  V30 4280 N 453.777 0.010035 1.57597 0
M  V30 4281 C 454.707 -0.976857 2.12084 0
M  V30 4282 C 455.688 -1.35191 1.03235 0
M  V30 4283 O 456.873 -1.43389 1.3097 0
M  V30 4284 C 454.003 -2.26548 2.63236 0
M  V30 4285 C 452.957 -2.03175 3.76701 0
M  V30 4286 C 452.283 -3.38138 4.14206 0
M  V30 4287 C 453.583 -1.38625 5.03568 0
M  V30 4288 H 455.277 -0.523145 2.94794 0
M  V30 4289 H 452.823 -0.250195 1.4181 0
M  V30 4290 H 454.776 -2.95952 2.99984 0
M  V30 4291 H 453.5 -2.74051 1.77661 0
M  V30 4292 H 452.159 -1.36195 3.40362 0
M  V30 4293 H 451.807 -3.83363 3.25641 0
M  V30 4294 H 451.507 -3.23312 4.90656 0
M  V30 4295 H 453.031 -4.08841 4.53521 0
M  V30 4296 H 454.445 -1.98 5.38023 0
M  V30 4297 H 452.842 -1.34256 5.84889 0
M  V30 4298 H 453.912 -0.356722 4.83586 0
M  V30 4299 N 455.255 -1.55392 -0.262866 0
M  V30 4300 C 456.48 -1.80847 -1.01533 0
M  V30 4301 C 456.905 -0.584946 -1.78774 0
M  V30 4302 O 456.263 0.465701 -1.75217 0
M  V30 4303 C 456.311 -3.03866 -1.94159 0
M  V30 4304 O 455.415 -2.79662 -3.03089 0
M  V30 4305 H 454.756 -0.597441 -0.289759 0
M  V30 4306 H 457.286 -2.02553 -0.288698 0
M  V30 4307 H 457.296 -3.32872 -2.35924 0
M  V30 4308 H 455.971 -3.92564 -1.37354 0
M  V30 4309 H 454.548 -2.61781 -2.65566 0
M  V30 4310 N 456.733 0.527833 -1.48498 0
M  V30 4311 C 457.979 1.28295 -1.57836 0
M  V30 4312 C 458.334 1.9077 -0.249943 0
M  V30 4313 O 457.627 1.76421 0.747402 0
M  V30 4314 C 457.821 2.39275 -2.65485 0
M  V30 4315 C 457.65 1.87679 -4.08664 0
M  V30 4316 C 456.42 1.70187 -4.75778 0
M  V30 4317 C 458.618 1.40409 -4.94762 0
M  V30 4318 N 456.6 1.13238 -6.03366 0
M  V30 4319 C 457.971 0.954216 -6.12613 0
M  V30 4320 C 460.026 1.28732 -4.8097 0
M  V30 4321 C 458.729 0.39915 -7.18192 0
M  V30 4322 C 460.755 0.746244 -5.86673 0
M  V30 4323 C 460.117 0.306457 -7.03733 0
M  V30 4324 H 456.216 0.460408 -0.632099 0
M  V30 4325 H 458.8 0.594913 -1.85388 0
M  V30 4326 H 456.971 3.05572 -2.3975 0
M  V30 4327 H 458.703 3.06308 -2.64495 0
M  V30 4328 H 455.458 1.93772 -4.32145 0
M  V30 4329 H 455.882 0.867687 -6.71417 0
M  V30 4330 H 460.524 1.61338 -3.90807 0
M  V30 4331 H 458.242 0.0607678 -8.08077 0
M  V30 4332 H 461.828 0.659041 -5.78055 0
M  V30 4333 H 460.708 -0.105708 -7.84129 0
M  V30 4334 N 458.211 1.37122 0.776871 0
M  V30 4335 C 459.46 1.31373 1.53049 0
M  V30 4336 C 459.773 -0.101016 1.95339 0
M  V30 4337 O 460.979 -0.280953 2.70042 0
M  V30 4338 C 459.435 2.30567 2.76346 0
M  V30 4339 C 459.043 3.77543 2.41175 0
M  V30 4340 C 460.787 2.33818 3.54301 0
M  V30 4341 C 458.694 4.68481 3.60943 0
M  V30 4342 H 457.624 0.488234 0.574581 0
M  V30 4343 H 460.275 1.62554 0.851372 0
M  V30 4344 H 458.657 1.92396 3.46121 0
M  V30 4345 H 459.831 4.24521 1.79216 0
M  V30 4346 H 458.146 3.77187 1.76405 0
M  V30 4347 H 460.743 2.98965 4.4331 0
M  V30 4348 H 461.086 1.3503 3.93793 0
M  V30 4349 H 461.619 2.7067 2.91518 0
M  V30 4350 H 458.358 5.68378 3.26537 0
M  V30 4351 H 457.878 4.2621 4.22025 0
M  V30 4352 H 459.557 4.85366 4.27819 0
M  V30 4353 N 459.689 -1.00246 1.21608 0
M  V30 4354 C 460.935 -1.74319 1.03638 0
M  V30 4355 C 461.268 -1.89408 -0.428749 0
M  V30 4356 O 460.543 -1.43026 -1.3181 0
M  V30 4357 C 460.826 -3.15431 1.73711 0
M  V30 4358 C 460.679 -3.08049 3.27759 0
M  V30 4359 C 461.998 -4.14407 1.48173 0
M  V30 4360 H 459.117 -0.632741 0.377899 0
M  V30 4361 H 461.759 -1.16853 1.49818 0
M  V30 4362 H 459.909 -3.64493 1.34452 0
M  V30 4363 H 461.581 -2.66681 3.76403 0
M  V30 4364 H 459.824 -2.45088 3.57931 0
M  V30 4365 H 460.495 -4.07862 3.71958 0
M  V30 4366 H 462.971 -3.74061 1.82258 0
M  V30 4367 H 461.847 -5.11279 1.99713 0
M  V30 4368 H 462.108 -4.40174 0.412273 0
M  V30 4369 N 461.167 -1.02423 -1.1978 0
M  V30 4370 C 462.415 -0.716569 -1.8897 0
M  V30 4371 C 462.736 0.756769 -1.79716 0
M  V30 4372 O 462.006 1.5449 -1.20456 0
M  V30 4373 H 460.586 -0.262062 -0.699523 0
M  V30 4374 H 463.248 -1.29747 -1.45436 0
M  V30 4375 H 462.344 -1.00675 -2.95417 0
M  V30 4376 N 462.645 1.35699 -0.801477 0
M  V30 4377 C 463.577 2.28598 -0.166028 0
M  V30 4378 C 464.59 1.50044 0.631721 0
M  V30 4379 O 465.779 1.72339 0.464921 0
M  V30 4380 C 462.879 3.29625 0.787451 0
M  V30 4381 C 462.052 4.37384 0.037171 0
M  V30 4382 C 461.111 5.183 0.908375 0
M  V30 4383 O 460.137 5.68053 0.361189 0
M  V30 4384 N 461.339 5.35912 2.23112 0
M  V30 4385 H 464.104 2.83771 -0.964071 0
M  V30 4386 H 461.665 1.47994 -0.656469 0
M  V30 4387 H 463.657 3.80648 1.37439 0
M  V30 4388 H 462.227 2.75004 1.48632 0
M  V30 4389 H 461.447 3.87364 -0.730935 0
M  V30 4390 H 462.735 5.0653 -0.480109 0
M  V30 4391 H 462.133 4.97125 2.69968 0
M  V30 4392 H 460.69 5.90133 2.76741 0
M  V30 4393 N 464.123 0.554532 1.47522 0
M  V30 4394 C 465.086 -0.184174 2.28459 0
M  V30 4395 C 466.086 -0.845195 1.36796 0
M  V30 4396 O 467.276 -0.701467 1.59452 0
M  V30 4397 C 464.408 -1.26903 3.16399 0
M  V30 4398 H 465.601 0.526751 2.95238 0
M  V30 4399 H 463.154 0.311375 1.53167 0
M  V30 4400 H 463.889 -2.01244 2.54306 0
M  V30 4401 H 463.674 -0.799883 3.83854 0
M  V30 4402 H 465.164 -1.78794 3.77389 0
M  V30 4403 N 465.601 -1.54893 0.290851 0
M  V30 4404 C 466.849 -1.99538 -0.320756 0
M  V30 4405 C 467.17 -1.18075 -1.55188 0
M  V30 4406 O 466.44 -0.274162 -1.93972 0
M  V30 4407 H 465.02 -0.737052 -0.121507 0
M  V30 4408 H 467.682 -1.90755 0.399832 0
M  V30 4409 H 466.778 -3.06282 -0.599802 0
M  V30 4410 N 467.08 -0.0183926 -1.57589 0
M  V30 4411 C 468.329 0.66185 -1.90532 0
M  V30 4412 C 468.642 1.73904 -0.895366 0
M  V30 4413 O 469.848 2.47518 -1.11566 0
M  V30 4414 C 468.304 1.22844 -3.38286 0
M  V30 4415 C 467.912 0.185103 -4.47617 0
M  V30 4416 C 469.656 1.88581 -3.80312 0
M  V30 4417 C 467.563 0.762723 -5.86461 0
M  V30 4418 H 466.493 0.250972 -0.711006 0
M  V30 4419 H 469.144 -0.0819435 -1.83317 0
M  V30 4420 H 467.526 2.0235 -3.40398 0
M  V30 4421 H 468.7 -0.58671 -4.5705 0
M  V30 4422 H 467.015 -0.372889 -4.14727 0
M  V30 4423 H 469.612 2.32735 -4.81392 0
M  V30 4424 H 469.955 2.72408 -3.14801 0
M  V30 4425 H 470.488 1.15782 -3.80578 0
M  V30 4426 H 467.227 -0.0371713 -6.55489 0
M  V30 4427 H 466.747 1.50327 -5.80656 0
M  V30 4428 H 468.426 1.25576 -6.34697 0
M  V30 4429 N 468.558 1.5553 0.254621 0
M  V30 4430 C 469.806 1.7665 0.981793 0
M  V30 4431 C 470.127 0.580963 1.86145 0
M  V30 4432 O 469.397 -0.403537 1.91699 0
M  V30 4433 H 467.977 0.651475 0.365498 0
M  V30 4434 H 470.639 1.92958 0.274426 0
M  V30 4435 H 469.735 2.67486 1.60802 0
M  V30 4436 N 470.036 -0.519951 1.48776 0
M  V30 4437 C 470.966 -1.63253 1.66945 0
M  V30 4438 C 471.947 -1.62014 0.518224 0
M  V30 4439 O 473.132 -1.79053 0.751919 0
M  V30 4440 C 470.262 -3.0181 1.71836 0
M  V30 4441 C 469.216 -3.17911 2.8656 0
M  V30 4442 C 468.542 -4.5763 2.76548 0
M  V30 4443 C 469.842 -2.99729 4.27738 0
M  V30 4444 H 471.536 -1.48302 2.6009 0
M  V30 4445 H 469.082 -0.712026 1.25165 0
M  V30 4446 H 471.035 -3.79525 1.83135 0
M  V30 4447 H 469.759 -3.17806 0.752775 0
M  V30 4448 H 468.418 -2.42616 2.74833 0
M  V30 4449 H 468.066 -4.70476 1.77937 0
M  V30 4450 H 467.766 -4.69346 3.53536 0
M  V30 4451 H 469.29 -5.37431 2.89828 0
M  V30 4452 H 470.704 -3.67228 4.40246 0
M  V30 4453 H 469.101 -3.22932 5.05801 0
M  V30 4454 H 470.171 -1.96047 4.43502 0
M  V30 4455 N 471.514 -1.37532 -0.769588 0
M  V30 4456 C 472.739 -1.36231 -1.56384 0
M  V30 4457 C 473.164 0.0495849 -1.88035 0
M  V30 4458 O 472.522 1.02723 -1.49391 0
M  V30 4459 C 472.57 -2.20986 -2.84952 0
M  V30 4460 O 471.674 -1.61597 -3.79421 0
M  V30 4461 H 471.015 -0.465387 -0.473615 0
M  V30 4462 H 473.545 -1.81085 -0.952342 0
M  V30 4463 H 473.555 -2.34277 -3.34034 0
M  V30 4464 H 472.23 -3.23612 -2.61243 0
M  V30 4465 H 470.807 -1.57359 -3.38072 0
M  V30 4466 N 472.992 0.995999 -1.22138 0
M  V30 4467 C 474.238 1.73767 -1.04561 0
M  V30 4468 C 474.571 1.89633 0.418698 0
M  V30 4469 O 473.846 1.43723 1.3105 0
M  V30 4470 C 474.129 3.14505 -1.75382 0
M  V30 4471 C 473.982 3.06306 -3.29388 0
M  V30 4472 C 475.301 4.13615 -1.50369 0
M  V30 4473 H 472.42 0.630728 -0.38125 0
M  V30 4474 H 475.062 1.16057 -1.50435 0
M  V30 4475 H 473.212 3.63775 -1.36383 0
M  V30 4476 H 474.884 2.64681 -3.77812 0
M  V30 4477 H 473.127 2.43186 -3.59226 0
M  V30 4478 H 473.798 4.05884 -3.74116 0
M  V30 4479 H 476.274 3.73089 -1.84239 0
M  V30 4480 H 475.15 5.10212 -2.02421 0
M  V30 4481 H 475.411 4.39949 -0.435611 0
M  V30 4482 N 474.47 1.03057 1.19235 0
M  V30 4483 C 475.4 0.633497 2.24742 0
M  V30 4484 C 476.381 -0.358335 1.66283 0
M  V30 4485 O 477.566 -0.240676 1.92703 0
M  V30 4486 C 474.696 -0.0147648 3.47297 0
M  V30 4487 C 473.65 0.899527 4.18441 0
M  V30 4488 C 472.976 0.116281 5.34574 0
M  V30 4489 C 474.276 2.21404 4.73051 0
M  V30 4490 H 475.97 1.5155 2.58211 0
M  V30 4491 H 473.516 0.73014 1.24117 0
M  V30 4492 H 475.469 -0.304202 4.20301 0
M  V30 4493 H 474.193 -0.931577 3.13032 0
M  V30 4494 H 472.852 1.17319 3.47321 0
M  V30 4495 H 472.5 -0.802619 4.96555 0
M  V30 4496 H 472.2 0.725293 5.83107 0
M  V30 4497 H 473.724 -0.166376 6.10373 0
M  V30 4498 H 475.138 1.98601 5.37802 0
M  V30 4499 H 473.535 2.77512 5.32078 0
M  V30 4500 H 474.605 2.86752 3.91026 0
M  V30 4501 N 475.948 -1.35272 0.808662 0
M  V30 4502 C 477.194 -1.99003 0.390581 0
M  V30 4503 C 477.527 -1.63999 -1.0401 0
M  V30 4504 O 476.802 -0.904368 -1.72196 0
M  V30 4505 C 477.085 -3.55454 0.576566 0
M  V30 4506 C 476.938 -4.00249 2.05233 0
M  V30 4507 C 478.257 -4.401 0.00354277 0
M  V30 4508 H 475.376 -0.722917 0.143388 0
M  V30 4509 H 478.018 -1.6039 1.01858 0
M  V30 4510 H 476.168 -3.88477 0.0419766 0
M  V30 4511 H 477.84 -3.77626 2.64946 0
M  V30 4512 H 476.083 -3.51082 2.54801 0
M  V30 4513 H 476.754 -5.0911 2.13333 0
M  V30 4514 H 479.23 -4.13548 0.460117 0
M  V30 4515 H 478.106 -5.48656 0.163575 0
M  V30 4516 H 478.367 -4.28444 -1.09032 0
M  V30 4517 N 477.426 -0.562348 -1.47226 0
M  V30 4518 C 478.675 -0.038041 -2.01664 0
M  V30 4519 C 478.988 1.32199 -1.44162 0
M  V30 4520 O 480.194 1.9365 -1.90294 0
M  V30 4521 C 478.65 -0.0174958 -3.59896 0
M  V30 4522 C 478.258 -1.3746 -4.2639 0
M  V30 4523 C 480.002 0.453934 -4.22066 0
M  V30 4524 C 477.909 -1.31289 -5.76643 0
M  V30 4525 H 476.839 -0.0104511 -0.753928 0
M  V30 4526 H 479.49 -0.710966 -1.69167 0
M  V30 4527 H 477.872 0.721182 -3.89378 0
M  V30 4528 H 479.046 -2.1314 -4.08544 0
M  V30 4529 H 477.361 -1.78438 -3.7623 0
M  V30 4530 H 479.958 0.518584 -5.32179 0
M  V30 4531 H 480.301 1.46706 -3.89594 0
M  V30 4532 H 480.834 -0.230044 -3.97134 0
M  V30 4533 H 477.573 -2.30217 -6.13743 0
M  V30 4534 H 477.093 -0.597973 -5.96812 0
M  V30 4535 H 478.772 -1.01713 -6.38955 0
M  V30 4536 N 478.904 1.54736 -0.299062 0
M  V30 4537 C 479.837 2.1962 0.619851 0
M  V30 4538 C 480.815 1.16496 1.13434 0
M  V30 4539 O 481.999 1.4513 1.2029 0
M  V30 4540 C 479.126 2.8385 1.84788 0
M  V30 4541 C 478.172 4.00484 1.46679 0
M  V30 4542 S 479.005 5.32926 0.524389 0
M  V30 4543 C 480.161 6.00638 1.76026 0
M  V30 4544 H 480.394 2.97221 0.0686177 0
M  V30 4545 H 477.927 1.54176 -0.0832085 0
M  V30 4546 H 479.885 3.21483 2.55263 0
M  V30 4547 H 478.546 2.06099 2.37028 0
M  V30 4548 H 477.739 4.44201 2.38121 0
M  V30 4549 H 477.341 3.64398 0.842008 0
M  V30 4550 H 479.633 6.21327 2.70109 0
M  V30 4551 H 480.576 6.94805 1.36569 0
M  V30 4552 H 480.984 5.3026 1.93609 0
M  V30 4553 N 480.382 0.0267497 1.57577 0
M  V30 4554 C 481.315 -0.99059 2.05579 0
M  V30 4555 C 482.293 -1.31884 0.951065 0
M  V30 4556 O 483.477 -1.43592 1.22121 0
M  V30 4557 C 480.604 -2.31125 2.47586 0
M  V30 4558 C 479.65 -2.13777 3.69055 0
M  V30 4559 S 480.483 -1.4388 5.15809 0
M  V30 4560 C 481.639 -2.77321 5.6111 0
M  V30 4561 H 481.872 -0.581976 2.91548 0
M  V30 4562 H 479.405 -0.184876 1.53289 0
M  V30 4563 H 481.363 -3.07049 2.72454 0
M  V30 4564 H 480.024 -2.6912 1.61967 0
M  V30 4565 H 479.217 -3.11405 3.96287 0
M  V30 4566 H 478.819 -1.45996 3.44327 0
M  V30 4567 H 481.111 -3.73565 5.65204 0
M  V30 4568 H 482.054 -2.54756 6.60685 0
M  V30 4569 H 482.462 -2.82459 4.88751 0
M  V30 4570 N 481.861 -1.55662 -0.24637 0
M  V30 4571 C 482.824 -1.89558 -1.28842 0
M  V30 4572 C 483.824 -0.772082 -1.41052 0
M  V30 4573 O 485.014 -1.04007 -1.39743 0
M  V30 4574 C 482.146 -2.12449 -2.66605 0
M  V30 4575 H 483.339 -2.82735 -1.00004 0
M  V30 4576 H 480.892 -1.48562 -0.485684 0
M  V30 4577 H 481.627 -1.21742 -3.00582 0
M  V30 4578 H 481.412 -2.94273 -2.59125 0
M  V30 4579 H 482.902 -2.39854 -3.41847 0
M  V30 4580 N 483.339 0.512053 -1.4905 0
M  V30 4581 C 484.567 1.29116 -1.61669 0
M  V30 4582 C 484.982 1.86655 -0.283787 0
M  V30 4583 O 484.339 1.67293 0.729331 0
M  V30 4584 C 484.39 2.4293 -2.67707 0
M  V30 4585 O 484.111 1.87758 -3.95826 0
M  V30 4586 C 485.612 3.34476 -2.90931 0
M  V30 4587 H 482.832 0.392009 -0.544583 0
M  V30 4588 H 485.376 0.615881 -1.95006 0
M  V30 4589 H 483.531 3.06308 -2.37179 0
M  V30 4590 H 483.945 2.62393 -4.54148 0
M  V30 4591 H 485.419 4.10642 -3.68886 0
M  V30 4592 H 485.896 3.90801 -2.00427 0
M  V30 4593 H 486.502 2.76874 -3.22832 0
M  V30 4594 N 484.817 1.37938 0.762283 0
M  V30 4595 C 486.063 1.33866 1.52341 0
M  V30 4596 C 486.396 -0.0738961 1.94059 0
M  V30 4597 O 485.671 -1.03326 1.64785 0
M  V30 4598 C 485.954 2.28644 2.78197 0
M  V30 4599 C 485.807 3.78722 2.42672 0
M  V30 4600 C 487.126 2.21702 3.80179 0
M  V30 4601 H 484.245 0.487593 0.55265 0
M  V30 4602 H 486.887 1.68717 0.873767 0
M  V30 4603 H 485.037 1.99055 3.33631 0
M  V30 4604 H 486.709 4.18948 1.93081 0
M  V30 4605 H 484.952 3.96827 1.75244 0
M  V30 4606 H 485.623 4.40486 3.3268 0
M  V30 4607 H 488.099 2.47805 3.34263 0
M  V30 4608 H 486.975 2.90143 4.65949 0
M  V30 4609 H 487.236 1.21301 4.25133 0
M  V30 4610 N 486.295 -0.989507 1.22664 0
M  V30 4611 C 487.541 -1.7321 1.05481 0
M  V30 4612 C 487.874 -1.89852 -0.408635 0
M  V30 4613 O 487.149 -1.44416 -1.30285 0
M  V30 4614 C 487.432 -3.1357 1.77047 0
M  V30 4615 C 487.285 -3.04555 3.31008 0
M  V30 4616 C 488.604 -4.12812 1.5256 0
M  V30 4617 H 485.723 -0.628697 0.384589 0
M  V30 4618 H 488.365 -1.15258 1.51049 0
M  V30 4619 H 486.515 -3.63046 1.3831 0
M  V30 4620 H 488.187 -2.62674 3.7921 0
M  V30 4621 H 486.43 -2.41278 3.6051 0
M  V30 4622 H 487.101 -4.03894 3.76263 0
M  V30 4623 H 489.577 -3.72106 1.86215 0
M  V30 4624 H 488.453 -5.09132 2.05124 0
M  V30 4625 H 488.714 -4.39711 0.458936 0
M  V30 4626 N 487.773 -1.03688 -1.18687 0
M  V30 4627 C 489.001 -0.757918 -1.92518 0
M  V30 4628 C 489.416 0.684398 -1.75959 0
M  V30 4629 O 488.773 1.46617 -1.08673 0
M  V30 4630 C 488.824 -1.10985 -3.44042 0
M  V30 4631 O 488.545 -2.49554 -3.60076 0
M  V30 4632 C 490.046 -0.854844 -4.3498 0
M  V30 4633 H 487.266 -0.276699 -0.611293 0
M  V30 4634 H 489.81 -1.38352 -1.50595 0
M  V30 4635 H 487.965 -0.529279 -3.83767 0
M  V30 4636 H 488.379 -2.6291 -4.53849 0
M  V30 4637 H 489.853 -1.15098 -5.39867 0
M  V30 4638 H 490.33 0.210507 -4.38695 0
M  V30 4639 H 490.936 -1.41853 -4.00946 0
M  V30 4640 N 489.251 1.34841 -0.815825 0
M  V30 4641 C 490.479 2.0273 -0.413294 0
M  V30 4642 C 490.894 1.61459 0.978599 0
M  V30 4643 O 490.251 0.816584 1.63212 0
M  V30 4644 C 490.302 3.58058 -0.497676 0
M  V30 4645 O 490.023 3.97832 -1.8347 0
M  V30 4646 C 491.524 4.4321 -0.0891339 0
M  V30 4647 H 488.744 0.649956 -0.166728 0
M  V30 4648 H 491.288 1.72267 -1.10201 0
M  V30 4649 H 489.443 3.87136 0.142886 0
M  V30 4650 H 489.857 4.92501 -1.80396 0
M  V30 4651 H 491.331 5.5164 -0.199274 0
M  V30 4652 H 491.808 4.28432 0.966571 0
M  V30 4653 H 492.414 4.19446 -0.703214 0
M  V30 4654 N 490.729 0.570148 1.46925 0
M  V30 4655 C 491.978 0.0487352 2.01641 0
M  V30 4656 C 492.291 -1.31433 1.44861 0
M  V30 4657 O 493.497 -1.92638 1.91318 0
M  V30 4658 C 491.953 0.0365817 3.59881 0
M  V30 4659 C 491.561 1.39719 4.25655 0
M  V30 4660 C 493.305 -0.431545 4.22301 0
M  V30 4661 C 491.212 1.34345 5.75939 0
M  V30 4662 H 490.142 0.0144492 0.753862 0
M  V30 4663 H 492.793 0.719928 1.68788 0
M  V30 4664 H 491.175 -0.700522 3.89755 0
M  V30 4665 H 492.349 2.15303 4.07408 0
M  V30 4666 H 490.664 1.80431 3.75278 0
M  V30 4667 H 493.261 -0.490354 5.32447 0
M  V30 4668 H 493.604 -1.44638 3.90366 0
M  V30 4669 H 494.137 0.251102 3.97007 0
M  V30 4670 H 490.876 2.33469 6.12513 0
M  V30 4671 H 490.396 0.629615 5.96486 0
M  V30 4672 H 492.075 1.051 6.38407 0
M  V30 4673 N 492.207 -1.54576 0.307264 0
M  V30 4674 C 493.435 -2.04675 -0.302597 0
M  V30 4675 C 493.85 -1.18425 -1.47041 0
M  V30 4676 O 493.207 -0.211257 -1.81273 0
M  V30 4677 C 493.258 -3.53575 -0.752801 0
M  V30 4678 O 492.979 -4.36547 0.368536 0
M  V30 4679 C 494.48 -4.19699 -1.42717 0
M  V30 4680 H 491.7 -0.66786 -0.0648374 0
M  V30 4681 H 494.244 -1.99516 0.448716 0
M  V30 4682 H 492.399 -3.59074 -1.45412 0
M  V30 4683 H 492.813 -5.24497 0.0168937 0
M  V30 4684 H 494.287 -5.25388 -1.69327 0
M  V30 4685 H 494.764 -3.69815 -2.36925 0
M  V30 4686 H 495.37 -4.18293 -0.768856 0
M  V30 4687 N 493.685 -0.035106 -1.57561 0
M  V30 4688 C 494.933 0.64096 -1.91667 0
M  V30 4689 C 495.254 1.72323 -0.912681 0
M  V30 4690 O 494.524 1.95849 0.0449089 0
M  V30 4691 H 493.104 0.239743 -0.707483 0
M  V30 4692 H 495.766 -0.084321 -1.94718 0
M  V30 4693 H 494.862 1.08987 -2.92452 0
M  V30 4694 N 495.163 1.55791 0.238111 0
M  V30 4695 C 496.093 1.94068 1.29846 0
M  V30 4696 C 497.074 0.806726 1.49753 0
M  V30 4697 O 498.259 1.06772 1.62214 0
M  V30 4698 C 495.389 2.24302 2.65153 0
M  V30 4699 C 494.343 3.40032 2.59927 0
M  V30 4700 C 493.669 3.55829 3.99111 0
M  V30 4701 C 494.969 4.75476 2.16148 0
M  V30 4702 H 496.663 2.82887 0.980563 0
M  V30 4703 H 494.209 1.36105 0.470253 0
M  V30 4704 H 496.162 2.4967 3.39475 0
M  V30 4705 H 494.886 1.32318 2.98596 0
M  V30 4706 H 493.545 3.14687 1.88063 0
M  V30 4707 H 493.193 2.6125 4.29834 0
M  V30 4708 H 492.893 4.3366 3.96501 0
M  V30 4709 H 494.417 3.83528 4.7512 0
M  V30 4710 H 495.831 5.00158 2.80205 0
M  V30 4711 H 494.228 5.56472 2.24631 0
M  V30 4712 H 495.298 4.71946 1.11333 0
M  V30 4713 N 496.642 -0.504142 1.49319 0
M  V30 4714 C 497.867 -1.28729 1.62615 0
M  V30 4715 C 498.292 -1.85752 0.296309 0
M  V30 4716 O 497.65 -1.65704 -0.735649 0
M  V30 4717 C 497.698 -2.39561 2.69524 0
M  V30 4718 O 496.802 -3.43324 2.28478 0
M  V30 4719 H 496.143 -0.380172 0.544395 0
M  V30 4720 H 498.673 -0.603872 1.95485 0
M  V30 4721 H 498.683 -2.8537 2.91595 0
M  V30 4722 H 497.358 -1.97423 3.66056 0
M  V30 4723 H 495.935 -3.03455 2.16725 0
M  V30 4724 N 498.12 -1.38341 -0.754957 0
M  V30 4725 C 499.348 -1.37704 -1.54419 0
M  V30 4726 C 499.763 0.0335243 -1.8877 0
M  V30 4727 O 499.12 0.999773 -1.52679 0
M  V30 4728 C 499.171 -2.23136 -2.84416 0
M  V30 4729 O 498.892 -3.58697 -2.51531 0
M  V30 4730 C 500.393 -2.30664 -3.78562 0
M  V30 4731 H 497.613 -0.471061 -0.477852 0
M  V30 4732 H 500.157 -1.81902 -0.934446 0
M  V30 4733 H 498.312 -1.82403 -3.41772 0
M  V30 4734 H 498.726 -4.03665 -3.34896 0
M  V30 4735 H 500.2 -2.9473 -4.66732 0
M  V30 4736 H 500.677 -1.3199 -4.18898 0
M  V30 4737 H 501.283 -2.71781 -3.27131 0
M  V30 4738 N 499.598 0.982988 -1.23187 0
M  V30 4739 C 500.823 1.76455 -1.08988 0
M  V30 4740 C 501.248 1.84726 0.354691 0
M  V30 4741 O 500.606 1.30699 1.25649 0
M  V30 4742 C 500.654 3.17094 -1.71708 0
M  V30 4743 O 499.758 4.00648 -0.977477 0
M  V30 4744 H 499.099 0.542988 -0.382177 0
M  V30 4745 H 501.629 1.23413 -1.63188 0
M  V30 4746 H 501.639 3.67684 -1.76841 0
M  V30 4747 H 500.314 3.10389 -2.76823 0
M  V30 4748 H 498.891 3.59161 -1.0029 0
M  V30 4749 N 501.076 1.04316 1.18135 0
M  V30 4750 C 502.039 0.640794 2.2006 0
M  V30 4751 C 503.039 -0.303124 1.57917 0
M  V30 4752 O 504.229 -0.0881855 1.73977 0
M  V30 4753 C 501.361 -0.060148 3.40847 0
M  V30 4754 H 502.554 1.54281 2.57172 0
M  V30 4755 H 500.107 0.836004 1.32063 0
M  V30 4756 H 500.842 -0.975845 3.0927 0
M  V30 4757 H 500.627 0.618319 3.87194 0
M  V30 4758 H 502.117 -0.328082 4.16309 0
M  V30 4759 N 502.554 -1.34406 0.822964 0
M  V30 4760 C 503.803 -1.97542 0.407458 0
M  V30 4761 C 504.116 -1.65973 -1.035 0
M  V30 4762 O 505.322 -2.22598 -1.55442 0
M  V30 4763 C 503.778 -3.53463 0.677623 0
M  V30 4764 C 503.386 -3.93925 2.1337 0
M  V30 4765 C 505.13 -4.23229 0.328284 0
M  V30 4766 C 503.037 -5.42759 2.34876 0
M  V30 4767 H 501.967 -0.739207 0.148623 0
M  V30 4768 H 504.618 -1.53248 1.00932 0
M  V30 4769 H 503 -3.96 0.00558965 0
M  V30 4770 H 504.174 -3.62494 2.8449 0
M  V30 4771 H 502.489 -3.37097 2.44448 0
M  V30 4772 H 505.086 -5.32659 0.466794 0
M  V30 4773 H 505.429 -4.09899 -0.727224 0
M  V30 4774 H 505.962 -3.86169 0.954896 0
M  V30 4775 H 502.701 -5.61075 3.38932 0
M  V30 4776 H 502.221 -5.75704 1.68299 0
M  V30 4777 H 503.9 -6.0944 2.17236 0
M  V30 4778 N 504.032 -0.577932 -1.46621 0
M  V30 4779 C 504.995 0.147805 -2.28723 0
M  V30 4780 C 505.995 0.823325 -1.38123 0
M  V30 4781 O 507.185 0.676011 -1.60548 0
M  V30 4782 C 504.317 1.21853 -3.18378 0
M  V30 4783 H 505.51 -0.573654 -2.94362 0
M  V30 4784 H 503.063 -0.335703 -1.52652 0
M  V30 4785 H 503.798 1.97173 -2.57475 0
M  V30 4786 H 503.583 0.738714 -3.85078 0
M  V30 4787 H 505.073 1.72768 -3.80186 0
M  V30 4788 N 505.51 1.54411 -0.315457 0
M  V30 4789 C 506.738 2.04833 0.291738 0
M  V30 4790 C 507.153 1.19203 1.46411 0
M  V30 4791 O 506.51 0.220867 1.81159 0
M  V30 4792 C 506.561 3.53969 0.73404 0
M  V30 4793 O 506.282 4.36346 -0.391682 0
M  V30 4794 C 507.783 4.2045 1.40489 0
M  V30 4795 H 505.003 0.668195 0.0612947 0
M  V30 4796 H 507.547 1.99276 -0.45929 0
M  V30 4797 H 505.702 3.5984 1.43506 0
M  V30 4798 H 506.116 5.24481 -0.0447088 0
M  V30 4799 H 507.59 5.26278 1.66539 0
M  V30 4800 H 508.067 3.71067 2.3496 0
M  V30 4801 H 508.673 4.18694 0.746662 0
M  V30 4802 N 506.988 0.0434614 1.5754 0
M  V30 4803 C 507.936 -0.951465 2.1225 0
M  V30 4804 C 508.93 -1.3274 1.05245 0
M  V30 4805 O 510.136 -1.30795 1.23663 0
M  V30 4806 H 506.511 -0.324667 0.678303 0
M  V30 4807 H 508.482 -0.464855 2.94757 0
M  V30 4808 C 507.231 -2.21972 2.67626 0
M  V30 4809 H 506.554 -1.93923 3.4962 0
M  V30 4810 H 507.994 -2.89765 3.09536 0
M  V30 4811 C 506.453 -2.95919 1.61038 0
M  V30 4812 O 506.983 -3.8857 1.01862 0
M  V30 4813 N 505.189 -2.58511 1.32741 0
M  V30 4814 H 504.736 -1.83244 1.81051 0
M  V30 4815 H 504.694 -3.08296 0.616531 0
M  V30 4816 N 508.466 -1.55915 -0.229846 0
M  V30 4817 C 509.714 -1.7819 -0.953565 0
M  V30 4818 C 510.035 -0.610504 -1.85197 0
M  V30 4819 O 509.305 0.372988 -1.92316 0
M  V30 4820 H 507.885 -0.657208 -0.355087 0
M  V30 4821 H 510.547 -1.9337 -0.243693 0
M  V30 4822 H 509.643 -2.70011 -1.56527 0
M  V30 4823 N 509.944 0.496216 -1.49584 0
M  V30 4824 C 511.191 1.25003 -1.59312 0
M  V30 4825 C 511.519 1.92445 -0.28198 0
M  V30 4826 O 510.774 1.81557 0.730452 0
M  V30 4827 C 511.073 2.3359 -2.705 0
M  V30 4828 C 510.739 1.83574 -4.11839 0
M  V30 4829 C 509.401 1.69653 -4.50302 0
M  V30 4830 C 511.753 1.46193 -5.00277 0
M  V30 4831 C 509.081 1.16736 -5.74969 0
M  V30 4832 C 511.433 0.947265 -6.25468 0
M  V30 4833 C 510.097 0.794485 -6.62755 0
M  V30 4834 H 509.367 0.45742 -0.582965 0
M  V30 4835 H 512.014 0.549996 -1.83432 0
M  V30 4836 H 510.319 3.09401 -2.40371 0
M  V30 4837 H 512.016 2.91627 -2.75235 0
M  V30 4838 H 508.606 1.9537 -3.81482 0
M  V30 4839 H 512.79 1.55793 -4.71214 0
M  V30 4840 H 508.046 1.03623 -6.02555 0
M  V30 4841 H 512.22 0.648846 -6.93371 0
M  V30 4842 H 509.847 0.382271 -7.59238 0
M  V30 4843 N 511.423 1.38739 0.74761 0
M  V30 4844 C 512.669 1.35475 1.50912 0
M  V30 4845 C 513.002 -0.0533093 1.94127 0
M  V30 4846 O 512.277 -1.01572 1.65871 0
M  V30 4847 C 512.56 2.31582 2.75757 0
M  V30 4848 C 512.413 3.81274 2.38642 0
M  V30 4849 C 513.732 2.25722 3.77806 0
M  V30 4850 H 510.851 0.493427 0.547447 0
M  V30 4851 H 513.493 1.69634 0.855823 0
M  V30 4852 H 511.643 2.02582 3.31501 0
M  V30 4853 H 513.315 4.20972 1.88626 0
M  V30 4854 H 511.558 3.98664 1.71025 0
M  V30 4855 H 512.229 4.4399 3.27989 0
M  V30 4856 H 514.705 2.51336 3.31616 0
M  V30 4857 H 513.581 2.95069 4.62845 0
M  V30 4858 H 513.842 1.25803 4.23823 0
M  V30 4859 N 512.901 -0.976442 1.23707 0
M  V30 4860 C 514.317 -1.24341 1.00058 0
M  V30 4861 C 514.517 -1.99315 -0.295932 0
M  V30 4862 O 513.573 -2.3123 -1.01435 0
M  V30 4863 C 514.886 -2.03909 2.21001 0
M  V30 4864 C 516.434 -2.17034 2.25534 0
M  V30 4865 C 516.909 -2.99994 3.46075 0
M  V30 4866 N 518.4 -3.07578 3.46338 0
M  V30 4867 C 519.135 -3.72104 4.36264 0
M  V30 4868 N 518.631 -4.3842 5.36432 0
M  V30 4869 N 520.424 -3.69029 4.23998 0
M  V30 4870 H 512.575 -0.47428 2.07037 0
M  V30 4871 H 514.838 -0.272167 0.908091 0
M  V30 4872 H 514.544 -1.56198 3.15111 0
M  V30 4873 H 514.418 -3.04654 2.22409 0
M  V30 4874 H 516.805 -2.63951 1.31961 0
M  V30 4875 H 516.886 -1.15664 2.28156 0
M  V30 4876 H 516.53 -2.53772 4.39957 0
M  V30 4877 H 516.46 -4.01541 3.40694 0
M  V30 4878 H 518.951 -2.60397 2.73865 0
M  V30 4879 H 519.264 -4.85447 6.013 0
M  V30 4880 H 517.609 -4.37116 5.40328 0
M  V30 4881 H 520.8 -3.16392 3.44984 0
M  V30 4882 H 520.973 -4.19034 4.94282 0
M  V30 4883 N 514.379 -1.04941 -1.1758 0
M  V30 4884 C 515.627 -0.756492 -1.87408 0
M  V30 4885 C 515.948 0.718478 -1.81281 0
M  V30 4886 O 515.218 1.519 -1.23706 0
M  V30 4887 H 513.798 -0.276841 -0.693807 0
M  V30 4888 H 516.46 -1.32803 -1.42652 0
M  V30 4889 H 515.556 -1.06918 -2.93215 0
M  V30 4890 N 515.857 1.33968 -0.830081 0
M  V30 4891 C 517.105 1.97672 -0.420734 0
M  V30 4892 C 517.426 1.66111 1.02138 0
M  V30 4893 O 516.696 0.955503 1.71017 0
M  V30 4894 H 515.276 0.73125 -0.152587 0
M  V30 4895 H 517.938 1.63483 -1.0611 0
M  V30 4896 H 517.034 3.07294 -0.545588 0
M  V30 4897 N 517.335 0.585699 1.46312 0
M  V30 4898 C 518.583 0.072278 2.01971 0
M  V30 4899 C 518.904 -1.29345 1.45928 0
M  V30 4900 O 518.174 -1.84973 0.645109 0
M  V30 4901 H 516.754 0.023729 0.746623 0
M  V30 4902 H 519.416 0.762155 1.7938 0
M  V30 4903 H 518.512 0.00552767 3.121 0
M  V30 4904 N 518.813 -1.54241 0.323641 0
M  V30 4905 C 519.776 -2.22997 -0.529602 0
M  V30 4906 C 520.776 -1.22345 -1.04347 0
M  V30 4907 O 521.966 -1.46924 -0.935889 0
M  V30 4908 C 519.098 -2.93409 -1.73562 0
M  V30 4909 H 520.291 -2.99815 0.0714518 0
M  V30 4910 H 517.844 -1.56121 0.0747258 0
M  V30 4911 H 518.579 -2.20729 -2.37591 0
M  V30 4912 H 518.364 -3.67217 -1.37456 0
M  V30 4913 H 519.854 -3.45794 -2.34128 0
M  V30 4914 N 520.291 -0.0518155 -1.57515 0
M  V30 4915 C 521.521 0.63048 -1.96745 0
M  V30 4916 C 521.929 1.64875 -0.928054 0
M  V30 4917 O 521.272 1.83449 0.0960678 0
M  V30 4918 C 521.334 1.37381 -3.32215 0
M  V30 4919 C 520.998 0.511298 -4.54131 0
M  V30 4920 C 521.995 -0.222884 -5.19422 0
M  V30 4921 C 519.68 0.442035 -5.00351 0
M  V30 4922 C 521.674 -1.01476 -6.2927 0
M  V30 4923 C 519.361 -0.35353 -6.10077 0
M  V30 4924 C 520.359 -1.08062 -6.74397 0
M  V30 4925 O 520.047 -1.8631 -7.82013 0
M  V30 4926 H 519.779 0.177126 -0.652382 0
M  V30 4927 H 522.333 -0.114726 -2.05079 0
M  V30 4928 H 520.563 2.16466 -3.20436 0
M  V30 4929 H 522.252 1.9464 -3.56188 0
M  V30 4930 H 523.018 -0.178846 -4.8467 0
M  V30 4931 H 518.897 0.997562 -4.50077 0
M  V30 4932 H 522.441 -1.58279 -6.79407 0
M  V30 4933 H 518.338 -0.399205 -6.44264 0
M  V30 4934 H 519.106 -1.78528 -7.98793 0
M  V30 4935 N 521.769 1.56035 0.221574 0
M  V30 4936 C 522.999 1.82864 0.961468 0
M  V30 4937 C 523.407 0.628703 1.78449 0
M  V30 4938 O 522.75 -0.412109 1.79018 0
M  V30 4939 C 522.812 3.03425 1.92804 0
M  V30 4940 C 522.476 4.38429 1.28954 0
M  V30 4941 C 523.473 5.15441 0.679431 0
M  V30 4942 C 521.158 4.85151 1.30131 0
M  V30 4943 C 523.152 6.37337 0.0896148 0
M  V30 4944 C 520.839 6.06989 0.707651 0
M  V30 4945 C 521.837 6.82923 0.102855 0
M  V30 4946 O 521.525 8.02456 -0.48157 0
M  V30 4947 H 521.257 0.611883 0.28736 0
M  V30 4948 H 523.811 2.0397 0.241932 0
M  V30 4949 H 522.041 2.78138 2.68656 0
M  V30 4950 H 523.73 3.17127 2.53348 0
M  V30 4951 H 524.496 4.80452 0.662661 0
M  V30 4952 H 520.375 4.26021 1.76145 0
M  V30 4953 H 523.919 6.96547 -0.383069 0
M  V30 4954 H 519.816 6.41451 0.721834 0
M  V30 4955 H 520.584 8.17636 -0.375887 0
M  V30 4956 N 523.247 -0.488276 1.49845 0
M  V30 4957 C 524.177 -1.59675 1.70371 0
M  V30 4958 C 525.158 -1.60878 0.552473 0
M  V30 4959 O 526.343 -1.77417 0.78973 0
M  V30 4960 C 523.473 -2.98098 1.782 0
M  V30 4961 C 522.427 -3.11761 2.93239 0
M  V30 4962 C 521.753 -4.51661 2.86193 0
M  V30 4963 C 523.053 -2.90589 4.33999 0
M  V30 4964 H 524.747 -1.42752 2.63177 0
M  V30 4965 H 522.293 -0.685317 1.26647 0
M  V30 4966 H 524.246 -3.75555 1.91144 0
M  V30 4967 H 522.97 -3.16138 0.820018 0
M  V30 4968 H 521.629 -2.36732 2.79917 0
M  V30 4969 H 521.277 -4.66595 1.87877 0
M  V30 4970 H 520.977 -4.61742 3.63412 0
M  V30 4971 H 522.501 -5.31162 3.01163 0
M  V30 4972 H 523.915 -3.57807 4.47936 0
M  V30 4973 H 522.312 -3.1213 5.12538 0
M  V30 4974 H 523.382 -1.86595 4.4756 0
M  V30 4975 N 524.725 -1.39134 -0.740242 0
M  V30 4976 C 525.974 -1.35384 -1.49512 0
M  V30 4977 C 526.287 0.04919 -1.95538 0
M  V30 4978 O 527.493 0.209257 -2.70692 0
M  V30 4979 C 525.949 -2.37812 -2.70136 0
M  V30 4980 C 525.557 -3.83804 -2.31081 0
M  V30 4981 C 527.301 -2.4313 -3.47977 0
M  V30 4982 C 525.208 -4.77886 -3.48395 0
M  V30 4983 H 524.138 -0.503297 -0.561434 0
M  V30 4984 H 526.789 -1.64754 -0.807974 0
M  V30 4985 H 525.171 -2.01505 -3.40899 0
M  V30 4986 H 526.345 -4.29123 -1.67898 0
M  V30 4987 H 524.66 -3.81732 -1.66343 0
M  V30 4988 H 527.257 -3.10614 -4.35228 0
M  V30 4989 H 527.6 -1.45423 -3.90074 0
M  V30 4990 H 528.133 -2.78304 -2.84239 0
M  V30 4991 H 524.872 -5.76836 -3.11353 0
M  V30 4992 H 524.392 -4.3725 -4.10576 0
M  V30 4993 H 526.071 -4.96538 -4.148 0
M  V30 4994 N 526.204 0.969867 -1.24223 0
M  V30 4995 C 527.429 1.75289 -1.10853 0
M  V30 4996 C 527.854 1.85091 0.335079 0
M  V30 4997 O 527.212 1.32024 1.24255 0
M  V30 4998 C 527.26 3.15255 -1.75062 0
M  V30 4999 O 526.364 3.99589 -1.01992 0
M  V30 5000 H 525.705 0.538904 -0.387915 0
M  V30 5001 H 528.235 1.21675 -1.64488 0
M  V30 5002 H 528.245 3.65787 -1.80731 0
M  V30 5003 H 526.92 3.07436 -2.801 0
M  V30 5004 H 525.497 3.58077 -1.04094 0
M  V30 5005 N 527.682 1.05563 1.17022 0
M  V30 5006 C 529.098 0.777684 1.39371 0
M  V30 5007 C 529.298 -0.626269 1.91521 0
M  V30 5008 O 528.354 -1.38806 2.10924 0
M  V30 5009 C 529.667 1.83642 2.3811 0
M  V30 5010 C 531.215 1.85907 2.51809 0
M  V30 5011 C 531.69 2.90813 3.53824 0
M  V30 5012 N 533.181 2.898 3.61345 0
M  V30 5013 C 533.916 3.6762 4.40049 0
M  V30 5014 N 533.412 4.55237 5.22237 0
M  V30 5015 N 535.205 3.56044 4.34959 0
M  V30 5016 H 527.356 1.9614 0.815047 0
M  V30 5017 H 529.619 0.849527 0.420722 0
M  V30 5018 H 529.325 2.84425 2.06871 0
M  V30 5019 H 529.199 1.6812 3.37662 0
M  V30 5020 H 531.586 0.857865 2.82356 0
M  V30 5021 H 531.667 2.05506 1.52318 0
M  V30 5022 H 531.311 3.91122 3.24015 0
M  V30 5023 H 531.241 2.68465 4.53028 0
M  V30 5024 H 533.732 2.26274 3.02669 0
M  V30 5025 H 534.045 5.11291 5.79484 0
M  V30 5026 H 532.39 4.59296 5.21605 0
M  V30 5027 H 535.581 2.86986 3.69806 0
M  V30 5028 H 535.754 4.16938 4.96051 0
M  V30 5029 N 529.16 -1.33526 0.837174 0
M  V30 5030 C 530.385 -2.0258 0.444545 0
M  V30 5031 C 530.81 -1.6258 -0.946006 0
M  V30 5032 O 530.168 -0.817548 -1.6182 0
M  V30 5033 C 530.216 -3.5605 0.571006 0
M  V30 5034 O 529.32 -4.10422 -0.403431 0
M  V30 5035 H 528.661 -0.638866 0.180958 0
M  V30 5036 H 531.191 -1.70462 1.13154 0
M  V30 5037 H 531.201 -4.05488 0.452024 0
M  V30 5038 H 529.876 -3.84509 1.58512 0
M  V30 5039 H 528.453 -3.72113 -0.242147 0
M  V30 5040 N 530.638 -0.59345 -1.46 0
M  V30 5041 C 531.568 0.121192 -2.33185 0
M  V30 5042 C 532.549 0.872977 -1.4599 0
M  V30 5043 O 533.734 0.846321 -1.74789 0
M  V30 5044 C 530.864 1.12844 -3.28456 0
M  V30 5045 C 529.818 0.4908 -4.25177 0
M  V30 5046 C 529.144 1.60529 -5.10034 0
M  V30 5047 C 530.444 -0.578949 -5.19081 0
M  V30 5048 H 532.138 -0.606767 -2.93187 0
M  V30 5049 H 529.684 -0.293242 -1.40983 0
M  V30 5050 H 531.637 1.63684 -3.88311 0
M  V30 5051 H 530.361 1.88681 -2.66584 0
M  V30 5052 H 529.02 0.00339328 -3.666 0
M  V30 5053 H 528.668 2.35359 -4.44539 0
M  V30 5054 H 528.368 1.18422 -5.75543 0
M  V30 5055 H 529.892 2.11623 -5.72755 0
M  V30 5056 H 531.306 -0.155199 -5.7309 0
M  V30 5057 H 529.703 -0.920947 -5.92991 0
M  V30 5058 H 530.773 -1.46109 -4.62364 0
M  V30 5059 N 532.116 1.54067 -0.331816 0
M  V30 5060 C 533.364 2.00319 0.267739 0
M  V30 5061 C 533.685 1.22148 1.52003 0
M  V30 5062 O 532.955 0.325494 1.93177 0
M  V30 5063 H 531.535 0.740014 0.101922 0
M  V30 5064 H 534.197 1.89628 -0.450267 0
M  V30 5065 H 533.293 3.07765 0.518385 0
M  V30 5066 N 533.594 0.0601682 1.57485 0
M  V30 5067 C 535.005 -0.474217 1.80577 0
M  V30 5068 C 535.356 -1.70365 0.973147 0
M  V30 5069 O 534.481 -2.15544 0.192306 0
M  V30 5070 C 535.076 -0.867102 3.27516 0
M  V30 5071 C 533.635 -1.34642 3.51495 0
M  V30 5072 C 532.782 -0.32594 2.75378 0
M  V30 5073 H 535.733 0.285973 1.56102 0
M  V30 5074 H 535.754 -1.72938 3.38929 0
M  V30 5075 H 535.266 0.0278927 3.8809 0
M  V30 5076 H 533.367 -2.2603 2.96212 0
M  V30 5077 H 533.48 -1.33237 4.60201 0
M  V30 5078 H 531.844 -0.800749 2.41785 0
M  V30 5079 H 532.627 0.561125 3.38683 0
M  V30 5080 N 535.072 -1.5615 -0.213296 0
M  V30 5081 C 535.982 -1.96265 -1.28519 0
M  V30 5082 C 536.998 -0.86765 -1.50824 0
M  V30 5083 O 538.174 -1.17191 -1.63793 0
M  V30 5084 C 535.239 -2.27836 -2.61327 0
M  V30 5085 C 534.3 -3.50949 -2.47252 0
M  V30 5086 C 533.533 -3.81004 -3.73727 0
M  V30 5087 O 533.756 -3.12612 -4.77106 0
M  V30 5088 O 532.69 -4.74477 -3.70344 0
M  V30 5089 H 536.516 -2.87631 -0.974795 0
M  V30 5090 H 534.101 -1.43467 -0.416832 0
M  V30 5091 H 535.983 -2.49299 -3.39747 0
M  V30 5092 H 534.658 -1.39643 -2.9203 0
M  V30 5093 H 533.565 -3.34754 -1.67004 0
M  V30 5094 H 534.898 -4.39551 -2.21486 0
M  V30 5095 N 536.55 0.480323 -1.50102 0
M  V30 5096 C 537.797 1.23307 -1.60629 0
M  V30 5097 C 538.125 1.92135 -0.302375 0
M  V30 5098 O 537.38 1.82321 0.711154 0
M  V30 5099 C 537.679 2.30708 -2.72963 0
M  V30 5100 C 537.345 1.79195 -4.13763 0
M  V30 5101 C 536.007 1.64867 -4.52076 0
M  V30 5102 C 538.359 1.40878 -5.018 0
M  V30 5103 C 535.687 1.10631 -5.76175 0
M  V30 5104 C 538.039 0.880872 -6.26437 0
M  V30 5105 C 536.703 0.724146 -6.6356 0
M  V30 5106 H 535.973 0.451211 -0.587784 0
M  V30 5107 H 538.62 0.53051 -1.84005 0
M  V30 5108 H 536.925 3.06834 -2.43639 0
M  V30 5109 H 538.622 2.88692 -2.78313 0
M  V30 5110 H 535.212 1.91313 -3.83533 0
M  V30 5111 H 539.396 1.50786 -4.7284 0
M  V30 5112 H 534.652 0.972263 -6.0362 0
M  V30 5113 H 538.826 0.575269 -6.9402 0
M  V30 5114 H 536.453 0.301722 -7.59601 0
M  V30 5115 N 538.028 1.39524 0.732853 0
M  V30 5116 C 539.276 1.36594 1.48951 0
M  V30 5117 C 539.597 -0.0367507 1.94965 0
M  V30 5118 O 538.867 -0.988391 1.69138 0
M  V30 5119 H 537.447 0.502673 0.552566 0
M  V30 5120 H 540.109 1.74411 0.869869 0
M  V30 5121 H 539.205 2.03 2.3706 0
M  V30 5122 N 539.506 -0.963266 1.24736 0
M  V30 5123 C 540.754 -1.70343 1.08755 0
M  V30 5124 C 541.075 -1.91387 -0.373619 0
M  V30 5125 O 540.345 -1.4948 -1.2662 0
M  V30 5126 H 538.925 -0.631224 0.399456 0
M  V30 5127 H 541.587 -1.15859 1.56725 0
M  V30 5128 H 540.683 -2.68616 1.58909 0
M  V30 5129 N 540.985 -1.06182 -1.16461 0
M  V30 5130 C 541.948 -0.675723 -2.19013 0
M  V30 5131 C 542.948 0.277963 -1.58379 0
M  V30 5132 O 544.138 0.0604962 -1.74095 0
M  V30 5133 C 541.27 0.00591459 -3.40899 0
M  V30 5134 H 542.463 -1.58353 -2.54685 0
M  V30 5135 H 540.016 -0.856908 -1.30716 0
M  V30 5136 H 540.751 0.92652 -3.10783 0
M  V30 5137 H 540.536 -0.67984 -3.86161 0
M  V30 5138 H 542.026 0.26181 -4.16778 0
M  V30 5139 N 542.463 1.3308 -0.844243 0
M  V30 5140 C 543.712 1.96868 -0.438833 0
M  V30 5141 C 544.025 1.67599 1.00846 0
M  V30 5142 O 545.231 2.25043 1.51881 0
M  V30 5143 C 543.687 3.5234 -0.73377 0
M  V30 5144 C 543.295 3.90481 -2.1961 0
M  V30 5145 C 545.039 4.22653 -0.395574 0
M  V30 5146 C 542.946 5.38954 -2.43481 0
M  V30 5147 H 541.876 0.736749 -0.160364 0
M  V30 5148 H 544.527 1.51623 -1.03358 0
M  V30 5149 H 542.909 3.95941 -0.068589 0
M  V30 5150 H 544.083 3.57922 -2.90221 0
M  V30 5151 H 542.398 3.33165 -2.4978 0
M  V30 5152 H 544.995 5.31848 -0.551477 0
M  V30 5153 H 545.338 4.11004 0.661921 0
M  V30 5154 H 545.871 3.84601 -1.01621 0
M  V30 5155 H 542.61 5.55612 -3.47816 0
M  V30 5156 H 542.13 5.72954 -1.77437 0
M  V30 5157 H 543.809 6.05907 -2.26905 0
M  V30 5158 N 543.941 0.601185 1.45683 0
M  V30 5159 C 545.189 0.0936957 2.01883 0
M  V30 5160 C 545.51 -1.2779 1.47291 0
M  V30 5161 O 544.78 -1.84279 0.664691 0
M  V30 5162 H 543.36 0.0316466 0.746329 0
M  V30 5163 H 546.022 0.781137 1.78562 0
M  V30 5164 H 545.118 0.0386297 3.12076 0
M  V30 5165 N 545.419 -1.53889 0.339982 0
M  V30 5166 C 546.349 -2.27843 -0.510856 0
M  V30 5167 C 547.33 -1.29267 -1.10563 0
M  V30 5168 O 548.515 -1.58104 -1.12768 0
M  V30 5169 C 545.645 -3.04857 -1.66372 0
M  V30 5170 C 544.599 -4.10907 -1.19746 0
M  V30 5171 C 543.925 -4.75855 -2.43857 0
M  V30 5172 C 545.225 -5.21435 -0.300501 0
M  V30 5173 H 546.919 -2.99212 0.106067 0
M  V30 5174 H 544.465 -1.43904 0.0524533 0
M  V30 5175 H 546.418 -3.5533 -2.26537 0
M  V30 5176 H 545.142 -2.31133 -2.30749 0
M  V30 5177 H 543.801 -3.61342 -0.618654 0
M  V30 5178 H 543.449 -3.9873 -3.06633 0
M  V30 5179 H 543.149 -5.47502 -2.13343 0
M  V30 5180 H 544.673 -5.2911 -3.04754 0
M  V30 5181 H 546.087 -5.67565 -0.80889 0
M  V30 5182 H 544.484 -6.00036 -0.0874076 0
M  V30 5183 H 545.554 -4.80328 0.664321 0
M  V30 5184 N 546.897 -0.0685191 -1.57451 0
M  V30 5185 C 548.146 0.600898 -1.92541 0
M  V30 5186 C 548.459 1.70967 -0.950239 0
M  V30 5187 O 549.665 2.43844 -1.19384 0
M  V30 5188 C 548.121 1.12019 -3.42023 0
M  V30 5189 C 547.729 0.0426028 -4.4798 0
M  V30 5190 C 549.473 1.76386 -3.86119 0
M  V30 5191 C 547.38 0.575759 -5.88591 0
M  V30 5192 H 546.31 0.228225 -0.71863 0
M  V30 5193 H 548.961 -0.140223 -1.82963 0
M  V30 5194 H 547.343 1.91418 -3.46663 0
M  V30 5195 H 548.517 -0.73182 -4.54952 0
M  V30 5196 H 546.832 -0.504642 -4.13331 0
M  V30 5197 H 549.429 2.17302 -4.88553 0
M  V30 5198 H 549.772 2.62255 -3.23308 0
M  V30 5199 H 550.305 1.03615 -3.84069 0
M  V30 5200 H 547.044 -0.245691 -6.55039 0
M  V30 5201 H 546.564 1.31778 -5.85145 0
M  V30 5202 H 548.243 1.0532 -6.3837 0
M  V30 5203 N 548.375 1.56261 0.205012 0
M  V30 5204 C 549.622 1.8004 0.926927 0
M  V30 5205 C 549.95 0.640086 1.83666 0
M  V30 5206 O 549.205 -0.374702 1.92079 0
M  V30 5207 C 549.504 3.09722 1.78345 0
M  V30 5208 C 549.17 4.39082 1.02555 0
M  V30 5209 C 547.832 4.74226 0.816256 0
M  V30 5210 C 550.184 5.18877 0.491559 0
M  V30 5211 C 547.512 5.86668 0.0613287 0
M  V30 5212 C 549.864 6.32105 -0.250107 0
M  V30 5213 C 548.528 6.6584 -0.470508 0
M  V30 5214 H 547.798 0.658812 0.339187 0
M  V30 5215 H 550.445 1.90515 0.19395 0
M  V30 5216 H 548.75 2.9444 2.5848 0
M  V30 5217 H 550.447 3.25324 2.34446 0
M  V30 5218 H 547.037 4.11497 1.19868 0
M  V30 5219 H 551.221 4.92147 0.640684 0
M  V30 5220 H 546.477 6.11283 -0.119501 0
M  V30 5221 H 550.651 6.93157 -0.671307 0
M  V30 5222 H 548.278 7.5281 -1.05739 0
M  V30 5223 N 549.853 -0.472356 1.50355 0
M  V30 5224 C 550.816 -1.5529 1.68576 0
M  V30 5225 C 551.816 -1.50863 0.556511 0
M  V30 5226 O 553.006 -1.53505 0.823516 0
M  V30 5227 C 550.138 -2.94921 1.70981 0
M  V30 5228 H 551.331 -1.40451 2.64978 0
M  V30 5229 H 548.884 -0.698645 1.39816 0
M  V30 5230 H 549.619 -3.15204 0.762675 0
M  V30 5231 H 549.404 -2.99541 2.53017 0
M  V30 5232 H 550.894 -3.73372 1.87037 0
M  V30 5233 N 551.331 -1.39911 -0.725443 0
M  V30 5234 C 552.578 -1.37654 -1.48518 0
M  V30 5235 C 552.906 0.0243982 -1.94485 0
M  V30 5236 O 552.161 1.00708 -1.67799 0
M  V30 5237 C 552.46 -2.30368 -2.7325 0
M  V30 5238 C 552.126 -3.77817 -2.461 0
M  V30 5239 C 550.788 -4.17991 -2.38405 0
M  V30 5240 C 553.14 -4.71036 -2.23103 0
M  V30 5241 C 550.468 -5.49433 -2.05768 0
M  V30 5242 C 552.82 -6.02766 -1.9198 0
M  V30 5243 C 551.484 -6.41993 -1.82761 0
M  V30 5244 H 550.754 -0.503713 -0.543465 0
M  V30 5245 H 553.401 -1.7249 -0.831822 0
M  V30 5246 H 551.706 -1.88683 -3.43375 0
M  V30 5247 H 553.403 -2.2591 -3.31309 0
M  V30 5248 H 549.993 -3.45982 -2.52972 0
M  V30 5249 H 554.177 -4.40823 -2.2801 0
M  V30 5250 H 549.433 -5.78738 -1.9716 0
M  V30 5251 H 553.607 -6.74519 -1.73197 0
M  V30 5252 H 551.234 -7.43761 -1.57237 0
M  V30 5253 N 552.809 0.956637 -1.25245 0
M  V30 5254 C 553.772 2.03457 -1.05537 0
M  V30 5255 C 554.772 1.60798 -0.00886317 0
M  V30 5256 O 555.962 1.72384 -0.250865 0
M  V30 5257 C 553.094 3.35543 -0.601965 0
M  V30 5258 H 554.287 2.22372 -2.01223 0
M  V30 5259 H 551.84 1.13344 -1.07623 0
M  V30 5260 H 552.575 3.22323 0.357584 0
M  V30 5261 H 552.36 3.67854 -1.35743 0
M  V30 5262 H 553.85 4.14769 -0.485454 0
M  V30 5263 N 554.287 1.06798 1.15896 0
M  V30 5264 C 555.235 0.677525 2.22514 0
M  V30 5265 C 556.229 -0.308994 1.66558 0
M  V30 5266 O 557.435 -0.173308 1.79164 0
M  V30 5267 H 553.81 0.200994 0.724642 0
M  V30 5268 H 555.781 1.5865 2.52731 0
M  V30 5269 C 554.53 0.0854153 3.47595 0
M  V30 5270 H 553.853 0.835645 3.90969 0
M  V30 5271 H 555.293 -0.150199 4.23734 0
M  V30 5272 C 553.752 -1.1724 3.15843 0
M  V30 5273 O 554.282 -2.25965 3.32119 0
M  V30 5274 N 552.488 -1.07636 2.69931 0
M  V30 5275 H 552.035 -0.191559 2.56887 0
M  V30 5276 H 551.993 -1.91876 2.4906 0
M  V30 5277 N 555.766 -1.3263 0.851289 0
M  V30 5278 C 556.729 -2.27247 0.298541 0
M  V30 5279 C 557.729 -1.51467 -0.539847 0
M  V30 5280 O 558.919 -1.7061 -0.351843 0
M  V30 5281 C 556.051 -3.35964 -0.578004 0
M  V30 5282 H 557.244 -2.7765 1.13359 0
M  V30 5283 H 554.797 -1.43245 0.625354 0
M  V30 5284 H 555.532 -2.90823 -1.435 0
M  V30 5285 H 555.317 -3.92094 0.0220539 0
M  V30 5286 H 556.807 -4.06472 -0.957626 0
M  V30 5287 N 557.244 -0.608902 -1.45362 0
M  V30 5288 C 558.49 -0.104762 -2.02529 0
M  V30 5289 C 558.823 1.26191 -1.47613 0
M  V30 5290 O 558.098 1.8327 -0.65134 0
M  V30 5291 C 558.381 -0.0672661 -3.60037 0
M  V30 5292 C 558.234 -1.4647 -4.25284 0
M  V30 5293 C 559.553 0.619877 -4.35713 0
M  V30 5294 H 556.672 -0.0395438 -0.735938 0
M  V30 5295 H 559.314 -0.781126 -1.73201 0
M  V30 5296 H 557.464 0.50871 -3.85155 0
M  V30 5297 H 559.136 -2.08785 -4.11347 0
M  V30 5298 H 557.379 -2.02502 -3.83634 0
M  V30 5299 H 558.05 -1.39069 -5.34195 0
M  V30 5300 H 560.526 0.130297 -4.15896 0
M  V30 5301 H 559.402 0.615224 -5.45441 0
M  V30 5302 H 559.663 1.68621 -4.0868 0
M  V30 5303 N 558.722 1.53707 -0.348139 0
M  V30 5304 C 559.685 2.23812 0.494058 0
M  V30 5305 C 560.685 1.23989 1.02388 0
M  V30 5306 O 561.875 1.48395 0.912396 0
M  V30 5307 C 559.007 2.96133 1.68872 0
M  V30 5308 H 560.2 2.99663 -0.119141 0
M  V30 5309 H 557.753 1.55983 -0.0995539 0
M  V30 5310 H 558.488 2.24481 2.34049 0
M  V30 5311 H 558.273 3.69357 1.31596 0
M  V30 5312 H 559.763 3.49475 2.28597 0
M  V30 5313 N 560.2 0.0768682 1.57412 0
M  V30 5314 C 561.446 -0.591961 1.93968 0
M  V30 5315 C 561.779 -1.68954 0.9575 0
M  V30 5316 O 561.054 -1.94496 -0.0124675 0
M  V30 5317 C 561.337 -1.16418 3.40762 0
M  V30 5318 C 561.19 -0.0728933 4.49741 0
M  V30 5319 C 562.509 -2.06814 3.88479 0
M  V30 5320 H 559.628 -0.213716 0.705333 0
M  V30 5321 H 562.27 0.14387 1.89455 0
M  V30 5322 H 560.42 -1.79128 3.4474 0
M  V30 5323 H 562.092 0.560446 4.57883 0
M  V30 5324 H 560.335 0.595859 4.29688 0
M  V30 5325 H 561.006 -0.513755 5.49604 0
M  V30 5326 H 563.482 -1.54033 3.8654 0
M  V30 5327 H 562.358 -2.43785 4.91793 0
M  V30 5328 H 562.619 -2.97844 3.26713 0
M  V30 5329 N 561.678 -1.56367 -0.196722 0
M  V30 5330 C 562.641 -1.93561 -1.22746 0
M  V30 5331 C 563.641 -0.816566 -1.38524 0
M  V30 5332 O 564.831 -1.084 -1.36363 0
M  V30 5333 C 561.963 -2.20823 -2.59712 0
M  V30 5334 H 563.156 -2.85774 -0.909586 0
M  V30 5335 H 560.709 -1.50032 -0.438174 0
M  V30 5336 H 561.444 -1.31243 -2.96557 0
M  V30 5337 H 561.229 -3.02368 -2.49632 0
M  V30 5338 H 562.719 -2.50608 -3.34044 0
M  V30 5339 N 563.156 0.464375 -1.50603 0
M  V30 5340 C 564.089 1.58052 -1.64605 0
M  V30 5341 C 565.067 1.54914 -0.494016 0
M  V30 5342 O 566.251 1.74438 -0.714393 0
M  V30 5343 C 563.378 2.96634 -1.63481 0
M  V30 5344 C 562.424 3.17901 -2.84325 0
M  V30 5345 S 563.257 2.97083 -4.45536 0
M  V30 5346 C 564.413 4.37994 -4.47115 0
M  V30 5347 H 564.646 1.45937 -2.59017 0
M  V30 5348 H 562.179 0.652189 -1.39949 0
M  V30 5349 H 564.137 3.76527 -1.63517 0
M  V30 5350 H 562.798 3.06134 -0.702928 0
M  V30 5351 H 561.991 4.19158 -2.79862 0
M  V30 5352 H 561.593 2.45792 -2.81891 0
M  V30 5353 H 563.885 5.30743 -4.21091 0
M  V30 5354 H 564.828 4.47499 -5.48772 0
M  V30 5355 H 565.236 4.20386 -3.76743 0
M  V30 5356 N 564.634 1.40294 0.718013 0
M  V30 5357 C 565.864 1.41544 1.50495 0
M  V30 5358 C 566.272 0.0127877 1.89196 0
M  V30 5359 O 565.615 -0.97305 1.55812 0
M  V30 5360 C 565.677 2.24021 2.81167 0
M  V30 5361 C 565.341 3.72463 2.64803 0
M  V30 5362 C 566.338 4.65154 2.32223 0
M  V30 5363 C 564.023 4.1625 2.81143 0
M  V30 5364 C 566.017 5.99618 2.16189 0
M  V30 5365 C 563.704 5.50784 2.64727 0
M  V30 5366 C 564.702 6.42283 2.32297 0
M  V30 5367 O 564.39 7.74337 2.16004 0
M  V30 5368 H 564.122 0.484819 0.471091 0
M  V30 5369 H 566.676 1.84948 0.893488 0
M  V30 5370 H 564.906 1.75393 3.44636 0
M  V30 5371 H 566.595 2.17243 3.42871 0
M  V30 5372 H 567.361 4.32622 2.19234 0
M  V30 5373 H 563.24 3.45352 3.05373 0
M  V30 5374 H 566.784 6.71 1.90799 0
M  V30 5375 H 562.681 5.82902 2.773 0
M  V30 5376 H 563.449 7.85244 2.30942 0
M  V30 5377 N 566.112 -0.949982 1.2575 0
M  V30 5378 C 567.358 -1.69766 1.10938 0
M  V30 5379 C 567.691 -1.91056 -0.348028 0
M  V30 5380 O 566.966 -1.48488 -1.25625 0
M  V30 5381 C 567.249 -3.07779 1.86933 0
M  V30 5382 C 567.102 -2.9387 3.4053 0
M  V30 5383 C 568.421 -4.07749 1.65616 0
M  V30 5384 H 565.54 -0.616144 0.404396 0
M  V30 5385 H 568.182 -1.10394 1.54639 0
M  V30 5386 H 566.332 -3.58462 1.4979 0
M  V30 5387 H 568.004 -2.50476 3.87375 0
M  V30 5388 H 566.247 -2.29686 3.68004 0
M  V30 5389 H 566.918 -3.91719 3.88922 0
M  V30 5390 H 569.394 -3.65994 1.97959 0
M  V30 5391 H 568.27 -5.02348 2.21218 0
M  V30 5392 H 568.531 -4.38029 0.598595 0
M  V30 5393 N 567.59 -1.07411 -1.15328 0
M  V30 5394 C 568.836 -0.798831 -1.86404 0
M  V30 5395 C 569.169 0.673433 -1.8215 0
M  V30 5396 O 568.444 1.49428 -1.24505 0
M  V30 5397 C 568.727 -1.30846 -3.35487 0
M  V30 5398 C 568.58 -2.84532 -3.4837 0
M  V30 5399 C 569.899 -0.925486 -4.30259 0
M  V30 5400 H 567.018 -0.291659 -0.676834 0
M  V30 5401 H 569.66 -1.332 -1.35491 0
M  V30 5402 H 567.81 -0.854916 -3.78977 0
M  V30 5403 H 569.482 -3.3818 -3.13739 0
M  V30 5404 H 567.725 -3.22699 -2.8991 0
M  V30 5405 H 568.396 -3.15259 -4.53118 0
M  V30 5406 H 570.872 -1.3163 -3.94731 0
M  V30 5407 H 569.748 -1.3094 -5.33053 0
M  V30 5408 H 570.009 0.168525 -4.41779 0
M  V30 5409 N 569.068 1.32177 -0.85831 0
M  V30 5410 C 570.316 1.96735 -0.462568 0
M  V30 5411 C 570.637 1.6824 0.985911 0
M  V30 5412 O 569.907 0.991564 1.68952 0
M  V30 5413 H 568.487 0.727849 -0.168064 0
M  V30 5414 H 571.149 1.61195 -1.09554 0
M  V30 5415 H 570.245 3.06068 -0.610647 0
M  V30 5416 N 570.547 0.616602 1.45037 0
M  V30 5417 C 571.794 0.115331 2.02171 0
M  V30 5418 C 572.122 -1.25748 1.48383 0
M  V30 5419 O 571.377 -1.84511 0.652229 0
M  V30 5420 C 571.676 0.0356829 3.57382 0
M  V30 5421 C 571.342 1.34535 4.30362 0
M  V30 5422 C 570.004 1.70408 4.50016 0
M  V30 5423 C 572.356 2.21049 4.72003 0
M  V30 5424 C 569.684 2.92529 5.0857 0
M  V30 5425 C 572.036 3.42427 5.31908 0
M  V30 5426 C 570.7 3.78541 5.49784 0
M  V30 5427 H 569.97 0.0422024 0.739797 0
M  V30 5428 H 572.617 0.80002 1.73988 0
M  V30 5429 H 570.922 -0.732314 3.84895 0
M  V30 5430 H 572.619 -0.368463 3.99304 0
M  V30 5431 H 569.209 1.05615 4.15383 0
M  V30 5432 H 573.393 1.94632 4.56544 0
M  V30 5433 H 568.649 3.20605 5.20598 0
M  V30 5434 H 572.823 4.09709 5.63127 0
M  V30 5435 H 570.45 4.73255 5.94923 0
M  V30 5436 N 572.025 -1.5352 0.356285 0
M  V30 5437 C 572.988 -2.24071 -0.482182 0
M  V30 5438 C 573.988 -1.24531 -1.01729 0
M  V30 5439 O 575.178 -1.48876 -0.904513 0
M  V30 5440 C 572.31 -2.97025 -1.67299 0
M  V30 5441 H 573.503 -2.99596 0.135031 0
M  V30 5442 H 571.056 -1.55928 0.107825 0
M  V30 5443 H 571.791 -2.25719 -2.32855 0
M  V30 5444 H 571.576 -3.7005 -1.29636 0
M  V30 5445 H 573.066 -3.50683 -2.26741 0
M  V30 5446 N 573.503 -0.0852151 -1.57369 0
M  V30 5447 C 574.413 0.891712 -2.16992 0
M  V30 5448 C 575.429 1.3174 -1.13669 0
M  V30 5449 O 576.605 1.38735 -1.45995 0
M  V30 5450 C 573.67 2.13635 -2.73059 0
M  V30 5451 C 572.731 1.7658 -3.91303 0
M  V30 5452 C 571.964 2.95111 -4.44686 0
M  V30 5453 O 572.187 4.09539 -3.97032 0
M  V30 5454 O 571.121 2.74149 -5.35841 0
M  V30 5455 H 574.947 0.414477 -3.00858 0
M  V30 5456 H 572.532 0.138598 -1.48756 0
M  V30 5457 H 574.414 2.86595 -3.08935 0
M  V30 5458 H 573.089 2.6043 -1.92244 0
M  V30 5459 H 571.996 1.00831 -3.60255 0
M  V30 5460 H 573.329 1.34557 -4.7345 0
M  V30 5461 N 574.981 1.5647 0.188427 0
M  V30 5462 C 576.209 1.85131 0.923803 0
M  V30 5463 C 576.624 0.668537 1.76567 0
M  V30 5464 O 575.981 -0.362662 1.7886 0
M  V30 5465 C 576.032 3.12661 1.81453 0
M  V30 5466 O 575.753 4.26378 1.00665 0
M  V30 5467 C 577.254 3.54548 2.66103 0
M  V30 5468 H 574.474 0.614624 0.269218 0
M  V30 5469 H 577.018 2.03581 0.193671 0
M  V30 5470 H 575.173 2.96088 2.49821 0
M  V30 5471 H 575.587 4.99041 1.61425 0
M  V30 5472 H 577.061 4.4673 3.24247 0
M  V30 5473 H 577.538 2.77853 3.40139 0
M  V30 5474 H 578.144 3.73674 2.03096 0
M  V30 5475 N 576.459 -0.456382 1.50847 0
M  V30 5476 C 577.705 -1.20914 1.62811 0
M  V30 5477 C 578.038 -1.91301 0.334304 0
M  V30 5478 O 577.313 -1.82775 -0.665098 0
M  V30 5479 C 577.596 -2.24122 2.81853 0
M  V30 5480 C 577.449 -1.57944 4.21158 0
M  V30 5481 C 578.768 -3.25295 2.96431 0
M  V30 5482 H 575.887 -0.438233 0.592554 0
M  V30 5483 H 578.529 -0.50091 1.83278 0
M  V30 5484 H 576.679 -2.84524 2.64534 0
M  V30 5485 H 578.351 -1.01025 4.50102 0
M  V30 5486 H 576.594 -0.882185 4.24735 0
M  V30 5487 H 577.265 -2.33014 5.00408 0
M  V30 5488 H 579.741 -2.7493 3.12335 0
M  V30 5489 H 578.617 -3.94822 3.81322 0
M  V30 5490 H 578.878 -3.90286 2.07676 0
M  V30 5491 N 577.937 -1.40673 -0.710563 0
M  V30 5492 C 579.183 -1.39428 -1.47267 0
M  V30 5493 C 579.516 0.00182129 -1.942 0
M  V30 5494 O 578.791 0.971387 -1.68506 0
M  V30 5495 C 579.074 -2.38812 -2.6952 0
M  V30 5496 C 578.927 -3.87467 -2.28449 0
M  V30 5497 C 580.246 -2.3566 -3.71689 0
M  V30 5498 H 577.365 -0.507768 -0.534173 0
M  V30 5499 H 580.007 -1.71843 -0.810547 0
M  V30 5500 H 578.157 -2.113 -3.26013 0
M  V30 5501 H 579.829 -4.25825 -1.77399 0
M  V30 5502 H 578.072 -4.03058 -1.60395 0
M  V30 5503 H 578.743 -4.5253 -3.16103 0
M  V30 5504 H 581.219 -2.6004 -3.24836 0
M  V30 5505 H 580.095 -3.07237 -4.54859 0
M  V30 5506 H 580.356 -1.36996 -4.20339 0
M  V30 5507 N 579.415 0.9433 -1.26252 0
M  V30 5508 C 580.325 2.07532 -1.09397 0
M  V30 5509 C 581.341 1.73977 -0.0280449 0
M  V30 5510 O 582.517 2.00067 -0.231337 0
M  V30 5511 C 579.582 3.39002 -0.726523 0
M  V30 5512 C 578.643 3.86353 -1.87163 0
M  V30 5513 C 577.876 5.11549 -1.52162 0
M  V30 5514 O 578.099 5.68834 -0.422385 0
M  V30 5515 O 577.033 5.53889 -2.35565 0
M  V30 5516 H 580.859 2.24658 -2.04359 0
M  V30 5517 H 578.444 1.05988 -1.05295 0
M  V30 5518 H 580.326 4.18 -0.534236 0
M  V30 5519 H 579.001 3.2312 0.193721 0
M  V30 5520 H 577.908 3.0831 -2.11886 0
M  V30 5521 H 579.241 4.06752 -2.77152 0
M  V30 5522 N 580.893 1.08022 1.14757 0
M  V30 5523 C 581.823 0.728248 2.21853 0
M  V30 5524 C 582.804 -0.287486 1.67653 0
M  V30 5525 O 583.989 -0.158727 1.9355 0
M  V30 5526 C 581.119 0.132549 3.47047 0
M  V30 5527 C 580.073 1.07619 4.14249 0
M  V30 5528 C 579.399 0.342907 5.33599 0
M  V30 5529 C 580.699 2.41268 4.63235 0
M  V30 5530 H 582.393 1.62365 2.51551 0
M  V30 5531 H 579.939 0.782125 1.20908 0
M  V30 5532 H 581.892 -0.125665 4.21213 0
M  V30 5533 H 580.616 -0.797971 3.16702 0
M  V30 5534 H 579.275 1.31944 3.42033 0
M  V30 5535 H 578.923 -0.59129 4.99513 0
M  V30 5536 H 578.623 0.971955 5.79506 0
M  V30 5537 H 580.147 0.0926538 6.1053 0
M  V30 5538 H 581.561 2.21232 5.28894 0
M  V30 5539 H 579.958 2.9983 5.19829 0
M  V30 5540 H 581.028 3.03079 3.78512 0
M  V30 5541 N 582.371 -1.3172 0.865308 0
M  V30 5542 C 583.301 -2.31109 0.333302 0
M  V30 5543 C 584.282 -1.60148 -0.573301 0
M  V30 5544 O 585.467 -1.87882 -0.491305 0
M  V30 5545 C 582.597 -3.44104 -0.470078 0
M  V30 5546 C 581.551 -4.26623 0.343021 0
M  V30 5547 C 580.877 -5.31482 -0.585756 0
M  V30 5548 C 582.177 -4.98001 1.57456 0
M  V30 5549 H 583.871 -2.75855 1.1638 0
M  V30 5550 H 581.417 -1.3262 0.561069 0
M  V30 5551 H 583.37 -4.12682 -0.852752 0
M  V30 5552 H 582.094 -2.98112 -1.33404 0
M  V30 5553 H 580.753 -3.59707 0.707583 0
M  V30 5554 H 580.401 -4.81741 -1.44686 0
M  V30 5555 H 580.101 -5.87582 -0.0456494 0
M  V30 5556 H 581.625 -6.0292 -0.965375 0
M  V30 5557 H 583.039 -5.59201 1.26359 0
M  V30 5558 H 581.436 -5.63876 2.05339 0
M  V30 5559 H 582.506 -4.25253 2.32997 0
M  V30 5560 N 583.85 -0.624285 -1.44708 0
M  V30 5561 C 584.797 0.0847135 -2.30644 0
M  V30 5562 C 585.767 0.843575 -1.43084 0
M  V30 5563 O 586.952 0.825982 -1.71995 0
M  V30 5564 C 584.091 1.06495 -3.28257 0
M  V30 5565 C 583.205 0.305224 -4.3092 0
M  V30 5566 C 582.34 1.27667 -5.1563 0
M  V30 5567 C 581.379 0.505706 -6.10007 0
M  V30 5568 N 580.516 1.42727 -6.8744 0
M  V30 5569 H 585.356 -0.654068 -2.90733 0
M  V30 5570 H 582.893 -0.334334 -1.4325 0
M  V30 5571 H 584.851 1.64658 -3.83332 0
M  V30 5572 H 583.481 1.77094 -2.69884 0
M  V30 5573 H 582.533 -0.392207 -3.78373 0
M  V30 5574 H 583.845 -0.295553 -4.97924 0
M  V30 5575 H 582.999 1.92984 -5.75189 0
M  V30 5576 H 581.738 1.91137 -4.48685 0
M  V30 5577 H 580.743 -0.160999 -5.49564 0
M  V30 5578 H 581.968 -0.124183 -6.78986 0
M  V30 5579 H 579.913 2.04931 -6.23169 0
M  V30 5580 H 579.831 0.880345 -7.50857 0
M  V30 5581 H 581.099 2.0695 -7.51526 0
M  V30 5582 N 585.328 1.53329 -0.364422 0
M  V30 5583 C 586.238 2.29414 0.490552 0
M  V30 5584 C 587.254 1.35335 1.09363 0
M  V30 5585 O 588.43 1.68391 1.10483 0
M  V30 5586 C 585.495 3.06772 1.61529 0
M  V30 5587 C 584.556 4.16516 1.03986 0
M  V30 5588 C 583.789 4.90176 2.111 0
M  V30 5589 O 584.012 4.63687 3.32191 0
M  V30 5590 O 582.946 5.76134 1.74222 0
M  V30 5591 H 586.772 3.03428 -0.12856 0
M  V30 5592 H 584.357 1.48843 -0.128837 0
M  V30 5593 H 586.239 3.55082 2.26924 0
M  V30 5594 H 584.914 2.35596 2.21983 0
M  V30 5595 H 583.821 3.7246 0.349856 0
M  V30 5596 H 585.154 4.89855 0.4799 0
M  V30 5597 N 586.806 0.0935595 1.57322 0
M  V30 5598 C 587.756 -0.876521 2.10478 0
M  V30 5599 C 588.74 -1.24482 1.01946 0
M  V30 5600 O 589.932 -1.22016 1.28223 0
M  V30 5601 C 587.061 -2.13615 2.68745 0
M  V30 5602 C 586.147 -1.79335 3.84317 0
M  V30 5603 N 586.538 -1.15606 4.92411 0
M  V30 5604 C 584.836 -2.08954 3.94023 0
M  V30 5605 C 585.537 -0.999036 5.73057 0
M  V30 5606 N 584.513 -1.51585 5.22037 0
M  V30 5607 H 588.315 -0.379829 2.91435 0
M  V30 5608 H 585.829 -0.109699 1.62029 0
M  V30 5609 H 587.826 -2.84053 3.05155 0
M  V30 5610 H 586.486 -2.63851 1.89242 0
M  V30 5611 H 587.497 -0.823063 5.11318 0
M  V30 5612 H 584.174 -2.61416 3.25527 0
M  V30 5613 H 585.564 -0.500772 6.70031 0
M  V30 5614 N 588.284 -1.56567 -0.180126 0
M  V30 5615 C 589.509 -1.85975 -0.918041 0
M  V30 5616 C 589.934 -0.678888 -1.75422 0
M  V30 5617 O 589.292 0.372168 -1.77439 0
M  V30 5618 C 589.34 -3.13731 -1.77779 0
M  V30 5619 O 588.444 -2.95335 -2.87838 0
M  V30 5620 H 587.785 -0.61196 -0.257683 0
M  V30 5621 H 590.315 -2.03798 -0.180923 0
M  V30 5622 H 590.325 -3.4491 -2.17948 0
M  V30 5623 H 589 -3.99293 -1.16352 0
M  V30 5624 H 587.577 -2.7549 -2.51316 0
M  V30 5625 N 589.762 0.448376 -1.51087 0
M  V30 5626 C 591.011 1.19561 -1.62444 0
M  V30 5627 C 591.324 1.92602 -0.341151 0
M  V30 5628 O 592.53 2.69439 -0.333936 0
M  V30 5629 C 590.986 2.17373 -2.8684 0
M  V30 5630 C 590.594 1.5003 -4.22131 0
M  V30 5631 C 592.338 2.92597 -3.0755 0
M  V30 5632 C 590.245 2.46262 -5.37689 0
M  V30 5633 H 589.175 0.449975 -0.605011 0
M  V30 5634 H 591.826 0.463735 -1.77544 0
M  V30 5635 H 590.208 2.93948 -2.65349 0
M  V30 5636 H 591.382 0.790886 -4.53962 0
M  V30 5637 H 589.697 0.870011 -4.0721 0
M  V30 5638 H 592.294 3.64663 -3.91056 0
M  V30 5639 H 592.637 3.53306 -2.20183 0
M  V30 5640 H 593.17 2.23131 -3.29329 0
M  V30 5641 H 589.909 1.90258 -6.27281 0
M  V30 5642 H 589.429 3.15289 -5.10248 0
M  V30 5643 H 591.108 3.07623 -5.6919 0
M  V30 5644 N 591.24 1.41047 0.703093 0
M  V30 5645 C 592.17 1.45067 1.82969 0
M  V30 5646 C 593.151 0.31016 1.67248 0
M  V30 5647 O 594.336 0.520548 1.87093 0
M  V30 5648 C 591.466 1.32478 3.2104 0
M  V30 5649 C 590.42 2.44262 3.51454 0
M  V30 5650 C 589.746 2.16742 4.88801 0
M  V30 5651 C 591.046 3.86606 3.51189 0
M  V30 5652 H 592.74 2.39353 1.79863 0
M  V30 5653 H 590.286 1.15206 0.863919 0
M  V30 5654 H 592.239 1.33904 3.99559 0
M  V30 5655 H 590.963 0.346735 3.24754 0
M  V30 5656 H 589.622 2.42107 2.75282 0
M  V30 5657 H 589.27 1.17299 4.89132 0
M  V30 5658 H 588.97 2.91643 5.10116 0
M  V30 5659 H 590.494 2.19872 5.69639 0
M  V30 5660 H 591.908 3.90517 4.19725 0
M  V30 5661 H 590.305 4.61128 3.84033 0
M  V30 5662 H 591.375 4.15296 2.50315 0
M  V30 5663 N 592.718 -0.936591 1.26751 0
M  V30 5664 C 593.651 -2.03619 1.03027 0
M  V30 5665 C 594.629 -1.62534 -0.0464619 0
M  V30 5666 O 595.813 -1.88251 0.0968873 0
M  V30 5667 C 592.94 -3.3402 0.561072 0
M  V30 5668 C 591.986 -3.9408 1.63105 0
M  V30 5669 S 592.819 -4.27782 3.22122 0
M  V30 5670 C 593.975 -5.61277 2.76982 0
M  V30 5671 H 594.208 -2.23429 1.96129 0
M  V30 5672 H 591.741 -1.07857 1.10482 0
M  V30 5673 H 593.699 -4.09424 0.297031 0
M  V30 5674 H 592.36 -3.12147 -0.349741 0
M  V30 5675 H 591.553 -4.88154 1.25386 0
M  V30 5676 H 591.155 -3.25227 1.84671 0
M  V30 5677 H 593.447 -6.40189 2.21731 0
M  V30 5678 H 594.39 -6.03887 3.69766 0
M  V30 5679 H 594.798 -5.21374 2.16402 0
M  V30 5680 N 594.196 -1.08629 -1.14182 0
M  V30 5681 C 595.445 -0.812271 -1.84621 0
M  V30 5682 C 595.758 0.664313 -1.83973 0
M  V30 5683 O 596.964 1.05357 -2.50224 0
M  V30 5684 C 595.42 -1.4031 -3.31423 0
M  V30 5685 C 595.028 -2.91164 -3.40481 0
M  V30 5686 C 596.772 -1.20767 -4.06959 0
M  V30 5687 C 594.679 -3.43373 -4.81507 0
M  V30 5688 H 593.609 -0.30019 -0.691666 0
M  V30 5689 H 596.26 -1.30798 -1.28701 0
M  V30 5690 H 594.642 -0.835096 -3.87094 0
M  V30 5691 H 595.816 -3.5412 -2.94848 0
M  V30 5692 H 594.131 -3.09646 -2.78403 0
M  V30 5693 H 596.728 -1.57237 -5.11058 0
M  V30 5694 H 597.071 -0.147664 -4.16038 0
M  V30 5695 H 597.604 -1.74274 -3.57594 0
M  V30 5696 H 594.343 -4.48958 -4.77616 0
M  V30 5697 H 593.863 -2.85176 -5.27669 0
M  V30 5698 H 595.542 -3.40095 -5.50404 0
M  V30 5699 N 595.674 1.31259 -0.872281 0
M  V30 5700 C 596.951 1.91362 -0.404943 0
M  V30 5701 C 597.331 1.79362 1.11321 0
M  V30 5702 O 596.679 1.20277 1.94283 0
M  V30 5703 C 596.889 3.3749 -0.888893 0
M  V30 5704 C 598.237 4.14593 -0.916384 0
M  V30 5705 O 599.261 3.46282 -0.834701 0
M  V30 5706 O 598.12 5.3661 -1.03498 0
M  V30 5707 H 595.214 0.818016 -0.121569 0
M  V30 5708 H 597.76 1.39912 -0.960346 0
M  V30 5709 H 596.532 3.40249 -1.93251 0
M  V30 5710 H 596.155 3.96375 -0.311932 0
M  V30 5711 N 597.152 0.631951 1.44375 0
M  V30 5712 C 598.062 -0.073674 2.34484 0
M  V30 5713 C 599.078 -0.834825 1.52665 0
M  V30 5714 O 600.254 -0.786902 1.85391 0
M  V30 5715 C 597.319 -1.04247 3.30656 0
M  V30 5716 C 596.38 -0.280602 4.28382 0
M  V30 5717 C 595.613 -1.20325 5.19959 0
M  V30 5718 O 595.836 -2.44199 5.15484 0
M  V30 5719 O 594.77 -0.687128 5.97965 0
M  V30 5720 H 598.596 0.667477 2.96274 0
M  V30 5721 H 596.181 0.392144 1.44162 0
M  V30 5722 H 598.063 -1.59981 3.89851 0
M  V30 5723 H 596.738 -1.76422 2.71398 0
M  V30 5724 H 595.645 0.319804 3.72731 0
M  V30 5725 H 596.978 0.401144 4.90563 0
M  V30 5726 N 598.631 -1.53133 0.372548 0
M  V30 5727 C 599.88 -2.00539 -0.216115 0
M  V30 5728 C 600.193 -1.26374 -1.49295 0
M  V30 5729 O 601.399 -1.64404 -2.16064 0
M  V30 5730 C 599.855 -3.57253 -0.435678 0
M  V30 5731 C 599.463 -4.40302 0.82693 0
M  V30 5732 C 601.207 -4.12995 -0.981618 0
M  V30 5733 C 599.114 -5.88583 0.576567 0
M  V30 5734 H 598.044 -0.749246 -0.084536 0
M  V30 5735 H 600.695 -1.76771 0.492364 0
M  V30 5736 H 599.077 -3.77202 -1.20559 0
M  V30 5737 H 600.251 -4.32124 1.60017 0
M  V30 5738 H 598.566 -3.95699 1.29659 0
M  V30 5739 H 601.163 -5.21418 -1.18436 0
M  V30 5740 H 601.506 -3.68027 -1.94581 0
M  V30 5741 H 602.039 -3.96871 -0.271696 0
M  V30 5742 H 598.778 -6.37841 1.51128 0
M  V30 5743 H 598.298 -5.99592 -0.158047 0
M  V30 5744 H 599.977 -6.46676 0.204722 0
M  V30 5745 N 600.109 -0.101901 -1.5727 0
M  V30 5746 C 601.057 0.872034 -2.15635 0
M  V30 5747 C 602.051 1.28742 -1.10099 0
M  V30 5748 O 603.257 1.26116 -1.28432 0
M  V30 5749 H 599.632 0.299269 -0.689886 0
M  V30 5750 H 601.603 0.355137 -2.96279 0
M  V30 5751 C 600.352 2.11886 -2.7568 0
M  V30 5752 H 599.675 1.80813 -3.56576 0
M  V30 5753 H 601.115 2.78077 -3.20077 0
M  V30 5754 C 599.574 2.89739 -1.7191 0
M  V30 5755 O 600.104 3.84522 -1.16213 0
M  V30 5756 N 598.31 2.53407 -1.42245 0
M  V30 5757 H 597.857 1.76398 -1.87727 0
M  V30 5758 H 597.815 3.05795 -0.730529 0
M  V30 5759 N 601.587 1.56661 0.17182 0
M  V30 5760 C 602.864 1.72838 0.915778 0
M  V30 5761 C 603.244 0.66316 2.00413 0
M  V30 5762 O 602.592 -0.322123 2.26218 0
M  V30 5763 C 602.802 3.16019 1.48097 0
M  V30 5764 C 604.15 3.76962 1.95408 0
M  V30 5765 O 605.174 3.19294 1.57892 0
M  V30 5766 O 604.033 4.78219 2.64516 0
M  V30 5767 H 601.127 0.705797 0.431021 0
M  V30 5768 H 603.673 1.68947 0.159689 0
M  V30 5769 H 602.445 3.85031 0.697618 0
M  V30 5770 H 602.068 3.24234 2.30126 0
M  V30 5771 N 603.065 -0.440357 1.51323 0
M  V30 5772 C 604.314 -1.18697 1.63076 0
M  V30 5773 C 604.627 -1.92418 0.35136 0
M  V30 5774 O 605.833 -2.69258 0.348221 0
M  V30 5775 C 604.289 -2.15849 2.87988 0
M  V30 5776 C 603.897 -1.47789 4.22921 0
M  V30 5777 C 605.641 -2.90962 3.09098 0
M  V30 5778 C 603.548 -2.43407 5.38987 0
M  V30 5779 H 602.478 -0.44676 0.607389 0
M  V30 5780 H 605.129 -0.454313 1.77787 0
M  V30 5781 H 603.511 -2.92537 2.66905 0
M  V30 5782 H 604.685 -0.7668 4.54375 0
M  V30 5783 H 603 -0.848404 4.07665 0
M  V30 5784 H 605.597 -3.62584 3.92985 0
M  V30 5785 H 605.94 -3.52133 2.22053 0
M  V30 5786 H 606.473 -2.21381 3.30507 0
M  V30 5787 H 603.212 -1.86929 6.28282 0
M  V30 5788 H 602.732 -3.12579 5.11913 0
M  V30 5789 H 604.411 -3.046 5.70813 0
M  V30 5790 N 604.543 -1.41418 -0.695603 0
M  V30 5791 C 605.959 -1.23887 -1.00619 0
M  V30 5792 C 606.159 -0.128206 -2.01092 0
M  V30 5793 O 605.215 0.507408 -2.47349 0
M  V30 5794 C 606.528 -2.58816 -1.53083 0
M  V30 5795 C 608.076 -2.65998 -1.64967 0
M  V30 5796 C 608.551 -4.01244 -2.20833 0
M  V30 5797 N 610.042 -4.0309 -2.28194 0
M  V30 5798 C 610.777 -5.04539 -2.72448 0
M  V30 5799 N 610.273 -6.16378 -3.16306 0
M  V30 5800 N 612.066 -4.91901 -2.72011 0
M  V30 5801 H 604.217 -2.12379 -0.0300061 0
M  V30 5802 H 606.48 -0.944958 -0.0758797 0
M  V30 5803 H 606.186 -3.40842 -0.867147 0
M  V30 5804 H 606.06 -2.81299 -2.51298 0
M  V30 5805 H 608.447 -1.84331 -2.30448 0
M  V30 5806 H 608.528 -2.47325 -0.652982 0
M  V30 5807 H 608.172 -4.83359 -1.55968 0
M  V30 5808 H 608.102 -4.17257 -3.21254 0
M  V30 5809 H 610.593 -3.22341 -1.97242 0
M  V30 5810 H 610.906 -6.89658 -3.487 0
M  V30 5811 H 609.251 -6.19914 -3.14215 0
M  V30 5812 H 612.442 -4.03613 -2.37095 0
M  V30 5813 H 612.615 -5.71102 -3.06181 0
M  V30 5814 N 606.021 0.929856 -1.27246 0
M  V30 5815 C 607.27 1.67182 -1.12842 0
M  V30 5816 C 607.583 1.9287 0.325666 0
M  V30 5817 O 608.789 2.64999 0.590572 0
M  V30 5818 C 607.245 3.01097 -1.97151 0
M  V30 5819 C 606.853 2.83115 -3.47203 0
M  V30 5820 C 608.597 3.78907 -1.91389 0
M  V30 5821 C 606.504 4.12573 -4.23719 0
M  V30 5822 H 605.434 0.627064 -0.418697 0
M  V30 5823 H 608.085 1.0332 -1.51649 0
M  V30 5824 H 606.467 3.66004 -1.51186 0
M  V30 5825 H 607.641 2.26989 -4.01015 0
M  V30 5826 H 605.956 2.18736 -3.54321 0
M  V30 5827 H 608.553 4.74837 -2.45834 0
M  V30 5828 H 608.896 4.0674 -0.887047 0
M  V30 5829 H 609.429 3.20794 -2.35237 0
M  V30 5830 H 606.168 3.8992 -5.26918 0
M  V30 5831 H 605.688 4.68371 -3.74685 0
M  V30 5832 H 607.367 4.8095 -4.32777 0
M  V30 5833 N 607.499 1.09233 1.13605 0
M  V30 5834 C 608.748 0.82205 1.84188 0
M  V30 5835 C 609.061 -0.654548 1.84323 0
M  V30 5836 O 610.267 -1.04029 2.50779 0
M  V30 5837 C 608.723 1.42066 3.30674 0
M  V30 5838 C 608.331 2.92965 3.38933 0
M  V30 5839 C 610.075 1.22924 4.06313 0
M  V30 5840 C 607.982 3.45922 4.79679 0
M  V30 5841 H 606.912 0.303854 0.690064 0
M  V30 5842 H 609.563 1.31479 1.28006 0
M  V30 5843 H 607.945 0.855613 3.86646 0
M  V30 5844 H 609.119 3.55679 2.92966 0
M  V30 5845 H 607.434 3.11118 2.76757 0
M  V30 5846 H 610.031 1.59945 5.10217 0
M  V30 5847 H 610.374 0.169726 4.15954 0
M  V30 5848 H 610.907 1.76168 3.56665 0
M  V30 5849 H 607.646 4.51484 4.75229 0
M  V30 5850 H 607.166 2.87971 5.26149 0
M  V30 5851 H 608.845 3.43009 5.48592 0
M  V30 5852 N 608.977 -1.30795 0.87923 0
M  V30 5853 C 610.225 -1.95974 0.493809 0
M  V30 5854 C 610.546 -1.69787 -0.959021 0
M  V30 5855 O 609.816 -1.01832 -1.67353 0
M  V30 5856 H 608.396 -0.725083 0.179622 0
M  V30 5857 H 611.058 -1.59432 1.12105 0
M  V30 5858 H 610.154 -3.05058 0.659263 0
M  V30 5859 N 610.455 -0.639598 -1.44038 0
M  V30 5860 C 611.418 0.0506628 -2.29144 0
M  V30 5861 C 612.418 0.764001 -1.41491 0
M  V30 5862 O 613.608 0.607309 -1.63271 0
M  V30 5863 C 610.74 1.0824 -3.2326 0
M  V30 5864 H 611.933 -0.697987 -2.91664 0
M  V30 5865 H 609.486 -0.400146 -1.51091 0
M  V30 5866 H 610.221 1.86075 -2.65606 0
M  V30 5867 H 610.006 0.574725 -3.87865 0
M  V30 5868 H 611.496 1.56487 -3.87171 0
M  V30 5869 N 611.933 1.52934 -0.380664 0
M  V30 5870 C 613.182 2.00651 0.205477 0
M  V30 5871 C 613.495 1.27164 1.48623 0
M  V30 5872 O 614.701 1.65547 2.15189 0
M  V30 5873 C 613.157 3.57479 0.416726 0
M  V30 5874 C 612.765 4.39857 -0.850268 0
M  V30 5875 C 614.509 4.13509 0.959702 0
M  V30 5876 C 612.416 5.88269 -0.607773 0
M  V30 5877 H 611.346 0.749684 0.0805614 0
M  V30 5878 H 613.997 1.76508 -0.501732 0
M  V30 5879 H 612.379 3.77836 1.18557 0
M  V30 5880 H 613.553 4.31269 -1.62307 0
M  V30 5881 H 611.868 3.95005 -1.31756 0
M  V30 5882 H 614.465 5.22039 1.15669 0
M  V30 5883 H 614.808 3.69054 1.92626 0
M  V30 5884 H 615.341 3.9701 0.250645 0
M  V30 5885 H 612.08 6.3703 -1.54509 0
M  V30 5886 H 611.6 5.99667 0.126247 0
M  V30 5887 H 613.279 6.46558 -0.239014 0
M  V30 5888 N 613.412 0.11024 1.57214 0
M  V30 5889 C 614.64 -0.557834 1.99238 0
M  V30 5890 C 615.055 -1.60778 0.989734 0
M  V30 5891 O 614.412 -1.82491 -0.0186092 0
M  V30 5892 C 614.463 -1.19189 3.41286 0
M  V30 5893 O 614.184 -0.183919 4.37714 0
M  V30 5894 C 615.685 -1.94413 3.98395 0
M  V30 5895 H 612.905 -0.148392 0.654386 0
M  V30 5896 H 615.449 0.193996 2.03578 0
M  V30 5897 H 613.604 -1.89456 3.37913 0
M  V30 5898 H 614.018 -0.643475 5.20538 0
M  V30 5899 H 615.492 -2.34116 4.99894 0
M  V30 5900 H 615.969 -2.81592 3.3705 0
M  V30 5901 H 616.575 -1.28928 4.05287 0
M  V30 5902 N 614.89 -1.56749 -0.16351 0
M  V30 5903 C 616.136 -1.82704 -0.880168 0
M  V30 5904 C 616.469 -0.689311 -1.81555 0
M  V30 5905 O 615.744 0.308224 -1.92042 0
M  V30 5906 C 616.027 -3.19084 -1.66905 0
M  V30 5907 C 615.88 -4.43397 -0.756269 0
M  V30 5908 C 617.199 -3.52493 -2.63509 0
M  V30 5909 H 614.318 -0.664608 -0.318535 0
M  V30 5910 H 616.96 -1.89438 -0.146036 0
M  V30 5911 H 615.11 -3.13475 -2.2949 0
M  V30 5912 H 616.782 -4.61079 -0.14269 0
M  V30 5913 H 615.025 -4.33752 -0.0647944 0
M  V30 5914 H 615.696 -5.3539 -1.34393 0
M  V30 5915 H 618.172 -3.58606 -2.11047 0
M  V30 5916 H 617.048 -4.48979 -3.15767 0
M  V30 5917 H 617.309 -2.77597 -3.44082 0
M  V30 5918 N 616.368 0.432326 -1.51554 0
M  V30 5919 C 617.614 1.18309 -1.64714 0
M  V30 5920 C 617.947 1.90745 -0.364696 0
M  V30 5921 O 617.222 1.8381 0.635936 0
M  V30 5922 C 617.505 2.1961 -2.85383 0
M  V30 5923 C 617.358 1.51223 -4.23617 0
M  V30 5924 C 618.677 3.20538 -3.01569 0
M  V30 5925 H 615.796 0.428751 -0.599451 0
M  V30 5926 H 618.438 0.471689 -1.84052 0
M  V30 5927 H 616.588 2.8028 -2.69027 0
M  V30 5928 H 618.26 0.938516 -4.51652 0
M  V30 5929 H 616.503 0.814501 -4.26085 0
M  V30 5930 H 617.174 2.25024 -5.04052 0
M  V30 5931 H 619.65 2.69926 -3.16669 0
M  V30 5932 H 618.526 3.88706 -3.87555 0
M  V30 5933 H 618.787 3.86933 -2.13859 0
M  V30 5934 N 617.846 1.41785 0.688094 0
M  V30 5935 C 619.095 1.4084 1.44385 0
M  V30 5936 C 619.408 0.0234166 1.95586 0
M  V30 5937 O 620.614 -0.108647 2.71283 0
M  V30 5938 C 619.07 2.47675 2.61123 0
M  V30 5939 C 618.678 3.92116 2.16677 0
M  V30 5940 C 620.422 2.55877 3.38714 0
M  V30 5941 C 618.329 4.90487 3.30419 0
M  V30 5942 H 617.259 0.523787 0.542368 0
M  V30 5943 H 619.91 1.6764 0.74627 0
M  V30 5944 H 618.292 2.14018 3.33185 0
M  V30 5945 H 619.466 4.35059 1.51856 0
M  V30 5946 H 617.781 3.87642 1.5206 0
M  V30 5947 H 620.378 3.26553 4.234 0
M  V30 5948 H 620.721 1.59801 3.84408 0
M  V30 5949 H 621.254 2.88662 2.73714 0
M  V30 5950 H 617.993 5.87994 2.89729 0
M  V30 5951 H 617.513 4.52187 3.94065 0
M  V30 5952 H 619.192 5.11591 3.96085 0
M  V30 5953 N 619.324 -0.923095 1.27737 0
M  V30 5954 C 620.254 -2.04124 1.13383 0
M  V30 5955 C 621.235 -1.70066 0.0340658 0
M  V30 5956 O 622.42 -1.93068 0.209383 0
M  V30 5957 C 619.55 -3.3831 0.785097 0
M  V30 5958 C 618.504 -3.86496 1.8386 0
M  V30 5959 C 617.83 -5.1754 1.34373 0
M  V30 5960 C 619.13 -4.09381 3.24353 0
M  V30 5961 H 620.824 -2.1639 2.06919 0
M  V30 5962 H 618.37 -1.03976 0.996243 0
M  V30 5963 H 620.323 -4.16016 0.671485 0
M  V30 5964 H 619.047 -3.2607 -0.185969 0
M  V30 5965 H 617.706 -3.10987 1.9412 0
M  V30 5966 H 617.354 -5.01696 0.361989 0
M  V30 5967 H 617.054 -5.50751 2.04811 0
M  V30 5968 H 618.578 -5.97811 1.24315 0
M  V30 5969 H 619.992 -4.77641 3.17067 0
M  V30 5970 H 618.389 -4.53906 3.92542 0
M  V30 5971 H 619.459 -3.14515 3.69064 0
M  V30 5972 N 620.802 -1.09834 -1.13024 0
M  V30 5973 C 621.732 -0.763451 -2.20666 0
M  V30 5974 C 622.713 0.260778 -1.68089 0
M  V30 5975 O 623.898 0.127915 -1.93778 0
M  V30 5976 C 621.028 -0.187744 -3.46792 0
M  V30 5977 C 619.982 -1.14196 -4.12484 0
M  V30 5978 C 619.308 -0.427755 -5.32986 0
M  V30 5979 C 620.608 -2.48607 -4.59338 0
M  V30 5980 H 622.302 -1.66347 -2.48936 0
M  V30 5981 H 619.848 -0.801261 -1.19649 0
M  V30 5982 H 621.801 0.0586375 -4.21359 0
M  V30 5983 H 620.525 0.747485 -3.17931 0
M  V30 5984 H 619.184 -1.37369 -3.3989 0
M  V30 5985 H 618.832 0.511747 -5.0039 0
M  V30 5986 H 618.532 -1.06403 -5.77886 0
M  V30 5987 H 620.056 -0.189772 -6.10305 0
M  V30 5988 H 621.47 -2.29618 -5.25308 0
M  V30 5989 H 619.867 -3.08062 -5.14993 0
M  V30 5990 H 620.937 -3.09062 -3.73642 0
M  V30 5991 N 622.28 1.30327 -0.886154 0
M  V30 5992 C 623.528 1.9571 -0.504195 0
M  V30 5993 C 623.849 1.70294 0.950003 0
M  V30 5994 O 623.119 1.02718 1.66811 0
M  V30 5995 H 621.699 0.72412 -0.183465 0
M  V30 5996 H 624.361 1.58835 -1.12949 0
M  V30 5997 H 623.457 3.04704 -0.675431 0
M  V30 5998 N 623.758 0.647228 1.43697 0
M  V30 5999 C 625.007 0.155552 2.01099 0
M  V30 6000 C 625.32 -1.23569 1.51624 0
M  V30 6001 O 626.526 -1.82226 2.01261 0
M  V30 6002 C 624.982 0.227296 3.59182 0
M  V30 6003 C 624.59 1.62086 4.17651 0
M  V30 6004 C 626.334 -0.207085 4.23995 0
M  V30 6005 C 624.241 1.64685 5.68008 0
M  V30 6006 H 623.171 0.0543895 0.752036 0
M  V30 6007 H 625.822 0.808386 1.64734 0
M  V30 6008 H 624.204 -0.492937 3.9292 0
M  V30 6009 H 625.378 2.36597 3.95422 0
M  V30 6010 H 623.693 2.0007 3.65186 0
M  V30 6011 H 626.29 -0.207426 5.34298 0
M  V30 6012 H 626.633 -1.23742 3.97484 0
M  V30 6013 H 627.166 0.461193 3.95118 0
M  V30 6014 H 623.905 2.65608 5.99277 0
M  V30 6015 H 623.425 0.944914 5.9231 0
M  V30 6016 H 625.104 1.38792 6.31938 0
M  V30 6017 N 625.236 -1.5273 0.388769 0
M  V30 6018 C 626.461 -2.0647 -0.19621 0
M  V30 6019 C 626.886 -1.25865 -1.39784 0
M  V30 6020 O 626.244 -0.283562 -1.79069 0
M  V30 6021 C 626.292 -3.56456 -0.5451 0
M  V30 6022 O 625.396 -3.78426 -1.63912 0
M  V30 6023 H 624.737 -0.663599 -0.023067 0
M  V30 6024 H 627.267 -1.96898 0.556084 0
M  V30 6025 H 627.277 -3.99888 -0.809557 0
M  V30 6026 H 625.952 -4.14561 0.333417 0
M  V30 6027 H 624.529 -3.46884 -1.36842 0
M  V30 6028 N 626.714 -0.118576 -1.57153 0
M  V30 6029 C 627.96 0.540326 -1.95469 0
M  V30 6030 C 628.293 1.66356 -1.00196 0
M  V30 6031 O 627.568 1.94461 -0.039104 0
M  V30 6032 C 627.851 1.07342 -3.43729 0
M  V30 6033 C 627.704 -0.0463732 -4.49776 0
M  V30 6034 C 629.023 1.96442 -3.93826 0
M  V30 6035 H 626.142 0.19494 -0.710751 0
M  V30 6036 H 628.784 -0.19405 -1.89006 0
M  V30 6037 H 626.934 1.69925 -3.49368 0
M  V30 6038 H 628.606 -0.681648 -4.56236 0
M  V30 6039 H 626.849 -0.709574 -4.27957 0
M  V30 6040 H 627.52 0.367856 -5.50773 0
M  V30 6041 H 629.996 1.43731 -3.90488 0
M  V30 6042 H 628.872 2.3066 -4.98084 0
M  V30 6043 H 629.133 2.89077 -3.34495 0
M  V30 6044 N 628.193 1.56834 0.155195 0
M  V30 6045 C 629.156 1.96748 1.17571 0
M  V30 6046 C 630.156 0.853006 1.3631 0
M  V30 6047 O 631.346 1.11978 1.33441 0
M  V30 6048 C 628.478 2.27631 2.53765 0
M  V30 6049 H 629.671 2.88085 0.833498 0
M  V30 6050 H 627.224 1.51141 0.398242 0
M  V30 6051 H 627.959 1.39059 2.92973 0
M  V30 6052 H 627.744 3.0888 2.41527 0
M  V30 6053 H 629.234 2.59377 3.27282 0
M  V30 6054 N 629.671 -0.424282 1.51781 0
M  V30 6055 C 630.919 -1.17028 1.64769 0
M  V30 6056 C 631.24 -1.91409 0.372523 0
M  V30 6057 O 630.51 -1.86091 -0.612108 0
M  V30 6058 H 629.09 -0.434992 0.607282 0
M  V30 6059 H 631.752 -0.485169 1.88765 0
M  V30 6060 H 630.848 -1.8927 2.4816 0
M  V30 6061 N 631.149 -1.42148 -0.680565 0
M  V30 6062 C 632.082 -1.39602 -1.80517 0
M  V30 6063 C 633.06 -0.261098 -1.6049 0
M  V30 6064 O 634.244 -0.450404 -1.8304 0
M  V30 6065 C 631.371 -1.18134 -3.1743 0
M  V30 6066 C 630.417 -2.34543 -3.56219 0
M  V30 6067 S 631.25 -3.97063 -3.59306 0
M  V30 6068 C 632.406 -3.77926 -4.98921 0
M  V30 6069 H 632.639 -2.3477 -1.82402 0
M  V30 6070 H 630.172 -1.28851 -0.850691 0
M  V30 6071 H 632.13 -1.06434 -3.96462 0
M  V30 6072 H 630.791 -0.245611 -3.13138 0
M  V30 6073 H 629.984 -2.15255 -4.55721 0
M  V30 6074 H 629.586 -2.42728 -2.84533 0
M  V30 6075 H 631.878 -3.3856 -5.86842 0
M  V30 6076 H 632.821 -4.77084 -5.23256 0
M  V30 6077 H 633.229 -3.10904 -4.71167 0
M  V30 6078 N 632.627 0.916307 -1.28225 0
M  V30 6079 C 633.537 2.05165 -1.13775 0
M  V30 6080 C 634.553 1.73879 -0.0649418 0
M  V30 6081 O 635.729 1.99531 -0.273722 0
M  V30 6082 C 632.794 3.37385 -0.798267 0
M  V30 6083 C 631.855 3.82296 -1.95316 0
M  V30 6084 C 631.088 5.08206 -1.62978 0
M  V30 6085 O 631.311 5.6781 -0.542948 0
M  V30 6086 O 630.245 5.48768 -2.47261 0
M  V30 6087 H 634.071 2.20273 -2.09078 0
M  V30 6088 H 631.656 1.0373 -1.07519 0
M  V30 6089 H 633.538 4.16773 -0.62278 0
M  V30 6090 H 632.213 3.23458 0.125139 0
M  V30 6091 H 631.12 3.03746 -2.18378 0
M  V30 6092 H 632.453 4.00782 -2.85718 0
M  V30 6093 N 634.105 1.10431 1.1244 0
M  V30 6094 C 635.351 0.857864 1.84424 0
M  V30 6095 C 635.706 -0.609995 1.82474 0
M  V30 6096 O 634.999 -1.44401 1.25932 0
M  V30 6097 C 635.193 1.34022 3.3132 0
M  V30 6098 C 635.022 2.85344 3.47576 0
M  V30 6099 C 633.792 3.53345 3.61213 0
M  V30 6100 C 635.99 3.83446 3.42744 0
M  V30 6101 N 633.972 4.92989 3.65834 0
M  V30 6102 C 635.343 5.09101 3.5386 0
M  V30 6103 C 637.398 3.76154 3.26209 0
M  V30 6104 C 636.101 6.28323 3.50146 0
M  V30 6105 C 638.127 4.94876 3.23809 0
M  V30 6106 C 637.489 6.19378 3.35485 0
M  V30 6107 H 633.588 0.366917 0.690577 0
M  V30 6108 H 636.172 1.40668 1.34613 0
M  V30 6109 H 634.343 0.818727 3.79673 0
M  V30 6110 H 636.075 1.03801 3.91162 0
M  V30 6111 H 632.83 3.03791 3.63329 0
M  V30 6112 H 633.254 5.65762 3.71809 0
M  V30 6113 H 637.896 2.80813 3.16076 0
M  V30 6114 H 635.614 7.23953 3.5905 0
M  V30 6115 H 639.2 4.90942 3.12197 0
M  V30 6116 H 638.08 7.09704 3.33602 0
M  V30 6117 N 635.583 -1.29855 0.893053 0
M  V30 6118 C 636.493 -2.31661 0.370157 0
M  V30 6119 C 637.509 -1.65677 -0.531723 0
M  V30 6120 O 638.685 -1.9691 -0.422902 0
M  V30 6121 C 635.75 -3.44388 -0.399741 0
M  V30 6122 C 634.811 -4.2598 0.532861 0
M  V30 6123 C 634.044 -5.33324 -0.200388 0
M  V30 6124 O 634.267 -5.52305 -1.42531 0
M  V30 6125 O 633.201 -6.00188 0.453668 0
M  V30 6126 H 637.027 -2.78354 1.2146 0
M  V30 6127 H 634.612 -1.34171 0.657153 0
M  V30 6128 H 636.494 -4.13037 -0.835358 0
M  V30 6129 H 635.169 -2.99815 -1.22035 0
M  V30 6130 H 634.076 -3.59998 1.01746 0
M  V30 6131 H 635.409 -4.74178 1.3197 0
M  V30 6132 N 637.061 -0.65484 -1.43351 0
M  V30 6133 C 638.024 0.0263562 -2.29185 0
M  V30 6134 C 639.024 0.748951 -1.42293 0
M  V30 6135 O 640.214 0.589957 -1.63906 0
M  V30 6136 C 637.346 1.04806 -3.2439 0
M  V30 6137 H 638.539 -0.728883 -2.90908 0
M  V30 6138 H 636.092 -0.416149 -1.50658 0
M  V30 6139 H 636.827 1.83247 -2.67565 0
M  V30 6140 H 636.612 0.533554 -3.88453 0
M  V30 6141 H 638.102 1.52372 -3.88809 0
M  V30 6142 N 638.539 1.52521 -0.396863 0
M  V30 6143 C 639.486 2.26671 0.434624 0
M  V30 6144 C 640.456 1.28584 1.05144 0
M  V30 6145 O 641.641 1.57426 1.07804 0
M  V30 6146 C 638.781 3.08234 1.55196 0
M  V30 6147 C 637.894 4.21261 0.957262 0
M  V30 6148 C 637.029 4.90205 2.04627 0
M  V30 6149 C 636.068 5.95213 1.42787 0
M  V30 6150 N 635.205 6.57723 2.45651 0
M  V30 6151 H 640.045 2.973 -0.204139 0
M  V30 6152 H 637.582 1.46669 -0.112505 0
M  V30 6153 H 639.54 3.53819 2.2106 0
M  V30 6154 H 638.17 2.398 2.16092 0
M  V30 6155 H 637.222 3.79935 0.188005 0
M  V30 6156 H 638.534 4.96624 0.465416 0
M  V30 6157 H 637.688 5.39133 2.78246 0
M  V30 6158 H 636.427 4.14383 2.57174 0
M  V30 6159 H 635.432 5.45616 0.676968 0
M  V30 6160 H 636.657 6.72972 0.910255 0
M  V30 6161 H 634.603 5.84737 2.97353 0
M  V30 6162 H 634.52 7.28723 2.01243 0
M  V30 6163 H 635.788 7.11293 3.18876 0
M  V30 6164 N 640.017 0.126909 1.57088 0
M  V30 6165 C 640.98 -0.806097 2.14557 0
M  V30 6166 C 641.98 -1.18918 1.08236 0
M  V30 6167 O 643.17 -1.11339 1.33975 0
M  V30 6168 C 640.302 -2.09116 2.69227 0
M  V30 6169 H 641.495 -0.306522 2.98329 0
M  V30 6170 H 639.048 -0.122393 1.5582 0
M  V30 6171 H 639.783 -2.63486 1.89065 0
M  V30 6172 H 639.568 -1.82588 3.46993 0
M  V30 6173 H 641.058 -2.75794 3.13572 0
M  V30 6174 N 641.495 -1.56914 -0.146875 0
M  V30 6175 C 642.427 -1.94878 -1.20645 0
M  V30 6176 C 643.44 -0.844633 -1.39175 0
M  V30 6177 O 644.629 -1.12304 -1.38744 0
M  V30 6178 C 641.729 -2.20769 -2.57127 0
M  V30 6179 C 640.902 -3.52053 -2.59572 0
M  V30 6180 C 639.961 -3.66482 -3.77594 0
M  V30 6181 O 638.987 -4.38873 -3.62462 0
M  V30 6182 N 640.189 -3.03156 -4.95052 0
M  V30 6183 H 642.954 -2.86374 -0.883757 0
M  V30 6184 H 640.515 -1.58366 -0.336436 0
M  V30 6185 H 642.507 -2.27664 -3.34591 0
M  V30 6186 H 641.077 -1.35538 -2.81688 0
M  V30 6187 H 640.297 -3.56598 -1.68023 0
M  V30 6188 H 641.585 -4.38396 -2.58238 0
M  V30 6189 H 640.983 -2.44258 -5.10249 0
M  V30 6190 H 639.54 -3.15611 -5.70292 0
M  V30 6191 N 642.974 0.416227 -1.52004 0
M  V30 6192 C 644.223 1.16088 -1.64944 0
M  V30 6193 C 644.536 1.91835 -0.381928 0
M  V30 6194 O 645.742 2.6867 -0.391013 0
M  V30 6195 C 644.198 2.1124 -2.91386 0
M  V30 6196 C 643.806 1.41042 -4.25219 0
M  V30 6197 C 645.55 2.86008 -3.13688 0
M  V30 6198 C 643.457 2.34801 -5.42791 0
M  V30 6199 H 642.387 0.437041 -0.61442 0
M  V30 6200 H 645.038 0.425971 -1.78487 0
M  V30 6201 H 643.42 2.88254 -2.71525 0
M  V30 6202 H 644.594 0.694416 -4.55538 0
M  V30 6203 H 642.909 0.78344 -4.08964 0
M  V30 6204 H 645.506 3.56286 -3.98703 0
M  V30 6205 H 645.849 3.48556 -2.27628 0
M  V30 6206 H 646.382 2.16095 -3.33988 0
M  V30 6207 H 643.121 1.7691 -6.31176 0
M  V30 6208 H 642.641 3.04395 -5.16821 0
M  V30 6209 H 644.32 2.9548 -5.75587 0
M  V30 6210 N 644.452 1.42507 0.673017 0
M  V30 6211 C 645.698 1.43284 1.43519 0
M  V30 6212 C 646.031 0.049668 1.94136 0
M  V30 6213 O 645.306 -0.926369 1.71022 0
M  V30 6214 C 645.589 2.45874 2.63093 0
M  V30 6215 C 645.442 3.93388 2.18096 0
M  V30 6216 C 646.761 2.45431 3.6531 0
M  V30 6217 H 643.88 0.521752 0.520522 0
M  V30 6218 H 646.522 1.73932 0.764701 0
M  V30 6219 H 644.672 2.19869 3.20296 0
M  V30 6220 H 646.344 4.30379 1.66046 0
M  V30 6221 H 644.587 4.07169 1.49652 0
M  V30 6222 H 645.258 4.60752 3.03993 0
M  V30 6223 H 647.734 2.68561 3.17827 0
M  V30 6224 H 646.61 3.19189 4.46553 0
M  V30 6225 H 646.871 1.48092 4.16559 0
M  V30 6226 N 645.93 -0.909495 1.28709 0
M  V30 6227 C 646.86 -2.0291 1.15542 0
M  V30 6228 C 647.841 -1.7002 0.0521017 0
M  V30 6229 O 649.026 -1.92835 0.229849 0
M  V30 6230 C 646.156 -3.37458 0.820935 0
M  V30 6231 C 645.11 -3.84524 1.87949 0
M  V30 6232 C 644.436 -5.16086 1.39854 0
M  V30 6233 C 645.736 -4.05918 3.28676 0
M  V30 6234 H 647.43 -2.14183 2.09203 0
M  V30 6235 H 644.976 -1.02913 1.00722 0
M  V30 6236 H 646.929 -4.1528 0.715571 0
M  V30 6237 H 645.653 -3.26249 -0.151374 0
M  V30 6238 H 644.312 -3.08911 1.97408 0
M  V30 6239 H 643.96 -5.01284 0.41518 0
M  V30 6240 H 643.66 -5.48547 2.1064 0
M  V30 6241 H 645.184 -5.96459 1.30649 0
M  V30 6242 H 646.598 -4.74252 3.22115 0
M  V30 6243 H 644.995 -4.49717 3.97334 0
M  V30 6244 H 646.065 -3.10583 3.72379 0
M  V30 6245 N 647.408 -1.11026 -1.11852 0
M  V30 6246 C 648.338 -0.786812 -2.19844 0
M  V30 6247 C 649.319 0.242935 -1.68356 0
M  V30 6248 O 650.504 0.107355 -1.93903 0
M  V30 6249 C 647.634 -0.224516 -3.46574 0
M  V30 6250 C 646.588 -1.18564 -4.1125 0
M  V30 6251 C 645.914 -0.484261 -5.32503 0
M  V30 6252 C 647.214 -2.53465 -4.56676 0
M  V30 6253 H 648.908 -1.68978 -2.47158 0
M  V30 6254 H 646.454 -0.813906 -1.18792 0
M  V30 6255 H 648.407 0.0139435 -4.21398 0
M  V30 6256 H 647.131 0.713722 -3.18706 0
M  V30 6257 H 645.79 -1.40966 -3.38414 0
M  V30 6258 H 645.438 0.458646 -5.00905 0
M  V30 6259 H 645.138 -1.12526 -5.76725 0
M  V30 6260 H 646.662 -0.254492 -6.10069 0
M  V30 6261 H 648.076 -2.35177 -5.22843 0
M  V30 6262 H 646.473 -3.13507 -5.11697 0
M  V30 6263 H 647.543 -3.13008 -3.70343 0
M  V30 6264 N 648.886 1.2938 -0.899927 0
M  V30 6265 C 650.132 1.9584 -0.526742 0
M  V30 6266 C 650.465 1.70774 0.924651 0
M  V30 6267 O 649.74 1.02084 1.65557 0
M  V30 6268 C 650.023 3.50638 -0.820062 0
M  V30 6269 C 649.876 3.85161 -2.32317 0
M  V30 6270 C 651.195 4.3903 -0.30671 0
M  V30 6271 H 648.314 0.711322 -0.192848 0
M  V30 6272 H 650.956 1.52992 -1.12665 0
M  V30 6273 H 649.106 3.87265 -0.309491 0
M  V30 6274 H 650.778 3.58477 -2.9033 0
M  V30 6275 H 649.021 3.32696 -2.78381 0
M  V30 6276 H 649.692 4.93204 -2.47898 0
M  V30 6277 H 652.168 4.09396 -0.743908 0
M  V30 6278 H 651.044 5.46226 -0.541144 0
M  V30 6279 H 651.305 4.34937 0.792588 0
M  V30 6280 N 650.364 0.662433 1.43002 0
M  V30 6281 C 651.613 0.176873 2.00923 0
M  V30 6282 C 651.926 -1.21954 1.52927 0
M  V30 6283 O 653.132 -1.80081 2.03182 0
M  V30 6284 C 651.588 0.265379 3.5892 0
M  V30 6285 C 651.196 1.66507 4.15908 0
M  V30 6286 C 652.94 -0.162103 4.2419 0
M  V30 6287 C 650.847 1.707 5.66229 0
M  V30 6288 H 649.777 0.0623627 0.751417 0
M  V30 6289 H 652.428 0.825813 1.63868 0
M  V30 6290 H 650.81 -0.451235 3.93421 0
M  V30 6291 H 651.984 2.40777 3.92891 0
M  V30 6292 H 650.299 2.03932 3.63044 0
M  V30 6293 H 652.896 -0.150745 5.34487 0
M  V30 6294 H 653.239 -1.19519 3.98774 0
M  V30 6295 H 653.772 0.503075 3.94606 0
M  V30 6296 H 650.511 2.7195 5.96426 0
M  V30 6297 H 650.031 1.00768 5.91275 0
M  V30 6298 H 651.71 1.45487 6.3043 0
M  V30 6299 N 651.842 -1.52309 0.404946 0
M  V30 6300 C 652.772 -2.29805 -0.41376 0
M  V30 6301 C 653.753 -1.3384 -1.0498 0
M  V30 6302 O 654.938 -1.62745 -1.05961 0
M  V30 6303 C 652.068 -3.11639 -1.53292 0
M  V30 6304 C 651.022 -4.15616 -1.02211 0
M  V30 6305 C 650.348 -4.8577 -2.23455 0
M  V30 6306 C 651.648 -5.2224 -0.0790725 0
M  V30 6307 H 653.342 -2.98493 0.232878 0
M  V30 6308 H 650.888 -1.43552 0.113441 0
M  V30 6309 H 652.841 -3.64618 -2.11262 0
M  V30 6310 H 651.565 -2.40712 -2.20738 0
M  V30 6311 H 650.224 -3.63641 -0.46484 0
M  V30 6312 H 649.872 -4.11376 -2.89445 0
M  V30 6313 H 649.572 -5.56058 -1.89929 0
M  V30 6314 H 651.096 -5.4156 -2.82038 0
M  V30 6315 H 652.51 -5.70485 -0.567438 0
M  V30 6316 H 650.907 -5.99867 0.167167 0
M  V30 6317 H 651.977 -4.77078 0.867447 0
M  V30 6318 N 653.32 -0.135238 -1.57019 0
M  V30 6319 C 654.25 0.805235 -2.19176 0
M  V30 6320 C 655.231 1.2656 -1.13651 0
M  V30 6321 O 656.416 1.32528 -1.4195 0
M  V30 6322 C 653.546 2.04914 -2.80406 0
M  V30 6323 C 652.5 1.72598 -3.91655 0
M  V30 6324 C 651.826 3.04154 -4.39766 0
M  V30 6325 C 653.126 0.981709 -5.12991 0
M  V30 6326 H 654.82 0.287232 -2.98019 0
M  V30 6327 H 652.366 0.136714 -1.4335 0
M  V30 6328 H 654.319 2.71178 -3.22553 0
M  V30 6329 H 653.043 2.59067 -1.98877 0
M  V30 6330 H 651.702 1.08717 -3.50109 0
M  V30 6331 H 651.35 3.56274 -3.55075 0
M  V30 6332 H 651.05 2.83299 -5.14796 0
M  V30 6333 H 652.574 3.71509 -4.84576 0
M  V30 6334 H 653.988 1.5462 -5.52056 0
M  V30 6335 H 652.385 0.873533 -5.93708 0
M  V30 6336 H 653.455 -0.0286887 -4.84892 0
M  V30 6337 N 654.798 1.5699 0.138552 0
M  V30 6338 C 655.728 2.01933 1.17241 0
M  V30 6339 C 656.709 0.90033 1.44319 0
M  V30 6340 O 657.894 1.16872 1.55095 0
M  V30 6341 C 655.024 2.40711 2.50351 0
M  V30 6342 C 653.978 3.55874 2.37776 0
M  V30 6343 C 653.304 3.80491 3.75674 0
M  V30 6344 C 654.604 4.8826 1.85472 0
M  V30 6345 H 656.298 2.88551 0.798672 0
M  V30 6346 H 653.844 1.3882 0.382743 0
M  V30 6347 H 655.797 2.70754 3.22909 0
M  V30 6348 H 654.521 1.5104 2.89576 0
M  V30 6349 H 653.18 3.2601 1.67669 0
M  V30 6350 H 652.828 2.88057 4.12349 0
M  V30 6351 H 652.528 4.57998 3.68119 0
M  V30 6352 H 654.052 4.12967 4.49767 0
M  V30 6353 H 655.466 5.16965 2.4783 0
M  V30 6354 H 653.863 5.69631 1.88787 0
M  V30 6355 H 654.933 4.78071 0.810935 0
M  V30 6356 N 656.276 -0.40816 1.52223 0
M  V30 6357 C 657.239 -1.48 1.7501 0
M  V30 6358 C 658.239 -1.48367 0.619996 0
M  V30 6359 O 659.429 -1.49874 0.887881 0
M  V30 6360 C 656.561 -2.87403 1.83336 0
M  V30 6361 H 657.754 -1.29086 2.70697 0
M  V30 6362 H 655.307 -0.638715 1.42654 0
M  V30 6363 H 656.042 -3.11686 0.895677 0
M  V30 6364 H 655.827 -2.8854 2.65494 0
M  V30 6365 H 657.317 -3.65103 2.02705 0
M  V30 6366 N 657.755 -1.42862 -0.66545 0
M  V30 6367 C 659.004 -1.43119 -1.42126 0
M  V30 6368 C 659.317 -0.0545297 -1.95524 0
M  V30 6369 O 660.523 0.0654747 -2.71421 0
M  V30 6370 C 658.979 -2.51797 -2.5715 0
M  V30 6371 C 658.587 -3.95514 -2.10411 0
M  V30 6372 C 660.331 -2.61233 -3.346 0
M  V30 6373 C 658.238 -4.95682 -3.22573 0
M  V30 6374 H 657.168 -0.532349 -0.533966 0
M  V30 6375 H 659.819 -1.68806 -0.719506 0
M  V30 6376 H 658.201 -2.19292 -3.29738 0
M  V30 6377 H 659.375 -4.3742 -1.44915 0
M  V30 6378 H 657.69 -3.90012 -1.45874 0
M  V30 6379 H 660.287 -3.33248 -4.18151 0
M  V30 6380 H 660.63 -1.65896 -3.81817 0
M  V30 6381 H 661.163 -2.9298 -2.69087 0
M  V30 6382 H 657.902 -5.92529 -2.80338 0
M  V30 6383 H 657.422 -4.58399 -3.86821 0
M  V30 6384 H 659.101 -5.17828 -3.87896 0
M  V30 6385 N 659.233 0.902656 -1.29189 0
M  V30 6386 C 660.481 1.6496 -1.16758 0
M  V30 6387 C 660.802 1.92952 0.28188 0
M  V30 6388 O 660.072 1.55351 1.19344 0
M  V30 6389 H 658.652 0.611447 -0.429118 0
M  V30 6390 H 661.314 1.0825 -1.62074 0
M  V30 6391 H 660.41 2.60728 -1.71544 0
M  V30 6392 N 660.711 1.11618 1.11262 0
M  V30 6393 C 661.988 0.777876 1.79467 0
M  V30 6394 C 662.368 -0.733774 1.97937 0
M  V30 6395 O 661.716 -1.66443 1.56554 0
M  V30 6396 C 661.926 1.5431 3.13032 0
M  V30 6397 C 663.274 1.72357 3.88044 0
M  V30 6398 O 664.298 1.5075 3.22727 0
M  V30 6399 O 663.157 2.08276 5.05256 0
M  V30 6400 H 660.251 0.282018 0.777428 0
M  V30 6401 H 662.797 1.21971 1.17988 0
M  V30 6402 H 661.569 2.57132 2.94956 0
M  V30 6403 H 661.192 1.09495 3.82226 0
M  V30 6404 N 662.189 -1.289 0.906776 0
M  V30 6405 C 663.436 -1.95269 0.536326 0
M  V30 6406 C 663.764 -1.71435 -0.918711 0
M  V30 6407 O 663.019 -1.02431 -1.66752 0
M  V30 6408 C 663.318 -3.48704 0.783617 0
M  V30 6409 C 662.984 -3.92626 2.21711 0
M  V30 6410 C 661.646 -4.04329 2.60906 0
M  V30 6411 C 663.998 -4.15218 3.15029 0
M  V30 6412 C 661.326 -4.35998 3.92584 0
M  V30 6413 C 663.678 -4.48365 4.46264 0
M  V30 6414 C 662.342 -4.58278 4.85322 0
M  V30 6415 H 661.612 -0.714538 0.196256 0
M  V30 6416 H 664.259 -1.53366 1.14678 0
M  V30 6417 H 662.564 -3.91696 0.0903048 0
M  V30 6418 H 664.261 -3.98162 0.476267 0
M  V30 6419 H 660.851 -3.84038 1.90296 0
M  V30 6420 H 665.035 -4.05636 2.8596 0
M  V30 6421 H 660.291 -4.41878 4.22557 0
M  V30 6422 H 664.465 -4.64795 5.18593 0
M  V30 6423 H 662.092 -4.82573 5.87391 0
M  V30 6424 N 663.667 -0.670007 -1.42649 0
M  V30 6425 C 664.913 -0.190568 -2.01903 0
M  V30 6426 C 665.246 1.19817 -1.52832 0
M  V30 6427 O 664.521 1.80342 -0.728485 0
M  V30 6428 C 664.804 -0.21991 -3.59428 0
M  V30 6429 C 664.657 -1.64376 -4.18689 0
M  V30 6430 C 665.976 0.434519 -4.3795 0
M  V30 6431 H 663.095 -0.0707219 -0.733599 0
M  V30 6432 H 665.737 -0.853883 -1.69732 0
M  V30 6433 H 663.887 0.344894 -3.86966 0
M  V30 6434 H 665.559 -2.26044 -4.02122 0
M  V30 6435 H 663.802 -2.18591 -3.747 0
M  V30 6436 H 664.473 -1.61601 -5.27815 0
M  V30 6437 H 666.949 -0.0462156 -4.16074 0
M  V30 6438 H 665.825 0.38333 -5.4756 0
M  V30 6439 H 666.086 1.51135 -4.15464 0
M  V30 6440 N 665.145 1.52092 -0.413018 0
M  V30 6441 C 666.394 2.01041 0.16287 0
M  V30 6442 C 666.707 1.30288 1.45892 0
M  V30 6443 O 667.913 1.70075 2.11629 0
M  V30 6444 C 666.369 3.58283 0.340806 0
M  V30 6445 C 665.977 4.37955 -0.943377 0
M  V30 6446 C 667.721 4.15452 0.871774 0
M  V30 6447 C 665.628 5.86847 -0.732417 0
M  V30 6448 H 664.558 0.751224 0.0646414 0
M  V30 6449 H 667.209 1.75404 -0.539059 0
M  V30 6450 H 665.591 3.80266 1.10516 0
M  V30 6451 H 666.765 4.2773 -1.71418 0
M  V30 6452 H 665.08 3.92122 -1.40105 0
M  V30 6453 H 667.677 5.24375 1.0457 0
M  V30 6454 H 668.02 3.73057 1.84755 0
M  V30 6455 H 668.553 3.97452 0.166377 0
M  V30 6456 H 665.292 6.33609 -1.67986 0
M  V30 6457 H 664.812 5.998 -0.000980058 0
M  V30 6458 H 666.491 6.45906 -0.376105 0
M  V30 6459 N 666.623 0.143563 1.56945 0
M  V30 6460 C 667.871 -0.507402 1.95627 0
M  V30 6461 C 668.192 -1.65626 1.02922 0
M  V30 6462 O 667.462 -1.95693 0.0901136 0
M  V30 6463 H 666.042 -0.190436 0.722318 0
M  V30 6464 H 668.704 0.218257 1.93674 0
M  V30 6465 H 667.8 -0.885816 2.99265 0
M  V30 6466 N 668.101 -1.57061 -0.130224 0
M  V30 6467 C 669.329 -1.88432 -0.854456 0
M  V30 6468 C 669.744 -0.733608 -1.73964 0
M  V30 6469 O 669.101 0.296029 -1.80083 0
M  V30 6470 C 669.152 -3.1918 -1.69724 0
M  V30 6471 O 668.873 -4.2982 -0.847705 0
M  V30 6472 C 670.374 -3.6418 -2.5276 0
M  V30 6473 H 667.594 -0.624193 -0.246221 0
M  V30 6474 H 670.138 -2.04159 -0.11798 0
M  V30 6475 H 668.293 -3.05156 -2.3866 0
M  V30 6476 H 668.707 -5.04689 -1.42792 0
M  V30 6477 H 670.181 -4.58457 -3.07443 0
M  V30 6478 H 670.658 -2.90285 -3.29592 0
M  V30 6479 H 671.264 -3.80954 -1.89087 0
M  V30 6480 N 669.579 0.400081 -1.52437 0
M  V30 6481 C 670.826 1.14619 -1.6694 0
M  V30 6482 C 671.154 1.90262 -0.403797 0
M  V30 6483 O 670.409 1.85835 0.61351 0
M  V30 6484 C 670.708 2.15914 -2.84808 0
M  V30 6485 C 670.374 1.57011 -4.2268 0
M  V30 6486 C 669.036 1.40672 -4.60179 0
M  V30 6487 C 671.388 1.14081 -5.08562 0
M  V30 6488 C 668.716 0.799335 -5.81229 0
M  V30 6489 C 671.068 0.547573 -6.30226 0
M  V30 6490 C 669.732 0.371389 -6.66466 0
M  V30 6491 H 669.002 0.419419 -0.610875 0
M  V30 6492 H 671.649 0.432227 -1.86558 0
M  V30 6493 H 669.954 2.93488 -2.59561 0
M  V30 6494 H 671.651 2.73533 -2.93225 0
M  V30 6495 H 668.241 1.70713 -3.93135 0
M  V30 6496 H 672.425 1.2551 -4.80168 0
M  V30 6497 H 667.681 0.65093 -6.07925 0
M  V30 6498 H 671.855 0.206575 -6.96094 0
M  V30 6499 H 669.482 -0.10135 -7.60132 0
M  V30 6500 N 671.057 1.43213 0.657864 0
M  V30 6501 C 672.306 1.43871 1.41365 0
M  V30 6502 C 672.619 0.064898 1.95492 0
M  V30 6503 O 673.825 -0.0510796 2.71452 0
M  V30 6504 C 672.281 2.53158 2.55811 0
M  V30 6505 C 671.889 3.96624 2.08311 0
M  V30 6506 C 673.633 2.63004 3.3321 0
M  V30 6507 C 671.54 4.97385 3.1994 0
M  V30 6508 H 670.47 0.535174 0.531136 0
M  V30 6509 H 673.121 1.69185 0.710543 0
M  V30 6510 H 671.503 2.21037 3.2857 0
M  V30 6511 H 672.677 4.38182 1.42593 0
M  V30 6512 H 670.992 3.90781 1.43804 0
M  V30 6513 H 673.589 3.3546 4.16378 0
M  V30 6514 H 673.932 1.67918 3.80932 0
M  V30 6515 H 674.465 2.94403 2.67529 0
M  V30 6516 H 671.204 5.94007 2.77192 0
M  V30 6517 H 670.724 4.60444 3.84385 0
M  V30 6518 H 672.403 5.19877 3.85145 0
M  V30 6519 N 672.536 -0.895792 1.29666 0
M  V30 6520 C 673.947 -1.46195 1.1612 0
M  V30 6521 C 674.298 -1.94699 -0.242195 0
M  V30 6522 O 673.423 -1.8406 -1.13802 0
M  V30 6523 C 674.018 -2.65718 2.10189 0
M  V30 6524 C 672.577 -3.18458 2.00653 0
M  V30 6525 C 671.724 -1.91149 2.00891 0
M  V30 6526 H 674.675 -0.706756 1.42094 0
M  V30 6527 H 674.696 -3.4158 1.6764 0
M  V30 6528 H 674.208 -2.30386 3.12321 0
M  V30 6529 H 672.309 -3.58474 1.01623 0
M  V30 6530 H 672.422 -3.82491 2.88509 0
M  V30 6531 H 670.786 -2.09021 1.45542 0
M  V30 6532 H 671.569 -1.58089 3.04734 0
M  V30 6533 N 674.014 -1.12206 -1.10668 0
M  V30 6534 C 674.944 -0.810086 -2.18997 0
M  V30 6535 C 675.925 0.225065 -1.68604 0
M  V30 6536 O 677.11 0.086783 -1.94006 0
M  V30 6537 C 674.24 -0.261262 -3.46316 0
M  V30 6538 C 673.194 -1.2292 -4.09969 0
M  V30 6539 C 672.52 -0.540713 -5.31959 0
M  V30 6540 C 673.82 -2.58295 -4.53962 0
M  V30 6541 H 675.514 -1.7159 -2.45352 0
M  V30 6542 H 673.06 -0.82646 -1.17922 0
M  V30 6543 H 675.013 -0.0307522 -4.21389 0
M  V30 6544 H 673.737 0.679879 -3.19445 0
M  V30 6545 H 672.396 -1.44548 -3.369 0
M  V30 6546 H 672.044 0.405492 -5.01363 0
M  V30 6547 H 671.744 -1.18637 -5.75499 0
M  V30 6548 H 673.268 -0.319184 -6.09765 0
M  V30 6549 H 674.682 -2.40709 -5.20319 0
M  V30 6550 H 673.079 -3.18916 -5.08343 0
M  V30 6551 H 674.149 -3.16918 -3.67002 0
M  V30 6552 N 675.492 1.28418 -0.913599 0
M  V30 6553 C 676.402 2.31043 -0.406965 0
M  V30 6554 C 677.418 1.66501 0.505298 0
M  V30 6555 O 678.594 1.97558 0.391522 0
M  V30 6556 C 675.659 3.4498 0.344901 0
M  V30 6557 C 674.72 4.25078 -0.600563 0
M  V30 6558 C 673.953 5.33575 0.115516 0
M  V30 6559 O 674.176 5.54503 1.33727 0
M  V30 6560 O 673.11 5.9939 -0.549095 0
M  V30 6561 H 676.936 2.76387 -1.25873 0
M  V30 6562 H 674.521 1.33109 -0.678415 0
M  V30 6563 H 676.403 4.14314 0.769542 0
M  V30 6564 H 675.078 3.01719 1.1725 0
M  V30 6565 H 673.985 3.58334 -1.0746 0
M  V30 6566 H 675.318 4.72018 -1.39497 0
M  V30 6567 N 676.97 0.677563 1.42291 0
M  V30 6568 C 678.195 0.207901 2.06355 0
M  V30 6569 C 678.62 -1.12723 1.50583 0
M  V30 6570 O 677.978 -1.70171 0.62543 0
M  V30 6571 C 678.026 0.156489 3.6026 0
M  V30 6572 O 677.13 -0.874162 4.03029 0
M  V30 6573 H 676.471 0.106056 0.655475 0
M  V30 6574 H 679.001 0.927354 1.82377 0
M  V30 6575 H 679.011 -0.0187258 4.07996 0
M  V30 6576 H 677.686 1.13101 4.00226 0
M  V30 6577 H 676.263 -0.669764 3.66836 0
M  V30 6578 N 678.448 -1.51871 0.421078 0
M  V30 6579 C 679.395 -2.27334 -0.398508 0
M  V30 6580 C 680.365 -1.30241 -1.03085 0
M  V30 6581 O 681.55 -1.59121 -1.05285 0
M  V30 6582 C 678.69 -3.10664 -1.50272 0
M  V30 6583 C 677.803 -4.2273 -0.890122 0
M  V30 6584 C 676.938 -4.93399 -1.96803 0
M  V30 6585 C 675.977 -5.97409 -1.333 0
M  V30 6586 N 675.114 -6.61548 -2.35156 0
M  V30 6587 H 679.954 -2.96938 0.251411 0
M  V30 6588 H 677.491 -1.46472 0.135825 0
M  V30 6589 H 679.449 -3.57292 -2.15403 0
M  V30 6590 H 678.079 -2.43207 -2.1225 0
M  V30 6591 H 677.131 -3.80186 -0.127537 0
M  V30 6592 H 678.443 -4.97302 -0.386349 0
M  V30 6593 H 677.597 -5.43491 -2.69633 0
M  V30 6594 H 676.336 -4.18421 -2.50549 0
M  V30 6595 H 675.341 -5.46624 -0.59008 0
M  V30 6596 H 676.566 -6.74335 -0.803076 0
M  V30 6597 H 674.512 -5.89394 -2.88012 0
M  V30 6598 H 674.429 -7.31832 -1.89624 0
M  V30 6599 H 675.697 -7.16276 -3.0752 0
M  V30 6600 N 679.926 -0.151884 -1.56866 0
M  V30 6601 C 680.873 0.785936 -2.17006 0
M  V30 6602 C 681.843 1.2407 -1.10435 0
M  V30 6603 O 683.028 1.31235 -1.38499 0
M  V30 6604 C 680.168 2.01771 -2.79969 0
M  V30 6605 C 679.281 1.6083 -4.00946 0
M  V30 6606 C 678.416 2.79224 -4.51893 0
M  V30 6607 C 677.455 2.3468 -5.65324 0
M  V30 6608 N 676.592 3.461 -6.10867 0
M  V30 6609 H 681.432 0.266286 -2.96808 0
M  V30 6610 H 678.969 0.11972 -1.46612 0
M  V30 6611 H 680.927 2.73989 -3.14621 0
M  V30 6612 H 679.557 2.51139 -2.02803 0
M  V30 6613 H 678.609 0.783592 -3.72242 0
M  V30 6614 H 679.921 1.24119 -4.83111 0
M  V30 6615 H 679.075 3.59625 -4.88625 0
M  V30 6616 H 677.814 3.19183 -3.68746 0
M  V30 6617 H 676.819 1.52721 -5.28163 0
M  V30 6618 H 678.044 1.95801 -6.5026 0
M  V30 6619 H 675.99 3.85671 -5.30654 0
M  V30 6620 H 675.907 3.1342 -6.87971 0
M  V30 6621 H 677.175 4.26844 -6.52246 0
M  V30 6622 N 681.404 1.57128 0.121893 0
M  V30 6623 C 682.815 1.73902 0.679348 0
M  V30 6624 C 683.166 0.770135 1.80453 0
M  V30 6625 O 682.291 -0.0576083 2.16323 0
M  V30 6626 C 682.886 3.15328 1.2391 0
M  V30 6627 C 681.445 3.33618 1.74288 0
M  V30 6628 C 680.592 2.6978 0.641414 0
M  V30 6629 H 683.543 1.58359 -0.104 0
M  V30 6630 H 683.564 3.16718 2.10879 0
M  V30 6631 H 683.076 3.85821 0.419957 0
M  V30 6632 H 681.177 2.68162 2.58689 0
M  V30 6633 H 681.29 4.4176 1.85432 0
M  V30 6634 H 679.654 2.30935 1.0743 0
M  V30 6635 H 680.437 3.42895 -0.166707 0
M  V30 6636 N 682.882 -0.391992 1.52647 0
M  V30 6637 C 683.829 -1.47866 1.77213 0
M  V30 6638 C 684.799 -1.54286 0.615223 0
M  V30 6639 O 685.984 -1.7059 0.854622 0
M  V30 6640 C 683.124 -2.85129 1.94411 0
M  V30 6641 C 682.237 -2.87883 3.22098 0
M  V30 6642 C 681.372 -4.16553 3.29631 0
M  V30 6643 C 680.411 -4.13348 4.51453 0
M  V30 6644 N 679.548 -5.33619 4.56284 0
M  V30 6645 H 684.388 -1.26219 2.6995 0
M  V30 6646 H 681.925 -0.612367 1.33748 0
M  V30 6647 H 683.883 -3.64833 2.02367 0
M  V30 6648 H 682.513 -3.05232 1.05038 0
M  V30 6649 H 681.565 -2.00567 3.23229 0
M  V30 6650 H 682.877 -2.81382 4.11856 0
M  V30 6651 H 682.031 -5.0466 3.36753 0
M  V30 6652 H 680.77 -4.25773 2.37842 0
M  V30 6653 H 679.775 -3.23629 4.44459 0
M  V30 6654 H 681 -4.05754 5.44555 0
M  V30 6655 H 678.946 -5.43474 3.67385 0
M  V30 6656 H 678.863 -5.29182 5.3991 0
M  V30 6657 H 680.131 -6.23632 4.67657 0
M  V30 6658 N 684.36 -1.4356 -0.65026 0
M  V30 6659 C 685.608 -1.45046 -1.40734 0
M  V30 6660 C 685.929 -0.0769822 -1.94848 0
M  V30 6661 O 685.199 0.888098 -1.74613 0
M  V30 6662 H 683.779 -0.534034 -0.522318 0
M  V30 6663 H 686.441 -1.79186 -0.766703 0
M  V30 6664 H 685.537 -2.16476 -2.24822 0
M  V30 6665 N 685.838 0.888903 -1.30139 0
M  V30 6666 C 687.085 1.64037 -1.18736 0
M  V30 6667 C 687.413 1.92771 0.258801 0
M  V30 6668 O 686.668 1.54427 1.20212 0
M  V30 6669 C 686.967 2.99041 -1.95728 0
M  V30 6670 C 686.633 2.89874 -3.45375 0
M  V30 6671 C 685.295 2.87082 -3.86183 0
M  V30 6672 C 687.647 2.78289 -4.40687 0
M  V30 6673 C 684.975 2.70536 -5.20603 0
M  V30 6674 C 687.327 2.63282 -5.75209 0
M  V30 6675 C 685.991 2.58861 -6.15262 0
M  V30 6676 H 685.261 0.600253 -0.434485 0
M  V30 6677 H 687.908 1.0338 -1.61198 0
M  V30 6678 H 686.213 3.63626 -1.45888 0
M  V30 6679 H 687.91 3.56139 -1.843 0
M  V30 6680 H 684.5 2.92856 -3.12943 0
M  V30 6681 H 688.684 2.79516 -4.10103 0
M  V30 6682 H 683.94 2.65526 -5.50732 0
M  V30 6683 H 688.114 2.5329 -6.48704 0
M  V30 6684 H 685.741 2.45799 -7.19366 0
M  V30 6685 N 687.317 1.12792 1.10072 0
M  V30 6686 C 688.564 0.885545 1.82111 0
M  V30 6687 C 688.892 -0.588519 1.85383 0
M  V30 6688 O 688.147 -1.45124 1.31292 0
M  V30 6689 C 688.446 1.4102 3.28403 0
M  V30 6690 C 688.112 2.89995 3.45273 0
M  V30 6691 C 686.774 3.30671 3.49585 0
M  V30 6692 C 689.126 3.85874 3.50358 0
M  V30 6693 C 686.454 4.65925 3.56553 0
M  V30 6694 C 688.806 5.20963 3.58859 0
M  V30 6695 C 687.47 5.61177 3.61437 0
M  V30 6696 H 686.74 0.324044 0.666391 0
M  V30 6697 H 689.387 1.40874 1.29718 0
M  V30 6698 H 687.692 0.807551 3.83387 0
M  V30 6699 H 689.389 1.19882 3.82661 0
M  V30 6700 H 685.979 2.57537 3.42597 0
M  V30 6701 H 690.163 3.5554 3.46273 0
M  V30 6702 H 685.419 4.96468 3.56833 0
M  V30 6703 H 689.593 5.95079 3.61738 0
M  V30 6704 H 687.22 6.6597 3.66589 0
M  V30 6705 N 688.795 -1.27931 0.920396 0
M  V30 6706 C 690.043 -1.94304 0.555906 0
M  V30 6707 C 690.364 -1.72753 -0.904519 0
M  V30 6708 O 689.634 -1.07104 -1.64029 0
M  V30 6709 H 688.214 -0.719001 0.202599 0
M  V30 6710 H 690.876 -1.55785 1.1712 0
M  V30 6711 H 689.972 -3.02806 0.755981 0
M  V30 6712 N 690.273 -0.685099 -1.4193 0
M  V30 6713 C 691.503 -0.220052 -2.05425 0
M  V30 6714 C 691.911 1.13185 -1.51611 0
M  V30 6715 O 691.254 1.71631 -0.654875 0
M  V30 6716 C 691.316 -0.0888364 -3.5939 0
M  V30 6717 C 690.98 -1.37109 -4.35947 0
M  V30 6718 C 691.977 -2.30675 -4.65924 0
M  V30 6719 C 689.662 -1.62155 -4.75406 0
M  V30 6720 C 691.656 -3.47556 -5.34306 0
M  V30 6721 C 689.343 -2.79324 -5.43527 0
M  V30 6722 C 690.341 -3.71848 -5.72903 0
M  V30 6723 O 690.029 -4.86966 -6.39624 0
M  V30 6724 H 689.761 -0.102165 -0.668235 0
M  V30 6725 H 692.315 -0.935194 -1.82875 0
M  V30 6726 H 690.545 0.681981 -3.80639 0
M  V30 6727 H 692.234 0.337669 -4.04493 0
M  V30 6728 H 693 -2.12579 -4.3593 0
M  V30 6729 H 688.879 -0.910053 -4.51928 0
M  V30 6730 H 692.423 -4.19794 -5.57153 0
M  V30 6731 H 688.32 -2.97342 -5.72938 0
M  V30 6732 H 689.088 -4.86644 -6.58118 0
M  V30 6733 N 691.751 1.51645 -0.429126 0
M  V30 6734 C 692.698 2.27542 0.386446 0
M  V30 6735 C 693.668 1.30786 1.02393 0
M  V30 6736 O 694.853 1.59678 1.0444 0
M  V30 6737 C 691.993 3.11457 1.48623 0
M  V30 6738 C 691.106 4.23196 0.867691 0
M  V30 6739 C 690.241 4.94435 1.94183 0
M  V30 6740 C 689.28 5.98108 1.30129 0
M  V30 6741 N 688.417 6.62786 2.31644 0
M  V30 6742 H 693.257 2.968 -0.267155 0
M  V30 6743 H 690.794 1.46397 -0.143591 0
M  V30 6744 H 692.752 3.58429 2.13506 0
M  V30 6745 H 691.382 2.44329 2.10957 0
M  V30 6746 H 690.434 3.80248 0.107373 0
M  V30 6747 H 691.746 4.97499 0.35997 0
M  V30 6748 H 690.9 5.44914 2.66747 0
M  V30 6749 H 689.639 4.19744 2.48326 0
M  V30 6750 H 688.644 5.4693 0.561082 0
M  V30 6751 H 689.869 6.74751 0.767303 0
M  V30 6752 H 687.815 5.90913 2.84883 0
M  V30 6753 H 687.732 7.32828 1.85741 0
M  V30 6754 H 689 7.17897 3.03717 0
M  V30 6755 N 693.229 0.160201 1.56784 0
M  V30 6756 C 694.454 -0.497373 2.01348 0
M  V30 6757 C 694.879 -1.56757 1.03966 0
M  V30 6758 O 694.237 -1.81292 0.0174455 0
M  V30 6759 C 694.285 -1.0628 3.44582 0
M  V30 6760 O 693.389 -2.17723 3.50244 0
M  V30 6761 H 692.73 -0.120295 0.653012 0
M  V30 6762 H 695.26 0.260821 2.02931 0
M  V30 6763 H 695.27 -1.38819 3.83658 0
M  V30 6764 H 693.945 -0.279166 4.14962 0
M  V30 6765 H 692.522 -1.86313 3.2302 0
M  V30 6766 N 694.707 -1.5719 -0.113559 0
M  V30 6767 C 695.617 -2.04041 -1.15777 0
M  V30 6768 C 696.633 -0.961812 -1.45001 0
M  V30 6769 O 697.809 -1.2737 -1.56009 0
M  V30 6770 C 694.874 -2.43994 -2.46308 0
M  V30 6771 C 693.935 -3.65962 -2.24433 0
M  V30 6772 C 693.168 -4.04 -3.4874 0
M  V30 6773 O 693.391 -3.42321 -4.56259 0
M  V30 6774 O 692.325 -4.97069 -3.3942 0
M  V30 6775 H 696.151 -2.93248 -0.789899 0
M  V30 6776 H 693.736 -1.45828 -0.324748 0
M  V30 6777 H 695.618 -2.70401 -3.23204 0
M  V30 6778 H 694.293 -1.57932 -2.82558 0
M  V30 6779 H 693.2 -3.44697 -1.45377 0
M  V30 6780 H 694.533 -4.52746 -1.93084 0
M  V30 6781 N 696.185 0.383891 -1.52853 0
M  V30 6782 C 697.434 1.12563 -1.67369 0
M  V30 6783 C 697.747 1.90982 -0.422533 0
M  V30 6784 O 698.953 2.6778 -0.447914 0
M  V30 6785 C 697.409 2.05011 -2.95801 0
M  V30 6786 C 697.017 1.31991 -4.28115 0
M  V30 6787 C 698.761 2.79289 -3.19684 0
M  V30 6788 C 696.668 2.23235 -5.4765 0
M  V30 6789 H 695.598 0.42391 -0.623552 0
M  V30 6790 H 698.249 0.388016 -1.79351 0
M  V30 6791 H 696.631 2.82429 -2.77578 0
M  V30 6792 H 697.805 0.597633 -4.56908 0
M  V30 6793 H 696.12 0.696517 -4.10533 0
M  V30 6794 H 698.717 3.47749 -4.06171 0
M  V30 6795 H 699.06 3.43649 -2.3497 0
M  V30 6796 H 699.593 2.08962 -3.38496 0
M  V30 6797 H 696.332 1.63482 -6.34786 0
M  V30 6798 H 695.852 2.93364 -5.23161 0
M  V30 6799 H 697.531 2.83205 -5.81725 0
M  V30 6800 N 697.663 1.43903 0.642637 0
M  V30 6801 C 698.91 1.46079 1.40239 0
M  V30 6802 C 699.238 0.0890335 1.94296 0
M  V30 6803 O 698.493 -0.907533 1.73385 0
M  V30 6804 C 698.792 2.45907 2.59354 0
M  V30 6805 C 698.458 3.91522 2.23654 0
M  V30 6806 C 697.12 4.31179 2.1363 0
M  V30 6807 C 699.472 4.83242 1.95261 0
M  V30 6808 C 696.8 5.60495 1.73384 0
M  V30 6809 C 699.152 6.12933 1.56511 0
M  V30 6810 C 697.816 6.51556 1.4502 0
M  V30 6811 H 697.086 0.534542 0.513172 0
M  V30 6812 H 699.733 1.77047 0.72984 0
M  V30 6813 H 698.038 2.08381 3.3179 0
M  V30 6814 H 699.735 2.44842 3.17574 0
M  V30 6815 H 696.325 3.60142 2.32369 0
M  V30 6816 H 700.509 4.53367 2.0192 0
M  V30 6817 H 695.765 5.89249 1.63082 0
M  V30 6818 H 699.939 6.83469 1.33576 0
M  V30 6819 H 697.566 7.51663 1.13606 0
M  V30 6820 N 699.141 -0.881989 1.30609 0
M  V30 6821 C 700.089 -2.00942 1.17155 0
M  V30 6822 C 701.083 -1.69198 0.0827154 0
M  V30 6823 O 702.289 -1.78342 0.243775 0
M  V30 6824 H 698.664 -0.658913 0.362406 0
M  V30 6825 H 700.635 -2.09423 2.12567 0
M  V30 6826 C 699.384 -3.36294 0.883273 0
M  V30 6827 H 698.707 -3.61233 1.7132 0
M  V30 6828 H 700.147 -4.15812 0.829255 0
M  V30 6829 C 698.606 -3.34348 -0.413851 0
M  V30 6830 O 699.136 -3.75216 -1.43444 0
M  V30 6831 N 697.342 -2.87459 -0.426082 0
M  V30 6832 H 696.889 -2.54397 0.40493 0
M  V30 6833 H 696.847 -2.8654 -1.29391 0
M  V30 6834 N 700.619 -1.13374 -1.09472 0
M  V30 6835 C 701.529 -0.824029 -2.19652 0
M  V30 6836 C 702.545 0.19118 -1.72947 0
M  V30 6837 O 703.721 0.0223464 -2.01388 0
M  V30 6838 C 700.786 -0.294009 -3.45451 0
M  V30 6839 C 699.847 -1.3704 -4.0684 0
M  V30 6840 C 699.08 -0.86558 -5.26634 0
M  V30 6841 O 699.303 0.29702 -5.69626 0
M  V30 6842 O 698.237 -1.63968 -5.79136 0
M  V30 6843 H 702.063 -1.74454 -2.48595 0
M  V30 6844 H 699.648 -0.911155 -1.18399 0
M  V30 6845 H 701.53 -0.00381039 -4.214 0
M  V30 6846 H 700.205 0.598921 -3.18111 0
M  V30 6847 H 699.112 -1.71391 -3.3253 0
M  V30 6848 H 700.445 -2.23746 -4.38405 0
M  V30 6849 N 702.098 1.27442 -0.927168 0
M  V30 6850 C 703.046 2.28844 -0.416333 0
M  V30 6851 C 704.04 1.61882 0.499057 0
M  V30 6852 O 705.246 1.75969 0.378817 0
M  V30 6853 H 701.621 0.742989 -0.116065 0
M  V30 6854 H 703.592 2.69344 -1.28438 0
M  V30 6855 C 702.341 3.4626 0.316107 0
M  V30 6856 H 701.664 3.97999 -0.379082 0
M  V30 6857 H 703.104 4.19173 0.637975 0
M  V30 6858 C 701.563 3.00211 1.5289 0
M  V30 6859 O 702.093 3.03837 2.62766 0
M  V30 6860 N 700.299 2.55713 1.38054 0
M  V30 6861 H 699.846 2.52962 0.4866 0
M  V30 6862 H 699.804 2.25264 2.19325 0
M  V30 6863 N 703.576 0.692616 1.41565 0
M  V30 6864 C 704.823 0.222335 2.01276 0
M  V30 6865 C 705.151 -1.17706 1.5484 0
M  V30 6866 O 704.406 -1.80795 0.749118 0
M  V30 6867 C 704.705 0.225073 3.56691 0
M  V30 6868 C 704.371 1.57158 4.22625 0
M  V30 6869 C 703.033 1.94022 4.40351 0
M  V30 6870 C 705.385 2.45758 4.59622 0
M  V30 6871 C 702.713 3.19076 4.92349 0
M  V30 6872 C 705.065 3.70141 5.13009 0
M  V30 6873 C 703.729 4.07152 5.28946 0
M  V30 6874 H 702.999 0.0813581 0.73652 0
M  V30 6875 H 705.646 0.891123 1.69503 0
M  V30 6876 H 703.951 -0.527259 3.88236 0
M  V30 6877 H 705.648 -0.156283 4.00695 0
M  V30 6878 H 702.238 1.27486 4.09201 0
M  V30 6879 H 706.422 2.18558 4.45585 0
M  V30 6880 H 701.678 3.4775 5.02872 0
M  V30 6881 H 705.852 4.38983 5.40617 0
M  V30 6882 H 703.479 5.04125 5.69001 0
M  V30 6883 N 705.054 -1.51416 0.437162 0
M  V30 6884 C 706.302 -2.01687 -0.129108 0
M  V30 6885 C 706.623 -1.32329 -1.43227 0
M  V30 6886 O 705.893 -0.457796 -1.90476 0
M  V30 6887 H 704.473 -0.745277 -0.0507023 0
M  V30 6888 H 707.135 -1.86075 0.579828 0
M  V30 6889 H 706.231 -3.10605 -0.305141 0
M  V30 6890 N 706.532 -0.168513 -1.56696 0
M  V30 6891 C 707.943 0.348694 -1.83415 0
M  V30 6892 C 708.294 1.63257 -1.0882 0
M  V30 6893 O 707.419 2.13707 -0.340333 0
M  V30 6894 C 708.014 0.639423 -3.32711 0
M  V30 6895 C 706.573 1.10108 -3.59935 0
M  V30 6896 C 705.72 0.135464 -2.76969 0
M  V30 6897 H 708.671 -0.392829 -1.53761 0
M  V30 6898 H 708.692 1.49179 -3.50037 0
M  V30 6899 H 708.204 -0.295173 -3.86976 0
M  V30 6900 H 706.305 2.05088 -3.11079 0
M  V30 6901 H 706.418 1.01218 -4.68286 0
M  V30 6902 H 704.782 0.632286 -2.46727 0
M  V30 6903 H 705.565 -0.793104 -3.34013 0
M  V30 6904 N 708.01 1.57248 0.105221 0
M  V30 6905 C 709.287 1.76566 0.841647 0
M  V30 6906 C 709.667 0.747566 1.9742 0
M  V30 6907 O 709.015 -0.225886 2.27381 0
M  V30 6908 C 709.225 3.22016 1.3456 0
M  V30 6909 C 710.573 3.84911 1.79244 0
M  V30 6910 O 711.597 3.25703 1.44207 0
M  V30 6911 O 710.456 4.89008 2.43995 0
M  V30 6912 H 707.55 0.723443 0.400698 0
M  V30 6913 H 710.096 1.69472 0.0878893 0
M  V30 6914 H 708.868 3.87644 0.533685 0
M  V30 6915 H 708.491 3.33703 2.16167 0
M  V30 6916 N 709.488 -0.375779 1.53054 0
M  V30 6917 C 710.735 -1.11948 1.68742 0
M  V30 6918 C 711.063 -1.89596 0.434015 0
M  V30 6919 O 710.318 -1.86787 -0.583867 0
M  V30 6920 C 710.617 -2.11356 2.88207 0
M  V30 6921 C 710.283 -1.50266 4.25124 0
M  V30 6922 C 708.945 -1.33333 4.62359 0
M  V30 6923 C 711.297 -1.05976 5.10312 0
M  V30 6924 C 708.625 -0.706765 5.82427 0
M  V30 6925 C 710.977 -0.447241 6.31017 0
M  V30 6926 C 709.641 -0.265314 6.66973 0
M  V30 6927 H 708.911 -0.409648 0.61747 0
M  V30 6928 H 711.558 -0.402492 1.87222 0
M  V30 6929 H 709.863 -2.89322 2.64197 0
M  V30 6930 H 711.56 -2.68833 2.97539 0
M  V30 6931 H 708.15 -1.64437 3.95801 0
M  V30 6932 H 712.334 -1.17855 4.82104 0
M  V30 6933 H 707.59 -0.554132 6.08884 0
M  V30 6934 H 711.764 -0.0958064 6.96334 0
M  V30 6935 H 709.391 0.222267 7.59875 0
M  V30 6936 N 710.966 -1.44241 -0.634997 0
M  V30 6937 C 712.382 -1.28043 -0.952742 0
M  V30 6938 C 712.582 -0.21338 -2.00367 0
M  V30 6939 O 711.638 0.402042 -2.49279 0
M  V30 6940 C 712.951 -2.65076 -1.41968 0
M  V30 6941 C 714.499 -2.72755 -1.53537 0
M  V30 6942 C 714.974 -4.10249 -2.03616 0
M  V30 6943 N 716.465 -4.12406 -2.10892 0
M  V30 6944 C 717.2 -5.15641 -2.50803 0
M  V30 6945 N 716.696 -6.29239 -2.89879 0
M  V30 6946 N 718.489 -5.02995 -2.50903 0
M  V30 6947 H 710.64 -2.12315 0.060098 0
M  V30 6948 H 712.903 -0.947326 -0.0357325 0
M  V30 6949 H 712.609 -3.44213 -0.721804 0
M  V30 6950 H 712.483 -2.91704 -2.39141 0
M  V30 6951 H 714.87 -1.93939 -2.22422 0
M  V30 6952 H 714.951 -2.49872 -0.547496 0
M  V30 6953 H 714.595 -4.8954 -1.35327 0
M  V30 6954 H 714.525 -4.30507 -3.03268 0
M  V30 6955 H 717.016 -3.30417 -1.83393 0
M  V30 6956 H 717.329 -7.03827 -3.19135 0
M  V30 6957 H 715.674 -6.32683 -2.8764 0
M  V30 6958 H 718.865 -4.13306 -2.19763 0
M  V30 6959 H 719.038 -5.83574 -2.81683 0
M  V30 6960 N 712.444 0.87505 -1.31075 0
M  V30 6961 C 713.354 2.01441 -1.20244 0
M  V30 6962 C 714.37 1.73584 -0.120227 0
M  V30 6963 O 715.546 1.98559 -0.337063 0
M  V30 6964 C 712.611 3.34675 -0.905199 0
M  V30 6965 C 711.672 3.75889 -2.0738 0
M  V30 6966 C 710.905 5.02764 -1.79064 0
M  V30 6967 O 711.128 5.65795 -0.723318 0
M  V30 6968 O 710.062 5.40623 -2.64594 0
M  V30 6969 H 713.888 2.13509 -2.1598 0
M  V30 6970 H 711.473 1.00257 -1.10765 0
M  V30 6971 H 713.355 4.1458 -0.755057 0
M  V30 6972 H 712.03 3.23692 0.0221695 0
M  V30 6973 H 710.937 2.96645 -2.27931 0
M  V30 6974 H 712.27 3.91489 -2.98324 0
M  V30 6975 N 713.922 1.13953 1.08869 0
M  V30 6976 C 714.832 0.835666 2.19212 0
M  V30 6977 C 715.848 -0.182005 1.73045 0
M  V30 6978 O 717.024 -0.0116661 2.01397 0
M  V30 6979 C 714.089 0.312325 3.4529 0
M  V30 6980 C 713.15 1.39196 4.06107 0
M  V30 6981 C 712.383 0.893496 5.26168 0
M  V30 6982 O 712.606 -0.266807 5.69776 0
M  V30 6983 O 711.54 1.67037 5.78258 0
M  V30 6984 H 715.366 1.75769 2.47667 0
M  V30 6985 H 712.951 0.917421 1.17914 0
M  V30 6986 H 714.833 0.0261582 4.21392 0
M  V30 6987 H 713.508 -0.582042 3.18424 0
M  V30 6988 H 712.415 1.73152 3.31616 0
M  V30 6989 H 713.748 2.26068 4.37212 0
M  V30 6990 N 715.4 -1.26948 0.933913 0
M  V30 6991 C 716.31 -2.30366 0.443671 0
M  V30 6992 C 717.326 -1.67284 -0.478745 0
M  V30 6993 O 718.502 -1.98156 -0.360043 0
M  V30 6994 C 715.567 -3.45485 -0.289974 0
M  V30 6995 C 714.628 -4.24069 0.668114 0
M  V30 6996 C 713.861 -5.33691 -0.0306138 0
M  V30 6997 O 714.084 -5.5656 -1.24888 0
M  V30 6998 O 713.018 -5.98441 0.644384 0
M  V30 6999 H 716.844 -2.74349 1.30254 0
M  V30 7000 H 714.429 -1.32012 0.699506 0
M  V30 7001 H 716.311 -4.15486 -0.70353 0
M  V30 7002 H 714.986 -3.03546 -1.12435 0
M  V30 7003 H 713.893 -3.56579 1.13147 0
M  V30 7004 H 715.226 -4.69739 1.46989 0
M  V30 7005 N 716.879 -0.700114 -1.41195 0
M  V30 7006 C 718.107 -0.242179 -2.05478 0
M  V30 7007 C 718.522 1.11029 -1.52702 0
M  V30 7008 O 717.879 1.69473 -0.677127 0
M  V30 7009 C 717.93 -0.196271 -3.60967 0
M  V30 7010 O 717.651 -1.49532 -4.11791 0
M  V30 7011 C 719.152 0.282102 -4.42401 0
M  V30 7012 H 716.372 -0.111749 -0.661629 0
M  V30 7013 H 718.916 -0.953975 -1.80885 0
M  V30 7014 H 717.071 0.46638 -3.84582 0
M  V30 7015 H 717.485 -1.38545 -5.05871 0
M  V30 7016 H 718.959 0.263093 -5.51373 0
M  V30 7017 H 719.436 1.32174 -4.1884 0
M  V30 7018 H 720.042 -0.349712 -4.2386 0
M  V30 7019 N 718.357 1.51182 -0.445186 0
M  V30 7020 C 719.604 2.02152 0.118645 0
M  V30 7021 C 719.932 1.32888 1.42025 0
M  V30 7022 O 719.187 0.435041 1.90803 0
M  V30 7023 C 719.486 3.55408 0.376797 0
M  V30 7024 C 719.152 4.43008 -0.839945 0
M  V30 7025 C 717.814 4.66669 -1.17361 0
M  V30 7026 C 720.166 4.9435 -1.65127 0
M  V30 7027 C 717.494 5.38919 -2.31913 0
M  V30 7028 C 719.846 5.67857 -2.78786 0
M  V30 7029 C 718.51 5.89779 -3.12597 0
M  V30 7030 H 717.78 0.739727 0.0434152 0
M  V30 7031 H 720.427 1.82055 -0.593984 0
M  V30 7032 H 718.732 3.73879 1.1714 0
M  V30 7033 H 720.429 3.92388 0.826602 0
M  V30 7034 H 717.019 4.24793 -0.569958 0
M  V30 7035 H 721.203 4.75947 -1.4067 0
M  V30 7036 H 716.459 5.54105 -2.58413 0
M  V30 7037 H 720.633 6.06628 -3.42017 0
M  V30 7038 H 718.26 6.45542 -4.01471 0
M  V30 7039 N 719.835 0.176821 1.56605 0
M  V30 7040 C 721.082 -0.466715 1.97048 0
M  V30 7041 C 721.41 -1.6288 1.06302 0
M  V30 7042 O 720.665 -1.95453 0.0982571 0
M  V30 7043 C 720.964 -0.986208 3.43524 0
M  V30 7044 C 720.63 0.0605667 4.50859 0
M  V30 7045 C 719.292 0.348242 4.79938 0
M  V30 7046 C 721.644 0.770794 5.15469 0
M  V30 7047 C 718.972 1.35144 5.70923 0
M  V30 7048 C 721.324 1.76301 6.07537 0
M  V30 7049 C 719.988 2.05808 6.3498 0
M  V30 7050 H 719.258 -0.170783 0.721051 0
M  V30 7051 H 721.905 0.269942 1.89588 0
M  V30 7052 H 720.21 -1.80079 3.47964 0
M  V30 7053 H 721.907 -1.49323 3.72161 0
M  V30 7054 H 718.497 -0.173823 4.28247 0
M  V30 7055 H 722.681 0.56176 4.9311 0
M  V30 7056 H 717.937 1.58616 5.90467 0
M  V30 7057 H 722.111 2.31868 6.56666 0
M  V30 7058 H 719.738 2.8369 7.05283 0
M  V30 7059 N 721.313 -1.57302 -0.09688 0
M  V30 7060 C 722.538 -1.9058 -0.818169 0
M  V30 7061 C 722.963 -0.770921 -1.71576 0
M  V30 7062 O 722.321 0.277588 -1.79162 0
M  V30 7063 C 722.369 -3.22714 -1.60898 0
M  V30 7064 O 721.473 -3.10178 -2.71779 0
M  V30 7065 H 720.814 -0.624759 -0.224882 0
M  V30 7066 H 723.344 -2.04471 -0.07264 0
M  V30 7067 H 723.354 -3.55978 -1.99358 0
M  V30 7068 H 722.029 -4.04899 -0.950227 0
M  V30 7069 H 720.606 -2.88424 -2.3636 0
M  V30 7070 N 722.791 0.367657 -1.53252 0
M  V30 7071 C 724.037 1.11216 -1.69584 0
M  V30 7072 C 724.37 1.89026 -0.445269 0
M  V30 7073 O 723.645 1.86342 0.557404 0
M  V30 7074 C 723.928 2.07308 -2.94441 0
M  V30 7075 C 723.781 1.3312 -4.2965 0
M  V30 7076 C 725.1 3.07459 -3.14892 0
M  V30 7077 H 722.219 0.40294 -0.617096 0
M  V30 7078 H 724.861 0.393201 -1.85887 0
M  V30 7079 H 723.011 2.68617 -2.80673 0
M  V30 7080 H 724.683 0.746111 -4.55226 0
M  V30 7081 H 722.926 0.633051 -4.29156 0
M  V30 7082 H 723.597 2.03443 -5.13142 0
M  V30 7083 H 726.073 2.56252 -3.27832 0
M  V30 7084 H 724.949 3.71919 -4.03693 0
M  V30 7085 H 725.21 3.77514 -2.30077 0
M  V30 7086 N 724.269 1.44576 0.627338 0
M  V30 7087 C 725.516 1.47558 1.38682 0
M  V30 7088 C 725.844 0.109636 1.94191 0
M  V30 7089 O 725.099 -0.889092 1.74338 0
M  V30 7090 C 725.398 2.48644 2.56731 0
M  V30 7091 C 725.064 3.93873 2.19489 0
M  V30 7092 C 723.726 4.33421 2.09045 0
M  V30 7093 C 726.078 4.85286 1.90124 0
M  V30 7094 C 723.406 5.62303 1.6743 0
M  V30 7095 C 725.758 6.14559 1.50001 0
M  V30 7096 C 724.422 6.53058 1.38101 0
M  V30 7097 H 723.692 0.539955 0.507474 0
M  V30 7098 H 726.339 1.77811 0.711021 0
M  V30 7099 H 724.644 2.11889 3.29561 0
M  V30 7100 H 726.341 2.48197 3.14959 0
M  V30 7101 H 722.931 3.62587 2.28537 0
M  V30 7102 H 727.115 4.55483 1.971 0
M  V30 7103 H 722.371 5.90945 1.56823 0
M  V30 7104 H 726.545 6.84848 1.26319 0
M  V30 7105 H 724.172 7.52826 1.05628 0
M  V30 7106 N 725.747 -0.868086 1.31537 0
M  V30 7107 C 726.71 -1.95703 1.19302 0
M  V30 7108 C 727.71 -1.60355 0.119612 0
M  V30 7109 O 728.9 -1.70247 0.36902 0
M  V30 7110 C 726.032 -3.30599 0.831684 0
M  V30 7111 H 727.225 -2.07982 2.16064 0
M  V30 7112 H 724.778 -1.05661 1.15176 0
M  V30 7113 H 725.513 -3.2402 -0.134694 0
M  V30 7114 H 725.298 -3.57629 1.60761 0
M  V30 7115 H 726.788 -4.10439 0.770026 0
M  V30 7116 N 727.225 -1.14528 -1.08264 0
M  V30 7117 C 728.474 -0.908992 -1.80056 0
M  V30 7118 C 728.787 0.565859 -1.87236 0
M  V30 7119 O 729.993 0.919454 -2.55457 0
M  V30 7120 C 728.449 -1.57681 -3.23519 0
M  V30 7121 C 728.057 -3.08803 -3.24569 0
M  V30 7122 C 729.801 -1.4217 -3.99985 0
M  V30 7123 C 727.708 -3.68414 -4.62629 0
M  V30 7124 H 726.638 -0.336432 -0.674781 0
M  V30 7125 H 729.289 -1.37437 -1.21587 0
M  V30 7126 H 727.671 -1.03911 -3.82124 0
M  V30 7127 H 728.845 -3.69252 -2.75663 0
M  V30 7128 H 727.16 -3.23968 -2.61598 0
M  V30 7129 H 729.757 -1.84106 -5.02005 0
M  V30 7130 H 730.1 -0.367989 -4.1467 0
M  V30 7131 H 730.633 -1.92984 -3.47853 0
M  V30 7132 H 727.372 -4.73644 -4.53147 0
M  V30 7133 H 726.892 -3.12746 -5.11811 0
M  V30 7134 H 728.571 -3.68793 -5.31602 0
M  V30 7135 N 728.703 1.26451 -0.940633 0
M  V30 7136 C 729.95 1.93778 -0.587909 0
M  V30 7137 C 730.278 1.73811 0.872935 0
M  V30 7138 O 729.533 1.06816 1.63978 0
M  V30 7139 C 729.832 3.46503 -0.875794 0
M  V30 7140 C 729.498 3.86609 -2.32043 0
M  V30 7141 C 728.16 3.97269 -2.71534 0
M  V30 7142 C 730.512 4.0672 -3.25927 0
M  V30 7143 C 727.84 4.25436 -4.04006 0
M  V30 7144 C 730.192 4.36375 -4.57995 0
M  V30 7145 C 728.856 4.45249 -4.97302 0
M  V30 7146 H 728.126 0.709084 -0.215131 0
M  V30 7147 H 730.773 1.50272 -1.18704 0
M  V30 7148 H 729.078 3.91319 -0.194124 0
M  V30 7149 H 730.775 3.96759 -0.581665 0
M  V30 7150 H 727.365 3.78858 -2.00411 0
M  V30 7151 H 731.549 3.97912 -2.96614 0
M  V30 7152 H 726.805 4.30519 -4.34124 0
M  V30 7153 H 730.979 4.50882 -5.30734 0
M  V30 7154 H 728.606 4.66829 -5.99979 0
M  V30 7155 N 730.181 0.707592 1.40822 0
M  V30 7156 C 731.428 0.243671 2.01029 0
M  V30 7157 C 731.756 -1.16057 1.5608 0
M  V30 7158 O 731.011 -1.7999 0.768251 0
M  V30 7159 C 731.31 0.262892 3.56432 0
M  V30 7160 C 730.976 1.61632 4.20935 0
M  V30 7161 C 729.638 1.98682 4.38268 0
M  V30 7162 C 731.99 2.50619 4.5699 0
M  V30 7163 C 729.318 3.2428 4.88937 0
M  V30 7164 C 731.67 3.75562 5.09054 0
M  V30 7165 C 730.334 4.12739 5.24598 0
M  V30 7166 H 729.604 0.0891654 0.735616 0
M  V30 7167 H 732.251 0.909051 1.68548 0
M  V30 7168 H 730.556 -0.486052 3.88773 0
M  V30 7169 H 732.253 -0.113775 4.00839 0
M  V30 7170 H 728.843 1.31818 4.07826 0
M  V30 7171 H 733.027 2.23272 4.43242 0
M  V30 7172 H 728.283 3.53064 4.99155 0
M  V30 7173 H 732.457 4.44692 5.35931 0
M  V30 7174 H 730.084 5.10132 5.63622 0
M  V30 7175 N 731.66 -1.50943 0.453197 0
M  V30 7176 C 733.071 -1.86699 -0.00619892 0
M  V30 7177 C 733.422 -1.3693 -1.40515 0
M  V30 7178 O 732.547 -0.726715 -2.03833 0
M  V30 7179 C 733.142 -3.38795 -0.018025 0
M  V30 7180 C 731.701 -3.74028 -0.421885 0
M  V30 7181 C 730.848 -2.74752 0.375087 0
M  V30 7182 H 733.799 -1.43942 0.668317 0
M  V30 7183 H 733.82 -3.71468 -0.824125 0
M  V30 7184 H 733.332 -3.74988 1.00028 0
M  V30 7185 H 731.433 -3.43431 -1.44521 0
M  V30 7186 H 731.546 -4.78908 -0.135664 0
M  V30 7187 H 729.91 -2.5414 -0.168794 0
M  V30 7188 H 730.693 -3.13787 1.39256 0
M  V30 7189 N 733.138 -0.185124 -1.56509 0
M  V30 7190 C 734.101 0.72591 -2.17401 0
M  V30 7191 C 735.101 1.14819 -1.12575 0
M  V30 7192 O 736.291 1.0629 -1.38015 0
M  V30 7193 C 733.423 1.98979 -2.76803 0
M  V30 7194 H 734.616 0.195588 -2.99262 0
M  V30 7195 H 732.169 0.0644772 -1.56167 0
M  V30 7196 H 732.904 2.56287 -1.98714 0
M  V30 7197 H 732.689 1.69583 -3.53531 0
M  V30 7198 H 734.179 2.63966 -3.23592 0
M  V30 7199 N 734.616 1.57351 0.0885366 0
M  V30 7200 C 735.579 2.01557 1.09121 0
M  V30 7201 C 736.579 0.910052 1.3257 0
M  V30 7202 O 737.769 1.17537 1.28572 0
M  V30 7203 C 734.901 2.38189 2.43883 0
M  V30 7204 H 736.094 2.91361 0.710562 0
M  V30 7205 H 733.647 1.52694 0.333779 0
M  V30 7206 H 734.382 1.5136 2.86811 0
M  V30 7207 H 734.167 3.18846 2.28209 0
M  V30 7208 H 735.657 2.73025 3.15986 0
M  V30 7209 N 736.094 -0.359525 1.53444 0
M  V30 7210 C 737.322 -1.12198 1.73837 0
M  V30 7211 C 737.737 -1.82854 0.470107 0
M  V30 7212 O 737.094 -1.73781 -0.557349 0
M  V30 7213 C 737.145 -2.14769 2.90786 0
M  V30 7214 O 736.866 -1.46989 4.12706 0
M  V30 7215 C 738.367 -3.03514 3.231 0
M  V30 7216 H 735.587 -0.33524 0.581253 0
M  V30 7217 H 738.131 -0.416598 2.00212 0
M  V30 7218 H 736.286 -2.80896 2.66788 0
M  V30 7219 H 736.7 -2.15378 4.78239 0
M  V30 7220 H 738.174 -3.71453 4.08322 0
M  V30 7221 H 738.651 -3.68658 2.38721 0
M  V30 7222 H 739.257 -2.42996 3.49046 0
M  V30 7223 N 737.572 -1.44907 -0.619662 0
M  V30 7224 C 738.82 -1.47999 -1.37625 0
M  V30 7225 C 739.141 -0.118295 -1.94641 0
M  V30 7226 O 738.411 0.85086 -1.76457 0
M  V30 7227 H 736.991 -0.544993 -0.510873 0
M  V30 7228 H 739.653 -1.80772 -0.728522 0
M  V30 7229 H 738.749 -2.21196 -2.20179 0
M  V30 7230 N 739.05 0.861098 -1.31996 0
M  V30 7231 C 740.299 1.60965 -1.21545 0
M  V30 7232 C 740.612 1.94325 0.222972 0
M  V30 7233 O 741.818 2.67757 0.449272 0
M  V30 7234 C 740.274 2.90223 -2.12834 0
M  V30 7235 C 739.882 2.64313 -3.61722 0
M  V30 7236 C 741.626 3.68229 -2.11205 0
M  V30 7237 C 739.533 3.89532 -4.44993 0
M  V30 7238 H 738.463 0.603988 -0.451348 0
M  V30 7239 H 741.114 0.951358 -1.56912 0
M  V30 7240 H 739.496 3.57475 -1.70375 0
M  V30 7241 H 740.67 2.05413 -4.12483 0
M  V30 7242 H 738.985 1.99647 -3.65418 0
M  V30 7243 H 741.582 4.61138 -2.70658 0
M  V30 7244 H 741.925 4.01466 -1.1014 0
M  V30 7245 H 742.458 3.07873 -2.51911 0
M  V30 7246 H 739.197 3.61441 -5.46846 0
M  V30 7247 H 738.717 4.47851 -3.98985 0
M  V30 7248 H 740.396 4.57334 -4.57663 0
M  V30 7249 N 740.528 1.15101 1.07655 0
M  V30 7250 C 741.458 0.867864 2.16773 0
M  V30 7251 C 742.439 -0.180283 1.69142 0
M  V30 7252 O 743.624 -0.0353152 1.94168 0
M  V30 7253 C 740.754 0.35299 3.45501 0
M  V30 7254 C 739.708 1.33746 4.06566 0
M  V30 7255 C 739.034 0.681562 5.30338 0
M  V30 7256 C 740.334 2.7024 4.46954 0
M  V30 7257 H 742.028 1.78034 2.40716 0
M  V30 7258 H 739.574 0.857435 1.15689 0
M  V30 7259 H 741.527 0.142465 4.21159 0
M  V30 7260 H 740.251 -0.594945 3.21135 0
M  V30 7261 H 738.91 1.53429 3.32949 0
M  V30 7262 H 738.558 -0.272422 5.02262 0
M  V30 7263 H 738.258 1.33853 5.72151 0
M  V30 7264 H 739.782 0.48074 6.08705 0
M  V30 7265 H 741.196 2.5442 5.13754 0
M  V30 7266 H 739.593 3.32282 4.99709 0
M  V30 7267 H 740.663 3.26537 3.58471 0
M  V30 7268 N 742.006 -1.2595 0.947325 0
M  V30 7269 C 742.969 -2.24407 0.466285 0
M  V30 7270 C 743.969 -1.55054 -0.426005 0
M  V30 7271 O 745.159 -1.7275 -0.224319 0
M  V30 7272 C 742.291 -3.39326 -0.327201 0
M  V30 7273 H 743.484 -2.68477 1.33642 0
M  V30 7274 H 741.037 -1.38211 0.729887 0
M  V30 7275 H 741.772 -3.00667 -1.21532 0
M  V30 7276 H 741.557 -3.9085 0.312839 0
M  V30 7277 H 743.047 -4.12455 -0.653477 0
M  V30 7278 N 743.484 -0.715051 -1.40445 0
M  V30 7279 C 744.732 -0.253826 -2.005 0
M  V30 7280 C 745.053 1.15681 -1.5698 0
M  V30 7281 O 744.323 1.78414 -0.809027 0
M  V30 7282 H 742.903 -0.0908537 -0.741454 0
M  V30 7283 H 745.565 -0.920561 -1.7179 0
M  V30 7284 H 744.661 -0.286499 -3.10782 0
M  V30 7285 N 744.962 1.50701 -0.461195 0
M  V30 7286 C 745.925 2.2686 0.326679 0
M  V30 7287 C 746.925 1.31243 0.929085 0
M  V30 7288 O 748.115 1.54754 0.799807 0
M  V30 7289 C 745.247 3.07844 1.46441 0
M  V30 7290 H 746.44 2.97954 -0.341095 0
M  V30 7291 H 743.993 1.54814 -0.214984 0
M  V30 7292 H 744.728 2.41223 2.16753 0
M  V30 7293 H 744.513 3.78101 1.03836 0
M  V30 7294 H 746.003 3.65469 2.02044 0
M  V30 7295 N 746.441 0.193421 1.56409 0
M  V30 7296 C 747.389 -0.744829 2.20352 0
M  V30 7297 C 748.383 -1.22104 1.17418 0
M  V30 7298 O 749.589 -1.18413 1.35567 0
M  V30 7299 H 745.964 -0.258538 0.70616 0
M  V30 7300 H 747.935 -0.181794 2.97846 0
M  V30 7301 C 746.684 -1.95453 2.87565 0
M  V30 7302 H 746.007 -1.59716 3.66512 0
M  V30 7303 H 747.447 -2.58942 3.35745 0
M  V30 7304 C 745.906 -2.79223 1.8851 0
M  V30 7305 O 746.436 -3.77093 1.38434 0
M  V30 7306 N 744.642 -2.44682 1.56777 0
M  V30 7307 H 744.189 -1.65153 1.97692 0
M  V30 7308 H 744.147 -3.01016 0.907573 0
M  V30 7309 N 747.919 -1.57396 -0.0801906 0
M  V30 7310 C 749.168 -1.8602 -0.779702 0
M  V30 7311 C 749.481 -0.784864 -1.79163 0
M  V30 7312 O 750.687 -0.958691 -2.54011 0
M  V30 7313 C 749.143 -3.29942 -1.43758 0
M  V30 7314 C 748.751 -4.45584 -0.464654 0
M  V30 7315 C 750.495 -3.67775 -2.11995 0
M  V30 7316 C 748.402 -5.80544 -1.12797 0
M  V30 7317 H 747.332 -0.69392 -0.294943 0
M  V30 7318 H 749.983 -1.83471 -0.0328527 0
M  V30 7319 H 748.365 -3.27078 -2.2324 0
M  V30 7320 H 749.539 -4.59824 0.299749 0
M  V30 7321 H 747.854 -4.16247 0.112813 0
M  V30 7322 H 750.451 -4.65896 -2.62383 0
M  V30 7323 H 750.794 -2.9715 -2.91561 0
M  V30 7324 H 751.327 -3.72593 -1.39354 0
M  V30 7325 H 748.066 -6.54439 -0.372807 0
M  V30 7326 H 747.586 -5.70119 -1.86344 0
M  V30 7327 H 749.265 -6.25602 -1.6502 0
M  V30 7328 N 749.397 0.351382 -1.53633 0
M  V30 7329 C 750.622 1.11718 -1.74739 0
M  V30 7330 C 751.047 1.81829 -0.481657 0
M  V30 7331 O 750.405 1.72264 0.565233 0
M  V30 7332 C 750.453 2.11234 -2.92254 0
M  V30 7333 O 749.557 3.186 -2.61855 0
M  V30 7334 H 748.898 0.323482 -0.579875 0
M  V30 7335 H 751.428 0.404167 -2.00568 0
M  V30 7336 H 751.438 2.54591 -3.18822 0
M  V30 7337 H 750.113 1.59599 -3.84058 0
M  V30 7338 H 748.69 2.80115 -2.4615 0
M  V30 7339 N 750.875 1.45233 0.611969 0
M  V30 7340 C 752.123 1.48727 1.36838 0
M  V30 7341 C 752.444 0.128616 1.94575 0
M  V30 7342 O 751.714 -0.84149 1.76906 0
M  V30 7343 H 750.294 0.547695 0.507976 0
M  V30 7344 H 752.956 1.81156 0.718925 0
M  V30 7345 H 752.052 2.2236 2.19003 0
M  V30 7346 N 752.353 -0.854086 1.3245 0
M  V30 7347 C 753.63 -1.59188 1.1366 0
M  V30 7348 C 754.01 -2.08917 -0.302807 0
M  V30 7349 O 753.358 -1.8795 -1.29951 0
M  V30 7350 C 753.568 -2.73757 2.16467 0
M  V30 7351 C 754.916 -3.43323 2.49829 0
M  V30 7352 O 755.94 -2.83983 2.15017 0
M  V30 7353 O 754.799 -4.50409 3.09506 0
M  V30 7354 H 751.893 -0.701092 0.438633 0
M  V30 7355 H 754.439 -0.898165 1.43983 0
M  V30 7356 H 753.211 -2.3454 3.1322 0
M  V30 7357 H 752.834 -3.50804 1.87142 0
M  V30 7358 N 753.831 -1.1567 -1.07043 0
M  V30 7359 C 754.761 -0.879348 -2.16309 0
M  V30 7360 C 755.742 0.171311 -1.69235 0
M  V30 7361 O 756.927 0.0250175 -1.94184 0
M  V30 7362 C 754.057 -0.371307 -3.45309 0
M  V30 7363 C 753.011 -1.359 -4.05851 0
M  V30 7364 C 752.337 -0.709678 -5.29969 0
M  V30 7365 C 753.637 -2.72606 -4.45514 0
M  V30 7366 H 755.331 -1.79308 -2.39768 0
M  V30 7367 H 752.877 -0.863558 -1.15233 0
M  V30 7368 H 754.83 -0.164798 -4.21078 0
M  V30 7369 H 753.554 0.577906 -3.21446 0
M  V30 7370 H 752.213 -1.55193 -3.32131 0
M  V30 7371 H 751.861 0.245782 -5.02399 0
M  V30 7372 H 751.561 -1.36886 -5.71433 0
M  V30 7373 H 753.085 -0.513015 -6.08441 0
M  V30 7374 H 754.499 -2.57141 -5.12398 0
M  V30 7375 H 752.896 -3.34927 -4.97939 0
M  V30 7376 H 753.966 -3.28434 -3.56734 0
M  V30 7377 N 755.309 1.25446 -0.953992 0
M  V30 7378 C 756.272 2.24156 -0.478179 0
M  V30 7379 C 757.272 1.55278 0.417776 0
M  V30 7380 O 758.462 1.72866 0.215155 0
M  V30 7381 C 755.594 3.39495 0.309202 0
M  V30 7382 H 756.787 2.67764 -1.35064 0
M  V30 7383 H 754.34 1.37822 -0.737206 0
M  V30 7384 H 755.075 3.01307 1.19936 0
M  V30 7385 H 754.86 3.90679 -0.333562 0
M  V30 7386 H 756.35 4.12796 0.631594 0
M  V30 7387 N 756.787 0.722489 1.40064 0
M  V30 7388 C 758.064 0.191829 1.94657 0
M  V30 7389 C 758.444 -1.30389 1.66018 0
M  V30 7390 O 757.792 -2.06342 0.981588 0
M  V30 7391 C 758.002 0.511978 3.45224 0
M  V30 7392 C 759.35 0.454426 4.22161 0
M  V30 7393 O 760.374 0.448438 3.53366 0
M  V30 7394 O 759.233 0.437986 5.44742 0
M  V30 7395 H 756.327 0.0307821 0.826427 0
M  V30 7396 H 758.873 0.800493 1.49634 0
M  V30 7397 H 757.645 1.54622 3.59455 0
M  V30 7398 H 757.268 -0.126296 3.97399 0
M  V30 7399 N 758.265 -1.50454 0.469181 0
M  V30 7400 C 759.676 -1.86695 0.0136034 0
M  V30 7401 C 760.027 -1.38413 -1.39055 0
M  V30 7402 O 759.152 -0.748294 -2.03051 0
M  V30 7403 C 759.747 -3.38795 0.0179098 0
M  V30 7404 C 758.306 -3.74455 -0.382191 0
M  V30 7405 C 757.453 -2.74338 0.404207 0
M  V30 7406 H 760.404 -1.43225 0.683547 0
M  V30 7407 H 760.425 -3.72321 -0.78468 0
M  V30 7408 H 759.937 -3.73906 1.04 0
M  V30 7409 H 758.038 -3.44944 -1.4087 0
M  V30 7410 H 758.151 -4.79025 -0.084862 0
M  V30 7411 H 756.515 -2.54305 -0.141829 0
M  V30 7412 H 757.298 -3.12293 1.42577 0
M  V30 7413 N 759.743 -0.201713 -1.56304 0
M  V30 7414 C 760.675 0.748466 -2.16635 0
M  V30 7415 C 761.688 1.172 -1.12996 0
M  V30 7416 O 762.877 1.10658 -1.40061 0
M  V30 7417 C 759.977 2.02296 -2.719 0
M  V30 7418 C 759.15 1.75818 -4.00508 0
M  V30 7419 C 758.209 2.87779 -4.40533 0
M  V30 7420 O 757.235 2.57101 -5.07826 0
M  V30 7421 N 758.437 4.16287 -4.04581 0
M  V30 7422 H 761.202 0.232505 -2.98797 0
M  V30 7423 H 758.763 -0.0199822 -1.61888 0
M  V30 7424 H 760.755 2.7635 -2.95657 0
M  V30 7425 H 759.325 2.44996 -1.94154 0
M  V30 7426 H 758.545 0.855095 -3.84814 0
M  V30 7427 H 759.833 1.55532 -4.84445 0
M  V30 7428 H 759.231 4.44061 -3.50466 0
M  V30 7429 H 757.788 4.86946 -4.33274 0
M  V30 7430 N 761.222 1.57436 0.0718424 0
M  V30 7431 C 762.447 1.91858 0.787745 0
M  V30 7432 C 762.872 0.798119 1.70328 0
M  V30 7433 O 762.23 -0.24905 1.79581 0
M  V30 7434 C 762.278 3.25232 1.55744 0
M  V30 7435 O 761.382 3.14462 2.6681 0
M  V30 7436 H 760.723 0.628258 0.214914 0
M  V30 7437 H 763.253 2.04561 0.0401012 0
M  V30 7438 H 763.263 3.59105 1.9367 0
M  V30 7439 H 761.938 4.0636 0.885691 0
M  V30 7440 H 760.515 2.92148 2.31741 0
M  V30 7441 N 762.7 -0.34323 1.53817 0
M  V30 7442 C 763.663 -1.40444 1.8113 0
M  V30 7443 C 764.663 -1.45604 0.682366 0
M  V30 7444 O 765.853 -1.45974 0.950649 0
M  V30 7445 C 762.985 -2.79369 1.95361 0
M  V30 7446 H 764.178 -1.17489 2.75928 0
M  V30 7447 H 761.731 -0.577636 1.45234 0
M  V30 7448 H 762.466 -3.07607 1.02707 0
M  V30 7449 H 762.251 -2.7702 2.77493 0
M  V30 7450 H 763.741 -3.56178 2.18008 0
M  V30 7451 N 764.178 -1.45556 -0.604258 0
M  V30 7452 C 765.427 -1.49019 -1.35928 0
M  V30 7453 C 765.74 -0.137409 -1.95117 0
M  V30 7454 O 766.946 -0.0497032 -2.71455 0
M  V30 7455 C 765.402 -2.62477 -2.46239 0
M  V30 7456 C 765.01 -4.04082 -1.93447 0
M  V30 7457 C 766.754 -2.7519 -3.23219 0
M  V30 7458 C 764.661 -5.08917 -3.0126 0
M  V30 7459 H 763.591 -0.554518 -0.510907 0
M  V30 7460 H 766.242 -1.71705 -0.647262 0
M  V30 7461 H 764.624 -2.3308 -3.2014 0
M  V30 7462 H 765.798 -4.43173 -1.26232 0
M  V30 7463 H 764.113 -3.95849 -1.29201 0
M  V30 7464 H 766.71 -3.50683 -4.0364 0
M  V30 7465 H 767.053 -1.81941 -3.74437 0
M  V30 7466 H 767.586 -3.04129 -2.56418 0
M  V30 7467 H 764.325 -6.03886 -2.54955 0
M  V30 7468 H 763.845 -4.74393 -3.67031 0
M  V30 7469 H 765.524 -5.33814 -3.65584 0
M  V30 7470 N 765.656 0.84705 -1.32902 0
M  V30 7471 C 767.067 1.41785 -1.21466 0
M  V30 7472 C 767.418 1.95464 0.169767 0
M  V30 7473 O 766.543 1.88157 1.06892 0
M  V30 7474 C 767.138 2.57734 -2.19906 0
M  V30 7475 C 765.697 3.10791 -2.12334 0
M  V30 7476 C 764.844 1.83562 -2.07847 0
M  V30 7477 H 767.795 0.653532 -1.44619 0
M  V30 7478 H 767.816 3.35123 -1.80202 0
M  V30 7479 H 767.328 2.18635 -3.20656 0
M  V30 7480 H 765.429 3.54455 -1.14858 0
M  V30 7481 H 765.542 3.71519 -3.02506 0
M  V30 7482 H 763.906 2.03475 -1.53199 0
M  V30 7483 H 764.689 1.4667 -3.10392 0
M  V30 7484 N 767.134 1.16236 1.06428 0
M  V30 7485 C 768.081 0.86769 2.13869 0
M  V30 7486 C 769.051 -0.183298 1.65086 0
M  V30 7487 O 770.236 -0.0488002 1.90738 0
M  V30 7488 C 767.376 0.373427 3.43074 0
M  V30 7489 C 766.489 1.48708 4.05598 0
M  V30 7490 C 765.624 0.947977 5.22673 0
M  V30 7491 C 764.663 2.03793 5.77178 0
M  V30 7492 N 763.8 1.51451 6.85571 0
M  V30 7493 H 768.64 1.78781 2.38414 0
M  V30 7494 H 766.177 0.891892 1.16977 0
M  V30 7495 H 768.135 0.0685035 4.17144 0
M  V30 7496 H 766.765 -0.509752 3.1875 0
M  V30 7497 H 765.817 1.908 3.29089 0
M  V30 7498 H 767.129 2.30964 4.42105 0
M  V30 7499 H 766.283 0.596154 6.03764 0
M  V30 7500 H 765.022 0.0947081 4.87608 0
M  V30 7501 H 764.027 2.39847 4.94726 0
M  V30 7502 H 765.252 2.89514 6.14295 0
M  V30 7503 H 763.198 0.683755 6.52427 0
M  V30 7504 H 763.115 2.27325 7.21013 0
M  V30 7505 H 764.383 1.19123 7.70344 0
M  V30 7506 N 768.612 -1.24939 0.960631 0
M  V30 7507 C 769.86 -1.92437 0.617441 0
M  V30 7508 C 770.181 -1.75543 -0.849101 0
M  V30 7509 O 769.451 -1.12269 -1.60538 0
M  V30 7510 H 768.031 -0.712192 0.225371 0
M  V30 7511 H 770.693 -1.5198 1.22017 0
M  V30 7512 H 769.789 -3.00247 0.851933 0
M  V30 7513 N 770.09 -0.729906 -1.39679 0
M  V30 7514 C 771.318 -0.285709 -2.04918 0
M  V30 7515 C 771.733 1.07765 -1.55023 0
M  V30 7516 O 771.09 1.67999 -0.712923 0
M  V30 7517 C 771.141 -0.272793 -3.60469 0
M  V30 7518 O 770.862 -1.58233 -4.08527 0
M  V30 7519 C 772.363 0.188199 -4.429 0
M  V30 7520 H 769.583 -0.125758 -0.65911 0
M  V30 7521 H 772.127 -0.992129 -1.78821 0
M  V30 7522 H 770.282 0.384699 -3.85485 0
M  V30 7523 H 770.696 -1.49245 -5.02818 0
M  V30 7524 H 772.17 0.14608 -5.51807 0
M  V30 7525 H 772.647 1.2326 -4.21549 0
M  V30 7526 H 773.253 -0.439541 -4.23023 0
M  V30 7527 N 771.568 1.50203 -0.477153 0
M  V30 7528 C 772.498 2.31517 0.303646 0
M  V30 7529 C 773.479 1.38696 0.984753 0
M  V30 7530 O 774.664 1.67615 0.980758 0
M  V30 7531 C 771.794 3.18598 1.38249 0
M  V30 7532 C 770.748 4.2002 0.822645 0
M  V30 7533 C 770.074 4.95878 2.00024 0
M  V30 7534 C 771.374 5.22023 -0.170185 0
M  V30 7535 H 773.068 2.97042 -0.375027 0
M  V30 7536 H 770.614 1.42848 -0.181802 0
M  V30 7537 H 772.567 3.74282 1.93625 0
M  V30 7538 H 771.291 2.5097 2.09002 0
M  V30 7539 H 769.95 3.65445 0.290813 0
M  V30 7540 H 769.598 4.24717 2.69489 0
M  V30 7541 H 769.298 5.64487 1.63183 0
M  V30 7542 H 770.822 5.54399 2.55878 0
M  V30 7543 H 772.236 5.72543 0.294606 0
M  V30 7544 H 770.633 5.98386 -0.453181 0
M  V30 7545 H 771.703 4.72396 -1.09408 0
M  V30 7546 N 773.046 0.209999 1.56195 0
M  V30 7547 C 773.976 -0.699746 2.22769 0
M  V30 7548 C 774.957 -1.20993 1.1956 0
M  V30 7549 O 776.142 -1.25605 1.48112 0
M  V30 7550 C 773.272 -1.91302 2.89863 0
M  V30 7551 C 772.226 -1.53715 3.99444 0
M  V30 7552 C 771.552 -2.82826 4.53777 0
M  V30 7553 C 772.852 -0.735836 5.17091 0
M  V30 7554 H 774.546 -0.144716 2.9905 0
M  V30 7555 H 772.092 -0.0681645 1.43839 0
M  V30 7556 H 774.045 -2.5548 3.35124 0
M  V30 7557 H 772.769 -2.49283 2.11011 0
M  V30 7558 H 771.428 -0.918892 3.54897 0
M  V30 7559 H 771.076 -3.38927 3.71669 0
M  V30 7560 H 770.776 -2.58415 5.27727 0
M  V30 7561 H 772.3 -3.47966 5.01749 0
M  V30 7562 H 773.714 -1.28105 5.58804 0
M  V30 7563 H 772.111 -0.589272 5.972 0
M  V30 7564 H 773.181 0.260004 4.84202 0
M  V30 7565 N 774.524 -1.57472 -0.0634922 0
M  V30 7566 C 775.487 -2.03268 -1.059 0
M  V30 7567 C 776.487 -0.931028 -1.31105 0
M  V30 7568 O 777.677 -1.19567 -1.26686 0
M  V30 7569 C 774.809 -2.42039 -2.40062 0
M  V30 7570 H 776.002 -2.92454 -0.664119 0
M  V30 7571 H 773.555 -1.53206 -0.309444 0
M  V30 7572 H 774.29 -1.55904 -2.84367 0
M  V30 7573 H 774.075 -3.22437 -2.23108 0
M  V30 7574 H 775.565 -2.78017 -3.11603 0
M  V30 7575 N 776.003 0.335068 -1.53997 0
M  V30 7576 C 777.252 1.07182 -1.70865 0
M  V30 7577 C 777.565 1.89541 -0.483078 0
M  V30 7578 O 778.771 2.66219 -0.532879 0
M  V30 7579 C 777.227 1.95497 -3.02174 0
M  V30 7580 C 776.835 1.18304 -4.32097 0
M  V30 7581 C 778.579 2.68978 -3.28407 0
M  V30 7582 C 776.486 2.05699 -5.54474 0
M  V30 7583 H 775.416 0.403857 -0.636722 0
M  V30 7584 H 778.067 0.33076 -1.80494 0
M  V30 7585 H 776.449 2.73456 -2.86423 0
M  V30 7586 H 777.623 0.451969 -4.58578 0
M  V30 7587 H 775.938 0.565556 -4.12541 0
M  V30 7588 H 778.535 3.34651 -4.17029 0
M  V30 7589 H 778.878 3.36 -2.45784 0
M  V30 7590 H 779.411 1.98087 -3.44973 0
M  V30 7591 H 776.15 1.43204 -6.39666 0
M  V30 7592 H 775.67 2.76572 -5.32229 0
M  V30 7593 H 777.349 2.64554 -5.90441 0
M  V30 7594 N 777.481 1.45874 0.596531 0
M  V30 7595 C 778.411 1.5824 1.71705 0
M  V30 7596 C 779.392 0.433366 1.64487 0
M  V30 7597 O 780.577 0.657895 1.82717 0
M  V30 7598 C 777.707 1.55927 3.10329 0
M  V30 7599 C 776.661 2.69659 3.32367 0
M  V30 7600 C 775.987 2.52403 4.71377 0
M  V30 7601 C 777.287 4.11591 3.21544 0
M  V30 7602 H 778.981 2.52035 1.61613 0
M  V30 7603 H 776.527 1.21297 0.776082 0
M  V30 7604 H 778.48 1.63173 3.88526 0
M  V30 7605 H 777.204 0.586674 3.21288 0
M  V30 7606 H 775.863 2.61859 2.56564 0
M  V30 7607 H 775.511 1.53258 4.79083 0
M  V30 7608 H 775.211 3.28679 4.87077 0
M  V30 7609 H 776.735 2.6152 5.5176 0
M  V30 7610 H 778.149 4.20576 3.89601 0
M  V30 7611 H 776.546 4.88344 3.4877 0
M  V30 7612 H 777.616 4.32719 2.1882 0
M  V30 7613 N 778.959 -0.83999 1.33349 0
M  V30 7614 C 780.208 -1.59011 1.2409 0
M  V30 7615 C 780.521 -1.94655 -0.192029 0
M  V30 7616 O 781.727 -2.68438 -0.406617 0
M  V30 7617 C 780.183 -2.86801 2.17425 0
M  V30 7618 C 779.791 -2.58525 3.65881 0
M  V30 7619 C 781.535 -3.64823 2.17036 0
M  V30 7620 C 779.442 -3.82404 4.51133 0
M  V30 7621 H 778.372 -0.596731 0.460899 0
M  V30 7622 H 781.023 -0.926274 1.58406 0
M  V30 7623 H 779.405 -3.54719 1.7604 0
M  V30 7624 H 780.579 -1.98824 4.15699 0
M  V30 7625 H 778.894 -1.93808 3.68548 0
M  V30 7626 H 781.491 -4.56774 2.7796 0
M  V30 7627 H 781.834 -3.99663 1.16513 0
M  V30 7628 H 782.367 -3.03826 2.56777 0
M  V30 7629 H 779.106 -3.52696 5.52527 0
M  V30 7630 H 778.626 -4.41447 4.0606 0
M  V30 7631 H 780.305 -4.49995 4.6488 0
M  V30 7632 N 780.437 -1.16799 -1.0581 0
M  V30 7633 C 781.665 -0.97687 -1.82387 0
M  V30 7634 C 782.08 0.474917 -1.82729 0
M  V30 7635 O 781.437 1.3297 -1.25001 0
M  V30 7636 C 781.488 -1.50279 -3.28783 0
M  V30 7637 O 781.209 -2.89772 -3.28578 0
M  V30 7638 C 782.71 -1.35538 -4.22071 0
M  V30 7639 H 779.93 -0.345977 -0.574927 0
M  V30 7640 H 782.474 -1.54942 -1.33466 0
M  V30 7641 H 780.629 -0.972414 -3.74997 0
M  V30 7642 H 781.043 -3.13954 -4.20159 0
M  V30 7643 H 782.517 -1.7716 -5.22799 0
M  V30 7644 H 782.994 -0.301598 -4.38163 0
M  V30 7645 H 783.6 -1.87562 -3.81708 0
M  V30 7646 N 781.915 1.24427 -0.967243 0
M  V30 7647 C 783.143 1.96541 -0.646477 0
M  V30 7648 C 783.558 1.71753 0.783996 0
M  V30 7649 O 782.915 1.00102 1.52597 0
M  V30 7650 C 782.966 3.4983 -0.911098 0
M  V30 7651 O 782.687 3.7377 -2.28534 0
M  V30 7652 C 784.188 4.3916 -0.604458 0
M  V30 7653 H 781.408 0.626129 -0.241255 0
M  V30 7654 H 783.952 1.58268 -1.29505 0
M  V30 7655 H 782.107 3.86168 -0.308741 0
M  V30 7656 H 782.521 4.68154 -2.365 0
M  V30 7657 H 783.995 5.4557 -0.840069 0
M  V30 7658 H 784.472 4.36771 0.461273 0
M  V30 7659 H 785.078 4.08409 -1.1867 0
M  V30 7660 N 783.393 0.737304 1.3929 0
M  V30 7661 C 784.323 0.113988 2.33222 0
M  V30 7662 C 785.304 -0.721695 1.54031 0
M  V30 7663 O 786.489 -0.666206 1.82415 0
M  V30 7664 C 783.619 -0.792319 3.38141 0
M  V30 7665 C 782.573 -0.0606178 4.27957 0
M  V30 7666 C 781.899 -1.08409 5.23595 0
M  V30 7667 C 783.199 1.09817 5.10625 0
M  V30 7668 H 784.893 0.898611 2.85596 0
M  V30 7669 H 782.439 0.433571 1.37318 0
M  V30 7670 H 784.392 -1.23793 4.02807 0
M  V30 7671 H 783.116 -1.60908 2.84211 0
M  V30 7672 H 781.775 0.365393 3.64775 0
M  V30 7673 H 781.423 -1.89449 4.6596 0
M  V30 7674 H 781.123 -0.599269 5.84536 0
M  V30 7675 H 782.647 -1.52936 5.91137 0
M  V30 7676 H 784.061 0.730892 5.68622 0
M  V30 7677 H 782.458 1.51278 5.80719 0
M  V30 7678 H 783.528 1.91878 4.45321 0
M  V30 7679 N 784.871 -1.49948 0.485112 0
M  V30 7680 C 786.117 -2.02695 -0.0651022 0
M  V30 7681 C 786.45 -1.36534 -1.38102 0
M  V30 7682 O 785.725 -0.495677 -1.88078 0
M  V30 7683 C 786.008 -3.59337 -0.234285 0
M  V30 7684 C 785.861 -4.3605 1.10364 0
M  V30 7685 C 787.18 -4.28996 -0.982351 0
M  V30 7686 H 784.299 -0.736666 -0.0221856 0
M  V30 7687 H 786.941 -1.7913 0.633433 0
M  V30 7688 H 785.091 -3.79546 -0.829262 0
M  V30 7689 H 786.763 -4.27377 1.73627 0
M  V30 7690 H 785.006 -3.99236 1.69686 0
M  V30 7691 H 785.677 -5.43959 0.938743 0
M  V30 7692 H 788.153 -4.13346 -0.477904 0
M  V30 7693 H 787.029 -5.38379 -1.06955 0
M  V30 7694 H 787.29 -3.93135 -2.02231 0
M  V30 7695 N 786.349 -0.21828 -1.56081 0
M  V30 7696 C 787.579 0.41865 -2.02314 0
M  V30 7697 C 787.987 1.54124 -1.09739 0
M  V30 7698 O 787.33 1.83435 -0.0986829 0
M  V30 7699 C 787.392 1.01439 -3.44892 0
M  V30 7700 C 787.056 0.0276523 -4.56992 0
M  V30 7701 C 788.053 -0.771526 -5.14143 0
M  V30 7702 C 785.738 -0.0901537 -5.02219 0
M  V30 7703 C 787.732 -1.67525 -6.14991 0
M  V30 7704 C 785.419 -0.997411 -6.02905 0
M  V30 7705 C 786.417 -1.78851 -6.59167 0
M  V30 7706 O 786.105 -2.68052 -7.57894 0
M  V30 7707 H 785.837 0.107066 -0.667468 0
M  V30 7708 H 788.391 -0.331191 -2.02712 0
M  V30 7709 H 786.621 1.81326 -3.41552 0
M  V30 7710 H 788.31 1.55838 -3.74792 0
M  V30 7711 H 789.076 -0.690945 -4.80053 0
M  V30 7712 H 784.955 0.515474 -4.58109 0
M  V30 7713 H 788.499 -2.29316 -6.58832 0
M  V30 7714 H 784.396 -1.07902 -6.36418 0
M  V30 7715 H 785.164 -2.6209 -7.75404 0
M  V30 7716 N 787.827 1.57504 0.0551401 0
M  V30 7717 C 789.073 1.88334 0.752216 0
M  V30 7718 C 789.406 0.812742 1.76375 0
M  V30 7719 O 788.681 -0.175198 1.93709 0
M  V30 7720 C 788.964 3.29824 1.44528 0
M  V30 7721 C 788.817 4.47553 0.449026 0
M  V30 7722 C 790.136 3.69808 2.38601 0
M  V30 7723 H 787.255 0.684973 0.271995 0
M  V30 7724 H 789.897 1.89994 0.0151895 0
M  V30 7725 H 788.047 3.28539 2.07351 0
M  V30 7726 H 789.719 4.60967 -0.175277 0
M  V30 7727 H 787.962 4.33168 -0.234162 0
M  V30 7728 H 788.633 5.43376 0.971917 0
M  V30 7729 H 791.109 3.72293 1.85842 0
M  V30 7730 H 789.985 4.69665 2.84088 0
M  V30 7731 H 790.246 3.00641 3.24141 0
M  V30 7732 N 789.305 -0.326896 1.54172 0
M  V30 7733 C 790.553 -1.06313 1.71878 0
M  V30 7734 C 790.874 -1.88652 0.493498 0
M  V30 7735 O 790.144 -1.89608 -0.492522 0
M  V30 7736 H 788.724 -0.39549 0.633716 0
M  V30 7737 H 791.386 -0.364139 1.91468 0
M  V30 7738 H 790.482 -1.73105 2.59694 0
M  V30 7739 N 790.784 -1.46188 -0.588786 0
M  V30 7740 C 792.033 -1.50452 -1.34339 0
M  V30 7741 C 792.346 -0.158096 -1.9496 0
M  V30 7742 O 793.552 -0.0784918 -2.71387 0
M  V30 7743 C 792.008 -2.65074 -2.43441 0
M  V30 7744 C 791.616 -4.06111 -1.8915 0
M  V30 7745 C 793.36 -2.78603 -3.20282 0
M  V30 7746 C 791.267 -5.12084 -2.95845 0
M  V30 7747 H 790.197 -0.559905 -0.504997 0
M  V30 7748 H 792.848 -1.72382 -0.629014 0
M  V30 7749 H 791.23 -2.36462 -3.1765 0
M  V30 7750 H 792.404 -4.44487 -1.21524 0
M  V30 7751 H 790.719 -3.97197 -1.24995 0
M  V30 7752 H 793.316 -3.54944 -3.99898 0
M  V30 7753 H 793.659 -1.85902 -3.72486 0
M  V30 7754 H 794.192 -3.06832 -2.53178 0
M  V30 7755 H 790.931 -6.06556 -2.48535 0
M  V30 7756 H 790.451 -4.78259 -3.61979 0
M  V30 7757 H 792.13 -5.37661 -3.59902 0
M  V30 7758 N 792.262 0.832906 -1.33792 0
M  V30 7759 C 793.225 1.92471 -1.24449 0
M  V30 7760 C 794.225 1.59981 -0.162085 0
M  V30 7761 O 795.415 1.69208 -0.414029 0
M  V30 7762 C 792.547 3.28278 -0.919044 0
M  V30 7763 H 793.74 2.0218 -2.21502 0
M  V30 7764 H 791.293 1.0257 -1.17936 0
M  V30 7765 H 792.028 3.24263 0.048738 0
M  V30 7766 H 791.813 3.53241 -1.70187 0
M  V30 7767 H 793.303 4.08253 -0.878576 0
M  V30 7768 N 793.74 1.17359 1.05189 0
M  V30 7769 C 794.986 0.963413 1.78455 0
M  V30 7770 C 795.319 -0.506703 1.87473 0
M  V30 7771 O 794.594 -1.37611 1.37453 0
M  V30 7772 C 794.877 1.60519 3.22344 0
M  V30 7773 C 794.73 3.14741 3.21338 0
M  V30 7774 C 796.049 1.3091 4.20179 0
M  V30 7775 H 793.168 0.351412 0.647826 0
M  V30 7776 H 795.81 1.44858 1.22948 0
M  V30 7777 H 793.96 1.19265 3.69741 0
M  V30 7778 H 795.632 3.65053 2.82017 0
M  V30 7779 H 793.875 3.4749 2.59679 0
M  V30 7780 H 794.546 3.54775 4.22894 0
M  V30 7781 H 797.022 1.66635 3.81277 0
M  V30 7782 H 795.898 1.784 5.191 0
M  V30 7783 H 796.159 0.229908 4.41502 0
M  V30 7784 N 795.218 -1.23913 0.973828 0
M  V30 7785 C 796.443 -1.96735 0.656511 0
M  V30 7786 C 796.868 -1.71682 -0.768571 0
M  V30 7787 O 796.226 -0.984267 -1.52256 0
M  V30 7788 C 796.274 -3.48004 0.944735 0
M  V30 7789 O 795.378 -4.12387 0.0333357 0
M  V30 7790 H 794.719 -0.616119 0.247575 0
M  V30 7791 H 797.249 -1.57525 1.30564 0
M  V30 7792 H 797.259 -3.98424 0.87876 0
M  V30 7793 H 795.934 -3.65567 1.98328 0
M  V30 7794 H 794.511 -3.72585 0.153157 0
M  V30 7795 N 796.696 -0.74468 -1.38897 0
M  V30 7796 C 797.942 -0.297324 -2.00609 0
M  V30 7797 C 798.275 1.11547 -1.58968 0
M  V30 7798 O 797.55 1.76227 -0.823057 0
M  V30 7799 C 797.833 -0.410125 -3.57757 0
M  V30 7800 C 797.686 -1.86338 -4.09387 0
M  V30 7801 C 799.005 0.20176 -4.39637 0
M  V30 7802 H 796.124 -0.109509 -0.728819 0
M  V30 7803 H 798.766 -0.942653 -1.64967 0
M  V30 7804 H 796.916 0.139287 -3.8825 0
M  V30 7805 H 798.588 -2.47042 -3.89574 0
M  V30 7806 H 796.831 -2.38146 -3.62586 0
M  V30 7807 H 797.502 -1.89352 -5.18507 0
M  V30 7808 H 799.978 -0.266703 -4.15244 0
M  V30 7809 H 798.854 0.0925415 -5.48822 0
M  V30 7810 H 799.115 1.289 -4.22891 0
M  V30 7811 N 798.174 1.49689 -0.493057 0
M  V30 7812 C 799.422 2.02027 0.0541642 0
M  V30 7813 C 799.743 1.37554 1.38217 0
M  V30 7814 O 799.013 0.528174 1.88646 0
M  V30 7815 H 797.593 0.746646 0.0230069 0
M  V30 7816 H 800.255 1.83795 -0.648489 0
M  V30 7817 H 799.351 3.11523 0.189652 0
M  V30 7818 N 799.652 0.226554 1.55963 0
M  V30 7819 C 800.877 -0.411527 2.03276 0
M  V30 7820 C 801.302 -1.52206 1.10521 0
M  V30 7821 O 800.66 -1.81054 0.0943217 0
M  V30 7822 C 800.708 -0.915694 3.4878 0
M  V30 7823 O 799.812 -2.02672 3.59163 0
M  V30 7824 H 799.153 -0.0924907 0.657527 0
M  V30 7825 H 801.683 0.346656 2.01642 0
M  V30 7826 H 801.693 -1.22421 3.892 0
M  V30 7827 H 800.368 -0.102915 4.15773 0
M  V30 7828 H 798.945 -1.72445 3.30632 0
M  V30 7829 N 801.13 -1.57531 -0.0467866 0
M  V30 7830 C 802.37 -1.90294 -0.746171 0
M  V30 7831 C 802.734 -0.823194 -1.73458 0
M  V30 7832 O 803.935 -1.03463 -2.48091 0
M  V30 7833 C 802.206 -3.28249 -1.41378 0
M  V30 7834 S 803.765 -3.82812 -2.14477 0
M  V30 7835 H 800.583 -0.666496 -0.247598 0
M  V30 7836 H 803.185 -1.955 -0.00135143 0
M  V30 7837 H 801.889 -4.04712 -0.680937 0
M  V30 7838 H 801.42 -3.26302 -2.19751 0
M  V30 7839 H 803.435 -3.60111 -3.41372 0
M  V30 7840 N 802.608 0.318715 -1.54344 0
M  V30 7841 C 803.854 1.05765 -1.73037 0
M  V30 7842 C 804.187 1.87514 -0.505181 0
M  V30 7843 O 803.462 1.88021 0.497838 0
M  V30 7844 C 803.745 1.97836 -3.00887 0
M  V30 7845 C 803.598 1.19384 -4.33668 0
M  V30 7846 C 804.917 2.97285 -3.24514 0
M  V30 7847 H 802.036 0.383104 -0.629603 0
M  V30 7848 H 804.678 0.333864 -1.87044 0
M  V30 7849 H 802.828 2.59552 -2.89076 0
M  V30 7850 H 804.5 0.600906 -4.57369 0
M  V30 7851 H 802.743 0.496198 -4.30953 0
M  V30 7852 H 803.414 1.87014 -5.19355 0
M  V30 7853 H 805.89 2.45693 -3.35819 0
M  V30 7854 H 804.766 3.58887 -4.15321 0
M  V30 7855 H 805.027 3.70003 -2.41971 0
M  V30 7856 N 804.086 1.46499 0.581025 0
M  V30 7857 C 805.332 1.52121 1.34116 0
M  V30 7858 C 805.665 0.173031 1.93428 0
M  V30 7859 O 804.94 -0.815729 1.76568 0
M  V30 7860 C 805.223 2.62108 2.46924 0
M  V30 7861 C 805.076 4.06462 1.92636 0
M  V30 7862 C 806.395 2.68167 3.48962 0
M  V30 7863 H 803.514 0.5538 0.486287 0
M  V30 7864 H 806.156 1.78443 0.652538 0
M  V30 7865 H 804.306 2.39794 3.05665 0
M  V30 7866 H 805.978 4.40068 1.3834 0
M  V30 7867 H 804.221 4.15862 1.23455 0
M  V30 7868 H 804.892 4.79152 2.74076 0
M  V30 7869 H 807.368 2.8823 3.00104 0
M  V30 7870 H 806.244 3.46942 4.2535 0
M  V30 7871 H 806.505 1.74284 4.06297 0
M  V30 7872 N 805.565 -0.825799 1.34232 0
M  V30 7873 C 806.981 -1.11848 1.13851 0
M  V30 7874 C 807.181 -2.01405 -0.0619031 0
M  V30 7875 O 806.237 -2.41465 -0.738287 0
M  V30 7876 C 807.55 -1.76797 2.43235 0
M  V30 7877 C 809.098 -1.89304 2.49265 0
M  V30 7878 C 809.573 -2.57669 3.78643 0
M  V30 7879 N 811.064 -2.65171 3.79788 0
M  V30 7880 C 811.799 -3.1879 4.76614 0
M  V30 7881 N 811.295 -3.72995 5.83821 0
M  V30 7882 N 813.088 -3.17164 4.64073 0
M  V30 7883 H 805.239 -0.230049 2.11151 0
M  V30 7884 H 807.502 -0.164609 0.9336 0
M  V30 7885 H 807.208 -1.18455 3.31152 0
M  V30 7886 H 807.082 -2.76693 2.56361 0
M  V30 7887 H 809.469 -2.46796 1.6179 0
M  V30 7888 H 809.55 -0.883191 2.4007 0
M  V30 7889 H 809.194 -2.00833 4.66507 0
M  V30 7890 H 809.124 -3.59152 3.8512 0
M  V30 7891 H 811.615 -2.26746 3.02315 0
M  V30 7892 H 811.928 -4.12151 6.53721 0
M  V30 7893 H 810.273 -3.71246 5.87538 0
M  V30 7894 H 813.464 -2.74082 3.79469 0
M  V30 7895 H 813.637 -3.58647 5.397 0
M  V30 7896 N 807.043 -1.17915 -1.04565 0
M  V30 7897 C 808.32 -0.881187 -1.74627 0
M  V30 7898 C 808.7 0.617123 -2.01878 0
M  V30 7899 O 808.048 1.57032 -1.65991 0
M  V30 7900 C 808.258 -1.72299 -3.03503 0
M  V30 7901 C 809.606 -1.94688 -3.77335 0
M  V30 7902 O 810.63 -1.6931 -3.13389 0
M  V30 7903 O 809.489 -2.37379 -4.92253 0
M  V30 7904 H 806.583 -0.326864 -0.759664 0
M  V30 7905 H 809.129 -1.28642 -1.10676 0
M  V30 7906 H 807.901 -2.73891 -2.79462 0
M  V30 7907 H 807.524 -1.31593 -3.75192 0
M  V30 7908 N 808.521 1.23394 -0.980386 0
M  V30 7909 C 809.484 2.23092 -0.525619 0
M  V30 7910 C 810.484 1.56129 0.384745 0
M  V30 7911 O 811.674 1.73284 0.178439 0
M  V30 7912 C 808.806 3.40074 0.23712 0
M  V30 7913 H 809.999 2.64839 -1.40714 0
M  V30 7914 H 807.552 1.36227 -0.766275 0
M  V30 7915 H 808.287 3.03783 1.13518 0
M  V30 7916 H 808.072 3.89883 -0.416356 0
M  V30 7917 H 809.562 4.14043 0.543892 0
M  V30 7918 N 809.999 0.752036 1.385 0
M  V30 7919 C 811.227 0.318274 2.04437 0
M  V30 7920 C 811.642 -1.05285 1.56718 0
M  V30 7921 O 810.999 -1.66844 0.73956 0
M  V30 7922 C 811.05 0.330106 3.5999 0
M  V30 7923 O 810.771 1.64712 4.05957 0
M  V30 7924 C 812.272 -0.117713 4.43144 0
M  V30 7925 H 809.492 0.136228 0.657026 0
M  V30 7926 H 812.036 1.02045 1.7722 0
M  V30 7927 H 810.191 -0.323323 3.86048 0
M  V30 7928 H 810.605 1.57225 5.0038 0
M  V30 7929 H 812.079 -0.0582735 5.51969 0
M  V30 7930 H 812.556 -1.16538 4.23457 0
M  V30 7931 H 813.162 0.506784 4.2227 0
M  V30 7932 N 811.477 -1.49425 0.500989 0
M  V30 7933 C 812.725 -2.02053 -0.0434495 0
M  V30 7934 C 813.046 -1.38285 -1.37486 0
M  V30 7935 O 812.316 -0.538171 -1.88363 0
M  V30 7936 H 810.896 -0.746757 -0.0190469 0
M  V30 7937 H 813.558 -1.83449 0.658227 0
M  V30 7938 H 812.654 -3.11619 -0.173129 0
M  V30 7939 N 812.955 -0.234822 -1.55841 0
M  V30 7940 C 813.903 0.686145 -2.22249 0
M  V30 7941 C 814.897 1.18948 -1.20614 0
M  V30 7942 O 816.103 1.14777 -1.38659 0
M  V30 7943 H 812.478 0.239724 -0.712767 0
M  V30 7944 H 814.449 0.102762 -2.98223 0
M  V30 7945 C 813.198 1.8776 -2.92646 0
M  V30 7946 H 812.521 1.49943 -3.70617 0
M  V30 7947 H 813.961 2.4995 -3.42493 0
M  V30 7948 C 812.42 2.74127 -1.95847 0
M  V30 7949 O 812.95 3.7329 -1.48384 0
M  V30 7950 N 811.156 2.4044 -1.63209 0
M  V30 7951 H 810.703 1.59854 -2.02001 0
M  V30 7952 H 810.661 2.98504 -0.987063 0
M  V30 7953 N 814.433 1.57553 0.0384317 0
M  V30 7954 C 815.679 1.89121 0.732199 0
M  V30 7955 C 816.012 0.831404 1.75503 0
M  V30 7956 O 815.287 -0.154642 1.93884 0
M  V30 7957 C 815.57 3.31338 1.41021 0
M  V30 7958 C 815.423 4.48004 0.401532 0
M  V30 7959 C 816.742 3.72318 2.34665 0
M  V30 7960 H 813.861 0.687819 0.264715 0
M  V30 7961 H 816.503 1.89999 -0.00496279 0
M  V30 7962 H 814.653 3.3072 2.03854 0
M  V30 7963 H 816.325 4.60755 -0.224159 0
M  V30 7964 H 814.568 4.32895 -0.280092 0
M  V30 7965 H 815.239 5.44377 0.91423 0
M  V30 7966 H 817.715 3.74243 1.81883 0
M  V30 7967 H 816.591 4.72652 2.7909 0
M  V30 7968 H 816.852 3.04062 3.20934 0
M  V30 7969 N 815.911 -0.310526 1.54511 0
M  V30 7970 C 816.859 -1.40272 1.85544 0
M  V30 7971 C 817.853 -1.52941 0.728377 0
M  V30 7972 O 819.059 -1.55172 0.912234 0
M  V30 7973 H 815.434 -0.468355 0.588343 0
M  V30 7974 H 817.405 -1.11329 2.76855 0
M  V30 7975 C 816.154 -2.76279 2.11105 0
M  V30 7976 H 815.477 -2.67308 2.97298 0
M  V30 7977 H 816.917 -3.51736 2.36765 0
M  V30 7978 C 815.376 -3.24472 0.906618 0
M  V30 7979 O 815.906 -4.01514 0.122358 0
M  V30 7980 N 814.112 -2.81676 0.714632 0
M  V30 7981 H 813.659 -2.19143 1.35404 0
M  V30 7982 H 813.617 -3.14272 -0.089703 0
M  V30 7983 N 817.389 -1.46805 -0.573248 0
M  V30 7984 C 818.666 -1.43082 -1.33368 0
M  V30 7985 C 819.046 -0.119252 -2.10763 0
M  V30 7986 O 818.394 0.899239 -2.10062 0
M  V30 7987 C 818.604 -2.66643 -2.25172 0
M  V30 7988 C 819.952 -3.13188 -2.86702 0
M  V30 7989 O 820.976 -2.67258 -2.35482 0
M  V30 7990 O 819.835 -3.92994 -3.79761 0
M  V30 7991 H 816.929 -0.569451 -0.599712 0
M  V30 7992 H 819.475 -1.58984 -0.59348 0
M  V30 7993 H 818.247 -3.53649 -1.67475 0
M  V30 7994 H 817.87 -2.53247 -3.06516 0
M  V30 7995 N 818.867 0.818669 -1.34668 0
M  V30 7996 C 820.095 1.60674 -1.30351 0
M  V30 7997 C 820.51 1.88408 0.121546 0
M  V30 7998 O 819.867 1.47849 1.06991 0
M  V30 7999 C 819.918 2.94516 -2.09625 0
M  V30 8000 O 819.639 2.6799 -3.46573 0
M  V30 8001 C 821.14 3.8891 -2.12754 0
M  V30 8002 H 818.36 0.499306 -0.448258 0
M  V30 8003 H 820.904 1.01828 -1.77345 0
M  V30 8004 H 819.059 3.49908 -1.66262 0
M  V30 8005 H 819.473 3.53361 -3.87603 0
M  V30 8006 H 820.947 4.79972 -2.72637 0
M  V30 8007 H 821.424 4.24599 -1.12306 0
M  V30 8008 H 822.03 3.39453 -2.56225 0
M  V30 8009 N 820.346 1.18468 1.03938 0
M  V30 8010 C 821.595 0.975193 1.76558 0
M  V30 8011 C 821.908 -0.495978 1.89207 0
M  V30 8012 O 823.114 -0.824009 2.58694 0
M  V30 8013 C 821.57 1.69579 3.17444 0
M  V30 8014 C 821.178 3.20636 3.12884 0
M  V30 8015 C 822.922 1.56917 3.94433 0
M  V30 8016 C 820.829 3.8533 4.48636 0
M  V30 8017 H 819.759 0.361244 0.66183 0
M  V30 8018 H 822.41 1.41854 1.16403 0
M  V30 8019 H 820.792 1.18022 3.78004 0
M  V30 8020 H 821.966 3.79228 2.61768 0
M  V30 8021 H 820.281 3.33454 2.49394 0
M  V30 8022 H 822.878 2.02611 4.94826 0
M  V30 8023 H 823.221 0.521638 4.13019 0
M  V30 8024 H 823.754 2.05762 3.40451 0
M  V30 8025 H 820.493 4.90136 4.35255 0
M  V30 8026 H 820.013 3.31526 4.99851 0
M  V30 8027 H 821.692 3.88269 5.17549 0
M  V30 8028 N 821.824 -1.22873 0.986916 0
M  V30 8029 C 823.07 -1.91746 0.660401 0
M  V30 8030 C 823.403 -1.76738 -0.804812 0
M  V30 8031 O 822.678 -1.13246 -1.58131 0
M  V30 8032 C 822.961 -3.44156 1.05966 0
M  V30 8033 C 822.814 -3.68242 2.58298 0
M  V30 8034 C 824.133 -4.35874 0.60842 0
M  V30 8035 H 821.252 -0.696347 0.241391 0
M  V30 8036 H 823.894 -1.44867 1.22937 0
M  V30 8037 H 822.044 -3.84213 0.575534 0
M  V30 8038 H 823.716 -3.37626 3.14335 0
M  V30 8039 H 821.959 -3.12728 3.00638 0
M  V30 8040 H 822.63 -4.74956 2.81285 0
M  V30 8041 H 825.106 -4.03299 1.02417 0
M  V30 8042 H 823.982 -5.41201 0.916142 0
M  V30 8043 H 824.243 -4.39364 -0.491086 0
M  V30 8044 N 823.302 -0.75937 -1.38099 0
M  V30 8045 C 824.53 -0.329111 -2.04266 0
M  V30 8046 C 824.945 1.04453 -1.57274 0
M  V30 8047 O 824.302 1.66449 -0.748397 0
M  V30 8048 C 824.353 -0.349192 -3.5981 0
M  V30 8049 O 824.074 -1.66863 -4.05078 0
M  V30 8050 C 825.575 0.0942106 -4.432 0
M  V30 8051 H 822.795 -0.13971 -0.656294 0
M  V30 8052 H 825.339 -1.02984 -1.76677 0
M  V30 8053 H 823.494 0.302846 -3.86214 0
M  V30 8054 H 823.908 -1.59877 -4.9954 0
M  V30 8055 H 825.382 0.0290004 -5.51992 0
M  V30 8056 H 825.859 1.1429 -4.24069 0
M  V30 8057 H 826.465 -0.529171 -4.21995 0
M  V30 8058 N 824.78 1.49157 -0.508906 0
M  V30 8059 C 825.69 2.33045 0.269656 0
M  V30 8060 C 826.706 1.45143 0.959662 0
M  V30 8061 O 827.882 1.78155 0.939295 0
M  V30 8062 C 824.947 3.20772 1.31554 0
M  V30 8063 C 824.008 4.24531 0.638131 0
M  V30 8064 C 823.241 5.08065 1.63418 0
M  V30 8065 O 823.464 4.93238 2.86483 0
M  V30 8066 O 822.398 5.90117 1.18516 0
M  V30 8067 H 826.224 3.00821 -0.417183 0
M  V30 8068 H 823.809 1.46938 -0.270119 0
M  V30 8069 H 825.691 3.75095 1.92047 0
M  V30 8070 H 824.366 2.55681 1.98516 0
M  V30 8071 H 823.273 3.74099 -0.00674357 0
M  V30 8072 H 824.606 4.92199 0.0108155 0
M  V30 8073 N 826.258 0.243083 1.55714 0
M  V30 8074 C 827.188 -0.652336 2.24203 0
M  V30 8075 C 828.169 -1.1843 1.221 0
M  V30 8076 O 829.354 -1.22435 1.50743 0
M  V30 8077 C 826.484 -1.85111 2.93856 0
M  V30 8078 C 825.438 -1.45208 4.02615 0
M  V30 8079 C 824.764 -2.73137 4.59674 0
M  V30 8080 C 826.064 -0.625988 5.18535 0
M  V30 8081 H 827.758 -0.0812504 2.9929 0
M  V30 8082 H 825.304 -0.0376388 1.43951 0
M  V30 8083 H 827.257 -2.48314 3.40468 0
M  V30 8084 H 825.981 -2.44751 2.16251 0
M  V30 8085 H 824.64 -0.843406 3.56766 0
M  V30 8086 H 824.288 -3.30967 3.78774 0
M  V30 8087 H 823.988 -2.47163 5.33089 0
M  V30 8088 H 825.512 -3.37245 5.09017 0
M  V30 8089 H 826.926 -1.16223 5.61396 0
M  V30 8090 H 825.323 -0.462465 5.98315 0
M  V30 8091 H 826.393 0.362652 4.83542 0
M  V30 8092 N 827.736 -1.57571 -0.0300757 0
M  V30 8093 C 828.964 -1.93485 -0.732891 0
M  V30 8094 C 829.379 -0.842758 -1.68947 0
M  V30 8095 O 828.736 0.180904 -1.81601 0
M  V30 8096 C 828.787 -3.29328 -1.49082 0
M  V30 8097 O 828.508 -4.34341 -0.572639 0
M  V30 8098 C 830.009 -3.79517 -2.29088 0
M  V30 8099 H 827.229 -0.638588 -0.206026 0
M  V30 8100 H 829.773 -2.04496 0.0120966 0
M  V30 8101 H 827.928 -3.19716 -2.1877 0
M  V30 8102 H 828.342 -5.12748 -1.10406 0
M  V30 8103 H 829.816 -4.77081 -2.77665 0
M  V30 8104 H 830.293 -3.10659 -3.10464 0
M  V30 8105 H 830.899 -3.92208 -1.64477 0
M  V30 8106 N 829.214 0.302327 -1.54673 0
M  V30 8107 C 830.162 1.39286 -1.86285 0
M  V30 8108 C 831.156 1.52553 -0.736478 0
M  V30 8109 O 832.362 1.54686 -0.92045 0
M  V30 8110 H 828.737 0.465228 -0.590819 0
M  V30 8111 H 830.708 1.09859 -2.77441 0
M  V30 8112 C 829.457 2.75155 -2.12567 0
M  V30 8113 H 828.78 2.65728 -2.98712 0
M  V30 8114 H 830.22 3.50476 -2.38627 0
M  V30 8115 C 828.679 3.23987 -0.923813 0
M  V30 8116 O 829.209 4.01443 -0.143649 0
M  V30 8117 N 827.415 2.81293 -0.72956 0
M  V30 8118 H 826.962 2.18421 -1.36565 0
M  V30 8119 H 826.92 3.14315 0.0730351 0
M  V30 8120 N 830.692 1.47107 0.565454 0
M  V30 8121 C 831.932 1.5488 1.33385 0
M  V30 8122 C 832.296 0.202804 1.90926 0
M  V30 8123 O 833.497 0.155345 2.68351 0
M  V30 8124 C 831.768 2.62969 2.42037 0
M  V30 8125 S 833.327 2.90269 3.29074 0
M  V30 8126 H 830.145 0.547008 0.454206 0
M  V30 8127 H 832.747 1.8444 0.648228 0
M  V30 8128 H 831.451 3.59376 1.98185 0
M  V30 8129 H 830.982 2.35197 3.15351 0
M  V30 8130 H 832.997 2.26854 4.41307 0
M  V30 8131 N 832.17 -0.811516 1.35101 0
M  V30 8132 C 833.398 -1.59981 1.31201 0
M  V30 8133 C 833.813 -1.8847 -0.111552 0
M  V30 8134 O 833.17 -1.48414 -1.06205 0
M  V30 8135 C 833.221 -2.934 2.11184 0
M  V30 8136 O 832.942 -2.66148 3.4799 0
M  V30 8137 C 834.443 -3.87776 2.14813 0
M  V30 8138 H 831.663 -0.496921 0.450899 0
M  V30 8139 H 834.207 -1.00886 1.77883 0
M  V30 8140 H 832.362 -3.49022 1.68115 0
M  V30 8141 H 832.776 -3.51301 3.89471 0
M  V30 8142 H 834.25 -4.7852 2.75178 0
M  V30 8143 H 834.727 -4.23997 1.14556 0
M  V30 8144 H 835.333 -3.3809 2.58022 0
M  V30 8145 N 833.648 -1.19017 -1.03309 0
M  V30 8146 C 834.873 -1.01598 -1.80811 0
M  V30 8147 C 835.298 0.430773 -1.83101 0
M  V30 8148 O 834.656 1.30946 -1.25391 0
M  V30 8149 C 834.704 -1.5845 -3.23923 0
M  V30 8150 O 833.808 -0.810972 -4.04348 0
M  V30 8151 H 833.149 -0.359398 -0.558327 0
M  V30 8152 H 835.679 -1.57945 -1.30055 0
M  V30 8153 H 835.689 -1.61486 -3.74682 0
M  V30 8154 H 834.364 -2.63752 -3.21571 0
M  V30 8155 H 832.941 -0.85353 -3.63 0
M  V30 8156 N 835.127 1.22348 -0.993418 0
M  V30 8157 C 836.09 2.22522 -0.549251 0
M  V30 8158 C 837.09 1.56529 0.368164 0
M  V30 8159 O 838.28 1.73463 0.16005 0
M  V30 8160 C 835.412 3.40307 0.201037 0
M  V30 8161 H 836.605 2.63332 -1.43515 0
M  V30 8162 H 834.158 1.35407 -0.78068 0
M  V30 8163 H 834.893 3.0497 1.10289 0
M  V30 8164 H 834.678 3.8942 -0.457685 0
M  V30 8165 H 836.168 4.14597 0.499946 0
M  V30 8166 N 836.605 0.766683 1.37694 0
M  V30 8167 C 837.568 0.155849 2.2867 0
M  V30 8168 C 838.568 -0.633509 1.47795 0
M  V30 8169 O 839.758 -0.457844 1.68076 0
M  V30 8170 C 836.89 -0.786965 3.31692 0
M  V30 8171 H 838.083 0.957748 2.84196 0
M  V30 8172 H 835.636 0.534554 1.46875 0
M  V30 8173 H 836.371 -1.61406 2.8128 0
M  V30 8174 H 836.156 -0.223182 3.91464 0
M  V30 8175 H 837.646 -1.20994 3.99688 0
M  V30 8176 N 838.083 -1.48885 0.516809 0
M  V30 8177 C 839.323 -2.0439 -0.0202232 0
M  V30 8178 C 839.687 -1.38652 -1.32814 0
M  V30 8179 O 840.888 -1.84968 -1.95039 0
M  V30 8180 C 839.159 -3.57071 -0.153257 0
M  V30 8181 S 840.718 -4.34074 -0.642256 0
M  V30 8182 H 837.536 -0.710977 0.00576322 0
M  V30 8183 H 840.138 -1.82753 0.694376 0
M  V30 8184 H 838.842 -4.02454 0.803695 0
M  V30 8185 H 838.373 -3.83139 -0.892627 0
M  V30 8186 H 840.388 -4.58011 -1.90893 0
M  V30 8187 N 839.561 -0.251338 -1.55583 0
M  V30 8188 C 840.508 0.646337 -2.21565 0
M  V30 8189 C 841.478 1.16796 -1.18102 0
M  V30 8190 O 842.663 1.22162 -1.46564 0
M  V30 8191 C 839.803 1.83557 -2.92234 0
M  V30 8192 C 838.916 1.35006 -4.10363 0
M  V30 8193 C 838.051 2.4992 -4.68736 0
M  V30 8194 C 837.09 1.98253 -5.79105 0
M  V30 8195 N 836.227 3.06551 -6.31642 0
M  V30 8196 H 841.067 0.0769881 -2.97901 0
M  V30 8197 H 838.604 0.026238 -1.47077 0
M  V30 8198 H 840.562 2.53425 -3.31408 0
M  V30 8199 H 839.192 2.37733 -2.18364 0
M  V30 8200 H 838.244 0.545274 -3.76472 0
M  V30 8201 H 839.556 0.931435 -4.90026 0
M  V30 8202 H 838.71 3.27823 -5.10507 0
M  V30 8203 H 837.449 2.95086 -3.88298 0
M  V30 8204 H 836.454 1.18822 -5.36807 0
M  V30 8205 H 837.679 1.54051 -6.61396 0
M  V30 8206 H 835.625 3.51143 -5.54107 0
M  V30 8207 H 835.542 2.69033 -7.06511 0
M  V30 8208 H 836.81 3.84499 -6.78071 0
M  V30 8209 N 841.039 1.57585 0.0217189 0
M  V30 8210 C 841.969 2.10073 1.01939 0
M  V30 8211 C 842.95 1.0049 1.37243 0
M  V30 8212 O 844.135 1.28055 1.45999 0
M  V30 8213 C 841.265 2.58618 2.31806 0
M  V30 8214 C 840.219 3.72531 2.10724 0
M  V30 8215 C 839.545 4.07309 3.46415 0
M  V30 8216 C 840.845 5.00672 1.48743 0
M  V30 8217 H 842.539 2.9368 0.582432 0
M  V30 8218 H 840.085 1.41277 0.278715 0
M  V30 8219 H 842.038 2.9396 3.01936 0
M  V30 8220 H 840.762 1.72104 2.77575 0
M  V30 8221 H 839.421 3.37549 1.43025 0
M  V30 8222 H 839.069 3.17851 3.89846 0
M  V30 8223 H 838.769 4.84042 3.33132 0
M  V30 8224 H 840.293 4.45192 4.17895 0
M  V30 8225 H 841.707 5.33925 2.088 0
M  V30 8226 H 840.104 5.82065 1.46013 0
M  V30 8227 H 841.174 4.82769 0.45408 0
M  V30 8228 N 842.517 -0.29412 1.54831 0
M  V30 8229 C 843.465 -1.38296 1.87021 0
M  V30 8230 C 844.459 -1.5216 0.744557 0
M  V30 8231 O 845.665 -1.54196 0.92864 0
M  V30 8232 H 842.04 -0.462088 0.593278 0
M  V30 8233 H 844.011 -1.08386 2.7802 0
M  V30 8234 C 842.76 -2.74024 2.14023 0
M  V30 8235 H 842.083 -2.6414 3.00117 0
M  V30 8236 H 843.523 -3.49205 2.40482 0
M  V30 8237 C 841.982 -3.23492 0.940982 0
M  V30 8238 O 842.512 -4.01361 0.164937 0
M  V30 8239 N 840.718 -2.80902 0.744467 0
M  V30 8240 H 840.265 -2.17694 1.37721 0
M  V30 8241 H 840.223 -3.14349 -0.0563652 0
M  V30 8242 N 843.995 -1.47404 -0.557645 0
M  V30 8243 C 845.242 -1.54007 -1.31484 0
M  V30 8244 C 845.57 -0.202162 -1.93447 0
M  V30 8245 O 844.825 0.804901 -1.78381 0
M  V30 8246 C 845.124 -2.6061 -2.44575 0
M  V30 8247 C 844.79 -4.03896 -2.00446 0
M  V30 8248 C 843.452 -4.42901 -1.88127 0
M  V30 8249 C 845.804 -4.93804 -1.66754 0
M  V30 8250 C 843.132 -5.6965 -1.40411 0
M  V30 8251 C 845.484 -6.21016 -1.20509 0
M  V30 8252 C 844.148 -6.58903 -1.06786 0
M  V30 8253 H 843.418 -0.563552 -0.481134 0
M  V30 8254 H 846.065 -1.81001 -0.625375 0
M  V30 8255 H 844.37 -2.27371 -3.19076 0
M  V30 8256 H 846.067 -2.62941 -3.02759 0
M  V30 8257 H 842.657 -3.73077 -2.10977 0
M  V30 8258 H 846.841 -4.64369 -1.75144 0
M  V30 8259 H 842.097 -5.97755 -1.2845 0
M  V30 8260 H 846.271 -6.90095 -0.935001 0
M  V30 8261 H 843.898 -7.57008 -0.695891 0
M  V30 8262 N 845.473 0.80434 -1.35529 0
M  V30 8263 C 846.75 1.5486 -1.1949 0
M  V30 8264 C 847.13 2.09897 0.22506 0
M  V30 8265 O 846.478 1.92643 1.22886 0
M  V30 8266 C 846.688 2.65535 -2.26478 0
M  V30 8267 C 848.036 3.33814 -2.62399 0
M  V30 8268 O 849.06 2.75807 -2.25409 0
M  V30 8269 O 847.919 4.38612 -3.26009 0
M  V30 8270 H 845.013 0.68433 -0.464351 0
M  V30 8271 H 847.559 0.844107 -1.47217 0
M  V30 8272 H 846.331 2.22754 -3.21709 0
M  V30 8273 H 845.954 3.43617 -2.00033 0
M  V30 8274 N 846.951 1.19563 1.02676 0
M  V30 8275 C 848.198 0.999568 1.7611 0
M  V30 8276 C 848.526 -0.469432 1.8875 0
M  V30 8277 O 847.781 -1.36481 1.40255 0
M  V30 8278 C 848.08 1.61619 3.18769 0
M  V30 8279 C 847.746 3.11366 3.26132 0
M  V30 8280 C 846.408 3.52234 3.27848 0
M  V30 8281 C 848.76 4.07374 3.25109 0
M  V30 8282 C 846.088 4.87658 3.26201 0
M  V30 8283 C 848.44 5.42731 3.25002 0
M  V30 8284 C 847.104 5.83027 3.25017 0
M  V30 8285 H 846.374 0.365768 0.644434 0
M  V30 8286 H 849.021 1.48838 1.20497 0
M  V30 8287 H 847.326 1.04974 3.77476 0
M  V30 8288 H 849.023 1.43975 3.74262 0
M  V30 8289 H 845.613 2.78804 3.25525 0
M  V30 8290 H 849.797 3.76842 3.22961 0
M  V30 8291 H 845.053 5.18156 3.24537 0
M  V30 8292 H 849.227 6.16879 3.23161 0
M  V30 8293 H 846.854 6.87936 3.23494 0
M  V30 8294 N 848.429 -1.21819 0.999893 0
M  V30 8295 C 849.654 -1.95298 0.698094 0
M  V30 8296 C 850.079 -1.73273 -0.731982 0
M  V30 8297 O 849.437 -1.01634 -1.50134 0
M  V30 8298 C 849.485 -3.45922 1.01834 0
M  V30 8299 O 848.589 -4.12223 0.120801 0
M  V30 8300 H 847.93 -0.610729 0.260588 0
M  V30 8301 H 850.46 -1.5472 1.33876 0
M  V30 8302 H 850.47 -3.96471 0.963074 0
M  V30 8303 H 849.145 -3.61278 2.06037 0
M  V30 8304 H 847.722 -3.72177 0.232153 0
M  V30 8305 N 849.908 -0.773975 -1.37286 0
M  V30 8306 C 851.133 -0.349561 -2.04433 0
M  V30 8307 C 851.558 1.02082 -1.5799 0
M  V30 8308 O 850.916 1.65458 -0.741172 0
M  V30 8309 C 850.964 -0.404292 -3.58326 0
M  V30 8310 O 850.068 0.594447 -4.08093 0
M  V30 8311 H 849.409 -0.150959 -0.646612 0
M  V30 8312 H 851.939 -1.05079 -1.75555 0
M  V30 8313 H 851.949 -0.262378 -4.07155 0
M  V30 8314 H 850.624 -1.40403 -3.91484 0
M  V30 8315 H 849.201 0.415468 -3.70578 0
M  V30 8316 N 851.386 1.48609 -0.524698 0
M  V30 8317 C 852.626 2.04398 0.00938367 0
M  V30 8318 C 852.99 1.39355 1.32077 0
M  V30 8319 O 854.191 1.86 1.94055 0
M  V30 8320 C 852.462 3.57148 0.134318 0
M  V30 8321 S 854.021 4.34409 0.619227 0
M  V30 8322 H 850.839 0.710936 -0.00953362 0
M  V30 8323 H 853.441 1.82382 -0.704058 0
M  V30 8324 H 852.145 4.02022 -0.825027 0
M  V30 8325 H 851.676 3.83607 0.872296 0
M  V30 8326 H 853.691 4.59017 1.88462 0
M  V30 8327 N 852.864 0.259585 1.55447 0
M  V30 8328 C 853.774 -0.645026 2.25558 0
M  V30 8329 C 854.79 -1.18291 1.27606 0
M  V30 8330 O 855.966 -1.21649 1.6051 0
M  V30 8331 C 853.031 -1.81964 2.9511 0
M  V30 8332 C 852.092 -1.31997 4.08504 0
M  V30 8333 C 851.325 -2.43861 4.74729 0
M  V30 8334 O 851.548 -3.62876 4.40088 0
M  V30 8335 O 850.482 -2.12898 5.6299 0
M  V30 8336 H 854.308 -0.0775399 3.03601 0
M  V30 8337 H 851.893 0.0275859 1.49375 0
M  V30 8338 H 853.775 -2.50485 3.38873 0
M  V30 8339 H 852.45 -2.37451 2.19997 0
M  V30 8340 H 851.357 -0.601676 3.6923 0
M  V30 8341 H 852.69 -0.811045 4.85472 0
M  V30 8342 N 854.342 -1.57594 -0.0133615 0
M  V30 8343 C 855.567 -1.94649 -0.715996 0
M  V30 8344 C 855.992 -0.860786 -1.67249 0
M  V30 8345 O 855.35 0.182228 -1.80382 0
M  V30 8346 C 855.398 -3.30789 -1.43566 0
M  V30 8347 O 854.502 -3.24148 -2.54955 0
M  V30 8348 H 853.843 -0.635801 -0.191449 0
M  V30 8349 H 856.373 -2.04569 0.0358478 0
M  V30 8350 H 856.383 -3.66045 -1.80208 0
M  V30 8351 H 855.058 -4.09367 -0.734263 0
M  V30 8352 H 853.635 -3.00548 -2.20739 0
M  V30 8353 N 855.82 0.285905 -1.54985 0
M  V30 8354 C 857.045 1.04207 -1.7932 0
M  V30 8355 C 857.47 1.79622 -0.558343 0
M  V30 8356 O 856.828 1.74506 0.491661 0
M  V30 8357 C 856.876 1.98648 -3.0095 0
M  V30 8358 O 855.98 3.07207 -2.75132 0
M  V30 8359 H 855.321 0.298596 -0.593074 0
M  V30 8360 H 857.851 0.318736 -2.02102 0
M  V30 8361 H 857.861 2.4084 -3.29333 0
M  V30 8362 H 856.536 1.43167 -3.90482 0
M  V30 8363 H 855.113 2.69423 -2.57809 0
M  V30 8364 N 857.298 1.47698 0.54982 0
M  V30 8365 C 858.709 1.48474 1.13191 0
M  V30 8366 C 859.06 0.243504 1.94683 0
M  V30 8367 O 858.185 -0.651009 2.06375 0
M  V30 8368 C 858.78 2.69022 2.05944 0
M  V30 8369 C 857.339 2.72733 2.5941 0
M  V30 8370 C 856.486 2.41691 1.35944 0
M  V30 8371 H 859.437 1.55101 0.336048 0
M  V30 8372 H 859.458 2.46412 2.89934 0
M  V30 8373 H 858.97 3.59345 1.46605 0
M  V30 8374 H 857.071 1.86568 3.22526 0
M  V30 8375 H 857.184 3.73628 2.99899 0
M  V30 8376 H 855.548 1.92428 1.66864 0
M  V30 8377 H 856.331 3.34231 0.783869 0
M  V30 8378 N 858.776 -0.797141 1.35954 0
M  V30 8379 C 860.016 -1.56795 1.31128 0
M  V30 8380 C 860.38 -1.91683 -0.110364 0
M  V30 8381 O 861.581 -2.67305 -0.283093 0
M  V30 8382 C 859.852 -2.81577 2.20111 0
M  V30 8383 S 861.411 -3.71895 2.32894 0
M  V30 8384 H 858.229 -0.53711 0.465869 0
M  V30 8385 H 860.831 -0.939522 1.71445 0
M  V30 8386 H 859.535 -2.53986 3.22365 0
M  V30 8387 H 859.066 -3.49399 1.80786 0
M  V30 8388 H 861.081 -4.72322 1.52073 0
M  V30 8389 N 860.254 -1.20106 -1.0204 0
M  V30 8390 C 861.479 -1.0351 -1.79723 0
M  V30 8391 C 861.904 0.411328 -1.83548 0
M  V30 8392 O 861.262 1.29608 -1.26773 0
M  V30 8393 C 861.31 -1.61876 -3.22224 0
M  V30 8394 O 860.414 -0.853813 -4.03465 0
M  V30 8395 H 859.755 -0.365299 -0.554484 0
M  V30 8396 H 862.285 -1.59316 -1.28373 0
M  V30 8397 H 862.295 -1.65451 -3.72948 0
M  V30 8398 H 860.97 -2.67148 -3.18755 0
M  V30 8399 H 859.547 -0.891983 -3.62075 0
M  V30 8400 N 861.732 1.21287 -1.00634 0
M  V30 8401 C 862.962 1.94103 -0.70765 0
M  V30 8402 C 863.37 1.74382 0.733991 0
M  V30 8403 O 862.713 1.04843 1.50843 0
M  V30 8404 C 862.775 3.46705 -0.950581 0
M  V30 8405 C 862.439 3.90176 -2.37932 0
M  V30 8406 C 863.436 3.96769 -3.35961 0
M  V30 8407 C 861.121 4.22453 -2.71733 0
M  V30 8408 C 863.115 4.35034 -4.65858 0
M  V30 8409 C 860.802 4.60394 -4.01846 0
M  V30 8410 C 861.8 4.66656 -4.9872 0
M  V30 8411 O 861.488 5.03732 -6.26505 0
M  V30 8412 H 861.22 0.62405 -0.259881 0
M  V30 8413 H 863.774 1.55015 -1.34757 0
M  V30 8414 H 862.004 3.85868 -0.253492 0
M  V30 8415 H 863.693 4.00741 -0.645069 0
M  V30 8416 H 864.459 3.72009 -3.11182 0
M  V30 8417 H 860.338 4.16776 -1.97025 0
M  V30 8418 H 863.882 4.39836 -5.4147 0
M  V30 8419 H 859.779 4.84609 -4.26409 0
M  V30 8420 H 860.547 5.21761 -6.30641 0
M  V30 8421 N 863.21 0.781244 1.36873 0
M  V30 8422 C 864.458 0.349198 1.9906 0
M  V30 8423 C 864.779 -1.0806 1.62321 0
M  V30 8424 O 864.049 -1.74351 0.893229 0
M  V30 8425 H 862.629 0.126126 0.736275 0
M  V30 8426 H 865.291 1.00148 1.67202 0
M  V30 8427 H 864.387 0.434451 3.09061 0
M  V30 8428 N 864.689 -1.48329 0.532571 0
M  V30 8429 C 865.619 -2.32485 -0.217511 0
M  V30 8430 C 866.6 -1.42255 -0.932598 0
M  V30 8431 O 867.785 -1.7114 -0.917873 0
M  V30 8432 C 864.915 -3.23509 -1.26329 0
M  V30 8433 C 863.869 -4.22784 -0.666191 0
M  V30 8434 C 863.195 -5.0296 -1.81482 0
M  V30 8435 C 864.495 -5.21031 0.363813 0
M  V30 8436 H 866.189 -2.95445 0.485014 0
M  V30 8437 H 863.735 -1.42075 0.234694 0
M  V30 8438 H 865.688 -3.81211 -1.79601 0
M  V30 8439 H 864.412 -2.58554 -1.99543 0
M  V30 8440 H 863.071 -3.66272 -0.15498 0
M  V30 8441 H 862.719 -4.34427 -2.5354 0
M  V30 8442 H 862.419 -5.70154 -1.4212 0
M  V30 8443 H 863.943 -5.63514 -2.35126 0
M  V30 8444 H 865.357 -5.73241 -0.0819079 0
M  V30 8445 H 863.754 -5.96292 0.674956 0
M  V30 8446 H 864.824 -4.6801 1.26865 0
M  V30 8447 N 866.167 -0.267825 -1.55308 0
M  V30 8448 C 867.1 0.663973 -2.18327 0
M  V30 8449 C 868.078 1.15759 -1.14187 0
M  V30 8450 O 869.262 1.23189 -1.42677 0
M  V30 8451 C 866.389 1.9047 -2.8007 0
M  V30 8452 C 865.435 1.54718 -3.97447 0
M  V30 8453 S 866.268 0.631654 -5.31762 0
M  V30 8454 C 867.424 1.88092 -5.96969 0
M  V30 8455 H 867.657 0.128486 -2.97022 0
M  V30 8456 H 865.19 -0.052129 -1.54312 0
M  V30 8457 H 867.148 2.61688 -3.16275 0
M  V30 8458 H 865.809 2.41132 -2.01281 0
M  V30 8459 H 865.002 2.47022 -4.39313 0
M  V30 8460 H 864.604 0.915254 -3.62628 0
M  V30 8461 H 866.896 2.82572 -6.15759 0
M  V30 8462 H 867.839 1.50539 -6.91913 0
M  V30 8463 H 868.247 2.04254 -5.26252 0
M  V30 8464 N 867.645 1.57599 0.00500368 0
M  V30 8465 C 868.593 2.09223 1.01628 0
M  V30 8466 C 869.587 1.01113 1.35913 0
M  V30 8467 O 870.793 1.19583 1.34536 0
M  V30 8468 H 867.168 0.667999 0.345372 0
M  V30 8469 H 869.139 2.93188 0.555274 0
M  V30 8470 C 867.888 2.60674 2.30097 0
M  V30 8471 H 867.211 3.43491 2.04582 0
M  V30 8472 H 868.651 3.00479 2.99146 0
M  V30 8473 C 867.11 1.51862 3.00731 0
M  V30 8474 O 867.64 0.898651 3.91519 0
M  V30 8475 N 865.846 1.24729 2.62471 0
M  V30 8476 H 865.393 1.7533 1.88725 0
M  V30 8477 H 865.351 0.521437 3.10046 0
M  V30 8478 N 869.123 -0.277682 1.55134 0
M  V30 8479 C 870.071 -1.36305 1.88478 0
M  V30 8480 C 871.065 -1.51362 0.760654 0
M  V30 8481 O 872.271 -1.53202 0.944943 0
M  V30 8482 H 868.646 -0.45577 0.598146 0
M  V30 8483 H 870.617 -1.05431 2.79154 0
M  V30 8484 C 869.366 -2.71739 2.16918 0
M  V30 8485 H 868.689 -2.60942 3.02901 0
M  V30 8486 H 870.129 -3.46635 2.44172 0
M  V30 8487 C 868.588 -3.22476 0.975239 0
M  V30 8488 O 869.118 -4.01164 0.207497 0
M  V30 8489 N 867.324 -2.80097 0.774219 0
M  V30 8490 H 866.871 -2.16221 1.40022 0
M  V30 8491 H 866.829 -3.14392 -0.023021 0
M  V30 8492 N 870.601 -1.47988 -0.541979 0
M  V30 8493 C 871.848 -1.55393 -1.29843 0
M  V30 8494 C 872.176 -0.222668 -1.93221 0
M  V30 8495 O 871.431 0.785936 -1.79225 0
M  V30 8496 C 871.73 -2.63189 -2.41798 0
M  V30 8497 C 871.396 -4.05999 -1.96151 0
M  V30 8498 C 870.058 -4.44872 -1.83419 0
M  V30 8499 C 872.41 -4.95545 -1.61507 0
M  V30 8500 C 869.738 -5.71108 -1.34361 0
M  V30 8501 C 872.09 -6.22259 -1.13915 0
M  V30 8502 C 870.754 -6.59998 -0.997911 0
M  V30 8503 H 870.024 -0.568623 -0.47513 0
M  V30 8504 H 872.671 -1.81654 -0.606142 0
M  V30 8505 H 870.976 -2.30743 -3.16647 0
M  V30 8506 H 872.673 -2.66138 -2.99953 0
M  V30 8507 H 869.263 -3.75294 -2.07008 0
M  V30 8508 H 873.447 -4.662 -1.70209 0
M  V30 8509 H 868.703 -5.99083 -1.22103 0
M  V30 8510 H 872.877 -6.91048 -0.861755 0
M  V30 8511 H 870.504 -7.57704 -0.615561 0
M  V30 8512 N 872.079 0.78992 -1.36375 0
M  V30 8513 C 873.011 1.91113 -1.26524 0
M  V30 8514 C 874.024 1.61747 -0.184851 0
M  V30 8515 O 875.213 1.73004 -0.439524 0
M  V30 8516 C 872.313 3.25908 -0.92937 0
M  V30 8517 C 871.486 3.83057 -2.11154 0
M  V30 8518 C 870.545 4.96289 -1.74881 0
M  V30 8519 O 869.571 5.12834 -2.46962 0
M  V30 8520 N 870.773 5.76478 -0.682193 0
M  V30 8521 H 873.538 2.00085 -2.23128 0
M  V30 8522 H 871.099 0.968165 -1.29762 0
M  V30 8523 H 873.091 3.99151 -0.667884 0
M  V30 8524 H 871.661 3.12556 -0.0524843 0
M  V30 8525 H 870.881 3.01808 -2.53586 0
M  V30 8526 H 872.169 4.1797 -2.90135 0
M  V30 8527 H 871.567 5.65638 -0.0836661 0
M  V30 8528 H 870.124 6.50026 -0.480529 0
M  V30 8529 N 873.557 1.20646 1.01402 0
M  V30 8530 C 874.803 1.0197 1.753 0
M  V30 8531 C 875.136 -0.446803 1.8899 0
M  V30 8532 O 874.411 -1.33169 1.41762 0
M  V30 8533 C 874.694 1.70693 3.17074 0
M  V30 8534 C 874.547 3.24805 3.11162 0
M  V30 8535 C 875.866 1.44212 4.15802 0
M  V30 8536 H 872.985 0.371844 0.636318 0
M  V30 8537 H 875.627 1.48696 1.18277 0
M  V30 8538 H 873.777 1.30968 3.65759 0
M  V30 8539 H 875.449 3.73841 2.70261 0
M  V30 8540 H 873.692 3.55576 2.48492 0
M  V30 8541 H 874.363 3.68049 4.11393 0
M  V30 8542 H 876.839 1.7868 3.75783 0
M  V30 8543 H 875.715 1.94825 5.13161 0
M  V30 8544 H 875.976 0.370252 4.40547 0
M  V30 8545 N 875.035 -1.20752 1.01276 0
M  V30 8546 C 875.968 -2.22091 0.524472 0
M  V30 8547 C 876.946 -1.5692 -0.426017 0
M  V30 8548 O 878.13 -1.8528 -0.346919 0
M  V30 8549 C 875.257 -3.37868 -0.237224 0
M  V30 8550 C 874.303 -4.21327 0.662236 0
M  V30 8551 S 875.136 -4.91352 2.12916 0
M  V30 8552 C 876.292 -6.10553 1.37752 0
M  V30 8553 H 876.525 -2.63166 1.38315 0
M  V30 8554 H 874.058 -1.30742 0.821332 0
M  V30 8555 H 876.016 -4.04985 -0.670599 0
M  V30 8556 H 874.677 -2.95261 -1.07143 0
M  V30 8557 H 873.87 -5.03944 0.0751085 0
M  V30 8558 H 873.472 -3.59445 1.03322 0
M  V30 8559 H 875.764 -6.74322 0.655491 0
M  V30 8560 H 876.707 -6.73717 2.17969 0
M  V30 8561 H 877.115 -5.57566 0.882088 0
M  V30 8562 N 876.513 -0.788492 -1.36457 0
M  V30 8563 C 877.738 -0.371224 -2.04051 0
M  V30 8564 C 878.163 1.004 -1.59064 0
M  V30 8565 O 877.521 1.64663 -0.758679 0
M  V30 8566 C 877.569 -0.442275 -3.57877 0
M  V30 8567 O 876.673 0.55113 -4.08701 0
M  V30 8568 H 876.014 -0.157808 -0.644975 0
M  V30 8569 H 878.544 -1.06935 -1.74431 0
M  V30 8570 H 878.554 -0.305548 -4.06854 0
M  V30 8571 H 877.229 -1.44547 -3.89973 0
M  V30 8572 H 875.806 0.37614 -3.70998 0
M  V30 8573 N 877.991 1.48044 -0.54043 0
M  V30 8574 C 878.924 2.26667 0.264083 0
M  V30 8575 C 879.902 1.32996 0.935456 0
M  V30 8576 O 881.086 1.62354 0.95778 0
M  V30 8577 C 878.213 3.09541 1.37485 0
M  V30 8578 C 877.259 4.18664 0.813792 0
M  V30 8579 S 878.092 5.34503 -0.326536 0
M  V30 8580 C 879.248 6.20939 0.786452 0
M  V30 8581 H 879.481 2.94554 -0.403129 0
M  V30 8582 H 877.014 1.5091 -0.326415 0
M  V30 8583 H 878.972 3.57863 2.01107 0
M  V30 8584 H 877.633 2.41048 2.01382 0
M  V30 8585 H 876.826 4.76316 1.6474 0
M  V30 8586 H 876.428 3.73136 0.254066 0
M  V30 8587 H 878.72 6.56273 1.68262 0
M  V30 8588 H 879.663 7.07667 0.247673 0
M  V30 8589 H 880.071 5.54236 1.07156 0
M  V30 8590 N 879.47 0.276058 1.55163 0
M  V30 8591 C 880.716 -0.340959 1.99913 0
M  V30 8592 C 881.049 -1.55434 1.16422 0
M  V30 8593 O 880.324 -1.93081 0.234517 0
M  V30 8594 C 880.607 -0.722211 3.52783 0
M  V30 8595 C 880.46 0.498575 4.47028 0
M  V30 8596 C 881.779 -1.5583 4.11589 0
M  V30 8597 H 878.898 -0.122455 0.726756 0
M  V30 8598 H 881.54 0.38319 1.86096 0
M  V30 8599 H 879.69 -1.33919 3.64689 0
M  V30 8600 H 881.362 1.13713 4.47065 0
M  V30 8601 H 879.605 1.13646 4.18649 0
M  V30 8602 H 880.276 0.188041 5.5168 0
M  V30 8603 H 882.752 -1.03722 4.02965 0
M  V30 8604 H 881.628 -1.79387 5.1876 0
M  V30 8605 H 881.889 -2.53963 3.61877 0
M  V30 8606 N 880.948 -1.576 0.00335426 0
M  V30 8607 C 882.173 -1.95398 -0.695311 0
M  V30 8608 C 882.598 -0.878476 -1.66326 0
M  V30 8609 O 881.956 0.163086 -1.80565 0
M  V30 8610 C 882.004 -3.32293 -1.40049 0
M  V30 8611 O 881.108 -3.26834 -2.51502 0
M  V30 8612 H 880.449 -0.637796 -0.184694 0
M  V30 8613 H 882.979 -2.04519 0.057543 0
M  V30 8614 H 882.989 -3.67936 -1.76316 0
M  V30 8615 H 881.664 -4.10123 -0.690803 0
M  V30 8616 H 880.241 -3.02872 -2.17539 0
M  V30 8617 N 882.426 0.269451 -1.5528 0
M  V30 8618 C 883.674 0.998604 -1.75705 0
M  V30 8619 C 883.995 1.86691 -0.563175 0
M  V30 8620 O 883.265 1.91305 0.421811 0
M  V30 8621 H 881.845 0.371698 -0.647958 0
M  V30 8622 H 884.507 0.292826 -1.92688 0
M  V30 8623 H 883.603 1.63348 -2.6594 0
M  V30 8624 N 883.904 1.48273 0.534124 0
M  V30 8625 C 885.151 1.56079 1.29017 0
M  V30 8626 C 885.479 0.232912 1.931 0
M  V30 8627 O 884.734 -0.77642 1.79639 0
M  V30 8628 C 885.033 2.64468 2.40398 0
M  V30 8629 C 884.699 4.07034 1.93995 0
M  V30 8630 C 883.361 4.45838 1.81058 0
M  V30 8631 C 885.713 4.96395 1.58877 0
M  V30 8632 C 883.041 5.71812 1.31331 0
M  V30 8633 C 885.393 6.22854 1.10614 0
M  V30 8634 C 884.057 6.60518 0.962895 0
M  V30 8635 H 883.327 0.571135 0.472108 0
M  V30 8636 H 885.974 1.81973 0.5965 0
M  V30 8637 H 884.279 2.32419 3.15418 0
M  V30 8638 H 885.976 2.67725 2.98537 0
M  V30 8639 H 882.566 3.76387 2.05015 0
M  V30 8640 H 886.75 4.67096 1.67734 0
M  V30 8641 H 882.006 5.99722 1.18924 0
M  V30 8642 H 886.18 6.91495 0.825095 0
M  V30 8643 H 883.807 7.58019 0.575369 0
M  V30 8644 N 885.382 -0.782676 1.36792 0
M  V30 8645 C 886.61 -1.57162 1.34565 0
M  V30 8646 C 887.025 -1.88664 -0.0715501 0
M  V30 8647 O 886.382 -1.50633 -1.03033 0
M  V30 8648 C 886.433 -2.88854 2.1736 0
M  V30 8649 O 886.154 -2.58707 3.53557 0
M  V30 8650 C 887.655 -3.83132 2.2299 0
M  V30 8651 H 884.875 -0.487245 0.461338 0
M  V30 8652 H 887.419 -0.970905 1.79982 0
M  V30 8653 H 885.574 -3.45377 1.7548 0
M  V30 8654 H 885.988 -3.42961 3.96835 0
M  V30 8655 H 887.462 -4.72575 2.85266 0
M  V30 8656 H 887.939 -4.21472 1.23524 0
M  V30 8657 H 888.545 -3.32541 2.65135 0
M  V30 8658 N 886.86 -1.21182 -1.00761 0
M  V30 8659 C 888.271 -1.02652 -1.55947 0
M  V30 8660 C 888.622 0.414466 -1.91772 0
M  V30 8661 O 887.747 1.29727 -1.73204 0
M  V30 8662 C 888.342 -1.85713 -2.83366 0
M  V30 8663 C 886.901 -1.71523 -3.35048 0
M  V30 8664 C 886.048 -1.83087 -2.08265 0
M  V30 8665 H 888.999 -1.35242 -0.830379 0
M  V30 8666 H 889.02 -1.36583 -3.55141 0
M  V30 8667 H 888.532 -2.90584 -2.5726 0
M  V30 8668 H 886.633 -0.693257 -3.66094 0
M  V30 8669 H 886.746 -2.53333 -4.06644 0
M  V30 8670 H 885.11 -1.26367 -2.21141 0
M  V30 8671 H 885.893 -2.8946 -1.84575 0
M  V30 8672 N 888.338 1.20213 -1.01915 0
M  V30 8673 C 889.268 2.25336 -0.612023 0
M  V30 8674 C 890.249 1.65933 0.374186 0
M  V30 8675 O 891.434 1.92464 0.259053 0
M  V30 8676 C 888.564 3.47267 0.047904 0
M  V30 8677 C 887.518 4.1928 -0.859557 0
M  V30 8678 C 886.844 5.3466 -0.0652655 0
M  V30 8679 C 888.144 4.75143 -2.1688 0
M  V30 8680 H 889.838 2.59645 -1.49079 0
M  V30 8681 H 887.384 1.24808 -0.718263 0
M  V30 8682 H 889.337 4.19991 0.344294 0
M  V30 8683 H 888.061 3.12129 0.961404 0
M  V30 8684 H 886.72 3.48425 -1.13999 0
M  V30 8685 H 886.368 4.95767 0.849964 0
M  V30 8686 H 886.068 5.83772 -0.669618 0
M  V30 8687 H 887.592 6.10187 0.224612 0
M  V30 8688 H 889.006 5.39672 -1.9346 0
M  V30 8689 H 887.403 5.34702 -2.72422 0
M  V30 8690 H 888.473 3.93744 -2.83008 0
M  V30 8691 N 889.816 0.795718 1.36037 0
M  V30 8692 C 891.065 0.367575 1.98322 0
M  V30 8693 C 891.378 -1.06823 1.63854 0
M  V30 8694 O 892.584 -1.59895 2.19421 0
M  V30 8695 C 891.04 0.606272 3.54757 0
M  V30 8696 C 890.648 2.0539 3.98144 0
M  V30 8697 C 892.392 0.242947 4.23804 0
M  V30 8698 C 890.299 2.23893 5.47381 0
M  V30 8699 H 889.229 0.133699 0.742052 0
M  V30 8700 H 891.88 0.978242 1.5525 0
M  V30 8701 H 890.262 -0.0741957 3.9593 0
M  V30 8702 H 891.436 2.77129 3.68152 0
M  V30 8703 H 889.751 2.37607 3.41953 0
M  V30 8704 H 892.348 0.359382 5.33491 0
M  V30 8705 H 892.691 -0.809661 4.08351 0
M  V30 8706 H 893.224 0.876899 3.88015 0
M  V30 8707 H 889.963 3.27559 5.6779 0
M  V30 8708 H 889.483 1.56666 5.78978 0
M  V30 8709 H 891.162 2.04914 6.13693 0
M  V30 8710 N 891.294 -1.47756 0.548274 0
M  V30 8711 C 892.519 -2.07387 0.023475 0
M  V30 8712 C 892.944 -1.39956 -1.25674 0
M  V30 8713 O 892.302 -0.471543 -1.7506 0
M  V30 8714 C 892.35 -3.60224 -0.164669 0
M  V30 8715 O 891.454 -3.93653 -1.22928 0
M  V30 8716 H 890.795 -0.662312 0.0473156 0
M  V30 8717 H 893.325 -1.89905 0.761409 0
M  V30 8718 H 893.335 -4.06211 -0.38166 0
M  V30 8719 H 892.01 -4.08702 0.770425 0
M  V30 8720 H 890.587 -3.59422 -0.993495 0
M  V30 8721 N 892.772 -0.284283 -1.55015 0
M  V30 8722 C 893.735 0.586182 -2.21577 0
M  V30 8723 C 894.735 1.07427 -1.1965 0
M  V30 8724 O 895.925 0.972977 -1.44495 0
M  V30 8725 C 893.057 1.80973 -2.88897 0
M  V30 8726 H 894.25 0.00487253 -2.999 0
M  V30 8727 H 891.803 -0.0349696 -1.56261 0
M  V30 8728 H 892.538 2.43131 -2.14611 0
M  V30 8729 H 892.323 1.46757 -3.636 0
M  V30 8730 H 893.813 2.42853 -3.39724 0
M  V30 8731 N 894.251 1.57596 -0.0117121 0
M  V30 8732 C 895.499 1.90694 0.669342 0
M  V30 8733 C 895.82 0.886999 1.73659 0
M  V30 8734 O 895.09 -0.0739779 1.9576 0
M  V30 8735 H 893.67 0.703846 0.250219 0
M  V30 8736 H 896.332 1.94821 -0.0554057 0
M  V30 8737 H 895.428 2.90802 1.13316 0
M  V30 8738 N 895.729 -0.261212 1.5542 0
M  V30 8739 C 896.978 -0.989072 1.75785 0
M  V30 8740 C 897.291 -1.8702 0.572961 0
M  V30 8741 O 898.497 -2.63374 0.659289 0
M  V30 8742 C 896.953 -1.80857 3.11157 0
M  V30 8743 C 896.561 -0.975535 4.3725 0
M  V30 8744 C 898.305 -2.53003 3.40866 0
M  V30 8745 C 896.212 -1.7901 5.63657 0
M  V30 8746 H 895.142 -0.373019 0.655266 0
M  V30 8747 H 897.793 -0.244267 1.81867 0
M  V30 8748 H 896.175 -2.59479 2.99144 0
M  V30 8749 H 897.349 -0.232661 4.60212 0
M  V30 8750 H 895.664 -0.368083 4.1477 0
M  V30 8751 H 898.261 -3.14372 4.32521 0
M  V30 8752 H 898.604 -3.23891 2.61535 0
M  V30 8753 H 899.137 -1.81403 3.54031 0
M  V30 8754 H 895.876 -1.12522 6.4577 0
M  V30 8755 H 895.396 -2.50863 5.44819 0
M  V30 8756 H 897.075 -2.36082 6.0239 0
M  V30 8757 N 897.207 -1.48554 -0.526253 0
M  V30 8758 C 898.454 -1.56761 -1.28188 0
M  V30 8759 C 898.782 -0.24315 -1.92974 0
M  V30 8760 O 898.037 0.766883 -1.80048 0
M  V30 8761 C 898.336 -2.65739 -2.38993 0
M  V30 8762 C 898.002 -4.08057 -1.91834 0
M  V30 8763 C 896.664 -4.46792 -1.78691 0
M  V30 8764 C 899.016 -4.9723 -1.56242 0
M  V30 8765 C 896.344 -5.72501 -1.28296 0
M  V30 8766 C 898.696 -6.23432 -1.07309 0
M  V30 8767 C 897.36 -6.6102 -0.927853 0
M  V30 8768 H 896.63 -0.573631 -0.469072 0
M  V30 8769 H 899.277 -1.82287 -0.586842 0
M  V30 8770 H 897.582 -2.34088 -3.14181 0
M  V30 8771 H 899.279 -2.69304 -2.97113 0
M  V30 8772 H 895.869 -3.77469 -2.03016 0
M  V30 8773 H 900.053 -4.67979 -1.65255 0
M  V30 8774 H 895.309 -6.00345 -1.15742 0
M  V30 8775 H 899.483 -6.91923 -0.788412 0
M  V30 8776 H 897.11 -7.58314 -0.535162 0
M  V30 8777 N 898.685 0.775411 -1.37205 0
M  V30 8778 C 899.91 1.5696 -1.35567 0
M  V30 8779 C 900.335 1.88012 0.0575554 0
M  V30 8780 O 899.693 1.48954 1.03355 0
M  V30 8781 C 899.741 2.85886 -2.19776 0
M  V30 8782 O 898.845 3.80103 -1.59987 0
M  V30 8783 H 898.186 0.475583 -0.463375 0
M  V30 8784 H 900.716 0.96001 -1.80679 0
M  V30 8785 H 900.726 3.35024 -2.32859 0
M  V30 8786 H 899.401 2.62613 -3.22502 0
M  V30 8787 H 897.978 3.38736 -1.55924 0
M  V30 8788 N 900.163 1.21714 1.00117 0
M  V30 8789 C 901.126 0.981338 2.07129 0
M  V30 8790 C 902.126 -0.0491116 1.60725 0
M  V30 8791 O 903.316 0.188555 1.73177 0
M  V30 8792 C 900.448 0.480608 3.37495 0
M  V30 8793 H 901.641 1.93075 2.29482 0
M  V30 8794 H 899.194 1.03467 1.17151 0
M  V30 8795 H 899.929 -0.473552 3.20824 0
M  V30 8796 H 899.714 1.22393 3.72508 0
M  V30 8797 H 901.204 0.33561 4.16249 0
M  V30 8798 N 901.641 -1.19671 1.02551 0
M  V30 8799 C 902.869 -1.93233 0.739513 0
M  V30 8800 C 903.284 -1.75298 -0.701158 0
M  V30 8801 O 902.641 -1.07269 -1.47647 0
M  V30 8802 C 902.692 -3.45085 1.07697 0
M  V30 8803 O 902.413 -3.62441 2.46106 0
M  V30 8804 C 903.914 -4.35776 0.813298 0
M  V30 8805 H 901.134 -0.613905 0.270853 0
M  V30 8806 H 903.678 -1.51909 1.36909 0
M  V30 8807 H 901.833 -3.84255 0.492635 0
M  V30 8808 H 902.247 -4.56337 2.58567 0
M  V30 8809 H 903.721 -5.40941 1.09941 0
M  V30 8810 H 904.198 -4.38474 -0.252359 0
M  V30 8811 H 904.804 -4.02282 1.38021 0
M  V30 8812 N 903.119 -0.802921 -1.35613 0
M  V30 8813 C 904.049 -0.225131 -2.32412 0
M  V30 8814 C 905.03 0.647383 -1.57299 0
M  V30 8815 O 906.215 0.578414 -1.85386 0
M  V30 8816 C 903.345 0.630085 -3.41537 0
M  V30 8817 C 902.299 -0.143635 -4.27759 0
M  V30 8818 C 901.625 0.833046 -5.28171 0
M  V30 8819 C 902.925 -1.34054 -5.04804 0
M  V30 8820 H 904.619 -1.03385 -2.80984 0
M  V30 8821 H 902.165 -0.498593 -1.35093 0
M  V30 8822 H 904.118 1.04433 -4.08254 0
M  V30 8823 H 902.842 1.47165 -2.91565 0
M  V30 8824 H 901.501 -0.539015 -3.62616 0
M  V30 8825 H 901.149 1.67001 -4.74468 0
M  V30 8826 H 900.849 0.319697 -5.8673 0
M  V30 8827 H 902.373 1.24558 -5.97761 0
M  V30 8828 H 903.787 -1.00136 -5.64487 0
M  V30 8829 H 902.184 -1.78812 -5.72841 0
M  V30 8830 H 903.254 -2.12906 -4.35659 0
M  V30 8831 N 904.597 1.47463 -0.556102 0
M  V30 8832 C 905.822 2.07371 -0.0344729 0
M  V30 8833 C 906.247 1.40621 1.2493 0
M  V30 8834 O 905.605 0.48082 1.74808 0
M  V30 8835 C 905.653 3.60306 0.145563 0
M  V30 8836 O 904.757 3.94299 1.20839 0
M  V30 8837 H 904.098 0.662052 -0.0508274 0
M  V30 8838 H 906.628 1.89498 -0.771469 0
M  V30 8839 H 906.638 4.06408 0.360112 0
M  V30 8840 H 905.313 4.08288 -0.792089 0
M  V30 8841 H 903.89 3.59944 0.97442 0
M  V30 8842 N 906.075 0.2925 1.54862 0
M  V30 8843 C 907.3 -0.32494 2.04839 0
M  V30 8844 C 907.725 -1.47381 1.16877 0
M  V30 8845 O 907.083 -1.80492 0.171028 0
M  V30 8846 C 907.131 -0.76694 3.5235 0
M  V30 8847 O 906.235 -1.87256 3.67436 0
M  V30 8848 H 905.576 -0.0645195 0.660858 0
M  V30 8849 H 908.106 0.431867 1.9999 0
M  V30 8850 H 908.116 -1.05804 3.94043 0
M  V30 8851 H 906.791 0.0735212 4.15835 0
M  V30 8852 H 905.368 -1.58266 3.37648 0
M  V30 8853 N 907.553 -1.57587 0.0200696 0
M  V30 8854 C 908.516 -2.08595 -0.949767 0
M  V30 8855 C 909.516 -0.999215 -1.25985 0
M  V30 8856 O 910.706 -1.26115 -1.2017 0
M  V30 8857 C 907.838 -2.54424 -2.26895 0
M  V30 8858 H 909.031 -2.95563 -0.508161 0
M  V30 8859 H 906.584 -1.54631 -0.227798 0
M  V30 8860 H 907.319 -1.70758 -2.75703 0
M  V30 8861 H 907.104 -3.3381 -2.05702 0
M  V30 8862 H 908.594 -2.94144 -2.96427 0
M  V30 8863 N 909.032 0.252966 -1.55557 0
M  V30 8864 C 909.962 1.31691 -1.9282 0
M  V30 8865 C 910.943 1.50516 -0.7924 0
M  V30 8866 O 912.128 1.63225 -1.05219 0
M  V30 8867 C 909.258 2.67281 -2.21762 0
M  V30 8868 C 908.212 2.6316 -3.37536 0
M  V30 8869 C 907.538 4.02488 -3.52005 0
M  V30 8870 C 908.838 2.20675 -4.73392 0
M  V30 8871 H 910.532 1.00751 -2.81939 0
M  V30 8872 H 908.078 0.483219 -1.3565 0
M  V30 8873 H 910.031 3.41842 -2.46419 0
M  V30 8874 H 908.755 2.99845 -1.29463 0
M  V30 8875 H 907.414 1.91057 -3.12878 0
M  V30 8876 H 907.062 4.32307 -2.57137 0
M  V30 8877 H 906.762 4.00621 -4.29857 0
M  V30 8878 H 908.286 4.78758 -3.78977 0
M  V30 8879 H 909.7 2.84965 -4.97461 0
M  V30 8880 H 908.097 2.29931 -5.54303 0
M  V30 8881 H 909.167 1.15831 -4.70862 0
M  V30 8882 N 910.51 1.48831 0.518367 0
M  V30 8883 C 911.473 1.63721 1.604 0
M  V30 8884 C 912.473 0.509857 1.52503 0
M  V30 8885 O 913.663 0.775922 1.55965 0
M  V30 8886 C 910.795 1.61831 3.00039 0
M  V30 8887 H 911.988 2.60534 1.48533 0
M  V30 8888 H 909.541 1.37602 0.741309 0
M  V30 8889 H 910.276 0.665387 3.17401 0
M  V30 8890 H 910.061 2.43686 3.0718 0
M  V30 8891 H 911.551 1.75467 3.78947 0
M  V30 8892 N 911.988 -0.768124 1.37614 0
M  V30 8893 C 913.213 -1.56239 1.36397 0
M  V30 8894 C 913.638 -1.8804 -0.0475839 0
M  V30 8895 O 912.996 -1.495 -1.02564 0
M  V30 8896 C 913.044 -2.84716 2.21289 0
M  V30 8897 O 912.148 -3.79249 1.62001 0
M  V30 8898 H 911.489 -0.473119 0.465891 0
M  V30 8899 H 914.019 -0.950415 1.81186 0
M  V30 8900 H 914.029 -3.33784 2.34632 0
M  V30 8901 H 912.704 -2.60899 3.2389 0
M  V30 8902 H 911.281 -3.37904 1.57719 0
M  V30 8903 N 913.466 -1.22244 -0.994698 0
M  V30 8904 C 914.396 -1.01513 -2.10279 0
M  V30 8905 C 915.377 0.0633365 -1.69982 0
M  V30 8906 O 916.562 -0.0985268 -1.9395 0
M  V30 8907 C 913.692 -0.59016 -3.42249 0
M  V30 8908 C 912.646 -1.61436 -3.96387 0
M  V30 8909 C 911.972 -1.04528 -5.24383 0
M  V30 8910 C 913.272 -3.00388 -4.27276 0
M  V30 8911 H 914.966 -1.94194 -2.2788 0
M  V30 8912 H 912.512 -0.935094 -1.09508 0
M  V30 8913 H 914.465 -0.432254 -4.19177 0
M  V30 8914 H 913.189 0.372308 -3.24471 0
M  V30 8915 H 911.848 -1.76001 -3.21589 0
M  V30 8916 H 911.496 -0.0742225 -5.02945 0
M  V30 8917 H 911.196 -1.72949 -5.61571 0
M  V30 8918 H 912.72 -0.898922 -6.03947 0
M  V30 8919 H 914.134 -2.89207 -4.95007 0
M  V30 8920 H 912.531 -3.65916 -4.75631 0
M  V30 8921 H 913.601 -3.50456 -3.35125 0
M  V30 8922 N 914.944 1.19125 -1.03184 0
M  V30 8923 C 916.19 1.89163 -0.731111 0
M  V30 8924 C 916.523 1.79604 0.738662 0
M  V30 8925 O 915.798 1.19037 1.53819 0
M  V30 8926 C 916.081 3.39986 -1.18666 0
M  V30 8927 C 915.934 3.58401 -2.71788 0
M  V30 8928 C 917.253 4.33316 -0.769772 0
M  V30 8929 H 914.372 0.686908 -0.267069 0
M  V30 8930 H 917.014 1.40205 -1.28229 0
M  V30 8931 H 915.164 3.81813 -0.717736 0
M  V30 8932 H 916.836 3.25727 -3.26649 0
M  V30 8933 H 915.079 3.01355 -3.12038 0
M  V30 8934 H 915.75 4.64189 -2.98719 0
M  V30 8935 H 918.226 3.9922 -1.17314 0
M  V30 8936 H 917.102 5.37427 -1.11637 0
M  V30 8937 H 917.363 4.40884 0.327681 0
M  V30 8938 N 916.422 0.810101 1.35185 0
M  V30 8939 C 917.647 0.40364 2.03434 0
M  V30 8940 C 918.072 -0.97857 1.60641 0
M  V30 8941 O 917.43 -1.63435 0.784779 0
M  V30 8942 C 917.478 0.499154 3.57129 0
M  V30 8943 O 916.582 -0.486039 4.09526 0
M  V30 8944 H 915.923 0.168049 0.642383 0
M  V30 8945 H 918.453 1.09696 1.72708 0
M  V30 8946 H 918.463 0.370236 4.06317 0
M  V30 8947 H 917.138 1.50733 3.87624 0
M  V30 8948 H 915.715 -0.31707 3.7155 0
M  V30 8949 N 917.9 -1.47166 0.563914 0
M  V30 8950 C 918.863 -2.28571 -0.169624 0
M  V30 8951 C 919.863 -1.37331 -0.836467 0
M  V30 8952 O 921.053 -1.59896 -0.6913 0
M  V30 8953 C 918.185 -3.17201 -1.24886 0
M  V30 8954 H 919.378 -2.94896 0.545539 0
M  V30 8955 H 916.931 -1.52966 0.321121 0
M  V30 8956 H 917.666 -2.55582 -1.99621 0
M  V30 8957 H 917.451 -3.84356 -0.775426 0
M  V30 8958 H 918.941 -3.7852 -1.76388 0
M  V30 8959 N 919.378 -0.300708 -1.54705 0
M  V30 8960 C 920.789 0.191995 -1.8571 0
M  V30 8961 C 921.14 1.53447 -1.22264 0
M  V30 8962 O 920.265 2.10054 -0.520226 0
M  V30 8963 C 920.86 0.355148 -3.36933 0
M  V30 8964 C 919.419 0.792071 -3.67972 0
M  V30 8965 C 918.566 -0.099756 -2.77121 0
M  V30 8966 H 921.517 -0.521729 -1.49879 0
M  V30 8967 H 921.538 1.18977 -3.61421 0
M  V30 8968 H 921.05 -0.622075 -3.83082 0
M  V30 8969 H 919.151 1.77986 -3.27341 0
M  V30 8970 H 919.264 0.611661 -4.75179 0
M  V30 8971 H 917.628 0.420909 -2.51198 0
M  V30 8972 H 918.411 -1.07333 -3.2609 0
M  V30 8973 N 920.856 1.57574 -0.0284266 0
M  V30 8974 C 921.803 2.10176 0.953658 0
M  V30 8975 C 922.773 1.00367 1.32347 0
M  V30 8976 O 923.958 1.27783 1.4169 0
M  V30 8977 C 921.098 2.63287 2.231 0
M  V30 8978 C 920.211 3.87102 1.91771 0
M  V30 8979 C 919.346 4.28609 3.13795 0
M  V30 8980 C 918.385 5.45184 2.78282 0
M  V30 8981 N 917.522 5.81851 3.92929 0
M  V30 8982 H 922.362 2.93806 0.498176 0
M  V30 8983 H 919.899 1.45222 0.234302 0
M  V30 8984 H 921.857 2.9217 2.97813 0
M  V30 8985 H 920.487 1.82489 2.66266 0
M  V30 8986 H 919.539 3.64952 1.07303 0
M  V30 8987 H 920.851 4.71892 1.61615 0
M  V30 8988 H 920.005 4.58925 3.96829 0
M  V30 8989 H 918.744 3.42585 3.47112 0
M  V30 8990 H 917.749 5.14563 1.93661 0
M  V30 8991 H 918.974 6.32907 2.46182 0
M  V30 8992 H 916.92 4.98782 4.2609 0
M  V30 8993 H 916.837 6.6128 3.66395 0
M  V30 8994 H 918.105 6.16772 4.76669 0
M  V30 8995 N 922.334 -0.244713 1.55689 0
M  V30 8996 C 923.583 -0.970373 1.76824 0
M  V30 8997 C 923.896 -1.86402 0.592764 0
M  V30 8998 O 925.102 -2.62659 0.687186 0
M  V30 8999 C 923.558 -1.77547 3.13058 0
M  V30 9000 C 923.166 -0.929104 4.3826 0
M  V30 9001 C 924.91 -2.49373 3.43531 0
M  V30 9002 C 922.817 -1.73021 5.65524 0
M  V30 9003 H 921.747 -0.366048 0.659185 0
M  V30 9004 H 924.398 -0.224964 1.82116 0
M  V30 9005 H 922.78 -2.56291 3.01879 0
M  V30 9006 H 923.954 -0.183836 4.60433 0
M  V30 9007 H 922.269 -0.324071 4.15137 0
M  V30 9008 H 924.866 -3.09767 4.35831 0
M  V30 9009 H 925.209 -3.21099 2.64955 0
M  V30 9010 H 925.742 -1.77637 3.55935 0
M  V30 9011 H 922.481 -1.05666 6.46927 0
M  V30 9012 H 922.001 -2.45071 5.47449 0
M  V30 9013 H 923.68 -2.2968 6.0486 0
M  V30 9014 N 923.813 -1.49104 -0.510467 0
M  V30 9015 C 925.06 -1.58112 -1.26518 0
M  V30 9016 C 925.388 -0.263603 -1.92705 0
M  V30 9017 O 924.643 0.747743 -1.80852 0
M  V30 9018 C 924.942 -2.68259 -2.36161 0
M  V30 9019 C 924.608 -4.10069 -1.87495 0
M  V30 9020 C 923.27 -4.48662 -1.73942 0
M  V30 9021 C 925.622 -4.98859 -1.5096 0
M  V30 9022 C 922.95 -5.73829 -1.22217 0
M  V30 9023 C 925.302 -6.24535 -1.00691 0
M  V30 9024 C 923.966 -6.61967 -0.857691 0
M  V30 9025 H 923.236 -0.578574 -0.462962 0
M  V30 9026 H 925.883 -1.82899 -0.567475 0
M  V30 9027 H 924.188 -2.37407 -3.11681 0
M  V30 9028 H 925.885 -2.7244 -2.9424 0
M  V30 9029 H 922.475 -3.79601 -1.99001 0
M  V30 9030 H 926.659 -4.69706 -1.60282 0
M  V30 9031 H 921.915 -6.01539 -1.09368 0
M  V30 9032 H 926.089 -6.9272 -0.71498 0
M  V30 9033 H 923.716 -7.58839 -0.454702 0
M  V30 9034 N 925.291 0.760815 -1.38019 0
M  V30 9035 C 926.223 1.88387 -1.30549 0
M  V30 9036 C 927.236 1.61319 -0.219119 0
M  V30 9037 O 928.425 1.72033 -0.476122 0
M  V30 9038 C 925.525 3.23863 -0.998291 0
M  V30 9039 C 924.698 3.78492 -2.19232 0
M  V30 9040 C 923.757 4.92468 -1.85368 0
M  V30 9041 O 922.783 5.0748 -2.57785 0
M  V30 9042 N 923.985 5.74901 -0.804319 0
M  V30 9043 H 926.75 1.95308 -2.27322 0
M  V30 9044 H 924.311 0.940423 -1.31786 0
M  V30 9045 H 926.303 3.97644 -0.7524 0
M  V30 9046 H 924.873 3.12374 -0.11877 0
M  V30 9047 H 924.093 2.96361 -2.5993 0
M  V30 9048 H 925.381 4.11722 -2.98935 0
M  V30 9049 H 924.779 5.65333 -0.203628 0
M  V30 9050 H 923.336 6.48861 -0.618301 0
M  V30 9051 N 926.769 1.22769 0.988202 0
M  V30 9052 C 927.732 1.00325 2.06076 0
M  V30 9053 C 928.732 -0.0320618 1.60768 0
M  V30 9054 O 929.922 0.206912 1.72967 0
M  V30 9055 C 927.054 0.516376 3.36966 0
M  V30 9056 H 928.247 1.95499 2.27421 0
M  V30 9057 H 925.8 1.04704 1.16047 0
M  V30 9058 H 926.535 -0.439498 3.21308 0
M  V30 9059 H 926.32 1.26337 3.71189 0
M  V30 9060 H 927.81 0.37974 4.1587 0
M  V30 9061 N 928.247 -1.18576 1.03814 0
M  V30 9062 C 929.177 -2.24334 0.647795 0
M  V30 9063 C 930.158 -1.66508 -0.34774 0
M  V30 9064 O 931.343 -1.92852 -0.228401 0
M  V30 9065 C 928.473 -3.47299 0.00734922 0
M  V30 9066 C 927.427 -4.17859 0.926152 0
M  V30 9067 C 926.753 -5.34489 0.150317 0
M  V30 9068 C 928.053 -4.71632 2.24411 0
M  V30 9069 H 929.747 -2.57241 1.53191 0
M  V30 9070 H 927.293 -1.23649 0.738028 0
M  V30 9071 H 929.246 -4.20486 -0.277434 0
M  V30 9072 H 927.97 -3.13619 -0.911626 0
M  V30 9073 H 926.629 -3.46567 1.19528 0
M  V30 9074 H 926.277 -4.97056 -0.770985 0
M  V30 9075 H 925.977 -5.82633 0.762407 0
M  V30 9076 H 927.501 -6.10467 -0.127508 0
M  V30 9077 H 928.915 -5.36526 2.02021 0
M  V30 9078 H 927.312 -5.303 2.80894 0
M  V30 9079 H 928.382 -3.89192 2.89236 0
M  V30 9080 N 929.725 -0.817259 -1.34754 0
M  V30 9081 C 930.965 -0.408429 -2.00278 0
M  V30 9082 C 931.329 1.00818 -1.634 0
M  V30 9083 O 932.53 1.51959 -2.21725 0
M  V30 9084 C 930.801 -0.598219 -3.52358 0
M  V30 9085 S 932.36 -0.281395 -4.37897 0
M  V30 9086 H 929.178 -0.154587 -0.693991 0
M  V30 9087 H 931.78 -1.06184 -1.6415 0
M  V30 9088 H 930.484 -1.62901 -3.76685 0
M  V30 9089 H 930.015 0.0701299 -3.93337 0
M  V30 9090 H 932.03 0.907024 -4.8784 0
M  V30 9091 N 931.203 1.46865 -0.571711 0
M  V30 9092 C 932.15 2.30189 0.167808 0
M  V30 9093 C 933.12 1.3995 0.89461 0
M  V30 9094 O 934.305 1.68905 0.887451 0
M  V30 9095 C 931.445 3.24205 1.1826 0
M  V30 9096 C 930.558 4.2954 0.460376 0
M  V30 9097 C 929.693 5.10693 1.46173 0
M  V30 9098 C 928.732 6.07788 0.725291 0
M  V30 9099 N 927.869 6.81847 1.67417 0
M  V30 9100 H 932.709 2.92902 -0.548831 0
M  V30 9101 H 930.246 1.44362 -0.282474 0
M  V30 9102 H 932.204 3.77147 1.7837 0
M  V30 9103 H 930.834 2.63324 1.86709 0
M  V30 9104 H 929.886 3.79541 -0.255546 0
M  V30 9105 H 931.198 4.98665 -0.115855 0
M  V30 9106 H 930.352 5.67857 2.13595 0
M  V30 9107 H 929.091 4.41502 2.07188 0
M  V30 9108 H 928.096 5.49787 0.037228 0
M  V30 9109 H 929.321 6.78993 0.120678 0
M  V30 9110 H 927.267 6.15376 2.27263 0
M  V30 9111 H 927.184 7.47195 1.15046 0
M  V30 9112 H 928.452 7.43577 2.33908 0
M  V30 9113 N 932.681 0.308908 1.54543 0
M  V30 9114 C 933.958 -0.351558 1.92415 0
M  V30 9115 C 934.338 -1.71061 1.23699 0
M  V30 9116 O 933.686 -2.25394 0.3755 0
M  V30 9117 C 933.896 -0.458357 3.45977 0
M  V30 9118 C 935.244 -0.725524 4.18355 0
M  V30 9119 O 936.268 -0.541859 3.52054 0
M  V30 9120 O 935.127 -1.07884 5.35745 0
M  V30 9121 H 932.221 -0.197957 0.802958 0
M  V30 9122 H 934.767 0.357548 1.65891 0
M  V30 9123 H 933.539 0.496723 3.88134 0
M  V30 9124 H 933.162 -1.21562 3.78561 0
M  V30 9125 N 934.159 -1.57557 0.0367827 0
M  V30 9126 C 935.107 -2.11844 -0.960454 0
M  V30 9127 C 936.101 -1.04681 -1.33185 0
M  V30 9128 O 937.307 -1.23108 -1.31318 0
M  V30 9129 H 933.682 -0.676921 -0.32754 0
M  V30 9130 H 935.653 -2.94557 -0.477346 0
M  V30 9131 C 934.402 -2.66683 -2.23105 0
M  V30 9132 H 933.725 -3.48795 -1.95403 0
M  V30 9133 H 935.165 -3.08305 -2.91074 0
M  V30 9134 C 933.624 -1.59782 -2.96599 0
M  V30 9135 O 934.154 -1.00214 -3.88999 0
M  V30 9136 N 932.36 -1.31644 -2.59072 0
M  V30 9137 H 931.907 -1.80272 -1.8401 0
M  V30 9138 H 931.865 -0.603457 -3.08554 0
M  V30 9139 N 935.637 0.236453 -1.55816 0
M  V30 9140 C 936.886 0.960981 -1.77336 0
M  V30 9141 C 937.199 1.86085 -0.602641 0
M  V30 9142 O 938.405 2.62291 -0.701106 0
M  V30 9143 C 936.861 1.75884 -3.13995 0
M  V30 9144 C 936.469 0.905849 -4.38746 0
M  V30 9145 C 938.213 2.47548 -3.44848 0
M  V30 9146 C 936.12 1.7002 -5.66434 0
M  V30 9147 H 935.05 0.362547 -0.661117 0
M  V30 9148 H 937.701 0.215303 -1.82233 0
M  V30 9149 H 936.083 2.54687 -3.03234 0
M  V30 9150 H 937.257 0.159415 -4.60524 0
M  V30 9151 H 935.572 0.30205 -4.15303 0
M  V30 9152 H 938.169 3.07452 -4.37467 0
M  V30 9153 H 938.512 3.19689 -2.66655 0
M  V30 9154 H 939.045 1.75747 -3.56872 0
M  V30 9155 H 935.784 1.02234 -6.47479 0
M  V30 9156 H 935.304 2.42164 -5.48741 0
M  V30 9157 H 936.983 2.26469 -6.0607 0
M  V30 9158 N 937.115 1.49373 0.502552 0
M  V30 9159 C 938.345 1.62252 1.27898 0
M  V30 9160 C 938.753 0.292555 1.86924 0
M  V30 9161 O 938.096 -0.731823 1.68493 0
M  V30 9162 C 938.158 2.63153 2.4493 0
M  V30 9163 C 937.822 4.07541 2.06784 0
M  V30 9164 C 938.819 4.94392 1.60849 0
M  V30 9165 C 936.504 4.53263 2.16466 0
M  V30 9166 C 938.498 6.25003 1.25098 0
M  V30 9167 C 936.185 5.83888 1.80327 0
M  V30 9168 C 937.183 6.69582 1.34718 0
M  V30 9169 O 936.871 7.97773 0.990661 0
M  V30 9170 H 936.603 0.54918 0.394179 0
M  V30 9171 H 939.157 1.96132 0.610031 0
M  V30 9172 H 937.387 2.2445 3.14895 0
M  V30 9173 H 939.076 2.65578 3.06957 0
M  V30 9174 H 939.842 4.60296 1.52816 0
M  V30 9175 H 935.721 3.86731 2.50919 0
M  V30 9176 H 939.265 6.91844 0.894269 0
M  V30 9177 H 935.162 6.17513 1.8801 0
M  V30 9178 H 935.93 8.1077 1.12227 0
M  V30 9179 N 938.594 -0.753485 1.38421 0
M  V30 9180 C 940.005 -1.33081 1.30944 0
M  V30 9181 C 940.356 -1.96169 -0.0347124 0
M  V30 9182 O 939.481 -1.95073 -0.936768 0
M  V30 9183 C 940.076 -2.41973 2.37138 0
M  V30 9184 C 938.635 -2.95426 2.33239 0
M  V30 9185 C 937.782 -1.68808 2.19998 0
M  V30 9186 H 940.733 -0.552354 1.48777 0
M  V30 9187 H 940.754 -3.21913 2.02859 0
M  V30 9188 H 940.266 -1.96027 3.34956 0
M  V30 9189 H 938.367 -3.45701 1.39003 0
M  V30 9190 H 938.48 -3.49798 3.27381 0
M  V30 9191 H 936.844 -1.92438 1.66852 0
M  V30 9192 H 937.627 -1.24939 3.19758 0
M  V30 9193 N 940.072 -1.23292 -0.981677 0
M  V30 9194 C 941.035 -1.01417 -2.05542 0
M  V30 9195 C 942.035 0.0235354 -1.60783 0
M  V30 9196 O 943.225 -0.216082 -1.72855 0
M  V30 9197 C 940.357 -0.534239 -3.36688 0
M  V30 9198 H 941.55 -1.96702 -2.26381 0
M  V30 9199 H 939.103 -1.05318 -1.1549 0
M  V30 9200 H 939.838 0.422452 -3.21537 0
M  V30 9201 H 939.623 -1.28304 -3.70514 0
M  V30 9202 H 941.113 -0.40179 -4.15663 0
M  V30 9203 N 941.55 1.18024 -1.04442 0
M  V30 9204 C 942.797 1.88098 -0.750022 0
M  V30 9205 C 943.125 1.80583 0.722489 0
M  V30 9206 O 942.38 1.20329 1.54335 0
M  V30 9207 C 942.679 3.37834 -1.16631 0
M  V30 9208 C 942.345 3.65553 -2.63974 0
M  V30 9209 C 941.007 3.72827 -3.04226 0
M  V30 9210 C 943.359 3.77634 -3.59224 0
M  V30 9211 C 940.687 3.89666 -4.38608 0
M  V30 9212 C 943.039 3.9599 -4.9333 0
M  V30 9213 C 941.703 4.01501 -5.33248 0
M  V30 9214 H 940.973 0.6883 -0.274452 0
M  V30 9215 H 943.62 1.39671 -1.31012 0
M  V30 9216 H 941.925 3.88266 -0.525071 0
M  V30 9217 H 943.622 3.90402 -0.915827 0
M  V30 9218 H 940.212 3.6051 -2.31798 0
M  V30 9219 H 944.396 3.71342 -3.2927 0
M  V30 9220 H 939.652 3.92178 -4.69048 0
M  V30 9221 H 943.826 4.0428 -5.67037 0
M  V30 9222 H 941.453 4.14301 -6.37384 0
M  V30 9223 N 943.028 0.824394 1.34319 0
M  V30 9224 C 943.96 0.204805 2.28283 0
M  V30 9225 C 944.973 -0.606162 1.51094 0
M  V30 9226 O 946.162 -0.435602 1.73103 0
M  V30 9227 C 943.262 -0.73139 3.30914 0
M  V30 9228 C 942.435 0.0370723 4.37384 0
M  V30 9229 C 941.494 -0.820272 5.19767 0
M  V30 9230 O 940.52 -0.264721 5.68584 0
M  V30 9231 N 941.722 -2.13984 5.39621 0
M  V30 9232 H 944.487 1.0121 2.82093 0
M  V30 9233 H 942.048 0.681494 1.46858 0
M  V30 9234 H 944.04 -1.30958 3.82926 0
M  V30 9235 H 942.61 -1.43943 2.77487 0
M  V30 9236 H 941.83 0.796578 3.86068 0
M  V30 9237 H 943.118 0.566014 5.05642 0
M  V30 9238 H 942.516 -2.61492 5.01636 0
M  V30 9239 H 941.073 -2.66685 5.94746 0
M  V30 9240 N 944.506 -1.46559 0.579492 0
M  V30 9241 C 945.439 -2.27287 -0.203894 0
M  V30 9242 C 946.417 -1.3543 -0.899865 0
M  V30 9243 O 947.601 -1.64836 -0.914398 0
M  V30 9244 C 944.728 -3.13077 -1.2923 0
M  V30 9245 C 943.774 -4.20675 -0.702505 0
M  V30 9246 S 944.607 -5.3345 0.468136 0
M  V30 9247 C 945.763 -6.22806 -0.621544 0
M  V30 9248 H 945.996 -2.93382 0.481083 0
M  V30 9249 H 943.529 -1.49992 0.366311 0
M  V30 9250 H 945.487 -3.63069 -1.91548 0
M  V30 9251 H 944.148 -2.46302 -1.94921 0
M  V30 9252 H 943.341 -4.80516 -1.52053 0
M  V30 9253 H 942.943 -3.73678 -0.155046 0
M  V30 9254 H 945.235 -6.60503 -1.50803 0
M  V30 9255 H 946.178 -7.08075 -0.059961 0
M  V30 9256 H 946.586 -5.56882 -0.924242 0
M  V30 9257 N 945.984 -0.3171 -1.54377 0
M  V30 9258 C 947.231 0.28741 -2.0045 0
M  V30 9259 C 947.559 1.52648 -1.20535 0
M  V30 9260 O 946.814 1.93775 -0.273831 0
M  V30 9261 C 947.113 0.672917 -3.51008 0
M  V30 9262 C 946.779 -0.466245 -4.48483 0
M  V30 9263 C 945.441 -0.778933 -4.74854 0
M  V30 9264 C 947.793 -1.23176 -5.06436 0
M  V30 9265 C 945.121 -1.85997 -5.56437 0
M  V30 9266 C 947.473 -2.30284 -5.89196 0
M  V30 9267 C 946.137 -2.62141 -6.13872 0
M  V30 9268 H 945.407 0.105171 -0.733499 0
M  V30 9269 H 948.054 -0.439538 -1.86388 0
M  V30 9270 H 946.359 1.48019 -3.62764 0
M  V30 9271 H 948.056 1.15209 -3.84094 0
M  V30 9272 H 944.646 -0.212449 -4.28073 0
M  V30 9273 H 948.83 -1.00344 -4.8605 0
M  V30 9274 H 944.086 -2.11134 -5.73788 0
M  V30 9275 H 948.26 -2.90048 -6.33123 0
M  V30 9276 H 945.887 -3.46037 -6.76877 0
M  V30 9277 N 947.462 1.57535 -0.0451378 0
M  V30 9278 C 948.425 2.1008 0.916461 0
M  V30 9279 C 949.425 1.01913 1.2438 0
M  V30 9280 O 950.615 1.2801 1.18148 0
M  V30 9281 C 947.747 2.58001 2.22818 0
M  V30 9282 H 948.94 2.96334 0.461076 0
M  V30 9283 H 946.493 1.54974 0.203169 0
M  V30 9284 H 947.228 1.75123 2.72951 0
M  V30 9285 H 947.013 3.3704 2.00366 0
M  V30 9286 H 948.503 2.98822 2.9171 0
M  V30 9287 N 948.94 -0.228186 1.55939 0
M  V30 9288 C 949.887 -1.28274 1.91871 0
M  V30 9289 C 950.857 -1.46906 0.775103 0
M  V30 9290 O 952.042 -1.60583 1.03042 0
M  V30 9291 C 949.182 -2.62945 2.23504 0
M  V30 9292 C 948.295 -2.52166 3.50766 0
M  V30 9293 C 947.43 -3.79316 3.71878 0
M  V30 9294 C 946.469 -3.63231 4.92676 0
M  V30 9295 N 945.606 -4.82315 5.10212 0
M  V30 9296 H 950.446 -0.96931 2.81795 0
M  V30 9297 H 947.983 -0.467331 1.39479 0
M  V30 9298 H 949.941 -3.41359 2.39854 0
M  V30 9299 H 948.571 -2.92397 1.36762 0
M  V30 9300 H 947.623 -1.65221 3.42646 0
M  V30 9301 H 948.935 -2.36199 4.39331 0
M  V30 9302 H 948.089 -4.66173 3.88288 0
M  V30 9303 H 946.828 -3.982 2.81581 0
M  V30 9304 H 945.833 -2.74757 4.76223 0
M  V30 9305 H 947.058 -3.45823 5.84451 0
M  V30 9306 H 945.004 -5.01526 4.22856 0
M  V30 9307 H 944.921 -4.6905 5.92898 0
M  V30 9308 H 946.189 -5.70618 5.31051 0
M  V30 9309 N 950.418 -1.49637 -0.494624 0
M  V30 9310 C 951.666 -1.5913 -1.24587 0
M  V30 9311 C 951.987 -0.282828 -1.92938 0
M  V30 9312 O 951.257 0.69825 -1.83034 0
M  V30 9313 H 949.837 -0.586329 -0.462847 0
M  V30 9314 H 952.499 -1.86296 -0.572696 0
M  V30 9315 H 951.595 -2.3906 -2.00641 0
M  V30 9316 N 951.896 0.746133 -1.38819 0
M  V30 9317 C 953.126 1.53316 -1.38484 0
M  V30 9318 C 953.534 1.89183 0.0253332 0
M  V30 9319 O 952.877 1.5382 1.00424 0
M  V30 9320 C 952.939 2.85623 -2.18311 0
M  V30 9321 C 952.603 2.72253 -3.67052 0
M  V30 9322 C 953.6 2.41547 -4.60381 0
M  V30 9323 C 951.285 2.89472 -4.10501 0
M  V30 9324 C 953.279 2.28226 -5.9514 0
M  V30 9325 C 950.966 2.7577 -5.45338 0
M  V30 9326 C 951.964 2.45191 -6.37472 0
M  V30 9327 O 951.652 2.31561 -7.69828 0
M  V30 9328 H 951.384 0.480763 -0.475229 0
M  V30 9329 H 953.938 0.93057 -1.83111 0
M  V30 9330 H 952.168 3.481 -1.68414 0
M  V30 9331 H 953.857 3.47178 -2.10291 0
M  V30 9332 H 954.623 2.27905 -4.28117 0
M  V30 9333 H 950.502 3.12269 -3.3913 0
M  V30 9334 H 954.046 2.04279 -6.6702 0
M  V30 9335 H 949.943 2.88987 -5.77197 0
M  V30 9336 H 950.711 2.46716 -7.80432 0
M  V30 9337 N 953.375 1.23811 0.975125 0
M  V30 9338 C 954.623 1.07124 1.71373 0
M  V30 9339 C 954.944 -0.391864 1.91022 0
M  V30 9340 O 954.214 -1.28041 1.48265 0
M  V30 9341 H 952.794 0.393415 0.635007 0
M  V30 9342 H 955.456 1.55612 1.17349 0
M  V30 9343 H 954.552 1.56338 2.7012 0
M  V30 9344 N 954.853 -1.17469 1.05066 0
M  V30 9345 C 955.8 -2.21443 0.650512 0
M  V30 9346 C 956.77 -1.62441 -0.346702 0
M  V30 9347 O 957.955 -1.89305 -0.238404 0
M  V30 9348 C 955.095 -3.45087 0.0301014 0
M  V30 9349 C 954.208 -4.18385 1.07599 0
M  V30 9350 C 953.343 -5.29513 0.423038 0
M  V30 9351 C 952.382 -5.94596 1.45333 0
M  V30 9352 N 951.519 -6.97241 0.824623 0
M  V30 9353 H 956.359 -2.55025 1.54163 0
M  V30 9354 H 953.896 -1.25274 0.771032 0
M  V30 9355 H 955.854 -4.15754 -0.347032 0
M  V30 9356 H 954.484 -3.12093 -0.824481 0
M  V30 9357 H 953.536 -3.46446 1.57097 0
M  V30 9358 H 954.848 -4.62899 1.85813 0
M  V30 9359 H 954.002 -6.067 -0.00774975 0
M  V30 9360 H 952.741 -4.86129 -0.391092 0
M  V30 9361 H 951.746 -5.16142 1.89415 0
M  V30 9362 H 952.971 -6.40061 2.26934 0
M  V30 9363 H 950.917 -6.55993 0.0309804 0
M  V30 9364 H 950.834 -7.40059 1.54432 0
M  V30 9365 H 952.102 -7.78375 0.418567 0
M  V30 9366 N 956.331 -0.831506 -1.3388 0
M  V30 9367 C 957.279 -0.247896 -2.31275 0
M  V30 9368 C 958.273 0.616083 -1.578 0
M  V30 9369 O 959.479 0.506465 -1.72728 0
M  V30 9370 H 955.854 -0.0614293 -0.749487 0
M  V30 9371 H 957.825 -1.08401 -2.78014 0
M  V30 9372 C 956.574 0.568434 -3.43022 0
M  V30 9373 H 955.897 -0.0870654 -3.99705 0
M  V30 9374 H 957.337 0.942751 -4.13386 0
M  V30 9375 C 955.796 1.74431 -2.88228 0
M  V30 9376 O 956.326 2.84278 -2.83811 0
M  V30 9377 N 954.532 1.56382 -2.44935 0
M  V30 9378 H 954.079 0.670255 -2.48727 0
M  V30 9379 H 954.037 2.35208 -2.08625 0
M  V30 9380 N 957.809 1.4625 -0.587256 0
M  V30 9381 C 958.757 2.32076 0.156108 0
M  V30 9382 C 959.751 1.44756 0.879887 0
M  V30 9383 O 960.957 1.61356 0.797759 0
M  V30 9384 H 957.332 0.748808 0.0692098 0
M  V30 9385 H 959.303 2.9258 -0.586497 0
M  V30 9386 C 958.052 3.28008 1.15352 0
M  V30 9387 H 957.375 3.9518 0.60601 0
M  V30 9388 H 958.815 3.90832 1.64396 0
M  V30 9389 C 957.274 2.53691 2.21681 0
M  V30 9390 O 957.804 2.30329 3.29107 0
M  V30 9391 N 956.01 2.14174 1.96412 0
M  V30 9392 H 955.557 2.33374 1.09061 0
M  V30 9393 H 955.515 1.6477 2.67765 0
M  V30 9394 N 959.287 0.325282 1.54207 0
M  V30 9395 C 960.197 -0.548778 2.28091 0
M  V30 9396 C 961.213 -1.12772 1.32508 0
M  V30 9397 O 962.389 -1.14732 1.65525 0
M  V30 9398 C 959.454 -1.69284 3.02562 0
M  V30 9399 C 958.515 -1.14553 4.13734 0
M  V30 9400 C 957.748 -2.23506 4.84645 0
M  V30 9401 O 957.971 -3.43884 4.55082 0
M  V30 9402 O 956.905 -1.88828 5.71513 0
M  V30 9403 H 960.731 0.0512974 3.03657 0
M  V30 9404 H 958.316 0.0909159 1.49123 0
M  V30 9405 H 960.198 -2.35887 3.49192 0
M  V30 9406 H 958.873 -2.27906 2.2987 0
M  V30 9407 H 957.78 -0.444532 3.71449 0
M  V30 9408 H 959.113 -0.60441 4.88475 0
M  V30 9409 N 960.765 -1.57509 0.0534917 0
M  V30 9410 C 962.176 -1.80374 -0.481867 0
M  V30 9411 C 962.527 -0.965917 -1.70776 0
M  V30 9412 O 961.652 -0.183167 -2.15623 0
M  V30 9413 C 962.247 -3.27146 -0.880978 0
M  V30 9414 C 960.806 -3.50921 -1.3613 0
M  V30 9415 C 959.953 -2.75237 -0.337611 0
M  V30 9416 H 962.904 -1.56222 0.279353 0
M  V30 9417 H 962.925 -3.38193 -1.74373 0
M  V30 9418 H 962.437 -3.88098 0.011441 0
M  V30 9419 H 960.538 -2.95251 -2.27283 0
M  V30 9420 H 960.651 -4.59632 -1.35186 0
M  V30 9421 H 959.015 -2.41444 -0.810991 0
M  V30 9422 H 959.798 -3.38918 0.546763 0
M  V30 9423 N 962.243 0.219913 -1.56058 0
M  V30 9424 C 963.173 1.27572 -1.9557 0
M  V30 9425 C 964.154 1.48801 -0.824148 0
M  V30 9426 O 965.339 1.60957 -1.08658 0
M  V30 9427 C 962.469 2.62517 -2.27381 0
M  V30 9428 C 961.423 2.55941 -3.43042 0
M  V30 9429 C 960.749 3.94931 -3.60463 0
M  V30 9430 C 962.049 2.10584 -4.77966 0
M  V30 9431 H 963.743 0.947482 -2.84013 0
M  V30 9432 H 961.289 0.454337 -1.36645 0
M  V30 9433 H 963.242 3.36538 -2.53615 0
M  V30 9434 H 961.966 2.97031 -1.35794 0
M  V30 9435 H 960.625 1.84377 -3.1686 0
M  V30 9436 H 960.273 4.26756 -2.66249 0
M  V30 9437 H 959.973 3.91413 -4.38258 0
M  V30 9438 H 961.497 4.70611 -3.89046 0
M  V30 9439 H 962.911 2.74349 -5.03394 0
M  V30 9440 H 961.308 2.18122 -5.59055 0
M  V30 9441 H 962.378 1.05818 -4.73213 0
M  V30 9442 N 963.721 1.49897 0.486681 0
M  V30 9443 C 965.137 1.36977 0.819109 0
M  V30 9444 C 965.337 0.41385 1.97204 0
M  V30 9445 O 964.393 -0.149249 2.52059 0
M  V30 9446 C 965.706 2.78013 1.14584 0
M  V30 9447 C 967.254 2.86816 1.25321 0
M  V30 9448 C 967.729 4.28651 1.61316 0
M  V30 9449 N 969.22 4.31528 1.68337 0
M  V30 9450 C 969.955 5.38254 1.97662 0
M  V30 9451 N 969.451 6.55207 2.25113 0
M  V30 9452 N 971.244 5.25683 1.99033 0
M  V30 9453 H 963.395 2.10634 -0.273364 0
M  V30 9454 H 965.658 0.946116 -0.0597418 0
M  V30 9455 H 965.364 3.49728 0.371892 0
M  V30 9456 H 965.238 3.1428 2.08585 0
M  V30 9457 H 967.625 2.15329 2.01785 0
M  V30 9458 H 967.706 2.54112 0.293368 0
M  V30 9459 H 967.35 5.00669 0.853968 0
M  V30 9460 H 967.28 4.5883 2.58424 0
M  V30 9461 H 969.771 3.47189 1.49226 0
M  V30 9462 H 970.084 7.32359 2.46717 0
M  V30 9463 H 968.429 6.58408 2.22538 0
M  V30 9464 H 971.62 4.33316 1.77074 0
M  V30 9465 H 971.793 6.08949 2.21552 0
M  V30 9466 N 965.199 -0.738761 1.39212 0
M  V30 9467 C 966.447 -1.49529 1.35962 0
M  V30 9468 C 966.768 -1.94948 -0.0450152 0
M  V30 9469 O 966.038 -1.68717 -0.995552 0
M  V30 9470 H 964.618 -0.554692 0.500326 0
M  V30 9471 H 967.28 -0.877255 1.74041 0
M  V30 9472 H 966.376 -2.37919 2.01993 0
M  V30 9473 N 966.677 -1.24326 -0.968545 0
M  V30 9474 C 967.907 -1.10786 -1.74385 0
M  V30 9475 C 968.315 0.342503 -1.86074 0
M  V30 9476 O 967.658 1.24817 -1.34782 0
M  V30 9477 C 967.72 -1.67274 -3.18213 0
M  V30 9478 C 967.384 -3.1615 -3.29998 0
M  V30 9479 C 968.381 -4.13309 -3.15392 0
M  V30 9480 C 966.066 -3.56092 -3.54265 0
M  V30 9481 C 968.06 -5.48392 -3.24878 0
M  V30 9482 C 965.747 -4.91316 -3.63389 0
M  V30 9483 C 966.745 -5.87275 -3.48707 0
M  V30 9484 O 966.433 -7.20041 -3.57485 0
M  V30 9485 H 966.165 -0.387795 -0.553706 0
M  V30 9486 H 968.719 -1.64894 -1.22471 0
M  V30 9487 H 966.949 -1.07598 -3.71429 0
M  V30 9488 H 968.638 -1.49036 -3.77549 0
M  V30 9489 H 969.404 -3.83792 -2.96528 0
M  V30 9490 H 965.283 -2.81907 -3.6476 0
M  V30 9491 H 968.827 -6.23271 -3.13335 0
M  V30 9492 H 964.724 -5.20505 -3.81766 0
M  V30 9493 H 965.492 -7.27951 -3.74205 0
M  V30 9494 N 968.156 1.1691 -1.05688 0
M  V30 9495 C 969.405 1.86629 -0.765022 0
M  V30 9496 C 969.718 1.82223 0.710918 0
M  V30 9497 O 970.924 2.47462 1.11691 0
M  V30 9498 C 969.38 3.34886 -1.3183 0
M  V30 9499 C 968.988 3.47781 -2.82404 0
M  V30 9500 C 970.732 4.099 -1.10372 0
M  V30 9501 C 968.639 4.9009 -3.31008 0
M  V30 9502 H 967.569 0.699082 -0.282491 0
M  V30 9503 H 970.22 1.31989 -1.27481 0
M  V30 9504 H 968.602 3.89094 -0.736312 0
M  V30 9505 H 969.776 3.03765 -3.46502 0
M  V30 9506 H 968.091 2.86193 -3.02461 0
M  V30 9507 H 970.688 5.14894 -1.4418 0
M  V30 9508 H 971.031 4.16279 -0.0417372 0
M  V30 9509 H 971.564 3.61913 -1.65117 0
M  V30 9510 H 968.303 4.88887 -4.36657 0
M  V30 9511 H 967.823 5.34756 -2.71655 0
M  V30 9512 H 969.502 5.58881 -3.25977 0
M  V30 9513 N 969.634 0.838594 1.33437 0
M  V30 9514 C 970.564 0.286672 2.31734 0
M  V30 9515 C 971.545 -0.605451 1.5896 0
M  V30 9516 O 972.73 -0.529059 1.86854 0
M  V30 9517 C 969.86 -0.539311 3.43087 0
M  V30 9518 C 968.814 0.256997 4.27228 0
M  V30 9519 C 968.14 -0.692718 5.30194 0
M  V30 9520 C 969.44 1.47391 5.01072 0
M  V30 9521 H 971.134 1.10798 2.78144 0
M  V30 9522 H 968.68 0.534235 1.33723 0
M  V30 9523 H 970.633 -0.935724 4.1088 0
M  V30 9524 H 969.357 -1.39383 2.95364 0
M  V30 9525 H 968.016 0.634967 3.61059 0
M  V30 9526 H 967.664 -1.54363 4.78729 0
M  V30 9527 H 967.364 -0.164023 5.87371 0
M  V30 9528 H 968.888 -1.08665 6.00853 0
M  V30 9529 H 970.302 1.15067 5.61634 0
M  V30 9530 H 968.699 1.93937 5.67898 0
M  V30 9531 H 969.769 2.24382 4.29861 0
M  V30 9532 N 971.112 -1.45937 0.595003 0
M  V30 9533 C 972.34 -2.06698 0.091293 0
M  V30 9534 C 972.755 -1.44176 -1.21897 0
M  V30 9535 O 972.112 -0.551402 -1.73971 0
M  V30 9536 C 972.163 -3.61436 -0.0681801 0
M  V30 9537 O 971.884 -4.21622 1.19023 0
M  V30 9538 C 973.385 -4.39155 -0.604814 0
M  V30 9539 H 970.605 -0.668029 0.0630737 0
M  V30 9540 H 973.149 -1.87376 0.819165 0
M  V30 9541 H 971.304 -3.80143 -0.746324 0
M  V30 9542 H 971.718 -5.14647 1.01187 0
M  V30 9543 H 973.192 -5.47973 -0.665532 0
M  V30 9544 H 973.669 -4.08055 -1.62444 0
M  V30 9545 H 974.275 -4.25282 0.0388658 0
M  V30 9546 N 972.59 -0.333456 -1.54032 0
M  V30 9547 C 973.837 0.266133 -2.00744 0
M  V30 9548 C 974.165 1.51361 -1.22148 0
M  V30 9549 O 973.42 1.93473 -0.294368 0
M  V30 9550 C 973.719 0.63565 -3.51702 0
M  V30 9551 C 973.385 -0.513786 -4.47963 0
M  V30 9552 C 972.047 -0.829253 -4.74001 0
M  V30 9553 C 974.399 -1.2854 -5.05101 0
M  V30 9554 C 971.727 -1.91888 -5.54433 0
M  V30 9555 C 974.079 -2.3652 -5.86721 0
M  V30 9556 C 972.743 -2.68637 -6.11057 0
M  V30 9557 H 972.013 0.097385 -0.734573 0
M  V30 9558 H 974.66 -0.459282 -1.85911 0
M  V30 9559 H 972.965 1.44163 -3.64313 0
M  V30 9560 H 974.662 1.11129 -3.85294 0
M  V30 9561 H 971.252 -0.25784 -4.27824 0
M  V30 9562 H 975.436 -1.05494 -4.84958 0
M  V30 9563 H 970.692 -2.17208 -5.71516 0
M  V30 9564 H 974.866 -2.96747 -6.30011 0
M  V30 9565 H 972.493 -3.53197 -6.73169 0
M  V30 9566 N 974.068 1.57479 -0.061844 0
M  V30 9567 C 974.998 2.15181 0.9066 0
M  V30 9568 C 975.979 1.07624 1.31724 0
M  V30 9569 O 977.164 1.35614 1.39006 0
M  V30 9570 C 974.294 2.70542 2.17771 0
M  V30 9571 C 973.248 3.83178 1.9068 0
M  V30 9572 C 972.574 4.25099 3.24337 0
M  V30 9573 C 973.874 5.07853 1.21994 0
M  V30 9574 H 975.568 2.96355 0.42594 0
M  V30 9575 H 973.114 1.42556 0.203435 0
M  V30 9576 H 975.067 3.09552 2.85929 0
M  V30 9577 H 973.791 1.86575 2.68062 0
M  V30 9578 H 972.45 3.44656 1.24931 0
M  V30 9579 H 972.098 3.38069 3.72449 0
M  V30 9580 H 971.798 5.01021 3.07005 0
M  V30 9581 H 973.322 4.66718 3.93709 0
M  V30 9582 H 974.736 5.44242 1.80204 0
M  V30 9583 H 973.133 5.88987 1.14954 0
M  V30 9584 H 974.203 4.84497 0.197536 0
M  V30 9585 N 975.546 -0.211634 1.56173 0
M  V30 9586 C 976.795 -0.932647 1.78842 0
M  V30 9587 C 977.108 -1.85103 0.63217 0
M  V30 9588 O 978.314 -2.61143 0.742746 0
M  V30 9589 C 976.77 -1.70866 3.16753 0
M  V30 9590 C 976.378 -0.835934 4.40132 0
M  V30 9591 C 978.122 -2.4203 3.48743 0
M  V30 9592 C 976.029 -1.60987 5.69067 0
M  V30 9593 H 974.959 -0.351983 0.666801 0
M  V30 9594 H 977.61 -0.186284 1.82552 0
M  V30 9595 H 975.992 -2.4983 3.07247 0
M  V30 9596 H 977.166 -0.0861298 4.60719 0
M  V30 9597 H 975.481 -0.235941 4.15731 0
M  V30 9598 H 978.078 -3.00453 4.42303 0
M  V30 9599 H 978.421 -3.15406 2.71707 0
M  V30 9600 H 978.954 -1.70048 3.59623 0
M  V30 9601 H 975.693 -0.9192 6.49023 0
M  V30 9602 H 975.213 -2.33403 5.52524 0
M  V30 9603 H 976.892 -2.16798 6.09596 0
M  V30 9604 N 977.024 -1.50153 -0.478725 0
M  V30 9605 C 977.987 -1.67916 -1.56003 0
M  V30 9606 C 978.987 -0.550111 -1.51097 0
M  V30 9607 O 980.177 -0.817001 -1.53853 0
M  V30 9608 C 977.309 -1.6973 -2.95643 0
M  V30 9609 H 978.502 -2.6438 -1.41573 0
M  V30 9610 H 976.055 -1.39519 -0.704565 0
M  V30 9611 H 976.79 -0.749306 -3.15525 0
M  V30 9612 H 976.575 -2.51745 -3.00611 0
M  V30 9613 H 978.065 -1.85453 -3.74162 0
M  V30 9614 N 978.502 0.731368 -1.39602 0
M  V30 9615 C 979.432 1.85855 -1.41351 0
M  V30 9616 C 980.413 1.67839 -0.2764 0
M  V30 9617 O 981.598 1.88104 -0.482747 0
M  V30 9618 C 978.728 3.23644 -1.25983 0
M  V30 9619 C 977.682 3.56304 -2.37132 0
M  V30 9620 C 977.008 4.93069 -2.0685 0
M  V30 9621 C 978.308 3.58906 -3.79452 0
M  V30 9622 H 980.002 1.84648 -2.3568 0
M  V30 9623 H 977.548 0.886955 -1.13442 0
M  V30 9624 H 979.501 4.02176 -1.25826 0
M  V30 9625 H 978.225 3.25387 -0.281234 0
M  V30 9626 H 976.884 2.80104 -2.36511 0
M  V30 9627 H 976.532 4.91396 -1.0742 0
M  V30 9628 H 976.232 5.15888 -2.81306 0
M  V30 9629 H 977.756 5.73953 -2.0835 0
M  V30 9630 H 979.17 4.27508 -3.81982 0
M  V30 9631 H 977.567 3.93246 -4.53297 0
M  V30 9632 H 978.637 2.58631 -4.10168 0
M  V30 9633 N 979.98 1.24838 0.961938 0
M  V30 9634 C 981.228 1.08936 1.70227 0
M  V30 9635 C 981.549 -0.371582 1.91427 0
M  V30 9636 O 980.819 -1.26461 1.49614 0
M  V30 9637 H 979.399 0.400128 0.630799 0
M  V30 9638 H 982.061 1.56848 1.15692 0
M  V30 9639 H 981.157 1.59195 2.68446 0
M  V30 9640 N 981.458 -1.16348 1.06306 0
M  V30 9641 C 982.705 -1.86881 0.779852 0
M  V30 9642 C 983.033 -1.8171 -0.693668 0
M  V30 9643 O 982.288 -1.22769 -1.52401 0
M  V30 9644 C 982.587 -3.35936 1.21991 0
M  V30 9645 C 982.253 -3.61307 2.69756 0
M  V30 9646 C 980.915 -3.6794 3.10119 0
M  V30 9647 C 983.267 -3.71871 3.65187 0
M  V30 9648 C 980.595 -3.82639 4.44752 0
M  V30 9649 C 982.947 -3.88091 4.99568 0
M  V30 9650 C 981.611 -3.92967 5.39568 0
M  V30 9651 H 980.881 -0.683847 0.285368 0
M  V30 9652 H 983.528 -1.37569 1.33218 0
M  V30 9653 H 981.833 -3.87381 0.586774 0
M  V30 9654 H 983.53 -3.88895 0.977821 0
M  V30 9655 H 980.12 -3.56777 2.37504 0
M  V30 9656 H 984.304 -3.66057 3.35136 0
M  V30 9657 H 979.56 -3.84666 4.75228 0
M  V30 9658 H 983.734 -3.95207 5.73397 0
M  V30 9659 H 981.361 -4.04109 6.43895 0
M  V30 9660 N 982.937 -0.845659 -1.3299 0
M  V30 9661 C 984.186 -0.440928 -1.96822 0
M  V30 9662 C 984.499 1.00668 -1.67706 0
M  V30 9663 O 985.705 1.51641 -2.25205 0
M  V30 9664 C 984.161 -0.73752 -3.52262 0
M  V30 9665 C 983.769 -2.20026 -3.90247 0
M  V30 9666 C 985.513 -0.400072 -4.22611 0
M  V30 9667 C 983.42 -2.44054 -5.38694 0
M  V30 9668 H 982.35 -0.161148 -0.736578 0
M  V30 9669 H 985.001 -1.03519 -1.51513 0
M  V30 9670 H 983.383 -0.0728025 -3.95933 0
M  V30 9671 H 984.557 -2.90602 -3.57613 0
M  V30 9672 H 982.872 -2.50135 -3.32899 0
M  V30 9673 H 985.469 -0.557136 -5.3179 0
M  V30 9674 H 985.812 0.657547 -4.11074 0
M  V30 9675 H 986.345 -1.0203 -3.84493 0
M  V30 9676 H 983.084 -3.48407 -5.55241 0
M  V30 9677 H 982.604 -1.78047 -5.72765 0
M  V30 9678 H 984.283 -2.27549 -6.05665 0
M  V30 9679 N 984.415 1.45619 -0.602734 0
M  V30 9680 C 985.345 2.33258 0.106342 0
M  V30 9681 C 986.326 1.46543 0.863664 0
M  V30 9682 O 987.511 1.75324 0.835175 0
M  V30 9683 C 984.641 3.29168 1.10751 0
M  V30 9684 C 983.595 4.25481 0.463717 0
M  V30 9685 C 982.921 5.11046 1.57278 0
M  V30 9686 C 984.221 5.18702 -0.61199 0
M  V30 9687 H 985.915 2.92795 -0.625423 0
M  V30 9688 H 983.461 1.40793 -0.302213 0
M  V30 9689 H 985.414 3.89346 1.61208 0
M  V30 9690 H 984.138 2.6778 1.8698 0
M  V30 9691 H 982.797 3.66595 -0.0199496 0
M  V30 9692 H 982.445 4.46029 2.32524 0
M  V30 9693 H 982.145 5.76286 1.14755 0
M  V30 9694 H 983.669 5.74091 2.07972 0
M  V30 9695 H 985.083 5.72979 -0.191686 0
M  V30 9696 H 983.48 5.92393 -0.958686 0
M  V30 9697 H 984.55 4.61424 -1.4905 0
M  V30 9698 N 985.893 0.34162 1.53853 0
M  V30 9699 C 987.142 -0.256475 2.00063 0
M  V30 9700 C 987.455 -1.51811 1.23341 0
M  V30 9701 O 988.661 -2.19332 1.60017 0
M  V30 9702 C 987.117 -0.507567 3.56303 0
M  V30 9703 C 986.725 0.738052 4.41879 0
M  V30 9704 C 988.469 -1.06463 4.10933 0
M  V30 9705 C 986.376 0.457865 5.89625 0
M  V30 9706 H 985.306 -0.0996143 0.747391 0
M  V30 9707 H 987.957 0.456649 1.77727 0
M  V30 9708 H 986.339 -1.28134 3.74697 0
M  V30 9709 H 987.513 1.51278 4.3526 0
M  V30 9710 H 985.828 1.21661 3.98231 0
M  V30 9711 H 988.425 -1.28918 5.18926 0
M  V30 9712 H 988.768 -2.01956 3.64032 0
M  V30 9713 H 989.301 -0.351601 3.96243 0
M  V30 9714 H 986.04 1.38247 6.40756 0
M  V30 9715 H 985.56 -0.278818 5.99152 0
M  V30 9716 H 987.239 0.0743914 6.46957 0
M  V30 9717 N 987.371 -1.57444 0.0701946 0
M  V30 9718 C 988.334 -2.11511 -0.882923 0
M  V30 9719 C 989.334 -1.03879 -1.22743 0
M  V30 9720 O 990.524 -1.29874 -1.16097 0
M  V30 9721 C 987.656 -2.61514 -2.18686 0
M  V30 9722 H 988.849 -2.9703 -0.413873 0
M  V30 9723 H 986.402 -1.55278 -0.178488 0
M  V30 9724 H 987.137 -1.79443 -2.70131 0
M  V30 9725 H 986.922 -3.40185 -1.94978 0
M  V30 9726 H 988.412 -3.03425 -2.86919 0
M  V30 9727 N 988.849 0.203349 -1.56283 0
M  V30 9728 C 989.759 1.27266 -1.9708 0
M  V30 9729 C 990.775 1.50268 -0.877236 0
M  V30 9730 O 991.951 1.63044 -1.18231 0
M  V30 9731 C 989.016 2.59871 -2.29495 0
M  V30 9732 C 988.077 2.45012 -3.52516 0
M  V30 9733 C 987.31 3.71293 -3.83376 0
M  V30 9734 O 987.533 4.75106 -3.15643 0
M  V30 9735 O 986.467 3.67316 -4.76826 0
M  V30 9736 H 990.293 0.956461 -2.88246 0
M  V30 9737 H 987.878 0.407688 -1.4373 0
M  V30 9738 H 989.76 3.38152 -2.51458 0
M  V30 9739 H 988.435 2.91135 -1.415 0
M  V30 9740 H 987.342 1.6487 -3.35811 0
M  V30 9741 H 988.675 2.18683 -4.40952 0
M  V30 9742 N 990.327 1.50405 0.470755 0
M  V30 9743 C 991.257 1.72222 1.57676 0
M  V30 9744 C 992.238 0.57121 1.60222 0
M  V30 9745 O 993.423 0.810381 1.76484 0
M  V30 9746 C 990.553 1.81666 2.95998 0
M  V30 9747 C 989.507 2.96857 3.08318 0
M  V30 9748 C 988.833 2.91445 4.4829 0
M  V30 9749 C 990.133 4.37361 2.85504 0
M  V30 9750 H 991.827 2.64825 1.39671 0
M  V30 9751 H 989.373 1.27438 0.67049 0
M  V30 9752 H 991.326 1.95514 3.73299 0
M  V30 9753 H 990.05 0.856856 3.1516 0
M  V30 9754 H 988.709 2.82661 2.33449 0
M  V30 9755 H 988.357 1.93309 4.64371 0
M  V30 9756 H 988.057 3.68776 4.57469 0
M  V30 9757 H 989.581 3.07341 5.27611 0
M  V30 9758 H 990.995 4.52081 3.52555 0
M  V30 9759 H 989.392 5.16145 3.06127 0
M  V30 9760 H 990.462 4.49708 1.81359 0
M  V30 9761 N 991.805 -0.723954 1.39988 0
M  V30 9762 C 992.753 -1.85938 1.39749 0
M  V30 9763 C 993.747 -1.67085 0.279112 0
M  V30 9764 O 994.953 -1.74291 0.44972 0
M  V30 9765 H 991.328 -0.612246 0.436644 0
M  V30 9766 H 993.299 -1.83255 2.355 0
M  V30 9767 C 992.048 -3.23726 1.26874 0
M  V30 9768 H 991.371 -3.38835 2.12206 0
M  V30 9769 H 992.811 -4.03332 1.30765 0
M  V30 9770 C 991.27 -3.36893 -0.0218317 0
M  V30 9771 O 991.8 -3.89363 -0.987905 0
M  V30 9772 N 990.006 -2.90465 -0.0885618 0
M  V30 9773 H 989.553 -2.47954 0.698314 0
M  V30 9774 H 989.511 -2.99654 -0.951557 0
M  V30 9775 N 993.283 -1.25346 -0.955304 0
M  V30 9776 C 994.529 -1.10218 -1.70235 0
M  V30 9777 C 994.862 0.356124 -1.90907 0
M  V30 9778 O 994.137 1.26253 -1.47954 0
M  V30 9779 C 994.42 -1.85627 -3.08569 0
M  V30 9780 C 994.273 -3.39281 -2.95311 0
M  V30 9781 C 995.592 -1.63886 -4.08448 0
M  V30 9782 H 992.711 -0.401781 -0.617852 0
M  V30 9783 H 995.353 -1.5417 -1.11048 0
M  V30 9784 H 993.503 -1.48269 -3.59094 0
M  V30 9785 H 995.175 -3.8631 -2.52116 0
M  V30 9786 H 993.418 -3.67027 -2.31244 0
M  V30 9787 H 994.089 -3.87258 -3.93364 0
M  V30 9788 H 996.565 -1.96406 -3.6683 0
M  V30 9789 H 995.441 -2.19087 -5.03281 0
M  V30 9790 H 995.702 -0.580021 -4.38279 0
M  V30 9791 N 994.761 1.15782 -1.06922 0
M  V30 9792 C 996.01 1.85807 -0.784774 0
M  V30 9793 C 996.323 1.82967 0.691551 0
M  V30 9794 O 997.529 2.48632 1.0906 0
M  V30 9795 C 995.985 3.33469 -1.35375 0
M  V30 9796 C 995.593 3.44766 -2.86077 0
M  V30 9797 C 997.337 4.08707 -1.14713 0
M  V30 9798 C 995.244 4.86551 -3.36187 0
M  V30 9799 H 994.174 0.696046 -0.28989 0
M  V30 9800 H 996.825 1.30629 -1.28873 0
M  V30 9801 H 995.207 3.88292 -0.77754 0
M  V30 9802 H 996.381 3.00073 -3.49704 0
M  V30 9803 H 994.696 2.82969 -3.05479 0
M  V30 9804 H 997.293 5.13336 -1.49633 0
M  V30 9805 H 997.636 4.16211 -0.0858868 0
M  V30 9806 H 998.169 3.60142 -1.68946 0
M  V30 9807 H 994.908 4.84229 -4.41818 0
M  V30 9808 H 994.428 5.31844 -2.77312 0
M  V30 9809 H 996.107 5.55392 -3.31887 0
M  V30 9810 N 996.239 0.8527 1.3254 0
M  V30 9811 C 997.202 0.300959 2.27215 0
M  V30 9812 C 998.202 -0.538235 1.51525 0
M  V30 9813 O 999.392 -0.350027 1.70647 0
M  V30 9814 C 996.524 -0.574428 3.36025 0
M  V30 9815 H 997.717 1.13655 2.77529 0
M  V30 9816 H 995.27 0.626878 1.43178 0
M  V30 9817 H 996.005 -1.43191 2.90976 0
M  V30 9818 H 995.79 0.0262265 3.92091 0
M  V30 9819 H 997.28 -0.9533 4.06573 0
M  V30 9820 N 997.718 -1.45297 0.610449 0
M  V30 9821 C 999.129 -1.85715 0.191488 0
M  V30 9822 C 999.48 -1.51036 -1.25229 0
M  V30 9823 O 998.605 -0.938422 -1.94994 0
M  V30 9824 C 999.2 -3.37082 0.340747 0
M  V30 9825 C 997.759 -3.76393 -0.0235433 0
M  V30 9826 C 996.906 -2.69237 0.663849 0
M  V30 9827 H 999.857 -1.36058 0.816948 0
M  V30 9828 H 999.878 -3.78105 -0.426233 0
M  V30 9829 H 999.39 -3.62291 1.39164 0
M  V30 9830 H 997.491 -3.56801 -1.07351 0
M  V30 9831 H 997.604 -4.77653 0.372102 0
M  V30 9832 H 995.968 -2.54499 0.101204 0
M  V30 9833 H 996.751 -2.97281 1.71694 0
M  V30 9834 N 999.196 -0.349774 -1.5367 0
M  V30 9835 C 1000.44 0.245862 -2.00196 0
M  V30 9836 C 1000.76 1.51154 -1.24144 0
M  V30 9837 O 1001.96 2.18481 -1.61178 0
M  V30 9838 C 1000.42 0.488665 -3.56567 0
M  V30 9839 C 1000.03 -0.761475 -4.41481 0
M  V30 9840 C 1001.77 1.04282 -4.11492 0
M  V30 9841 C 999.679 -0.489128 -5.89374 0
M  V30 9842 H 998.609 0.0956493 -0.747909 0
M  V30 9843 H 1001.26 -0.466068 -1.77483 0
M  V30 9844 H 999.642 1.26145 -3.75371 0
M  V30 9845 H 1000.82 -1.53585 -4.34452 0
M  V30 9846 H 999.131 -1.23771 -3.9758 0
M  V30 9847 H 1001.73 1.26164 -5.19603 0
M  V30 9848 H 1002.07 2.00023 -3.65098 0
M  V30 9849 H 1002.6 0.330582 -3.96424 0
M  V30 9850 H 999.343 -1.41643 -6.40014 0
M  V30 9851 H 998.863 0.247039 -5.99291 0
M  V30 9852 H 1000.54 -0.1087 -6.46909 0
M  V30 9853 N 1000.67 1.57404 -0.0785433 0
M  V30 9854 C 1001.92 1.9292 0.588626 0
M  V30 9855 C 1002.24 0.961106 1.70359 0
M  V30 9856 O 1003.44 1.20934 2.43079 0
M  V30 9857 C 1001.9 3.42729 1.09839 0
M  V30 9858 C 1001.51 4.47998 0.0140773 0
M  V30 9859 C 1003.25 3.87235 1.73924 0
M  V30 9860 C 1001.16 5.88945 0.538269 0
M  V30 9861 H 1000.09 0.720069 0.223645 0
M  V30 9862 H 1002.74 1.8287 -0.15187 0
M  V30 9863 H 1001.12 3.47875 1.89207 0
M  V30 9864 H 1002.29 4.54476 -0.760773 0
M  V30 9865 H 1000.61 4.13001 -0.53095 0
M  V30 9866 H 1003.21 4.89927 2.14186 0
M  V30 9867 H 1003.55 3.24971 2.60191 0
M  V30 9868 H 1004.08 3.84721 1.01168 0
M  V30 9869 H 1000.82 6.5487 -0.287395 0
M  V30 9870 H 1000.34 5.85972 1.28049 0
M  V30 9871 H 1002.02 6.39028 1.01253 0
M  V30 9872 N 1002.15 -0.195058 1.56388 0
M  V30 9873 C 1003.38 -0.935745 1.85091 0
M  V30 9874 C 1003.8 -1.76061 0.662118 0
M  V30 9875 O 1003.16 -1.77076 -0.389083 0
M  V30 9876 C 1003.21 -1.80764 3.1202 0
M  V30 9877 O 1002.31 -2.90643 2.92575 0
M  V30 9878 H 1001.65 -0.26351 0.609474 0
M  V30 9879 H 1004.18 -0.200362 2.03617 0
M  V30 9880 H 1004.19 -2.21229 3.42815 0
M  V30 9881 H 1002.87 -1.20157 3.98165 0
M  V30 9882 H 1001.44 -2.53934 2.73079 0
M  V30 9883 N 1003.63 -1.50653 -0.462772 0
M  V30 9884 C 1004.58 -1.70661 -1.58043 0
M  V30 9885 C 1005.57 -0.572533 -1.59432 0
M  V30 9886 O 1006.78 -0.753257 -1.63481 0
M  V30 9887 H 1003.15 -0.538805 -0.524588 0
M  V30 9888 H 1005.12 -2.64399 -1.38332 0
M  V30 9889 C 1003.87 -1.82558 -2.95919 0
M  V30 9890 H 1003.2 -2.69216 -2.95572 0
M  V30 9891 H 1004.64 -2.0058 -3.73556 0
M  V30 9892 C 1003.09 -0.57916 -3.31885 0
M  V30 9893 O 1003.62 0.277888 -4.00738 0
M  V30 9894 N 1001.83 -0.430723 -2.8739 0
M  V30 9895 H 1001.38 -1.1292 -2.31531 0
M  V30 9896 H 1001.34 0.402061 -3.11819 0
M  V30 9897 N 1005.11 0.71652 -1.4037 0
M  V30 9898 C 1006.36 1.47638 -1.38597 0
M  V30 9899 C 1006.68 1.94496 0.0120141 0
M  V30 9900 O 1005.94 1.68437 0.996373 0
M  V30 9901 C 1006.24 2.71777 -2.32103 0
M  V30 9902 C 1005.9 2.43689 -3.79376 0
M  V30 9903 C 1004.57 2.35739 -4.195 0
M  V30 9904 C 1006.92 2.20099 -4.72447 0
M  V30 9905 C 1004.25 2.02265 -5.50732 0
M  V30 9906 C 1006.6 1.88138 -6.03976 0
M  V30 9907 C 1005.26 1.78669 -6.43143 0
M  V30 9908 H 1004.53 0.540246 -0.507163 0
M  V30 9909 H 1007.18 0.820822 -1.73017 0
M  V30 9910 H 1005.48 3.42166 -1.90865 0
M  V30 9911 H 1007.18 3.29864 -2.28015 0
M  V30 9912 H 1003.77 2.50763 -3.47585 0
M  V30 9913 H 1007.95 2.25198 -4.42266 0
M  V30 9914 H 1003.21 1.93471 -5.79982 0
M  V30 9915 H 1007.38 1.68898 -6.75608 0
M  V30 9916 H 1005.01 1.52498 -7.44747 0
M  V30 9917 N 1006.59 1.25851 0.948643 0
M  V30 9918 C 1007.83 1.10954 1.69397 0
M  V30 9919 C 1008.16 -0.348443 1.91353 0
M  V30 9920 O 1007.42 -1.27285 1.48651 0
M  V30 9921 C 1007.72 1.81565 3.07846 0
M  V30 9922 C 1007.38 3.31477 3.0567 0
M  V30 9923 C 1006.04 3.72371 3.04784 0
M  V30 9924 C 1008.4 4.27225 2.98543 0
M  V30 9925 C 1005.72 5.07416 2.94527 0
M  V30 9926 C 1008.08 5.62301 2.89828 0
M  V30 9927 C 1006.74 6.02516 2.87281 0
M  V30 9928 H 1006.01 0.406011 0.619868 0
M  V30 9929 H 1008.66 1.562 1.10787 0
M  V30 9930 H 1006.96 1.28767 3.70035 0
M  V30 9931 H 1008.66 1.67486 3.64348 0
M  V30 9932 H 1005.25 2.98941 3.07135 0
M  V30 9933 H 1009.43 3.96618 2.98342 0
M  V30 9934 H 1004.69 5.37746 2.90928 0
M  V30 9935 H 1008.86 6.36182 2.83276 0
M  V30 9936 H 1006.49 7.07116 2.79089 0
M  V30 9937 N 1008.06 -1.15214 1.07534 0
M  V30 9938 C 1008.99 -2.2216 0.718837 0
M  V30 9939 C 1009.98 -1.6753 -0.29459 0
M  V30 9940 O 1011.16 -1.93481 -0.166931 0
M  V30 9941 C 1008.29 -3.471 0.117836 0
M  V30 9942 C 1007.24 -4.14701 1.05862 0
M  V30 9943 C 1006.57 -5.3374 0.320284 0
M  V30 9944 C 1007.87 -4.64254 2.39302 0
M  V30 9945 H 1009.56 -2.52237 1.61297 0
M  V30 9946 H 1007.11 -1.21239 0.776992 0
M  V30 9947 H 1009.06 -4.21156 -0.143519 0
M  V30 9948 H 1007.79 -3.16361 -0.811389 0
M  V30 9949 H 1006.45 -3.42589 1.30493 0
M  V30 9950 H 1006.09 -4.99257 -0.61246 0
M  V30 9951 H 1005.79 -5.79912 0.947381 0
M  V30 9952 H 1007.32 -6.10563 0.0667721 0
M  V30 9953 H 1008.73 -5.29827 2.18988 0
M  V30 9954 H 1007.13 -5.21095 2.97623 0
M  V30 9955 H 1008.2 -3.79793 3.01472 0
M  V30 9956 N 1009.54 -0.859717 -1.32086 0
M  V30 9957 C 1010.51 -0.313005 -2.27053 0
M  V30 9958 C 1011.51 0.530191 -1.51808 0
M  V30 9959 O 1012.7 0.340972 -1.7083 0
M  V30 9960 C 1009.83 0.5566 -3.36325 0
M  V30 9961 H 1011.02 -1.15125 -2.76923 0
M  V30 9962 H 1008.57 -0.634463 -1.42843 0
M  V30 9963 H 1009.31 1.41645 -2.91731 0
M  V30 9964 H 1009.09 -0.0470197 -3.92072 0
M  V30 9965 H 1010.58 0.931725 -4.07073 0
M  V30 9966 N 1011.02 1.44971 -0.618145 0
M  V30 9967 C 1012.25 2.07039 -0.122395 0
M  V30 9968 C 1012.67 1.45793 1.18853 0
M  V30 9969 O 1012.03 0.55453 1.72611 0
M  V30 9970 C 1012.08 3.60599 -0.0073864 0
M  V30 9971 O 1011.18 3.99069 1.04007 0
M  V30 9972 H 1010.52 0.6593 -0.0788615 0
M  V30 9973 H 1013.05 1.86055 -0.851147 0
M  V30 9974 H 1013.06 4.07569 0.187417 0
M  V30 9975 H 1011.74 4.04561 -0.964544 0
M  V30 9976 H 1010.31 3.63753 0.820879 0
M  V30 9977 N 1012.5 0.357919 1.53482 0
M  V30 9978 C 1013.73 -0.234799 2.05261 0
M  V30 9979 C 1014.14 -1.43618 1.23169 0
M  V30 9980 O 1013.48 -1.81801 0.263435 0
M  V30 9981 C 1013.54 -0.699748 3.52624 0
M  V30 9982 C 1013.21 0.383905 4.55385 0
M  V30 9983 C 1014.2 1.23129 5.05109 0
M  V30 9984 C 1011.89 0.541953 4.99368 0
M  V30 9985 C 1013.88 2.22214 5.97411 0
M  V30 9986 C 1011.57 1.53618 5.91477 0
M  V30 9987 C 1012.57 2.37471 6.40388 0
M  V30 9988 O 1012.25 3.35199 7.30682 0
M  V30 9989 H 1011.99 -0.0465364 0.674396 0
M  V30 9990 H 1014.54 0.512355 1.98907 0
M  V30 9991 H 1012.77 -1.49838 3.5649 0
M  V30 9992 H 1014.46 -1.21461 3.87301 0
M  V30 9993 H 1015.23 1.12035 4.71883 0
M  V30 9994 H 1011.1 -0.100929 4.6089 0
M  V30 9995 H 1014.65 2.87702 6.35511 0
M  V30 9996 H 1010.55 1.64763 6.24118 0
M  V30 9997 H 1011.31 3.30838 7.48658 0
M  V30 9998 N 1013.98 -1.5736 0.0868897 0
M  V30 9999 C 1014.94 -2.12436 -0.860439 0
M  V30 10000 C 1015.94 -1.05175 -1.21634 0
M  V30 10001 O 1017.13 -1.31098 -1.14713 0
M  V30 10002 C 1014.26 -2.63818 -2.159 0
M  V30 10003 H 1015.45 -2.97453 -0.382346 0
M  V30 10004 H 1013.01 -1.55458 -0.162009 0
M  V30 10005 H 1013.74 -1.82298 -2.68212 0
M  V30 10006 H 1013.53 -3.42234 -1.91359 0
M  V30 10007 H 1015.02 -3.06452 -2.83685 0
M  V30 10008 N 1015.45 0.186762 -1.56489 0
M  V30 10009 C 1016.38 1.23395 -1.98232 0
M  V30 10010 C 1017.37 1.4702 -0.855526 0
M  V30 10011 O 1018.55 1.58616 -1.12048 0
M  V30 10012 C 1015.68 2.57635 -2.32898 0
M  V30 10013 C 1014.63 2.48607 -3.48394 0
M  V30 10014 C 1013.96 3.87196 -3.68759 0
M  V30 10015 C 1015.26 2.00398 -4.82325 0
M  V30 10016 H 1016.95 0.887026 -2.85958 0
M  V30 10017 H 1014.5 0.42525 -1.37578 0
M  V30 10018 H 1016.45 3.31082 -2.60696 0
M  V30 10019 H 1015.18 2.94084 -1.42064 0
M  V30 10020 H 1013.84 1.77615 -3.207 0
M  V30 10021 H 1013.48 4.21012 -2.75241 0
M  V30 10022 H 1013.18 3.82029 -4.46462 0
M  V30 10023 H 1014.71 4.62253 -3.98941 0
M  V30 10024 H 1016.12 2.6361 -5.091 0
M  V30 10025 H 1014.52 2.06214 -5.63556 0
M  V30 10026 H 1015.59 0.957562 -4.75351 0
M  V30 10027 N 1016.93 1.50896 0.454776 0
M  V30 10028 C 1018.18 1.61936 1.20248 0
M  V30 10029 C 1018.49 0.332983 1.92745 0
M  V30 10030 O 1019.7 0.322512 2.69578 0
M  V30 10031 C 1018.16 2.85916 2.18587 0
M  V30 10032 C 1017.76 4.21492 1.51818 0
M  V30 10033 C 1019.51 3.06307 2.93898 0
M  V30 10034 C 1017.42 5.3664 2.48539 0
M  V30 10035 H 1016.35 0.603098 0.452536 0
M  V30 10036 H 1019 1.77345 0.471257 0
M  V30 10037 H 1017.38 2.64101 2.95071 0
M  V30 10038 H 1018.55 4.53623 0.810123 0
M  V30 10039 H 1016.87 4.06837 0.887265 0
M  V30 10040 H 1019.46 3.89507 3.66317 0
M  V30 10041 H 1019.81 2.18683 3.54236 0
M  V30 10042 H 1020.34 3.2838 2.24525 0
M  V30 10043 H 1017.08 6.26469 1.92916 0
M  V30 10044 H 1016.6 5.08907 3.17449 0
M  V30 10045 H 1018.28 5.67881 3.10033 0
M  V30 10046 N 1018.41 -0.709066 1.40748 0
M  V30 10047 C 1019.36 -1.84445 1.41714 0
M  V30 10048 C 1020.35 -1.66779 0.296818 0
M  V30 10049 O 1021.56 -1.73805 0.468181 0
M  V30 10050 H 1017.93 -0.607581 0.443114 0
M  V30 10051 H 1019.9 -1.80747 2.3743 0
M  V30 10052 C 1018.65 -3.22362 1.303 0
M  V30 10053 H 1017.98 -3.36565 2.15787 0
M  V30 10054 H 1019.42 -4.01922 1.35036 0
M  V30 10055 C 1017.88 -3.36897 0.0139015 0
M  V30 10056 O 1018.41 -3.90389 -0.946553 0
M  V30 10057 N 1016.61 -2.90543 -0.0577491 0
M  V30 10058 H 1016.16 -2.472 0.724574 0
M  V30 10059 H 1016.12 -3.00647 -0.919721 0
M  V30 10060 N 1019.89 -1.26353 -0.941956 0
M  V30 10061 C 1021.14 -1.11851 -1.68806 0
M  V30 10062 C 1021.46 0.33829 -1.91535 0
M  V30 10063 O 1020.72 1.26495 -1.49324 0
M  V30 10064 C 1021.02 -1.83195 -3.06879 0
M  V30 10065 C 1020.68 -3.33093 -3.03908 0
M  V30 10066 C 1019.35 -3.73982 -3.02805 0
M  V30 10067 C 1021.7 -4.28803 -2.96273 0
M  V30 10068 C 1019.03 -5.08971 -2.91832 0
M  V30 10069 C 1021.38 -5.6383 -2.86842 0
M  V30 10070 C 1020.04 -6.04032 -2.84081 0
M  V30 10071 H 1019.31 -0.409293 -0.617706 0
M  V30 10072 H 1021.96 -1.56785 -1.09957 0
M  V30 10073 H 1020.26 -1.30728 -3.69347 0
M  V30 10074 H 1021.96 -1.69416 -3.63455 0
M  V30 10075 H 1018.55 -3.00566 -3.05546 0
M  V30 10076 H 1022.74 -3.98195 -2.96234 0
M  V30 10077 H 1017.99 -5.39282 -2.88072 0
M  V30 10078 H 1022.17 -6.37676 -2.79898 0
M  V30 10079 H 1019.79 -7.08586 -2.75335 0
M  V30 10080 N 1021.37 1.14642 -1.08144 0
M  V30 10081 C 1022.59 1.90025 -0.830972 0
M  V30 10082 C 1023.02 1.77904 0.610879 0
M  V30 10083 O 1022.38 1.11735 1.42776 0
M  V30 10084 C 1022.42 3.38085 -1.25422 0
M  V30 10085 O 1021.53 4.10412 -0.404486 0
M  V30 10086 H 1020.87 0.591327 -0.302041 0
M  V30 10087 H 1023.4 1.4513 -1.44216 0
M  V30 10088 H 1023.41 3.88894 -1.23391 0
M  V30 10089 H 1022.08 3.46226 -2.30435 0
M  V30 10090 H 1020.66 3.69693 -0.487987 0
M  V30 10091 N 1022.85 0.866709 1.31628 0
M  V30 10092 C 1024.09 0.476731 1.97117 0
M  V30 10093 C 1024.42 -0.967813 1.68366 0
M  V30 10094 O 1023.7 -1.68101 0.978377 0
M  V30 10095 C 1023.98 0.730561 3.52611 0
M  V30 10096 C 1023.84 2.2244 3.90948 0
M  V30 10097 C 1025.15 0.19488 4.39668 0
M  V30 10098 H 1022.27 0.174682 0.715999 0
M  V30 10099 H 1024.92 1.08735 1.5581 0
M  V30 10100 H 1023.07 0.210834 3.87927 0
M  V30 10101 H 1024.74 2.81113 3.6575 0
M  V30 10102 H 1022.98 2.69824 3.39673 0
M  V30 10103 H 1023.65 2.35266 4.99353 0
M  V30 10104 H 1026.13 0.639478 4.11157 0
M  V30 10105 H 1025 0.401958 5.47426 0
M  V30 10106 H 1025.26 -0.90302 4.32779 0
M  V30 10107 N 1024.32 -1.44642 0.625825 0
M  V30 10108 C 1025.57 -2.02094 0.128201 0
M  V30 10109 C 1025.9 -1.49181 -1.24801 0
M  V30 10110 O 1025.15 -0.663965 -1.84092 0
M  V30 10111 C 1025.45 -3.57352 0.0584381 0
M  V30 10112 C 1025.12 -4.29496 1.37272 0
M  V30 10113 C 1023.78 -4.48922 1.7327 0
M  V30 10114 C 1026.13 -4.70586 2.2405 0
M  V30 10115 C 1023.46 -5.06697 2.95762 0
M  V30 10116 C 1025.81 -5.29717 3.45807 0
M  V30 10117 C 1024.48 -5.47363 3.82034 0
M  V30 10118 H 1023.75 -0.739514 0.0469122 0
M  V30 10119 H 1026.39 -1.73475 0.811083 0
M  V30 10120 H 1024.7 -3.85354 -0.707791 0
M  V30 10121 H 1026.4 -3.9953 -0.34303 0
M  V30 10122 H 1022.99 -4.14702 1.08258 0
M  V30 10123 H 1027.17 -4.55295 1.97535 0
M  V30 10124 H 1022.43 -5.18546 3.23913 0
M  V30 10125 H 1026.6 -5.60507 4.13286 0
M  V30 10126 H 1024.23 -5.91898 4.77033 0
M  V30 10127 N 1025.8 -0.366053 -1.5329 0
M  V30 10128 C 1026.75 0.496656 -2.22525 0
M  V30 10129 C 1027.74 1.0483 -1.22063 0
M  V30 10130 O 1028.93 0.978266 -1.47509 0
M  V30 10131 C 1026.06 1.63559 -3.01833 0
M  V30 10132 C 1025.14 1.0968 -4.09672 0
M  V30 10133 N 1025.53 0.28104 -5.05019 0
M  V30 10134 C 1023.83 1.37157 -4.24387 0
M  V30 10135 C 1024.53 -0.0140071 -5.81698 0
M  V30 10136 N 1023.51 0.583743 -5.40457 0
M  V30 10137 H 1027.31 -0.133408 -2.93597 0
M  V30 10138 H 1024.82 -0.174095 -1.61464 0
M  V30 10139 H 1026.82 2.26582 -3.49952 0
M  V30 10140 H 1025.48 2.26871 -2.32292 0
M  V30 10141 H 1026.49 -0.0797947 -5.17839 0
M  V30 10142 H 1023.17 2.00743 -3.66072 0
M  V30 10143 H 1024.56 -0.673508 -6.68516 0
M  V30 10144 N 1027.28 1.57312 -0.0952337 0
M  V30 10145 C 1028.24 2.12889 0.849161 0
M  V30 10146 C 1029.24 1.05819 1.21075 0
M  V30 10147 O 1030.43 1.31704 1.14016 0
M  V30 10148 C 1027.56 2.6496 2.14498 0
M  V30 10149 H 1028.76 2.97651 0.366566 0
M  V30 10150 H 1026.31 1.55542 0.153762 0
M  V30 10151 H 1027.05 1.83718 2.67242 0
M  V30 10152 H 1026.83 3.43244 1.89542 0
M  V30 10153 H 1028.32 3.07952 2.82056 0
M  V30 10154 N 1028.76 -0.17846 1.56586 0
M  V30 10155 C 1029.98 -0.916061 1.86073 0
M  V30 10156 C 1030.41 -1.75349 0.680754 0
M  V30 10157 O 1029.77 -1.77479 -0.37028 0
M  V30 10158 C 1029.81 -1.77445 3.1392 0
M  V30 10159 O 1028.92 -2.87524 2.95641 0
M  V30 10160 H 1028.26 -0.257031 0.612234 0
M  V30 10161 H 1030.79 -0.178755 2.03818 0
M  V30 10162 H 1030.8 -2.1758 3.45142 0
M  V30 10163 H 1029.47 -1.15927 3.99417 0
M  V30 10164 H 1028.05 -2.51023 2.75757 0
M  V30 10165 N 1030.24 -1.51135 -0.446768 0
M  V30 10166 C 1031.17 -1.74709 -1.54916 0
M  V30 10167 C 1032.15 -0.596628 -1.59293 0
M  V30 10168 O 1033.33 -0.838356 -1.75172 0
M  V30 10169 C 1030.46 -1.86353 -2.9307 0
M  V30 10170 C 1029.42 -3.01725 -3.03556 0
M  V30 10171 C 1028.74 -2.9854 -4.43597 0
M  V30 10172 C 1030.04 -4.41848 -2.7851 0
M  V30 10173 H 1031.74 -2.67014 -1.3544 0
M  V30 10174 H 1029.28 -1.28489 -0.650131 0
M  V30 10175 H 1031.23 -2.01428 -3.70141 0
M  V30 10176 H 1029.96 -0.906887 -3.13756 0
M  V30 10177 H 1028.62 -2.86339 -2.28922 0
M  V30 10178 H 1028.27 -2.00673 -4.61237 0
M  V30 10179 H 1027.97 -3.76008 -4.51544 0
M  V30 10180 H 1029.49 -3.15696 -5.22655 0
M  V30 10181 H 1030.9 -4.57633 -3.45319 0
M  V30 10182 H 1029.3 -5.2095 -2.97877 0
M  V30 10183 H 1030.37 -4.52536 -1.74182 0
M  V30 10184 N 1031.71 0.701592 -1.41122 0
M  V30 10185 C 1032.68 1.79733 -1.42227 0
M  V30 10186 C 1033.68 1.57708 -0.313831 0
M  V30 10187 O 1034.87 1.64492 -0.573423 0
M  V30 10188 C 1032 3.18024 -1.22775 0
M  V30 10189 H 1033.19 1.80148 -2.39764 0
M  V30 10190 H 1030.74 0.908624 -1.27176 0
M  V30 10191 H 1031.48 3.23252 -0.260552 0
M  V30 10192 H 1031.26 3.35411 -2.0308 0
M  V30 10193 H 1032.75 3.98021 -1.2637 0
M  V30 10194 N 1033.19 1.2685 0.935242 0
M  V30 10195 C 1034.14 1.08923 2.03481 0
M  V30 10196 C 1035.11 -0.00749786 1.66098 0
M  V30 10197 O 1036.29 0.153401 1.90182 0
M  V30 10198 C 1033.43 0.734529 3.37192 0
M  V30 10199 C 1032.55 1.90812 3.87576 0
M  V30 10200 C 1031.68 1.49599 5.097 0
M  V30 10201 C 1030.72 2.63752 5.5236 0
M  V30 10202 N 1029.86 2.23179 6.65684 0
M  V30 10203 H 1034.7 2.03016 2.18148 0
M  V30 10204 H 1032.23 1.01072 1.06878 0
M  V30 10205 H 1034.19 0.509734 4.14074 0
M  V30 10206 H 1032.82 -0.169438 3.22355 0
M  V30 10207 H 1031.87 2.24567 3.0704 0
M  V30 10208 H 1033.19 2.7647 4.1517 0
M  V30 10209 H 1032.34 1.23199 5.9406 0
M  V30 10210 H 1031.08 0.61039 4.83865 0
M  V30 10211 H 1030.08 2.90874 4.66554 0
M  V30 10212 H 1031.31 3.5292 5.80193 0
M  V30 10213 H 1029.26 1.37061 6.41522 0
M  V30 10214 H 1029.17 3.02379 6.92895 0
M  V30 10215 H 1030.44 2.00007 7.53404 0
M  V30 10216 N 1034.67 -1.14067 1.0875 0
M  V30 10217 C 1035.9 -1.89582 0.841038 0
M  V30 10218 C 1036.32 -1.78226 -0.601436 0
M  V30 10219 O 1035.68 -1.12491 -1.42181 0
M  V30 10220 C 1035.73 -3.37415 1.27213 0
M  V30 10221 O 1034.83 -4.10191 0.426246 0
M  V30 10222 H 1034.17 -0.589716 0.305173 0
M  V30 10223 H 1036.7 -1.44364 1.44984 0
M  V30 10224 H 1036.71 -3.88234 1.25451 0
M  V30 10225 H 1035.39 -3.44999 2.32268 0
M  V30 10226 H 1033.96 -3.69429 0.507585 0
M  V30 10227 N 1036.15 -0.873678 -1.31166 0
M  V30 10228 C 1037.56 -0.53852 -1.78765 0
M  V30 10229 C 1037.91 0.944765 -1.71955 0
M  V30 10230 O 1037.04 1.73781 -1.28954 0
M  V30 10231 C 1037.63 -0.970749 -3.24595 0
M  V30 10232 C 1036.19 -0.687189 -3.70074 0
M  V30 10233 C 1035.34 -1.16001 -2.51871 0
M  V30 10234 H 1038.29 -1.05903 -1.18196 0
M  V30 10235 H 1038.31 -0.294966 -3.79355 0
M  V30 10236 H 1037.82 -2.05034 -3.29519 0
M  V30 10237 H 1035.92 0.380881 -3.70648 0
M  V30 10238 H 1036.03 -1.26682 -4.62048 0
M  V30 10239 H 1034.4 -0.579663 -2.48016 0
M  V30 10240 H 1035.18 -2.2471 -2.59539 0
M  V30 10241 N 1037.63 1.44308 -0.633487 0
M  V30 10242 C 1038.87 2.01624 -0.138643 0
M  V30 10243 C 1039.2 1.50101 1.24477 0
M  V30 10244 O 1038.47 0.705575 1.82752 0
M  V30 10245 H 1037.05 0.745439 -0.0482636 0
M  V30 10246 H 1039.71 1.76777 -0.820719 0
M  V30 10247 H 1038.8 3.11913 -0.108136 0
M  V30 10248 N 1039.1 0.374177 1.53094 0
M  V30 10249 C 1040.35 -0.205669 2.02358 0
M  V30 10250 C 1040.71 -1.4572 1.25633 0
M  V30 10251 O 1040 -1.88487 0.343977 0
M  V30 10252 C 1040.19 -0.542179 3.53264 0
M  V30 10253 C 1040.02 0.675186 4.44602 0
M  V30 10254 C 1038.79 1.18987 4.91091 0
M  V30 10255 C 1040.99 1.54299 4.90608 0
M  V30 10256 N 1038.97 2.36637 5.66459 0
M  V30 10257 C 1040.34 2.56605 5.64406 0
M  V30 10258 C 1042.4 1.56486 4.7267 0
M  V30 10259 C 1041.1 3.60965 6.22171 0
M  V30 10260 C 1043.13 2.59745 5.31307 0
M  V30 10261 C 1042.49 3.60774 6.04997 0
M  V30 10262 H 1038.59 -0.0377471 0.781088 0
M  V30 10263 H 1041.17 0.520661 1.87609 0
M  V30 10264 H 1039.34 -1.23758 3.68156 0
M  V30 10265 H 1041.07 -1.10786 3.89241 0
M  V30 10266 H 1037.83 0.753181 4.67573 0
M  V30 10267 H 1038.25 2.96123 6.08802 0
M  V30 10268 H 1042.9 0.797296 4.15214 0
M  V30 10269 H 1040.61 4.38599 6.78717 0
M  V30 10270 H 1044.2 2.62301 5.19316 0
M  V30 10271 H 1043.08 4.39363 6.49561 0
M  V30 10272 N 1040.58 -1.57259 0.103575 0
M  V30 10273 C 1042 -1.57581 -0.253062 0
M  V30 10274 C 1042.2 -1.11531 -1.67819 0
M  V30 10275 O 1041.25 -0.795632 -2.39637 0
M  V30 10276 C 1042.57 -3.00681 -0.0337753 0
M  V30 10277 C 1044.12 -3.12837 -0.10087 0
M  V30 10278 C 1044.59 -4.57911 0.0905295 0
M  V30 10279 N 1046.08 -4.63186 0.0359789 0
M  V30 10280 C 1046.82 -5.73179 0.159199 0
M  V30 10281 N 1046.31 -6.91976 0.337728 0
M  V30 10282 N 1048.11 -5.62011 0.0998662 0
M  V30 10283 H 1040.26 -1.85499 1.0346 0
M  V30 10284 H 1042.52 -0.856584 0.406163 0
M  V30 10285 H 1042.23 -3.38602 0.950858 0
M  V30 10286 H 1042.1 -3.69207 -0.772406 0
M  V30 10287 H 1044.49 -2.74783 -1.07601 0
M  V30 10288 H 1044.57 -2.46886 0.66939 0
M  V30 10289 H 1044.21 -4.9666 1.06258 0
M  V30 10290 H 1044.14 -5.21933 -0.699528 0
M  V30 10291 H 1046.63 -3.7777 -0.099121 0
M  V30 10292 H 1046.95 -7.71641 0.423032 0
M  V30 10293 H 1045.29 -6.93996 0.373504 0
M  V30 10294 H 1048.48 -4.68084 -0.0385356 0
M  V30 10295 H 1048.65 -6.47693 0.199342 0
M  V30 10296 N 1042.06 0.170153 -1.56679 0
M  V30 10297 C 1043.47 0.732502 -1.7173 0
M  V30 10298 C 1043.82 1.82736 -0.71428 0
M  V30 10299 O 1042.95 2.16044 0.124102 0
M  V30 10300 C 1043.54 1.33548 -3.11368 0
M  V30 10301 C 1042.1 1.84464 -3.281 0
M  V30 10302 C 1041.25 0.724069 -2.6768 0
M  V30 10303 H 1044.2 -0.0552543 -1.58604 0
M  V30 10304 H 1044.22 2.20519 -3.10083 0
M  V30 10305 H 1043.73 0.5384 -3.84347 0
M  V30 10306 H 1041.83 2.66813 -2.6008 0
M  V30 10307 H 1041.95 1.98928 -4.35849 0
M  V30 10308 H 1040.31 1.14481 -2.27522 0
M  V30 10309 H 1041.09 -0.0611861 -3.43245 0
M  V30 10310 N 1043.54 1.5137 0.438746 0
M  V30 10311 C 1044.5 1.71993 1.51496 0
M  V30 10312 C 1045.5 0.589978 1.49586 0
M  V30 10313 O 1046.69 0.857505 1.51633 0
M  V30 10314 C 1043.82 1.77508 2.91039 0
M  V30 10315 H 1045.02 2.68041 1.34514 0
M  V30 10316 H 1042.57 1.41338 0.667326 0
M  V30 10317 H 1043.3 0.832698 3.13427 0
M  V30 10318 H 1043.09 2.59627 2.9383 0
M  V30 10319 H 1044.58 1.95308 3.69113 0
M  V30 10320 N 1045.02 -0.694098 1.41492 0
M  V30 10321 C 1046.26 -1.45415 1.40929 0
M  V30 10322 C 1046.59 -1.94491 0.0189301 0
M  V30 10323 O 1045.85 -1.7 -0.96945 0
M  V30 10324 C 1046.15 -2.6805 2.36398 0
M  V30 10325 C 1045.81 -2.37623 3.83205 0
M  V30 10326 C 1044.47 -2.29035 4.23198 0
M  V30 10327 C 1046.83 -2.12555 4.75888 0
M  V30 10328 C 1044.15 -1.93478 5.5388 0
M  V30 10329 C 1046.51 -1.78506 6.06892 0
M  V30 10330 C 1045.17 -1.68415 6.45905 0
M  V30 10331 H 1044.44 -0.53211 0.515694 0
M  V30 10332 H 1047.09 -0.793193 1.74301 0
M  V30 10333 H 1045.39 -3.39086 1.96285 0
M  V30 10334 H 1047.09 -3.26194 2.33234 0
M  V30 10335 H 1043.68 -2.45202 3.51531 0
M  V30 10336 H 1047.86 -2.18133 4.45793 0
M  V30 10337 H 1043.12 -1.84219 5.82986 0
M  V30 10338 H 1047.29 -1.58128 6.7821 0
M  V30 10339 H 1044.92 -1.40631 7.47079 0
M  V30 10340 N 1046.49 -1.27344 -0.928501 0
M  V30 10341 C 1047.44 -1.10001 -2.029 0
M  V30 10342 C 1048.41 -0.00131084 -1.661 0
M  V30 10343 O 1049.6 -0.163485 -1.90098 0
M  V30 10344 C 1046.74 -0.7524 -3.36798 0
M  V30 10345 C 1045.85 -1.92865 -3.86558 0
M  V30 10346 C 1044.98 -1.52299 -5.08899 0
M  V30 10347 C 1044.02 -2.66677 -5.50953 0
M  V30 10348 N 1043.16 -2.26706 -6.64491 0
M  V30 10349 H 1048 -2.0417 -2.17068 0
M  V30 10350 H 1045.54 -1.01637 -1.0634 0
M  V30 10351 H 1047.5 -0.531687 -4.13798 0
M  V30 10352 H 1046.13 0.15234 -3.2244 0
M  V30 10353 H 1045.18 -2.26192 -3.05845 0
M  V30 10354 H 1046.49 -2.78668 -4.13698 0
M  V30 10355 H 1045.64 -1.26348 -5.93398 0
M  V30 10356 H 1044.38 -0.636042 -4.83535 0
M  V30 10357 H 1043.39 -2.93344 -4.65004 0
M  V30 10358 H 1044.61 -3.55992 -5.78313 0
M  V30 10359 H 1042.56 -1.40462 -6.40786 0
M  V30 10360 H 1042.48 -3.06049 -6.91281 0
M  V30 10361 H 1043.74 -2.04 -7.52333 0
M  V30 10362 N 1047.97 1.13488 -1.09353 0
M  V30 10363 C 1049.2 1.88319 -0.849681 0
M  V30 10364 C 1049.61 1.79347 0.602616 0
M  V30 10365 O 1048.95 1.15744 1.4265 0
M  V30 10366 C 1049.02 3.38698 -1.20514 0
M  V30 10367 C 1048.68 3.71452 -2.66219 0
M  V30 10368 C 1049.68 3.70755 -3.64467 0
M  V30 10369 C 1047.36 4.01132 -3.02321 0
M  V30 10370 C 1049.36 3.9928 -4.96845 0
M  V30 10371 C 1047.04 4.29318 -4.3489 0
M  V30 10372 C 1048.04 4.28376 -5.31961 0
M  V30 10373 O 1047.73 4.55872 -6.62145 0
M  V30 10374 H 1047.46 0.603053 -0.305455 0
M  V30 10375 H 1050.01 1.44592 -1.45884 0
M  V30 10376 H 1048.24 3.82925 -0.539022 0
M  V30 10377 H 1049.93 3.94852 -0.940552 0
M  V30 10378 H 1050.7 3.47901 -3.3792 0
M  V30 10379 H 1046.58 4.01013 -2.27398 0
M  V30 10380 H 1050.12 3.9846 -5.72604 0
M  V30 10381 H 1046.02 4.51644 -4.61181 0
M  V30 10382 H 1046.79 4.73544 -6.67607 0
M  V30 10383 N 1049.45 0.880621 1.30701 0
M  V30 10384 C 1050.68 0.51094 2.00182 0
M  V30 10385 C 1051.09 -0.903914 1.66211 0
M  V30 10386 O 1050.43 -1.60529 0.893089 0
M  V30 10387 C 1050.49 0.600775 3.54445 0
M  V30 10388 C 1050.16 1.97915 4.1192 0
M  V30 10389 C 1051.16 2.94802 4.28238 0
M  V30 10390 C 1048.84 2.28336 4.47401 0
M  V30 10391 C 1050.83 4.20245 4.79242 0
M  V30 10392 C 1048.52 3.54026 4.98105 0
M  V30 10393 C 1049.52 4.49796 5.13978 0
M  V30 10394 O 1049.21 5.73256 5.63589 0
M  V30 10395 H 1048.94 0.196477 0.646818 0
M  V30 10396 H 1051.49 1.18659 1.67658 0
M  V30 10397 H 1049.72 -0.131832 3.86475 0
M  V30 10398 H 1051.41 0.242996 4.05172 0
M  V30 10399 H 1052.18 2.7261 4.01134 0
M  V30 10400 H 1048.06 1.54564 4.34317 0
M  V30 10401 H 1051.6 4.95003 4.91546 0
M  V30 10402 H 1047.5 3.76057 5.24644 0
M  V30 10403 H 1048.27 5.75577 5.81939 0
M  V30 10404 N 1050.93 -1.4397 0.641131 0
M  V30 10405 C 1051.88 -2.32495 -0.0698668 0
M  V30 10406 C 1052.87 -1.47922 -0.825555 0
M  V30 10407 O 1054.08 -1.64206 -0.737323 0
M  V30 10408 H 1050.45 -0.750861 -0.0413706 0
M  V30 10409 H 1052.42 -2.90201 0.694682 0
M  V30 10410 C 1051.17 -3.32063 -1.03098 0
M  V30 10411 H 1050.5 -3.97157 -0.458923 0
M  V30 10412 H 1051.94 -3.96664 -1.49778 0
M  V30 10413 C 1050.39 -2.61743 -2.12113 0
M  V30 10414 O 1050.92 -2.42385 -3.20332 0
M  V30 10415 N 1049.13 -2.21316 -1.88328 0
M  V30 10416 H 1048.68 -2.37261 -1.00324 0
M  V30 10417 H 1048.64 -1.74594 -2.61465 0
M  V30 10418 N 1052.41 -0.382291 -1.52893 0
M  V30 10419 C 1053.34 0.500194 -2.22651 0
M  V30 10420 C 1054.32 1.06969 -1.22459 0
M  V30 10421 O 1055.5 1.12267 -1.51422 0
M  V30 10422 C 1052.63 1.6917 -2.93427 0
M  V30 10423 C 1051.68 1.24811 -4.07829 0
M  V30 10424 S 1052.51 0.235466 -5.34982 0
M  V30 10425 C 1053.66 1.43292 -6.09277 0
M  V30 10426 H 1053.9 -0.0921913 -2.97157 0
M  V30 10427 H 1051.43 -0.16645 -1.535 0
M  V30 10428 H 1053.39 2.37507 -3.34815 0
M  V30 10429 H 1052.05 2.25537 -2.18613 0
M  V30 10430 H 1051.24 2.13754 -4.56426 0
M  V30 10431 H 1050.84 0.643744 -3.68418 0
M  V30 10432 H 1053.14 2.36118 -6.35023 0
M  V30 10433 H 1054.08 0.988003 -7.01173 0
M  V30 10434 H 1054.49 1.64655 -5.39953 0
M  V30 10435 N 1053.89 1.57202 -0.111913 0
M  V30 10436 C 1055.13 1.96035 0.542393 0
M  V30 10437 C 1055.49 0.993925 1.64739 0
M  V30 10438 O 1054.78 0.0227369 1.91587 0
M  V30 10439 C 1054.97 3.39152 1.12741 0
M  V30 10440 C 1054.8 4.49628 0.0806232 0
M  V30 10441 C 1053.57 5.04095 -0.348737 0
M  V30 10442 C 1055.77 5.09546 -0.697655 0
M  V30 10443 N 1053.75 5.98141 -1.38204 0
M  V30 10444 C 1055.12 5.99468 -1.58234 0
M  V30 10445 C 1057.18 4.92229 -0.749324 0
M  V30 10446 C 1055.88 6.7393 -2.51418 0
M  V30 10447 C 1057.91 5.67366 -1.66884 0
M  V30 10448 C 1057.27 6.56968 -2.54112 0
M  V30 10449 H 1053.37 0.763672 0.168311 0
M  V30 10450 H 1055.95 1.93687 -0.198387 0
M  V30 10451 H 1054.12 3.42161 1.83794 0
M  V30 10452 H 1055.86 3.65125 1.74546 0
M  V30 10453 H 1052.61 4.73581 0.042288 0
M  V30 10454 H 1053.03 6.49868 -1.8974 0
M  V30 10455 H 1057.68 4.22706 -0.0890808 0
M  V30 10456 H 1055.39 7.42704 -3.18459 0
M  V30 10457 H 1058.98 5.55974 -1.71417 0
M  V30 10458 H 1057.86 7.1409 -3.24107 0
M  V30 10459 N 1055.36 -0.161842 1.56767 0
M  V30 10460 C 1056.61 -0.875278 1.81719 0
M  V30 10461 C 1056.93 -1.82998 0.690739 0
M  V30 10462 O 1058.13 -2.58648 0.82545 0
M  V30 10463 C 1056.59 -1.60703 3.22029 0
M  V30 10464 C 1056.2 -0.695486 4.42569 0
M  V30 10465 C 1057.94 -2.30813 3.56266 0
M  V30 10466 C 1055.85 -1.42801 5.73901 0
M  V30 10467 H 1054.78 -0.330591 0.677662 0
M  V30 10468 H 1057.43 -0.128112 1.83052 0
M  V30 10469 H 1055.81 -2.39929 3.1504 0
M  V30 10470 H 1056.98 0.0604882 4.6076 0
M  V30 10471 H 1055.3 -0.10356 4.16271 0
M  V30 10472 H 1057.9 -2.86229 4.51638 0
M  V30 10473 H 1058.24 -3.06603 2.81604 0
M  V30 10474 H 1058.77 -1.5852 3.64851 0
M  V30 10475 H 1055.51 -0.712253 6.51619 0
M  V30 10476 H 1055.03 -2.15707 5.5967 0
M  V30 10477 H 1056.71 -1.97295 6.16185 0
M  V30 10478 N 1056.84 -1.516 -0.430713 0
M  V30 10479 C 1058.07 -1.687 -1.20644 0
M  V30 10480 C 1058.49 -0.386555 -1.84085 0
M  V30 10481 O 1057.85 0.653952 -1.69095 0
M  V30 10482 C 1057.9 -2.80887 -2.2613 0
M  V30 10483 O 1057 -2.44952 -3.31772 0
M  V30 10484 H 1056.34 -0.562289 -0.353167 0
M  V30 10485 H 1058.87 -1.98198 -0.507807 0
M  V30 10486 H 1058.88 -3.05167 -2.70809 0
M  V30 10487 H 1057.56 -3.75249 -1.79334 0
M  V30 10488 H 1056.13 -2.31267 -2.92523 0
M  V30 10489 N 1058.32 0.686584 -1.41858 0
M  V30 10490 C 1059.25 1.81264 -1.47193 0
M  V30 10491 C 1060.23 1.66875 -0.329657 0
M  V30 10492 O 1061.42 1.86473 -0.542347 0
M  V30 10493 C 1058.55 3.19472 -1.36216 0
M  V30 10494 C 1057.5 3.4858 -2.48347 0
M  V30 10495 C 1056.83 4.86239 -2.22432 0
M  V30 10496 C 1058.13 3.46653 -3.90678 0
M  V30 10497 H 1059.82 1.77057 -2.41436 0
M  V30 10498 H 1057.37 0.850415 -1.16206 0
M  V30 10499 H 1059.32 3.97969 -1.38558 0
M  V30 10500 H 1058.04 3.24327 -0.384611 0
M  V30 10501 H 1056.7 2.72437 -2.45303 0
M  V30 10502 H 1056.35 4.8773 -1.22999 0
M  V30 10503 H 1056.05 5.06677 -2.97577 0
M  V30 10504 H 1057.57 5.67034 -2.26505 0
M  V30 10505 H 1058.99 4.15139 -3.95389 0
M  V30 10506 H 1057.38 3.78625 -4.65578 0
M  V30 10507 H 1058.45 2.45451 -4.18189 0
M  V30 10508 N 1059.8 1.27835 0.921735 0
M  V30 10509 C 1060.73 1.136 2.04003 0
M  V30 10510 C 1061.71 0.0358756 1.70062 0
M  V30 10511 O 1062.89 0.211438 1.93046 0
M  V30 10512 C 1060.02 0.788697 3.38226 0
M  V30 10513 C 1058.98 1.84272 3.863 0
M  V30 10514 C 1058.3 1.34923 5.17397 0
M  V30 10515 C 1059.6 3.24788 4.09035 0
M  V30 10516 H 1061.3 2.07149 2.1617 0
M  V30 10517 H 1058.84 0.997349 1.0387 0
M  V30 10518 H 1060.8 0.675911 4.15944 0
M  V30 10519 H 1059.52 -0.182499 3.2609 0
M  V30 10520 H 1058.18 1.94451 3.1078 0
M  V30 10521 H 1057.83 0.367328 5.01657 0
M  V30 10522 H 1057.53 2.05397 5.50532 0
M  V30 10523 H 1059.05 1.24951 5.97678 0
M  V30 10524 H 1060.47 3.17575 4.77304 0
M  V30 10525 H 1058.86 3.93025 4.53488 0
M  V30 10526 H 1059.93 3.69398 3.14122 0
M  V30 10527 N 1061.28 -1.12907 1.09954 0
M  V30 10528 C 1062.52 -1.83941 0.837255 0
M  V30 10529 C 1062.84 -1.84234 -0.638984 0
M  V30 10530 O 1062.11 -1.30193 -1.46378 0
M  V30 10531 H 1060.69 -0.681115 0.306743 0
M  V30 10532 H 1063.36 -1.36743 1.38879 0
M  V30 10533 H 1062.45 -2.88289 1.19565 0
M  V30 10534 N 1062.75 -0.88754 -1.30232 0
M  V30 10535 C 1063.72 -0.361095 -2.26338 0
M  V30 10536 C 1064.72 0.497871 -1.52898 0
M  V30 10537 O 1065.91 0.30466 -1.71515 0
M  V30 10538 C 1063.04 0.485135 -3.3743 0
M  V30 10539 H 1064.23 -1.20973 -2.74419 0
M  V30 10540 H 1061.78 -0.664619 -1.41466 0
M  V30 10541 H 1062.52 1.35425 -2.9467 0
M  V30 10542 H 1062.3 -0.130173 -3.91884 0
M  V30 10543 H 1063.79 0.845169 -4.08958 0
M  V30 10544 N 1064.23 1.43628 -0.648757 0
M  V30 10545 C 1065.48 2.01083 -0.157692 0
M  V30 10546 C 1065.79 1.51756 1.23408 0
M  V30 10547 O 1067 2.01455 1.82012 0
M  V30 10548 C 1065.46 3.59157 -0.231118 0
M  V30 10549 C 1065.06 4.17478 -1.6253 0
M  V30 10550 C 1066.81 4.24016 0.202573 0
M  V30 10551 C 1064.72 5.67832 -1.6529 0
M  V30 10552 H 1063.65 0.751977 -0.0551897 0
M  V30 10553 H 1066.3 1.64648 -0.810139 0
M  V30 10554 H 1064.68 3.92972 0.488755 0
M  V30 10555 H 1065.85 3.9517 -2.37017 0
M  V30 10556 H 1064.17 3.64973 -2.00459 0
M  V30 10557 H 1066.76 5.34319 0.20174 0
M  V30 10558 H 1067.11 3.97616 1.23319 0
M  V30 10559 H 1067.64 3.95068 -0.465398 0
M  V30 10560 H 1064.38 5.98994 -2.66246 0
M  V30 10561 H 1063.9 5.92209 -0.951217 0
M  V30 10562 H 1065.58 6.3179 -1.39465 0
M  V30 10563 N 1065.71 0.390394 1.52688 0
M  V30 10564 C 1066.64 -0.43567 2.294 0
M  V30 10565 C 1067.62 -1.06253 1.32832 0
M  V30 10566 O 1068.81 -1.07509 1.61726 0
M  V30 10567 C 1065.94 -1.56259 3.10162 0
M  V30 10568 C 1064.89 -1.06172 4.14622 0
M  V30 10569 C 1064.22 -2.2808 4.83615 0
M  V30 10570 C 1065.52 -0.128902 5.22141 0
M  V30 10571 H 1067.21 0.204384 2.98702 0
M  V30 10572 H 1064.76 0.0997377 1.43654 0
M  V30 10573 H 1066.71 -2.14732 3.62585 0
M  V30 10574 H 1065.43 -2.23025 2.38595 0
M  V30 10575 H 1064.09 -0.499518 3.63181 0
M  V30 10576 H 1063.74 -2.93358 4.08595 0
M  V30 10577 H 1063.44 -1.95227 5.5422 0
M  V30 10578 H 1064.96 -2.87193 5.38844 0
M  V30 10579 H 1066.38 -0.621849 5.69917 0
M  V30 10580 H 1064.78 0.109919 5.99999 0
M  V30 10581 H 1065.85 0.821884 4.77884 0
M  V30 10582 N 1067.19 -1.57141 0.120249 0
M  V30 10583 C 1068.43 -1.97124 -0.540521 0
M  V30 10584 C 1068.79 -1.0022 -1.63768 0
M  V30 10585 O 1069.99 -1.29146 -2.35743 0
M  V30 10586 C 1068.26 -3.41371 -1.05833 0
M  V30 10587 S 1069.82 -4.03367 -1.72745 0
M  V30 10588 H 1066.64 -0.688962 -0.175646 0
M  V30 10589 H 1069.24 -1.94416 0.205625 0
M  V30 10590 H 1067.95 -4.09646 -0.248656 0
M  V30 10591 H 1067.48 -3.47732 -1.83972 0
M  V30 10592 H 1069.49 -3.94227 -3.0133 0
M  V30 10593 N 1068.67 0.153526 -1.5685 0
M  V30 10594 C 1069.91 0.873522 -1.84794 0
M  V30 10595 C 1070.27 1.78642 -0.703648 0
M  V30 10596 O 1071.47 2.54537 -0.863972 0
M  V30 10597 C 1069.74 1.63316 -3.17904 0
M  V30 10598 S 1071.3 2.39948 -3.67383 0
M  V30 10599 H 1068.12 0.292233 -0.648167 0
M  V30 10600 H 1070.72 0.133949 -1.95041 0
M  V30 10601 H 1069.43 0.95387 -3.99161 0
M  V30 10602 H 1068.96 2.41377 -3.10646 0
M  V30 10603 H 1070.97 3.65011 -3.36127 0
M  V30 10604 N 1070.14 1.51827 0.422667 0
M  V30 10605 C 1071.39 1.6445 1.16786 0
M  V30 10606 C 1071.71 0.373792 1.91995 0
M  V30 10607 O 1072.91 0.379621 2.68833 0
M  V30 10608 C 1071.37 2.90488 2.12473 0
M  V30 10609 C 1070.98 4.24617 1.42844 0
M  V30 10610 C 1072.72 3.12472 2.87335 0
M  V30 10611 C 1070.63 5.41791 2.371 0
M  V30 10612 H 1069.56 0.612561 0.439641 0
M  V30 10613 H 1072.21 1.78305 0.433534 0
M  V30 10614 H 1070.59 2.703 2.89402 0
M  V30 10615 H 1071.76 4.55239 0.71372 0
M  V30 10616 H 1070.08 4.08628 0.800769 0
M  V30 10617 H 1072.68 3.9719 3.57973 0
M  V30 10618 H 1073.02 2.26148 3.49518 0
M  V30 10619 H 1073.55 3.33069 2.17509 0
M  V30 10620 H 1070.29 6.3042 1.79584 0
M  V30 10621 H 1069.81 5.15526 3.06583 0
M  V30 10622 H 1071.49 5.74329 2.97918 0
M  V30 10623 N 1071.62 -0.679052 1.4222 0
M  V30 10624 C 1072.87 -1.44125 1.42674 0
M  V30 10625 C 1073.2 -1.94156 0.041438 0
M  V30 10626 O 1072.48 -1.70628 -0.93361 0
M  V30 10627 C 1072.76 -2.64133 2.44756 0
M  V30 10628 C 1072.61 -2.19761 3.9246 0
M  V30 10629 C 1073.93 -3.66347 2.43881 0
M  V30 10630 H 1071.05 -0.522729 0.519541 0
M  V30 10631 H 1073.69 -0.772067 1.73606 0
M  V30 10632 H 1071.84 -3.21225 2.1851 0
M  V30 10633 H 1073.51 -1.67869 4.29671 0
M  V30 10634 H 1071.76 -1.51377 4.06531 0
M  V30 10635 H 1072.43 -3.05944 4.59459 0
M  V30 10636 H 1074.9 -3.18963 2.67211 0
M  V30 10637 H 1073.78 -4.47902 3.17293 0
M  V30 10638 H 1074.04 -4.17183 1.46325 0
M  V30 10639 N 1073.1 -1.28322 -0.914942 0
M  V30 10640 C 1074.03 -1.06469 -2.01841 0
M  V30 10641 C 1075.01 0.0188681 -1.62589 0
M  V30 10642 O 1076.2 -0.128825 -1.88059 0
M  V30 10643 C 1073.32 -0.617685 -3.3302 0
M  V30 10644 C 1072.37 -1.6977 -3.91255 0
M  V30 10645 S 1073.2 -3.29337 -4.22253 0
M  V30 10646 C 1074.36 -2.86468 -5.56495 0
M  V30 10647 H 1074.59 -1.99893 -2.20068 0
M  V30 10648 H 1072.12 -1.12297 -1.05966 0
M  V30 10649 H 1074.08 -0.366481 -4.08861 0
M  V30 10650 H 1072.74 0.296709 -3.12695 0
M  V30 10651 H 1071.94 -1.33653 -4.85956 0
M  V30 10652 H 1071.54 -1.90164 -3.22046 0
M  V30 10653 H 1073.83 -2.32565 -6.36333 0
M  V30 10654 H 1074.77 -3.79962 -5.97523 0
M  V30 10655 H 1075.18 -2.2522 -5.17626 0
M  V30 10656 N 1074.58 1.12322 -1.10551 0
M  V30 10657 C 1075.83 1.83858 -0.848674 0
M  V30 10658 C 1076.15 1.84159 0.62575 0
M  V30 10659 O 1075.41 1.28341 1.4774 0
M  V30 10660 C 1075.71 3.31177 -1.34375 0
M  V30 10661 C 1075.37 3.51046 -2.8298 0
M  V30 10662 C 1074.04 3.56177 -3.23561 0
M  V30 10663 C 1076.39 3.58061 -3.78737 0
M  V30 10664 C 1073.72 3.65868 -4.58647 0
M  V30 10665 C 1076.07 3.69283 -5.13627 0
M  V30 10666 C 1074.73 3.7267 -5.53781 0
M  V30 10667 H 1074 0.672784 -0.310552 0
M  V30 10668 H 1076.65 1.3253 -1.38232 0
M  V30 10669 H 1074.95 3.84937 -0.730144 0
M  V30 10670 H 1076.65 3.84998 -1.12148 0
M  V30 10671 H 1073.24 3.47716 -2.50582 0
M  V30 10672 H 1077.42 3.53366 -3.48491 0
M  V30 10673 H 1072.68 3.66763 -4.89178 0
M  V30 10674 H 1076.85 3.73654 -5.8767 0
M  V30 10675 H 1074.48 3.79932 -6.58449 0
M  V30 10676 N 1076.06 0.894434 1.2976 0
M  V30 10677 C 1077.3 0.518435 1.96061 0
M  V30 10678 C 1077.64 -0.931882 1.70381 0
M  V30 10679 O 1076.91 -1.65988 1.01381 0
M  V30 10680 C 1077.19 0.80519 3.50982 0
M  V30 10681 C 1077.05 2.30683 3.86142 0
M  V30 10682 C 1078.37 0.288096 4.39156 0
M  V30 10683 H 1075.48 0.18983 0.712133 0
M  V30 10684 H 1078.13 1.12016 1.53468 0
M  V30 10685 H 1076.28 0.293071 3.87393 0
M  V30 10686 H 1077.95 2.88808 3.59705 0
M  V30 10687 H 1076.19 2.76968 3.33873 0
M  V30 10688 H 1076.86 2.45805 4.94251 0
M  V30 10689 H 1079.34 0.726547 4.09708 0
M  V30 10690 H 1078.21 0.517985 5.4645 0
M  V30 10691 H 1078.48 -0.811018 4.34597 0
M  V30 10692 N 1077.53 -1.43282 0.656365 0
M  V30 10693 C 1078.78 -2.00996 0.168354 0
M  V30 10694 C 1079.1 -1.52408 -1.22601 0
M  V30 10695 O 1080.3 -2.02417 -1.80941 0
M  V30 10696 C 1078.76 -3.5903 0.250161 0
M  V30 10697 C 1078.37 -4.1661 1.64742 0
M  V30 10698 C 1080.11 -4.24118 -0.180084 0
M  V30 10699 C 1078.02 -5.66948 1.68299 0
M  V30 10700 H 1076.95 -0.751674 0.0591769 0
M  V30 10701 H 1079.6 -1.64216 0.818859 0
M  V30 10702 H 1077.98 -3.93226 -0.467908 0
M  V30 10703 H 1079.15 -3.93908 2.3911 0
M  V30 10704 H 1077.47 -3.63905 2.02391 0
M  V30 10705 H 1080.07 -5.34419 -0.173401 0
M  V30 10706 H 1080.41 -3.98264 -1.21208 0
M  V30 10707 H 1080.94 -3.94816 0.486343 0
M  V30 10708 H 1077.68 -5.97573 2.69419 0
M  V30 10709 H 1077.2 -5.91697 0.98261 0
M  V30 10710 H 1078.88 -6.31041 1.42813 0
M  V30 10711 N 1079.01 -0.398486 -1.52479 0
M  V30 10712 C 1079.96 0.447001 -2.28264 0
M  V30 10713 C 1080.96 1.05511 -1.32529 0
M  V30 10714 O 1082.16 0.994528 -1.5003 0
M  V30 10715 H 1078.54 0.162919 -0.73414 0
M  V30 10716 H 1080.51 -0.213534 -2.97635 0
M  V30 10717 C 1079.26 1.55724 -3.10879 0
M  V30 10718 H 1078.58 1.09864 -3.84409 0
M  V30 10719 H 1080.02 2.12286 -3.67029 0
M  V30 10720 C 1078.48 2.51853 -2.23768 0
M  V30 10721 O 1079.01 3.55483 -1.87069 0
M  V30 10722 N 1077.21 2.2181 -1.87746 0
M  V30 10723 H 1076.76 1.3757 -2.17789 0
M  V30 10724 H 1076.72 2.86376 -1.29753 0
M  V30 10725 N 1080.49 1.57075 -0.12858 0
M  V30 10726 C 1081.74 1.96599 0.52157 0
M  V30 10727 C 1082.09 1.01134 1.63675 0
M  V30 10728 O 1081.39 0.043056 1.91552 0
M  V30 10729 C 1081.58 3.40329 1.09138 0
M  V30 10730 C 1081.41 4.49688 0.0329296 0
M  V30 10731 C 1080.18 5.03697 -0.402184 0
M  V30 10732 C 1082.38 5.08778 -0.75166 0
M  V30 10733 N 1080.36 5.96642 -1.4454 0
M  V30 10734 C 1081.73 5.97756 -1.64583 0
M  V30 10735 C 1083.78 4.91407 -0.801489 0
M  V30 10736 C 1082.49 6.71225 -2.58552 0
M  V30 10737 C 1084.51 5.65564 -1.72892 0
M  V30 10738 C 1083.88 6.54236 -2.61065 0
M  V30 10739 H 1079.97 0.765414 0.160202 0
M  V30 10740 H 1082.56 1.93465 -0.218919 0
M  V30 10741 H 1080.73 3.44091 1.80155 0
M  V30 10742 H 1082.46 3.66955 1.70663 0
M  V30 10743 H 1079.22 4.73599 -0.00794396 0
M  V30 10744 H 1079.64 6.47819 -1.96622 0
M  V30 10745 H 1084.28 4.22588 -0.133909 0
M  V30 10746 H 1082 7.39285 -3.26319 0
M  V30 10747 H 1085.59 5.54125 -1.77304 0
M  V30 10748 H 1084.47 7.10612 -3.31662 0
M  V30 10749 N 1081.97 -0.145205 1.5693 0
M  V30 10750 C 1083.22 -0.85395 1.84606 0
M  V30 10751 C 1083.57 -1.78709 0.712811 0
M  V30 10752 O 1082.86 -1.89406 -0.289108 0
M  V30 10753 C 1083.06 -1.66391 3.16305 0
M  V30 10754 C 1082.89 -0.810698 4.42332 0
M  V30 10755 C 1081.66 -0.475623 5.03057 0
M  V30 10756 C 1083.85 -0.140213 5.14109 0
M  V30 10757 N 1081.84 0.390996 6.12654 0
M  V30 10758 C 1083.21 0.586471 6.1722 0
M  V30 10759 C 1085.26 -0.0610725 4.97863 0
M  V30 10760 C 1083.97 1.38483 7.05844 0
M  V30 10761 C 1085.99 0.724026 5.86951 0
M  V30 10762 C 1085.35 1.43899 6.89545 0
M  V30 10763 H 1081.45 -0.290253 0.726138 0
M  V30 10764 H 1084.04 -0.119211 1.94335 0
M  V30 10765 H 1082.21 -2.36987 3.0772 0
M  V30 10766 H 1083.94 -2.31596 3.31882 0
M  V30 10767 H 1080.69 -0.811824 4.6659 0
M  V30 10768 H 1081.12 0.815383 6.72072 0
M  V30 10769 H 1085.76 -0.599475 4.18529 0
M  V30 10770 H 1083.48 1.93448 7.84604 0
M  V30 10771 H 1087.06 0.787276 5.76449 0
M  V30 10772 H 1085.94 2.03674 7.57289 0
M  V30 10773 N 1083.45 -1.52049 -0.414609 0
M  V30 10774 C 1084.41 -1.74382 -1.4874 0
M  V30 10775 C 1085.41 -0.613701 -1.48628 0
M  V30 10776 O 1086.6 -0.88152 -1.50249 0
M  V30 10777 C 1083.73 -1.82116 -2.88178 0
M  V30 10778 H 1084.93 -2.70147 -1.30233 0
M  V30 10779 H 1082.48 -1.42382 -0.644756 0
M  V30 10780 H 1083.21 -0.882457 -3.12063 0
M  V30 10781 H 1083 -2.64268 -2.89663 0
M  V30 10782 H 1084.49 -2.01155 -3.65959 0
M  V30 10783 N 1084.93 0.6715 -1.42579 0
M  V30 10784 C 1085.89 1.76676 -1.46008 0
M  V30 10785 C 1086.89 1.57007 -0.347213 0
M  V30 10786 O 1088.08 1.63238 -0.608185 0
M  V30 10787 C 1085.21 3.15348 -1.29494 0
M  V30 10788 H 1086.4 1.75021 -2.43531 0
M  V30 10789 H 1083.96 0.881444 -1.29075 0
M  V30 10790 H 1084.69 3.22626 -0.32906 0
M  V30 10791 H 1084.48 3.31028 -2.10149 0
M  V30 10792 H 1085.97 3.95251 -1.34784 0
M  V30 10793 N 1086.4 1.28806 0.908124 0
M  V30 10794 C 1087.33 1.15758 2.02787 0
M  V30 10795 C 1088.31 0.053911 1.70015 0
M  V30 10796 O 1089.5 0.231901 1.9281 0
M  V30 10797 C 1086.63 0.824526 3.37371 0
M  V30 10798 C 1085.58 1.88359 3.84324 0
M  V30 10799 C 1084.91 1.40404 5.15937 0
M  V30 10800 C 1086.21 3.29108 4.05568 0
M  V30 10801 H 1087.9 2.09431 2.13961 0
M  V30 10802 H 1085.45 1.00831 1.02806 0
M  V30 10803 H 1087.4 0.71999 4.15204 0
M  V30 10804 H 1086.13 -0.147902 3.26265 0
M  V30 10805 H 1084.79 1.97736 3.087 0
M  V30 10806 H 1084.43 0.420515 5.01239 0
M  V30 10807 H 1084.13 2.11224 5.48323 0
M  V30 10808 H 1085.66 1.31283 5.9632 0
M  V30 10809 H 1087.07 3.2262 4.73909 0
M  V30 10810 H 1085.47 3.97812 4.49294 0
M  V30 10811 H 1086.54 3.72709 3.10187 0
M  V30 10812 N 1087.88 -1.11734 1.11145 0
M  V30 10813 C 1088.81 -2.1976 0.789152 0
M  V30 10814 C 1089.79 -1.68382 -0.241143 0
M  V30 10815 O 1090.98 -1.93914 -0.105292 0
M  V30 10816 C 1088.11 -3.46549 0.228204 0
M  V30 10817 C 1087.06 -4.11123 1.19002 0
M  V30 10818 C 1086.39 -5.32451 0.489928 0
M  V30 10819 C 1087.69 -4.56406 2.53951 0
M  V30 10820 H 1089.38 -2.46978 1.69241 0
M  V30 10821 H 1086.93 -1.18705 0.81517 0
M  V30 10822 H 1088.88 -4.21399 -0.00945908 0
M  V30 10823 H 1087.6 -3.18782 -0.71033 0
M  V30 10824 H 1086.26 -3.38264 1.41326 0
M  V30 10825 H 1085.91 -5.00953 -0.453315 0
M  V30 10826 H 1085.61 -5.76605 1.1314 0
M  V30 10827 H 1087.14 -6.10042 0.260984 0
M  V30 10828 H 1088.55 -5.22592 2.35733 0
M  V30 10829 H 1086.95 -5.11363 3.14051 0
M  V30 10830 H 1088.02 -3.7001 3.13402 0
M  V30 10831 N 1089.36 -0.901303 -1.29284 0
M  V30 10832 C 1090.59 -0.543511 -1.99634 0
M  V30 10833 C 1091 0.872154 -1.67448 0
M  V30 10834 O 1090.36 1.57591 -0.920406 0
M  V30 10835 C 1090.41 -0.728148 -3.54091 0
M  V30 10836 O 1090.13 -2.08809 -3.85137 0
M  V30 10837 C 1091.63 -0.375519 -4.41707 0
M  V30 10838 H 1088.85 -0.208405 -0.637815 0
M  V30 10839 H 1091.4 -1.21109 -1.64781 0
M  V30 10840 H 1089.55 -0.107728 -3.8725 0
M  V30 10841 H 1089.97 -2.11863 -4.79807 0
M  V30 10842 H 1091.44 -0.555538 -5.49197 0
M  V30 10843 H 1091.92 0.687532 -4.33785 0
M  V30 10844 H 1092.52 -0.972949 -4.14021 0
M  V30 10845 N 1090.84 1.42931 -0.663954 0
M  V30 10846 C 1092.07 2.05729 -0.189532 0
M  V30 10847 C 1092.48 1.49914 1.15423 0
M  V30 10848 O 1091.82 0.629324 1.72584 0
M  V30 10849 C 1091.88 3.59482 -0.0354748 0
M  V30 10850 C 1091.54 4.37935 -1.30622 0
M  V30 10851 C 1092.54 4.69297 -2.23733 0
M  V30 10852 C 1090.23 4.77761 -1.5508 0
M  V30 10853 C 1092.22 5.39407 -3.39586 0
M  V30 10854 C 1089.91 5.47613 -2.71224 0
M  V30 10855 C 1090.91 5.7836 -3.63302 0
M  V30 10856 O 1090.59 6.46783 -4.77417 0
M  V30 10857 H 1090.33 0.669678 -0.0922342 0
M  V30 10858 H 1092.88 1.84243 -0.907943 0
M  V30 10859 H 1091.11 3.79584 0.738412 0
M  V30 10860 H 1092.8 4.03947 0.397679 0
M  V30 10861 H 1093.56 4.39038 -2.06084 0
M  V30 10862 H 1089.44 4.53229 -0.842863 0
M  V30 10863 H 1092.99 5.63323 -4.11476 0
M  V30 10864 H 1088.88 5.77289 -2.88804 0
M  V30 10865 H 1089.65 6.6527 -4.76821 0
M  V30 10866 N 1092.32 0.406567 1.52266 0
M  V30 10867 C 1093.56 -0.170305 2.02084 0
M  V30 10868 C 1093.89 -1.45008 1.29176 0
M  V30 10869 O 1093.17 -1.90399 0.39731 0
M  V30 10870 C 1093.45 -0.420627 3.57635 0
M  V30 10871 C 1093.31 0.87564 4.41194 0
M  V30 10872 C 1094.62 -1.20387 4.23314 0
M  V30 10873 H 1091.74 -0.0604219 0.734519 0
M  V30 10874 H 1094.39 0.539529 1.82179 0
M  V30 10875 H 1092.54 -1.0253 3.74726 0
M  V30 10876 H 1094.21 1.51192 4.35819 0
M  V30 10877 H 1092.45 1.48718 4.07511 0
M  V30 10878 H 1093.12 0.654916 5.48101 0
M  V30 10879 H 1095.6 -0.691972 4.10306 0
M  V30 10880 H 1094.47 -1.34776 5.32096 0
M  V30 10881 H 1094.73 -2.2238 3.82099 0
M  V30 10882 N 1093.79 -1.57004 0.136909 0
M  V30 10883 C 1095.04 -1.94972 -0.51662 0
M  V30 10884 C 1095.36 -1.02367 -1.66674 0
M  V30 10885 O 1096.56 -1.29873 -2.38423 0
M  V30 10886 C 1095.02 -3.4657 -0.970435 0
M  V30 10887 C 1094.63 -4.47741 0.152204 0
M  V30 10888 C 1096.37 -3.93423 -1.59432 0
M  V30 10889 C 1094.28 -5.90537 -0.319315 0
M  V30 10890 H 1093.21 -0.727873 -0.196766 0
M  V30 10891 H 1095.86 -1.82181 0.219637 0
M  V30 10892 H 1094.24 -3.54657 -1.76165 0
M  V30 10893 H 1095.41 -4.5134 0.928925 0
M  V30 10894 H 1093.73 -4.10746 0.683867 0
M  V30 10895 H 1096.33 -4.97539 -1.95856 0
M  V30 10896 H 1096.67 -3.34404 -2.47951 0
M  V30 10897 H 1097.2 -3.8821 -0.868193 0
M  V30 10898 H 1093.94 -6.53352 0.530248 0
M  V30 10899 H 1093.46 -5.90321 -1.06213 0
M  V30 10900 H 1095.14 -6.42346 -0.774662 0
M  V30 10901 N 1095.27 0.136881 -1.57004 0
M  V30 10902 C 1096.52 0.849031 -1.84172 0
M  V30 10903 C 1096.85 1.80359 -0.720027 0
M  V30 10904 O 1096.13 1.92538 0.275584 0
M  V30 10905 C 1096.41 1.61465 -3.21871 0
M  V30 10906 C 1096.26 0.680902 -4.44616 0
M  V30 10907 C 1097.58 2.57488 -3.56914 0
M  V30 10908 H 1094.7 0.307209 -0.669919 0
M  V30 10909 H 1097.34 0.113862 -1.89659 0
M  V30 10910 H 1095.49 2.24137 -3.17325 0
M  V30 10911 H 1097.16 0.0644094 -4.61255 0
M  V30 10912 H 1095.41 -0.00883629 -4.33799 0
M  V30 10913 H 1096.08 1.25286 -5.37594 0
M  V30 10914 H 1098.55 2.0493 -3.62136 0
M  V30 10915 H 1097.43 3.08101 -4.54274 0
M  V30 10916 H 1097.69 3.39321 -2.83397 0
M  V30 10917 N 1096.75 1.52266 0.40654 0
M  V30 10918 C 1097.68 1.78755 1.50229 0
M  V30 10919 C 1098.66 0.638652 1.57655 0
M  V30 10920 O 1099.85 0.884505 1.72888 0
M  V30 10921 C 1096.98 1.94057 2.88026 0
M  V30 10922 C 1095.93 3.09667 2.95449 0
M  V30 10923 C 1095.26 3.10196 4.35526 0
M  V30 10924 C 1096.56 4.49077 2.66697 0
M  V30 10925 H 1098.25 2.70511 1.28313 0
M  V30 10926 H 1095.8 1.30167 0.615836 0
M  V30 10927 H 1097.75 2.11171 3.64671 0
M  V30 10928 H 1096.47 0.989755 3.11242 0
M  V30 10929 H 1095.13 2.92308 2.2125 0
M  V30 10930 H 1094.78 2.12831 4.55754 0
M  V30 10931 H 1094.48 3.87847 4.41416 0
M  V30 10932 H 1096 3.29443 5.14101 0
M  V30 10933 H 1097.42 4.66628 3.33064 0
M  V30 10934 H 1095.82 5.28665 2.8396 0
M  V30 10935 H 1096.89 4.56995 1.62122 0
M  V30 10936 N 1098.23 -0.663929 1.42933 0
M  V30 10937 C 1099.48 -1.42111 1.43697 0
M  V30 10938 C 1099.8 -1.94913 0.0583858 0
M  V30 10939 O 1099.07 -1.73757 -0.904719 0
M  V30 10940 H 1097.65 -0.527391 0.529026 0
M  V30 10941 H 1100.31 -0.783766 1.78446 0
M  V30 10942 H 1099.41 -2.26877 2.1432 0
M  V30 10943 N 1099.71 -1.29285 -0.901281 0
M  V30 10944 C 1100.64 -1.16832 -2.0217 0
M  V30 10945 C 1101.62 -0.0629265 -1.69984 0
M  V30 10946 O 1102.8 -0.242123 -1.92685 0
M  V30 10947 C 1099.93 -0.842406 -3.36929 0
M  V30 10948 C 1098.89 -1.90394 -3.8332 0
M  V30 10949 C 1098.21 -1.43138 -5.15185 0
M  V30 10950 C 1099.51 -3.31254 -4.03817 0
M  V30 10951 H 1101.21 -2.10562 -2.12847 0
M  V30 10952 H 1098.75 -1.01375 -1.0227 0
M  V30 10953 H 1100.71 -0.741999 -4.14816 0
M  V30 10954 H 1099.43 0.130598 -3.26339 0
M  V30 10955 H 1098.09 -1.99371 -3.07647 0
M  V30 10956 H 1097.74 -0.447091 -5.01009 0
M  V30 10957 H 1097.44 -2.14129 -5.47195 0
M  V30 10958 H 1098.96 -1.34444 -5.95615 0
M  V30 10959 H 1100.37 -3.25129 -4.72191 0
M  V30 10960 H 1098.77 -4.00189 -4.47178 0
M  V30 10961 H 1099.84 -3.74349 -3.08206 0
M  V30 10962 N 1101.18 1.11143 -1.11736 0
M  V30 10963 C 1102.41 1.86474 -0.889435 0
M  V30 10964 C 1102.82 1.80584 0.564438 0
M  V30 10965 O 1102.17 1.18743 1.40163 0
M  V30 10966 C 1102.23 3.36066 -1.27671 0
M  V30 10967 C 1101.89 3.65721 -2.74038 0
M  V30 10968 C 1102.89 3.62941 -3.7225 0
M  V30 10969 C 1100.57 3.94629 -3.10762 0
M  V30 10970 C 1102.57 3.88651 -5.05202 0
M  V30 10971 C 1100.25 4.19997 -4.43899 0
M  V30 10972 C 1101.25 4.16996 -5.40928 0
M  V30 10973 O 1100.94 4.41724 -6.71666 0
M  V30 10974 H 1100.67 0.596438 -0.318178 0
M  V30 10975 H 1103.23 1.41465 -1.48918 0
M  V30 10976 H 1101.46 3.81695 -0.620124 0
M  V30 10977 H 1103.15 3.92769 -1.02409 0
M  V30 10978 H 1103.91 3.40655 -3.45223 0
M  V30 10979 H 1099.79 3.96099 -2.35853 0
M  V30 10980 H 1103.33 3.86224 -5.80927 0
M  V30 10981 H 1099.23 4.4176 -4.70657 0
M  V30 10982 H 1100 4.59276 -6.77501 0
M  V30 10983 N 1102.66 0.908147 1.28804 0
M  V30 10984 C 1103.91 0.534332 1.94494 0
M  V30 10985 C 1104.22 -0.92552 1.72318 0
M  V30 10986 O 1105.43 -1.40724 2.32183 0
M  V30 10987 C 1103.89 0.904748 3.48342 0
M  V30 10988 C 1103.49 2.38394 3.79305 0
M  V30 10989 C 1105.24 0.601249 4.2022 0
M  V30 10990 C 1103.15 2.69478 5.26437 0
M  V30 10991 H 1102.08 0.196107 0.728051 0
M  V30 10992 H 1104.73 1.1063 1.46401 0
M  V30 10993 H 1103.11 0.261624 3.95135 0
M  V30 10994 H 1104.28 3.07333 3.43341 0
M  V30 10995 H 1102.6 2.65733 3.20586 0
M  V30 10996 H 1105.19 0.810225 5.28526 0
M  V30 10997 H 1105.54 -0.460669 4.13743 0
M  V30 10998 H 1106.07 1.20259 3.79187 0
M  V30 10999 H 1102.81 3.74501 5.37986 0
M  V30 11000 H 1102.33 2.05171 5.63618 0
M  V30 11001 H 1104.01 2.56187 5.94119 0
M  V30 11002 N 1104.14 -1.42577 0.671525 0
M  V30 11003 C 1105.37 -2.05625 0.20044 0
M  V30 11004 C 1105.78 -1.50524 -1.14626 0
M  V30 11005 O 1105.12 -0.638468 -1.72248 0
M  V30 11006 C 1105.18 -3.59459 0.0545385 0
M  V30 11007 C 1104.85 -4.37236 1.32943 0
M  V30 11008 C 1105.84 -4.68104 2.26219 0
M  V30 11009 C 1103.53 -4.76932 1.57612 0
M  V30 11010 C 1105.52 -5.37599 3.42442 0
M  V30 11011 C 1103.21 -5.46167 2.74125 0
M  V30 11012 C 1104.21 -5.76425 3.66364 0
M  V30 11013 O 1103.9 -6.44242 4.8084 0
M  V30 11014 H 1103.63 -0.66918 0.0957843 0
M  V30 11015 H 1106.18 -1.83759 0.917701 0
M  V30 11016 H 1104.41 -3.79971 -0.718271 0
M  V30 11017 H 1106.1 -4.04152 -0.376251 0
M  V30 11018 H 1106.87 -4.37939 2.08409 0
M  V30 11019 H 1102.75 -4.52776 0.866887 0
M  V30 11020 H 1106.29 -5.61133 4.14458 0
M  V30 11021 H 1102.19 -5.75749 2.91861 0
M  V30 11022 H 1102.96 -6.62732 4.80342 0
M  V30 11023 N 1105.62 -0.414636 -1.52048 0
M  V30 11024 C 1106.86 0.159585 -2.02171 0
M  V30 11025 C 1107.2 1.44321 -1.29943 0
M  V30 11026 O 1106.47 1.90185 -0.407402 0
M  V30 11027 C 1106.76 0.401655 -3.57853 0
M  V30 11028 C 1106.61 -0.899026 -4.40724 0
M  V30 11029 C 1107.93 1.1814 -4.23947 0
M  V30 11030 H 1105.05 0.0565257 -0.734829 0
M  V30 11031 H 1107.69 -0.549183 -1.8189 0
M  V30 11032 H 1105.84 1.00541 -3.75265 0
M  V30 11033 H 1107.51 -1.53502 -4.35011 0
M  V30 11034 H 1105.75 -1.50877 -4.06717 0
M  V30 11035 H 1106.42 -0.683974 -5.47746 0
M  V30 11036 H 1108.9 0.670203 -4.10667 0
M  V30 11037 H 1107.78 1.31953 -5.32804 0
M  V30 11038 H 1108.04 2.2035 -3.83273 0
M  V30 11039 N 1107.1 1.56929 -0.145233 0
M  V30 11040 C 1108.32 2.00431 0.513314 0
M  V30 11041 C 1108.74 1.0253 1.58534 0
M  V30 11042 O 1108.1 0.0220459 1.82487 0
M  V30 11043 C 1108.15 3.43856 1.11557 0
M  V30 11044 O 1107.87 4.38015 0.0863707 0
M  V30 11045 C 1109.37 4.02627 1.8549 0
M  V30 11046 H 1106.59 0.657529 0.133778 0
M  V30 11047 H 1109.13 2.03095 -0.239296 0
M  V30 11048 H 1107.29 3.4205 1.81881 0
M  V30 11049 H 1107.7 5.21842 0.527363 0
M  V30 11050 H 1109.18 5.04985 2.22923 0
M  V30 11051 H 1109.65 3.43239 2.74014 0
M  V30 11052 H 1110.26 4.08058 1.19869 0
M  V30 11053 N 1108.58 -0.128553 1.57075 0
M  V30 11054 C 1109.81 -0.851214 1.8825 0
M  V30 11055 C 1110.21 -1.74402 0.733531 0
M  V30 11056 O 1109.56 -1.81149 -0.305108 0
M  V30 11057 C 1109.62 -1.74451 3.14336 0
M  V30 11058 C 1109.28 -1.02699 4.45311 0
M  V30 11059 C 1110.28 -0.37224 5.18566 0
M  V30 11060 C 1107.96 -1.01101 4.9202 0
M  V30 11061 C 1109.96 0.2889 6.36745 0
M  V30 11062 C 1107.65 -0.346063 6.10119 0
M  V30 11063 C 1108.64 0.302744 6.82329 0
M  V30 11064 O 1108.33 0.9571 7.98182 0
M  V30 11065 H 1108.06 -0.250529 0.627863 0
M  V30 11066 H 1110.62 -0.120418 2.05047 0
M  V30 11067 H 1108.85 -2.51671 2.93596 0
M  V30 11068 H 1110.54 -2.34075 3.31608 0
M  V30 11069 H 1111.3 -0.376271 4.83538 0
M  V30 11070 H 1107.18 -1.50543 4.35727 0
M  V30 11071 H 1110.73 0.795901 6.93045 0
M  V30 11072 H 1106.62 -0.339762 6.44605 0
M  V30 11073 H 1107.39 0.860616 8.13963 0
M  V30 11074 N 1110.05 -1.5248 -0.398459 0
M  V30 11075 C 1111 -1.76585 -1.48615 0
M  V30 11076 C 1111.97 -0.608677 -1.54546 0
M  V30 11077 O 1113.16 -0.847383 -1.7095 0
M  V30 11078 C 1110.3 -1.93201 -2.8595 0
M  V30 11079 C 1109.41 -3.20875 -2.89246 0
M  V30 11080 C 1108.54 -3.27862 -4.17947 0
M  V30 11081 C 1107.58 -4.49697 -4.15258 0
M  V30 11082 N 1106.72 -4.54017 -5.35549 0
M  V30 11083 H 1111.56 -2.69412 -1.27362 0
M  V30 11084 H 1109.1 -1.33487 -0.618031 0
M  V30 11085 H 1111.05 -2.00819 -3.65688 0
M  V30 11086 H 1109.68 -1.03743 -3.05675 0
M  V30 11087 H 1108.74 -3.22376 -2.01935 0
M  V30 11088 H 1110.05 -4.1066 -2.83125 0
M  V30 11089 H 1109.2 -3.34611 -5.06083 0
M  V30 11090 H 1107.94 -2.36035 -4.26777 0
M  V30 11091 H 1106.95 -4.43083 -3.25511 0
M  V30 11092 H 1108.17 -5.42831 -4.08059 0
M  V30 11093 H 1106.12 -3.65078 -5.45027 0
M  V30 11094 H 1106.03 -5.37661 -5.31466 0
M  V30 11095 H 1107.3 -4.65009 -6.25609 0
M  V30 11096 N 1111.53 0.65634 -1.43283 0
M  V30 11097 C 1112.48 1.76934 -1.48199 0
M  V30 11098 C 1113.45 1.62748 -0.332023 0
M  V30 11099 O 1114.63 1.83036 -0.538735 0
M  V30 11100 C 1111.77 3.15072 -1.40797 0
M  V30 11101 C 1110.89 3.40414 -2.65974 0
M  V30 11102 C 1110.02 4.68383 -2.50582 0
M  V30 11103 C 1109.06 4.8682 -3.71043 0
M  V30 11104 N 1108.2 6.06043 -3.5448 0
M  V30 11105 H 1113.04 1.72067 -2.43304 0
M  V30 11106 H 1110.57 0.839728 -1.20777 0
M  V30 11107 H 1112.53 3.94925 -1.345 0
M  V30 11108 H 1111.16 3.19017 -0.492754 0
M  V30 11109 H 1110.21 2.54681 -2.82563 0
M  V30 11110 H 1111.53 3.49925 -3.55463 0
M  V30 11111 H 1110.68 5.56357 -2.41975 0
M  V30 11112 H 1109.42 4.61187 -1.58612 0
M  V30 11113 H 1108.42 3.97282 -3.80062 0
M  V30 11114 H 1109.65 4.95847 -4.64017 0
M  V30 11115 H 1107.6 5.99985 -2.65242 0
M  V30 11116 H 1107.51 6.16498 -4.37568 0
M  V30 11117 H 1108.78 6.96647 -3.49719 0
M  V30 11118 N 1113.01 1.29761 0.894412 0
M  V30 11119 C 1114.42 1.16275 1.46072 0
M  V30 11120 C 1114.77 -0.240123 1.94725 0
M  V30 11121 O 1113.9 -1.13606 1.84181 0
M  V30 11122 C 1114.49 2.10471 2.65494 0
M  V30 11123 C 1113.05 2.00992 3.18244 0
M  V30 11124 C 1112.2 2.01094 1.90936 0
M  V30 11125 H 1115.15 1.42169 0.705243 0
M  V30 11126 H 1115.17 1.68003 3.41402 0
M  V30 11127 H 1114.68 3.12566 2.30053 0
M  V30 11128 H 1112.78 1.02005 3.58365 0
M  V30 11129 H 1112.9 2.88916 3.82184 0
M  V30 11130 H 1111.26 1.45764 2.08866 0
M  V30 11131 H 1112.04 3.04902 1.57764 0
M  V30 11132 N 1114.49 -1.10549 1.12324 0
M  V30 11133 C 1115.76 -1.78968 0.789287 0
M  V30 11134 C 1116.14 -1.984 -0.721156 0
M  V30 11135 O 1115.49 -1.5761 -1.65443 0
M  V30 11136 C 1115.7 -3.12044 1.563 0
M  V30 11137 C 1117.05 -3.86939 1.74825 0
M  V30 11138 O 1118.07 -3.21761 1.52802 0
M  V30 11139 O 1116.93 -5.0392 2.11488 0
M  V30 11140 H 1114.03 -0.775617 0.286962 0
M  V30 11141 H 1116.57 -1.17209 1.2272 0
M  V30 11142 H 1115.35 -2.93313 2.59005 0
M  V30 11143 H 1114.97 -3.81521 1.11926 0
M  V30 11144 N 1115.97 -0.914965 -1.28321 0
M  V30 11145 C 1117.21 -0.549562 -1.95212 0
M  V30 11146 C 1117.54 0.904658 -1.71842 0
M  V30 11147 O 1116.82 1.64354 -1.04009 0
M  V30 11148 C 1117.1 -0.860927 -3.49657 0
M  V30 11149 C 1116.96 -2.36797 -3.82423 0
M  V30 11150 C 1118.27 -0.357926 -4.38642 0
M  V30 11151 H 1115.39 -0.201136 -0.709023 0
M  V30 11152 H 1118.04 -1.14443 -1.51667 0
M  V30 11153 H 1116.19 -0.354665 -3.86878 0
M  V30 11154 H 1117.86 -2.94494 -3.55065 0
M  V30 11155 H 1116.1 -2.82245 -3.29424 0
M  V30 11156 H 1116.77 -2.53637 -4.90278 0
M  V30 11157 H 1119.25 -0.791636 -4.085 0
M  V30 11158 H 1118.12 -0.604855 -5.45557 0
M  V30 11159 H 1118.38 0.741775 -4.35833 0
M  V30 11160 N 1117.44 1.42219 -0.679077 0
M  V30 11161 C 1118.39 2.32599 0.00820028 0
M  V30 11162 C 1119.39 1.50059 0.786046 0
M  V30 11163 O 1120.59 1.66103 0.693528 0
M  V30 11164 H 1116.97 0.751694 0.0214483 0
M  V30 11165 H 1118.94 2.88257 -0.77138 0
M  V30 11166 C 1117.69 3.3468 0.942581 0
M  V30 11167 H 1117.01 3.98234 0.353463 0
M  V30 11168 H 1118.45 4.00496 1.39208 0
M  V30 11169 C 1116.91 2.67275 2.05099 0
M  V30 11170 O 1117.44 2.50793 3.13793 0
M  V30 11171 N 1115.64 2.26232 1.82394 0
M  V30 11172 H 1115.19 2.39838 0.939983 0
M  V30 11173 H 1115.15 1.81465 2.56744 0
M  V30 11174 N 1118.92 0.422693 1.51826 0
M  V30 11175 C 1120.17 -0.141187 2.02909 0
M  V30 11176 C 1120.52 -1.41649 1.30205 0
M  V30 11177 O 1119.82 -1.87297 0.403769 0
M  V30 11178 C 1120.01 -0.429516 3.5481 0
M  V30 11179 C 1119.84 0.816291 4.42229 0
M  V30 11180 C 1118.61 1.34551 4.87057 0
M  V30 11181 C 1120.81 1.69829 4.85451 0
M  V30 11182 N 1118.79 2.54538 5.58644 0
M  V30 11183 C 1120.16 2.74431 5.55956 0
M  V30 11184 C 1122.21 1.71445 4.67452 0
M  V30 11185 C 1120.92 3.80576 6.10372 0
M  V30 11186 C 1122.94 2.76516 5.22774 0
M  V30 11187 C 1122.31 3.79839 5.93213 0
M  V30 11188 H 1118.4 -0.0128783 0.781894 0
M  V30 11189 H 1120.99 0.580083 1.85858 0
M  V30 11190 H 1119.16 -1.11982 3.71907 0
M  V30 11191 H 1120.89 -0.983467 3.92568 0
M  V30 11192 H 1117.65 0.901554 4.6494 0
M  V30 11193 H 1118.07 3.15342 5.99073 0
M  V30 11194 H 1122.71 0.92899 4.12468 0
M  V30 11195 H 1120.43 4.59969 6.6442 0
M  V30 11196 H 1124.02 2.7869 5.10708 0
M  V30 11197 H 1122.9 4.59806 6.35254 0
M  V30 11198 N 1120.4 -1.5685 0.153553 0
M  V30 11199 C 1121.65 -1.95946 -0.494936 0
M  V30 11200 C 1121.97 -1.03975 -1.64967 0
M  V30 11201 O 1121.24 -0.102572 -1.95631 0
M  V30 11202 H 1119.82 -0.723516 -0.185833 0
M  V30 11203 H 1122.48 -1.93531 0.230585 0
M  V30 11204 H 1121.58 -2.99823 -0.866743 0
M  V30 11205 N 1121.88 0.120221 -1.57141 0
M  V30 11206 C 1123.1 0.84637 -1.89344 0
M  V30 11207 C 1123.53 1.72702 -0.745365 0
M  V30 11208 O 1122.89 1.7873 0.304155 0
M  V30 11209 C 1122.93 1.65671 -3.20289 0
M  V30 11210 O 1122.04 2.76353 -3.06109 0
M  V30 11211 H 1121.38 0.234132 -0.621352 0
M  V30 11212 H 1123.91 0.102986 -2.04341 0
M  V30 11213 H 1123.92 2.04621 -3.52979 0
M  V30 11214 H 1122.59 1.01023 -4.03444 0
M  V30 11215 H 1121.17 2.40615 -2.84884 0
M  V30 11216 N 1123.36 1.52689 0.390367 0
M  V30 11217 C 1124.58 1.71839 1.16129 0
M  V30 11218 C 1125.01 0.435226 1.82996 0
M  V30 11219 O 1124.36 -0.60889 1.70769 0
M  V30 11220 C 1124.41 2.86784 2.18603 0
M  V30 11221 O 1123.52 2.53662 3.25161 0
M  V30 11222 H 1122.86 0.571455 0.338135 0
M  V30 11223 H 1125.39 1.99475 0.45508 0
M  V30 11224 H 1125.4 3.12239 2.62622 0
M  V30 11225 H 1124.07 3.79872 1.69322 0
M  V30 11226 H 1122.65 2.38942 2.86289 0
M  V30 11227 N 1124.83 -0.648732 1.43629 0
M  V30 11228 C 1126.06 -1.4362 1.48932 0
M  V30 11229 C 1126.48 -1.88487 0.108599 0
M  V30 11230 O 1125.83 -1.59768 -0.882066 0
M  V30 11231 C 1125.89 -2.66822 2.43903 0
M  V30 11232 O 1125.61 -2.2383 3.76606 0
M  V30 11233 C 1127.11 -3.60134 2.58493 0
M  V30 11234 H 1124.33 -0.441055 0.505679 0
M  V30 11235 H 1126.87 -0.794936 1.88417 0
M  V30 11236 H 1125.03 -3.27079 2.07601 0
M  V30 11237 H 1125.44 -3.03575 4.27718 0
M  V30 11238 H 1126.91 -4.43234 3.29011 0
M  V30 11239 H 1127.39 -4.07779 1.63134 0
M  V30 11240 H 1128 -3.05756 2.95624 0
M  V30 11241 N 1126.31 -1.30234 -0.887518 0
M  V30 11242 C 1127.24 -1.12212 -1.99853 0
M  V30 11243 C 1128.26 -0.0660929 -1.62666 0
M  V30 11244 O 1129.45 -0.311853 -1.75755 0
M  V30 11245 C 1126.55 -0.688591 -3.31831 0
M  V30 11246 C 1125.72 -1.82581 -3.97471 0
M  V30 11247 C 1124.78 -1.38126 -5.07748 0
M  V30 11248 O 1123.8 -2.08805 -5.29518 0
M  V30 11249 N 1125.01 -0.258868 -5.79923 0
M  V30 11250 H 1127.77 -2.07901 -2.15864 0
M  V30 11251 H 1125.33 -1.22336 -1.06045 0
M  V30 11252 H 1127.32 -0.374252 -4.02966 0
M  V30 11253 H 1125.89 0.176185 -3.12103 0
M  V30 11254 H 1125.11 -2.3084 -3.19541 0
M  V30 11255 H 1126.4 -2.58798 -4.38065 0
M  V30 11256 H 1125.8 0.330131 -5.64736 0
M  V30 11257 H 1124.36 -0.00396813 -6.518 0
M  V30 11258 N 1127.79 1.09952 -1.12909 0
M  V30 11259 C 1128.75 2.14615 -0.804548 0
M  V30 11260 C 1129.75 1.5975 0.18345 0
M  V30 11261 O 1130.94 1.74147 -0.0429623 0
M  V30 11262 C 1128.08 3.40333 -0.196471 0
M  V30 11263 H 1129.27 2.44835 -1.73193 0
M  V30 11264 H 1126.82 1.25399 -0.932997 0
M  V30 11265 H 1127.56 3.15735 0.740388 0
M  V30 11266 H 1127.34 3.81444 -0.907886 0
M  V30 11267 H 1128.83 4.17598 0.0139264 0
M  V30 11268 N 1129.27 0.921757 1.27833 0
M  V30 11269 C 1130.2 0.433466 2.29441 0
M  V30 11270 C 1131.18 -0.503133 1.62489 0
M  V30 11271 O 1132.36 -0.409156 1.89841 0
M  V30 11272 C 1129.49 -0.320029 3.45822 0
M  V30 11273 C 1128.45 0.528178 4.24728 0
M  V30 11274 C 1127.77 -0.354132 5.33526 0
M  V30 11275 C 1129.07 1.78959 4.90684 0
M  V30 11276 H 1130.77 1.28263 2.70535 0
M  V30 11277 H 1128.31 0.618197 1.30055 0
M  V30 11278 H 1130.27 -0.672526 4.15999 0
M  V30 11279 H 1128.99 -1.20317 3.0363 0
M  V30 11280 H 1127.65 0.863302 3.5629 0
M  V30 11281 H 1127.3 -1.23605 4.87576 0
M  V30 11282 H 1127 0.209855 5.87225 0
M  V30 11283 H 1128.52 -0.702333 6.06547 0
M  V30 11284 H 1129.94 1.50552 5.53179 0
M  V30 11285 H 1128.33 2.29661 5.54415 0
M  V30 11286 H 1129.4 2.51265 4.14721 0
M  V30 11287 N 1130.75 -1.41857 0.686609 0
M  V30 11288 C 1131.97 -2.05699 0.222561 0
M  V30 11289 C 1132.39 -1.51636 -1.12481 0
M  V30 11290 O 1131.75 -0.660925 -1.70112 0
M  V30 11291 C 1131.8 -3.61138 0.161818 0
M  V30 11292 O 1131.52 -4.13199 1.45596 0
M  V30 11293 C 1133.02 -4.42112 -0.324304 0
M  V30 11294 H 1130.24 -0.662665 0.10543 0
M  V30 11295 H 1132.78 -1.81788 0.936671 0
M  V30 11296 H 1130.94 -3.8412 -0.503056 0
M  V30 11297 H 1131.35 -5.0717 1.33712 0
M  V30 11298 H 1132.83 -5.51097 -0.315694 0
M  V30 11299 H 1133.3 -4.1756 -1.36164 0
M  V30 11300 H 1133.91 -4.24174 0.309251 0
M  V30 11301 N 1132.22 -0.430739 -1.51599 0
M  V30 11302 C 1133.45 0.136599 -2.06148 0
M  V30 11303 C 1133.86 1.37577 -1.29881 0
M  V30 11304 O 1133.21 1.80337 -0.349875 0
M  V30 11305 C 1133.27 0.53071 -3.55561 0
M  V30 11306 C 1132.93 -0.600738 -4.53034 0
M  V30 11307 C 1133.93 -1.47089 -4.98659 0
M  V30 11308 C 1131.61 -0.77959 -4.96213 0
M  V30 11309 C 1133.61 -2.50464 -5.86128 0
M  V30 11310 C 1131.29 -1.81663 -5.83474 0
M  V30 11311 C 1132.29 -2.67755 -6.28328 0
M  V30 11312 O 1131.98 -3.69679 -7.13858 0
M  V30 11313 H 1131.71 0.0143071 -0.675849 0
M  V30 11314 H 1134.27 -0.606673 -1.96236 0
M  V30 11315 H 1132.5 1.32659 -3.63233 0
M  V30 11316 H 1134.19 1.02844 -3.92655 0
M  V30 11317 H 1134.95 -1.34421 -4.66 0
M  V30 11318 H 1130.83 -0.119082 -4.60846 0
M  V30 11319 H 1134.37 -3.17695 -6.2106 0
M  V30 11320 H 1130.27 -1.94353 -6.15546 0
M  V30 11321 H 1131.04 -3.66181 -7.3202 0
M  V30 11322 N 1133.7 1.56767 -0.161869 0
M  V30 11323 C 1134.63 2.20511 0.767918 0
M  V30 11324 C 1135.61 1.15783 1.24612 0
M  V30 11325 O 1136.8 1.44179 1.301 0
M  V30 11326 C 1133.93 2.83844 2.00125 0
M  V30 11327 C 1132.88 3.94528 1.65926 0
M  V30 11328 C 1132.21 4.44866 2.96646 0
M  V30 11329 C 1133.51 5.14583 0.894497 0
M  V30 11330 H 1135.2 2.98464 0.236607 0
M  V30 11331 H 1132.75 1.43561 0.112363 0
M  V30 11332 H 1134.7 3.27109 2.65664 0
M  V30 11333 H 1133.43 2.03246 2.55654 0
M  V30 11334 H 1132.08 3.51904 1.02759 0
M  V30 11335 H 1131.73 3.61071 3.50196 0
M  V30 11336 H 1131.43 5.19531 2.74521 0
M  V30 11337 H 1132.96 4.90812 3.6323 0
M  V30 11338 H 1134.37 5.54601 1.45228 0
M  V30 11339 H 1132.77 5.95105 0.772636 0
M  V30 11340 H 1133.84 4.84773 -0.110986 0
M  V30 11341 N 1135.18 -0.111886 1.57202 0
M  V30 11342 C 1136.13 -1.15585 2.01849 0
M  V30 11343 C 1137.12 -1.42458 0.916621 0
M  V30 11344 O 1138.33 -1.42337 1.10182 0
M  V30 11345 H 1134.7 -0.389885 0.643035 0
M  V30 11346 H 1136.67 -0.752854 2.88747 0
M  V30 11347 C 1135.42 -2.47247 2.44467 0
M  V30 11348 H 1134.75 -2.27409 3.28824 0
M  V30 11349 H 1136.19 -3.18837 2.79497 0
M  V30 11350 C 1134.65 -3.10339 1.31115 0
M  V30 11351 O 1135.18 -3.96713 0.631029 0
M  V30 11352 N 1133.38 -2.70326 1.0664 0
M  V30 11353 H 1132.93 -2.00182 1.62126 0
M  V30 11354 H 1132.89 -3.12869 0.309944 0
M  V30 11355 N 1136.66 -1.52894 -0.382264 0
M  V30 11356 C 1137.62 -1.77497 -1.45008 0
M  V30 11357 C 1138.62 -0.64509 -1.47293 0
M  V30 11358 O 1139.81 -0.913192 -1.48346 0
M  V30 11359 C 1136.94 -1.88188 -2.8425 0
M  V30 11360 H 1138.14 -2.72849 -1.24473 0
M  V30 11361 H 1135.69 -1.43717 -0.61441 0
M  V30 11362 H 1136.42 -0.948451 -3.10121 0
M  V30 11363 H 1136.21 -2.70353 -2.83992 0
M  V30 11364 H 1137.7 -2.08873 -3.6161 0
M  V30 11365 N 1138.14 0.641106 -1.43971 0
M  V30 11366 C 1139.07 1.76489 -1.52885 0
M  V30 11367 C 1140.05 1.65742 -0.38258 0
M  V30 11368 O 1141.23 1.84653 -0.601397 0
M  V30 11369 C 1138.36 3.14977 -1.4631 0
M  V30 11370 C 1137.32 3.40502 -2.59311 0
M  V30 11371 C 1136.64 4.78916 -2.37789 0
M  V30 11372 C 1137.94 3.34048 -4.01509 0
M  V30 11373 H 1139.64 1.69286 -2.46946 0
M  V30 11374 H 1137.18 0.813015 -1.18853 0
M  V30 11375 H 1139.14 3.9336 -1.51149 0
M  V30 11376 H 1137.86 3.2294 -0.487599 0
M  V30 11377 H 1136.52 2.64495 -2.53846 0
M  V30 11378 H 1136.17 4.8357 -1.38454 0
M  V30 11379 H 1135.87 4.96954 -3.13545 0
M  V30 11380 H 1137.39 5.59541 -2.4443 0
M  V30 11381 H 1138.81 4.0235 -4.08396 0
M  V30 11382 H 1137.2 3.63622 -4.77388 0
M  V30 11383 H 1138.27 2.32022 -4.25786 0
M  V30 11384 N 1139.62 1.30703 0.880598 0
M  V30 11385 C 1140.55 1.1327 1.99255 0
M  V30 11386 C 1141.56 0.0747186 1.62628 0
M  V30 11387 O 1142.75 0.321169 1.75587 0
M  V30 11388 C 1139.85 0.706179 3.31461 0
M  V30 11389 C 1139.02 1.84687 3.96497 0
M  V30 11390 C 1138.08 1.40817 5.07008 0
M  V30 11391 O 1137.11 2.1161 5.28403 0
M  V30 11392 N 1138.31 0.289619 5.79777 0
M  V30 11393 H 1141.07 2.09043 2.14759 0
M  V30 11394 H 1138.64 1.22896 1.05395 0
M  V30 11395 H 1140.63 0.395617 4.02762 0
M  V30 11396 H 1139.2 -0.159631 3.12192 0
M  V30 11397 H 1138.42 2.32531 3.18312 0
M  V30 11398 H 1139.71 2.61117 4.36687 0
M  V30 11399 H 1139.1 -0.300177 5.64903 0
M  V30 11400 H 1137.66 0.0385346 6.51789 0
M  V30 11401 N 1141.09 -1.09351 1.1349 0
M  V30 11402 C 1142.04 -2.14179 0.781739 0
M  V30 11403 C 1143.03 -1.59325 -0.224575 0
M  V30 11404 O 1144.22 -1.76977 -0.0283747 0
M  V30 11405 C 1141.35 -3.42386 0.250278 0
M  V30 11406 C 1140.43 -4.04147 1.28555 0
M  V30 11407 N 1140.83 -4.40451 2.4867 0
M  V30 11408 C 1139.12 -4.31356 1.13351 0
M  V30 11409 C 1139.82 -4.89115 3.14867 0
M  V30 11410 N 1138.8 -4.86618 2.42289 0
M  V30 11411 H 1142.6 -2.40055 1.69561 0
M  V30 11412 H 1140.12 -1.26587 1.01733 0
M  V30 11413 H 1142.11 -4.16895 -0.0209767 0
M  V30 11414 H 1140.77 -3.17965 -0.657904 0
M  V30 11415 H 1141.78 -4.31789 2.8597 0
M  V30 11416 H 1138.46 -4.16536 0.28355 0
M  V30 11417 H 1139.85 -5.26663 4.17224 0
M  V30 11418 N 1142.57 -0.928524 -1.27343 0
M  V30 11419 C 1143.8 -0.58516 -1.98974 0
M  V30 11420 C 1144.22 0.829964 -1.68799 0
M  V30 11421 O 1143.58 1.55705 -0.928738 0
M  V30 11422 C 1143.63 -0.818662 -3.51184 0
M  V30 11423 O 1142.73 0.115355 -4.12239 0
M  V30 11424 H 1142.07 -0.225203 -0.624644 0
M  V30 11425 H 1144.6 -1.248 -1.6213 0
M  V30 11426 H 1144.61 -0.734554 -4.01333 0
M  V30 11427 H 1143.29 -1.8502 -3.72479 0
M  V30 11428 H 1141.86 -0.0187371 -3.72895 0
M  V30 11429 N 1144.05 1.41491 -0.694123 0
M  V30 11430 C 1145.3 2.00479 -0.221585 0
M  V30 11431 C 1145.61 1.55605 1.18518 0
M  V30 11432 O 1146.82 2.07143 1.7551 0
M  V30 11433 C 1145.27 3.5824 -0.345264 0
M  V30 11434 C 1144.88 4.12096 -1.7573 0
M  V30 11435 C 1146.63 4.24446 0.0675731 0
M  V30 11436 C 1144.53 5.62286 -1.83271 0
M  V30 11437 H 1143.46 0.749841 -0.0790854 0
M  V30 11438 H 1146.11 1.61987 -0.86211 0
M  V30 11439 H 1144.5 3.94328 0.363487 0
M  V30 11440 H 1145.67 3.8743 -2.49469 0
M  V30 11441 H 1143.98 3.58411 -2.11969 0
M  V30 11442 H 1146.58 5.34691 0.0316485 0
M  V30 11443 H 1146.92 4.01338 1.10606 0
M  V30 11444 H 1147.46 3.93388 -0.59085 0
M  V30 11445 H 1144.2 5.9022 -2.85168 0
M  V30 11446 H 1143.72 5.88883 -1.13914 0
M  V30 11447 H 1145.4 6.27033 -1.59494 0
M  V30 11448 N 1145.53 0.438773 1.51369 0
M  V30 11449 C 1146.94 0.0911416 1.5934 0
M  V30 11450 C 1147.14 -1.39962 1.44958 0
M  V30 11451 O 1146.2 -2.16968 1.29155 0
M  V30 11452 C 1147.51 0.612531 2.94395 0
M  V30 11453 C 1149.06 0.573098 3.07709 0
M  V30 11454 C 1149.54 1.07149 4.4529 0
M  V30 11455 N 1151.03 1.02953 4.51614 0
M  V30 11456 C 1151.76 1.38602 5.56397 0
M  V30 11457 N 1151.26 1.81543 6.68591 0
M  V30 11458 N 1153.05 1.30409 5.46763 0
M  V30 11459 H 1145.2 1.40872 1.58962 0
M  V30 11460 H 1147.46 0.580589 0.749414 0
M  V30 11461 H 1147.17 1.65562 3.10294 0
M  V30 11462 H 1147.04 0.0382375 3.77181 0
M  V30 11463 H 1149.43 -0.461006 2.91477 0
M  V30 11464 H 1149.51 1.18381 2.26759 0
M  V30 11465 H 1149.16 2.10406 4.62268 0
M  V30 11466 H 1149.09 0.437297 5.24781 0
M  V30 11467 H 1151.58 0.714208 3.7109 0
M  V30 11468 H 1151.89 2.06977 7.44567 0
M  V30 11469 H 1150.24 1.8547 6.69795 0
M  V30 11470 H 1153.43 0.967272 4.57997 0
M  V30 11471 H 1153.6 1.5852 6.28312 0
M  V30 11472 N 1147.01 -1.56678 0.170181 0
M  V30 11473 C 1147.94 -2.20916 -0.756213 0
M  V30 11474 C 1148.92 -1.16442 -1.23997 0
M  V30 11475 O 1150.1 -1.44867 -1.29333 0
M  V30 11476 C 1147.23 -2.84901 -1.98617 0
M  V30 11477 C 1146.19 -3.95403 -1.63831 0
M  V30 11478 C 1145.51 -4.46432 -2.94282 0
M  V30 11479 C 1146.81 -5.15051 -0.867195 0
M  V30 11480 H 1148.51 -2.98585 -0.220776 0
M  V30 11481 H 1146.05 -1.43619 -0.104748 0
M  V30 11482 H 1148 -3.28514 -2.63926 0
M  V30 11483 H 1146.73 -2.04598 -2.54572 0
M  V30 11484 H 1145.39 -3.52444 -1.00891 0
M  V30 11485 H 1145.04 -3.62923 -3.48276 0
M  V30 11486 H 1144.74 -5.20979 -2.71762 0
M  V30 11487 H 1146.26 -4.92731 -3.60622 0
M  V30 11488 H 1147.67 -5.55363 -1.42285 0
M  V30 11489 H 1146.07 -5.95507 -0.741065 0
M  V30 11490 H 1147.14 -4.84707 0.136693 0
M  V30 11491 N 1148.48 0.103547 -1.57259 0
M  V30 11492 C 1149.71 0.82624 -1.90232 0
M  V30 11493 C 1150.13 1.71902 -0.763641 0
M  V30 11494 O 1149.49 1.79043 0.285181 0
M  V30 11495 C 1149.54 1.62265 -3.22029 0
M  V30 11496 O 1148.64 2.73091 -3.09023 0
M  V30 11497 H 1147.98 0.227528 -0.6238 0
M  V30 11498 H 1150.51 0.081307 -2.04438 0
M  V30 11499 H 1150.52 2.00865 -3.5513 0
M  V30 11500 H 1149.2 0.967383 -4.04493 0
M  V30 11501 H 1147.78 2.3758 -2.8742 0
M  V30 11502 N 1149.96 1.53094 0.37415 0
M  V30 11503 C 1151.21 1.68527 1.11548 0
M  V30 11504 C 1151.53 0.435253 1.9008 0
M  V30 11505 O 1150.8 -0.550594 1.88003 0
M  V30 11506 H 1149.38 0.621255 0.41479 0
M  V30 11507 H 1152.04 1.90258 0.422844 0
M  V30 11508 H 1151.14 2.54248 1.81009 0
M  V30 11509 N 1151.44 -0.633461 1.44309 0
M  V30 11510 C 1152.69 -1.39513 1.47187 0
M  V30 11511 C 1153.02 -1.93926 0.103186 0
M  V30 11512 O 1152.29 -1.73512 -0.878853 0
M  V30 11513 C 1152.58 -2.56213 2.53036 0
M  V30 11514 C 1152.43 -2.07164 3.99253 0
M  V30 11515 C 1153.75 -3.58403 2.55412 0
M  V30 11516 H 1150.87 -0.505936 0.535908 0
M  V30 11517 H 1153.51 -0.716445 1.75975 0
M  V30 11518 H 1151.66 -3.14111 2.28619 0
M  V30 11519 H 1153.33 -1.54115 4.34795 0
M  V30 11520 H 1151.57 -1.38367 4.11141 0
M  V30 11521 H 1152.25 -2.91172 4.6896 0
M  V30 11522 H 1154.72 -3.103 2.77224 0
M  V30 11523 H 1153.6 -4.37581 3.31382 0
M  V30 11524 H 1153.86 -4.12316 1.59523 0
M  V30 11525 N 1152.92 -1.31168 -0.873655 0
M  V30 11526 C 1153.83 -1.20458 -2.01313 0
M  V30 11527 C 1154.84 -0.122074 -1.73571 0
M  V30 11528 O 1156.02 -0.339176 -1.98523 0
M  V30 11529 C 1153.09 -0.90876 -3.34578 0
M  V30 11530 C 1152.15 -2.07779 -3.75668 0
M  V30 11531 C 1151.38 -1.79599 -5.02573 0
M  V30 11532 O 1151.6 -0.729338 -5.65718 0
M  V30 11533 O 1150.54 -2.65169 -5.40341 0
M  V30 11534 H 1154.36 -2.16207 -2.13279 0
M  V30 11535 H 1151.95 -1.10871 -1.00139 0
M  V30 11536 H 1153.83 -0.759469 -4.145 0
M  V30 11537 H 1152.5 0.0187249 -3.23695 0
M  V30 11538 H 1151.41 -2.28247 -2.96402 0
M  V30 11539 H 1152.74 -2.9874 -3.91172 0
M  V30 11540 N 1154.4 1.08748 -1.14068 0
M  V30 11541 C 1155.67 1.7769 -0.81766 0
M  V30 11542 C 1156.05 1.99522 0.689501 0
M  V30 11543 O 1155.4 1.60222 1.62914 0
M  V30 11544 C 1155.61 3.09517 -1.61245 0
M  V30 11545 C 1156.96 3.84108 -1.80958 0
M  V30 11546 O 1157.98 3.19289 -1.57902 0
M  V30 11547 O 1156.84 5.00491 -2.19479 0
M  V30 11548 H 1153.94 0.770953 -0.299265 0
M  V30 11549 H 1156.48 1.15242 -1.24569 0
M  V30 11550 H 1155.25 2.89155 -2.63638 0
M  V30 11551 H 1154.88 3.79692 -1.17982 0
M  V30 11552 N 1155.87 0.935264 1.26849 0
M  V30 11553 C 1156.82 0.411166 2.24262 0
M  V30 11554 C 1157.81 -0.488804 1.53296 0
M  V30 11555 O 1159 -0.325015 1.7399 0
M  V30 11556 C 1156.13 -0.327941 3.4173 0
M  V30 11557 C 1155.22 0.58898 4.1999 0
M  V30 11558 N 1155.61 1.71216 4.7594 0
M  V30 11559 C 1153.9 0.393431 4.44261 0
M  V30 11560 C 1154.61 2.28306 5.35024 0
M  V30 11561 N 1153.58 1.57176 5.20381 0
M  V30 11562 H 1157.38 1.26864 2.65109 0
M  V30 11563 H 1154.9 0.790429 1.41866 0
M  V30 11564 H 1156.89 -0.720404 4.10629 0
M  V30 11565 H 1155.55 -1.18225 3.02412 0
M  V30 11566 H 1156.57 2.09441 4.73661 0
M  V30 11567 H 1153.24 -0.419596 4.15386 0
M  V30 11568 H 1154.63 3.22909 5.89219 0
M  V30 11569 N 1157.35 -1.41121 0.701616 0
M  V30 11570 C 1158.6 -2.01428 0.235495 0
M  V30 11571 C 1158.93 -1.55463 -1.16382 0
M  V30 11572 O 1158.21 -0.768477 -1.78675 0
M  V30 11573 C 1158.49 -3.58849 0.299919 0
M  V30 11574 C 1158.34 -4.14924 1.73661 0
M  V30 11575 C 1159.66 -4.38809 -0.336856 0
M  V30 11576 H 1156.78 -0.731842 0.0870456 0
M  V30 11577 H 1159.42 -1.67787 0.891479 0
M  V30 11578 H 1157.57 -3.87638 -0.258611 0
M  V30 11579 H 1159.24 -3.96987 2.34945 0
M  V30 11580 H 1157.49 -3.69738 2.26884 0
M  V30 11581 H 1158.16 -5.24085 1.73318 0
M  V30 11582 H 1160.63 -4.15868 0.138886 0
M  V30 11583 H 1159.51 -5.48278 -0.261264 0
M  V30 11584 H 1159.77 -4.18728 -1.41843 0
M  V30 11585 N 1158.83 -0.446794 -1.51134 0
M  V30 11586 C 1159.78 0.359865 -2.27977 0
M  V30 11587 C 1160.75 1.0086 -1.31972 0
M  V30 11588 O 1161.93 1.02569 -1.60886 0
M  V30 11589 C 1159.07 1.44978 -3.1317 0
M  V30 11590 C 1158.19 0.818243 -4.2418 0
M  V30 11591 C 1157.32 1.884 -4.96668 0
M  V30 11592 C 1156.36 1.2314 -5.99586 0
M  V30 11593 N 1155.5 2.23894 -6.65444 0
M  V30 11594 H 1160.34 -0.301775 -2.96468 0
M  V30 11595 H 1157.87 -0.160666 -1.4622 0
M  V30 11596 H 1159.83 2.09308 -3.60896 0
M  V30 11597 H 1158.46 2.08092 -2.46775 0
M  V30 11598 H 1157.51 0.0629889 -3.80348 0
M  V30 11599 H 1158.83 0.301885 -4.97886 0
M  V30 11600 H 1157.98 2.6037 -5.4799 0
M  V30 11601 H 1156.72 2.43411 -4.22614 0
M  V30 11602 H 1155.72 0.497215 -5.47547 0
M  V30 11603 H 1156.95 0.688505 -6.75601 0
M  V30 11604 H 1154.89 2.77967 -5.94197 0
M  V30 11605 H 1154.81 1.77176 -7.34945 0
M  V30 11606 H 1156.08 2.95318 -7.21393 0
M  V30 11607 N 1160.31 1.56586 -0.178487 0
M  V30 11608 C 1161.26 2.19631 0.765822 0
M  V30 11609 C 1162.25 1.16247 1.23219 0
M  V30 11610 O 1163.46 1.34431 1.19701 0
M  V30 11611 H 1159.83 0.703661 0.265264 0
M  V30 11612 H 1161.8 2.97659 0.210207 0
M  V30 11613 C 1160.55 2.85686 1.98188 0
M  V30 11614 H 1159.87 3.64971 1.63206 0
M  V30 11615 H 1161.31 3.33259 2.62134 0
M  V30 11616 C 1159.77 1.85837 2.81009 0
M  V30 11617 O 1160.3 1.3483 3.78396 0
M  V30 11618 N 1158.51 1.54435 2.46167 0
M  V30 11619 H 1158.06 1.96107 1.67032 0
M  V30 11620 H 1158.01 0.878808 3.01868 0
M  V30 11621 N 1161.79 -0.095206 1.57312 0
M  V30 11622 C 1163.03 -0.798719 1.86083 0
M  V30 11623 C 1163.36 -1.78739 0.766991 0
M  V30 11624 O 1162.62 -1.9423 -0.239425 0
M  V30 11625 C 1162.92 -1.56244 3.21438 0
M  V30 11626 C 1162.58 -0.715903 4.4518 0
M  V30 11627 C 1161.24 -0.482537 4.78774 0
M  V30 11628 C 1163.6 -0.127404 5.21044 0
M  V30 11629 C 1160.92 0.349193 5.8566 0
M  V30 11630 C 1163.28 0.691649 6.28808 0
M  V30 11631 C 1161.94 0.935107 6.60918 0
M  V30 11632 H 1161.21 -0.292272 0.680924 0
M  V30 11633 H 1163.86 -0.0602105 1.91405 0
M  V30 11634 H 1162.16 -2.37251 3.118 0
M  V30 11635 H 1163.86 -2.11116 3.40927 0
M  V30 11636 H 1160.45 -0.907902 4.18874 0
M  V30 11637 H 1164.63 -0.29486 4.95423 0
M  V30 11638 H 1159.89 0.546797 6.0895 0
M  V30 11639 H 1164.06 1.15452 6.86763 0
M  V30 11640 H 1161.69 1.58139 7.4357 0
M  V30 11641 N 1163.26 -1.53291 -0.366026 0
M  V30 11642 C 1164.68 -1.43053 -0.707669 0
M  V30 11643 C 1164.88 -0.56925 -1.93292 0
M  V30 11644 O 1163.94 -0.0515214 -2.52447 0
M  V30 11645 C 1165.25 -2.86239 -0.921292 0
M  V30 11646 C 1166.8 -2.95868 -1.02133 0
M  V30 11647 C 1167.27 -4.40114 -1.26743 0
M  V30 11648 N 1168.76 -4.43541 -1.33514 0
M  V30 11649 C 1169.5 -5.52259 -1.54264 0
M  V30 11650 N 1168.99 -6.71024 -1.72335 0
M  V30 11651 N 1170.79 -5.39836 -1.5663 0
M  V30 11652 H 1162.94 -2.07795 0.43988 0
M  V30 11653 H 1165.2 -0.938376 0.134736 0
M  V30 11654 H 1164.91 -3.51578 -0.0928042 0
M  V30 11655 H 1164.78 -3.29862 -1.82951 0
M  V30 11656 H 1167.17 -2.30683 -1.84036 0
M  V30 11657 H 1167.25 -2.5564 -0.0905097 0
M  V30 11658 H 1166.89 -5.05872 -0.453409 0
M  V30 11659 H 1166.82 -4.77914 -2.21146 0
M  V30 11660 H 1169.31 -3.57949 -1.21165 0
M  V30 11661 H 1169.63 -7.49649 -1.8774 0
M  V30 11662 H 1167.97 -6.7401 -1.69514 0
M  V30 11663 H 1171.16 -4.46017 -1.4208 0
M  V30 11664 H 1171.34 -6.24629 -1.72461 0
M  V30 11665 N 1164.74 0.6258 -1.44643 0
M  V30 11666 C 1166.15 1.20751 -1.42394 0
M  V30 11667 C 1166.5 1.95685 -0.142047 0
M  V30 11668 O 1165.63 2.02715 0.757332 0
M  V30 11669 C 1166.22 2.1964 -2.57961 0
M  V30 11670 C 1164.78 2.73227 -2.5889 0
M  V30 11671 C 1163.93 1.48315 -2.34303 0
M  V30 11672 H 1166.88 0.416162 -1.53146 0
M  V30 11673 H 1166.9 3.02342 -2.31019 0
M  V30 11674 H 1166.41 1.65073 -3.51244 0
M  V30 11675 H 1164.52 3.31782 -1.69563 0
M  V30 11676 H 1164.63 3.18902 -3.57545 0
M  V30 11677 H 1162.99 1.76634 -1.83501 0
M  V30 11678 H 1163.78 0.956427 -3.29708 0
M  V30 11679 N 1166.22 1.31629 0.866686 0
M  V30 11680 C 1167.15 1.15377 1.98042 0
M  V30 11681 C 1168.17 0.0919633 1.6254 0
M  V30 11682 O 1169.35 0.339775 1.75236 0
M  V30 11683 C 1166.45 0.741295 3.30693 0
M  V30 11684 C 1165.63 1.88882 3.94516 0
M  V30 11685 C 1164.69 1.46186 5.05486 0
M  V30 11686 O 1163.71 2.17202 5.26129 0
M  V30 11687 N 1164.91 0.351096 5.79437 0
M  V30 11688 H 1167.68 2.11309 2.12529 0
M  V30 11689 H 1165.24 1.24007 1.04085 0
M  V30 11690 H 1167.23 0.438313 4.02319 0
M  V30 11691 H 1165.8 -0.12651 3.12344 0
M  V30 11692 H 1165.02 2.35894 3.15828 0
M  V30 11693 H 1166.31 2.65734 4.33892 0
M  V30 11694 H 1165.71 -0.240245 5.6519 0
M  V30 11695 H 1164.27 0.107663 6.51711 0
M  V30 11696 N 1167.7 -1.08142 1.14644 0
M  V30 11697 C 1168.94 -1.82183 0.926747 0
M  V30 11698 C 1169.3 -1.8434 -0.53692 0
M  V30 11699 O 1170.5 -2.54172 -0.874651 0
M  V30 11700 C 1168.78 -3.23726 1.51446 0
M  V30 11701 S 1170.33 -4.14612 1.43673 0
M  V30 11702 H 1167.15 -0.627815 0.333721 0
M  V30 11703 H 1169.75 -1.29968 1.46043 0
M  V30 11704 H 1168.46 -3.19741 2.57282 0
M  V30 11705 H 1167.99 -3.81016 0.979289 0
M  V30 11706 H 1170 -4.94384 0.424105 0
M  V30 11707 N 1169.18 -0.941978 -1.26351 0
M  V30 11708 C 1170.11 -0.469913 -2.28723 0
M  V30 11709 C 1171.09 0.477218 -1.63269 0
M  V30 11710 O 1172.27 0.378902 -1.90468 0
M  V30 11711 C 1169.4 0.264971 -3.46288 0
M  V30 11712 C 1168.36 -0.595682 -4.23834 0
M  V30 11713 C 1167.68 0.269208 -5.34022 0
M  V30 11714 C 1168.98 -1.86743 -4.87775 0
M  V30 11715 H 1170.68 -1.32551 -2.6846 0
M  V30 11716 H 1168.22 -0.638809 -1.29055 0
M  V30 11717 H 1170.18 0.606259 -4.17016 0
M  V30 11718 H 1168.9 1.15471 -3.05506 0
M  V30 11719 H 1167.56 -0.919875 -3.54872 0
M  V30 11720 H 1167.21 1.15832 -4.89481 0
M  V30 11721 H 1166.91 -0.30325 -5.86817 0
M  V30 11722 H 1168.43 0.605748 -6.07588 0
M  V30 11723 H 1169.85 -1.59333 -5.50714 0
M  V30 11724 H 1168.24 -2.38452 -5.50691 0
M  V30 11725 H 1169.31 -2.57831 -4.10671 0
M  V30 11726 N 1170.66 1.40747 -0.709091 0
M  V30 11727 C 1171.9 2.013 -0.246174 0
M  V30 11728 C 1172.23 1.56078 1.15556 0
M  V30 11729 O 1171.51 0.777941 1.78265 0
M  V30 11730 C 1171.79 3.58685 -0.318945 0
M  V30 11731 C 1171.65 4.13997 -1.75859 0
M  V30 11732 C 1172.96 4.38981 0.31358 0
M  V30 11733 H 1170.08 0.73137 -0.0909255 0
M  V30 11734 H 1172.73 1.67312 -0.900365 0
M  V30 11735 H 1170.88 3.8777 0.23805 0
M  V30 11736 H 1172.55 3.95735 -2.37047 0
M  V30 11737 H 1170.79 3.6853 -2.28841 0
M  V30 11738 H 1171.46 5.23158 -1.76095 0
M  V30 11739 H 1173.94 4.15789 -0.160939 0
M  V30 11740 H 1172.81 5.48409 0.232184 0
M  V30 11741 H 1173.07 4.19474 1.39621 0
M  V30 11742 N 1172.13 0.454803 1.50895 0
M  V30 11743 C 1173.07 -0.393395 2.24784 0
M  V30 11744 C 1174.04 -1.01005 1.27424 0
M  V30 11745 O 1175.23 -1.04914 1.56605 0
M  V30 11746 C 1172.36 -1.54978 3.01164 0
M  V30 11747 C 1171.4 -1.0521 4.1332 0
M  V30 11748 S 1172.23 0.0200486 5.35496 0
M  V30 11749 C 1173.39 -1.14059 6.1542 0
M  V30 11750 H 1173.62 0.233864 2.96379 0
M  V30 11751 H 1171.16 0.239498 1.52531 0
M  V30 11752 H 1173.11 -2.21262 3.45765 0
M  V30 11753 H 1171.78 -2.1485 2.29125 0
M  V30 11754 H 1170.97 -1.91734 4.66105 0
M  V30 11755 H 1170.57 -0.467234 3.7107 0
M  V30 11756 H 1172.86 -2.05552 6.45565 0
M  V30 11757 H 1173.81 -0.652339 7.05089 0
M  V30 11758 H 1174.21 -1.38705 5.47194 0
M  V30 11759 N 1173.61 -1.56489 0.186789 0
M  V30 11760 C 1174.84 -2.01722 -0.459993 0
M  V30 11761 C 1175.25 -1.06697 -1.5576 0
M  V30 11762 O 1174.61 -0.0704212 -1.82364 0
M  V30 11763 C 1174.66 -3.46693 -1.02401 0
M  V30 11764 O 1174.38 -4.3809 0.0297916 0
M  V30 11765 C 1175.88 -4.07403 -1.7475 0
M  V30 11766 H 1173.1 -0.660845 -0.116298 0
M  V30 11767 H 1175.65 -2.02389 0.293059 0
M  V30 11768 H 1173.8 -3.46752 -1.72749 0
M  V30 11769 H 1174.22 -5.23057 -0.388821 0
M  V30 11770 H 1175.69 -5.10718 -2.09455 0
M  V30 11771 H 1176.17 -3.50383 -2.64818 0
M  V30 11772 H 1176.77 -4.11093 -1.09007 0
M  V30 11773 N 1175.09 0.086862 -1.5736 0
M  V30 11774 C 1176.34 0.787281 -1.86135 0
M  V30 11775 C 1176.66 1.78866 -0.776667 0
M  V30 11776 O 1175.93 1.94915 0.19625 0
M  V30 11777 H 1174.51 0.293744 -0.686821 0
M  V30 11778 H 1177.17 0.0665326 -1.94786 0
M  V30 11779 H 1176.27 1.3128 -2.83147 0
M  V30 11780 N 1176.57 1.53483 0.357892 0
M  V30 11781 C 1177.53 1.79782 1.42166 0
M  V30 11782 C 1178.53 0.668441 1.46248 0
M  V30 11783 O 1179.72 0.936677 1.46874 0
M  V30 11784 C 1176.85 1.92686 2.8122 0
M  V30 11785 H 1178.05 2.74794 1.20117 0
M  V30 11786 H 1175.6 1.44677 0.591468 0
M  V30 11787 H 1176.33 0.997669 3.08573 0
M  V30 11788 H 1176.12 2.74837 2.79655 0
M  V30 11789 H 1177.61 2.14599 3.58242 0
M  V30 11790 N 1178.05 -0.61812 1.44973 0
M  V30 11791 C 1179.46 -1.19994 1.43033 0
M  V30 11792 C 1179.81 -1.95607 0.152422 0
M  V30 11793 O 1178.93 -2.03114 -0.746571 0
M  V30 11794 C 1179.53 -2.18269 2.59122 0
M  V30 11795 C 1178.09 -2.7185 2.60336 0
M  V30 11796 C 1177.23 -1.4707 2.35086 0
M  V30 11797 H 1180.18 -0.408034 1.53365 0
M  V30 11798 H 1180.21 -3.01113 2.32619 0
M  V30 11799 H 1179.72 -1.63208 3.52115 0
M  V30 11800 H 1177.82 -3.30878 1.7132 0
M  V30 11801 H 1177.93 -3.17001 3.59231 0
M  V30 11802 H 1176.3 -1.75658 1.84435 0
M  V30 11803 H 1177.08 -0.938928 3.30211 0
M  V30 11804 N 1179.52 -1.32087 -0.859693 0
M  V30 11805 C 1180.47 -1.20549 -1.98924 0
M  V30 11806 C 1181.47 -0.111422 -1.69033 0
M  V30 11807 O 1182.67 -0.27401 -1.77902 0
M  V30 11808 H 1179.05 -0.373538 -0.652667 0
M  V30 11809 H 1181.02 -2.16091 -2.05785 0
M  V30 11810 C 1179.77 -0.940226 -3.34746 0
M  V30 11811 H 1179.09 -1.77427 -3.58273 0
M  V30 11812 H 1180.53 -0.899712 -4.14344 0
M  V30 11813 C 1178.99 0.357042 -3.35003 0
M  V30 11814 O 1179.52 1.37054 -3.77596 0
M  V30 11815 N 1177.72 0.37723 -2.88141 0
M  V30 11816 H 1177.27 -0.448051 -2.53674 0
M  V30 11817 H 1177.23 1.24509 -2.88695 0
M  V30 11818 N 1181 1.07532 -1.15215 0
M  V30 11819 C 1182.23 1.84356 -0.950139 0
M  V30 11820 C 1182.65 1.81429 0.496502 0
M  V30 11821 O 1182.01 1.20589 1.35381 0
M  V30 11822 C 1182.06 3.29425 -1.46669 0
M  V30 11823 O 1181.16 4.07008 -0.664674 0
M  V30 11824 H 1180.5 0.570921 -0.339036 0
M  V30 11825 H 1183.03 1.35665 -1.53154 0
M  V30 11826 H 1183.04 3.8026 -1.47873 0
M  V30 11827 H 1181.72 3.3087 -2.51988 0
M  V30 11828 H 1180.29 3.65841 -0.72211 0
M  V30 11829 N 1182.48 0.948665 1.2585 0
M  V30 11830 C 1183.9 0.652147 1.45668 0
M  V30 11831 C 1184.1 -0.792217 1.85273 0
M  V30 11832 O 1183.15 -1.56812 1.97905 0
M  V30 11833 C 1184.47 1.61998 2.53332 0
M  V30 11834 C 1186.01 1.6305 2.67178 0
M  V30 11835 C 1186.49 2.58582 3.78021 0
M  V30 11836 N 1187.98 2.56911 3.85423 0
M  V30 11837 C 1188.71 3.27511 4.70664 0
M  V30 11838 N 1188.21 4.07563 5.60236 0
M  V30 11839 N 1190 3.16427 4.64576 0
M  V30 11840 H 1182.15 1.88215 0.984325 0
M  V30 11841 H 1184.42 0.809251 0.493778 0
M  V30 11842 H 1184.12 2.65137 2.31075 0
M  V30 11843 H 1184 1.37784 3.51134 0
M  V30 11844 H 1186.38 0.606315 2.88804 0
M  V30 11845 H 1186.47 1.9132 1.69795 0
M  V30 11846 H 1186.11 3.61122 3.57146 0
M  V30 11847 H 1186.04 2.27598 4.74875 0
M  V30 11848 H 1188.53 1.9879 3.21389 0
M  V30 11849 H 1188.84 4.58367 6.22189 0
M  V30 11850 H 1187.19 4.11662 5.59964 0
M  V30 11851 H 1190.38 2.53364 3.93604 0
M  V30 11852 H 1190.55 3.71714 5.30785 0
M  V30 11853 N 1183.96 -1.40369 0.716545 0
M  V30 11854 C 1185.37 -1.83783 0.328719 0
M  V30 11855 C 1185.72 -1.5991 -1.13681 0
M  V30 11856 O 1184.85 -1.08048 -1.87496 0
M  V30 11857 C 1185.44 -3.33626 0.589848 0
M  V30 11858 C 1184 -3.7553 0.25572 0
M  V30 11859 C 1183.15 -2.63571 0.861733 0
M  V30 11860 H 1186.1 -1.29623 0.915621 0
M  V30 11861 H 1186.12 -3.80225 -0.14459 0
M  V30 11862 H 1185.63 -3.5097 1.65655 0
M  V30 11863 H 1183.73 -3.63781 -0.805883 0
M  V30 11864 H 1183.84 -4.73577 0.725388 0
M  V30 11865 H 1182.21 -2.53047 0.289706 0
M  V30 11866 H 1182.99 -2.83727 1.93272 0
M  V30 11867 N 1185.44 -0.462799 -1.50652 0
M  V30 11868 C 1186.4 0.324264 -2.26895 0
M  V30 11869 C 1187.4 0.927687 -1.31342 0
M  V30 11870 O 1188.59 0.798159 -1.54839 0
M  V30 11871 C 1185.72 1.46113 -3.08 0
M  V30 11872 H 1186.91 -0.344266 -2.97917 0
M  V30 11873 H 1184.47 -0.216631 -1.54791 0
M  V30 11874 H 1185.2 2.16496 -2.41454 0
M  V30 11875 H 1184.99 1.03433 -3.78212 0
M  V30 11876 H 1186.48 2.01655 -3.65684 0
M  V30 11877 N 1186.91 1.56388 -0.195085 0
M  V30 11878 C 1187.84 2.22091 0.720971 0
M  V30 11879 C 1188.83 1.184 1.22128 0
M  V30 11880 O 1190.01 1.46907 1.27012 0
M  V30 11881 C 1187.14 2.88025 1.94059 0
M  V30 11882 C 1186.09 3.97959 1.5752 0
M  V30 11883 C 1185.42 4.51058 2.87143 0
M  V30 11884 C 1186.72 5.16365 0.785145 0
M  V30 11885 H 1188.41 2.98898 0.173245 0
M  V30 11886 H 1185.96 1.43767 0.0818868 0
M  V30 11887 H 1187.91 3.32671 2.58666 0
M  V30 11888 H 1186.64 2.08623 2.51285 0
M  V30 11889 H 1185.3 3.54004 0.952715 0
M  V30 11890 H 1184.94 3.68418 3.42458 0
M  V30 11891 H 1184.64 5.25237 2.63439 0
M  V30 11892 H 1186.17 4.98406 3.52738 0
M  V30 11893 H 1187.58 5.57556 1.33431 0
M  V30 11894 H 1185.98 5.9661 0.646231 0
M  V30 11895 H 1187.05 4.84428 -0.213789 0
M  V30 11896 N 1188.39 -0.0785156 1.57404 0
M  V30 11897 C 1189.32 -1.09446 2.06262 0
M  V30 11898 C 1190.3 -1.40777 0.954772 0
M  V30 11899 O 1191.49 -1.5052 1.22708 0
M  V30 11900 C 1188.62 -2.40979 2.50093 0
M  V30 11901 C 1187.57 -2.24017 3.64692 0
M  V30 11902 C 1186.9 -3.60873 3.94556 0
M  V30 11903 C 1188.2 -1.66696 4.94985 0
M  V30 11904 H 1189.89 -0.687928 2.9139 0
M  V30 11905 H 1187.44 -0.329466 1.4018 0
M  V30 11906 H 1189.39 -3.12337 2.82884 0
M  V30 11907 H 1188.12 -2.83599 1.61985 0
M  V30 11908 H 1186.77 -1.55101 3.32174 0
M  V30 11909 H 1186.42 -4.01051 3.0359 0
M  V30 11910 H 1186.12 -3.50365 4.71718 0
M  V30 11911 H 1187.65 -4.33673 4.29837 0
M  V30 11912 H 1189.06 -2.27913 5.2605 0
M  V30 11913 H 1187.46 -1.66902 5.76423 0
M  V30 11914 H 1188.53 -0.627827 4.80818 0
M  V30 11915 N 1189.87 -1.5367 -0.349747 0
M  V30 11916 C 1190.82 -1.77604 -1.42972 0
M  V30 11917 C 1191.8 -0.631036 -1.48009 0
M  V30 11918 O 1193 -0.890228 -1.52983 0
M  V30 11919 C 1190.13 -1.98354 -2.80198 0
M  V30 11920 C 1189.21 -3.18901 -2.79576 0
M  V30 11921 N 1189.6 -4.40497 -2.48589 0
M  V30 11922 C 1187.9 -3.19945 -3.10727 0
M  V30 11923 C 1188.6 -5.22318 -2.56045 0
M  V30 11924 N 1187.58 -4.5889 -2.91412 0
M  V30 11925 H 1191.38 -2.69215 -1.17901 0
M  V30 11926 H 1188.89 -1.5251 -0.558062 0
M  V30 11927 H 1190.89 -2.13632 -3.58004 0
M  V30 11928 H 1189.55 -1.07981 -3.06219 0
M  V30 11929 H 1190.56 -4.67955 -2.21898 0
M  V30 11930 H 1187.24 -2.39519 -3.41961 0
M  V30 11931 H 1188.63 -6.29352 -2.35299 0
M  V30 11932 N 1191.35 0.610423 -1.45298 0
M  V30 11933 C 1192.28 1.73207 -1.56594 0
M  V30 11934 C 1193.26 1.64893 -0.417651 0
M  V30 11935 O 1194.44 1.83336 -0.64043 0
M  V30 11936 C 1191.57 3.11803 -1.52959 0
M  V30 11937 C 1190.53 3.34925 -2.66475 0
M  V30 11938 C 1189.85 4.73764 -2.47894 0
M  V30 11939 C 1191.15 3.25456 -4.08504 0
M  V30 11940 H 1192.85 1.6401 -2.50482 0
M  V30 11941 H 1190.39 0.787621 -1.20551 0
M  V30 11942 H 1192.35 3.90065 -1.59458 0
M  V30 11943 H 1191.07 3.21833 -0.55599 0
M  V30 11944 H 1189.73 2.59051 -2.59399 0
M  V30 11945 H 1189.38 4.80524 -1.4868 0
M  V30 11946 H 1189.08 4.90191 -3.24016 0
M  V30 11947 H 1190.6 5.54231 -2.56243 0
M  V30 11948 H 1192.02 3.93597 -4.16839 0
M  V30 11949 H 1190.41 3.53414 -4.84994 0
M  V30 11950 H 1191.48 2.22939 -4.30612 0
M  V30 11951 N 1192.83 1.32541 0.852676 0
M  V30 11952 C 1194.07 1.23397 1.60938 0
M  V30 11953 C 1194.41 -0.203294 1.93133 0
M  V30 11954 O 1193.68 -1.14097 1.57519 0
M  V30 11955 C 1193.96 2.0956 2.92842 0
M  V30 11956 C 1193.82 3.61675 2.67416 0
M  V30 11957 C 1195.14 1.95825 3.94133 0
M  V30 11958 H 1192.25 0.449608 0.583971 0
M  V30 11959 H 1194.9 1.62507 0.98446 0
M  V30 11960 H 1193.05 1.76336 3.46176 0
M  V30 11961 H 1194.72 4.05122 2.20621 0
M  V30 11962 H 1192.96 3.84242 2.01347 0
M  V30 11963 H 1193.63 4.17292 3.61347 0
M  V30 11964 H 1196.11 2.24935 3.50062 0
M  V30 11965 H 1194.98 2.58387 4.8428 0
M  V30 11966 H 1195.25 0.926466 4.32284 0
M  V30 11967 N 1194.3 -1.0692 1.15784 0
M  V30 11968 C 1195.25 -2.12473 0.826994 0
M  V30 11969 C 1196.24 -1.59766 -0.19073 0
M  V30 11970 O 1197.43 -1.76998 0.00917115 0
M  V30 11971 C 1194.56 -3.41779 0.322847 0
M  V30 11972 C 1193.65 -4.01329 1.37098 0
M  V30 11973 N 1194.04 -4.35077 2.57957 0
M  V30 11974 C 1192.33 -4.28854 1.22475 0
M  V30 11975 C 1193.04 -4.82326 3.25171 0
M  V30 11976 N 1192.01 -4.81369 2.52556 0
M  V30 11977 H 1195.81 -2.36404 1.74614 0
M  V30 11978 H 1193.33 -1.244 1.04395 0
M  V30 11979 H 1195.32 -4.16845 0.0674576 0
M  V30 11980 H 1193.98 -3.19289 -0.590311 0
M  V30 11981 H 1195 -4.25626 2.95065 0
M  V30 11982 H 1191.67 -4.15841 0.371839 0
M  V30 11983 H 1193.06 -5.17695 4.28301 0
M  V30 11984 N 1195.78 -0.955326 -1.25345 0
M  V30 11985 C 1197.06 -0.527828 -1.88344 0
M  V30 11986 C 1197.44 0.994911 -1.86185 0
M  V30 11987 O 1196.79 1.86099 -1.32587 0
M  V30 11988 C 1197 -1.10525 -3.31037 0
M  V30 11989 C 1198.35 -1.18253 -4.07801 0
M  V30 11990 O 1199.37 -1.05685 -3.4016 0
M  V30 11991 O 1198.23 -1.37978 -5.28795 0
M  V30 11992 H 1195.32 -0.174206 -0.808444 0
M  V30 11993 H 1197.87 -1.0488 -1.3341 0
M  V30 11994 H 1196.64 -2.14847 -3.27042 0
M  V30 11995 H 1196.26 -0.567568 -3.93528 0
M  V30 11996 N 1197.26 1.39987 -0.723979 0
M  V30 11997 C 1198.51 2.00731 -0.267115 0
M  V30 11998 C 1198.84 1.57424 1.14228 0
M  V30 11999 O 1198.09 0.789205 1.79081 0
M  V30 12000 C 1198.39 3.56101 -0.304472 0
M  V30 12001 C 1198.06 4.1902 -1.66533 0
M  V30 12002 C 1196.72 4.3592 -2.03783 0
M  V30 12003 C 1199.07 4.54034 -2.55935 0
M  V30 12004 C 1196.4 4.85119 -3.29964 0
M  V30 12005 C 1198.75 5.04637 -3.81477 0
M  V30 12006 C 1197.41 5.19745 -4.18833 0
M  V30 12007 H 1196.68 0.734525 -0.0977442 0
M  V30 12008 H 1199.33 1.67476 -0.928659 0
M  V30 12009 H 1197.64 3.89314 0.440647 0
M  V30 12010 H 1199.33 4.00944 0.0669875 0
M  V30 12011 H 1195.92 4.0626 -1.36569 0
M  V30 12012 H 1200.11 4.40606 -2.2843 0
M  V30 12013 H 1195.36 4.95001 -3.58865 0
M  V30 12014 H 1199.54 5.30705 -4.50916 0
M  V30 12015 H 1197.16 5.5763 -5.16675 0
M  V30 12016 N 1198.74 0.470782 1.50404 0
M  V30 12017 C 1199.97 -0.0820134 2.06737 0
M  V30 12018 C 1200.38 -1.33535 1.33468 0
M  V30 12019 O 1199.74 -1.77975 0.403872 0
M  V30 12020 C 1199.79 -0.370427 3.59597 0
M  V30 12021 O 1199.51 0.8332 4.30104 0
M  V30 12022 C 1201.01 -0.970222 4.32552 0
M  V30 12023 H 1198.23 0.00694502 0.670964 0
M  V30 12024 H 1200.78 0.659476 1.93575 0
M  V30 12025 H 1198.93 -1.06185 3.72563 0
M  V30 12026 H 1199.35 0.577614 5.2131 0
M  V30 12027 H 1200.82 -1.1218 5.40481 0
M  V30 12028 H 1201.3 -1.96024 3.93028 0
M  V30 12029 H 1201.9 -0.31719 4.24116 0
M  V30 12030 N 1200.22 -1.56282 0.203376 0
M  V30 12031 C 1201.16 -2.19473 -0.714164 0
M  V30 12032 C 1202.13 -1.14454 -1.20372 0
M  V30 12033 O 1203.32 -1.42739 -1.26611 0
M  V30 12034 C 1200.46 -2.86451 -1.92457 0
M  V30 12035 C 1199.57 -4.06017 -1.47561 0
M  V30 12036 C 1198.71 -4.60829 -2.64216 0
M  V30 12037 C 1197.75 -5.72734 -2.15967 0
M  V30 12038 N 1196.88 -6.21916 -3.25829 0
M  V30 12039 H 1201.72 -2.97523 -0.168558 0
M  V30 12040 H 1199.26 -1.46926 -0.0714525 0
M  V30 12041 H 1201.22 -3.23459 -2.63496 0
M  V30 12042 H 1199.85 -2.10951 -2.44335 0
M  V30 12043 H 1198.9 -3.74617 -0.660784 0
M  V30 12044 H 1200.21 -4.8693 -1.08168 0
M  V30 12045 H 1199.37 -5.00185 -3.43366 0
M  V30 12046 H 1198.11 -3.7904 -3.06887 0
M  V30 12047 H 1197.11 -5.32899 -1.35273 0
M  V30 12048 H 1198.34 -6.56346 -1.74316 0
M  V30 12049 H 1196.28 -5.43047 -3.68016 0
M  V30 12050 H 1196.2 -6.97904 -2.90631 0
M  V30 12051 H 1197.47 -6.65927 -4.05168 0
M  V30 12052 N 1201.7 0.070167 -1.57444 0
M  V30 12053 C 1202.64 1.10193 -2.04842 0
M  V30 12054 C 1203.64 1.39978 -0.954069 0
M  V30 12055 O 1204.84 1.39366 -1.13917 0
M  V30 12056 H 1201.22 0.372699 -0.653146 0
M  V30 12057 H 1203.19 0.676033 -2.90641 0
M  V30 12058 C 1201.94 2.40679 -2.50936 0
M  V30 12059 H 1201.26 2.1861 -3.34738 0
M  V30 12060 H 1202.7 3.11315 -2.87852 0
M  V30 12061 C 1201.16 3.06754 -1.39297 0
M  V30 12062 O 1201.69 3.949 -0.735989 0
M  V30 12063 N 1199.9 2.67404 -1.13769 0
M  V30 12064 H 1199.44 1.95813 -1.67376 0
M  V30 12065 H 1199.4 3.11937 -0.392787 0
M  V30 12066 N 1203.17 1.53854 0.341593 0
M  V30 12067 C 1204.42 1.71447 1.08322 0
M  V30 12068 C 1204.75 0.477289 1.88243 0
M  V30 12069 O 1204.03 -0.525695 1.87261 0
M  V30 12070 C 1204.31 2.97917 2.02281 0
M  V30 12071 C 1204.16 4.31847 1.25809 0
M  V30 12072 C 1205.48 3.20065 3.0207 0
M  V30 12073 H 1202.6 0.623847 0.392408 0
M  V30 12074 H 1205.24 1.86527 0.361594 0
M  V30 12075 H 1203.39 2.85191 2.63815 0
M  V30 12076 H 1205.07 4.56427 0.668737 0
M  V30 12077 H 1203.31 4.30169 0.560119 0
M  V30 12078 H 1203.98 5.16522 1.94704 0
M  V30 12079 H 1206.46 3.32135 2.50651 0
M  V30 12080 H 1205.33 4.09947 3.65013 0
M  V30 12081 H 1205.59 2.36452 3.73554 0
M  V30 12082 N 1204.65 -0.602709 1.4562 0
M  V30 12083 C 1205.9 -1.35889 1.49595 0
M  V30 12084 C 1206.22 -1.9449 0.141002 0
M  V30 12085 O 1205.49 -1.77438 -0.830209 0
M  V30 12086 H 1204.07 -0.504478 0.550918 0
M  V30 12087 H 1206.73 -0.707376 1.8161 0
M  V30 12088 H 1205.83 -2.17583 2.2375 0
M  V30 12089 N 1206.13 -1.32992 -0.845635 0
M  V30 12090 C 1207.06 -1.25301 -1.97033 0
M  V30 12091 C 1208.04 -0.134966 -1.69564 0
M  V30 12092 O 1209.23 -0.323629 -1.91484 0
M  V30 12093 C 1206.36 -0.984551 -3.33052 0
M  V30 12094 C 1205.31 -2.06481 -3.749 0
M  V30 12095 C 1204.64 -1.6486 -5.08651 0
M  V30 12096 C 1205.94 -3.48083 -3.89404 0
M  V30 12097 H 1207.63 -2.194 -2.03725 0
M  V30 12098 H 1205.18 -1.05621 -0.978783 0
M  V30 12099 H 1207.13 -0.917269 -4.11296 0
M  V30 12100 H 1205.85 -0.00793116 -3.26599 0
M  V30 12101 H 1204.51 -2.1224 -2.98915 0
M  V30 12102 H 1204.16 -0.659183 -4.98662 0
M  V30 12103 H 1203.86 -2.37145 -5.37621 0
M  V30 12104 H 1205.38 -1.59585 -5.89377 0
M  V30 12105 H 1206.8 -3.44863 -4.57976 0
M  V30 12106 H 1205.19 -4.18796 -4.29802 0
M  V30 12107 H 1206.26 -3.87084 -2.92051 0
M  V30 12108 N 1207.61 1.06304 -1.1635 0
M  V30 12109 C 1208.54 2.13209 -0.81346 0
M  V30 12110 C 1209.52 1.61174 0.21484 0
M  V30 12111 O 1210.7 1.8824 0.0989458 0
M  V30 12112 C 1207.83 3.38039 -0.211498 0
M  V30 12113 C 1206.88 4.08875 -1.21339 0
M  V30 12114 S 1207.71 4.58894 -2.76001 0
M  V30 12115 C 1208.86 5.86985 -2.17254 0
M  V30 12116 H 1209.1 2.42572 -1.7189 0
M  V30 12117 H 1206.63 1.18737 -0.986957 0
M  V30 12118 H 1208.59 4.10296 0.129349 0
M  V30 12119 H 1207.25 3.06834 0.671705 0
M  V30 12120 H 1206.44 4.98528 -0.740631 0
M  V30 12121 H 1206.04 3.42632 -1.49932 0
M  V30 12122 H 1208.34 6.59738 -1.54115 0
M  V30 12123 H 1209.28 6.38991 -3.05117 0
M  V30 12124 H 1209.69 5.41012 -1.61141 0
M  V30 12125 N 1209.09 0.96196 1.24836 0
M  V30 12126 C 1210.33 0.616342 1.92052 0
M  V30 12127 C 1210.65 -0.851601 1.76088 0
M  V30 12128 O 1211.85 -1.3075 2.37943 0
M  V30 12129 C 1210.31 1.05168 3.44191 0
M  V30 12130 C 1209.92 2.54268 3.68852 0
M  V30 12131 C 1211.66 0.778938 4.17292 0
M  V30 12132 C 1209.57 2.91564 5.14533 0
M  V30 12133 H 1208.5 0.22681 0.719078 0
M  V30 12134 H 1211.15 1.1674 1.41577 0
M  V30 12135 H 1209.53 0.428979 3.9367 0
M  V30 12136 H 1210.71 3.21619 3.29997 0
M  V30 12137 H 1209.02 2.79091 3.09026 0
M  V30 12138 H 1211.62 1.03366 5.24614 0
M  V30 12139 H 1211.96 -0.284772 4.15325 0
M  V30 12140 H 1212.49 1.36233 3.73745 0
M  V30 12141 H 1209.23 3.96982 5.21618 0
M  V30 12142 H 1208.75 2.28892 5.54408 0
M  V30 12143 H 1210.43 2.81155 5.82718 0
M  V30 12144 N 1210.56 -1.39601 0.731392 0
M  V30 12145 C 1211.8 -2.0244 0.282387 0
M  V30 12146 C 1212.17 -1.56776 -1.10839 0
M  V30 12147 O 1213.37 -2.11788 -1.65527 0
M  V30 12148 C 1211.64 -3.55409 0.376704 0
M  V30 12149 S 1213.2 -4.38799 0.00700932 0
M  V30 12150 H 1210.02 -0.7023 0.110886 0
M  V30 12151 H 1212.62 -1.70469 0.957111 0
M  V30 12152 H 1211.32 -3.86134 1.39027 0
M  V30 12153 H 1210.85 -3.92129 -0.315963 0
M  V30 12154 H 1212.87 -4.81213 -1.21032 0
M  V30 12155 N 1212.04 -0.478751 -1.50152 0
M  V30 12156 C 1213.29 0.0734397 -2.01967 0
M  V30 12157 C 1213.61 1.39523 -1.36229 0
M  V30 12158 O 1212.88 1.89141 -0.510149 0
M  V30 12159 H 1211.46 0.0301305 -0.746392 0
M  V30 12160 H 1214.12 -0.630921 -1.84406 0
M  V30 12161 H 1213.22 0.21937 -3.11328 0
M  V30 12162 N 1213.52 1.56172 -0.211661 0
M  V30 12163 C 1214.47 2.16477 0.715675 0
M  V30 12164 C 1215.45 1.11023 1.16459 0
M  V30 12165 O 1216.65 1.3704 1.12023 0
M  V30 12166 C 1213.78 2.84055 1.92789 0
M  V30 12167 C 1212.86 3.96721 1.49911 0
M  V30 12168 N 1213.25 4.99714 0.782304 0
M  V30 12169 C 1211.55 4.08628 1.78716 0
M  V30 12170 C 1212.25 5.78949 0.565043 0
M  V30 12171 N 1211.23 5.31963 1.11878 0
M  V30 12172 H 1215.03 2.93467 0.15948 0
M  V30 12173 H 1212.54 1.62395 -0.012521 0
M  V30 12174 H 1214.54 3.25662 2.60289 0
M  V30 12175 H 1213.2 2.08558 2.48865 0
M  V30 12176 H 1214.21 5.16061 0.436021 0
M  V30 12177 H 1210.89 3.44273 2.36183 0
M  V30 12178 H 1212.28 6.719 -0.00477074 0
M  V30 12179 N 1215 -0.0618163 1.57479 0
M  V30 12180 C 1216.24 -0.760193 1.88013 0
M  V30 12181 C 1216.58 -1.76718 0.805258 0
M  V30 12182 O 1215.85 -1.93633 -0.183408 0
M  V30 12183 C 1216.14 -1.45924 3.29208 0
M  V30 12184 C 1215.99 -0.467994 4.47359 0
M  V30 12185 C 1217.31 -2.40166 3.68793 0
M  V30 12186 H 1214.43 -0.274896 0.683814 0
M  V30 12187 H 1217.07 -0.0232433 1.89986 0
M  V30 12188 H 1215.22 -2.08741 3.27657 0
M  V30 12189 H 1216.89 0.155735 4.61037 0
M  V30 12190 H 1215.13 0.215797 4.33263 0
M  V30 12191 H 1215.8 -0.994942 5.42959 0
M  V30 12192 H 1218.28 -1.87419 3.71501 0
M  V30 12193 H 1217.16 -2.86076 4.68457 0
M  V30 12194 H 1217.42 -3.25413 2.99264 0
M  V30 12195 N 1216.48 -1.54033 -0.333429 0
M  V30 12196 C 1217.43 -1.7911 -1.4108 0
M  V30 12197 C 1218.41 -0.646699 -1.47332 0
M  V30 12198 O 1219.6 -0.906403 -1.52031 0
M  V30 12199 C 1216.73 -2.01314 -2.78078 0
M  V30 12200 C 1215.82 -3.21849 -2.76178 0
M  V30 12201 N 1216.21 -4.43109 -2.43903 0
M  V30 12202 C 1214.51 -3.23222 -3.07316 0
M  V30 12203 C 1215.21 -5.25004 -2.5049 0
M  V30 12204 N 1214.18 -4.61955 -2.86528 0
M  V30 12205 H 1217.99 -2.7045 -1.15039 0
M  V30 12206 H 1215.5 -1.53094 -0.541854 0
M  V30 12207 H 1217.5 -2.17417 -3.55718 0
M  V30 12208 H 1216.16 -1.11223 -3.05057 0
M  V30 12209 H 1217.17 -4.70282 -2.16922 0
M  V30 12210 H 1213.84 -2.43132 -3.39401 0
M  V30 12211 H 1215.23 -6.31812 -2.28611 0
M  V30 12212 N 1217.95 0.594978 -1.45938 0
M  V30 12213 C 1218.89 1.71911 -1.50072 0
M  V30 12214 C 1219.87 1.58657 -0.355913 0
M  V30 12215 O 1221.05 1.80043 -0.558272 0
M  V30 12216 C 1218.18 3.09858 -1.3677 0
M  V30 12217 C 1217.22 3.41667 -2.55277 0
M  V30 12218 S 1218.06 3.35101 -4.17693 0
M  V30 12219 C 1219.21 4.75606 -4.06878 0
M  V30 12220 H 1219.44 1.68143 -2.45184 0
M  V30 12221 H 1216.98 0.772698 -1.33674 0
M  V30 12222 H 1218.94 3.89444 -1.29782 0
M  V30 12223 H 1217.6 3.11128 -0.431073 0
M  V30 12224 H 1216.79 4.42138 -2.41929 0
M  V30 12225 H 1216.39 2.69622 -2.59191 0
M  V30 12226 H 1218.68 5.65708 -3.72801 0
M  V30 12227 H 1219.63 4.9401 -5.07306 0
M  V30 12228 H 1220.03 4.5188 -3.38327 0
M  V30 12229 N 1219.43 1.33438 0.838571 0
M  V30 12230 C 1220.68 1.24665 1.59069 0
M  V30 12231 C 1221 -0.187433 1.94097 0
M  V30 12232 O 1220.27 -1.11625 1.60987 0
M  V30 12233 H 1218.85 0.45843 0.589789 0
M  V30 12234 H 1221.51 1.67161 1.00216 0
M  V30 12235 H 1220.61 1.84057 2.52051 0
M  V30 12236 N 1220.91 -1.05686 1.16912 0
M  V30 12237 C 1222.32 -1.60059 0.961153 0
M  V30 12238 C 1222.67 -1.89894 -0.493409 0
M  V30 12239 O 1221.8 -1.67692 -1.36778 0
M  V30 12240 C 1222.39 -2.90803 1.73837 0
M  V30 12241 C 1220.95 -3.41854 1.57522 0
M  V30 12242 C 1220.1 -2.15658 1.74319 0
M  V30 12243 H 1223.05 -0.885592 1.31693 0
M  V30 12244 H 1223.07 -3.60485 1.21781 0
M  V30 12245 H 1222.58 -2.69056 2.79697 0
M  V30 12246 H 1220.68 -3.68647 0.541284 0
M  V30 12247 H 1220.8 -4.16771 2.36302 0
M  V30 12248 H 1219.16 -2.26177 1.17115 0
M  V30 12249 H 1219.94 -1.96386 2.8158 0
M  V30 12250 N 1222.39 -0.968567 -1.24324 0
M  V30 12251 C 1223.8 -0.675239 -1.44612 0
M  V30 12252 C 1224 0.762641 -1.8651 0
M  V30 12253 O 1223.06 1.53644 -2.00374 0
M  V30 12254 C 1224.37 -1.66007 -2.50723 0
M  V30 12255 C 1225.92 -1.6728 -2.6455 0
M  V30 12256 C 1226.4 -2.64563 -3.73859 0
M  V30 12257 N 1227.89 -2.6301 -3.81287 0
M  V30 12258 C 1228.62 -3.34957 -4.65394 0
M  V30 12259 N 1228.12 -4.16424 -5.53681 0
M  V30 12260 N 1229.91 -3.23778 -4.59483 0
M  V30 12261 H 1222.06 -1.89757 -0.954257 0
M  V30 12262 H 1224.33 -0.817004 -0.480841 0
M  V30 12263 H 1224.03 -2.68779 -2.26827 0
M  V30 12264 H 1223.91 -1.43353 -3.48898 0
M  V30 12265 H 1226.29 -0.652184 -2.87803 0
M  V30 12266 H 1226.37 -1.93997 -1.6673 0
M  V30 12267 H 1226.02 -3.66759 -3.51355 0
M  V30 12268 H 1225.95 -2.35124 -4.71194 0
M  V30 12269 H 1228.44 -2.03877 -3.18186 0
M  V30 12270 H 1228.75 -4.68207 -6.14818 0
M  V30 12271 H 1227.1 -4.20518 -5.53344 0
M  V30 12272 H 1230.29 -2.59594 -3.89524 0
M  V30 12273 H 1230.46 -3.80112 -5.24804 0
M  V30 12274 N 1223.87 1.39211 -0.738786 0
M  V30 12275 C 1225.28 1.54116 -0.414773 0
M  V30 12276 C 1225.48 1.70497 1.07392 0
M  V30 12277 O 1224.54 1.7076 1.86003 0
M  V30 12278 C 1225.85 2.7567 -1.2011 0
M  V30 12279 C 1227.4 2.89508 -1.1897 0
M  V30 12280 C 1227.87 4.14005 -1.95868 0
M  V30 12281 N 1229.37 4.21052 -1.93053 0
M  V30 12282 C 1230.1 5.16341 -2.49358 0
M  V30 12283 N 1229.6 6.17396 -3.14316 0
M  V30 12284 N 1231.39 5.08585 -2.3937 0
M  V30 12285 H 1223.54 1.26827 -1.70378 0
M  V30 12286 H 1225.8 0.614983 -0.721457 0
M  V30 12287 H 1225.51 2.69922 -2.25467 0
M  V30 12288 H 1225.38 3.68443 -0.808065 0
M  V30 12289 H 1227.77 2.94747 -0.144248 0
M  V30 12290 H 1227.85 1.97788 -1.62214 0
M  V30 12291 H 1227.5 4.09527 -3.00416 0
M  V30 12292 H 1227.43 5.04776 -1.50028 0
M  V30 12293 H 1229.92 3.48669 -1.45733 0
M  V30 12294 H 1230.23 6.86572 -3.54737 0
M  V30 12295 H 1228.57 6.17772 -3.18407 0
M  V30 12296 H 1231.77 4.28573 -1.88262 0
M  V30 12297 H 1231.94 5.8267 -2.83549 0
M  V30 12298 N 1225.34 0.486708 1.49896 0
M  V30 12299 C 1226.28 -0.335809 2.26727 0
M  V30 12300 C 1227.29 -0.94333 1.32684 0
M  V30 12301 O 1228.48 -0.82909 1.58077 0
M  V30 12302 C 1225.58 -1.48642 3.04563 0
M  V30 12303 C 1224.75 -0.988837 4.26076 0
M  V30 12304 C 1223.81 -2.01535 4.86076 0
M  V30 12305 O 1222.84 -1.58966 5.46552 0
M  V30 12306 N 1224.04 -3.34471 4.74457 0
M  V30 12307 H 1226.8 0.322919 2.97955 0
M  V30 12308 H 1224.36 0.318403 1.58738 0
M  V30 12309 H 1226.36 -2.17039 3.41579 0
M  V30 12310 H 1224.93 -2.04956 2.36033 0
M  V30 12311 H 1224.15 -0.130232 3.93985 0
M  V30 12312 H 1225.43 -0.634562 5.04827 0
M  V30 12313 H 1224.83 -3.71755 4.26398 0
M  V30 12314 H 1223.39 -3.98621 5.15698 0
M  V30 12315 N 1226.82 -1.56058 0.219941 0
M  V30 12316 C 1227.79 -2.18964 -0.677303 0
M  V30 12317 C 1228.79 -1.15105 -1.12283 0
M  V30 12318 O 1229.98 -1.40348 -1.03189 0
M  V30 12319 C 1227.11 -2.81167 -1.92764 0
M  V30 12320 H 1228.3 -2.99623 -0.128877 0
M  V30 12321 H 1225.85 -1.56272 -0.0296744 0
M  V30 12322 H 1226.59 -2.04374 -2.51797 0
M  V30 12323 H 1226.37 -3.5722 -1.61666 0
M  V30 12324 H 1227.86 -3.29391 -2.56693 0
M  V30 12325 N 1228.3 0.053464 -1.57509 0
M  V30 12326 C 1229.23 1.09391 -2.00272 0
M  V30 12327 C 1230.21 1.36553 -0.882727 0
M  V30 12328 O 1231.4 1.4962 -1.14657 0
M  V30 12329 C 1228.52 2.43424 -2.35505 0
M  V30 12330 C 1227.57 2.32278 -3.577 0
M  V30 12331 S 1228.4 1.69939 -5.0782 0
M  V30 12332 C 1229.56 3.05512 -5.46272 0
M  V30 12333 H 1229.79 0.729569 -2.88209 0
M  V30 12334 H 1227.32 0.262633 -1.5215 0
M  V30 12335 H 1229.28 3.20515 -2.56477 0
M  V30 12336 H 1227.94 2.77013 -1.48064 0
M  V30 12337 H 1227.14 3.31165 -3.79928 0
M  V30 12338 H 1226.74 1.63327 -3.36453 0
M  V30 12339 H 1229.03 4.0184 -5.45464 0
M  V30 12340 H 1229.97 2.88043 -6.46867 0
M  V30 12341 H 1230.38 3.06962 -4.73745 0
M  V30 12342 N 1229.78 1.54207 0.325255 0
M  V30 12343 C 1230.73 1.83474 1.40021 0
M  V30 12344 C 1231.7 0.681719 1.51466 0
M  V30 12345 O 1232.88 0.92798 1.66713 0
M  V30 12346 C 1230.02 2.06624 2.76407 0
M  V30 12347 C 1229.13 3.3431 2.73607 0
M  V30 12348 C 1228.27 3.4743 4.01828 0
M  V30 12349 C 1227.31 4.68997 3.93329 0
M  V30 12350 N 1226.45 4.79052 5.13277 0
M  V30 12351 H 1231.29 2.75182 1.14363 0
M  V30 12352 H 1228.82 1.36284 0.553639 0
M  V30 12353 H 1230.78 2.18037 3.5569 0
M  V30 12354 H 1229.41 1.18209 3.00377 0
M  V30 12355 H 1228.46 3.31643 1.86324 0
M  V30 12356 H 1229.77 4.237 2.6321 0
M  V30 12357 H 1228.93 3.58376 4.89542 0
M  V30 12358 H 1227.67 2.56128 4.1503 0
M  V30 12359 H 1226.67 4.58109 3.04 0
M  V30 12360 H 1227.9 5.61681 3.81695 0
M  V30 12361 H 1225.84 3.90666 5.26988 0
M  V30 12362 H 1225.76 5.62406 5.05208 0
M  V30 12363 H 1227.03 4.94328 6.02711 0
M  V30 12364 N 1231.26 -0.58723 1.46251 0
M  V30 12365 C 1232.17 -1.72455 1.59048 0
M  V30 12366 C 1233.18 -1.67416 0.47413 0
M  V30 12367 O 1234.36 -1.87406 0.737633 0
M  V30 12368 C 1231.42 -3.08953 1.57318 0
M  V30 12369 C 1230.49 -3.25291 2.80151 0
M  V30 12370 C 1229.72 -4.55277 2.78493 0
M  V30 12371 O 1229.94 -5.38883 1.8698 0
M  V30 12372 O 1228.88 -4.74765 3.69975 0
M  V30 12373 H 1232.7 -1.64606 2.55223 0
M  V30 12374 H 1230.29 -0.753742 1.28993 0
M  V30 12375 H 1232.17 -3.90239 1.59033 0
M  V30 12376 H 1230.84 -3.17249 0.643025 0
M  V30 12377 H 1229.75 -2.43515 2.83991 0
M  V30 12378 H 1231.08 -3.21883 3.7236 0
M  V30 12379 N 1232.74 -1.33881 -0.831482 0
M  V30 12380 C 1233.67 -1.19089 -1.94661 0
M  V30 12381 C 1234.65 -0.0845706 -1.6238 0
M  V30 12382 O 1235.83 -0.248163 -1.86859 0
M  V30 12383 C 1232.96 -0.828223 -3.28418 0
M  V30 12384 C 1232 -1.94309 -3.79666 0
M  V30 12385 S 1232.84 -3.55524 -4.00454 0
M  V30 12386 C 1233.99 -3.21279 -5.3715 0
M  V30 12387 H 1234.23 -2.13484 -2.0691 0
M  V30 12388 H 1231.76 -1.18809 -0.986098 0
M  V30 12389 H 1233.72 -0.625759 -4.05702 0
M  V30 12390 H 1232.38 0.0972457 -3.13949 0
M  V30 12391 H 1231.57 -1.64288 -4.76472 0
M  V30 12392 H 1231.17 -2.1026 -3.093 0
M  V30 12393 H 1233.46 -2.72563 -6.20255 0
M  V30 12394 H 1234.41 -4.17193 -5.7215 0
M  V30 12395 H 1234.82 -2.57683 -5.02255 0
M  V30 12396 N 1234.21 1.05064 -1.1747 0
M  V30 12397 C 1235.44 1.82299 -0.98903 0
M  V30 12398 C 1235.86 1.82441 0.457907 0
M  V30 12399 O 1235.22 1.23433 1.32793 0
M  V30 12400 C 1235.27 3.26239 -1.53624 0
M  V30 12401 O 1234.37 4.05507 -0.750857 0
M  V30 12402 H 1233.71 0.563601 -0.35107 0
M  V30 12403 H 1236.24 1.32386 -1.55997 0
M  V30 12404 H 1236.25 3.77038 -1.55906 0
M  V30 12405 H 1234.93 3.25451 -2.58949 0
M  V30 12406 H 1233.51 3.64227 -0.799548 0
M  V30 12407 N 1235.69 0.975146 1.23809 0
M  V30 12408 C 1236.94 0.636678 1.91388 0
M  V30 12409 C 1237.25 -0.832876 1.76982 0
M  V30 12410 O 1238.46 -1.28218 2.39316 0
M  V30 12411 C 1236.92 1.08813 3.43057 0
M  V30 12412 C 1236.52 2.58165 3.66135 0
M  V30 12413 C 1238.27 0.823154 4.16443 0
M  V30 12414 C 1236.17 2.97004 5.11412 0
M  V30 12415 H 1235.1 0.234424 0.716632 0
M  V30 12416 H 1237.76 1.18235 1.40331 0
M  V30 12417 H 1236.14 0.470709 3.93192 0
M  V30 12418 H 1237.31 3.25101 3.26567 0
M  V30 12419 H 1235.63 2.82353 3.06049 0
M  V30 12420 H 1238.22 1.08925 5.23488 0
M  V30 12421 H 1238.57 -0.240705 4.15604 0
M  V30 12422 H 1239.1 1.4019 3.72279 0
M  V30 12423 H 1235.84 4.02492 5.17378 0
M  V30 12424 H 1235.36 2.34759 5.51949 0
M  V30 12425 H 1237.04 2.8732 5.79704 0
M  V30 12426 N 1237.17 -1.38817 0.746158 0
M  V30 12427 C 1238.45 -1.94303 0.224841 0
M  V30 12428 C 1238.83 -1.68207 -1.27552 0
M  V30 12429 O 1238.17 -1.01647 -2.04646 0
M  V30 12430 C 1238.38 -3.44306 0.5705 0
M  V30 12431 C 1239.73 -4.21329 0.526015 0
M  V30 12432 O 1240.76 -3.52554 0.508351 0
M  V30 12433 O 1239.62 -5.4392 0.530383 0
M  V30 12434 H 1236.71 -0.825785 0.0448047 0
M  V30 12435 H 1239.26 -1.48253 0.825775 0
M  V30 12436 H 1238.03 -3.56779 1.60701 0
M  V30 12437 H 1237.65 -3.97556 -0.0588271 0
M  V30 12438 N 1238.65 -0.49465 -1.49636 0
M  V30 12439 C 1239.58 0.323781 -2.26902 0
M  V30 12440 C 1240.59 0.936281 -1.33183 0
M  V30 12441 O 1241.78 0.820695 -1.58514 0
M  V30 12442 C 1238.88 1.47025 -3.05347 0
M  V30 12443 C 1238.05 0.966228 -4.26594 0
M  V30 12444 C 1237.11 1.98955 -4.87138 0
M  V30 12445 O 1236.14 1.56065 -5.47387 0
M  V30 12446 N 1237.34 3.3195 -4.76224 0
M  V30 12447 H 1240.11 -0.338716 -2.9778 0
M  V30 12448 H 1237.67 -0.326817 -1.58567 0
M  V30 12449 H 1239.66 2.15225 -3.42725 0
M  V30 12450 H 1238.23 2.03702 -2.37117 0
M  V30 12451 H 1237.45 0.109336 -3.94048 0
M  V30 12452 H 1238.74 0.607781 -5.05157 0
M  V30 12453 H 1238.14 3.69488 -4.28363 0
M  V30 12454 H 1236.69 3.95881 -5.17805 0
M  V30 12455 N 1240.13 1.55939 -0.228214 0
M  V30 12456 C 1241.09 2.1932 0.665681 0
M  V30 12457 C 1242.09 1.15699 1.11671 0
M  V30 12458 O 1243.28 1.40893 1.02444 0
M  V30 12459 C 1240.41 2.82185 1.9127 0
M  V30 12460 H 1241.6 2.99687 0.112986 0
M  V30 12461 H 1239.16 1.56285 0.0213865 0
M  V30 12462 H 1239.89 2.05706 2.5071 0
M  V30 12463 H 1239.68 3.58073 1.5977 0
M  V30 12464 H 1241.17 3.30748 2.54942 0
M  V30 12465 N 1241.6 -0.0451101 1.57535 0
M  V30 12466 C 1242.55 -1.05066 2.05499 0
M  V30 12467 C 1243.52 -1.36884 0.940843 0
M  V30 12468 O 1244.71 -1.47497 1.21034 0
M  V30 12469 C 1241.85 -2.35139 2.52594 0
M  V30 12470 C 1240.96 -2.0962 3.77735 0
M  V30 12471 C 1240.09 -3.33447 4.13505 0
M  V30 12472 C 1239.13 -3.03411 5.31609 0
M  V30 12473 N 1238.27 -4.19644 5.62888 0
M  V30 12474 H 1243.11 -0.63469 2.91163 0
M  V30 12475 H 1240.65 -0.30179 1.43971 0
M  V30 12476 H 1242.61 -3.11118 2.7796 0
M  V30 12477 H 1241.24 -2.74489 1.69869 0
M  V30 12478 H 1240.29 -1.24211 3.59549 0
M  V30 12479 H 1241.6 -1.83452 4.63839 0
M  V30 12480 H 1240.75 -4.17805 4.39914 0
M  V30 12481 H 1239.49 -3.62715 3.2602 0
M  V30 12482 H 1238.5 -2.17453 5.04969 0
M  V30 12483 H 1239.72 -2.75438 6.20734 0
M  V30 12484 H 1237.67 -4.48893 4.78363 0
M  V30 12485 H 1237.59 -3.96843 6.43468 0
M  V30 12486 H 1238.85 -5.04921 5.93865 0
M  V30 12487 N 1243.08 -1.54377 -0.317073 0
M  V30 12488 C 1244.31 -1.76608 -1.07206 0
M  V30 12489 C 1244.72 -0.517818 -1.81976 0
M  V30 12490 O 1244.06 0.521375 -1.76146 0
M  V30 12491 C 1244.13 -2.91 -2.11091 0
M  V30 12492 C 1243.79 -4.29673 -1.55661 0
M  V30 12493 C 1244.79 -5.1029 -0.994999 0
M  V30 12494 C 1242.47 -4.76234 -1.59708 0
M  V30 12495 C 1244.47 -6.35581 -0.48123 0
M  V30 12496 C 1242.15 -6.01491 -1.07944 0
M  V30 12497 C 1243.15 -6.80999 -0.522467 0
M  V30 12498 O 1242.84 -8.03899 -0.0126274 0
M  V30 12499 H 1242.57 -0.593061 -0.32443 0
M  V30 12500 H 1245.12 -2.02097 -0.366859 0
M  V30 12501 H 1243.35 -2.61097 -2.85246 0
M  V30 12502 H 1245.04 -3.00954 -2.72363 0
M  V30 12503 H 1245.81 -4.7547 -0.956752 0
M  V30 12504 H 1241.69 -4.14387 -2.02 0
M  V30 12505 H 1245.23 -6.97585 -0.0458374 0
M  V30 12506 H 1241.13 -6.35801 -1.11478 0
M  V30 12507 H 1241.9 -8.18401 -0.127442 0
M  V30 12508 N 1244.56 0.579466 -1.4656 0
M  V30 12509 C 1245.49 1.70291 -1.53406 0
M  V30 12510 C 1246.51 1.57232 -0.422116 0
M  V30 12511 O 1247.69 1.64598 -0.69064 0
M  V30 12512 C 1244.79 3.08572 -1.40131 0
M  V30 12513 C 1243.97 3.47602 -2.65502 0
M  V30 12514 C 1243.03 4.64955 -2.4638 0
M  V30 12515 O 1242.05 4.70653 -3.20116 0
M  V30 12516 N 1243.25 5.60041 -1.52756 0
M  V30 12517 H 1246.02 1.64873 -2.50274 0
M  V30 12518 H 1243.58 0.765533 -1.42658 0
M  V30 12519 H 1245.57 3.84877 -1.25106 0
M  V30 12520 H 1244.14 3.0834 -0.514322 0
M  V30 12521 H 1243.36 2.60969 -2.95446 0
M  V30 12522 H 1244.65 3.70446 -3.48779 0
M  V30 12523 H 1244.05 5.58176 -0.919587 0
M  V30 12524 H 1242.61 6.35764 -1.43693 0
M  V30 12525 N 1246.04 1.3432 0.824371 0
M  V30 12526 C 1247.45 1.1397 1.11727 0
M  V30 12527 C 1247.65 -0.0597597 2.01411 0
M  V30 12528 O 1246.71 -0.735717 2.41544 0
M  V30 12529 C 1248.02 2.43423 1.76538 0
M  V30 12530 C 1249.57 2.49466 1.89039 0
M  V30 12531 C 1250.05 3.78917 2.57266 0
M  V30 12532 N 1251.54 3.8007 2.64767 0
M  V30 12533 C 1252.27 4.76953 3.18282 0
M  V30 12534 N 1251.77 5.84217 3.72373 0
M  V30 12535 N 1253.56 4.6441 3.1667 0
M  V30 12536 H 1245.71 2.11175 0.227802 0
M  V30 12537 H 1247.98 0.933774 0.163615 0
M  V30 12538 H 1247.68 3.31278 1.18102 0
M  V30 12539 H 1247.56 2.56655 2.7642 0
M  V30 12540 H 1249.94 1.62052 2.46623 0
M  V30 12541 H 1250.02 2.40163 0.880635 0
M  V30 12542 H 1249.67 4.6672 2.00336 0
M  V30 12543 H 1249.6 3.85502 3.58742 0
M  V30 12544 H 1252.09 3.02556 2.26425 0
M  V30 12545 H 1252.4 6.54159 4.11455 0
M  V30 12546 H 1250.75 5.87933 3.70621 0
M  V30 12547 H 1253.94 3.7976 2.73678 0
M  V30 12548 H 1254.11 5.40081 3.58073 0
M  V30 12549 N 1247.52 -1.0444 1.18026 0
M  V30 12550 C 1248.76 -1.77972 0.984767 0
M  V30 12551 C 1249.12 -1.86294 -0.480861 0
M  V30 12552 O 1248.41 -1.35724 -1.35239 0
M  V30 12553 C 1248.6 -3.21134 1.56869 0
M  V30 12554 C 1248.43 -3.26765 3.08958 0
M  V30 12555 C 1247.2 -3.35612 3.77747 0
M  V30 12556 C 1249.4 -3.15083 4.06482 0
M  V30 12557 N 1247.38 -3.30454 5.17372 0
M  V30 12558 C 1248.75 -3.17382 5.32606 0
M  V30 12559 C 1250.81 -2.99099 3.98051 0
M  V30 12560 C 1249.51 -3.05338 6.51277 0
M  V30 12561 C 1251.54 -2.88399 5.16314 0
M  V30 12562 C 1250.9 -2.91338 6.41328 0
M  V30 12563 H 1247 -0.66322 0.414323 0
M  V30 12564 H 1249.58 -1.24444 1.49739 0
M  V30 12565 H 1247.75 -3.73016 1.0823 0
M  V30 12566 H 1249.49 -3.82943 1.30908 0
M  V30 12567 H 1246.24 -3.41189 3.28462 0
M  V30 12568 H 1246.67 -3.31324 5.90384 0
M  V30 12569 H 1251.31 -2.95659 3.02234 0
M  V30 12570 H 1249.03 -3.07531 7.47296 0
M  V30 12571 H 1252.61 -2.77091 5.11578 0
M  V30 12572 H 1251.49 -2.83141 7.31301 0
M  V30 12573 N 1248.99 -0.981699 -1.2329 0
M  V30 12574 C 1249.92 -0.542441 -2.27112 0
M  V30 12575 C 1250.91 0.425034 -1.64704 0
M  V30 12576 O 1252.09 0.318114 -1.91577 0
M  V30 12577 C 1249.22 0.154668 -3.46955 0
M  V30 12578 C 1248.17 -0.73022 -4.21725 0
M  V30 12579 C 1247.5 0.0991766 -5.34608 0
M  V30 12580 C 1248.8 -2.02166 -4.81587 0
M  V30 12581 H 1250.49 -1.41024 -2.64107 0
M  V30 12582 H 1248.04 -0.679544 -1.26957 0
M  V30 12583 H 1249.99 0.473281 -4.18734 0
M  V30 12584 H 1248.72 1.05693 -3.09025 0
M  V30 12585 H 1247.38 -1.03231 -3.51765 0
M  V30 12586 H 1247.02 1.00201 -4.92919 0
M  V30 12587 H 1246.72 -0.489788 -5.85555 0
M  V30 12588 H 1248.25 0.412141 -6.09207 0
M  V30 12589 H 1249.66 -1.76773 -5.45366 0
M  V30 12590 H 1248.06 -2.55851 -5.42826 0
M  V30 12591 H 1249.13 -2.70766 -4.02261 0
M  V30 12592 N 1250.47 1.3842 -0.753509 0
M  V30 12593 C 1251.72 1.99359 -0.306416 0
M  V30 12594 C 1252.03 1.60492 1.11811 0
M  V30 12595 O 1253.24 2.14401 1.66567 0
M  V30 12596 C 1251.7 3.56453 -0.496895 0
M  V30 12597 C 1251.3 4.04272 -1.9305 0
M  V30 12598 C 1253.05 4.24351 -0.11251 0
M  V30 12599 C 1250.96 5.54007 -2.06955 0
M  V30 12600 H 1249.89 0.745812 -0.110818 0
M  V30 12601 H 1252.54 1.58185 -0.930039 0
M  V30 12602 H 1250.92 3.95515 0.195912 0
M  V30 12603 H 1252.09 3.765 -2.65677 0
M  V30 12604 H 1250.41 3.49098 -2.26979 0
M  V30 12605 H 1253 5.34344 -0.195161 0
M  V30 12606 H 1253.35 4.05668 0.934849 0
M  V30 12607 H 1253.88 3.90528 -0.757168 0
M  V30 12608 H 1250.62 5.77594 -3.09944 0
M  V30 12609 H 1250.14 5.83522 -1.38788 0
M  V30 12610 H 1251.82 6.19704 -1.85945 0
M  V30 12611 N 1251.95 0.502579 1.49372 0
M  V30 12612 C 1252.9 -0.275004 2.29156 0
M  V30 12613 C 1253.87 -0.95892 1.35624 0
M  V30 12614 O 1255.05 -0.965276 1.64581 0
M  V30 12615 C 1252.19 -1.33255 3.18335 0
M  V30 12616 C 1251.31 -0.660248 4.26925 0
M  V30 12617 C 1250.44 -1.69837 5.03318 0
M  V30 12618 C 1249.48 -1.00802 6.03743 0
M  V30 12619 N 1248.62 -1.99042 6.73295 0
M  V30 12620 H 1253.46 0.411599 2.95144 0
M  V30 12621 H 1250.99 0.214824 1.45523 0
M  V30 12622 H 1252.95 -1.95769 3.68416 0
M  V30 12623 H 1251.58 -1.98789 2.54328 0
M  V30 12624 H 1250.63 0.0782181 3.8032 0
M  V30 12625 H 1251.95 -0.11689 4.98663 0
M  V30 12626 H 1251.1 -2.39852 5.57275 0
M  V30 12627 H 1249.84 -2.27558 4.31357 0
M  V30 12628 H 1248.84 -0.293654 5.49015 0
M  V30 12629 H 1250.07 -0.437285 6.77691 0
M  V30 12630 H 1248.01 -2.55722 6.04104 0
M  V30 12631 H 1247.93 -1.49776 7.41015 0
M  V30 12632 H 1249.2 -2.6834 7.31856 0
M  V30 12633 N 1253.43 -1.55816 0.23648 0
M  V30 12634 C 1254.38 -2.22322 -0.68378 0
M  V30 12635 C 1255.37 -1.2074 -1.1882 0
M  V30 12636 O 1256.58 -1.38781 -1.14629 0
M  V30 12637 H 1252.95 -0.713021 -0.238966 0
M  V30 12638 H 1254.92 -2.98234 -0.0995879 0
M  V30 12639 C 1253.67 -2.92845 -1.87449 0
M  V30 12640 H 1252.99 -3.70777 -1.49548 0
M  V30 12641 H 1254.43 -3.42758 -2.49585 0
M  V30 12642 C 1252.89 -1.96139 -2.73918 0
M  V30 12643 O 1253.42 -1.48781 -3.73132 0
M  V30 12644 N 1251.63 -1.63465 -2.40266 0
M  V30 12645 H 1251.18 -2.02171 -1.59639 0
M  V30 12646 H 1251.13 -0.990239 -2.98398 0
M  V30 12647 N 1254.91 0.036755 -1.57557 0
M  V30 12648 C 1255.85 1.03975 -2.06053 0
M  V30 12649 C 1256.82 1.36384 -0.948089 0
M  V30 12650 O 1258.01 1.46853 -1.21815 0
M  V30 12651 C 1255.15 2.33796 -2.53837 0
M  V30 12652 C 1254.26 2.07614 -3.78841 0
M  V30 12653 C 1253.4 3.3125 -4.15267 0
M  V30 12654 C 1252.44 3.00587 -5.33211 0
M  V30 12655 N 1251.57 4.16653 -5.65106 0
M  V30 12656 H 1256.41 0.61924 -2.91495 0
M  V30 12657 H 1253.95 0.294151 -1.44129 0
M  V30 12658 H 1255.91 3.09639 -2.79606 0
M  V30 12659 H 1254.54 2.73584 -1.71323 0
M  V30 12660 H 1253.59 1.22302 -3.60203 0
M  V30 12661 H 1254.9 1.80989 -4.64806 0
M  V30 12662 H 1254.06 4.15466 -4.42123 0
M  V30 12663 H 1252.79 3.60981 -3.27939 0
M  V30 12664 H 1251.8 2.14772 -5.06115 0
M  V30 12665 H 1253.02 2.72142 -6.22186 0
M  V30 12666 H 1250.97 4.4635 -4.80737 0
M  V30 12667 H 1250.89 3.93425 -6.45564 0
M  V30 12668 H 1252.16 5.01764 -5.96534 0
M  V30 12669 N 1256.39 1.54543 0.308881 0
M  V30 12670 C 1257.32 1.79818 1.40502 0
M  V30 12671 C 1258.3 0.648927 1.4909 0
M  V30 12672 O 1259.48 0.888009 1.66273 0
M  V30 12673 C 1256.61 1.92787 2.7848 0
M  V30 12674 C 1255.65 3.15167 2.87353 0
M  V30 12675 S 1256.49 4.73427 2.50255 0
M  V30 12676 C 1257.64 4.89321 3.90276 0
M  V30 12677 H 1257.88 2.7251 1.18852 0
M  V30 12678 H 1255.41 1.45854 0.506551 0
M  V30 12679 H 1257.37 2.00944 3.57955 0
M  V30 12680 H 1256.03 1.01047 2.97403 0
M  V30 12681 H 1255.22 3.2102 3.88538 0
M  V30 12682 H 1254.82 3.05416 2.15864 0
M  V30 12683 H 1257.11 4.7286 4.8519 0
M  V30 12684 H 1258.06 5.91418 3.89398 0
M  V30 12685 H 1258.47 4.17524 3.79913 0
M  V30 12686 N 1257.86 -0.571685 1.46866 0
M  V30 12687 C 1258.81 -1.67992 1.58263 0
M  V30 12688 C 1259.78 -1.60535 0.426345 0
M  V30 12689 O 1260.97 -1.79584 0.644534 0
M  V30 12690 C 1258.11 -3.06327 1.58927 0
M  V30 12691 C 1257.22 -3.24328 2.85369 0
M  V30 12692 C 1256.35 -4.52976 2.77464 0
M  V30 12693 C 1255.39 -4.64359 3.98795 0
M  V30 12694 N 1254.53 -5.84345 3.89211 0
M  V30 12695 H 1259.37 -1.57589 2.52922 0
M  V30 12696 H 1256.91 -0.767883 1.25467 0
M  V30 12697 H 1258.86 -3.86411 1.57296 0
M  V30 12698 H 1257.49 -3.15601 0.677912 0
M  V30 12699 H 1256.55 -2.37774 2.96931 0
M  V30 12700 H 1257.86 -3.28605 3.7526 0
M  V30 12701 H 1257.01 -5.41303 2.74001 0
M  V30 12702 H 1255.75 -4.51155 1.85231 0
M  V30 12703 H 1254.76 -3.74448 4.02578 0
M  V30 12704 H 1255.98 -4.6795 4.92137 0
M  V30 12705 H 1253.93 -5.835 2.99772 0
M  V30 12706 H 1253.84 -5.89938 4.72768 0
M  V30 12707 H 1255.11 -6.75072 3.89741 0
M  V30 12708 N 1259.34 -1.34755 -0.817236 0
M  V30 12709 C 1260.3 -1.26687 -1.91006 0
M  V30 12710 C 1261.3 -0.180745 -1.59781 0
M  V30 12711 O 1262.49 -0.433748 -1.68714 0
M  V30 12712 C 1259.63 -0.957293 -3.27183 0
M  V30 12713 H 1260.82 -2.23846 -1.99582 0
M  V30 12714 H 1258.37 -1.19125 -1.01187 0
M  V30 12715 H 1259.11 0.0108917 -3.24298 0
M  V30 12716 H 1258.89 -1.74297 -3.5123 0
M  V30 12717 H 1260.38 -0.926161 -4.072 0
M  V30 12718 N 1260.82 1.03812 -1.18578 0
M  V30 12719 C 1262.07 1.77056 -0.982718 0
M  V30 12720 C 1262.39 1.88294 0.487421 0
M  V30 12721 O 1261.65 1.38946 1.37813 0
M  V30 12722 C 1261.95 3.20297 -1.5857 0
M  V30 12723 C 1261.61 3.29088 -3.0824 0
M  V30 12724 C 1260.28 3.31194 -3.4909 0
M  V30 12725 C 1262.63 3.28981 -4.04253 0
M  V30 12726 C 1259.96 3.30839 -4.84523 0
M  V30 12727 C 1262.31 3.30166 -5.39605 0
M  V30 12728 C 1260.97 3.30565 -5.79899 0
M  V30 12729 H 1260.24 0.647895 -0.359602 0
M  V30 12730 H 1262.89 1.21911 -1.47682 0
M  V30 12731 H 1261.19 3.7846 -1.01367 0
M  V30 12732 H 1262.89 3.75619 -1.40398 0
M  V30 12733 H 1259.48 3.28171 -2.75685 0
M  V30 12734 H 1263.67 3.26543 -3.73743 0
M  V30 12735 H 1258.92 3.29467 -5.15035 0
M  V30 12736 H 1263.1 3.29033 -6.13767 0
M  V30 12737 H 1260.72 3.30044 -6.84818 0
M  V30 12738 N 1262.3 0.988223 1.22768 0
M  V30 12739 C 1263.53 0.678757 1.95132 0
M  V30 12740 C 1263.94 -0.759797 1.73274 0
M  V30 12741 O 1263.28 -1.52383 1.02592 0
M  V30 12742 C 1263.34 0.899007 3.48078 0
M  V30 12743 C 1263 2.32114 3.93665 0
M  V30 12744 C 1264 3.30034 4.01713 0
M  V30 12745 C 1261.69 2.65432 4.2644 0
M  V30 12746 C 1263.68 4.59349 4.41902 0
M  V30 12747 C 1261.37 3.94967 4.66309 0
M  V30 12748 C 1262.37 4.91737 4.74008 0
M  V30 12749 O 1262.05 6.18958 5.12977 0
M  V30 12750 H 1261.79 0.250588 0.627839 0
M  V30 12751 H 1264.34 1.32441 1.56999 0
M  V30 12752 H 1262.57 0.196182 3.86202 0
M  V30 12753 H 1264.26 0.585507 4.01655 0
M  V30 12754 H 1265.02 3.05626 3.76587 0
M  V30 12755 H 1260.9 1.90816 4.19655 0
M  V30 12756 H 1264.45 5.34881 4.47826 0
M  V30 12757 H 1260.34 4.19168 4.90886 0
M  V30 12758 H 1261.11 6.22826 5.31065 0
M  V30 12759 N 1263.78 -1.38018 0.760839 0
M  V30 12760 C 1264.74 -2.28734 0.146154 0
M  V30 12761 C 1265.74 -1.47525 -0.639768 0
M  V30 12762 O 1266.93 -1.6788 -0.464964 0
M  V30 12763 C 1264.06 -3.31356 -0.801019 0
M  V30 12764 H 1265.25 -2.84599 0.945692 0
M  V30 12765 H 1262.81 -1.471 0.528323 0
M  V30 12766 H 1263.54 -2.80594 -1.62597 0
M  V30 12767 H 1263.33 -3.91366 -0.239775 0
M  V30 12768 H 1264.82 -3.99171 -1.22687 0
M  V30 12769 N 1265.25 -0.510493 -1.49103 0
M  V30 12770 C 1266.66 -0.0650831 -1.86587 0
M  V30 12771 C 1267.02 1.35185 -1.42195 0
M  V30 12772 O 1266.14 2.0091 -0.804004 0
M  V30 12773 C 1266.74 -0.111333 -3.38617 0
M  V30 12774 C 1265.29 0.278782 -3.75366 0
M  V30 12775 C 1264.44 -0.479707 -2.73119 0
M  V30 12776 H 1267.39 -0.722784 -1.41285 0
M  V30 12777 H 1267.41 0.681706 -3.74343 0
M  V30 12778 H 1266.93 -1.14271 -3.70896 0
M  V30 12779 H 1265.03 1.31304 -3.48698 0
M  V30 12780 H 1265.14 -0.047271 -4.79077 0
M  V30 12781 H 1263.5 0.0716459 -2.54599 0
M  V30 12782 H 1264.29 -1.51135 -3.08242 0
M  V30 12783 N 1266.73 1.55688 -0.24474 0
M  V30 12784 C 1267.98 1.99186 0.381167 0
M  V30 12785 C 1268.31 1.13266 1.57748 0
M  V30 12786 O 1267.59 0.195568 1.93514 0
M  V30 12787 C 1267.87 3.51257 0.793142 0
M  V30 12788 C 1267.72 4.47942 -0.408409 0
M  V30 12789 C 1269.04 4.08365 1.64091 0
M  V30 12790 H 1266.16 0.724141 0.137073 0
M  V30 12791 H 1268.8 1.8683 -0.345619 0
M  V30 12792 H 1266.95 3.61917 1.4124 0
M  V30 12793 H 1268.62 4.49265 -1.04682 0
M  V30 12794 H 1266.87 4.20854 -1.05189 0
M  V30 12795 H 1267.54 5.51946 -0.0768531 0
M  V30 12796 H 1270.01 4.00794 1.1182 0
M  V30 12797 H 1268.89 5.1504 1.89802 0
M  V30 12798 H 1269.15 3.56687 2.61202 0
M  V30 12799 N 1268.21 -0.0283989 1.57574 0
M  V30 12800 C 1269.16 -1.03669 2.03069 0
M  V30 12801 C 1270.14 -1.31994 0.920129 0
M  V30 12802 O 1271.34 -1.31568 1.18402 0
M  V30 12803 C 1268.46 -2.3376 2.51418 0
M  V30 12804 C 1267.55 -2.08522 3.69296 0
M  V30 12805 N 1267.94 -1.53345 4.81995 0
M  V30 12806 C 1266.24 -2.38803 3.76682 0
M  V30 12807 C 1266.94 -1.43926 5.63613 0
M  V30 12808 N 1265.92 -1.91507 5.0875 0
M  V30 12809 H 1269.72 -0.604097 2.87625 0
M  V30 12810 H 1267.23 -0.234689 1.60695 0
M  V30 12811 H 1269.23 -3.06804 2.82271 0
M  V30 12812 H 1267.89 -2.77698 1.68268 0
M  V30 12813 H 1268.9 -1.21607 5.0342 0
M  V30 12814 H 1265.58 -2.8581 3.04333 0
M  V30 12815 H 1266.97 -1.0175 6.64151 0
M  V30 12816 N 1269.69 -1.54705 -0.300681 0
M  V30 12817 C 1270.65 -1.84934 -1.35395 0
M  V30 12818 C 1271.65 -0.72226 -1.43666 0
M  V30 12819 O 1272.84 -0.990543 -1.43296 0
M  V30 12820 C 1269.97 -2.02991 -2.73875 0
M  V30 12821 H 1271.17 -2.79063 -1.09835 0
M  V30 12822 H 1268.72 -1.46772 -0.537365 0
M  V30 12823 H 1269.45 -1.11151 -3.04657 0
M  V30 12824 H 1269.24 -2.85027 -2.69262 0
M  V30 12825 H 1270.73 -2.27747 -3.5003 0
M  V30 12826 N 1271.17 0.563888 -1.47167 0
M  V30 12827 C 1272.44 1.32454 -1.43928 0
M  V30 12828 C 1272.82 2.10683 -0.13267 0
M  V30 12829 O 1272.17 2.1063 0.885845 0
M  V30 12830 C 1272.38 2.2347 -2.68071 0
M  V30 12831 C 1273.73 2.84702 -3.15008 0
M  V30 12832 O 1274.75 2.33775 -2.68752 0
M  V30 12833 O 1273.61 3.77251 -3.95404 0
M  V30 12834 H 1270.71 0.596074 -0.573258 0
M  V30 12835 H 1273.25 0.583345 -1.59359 0
M  V30 12836 H 1272.02 1.6522 -3.54708 0
M  V30 12837 H 1271.65 3.04897 -2.55193 0
M  V30 12838 N 1272.64 1.35187 0.810078 0
M  V30 12839 C 1273.92 1.18832 1.55365 0
M  V30 12840 C 1274.3 -0.233956 2.098 0
M  V30 12841 O 1273.65 -1.23701 1.92121 0
M  V30 12842 C 1273.86 2.25351 2.66492 0
M  V30 12843 C 1275.21 2.60981 3.34924 0
M  V30 12844 O 1276.23 2.24238 2.7676 0
M  V30 12845 O 1275.09 3.24147 4.3999 0
M  V30 12846 H 1272.18 0.461446 0.686292 0
M  V30 12847 H 1274.73 1.46858 0.850341 0
M  V30 12848 H 1273.5 3.20762 2.24115 0
M  V30 12849 H 1273.13 1.98575 3.44462 0
M  V30 12850 N 1274.12 -1.03182 1.19127 0
M  V30 12851 C 1275.05 -2.13301 0.94999 0
M  V30 12852 C 1276.03 -1.69707 -0.115577 0
M  V30 12853 O 1277.22 -1.94161 0.0388395 0
M  V30 12854 C 1274.35 -3.43902 0.484637 0
M  V30 12855 C 1273.3 -4.01164 1.4917 0
M  V30 12856 C 1272.63 -5.2735 0.883537 0
M  V30 12857 C 1273.93 -4.36311 2.87107 0
M  V30 12858 H 1275.62 -2.33743 1.87095 0
M  V30 12859 H 1273.17 -1.12332 0.900977 0
M  V30 12860 H 1275.12 -4.20308 0.30315 0
M  V30 12861 H 1273.85 -3.23173 -0.471909 0
M  V30 12862 H 1272.5 -3.26849 1.66028 0
M  V30 12863 H 1272.15 -5.02936 -0.0804712 0
M  V30 12864 H 1271.85 -5.66624 1.55599 0
M  V30 12865 H 1273.38 -6.06425 0.71278 0
M  V30 12866 H 1274.79 -5.03666 2.73848 0
M  V30 12867 H 1273.19 -4.86659 3.51117 0
M  V30 12868 H 1274.26 -3.45743 3.39985 0
M  V30 12869 N 1275.6 -0.99472 -1.22242 0
M  V30 12870 C 1277.02 -0.705762 -1.43147 0
M  V30 12871 C 1277.22 0.722908 -1.88086 0
M  V30 12872 O 1276.27 1.49359 -2.03588 0
M  V30 12873 C 1277.59 -1.71288 -2.47145 0
M  V30 12874 C 1279.13 -1.72853 -2.60942 0
M  V30 12875 C 1279.61 -2.72433 -3.68163 0
M  V30 12876 N 1281.1 -2.71039 -3.75623 0
M  V30 12877 C 1281.83 -3.44753 -4.58184 0
M  V30 12878 N 1281.33 -4.28075 -5.44724 0
M  V30 12879 N 1283.12 -3.33451 -4.52512 0
M  V30 12880 H 1275.27 -1.91738 -0.913792 0
M  V30 12881 H 1277.54 -0.82702 -0.463403 0
M  V30 12882 H 1277.24 -2.7353 -2.21075 0
M  V30 12883 H 1277.12 -1.50721 -3.45779 0
M  V30 12884 H 1279.5 -0.713085 -2.86355 0
M  V30 12885 H 1279.59 -1.9749 -1.62577 0
M  V30 12886 H 1279.23 -3.74129 -3.43497 0
M  V30 12887 H 1279.16 -2.45066 -4.66101 0
M  V30 12888 H 1281.65 -2.10581 -3.1379 0
M  V30 12889 H 1281.96 -4.81143 -6.04749 0
M  V30 12890 H 1280.31 -4.32161 -5.44299 0
M  V30 12891 H 1283.5 -2.67797 -3.8393 0
M  V30 12892 H 1283.67 -3.91158 -5.16623 0
M  V30 12893 N 1277.08 1.37613 -0.768148 0
M  V30 12894 C 1277.99 2.34103 -0.152649 0
M  V30 12895 C 1279 1.6 0.683811 0
M  V30 12896 O 1280.18 1.92112 0.604572 0
M  V30 12897 C 1277.25 3.39164 0.718954 0
M  V30 12898 C 1276.31 4.29092 -0.13355 0
M  V30 12899 C 1275.54 5.29135 0.696547 0
M  V30 12900 O 1275.76 5.36618 1.93383 0
M  V30 12901 O 1274.7 6.01804 0.107652 0
M  V30 12902 H 1278.52 2.88462 -0.949899 0
M  V30 12903 H 1276.11 1.39711 -0.529252 0
M  V30 12904 H 1277.99 4.03454 1.21665 0
M  V30 12905 H 1276.66 2.87137 1.49445 0
M  V30 12906 H 1275.57 3.67914 -0.677528 0
M  V30 12907 H 1276.9 4.84413 -0.872048 0
M  V30 12908 N 1278.56 0.518393 1.4883 0
M  V30 12909 C 1279.8 -0.019866 2.0209 0
M  V30 12910 C 1280.13 -1.35863 1.3988 0
M  V30 12911 O 1279.4 -1.87722 0.560117 0
M  V30 12912 H 1277.98 -0.0103306 0.746929 0
M  V30 12913 H 1280.64 0.679591 1.82668 0
M  V30 12914 H 1279.73 -0.136749 3.118 0
M  V30 12915 N 1280.03 -1.55556 0.252993 0
M  V30 12916 C 1281 -2.20351 -0.630705 0
M  V30 12917 C 1282 -1.17461 -1.09816 0
M  V30 12918 O 1283.19 -1.42505 -1.00189 0
M  V30 12919 C 1280.32 -2.85192 -1.86757 0
M  V30 12920 H 1281.51 -2.99829 -0.0652939 0
M  V30 12921 H 1279.07 -1.563 0.00347982 0
M  V30 12922 H 1279.8 -2.09669 -2.47406 0
M  V30 12923 H 1279.59 -3.60569 -1.54053 0
M  V30 12924 H 1281.08 -3.34762 -2.49648 0
M  V30 12925 N 1281.51 0.0200419 -1.57587 0
M  V30 12926 C 1282.44 1.0456 -2.0396 0
M  V30 12927 C 1283.46 1.31922 -0.953962 0
M  V30 12928 O 1284.65 1.2925 -1.23112 0
M  V30 12929 C 1281.75 2.38514 -2.40758 0
M  V30 12930 C 1280.92 2.3038 -3.71812 0
M  V30 12931 C 1279.98 3.46856 -3.95698 0
M  V30 12932 O 1279 3.25944 -4.66636 0
M  V30 12933 N 1280.21 4.69033 -3.42036 0
M  V30 12934 H 1282.97 0.650282 -2.9256 0
M  V30 12935 H 1280.53 0.207818 -1.60561 0
M  V30 12936 H 1282.52 3.15172 -2.53868 0
M  V30 12937 H 1281.09 2.69859 -1.57781 0
M  V30 12938 H 1280.31 1.38762 -3.6897 0
M  V30 12939 H 1281.6 2.22097 -4.57767 0
M  V30 12940 H 1281 4.88923 -2.84553 0
M  V30 12941 H 1279.56 5.43025 -3.6051 0
M  V30 12942 N 1282.99 1.54862 0.292472 0
M  V30 12943 C 1284.22 1.78291 1.04383 0
M  V30 12944 C 1284.63 0.546703 1.81129 0
M  V30 12945 O 1283.97 -0.493286 1.76953 0
M  V30 12946 C 1284.03 2.94321 2.06435 0
M  V30 12947 C 1283.7 4.32095 1.48806 0
M  V30 12948 C 1284.69 5.11808 0.91369 0
M  V30 12949 C 1282.38 4.78714 1.52112 0
M  V30 12950 C 1284.37 6.36266 0.380053 0
M  V30 12951 C 1282.06 6.03132 0.983613 0
M  V30 12952 C 1283.06 6.81744 0.41406 0
M  V30 12953 O 1282.75 8.03817 -0.115268 0
M  V30 12954 H 1282.48 0.598147 0.314954 0
M  V30 12955 H 1285.03 2.02655 0.334661 0
M  V30 12956 H 1283.26 2.65602 2.81056 0
M  V30 12957 H 1284.95 3.05249 2.67541 0
M  V30 12958 H 1285.72 4.76931 0.880988 0
M  V30 12959 H 1281.6 4.17549 1.95382 0
M  V30 12960 H 1285.14 6.9757 -0.0651481 0
M  V30 12961 H 1281.04 6.37494 1.01349 0
M  V30 12962 H 1281.81 8.185 -0.00277496 0
M  V30 12963 N 1284.47 -0.556076 1.47464 0
M  V30 12964 C 1285.4 -1.67275 1.62915 0
M  V30 12965 C 1286.38 -1.63229 0.478562 0
M  V30 12966 O 1287.56 -1.80833 0.708032 0
M  V30 12967 C 1284.69 -3.05911 1.64426 0
M  V30 12968 C 1283.65 -3.24804 2.78722 0
M  V30 12969 C 1282.97 -4.64238 2.65307 0
M  V30 12970 C 1284.27 -3.10071 4.20302 0
M  V30 12971 H 1285.97 -1.54601 2.56396 0
M  V30 12972 H 1283.51 -0.742337 1.23391 0
M  V30 12973 H 1285.47 -3.83878 1.73826 0
M  V30 12974 H 1284.19 -3.19547 0.675053 0
M  V30 12975 H 1282.85 -2.49246 2.68835 0
M  V30 12976 H 1282.5 -4.74675 1.66412 0
M  V30 12977 H 1282.2 -4.77828 3.41986 0
M  V30 12978 H 1283.72 -5.44339 2.76637 0
M  V30 12979 H 1285.14 -3.77855 4.3116 0
M  V30 12980 H 1283.53 -3.3517 4.97776 0
M  V30 12981 H 1284.6 -2.06803 4.38589 0
M  V30 12982 N 1285.95 -1.35615 -0.802897 0
M  V30 12983 C 1286.88 -1.23192 -1.92091 0
M  V30 12984 C 1287.86 -0.118995 -1.62164 0
M  V30 12985 O 1289.04 -0.287743 -1.86291 0
M  V30 12986 C 1286.17 -0.897699 -3.26587 0
M  V30 12987 C 1285.22 -2.02319 -3.75459 0
M  V30 12988 S 1286.05 -3.63938 -3.92822 0
M  V30 12989 C 1287.2 -3.32601 -5.30215 0
M  V30 12990 H 1287.44 -2.17825 -2.02335 0
M  V30 12991 H 1284.97 -1.20873 -0.960675 0
M  V30 12992 H 1286.93 -0.711674 -4.04284 0
M  V30 12993 H 1285.59 0.0306305 -3.14085 0
M  V30 12994 H 1284.78 -1.74357 -4.7288 0
M  V30 12995 H 1284.38 -2.16774 -3.04771 0
M  V30 12996 H 1286.68 -2.85658 -6.14334 0
M  V30 12997 H 1287.62 -4.29236 -5.63172 0
M  V30 12998 H 1288.03 -2.68279 -4.96676 0
M  V30 12999 N 1287.43 1.02549 -1.19673 0
M  V30 13000 C 1288.36 2.10991 -0.8953 0
M  V30 13001 C 1289.37 1.62405 0.113373 0
M  V30 13002 O 1290.56 1.7812 -0.116485 0
M  V30 13003 C 1287.66 3.37394 -0.319124 0
M  V30 13004 C 1286.83 4.15154 -1.37718 0
M  V30 13005 C 1285.89 5.19867 -0.81393 0
M  V30 13006 O 1284.92 5.49285 -1.49246 0
M  V30 13007 N 1286.12 5.79248 0.381089 0
M  V30 13008 H 1288.88 2.37438 -1.82875 0
M  V30 13009 H 1286.45 1.18867 -1.09919 0
M  V30 13010 H 1288.44 4.04637 0.0716106 0
M  V30 13011 H 1287.01 3.08267 0.518681 0
M  V30 13012 H 1286.23 3.4301 -1.94262 0
M  V30 13013 H 1287.52 4.63892 -2.09003 0
M  V30 13014 H 1286.91 5.5767 0.949791 0
M  V30 13015 H 1285.47 6.47882 0.713563 0
M  V30 13016 N 1288.9 1.00119 1.21713 0
M  V30 13017 C 1289.87 0.563409 2.22167 0
M  V30 13018 C 1290.87 -0.35819 1.5676 0
M  V30 13019 O 1292.06 -0.149001 1.73562 0
M  V30 13020 C 1289.19 -0.179365 3.40428 0
M  V30 13021 H 1290.38 1.45189 2.62412 0
M  V30 13022 H 1287.93 0.789286 1.34907 0
M  V30 13023 H 1288.67 -1.08345 3.05666 0
M  V30 13024 H 1288.45 0.482471 3.8912 0
M  V30 13025 H 1289.94 -0.473537 4.14906 0
M  V30 13026 N 1290.38 -1.37203 0.775435 0
M  V30 13027 C 1291.34 -2.28566 0.170406 0
M  V30 13028 C 1292.34 -1.48195 -0.624085 0
M  V30 13029 O 1293.53 -1.68364 -0.447132 0
M  V30 13030 C 1290.67 -3.32186 -0.765829 0
M  V30 13031 H 1291.86 -2.8358 0.975824 0
M  V30 13032 H 1289.41 -1.46531 0.543895 0
M  V30 13033 H 1290.15 -2.82303 -1.59611 0
M  V30 13034 H 1289.93 -3.91598 -0.198251 0
M  V30 13035 H 1291.42 -4.0045 -1.18446 0
M  V30 13036 N 1291.86 -0.526279 -1.48553 0
M  V30 13037 C 1293.11 0.00914839 -2.02098 0
M  V30 13038 C 1293.43 1.35119 -1.40598 0
M  V30 13039 O 1292.7 1.87422 -0.570065 0
M  V30 13040 H 1291.28 0.00636935 -0.746973 0
M  V30 13041 H 1293.94 -0.689269 -1.82305 0
M  V30 13042 H 1293.04 0.120212 -3.11868 0
M  V30 13043 N 1293.34 1.5542 -0.261239 0
M  V30 13044 C 1294.27 2.24949 0.626126 0
M  V30 13045 C 1295.25 1.23474 1.16997 0
M  V30 13046 O 1296.43 1.52161 1.20667 0
M  V30 13047 C 1293.56 2.95996 1.81669 0
M  V30 13048 C 1292.52 4.04282 1.40499 0
M  V30 13049 C 1291.84 4.62831 2.67753 0
M  V30 13050 C 1293.14 5.1923 0.56543 0
M  V30 13051 H 1294.84 2.99364 0.0463164 0
M  V30 13052 H 1292.38 1.43985 0.0208366 0
M  V30 13053 H 1294.34 3.43343 2.44323 0
M  V30 13054 H 1293.06 2.19093 2.42211 0
M  V30 13055 H 1291.72 3.57726 0.801712 0
M  V30 13056 H 1291.37 3.82611 3.26524 0
M  V30 13057 H 1291.07 5.35938 2.40925 0
M  V30 13058 H 1292.59 5.12918 3.31281 0
M  V30 13059 H 1294.01 5.62714 1.09663 0
M  V30 13060 H 1292.4 5.98814 0.392607 0
M  V30 13061 H 1293.47 4.83086 -0.419059 0
M  V30 13062 N 1294.82 -0.0116844 1.57596 0
M  V30 13063 C 1296.06 -0.697577 1.89679 0
M  V30 13064 C 1296.38 -1.74956 0.861122 0
M  V30 13065 O 1295.65 -1.95629 -0.103031 0
M  V30 13066 H 1294.23 -0.26064 0.700054 0
M  V30 13067 H 1296.9 0.0264782 1.94882 0
M  V30 13068 H 1295.99 -1.17621 2.89088 0
M  V30 13069 N 1296.29 -1.55015 -0.284256 0
M  V30 13070 C 1297.71 -1.46603 -0.630845 0
M  V30 13071 C 1297.91 -0.67091 -1.90003 0
M  V30 13072 O 1296.97 -0.185266 -2.51819 0
M  V30 13073 C 1298.28 -2.9072 -0.768268 0
M  V30 13074 C 1299.83 -3.00866 -0.863061 0
M  V30 13075 C 1300.3 -4.46214 -1.03235 0
M  V30 13076 N 1301.79 -4.49994 -1.09815 0
M  V30 13077 C 1302.53 -5.5966 -1.24773 0
M  V30 13078 N 1302.02 -6.79215 -1.36523 0
M  V30 13079 N 1303.82 -5.4738 -1.27795 0
M  V30 13080 H 1295.97 -2.05171 0.549409 0
M  V30 13081 H 1298.23 -0.929915 0.184288 0
M  V30 13082 H 1297.94 -3.51575 0.0936899 0
M  V30 13083 H 1297.81 -3.39096 -1.65209 0
M  V30 13084 H 1300.2 -2.40114 -1.71549 0
M  V30 13085 H 1300.28 -2.5576 0.0451267 0
M  V30 13086 H 1299.92 -5.07564 -0.18462 0
M  V30 13087 H 1299.85 -4.88965 -1.95502 0
M  V30 13088 H 1302.34 -3.63869 -1.0202 0
M  V30 13089 H 1302.66 -7.58547 -1.47739 0
M  V30 13090 H 1301 -6.82048 -1.33548 0
M  V30 13091 H 1304.19 -4.52921 -1.18238 0
M  V30 13092 H 1304.37 -6.32892 -1.39109 0
M  V30 13093 N 1297.77 0.548248 -1.47757 0
M  V30 13094 C 1298.7 1.6705 -1.55466 0
M  V30 13095 C 1299.68 1.57444 -0.406208 0
M  V30 13096 O 1300.87 1.78176 -0.615268 0
M  V30 13097 C 1297.99 3.0535 -1.46558 0
M  V30 13098 C 1297.04 3.33372 -2.66017 0
M  V30 13099 S 1297.87 3.21643 -4.28143 0
M  V30 13100 C 1299.03 4.62421 -4.21803 0
M  V30 13101 H 1299.26 1.60258 -2.50409 0
M  V30 13102 H 1296.79 0.72978 -1.36065 0
M  V30 13103 H 1298.75 3.85118 -1.42106 0
M  V30 13104 H 1297.41 3.09599 -0.529838 0
M  V30 13105 H 1296.61 4.34218 -2.55873 0
M  V30 13106 H 1296.21 2.6124 -2.67638 0
M  V30 13107 H 1298.5 5.53561 -3.9061 0
M  V30 13108 H 1299.44 4.77621 -5.22766 0
M  V30 13109 H 1299.85 4.40887 -3.52532 0
M  V30 13110 N 1299.25 1.36039 0.795694 0
M  V30 13111 C 1300.2 1.29853 1.90806 0
M  V30 13112 C 1301.17 0.168387 1.65244 0
M  V30 13113 O 1302.35 0.353879 1.8749 0
M  V30 13114 C 1299.49 1.08737 3.27521 0
M  V30 13115 C 1298.6 2.30771 3.65197 0
M  V30 13116 C 1297.74 2.02718 4.90998 0
M  V30 13117 C 1296.78 3.20746 5.21333 0
M  V30 13118 N 1295.92 2.92399 6.38316 0
M  V30 13119 H 1300.76 2.2497 1.95429 0
M  V30 13120 H 1298.29 1.11819 0.955771 0
M  V30 13121 H 1300.25 0.945236 4.06351 0
M  V30 13122 H 1298.88 0.172781 3.22337 0
M  V30 13123 H 1297.93 2.5581 2.81541 0
M  V30 13124 H 1299.24 3.18869 3.83568 0
M  V30 13125 H 1298.4 1.85398 5.77679 0
M  V30 13126 H 1297.14 1.11921 4.74684 0
M  V30 13127 H 1296.14 3.38632 4.33138 0
M  V30 13128 H 1297.37 4.1236 5.3957 0
M  V30 13129 H 1295.31 2.04207 6.23406 0
M  V30 13130 H 1295.23 3.74034 6.56989 0
M  V30 13131 H 1296.5 2.78643 7.27996 0
M  V30 13132 N 1300.73 -1.01913 1.20215 0
M  V30 13133 C 1302.14 -1.5692 1.01159 0
M  V30 13134 C 1302.49 -1.91368 -0.432746 0
M  V30 13135 O 1301.62 -1.71959 -1.31374 0
M  V30 13136 C 1302.21 -2.85125 1.83001 0
M  V30 13137 C 1300.77 -3.36669 1.68318 0
M  V30 13138 C 1299.92 -2.10003 1.81091 0
M  V30 13139 H 1302.87 -0.843246 1.34443 0
M  V30 13140 H 1302.89 -3.56428 1.33188 0
M  V30 13141 H 1302.4 -2.60021 2.88116 0
M  V30 13142 H 1300.5 -3.66739 0.658292 0
M  V30 13143 H 1300.61 -4.09042 2.49442 0
M  V30 13144 H 1298.98 -2.22337 1.24252 0
M  V30 13145 H 1299.76 -1.87329 2.87685 0
M  V30 13146 N 1302.21 -1.00763 -1.2118 0
M  V30 13147 C 1303.15 -0.563428 -2.25673 0
M  V30 13148 C 1304.15 0.393342 -1.6477 0
M  V30 13149 O 1305.35 0.264246 -1.7805 0
M  V30 13150 H 1301.73 -0.163862 -0.73393 0
M  V30 13151 H 1303.7 -1.45585 -2.60476 0
M  V30 13152 C 1302.45 0.0915599 -3.47579 0
M  V30 13153 H 1301.77 -0.635628 -3.94715 0
M  V30 13154 H 1303.21 0.36561 -4.22421 0
M  V30 13155 C 1301.67 1.33159 -3.09468 0
M  V30 13156 O 1302.2 2.42571 -3.20191 0
M  V30 13157 N 1300.41 1.21231 -2.64105 0
M  V30 13158 H 1299.95 0.322021 -2.55579 0
M  V30 13159 H 1299.91 2.04301 -2.38974 0
M  V30 13160 N 1303.68 1.3679 -0.7827 0
M  V30 13161 C 1304.91 2.03678 -0.363734 0
M  V30 13162 C 1305.33 1.59024 1.01768 0
M  V30 13163 O 1304.68 0.776541 1.65155 0
M  V30 13164 C 1304.74 3.59165 -0.410213 0
M  V30 13165 O 1304.46 4.02188 -1.73714 0
M  V30 13166 C 1305.96 4.43296 0.018972 0
M  V30 13167 H 1303.18 0.653828 -0.150829 0
M  V30 13168 H 1305.72 1.74903 -1.05968 0
M  V30 13169 H 1303.88 3.86673 0.237249 0
M  V30 13170 H 1304.29 4.96754 -1.68332 0
M  V30 13171 H 1305.76 5.51962 -0.0646943 0
M  V30 13172 H 1306.24 4.25948 1.07076 0
M  V30 13173 H 1306.85 4.21036 -0.600721 0
M  V30 13174 N 1305.16 0.53415 1.48272 0
M  V30 13175 C 1306.09 -0.215037 2.32508 0
M  V30 13176 C 1307.07 -0.931083 1.42355 0
M  V30 13177 O 1308.26 -0.916051 1.71237 0
M  V30 13178 C 1305.39 -1.25985 3.23643 0
M  V30 13179 C 1304.34 -0.661692 4.22854 0
M  V30 13180 C 1303.67 -1.80946 5.03153 0
M  V30 13181 C 1304.97 0.369358 5.20992 0
M  V30 13182 H 1306.66 0.488158 2.95394 0
M  V30 13183 H 1304.21 0.236206 1.4205 0
M  V30 13184 H 1306.16 -1.79195 3.81402 0
M  V30 13185 H 1304.89 -1.99268 2.58766 0
M  V30 13186 H 1303.54 -0.151082 3.66289 0
M  V30 13187 H 1303.19 -2.53077 4.34696 0
M  V30 13188 H 1302.89 -1.41513 5.70305 0
M  V30 13189 H 1304.42 -2.34526 5.63764 0
M  V30 13190 H 1305.83 -0.0758076 5.7325 0
M  V30 13191 H 1304.23 0.681301 5.9622 0
M  V30 13192 H 1305.3 1.27363 4.67875 0
M  V30 13193 N 1306.64 -1.55279 0.269478 0
M  V30 13194 C 1307.89 -1.99767 -0.34943 0
M  V30 13195 C 1308.22 -1.15762 -1.55926 0
M  V30 13196 O 1307.49 -0.22633 -1.93179 0
M  V30 13197 C 1307.78 -3.52474 -0.73716 0
M  V30 13198 C 1307.63 -4.47236 0.479621 0
M  V30 13199 C 1308.95 -4.10924 -1.57573 0
M  V30 13200 H 1306.07 -0.72623 -0.125535 0
M  V30 13201 H 1308.71 -1.86257 0.375298 0
M  V30 13202 H 1306.86 -3.64118 -1.35464 0
M  V30 13203 H 1308.53 -4.47543 1.11816 0
M  V30 13204 H 1306.78 -4.19127 1.11871 0
M  V30 13205 H 1307.45 -5.51754 0.164653 0
M  V30 13206 H 1309.92 -4.02522 -1.05429 0
M  V30 13207 H 1308.8 -5.17995 -1.81584 0
M  V30 13208 H 1309.06 -3.60798 -2.55495 0
M  V30 13209 N 1308.12 0.00332656 -1.576 0
M  V30 13210 C 1309.05 0.994803 -2.11248 0
M  V30 13211 C 1310.03 1.36061 -1.02085 0
M  V30 13212 O 1311.21 1.44494 -1.2975 0
M  V30 13213 C 1308.34 2.28772 -2.61306 0
M  V30 13214 C 1307.3 2.06362 -3.74965 0
M  V30 13215 C 1306.62 3.41638 -4.11324 0
M  V30 13216 C 1307.92 1.4289 -5.02374 0
M  V30 13217 H 1309.62 0.548119 -2.9434 0
M  V30 13218 H 1307.16 0.262208 -1.41593 0
M  V30 13219 H 1309.12 2.98485 -2.97464 0
M  V30 13220 H 1307.84 2.75547 -1.75332 0
M  V30 13221 H 1306.5 1.39076 -3.39195 0
M  V30 13222 H 1306.15 3.8611 -3.22379 0
M  V30 13223 H 1305.85 3.2746 -4.87897 0
M  V30 13224 H 1307.37 4.12671 -4.50039 0
M  V30 13225 H 1308.79 2.02555 -5.36325 0
M  V30 13226 H 1307.18 1.3921 -5.8373 0
M  V30 13227 H 1308.25 0.397708 -4.83266 0
M  V30 13228 N 1309.6 1.55164 0.276031 0
M  V30 13229 C 1310.84 1.7528 1.00604 0
M  V30 13230 C 1311.17 0.555256 1.86928 0
M  V30 13231 O 1310.44 -0.429917 1.91124 0
M  V30 13232 H 1309.02 0.646377 0.374441 0
M  V30 13233 H 1311.68 1.92562 0.300992 0
M  V30 13234 H 1310.77 2.65245 1.64473 0
M  V30 13235 N 1311.07 -0.540404 1.48045 0
M  V30 13236 C 1312.32 -1.29678 1.55531 0
M  V30 13237 C 1312.65 -1.93197 0.224725 0
M  V30 13238 O 1311.9 -1.79308 -0.784028 0
M  V30 13239 C 1312.2 -2.41517 2.63447 0
M  V30 13240 C 1311.87 -1.95719 4.06208 0
M  V30 13241 C 1310.53 -1.82946 4.45067 0
M  V30 13242 C 1312.88 -1.6098 4.95717 0
M  V30 13243 C 1310.21 -1.33753 5.7125 0
M  V30 13244 C 1312.56 -1.13253 6.2238 0
M  V30 13245 C 1311.23 -0.990886 6.60104 0
M  V30 13246 H 1310.5 -0.474525 0.569129 0
M  V30 13247 H 1313.14 -0.604209 1.81718 0
M  V30 13248 H 1311.45 -3.16401 2.3108 0
M  V30 13249 H 1313.15 -2.9967 2.66457 0
M  V30 13250 H 1309.74 -2.06609 3.75514 0
M  V30 13251 H 1313.92 -1.69713 4.66381 0
M  V30 13252 H 1309.18 -1.21465 5.99213 0
M  V30 13253 H 1313.35 -0.854401 6.91139 0
M  V30 13254 H 1310.98 -0.607497 7.57769 0
M  V30 13255 N 1312.55 -1.36459 -0.788468 0
M  V30 13256 C 1313.5 -1.30863 -1.90115 0
M  V30 13257 C 1314.47 -0.177148 -1.65153 0
M  V30 13258 O 1315.65 -0.363817 -1.87299 0
M  V30 13259 C 1312.79 -1.10473 -3.2694 0
M  V30 13260 C 1311.91 -2.32704 -3.63968 0
M  V30 13261 C 1311.04 -2.05319 -4.89916 0
M  V30 13262 C 1310.08 -3.23506 -5.19625 0
M  V30 13263 N 1309.22 -2.9578 -6.36756 0
M  V30 13264 H 1314.06 -2.26003 -1.94233 0
M  V30 13265 H 1311.6 -1.12324 -0.949827 0
M  V30 13266 H 1313.55 -0.966773 -4.05844 0
M  V30 13267 H 1312.18 -0.189873 -3.22241 0
M  V30 13268 H 1311.24 -2.573 -2.8018 0
M  V30 13269 H 1312.55 -3.20899 -3.81871 0
M  V30 13270 H 1311.7 -1.88459 -5.76687 0
M  V30 13271 H 1310.44 -1.14437 -4.74084 0
M  V30 13272 H 1309.45 -3.40924 -4.31336 0
M  V30 13273 H 1310.67 -4.15216 -5.37376 0
M  V30 13274 H 1308.62 -2.0751 -6.22315 0
M  V30 13275 H 1308.53 -3.77513 -6.54996 0
M  V30 13276 H 1309.8 -2.825 -7.26508 0
M  V30 13277 N 1314.03 1.01274 -1.20754 0
M  V30 13278 C 1314.98 2.09894 -0.959852 0
M  V30 13279 C 1315.95 1.65726 0.111351 0
M  V30 13280 O 1317.13 1.90769 -0.0341721 0
M  V30 13281 C 1314.27 3.41126 -0.52223 0
M  V30 13282 C 1313.39 3.98749 -1.66202 0
M  V30 13283 C 1312.52 5.18057 -1.17432 0
M  V30 13284 C 1311.56 5.67772 -2.28694 0
M  V30 13285 N 1310.7 6.78338 -1.81114 0
M  V30 13286 H 1315.54 2.30416 -1.88977 0
M  V30 13287 H 1313.07 1.12989 -0.941906 0
M  V30 13288 H 1315.03 4.16451 -0.249799 0
M  V30 13289 H 1313.66 3.20665 0.370688 0
M  V30 13290 H 1312.71 3.20483 -2.04927 0
M  V30 13291 H 1314.03 4.31646 -2.49967 0
M  V30 13292 H 1313.18 6.00601 -0.858086 0
M  V30 13293 H 1311.92 4.86735 -0.306614 0
M  V30 13294 H 1310.92 4.8383 -2.61129 0
M  V30 13295 H 1312.15 6.01127 -3.15948 0
M  V30 13296 H 1310.09 6.48837 -0.966761 0
M  V30 13297 H 1310.01 7.10448 -2.58457 0
M  V30 13298 H 1311.28 7.64437 -1.52502 0
M  V30 13299 N 1315.51 1.01404 1.20644 0
M  V30 13300 C 1316.79 0.617088 1.85611 0
M  V30 13301 C 1317.17 -0.904947 1.9072 0
M  V30 13302 O 1316.51 -1.79562 1.41315 0
M  V30 13303 C 1316.72 1.26193 3.25386 0
M  V30 13304 C 1318.07 1.37575 4.01694 0
M  V30 13305 O 1319.1 1.21795 3.34731 0
M  V30 13306 O 1317.96 1.6305 5.2161 0
M  V30 13307 H 1315.05 0.212579 0.799211 0
M  V30 13308 H 1317.6 1.11126 1.28254 0
M  V30 13309 H 1316.37 2.30206 3.16419 0
M  V30 13310 H 1315.99 0.754679 3.90372 0
M  V30 13311 N 1316.99 -1.36373 0.789944 0
M  V30 13312 C 1318.23 -1.99966 0.372195 0
M  V30 13313 C 1318.59 -1.61568 -1.04468 0
M  V30 13314 O 1317.88 -0.860582 -1.71186 0
M  V30 13315 C 1318.08 -3.54243 0.474025 0
M  V30 13316 C 1317.9 -4.07625 1.89926 0
M  V30 13317 C 1316.67 -4.37748 2.52398 0
M  V30 13318 C 1318.87 -4.27346 2.86147 0
M  V30 13319 N 1316.85 -4.76957 3.86504 0
M  V30 13320 C 1318.23 -4.69366 4.05088 0
M  V30 13321 C 1320.28 -4.09517 2.83196 0
M  V30 13322 C 1318.98 -4.95423 5.21487 0
M  V30 13323 C 1321.01 -4.36721 3.98784 0
M  V30 13324 C 1320.37 -4.78997 5.1647 0
M  V30 13325 H 1316.47 -0.760136 0.183622 0
M  V30 13326 H 1319.05 -1.65371 1.02765 0
M  V30 13327 H 1317.23 -3.88105 -0.151346 0
M  V30 13328 H 1318.96 -4.04687 0.0324709 0
M  V30 13329 H 1315.71 -4.27472 2.03875 0
M  V30 13330 H 1316.14 -5.00844 4.55504 0
M  V30 13331 H 1320.78 -3.75988 1.93372 0
M  V30 13332 H 1318.5 -5.27832 6.11897 0
M  V30 13333 H 1322.08 -4.24496 3.97863 0
M  V30 13334 H 1320.96 -4.9964 6.04425 0
M  V30 13335 N 1318.47 -0.542005 -1.47987 0
M  V30 13336 C 1319.4 0.202703 -2.32618 0
M  V30 13337 C 1320.38 0.923521 -1.42846 0
M  V30 13338 O 1321.56 0.906957 -1.7172 0
M  V30 13339 C 1318.69 1.24267 -3.24307 0
M  V30 13340 C 1317.65 0.639257 -4.23199 0
M  V30 13341 C 1316.97 1.78275 -5.04105 0
M  V30 13342 C 1318.27 -0.396982 -5.20789 0
M  V30 13343 H 1319.97 -0.503817 -2.95131 0
M  V30 13344 H 1317.51 -0.243736 -1.41922 0
M  V30 13345 H 1319.46 1.7717 -3.82347 0
M  V30 13346 H 1318.19 1.97893 -2.59819 0
M  V30 13347 H 1316.85 0.131655 -3.66364 0
M  V30 13348 H 1316.5 2.50768 -4.36032 0
M  V30 13349 H 1316.2 1.38487 -5.71047 0
M  V30 13350 H 1317.72 2.31533 -5.65 0
M  V30 13351 H 1319.13 0.0454057 -5.73282 0
M  V30 13352 H 1317.53 -0.712911 -5.9585 0
M  V30 13353 H 1318.6 -1.29843 -4.67193 0
M  V30 13354 N 1319.94 1.55134 -0.277709 0
M  V30 13355 C 1320.88 2.20028 0.641913 0
M  V30 13356 C 1321.89 1.18578 1.11549 0
M  V30 13357 O 1323.08 1.45291 1.03695 0
M  V30 13358 C 1320.18 2.81443 1.88794 0
M  V30 13359 C 1319.35 4.08607 1.56074 0
M  V30 13360 C 1318.41 4.54045 2.6595 0
M  V30 13361 O 1317.44 5.19762 2.32026 0
M  V30 13362 N 1318.64 4.24403 3.96058 0
M  V30 13363 H 1321.4 2.99575 0.0864929 0
M  V30 13364 H 1318.96 1.61598 -0.0989178 0
M  V30 13365 H 1320.96 3.08784 2.616 0
M  V30 13366 H 1319.53 2.05873 2.35234 0
M  V30 13367 H 1318.75 3.88527 0.666388 0
M  V30 13368 H 1320.03 4.91455 1.31719 0
M  V30 13369 H 1319.43 3.71708 4.26439 0
M  V30 13370 H 1317.99 4.56509 4.65234 0
M  V30 13371 N 1321.42 0.00503138 1.57599 0
M  V30 13372 C 1322.38 -0.969628 2.0768 0
M  V30 13373 C 1323.38 -1.26933 0.987148 0
M  V30 13374 O 1324.57 -1.21368 1.24962 0
M  V30 13375 C 1321.71 -2.29312 2.52247 0
M  V30 13376 H 1322.9 -0.536342 2.95065 0
M  V30 13377 H 1320.45 -0.242543 1.54407 0
M  V30 13378 H 1321.19 -2.7732 1.6812 0
M  V30 13379 H 1320.97 -2.08878 3.31832 0
M  V30 13380 H 1322.46 -2.99221 2.91302 0
M  V30 13381 N 1322.9 -1.55308 -0.267798 0
M  V30 13382 C 1324.18 -1.66881 -1.02029 0
M  V30 13383 C 1324.56 -0.538708 -2.04111 0
M  V30 13384 O 1323.9 0.460575 -2.2381 0
M  V30 13385 C 1324.11 -3.06318 -1.67243 0
M  V30 13386 C 1325.46 -3.64237 -2.18212 0
M  V30 13387 O 1326.49 -3.08984 -1.77221 0
M  V30 13388 O 1325.35 -4.61055 -2.93413 0
M  V30 13389 H 1322.44 -0.677967 -0.473593 0
M  V30 13390 H 1324.99 -1.67646 -0.263242 0
M  V30 13391 H 1323.76 -3.80015 -0.932985 0
M  V30 13392 H 1323.38 -3.09475 -2.49622 0
M  V30 13393 N 1324.38 0.532545 -1.4833 0
M  V30 13394 C 1325.31 1.65392 -1.57229 0
M  V30 13395 C 1326.29 1.57005 -0.422884 0
M  V30 13396 O 1327.47 1.77513 -0.634132 0
M  V30 13397 C 1324.6 3.03778 -1.49789 0
M  V30 13398 C 1323.65 3.30532 -2.69538 0
M  V30 13399 S 1324.48 3.17084 -4.3153 0
M  V30 13400 C 1325.63 4.57921 -4.26684 0
M  V30 13401 H 1325.87 1.57593 -2.52095 0
M  V30 13402 H 1323.4 0.715307 -1.36831 0
M  V30 13403 H 1325.36 3.83589 -1.46183 0
M  V30 13404 H 1324.02 3.0902 -0.562646 0
M  V30 13405 H 1323.21 4.31479 -2.60464 0
M  V30 13406 H 1322.81 2.58386 -2.70393 0
M  V30 13407 H 1325.11 5.49387 -3.96459 0
M  V30 13408 H 1326.05 4.72049 -5.27802 0
M  V30 13409 H 1326.46 4.37123 -3.57188 0
M  V30 13410 N 1325.86 1.36875 0.78122 0
M  V30 13411 C 1327.27 1.17467 1.08044 0
M  V30 13412 C 1327.47 0.00434799 2.015 0
M  V30 13413 O 1326.53 -0.658499 2.43762 0
M  V30 13414 C 1327.84 2.48917 1.68704 0
M  V30 13415 C 1329.39 2.55354 1.81007 0
M  V30 13416 C 1329.86 3.8691 2.45081 0
M  V30 13417 N 1331.35 3.88301 2.52541 0
M  V30 13418 C 1332.09 4.86837 3.02947 0
M  V30 13419 N 1331.59 5.95768 3.53598 0
M  V30 13420 N 1333.38 4.74249 3.01735 0
M  V30 13421 H 1325.53 2.11793 0.160503 0
M  V30 13422 H 1327.79 0.938507 0.133825 0
M  V30 13423 H 1327.5 3.34867 1.07503 0
M  V30 13424 H 1327.37 2.65319 2.68115 0
M  V30 13425 H 1329.76 1.69816 2.41343 0
M  V30 13426 H 1329.84 2.42843 0.803783 0
M  V30 13427 H 1329.48 4.72858 1.85386 0
M  V30 13428 H 1329.41 3.9672 3.46296 0
M  V30 13429 H 1331.91 3.09607 2.16684 0
M  V30 13430 H 1332.22 6.66918 3.90435 0
M  V30 13431 H 1330.56 5.99426 3.51728 0
M  V30 13432 H 1333.75 3.88275 2.61458 0
M  V30 13433 H 1333.93 5.512 3.40709 0
M  V30 13434 N 1327.33 -1.00632 1.21289 0
M  V30 13435 C 1328.61 -1.71635 0.938124 0
M  V30 13436 C 1328.99 -2.03798 -0.550416 0
M  V30 13437 O 1328.34 -1.71065 -1.5149 0
M  V30 13438 C 1328.55 -2.97674 1.82184 0
M  V30 13439 C 1329.9 -3.7073 2.06989 0
M  V30 13440 O 1330.92 -3.07653 1.79522 0
M  V30 13441 O 1329.78 -4.84183 2.53435 0
M  V30 13442 H 1326.87 -0.748506 0.351664 0
M  V30 13443 H 1329.42 -1.06387 1.32212 0
M  V30 13444 H 1328.19 -2.70306 2.82931 0
M  V30 13445 H 1327.81 -3.70663 1.43858 0
M  V30 13446 N 1328.81 -1.02043 -1.20104 0
M  V30 13447 C 1330.06 -0.713027 -1.89852 0
M  V30 13448 C 1330.39 0.755767 -1.7889 0
M  V30 13449 O 1329.67 1.54948 -1.17564 0
M  V30 13450 C 1329.95 -1.15417 -3.41103 0
M  V30 13451 C 1329.8 -2.68355 -3.60979 0
M  V30 13452 C 1331.12 -0.728389 -4.34031 0
M  V30 13453 H 1328.24 -0.260502 -0.689426 0
M  V30 13454 H 1330.88 -1.26885 -1.41422 0
M  V30 13455 H 1329.03 -0.68127 -3.8248 0
M  V30 13456 H 1330.7 -3.23526 -3.28829 0
M  V30 13457 H 1328.95 -3.09148 -3.04319 0
M  V30 13458 H 1329.62 -2.94276 -4.67018 0
M  V30 13459 H 1332.09 -1.13499 -4.00321 0
M  V30 13460 H 1330.97 -1.06504 -5.38468 0
M  V30 13461 H 1331.23 0.369736 -4.40551 0
M  V30 13462 N 1330.29 1.35952 -0.797165 0
M  V30 13463 C 1331.57 1.93335 -0.2968 0
M  V30 13464 C 1331.95 1.72825 1.21222 0
M  V30 13465 O 1331.3 1.09172 2.00733 0
M  V30 13466 C 1331.51 3.41951 -0.697894 0
M  V30 13467 C 1332.85 4.19087 -0.682026 0
M  V30 13468 O 1333.88 3.50424 -0.638849 0
M  V30 13469 O 1332.74 5.41577 -0.73189 0
M  V30 13470 H 1329.83 0.823554 -0.0754223 0
M  V30 13471 H 1332.38 1.45086 -0.88023 0
M  V30 13472 H 1331.15 3.50569 -1.73831 0
M  V30 13473 H 1330.77 3.97501 -0.088764 0
M  V30 13474 N 1331.77 0.549846 1.47697 0
M  V30 13475 C 1332.7 -0.249645 2.2683 0
M  V30 13476 C 1333.68 -0.926968 1.33589 0
M  V30 13477 O 1334.86 -0.947423 1.62961 0
M  V30 13478 C 1331.99 -1.35511 3.1041 0
M  V30 13479 C 1331.04 -0.787118 4.19174 0
M  V30 13480 S 1331.87 0.360564 5.34285 0
M  V30 13481 C 1333.03 -0.746898 6.21428 0
M  V30 13482 H 1333.26 0.421876 2.94292 0
M  V30 13483 H 1330.79 0.336017 1.50699 0
M  V30 13484 H 1332.75 -1.98825 3.59137 0
M  V30 13485 H 1331.41 -1.99844 2.42325 0
M  V30 13486 H 1330.6 -1.61704 4.77355 0
M  V30 13487 H 1330.21 -0.230301 3.7329 0
M  V30 13488 H 1332.5 -1.6408 6.57331 0
M  V30 13489 H 1333.44 -0.202608 7.0781 0
M  V30 13490 H 1333.85 -1.03625 5.54907 0
M  V30 13491 N 1333.25 -1.54984 0.285932 0
M  V30 13492 C 1334.48 -2.03943 -0.330295 0
M  V30 13493 C 1334.88 -1.16336 -1.49207 0
M  V30 13494 O 1334.23 -0.178341 -1.82832 0
M  V30 13495 C 1334.29 -3.48976 -0.863479 0
M  V30 13496 C 1333.95 -4.5668 0.171058 0
M  V30 13497 C 1334.95 -5.10303 0.994329 0
M  V30 13498 C 1332.64 -5.01352 0.308416 0
M  V30 13499 C 1334.63 -6.07126 1.94104 0
M  V30 13500 C 1332.32 -5.97999 1.25859 0
M  V30 13501 C 1333.31 -6.50768 2.0734 0
M  V30 13502 O 1333 -7.45524 3.00749 0
M  V30 13503 H 1332.73 -0.671491 -0.0779452 0
M  V30 13504 H 1335.29 -2.01081 0.419011 0
M  V30 13505 H 1333.52 -3.49113 -1.66305 0
M  V30 13506 H 1335.21 -3.81213 -1.39396 0
M  V30 13507 H 1335.97 -4.76595 0.899002 0
M  V30 13508 H 1331.85 -4.59917 -0.315817 0
M  V30 13509 H 1335.4 -6.48239 2.57743 0
M  V30 13510 H 1331.29 -6.31125 1.35469 0
M  V30 13511 H 1332.06 -7.63276 2.95554 0
M  V30 13512 N 1334.72 -0.0133892 -1.57594 0
M  V30 13513 C 1335.97 0.667896 -1.90321 0
M  V30 13514 C 1336.29 1.74187 -0.88984 0
M  V30 13515 O 1337.49 2.47871 -1.10779 0
M  V30 13516 C 1335.95 1.23917 -3.37894 0
M  V30 13517 C 1335.56 0.199313 -4.47556 0
M  V30 13518 C 1337.3 1.89788 -3.79712 0
M  V30 13519 C 1335.21 0.781339 -5.86216 0
M  V30 13520 H 1334.14 0.253229 -0.710205 0
M  V30 13521 H 1336.79 -0.0761229 -1.83342 0
M  V30 13522 H 1335.17 2.03429 -3.39754 0
M  V30 13523 H 1336.34 -0.572196 -4.57234 0
M  V30 13524 H 1334.66 -0.359719 -4.14843 0
M  V30 13525 H 1337.26 2.34262 -4.80651 0
M  V30 13526 H 1337.6 2.73406 -3.13934 0
M  V30 13527 H 1338.13 1.16989 -3.80208 0
M  V30 13528 H 1334.87 -0.0163598 -6.55498 0
M  V30 13529 H 1334.39 1.5217 -5.80176 0
M  V30 13530 H 1336.07 1.2759 -6.34295 0
M  V30 13531 N 1336.2 1.55448 0.259558 0
M  V30 13532 C 1337.15 1.90056 1.34096 0
M  V30 13533 C 1338.14 0.778267 1.50464 0
M  V30 13534 O 1339.35 0.962758 1.52089 0
M  V30 13535 H 1335.73 0.603424 0.448758 0
M  V30 13536 H 1337.7 2.80365 1.02166 0
M  V30 13537 C 1336.45 2.20074 2.69189 0
M  V30 13538 H 1335.77 3.05926 2.57389 0
M  V30 13539 H 1337.21 2.48201 3.43762 0
M  V30 13540 C 1335.67 1.01281 3.21316 0
M  V30 13541 O 1336.2 0.2543 4.00894 0
M  V30 13542 N 1334.4 0.806855 2.79174 0
M  V30 13543 H 1333.95 1.42536 2.14572 0
M  V30 13544 H 1333.91 0.0136714 3.14397 0
M  V30 13545 N 1337.68 -0.524672 1.4861 0
M  V30 13546 C 1338.61 -1.63782 1.66426 0
M  V30 13547 C 1339.59 -1.62177 0.513077 0
M  V30 13548 O 1340.78 -1.7929 0.74623 0
M  V30 13549 C 1337.91 -3.02354 1.70877 0
M  V30 13550 C 1336.86 -3.18819 2.85549 0
M  V30 13551 C 1336.19 -4.58506 2.75094 0
M  V30 13552 C 1337.49 -3.01086 4.26784 0
M  V30 13553 H 1339.18 -1.49127 2.59618 0
M  V30 13554 H 1336.73 -0.715997 1.24938 0
M  V30 13555 H 1338.68 -3.80105 1.81929 0
M  V30 13556 H 1337.4 -3.18044 0.742682 0
M  V30 13557 H 1336.06 -2.43487 2.74061 0
M  V30 13558 H 1335.71 -4.71038 1.76443 0
M  V30 13559 H 1335.41 -4.70466 3.52044 0
M  V30 13560 H 1336.93 -5.38348 2.88121 0
M  V30 13561 H 1338.35 -3.68624 4.39077 0
M  V30 13562 H 1336.75 -3.24536 5.04774 0
M  V30 13563 H 1337.82 -1.97454 4.42877 0
M  V30 13564 N 1339.16 -1.37287 -0.77395 0
M  V30 13565 C 1340.41 -1.32374 -1.53243 0
M  V30 13566 C 1340.73 0.0924284 -1.9428 0
M  V30 13567 O 1339.99 1.06517 -1.64173 0
M  V30 13568 C 1340.29 -2.20667 -2.81142 0
M  V30 13569 C 1339.95 -3.68975 -2.59168 0
M  V30 13570 C 1338.62 -4.09394 -2.52884 0
M  V30 13571 C 1340.97 -4.62941 -2.39447 0
M  V30 13572 C 1338.3 -5.41897 -2.24865 0
M  V30 13573 C 1340.65 -5.9568 -2.12952 0
M  V30 13574 C 1339.31 -6.35205 -2.05111 0
M  V30 13575 H 1338.58 -0.48439 -0.560756 0
M  V30 13576 H 1341.23 -1.69475 -0.891663 0
M  V30 13577 H 1339.53 -1.76553 -3.49766 0
M  V30 13578 H 1341.23 -2.1418 -3.3901 0
M  V30 13579 H 1337.82 -3.36919 -2.64922 0
M  V30 13580 H 1342 -4.32576 -2.43293 0
M  V30 13581 H 1337.26 -5.71486 -2.17288 0
M  V30 13582 H 1341.43 -6.68046 -1.9669 0
M  V30 13583 H 1339.06 -7.37804 -1.83163 0
M  V30 13584 N 1340.64 0.999871 -1.21821 0
M  V30 13585 C 1341.59 2.0729 -0.949465 0
M  V30 13586 C 1342.57 1.60606 0.0972572 0
M  V30 13587 O 1343.76 1.76643 -0.11235 0
M  V30 13588 C 1340.89 3.39315 -0.521565 0
M  V30 13589 C 1339.98 3.92653 -1.60264 0
M  V30 13590 N 1340.37 4.19297 -2.82884 0
M  V30 13591 C 1338.67 4.20984 -1.4727 0
M  V30 13592 C 1339.37 4.62547 -3.52739 0
M  V30 13593 N 1338.34 4.65826 -2.80191 0
M  V30 13594 H 1342.15 2.25822 -1.881 0
M  V30 13595 H 1339.66 1.18102 -1.1147 0
M  V30 13596 H 1341.66 4.15743 -0.310376 0
M  V30 13597 H 1340.32 3.22187 0.403152 0
M  V30 13598 H 1341.33 4.07698 -3.19378 0
M  V30 13599 H 1338 4.12966 -0.613654 0
M  V30 13600 H 1339.39 4.91843 -4.57756 0
M  V30 13601 N 1342.11 1.02678 1.19562 0
M  V30 13602 C 1343.39 0.63674 1.84946 0
M  V30 13603 C 1343.77 -0.884667 1.91669 0
M  V30 13604 O 1343.12 -1.78053 1.43211 0
M  V30 13605 C 1343.33 1.29637 3.2403 0
M  V30 13606 C 1344.68 1.41828 4.00212 0
M  V30 13607 O 1345.7 1.25338 3.3342 0
M  V30 13608 O 1344.56 1.68573 5.19851 0
M  V30 13609 H 1341.65 0.221044 0.796912 0
M  V30 13610 H 1344.2 1.1248 1.27068 0
M  V30 13611 H 1342.97 2.33549 3.1396 0
M  V30 13612 H 1342.6 0.796041 3.8955 0
M  V30 13613 N 1343.59 -1.35528 0.804364 0
M  V30 13614 C 1344.56 -2.28153 0.21885 0
M  V30 13615 C 1345.56 -1.49486 -0.592511 0
M  V30 13616 O 1346.75 -1.69274 -0.411319 0
M  V30 13617 C 1343.88 -3.33736 -0.695195 0
M  V30 13618 H 1345.07 -2.81446 1.03576 0
M  V30 13619 H 1342.62 -1.45345 0.574854 0
M  V30 13620 H 1343.36 -2.85625 -1.53587 0
M  V30 13621 H 1343.14 -3.91931 -0.115143 0
M  V30 13622 H 1344.63 -4.02872 -1.09925 0
M  V30 13623 N 1345.07 -0.557671 -1.47404 0
M  V30 13624 C 1346.32 -0.0337884 -2.02472 0
M  V30 13625 C 1346.65 1.31624 -1.43197 0
M  V30 13626 O 1345.9 1.86989 -0.577366 0
M  V30 13627 C 1346.2 0.108324 -3.57236 0
M  V30 13628 C 1345.87 -1.17088 -4.35432 0
M  V30 13629 C 1344.53 -1.5214 -4.56516 0
M  V30 13630 C 1346.88 -2.01854 -4.80525 0
M  V30 13631 C 1344.21 -2.71803 -5.19942 0
M  V30 13632 C 1346.56 -3.2072 -5.45272 0
M  V30 13633 C 1345.22 -3.56085 -5.64588 0
M  V30 13634 H 1344.49 -0.012364 -0.740897 0
M  V30 13635 H 1347.14 -0.729276 -1.7707 0
M  V30 13636 H 1345.45 0.886781 -3.81633 0
M  V30 13637 H 1347.14 0.529031 -3.97495 0
M  V30 13638 H 1343.73 -0.887952 -4.19301 0
M  V30 13639 H 1347.92 -1.76081 -4.64014 0
M  V30 13640 H 1343.17 -2.99371 -5.33092 0
M  V30 13641 H 1347.35 -3.86689 -5.79176 0
M  V30 13642 H 1344.97 -4.48903 -6.13506 0
M  V30 13643 N 1346.55 1.54831 -0.294147 0
M  V30 13644 C 1347.83 1.92071 0.369902 0
M  V30 13645 C 1348.21 1.22061 1.72233 0
M  V30 13646 O 1347.55 0.353975 2.25742 0
M  V30 13647 C 1347.76 3.45524 0.49135 0
M  V30 13648 C 1349.11 4.17644 0.765411 0
M  V30 13649 O 1350.14 3.51521 0.575428 0
M  V30 13650 O 1349 5.34692 1.12992 0
M  V30 13651 H 1346.09 0.801033 0.20561 0
M  V30 13652 H 1348.64 1.66224 -0.341702 0
M  V30 13653 H 1347.41 3.88591 -0.459663 0
M  V30 13654 H 1347.03 3.77384 1.25169 0
M  V30 13655 N 1348.03 0.0217466 1.57585 0
M  V30 13656 C 1349.28 -0.657793 1.90672 0
M  V30 13657 C 1349.59 -1.73713 0.899066 0
M  V30 13658 O 1350.8 -2.4728 1.12092 0
M  V30 13659 C 1349.25 -1.22124 3.38547 0
M  V30 13660 C 1348.86 -0.175575 4.47656 0
M  V30 13661 C 1350.6 -1.87771 3.80713 0
M  V30 13662 C 1348.51 -0.750239 5.86622 0
M  V30 13663 H 1347.44 -0.249459 0.711538 0
M  V30 13664 H 1350.09 0.0858449 1.83299 0
M  V30 13665 H 1348.47 -2.01625 3.40828 0
M  V30 13666 H 1349.65 0.596436 4.56924 0
M  V30 13667 H 1347.96 0.381715 4.14647 0
M  V30 13668 H 1350.56 -2.3171 4.81887 0
M  V30 13669 H 1350.9 -2.71737 3.1538 0
M  V30 13670 H 1351.44 -1.14971 3.80823 0
M  V30 13671 H 1348.17 0.0511222 6.5548 0
M  V30 13672 H 1347.69 -1.49091 5.80975 0
M  V30 13673 H 1349.37 -1.24225 6.34962 0
M  V30 13674 N 1349.51 -1.55583 -0.251311 0
M  V30 13675 C 1350.44 -1.86388 -1.33387 0
M  V30 13676 C 1351.45 -0.749829 -1.44504 0
M  V30 13677 O 1352.64 -1.0279 -1.45933 0
M  V30 13678 C 1349.74 -2.0311 -2.71293 0
M  V30 13679 C 1348.91 -3.33937 -2.82498 0
M  V30 13680 C 1347.97 -3.40455 -4.01219 0
M  V30 13681 O 1347 -4.13695 -3.90954 0
M  V30 13682 N 1348.2 -2.69427 -5.14188 0
M  V30 13683 H 1350.96 -2.79834 -1.07298 0
M  V30 13684 H 1348.53 -1.55766 -0.441418 0
M  V30 13685 H 1350.52 -2.04817 -3.49045 0
M  V30 13686 H 1349.09 -1.16429 -2.90109 0
M  V30 13687 H 1348.31 -3.44584 -1.91456 0
M  V30 13688 H 1349.6 -4.20176 -2.86931 0
M  V30 13689 H 1348.99 -2.09647 -5.25419 0
M  V30 13690 H 1347.55 -2.76832 -5.90091 0
M  V30 13691 N 1350.98 0.516783 -1.48886 0
M  V30 13692 C 1352.21 1.2944 -1.61024 0
M  V30 13693 C 1352.62 1.87195 -0.274705 0
M  V30 13694 O 1351.96 1.67787 0.747868 0
M  V30 13695 C 1352.03 2.4743 -2.60804 0
M  V30 13696 C 1351.69 2.10663 -4.05549 0
M  V30 13697 C 1352.69 1.65559 -4.92835 0
M  V30 13698 C 1350.37 2.20782 -4.51177 0
M  V30 13699 C 1352.37 1.31057 -6.23781 0
M  V30 13700 C 1350.05 1.85891 -5.82141 0
M  V30 13701 C 1351.05 1.41101 -6.68266 0
M  V30 13702 O 1350.74 1.06674 -7.96791 0
M  V30 13703 H 1350.47 0.399402 -0.545394 0
M  V30 13704 H 1353.03 0.628719 -1.95541 0
M  V30 13705 H 1351.26 3.17023 -2.21435 0
M  V30 13706 H 1352.94 3.09478 -2.62637 0
M  V30 13707 H 1353.71 1.57201 -4.58817 0
M  V30 13708 H 1349.59 2.54598 -3.84319 0
M  V30 13709 H 1353.13 0.960245 -6.9096 0
M  V30 13710 H 1349.03 1.93894 -6.15691 0
M  V30 13711 H 1349.8 1.19958 -8.09662 0
M  V30 13712 N 1352.46 1.37696 0.766659 0
M  V30 13713 C 1353.71 1.32922 1.52237 0
M  V30 13714 C 1354.03 -0.0842833 1.94818 0
M  V30 13715 O 1353.3 -1.02934 1.66677 0
M  V30 13716 H 1351.88 0.489049 0.564659 0
M  V30 13717 H 1354.54 1.72238 0.912142 0
M  V30 13718 H 1353.64 1.97158 2.4194 0
M  V30 13719 N 1353.94 -0.993397 1.22349 0
M  V30 13720 C 1355.19 -1.73544 1.04931 0
M  V30 13721 C 1355.52 -1.89721 -0.414661 0
M  V30 13722 O 1354.79 -1.44001 -1.30743 0
M  V30 13723 C 1355.08 -3.14131 1.7605 0
M  V30 13724 C 1354.93 -3.05604 3.30039 0
M  V30 13725 C 1356.25 -4.13294 1.51249 0
M  V30 13726 H 1353.37 -0.629915 0.382591 0
M  V30 13727 H 1356.01 -1.15737 1.50682 0
M  V30 13728 H 1354.16 -3.63483 1.37157 0
M  V30 13729 H 1355.83 -2.63876 3.78374 0
M  V30 13730 H 1354.07 -2.42421 3.59742 0
M  V30 13731 H 1354.75 -4.05086 3.74979 0
M  V30 13732 H 1357.22 -3.72696 1.85033 0
M  V30 13733 H 1356.1 -5.09781 2.03507 0
M  V30 13734 H 1356.36 -4.39855 0.444973 0
M  V30 13735 N 1355.42 -1.03311 -1.19015 0
M  V30 13736 C 1356.66 -0.733124 -1.89085 0
M  V30 13737 C 1357 0.73675 -1.79682 0
M  V30 13738 O 1356.27 1.53692 -1.19201 0
M  V30 13739 C 1356.55 -1.19028 -3.39859 0
M  V30 13740 C 1356.41 -2.72169 -3.58112 0
M  V30 13741 C 1357.73 -0.774383 -4.33234 0
M  V30 13742 H 1354.85 -0.2678 -0.686624 0
M  V30 13743 H 1357.49 -1.28378 -1.40068 0
M  V30 13744 H 1355.64 -0.721799 -3.81736 0
M  V30 13745 H 1357.31 -3.26996 -3.25379 0
M  V30 13746 H 1355.55 -3.12358 -3.01023 0
M  V30 13747 H 1356.22 -2.99213 -4.6387 0
M  V30 13748 H 1358.7 -1.17739 -3.99095 0
M  V30 13749 H 1357.58 -1.12209 -5.37308 0
M  V30 13750 H 1357.84 0.322989 -4.40919 0
M  V30 13751 N 1356.9 1.35099 -0.81154 0
M  V30 13752 C 1358.14 1.9892 -0.394815 0
M  V30 13753 C 1358.47 1.6422 1.0366 0
M  V30 13754 O 1357.75 0.908031 1.72003 0
M  V30 13755 C 1358.03 3.55331 -0.58413 0
M  V30 13756 C 1357.89 3.99812 -2.06084 0
M  V30 13757 C 1359.2 4.40098 -0.0129096 0
M  V30 13758 H 1356.32 0.72261 -0.144926 0
M  V30 13759 H 1358.97 1.60173 -1.02199 0
M  V30 13760 H 1357.12 3.88468 -0.0502446 0
M  V30 13761 H 1358.79 3.77061 -2.65749 0
M  V30 13762 H 1357.03 3.50539 -2.55548 0
M  V30 13763 H 1357.7 5.08655 -2.14416 0
M  V30 13764 H 1360.18 4.13449 -0.468917 0
M  V30 13765 H 1359.05 5.4862 -0.175252 0
M  V30 13766 H 1359.31 4.28675 1.0812 0
M  V30 13767 N 1358.37 0.56548 1.47106 0
M  V30 13768 C 1359.62 0.042333 2.01656 0
M  V30 13769 C 1359.94 -1.31892 1.44443 0
M  V30 13770 O 1361.14 -1.93245 1.90706 0
M  V30 13771 C 1359.6 0.0251556 3.59891 0
M  V30 13772 C 1359.21 1.38367 4.26097 0
M  V30 13773 C 1360.95 -0.44495 4.22162 0
M  V30 13774 C 1358.86 1.32516 5.76362 0
M  V30 13775 H 1357.79 0.0120557 0.753904 0
M  V30 13776 H 1360.44 0.714565 1.69015 0
M  V30 13777 H 1358.82 -0.712893 3.8953 0
M  V30 13778 H 1359.99 2.14009 4.08089 0
M  V30 13779 H 1358.31 1.79239 3.75849 0
M  V30 13780 H 1360.91 -0.507256 5.32288 0
M  V30 13781 H 1361.25 -1.45876 3.89905 0
M  V30 13782 H 1361.78 0.238496 3.97084 0
M  V30 13783 H 1358.52 2.31523 6.13252 0
M  V30 13784 H 1358.04 0.610674 5.96683 0
M  V30 13785 H 1359.72 1.03072 6.38737 0
M  V30 13786 N 1359.85 -1.54672 0.302354 0
M  V30 13787 C 1361.27 -1.59519 -0.0509899 0
M  V30 13788 C 1361.47 -1.31931 -1.52304 0
M  V30 13789 O 1360.52 -1.09338 -2.27599 0
M  V30 13790 C 1361.84 -2.98678 0.348168 0
M  V30 13791 C 1363.39 -3.11587 0.297046 0
M  V30 13792 C 1363.86 -4.53057 0.671046 0
M  V30 13793 N 1365.35 -4.58983 0.623633 0
M  V30 13794 C 1366.09 -5.66522 0.885476 0
M  V30 13795 N 1365.58 -6.82092 1.21336 0
M  V30 13796 N 1367.38 -5.56198 0.812448 0
M  V30 13797 H 1359.53 -1.70865 1.2617 0
M  V30 13798 H 1361.79 -0.798099 0.511608 0
M  V30 13799 H 1361.5 -3.23794 1.37297 0
M  V30 13800 H 1361.37 -3.76025 -0.297505 0
M  V30 13801 H 1363.76 -2.86219 -0.718515 0
M  V30 13802 H 1363.84 -2.36392 0.977361 0
M  V30 13803 H 1363.48 -4.79155 1.68442 0
M  V30 13804 H 1363.41 -5.26591 -0.0313537 0
M  V30 13805 H 1365.9 -3.75972 0.381203 0
M  V30 13806 H 1366.22 -7.6003 1.39909 0
M  V30 13807 H 1364.56 -6.83641 1.25141 0
M  V30 13808 H 1367.75 -4.64787 0.555939 0
M  V30 13809 H 1367.92 -6.39924 1.01988 0
M  V30 13810 N 1361.33 -0.0301034 -1.57571 0
M  V30 13811 C 1362.26 0.94977 -2.13311 0
M  V30 13812 C 1363.24 1.33865 -1.04948 0
M  V30 13813 O 1364.43 1.4171 -1.32786 0
M  V30 13814 C 1361.56 2.23178 -2.66099 0
M  V30 13815 C 1360.51 1.98362 -3.79258 0
M  V30 13816 C 1359.84 3.32836 -4.18479 0
M  V30 13817 C 1361.14 1.32201 -5.05292 0
M  V30 13818 H 1362.83 0.485562 -2.95436 0
M  V30 13819 H 1360.38 0.232116 -1.42117 0
M  V30 13820 H 1362.33 2.92108 -3.03728 0
M  V30 13821 H 1361.05 2.71766 -1.81137 0
M  V30 13822 H 1359.71 1.31849 -3.42069 0
M  V30 13823 H 1359.36 3.79185 -3.30496 0
M  V30 13824 H 1359.06 3.17037 -4.94733 0
M  V30 13825 H 1360.58 4.03032 -4.58691 0
M  V30 13826 H 1362 1.91133 -5.40501 0
M  V30 13827 H 1360.4 1.26797 -5.86551 0
M  V30 13828 H 1361.47 0.29511 -4.84001 0
M  V30 13829 N 1362.81 1.55714 0.243056 0
M  V30 13830 C 1363.76 1.90638 1.30099 0
M  V30 13831 C 1364.73 0.761049 1.47639 0
M  V30 13832 O 1365.91 1.01505 1.61559 0
M  V30 13833 C 1363.05 2.20985 2.65065 0
M  V30 13834 C 1362.16 3.48343 2.55501 0
M  V30 13835 C 1361.3 3.68241 3.82847 0
M  V30 13836 C 1360.34 4.89187 3.67916 0
M  V30 13837 N 1359.47 5.05586 4.87162 0
M  V30 13838 H 1364.31 2.80857 0.996155 0
M  V30 13839 H 1361.85 1.39027 0.480619 0
M  V30 13840 H 1363.81 2.36585 3.43632 0
M  V30 13841 H 1362.44 1.33966 2.93689 0
M  V30 13842 H 1361.49 3.41054 1.68483 0
M  V30 13843 H 1362.8 4.37057 2.4038 0
M  V30 13844 H 1361.96 3.83822 4.69857 0
M  V30 13845 H 1360.7 2.77768 4.00869 0
M  V30 13846 H 1359.7 4.7358 2.79289 0
M  V30 13847 H 1360.93 5.81124 3.51385 0
M  V30 13848 H 1358.87 4.18051 5.05538 0
M  V30 13849 H 1358.79 5.88395 4.74686 0
M  V30 13850 H 1360.06 5.25582 5.7566 0
M  V30 13851 N 1364.29 -0.50888 1.49158 0
M  V30 13852 C 1365.2 -1.63782 1.67966 0
M  V30 13853 C 1366.21 -1.64667 0.562207 0
M  V30 13854 O 1367.39 -1.83232 0.835935 0
M  V30 13855 C 1364.45 -3.00179 1.73474 0
M  V30 13856 C 1363.51 -3.09983 2.97 0
M  V30 13857 C 1362.75 -4.39875 3.02235 0
M  V30 13858 O 1362.97 -5.28214 2.15282 0
M  V30 13859 O 1361.9 -4.54486 3.94621 0
M  V30 13860 H 1365.73 -1.50846 2.63589 0
M  V30 13861 H 1363.32 -0.684306 1.32807 0
M  V30 13862 H 1365.2 -3.8126 1.79495 0
M  V30 13863 H 1363.87 -3.13394 0.810287 0
M  V30 13864 H 1362.78 -2.28119 2.965 0
M  V30 13865 H 1364.11 -3.01693 3.88899 0
M  V30 13866 N 1365.76 -1.381 -0.759346 0
M  V30 13867 C 1367.01 -1.33727 -1.5153 0
M  V30 13868 C 1367.33 0.0739504 -1.9486 0
M  V30 13869 O 1366.6 1.02049 -1.67221 0
M  V30 13870 H 1365.18 -0.492037 -0.562058 0
M  V30 13871 H 1367.85 -1.72719 -0.902995 0
M  V30 13872 H 1366.94 -1.98439 -2.40891 0
M  V30 13873 N 1367.24 0.986894 -1.22875 0
M  V30 13874 C 1368.17 2.09628 -1.0285 0
M  V30 13875 C 1369.15 1.70019 0.0525118 0
M  V30 13876 O 1370.34 1.93883 -0.110874 0
M  V30 13877 C 1367.47 3.41866 -0.61194 0
M  V30 13878 C 1366.42 3.95351 -1.63956 0
M  V30 13879 C 1365.75 5.23707 -1.07865 0
M  V30 13880 C 1367.05 4.25354 -3.03102 0
M  V30 13881 H 1368.74 2.26639 -1.95641 0
M  V30 13882 H 1366.29 1.0891 -0.942048 0
M  V30 13883 H 1368.24 4.18893 -0.458936 0
M  V30 13884 H 1366.97 3.24701 0.35164 0
M  V30 13885 H 1365.62 3.20462 -1.78045 0
M  V30 13886 H 1365.27 5.02888 -0.106246 0
M  V30 13887 H 1364.97 5.60459 -1.76522 0
M  V30 13888 H 1366.5 6.03362 -0.937359 0
M  V30 13889 H 1367.91 4.93156 -2.92353 0
M  V30 13890 H 1366.31 4.73292 -3.68938 0
M  V30 13891 H 1367.38 3.32887 -3.52583 0
M  V30 13892 N 1368.72 1.0394 1.18466 0
M  V30 13893 C 1370 0.65632 1.8426 0
M  V30 13894 C 1370.38 -0.864288 1.92596 0
M  V30 13895 O 1369.73 -1.76524 1.45092 0
M  V30 13896 C 1369.94 1.33067 3.22636 0
M  V30 13897 C 1371.28 1.46065 3.98686 0
M  V30 13898 O 1372.31 1.28867 3.32072 0
M  V30 13899 O 1371.17 1.74078 5.18034 0
M  V30 13900 H 1368.26 0.229484 0.794523 0
M  V30 13901 H 1370.81 1.13821 1.25868 0
M  V30 13902 H 1369.58 2.36866 3.11465 0
M  V30 13903 H 1369.2 0.837313 3.88683 0
M  V30 13904 N 1370.2 -1.34667 0.818693 0
M  V30 13905 C 1371.45 -1.9767 0.401184 0
M  V30 13906 C 1371.76 -1.65644 -1.04027 0
M  V30 13907 O 1372.97 -2.22104 -1.56148 0
M  V30 13908 C 1371.42 -3.53677 0.666398 0
M  V30 13909 C 1371.03 -3.94601 2.12119 0
M  V30 13910 C 1372.77 -4.23331 0.314845 0
M  V30 13911 C 1370.68 -5.43502 2.33151 0
M  V30 13912 H 1369.61 -0.739675 0.146275 0
M  V30 13913 H 1372.26 -1.53568 1.00445 0
M  V30 13914 H 1370.64 -3.95999 -0.00698307 0
M  V30 13915 H 1371.82 -3.63396 2.83338 0
M  V30 13916 H 1370.13 -3.37871 2.43377 0
M  V30 13917 H 1372.73 -5.32804 0.449881 0
M  V30 13918 H 1373.07 -4.09666 -0.740235 0
M  V30 13919 H 1373.61 -3.8647 0.942631 0
M  V30 13920 H 1370.35 -5.62148 3.37149 0
M  V30 13921 H 1369.87 -5.76236 1.66471 0
M  V30 13922 H 1371.54 -6.10127 2.153 0
M  V30 13923 N 1371.68 -0.573274 -1.46804 0
M  V30 13924 C 1372.9 -0.0586717 -2.07317 0
M  V30 13925 C 1373.33 1.2328 -1.42069 0
M  V30 13926 O 1372.68 1.74235 -0.501188 0
M  V30 13927 C 1372.73 0.103503 -3.60451 0
M  V30 13928 O 1371.84 1.16229 -3.95682 0
M  V30 13929 H 1371.18 -0.0585504 -0.661414 0
M  V30 13930 H 1373.71 -0.793532 -1.88585 0
M  V30 13931 H 1373.72 0.312658 -4.068 0
M  V30 13932 H 1372.39 -0.839684 -4.07335 0
M  V30 13933 H 1370.97 0.932347 -3.61056 0
M  V30 13934 N 1373.15 1.5451 -0.310553 0
M  V30 13935 C 1374.1 2.2059 0.576555 0
M  V30 13936 C 1375.09 1.18205 1.09163 0
M  V30 13937 O 1376.28 1.43887 1.03081 0
M  V30 13938 C 1373.41 2.95741 1.74334 0
M  V30 13939 C 1372.5 4.05452 1.24378 0
M  V30 13940 N 1372.89 5.03677 0.462921 0
M  V30 13941 C 1371.18 4.19166 1.52367 0
M  V30 13942 C 1371.89 5.81371 0.195709 0
M  V30 13943 N 1370.86 5.38001 0.778203 0
M  V30 13944 H 1374.66 2.93887 -0.0274771 0
M  V30 13945 H 1372.18 1.61987 -0.115773 0
M  V30 13946 H 1374.17 3.41556 2.39051 0
M  V30 13947 H 1372.83 2.23962 2.35098 0
M  V30 13948 H 1373.85 5.1779 0.106943 0
M  V30 13949 H 1370.52 3.58597 2.1381 0
M  V30 13950 H 1371.91 6.70509 -0.432064 0
M  V30 13951 N 1374.63 0.0384594 1.57553 0
M  V30 13952 C 1375.56 -0.938444 2.13812 0
M  V30 13953 C 1376.54 -1.33307 1.05657 0
M  V30 13954 O 1377.73 -1.41003 1.33535 0
M  V30 13955 C 1374.86 -2.21764 2.67279 0
M  V30 13956 C 1373.81 -1.96347 3.80305 0
M  V30 13957 C 1373.14 -3.30612 4.20238 0
M  V30 13958 C 1374.44 -1.2952 5.05986 0
M  V30 13959 H 1376.13 -0.469887 2.9569 0
M  V30 13960 H 1373.68 -0.224576 1.42238 0
M  V30 13961 H 1375.63 -2.90493 3.05273 0
M  V30 13962 H 1374.36 -2.70802 1.82576 0
M  V30 13963 H 1373.02 -1.30033 3.42764 0
M  V30 13964 H 1372.66 -3.77427 3.32502 0
M  V30 13965 H 1372.36 -3.14409 4.96408 0
M  V30 13966 H 1373.89 -4.00594 4.60822 0
M  V30 13967 H 1375.3 -1.88264 5.41507 0
M  V30 13968 H 1373.7 -1.23685 5.87216 0
M  V30 13969 H 1374.77 -0.269439 4.84151 0
M  V30 13970 N 1376.11 -1.55841 -0.234795 0
M  V30 13971 C 1377.04 -1.87793 -1.31402 0
M  V30 13972 C 1378.06 -0.765113 -1.43701 0
M  V30 13973 O 1379.25 -1.04332 -1.44834 0
M  V30 13974 C 1376.35 -2.05976 -2.69123 0
M  V30 13975 C 1375.52 -3.36914 -2.7894 0
M  V30 13976 C 1374.58 -3.44691 -3.97586 0
M  V30 13977 O 1373.6 -4.17818 -3.86545 0
M  V30 13978 N 1374.81 -2.74866 -5.11301 0
M  V30 13979 H 1377.57 -2.80957 -1.04324 0
M  V30 13980 H 1375.13 -1.56226 -0.424872 0
M  V30 13981 H 1377.12 -2.08507 -3.46853 0
M  V30 13982 H 1375.69 -1.195 -2.88857 0
M  V30 13983 H 1374.91 -3.46595 -1.87791 0
M  V30 13984 H 1376.2 -4.23196 -2.82458 0
M  V30 13985 H 1375.6 -2.15208 -5.23165 0
M  V30 13986 H 1374.16 -2.83075 -5.87122 0
M  V30 13987 N 1377.59 0.500963 -1.49426 0
M  V30 13988 C 1378.84 1.25261 -1.58601 0
M  V30 13989 C 1379.16 1.93056 -0.274647 0
M  V30 13990 O 1378.43 1.82736 0.706003 0
M  V30 13991 H 1377.01 0.465328 -0.584362 0
M  V30 13992 H 1379.67 0.580588 -1.86052 0
M  V30 13993 H 1378.77 2.01652 -2.38208 0
M  V30 13994 N 1379.07 1.38501 0.752011 0
M  V30 13995 C 1380 1.31746 1.87551 0
M  V30 13996 C 1381.01 0.229386 1.61176 0
M  V30 13997 O 1382.2 0.487066 1.71726 0
M  V30 13998 C 1379.3 1.01889 3.23221 0
M  V30 13999 C 1378.47 2.21637 3.77088 0
M  V30 14000 C 1377.53 1.885 4.91278 0
M  V30 14001 O 1376.56 2.61011 5.05828 0
M  V30 14002 N 1377.76 0.840909 5.74377 0
M  V30 14003 H 1380.53 2.28561 1.93856 0
M  V30 14004 H 1378.09 1.32383 0.932013 0
M  V30 14005 H 1380.08 0.777704 3.97157 0
M  V30 14006 H 1378.65 0.138658 3.12292 0
M  V30 14007 H 1377.87 2.61812 2.947 0
M  V30 14008 H 1379.16 3.01551 4.0981 0
M  V30 14009 H 1378.56 0.23962 5.65192 0
M  V30 14010 H 1377.11 0.659604 6.48454 0
M  V30 14011 N 1380.55 -0.980364 1.23396 0
M  V30 14012 C 1381.46 -2.10688 1.03188 0
M  V30 14013 C 1382.47 -1.73984 -0.0236159 0
M  V30 14014 O 1383.65 -2.00666 0.171841 0
M  V30 14015 C 1380.71 -3.4101 0.625563 0
M  V30 14016 C 1379.77 -3.91739 1.75611 0
M  V30 14017 C 1379.01 -5.15841 1.36908 0
M  V30 14018 O 1379.23 -5.69837 0.253329 0
M  V30 14019 O 1378.16 -5.60638 2.19018 0
M  V30 14020 H 1381.99 -2.30626 1.97599 0
M  V30 14021 H 1379.57 -1.09067 1.02102 0
M  V30 14022 H 1381.46 -4.19402 0.409909 0
M  V30 14023 H 1380.13 -3.22402 -0.28956 0
M  V30 14024 H 1379.04 -3.14464 2.0264 0
M  V30 14025 H 1380.37 -4.14801 2.64955 0
M  V30 14026 N 1382.02 -1.04567 -1.17913 0
M  V30 14027 C 1382.93 -0.651674 -2.25367 0
M  V30 14028 C 1383.95 0.32437 -1.7095 0
M  V30 14029 O 1385.13 0.178039 -2.00612 0
M  V30 14030 C 1382.19 -0.0259452 -3.4669 0
M  V30 14031 C 1381.25 -1.05163 -4.1622 0
M  V30 14032 C 1380.48 -0.45567 -5.31751 0
M  V30 14033 O 1380.71 0.736698 -5.65623 0
M  V30 14034 O 1379.64 -1.18684 -5.90083 0
M  V30 14035 H 1383.47 -1.54704 -2.61344 0
M  V30 14036 H 1381.05 -0.816852 -1.25092 0
M  V30 14037 H 1382.93 0.322126 -4.20167 0
M  V30 14038 H 1381.61 0.843165 -3.12526 0
M  V30 14039 H 1380.52 -1.45159 -3.44789 0
M  V30 14040 H 1381.85 -1.89168 -4.54397 0
M  V30 14041 N 1383.5 1.34231 -0.825823 0
M  V30 14042 C 1384.43 2.31997 -0.264546 0
M  V30 14043 C 1385.41 1.58375 0.620592 0
M  V30 14044 O 1386.6 1.86341 0.546865 0
M  V30 14045 C 1383.73 3.42557 0.572025 0
M  V30 14046 C 1382.68 4.27454 -0.216219 0
M  V30 14047 C 1382.01 5.29509 0.743279 0
M  V30 14048 C 1383.31 5.02456 -1.42603 0
M  V30 14049 H 1385 2.79189 -1.08139 0
M  V30 14050 H 1382.55 1.34227 -0.521451 0
M  V30 14051 H 1384.5 4.09968 0.974889 0
M  V30 14052 H 1383.22 2.94021 1.42195 0
M  V30 14053 H 1381.88 3.61649 -0.600485 0
M  V30 14054 H 1381.53 4.77234 1.58924 0
M  V30 14055 H 1381.23 5.87188 0.220064 0
M  V30 14056 H 1382.76 5.99789 1.14394 0
M  V30 14057 H 1384.17 5.62706 -1.09702 0
M  V30 14058 H 1382.57 5.69723 -1.88509 0
M  V30 14059 H 1383.64 4.31983 -2.2027 0
M  V30 14060 N 1384.98 0.581051 1.46498 0
M  V30 14061 C 1385.91 -0.140957 2.33074 0
M  V30 14062 C 1386.89 -0.885323 1.45245 0
M  V30 14063 O 1388.08 -0.86111 1.74065 0
M  V30 14064 C 1385.21 -1.15625 3.27488 0
M  V30 14065 C 1384.16 -0.526829 4.24745 0
M  V30 14066 C 1383.49 -1.64847 5.08655 0
M  V30 14067 C 1384.79 0.53492 5.19554 0
M  V30 14068 H 1386.48 0.581888 2.93691 0
M  V30 14069 H 1384.03 0.281278 1.41226 0
M  V30 14070 H 1385.98 -1.6697 3.8691 0
M  V30 14071 H 1384.7 -1.90935 2.64974 0
M  V30 14072 H 1383.36 -0.0344738 3.66584 0
M  V30 14073 H 1383.01 -2.3912 4.42528 0
M  V30 14074 H 1382.71 -1.23298 5.74518 0
M  V30 14075 H 1384.23 -2.16472 5.7094 0
M  V30 14076 H 1385.65 0.106606 5.73201 0
M  V30 14077 H 1384.04 0.870639 5.93751 0
M  V30 14078 H 1385.11 1.42184 4.63586 0
M  V30 14079 N 1386.46 -1.54343 0.318742 0
M  V30 14080 C 1387.68 -2.05361 -0.290126 0
M  V30 14081 C 1388.11 -1.19362 -1.45376 0
M  V30 14082 O 1387.47 -0.201639 -1.80175 0
M  V30 14083 C 1387.51 -3.53601 -0.707025 0
M  V30 14084 O 1386.62 -3.70561 -1.80992 0
M  V30 14085 H 1385.96 -0.661858 -0.0532933 0
M  V30 14086 H 1388.49 -1.99228 0.46575 0
M  V30 14087 H 1388.5 -3.95782 -0.991005 0
M  V30 14088 H 1387.17 -4.1565 0.144091 0
M  V30 14089 H 1385.75 -3.40286 -1.52513 0
M  V30 14090 N 1387.94 -0.0468143 -1.5753 0
M  V30 14091 C 1389.16 0.641161 -1.97241 0
M  V30 14092 C 1389.59 1.6384 -0.92401 0
M  V30 14093 O 1388.94 1.80946 0.113229 0
M  V30 14094 C 1388.99 1.30832 -3.36029 0
M  V30 14095 O 1388.1 2.42394 -3.33645 0
M  V30 14096 H 1387.44 0.167035 -0.642647 0
M  V30 14097 H 1389.97 -0.113921 -2.04283 0
M  V30 14098 H 1389.98 1.66102 -3.72658 0
M  V30 14099 H 1388.65 0.57744 -4.11872 0
M  V30 14100 H 1387.23 2.09104 -3.08756 0
M  V30 14101 N 1389.41 1.55964 0.226527 0
M  V30 14102 C 1390.35 1.88487 1.30405 0
M  V30 14103 C 1391.36 0.772723 1.43293 0
M  V30 14104 O 1392.55 1.05099 1.44279 0
M  V30 14105 C 1389.65 2.074 2.68027 0
M  V30 14106 C 1388.82 3.38389 2.77149 0
M  V30 14107 C 1387.88 3.46795 3.95752 0
M  V30 14108 O 1386.91 4.19862 3.84323 0
M  V30 14109 N 1388.11 2.77573 5.09836 0
M  V30 14110 H 1390.87 2.81506 1.02833 0
M  V30 14111 H 1388.43 1.56449 0.416581 0
M  V30 14112 H 1390.43 2.10344 3.45742 0
M  V30 14113 H 1389 1.2103 2.8822 0
M  V30 14114 H 1388.22 3.47586 1.8595 0
M  V30 14115 H 1389.5 4.24688 2.8021 0
M  V30 14116 H 1388.9 2.17979 5.22017 0
M  V30 14117 H 1387.46 2.86185 5.85612 0
M  V30 14118 N 1390.89 -0.493031 1.4969 0
M  V30 14119 C 1391.8 -1.61991 1.69694 0
M  V30 14120 C 1392.82 -1.64061 0.579641 0
M  V30 14121 O 1393.99 -1.82335 0.855323 0
M  V30 14122 C 1391.06 -2.98323 1.76648 0
M  V30 14123 C 1390.12 -3.06816 3.00271 0
M  V30 14124 C 1389.35 -4.36644 3.06883 0
M  V30 14125 O 1389.58 -5.25901 2.20872 0
M  V30 14126 O 1388.51 -4.50275 3.99419 0
M  V30 14127 H 1392.34 -1.48042 2.65174 0
M  V30 14128 H 1389.92 -0.670182 1.33525 0
M  V30 14129 H 1391.8 -3.79335 1.83529 0
M  V30 14130 H 1390.48 -3.12517 0.843482 0
M  V30 14131 H 1389.39 -2.24962 2.98903 0
M  V30 14132 H 1390.72 -2.97551 3.92077 0
M  V30 14133 N 1392.37 -1.38898 -0.744656 0
M  V30 14134 C 1393.32 -1.36845 -1.85855 0
M  V30 14135 C 1394.29 -0.2296 -1.64505 0
M  V30 14136 O 1395.47 -0.423221 -1.86047 0
M  V30 14137 C 1392.61 -1.20818 -3.2326 0
M  V30 14138 C 1391.73 -2.44166 -3.5638 0
M  V30 14139 C 1390.86 -2.20801 -4.83136 0
M  V30 14140 C 1389.9 -3.39874 -5.0907 0
M  V30 14141 N 1389.04 -3.15888 -6.27024 0
M  V30 14142 H 1393.88 -2.32068 -1.86945 0
M  V30 14143 H 1391.41 -1.15289 -0.913611 0
M  V30 14144 H 1393.37 -1.0954 -4.02563 0
M  V30 14145 H 1392 -0.292295 -3.21474 0
M  V30 14146 H 1391.05 -2.66083 -2.71852 0
M  V30 14147 H 1392.37 -3.32885 -3.71469 0
M  V30 14148 H 1391.52 -2.0671 -5.704 0
M  V30 14149 H 1390.26 -1.29462 -4.70203 0
M  V30 14150 H 1389.26 -3.54474 -4.20271 0
M  V30 14151 H 1390.49 -4.32102 -5.23894 0
M  V30 14152 H 1388.43 -2.27204 -6.15398 0
M  V30 14153 H 1388.35 -3.9816 -6.42655 0
M  V30 14154 H 1389.62 -3.0547 -7.17153 0
M  V30 14155 N 1393.85 0.973806 -1.23914 0
M  V30 14156 C 1395.07 1.7564 -1.10296 0
M  V30 14157 C 1395.5 1.84984 0.340954 0
M  V30 14158 O 1394.86 1.31629 1.24674 0
M  V30 14159 C 1394.9 3.15809 -1.7406 0
M  V30 14160 O 1394.01 3.99911 -1.00722 0
M  V30 14161 H 1393.35 0.540133 -0.386202 0
M  V30 14162 H 1395.88 1.22197 -1.64101 0
M  V30 14163 H 1395.89 3.66359 -1.79568 0
M  V30 14164 H 1394.56 3.08324 -2.79122 0
M  V30 14165 H 1393.14 3.58405 -1.02956 0
M  V30 14166 N 1395.33 1.05191 1.17357 0
M  V30 14167 C 1396.74 0.788105 1.69251 0
M  V30 14168 C 1397.09 -0.689717 1.83677 0
M  V30 14169 O 1396.21 -1.53601 1.52433 0
M  V30 14170 C 1396.81 1.42401 3.07421 0
M  V30 14171 C 1395.37 1.20825 3.5648 0
M  V30 14172 C 1394.51 1.50756 2.3274 0
M  V30 14173 H 1397.47 1.21686 1.01874 0
M  V30 14174 H 1397.49 0.833285 3.71264 0
M  V30 14175 H 1397 2.49958 2.96889 0
M  V30 14176 H 1395.1 0.15193 3.7229 0
M  V30 14177 H 1395.21 1.91319 4.39242 0
M  V30 14178 H 1393.58 0.927649 2.37206 0
M  V30 14179 H 1394.36 2.59446 2.24817 0
M  V30 14180 N 1396.8 -1.33791 0.83293 0
M  V30 14181 C 1398.05 -1.97582 0.42494 0
M  V30 14182 C 1398.37 -1.66328 -1.01784 0
M  V30 14183 O 1397.64 -0.959141 -1.70814 0
M  V30 14184 H 1396.22 -0.730923 0.154143 0
M  V30 14185 H 1398.89 -1.63257 1.06458 0
M  V30 14186 H 1397.98 -3.07177 0.552127 0
M  V30 14187 N 1398.28 -0.588812 -1.46187 0
M  V30 14188 C 1399.51 -0.0825301 -2.06735 0
M  V30 14189 C 1399.93 1.22507 -1.43658 0
M  V30 14190 O 1399.28 1.74203 -0.544022 0
M  V30 14191 C 1399.33 0.083501 -3.61404 0
M  V30 14192 O 1399.05 -1.17235 -4.22123 0
M  V30 14193 C 1400.56 0.623425 -4.38894 0
M  V30 14194 H 1397.78 -0.0602413 -0.66829 0
M  V30 14195 H 1400.32 -0.811215 -1.87722 0
M  V30 14196 H 1398.47 0.762432 -3.79823 0
M  V30 14197 H 1398.89 -0.990047 -5.15071 0
M  V30 14198 H 1400.36 0.688755 -5.47686 0
M  V30 14199 H 1400.84 1.64172 -4.07362 0
M  V30 14200 H 1401.45 -0.0208373 -4.25295 0
M  V30 14201 N 1399.76 1.54172 -0.326923 0
M  V30 14202 C 1400.71 2.24454 0.537501 0
M  V30 14203 C 1401.68 1.23658 1.10896 0
M  V30 14204 O 1402.86 1.52348 1.14868 0
M  V30 14205 C 1400 3.00839 1.69085 0
M  V30 14206 C 1399.12 4.16459 1.1483 0
M  V30 14207 C 1398.25 4.80368 2.26761 0
M  V30 14208 C 1397.29 5.88085 1.69771 0
M  V30 14209 N 1396.43 6.45842 2.75378 0
M  V30 14210 H 1401.27 2.97921 -0.0684022 0
M  V30 14211 H 1398.8 1.4703 -0.0455287 0
M  V30 14212 H 1400.76 3.43375 2.36959 0
M  V30 14213 H 1399.39 2.297 2.26799 0
M  V30 14214 H 1398.44 3.78683 0.361004 0
M  V30 14215 H 1399.76 4.93986 0.69132 0
M  V30 14216 H 1398.91 5.25889 3.02533 0
M  V30 14217 H 1397.65 4.02228 2.75796 0
M  V30 14218 H 1396.65 5.41963 0.924985 0
M  V30 14219 H 1397.88 6.68123 1.21609 0
M  V30 14220 H 1395.82 5.70574 3.23699 0
M  V30 14221 H 1395.74 7.18792 2.34253 0
M  V30 14222 H 1397.01 6.96018 3.50969 0
M  V30 14223 N 1401.24 0.0551678 1.57503 0
M  V30 14224 C 1402.52 -0.657808 1.84207 0
M  V30 14225 C 1402.9 -1.88798 0.944372 0
M  V30 14226 O 1402.24 -2.28499 0.00641728 0
M  V30 14227 C 1402.45 -1.0113 3.34026 0
M  V30 14228 C 1403.8 -1.39189 4.01138 0
M  V30 14229 O 1404.83 -1.10353 3.38675 0
M  V30 14230 O 1403.68 -1.93023 5.11277 0
M  V30 14231 H 1400.78 -0.325084 0.760427 0
M  V30 14232 H 1403.32 0.0848352 1.69488 0
M  V30 14233 H 1402.1 -0.13688 3.91061 0
M  V30 14234 H 1401.72 -1.81126 3.53948 0
M  V30 14235 N 1402.72 -1.56081 -0.218252 0
M  V30 14236 C 1403.96 -1.79513 -0.943553 0
M  V30 14237 C 1404.3 -0.625367 -1.83855 0
M  V30 14238 O 1403.57 0.375226 -1.90846 0
M  V30 14239 C 1403.85 -3.13049 -1.77967 0
M  V30 14240 C 1403.71 -4.40479 -0.910939 0
M  V30 14241 C 1405.03 -3.43057 -2.7568 0
M  V30 14242 H 1402.14 -0.653057 -0.341593 0
M  V30 14243 H 1404.79 -1.88811 -0.212226 0
M  V30 14244 H 1402.94 -3.05254 -2.40318 0
M  V30 14245 H 1404.61 -4.60298 -0.303922 0
M  V30 14246 H 1402.85 -4.33259 -0.216513 0
M  V30 14247 H 1403.52 -5.3036 -1.53042 0
M  V30 14248 H 1406 -3.51002 -2.23465 0
M  V30 14249 H 1404.87 -4.37657 -3.31282 0
M  V30 14250 H 1405.14 -2.65389 -3.53584 0
M  V30 14251 N 1404.2 0.485086 -1.49949 0
M  V30 14252 C 1405.44 1.23999 -1.60474 0
M  V30 14253 C 1405.77 1.91904 -0.297736 0
M  V30 14254 O 1405.05 1.81472 0.699857 0
M  V30 14255 C 1405.33 2.2946 -2.77525 0
M  V30 14256 C 1405.19 1.65952 -4.18067 0
M  V30 14257 C 1406.5 3.30893 -2.90169 0
M  V30 14258 H 1403.62 0.449462 -0.584083 0
M  V30 14259 H 1406.27 0.535795 -1.82289 0
M  V30 14260 H 1404.42 2.89521 -2.59056 0
M  V30 14261 H 1406.09 1.09596 -4.48092 0
M  V30 14262 H 1404.33 0.963079 -4.22974 0
M  V30 14263 H 1405 2.42521 -4.9587 0
M  V30 14264 H 1407.48 2.8084 -3.07031 0
M  V30 14265 H 1406.35 4.02027 -3.73718 0
M  V30 14266 H 1406.61 3.94178 -2.0019 0
M  V30 14267 N 1405.67 1.39291 0.737279 0
M  V30 14268 C 1406.92 1.36592 1.49901 0
M  V30 14269 C 1407.25 -0.0388812 1.94161 0
M  V30 14270 O 1406.53 -1.00337 1.66622 0
M  V30 14271 C 1406.81 2.33625 2.74028 0
M  V30 14272 C 1406.66 3.83037 2.35802 0
M  V30 14273 C 1407.98 2.28524 3.76118 0
M  V30 14274 H 1405.1 0.497482 0.543765 0
M  V30 14275 H 1407.74 1.70265 0.843193 0
M  V30 14276 H 1405.89 2.0504 3.29986 0
M  V30 14277 H 1407.57 4.22363 1.85493 0
M  V30 14278 H 1405.81 3.99924 1.68058 0
M  V30 14279 H 1406.48 4.46415 3.24681 0
M  V30 14280 H 1408.96 2.53794 3.29739 0
M  V30 14281 H 1407.83 2.98501 4.60639 0
M  V30 14282 H 1408.09 1.28949 4.22876 0
M  V30 14283 N 1407.15 -0.967221 1.24429 0
M  V30 14284 C 1408.38 -1.75053 1.11226 0
M  V30 14285 C 1408.8 -1.85162 -0.331139 0
M  V30 14286 O 1408.16 -1.32288 -1.23974 0
M  V30 14287 C 1408.21 -3.14882 1.75733 0
M  V30 14288 O 1407.31 -3.99371 1.02842 0
M  V30 14289 H 1406.65 -0.538078 0.389061 0
M  V30 14290 H 1409.18 -1.21325 1.64746 0
M  V30 14291 H 1409.19 -3.65402 1.81509 0
M  V30 14292 H 1407.87 -3.06839 2.80754 0
M  V30 14293 H 1406.44 -3.57854 1.04856 0
M  V30 14294 N 1408.63 -1.05812 -1.16797 0
M  V30 14295 C 1409.88 -0.773066 -1.87487 0
M  V30 14296 C 1410.21 0.698471 -1.81204 0
M  V30 14297 O 1409.48 1.51129 -1.22434 0
M  V30 14298 C 1409.77 -1.2621 -3.37258 0
M  V30 14299 C 1409.62 -2.79704 -3.52258 0
M  V30 14300 C 1410.94 -0.866104 -4.31494 0
M  V30 14301 H 1408.06 -0.282304 -0.680789 0
M  V30 14302 H 1410.7 -1.3132 -1.37314 0
M  V30 14303 H 1408.85 -0.802608 -3.80119 0
M  V30 14304 H 1410.52 -3.33824 -3.1837 0
M  V30 14305 H 1408.76 -3.18673 -2.94329 0
M  V30 14306 H 1409.44 -3.08985 -4.57419 0
M  V30 14307 H 1411.91 -1.26178 -3.96508 0
M  V30 14308 H 1410.79 -1.23581 -5.34807 0
M  V30 14309 H 1411.05 0.229391 -4.41504 0
M  V30 14310 N 1410.11 1.33347 -0.840014 0
M  V30 14311 C 1411.02 2.32965 -0.276527 0
M  V30 14312 C 1412.03 1.634 0.598037 0
M  V30 14313 O 1413.21 1.95046 0.501888 0
M  V30 14314 C 1410.27 3.42498 0.53816 0
M  V30 14315 C 1409.34 4.27781 -0.360814 0
M  V30 14316 C 1408.57 5.32083 0.415085 0
M  V30 14317 O 1408.79 5.46115 1.64666 0
M  V30 14318 O 1407.73 6.01528 -0.211503 0
M  V30 14319 H 1411.55 2.83022 -1.10147 0
M  V30 14320 H 1409.14 1.3671 -0.602566 0
M  V30 14321 H 1411.02 4.09336 1.00108 0
M  V30 14322 H 1409.69 2.94655 1.34015 0
M  V30 14323 H 1408.6 3.63805 -0.871598 0
M  V30 14324 H 1409.93 4.7911 -1.1276 0
M  V30 14325 N 1411.59 0.596556 1.45873 0
M  V30 14326 C 1412.82 0.093357 2.06389 0
M  V30 14327 C 1413.22 -1.2229 1.44367 0
M  V30 14328 O 1412.57 -1.75332 0.548131 0
M  V30 14329 C 1412.63 -0.132256 3.59257 0
M  V30 14330 C 1412.29 1.10051 4.43551 0
M  V30 14331 C 1413.29 2.01598 4.79223 0
M  V30 14332 C 1410.97 1.32625 4.84475 0
M  V30 14333 C 1412.97 3.14054 5.54661 0
M  V30 14334 C 1410.66 2.45384 5.5967 0
M  V30 14335 C 1411.65 3.35927 5.94678 0
M  V30 14336 O 1411.34 4.46726 6.6835 0
M  V30 14337 H 1411.07 0.0608944 0.673252 0
M  V30 14338 H 1413.63 0.821009 1.88278 0
M  V30 14339 H 1411.86 -0.914678 3.75727 0
M  V30 14340 H 1413.55 -0.585681 4.01652 0
M  V30 14341 H 1414.31 1.85379 4.48174 0
M  V30 14342 H 1410.19 0.630522 4.56668 0
M  V30 14343 H 1413.74 3.8475 5.81904 0
M  V30 14344 H 1409.63 2.6156 5.90133 0
M  V30 14345 H 1410.4 4.45268 6.86789 0
M  V30 14346 N 1413.06 -1.53996 0.335095 0
M  V30 14347 C 1414.29 -2.05657 -0.268328 0
M  V30 14348 C 1414.71 -1.20897 -1.44102 0
M  V30 14349 O 1414.07 -0.220737 -1.79951 0
M  V30 14350 C 1414.12 -3.54331 -0.669481 0
M  V30 14351 O 1413.22 -3.7246 -1.77052 0
M  V30 14352 H 1412.56 -0.662386 -0.0462705 0
M  V30 14353 H 1415.09 -1.98723 0.486854 0
M  V30 14354 H 1415.1 -3.9681 -0.948971 0
M  V30 14355 H 1413.78 -4.15474 0.188168 0
M  V30 14356 H 1412.36 -3.41884 -1.48895 0
M  V30 14357 N 1414.54 -0.0635198 -1.57472 0
M  V30 14358 C 1415.49 0.906604 -2.12248 0
M  V30 14359 C 1416.46 1.30078 -1.0329 0
M  V30 14360 O 1417.64 1.38809 -1.30907 0
M  V30 14361 C 1414.78 2.1718 -2.68192 0
M  V30 14362 C 1413.9 1.831 -3.91278 0
M  V30 14363 C 1413.03 3.0417 -4.35493 0
M  V30 14364 C 1412.07 2.66069 -5.51248 0
M  V30 14365 N 1411.21 3.79871 -5.9046 0
M  V30 14366 H 1416.05 0.432606 -2.94843 0
M  V30 14367 H 1413.58 0.201895 -1.45708 0
M  V30 14368 H 1415.54 2.91231 -2.98732 0
M  V30 14369 H 1414.17 2.62135 -1.88375 0
M  V30 14370 H 1413.22 0.991473 -3.67252 0
M  V30 14371 H 1414.54 1.51063 -4.75375 0
M  V30 14372 H 1413.69 3.86507 -4.6765 0
M  V30 14373 H 1412.43 3.39395 -3.50232 0
M  V30 14374 H 1411.43 1.82151 -5.1875 0
M  V30 14375 H 1412.66 2.32023 -6.38234 0
M  V30 14376 H 1410.61 4.14873 -5.0815 0
M  V30 14377 H 1410.52 3.51573 -6.69277 0
M  V30 14378 H 1411.79 4.62811 -6.27237 0
M  V30 14379 N 1416.02 1.56195 0.209972 0
M  V30 14380 C 1416.97 1.93355 1.26026 0
M  V30 14381 C 1417.94 0.792195 1.45991 0
M  V30 14382 O 1419.12 1.04909 1.5937 0
M  V30 14383 C 1416.26 2.26558 2.60318 0
M  V30 14384 C 1415.37 3.53685 2.48055 0
M  V30 14385 C 1414.51 3.76279 3.7495 0
M  V30 14386 C 1413.55 4.96881 3.57457 0
M  V30 14387 N 1412.69 5.15806 4.76328 0
M  V30 14388 H 1417.53 2.82907 0.936357 0
M  V30 14389 H 1415.06 1.40015 0.451022 0
M  V30 14390 H 1417.02 2.43821 3.38537 0
M  V30 14391 H 1415.65 1.40165 2.90781 0
M  V30 14392 H 1414.7 3.44551 1.61211 0
M  V30 14393 H 1416.01 4.42057 2.31056 0
M  V30 14394 H 1415.17 3.93702 4.6161 0
M  V30 14395 H 1413.91 2.86209 3.94887 0
M  V30 14396 H 1412.91 4.79397 2.69181 0
M  V30 14397 H 1414.14 5.88447 3.38979 0
M  V30 14398 H 1412.08 4.28681 4.96557 0
M  V30 14399 H 1412 5.98332 4.62099 0
M  V30 14400 H 1413.27 5.37674 5.64382 0
M  V30 14401 N 1417.5 -0.477127 1.50204 0
M  V30 14402 C 1418.72 -1.25775 1.6491 0
M  V30 14403 C 1419.15 -1.85187 0.329765 0
M  V30 14404 O 1418.51 -1.67004 -0.705641 0
M  V30 14405 C 1418.55 -2.3466 2.73801 0
M  V30 14406 O 1417.66 -3.39147 2.34634 0
M  V30 14407 H 1417 -0.370291 0.551163 0
M  V30 14408 H 1419.53 -0.568514 1.96543 0
M  V30 14409 H 1419.54 -2.80065 2.96695 0
M  V30 14410 H 1418.21 -1.90788 3.69557 0
M  V30 14411 H 1416.79 -2.99496 2.22163 0
M  V30 14412 N 1418.98 -1.3968 -0.729882 0
M  V30 14413 C 1420.25 -1.27689 -1.48172 0
M  V30 14414 C 1420.63 0.111239 -2.10807 0
M  V30 14415 O 1419.98 1.12289 -1.99006 0
M  V30 14416 C 1420.19 -2.40505 -2.529 0
M  V30 14417 C 1421.54 -2.80064 -3.19138 0
M  V30 14418 O 1422.56 -2.39992 -2.63215 0
M  V30 14419 O 1421.42 -3.49248 -4.20342 0
M  V30 14420 H 1418.52 -0.500674 -0.658221 0
M  V30 14421 H 1421.06 -1.51566 -0.763272 0
M  V30 14422 H 1419.83 -3.33282 -2.05033 0
M  V30 14423 H 1419.46 -2.1832 -3.32298 0
M  V30 14424 N 1420.45 0.960609 -1.2494 0
M  V30 14425 C 1421.38 2.074 -1.07274 0
M  V30 14426 C 1422.37 1.70092 0.0164365 0
M  V30 14427 O 1423.55 1.93604 -0.151975 0
M  V30 14428 C 1420.68 3.40491 -0.684317 0
M  V30 14429 C 1419.63 3.91784 -1.72306 0
M  V30 14430 C 1418.96 5.21301 -1.18949 0
M  V30 14431 C 1420.26 4.18829 -3.12056 0
M  V30 14432 H 1421.95 2.22438 -2.00404 0
M  V30 14433 H 1419.5 1.06888 -0.964937 0
M  V30 14434 H 1421.45 4.17826 -0.547686 0
M  V30 14435 H 1420.18 3.25374 0.282687 0
M  V30 14436 H 1418.84 3.16613 -1.84802 0
M  V30 14437 H 1418.48 5.02549 -0.212892 0
M  V30 14438 H 1418.18 5.56588 -1.8837 0
M  V30 14439 H 1419.71 6.01238 -1.06513 0
M  V30 14440 H 1421.12 4.86844 -3.02748 0
M  V30 14441 H 1419.52 4.6536 -3.78894 0
M  V30 14442 H 1420.59 3.25333 -3.59564 0
M  V30 14443 N 1421.93 1.0643 1.16234 0
M  V30 14444 C 1423.21 0.695256 1.82827 0
M  V30 14445 C 1423.59 -0.823242 1.94386 0
M  V30 14446 O 1422.94 -1.73406 1.48804 0
M  V30 14447 C 1423.15 1.3988 3.19741 0
M  V30 14448 C 1424.5 1.54489 3.95498 0
M  V30 14449 O 1425.52 1.35882 3.29264 0
M  V30 14450 O 1424.38 1.85027 5.14225 0
M  V30 14451 H 1421.47 0.246285 0.789476 0
M  V30 14452 H 1424.02 1.16466 1.23426 0
M  V30 14453 H 1422.79 2.43419 3.06371 0
M  V30 14454 H 1422.41 0.91957 3.8682 0
M  V30 14455 N 1423.41 -1.329 0.847073 0
M  V30 14456 C 1424.64 -2.0171 0.460497 0
M  V30 14457 C 1425.05 -1.63699 -0.940649 0
M  V30 14458 O 1424.41 -0.854454 -1.61262 0
M  V30 14459 C 1424.46 -3.56799 0.581108 0
M  V30 14460 O 1424.18 -3.93442 1.92705 0
M  V30 14461 C 1425.68 -4.42882 0.192552 0
M  V30 14462 H 1422.9 -0.645887 0.181853 0
M  V30 14463 H 1425.45 -1.69648 1.14192 0
M  V30 14464 H 1423.6 -3.87364 -0.0524924 0
M  V30 14465 H 1424.02 -4.88157 1.91841 0
M  V30 14466 H 1425.49 -5.51025 0.327969 0
M  V30 14467 H 1425.97 -4.30571 -0.866315 0
M  V30 14468 H 1426.57 -4.17691 0.800918 0
M  V30 14469 N 1424.89 -0.604284 -1.45555 0
M  V30 14470 C 1426.11 -0.102634 -2.07146 0
M  V30 14471 C 1426.54 1.20239 -1.44652 0
M  V30 14472 O 1425.9 1.73133 -0.538033 0
M  V30 14473 C 1425.94 0.0270231 -3.6059 0
M  V30 14474 O 1425.05 1.0781 -3.98059 0
M  V30 14475 H 1424.39 -0.0725667 -0.660023 0
M  V30 14476 H 1426.92 -0.833355 -1.86859 0
M  V30 14477 H 1426.93 0.226299 -4.07372 0
M  V30 14478 H 1425.6 -0.925896 -4.05463 0
M  V30 14479 H 1424.18 0.855552 -3.62953 0
M  V30 14480 N 1426.37 1.53816 -0.343257 0
M  V30 14481 C 1427.31 2.25011 0.513664 0
M  V30 14482 C 1428.28 1.24827 1.09578 0
M  V30 14483 O 1429.47 1.53558 1.13245 0
M  V30 14484 C 1426.61 3.02616 1.65885 0
M  V30 14485 C 1425.72 4.17653 1.10406 0
M  V30 14486 C 1424.86 4.82746 2.21653 0
M  V30 14487 C 1423.9 5.89853 1.63524 0
M  V30 14488 N 1423.03 6.48726 2.68512 0
M  V30 14489 H 1427.87 2.97832 -0.099997 0
M  V30 14490 H 1425.41 1.46973 -0.0611206 0
M  V30 14491 H 1427.37 3.45868 2.33304 0
M  V30 14492 H 1426 2.32092 2.2435 0
M  V30 14493 H 1425.05 3.79045 0.320819 0
M  V30 14494 H 1426.36 4.94691 0.638887 0
M  V30 14495 H 1425.52 5.29068 2.96938 0
M  V30 14496 H 1424.25 4.05131 2.71515 0
M  V30 14497 H 1423.26 5.42914 0.86745 0
M  V30 14498 H 1424.48 6.69375 1.14515 0
M  V30 14499 H 1422.43 5.73975 3.17629 0
M  V30 14500 H 1422.35 7.21236 2.26616 0
M  V30 14501 H 1423.62 6.99701 3.43567 0
M  V30 14502 N 1427.84 0.0718701 1.57436 0
M  V30 14503 C 1429.26 -0.460784 1.80924 0
M  V30 14504 C 1429.61 -1.69637 0.985781 0
M  V30 14505 O 1428.73 -2.15395 0.208319 0
M  V30 14506 C 1429.33 -0.842738 3.28151 0
M  V30 14507 C 1427.89 -1.32026 3.52486 0
M  V30 14508 C 1427.03 -0.305466 2.75612 0
M  V30 14509 H 1429.98 0.297566 1.55885 0
M  V30 14510 H 1430 -1.70414 3.40205 0
M  V30 14511 H 1429.52 0.056733 3.88059 0
M  V30 14512 H 1427.62 -2.23822 2.97883 0
M  V30 14513 H 1427.73 -1.29813 4.61178 0
M  V30 14514 H 1426.09 -0.782758 2.42374 0
M  V30 14515 H 1426.88 0.586279 3.38257 0
M  V30 14516 N 1429.32 -1.56304 -0.201686 0
M  V30 14517 C 1430.25 -1.97046 -1.25281 0
M  V30 14518 C 1431.23 -0.841458 -1.47829 0
M  V30 14519 O 1432.42 -1.10529 -1.59678 0
M  V30 14520 C 1429.55 -2.30429 -2.59845 0
M  V30 14521 C 1428.5 -3.46006 -2.5192 0
M  V30 14522 C 1427.83 -3.65047 -3.90697 0
M  V30 14523 C 1429.13 -4.80391 -2.04992 0
M  V30 14524 H 1430.82 -2.85099 -0.914272 0
M  V30 14525 H 1428.37 -1.37166 -0.438359 0
M  V30 14526 H 1430.32 -2.57525 -3.33555 0
M  V30 14527 H 1429.05 -1.39251 -2.95426 0
M  V30 14528 H 1427.7 -3.18991 -1.80667 0
M  V30 14529 H 1427.35 -2.71211 -4.2362 0
M  V30 14530 H 1427.05 -4.42796 -3.86271 0
M  V30 14531 H 1428.58 -3.94512 -4.66039 0
M  V30 14532 H 1429.99 -5.06561 -2.68456 0
M  V30 14533 H 1428.39 -5.61563 -2.11582 0
M  V30 14534 H 1429.46 -4.74416 -1.00288 0
M  V30 14535 N 1430.8 0.469154 -1.50455 0
M  V30 14536 C 1432.03 1.24899 -1.65575 0
M  V30 14537 C 1432.45 1.85009 -0.339581 0
M  V30 14538 O 1431.81 1.67376 0.696774 0
M  V30 14539 C 1431.86 2.33205 -2.75041 0
M  V30 14540 O 1430.96 3.37898 -2.36429 0
M  V30 14541 H 1430.3 0.367362 -0.553119 0
M  V30 14542 H 1432.83 0.558083 -1.96842 0
M  V30 14543 H 1432.84 2.78487 -2.98176 0
M  V30 14544 H 1431.52 1.88826 -3.70564 0
M  V30 14545 H 1430.09 2.98314 -2.23748 0
M  V30 14546 N 1432.28 1.40065 0.722464 0
M  V30 14547 C 1433.19 1.42086 1.86678 0
M  V30 14548 C 1434.2 0.314223 1.71139 0
M  V30 14549 O 1435.38 0.55771 1.93524 0
M  V30 14550 C 1432.45 1.27498 3.22405 0
M  V30 14551 C 1431.51 2.48243 3.50248 0
M  V30 14552 C 1430.74 2.34342 4.79499 0
M  V30 14553 O 1430.96 1.35355 5.54108 0
M  V30 14554 O 1429.9 3.23579 5.07523 0
M  V30 14555 H 1433.72 2.38571 1.87929 0
M  V30 14556 H 1431.31 1.21314 0.871968 0
M  V30 14557 H 1433.19 1.21543 4.03491 0
M  V30 14558 H 1431.86 0.341141 3.21897 0
M  V30 14559 H 1430.77 2.59775 2.69199 0
M  V30 14560 H 1432.1 3.40364 3.55547 0
M  V30 14561 N 1433.76 -0.95397 1.25448 0
M  V30 14562 C 1434.7 -2.05075 1.0589 0
M  V30 14563 C 1435.67 -1.66069 -0.0321545 0
M  V30 14564 O 1436.86 -1.90389 0.125152 0
M  V30 14565 C 1434 -3.38246 0.684391 0
M  V30 14566 C 1433.11 -3.90366 1.85037 0
M  V30 14567 C 1432.25 -5.11864 1.42016 0
M  V30 14568 C 1431.29 -5.56214 2.55523 0
M  V30 14569 N 1430.42 -6.68924 2.13272 0
M  V30 14570 H 1435.26 -2.21137 1.99755 0
M  V30 14571 H 1432.8 -1.08366 0.994742 0
M  V30 14572 H 1434.76 -4.14785 0.448209 0
M  V30 14573 H 1433.39 -3.22068 -0.217273 0
M  V30 14574 H 1432.44 -3.1034 2.19984 0
M  V30 14575 H 1433.75 -4.19228 2.70276 0
M  V30 14576 H 1432.91 -5.95823 1.14366 0
M  V30 14577 H 1431.65 -4.84718 0.538492 0
M  V30 14578 H 1430.65 -4.7082 2.83916 0
M  V30 14579 H 1431.88 -5.85368 3.44268 0
M  V30 14580 H 1429.82 -6.43486 1.27523 0
M  V30 14581 H 1429.74 -6.97307 2.92059 0
M  V30 14582 H 1431.01 -7.5629 1.88801 0
M  V30 14583 N 1435.24 -1.07045 -1.15668 0
M  V30 14584 C 1436.65 -0.814932 -1.67975 0
M  V30 14585 C 1437 0.660408 -1.84751 0
M  V30 14586 O 1436.12 1.51156 -1.54857 0
M  V30 14587 C 1436.72 -1.47274 -3.05116 0
M  V30 14588 C 1435.28 -1.26481 -3.54513 0
M  V30 14589 C 1434.42 -1.54439 -2.30312 0
M  V30 14590 H 1437.37 -1.23291 -0.999251 0
M  V30 14591 H 1437.4 -0.892244 -3.69891 0
M  V30 14592 H 1436.91 -2.54649 -2.92874 0
M  V30 14593 H 1435.01 -0.211138 -3.72001 0
M  V30 14594 H 1435.12 -1.98283 -4.36143 0
M  V30 14595 H 1433.49 -0.965269 -2.357 0
M  V30 14596 H 1434.27 -2.6299 -2.20661 0
M  V30 14597 N 1436.71 1.32449 -0.85411 0
M  V30 14598 C 1437.96 1.96537 -0.453451 0
M  V30 14599 C 1438.28 1.68344 0.995982 0
M  V30 14600 O 1439.48 2.26166 1.50204 0
M  V30 14601 C 1437.94 3.51785 -0.759934 0
M  V30 14602 C 1437.55 3.88838 -2.22506 0
M  V30 14603 C 1439.29 4.22347 -0.426973 0
M  V30 14604 C 1437.2 5.37129 -2.47479 0
M  V30 14605 H 1436.13 0.735537 -0.165835 0
M  V30 14606 H 1438.78 1.50851 -1.04481 0
M  V30 14607 H 1437.16 3.95879 -0.0980116 0
M  V30 14608 H 1438.33 3.55756 -2.92873 0
M  V30 14609 H 1436.65 3.31299 -2.52249 0
M  V30 14610 H 1439.25 5.31424 -0.590986 0
M  V30 14611 H 1439.59 4.11485 0.631359 0
M  V30 14612 H 1440.12 3.83835 -1.04477 0
M  V30 14613 H 1436.86 5.53012 -3.51935 0
M  V30 14614 H 1436.38 5.71619 -1.8169 0
M  V30 14615 H 1438.06 6.04204 -2.31401 0
M  V30 14616 N 1438.19 0.611994 1.45232 0
M  V30 14617 C 1439.42 0.115409 2.06578 0
M  V30 14618 C 1439.83 -1.20206 1.45588 0
M  V30 14619 O 1439.19 -1.73315 0.571668 0
M  V30 14620 C 1439.24 -0.0259943 3.61491 0
M  V30 14621 O 1438.96 1.23936 4.20204 0
M  V30 14622 C 1440.46 -0.553522 4.39831 0
M  V30 14623 H 1437.68 0.0708656 0.667247 0
M  V30 14624 H 1440.23 0.840977 1.86408 0
M  V30 14625 H 1438.38 -0.701909 3.80988 0
M  V30 14626 H 1438.8 1.07187 5.13431 0
M  V30 14627 H 1440.27 -0.601536 5.48713 0
M  V30 14628 H 1440.75 -1.57671 4.09923 0
M  V30 14629 H 1441.35 0.0884954 4.25208 0
M  V30 14630 N 1439.67 -1.53632 0.351409 0
M  V30 14631 C 1440.62 -2.22041 -0.517867 0
M  V30 14632 C 1441.6 -1.21057 -1.0599 0
M  V30 14633 O 1442.8 -1.46569 -0.992298 0
M  V30 14634 C 1439.92 -3.00259 -1.66432 0
M  V30 14635 C 1439.01 -4.08607 -1.13584 0
M  V30 14636 N 1439.4 -5.04727 -0.329217 0
M  V30 14637 C 1437.7 -4.23059 -1.412 0
M  V30 14638 C 1438.4 -5.81685 -0.0415005 0
M  V30 14639 N 1437.38 -5.39875 -0.635288 0
M  V30 14640 H 1441.18 -2.93711 0.105386 0
M  V30 14641 H 1438.69 -1.61623 0.15868 0
M  V30 14642 H 1440.69 -3.47774 -2.29911 0
M  V30 14643 H 1439.35 -2.30117 -2.29077 0
M  V30 14644 H 1440.36 -5.17891 0.0303777 0
M  V30 14645 H 1437.04 -3.64139 -2.04227 0
M  V30 14646 H 1438.43 -6.69128 0.609686 0
M  V30 14647 N 1441.15 -0.0802183 -1.57396 0
M  V30 14648 C 1442.09 0.884041 -2.13198 0
M  V30 14649 C 1443.06 1.28975 -1.04664 0
M  V30 14650 O 1444.25 1.37413 -1.32372 0
M  V30 14651 C 1441.39 2.14323 -2.7048 0
M  V30 14652 C 1440.5 1.7894 -3.93198 0
M  V30 14653 C 1439.64 2.99534 -4.38695 0
M  V30 14654 C 1438.68 2.60207 -5.54039 0
M  V30 14655 N 1437.81 3.73587 -5.94455 0
M  V30 14656 H 1442.65 0.40131 -2.95285 0
M  V30 14657 H 1440.19 0.186429 -1.45914 0
M  V30 14658 H 1442.15 2.88046 -3.01804 0
M  V30 14659 H 1440.78 2.60122 -1.91144 0
M  V30 14660 H 1439.83 0.952465 -3.68283 0
M  V30 14661 H 1441.14 1.46012 -4.76951 0
M  V30 14662 H 1440.3 3.81526 -4.71724 0
M  V30 14663 H 1439.04 3.35661 -3.53812 0
M  V30 14664 H 1438.04 1.76638 -5.20652 0
M  V30 14665 H 1439.27 2.2524 -6.40659 0
M  V30 14666 H 1437.21 4.0946 -5.12521 0
M  V30 14667 H 1437.13 3.44455 -6.72969 0
M  V30 14668 H 1438.4 4.56133 -6.3211 0
M  V30 14669 N 1442.63 1.56409 0.193394 0
M  V30 14670 C 1443.87 1.80991 0.914875 0
M  V30 14671 C 1444.2 0.654538 1.82837 0
M  V30 14672 O 1443.48 -0.344816 1.91419 0
M  V30 14673 C 1443.76 3.15841 1.72964 0
M  V30 14674 C 1443.62 4.41873 0.840748 0
M  V30 14675 C 1444.93 3.474 2.70188 0
M  V30 14676 H 1442.05 0.658408 0.331161 0
M  V30 14677 H 1444.7 1.89125 0.182161 0
M  V30 14678 H 1442.85 3.09038 2.35431 0
M  V30 14679 H 1444.52 4.60723 0.230654 0
M  V30 14680 H 1442.76 4.33549 0.147558 0
M  V30 14681 H 1443.43 5.32728 1.44586 0
M  V30 14682 H 1445.91 3.54513 2.17852 0
M  V30 14683 H 1444.78 4.42872 3.24278 0
M  V30 14684 H 1445.04 2.7098 3.49317 0
M  V30 14685 N 1444.1 -0.461169 1.50702 0
M  V30 14686 C 1445.01 -1.58355 1.73092 0
M  V30 14687 C 1446.03 -1.62795 0.61431 0
M  V30 14688 O 1447.21 -1.8048 0.893806 0
M  V30 14689 C 1444.27 -2.94509 1.82936 0
M  V30 14690 C 1443.33 -3.00378 3.06711 0
M  V30 14691 C 1442.56 -4.30037 3.16076 0
M  V30 14692 O 1442.79 -5.21097 2.31978 0
M  V30 14693 O 1441.72 -4.41702 4.08881 0
M  V30 14694 H 1445.55 -1.42384 2.68255 0
M  V30 14695 H 1443.13 -0.641709 1.34916 0
M  V30 14696 H 1445.01 -3.75357 1.91534 0
M  V30 14697 H 1443.69 -3.10658 0.909581 0
M  V30 14698 H 1442.6 -2.18571 3.03608 0
M  V30 14699 H 1443.93 -2.89167 3.983 0
M  V30 14700 N 1445.58 -1.40446 -0.715026 0
M  V30 14701 C 1446.49 -1.43074 -1.85922 0
M  V30 14702 C 1447.51 -0.323294 -1.7097 0
M  V30 14703 O 1448.68 -0.567966 -1.93226 0
M  V30 14704 C 1445.75 -1.29206 -3.21725 0
M  V30 14705 C 1444.81 -2.50097 -3.48927 0
M  V30 14706 C 1444.04 -2.36881 -4.7825 0
M  V30 14707 O 1444.27 -1.38292 -5.53382 0
M  V30 14708 O 1443.2 -3.26266 -5.058 0
M  V30 14709 H 1447.03 -2.39565 -1.86661 0
M  V30 14710 H 1444.61 -1.21775 -0.865522 0
M  V30 14711 H 1446.49 -1.23681 -4.02841 0
M  V30 14712 H 1445.17 -0.358207 -3.21712 0
M  V30 14713 H 1444.07 -2.61199 -2.67817 0
M  V30 14714 H 1445.41 -3.42244 -3.53737 0
M  V30 14715 N 1447.06 0.947303 -1.25952 0
M  V30 14716 C 1447.97 2.07878 -1.08738 0
M  V30 14717 C 1448.99 1.73985 -0.0225212 0
M  V30 14718 O 1450.16 2.00139 -0.224984 0
M  V30 14719 C 1447.23 3.39231 -0.715756 0
M  V30 14720 C 1446.29 3.86945 -1.85935 0
M  V30 14721 C 1445.52 5.1203 -1.50537 0
M  V30 14722 O 1445.74 5.68965 -0.404323 0
M  V30 14723 O 1444.68 5.54634 -2.33805 0
M  V30 14724 H 1448.5 2.25305 -2.03645 0
M  V30 14725 H 1446.09 1.06321 -1.04958 0
M  V30 14726 H 1447.97 4.18167 -0.520962 0
M  V30 14727 H 1446.65 3.23057 0.203978 0
M  V30 14728 H 1445.55 3.08981 -2.10906 0
M  V30 14729 H 1446.89 4.0763 -2.75859 0
M  V30 14730 N 1448.54 1.07657 1.15099 0
M  V30 14731 C 1449.82 0.714608 1.82079 0
M  V30 14732 C 1450.2 -0.802578 1.95248 0
M  V30 14733 O 1449.54 -1.71818 1.50634 0
M  V30 14734 C 1449.75 1.43264 3.1824 0
M  V30 14735 C 1451.1 1.58675 3.93837 0
M  V30 14736 O 1452.13 1.39367 3.27804 0
M  V30 14737 O 1450.98 1.9047 5.12234 0
M  V30 14738 H 1448.08 0.254645 0.786819 0
M  V30 14739 H 1450.62 1.17768 1.22183 0
M  V30 14740 H 1449.4 2.46655 3.03772 0
M  V30 14741 H 1449.02 0.960546 3.85823 0
M  V30 14742 N 1450.02 -1.31994 0.861122 0
M  V30 14743 C 1451.26 -1.96636 0.466754 0
M  V30 14744 C 1451.59 -1.6845 -0.982328 0
M  V30 14745 O 1450.86 -0.995157 -1.68741 0
M  V30 14746 H 1449.44 -0.727489 0.169613 0
M  V30 14747 H 1452.1 -1.60962 1.09897 0
M  V30 14748 H 1451.19 -3.05937 0.61716 0
M  V30 14749 N 1451.49 -0.619688 -1.44906 0
M  V30 14750 C 1452.44 0.0920359 -2.30616 0
M  V30 14751 C 1453.41 0.848114 -1.42815 0
M  V30 14752 O 1454.6 0.831439 -1.71732 0
M  V30 14753 C 1451.74 1.07537 -3.27917 0
M  V30 14754 C 1450.85 0.318904 -4.30821 0
M  V30 14755 C 1449.98 1.29303 -5.15222 0
M  V30 14756 C 1449.02 0.525071 -6.09844 0
M  V30 14757 N 1448.16 1.44909 -6.86983 0
M  V30 14758 H 1453 -0.644834 -2.9094 0
M  V30 14759 H 1450.54 -0.329785 -1.43356 0
M  V30 14760 H 1452.5 1.65874 -3.82808 0
M  V30 14761 H 1451.13 1.7795 -2.6932 0
M  V30 14762 H 1450.18 -0.380192 -3.78495 0
M  V30 14763 H 1451.49 -0.279742 -4.98015 0
M  V30 14764 H 1450.64 1.94809 -5.74573 0
M  V30 14765 H 1449.38 1.92561 -4.48076 0
M  V30 14766 H 1448.39 -0.14355 -5.49613 0
M  V30 14767 H 1449.61 -0.102625 -6.79022 0
M  V30 14768 H 1447.56 2.06908 -6.22515 0
M  V30 14769 H 1447.48 0.90418 -7.50574 0
M  V30 14770 H 1448.74 2.09335 -7.50866 0
M  V30 14771 N 1452.97 1.53444 -0.359552 0
M  V30 14772 C 1454.2 2.05584 0.232953 0
M  V30 14773 C 1454.62 1.23347 1.42937 0
M  V30 14774 O 1453.97 0.272662 1.80452 0
M  V30 14775 C 1454.02 3.55926 0.632359 0
M  V30 14776 O 1453.74 4.35045 -0.516494 0
M  V30 14777 C 1455.25 4.24301 1.28389 0
M  V30 14778 H 1452.47 0.669676 0.042132 0
M  V30 14779 H 1455.01 1.97878 -0.516176 0
M  V30 14780 H 1453.16 3.63802 1.33141 0
M  V30 14781 H 1453.58 5.24138 -0.194906 0
M  V30 14782 H 1455.05 5.30832 1.51397 0
M  V30 14783 H 1455.53 3.77644 2.24236 0
M  V30 14784 H 1456.14 4.20661 0.626438 0
M  V30 14785 N 1454.45 0.0885642 1.57351 0
M  V30 14786 C 1455.41 -0.858178 2.12528 0
M  V30 14787 C 1456.41 -1.21522 1.05304 0
M  V30 14788 O 1457.6 -1.14573 1.3122 0
M  V30 14789 C 1454.74 -2.15619 2.64048 0
M  V30 14790 H 1455.93 -0.37918 2.97493 0
M  V30 14791 H 1453.48 -0.160354 1.55475 0
M  V30 14792 H 1454.22 -2.68018 1.82584 0
M  V30 14793 H 1454 -1.90995 3.42437 0
M  V30 14794 H 1455.49 -2.83359 3.06753 0
M  V30 14795 N 1455.93 -1.56509 -0.185096 0
M  V30 14796 C 1457.16 -1.85327 -0.91986 0
M  V30 14797 C 1457.57 -0.672294 -1.76425 0
M  V30 14798 O 1456.93 0.358854 -1.78937 0
M  V30 14799 C 1456.98 -3.13047 -1.80787 0
M  V30 14800 O 1456.7 -4.26591 -0.997569 0
M  V30 14801 C 1458.2 -3.55114 -2.65347 0
M  V30 14802 H 1455.42 -0.615196 -0.267909 0
M  V30 14803 H 1457.97 -2.03622 -0.189338 0
M  V30 14804 H 1456.12 -2.96619 -2.4919 0
M  V30 14805 H 1456.53 -4.99384 -1.60362 0
M  V30 14806 H 1458.01 -4.47419 -3.23295 0
M  V30 14807 H 1458.49 -2.78576 -3.39547 0
M  V30 14808 H 1459.09 -3.74105 -2.023 0
M  V30 14809 N 1457.41 0.45317 -1.50944 0
M  V30 14810 C 1458.34 1.56678 -1.67287 0
M  V30 14811 C 1459.35 1.53089 -0.553853 0
M  V30 14812 O 1460.54 1.58152 -0.827653 0
M  V30 14813 C 1457.64 2.95585 -1.65779 0
M  V30 14814 C 1456.81 3.2385 -2.94007 0
M  V30 14815 C 1455.87 4.42401 -2.84899 0
M  V30 14816 O 1454.9 4.4183 -3.58853 0
M  V30 14817 N 1456.1 5.4508 -1.99671 0
M  V30 14818 H 1458.87 1.43069 -2.63347 0
M  V30 14819 H 1456.43 0.641875 -1.48632 0
M  V30 14820 H 1458.42 3.7289 -1.57275 0
M  V30 14821 H 1456.99 3.02872 -0.773791 0
M  V30 14822 H 1456.21 2.34991 -3.16501 0
M  V30 14823 H 1457.5 3.39554 -3.7892 0
M  V30 14824 H 1456.89 5.48374 -1.38933 0
M  V30 14825 H 1455.45 6.21298 -1.97057 0
M  V30 14826 N 1458.88 1.40823 0.707568 0
M  V30 14827 C 1460.3 1.35249 1.28704 0
M  V30 14828 C 1460.65 0.0298026 1.96177 0
M  V30 14829 O 1459.77 -0.872126 1.98048 0
M  V30 14830 C 1460.37 2.44965 2.34046 0
M  V30 14831 C 1458.93 2.42826 2.87598 0
M  V30 14832 C 1458.07 2.25429 1.61483 0
M  V30 14833 H 1461.02 1.50513 0.503141 0
M  V30 14834 H 1461.04 2.13334 3.1507 0
M  V30 14835 H 1460.56 3.41219 1.84908 0
M  V30 14836 H 1458.66 1.50294 3.40944 0
M  V30 14837 H 1458.77 3.38704 3.38845 0
M  V30 14838 H 1457.13 1.73089 1.86848 0
M  V30 14839 H 1457.92 3.23693 1.14359 0
M  V30 14840 N 1460.36 -0.94061 1.26453 0
M  V30 14841 C 1461.29 -2.05667 1.10559 0
M  V30 14842 C 1462.27 -1.70097 0.0106258 0
M  V30 14843 O 1463.46 -1.93338 0.182756 0
M  V30 14844 C 1460.59 -3.3936 0.7384 0
M  V30 14845 C 1459.54 -3.88993 1.78517 0
M  V30 14846 C 1458.87 -5.19343 1.27228 0
M  V30 14847 C 1460.17 -4.13812 3.1868 0
M  V30 14848 H 1461.86 -2.19221 2.03918 0
M  V30 14849 H 1459.41 -1.05339 0.98182 0
M  V30 14850 H 1461.36 -4.16902 0.61409 0
M  V30 14851 H 1460.09 -3.25783 -0.230887 0
M  V30 14852 H 1458.74 -3.13633 1.89816 0
M  V30 14853 H 1458.39 -5.02147 0.292816 0
M  V30 14854 H 1458.09 -5.53521 1.97201 0
M  V30 14855 H 1459.62 -5.99468 1.16065 0
M  V30 14856 H 1461.03 -4.81966 3.10455 0
M  V30 14857 H 1459.43 -4.59273 3.86249 0
M  V30 14858 H 1460.5 -3.19571 3.64695 0
M  V30 14859 N 1461.84 -1.08266 -1.14527 0
M  V30 14860 C 1462.77 -0.732968 -2.21698 0
M  V30 14861 C 1463.75 0.283917 -1.67714 0
M  V30 14862 O 1464.94 0.154607 -1.93584 0
M  V30 14863 C 1462.07 -0.139935 -3.47018 0
M  V30 14864 C 1461.02 -1.08501 -4.14019 0
M  V30 14865 C 1460.35 -0.354263 -5.33525 0
M  V30 14866 C 1461.65 -2.42254 -4.62721 0
M  V30 14867 H 1463.34 -1.629 -2.51205 0
M  V30 14868 H 1460.89 -0.784696 -1.20742 0
M  V30 14869 H 1462.84 0.1167 -4.21238 0
M  V30 14870 H 1461.56 0.791228 -3.16871 0
M  V30 14871 H 1460.22 -1.32672 -3.41751 0
M  V30 14872 H 1459.87 0.580658 -4.99637 0
M  V30 14873 H 1459.57 -0.984287 -5.79297 0
M  V30 14874 H 1461.09 -0.105648 -6.10509 0
M  V30 14875 H 1462.51 -2.22357 -5.28422 0
M  V30 14876 H 1460.91 -3.00935 -5.1919 0
M  V30 14877 H 1461.98 -3.03884 -3.77866 0
M  V30 14878 N 1463.32 1.31536 -0.86811 0
M  V30 14879 C 1464.27 2.28562 -0.320602 0
M  V30 14880 C 1465.24 1.55648 0.579902 0
M  V30 14881 O 1466.42 1.83804 0.51194 0
M  V30 14882 C 1463.56 3.41836 0.473499 0
M  V30 14883 C 1462.67 4.29604 -0.454311 0
M  V30 14884 C 1461.81 5.30021 0.353733 0
M  V30 14885 C 1460.85 6.09434 -0.570624 0
M  V30 14886 N 1459.99 7.01812 0.201058 0
M  V30 14887 H 1464.83 2.74782 -1.15322 0
M  V30 14888 H 1462.36 1.35179 -0.580088 0
M  V30 14889 H 1464.32 4.06248 0.949662 0
M  V30 14890 H 1462.95 2.96732 1.27083 0
M  V30 14891 H 1462 3.65653 -1.04892 0
M  V30 14892 H 1463.31 4.85048 -1.16316 0
M  V30 14893 H 1462.47 6.001 0.892484 0
M  V30 14894 H 1461.21 4.75228 1.09589 0
M  V30 14895 H 1460.21 5.38247 -1.12115 0
M  V30 14896 H 1461.44 6.66314 -1.3116 0
M  V30 14897 H 1459.38 6.49431 0.926058 0
M  V30 14898 H 1459.3 7.54668 -0.448494 0
M  V30 14899 H 1460.57 7.76157 0.7211 0
M  V30 14900 N 1464.8 0.627364 1.44575 0
M  V30 14901 C 1465.74 -0.0798044 2.30662 0
M  V30 14902 C 1466.71 -0.840528 1.43263 0
M  V30 14903 O 1467.9 -0.82232 1.7217 0
M  V30 14904 C 1465.04 -1.05796 3.28483 0
M  V30 14905 C 1464.15 -0.296052 4.30984 0
M  V30 14906 C 1463.29 -1.26569 5.15901 0
M  V30 14907 C 1462.33 -0.492722 6.10114 0
M  V30 14908 N 1461.46 -1.41263 6.87742 0
M  V30 14909 H 1466.3 0.660254 2.90594 0
M  V30 14910 H 1463.84 0.337382 1.43179 0
M  V30 14911 H 1465.8 -1.63842 3.83682 0
M  V30 14912 H 1464.43 -1.7652 2.7026 0
M  V30 14913 H 1463.48 0.400259 3.78288 0
M  V30 14914 H 1464.79 0.306149 4.9786 0
M  V30 14915 H 1463.95 -1.9176 5.75598 0
M  V30 14916 H 1462.69 -1.90182 4.4909 0
M  V30 14917 H 1461.69 0.172696 5.49529 0
M  V30 14918 H 1462.92 0.138634 6.78958 0
M  V30 14919 H 1460.86 -2.03604 6.23604 0
M  V30 14920 H 1460.78 -0.864362 7.51042 0
M  V30 14921 H 1462.05 -2.0535 7.51965 0
M  V30 14922 N 1466.28 -1.53251 0.367684 0
M  V30 14923 C 1467.19 -2.29518 -0.485669 0
M  V30 14924 C 1468.2 -1.35568 -1.09075 0
M  V30 14925 O 1469.38 -1.68626 -1.10124 0
M  V30 14926 C 1466.44 -3.07115 -1.60876 0
M  V30 14927 C 1465.5 -4.16736 -1.031 0
M  V30 14928 C 1464.74 -4.90624 -2.10056 0
M  V30 14929 O 1464.96 -4.64393 -3.31203 0
M  V30 14930 O 1463.89 -5.76503 -1.72996 0
M  V30 14931 H 1467.72 -3.034 0.135017 0
M  V30 14932 H 1465.3 -1.48816 0.132005 0
M  V30 14933 H 1467.19 -3.55564 -2.26168 0
M  V30 14934 H 1465.86 -2.36068 -2.21481 0
M  V30 14935 H 1464.77 -3.72534 -0.341928 0
M  V30 14936 H 1466.1 -4.89956 -0.469473 0
M  V30 14937 N 1467.75 -0.0969077 -1.57302 0
M  V30 14938 C 1468.98 0.578086 -1.99181 0
M  V30 14939 C 1469.4 1.60818 -0.975667 0
M  V30 14940 O 1468.76 1.81215 0.0556054 0
M  V30 14941 C 1468.81 1.20076 -3.40021 0
M  V30 14942 O 1467.91 2.31656 -3.41188 0
M  V30 14943 H 1467.25 0.146506 -0.647636 0
M  V30 14944 H 1469.78 -0.178855 -2.03817 0
M  V30 14945 H 1469.79 1.54162 -3.77754 0
M  V30 14946 H 1468.47 0.446114 -4.135 0
M  V30 14947 H 1467.05 1.99175 -3.15252 0
M  V30 14948 N 1469.23 1.56605 0.176793 0
M  V30 14949 C 1470.18 1.95985 1.21896 0
M  V30 14950 C 1471.15 0.822983 1.44278 0
M  V30 14951 O 1472.33 1.08266 1.57109 0
M  V30 14952 C 1469.47 2.32029 2.55454 0
M  V30 14953 C 1468.59 3.58867 2.40497 0
M  V30 14954 C 1467.72 3.84148 3.66884 0
M  V30 14955 C 1466.76 5.04352 3.46837 0
M  V30 14956 N 1465.9 5.25794 4.6528 0
M  V30 14957 H 1470.74 2.84829 0.876137 0
M  V30 14958 H 1468.27 1.4094 0.421221 0
M  V30 14959 H 1470.23 2.50947 3.33289 0
M  V30 14960 H 1468.86 1.46301 2.87743 0
M  V30 14961 H 1467.91 3.47893 1.53866 0
M  V30 14962 H 1469.23 4.46859 2.21627 0
M  V30 14963 H 1468.38 4.03404 4.53155 0
M  V30 14964 H 1467.12 2.9452 3.88727 0
M  V30 14965 H 1466.12 4.84999 2.58952 0
M  V30 14966 H 1467.35 5.95505 3.26421 0
M  V30 14967 H 1465.3 4.39117 4.87352 0
M  V30 14968 H 1465.21 6.07999 4.49303 0
M  V30 14969 H 1466.48 5.49524 5.5285 0
M  V30 14970 N 1470.71 -0.445159 1.51182 0
M  V30 14971 C 1471.96 -1.19288 1.6314 0
M  V30 14972 C 1472.28 -1.91904 0.346109 0
M  V30 14973 O 1471.55 -1.8523 -0.637695 0
M  V30 14974 H 1470.13 -0.443319 0.601229 0
M  V30 14975 H 1472.79 -0.511136 1.88078 0
M  V30 14976 H 1471.89 -1.92672 2.45528 0
M  V30 14977 N 1472.19 -1.41197 -0.700089 0
M  V30 14978 C 1473.6 -1.3593 -1.27985 0
M  V30 14979 C 1473.95 -0.0402059 -1.96159 0
M  V30 14980 O 1473.07 0.861611 -1.98508 0
M  V30 14981 C 1473.67 -2.46203 -2.32743 0
M  V30 14982 C 1472.23 -2.44348 -2.86306 0
M  V30 14983 C 1471.38 -2.26283 -1.60285 0
M  V30 14984 H 1474.33 -1.50778 -0.495152 0
M  V30 14985 H 1474.35 -2.15001 -3.13934 0
M  V30 14986 H 1473.86 -3.42195 -1.83096 0
M  V30 14987 H 1471.96 -1.521 -3.40142 0
M  V30 14988 H 1472.07 -3.40497 -3.37044 0
M  V30 14989 H 1470.44 -1.74078 -1.85928 0
M  V30 14990 H 1471.22 -3.24295 -1.1264 0
M  V30 14991 N 1473.67 0.933891 -1.2695 0
M  V30 14992 C 1474.91 1.67539 -1.1231 0
M  V30 14993 C 1475.23 1.92765 0.331788 0
M  V30 14994 O 1476.43 2.6481 0.598983 0
M  V30 14995 C 1474.89 3.01722 -1.96194 0
M  V30 14996 C 1474.5 2.84216 -3.46302 0
M  V30 14997 C 1476.24 3.79513 -1.90185 0
M  V30 14998 C 1474.15 4.13916 -4.22407 0
M  V30 14999 H 1473.08 0.62839 -0.416704 0
M  V30 15000 H 1475.73 1.03801 -1.5132 0
M  V30 15001 H 1474.11 3.66482 -1.50023 0
M  V30 15002 H 1475.29 2.28261 -4.00292 0
M  V30 15003 H 1473.6 2.1986 -3.53625 0
M  V30 15004 H 1476.2 4.75615 -2.44325 0
M  V30 15005 H 1476.54 4.07019 -0.874129 0
M  V30 15006 H 1477.07 3.21539 -2.34217 0
M  V30 15007 H 1473.81 3.91591 -5.25677 0
M  V30 15008 H 1473.33 4.69558 -3.73196 0
M  V30 15009 H 1475.01 4.82322 -4.31248 0
M  V30 15010 N 1475.14 1.08871 1.13951 0
M  V30 15011 C 1476.39 0.822504 1.85372 0
M  V30 15012 C 1476.72 -0.650183 1.82993 0
M  V30 15013 O 1476 -1.4783 1.26398 0
M  V30 15014 C 1476.28 1.35107 3.33793 0
M  V30 15015 C 1476.13 2.88945 3.44719 0
M  V30 15016 C 1477.45 0.980203 4.29045 0
M  V30 15017 H 1474.57 0.300255 0.673065 0
M  V30 15018 H 1477.21 1.34914 1.33784 0
M  V30 15019 H 1475.36 0.903108 3.77857 0
M  V30 15020 H 1477.04 3.42148 3.09407 0
M  V30 15021 H 1475.28 3.26365 2.85777 0
M  V30 15022 H 1475.95 3.21004 4.49066 0
M  V30 15023 H 1478.43 1.36646 3.93023 0
M  V30 15024 H 1477.3 1.37717 5.31343 0
M  V30 15025 H 1477.56 -0.112253 4.41957 0
M  V30 15026 N 1476.62 -1.31073 0.875073 0
M  V30 15027 C 1478.03 -1.78707 0.540422 0
M  V30 15028 C 1478.38 -1.72056 -0.942935 0
M  V30 15029 O 1477.51 -1.29139 -1.73643 0
M  V30 15030 C 1478.1 -3.24491 0.974203 0
M  V30 15031 C 1476.66 -3.70001 0.691127 0
M  V30 15032 C 1475.81 -2.51748 1.16269 0
M  V30 15033 H 1478.76 -1.18083 1.06029 0
M  V30 15034 H 1478.78 -3.79323 0.299003 0
M  V30 15035 H 1478.29 -3.29301 2.05384 0
M  V30 15036 H 1476.39 -3.70688 -0.376937 0
M  V30 15037 H 1476.51 -4.61913 1.27173 0
M  V30 15038 H 1474.87 -2.47954 0.582302 0
M  V30 15039 H 1475.65 -2.59299 2.24986 0
M  V30 15040 N 1478.1 -0.635022 -1.4424 0
M  V30 15041 C 1479.03 0.0543561 -2.33437 0
M  V30 15042 C 1480.01 0.830807 -1.48431 0
M  V30 15043 O 1481.2 0.795913 -1.77141 0
M  V30 15044 C 1478.33 1.03391 -3.31553 0
M  V30 15045 C 1477.28 0.368824 -4.26408 0
M  V30 15046 C 1476.61 1.45855 -5.14422 0
M  V30 15047 C 1477.91 -0.727381 -5.1721 0
M  V30 15048 H 1479.6 -0.690489 -2.91329 0
M  V30 15049 H 1477.15 -0.3335 -1.40085 0
M  V30 15050 H 1479.1 1.52495 -3.9284 0
M  V30 15051 H 1477.82 1.80969 -2.71878 0
M  V30 15052 H 1476.48 -0.101605 -3.66459 0
M  V30 15053 H 1476.13 2.22531 -4.51098 0
M  V30 15054 H 1475.83 1.0189 -5.78699 0
M  V30 15055 H 1477.35 1.95132 -5.78581 0
M  V30 15056 H 1478.77 -0.319272 -5.7241 0
M  V30 15057 H 1477.17 -1.09041 -5.9011 0
M  V30 15058 H 1478.24 -1.59292 -4.57989 0
M  V30 15059 N 1479.58 1.53054 -0.375806 0
M  V30 15060 C 1480.53 2.27576 0.480838 0
M  V30 15061 C 1481.52 1.30948 1.07466 0
M  V30 15062 O 1482.73 1.48538 1.01669 0
M  V30 15063 H 1479.1 0.731641 0.173799 0
M  V30 15064 H 1481.07 2.97919 -0.169327 0
M  V30 15065 C 1479.82 3.08533 1.60321 0
M  V30 15066 H 1479.14 3.82735 1.15558 0
M  V30 15067 H 1480.58 3.63837 2.17712 0
M  V30 15068 C 1479.04 2.20004 2.55147 0
M  V30 15069 O 1479.57 1.81771 3.58221 0
M  V30 15070 N 1477.78 1.84433 2.24573 0
M  V30 15071 H 1477.33 2.15723 1.40788 0
M  V30 15072 H 1477.28 1.25488 2.88271 0
M  V30 15073 N 1481.06 0.105248 1.57248 0
M  V30 15074 C 1482.3 -0.556878 1.95004 0
M  V30 15075 C 1482.64 -1.672 0.987818 0
M  V30 15076 O 1481.91 -1.94487 0.022616 0
M  V30 15077 C 1482.19 -1.10252 3.42807 0
M  V30 15078 C 1482.05 0.00823908 4.49799 0
M  V30 15079 C 1483.37 -1.99774 3.92146 0
M  V30 15080 H 1480.48 -0.200959 0.709073 0
M  V30 15081 H 1483.13 0.178019 1.89164 0
M  V30 15082 H 1481.28 -1.7288 3.47915 0
M  V30 15083 H 1482.95 0.642944 4.56797 0
M  V30 15084 H 1481.19 0.673265 4.28544 0
M  V30 15085 H 1481.86 -0.414538 5.50441 0
M  V30 15086 H 1484.34 -1.47036 3.89255 0
M  V30 15087 H 1483.21 -2.34874 4.9611 0
M  V30 15088 H 1483.48 -2.91902 3.32033 0
M  V30 15089 N 1482.53 -1.56697 -0.168486 0
M  V30 15090 C 1483.5 -1.95744 -1.19235 0
M  V30 15091 C 1484.5 -0.841419 -1.37028 0
M  V30 15092 O 1485.69 -1.10842 -1.34386 0
M  V30 15093 C 1482.82 -2.25471 -2.55686 0
M  V30 15094 H 1484.01 -2.87368 -0.857892 0
M  V30 15095 H 1481.57 -1.50798 -0.411041 0
M  V30 15096 H 1482.3 -1.36571 -2.94141 0
M  V30 15097 H 1482.09 -3.06822 -2.44137 0
M  V30 15098 H 1483.58 -2.56593 -3.29469 0
M  V30 15099 N 1484.01 0.437135 -1.51416 0
M  V30 15100 C 1485.29 1.1978 -1.54636 0
M  V30 15101 C 1485.67 2.088 -0.310747 0
M  V30 15102 O 1485.02 2.1738 0.704148 0
M  V30 15103 C 1485.23 1.99947 -2.86046 0
M  V30 15104 C 1486.58 2.56981 -3.38003 0
M  V30 15105 O 1487.6 2.10157 -2.87598 0
M  V30 15106 O 1486.46 3.42383 -4.25953 0
M  V30 15107 H 1483.55 0.545346 -0.621713 0
M  V30 15108 H 1486.1 0.446189 -1.63729 0
M  V30 15109 H 1484.87 1.34564 -3.67435 0
M  V30 15110 H 1484.49 2.82172 -2.80115 0
M  V30 15111 N 1485.49 1.41566 0.692592 0
M  V30 15112 C 1486.42 1.39582 1.81795 0
M  V30 15113 C 1487.44 0.29754 1.60058 0
M  V30 15114 O 1488.62 0.559463 1.69506 0
M  V30 15115 C 1485.72 1.15506 3.18609 0
M  V30 15116 C 1484.9 2.37432 3.67349 0
M  V30 15117 C 1483.96 2.09168 4.82841 0
M  V30 15118 O 1482.98 2.8223 4.94303 0
M  V30 15119 N 1484.18 1.08377 5.70294 0
M  V30 15120 H 1486.95 2.36577 1.83988 0
M  V30 15121 H 1484.51 1.36216 0.875026 0
M  V30 15122 H 1486.5 0.945452 3.93501 0
M  V30 15123 H 1485.07 0.270987 3.11423 0
M  V30 15124 H 1484.29 2.74076 2.8333 0
M  V30 15125 H 1485.58 3.18661 3.96652 0
M  V30 15126 H 1484.98 0.479122 5.63667 0
M  V30 15127 H 1483.54 0.934042 6.45073 0
M  V30 15128 N 1486.97 -0.927146 1.27443 0
M  V30 15129 C 1487.92 -2.02783 1.10216 0
M  V30 15130 C 1488.89 -1.661 0.00307842 0
M  V30 15131 O 1490.07 -1.90081 0.165508 0
M  V30 15132 C 1487.21 -3.36718 0.755984 0
M  V30 15133 C 1486.32 -3.86353 1.93276 0
M  V30 15134 C 1485.46 -5.08737 1.52841 0
M  V30 15135 C 1484.5 -5.50669 2.67263 0
M  V30 15136 N 1483.63 -6.6425 2.27413 0
M  V30 15137 H 1488.47 -2.16851 2.04401 0
M  V30 15138 H 1486.01 -1.06232 1.0175 0
M  V30 15139 H 1487.97 -4.13741 0.53609 0
M  V30 15140 H 1486.6 -3.22456 -0.148909 0
M  V30 15141 H 1485.65 -3.05604 2.26518 0
M  V30 15142 H 1486.96 -4.13401 2.79108 0
M  V30 15143 H 1486.12 -5.93263 1.26979 0
M  V30 15144 H 1484.86 -4.83467 0.641187 0
M  V30 15145 H 1483.86 -4.64692 2.93839 0
M  V30 15146 H 1485.09 -5.77934 3.56607 0
M  V30 15147 H 1483.03 -6.40636 1.41143 0
M  V30 15148 H 1482.95 -6.90955 3.06784 0
M  V30 15149 H 1484.22 -7.52115 2.048 0
M  V30 15150 N 1488.45 -1.09474 -1.13372 0
M  V30 15151 C 1489.38 -0.756441 -2.20908 0
M  V30 15152 C 1490.36 0.266113 -1.68006 0
M  V30 15153 O 1491.54 0.134067 -1.93737 0
M  V30 15154 C 1488.67 -0.176733 -3.4685 0
M  V30 15155 C 1487.63 -1.12886 -4.12845 0
M  V30 15156 C 1486.95 -0.410831 -5.33119 0
M  V30 15157 C 1488.25 -2.47148 -4.60125 0
M  V30 15158 H 1489.95 -1.65555 -2.49463 0
M  V30 15159 H 1487.49 -0.797458 -1.19902 0
M  V30 15160 H 1489.45 0.0720151 -4.21338 0
M  V30 15161 H 1488.17 0.757576 -3.17692 0
M  V30 15162 H 1486.83 -1.36289 -3.40325 0
M  V30 15163 H 1486.48 0.527632 -5.00225 0
M  V30 15164 H 1486.18 -1.04567 -5.78221 0
M  V30 15165 H 1487.7 -0.170394 -6.10362 0
M  V30 15166 H 1489.11 -2.27949 -5.26034 0
M  V30 15167 H 1487.51 -3.06425 -5.15969 0
M  V30 15168 H 1488.58 -3.07874 -3.74622 0
M  V30 15169 N 1489.92 1.30607 -0.882012 0
M  V30 15170 C 1490.85 2.30666 -0.362706 0
M  V30 15171 C 1491.84 1.60865 0.552861 0
M  V30 15172 O 1493.02 1.88493 0.467339 0
M  V30 15173 C 1490.15 3.44675 0.42622 0
M  V30 15174 C 1489.1 4.26152 -0.397322 0
M  V30 15175 C 1488.43 5.32185 0.518027 0
M  V30 15176 C 1489.73 4.95955 -1.63785 0
M  V30 15177 H 1491.42 2.74351 -1.19883 0
M  V30 15178 H 1488.97 1.31895 -0.577912 0
M  V30 15179 H 1490.92 4.13734 0.80013 0
M  V30 15180 H 1489.65 2.99787 1.29597 0
M  V30 15181 H 1488.31 3.58776 -0.753332 0
M  V30 15182 H 1487.95 4.83545 1.3854 0
M  V30 15183 H 1487.65 5.87593 -0.0291802 0
M  V30 15184 H 1489.18 6.04101 0.888518 0
M  V30 15185 H 1490.59 5.57547 -1.3347 0
M  V30 15186 H 1488.99 5.61215 -2.12504 0
M  V30 15187 H 1490.06 4.22252 -2.38394 0
M  V30 15188 N 1491.4 0.642663 1.43901 0
M  V30 15189 C 1492.31 -0.0562462 2.34533 0
M  V30 15190 C 1493.33 -0.823457 1.53281 0
M  V30 15191 O 1494.5 -0.773103 1.85971 0
M  V30 15192 C 1491.57 -1.01787 3.31422 0
M  V30 15193 C 1490.63 -0.248759 4.28579 0
M  V30 15194 C 1489.86 -1.16458 5.20839 0
M  V30 15195 O 1490.09 -2.40361 5.17284 0
M  V30 15196 O 1489.02 -0.642671 5.98459 0
M  V30 15197 H 1492.85 0.689476 2.9577 0
M  V30 15198 H 1490.43 0.402847 1.43866 0
M  V30 15199 H 1492.31 -1.5708 3.91029 0
M  V30 15200 H 1490.99 -1.744 2.72702 0
M  V30 15201 H 1489.9 0.347495 3.72483 0
M  V30 15202 H 1491.23 0.437589 4.90251 0
M  V30 15203 N 1492.88 -1.52852 0.383918 0
M  V30 15204 C 1493.84 -2.24904 -0.441687 0
M  V30 15205 C 1494.84 -1.26345 -0.99466 0
M  V30 15206 O 1496.03 -1.50484 -0.877513 0
M  V30 15207 C 1493.17 -2.99994 -1.61915 0
M  V30 15208 H 1494.36 -2.99304 0.189047 0
M  V30 15209 H 1491.91 -1.55708 0.135932 0
M  V30 15210 H 1492.65 -2.29882 -2.28746 0
M  V30 15211 H 1492.43 -3.72328 -1.2294 0
M  V30 15212 H 1493.92 -3.54716 -2.20378 0
M  V30 15213 N 1494.36 -0.113586 -1.5719 0
M  V30 15214 C 1495.58 0.556928 -1.99783 0
M  V30 15215 C 1496.01 1.59774 -0.992669 0
M  V30 15216 O 1495.37 1.81263 0.0363821 0
M  V30 15217 C 1495.42 1.16463 -3.41275 0
M  V30 15218 O 1494.52 2.28024 -3.43626 0
M  V30 15219 H 1493.86 0.139628 -0.649153 0
M  V30 15220 H 1496.39 -0.200462 -2.03616 0
M  V30 15221 H 1496.4 1.50147 -3.79368 0
M  V30 15222 H 1495.08 0.402232 -4.1395 0
M  V30 15223 H 1493.65 1.9582 -3.17347 0
M  V30 15224 N 1495.84 1.56784 0.160173 0
M  V30 15225 C 1497.07 1.86767 0.89026 0
M  V30 15226 C 1497.48 0.700276 1.75333 0
M  V30 15227 O 1496.84 -0.330342 1.79485 0
M  V30 15228 C 1496.89 3.15883 1.75784 0
M  V30 15229 O 1496.61 4.28124 0.929575 0
M  V30 15230 C 1498.11 3.5929 2.59664 0
M  V30 15231 H 1495.33 0.61938 0.258088 0
M  V30 15232 H 1497.87 2.03897 0.156919 0
M  V30 15233 H 1496.03 3.00546 2.4444 0
M  V30 15234 H 1496.44 5.01872 1.52397 0
M  V30 15235 H 1497.92 4.52506 3.16136 0
M  V30 15236 H 1498.39 2.83943 3.35072 0
M  V30 15237 H 1499 3.77277 1.96323 0
M  V30 15238 N 1497.32 -0.429099 1.51646 0
M  V30 15239 C 1498.25 -1.53996 1.69758 0
M  V30 15240 C 1499.26 -1.52189 0.578138 0
M  V30 15241 O 1500.45 -1.56816 0.852709 0
M  V30 15242 C 1497.55 -2.9291 1.7046 0
M  V30 15243 C 1496.72 -3.19132 2.99122 0
M  V30 15244 C 1495.78 -4.37813 2.91901 0
M  V30 15245 O 1494.81 -4.36065 3.65836 0
M  V30 15246 N 1496.01 -5.41834 2.08317 0
M  V30 15247 H 1498.77 -1.38861 2.65589 0
M  V30 15248 H 1496.34 -0.618148 1.49635 0
M  V30 15249 H 1498.33 -3.7034 1.63187 0
M  V30 15250 H 1496.9 -3.01602 0.821877 0
M  V30 15251 H 1496.12 -2.29926 3.20199 0
M  V30 15252 H 1497.41 -3.33483 3.84274 0
M  V30 15253 H 1496.8 -5.46094 1.4764 0
M  V30 15254 H 1495.36 -6.18085 2.06917 0
M  V30 15255 N 1498.79 -1.41931 -0.685074 0
M  V30 15256 C 1500.04 -1.41852 -1.44514 0
M  V30 15257 C 1500.37 -0.0313137 -1.94475 0
M  V30 15258 O 1499.62 0.958606 -1.70614 0
M  V30 15259 C 1499.92 -2.38099 -2.6654 0
M  V30 15260 C 1499.59 -3.8471 -2.35178 0
M  V30 15261 C 1498.25 -4.24647 -2.26336 0
M  V30 15262 C 1500.6 -4.77232 -2.0952 0
M  V30 15263 C 1497.93 -5.55101 -1.89947 0
M  V30 15264 C 1500.28 -6.08017 -1.74638 0
M  V30 15265 C 1498.95 -6.46964 -1.64299 0
M  V30 15266 H 1498.22 -0.519072 -0.528815 0
M  V30 15267 H 1500.86 -1.74802 -0.782078 0
M  V30 15268 H 1499.17 -1.9844 -3.3783 0
M  V30 15269 H 1500.87 -2.35306 -3.24703 0
M  V30 15270 H 1497.46 -3.53085 -2.42959 0
M  V30 15271 H 1501.64 -4.47173 -2.1529 0
M  V30 15272 H 1496.9 -5.84148 -1.80503 0
M  V30 15273 H 1501.07 -6.79203 -1.53807 0
M  V30 15274 H 1498.7 -7.47959 -1.35871 0
M  V30 15275 N 1500.27 0.920374 -1.27933 0
M  V30 15276 C 1501.2 2.02644 -1.07089 0
M  V30 15277 C 1502.22 1.62781 -0.024674 0
M  V30 15278 O 1503.41 1.76491 -0.267023 0
M  V30 15279 C 1500.51 3.33476 -0.603919 0
M  V30 15280 C 1499.68 4.01988 -1.72407 0
M  V30 15281 C 1498.74 5.11098 -1.25159 0
M  V30 15282 O 1497.76 5.3466 -1.95261 0
M  V30 15283 N 1498.97 5.80393 -0.111197 0
M  V30 15284 H 1501.73 2.21085 -2.0234 0
M  V30 15285 H 1499.29 1.09124 -1.19597 0
M  V30 15286 H 1501.28 4.03788 -0.271579 0
M  V30 15287 H 1499.85 3.11554 0.255557 0
M  V30 15288 H 1499.07 3.25312 -2.22633 0
M  V30 15289 H 1500.36 4.4451 -2.47566 0
M  V30 15290 H 1499.76 5.63713 0.473746 0
M  V30 15291 H 1498.32 6.51599 0.161912 0
M  V30 15292 N 1501.75 1.10074 1.1279 0
M  V30 15293 C 1502.7 0.746173 2.18405 0
M  V30 15294 C 1503.67 -0.275751 1.63795 0
M  V30 15295 O 1504.85 -0.155876 1.90162 0
M  V30 15296 C 1501.99 0.180105 3.4463 0
M  V30 15297 C 1501.1 1.25688 4.13312 0
M  V30 15298 C 1500.24 0.652852 5.27173 0
M  V30 15299 C 1499.28 1.71046 5.87716 0
M  V30 15300 N 1498.42 1.12698 6.92996 0
M  V30 15301 H 1503.26 1.65105 2.48081 0
M  V30 15302 H 1500.79 0.824768 1.21803 0
M  V30 15303 H 1502.75 -0.165948 4.1687 0
M  V30 15304 H 1501.38 -0.688014 3.15383 0
M  V30 15305 H 1500.43 1.72011 3.39288 0
M  V30 15306 H 1501.74 2.05762 4.54382 0
M  V30 15307 H 1500.9 0.25603 6.0616 0
M  V30 15308 H 1499.64 -0.17937 4.8737 0
M  V30 15309 H 1498.64 2.11676 5.07418 0
M  V30 15310 H 1499.87 2.54547 6.29589 0
M  V30 15311 H 1497.81 0.316154 6.55238 0
M  V30 15312 H 1497.73 1.86461 7.32645 0
M  V30 15313 H 1499 0.756582 7.7582 0
M  V30 15314 N 1503.23 -1.30138 0.888926 0
M  V30 15315 C 1504.17 -2.28023 0.356923 0
M  V30 15316 C 1505.14 -1.56551 -0.555066 0
M  V30 15317 O 1506.33 -1.84595 -0.482633 0
M  V30 15318 C 1503.47 -3.42546 -0.419056 0
M  V30 15319 C 1502.58 -4.28827 0.5226 0
M  V30 15320 C 1501.72 -5.30517 -0.269366 0
M  V30 15321 C 1500.76 -6.08449 0.667507 0
M  V30 15322 N 1499.89 -7.02043 -0.08938 0
M  V30 15323 H 1504.73 -2.72912 1.19678 0
M  V30 15324 H 1502.27 -1.34239 0.60152 0
M  V30 15325 H 1504.23 -4.07707 -0.884911 0
M  V30 15326 H 1502.86 -2.98716 -1.22346 0
M  V30 15327 H 1501.91 -3.63938 1.10695 0
M  V30 15328 H 1503.22 -4.83136 1.24018 0
M  V30 15329 H 1502.38 -6.01444 -0.796901 0
M  V30 15330 H 1501.12 -4.76911 -1.02014 0
M  V30 15331 H 1500.12 -5.36396 1.20664 0
M  V30 15332 H 1501.35 -6.64143 1.41744 0
M  V30 15333 H 1499.29 -6.50822 -0.822622 0
M  V30 15334 H 1499.21 -7.53859 0.568499 0
M  V30 15335 H 1500.48 -7.77206 -0.597529 0
M  V30 15336 N 1504.71 -0.650285 -1.43559 0
M  V30 15337 C 1505.64 0.0817484 -2.29054 0
M  V30 15338 C 1506.65 0.790023 -1.42346 0
M  V30 15339 O 1507.84 0.648269 -1.66312 0
M  V30 15340 C 1504.94 1.13873 -3.19196 0
M  V30 15341 C 1504.11 0.509177 -4.34426 0
M  V30 15342 C 1503.17 1.46265 -5.05463 0
M  V30 15343 O 1502.2 0.972378 -5.60833 0
M  V30 15344 N 1503.4 2.79668 -5.08691 0
M  V30 15345 H 1506.16 -0.652062 -2.92521 0
M  V30 15346 H 1503.73 -0.49285 -1.54216 0
M  V30 15347 H 1505.72 1.77732 -3.63584 0
M  V30 15348 H 1504.29 1.77454 -2.5735 0
M  V30 15349 H 1503.51 -0.308444 -3.92991 0
M  V30 15350 H 1504.8 0.0695732 -5.08752 0
M  V30 15351 H 1504.19 3.22062 -4.65072 0
M  V30 15352 H 1502.75 3.38838 -5.56805 0
M  V30 15353 N 1506.18 1.52647 -0.392018 0
M  V30 15354 C 1507.43 2.01215 0.188926 0
M  V30 15355 C 1507.75 1.28019 1.47092 0
M  V30 15356 O 1507.02 0.401048 1.91751 0
M  V30 15357 H 1505.6 0.743444 0.0728049 0
M  V30 15358 H 1508.26 1.87715 -0.524332 0
M  V30 15359 H 1507.36 3.09562 0.397216 0
M  V30 15360 N 1507.66 0.121921 1.57128 0
M  V30 15361 C 1508.61 -0.827205 2.15467 0
M  V30 15362 C 1509.58 -1.26155 1.08047 0
M  V30 15363 O 1510.76 -1.33855 1.35969 0
M  V30 15364 C 1507.9 -2.07077 2.76067 0
M  V30 15365 C 1507.02 -1.68452 3.97804 0
M  V30 15366 C 1506.15 -2.87797 4.46482 0
M  V30 15367 C 1505.19 -2.45426 5.60743 0
M  V30 15368 N 1504.33 -3.57695 6.04151 0
M  V30 15369 H 1509.17 -0.322879 2.96246 0
M  V30 15370 H 1506.71 -0.147677 1.46357 0
M  V30 15371 H 1508.66 -2.79943 3.09335 0
M  V30 15372 H 1507.29 -2.54963 1.97974 0
M  V30 15373 H 1506.35 -0.854487 3.70679 0
M  V30 15374 H 1507.66 -1.33316 4.80654 0
M  V30 15375 H 1506.81 -3.68885 4.81673 0
M  V30 15376 H 1505.55 -3.26162 3.62587 0
M  V30 15377 H 1504.56 -1.62772 5.25153 0
M  V30 15378 H 1505.78 -2.08175 6.46405 0
M  V30 15379 H 1503.73 -3.95728 5.23197 0
M  V30 15380 H 1503.64 -3.26491 6.81865 0
M  V30 15381 H 1504.91 -4.39213 6.43981 0
M  V30 15382 N 1509.14 -1.56867 -0.151857 0
M  V30 15383 C 1510.09 -1.98842 -1.20685 0
M  V30 15384 C 1511.08 -0.88007 -1.44745 0
M  V30 15385 O 1512.29 -1.06524 -1.45095 0
M  V30 15386 H 1508.66 -0.632904 -0.406123 0
M  V30 15387 H 1510.63 -2.86737 -0.826095 0
M  V30 15388 C 1509.38 -2.38095 -2.53389 0
M  V30 15389 H 1508.71 -3.2293 -2.35703 0
M  V30 15390 H 1510.15 -2.71292 -3.25847 0
M  V30 15391 C 1508.61 -1.23175 -3.13575 0
M  V30 15392 O 1509.14 -0.529864 -3.9819 0
M  V30 15393 N 1507.34 -0.997255 -2.72953 0
M  V30 15394 H 1506.89 -1.56979 -2.04243 0
M  V30 15395 H 1506.85 -0.23022 -3.13556 0
M  V30 15396 N 1510.62 0.421051 -1.51871 0
M  V30 15397 C 1511.85 1.1911 -1.69175 0
M  V30 15398 C 1512.26 1.84599 -0.39606 0
M  V30 15399 O 1511.62 1.71395 0.626907 0
M  V30 15400 C 1511.67 2.26309 -2.81898 0
M  V30 15401 O 1511.39 1.63496 -4.06449 0
M  V30 15402 C 1512.89 3.16285 -3.10611 0
M  V30 15403 H 1510.11 0.358385 -0.567275 0
M  V30 15404 H 1512.66 0.496919 -1.98371 0
M  V30 15405 H 1510.81 2.91416 -2.55255 0
M  V30 15406 H 1511.22 2.3447 -4.69174 0
M  V30 15407 H 1512.7 3.87601 -3.93026 0
M  V30 15408 H 1513.18 3.77976 -2.23676 0
M  V30 15409 H 1513.78 2.5686 -3.38973 0
M  V30 15410 N 1512.1 1.42293 0.677538 0
M  V30 15411 C 1513.35 1.41909 1.43334 0
M  V30 15412 C 1513.66 0.037951 1.95563 0
M  V30 15413 O 1514.86 -0.0884836 2.71356 0
M  V30 15414 C 1513.32 2.49608 2.59275 0
M  V30 15415 C 1512.93 3.93716 2.13757 0
M  V30 15416 C 1514.67 2.58387 3.36803 0
M  V30 15417 C 1512.58 4.92929 3.26764 0
M  V30 15418 H 1511.51 0.527803 0.538461 0
M  V30 15419 H 1514.16 1.6819 0.733791 0
M  V30 15420 H 1512.54 2.16488 3.31585 0
M  V30 15421 H 1513.72 4.36176 1.48618 0
M  V30 15422 H 1512.03 3.88762 1.49175 0
M  V30 15423 H 1514.63 3.29691 4.20961 0
M  V30 15424 H 1514.97 1.62653 3.8321 0
M  V30 15425 H 1515.5 2.90688 2.71561 0
M  V30 15426 H 1512.24 5.90131 2.85352 0
M  V30 15427 H 1511.76 4.55103 3.90694 0
M  V30 15428 H 1513.44 5.1452 3.92273 0
M  V30 15429 N 1513.57 -0.913576 1.28419 0
M  V30 15430 C 1514.85 -1.64203 1.06285 0
M  V30 15431 C 1515.23 -2.07319 -0.397728 0
M  V30 15432 O 1514.58 -1.8183 -1.38383 0
M  V30 15433 C 1514.79 -2.8334 2.03763 0
M  V30 15434 C 1516.14 -3.54355 2.33918 0
M  V30 15435 O 1517.16 -2.93489 2.01848 0
M  V30 15436 O 1516.02 -4.6405 2.88652 0
M  V30 15437 H 1513.11 -0.720359 0.406217 0
M  V30 15438 H 1515.66 -0.962866 1.39739 0
M  V30 15439 H 1514.43 -2.48575 3.02203 0
M  V30 15440 H 1514.06 -3.5897 1.70956 0
M  V30 15441 N 1515.05 -1.1067 -1.12204 0
M  V30 15442 C 1516.3 -0.85189 -1.8404 0
M  V30 15443 C 1516.63 0.620988 -1.84004 0
M  V30 15444 O 1515.91 1.45801 -1.28734 0
M  V30 15445 C 1516.19 -1.40401 -3.31602 0
M  V30 15446 C 1516.04 -2.94392 -3.40078 0
M  V30 15447 C 1517.36 -1.04834 -4.27432 0
M  V30 15448 H 1514.48 -0.310924 -0.668203 0
M  V30 15449 H 1517.12 -1.37026 -1.3162 0
M  V30 15450 H 1515.27 -0.963107 -3.76373 0
M  V30 15451 H 1516.94 -3.47027 -3.03924 0
M  V30 15452 H 1515.19 -3.3087 -2.80548 0
M  V30 15453 H 1515.86 -3.28107 -4.43903 0
M  V30 15454 H 1518.33 -1.42882 -3.90799 0
M  V30 15455 H 1517.21 -1.46153 -5.29085 0
M  V30 15456 H 1517.47 0.0419272 -4.4208 0
M  V30 15457 N 1516.53 1.29665 -0.895815 0
M  V30 15458 C 1517.78 1.96376 -0.529921 0
M  V30 15459 C 1518.13 1.69358 0.912991 0
M  V30 15460 O 1517.42 0.993893 1.63806 0
M  V30 15461 C 1517.62 3.49355 -0.754025 0
M  V30 15462 C 1517.45 3.91244 -2.21717 0
M  V30 15463 C 1516.22 4.16307 -2.86386 0
M  V30 15464 C 1518.42 4.03256 -3.19201 0
M  V30 15465 N 1516.4 4.44735 -4.23184 0
M  V30 15466 C 1517.77 4.35691 -4.41105 0
M  V30 15467 C 1519.82 3.85718 -3.14843 0
M  V30 15468 C 1518.53 4.52416 -5.59207 0
M  V30 15469 C 1520.55 4.0365 -4.32227 0
M  V30 15470 C 1519.91 4.36441 -5.529 0
M  V30 15471 H 1516.01 0.743141 -0.243445 0
M  V30 15472 H 1518.6 1.56681 -1.15581 0
M  V30 15473 H 1516.77 3.8808 -0.157541 0
M  V30 15474 H 1518.5 4.03149 -0.353953 0
M  V30 15475 H 1515.26 4.09919 -2.37199 0
M  V30 15476 H 1515.68 4.63064 -4.93863 0
M  V30 15477 H 1520.32 3.59433 -2.22638 0
M  V30 15478 H 1518.04 4.77539 -6.51907 0
M  V30 15479 H 1521.63 3.91537 -4.30337 0
M  V30 15480 H 1520.51 4.50029 -6.42218 0
M  V30 15481 N 1518.01 0.657889 1.43212 0
M  V30 15482 C 1519.25 0.182061 2.02584 0
M  V30 15483 C 1519.61 -1.19232 1.51002 0
M  V30 15484 O 1518.9 -1.78535 0.6954 0
M  V30 15485 C 1519.1 0.138025 3.57133 0
M  V30 15486 C 1518.93 1.5066 4.23712 0
M  V30 15487 C 1517.7 2.10015 4.59589 0
M  V30 15488 C 1519.89 2.44593 4.52414 0
M  V30 15489 N 1517.88 3.39828 5.11263 0
M  V30 15490 C 1519.25 3.59044 5.05457 0
M  V30 15491 C 1521.3 2.43337 4.34387 0
M  V30 15492 C 1520 4.7247 5.4237 0
M  V30 15493 C 1522.03 3.55846 4.72364 0
M  V30 15494 C 1521.39 4.69023 5.25544 0
M  V30 15495 H 1517.49 0.111158 0.774059 0
M  V30 15496 H 1520.08 0.867208 1.7432 0
M  V30 15497 H 1518.25 -0.516479 3.84951 0
M  V30 15498 H 1519.98 -0.34911 4.03191 0
M  V30 15499 H 1516.73 1.62676 4.44785 0
M  V30 15500 H 1517.16 4.06269 5.41548 0
M  V30 15501 H 1521.8 1.57072 3.92541 0
M  V30 15502 H 1519.52 5.59423 5.83157 0
M  V30 15503 H 1523.1 3.56081 4.60106 0
M  V30 15504 H 1521.98 5.54641 5.54385 0
M  V30 15505 N 1519.49 -1.52437 0.400108 0
M  V30 15506 C 1520.42 -2.29672 -0.421054 0
M  V30 15507 C 1521.4 -1.33506 -1.05405 0
M  V30 15508 O 1522.58 -1.62408 -1.06477 0
M  V30 15509 C 1519.71 -3.1115 -1.54281 0
M  V30 15510 C 1518.67 -4.1529 -1.0353 0
M  V30 15511 C 1517.99 -4.85058 -2.24996 0
M  V30 15512 C 1519.29 -5.22212 -0.0956529 0
M  V30 15513 H 1520.99 -2.98565 0.2234 0
M  V30 15514 H 1518.53 -1.43588 0.108883 0
M  V30 15515 H 1520.49 -3.63945 -2.12419 0
M  V30 15516 H 1519.21 -2.4001 -2.21501 0
M  V30 15517 H 1517.87 -3.63492 -0.476383 0
M  V30 15518 H 1517.52 -4.10455 -2.9075 0
M  V30 15519 H 1517.22 -5.55452 -1.91694 0
M  V30 15520 H 1518.74 -5.40661 -2.83756 0
M  V30 15521 H 1520.15 -5.70302 -0.585548 0
M  V30 15522 H 1518.55 -5.99917 0.148121 0
M  V30 15523 H 1519.62 -4.77351 0.852296 0
M  V30 15524 N 1520.96 -0.130252 -1.57061 0
M  V30 15525 C 1522.21 0.525006 -1.95576 0
M  V30 15526 C 1522.54 1.65964 -1.0142 0
M  V30 15527 O 1521.79 1.95659 -0.0401898 0
M  V30 15528 C 1522.09 1.08776 -3.40445 0
M  V30 15529 C 1521.76 0.0733062 -4.5084 0
M  V30 15530 C 1520.42 -0.20561 -4.80761 0
M  V30 15531 C 1522.77 -0.617428 -5.1753 0
M  V30 15532 C 1520.1 -1.18135 -5.74683 0
M  V30 15533 C 1522.45 -1.58188 -6.12503 0
M  V30 15534 C 1521.12 -1.86866 -6.4081 0
M  V30 15535 H 1520.39 0.192113 -0.715663 0
M  V30 15536 H 1523.03 -0.21354 -1.90306 0
M  V30 15537 H 1521.34 1.9033 -3.42464 0
M  V30 15538 H 1523.04 1.60305 -3.67564 0
M  V30 15539 H 1519.63 0.30088 -4.27543 0
M  V30 15540 H 1523.81 -0.415124 -4.94561 0
M  V30 15541 H 1519.07 -1.41017 -5.94915 0
M  V30 15542 H 1523.24 -2.12271 -6.6326 0
M  V30 15543 H 1520.87 -2.62628 -7.13394 0
M  V30 15544 N 1522.44 1.56945 0.143535 0
M  V30 15545 C 1523.72 1.74461 0.884454 0
M  V30 15546 C 1524.1 0.699201 1.99184 0
M  V30 15547 O 1523.45 -0.281267 2.26762 0
M  V30 15548 C 1523.66 3.18639 1.42373 0
M  V30 15549 C 1525.01 3.80426 1.88577 0
M  V30 15550 O 1526.03 3.2209 1.52107 0
M  V30 15551 O 1524.89 4.82913 2.55847 0
M  V30 15552 H 1521.98 0.713457 0.41822 0
M  V30 15553 H 1524.53 1.69208 0.12919 0
M  V30 15554 H 1523.3 3.86227 0.628056 0
M  V30 15555 H 1522.92 3.28332 2.2424 0
M  V30 15556 N 1523.92 -0.412991 1.52093 0
M  V30 15557 C 1525.2 -1.17304 1.56522 0
M  V30 15558 C 1525.58 -2.0828 0.343926 0
M  V30 15559 O 1524.93 -2.18473 -0.669475 0
M  V30 15560 C 1525.14 -1.95371 2.89191 0
M  V30 15561 C 1526.48 -2.51571 3.42048 0
M  V30 15562 O 1527.51 -2.05555 2.90905 0
M  V30 15563 O 1526.37 -3.35563 4.31347 0
M  V30 15564 H 1523.46 -0.535386 0.63031 0
M  V30 15565 H 1526.01 -0.420084 1.64418 0
M  V30 15566 H 1524.78 -1.28701 3.69529 0
M  V30 15567 H 1524.4 -2.7768 2.84569 0
M  V30 15568 N 1525.4 -1.4265 -0.669982 0
M  V30 15569 C 1526.65 -1.43093 -1.42719 0
M  V30 15570 C 1526.97 -0.0501228 -1.94936 0
M  V30 15571 O 1526.24 0.912077 -1.73372 0
M  V30 15572 H 1524.82 -0.526785 -0.529628 0
M  V30 15573 H 1527.48 -1.78113 -0.791324 0
M  V30 15574 H 1526.58 -2.13357 -2.27783 0
M  V30 15575 N 1526.88 0.906753 -1.28902 0
M  V30 15576 C 1528.13 1.6533 -1.16234 0
M  V30 15577 C 1528.45 1.92861 0.288004 0
M  V30 15578 O 1527.72 1.54971 1.19837 0
M  V30 15579 H 1526.3 0.612806 -0.427174 0
M  V30 15580 H 1528.96 1.08764 -1.6173 0
M  V30 15581 H 1528.05 2.61271 -1.70715 0
M  V30 15582 N 1528.36 1.11264 1.11616 0
M  V30 15583 C 1529.29 0.79149 2.19676 0
M  V30 15584 C 1530.27 -0.239351 1.68408 0
M  V30 15585 O 1531.45 -0.103228 1.93925 0
M  V30 15586 C 1528.58 0.231891 3.46525 0
M  V30 15587 C 1527.54 1.19439 4.10997 0
M  V30 15588 C 1526.86 0.495593 5.32398 0
M  V30 15589 C 1528.16 2.54437 4.56135 0
M  V30 15590 H 1529.86 1.69503 2.46797 0
M  V30 15591 H 1527.4 0.816433 1.18619 0
M  V30 15592 H 1529.35 -0.00497468 4.214 0
M  V30 15593 H 1528.08 -0.706938 3.18857 0
M  V30 15594 H 1526.74 1.41686 3.38113 0
M  V30 15595 H 1526.39 -0.447984 5.01001 0
M  V30 15596 H 1526.09 1.13753 5.76484 0
M  V30 15597 H 1527.61 0.267476 6.10014 0
M  V30 15598 H 1529.02 2.36289 5.22341 0
M  V30 15599 H 1527.42 3.14595 5.11028 0
M  V30 15600 H 1528.49 3.13795 3.69676 0
M  V30 15601 N 1529.83 -1.29188 0.902679 0
M  V30 15602 C 1531.06 -1.99576 0.545635 0
M  V30 15603 C 1531.48 -1.67541 -0.870372 0
M  V30 15604 O 1530.83 -0.922082 -1.57493 0
M  V30 15605 C 1530.88 -3.54013 0.731916 0
M  V30 15606 O 1530.61 -3.84914 2.09219 0
M  V30 15607 C 1532.11 -4.41666 0.38022 0
M  V30 15608 H 1529.33 -0.637593 0.209083 0
M  V30 15609 H 1531.87 -1.64652 1.21284 0
M  V30 15610 H 1530.03 -3.87239 0.111849 0
M  V30 15611 H 1530.44 -4.79581 2.12373 0
M  V30 15612 H 1531.91 -5.49138 0.561382 0
M  V30 15613 H 1532.39 -4.33858 -0.682915 0
M  V30 15614 H 1533 -4.13918 0.977354 0
M  V30 15615 N 1531.31 -0.665475 -1.42861 0
M  V30 15616 C 1532.24 0.00482845 -2.335 0
M  V30 15617 C 1533.22 0.799135 -1.50159 0
M  V30 15618 O 1534.41 0.75816 -1.78789 0
M  V30 15619 C 1531.54 0.963347 -3.33672 0
M  V30 15620 C 1530.49 0.278294 -4.27094 0
M  V30 15621 C 1529.82 1.34911 -5.174 0
M  V30 15622 C 1531.12 -0.836925 -5.15551 0
M  V30 15623 H 1532.81 -0.752129 -2.89799 0
M  V30 15624 H 1530.36 -0.363139 -1.39346 0
M  V30 15625 H 1532.31 1.44128 -3.95986 0
M  V30 15626 H 1531.03 1.75161 -2.75656 0
M  V30 15627 H 1529.69 -0.179314 -3.66161 0
M  V30 15628 H 1529.34 2.12912 -4.55716 0
M  V30 15629 H 1529.04 0.895919 -5.8073 0
M  V30 15630 H 1530.57 1.82816 -5.8259 0
M  V30 15631 H 1531.98 -0.440617 -5.71604 0
M  V30 15632 H 1530.38 -1.21533 -5.87665 0
M  V30 15633 H 1531.45 -1.6897 -4.54507 0
M  V30 15634 N 1532.79 1.52222 -0.408187 0
M  V30 15635 C 1533.72 2.29892 0.408868 0
M  V30 15636 C 1534.7 1.34063 1.04695 0
M  V30 15637 O 1535.89 1.6297 1.05615 0
M  V30 15638 C 1533.02 3.11964 1.52629 0
M  V30 15639 C 1531.97 4.15833 1.01326 0
M  V30 15640 C 1531.3 4.86244 2.2242 0
M  V30 15641 C 1532.6 5.22256 0.0679573 0
M  V30 15642 H 1534.29 2.98443 -0.23923 0
M  V30 15643 H 1531.84 1.43528 -0.116496 0
M  V30 15644 H 1533.79 3.65067 2.10486 0
M  V30 15645 H 1532.51 2.41181 2.20225 0
M  V30 15646 H 1531.17 3.63739 0.4571 0
M  V30 15647 H 1530.82 4.11991 2.88569 0
M  V30 15648 H 1530.52 5.56461 1.88746 0
M  V30 15649 H 1532.04 5.42159 2.80885 0
M  V30 15650 H 1533.46 5.70604 0.555295 0
M  V30 15651 H 1531.85 5.9983 -0.179934 0
M  V30 15652 H 1532.92 4.76892 -0.877599 0
M  V30 15653 N 1534.27 0.138579 1.5699 0
M  V30 15654 C 1535.52 -0.514545 1.95026 0
M  V30 15655 C 1535.83 -1.66565 1.02544 0
M  V30 15656 O 1537.04 -2.38284 1.30126 0
M  V30 15657 C 1535.49 -0.966746 3.46673 0
M  V30 15658 C 1535.1 0.156969 4.47725 0
M  V30 15659 C 1536.84 -1.59014 3.93592 0
M  V30 15660 C 1534.75 -0.313031 5.90571 0
M  V30 15661 H 1533.68 -0.195991 0.728082 0
M  V30 15662 H 1536.33 0.221575 1.82157 0
M  V30 15663 H 1534.71 -1.75788 3.54845 0
M  V30 15664 H 1535.89 0.933728 4.51241 0
M  V30 15665 H 1534.2 0.688238 4.10673 0
M  V30 15666 H 1536.8 -1.95326 4.97747 0
M  V30 15667 H 1537.14 -2.47595 3.34668 0
M  V30 15668 H 1537.68 -0.864061 3.88302 0
M  V30 15669 H 1534.41 0.5372 6.53295 0
M  V30 15670 H 1533.93 -1.05585 5.90434 0
M  V30 15671 H 1535.61 -0.767826 6.42428 0
M  V30 15672 N 1535.75 -1.57019 -0.13521 0
M  V30 15673 C 1537.16 -1.73319 -0.694067 0
M  V30 15674 C 1537.51 -0.754808 -1.811 0
M  V30 15675 O 1536.63 0.0759463 -2.16267 0
M  V30 15676 C 1537.23 -3.14266 -1.26579 0
M  V30 15677 C 1535.79 -3.32128 -1.7711 0
M  V30 15678 C 1534.93 -2.69226 -0.664263 0
M  V30 15679 H 1537.88 -1.58441 0.0905702 0
M  V30 15680 H 1537.91 -3.14919 -2.13557 0
M  V30 15681 H 1537.42 -3.85451 -0.452652 0
M  V30 15682 H 1535.52 -2.65959 -2.60953 0
M  V30 15683 H 1535.63 -4.40172 -1.8917 0
M  V30 15684 H 1534 -2.30016 -1.09384 0
M  V30 15685 H 1534.78 -3.43024 0.13763 0
M  V30 15686 N 1537.22 0.404919 -1.52309 0
M  V30 15687 C 1538.45 1.17139 -1.70182 0
M  V30 15688 C 1538.86 1.84642 -0.412805 0
M  V30 15689 O 1538.21 1.72873 0.621347 0
M  V30 15690 C 1538.27 2.27402 -2.78439 0
M  V30 15691 C 1537.93 1.8 -4.20058 0
M  V30 15692 C 1538.93 1.28546 -5.03758 0
M  V30 15693 C 1536.61 1.86706 -4.66311 0
M  V30 15694 C 1538.61 0.84425 -6.31784 0
M  V30 15695 C 1536.29 1.42197 -5.94326 0
M  V30 15696 C 1537.29 0.911418 -6.76892 0
M  V30 15697 O 1536.98 0.472762 -8.02509 0
M  V30 15698 H 1536.71 0.357845 -0.573518 0
M  V30 15699 H 1539.27 0.481939 -1.99666 0
M  V30 15700 H 1537.5 2.99724 -2.44341 0
M  V30 15701 H 1539.19 2.89143 -2.8487 0
M  V30 15702 H 1539.95 1.22734 -4.69213 0
M  V30 15703 H 1535.83 2.25389 -4.02145 0
M  V30 15704 H 1539.37 0.445063 -6.96179 0
M  V30 15705 H 1535.27 1.47689 -6.28377 0
M  V30 15706 H 1536.04 0.595689 -8.16329 0
M  V30 15707 N 1538.7 1.43003 0.662408 0
M  V30 15708 C 1539.63 1.50248 1.78739 0
M  V30 15709 C 1540.61 0.357934 1.66291 0
M  V30 15710 O 1541.8 0.573919 1.85526 0
M  V30 15711 C 1538.93 1.41618 3.17114 0
M  V30 15712 C 1537.88 2.54228 3.44314 0
M  V30 15713 C 1537.21 2.30653 4.82393 0
M  V30 15714 C 1538.51 3.96505 3.39972 0
M  V30 15715 H 1540.2 2.44406 1.72934 0
M  V30 15716 H 1537.75 1.17633 0.830569 0
M  V30 15717 H 1539.7 1.45293 3.9556 0
M  V30 15718 H 1538.43 0.439605 3.23628 0
M  V30 15719 H 1537.08 2.49891 2.68235 0
M  V30 15720 H 1536.73 1.3126 4.85572 0
M  V30 15721 H 1536.43 3.06134 5.01554 0
M  V30 15722 H 1537.96 2.36096 5.63108 0
M  V30 15723 H 1539.37 4.02378 4.08368 0
M  V30 15724 H 1537.77 4.71937 3.70668 0
M  V30 15725 H 1538.84 4.22295 2.38318 0
M  V30 15726 N 1540.18 -0.899904 1.29381 0
M  V30 15727 C 1541.11 -2.02045 1.17047 0
M  V30 15728 C 1542.09 -1.69977 0.0647354 0
M  V30 15729 O 1543.28 -1.92659 0.244173 0
M  V30 15730 C 1540.41 -3.36839 0.845991 0
M  V30 15731 C 1539.36 -3.83117 1.90802 0
M  V30 15732 C 1538.69 -5.15032 1.43686 0
M  V30 15733 C 1539.99 -4.03464 3.31684 0
M  V30 15734 H 1541.68 -2.12623 2.10789 0
M  V30 15735 H 1539.23 -1.02162 1.01484 0
M  V30 15736 H 1541.18 -4.14737 0.746413 0
M  V30 15737 H 1539.9 -3.26352 -0.127125 0
M  V30 15738 H 1538.56 -3.07435 1.99698 0
M  V30 15739 H 1538.21 -5.00961 0.452422 0
M  V30 15740 H 1537.91 -5.46967 2.14711 0
M  V30 15741 H 1539.43 -5.95472 1.35078 0
M  V30 15742 H 1540.85 -4.71845 3.25631 0
M  V30 15743 H 1539.25 -4.46752 4.00665 0
M  V30 15744 H 1540.32 -3.07807 3.74677 0
M  V30 15745 N 1541.66 -1.11854 -1.11024 0
M  V30 15746 C 1542.89 -0.892714 -1.8665 0
M  V30 15747 C 1543.3 0.557721 -1.80374 0
M  V30 15748 O 1542.66 1.3853 -1.1881 0
M  V30 15749 C 1542.71 -1.35135 -3.35292 0
M  V30 15750 O 1542.43 -2.74493 -3.41446 0
M  V30 15751 C 1543.93 -1.16157 -4.27811 0
M  V30 15752 H 1541.15 -0.319409 -0.590101 0
M  V30 15753 H 1543.7 -1.48697 -1.40391 0
M  V30 15754 H 1541.85 -0.80046 -3.7904 0
M  V30 15755 H 1542.26 -2.94474 -4.34034 0
M  V30 15756 H 1543.74 -1.53144 -5.30331 0
M  V30 15757 H 1544.22 -0.101546 -4.39083 0
M  V30 15758 H 1544.82 -1.69966 -3.89861 0
M  V30 15759 N 1543.14 1.28707 -0.909517 0
M  V30 15760 C 1544.36 1.99283 -0.556211 0
M  V30 15761 C 1544.78 1.68 0.861475 0
M  V30 15762 O 1544.14 0.930421 1.57001 0
M  V30 15763 C 1544.19 3.5362 -0.75068 0
M  V30 15764 O 1543.91 3.83799 -2.11258 0
M  V30 15765 C 1545.41 4.41459 -0.403637 0
M  V30 15766 H 1542.63 0.636476 -0.212462 0
M  V30 15767 H 1545.17 1.64007 -1.22156 0
M  V30 15768 H 1543.33 3.87174 -0.132384 0
M  V30 15769 H 1543.74 4.78448 -2.14913 0
M  V30 15770 H 1545.22 5.48833 -0.590496 0
M  V30 15771 H 1545.69 4.34214 0.659897 0
M  V30 15772 H 1546.3 4.13394 -0.999292 0
M  V30 15773 N 1544.61 0.673042 1.42506 0
M  V30 15774 C 1545.56 -0.00638067 2.30799 0
M  V30 15775 C 1546.53 -0.794524 1.45865 0
M  V30 15776 O 1547.72 -0.767129 1.74699 0
M  V30 15777 C 1544.86 -0.952923 3.31683 0
M  V30 15778 C 1543.97 -0.158787 4.31708 0
M  V30 15779 C 1543.1 -1.10092 5.19666 0
M  V30 15780 C 1542.14 -0.29837 6.11372 0
M  V30 15781 N 1541.28 -1.19312 6.91888 0
M  V30 15782 H 1546.12 0.75237 2.88346 0
M  V30 15783 H 1543.66 0.382763 1.42033 0
M  V30 15784 H 1545.62 -1.51552 3.887 0
M  V30 15785 H 1544.25 -1.67832 2.75739 0
M  V30 15786 H 1543.3 0.520406 3.76823 0
M  V30 15787 H 1544.61 0.464385 4.96634 0
M  V30 15788 H 1543.76 -1.7335 5.81407 0
M  V30 15789 H 1542.5 -1.75798 4.54914 0
M  V30 15790 H 1541.51 0.347437 5.48701 0
M  V30 15791 H 1542.73 0.354569 6.78174 0
M  V30 15792 H 1540.68 -1.83661 6.29765 0
M  V30 15793 H 1540.6 -0.624986 7.53412 0
M  V30 15794 H 1541.86 -1.81323 7.58118 0
M  V30 15795 N 1546.09 -1.52004 0.416254 0
M  V30 15796 C 1547.04 -2.27206 -0.405723 0
M  V30 15797 C 1548.01 -1.29913 -1.03498 0
M  V30 15798 O 1549.19 -1.58786 -1.0579 0
M  V30 15799 C 1546.33 -3.10186 -1.51258 0
M  V30 15800 C 1545.45 -4.22445 -0.903539 0
M  V30 15801 C 1544.58 -4.92771 -1.98368 0
M  V30 15802 C 1543.62 -5.96983 -1.35196 0
M  V30 15803 N 1542.76 -6.60798 -2.37255 0
M  V30 15804 H 1547.6 -2.97016 0.241983 0
M  V30 15805 H 1545.14 -1.46514 0.131174 0
M  V30 15806 H 1547.09 -3.56606 -2.16537 0
M  V30 15807 H 1545.72 -2.42532 -2.13021 0
M  V30 15808 H 1544.78 -3.80144 -0.139607 0
M  V30 15809 H 1546.09 -4.97176 -0.402136 0
M  V30 15810 H 1545.24 -5.42633 -2.71357 0
M  V30 15811 H 1543.98 -4.17624 -2.51876 0
M  V30 15812 H 1542.99 -5.46434 -0.607431 0
M  V30 15813 H 1544.21 -6.74076 -0.824482 0
M  V30 15814 H 1542.16 -5.88476 -2.89882 0
M  V30 15815 H 1542.07 -7.31227 -1.91947 0
M  V30 15816 H 1543.34 -7.15296 -3.09792 0
M  V30 15817 N 1547.57 -0.146903 -1.56914 0
M  V30 15818 C 1548.52 0.792821 -2.16756 0
M  V30 15819 C 1549.49 1.2442 -1.1004 0
M  V30 15820 O 1550.67 1.31674 -1.38081 0
M  V30 15821 C 1547.81 2.02659 -2.79327 0
M  V30 15822 C 1546.93 1.62102 -4.00433 0
M  V30 15823 C 1546.06 2.80658 -4.51004 0
M  V30 15824 C 1545.1 2.36474 -5.64576 0
M  V30 15825 N 1544.24 3.48038 -6.09766 0
M  V30 15826 H 1549.08 0.275708 -2.96722 0
M  V30 15827 H 1546.61 0.124374 -1.46573 0
M  V30 15828 H 1548.57 2.74986 -3.13749 0
M  V30 15829 H 1547.2 2.51781 -2.02005 0
M  V30 15830 H 1546.25 0.795407 -3.71991 0
M  V30 15831 H 1547.57 1.25652 -4.82714 0
M  V30 15832 H 1546.72 3.61175 -4.87481 0
M  V30 15833 H 1545.46 3.20353 -3.6773 0
M  V30 15834 H 1544.46 1.54397 -5.27676 0
M  V30 15835 H 1545.69 1.97865 -6.49635 0
M  V30 15836 H 1543.63 3.87354 -5.29427 0
M  V30 15837 H 1543.55 3.15602 -6.86972 0
M  V30 15838 H 1544.82 4.28912 -6.50887 0
M  V30 15839 N 1549.05 1.57088 0.126881 0
M  V30 15840 C 1550.29 1.8559 0.832347 0
M  V30 15841 C 1550.65 0.733619 1.77865 0
M  V30 15842 O 1549.94 -0.266984 1.89731 0
M  V30 15843 C 1550.14 3.18225 1.62688 0
M  V30 15844 C 1549.97 4.43248 0.759021 0
M  V30 15845 C 1548.74 5.03577 0.416881 0
M  V30 15846 C 1550.93 5.14237 0.080205 0
M  V30 15847 N 1548.92 6.12156 -0.462469 0
M  V30 15848 C 1550.29 6.16494 -0.658463 0
M  V30 15849 C 1552.34 4.979 0.00296555 0
M  V30 15850 C 1551.04 7.04179 -1.46711 0
M  V30 15851 C 1553.07 5.86066 -0.792477 0
M  V30 15852 C 1552.43 6.87819 -1.51936 0
M  V30 15853 H 1548.53 0.729476 0.281759 0
M  V30 15854 H 1551.12 1.94461 0.0965231 0
M  V30 15855 H 1549.29 3.10465 2.3338 0
M  V30 15856 H 1551.02 3.34562 2.27707 0
M  V30 15857 H 1547.77 4.67506 0.757316 0
M  V30 15858 H 1548.2 6.71074 -0.893761 0
M  V30 15859 H 1552.84 4.192 0.55059 0
M  V30 15860 H 1550.56 7.82293 -2.02592 0
M  V30 15861 H 1554.14 5.75491 -0.854496 0
M  V30 15862 H 1553.02 7.54861 -2.12498 0
M  V30 15863 N 1550.53 -0.396836 1.52522 0
M  V30 15864 C 1551.47 -1.48427 1.76743 0
M  V30 15865 C 1552.44 -1.54481 0.610321 0
M  V30 15866 O 1553.63 -1.7086 0.849201 0
M  V30 15867 C 1550.77 -2.85744 1.93505 0
M  V30 15868 C 1549.88 -2.88904 3.21183 0
M  V30 15869 C 1549.02 -4.17598 3.28307 0
M  V30 15870 C 1548.06 -4.14779 4.50138 0
M  V30 15871 N 1547.19 -5.35065 4.54587 0
M  V30 15872 H 1552.03 -1.27075 2.69548 0
M  V30 15873 H 1549.57 -0.61661 1.33553 0
M  V30 15874 H 1551.53 -3.65474 2.01208 0
M  V30 15875 H 1550.16 -3.05564 1.04069 0
M  V30 15876 H 1549.21 -2.01592 3.22591 0
M  V30 15877 H 1550.52 -2.82688 4.10961 0
M  V30 15878 H 1549.68 -5.05727 3.35149 0
M  V30 15879 H 1548.41 -4.26526 2.36489 0
M  V30 15880 H 1547.42 -3.25039 4.4343 0
M  V30 15881 H 1548.64 -4.07481 5.43264 0
M  V30 15882 H 1546.59 -5.44638 3.65658 0
M  V30 15883 H 1546.51 -5.30894 5.38227 0
M  V30 15884 H 1547.78 -6.25114 4.65675 0
M  V30 15885 N 1552.01 -1.43353 -0.654814 0
M  V30 15886 C 1553.28 -1.35363 -1.41195 0
M  V30 15887 C 1553.66 -0.000661523 -2.111 0
M  V30 15888 O 1553.01 1.01583 -2.04678 0
M  V30 15889 C 1553.22 -2.53572 -2.39796 0
M  V30 15890 C 1554.57 -2.96587 -3.03844 0
M  V30 15891 O 1555.59 -2.53607 -2.50124 0
M  V30 15892 O 1554.45 -3.71039 -4.01239 0
M  V30 15893 H 1551.55 -0.534861 -0.630756 0
M  V30 15894 H 1554.09 -1.55399 -0.681857 0
M  V30 15895 H 1552.86 -3.43682 -1.87078 0
M  V30 15896 H 1552.49 -2.35628 -3.20258 0
M  V30 15897 N 1553.48 0.89303 -1.29857 0
M  V30 15898 C 1554.72 1.65836 -1.19489 0
M  V30 15899 C 1555.09 1.90389 0.248194 0
M  V30 15900 O 1556.29 2.6457 0.474963 0
M  V30 15901 C 1554.56 2.96706 -1.9925 0
M  V30 15902 S 1556.12 3.8771 -2.05492 0
M  V30 15903 H 1552.94 0.569282 -0.425956 0
M  V30 15904 H 1555.54 1.06061 -1.64229 0
M  V30 15905 H 1554.24 2.76554 -3.03226 0
M  V30 15906 H 1553.77 3.61518 -1.55141 0
M  V30 15907 H 1555.79 4.82052 -1.17644 0
M  V30 15908 N 1554.96 1.12442 1.10429 0
M  V30 15909 C 1555.91 0.792332 2.16773 0
M  V30 15910 C 1556.88 -0.240945 1.64343 0
M  V30 15911 O 1558.06 -0.115504 1.9045 0
M  V30 15912 C 1555.2 0.253166 3.4417 0
M  V30 15913 C 1554.32 1.34426 4.10553 0
M  V30 15914 C 1553.45 0.764527 5.2567 0
M  V30 15915 C 1552.49 1.83474 5.83955 0
M  V30 15916 N 1551.63 1.27372 6.9045 0
M  V30 15917 H 1556.47 1.7033 2.44524 0
M  V30 15918 H 1554 0.850418 1.20026 0
M  V30 15919 H 1555.96 -0.0774862 4.17128 0
M  V30 15920 H 1554.59 -0.620962 3.16771 0
M  V30 15921 H 1553.64 1.79169 3.35563 0
M  V30 15922 H 1554.96 2.15354 4.49916 0
M  V30 15923 H 1554.11 0.384548 6.0548 0
M  V30 15924 H 1552.85 -0.0759512 4.87641 0
M  V30 15925 H 1551.85 2.22391 5.02814 0
M  V30 15926 H 1553.08 2.67844 6.24048 0
M  V30 15927 H 1551.03 0.455069 6.5442 0
M  V30 15928 H 1550.94 2.01959 7.28525 0
M  V30 15929 H 1552.21 0.920975 7.7404 0
M  V30 15930 N 1556.44 -1.28223 0.91633 0
M  V30 15931 C 1557.69 -1.94149 0.546705 0
M  V30 15932 C 1558 -1.72904 -0.914529 0
M  V30 15933 O 1559.21 -2.33075 -1.39243 0
M  V30 15934 C 1557.66 -3.47759 0.92691 0
M  V30 15935 C 1557.27 -3.77779 2.40805 0
M  V30 15936 C 1559.02 -4.19829 0.627994 0
M  V30 15937 C 1556.92 -5.2471 2.72825 0
M  V30 15938 H 1555.85 -0.726787 0.200739 0
M  V30 15939 H 1558.5 -1.45694 1.1156 0
M  V30 15940 H 1556.89 -3.9496 0.286779 0
M  V30 15941 H 1558.06 -3.41377 3.09513 0
M  V30 15942 H 1556.37 -3.18887 2.67769 0
M  V30 15943 H 1558.97 -5.27999 0.843862 0
M  V30 15944 H 1559.31 -4.14028 -0.434315 0
M  V30 15945 H 1559.85 -3.78413 1.22671 0
M  V30 15946 H 1556.59 -5.35591 3.77919 0
M  V30 15947 H 1556.11 -5.623 2.08756 0
M  V30 15948 H 1557.79 -5.92475 2.59965 0
M  V30 15949 N 1557.92 -0.68059 -1.42147 0
M  V30 15950 C 1559.33 -0.350691 -1.55699 0
M  V30 15951 C 1559.53 1.1435 -1.6591 0
M  V30 15952 O 1558.59 1.92905 -1.62923 0
M  V30 15953 C 1559.9 -1.08608 -2.80401 0
M  V30 15954 C 1561.45 -1.06897 -2.9418 0
M  V30 15955 C 1561.93 -1.78581 -4.2175 0
M  V30 15956 N 1563.42 -1.75477 -4.28675 0
M  V30 15957 C 1564.15 -2.27794 -5.26211 0
M  V30 15958 N 1563.65 -2.88518 -6.29865 0
M  V30 15959 N 1565.44 -2.18135 -5.18048 0
M  V30 15960 H 1557.59 -1.64988 -1.33763 0
M  V30 15961 H 1559.85 -0.695411 -0.644289 0
M  V30 15962 H 1559.56 -2.14113 -2.79014 0
M  V30 15963 H 1559.43 -0.655022 -3.71469 0
M  V30 15964 H 1561.82 -0.0222464 -2.95092 0
M  V30 15965 H 1561.9 -1.53897 -2.04327 0
M  V30 15966 H 1561.55 -2.83225 -4.21599 0
M  V30 15967 H 1561.48 -1.29027 -5.10548 0
M  V30 15968 H 1563.97 -1.31191 -3.54397 0
M  V30 15969 H 1564.28 -3.26043 -7.00654 0
M  V30 15970 H 1562.63 -2.92589 -6.3041 0
M  V30 15971 H 1565.82 -1.7038 -4.35991 0
M  V30 15972 H 1565.99 -2.59213 -5.93896 0
M  V30 15973 N 1559.4 1.51781 -0.424309 0
M  V30 15974 C 1560.64 2.02269 0.146709 0
M  V30 15975 C 1560.97 1.30859 1.4349 0
M  V30 15976 O 1560.25 0.419504 1.89922 0
M  V30 15977 C 1560.53 3.58101 0.378861 0
M  V30 15978 C 1560.39 4.40143 -0.92707 0
M  V30 15979 C 1561.7 4.2469 1.15438 0
M  V30 15980 H 1558.82 0.735174 0.0518456 0
M  V30 15981 H 1561.47 1.81537 -0.560753 0
M  V30 15982 H 1559.62 3.75897 0.981496 0
M  V30 15983 H 1561.29 4.34025 -1.56268 0
M  V30 15984 H 1559.53 4.05748 -1.53464 0
M  V30 15985 H 1560.2 5.47299 -0.718837 0
M  V30 15986 H 1562.68 4.11086 0.644041 0
M  V30 15987 H 1561.55 5.33633 1.28557 0
M  V30 15988 H 1561.81 3.84668 2.17905 0
M  V30 15989 N 1560.87 0.155222 1.56834 0
M  V30 15990 C 1562.12 -0.493826 1.96386 0
M  V30 15991 C 1562.45 -1.6433 1.04048 0
M  V30 15992 O 1561.7 -1.9557 0.0713123 0
M  V30 15993 C 1562 -1.03346 3.42132 0
M  V30 15994 C 1561.67 -0.00157215 4.509 0
M  V30 15995 C 1560.33 0.282068 4.80373 0
M  V30 15996 C 1562.68 0.699684 5.16482 0
M  V30 15997 C 1560.01 1.27263 5.72731 0
M  V30 15998 C 1562.36 1.67912 6.09908 0
M  V30 15999 C 1561.03 1.97037 6.37756 0
M  V30 16000 H 1560.3 -0.180704 0.718629 0
M  V30 16001 H 1562.94 0.243789 1.89942 0
M  V30 16002 H 1561.25 -1.84857 3.45449 0
M  V30 16003 H 1562.95 -1.54437 3.70068 0
M  V30 16004 H 1559.54 -0.232824 4.27967 0
M  V30 16005 H 1563.72 0.493751 4.93838 0
M  V30 16006 H 1558.98 1.50464 5.92597 0
M  V30 16007 H 1563.15 2.22796 6.59799 0
M  V30 16008 H 1560.78 2.73944 7.09125 0
M  V30 16009 N 1562.35 -1.57153 -0.118549 0
M  V30 16010 C 1563.6 -1.84064 -0.824832 0
M  V30 16011 C 1563.91 -0.740941 -1.81023 0
M  V30 16012 O 1565.12 -0.896464 -2.56273 0
M  V30 16013 C 1563.58 -3.26338 -1.51761 0
M  V30 16014 C 1563.18 -4.44318 -0.573174 0
M  V30 16015 C 1564.93 -3.62496 -2.209 0
M  V30 16016 C 1562.83 -5.7762 -1.2692 0
M  V30 16017 H 1561.76 -0.686521 -0.311777 0
M  V30 16018 H 1564.42 -1.83336 -0.0775833 0
M  V30 16019 H 1562.8 -3.21537 -2.3115 0
M  V30 16020 H 1563.97 -4.60418 0.187529 0
M  V30 16021 H 1562.29 -4.16398 0.0112747 0
M  V30 16022 H 1564.88 -4.5936 -2.73666 0
M  V30 16023 H 1565.23 -2.89952 -2.9872 0
M  V30 16024 H 1565.76 -3.69084 -1.48399 0
M  V30 16025 H 1562.5 -6.53335 -0.532285 0
M  V30 16026 H 1562.02 -5.65406 -2.00191 0
M  V30 16027 H 1563.7 -6.21391 -1.80227 0
M  V30 16028 N 1563.83 0.388742 -1.5273 0
M  V30 16029 C 1565.08 1.13151 -1.67455 0
M  V30 16030 C 1565.4 1.90487 -0.417095 0
M  V30 16031 O 1564.67 1.87469 0.568509 0
M  V30 16032 H 1563.25 0.4207 -0.617269 0
M  V30 16033 H 1565.91 0.44098 -1.89846 0
M  V30 16034 H 1565.01 1.83427 -2.52509 0
M  V30 16035 N 1565.31 1.43698 0.647203 0
M  V30 16036 C 1566.56 1.45346 1.40425 0
M  V30 16037 C 1566.88 0.081129 1.94831 0
M  V30 16038 O 1566.15 -0.884379 1.74801 0
M  V30 16039 H 1564.73 0.535145 0.521181 0
M  V30 16040 H 1567.39 1.79349 0.762887 0
M  V30 16041 H 1566.48 2.16954 2.2436 0
M  V30 16042 N 1566.79 -0.886131 1.30328 0
M  V30 16043 C 1567.73 -1.99174 1.16612 0
M  V30 16044 C 1568.7 -1.66006 0.0559202 0
M  V30 16045 O 1569.89 -1.89458 0.225897 0
M  V30 16046 C 1567.03 -3.34142 0.862726 0
M  V30 16047 C 1566.14 -3.80008 2.05469 0
M  V30 16048 C 1565.28 -5.03617 1.68949 0
M  V30 16049 C 1564.32 -5.41888 2.84647 0
M  V30 16050 N 1563.45 -6.56678 2.48431 0
M  V30 16051 H 1568.29 -2.10238 2.11197 0
M  V30 16052 H 1565.83 -1.02941 1.05079 0
M  V30 16053 H 1567.79 -4.11826 0.667447 0
M  V30 16054 H 1566.42 -3.22767 -0.0462461 0
M  V30 16055 H 1565.47 -2.98243 2.36126 0
M  V30 16056 H 1566.78 -4.04312 2.92119 0
M  V30 16057 H 1565.94 -5.88923 1.45789 0
M  V30 16058 H 1564.67 -4.81182 0.794674 0
M  V30 16059 H 1563.68 -4.55109 3.08474 0
M  V30 16060 H 1564.9 -5.66296 3.74813 0
M  V30 16061 H 1562.85 -6.35821 1.61453 0
M  V30 16062 H 1562.77 -6.80846 3.28611 0
M  V30 16063 H 1564.04 -7.45219 2.28624 0
M  V30 16064 N 1568.26 -1.13026 -1.09832 0
M  V30 16065 C 1569.51 -0.884093 -1.81292 0
M  V30 16066 C 1569.83 0.591608 -1.86439 0
M  V30 16067 O 1571.03 0.954571 -2.54166 0
M  V30 16068 C 1569.49 -1.53207 -3.25662 0
M  V30 16069 C 1569.1 -3.043 -3.28794 0
M  V30 16070 C 1570.84 -1.36644 -4.01906 0
M  V30 16071 C 1568.75 -3.62003 -4.67662 0
M  V30 16072 H 1567.68 -0.327101 -0.679353 0
M  V30 16073 H 1570.33 -1.35748 -1.2347 0
M  V30 16074 H 1568.71 -0.986353 -3.83519 0
M  V30 16075 H 1569.88 -3.65418 -2.80725 0
M  V30 16076 H 1568.2 -3.20332 -2.66038 0
M  V30 16077 H 1570.8 -1.7717 -5.04495 0
M  V30 16078 H 1571.14 -0.310809 -4.15138 0
M  V30 16079 H 1571.67 -1.88172 -3.5048 0
M  V30 16080 H 1568.41 -4.67354 -4.59631 0
M  V30 16081 H 1567.93 -3.05663 -5.16072 0
M  V30 16082 H 1569.61 -3.61432 -5.36634 0
M  V30 16083 N 1569.74 1.27735 -0.923117 0
M  V30 16084 C 1570.69 2.28975 -0.409065 0
M  V30 16085 C 1571.68 1.61723 0.504194 0
M  V30 16086 O 1572.89 1.75848 0.384402 0
M  V30 16087 H 1569.27 0.743354 -0.113705 0
M  V30 16088 H 1571.24 2.69751 -1.27582 0
M  V30 16089 C 1569.99 3.46158 0.327099 0
M  V30 16090 H 1569.31 3.98117 -0.366444 0
M  V30 16091 H 1570.75 4.18968 0.65128 0
M  V30 16092 C 1569.21 2.99724 1.53842 0
M  V30 16093 O 1569.74 3.03001 2.6373 0
M  V30 16094 N 1567.94 2.55274 1.38865 0
M  V30 16095 H 1567.49 2.52807 0.494629 0
M  V30 16096 H 1567.45 2.24567 2.20039 0
M  V30 16097 N 1571.22 0.688118 1.41784 0
M  V30 16098 C 1572.64 0.358943 1.55511 0
M  V30 16099 C 1572.84 -1.13469 1.66514 0
M  V30 16100 O 1571.89 -1.92039 1.63943 0
M  V30 16101 C 1573.21 1.10094 2.79821 0
M  V30 16102 C 1574.75 1.08456 2.93609 0
M  V30 16103 C 1575.23 1.80815 4.20797 0
M  V30 16104 N 1576.72 1.77748 4.27738 0
M  V30 16105 C 1577.45 2.30581 5.24995 0
M  V30 16106 N 1576.95 2.91854 6.28326 0
M  V30 16107 N 1578.74 2.2088 5.16884 0
M  V30 16108 H 1570.89 1.65695 1.32886 0
M  V30 16109 H 1573.16 0.698818 0.640592 0
M  V30 16110 H 1572.86 2.15589 2.77874 0
M  V30 16111 H 1572.74 0.674713 3.71117 0
M  V30 16112 H 1575.12 0.0378955 2.95076 0
M  V30 16113 H 1575.21 1.54978 2.03508 0
M  V30 16114 H 1574.85 2.85457 4.20092 0
M  V30 16115 H 1574.78 1.31732 5.09857 0
M  V30 16116 H 1577.27 1.33069 3.53696 0
M  V30 16117 H 1577.58 3.29755 6.98915 0
M  V30 16118 H 1575.93 2.95929 6.28849 0
M  V30 16119 H 1579.12 1.72689 4.35082 0
M  V30 16120 H 1579.29 2.62359 5.92513 0
M  V30 16121 N 1572.7 -1.51554 0.432352 0
M  V30 16122 C 1573.95 -2.01232 -0.137255 0
M  V30 16123 C 1574.26 -1.32135 -1.44221 0
M  V30 16124 O 1575.47 -1.72756 -2.09446 0
M  V30 16125 C 1573.92 -3.58688 -0.295152 0
M  V30 16126 C 1573.53 -4.36718 0.999072 0
M  V30 16127 C 1575.27 -4.16528 -0.818798 0
M  V30 16128 C 1573.18 -5.85867 0.80709 0
M  V30 16129 H 1572.11 -0.751986 -0.0550696 0
M  V30 16130 H 1574.76 -1.74703 0.561352 0
M  V30 16131 H 1573.14 -3.81643 -1.05664 0
M  V30 16132 H 1574.32 -4.25512 1.76851 0
M  V30 16133 H 1572.63 -3.90306 1.45087 0
M  V30 16134 H 1575.23 -5.25664 -0.978841 0
M  V30 16135 H 1575.57 -3.75379 -1.79989 0
M  V30 16136 H 1576.11 -3.97632 -0.11575 0
M  V30 16137 H 1572.85 -6.31419 1.76041 0
M  V30 16138 H 1572.37 -5.9975 0.0773617 0
M  V30 16139 H 1574.04 -6.45375 0.458328 0
M  V30 16140 N 1574.18 -0.163538 -1.56749 0
M  V30 16141 C 1575.45 0.529349 -1.88301 0
M  V30 16142 C 1575.83 1.81844 -1.07219 0
M  V30 16143 O 1575.18 2.27912 -0.16381 0
M  V30 16144 C 1575.39 0.778796 -3.402 0
M  V30 16145 C 1576.74 1.11225 -4.09773 0
M  V30 16146 O 1577.76 0.867598 -3.45472 0
M  V30 16147 O 1576.62 1.57344 -5.2336 0
M  V30 16148 H 1573.72 0.271928 -0.781015 0
M  V30 16149 H 1576.26 -0.20139 -1.68501 0
M  V30 16150 H 1575.03 -0.132839 -3.91074 0
M  V30 16151 H 1574.66 1.56313 -3.65584 0
M  V30 16152 N 1575.65 1.57214 0.110213 0
M  V30 16153 C 1576.6 1.97409 1.14077 0
M  V30 16154 C 1577.59 0.850322 1.36596 0
M  V30 16155 O 1578.78 1.11407 1.3754 0
M  V30 16156 C 1575.91 2.38936 2.46505 0
M  V30 16157 C 1575 3.57965 2.27424 0
M  V30 16158 N 1575.39 4.73379 1.78175 0
M  V30 16159 C 1573.68 3.63768 2.58048 0
M  V30 16160 C 1574.39 5.55376 1.73009 0
M  V30 16161 N 1573.36 4.98115 2.17675 0
M  V30 16162 H 1577.16 2.84098 0.752688 0
M  V30 16163 H 1574.68 1.59259 0.317845 0
M  V30 16164 H 1576.67 2.65953 3.21052 0
M  V30 16165 H 1575.33 1.53616 2.86063 0
M  V30 16166 H 1576.35 4.96424 1.47593 0
M  V30 16167 H 1573.02 2.89076 3.01233 0
M  V30 16168 H 1574.41 6.57969 1.36112 0
M  V30 16169 N 1577.13 -0.380637 1.52934 0
M  V30 16170 C 1578.41 -1.13958 1.58975 0
M  V30 16171 C 1578.79 -2.07503 0.388028 0
M  V30 16172 O 1578.14 -2.19844 -0.622984 0
M  V30 16173 C 1578.35 -1.89192 2.9327 0
M  V30 16174 C 1579.7 -2.44259 3.47308 0
M  V30 16175 O 1580.72 -1.99338 2.95199 0
M  V30 16176 O 1579.58 -3.26338 4.38367 0
M  V30 16177 H 1576.67 -0.521896 0.641525 0
M  V30 16178 H 1579.22 -0.385114 1.65272 0
M  V30 16179 H 1577.99 -1.20834 3.72176 0
M  V30 16180 H 1577.61 -2.71581 2.90395 0
M  V30 16181 N 1578.61 -1.44039 -0.639573 0
M  V30 16182 C 1580.03 -1.2774 -0.956802 0
M  V30 16183 C 1580.23 -0.207018 -2.00434 0
M  V30 16184 O 1579.28 0.409954 -2.4915 0
M  V30 16185 C 1580.6 -2.64624 -1.42809 0
M  V30 16186 C 1582.14 -2.72266 -1.54402 0
M  V30 16187 C 1582.62 -4.09601 -2.04918 0
M  V30 16188 N 1584.11 -4.11735 -2.122 0
M  V30 16189 C 1584.84 -5.14842 -2.52439 0
M  V30 16190 N 1584.34 -6.28316 -2.91875 0
M  V30 16191 N 1586.13 -5.02196 -2.52499 0
M  V30 16192 H 1578.28 -2.12333 0.0533569 0
M  V30 16193 H 1580.55 -0.947208 -0.0387401 0
M  V30 16194 H 1580.25 -3.43983 -0.732728 0
M  V30 16195 H 1580.13 -2.90944 -2.40066 0
M  V30 16196 H 1582.51 -1.93232 -2.23037 0
M  V30 16197 H 1582.6 -2.49697 -0.555426 0
M  V30 16198 H 1582.24 -4.89108 -1.3688 0
M  V30 16199 H 1582.17 -4.29542 -3.04633 0
M  V30 16200 H 1584.66 -3.29833 -1.84441 0
M  V30 16201 H 1584.97 -7.0281 -3.21368 0
M  V30 16202 H 1583.32 -6.31767 -2.89647 0
M  V30 16203 H 1586.51 -4.12606 -2.21075 0
M  V30 16204 H 1586.68 -5.82677 -2.83535 0
M  V30 16205 N 1580.09 0.879207 -1.30796 0
M  V30 16206 C 1581.5 1.16344 -1.09253 0
M  V30 16207 C 1581.7 2.00992 0.142993 0
M  V30 16208 O 1580.76 2.38295 0.834966 0
M  V30 16209 C 1582.07 1.86452 -2.35915 0
M  V30 16210 C 1583.62 1.99193 -2.41436 0
M  V30 16211 C 1584.1 2.72714 -3.67955 0
M  V30 16212 N 1585.59 2.80256 -3.68796 0
M  V30 16213 C 1586.32 3.37732 -4.63384 0
M  V30 16214 N 1585.82 3.96212 -5.6832 0
M  V30 16215 N 1587.61 3.35602 -4.50918 0
M  V30 16216 H 1579.76 0.314928 -2.10052 0
M  V30 16217 H 1582.03 0.202087 -0.92621 0
M  V30 16218 H 1581.73 1.31699 -3.26111 0
M  V30 16219 H 1581.61 2.86796 -2.45006 0
M  V30 16220 H 1583.99 2.53113 -1.51716 0
M  V30 16221 H 1584.07 0.97919 -2.36317 0
M  V30 16222 H 1583.72 2.19464 -4.58037 0
M  V30 16223 H 1583.65 3.74376 -3.70338 0
M  V30 16224 H 1586.14 2.38742 -2.92935 0
M  V30 16225 H 1586.45 4.38153 -6.36586 0
M  V30 16226 H 1584.8 3.94615 -5.72105 0
M  V30 16227 H 1587.99 2.89147 -3.68119 0
M  V30 16228 H 1588.16 3.80099 -5.24813 0
M  V30 16229 N 1581.57 1.13606 1.09231 0
M  V30 16230 C 1582.53 0.818197 2.14099 0
M  V30 16231 C 1583.53 -0.173275 1.59864 0
M  V30 16232 O 1584.72 0.05405 1.74116 0
M  V30 16233 C 1581.85 0.218138 3.40201 0
M  V30 16234 H 1583.05 1.74748 2.43727 0
M  V30 16235 H 1580.6 0.940962 1.24802 0
M  V30 16236 H 1581.33 -0.720269 3.162 0
M  V30 16237 H 1581.12 0.932156 3.80859 0
M  V30 16238 H 1582.61 0.0126639 4.17598 0
M  V30 16239 N 1583.05 -1.27244 0.929878 0
M  V30 16240 C 1583.98 -2.25097 0.375024 0
M  V30 16241 C 1584.96 -1.53726 -0.529833 0
M  V30 16242 O 1586.14 -1.82551 -0.469846 0
M  V30 16243 C 1583.27 -3.35531 -0.462271 0
M  V30 16244 C 1582.31 -4.24809 0.379462 0
M  V30 16245 S 1583.15 -5.04471 1.79637 0
M  V30 16246 C 1584.3 -6.18388 0.966815 0
M  V30 16247 H 1584.54 -2.71813 1.20436 0
M  V30 16248 H 1582.07 -1.35934 0.732211 0
M  V30 16249 H 1584.03 -3.99605 -0.939489 0
M  V30 16250 H 1582.69 -2.87449 -1.26616 0
M  V30 16251 H 1581.88 -5.03321 -0.261515 0
M  V30 16252 H 1581.48 -3.65541 0.790935 0
M  V30 16253 H 1583.77 -6.77193 0.203821 0
M  V30 16254 H 1584.72 -6.86767 1.72502 0
M  V30 16255 H 1585.13 -5.62211 0.507864 0
M  V30 16256 N 1584.52 -0.695628 -1.41417 0
M  V30 16257 C 1585.49 -0.0392949 -2.29166 0
M  V30 16258 C 1586.49 0.70789 -1.4438 0
M  V30 16259 O 1587.68 0.542771 -1.65528 0
M  V30 16260 C 1584.81 0.954719 -3.27258 0
M  V30 16261 H 1586 -0.811902 -2.88701 0
M  V30 16262 H 1583.55 -0.459128 -1.49405 0
M  V30 16263 H 1584.29 1.75509 -2.72703 0
M  V30 16264 H 1584.07 0.422079 -3.89822 0
M  V30 16265 H 1585.56 1.41174 -3.93014 0
M  V30 16266 N 1586 1.51322 -0.440383 0
M  V30 16267 C 1587.23 2.0653 0.123649 0
M  V30 16268 C 1587.64 1.30751 1.36197 0
M  V30 16269 O 1587 0.367932 1.78753 0
M  V30 16270 C 1587.05 3.58778 0.442802 0
M  V30 16271 O 1586.77 4.31695 -0.746375 0
M  V30 16272 C 1588.27 4.3051 1.05717 0
M  V30 16273 H 1585.49 0.670968 0.00657466 0
M  V30 16274 H 1588.04 1.94864 -0.620341 0
M  V30 16275 H 1586.19 3.70349 1.13669 0
M  V30 16276 H 1586.61 5.22368 -0.472466 0
M  V30 16277 H 1588.08 5.38111 1.23046 0
M  V30 16278 H 1588.56 3.88999 2.03903 0
M  V30 16279 H 1589.16 4.2339 0.402574 0
M  V30 16280 N 1587.48 0.171848 1.5666 0
M  V30 16281 C 1588.41 -0.753861 2.20996 0
M  V30 16282 C 1589.39 -1.23873 1.16574 0
M  V30 16283 O 1590.58 -1.29179 1.45005 0
M  V30 16284 C 1587.71 -1.98314 2.85112 0
M  V30 16285 C 1586.66 -1.6341 3.95577 0
M  V30 16286 C 1585.99 -2.93807 4.46745 0
M  V30 16287 C 1587.29 -0.861713 5.15142 0
M  V30 16288 H 1588.98 -0.217598 2.98608 0
M  V30 16289 H 1586.53 -0.10322 1.4363 0
M  V30 16290 H 1588.48 -2.63576 3.28794 0
M  V30 16291 H 1587.2 -2.54354 2.04869 0
M  V30 16292 H 1585.86 -1.00516 3.52551 0
M  V30 16293 H 1585.51 -3.47889 3.63293 0
M  V30 16294 H 1585.21 -2.71207 5.21268 0
M  V30 16295 H 1586.73 -3.60098 4.93114 0
M  V30 16296 H 1588.15 -1.41693 5.55514 0
M  V30 16297 H 1586.54 -0.734727 5.95585 0
M  V30 16298 H 1587.61 0.141851 4.84692 0
M  V30 16299 N 1588.96 -1.5727 -0.101874 0
M  V30 16300 C 1589.89 -2.04614 -1.12496 0
M  V30 16301 C 1590.87 -0.933768 -1.42179 0
M  V30 16302 O 1592.05 -1.2046 -1.52325 0
M  V30 16303 C 1589.18 -2.46488 -2.44665 0
M  V30 16304 C 1588.14 -3.61327 -2.29406 0
M  V30 16305 C 1587.46 -3.89155 -3.66691 0
M  V30 16306 C 1588.76 -4.92455 -1.74026 0
M  V30 16307 H 1590.46 -2.90336 -0.731109 0
M  V30 16308 H 1588 -1.39676 -0.350239 0
M  V30 16309 H 1589.96 -2.78216 -3.16502 0
M  V30 16310 H 1588.68 -1.57757 -2.85972 0
M  V30 16311 H 1587.34 -3.29835 -1.60015 0
M  V30 16312 H 1586.99 -2.97603 -4.05514 0
M  V30 16313 H 1586.69 -4.66465 -3.57329 0
M  V30 16314 H 1588.21 -4.23352 -4.40006 0
M  V30 16315 H 1589.63 -5.22609 -2.35697 0
M  V30 16316 H 1588.02 -5.73882 -1.75441 0
M  V30 16317 H 1589.09 -4.79833 -0.699136 0
M  V30 16318 N 1590.44 0.372521 -1.53134 0
M  V30 16319 C 1591.66 1.14116 -1.73183 0
M  V30 16320 C 1592.09 1.82475 -0.456553 0
M  V30 16321 O 1591.44 1.71468 0.588919 0
M  V30 16322 C 1591.49 2.15241 -2.89316 0
M  V30 16323 O 1590.6 3.22178 -2.57439 0
M  V30 16324 H 1589.94 0.331442 -0.575362 0
M  V30 16325 H 1592.47 0.431769 -1.99992 0
M  V30 16326 H 1592.48 2.58961 -3.15283 0
M  V30 16327 H 1591.15 1.64877 -3.81822 0
M  V30 16328 H 1589.73 2.83481 -2.42267 0
M  V30 16329 N 1591.91 1.44376 0.631925 0
M  V30 16330 C 1592.86 1.51181 1.74393 0
M  V30 16331 C 1593.83 0.359599 1.62161 0
M  V30 16332 O 1595.02 0.569725 1.82096 0
M  V30 16333 C 1592.16 1.46124 3.12637 0
M  V30 16334 C 1591.27 2.71714 3.35851 0
M  V30 16335 C 1590.4 2.58496 4.64062 0
M  V30 16336 C 1589.44 3.79252 4.80452 0
M  V30 16337 N 1588.58 3.64715 5.99939 0
M  V30 16338 H 1593.42 2.4619 1.67912 0
M  V30 16339 H 1590.96 1.22184 0.819108 0
M  V30 16340 H 1592.91 1.41183 3.92585 0
M  V30 16341 H 1591.54 0.546831 3.18135 0
M  V30 16342 H 1590.6 2.86845 2.49848 0
M  V30 16343 H 1591.91 3.61351 3.43841 0
M  V30 16344 H 1591.06 2.51383 5.5217 0
M  V30 16345 H 1589.8 1.66417 4.58428 0
M  V30 16346 H 1588.81 3.8675 3.90774 0
M  V30 16347 H 1590.03 4.72367 4.879 0
M  V30 16348 H 1587.98 2.75388 5.95397 0
M  V30 16349 H 1587.89 4.47969 6.08982 0
M  V30 16350 H 1589.16 3.61493 6.90611 0
M  V30 16351 N 1593.39 -0.872258 1.31261 0
M  V30 16352 C 1594.64 -1.62511 1.20815 0
M  V30 16353 C 1594.97 -1.93084 -0.234231 0
M  V30 16354 O 1594.22 -1.55945 -1.18236 0
M  V30 16355 C 1594.52 -2.96524 1.9952 0
M  V30 16356 C 1594.19 -2.85453 3.49038 0
M  V30 16357 C 1592.85 -2.8214 3.89808 0
M  V30 16358 C 1595.2 -2.72654 4.44195 0
M  V30 16359 C 1592.53 -2.63885 5.24005 0
M  V30 16360 C 1594.88 -2.55936 5.78515 0
M  V30 16361 C 1593.54 -2.51005 6.18508 0
M  V30 16362 H 1592.81 -0.594672 0.442093 0
M  V30 16363 H 1595.46 -1.01319 1.62501 0
M  V30 16364 H 1593.77 -3.61739 1.50507 0
M  V30 16365 H 1595.46 -3.53763 1.8882 0
M  V30 16366 H 1592.05 -2.88847 3.16647 0
M  V30 16367 H 1596.24 -2.7427 4.1363 0
M  V30 16368 H 1591.49 -2.58491 5.54069 0
M  V30 16369 H 1595.67 -2.45009 6.51877 0
M  V30 16370 H 1593.29 -2.36619 7.22437 0
M  V30 16371 N 1594.87 -1.14184 -1.08627 0
M  V30 16372 C 1596.29 -0.881757 -1.33031 0
M  V30 16373 C 1596.49 0.478313 -1.95741 0
M  V30 16374 O 1595.54 1.22308 -2.209 0
M  V30 16375 C 1596.85 -2.01274 -2.23404 0
M  V30 16376 C 1598.4 -2.04578 -2.3689 0
M  V30 16377 C 1598.88 -3.16962 -3.30604 0
M  V30 16378 N 1600.37 -3.16526 -3.3818 0
M  V30 16379 C 1601.1 -4.00124 -4.10716 0
M  V30 16380 N 1600.6 -4.93757 -4.8598 0
M  V30 16381 N 1602.39 -3.88193 -4.06525 0
M  V30 16382 H 1594.54 -2.01787 -0.663017 0
M  V30 16383 H 1596.81 -0.879152 -0.354677 0
M  V30 16384 H 1596.51 -2.9938 -1.84566 0
M  V30 16385 H 1596.39 -1.93393 -3.2385 0
M  V30 16386 H 1598.77 -1.0708 -2.74987 0
M  V30 16387 H 1598.85 -2.16529 -1.36194 0
M  V30 16388 H 1598.5 -4.14704 -2.93228 0
M  V30 16389 H 1598.43 -3.02248 -4.31223 0
M  V30 16390 H 1600.92 -2.48708 -2.84522 0
M  V30 16391 H 1601.23 -5.54015 -5.38783 0
M  V30 16392 H 1599.58 -4.97756 -4.8504 0
M  V30 16393 H 1602.77 -3.14365 -3.46831 0
M  V30 16394 H 1602.94 -4.53571 -4.62793 0
M  V30 16395 N 1596.35 1.26749 -0.936613 0
M  V30 16396 C 1597.6 1.93255 -0.577524 0
M  V30 16397 C 1597.91 1.74337 0.886905 0
M  V30 16398 O 1599.12 2.3526 1.35517 0
M  V30 16399 C 1597.57 3.4624 -0.982119 0
M  V30 16400 C 1597.18 3.739 -2.46784 0
M  V30 16401 C 1598.92 4.18777 -0.694706 0
M  V30 16402 C 1596.83 5.20303 -2.81138 0
M  V30 16403 H 1595.76 0.723502 -0.212276 0
M  V30 16404 H 1598.41 1.43901 -1.13863 0
M  V30 16405 H 1596.79 3.94454 -0.349577 0
M  V30 16406 H 1597.97 3.3641 -3.14905 0
M  V30 16407 H 1596.28 3.14587 -2.72808 0
M  V30 16408 H 1598.88 5.2659 -0.927756 0
M  V30 16409 H 1599.22 4.14667 0.368392 0
M  V30 16410 H 1599.76 3.76414 -1.28676 0
M  V30 16411 H 1596.5 5.29511 -3.86392 0
M  V30 16412 H 1596.02 5.58907 -2.17675 0
M  V30 16413 H 1597.69 5.88265 -2.69358 0
M  V30 16414 N 1597.83 0.703118 1.41046 0
M  V30 16415 C 1599.1 0.164985 1.94903 0
M  V30 16416 C 1599.48 -1.32665 1.64205 0
M  V30 16417 O 1598.83 -2.07675 0.953058 0
M  V30 16418 C 1599.04 0.464354 3.45897 0
M  V30 16419 C 1600.39 0.396205 4.22747 0
M  V30 16420 O 1601.41 0.399698 3.5395 0
M  V30 16421 O 1600.27 0.362874 5.45294 0
M  V30 16422 H 1597.37 0.0193901 0.826773 0
M  V30 16423 H 1599.91 0.779796 1.50722 0
M  V30 16424 H 1598.68 1.49653 3.61552 0
M  V30 16425 H 1598.31 -0.18105 3.97188 0
M  V30 16426 N 1599.3 -1.51086 0.448402 0
M  V30 16427 C 1600.55 -2.02177 -0.114342 0
M  V30 16428 C 1600.88 -1.3319 -1.41742 0
M  V30 16429 O 1600.13 -0.439101 -1.9071 0
M  V30 16430 C 1600.43 -3.55488 -0.369232 0
M  V30 16431 C 1600.1 -4.42828 0.849372 0
M  V30 16432 C 1598.76 -4.66418 1.18354 0
M  V30 16433 C 1601.11 -4.93998 1.66179 0
M  V30 16434 C 1598.44 -5.38424 2.33059 0
M  V30 16435 C 1600.79 -5.67262 2.79994 0
M  V30 16436 C 1599.46 -5.89113 3.13851 0
M  V30 16437 H 1598.73 -0.739818 -0.0418407 0
M  V30 16438 H 1601.37 -1.81928 0.597857 0
M  V30 16439 H 1599.68 -3.74127 -1.16344 0
M  V30 16440 H 1601.38 -3.92563 -0.818248 0
M  V30 16441 H 1597.97 -4.24671 0.578998 0
M  V30 16442 H 1602.15 -4.75647 1.41683 0
M  V30 16443 H 1597.41 -5.53554 2.59592 0
M  V30 16444 H 1601.58 -6.05899 3.43307 0
M  V30 16445 H 1599.21 -6.44686 4.02844 0
M  V30 16446 N 1600.78 -0.180154 -1.56567 0
M  V30 16447 C 1602.01 0.471692 -2.01965 0
M  V30 16448 C 1602.43 1.5542 -1.05954 0
M  V30 16449 O 1601.79 1.81255 -0.0405307 0
M  V30 16450 C 1601.84 1.01883 -3.45908 0
M  V30 16451 O 1600.94 2.13245 -3.52988 0
M  V30 16452 H 1600.28 0.11197 -0.654491 0
M  V30 16453 H 1602.81 -0.286642 -2.02582 0
M  V30 16454 H 1602.82 1.33922 -3.85395 0
M  V30 16455 H 1601.5 0.226299 -4.15284 0
M  V30 16456 H 1600.08 1.82184 -3.25367 0
M  V30 16457 N 1602.26 1.57322 0.0935319 0
M  V30 16458 C 1603.54 1.77187 0.828503 0
M  V30 16459 C 1603.92 0.762216 1.96859 0
M  V30 16460 O 1603.27 -0.208982 2.27542 0
M  V30 16461 C 1603.48 3.23007 1.32163 0
M  V30 16462 C 1604.82 3.86233 1.76379 0
M  V30 16463 O 1605.85 3.26766 1.41783 0
M  V30 16464 O 1604.71 4.90808 2.40354 0
M  V30 16465 H 1601.8 0.726401 0.395311 0
M  V30 16466 H 1604.35 1.69533 0.0752924 0
M  V30 16467 H 1603.12 3.88029 0.504863 0
M  V30 16468 H 1602.74 3.353 2.13681 0
M  V30 16469 N 1603.74 -0.364395 1.53329 0
M  V30 16470 C 1604.99 -1.10423 1.68789 0
M  V30 16471 C 1605.3 -1.90428 0.446819 0
M  V30 16472 O 1606.51 -2.67188 0.481978 0
M  V30 16473 C 1604.96 -2.01228 2.98388 0
M  V30 16474 C 1604.57 -1.26529 4.29761 0
M  V30 16475 C 1606.31 -2.75196 3.23214 0
M  V30 16476 C 1604.22 -2.16243 5.50448 0
M  V30 16477 H 1603.15 -0.415935 0.628899 0
M  V30 16478 H 1605.8 -0.365145 1.7983 0
M  V30 16479 H 1604.18 -2.78872 2.81152 0
M  V30 16480 H 1605.36 -0.5394 4.57632 0
M  V30 16481 H 1603.67 -0.644181 4.11387 0
M  V30 16482 H 1606.27 -3.42548 4.10567 0
M  V30 16483 H 1606.61 -3.40629 2.39327 0
M  V30 16484 H 1607.15 -2.04635 3.4113 0
M  V30 16485 H 1603.89 -1.55385 6.36817 0
M  V30 16486 H 1603.41 -2.86678 5.26855 0
M  V30 16487 H 1605.08 -2.75774 5.85284 0
M  V30 16488 N 1605.22 -1.44709 -0.62426 0
M  V30 16489 C 1606.15 -1.46578 -1.749 0
M  V30 16490 C 1607.13 -0.323875 -1.59342 0
M  V30 16491 O 1608.31 -0.521884 -1.81132 0
M  V30 16492 C 1605.44 -1.30499 -3.1255 0
M  V30 16493 C 1604.48 -2.48341 -3.4674 0
M  V30 16494 S 1605.32 -4.10857 -3.43448 0
M  V30 16495 C 1606.47 -3.97213 -4.83707 0
M  V30 16496 H 1606.71 -2.41747 -1.73049 0
M  V30 16497 H 1604.24 -1.3209 -0.799473 0
M  V30 16498 H 1606.2 -1.2191 -3.9198 0
M  V30 16499 H 1604.86 -0.368301 -3.11933 0
M  V30 16500 H 1604.05 -2.32972 -4.46923 0
M  V30 16501 H 1603.65 -2.53706 -2.74789 0
M  V30 16502 H 1605.95 -3.61328 -5.73104 0
M  V30 16503 H 1606.89 -4.9725 -5.04131 0
M  V30 16504 H 1607.3 -3.29154 -4.58604 0
M  V30 16505 N 1606.69 0.865285 -1.31722 0
M  V30 16506 C 1607.94 1.62108 -1.21855 0
M  V30 16507 C 1608.27 1.9293 0.221714 0
M  V30 16508 O 1607.55 1.56423 1.15595 0
M  V30 16509 C 1607.83 2.94828 -2.06756 0
M  V30 16510 C 1607.68 2.70855 -3.59107 0
M  V30 16511 C 1609 3.95983 -1.92055 0
M  V30 16512 H 1606.12 0.588234 -0.444015 0
M  V30 16513 H 1608.76 0.999922 -1.6156 0
M  V30 16514 H 1606.91 3.47843 -1.73025 0
M  V30 16515 H 1608.59 2.24477 -4.02999 0
M  V30 16516 H 1606.83 2.05004 -3.82303 0
M  V30 16517 H 1607.5 3.65312 -4.13825 0
M  V30 16518 H 1609.98 3.52193 -2.21584 0
M  V30 16519 H 1608.85 4.86724 -2.53754 0
M  V30 16520 H 1609.11 4.33148 -0.885174 0
M  V30 16521 N 1608.17 1.14759 1.0802 0
M  V30 16522 C 1609.1 0.860977 2.17047 0
M  V30 16523 C 1610.08 -0.185652 1.69084 0
M  V30 16524 O 1611.27 -0.0414797 1.94156 0
M  V30 16525 C 1608.4 0.342018 3.45612 0
M  V30 16526 C 1607.35 1.32455 4.06989 0
M  V30 16527 C 1606.68 0.664721 5.30552 0
M  V30 16528 C 1607.98 2.68819 4.4781 0
M  V30 16529 H 1609.67 1.77269 2.4128 0
M  V30 16530 H 1607.22 0.853757 1.15961 0
M  V30 16531 H 1609.17 0.129093 4.21202 0
M  V30 16532 H 1607.9 -0.605138 3.20945 0
M  V30 16533 H 1606.55 1.52371 3.33435 0
M  V30 16534 H 1606.2 -0.288367 5.02173 0
M  V30 16535 H 1605.9 1.32036 5.72573 0
M  V30 16536 H 1607.43 0.461412 6.08854 0
M  V30 16537 H 1608.84 2.52787 5.14559 0
M  V30 16538 H 1607.24 3.30694 5.00761 0
M  V30 16539 H 1608.31 3.25398 3.59506 0
M  V30 16540 N 1609.65 -1.26251 0.943322 0
M  V30 16541 C 1610.9 -1.9327 0.590863 0
M  V30 16542 C 1611.22 -1.74356 -0.873212 0
M  V30 16543 O 1610.49 -1.10046 -1.6207 0
M  V30 16544 H 1609.07 -0.71523 0.215535 0
M  V30 16545 H 1611.73 -1.53647 1.19911 0
M  V30 16546 H 1610.83 -3.01393 0.810475 0
M  V30 16547 N 1611.13 -0.710588 -1.40671 0
M  V30 16548 C 1612.41 -0.175319 -1.94813 0
M  V30 16549 C 1612.79 1.31792 -1.64906 0
M  V30 16550 O 1612.13 2.07167 -0.964058 0
M  V30 16551 C 1612.34 -0.482691 -3.45646 0
M  V30 16552 C 1613.69 -0.418619 -4.22531 0
M  V30 16553 O 1614.72 -0.418463 -3.53733 0
M  V30 16554 O 1613.58 -0.391787 -5.45094 0
M  V30 16555 H 1610.67 -0.0237744 -0.826658 0
M  V30 16556 H 1613.22 -0.787778 -1.50307 0
M  V30 16557 H 1611.99 -1.51569 -3.60753 0
M  V30 16558 H 1611.61 0.159984 -3.97278 0
M  V30 16559 N 1612.61 1.50847 -0.456408 0
M  V30 16560 C 1613.86 2.01425 0.105223 0
M  V30 16561 C 1614.17 1.34413 1.421 0
M  V30 16562 O 1615.38 1.76066 2.06671 0
M  V30 16563 C 1613.83 3.59112 0.238051 0
M  V30 16564 C 1613.44 4.35073 -1.06842 0
M  V30 16565 C 1615.18 4.17778 0.752428 0
M  V30 16566 C 1613.09 5.84509 -0.900194 0
M  V30 16567 H 1612.02 0.752767 0.0430992 0
M  V30 16568 H 1614.67 1.73788 -0.589075 0
M  V30 16569 H 1613.05 3.83275 0.995795 0
M  V30 16570 H 1614.23 4.22645 -1.83598 0
M  V30 16571 H 1612.54 3.87948 -1.51278 0
M  V30 16572 H 1615.14 5.27155 0.895088 0
M  V30 16573 H 1615.48 3.78195 1.73994 0
M  V30 16574 H 1616.02 3.97765 0.052476 0
M  V30 16575 H 1612.75 6.28538 -1.86064 0
M  V30 16576 H 1612.27 5.99551 -0.172767 0
M  V30 16577 H 1613.95 6.44564 -0.560943 0
M  V30 16578 N 1614.09 0.188454 1.56469 0
M  V30 16579 C 1615.03 -0.751822 2.20115 0
M  V30 16580 C 1616.03 -1.22476 1.1703 0
M  V30 16581 O 1617.23 -1.18843 1.3519 0
M  V30 16582 H 1613.61 -0.260778 0.705336 0
M  V30 16583 H 1615.58 -0.191249 2.97786 0
M  V30 16584 C 1614.33 -1.96365 2.86943 0
M  V30 16585 H 1613.65 -1.60879 3.66003 0
M  V30 16586 H 1615.09 -2.60007 3.34921 0
M  V30 16587 C 1613.55 -2.7982 1.87623 0
M  V30 16588 O 1614.08 -3.7753 1.37237 0
M  V30 16589 N 1612.29 -2.45179 1.55999 0
M  V30 16590 H 1611.83 -1.6578 1.97167 0
M  V30 16591 H 1611.79 -3.01302 0.898012 0
M  V30 16592 N 1615.56 -1.5737 -0.0851874 0
M  V30 16593 C 1616.79 -1.90802 -0.800137 0
M  V30 16594 C 1617.21 -0.783132 -1.71792 0
M  V30 16595 O 1616.56 0.244331 -1.80857 0
M  V30 16596 C 1616.61 -3.2391 -1.60513 0
M  V30 16597 O 1616.34 -4.32072 -0.724253 0
M  V30 16598 C 1617.84 -3.7127 -2.42226 0
M  V30 16599 H 1615.06 -0.630988 -0.228242 0
M  V30 16600 H 1617.6 -2.04414 -0.0594587 0
M  V30 16601 H 1615.76 -3.11867 -2.29822 0
M  V30 16602 H 1616.17 -5.08571 -1.28279 0
M  V30 16603 H 1617.64 -4.67074 -2.94187 0
M  V30 16604 H 1618.12 -2.99606 -3.21143 0
M  V30 16605 H 1618.73 -3.86214 -1.78099 0
M  V30 16606 N 1617.04 0.356258 -1.53521 0
M  V30 16607 C 1617.99 1.43689 -1.80616 0
M  V30 16608 C 1618.96 1.52808 -0.651064 0
M  V30 16609 O 1620.14 1.68549 -0.894203 0
M  V30 16610 C 1617.28 2.80513 -2.01013 0
M  V30 16611 C 1616.4 2.80287 -3.2873 0
M  V30 16612 C 1615.53 4.08747 -3.39263 0
M  V30 16613 C 1614.57 4.02699 -4.60977 0
M  V30 16614 N 1613.71 5.22825 -4.68614 0
M  V30 16615 H 1618.55 1.19884 -2.72822 0
M  V30 16616 H 1616.08 0.580984 -1.35141 0
M  V30 16617 H 1618.04 3.60011 -2.10827 0
M  V30 16618 H 1616.67 3.02698 -1.12134 0
M  V30 16619 H 1615.72 1.92968 -3.27822 0
M  V30 16620 H 1617.04 2.71693 -4.18311 0
M  V30 16621 H 1616.19 4.96663 -3.4844 0
M  V30 16622 H 1614.93 4.20106 -2.47715 0
M  V30 16623 H 1613.93 3.13168 -4.51892 0
M  V30 16624 H 1615.16 3.92934 -5.53877 0
M  V30 16625 H 1613.11 5.34752 -3.79969 0
M  V30 16626 H 1613.02 5.16437 -5.52113 0
M  V30 16627 H 1614.29 6.12548 -4.82085 0
M  V30 16628 N 1618.52 1.45038 0.616577 0
M  V30 16629 C 1619.93 1.4316 1.19842 0
M  V30 16630 C 1620.28 0.154504 1.95591 0
M  V30 16631 O 1619.41 -0.744409 2.03193 0
M  V30 16632 C 1620 2.59354 2.17993 0
M  V30 16633 C 1618.56 2.60625 2.71573 0
M  V30 16634 C 1617.71 2.35243 1.4682 0
M  V30 16635 H 1620.66 1.53408 0.406402 0
M  V30 16636 H 1620.68 2.32939 3.00865 0
M  V30 16637 H 1620.19 3.52288 1.62833 0
M  V30 16638 H 1618.29 1.71672 3.30695 0
M  V30 16639 H 1618.41 3.59568 3.16619 0
M  V30 16640 H 1616.77 1.84622 1.75462 0
M  V30 16641 H 1617.55 3.3031 0.935414 0
M  V30 16642 N 1620 -0.858287 1.32179 0
M  V30 16643 C 1620.94 -1.96656 1.20811 0
M  V30 16644 C 1621.91 -1.6585 0.0911199 0
M  V30 16645 O 1623.1 -1.88936 0.266033 0
M  V30 16646 C 1620.24 -3.32237 0.933408 0
M  V30 16647 C 1619.35 -3.75564 2.13484 0
M  V30 16648 C 1618.49 -4.9992 1.79593 0
M  V30 16649 C 1617.53 -5.35728 2.96077 0
M  V30 16650 N 1616.66 -6.51261 2.62304 0
M  V30 16651 H 1621.5 -2.05711 2.15609 0
M  V30 16652 H 1619.04 -1.00689 1.07239 0
M  V30 16653 H 1621 -4.10318 0.754651 0
M  V30 16654 H 1619.63 -3.22792 0.0222279 0
M  V30 16655 H 1618.68 -2.93167 2.42399 0
M  V30 16656 H 1619.99 -3.98025 3.00629 0
M  V30 16657 H 1619.15 -5.85698 1.58248 0
M  V30 16658 H 1617.89 -4.79388 0.896561 0
M  V30 16659 H 1616.89 -4.48463 3.18058 0
M  V30 16660 H 1618.12 -5.58219 3.86741 0
M  V30 16661 H 1616.06 -6.32254 1.74904 0
M  V30 16662 H 1615.98 -6.73722 3.42979 0
M  V30 16663 H 1617.25 -7.40202 2.4438 0
M  V30 16664 N 1621.48 -1.1533 -1.07409 0
M  V30 16665 C 1622.42 -0.849527 -2.14597 0
M  V30 16666 C 1623.39 0.197288 -1.64924 0
M  V30 16667 O 1624.58 0.0649694 -1.90689 0
M  V30 16668 C 1621.72 -0.344327 -3.43378 0
M  V30 16669 C 1620.83 -1.45264 -4.06844 0
M  V30 16670 C 1619.97 -0.90363 -5.23458 0
M  V30 16671 C 1619 -1.98892 -5.78885 0
M  V30 16672 N 1618.14 -1.45633 -6.8683 0
M  V30 16673 H 1622.98 -1.76753 -2.39922 0
M  V30 16674 H 1620.52 -0.881942 -1.17729 0
M  V30 16675 H 1622.48 -0.0331352 -4.17187 0
M  V30 16676 H 1621.11 0.536757 -3.18306 0
M  V30 16677 H 1620.16 -1.88003 -3.30695 0
M  V30 16678 H 1621.47 -2.27207 -4.44048 0
M  V30 16679 H 1620.62 -0.544945 -6.04248 0
M  V30 16680 H 1619.36 -0.0533648 -4.87671 0
M  V30 16681 H 1618.37 -2.35644 -4.96741 0
M  V30 16682 H 1619.59 -2.84295 -6.16728 0
M  V30 16683 H 1617.54 -0.628417 -6.52983 0
M  V30 16684 H 1617.46 -2.21204 -7.22914 0
M  V30 16685 H 1618.72 -1.12587 -7.71326 0
M  V30 16686 N 1622.95 1.25748 -0.950004 0
M  V30 16687 C 1623.86 2.29783 -0.472971 0
M  V30 16688 C 1624.88 1.6788 0.457403 0
M  V30 16689 O 1626.06 1.98598 0.334779 0
M  V30 16690 C 1623.12 3.45826 0.245955 0
M  V30 16691 C 1622.18 4.23184 -0.722063 0
M  V30 16692 C 1621.41 5.33687 -0.0373517 0
M  V30 16693 O 1621.64 5.58105 1.1779 0
M  V30 16694 O 1620.57 5.97572 -0.72054 0
M  V30 16695 H 1624.4 2.72668 -1.33737 0
M  V30 16696 H 1621.98 1.31111 -0.71626 0
M  V30 16697 H 1623.86 4.16348 0.650563 0
M  V30 16698 H 1622.54 3.04953 1.0856 0
M  V30 16699 H 1621.45 3.55109 -1.17679 0
M  V30 16700 H 1622.78 4.67829 -1.52959 0
M  V30 16701 N 1624.43 0.718038 1.40292 0
M  V30 16702 C 1625.38 0.0559466 2.32533 0
M  V30 16703 C 1626.37 -0.744365 1.5217 0
M  V30 16704 O 1627.58 -0.647458 1.67952 0
M  V30 16705 H 1623.95 -0.000710627 0.752 0
M  V30 16706 H 1625.93 0.850579 2.8602 0
M  V30 16707 C 1624.67 -0.849927 3.37152 0
M  V30 16708 H 1624 -0.243507 3.99058 0
M  V30 16709 H 1625.44 -1.28111 4.04183 0
M  V30 16710 C 1623.9 -1.9765 2.7283 0
M  V30 16711 O 1624.43 -3.06757 2.59351 0
M  V30 16712 N 1622.63 -1.76086 2.31176 0
M  V30 16713 H 1622.18 -0.873485 2.42339 0
M  V30 16714 H 1622.14 -2.51643 1.88477 0
M  V30 16715 N 1625.91 -1.50602 0.464402 0
M  V30 16716 C 1627.16 -2.01478 -0.0945398 0
M  V30 16717 C 1627.47 -1.35165 -1.41386 0
M  V30 16718 O 1628.68 -1.7716 -2.05735 0
M  V30 16719 C 1627.13 -3.59233 -0.219003 0
M  V30 16720 C 1626.74 -4.345 1.09148 0
M  V30 16721 C 1628.49 -4.18172 -0.730262 0
M  V30 16722 C 1626.39 -5.84023 0.931179 0
M  V30 16723 H 1625.32 -0.752985 -0.0391065 0
M  V30 16724 H 1627.97 -1.73473 0.598283 0
M  V30 16725 H 1626.36 -3.83798 -0.975455 0
M  V30 16726 H 1627.53 -4.21665 1.85837 0
M  V30 16727 H 1625.85 -3.8714 1.53334 0
M  V30 16728 H 1628.44 -5.27622 -0.867119 0
M  V30 16729 H 1628.79 -3.79113 -1.71986 0
M  V30 16730 H 1629.32 -3.97788 -0.0313808 0
M  V30 16731 H 1626.06 -6.27543 1.89395 0
M  V30 16732 H 1625.58 -5.99451 0.20456 0
M  V30 16733 H 1627.26 -6.44257 0.595118 0
M  V30 16734 N 1627.39 -0.19675 -1.56367 0
M  V30 16735 C 1628.64 0.441807 -1.96802 0
M  V30 16736 C 1628.95 1.62645 -1.08656 0
M  V30 16737 O 1630.16 2.33291 -1.3888 0
M  V30 16738 C 1628.61 0.837415 -3.50022 0
M  V30 16739 C 1628.22 -0.323031 -4.46834 0
M  V30 16740 C 1629.96 1.44296 -3.99223 0
M  V30 16741 C 1627.87 0.0936285 -5.91326 0
M  V30 16742 H 1626.8 0.168834 -0.734854 0
M  V30 16743 H 1629.45 -0.289029 -1.81209 0
M  V30 16744 H 1627.83 1.62497 -3.61124 0
M  V30 16745 H 1629.01 -1.10056 -4.47464 0
M  V30 16746 H 1627.32 -0.840182 -4.07836 0
M  V30 16747 H 1629.92 1.76718 -5.04653 0
M  V30 16748 H 1630.26 2.35003 -3.43627 0
M  V30 16749 H 1630.8 0.71935 -3.91242 0
M  V30 16750 H 1627.54 -0.779297 -6.50851 0
M  V30 16751 H 1627.06 0.835984 -5.93946 0
M  V30 16752 H 1628.73 0.528864 -6.44835 0
M  V30 16753 N 1628.87 1.57413 0.0768405 0
M  V30 16754 C 1629.83 2.02363 1.0762 0
M  V30 16755 C 1630.83 0.919879 1.3189 0
M  V30 16756 O 1632.02 1.18489 1.27695 0
M  V30 16757 C 1629.15 2.39995 2.42106 0
M  V30 16758 H 1630.34 2.91881 0.688889 0
M  V30 16759 H 1627.9 1.52938 0.322422 0
M  V30 16760 H 1628.63 1.53488 2.85678 0
M  V30 16761 H 1628.42 3.20534 2.25833 0
M  V30 16762 H 1629.91 2.75365 3.13948 0
M  V30 16763 N 1630.34 -0.348112 1.53707 0
M  V30 16764 C 1631.59 -1.08886 1.70734 0
M  V30 16765 C 1631.92 -1.88782 0.468142 0
M  V30 16766 O 1631.17 -1.8781 -0.550081 0
M  V30 16767 C 1631.47 -2.06123 2.91973 0
M  V30 16768 C 1631.14 -1.42574 4.27766 0
M  V30 16769 C 1629.8 -1.24971 4.64689 0
M  V30 16770 C 1632.15 -0.967538 5.12141 0
M  V30 16771 C 1629.48 -0.601597 5.83607 0
M  V30 16772 C 1631.83 -0.33335 6.31721 0
M  V30 16773 C 1630.5 -0.144967 6.67343 0
M  V30 16774 H 1629.77 -0.398444 0.624759 0
M  V30 16775 H 1632.41 -0.368657 1.87918 0
M  V30 16776 H 1630.72 -2.84509 2.69373 0
M  V30 16777 H 1632.42 -2.63423 3.0234 0
M  V30 16778 H 1629.01 -1.57271 3.98702 0
M  V30 16779 H 1633.19 -1.0914 4.84151 0
M  V30 16780 H 1628.45 -0.444216 6.09784 0
M  V30 16781 H 1632.62 0.0298081 6.96394 0
M  V30 16782 H 1630.25 0.359291 7.5935 0
M  V30 16783 N 1631.82 -1.45363 -0.608876 0
M  V30 16784 C 1632.73 -1.56471 -1.74797 0
M  V30 16785 C 1633.75 -0.449225 -1.68101 0
M  V30 16786 O 1634.92 -0.709731 -1.8848 0
M  V30 16787 C 1631.99 -1.52714 -3.11254 0
M  V30 16788 C 1631.05 -2.75291 -3.29414 0
M  V30 16789 C 1630.28 -2.71704 -4.59361 0
M  V30 16790 O 1630.51 -1.78959 -5.41599 0
M  V30 16791 O 1629.44 -3.62886 -4.80205 0
M  V30 16792 H 1633.27 -2.52751 -1.68377 0
M  V30 16793 H 1630.85 -1.27859 -0.772808 0
M  V30 16794 H 1632.73 -1.53222 -3.92557 0
M  V30 16795 H 1631.41 -0.595858 -3.18169 0
M  V30 16796 H 1630.32 -2.80345 -2.47704 0
M  V30 16797 H 1631.65 -3.67541 -3.27375 0
M  V30 16798 N 1633.3 0.851265 -1.32632 0
M  V30 16799 C 1634.21 1.99239 -1.23858 0
M  V30 16800 C 1635.23 1.73339 -0.151517 0
M  V30 16801 O 1636.4 1.97919 -0.372822 0
M  V30 16802 C 1633.47 3.32987 -0.965417 0
M  V30 16803 C 1632.53 3.72087 -2.14126 0
M  V30 16804 C 1631.76 4.99453 -1.88103 0
M  V30 16805 O 1631.98 5.64399 -0.825253 0
M  V30 16806 O 1630.92 5.35763 -2.74302 0
M  V30 16807 H 1634.74 2.09579 -2.19796 0
M  V30 16808 H 1632.33 0.98243 -1.12555 0
M  V30 16809 H 1634.21 4.13151 -0.829713 0
M  V30 16810 H 1632.89 3.2368 -0.036219 0
M  V30 16811 H 1631.79 2.92485 -2.33245 0
M  V30 16812 H 1633.13 3.86045 -3.05336 0
M  V30 16813 N 1634.78 1.15898 1.06796 0
M  V30 16814 C 1636.03 0.931848 1.78884 0
M  V30 16815 C 1636.34 -0.54197 1.87942 0
M  V30 16816 O 1637.55 -0.886848 2.56607 0
M  V30 16817 C 1636 1.61788 3.21485 0
M  V30 16818 C 1635.61 3.12911 3.2061 0
M  V30 16819 C 1637.35 1.47252 3.98142 0
M  V30 16820 C 1635.26 3.74275 4.579 0
M  V30 16821 H 1634.19 0.344998 0.670442 0
M  V30 16822 H 1636.84 1.38974 1.19827 0
M  V30 16823 H 1635.22 1.08769 3.80769 0
M  V30 16824 H 1636.4 3.72732 2.70938 0
M  V30 16825 H 1634.71 3.27273 2.57451 0
M  V30 16826 H 1637.31 1.90484 4.9962 0
M  V30 16827 H 1637.65 0.420766 4.14168 0
M  V30 16828 H 1638.19 1.97398 3.45367 0
M  V30 16829 H 1634.93 4.79376 4.47078 0
M  V30 16830 H 1634.45 3.19238 5.07786 0
M  V30 16831 H 1636.12 3.75532 5.26863 0
M  V30 16832 N 1636.26 -1.25243 0.956659 0
M  V30 16833 C 1637.51 -1.92312 0.608196 0
M  V30 16834 C 1637.82 -1.75726 -0.859058 0
M  V30 16835 O 1639.02 -2.37386 -1.31757 0
M  V30 16836 C 1637.48 -3.44634 1.03708 0
M  V30 16837 C 1637.09 -3.69927 2.52702 0
M  V30 16838 C 1638.83 -4.17619 0.761242 0
M  V30 16839 C 1636.74 -5.15765 2.8938 0
M  V30 16840 H 1635.67 -0.720033 0.22376 0
M  V30 16841 H 1638.32 -1.42071 1.16138 0
M  V30 16842 H 1636.7 -3.93848 0.412287 0
M  V30 16843 H 1637.88 -3.31357 3.20217 0
M  V30 16844 H 1636.19 -3.10207 2.77778 0
M  V30 16845 H 1638.79 -5.25047 1.01141 0
M  V30 16846 H 1639.13 -4.152 -0.302375 0
M  V30 16847 H 1639.66 -3.74319 1.34648 0
M  V30 16848 H 1636.4 -5.23296 3.94767 0
M  V30 16849 H 1635.92 -5.55374 2.26539 0
M  V30 16850 H 1637.6 -5.83905 2.78683 0
M  V30 16851 N 1637.73 -0.725468 -1.3991 0
M  V30 16852 C 1638.64 -0.0805887 -2.34462 0
M  V30 16853 C 1639.66 0.732689 -1.57822 0
M  V30 16854 O 1640.84 0.663362 -1.90162 0
M  V30 16855 C 1637.9 0.822908 -3.36792 0
M  V30 16856 C 1636.96 -0.00153812 -4.293 0
M  V30 16857 C 1636.2 0.85893 -5.26743 0
M  V30 16858 O 1636.42 2.09793 -5.30418 0
M  V30 16859 O 1635.35 0.292659 -6.01188 0
M  V30 16860 H 1639.18 -0.860746 -2.91247 0
M  V30 16861 H 1636.76 -0.48604 -1.41273 0
M  V30 16862 H 1638.65 1.34014 -3.99522 0
M  V30 16863 H 1637.32 1.58204 -2.82406 0
M  V30 16864 H 1636.23 -0.564072 -3.69823 0
M  V30 16865 H 1637.56 -0.722675 -4.86866 0
M  V30 16866 N 1639.21 1.50354 -0.472382 0
M  V30 16867 C 1640.62 1.86692 -0.0175768 0
M  V30 16868 C 1640.97 1.38708 1.3876 0
M  V30 16869 O 1640.1 0.752614 2.02891 0
M  V30 16870 C 1640.69 3.38791 -0.0251205 0
M  V30 16871 C 1639.25 3.74535 0.37422 0
M  V30 16872 C 1638.4 2.74252 -0.410045 0
M  V30 16873 H 1641.35 1.43079 -0.686593 0
M  V30 16874 H 1641.37 3.72487 0.776754 0
M  V30 16875 H 1640.88 3.73684 -1.04795 0
M  V30 16876 H 1638.99 3.45243 1.40135 0
M  V30 16877 H 1639.1 4.79042 0.0746666 0
M  V30 16878 H 1637.46 2.54334 0.136417 0
M  V30 16879 H 1638.25 3.11989 -1.43241 0
M  V30 16880 N 1640.69 0.205039 1.56261 0
M  V30 16881 C 1641.92 -0.435787 2.01952 0
M  V30 16882 C 1642.33 -1.55048 1.08428 0
M  V30 16883 O 1641.67 -1.83512 0.0831276 0
M  V30 16884 C 1641.73 -1.04359 3.4402 0
M  V30 16885 C 1641.4 -0.0663955 4.56952 0
M  V30 16886 C 1642.4 0.727909 5.14779 0
M  V30 16887 C 1640.08 0.0475718 5.02277 0
M  V30 16888 C 1642.07 1.62305 6.16389 0
M  V30 16889 C 1639.76 0.94626 6.03729 0
M  V30 16890 C 1640.76 1.73256 6.6066 0
M  V30 16891 O 1640.45 2.61617 7.60139 0
M  V30 16892 H 1640.18 -0.112721 0.666536 0
M  V30 16893 H 1642.73 0.313993 2.02986 0
M  V30 16894 H 1640.96 -1.84215 3.40003 0
M  V30 16895 H 1642.65 -1.5901 3.73458 0
M  V30 16896 H 1643.42 0.65022 4.80622 0
M  V30 16897 H 1639.3 -0.554295 4.57656 0
M  V30 16898 H 1642.84 2.23722 6.60753 0
M  V30 16899 H 1638.74 1.02503 6.3731 0
M  V30 16900 H 1639.51 2.55507 7.77598 0
M  V30 16901 N 1642.17 -1.57451 -0.0684915 0
M  V30 16902 C 1643.59 -1.53883 -0.423354 0
M  V30 16903 C 1643.79 -0.925698 -1.78978 0
M  V30 16904 O 1642.84 -0.529629 -2.46883 0
M  V30 16905 C 1644.15 -2.98521 -0.361386 0
M  V30 16906 C 1645.7 -3.09873 -0.441334 0
M  V30 16907 C 1646.18 -4.56168 -0.409239 0
M  V30 16908 N 1647.67 -4.60817 -0.469216 0
M  V30 16909 C 1648.4 -5.71498 -0.466648 0
M  V30 16910 N 1647.9 -6.91534 -0.4187 0
M  V30 16911 N 1649.69 -5.5975 -0.513452 0
M  V30 16912 H 1641.84 -1.95672 0.8262 0
M  V30 16913 H 1644.11 -0.895759 0.310354 0
M  V30 16914 H 1643.81 -3.46951 0.576035 0
M  V30 16915 H 1643.69 -3.58585 -1.17032 0
M  V30 16916 H 1646.07 -2.61414 -1.36918 0
M  V30 16917 H 1646.15 -2.52712 0.396237 0
M  V30 16918 H 1645.8 -5.05285 0.514772 0
M  V30 16919 H 1645.73 -5.11195 -1.26439 0
M  V30 16920 H 1648.22 -3.74438 -0.510387 0
M  V30 16921 H 1648.53 -7.71654 -0.420757 0
M  V30 16922 H 1646.88 -6.93931 -0.385338 0
M  V30 16923 H 1650.07 -4.64874 -0.548626 0
M  V30 16924 H 1650.24 -6.46006 -0.507982 0
M  V30 16925 N 1643.65 0.339955 -1.5389 0
M  V30 16926 C 1644.58 1.42316 -1.85117 0
M  V30 16927 C 1645.56 1.5473 -0.706591 0
M  V30 16928 O 1646.74 1.68879 -0.958834 0
M  V30 16929 C 1643.87 2.79317 -2.06396 0
M  V30 16930 C 1642.83 2.81707 -3.22219 0
M  V30 16931 C 1642.15 4.21627 -3.28838 0
M  V30 16932 C 1643.45 2.46921 -4.60247 0
M  V30 16933 H 1645.15 1.16431 -2.75834 0
M  V30 16934 H 1642.69 0.558661 -1.32721 0
M  V30 16935 H 1644.65 3.55145 -2.26826 0
M  V30 16936 H 1643.37 3.06644 -1.12414 0
M  V30 16937 H 1642.03 2.08332 -3.01651 0
M  V30 16938 H 1641.68 4.4607 -2.32444 0
M  V30 16939 H 1641.38 4.24137 -4.06672 0
M  V30 16940 H 1642.9 4.99292 -3.51482 0
M  V30 16941 H 1644.32 3.12462 -4.80667 0
M  V30 16942 H 1642.71 2.60707 -5.40511 0
M  V30 16943 H 1643.78 1.421 -4.63611 0
M  V30 16944 N 1645.13 1.45684 0.601159 0
M  V30 16945 C 1646.08 1.51269 1.70592 0
M  V30 16946 C 1647.06 0.375327 1.56461 0
M  V30 16947 O 1648.25 0.622591 1.65689 0
M  V30 16948 C 1645.38 1.4884 3.09357 0
M  V30 16949 C 1644.47 2.67803 3.2885 0
M  V30 16950 N 1644.86 3.92863 3.18578 0
M  V30 16951 C 1643.16 2.63636 3.59739 0
M  V30 16952 C 1643.86 4.72295 3.39577 0
M  V30 16953 N 1642.83 4.03856 3.63869 0
M  V30 16954 H 1646.63 2.45778 1.61153 0
M  V30 16955 H 1644.15 1.41066 0.804621 0
M  V30 16956 H 1646.15 1.50927 3.88621 0
M  V30 16957 H 1644.81 0.553931 3.1994 0
M  V30 16958 H 1645.82 4.24389 2.96841 0
M  V30 16959 H 1642.49 1.79127 3.77121 0
M  V30 16960 H 1643.88 5.8129 3.36974 0
M  V30 16961 N 1646.6 -0.84422 1.33082 0
M  V30 16962 C 1647.51 -1.9858 1.24913 0
M  V30 16963 C 1648.53 -1.73256 0.160708 0
M  V30 16964 O 1649.71 -1.97719 0.383313 0
M  V30 16965 C 1646.77 -3.32471 0.983063 0
M  V30 16966 C 1645.83 -3.70946 2.16096 0
M  V30 16967 C 1645.06 -4.98448 1.90749 0
M  V30 16968 O 1645.29 -5.63953 0.855173 0
M  V30 16969 O 1644.22 -5.34301 2.7714 0
M  V30 16970 H 1648.05 -2.0841 2.20905 0
M  V30 16971 H 1645.63 -0.976447 1.13075 0
M  V30 16972 H 1647.51 -4.12705 0.851612 0
M  V30 16973 H 1646.19 -3.23656 0.053384 0
M  V30 16974 H 1645.1 -2.91244 2.34793 0
M  V30 16975 H 1646.43 -3.8442 3.07379 0
M  V30 16976 N 1648.08 -1.16463 -1.0618 0
M  V30 16977 C 1649.36 -0.857038 -1.75824 0
M  V30 16978 C 1649.74 0.644886 -2.01009 0
M  V30 16979 O 1649.09 1.59305 -1.63812 0
M  V30 16980 C 1649.3 -1.681 -3.05849 0
M  V30 16981 C 1650.64 -1.8947 -3.79982 0
M  V30 16982 O 1651.67 -1.64975 -3.15692 0
M  V30 16983 O 1650.53 -2.30573 -4.95478 0
M  V30 16984 H 1647.62 -0.316364 -0.764096 0
M  V30 16985 H 1650.17 -1.27105 -1.12438 0
M  V30 16986 H 1648.94 -2.70014 -2.8321 0
M  V30 16987 H 1648.56 -1.2641 -3.7697 0
M  V30 16988 N 1649.56 1.24734 -0.963288 0
M  V30 16989 C 1650.84 1.88004 -0.539809 0
M  V30 16990 C 1651.22 1.86814 0.983035 0
M  V30 16991 O 1650.56 1.33769 1.85251 0
M  V30 16992 C 1650.77 3.30326 -1.1263 0
M  V30 16993 C 1652.12 4.07039 -1.20848 0
M  V30 16994 O 1653.15 3.3948 -1.07849 0
M  V30 16995 O 1652.01 5.27906 -1.41342 0
M  V30 16996 H 1649.1 0.807318 -0.17935 0
M  V30 16997 H 1651.65 1.3274 -1.05727 0
M  V30 16998 H 1650.42 3.25668 -2.16925 0
M  V30 16999 H 1650.04 3.93159 -0.592614 0
M  V30 17000 N 1651.04 0.732878 1.39523 0
M  V30 17001 C 1651.98 0.0915149 2.30618 0
M  V30 17002 C 1652.95 -0.731943 1.49103 0
M  V30 17003 O 1654.14 -0.692343 1.77796 0
M  V30 17004 C 1651.28 -0.811387 3.35426 0
M  V30 17005 C 1650.39 0.0244578 4.31993 0
M  V30 17006 C 1649.53 -0.879521 5.23868 0
M  V30 17007 C 1648.57 -0.0387974 6.12088 0
M  V30 17008 N 1647.7 -0.898593 6.96326 0
M  V30 17009 H 1652.54 0.87399 2.84895 0
M  V30 17010 H 1650.08 0.442659 1.40282 0
M  V30 17011 H 1652.04 -1.3493 3.94778 0
M  V30 17012 H 1650.67 -1.55986 2.8261 0
M  V30 17013 H 1649.72 0.679762 3.74277 0
M  V30 17014 H 1651.03 0.674606 4.94217 0
M  V30 17015 H 1650.19 -1.48535 5.88237 0
M  V30 17016 H 1648.93 -1.56345 4.6196 0
M  V30 17017 H 1647.93 0.579847 5.46734 0
M  V30 17018 H 1649.16 0.641887 6.7606 0
M  V30 17019 H 1647.1 -1.56786 6.36988 0
M  V30 17020 H 1647.02 -0.304876 7.55385 0
M  V30 17021 H 1648.29 -1.49005 7.65126 0
M  V30 17022 N 1652.52 -1.50101 0.480349 0
M  V30 17023 C 1653.43 -2.32488 -0.31408 0
M  V30 17024 C 1654.44 -1.43285 -0.987186 0
M  V30 17025 O 1655.62 -1.7633 -0.973123 0
M  V30 17026 C 1652.68 -3.18203 -1.37651 0
M  V30 17027 C 1651.74 -4.23236 -0.71903 0
M  V30 17028 C 1650.98 -5.04854 -1.73084 0
M  V30 17029 O 1651.2 -4.87681 -2.95843 0
M  V30 17030 O 1650.13 -5.87748 -1.29755 0
M  V30 17031 H 1653.96 -3.01562 0.3597 0
M  V30 17032 H 1651.54 -1.47427 0.242029 0
M  V30 17033 H 1653.43 -3.71362 -1.9917 0
M  V30 17034 H 1652.1 -2.51846 -2.0336 0
M  V30 17035 H 1651.01 -3.74044 -0.0646492 0
M  V30 17036 H 1652.34 -4.92089 -0.104743 0
M  V30 17037 N 1653.99 -0.213323 -1.5615 0
M  V30 17038 C 1654.93 0.732346 -2.17185 0
M  V30 17039 C 1655.94 1.16357 -1.13864 0
M  V30 17040 O 1657.13 1.09614 -1.40879 0
M  V30 17041 C 1654.23 2.0027 -2.73395 0
M  V30 17042 C 1653.4 1.72836 -4.01804 0
M  V30 17043 C 1652.46 2.84497 -4.4266 0
M  V30 17044 O 1651.49 2.5332 -5.09723 0
M  V30 17045 N 1652.69 4.13268 -4.07663 0
M  V30 17046 H 1655.45 0.210294 -2.98961 0
M  V30 17047 H 1653.01 -0.0320124 -1.61868 0
M  V30 17048 H 1655.01 2.74145 -2.97702 0
M  V30 17049 H 1653.58 2.43546 -1.9597 0
M  V30 17050 H 1652.8 0.826474 -3.85439 0
M  V30 17051 H 1654.08 1.51928 -4.85588 0
M  V30 17052 H 1653.48 4.41444 -3.53756 0
M  V30 17053 H 1652.04 4.83713 -4.36881 0
M  V30 17054 N 1655.47 1.57485 0.0601405 0
M  V30 17055 C 1656.75 1.78904 0.790732 0
M  V30 17056 C 1657.13 0.803802 1.95198 0
M  V30 17057 O 1656.48 -0.16067 2.27934 0
M  V30 17058 C 1656.69 3.25738 1.25282 0
M  V30 17059 C 1658.04 3.89887 1.68147 0
M  V30 17060 O 1659.06 3.297 1.3482 0
M  V30 17061 O 1657.92 4.95796 2.29889 0
M  V30 17062 H 1655.01 0.734623 0.379814 0
M  V30 17063 H 1657.56 1.69654 0.0393151 0
M  V30 17064 H 1656.33 3.89013 0.422442 0
M  V30 17065 H 1655.95 3.39757 2.06521 0
M  V30 17066 N 1656.95 -0.331789 1.54068 0
M  V30 17067 C 1658.2 -1.06818 1.71093 0
M  V30 17068 C 1658.51 -1.89438 0.487111 0
M  V30 17069 O 1659.72 -2.66105 0.538544 0
M  V30 17070 C 1658.17 -1.94853 3.02589 0
M  V30 17071 C 1657.78 -1.17384 4.32348 0
M  V30 17072 C 1659.53 -2.68278 3.28979 0
M  V30 17073 C 1657.43 -2.04518 5.54911 0
M  V30 17074 H 1656.36 -0.402501 0.63758 0
M  V30 17075 H 1659.01 -0.326918 1.80564 0
M  V30 17076 H 1657.4 -2.72845 2.87004 0
M  V30 17077 H 1658.57 -0.442208 4.58673 0
M  V30 17078 H 1656.89 -0.556775 4.12661 0
M  V30 17079 H 1659.48 -3.33762 4.1774 0
M  V30 17080 H 1659.83 -3.35476 2.46498 0
M  V30 17081 H 1660.36 -1.97353 3.45394 0
M  V30 17082 H 1657.1 -1.41842 6.3997 0
M  V30 17083 H 1656.62 -2.75438 5.32817 0
M  V30 17084 H 1658.3 -2.63297 5.91002 0
M  V30 17085 N 1658.43 -1.46001 -0.593424 0
M  V30 17086 C 1659.39 -1.55347 -1.68523 0
M  V30 17087 C 1660.39 -0.431599 -1.549 0
M  V30 17088 O 1661.58 -0.695559 -1.59711 0
M  V30 17089 C 1658.71 -1.46355 -3.07885 0
M  V30 17090 H 1659.91 -2.52639 -1.61597 0
M  V30 17091 H 1657.46 -1.33652 -0.810363 0
M  V30 17092 H 1658.19 -0.503024 -3.20375 0
M  V30 17093 H 1657.98 -2.27741 -3.19181 0
M  V30 17094 H 1659.47 -1.55958 -3.87385 0
M  V30 17095 N 1659.91 0.83715 -1.33527 0
M  V30 17096 C 1661.18 1.57727 -1.15678 0
M  V30 17097 C 1661.56 2.09286 0.276178 0
M  V30 17098 O 1660.91 1.89589 1.27547 0
M  V30 17099 C 1661.12 2.70978 -2.19936 0
M  V30 17100 C 1662.47 3.40114 -2.5418 0
M  V30 17101 O 1663.49 2.81221 -2.18616 0
M  V30 17102 O 1662.35 4.46431 -3.15217 0
M  V30 17103 H 1659.45 0.69545 -0.447525 0
M  V30 17104 H 1661.99 0.879756 -1.45115 0
M  V30 17105 H 1660.76 2.30532 -3.16181 0
M  V30 17106 H 1660.39 3.48393 -1.91594 0
M  V30 17107 N 1661.38 1.17024 1.05561 0
M  V30 17108 C 1662.33 0.88356 2.13218 0
M  V30 17109 C 1663.3 -0.171025 1.65217 0
M  V30 17110 O 1664.49 -0.0346242 1.90769 0
M  V30 17111 C 1661.63 0.398912 3.42787 0
M  V30 17112 C 1660.74 1.51718 4.04482 0
M  V30 17113 C 1659.87 0.986793 5.21954 0
M  V30 17114 C 1658.91 2.08077 5.75648 0
M  V30 17115 N 1658.05 1.56542 6.84426 0
M  V30 17116 H 1662.89 1.80548 2.37079 0
M  V30 17117 H 1660.43 0.90056 1.16311 0
M  V30 17118 H 1662.39 0.0995018 4.17081 0
M  V30 17119 H 1661.02 -0.48605 3.1912 0
M  V30 17120 H 1660.07 1.9324 3.27662 0
M  V30 17121 H 1661.38 2.34243 4.40377 0
M  V30 17122 H 1660.53 0.641006 6.03304 0
M  V30 17123 H 1659.27 0.130942 4.87524 0
M  V30 17124 H 1658.28 2.43517 4.9293 0
M  V30 17125 H 1659.5 2.94071 6.12127 0
M  V30 17126 H 1657.45 0.732221 6.51901 0
M  V30 17127 H 1657.37 2.32677 7.19303 0
M  V30 17128 H 1658.63 1.24844 7.69438 0
M  V30 17129 N 1662.86 -1.24221 0.969889 0
M  V30 17130 C 1663.8 -2.2379 0.446447 0
M  V30 17131 C 1664.77 -1.55333 -0.480658 0
M  V30 17132 O 1665.96 -1.83953 -0.411531 0
M  V30 17133 C 1663.08 -3.36831 -0.35529 0
M  V30 17134 C 1662.13 -4.23386 0.514419 0
M  V30 17135 S 1662.96 -4.98501 1.95595 0
M  V30 17136 C 1664.12 -6.14999 1.16306 0
M  V30 17137 H 1664.35 -2.67844 1.29023 0
M  V30 17138 H 1661.89 -1.33536 0.775086 0
M  V30 17139 H 1663.84 -4.02391 -0.811882 0
M  V30 17140 H 1662.5 -2.91332 -1.17407 0
M  V30 17141 H 1661.7 -5.03898 -0.101254 0
M  V30 17142 H 1661.3 -3.6284 0.906829 0
M  V30 17143 H 1663.59 -6.76202 0.419162 0
M  V30 17144 H 1664.53 -6.80931 1.94264 0
M  V30 17145 H 1664.94 -5.6031 0.68647 0
M  V30 17146 N 1664.34 -0.740267 -1.39132 0
M  V30 17147 C 1665.29 -0.103744 -2.30567 0
M  V30 17148 C 1666.26 0.724026 -1.49489 0
M  V30 17149 O 1667.44 0.682904 -1.7816 0
M  V30 17150 C 1664.58 0.793587 -3.35851 0
M  V30 17151 C 1663.7 -0.0473671 -4.31974 0
M  V30 17152 C 1662.83 0.851726 -5.24327 0
M  V30 17153 C 1661.87 0.00633633 -6.121 0
M  V30 17154 N 1661.01 0.861652 -6.96793 0
M  V30 17155 H 1665.85 -0.889087 -2.84428 0
M  V30 17156 H 1663.38 -0.450093 -1.40045 0
M  V30 17157 H 1665.34 1.32834 -3.95488 0
M  V30 17158 H 1663.97 1.54485 -2.83433 0
M  V30 17159 H 1663.02 -0.699601 -3.73911 0
M  V30 17160 H 1664.34 -0.700806 -4.93852 0
M  V30 17161 H 1663.49 1.45413 -5.89016 0
M  V30 17162 H 1662.23 1.53893 -4.62783 0
M  V30 17163 H 1661.23 -0.608833 -5.46419 0
M  V30 17164 H 1662.46 -0.677731 -6.7571 0
M  V30 17165 H 1660.4 1.53405 -6.37811 0
M  V30 17166 H 1660.32 0.264812 -7.55536 0
M  V30 17167 H 1661.59 1.44945 -7.65905 0
M  V30 17168 N 1665.82 1.49844 -0.488302 0
M  V30 17169 C 1666.73 2.32651 0.301746 0
M  V30 17170 C 1667.74 1.43807 0.979573 0
M  V30 17171 O 1668.92 1.76844 0.963758 0
M  V30 17172 C 1665.99 3.18928 1.35962 0
M  V30 17173 C 1665.05 4.23611 0.696575 0
M  V30 17174 C 1664.28 5.05765 1.70404 0
M  V30 17175 O 1664.5 4.89243 2.93253 0
M  V30 17176 O 1663.44 5.88427 1.26637 0
M  V30 17177 H 1667.26 3.01367 -0.375687 0
M  V30 17178 H 1664.85 1.47296 -0.249844 0
M  V30 17179 H 1666.73 3.72413 1.97198 0
M  V30 17180 H 1665.4 2.52921 2.02021 0
M  V30 17181 H 1664.31 3.74073 0.0448118 0
M  V30 17182 H 1665.64 4.92137 0.0786446 0
M  V30 17183 N 1667.3 0.221601 1.56034 0
M  V30 17184 C 1668.57 -0.459097 1.90136 0
M  V30 17185 C 1668.95 -1.7774 1.13894 0
M  V30 17186 O 1668.3 -2.27147 0.248285 0
M  V30 17187 C 1668.51 -0.651996 3.42856 0
M  V30 17188 C 1669.86 -0.959402 4.13619 0
M  V30 17189 O 1670.88 -0.73878 3.48454 0
M  V30 17190 O 1669.74 -1.37811 5.28839 0
M  V30 17191 H 1666.84 -0.242753 0.790569 0
M  V30 17192 H 1669.38 0.263789 1.67637 0
M  V30 17193 H 1668.15 0.277892 3.90312 0
M  V30 17194 H 1667.78 -1.42637 3.71134 0
M  V30 17195 N 1668.77 -1.57515 -0.0517878 0
M  V30 17196 C 1669.68 -2.08427 -1.07681 0
M  V30 17197 C 1670.7 -1.01797 -1.41115 0
M  V30 17198 O 1671.88 -1.33394 -1.50891 0
M  V30 17199 C 1668.94 -2.53472 -2.36544 0
M  V30 17200 C 1668 -3.74488 -2.09899 0
M  V30 17201 C 1667.24 -4.17374 -3.32618 0
M  V30 17202 O 1667.46 -3.59962 -4.42475 0
M  V30 17203 O 1666.39 -5.10006 -3.19653 0
M  V30 17204 H 1670.22 -2.96122 -0.674217 0
M  V30 17205 H 1667.8 -1.4699 -0.267274 0
M  V30 17206 H 1669.69 -2.82876 -3.12345 0
M  V30 17207 H 1668.36 -1.68899 -2.76143 0
M  V30 17208 H 1667.27 -3.50137 -1.31739 0
M  V30 17209 H 1668.6 -4.59975 -1.75169 0
M  V30 17210 N 1670.25 0.323614 -1.54242 0
M  V30 17211 C 1671.66 0.898051 -1.63682 0
M  V30 17212 C 1672.02 1.88882 -0.530861 0
M  V30 17213 O 1671.14 2.13772 0.336245 0
M  V30 17214 C 1671.74 1.63561 -2.96704 0
M  V30 17215 C 1670.29 2.15877 -3.08341 0
M  V30 17216 C 1669.44 0.984145 -2.59249 0
M  V30 17217 H 1672.39 0.101198 -1.58377 0
M  V30 17218 H 1672.41 2.49982 -2.86861 0
M  V30 17219 H 1671.93 0.914265 -3.77177 0
M  V30 17220 H 1670.03 2.91127 -2.32542 0
M  V30 17221 H 1670.14 2.40881 -4.14141 0
M  V30 17222 H 1668.5 1.3633 -2.15143 0
M  V30 17223 H 1669.29 0.277118 -3.4218 0
M  V30 17224 N 1671.73 1.46313 0.585673 0
M  V30 17225 C 1672.98 1.52682 1.34387 0
M  V30 17226 C 1673.33 0.174924 1.91603 0
M  V30 17227 O 1672.63 -0.816026 1.73354 0
M  V30 17228 C 1672.82 2.55895 2.49504 0
M  V30 17229 C 1672.65 4.00988 2.03564 0
M  V30 17230 C 1671.42 4.68736 1.88718 0
M  V30 17231 C 1673.62 4.88874 1.59707 0
M  V30 17232 N 1671.6 5.9846 1.36818 0
M  V30 17233 C 1672.97 6.08399 1.19377 0
M  V30 17234 C 1675.02 4.75551 1.47498 0
M  V30 17235 C 1673.73 7.16073 0.680543 0
M  V30 17236 C 1675.75 5.83294 0.975784 0
M  V30 17237 C 1675.12 7.01989 0.582251 0
M  V30 17238 H 1671.21 0.613553 0.484847 0
M  V30 17239 H 1673.8 1.82912 0.667171 0
M  V30 17240 H 1671.97 2.2758 3.14741 0
M  V30 17241 H 1673.7 2.52277 3.16446 0
M  V30 17242 H 1670.46 4.24212 2.10574 0
M  V30 17243 H 1670.88 6.67497 1.13037 0
M  V30 17244 H 1675.52 3.84178 1.76543 0
M  V30 17245 H 1673.24 8.07217 0.377678 0
M  V30 17246 H 1676.83 5.75025 0.885268 0
M  V30 17247 H 1675.71 7.8394 0.201937 0
M  V30 17248 N 1673.21 -0.830057 1.33969 0
M  V30 17249 C 1674.63 -1.12209 1.13496 0
M  V30 17250 C 1674.83 -2.01384 -0.0682972 0
M  V30 17251 O 1673.88 -2.4123 -0.745949 0
M  V30 17252 C 1675.19 -1.77568 2.42673 0
M  V30 17253 C 1676.74 -1.90095 2.48662 0
M  V30 17254 C 1677.22 -2.5887 3.77823 0
M  V30 17255 N 1678.71 -2.66375 3.78944 0
M  V30 17256 C 1679.44 -3.20301 4.75599 0
M  V30 17257 N 1678.94 -3.74846 5.82634 0
M  V30 17258 N 1680.73 -3.18636 4.63063 0
M  V30 17259 H 1672.88 -0.236752 2.11076 0
M  V30 17260 H 1675.15 -0.167572 0.933072 0
M  V30 17261 H 1674.85 -1.19505 3.30774 0
M  V30 17262 H 1674.73 -2.77505 2.55481 0
M  V30 17263 H 1677.11 -2.47308 1.61005 0
M  V30 17264 H 1677.19 -0.890808 2.39788 0
M  V30 17265 H 1676.84 -2.02313 4.65867 0
M  V30 17266 H 1676.77 -3.60373 3.83978 0
M  V30 17267 H 1679.26 -2.27705 3.01594 0
M  V30 17268 H 1679.57 -4.14224 6.52409 0
M  V30 17269 H 1677.92 -3.7311 5.86357 0
M  V30 17270 H 1681.11 -2.75286 3.78597 0
M  V30 17271 H 1681.28 -3.60359 5.38559 0
M  V30 17272 N 1674.69 -1.17582 -1.04939 0
M  V30 17273 C 1675.94 -0.960189 -1.77379 0
M  V30 17274 C 1676.25 0.512001 -1.8878 0
M  V30 17275 O 1677.46 0.845912 -2.57986 0
M  V30 17276 C 1675.91 -1.66882 -3.18871 0
M  V30 17277 C 1675.52 -3.17972 -3.15591 0
M  V30 17278 C 1677.26 -1.53567 -3.95749 0
M  V30 17279 C 1675.17 -3.81513 -4.51887 0
M  V30 17280 H 1674.1 -0.35562 -0.664869 0
M  V30 17281 H 1676.75 -1.40863 -1.17601 0
M  V30 17282 H 1675.13 -1.14813 -3.78991 0
M  V30 17283 H 1676.31 -3.76995 -2.64974 0
M  V30 17284 H 1674.62 -3.31328 -2.52212 0
M  V30 17285 H 1677.22 -1.98408 -4.96526 0
M  V30 17286 H 1677.56 -0.486603 -4.13446 0
M  V30 17287 H 1678.1 -2.02868 -3.42183 0
M  V30 17288 H 1674.83 -4.86428 -4.39395 0
M  V30 17289 H 1674.35 -3.27276 -5.02643 0
M  V30 17290 H 1676.03 -3.83867 -5.20822 0
M  V30 17291 N 1676.17 1.23705 -0.976463 0
M  V30 17292 C 1677.39 1.96055 -0.661065 0
M  V30 17293 C 1677.81 1.7233 0.77121 0
M  V30 17294 O 1677.17 1.01234 1.51849 0
M  V30 17295 C 1677.22 3.49144 -0.937071 0
M  V30 17296 O 1676.94 3.72061 -2.31305 0
M  V30 17297 C 1678.44 4.38698 -0.637077 0
M  V30 17298 H 1675.66 0.624319 -0.245901 0
M  V30 17299 H 1678.2 1.57301 -1.30678 0
M  V30 17300 H 1676.36 3.85928 -0.33743 0
M  V30 17301 H 1676.77 4.66383 -2.39973 0
M  V30 17302 H 1678.25 5.44931 -0.88059 0
M  V30 17303 H 1678.72 4.37102 0.428802 0
M  V30 17304 H 1679.33 4.07515 -1.21702 0
M  V30 17305 N 1677.64 0.747635 1.38738 0
M  V30 17306 C 1678.92 0.226908 1.94279 0
M  V30 17307 C 1679.3 -1.27373 1.68343 0
M  V30 17308 O 1678.65 -2.04538 1.01865 0
M  V30 17309 C 1678.86 0.574164 3.44245 0
M  V30 17310 C 1680.21 0.530498 4.21273 0
M  V30 17311 O 1681.23 0.512102 3.525 0
M  V30 17312 O 1680.09 0.536171 5.43863 0
M  V30 17313 H 1677.18 0.0456834 0.825737 0
M  V30 17314 H 1679.73 0.827353 1.48165 0
M  V30 17315 H 1678.5 1.6108 3.56607 0
M  V30 17316 H 1678.12 -0.0545964 3.97563 0
M  V30 17317 N 1679.12 -1.49583 0.496242 0
M  V30 17318 C 1680.07 -2.30677 -0.298474 0
M  V30 17319 C 1681.06 -1.39074 -0.967207 0
M  V30 17320 O 1682.27 -1.56147 -0.895439 0
M  V30 17321 H 1678.64 -0.743138 -0.11511 0
M  V30 17322 H 1680.62 -2.95632 0.405533 0
M  V30 17323 C 1679.36 -3.20297 -1.35297 0
M  V30 17324 H 1678.69 -3.90708 -0.847789 0
M  V30 17325 H 1680.13 -3.79987 -1.88111 0
M  V30 17326 C 1678.59 -2.39584 -2.36857 0
M  V30 17327 O 1679.12 -2.09662 -3.42644 0
M  V30 17328 N 1677.32 -2.01695 -2.09206 0
M  V30 17329 H 1676.87 -2.26229 -1.23201 0
M  V30 17330 H 1676.83 -1.47998 -2.77388 0
M  V30 17331 N 1680.6 -0.229873 -1.55915 0
M  V30 17332 C 1681.51 0.687953 -2.24286 0
M  V30 17333 C 1682.53 1.20705 -1.25325 0
M  V30 17334 O 1683.7 1.2469 -1.58159 0
M  V30 17335 C 1680.77 1.87563 -2.91584 0
M  V30 17336 C 1679.83 1.39769 -4.0591 0
M  V30 17337 C 1679.06 2.52876 -4.69989 0
M  V30 17338 O 1679.28 3.71208 -4.33083 0
M  V30 17339 O 1678.22 2.23603 -5.58825 0
M  V30 17340 H 1682.04 0.135464 -3.03398 0
M  V30 17341 H 1679.63 0.000925172 -1.494 0
M  V30 17342 H 1681.51 2.56907 -3.34031 0
M  V30 17343 H 1680.19 2.41606 -2.15426 0
M  V30 17344 H 1679.09 0.672029 -3.68014 0
M  V30 17345 H 1680.43 0.903543 -4.83836 0
M  V30 17346 N 1682.08 1.5754 0.0434337 0
M  V30 17347 C 1683.01 2.08648 1.04824 0
M  V30 17348 C 1683.99 0.985894 1.38615 0
M  V30 17349 O 1685.17 1.2603 1.4775 0
M  V30 17350 C 1682.3 2.55399 2.35348 0
M  V30 17351 C 1681.26 3.69592 2.15837 0
M  V30 17352 C 1680.58 4.02497 3.51995 0
M  V30 17353 C 1681.88 4.98575 1.55629 0
M  V30 17354 H 1683.58 2.9285 0.622849 0
M  V30 17355 H 1681.12 1.40879 0.298158 0
M  V30 17356 H 1683.08 2.89771 3.05958 0
M  V30 17357 H 1681.8 1.68262 2.7992 0
M  V30 17358 H 1680.46 3.35546 1.47663 0
M  V30 17359 H 1680.11 3.12448 3.94189 0
M  V30 17360 H 1679.81 4.79406 3.39771 0
M  V30 17361 H 1681.33 4.39391 4.23991 0
M  V30 17362 H 1682.75 5.30996 2.16138 0
M  V30 17363 H 1681.14 5.79998 1.54021 0
M  V30 17364 H 1682.21 4.82098 0.520567 0
M  V30 17365 N 1683.56 -0.31543 1.54411 0
M  V30 17366 C 1684.47 -1.41136 1.87397 0
M  V30 17367 C 1685.48 -1.56199 0.76668 0
M  V30 17368 O 1686.66 -1.71139 1.06176 0
M  V30 17369 C 1683.72 -2.75731 2.10174 0
M  V30 17370 C 1682.78 -2.69776 3.33945 0
M  V30 17371 C 1682.02 -3.97952 3.55626 0
M  V30 17372 O 1682.24 -4.96614 2.80589 0
M  V30 17373 O 1681.17 -4.00719 4.49119 0
M  V30 17374 H 1685 -1.16167 2.80605 0
M  V30 17375 H 1682.58 -0.510193 1.40419 0
M  V30 17376 H 1684.47 -3.55392 2.26439 0
M  V30 17377 H 1683.14 -3.00574 1.20154 0
M  V30 17378 H 1682.05 -1.88638 3.23058 0
M  V30 17379 H 1683.38 -2.49887 4.24049 0
M  V30 17380 N 1685.03 -1.46622 -0.577906 0
M  V30 17381 C 1685.96 -1.60413 -1.69676 0
M  V30 17382 C 1686.95 -0.454277 -1.63922 0
M  V30 17383 O 1688.13 -0.68111 -1.81864 0
M  V30 17384 C 1685.26 -1.59866 -3.08318 0
M  V30 17385 C 1684.21 -2.7387 -3.28906 0
M  V30 17386 C 1683.54 -2.58386 -4.68125 0
M  V30 17387 C 1684.84 -4.15652 -3.16276 0
M  V30 17388 H 1686.53 -2.54073 -1.5839 0
M  V30 17389 H 1684.08 -1.22275 -0.760572 0
M  V30 17390 H 1686.03 -1.68108 -3.86417 0
M  V30 17391 H 1684.76 -0.627541 -3.20514 0
M  V30 17392 H 1683.42 -2.65105 -2.53209 0
M  V30 17393 H 1683.06 -1.59347 -4.77093 0
M  V30 17394 H 1682.76 -3.34855 -4.82852 0
M  V30 17395 H 1684.29 -2.68525 -5.48385 0
M  V30 17396 H 1685.7 -4.25503 -3.84214 0
M  V30 17397 H 1684.1 -4.92746 -3.42523 0
M  V30 17398 H 1685.17 -4.35471 -2.13291 0
M  V30 17399 N 1686.51 0.822941 -1.34408 0
M  V30 17400 C 1687.74 1.60854 -1.29652 0
M  V30 17401 C 1688.15 1.88742 0.131572 0
M  V30 17402 O 1687.49 1.47936 1.08907 0
M  V30 17403 C 1687.56 2.97437 -2.0192 0
M  V30 17404 C 1687.22 2.92443 -3.51178 0
M  V30 17405 C 1688.22 2.67029 -4.46085 0
M  V30 17406 C 1685.9 3.12076 -3.93591 0
M  V30 17407 C 1687.9 2.61299 -5.81379 0
M  V30 17408 C 1685.58 3.05971 -5.28985 0
M  V30 17409 C 1686.58 2.80615 -6.22691 0
M  V30 17410 O 1686.27 2.74442 -7.55603 0
M  V30 17411 H 1686 0.506701 -0.447471 0
M  V30 17412 H 1688.55 1.03197 -1.77594 0
M  V30 17413 H 1686.78 3.57012 -1.48592 0
M  V30 17414 H 1688.47 3.58444 -1.90455 0
M  V30 17415 H 1689.24 2.51596 -4.14638 0
M  V30 17416 H 1685.12 3.30828 -3.21051 0
M  V30 17417 H 1688.66 2.41428 -6.54491 0
M  V30 17418 H 1684.56 3.20957 -5.60051 0
M  V30 17419 H 1685.33 2.90169 -7.65339 0
M  V30 17420 N 1687.99 1.18137 1.04314 0
M  V30 17421 C 1688.94 0.906125 2.12269 0
M  V30 17422 C 1689.91 -0.153492 1.65389 0
M  V30 17423 O 1691.09 -0.0143887 1.90795 0
M  V30 17424 C 1688.23 0.435247 3.42344 0
M  V30 17425 C 1687.35 1.56 4.0285 0
M  V30 17426 C 1686.48 1.0421 5.20878 0
M  V30 17427 C 1685.52 2.14171 5.73409 0
M  V30 17428 N 1684.66 1.63792 6.82727 0
M  V30 17429 H 1689.5 1.83052 2.35151 0
M  V30 17430 H 1687.03 0.912846 1.1535 0
M  V30 17431 H 1688.99 0.143733 4.16952 0
M  V30 17432 H 1687.62 -0.452175 3.19617 0
M  V30 17433 H 1686.67 1.96705 3.25594 0
M  V30 17434 H 1687.99 2.389 4.37868 0
M  V30 17435 H 1687.14 0.704959 6.0259 0
M  V30 17436 H 1685.88 0.182643 4.87358 0
M  V30 17437 H 1684.88 2.48732 4.90319 0
M  V30 17438 H 1686.11 3.00547 6.08973 0
M  V30 17439 H 1684.05 0.801323 6.51087 0
M  V30 17440 H 1683.97 2.40293 7.16795 0
M  V30 17441 H 1685.24 1.32998 7.6807 0
M  V30 17442 N 1689.47 -1.23186 0.98301 0
M  V30 17443 C 1690.7 -1.95702 0.671453 0
M  V30 17444 C 1691.11 -1.72737 -0.76206 0
M  V30 17445 O 1690.47 -1.02037 -1.5131 0
M  V30 17446 C 1690.52 -3.48642 0.955573 0
M  V30 17447 O 1690.24 -3.70829 2.33275 0
M  V30 17448 C 1691.74 -4.38354 0.660333 0
M  V30 17449 H 1688.96 -0.623006 0.249209 0
M  V30 17450 H 1691.51 -1.56606 1.3151 0
M  V30 17451 H 1689.66 -3.85743 0.357892 0
M  V30 17452 H 1690.07 -4.65104 2.42443 0
M  V30 17453 H 1691.55 -5.44456 0.909477 0
M  V30 17454 H 1692.03 -4.37323 -0.405615 0
M  V30 17455 H 1692.63 -4.06864 1.23861 0
M  V30 17456 N 1690.95 -0.754982 -1.38339 0
M  V30 17457 C 1691.89 -0.128193 -2.30444 0
M  V30 17458 C 1692.86 0.70813 -1.50249 0
M  V30 17459 O 1694.05 0.663969 -1.78875 0
M  V30 17460 C 1691.19 0.757921 -3.36674 0
M  V30 17461 C 1690.3 -0.093181 -4.31899 0
M  V30 17462 C 1689.44 0.796067 -5.25201 0
M  V30 17463 C 1688.48 -0.0585854 -6.12072 0
M  V30 17464 N 1687.61 0.7877 -6.97667 0
M  V30 17465 H 1692.45 -0.919204 -2.83469 0
M  V30 17466 H 1689.99 -0.464921 -1.3956 0
M  V30 17467 H 1691.95 1.28632 -3.96875 0
M  V30 17468 H 1690.58 1.5147 -2.85055 0
M  V30 17469 H 1689.63 -0.73922 -3.73148 0
M  V30 17470 H 1690.94 -0.753146 -4.93081 0
M  V30 17471 H 1690.1 1.39158 -5.90525 0
M  V30 17472 H 1688.83 1.48976 -4.64389 0
M  V30 17473 H 1687.84 -0.666754 -5.45742 0
M  V30 17474 H 1689.06 -0.749361 -6.74953 0
M  V30 17475 H 1687.01 1.46632 -6.39402 0
M  V30 17476 H 1686.93 0.184662 -7.55774 0
M  V30 17477 H 1688.2 1.36814 -7.674 0
M  V30 17478 N 1692.42 1.49318 -0.504168 0
M  V30 17479 C 1693.65 2.06869 0.0359415 0
M  V30 17480 C 1694.07 1.3641 1.30529 0
M  V30 17481 O 1693.42 0.443416 1.77031 0
M  V30 17482 C 1693.48 3.60333 0.290233 0
M  V30 17483 O 1693.2 4.28141 -0.928801 0
M  V30 17484 C 1694.7 4.34606 0.873628 0
M  V30 17485 H 1691.92 0.670643 -0.0218893 0
M  V30 17486 H 1694.46 1.92058 -0.702432 0
M  V30 17487 H 1692.62 3.74836 0.978594 0
M  V30 17488 H 1693.03 5.19894 -0.693595 0
M  V30 17489 H 1694.5 5.42846 1.00112 0
M  V30 17490 H 1694.98 3.97297 1.87221 0
M  V30 17491 H 1695.59 4.24717 0.222638 0
M  V30 17492 N 1693.9 0.238138 1.5579 0
M  V30 17493 C 1695.13 -0.392852 2.02831 0
M  V30 17494 C 1695.54 -1.52714 1.11692 0
M  V30 17495 O 1694.88 -1.83294 0.122034 0
M  V30 17496 C 1694.95 -0.970383 3.46156 0
M  V30 17497 C 1694.61 0.0305457 4.5699 0
M  V30 17498 C 1695.61 0.836938 5.13119 0
M  V30 17499 C 1693.29 0.154102 5.02064 0
M  V30 17500 C 1695.29 1.75343 6.12808 0
M  V30 17501 C 1692.97 1.07411 6.01586 0
M  V30 17502 C 1693.97 1.8723 6.56836 0
M  V30 17503 O 1693.66 2.77681 7.54419 0
M  V30 17504 H 1693.39 -0.0985571 0.668777 0
M  V30 17505 H 1695.94 0.356979 2.02274 0
M  V30 17506 H 1694.17 -1.76961 3.43834 0
M  V30 17507 H 1695.86 -1.51053 3.76747 0
M  V30 17508 H 1696.63 0.752021 4.79134 0
M  V30 17509 H 1692.51 -0.457094 4.58728 0
M  V30 17510 H 1696.05 2.37687 6.55859 0
M  V30 17511 H 1691.95 1.15998 6.34992 0
M  V30 17512 H 1692.72 2.71943 7.72003 0
M  V30 17513 N 1695.38 -1.57561 -0.0350783 0
M  V30 17514 C 1696.8 -1.54746 -0.390618 0
M  V30 17515 C 1697 -0.963454 -1.76974 0
M  V30 17516 O 1696.05 -0.581878 -2.45704 0
M  V30 17517 C 1697.37 -2.9922 -0.297984 0
M  V30 17518 C 1698.91 -3.10739 -0.375506 0
M  V30 17519 C 1699.39 -4.56933 -0.312387 0
M  V30 17520 N 1700.88 -4.61709 -0.371364 0
M  V30 17521 C 1701.61 -5.72359 -0.34532 0
M  V30 17522 N 1701.11 -6.92266 -0.271921 0
M  V30 17523 N 1702.9 -5.60713 -0.394605 0
M  V30 17524 H 1695.05 -1.93876 0.867519 0
M  V30 17525 H 1697.32 -0.888974 0.329285 0
M  V30 17526 H 1697.02 -3.45651 0.649499 0
M  V30 17527 H 1696.9 -3.60987 -1.094 0
M  V30 17528 H 1699.28 -2.6426 -1.31342 0
M  V30 17529 H 1699.37 -2.51815 0.449752 0
M  V30 17530 H 1699.01 -5.04079 0.621834 0
M  V30 17531 H 1698.94 -5.13762 -1.15567 0
M  V30 17532 H 1701.43 -3.75436 -0.430848 0
M  V30 17533 H 1701.74 -7.72373 -0.256983 0
M  V30 17534 H 1700.09 -6.94592 -0.238058 0
M  V30 17535 H 1703.28 -4.65933 -0.449896 0
M  V30 17536 H 1703.45 -6.46938 -0.37084 0
M  V30 17537 N 1696.86 0.307236 -1.54576 0
M  V30 17538 C 1697.79 1.40019 -1.81459 0
M  V30 17539 C 1698.8 1.47113 -0.697246 0
M  V30 17540 O 1699.99 1.49544 -0.974626 0
M  V30 17541 C 1697.09 2.78439 -1.93197 0
M  V30 17542 C 1696.27 2.94353 -3.23536 0
M  V30 17543 C 1695.32 4.13232 -3.25769 0
M  V30 17544 O 1694.35 4.05614 -3.99331 0
M  V30 17545 N 1695.55 5.23567 -2.50715 0
M  V30 17546 H 1698.32 1.17317 -2.75784 0
M  V30 17547 H 1695.88 0.497286 -1.54074 0
M  V30 17548 H 1697.87 3.56202 -1.921 0
M  V30 17549 H 1696.44 2.94117 -1.05895 0
M  V30 17550 H 1695.66 2.03754 -3.37458 0
M  V30 17551 H 1696.95 3.01892 -4.09559 0
M  V30 17552 H 1696.35 5.32635 -1.90569 0
M  V30 17553 H 1694.9 5.99687 -2.55379 0
M  V30 17554 N 1698.34 1.46926 0.570122 0
M  V30 17555 C 1699.59 1.52151 1.32413 0
M  V30 17556 C 1699.9 0.18291 1.94743 0
M  V30 17557 O 1701.1 0.113045 2.71265 0
M  V30 17558 C 1699.56 2.68153 2.40046 0
M  V30 17559 C 1699.17 4.08487 1.83963 0
M  V30 17560 C 1700.91 2.82659 3.16709 0
M  V30 17561 C 1698.82 5.1581 2.893 0
M  V30 17562 H 1697.75 0.566291 0.497826 0
M  V30 17563 H 1700.4 1.73169 0.607011 0
M  V30 17564 H 1698.78 2.40488 3.14613 0
M  V30 17565 H 1699.96 4.45998 1.15854 0
M  V30 17566 H 1698.27 3.98756 1.19927 0
M  V30 17567 H 1700.87 3.60008 3.95346 0
M  V30 17568 H 1701.21 1.9063 3.70089 0
M  V30 17569 H 1701.74 3.10031 2.4925 0
M  V30 17570 H 1698.48 6.09672 2.40791 0
M  V30 17571 H 1698 4.8283 3.55859 0
M  V30 17572 H 1699.68 5.42201 3.53026 0
M  V30 17573 N 1699.82 -0.815801 1.34842 0
M  V30 17574 C 1701.23 -1.10999 1.1468 0
M  V30 17575 C 1701.43 -2.01445 -0.0469339 0
M  V30 17576 O 1700.49 -2.42007 -0.720322 0
M  V30 17577 C 1701.8 -1.74984 2.44543 0
M  V30 17578 C 1703.35 -1.87447 2.50665 0
M  V30 17579 C 1703.82 -2.54848 3.80548 0
M  V30 17580 N 1705.31 -2.62341 3.81748 0
M  V30 17581 C 1706.05 -3.15239 4.7897 0
M  V30 17582 N 1705.55 -3.68646 5.86577 0
M  V30 17583 N 1707.34 -3.13706 4.66417 0
M  V30 17584 H 1699.49 -0.214351 2.11316 0
M  V30 17585 H 1701.75 -0.157666 0.934797 0
M  V30 17586 H 1701.46 -1.1599 3.32023 0
M  V30 17587 H 1701.33 -2.7478 2.5841 0
M  V30 17588 H 1703.72 -2.45587 1.63619 0
M  V30 17589 H 1703.8 -0.865325 2.40719 0
M  V30 17590 H 1703.44 -1.9736 4.67987 0
M  V30 17591 H 1703.37 -3.5628 3.87778 0
M  V30 17592 H 1705.87 -2.24493 3.03992 0
M  V30 17593 H 1706.18 -4.07281 6.56766 0
M  V30 17594 H 1704.52 -3.6687 5.90281 0
M  V30 17595 H 1707.71 -2.71255 3.81495 0
M  V30 17596 H 1707.89 -3.54626 5.4235 0
M  V30 17597 N 1701.29 -1.18689 -1.03686 0
M  V30 17598 C 1702.22 -0.94094 -2.13702 0
M  V30 17599 C 1703.2 0.12277 -1.69656 0
M  V30 17600 O 1704.39 -0.0306085 -1.94176 0
M  V30 17601 C 1701.52 -0.470054 -3.44104 0
M  V30 17602 C 1700.47 -1.47468 -4.01792 0
M  V30 17603 C 1699.8 -0.861174 -5.2772 0
M  V30 17604 C 1701.1 -2.85254 -4.37524 0
M  V30 17605 H 1702.79 -1.86102 -2.34534 0
M  V30 17606 H 1700.34 -0.896207 -1.12713 0
M  V30 17607 H 1702.29 -0.28533 -4.20433 0
M  V30 17608 H 1701.02 0.485604 -3.2297 0
M  V30 17609 H 1699.68 -1.64641 -3.2755 0
M  V30 17610 H 1699.32 0.10179 -5.02897 0
M  V30 17611 H 1699.02 -1.53196 -5.67278 0
M  V30 17612 H 1700.55 -0.687066 -6.06722 0
M  V30 17613 H 1701.96 -2.71711 -5.04823 0
M  V30 17614 H 1700.36 -3.49051 -4.88143 0
M  V30 17615 H 1701.43 -3.38516 -3.47181 0
M  V30 17616 N 1702.77 1.22662 -0.989529 0
M  V30 17617 C 1703.72 2.26484 -0.529864 0
M  V30 17618 C 1704.71 1.64168 0.417759 0
M  V30 17619 O 1705.92 1.77638 0.290649 0
M  V30 17620 H 1702.29 0.736282 -0.152949 0
M  V30 17621 H 1704.27 2.62608 -1.41702 0
M  V30 17622 C 1703.01 3.47405 0.143148 0
M  V30 17623 H 1702.34 3.95615 -0.576962 0
M  V30 17624 H 1703.78 4.21831 0.428279 0
M  V30 17625 C 1702.24 3.07457 1.37738 0
M  V30 17626 O 1702.77 3.16555 2.47297 0
M  V30 17627 N 1700.97 2.62276 1.25139 0
M  V30 17628 H 1700.52 2.55073 0.359927 0
M  V30 17629 H 1700.48 2.35915 2.07826 0
M  V30 17630 N 1704.25 0.762308 1.37937 0
M  V30 17631 C 1705.16 0.142724 2.34165 0
M  V30 17632 C 1706.18 -0.690588 1.59709 0
M  V30 17633 O 1707.35 -0.61271 1.91854 0
M  V30 17634 C 1704.42 -0.733325 3.38856 0
M  V30 17635 C 1703.48 0.115359 4.29145 0
M  V30 17636 C 1702.71 -0.718972 5.28835 0
M  V30 17637 O 1702.93 -1.95656 5.35794 0
M  V30 17638 O 1701.87 -0.133162 6.01753 0
M  V30 17639 H 1705.69 0.937662 2.88863 0
M  V30 17640 H 1703.28 0.523325 1.39935 0
M  V30 17641 H 1705.16 -1.23374 4.02935 0
M  V30 17642 H 1703.84 -1.50661 2.86501 0
M  V30 17643 H 1702.74 0.661926 3.68197 0
M  V30 17644 H 1704.08 0.851505 4.84779 0
M  V30 17645 N 1705.73 -1.49049 0.51208 0
M  V30 17646 C 1706.66 -2.32163 -0.249529 0
M  V30 17647 C 1707.64 -1.40957 -0.952114 0
M  V30 17648 O 1708.82 -1.69858 -0.94137 0
M  V30 17649 C 1705.95 -3.21737 -1.30776 0
M  V30 17650 C 1704.91 -4.21825 -0.724392 0
M  V30 17651 C 1704.23 -5.00411 -1.88396 0
M  V30 17652 C 1705.53 -5.21483 0.291975 0
M  V30 17653 H 1707.23 -2.96086 0.444253 0
M  V30 17654 H 1704.77 -1.42385 0.215093 0
M  V30 17655 H 1706.73 -3.78699 -1.84837 0
M  V30 17656 H 1705.45 -2.55779 -2.03088 0
M  V30 17657 H 1704.11 -3.66024 -0.205441 0
M  V30 17658 H 1703.76 -4.30891 -2.59502 0
M  V30 17659 H 1703.46 -5.68141 -1.49964 0
M  V30 17660 H 1704.98 -5.6022 -2.42869 0
M  V30 17661 H 1706.4 -5.73074 -0.160899 0
M  V30 17662 H 1704.79 -5.97166 0.592717 0
M  V30 17663 H 1705.86 -4.69714 1.20404 0
M  V30 17664 N 1707.21 -0.246397 -1.55662 0
M  V30 17665 C 1708.14 0.647563 -2.24341 0
M  V30 17666 C 1709.12 1.1817 -1.22352 0
M  V30 17667 O 1710.3 1.22114 -1.51003 0
M  V30 17668 C 1707.43 1.84485 -2.94249 0
M  V30 17669 C 1706.39 1.4435 -4.02923 0
M  V30 17670 C 1705.71 2.72158 -4.60255 0
M  V30 17671 C 1707.01 0.614951 -5.18667 0
M  V30 17672 H 1708.71 0.0748803 -2.99306 0
M  V30 17673 H 1706.25 0.034575 -1.43958 0
M  V30 17674 H 1708.2 2.47588 -3.40995 0
M  V30 17675 H 1706.93 2.4429 -2.16772 0
M  V30 17676 H 1705.59 0.835811 -3.56945 0
M  V30 17677 H 1705.24 3.3016 -3.79478 0
M  V30 17678 H 1704.94 2.46028 -5.33614 0
M  V30 17679 H 1706.46 3.36161 -5.09734 0
M  V30 17680 H 1707.87 1.15028 -5.61642 0
M  V30 17681 H 1706.27 0.449729 -5.98412 0
M  V30 17682 H 1707.34 -0.372943 -4.83464 0
M  V30 17683 N 1708.68 1.57577 0.026722 0
M  V30 17684 C 1709.63 2.06711 1.02661 0
M  V30 17685 C 1710.6 0.956754 1.35777 0
M  V30 17686 O 1711.79 1.22747 1.46074 0
M  V30 17687 C 1708.93 2.55321 2.32175 0
M  V30 17688 C 1708.04 3.80155 2.05197 0
M  V30 17689 C 1707.17 4.17368 3.28599 0
M  V30 17690 C 1706.21 5.35114 2.97186 0
M  V30 17691 N 1705.35 5.67747 4.13046 0
M  V30 17692 H 1710.19 2.91884 0.600666 0
M  V30 17693 H 1707.73 1.44313 0.284968 0
M  V30 17694 H 1709.68 2.81572 3.07853 0
M  V30 17695 H 1708.31 1.73061 2.72488 0
M  V30 17696 H 1707.37 3.60975 1.20006 0
M  V30 17697 H 1708.68 4.65949 1.78026 0
M  V30 17698 H 1707.83 4.4476 4.12642 0
M  V30 17699 H 1706.57 3.30231 3.58886 0
M  V30 17700 H 1705.58 5.07473 2.11545 0
M  V30 17701 H 1706.8 6.23906 2.68175 0
M  V30 17702 H 1704.75 4.83569 4.4328 0
M  V30 17703 H 1704.66 6.48056 3.89307 0
M  V30 17704 H 1705.93 5.99717 4.97956 0
M  V30 17705 N 1710.16 -0.299034 1.54737 0
M  V30 17706 C 1711.07 -1.39141 1.88884 0
M  V30 17707 C 1712.09 -1.55377 0.783203 0
M  V30 17708 O 1713.26 -1.70003 1.07985 0
M  V30 17709 C 1710.33 -2.73487 2.13087 0
M  V30 17710 C 1709.39 -2.66219 3.36788 0
M  V30 17711 C 1708.62 -3.94158 3.59827 0
M  V30 17712 O 1708.85 -4.9361 2.85841 0
M  V30 17713 O 1707.78 -3.95933 4.53344 0
M  V30 17714 H 1711.61 -1.13184 2.81821 0
M  V30 17715 H 1709.19 -0.495271 1.40952 0
M  V30 17716 H 1711.07 -3.5297 2.30195 0
M  V30 17717 H 1709.75 -2.99283 1.23335 0
M  V30 17718 H 1708.65 -1.85201 3.25041 0
M  V30 17719 H 1709.99 -2.45376 4.26675 0
M  V30 17720 N 1711.64 -1.47227 -0.562322 0
M  V30 17721 C 1712.59 -1.55739 -1.66521 0
M  V30 17722 C 1713.57 -0.416678 -1.55411 0
M  V30 17723 O 1714.77 -0.666302 -1.6398 0
M  V30 17724 C 1711.89 -1.5699 -3.05302 0
M  V30 17725 C 1710.98 -2.76427 -3.21634 0
M  V30 17726 N 1711.37 -4.01172 -3.0805 0
M  V30 17727 C 1709.67 -2.73081 -3.52623 0
M  V30 17728 C 1710.37 -4.81132 -3.26936 0
M  V30 17729 N 1709.35 -4.13362 -3.53034 0
M  V30 17730 H 1713.15 -2.49965 -1.5458 0
M  V30 17731 H 1710.66 -1.4315 -0.766937 0
M  V30 17732 H 1712.66 -1.61178 -3.84483 0
M  V30 17733 H 1711.32 -0.638563 -3.18359 0
M  V30 17734 H 1712.33 -4.3211 -2.85485 0
M  V30 17735 H 1709.01 -1.89062 -3.72239 0
M  V30 17736 H 1710.4 -5.9002 -3.21444 0
M  V30 17737 N 1713.12 0.808639 -1.35273 0
M  V30 17738 C 1714.34 1.60219 -1.31699 0
M  V30 17739 C 1714.77 1.87816 0.103386 0
M  V30 17740 O 1714.13 1.46389 1.06957 0
M  V30 17741 C 1714.17 2.9116 -2.12739 0
M  V30 17742 O 1713.28 3.83891 -1.5067 0
M  V30 17743 H 1712.62 0.486742 -0.45164 0
M  V30 17744 H 1715.15 1.00378 -1.78284 0
M  V30 17745 H 1715.16 3.40602 -2.2462 0
M  V30 17746 H 1713.83 2.70399 -3.16002 0
M  V30 17747 H 1712.41 3.42437 -1.47618 0
M  V30 17748 N 1714.6 1.19237 1.03055 0
M  V30 17749 C 1715.82 1.01983 1.80594 0
M  V30 17750 C 1716.25 -0.426875 1.83192 0
M  V30 17751 O 1715.6 -1.30678 1.2567 0
M  V30 17752 C 1715.65 1.59139 3.23585 0
M  V30 17753 O 1714.76 0.819576 4.04174 0
M  V30 17754 H 1714.1 0.360585 0.557561 0
M  V30 17755 H 1716.63 1.58222 1.29719 0
M  V30 17756 H 1716.64 1.62283 3.74337 0
M  V30 17757 H 1715.31 2.64436 3.21009 0
M  V30 17758 H 1713.89 0.861253 3.62818 0
M  V30 17759 N 1716.07 -1.22136 0.99602 0
M  V30 17760 C 1717.3 -1.94978 0.692172 0
M  V30 17761 C 1717.72 -1.73536 -0.743696 0
M  V30 17762 O 1717.07 -1.03637 -1.50219 0
M  V30 17763 C 1717.13 -3.47609 0.992498 0
M  V30 17764 O 1716.85 -3.68334 2.37195 0
M  V30 17765 C 1718.35 -4.37629 0.70679 0
M  V30 17766 H 1715.57 -0.620327 0.255802 0
M  V30 17767 H 1718.11 -1.55202 1.33164 0
M  V30 17768 H 1716.27 -3.85342 0.398785 0
M  V30 17769 H 1716.68 -4.62506 2.47362 0
M  V30 17770 H 1718.15 -5.43461 0.967173 0
M  V30 17771 H 1718.63 -4.37729 -0.359208 0
M  V30 17772 H 1719.24 -4.05528 1.2817 0
M  V30 17773 N 1717.55 -0.769612 -1.37531 0
M  V30 17774 C 1718.52 -0.160716 -2.28636 0
M  V30 17775 C 1719.52 0.630362 -1.47929 0
M  V30 17776 O 1720.71 0.454265 -1.68173 0
M  V30 17777 C 1717.84 0.779904 -3.31859 0
M  V30 17778 H 1719.03 -0.963794 -2.83991 0
M  V30 17779 H 1716.58 -0.537678 -1.46761 0
M  V30 17780 H 1717.32 1.60807 -2.81623 0
M  V30 17781 H 1717.1 0.21485 -3.91511 0
M  V30 17782 H 1718.59 1.20143 -3.99944 0
M  V30 17783 N 1719.03 1.48775 -0.519977 0
M  V30 17784 C 1719.98 2.31123 0.261738 0
M  V30 17785 C 1720.97 1.40595 0.94496 0
M  V30 17786 O 1722.18 1.57552 0.870484 0
M  V30 17787 H 1718.55 0.744875 0.103272 0
M  V30 17788 H 1720.52 2.94949 -0.452514 0
M  V30 17789 C 1719.27 3.22409 1.30184 0
M  V30 17790 H 1718.6 3.92007 0.785524 0
M  V30 17791 H 1720.04 3.82932 1.82042 0
M  V30 17792 C 1718.5 2.43321 2.33016 0
M  V30 17793 O 1719.03 2.15087 3.39265 0
M  V30 17794 N 1717.23 2.04998 2.05971 0
M  V30 17795 H 1716.78 2.2816 1.19586 0
M  V30 17796 H 1716.74 1.52393 2.74998 0
M  V30 17797 N 1720.51 0.254649 1.55529 0
M  V30 17798 C 1721.76 -0.368461 1.98306 0
M  V30 17799 C 1722.07 -1.585 1.14617 0
M  V30 17800 O 1723.28 -2.27975 1.47443 0
M  V30 17801 C 1721.73 -0.70693 3.52889 0
M  V30 17802 C 1721.34 0.488648 4.45327 0
M  V30 17803 C 1723.08 -1.2938 4.04303 0
M  V30 17804 C 1720.99 0.125903 5.91266 0
M  V30 17805 H 1719.92 -0.141444 0.740614 0
M  V30 17806 H 1722.57 0.356085 1.80012 0
M  V30 17807 H 1720.95 -1.48982 3.66907 0
M  V30 17808 H 1722.13 1.26587 4.43071 0
M  V30 17809 H 1720.44 0.990969 4.04436 0
M  V30 17810 H 1723.04 -1.57866 5.10864 0
M  V30 17811 H 1723.38 -2.22088 3.52112 0
M  V30 17812 H 1723.92 -0.573647 3.93642 0
M  V30 17813 H 1720.66 1.02032 6.4751 0
M  V30 17814 H 1720.18 -0.614969 5.96639 0
M  V30 17815 H 1721.85 -0.289174 6.46353 0
M  V30 17816 N 1721.99 -1.57589 -0.0183649 0
M  V30 17817 C 1723.24 -1.88937 -0.706105 0
M  V30 17818 C 1723.55 -0.854565 -1.75945 0
M  V30 17819 O 1724.75 -1.05763 -2.50053 0
M  V30 17820 C 1723.21 -3.35329 -1.307 0
M  V30 17821 C 1722.82 -4.47064 -0.289444 0
M  V30 17822 C 1724.56 -3.75811 -1.97399 0
M  V30 17823 C 1722.47 -5.84523 -0.899288 0
M  V30 17824 H 1721.4 -0.704959 -0.267486 0
M  V30 17825 H 1724.05 -1.83458 0.0391685 0
M  V30 17826 H 1722.43 -3.35586 -2.10233 0
M  V30 17827 H 1723.61 -4.58294 0.479958 0
M  V30 17828 H 1721.92 -4.15484 0.276066 0
M  V30 17829 H 1724.52 -4.75834 -2.43898 0
M  V30 17830 H 1724.86 -3.08362 -2.79676 0
M  V30 17831 H 1725.39 -3.77774 -1.24626 0
M  V30 17832 H 1722.13 -6.55398 -0.11571 0
M  V30 17833 H 1721.65 -5.76993 -1.63828 0
M  V30 17834 H 1723.33 -6.31595 -1.40344 0
M  V30 17835 N 1723.46 0.290824 -1.54893 0
M  V30 17836 C 1724.71 1.02627 -1.74916 0
M  V30 17837 C 1725.04 1.86572 -0.538921 0
M  V30 17838 O 1724.32 1.88888 0.463844 0
M  V30 17839 C 1724.6 1.92376 -3.04407 0
M  V30 17840 C 1724.45 1.11542 -4.3575 0
M  V30 17841 C 1725.77 2.91383 -3.29824 0
M  V30 17842 H 1722.89 0.371685 -0.636411 0
M  V30 17843 H 1725.53 0.300072 -1.87615 0
M  V30 17844 H 1723.68 2.54295 -2.93711 0
M  V30 17845 H 1725.36 0.518312 -4.58379 0
M  V30 17846 H 1723.6 0.418386 -4.31778 0
M  V30 17847 H 1724.27 1.77616 -5.22644 0
M  V30 17848 H 1726.75 2.39595 -3.40196 0
M  V30 17849 H 1725.62 3.51338 -4.21726 0
M  V30 17850 H 1725.88 3.65579 -2.48606 0
M  V30 17851 N 1724.94 1.47523 0.554506 0
M  V30 17852 C 1725.88 1.54756 1.67707 0
M  V30 17853 C 1726.85 0.39953 1.57615 0
M  V30 17854 O 1728.04 0.60771 1.78435 0
M  V30 17855 C 1725.16 1.45263 3.05968 0
M  V30 17856 C 1724.21 2.64602 3.34497 0
M  V30 17857 S 1725.04 4.26775 3.23455 0
M  V30 17858 C 1726.2 4.19839 4.64204 0
M  V30 17859 H 1726.43 2.49728 1.61318 0
M  V30 17860 H 1723.97 1.35754 0.735541 0
M  V30 17861 H 1725.92 1.40473 3.85717 0
M  V30 17862 H 1724.58 0.516709 3.09821 0
M  V30 17863 H 1723.78 2.5403 4.35298 0
M  V30 17864 H 1723.38 2.66528 2.62372 0
M  V30 17865 H 1725.67 3.8826 5.55212 0
M  V30 17866 H 1726.61 5.20736 4.79833 0
M  V30 17867 H 1727.02 3.5066 4.42378 0
M  V30 17868 N 1726.42 -0.801453 1.357 0
M  V30 17869 C 1727.65 -1.59518 1.32547 0
M  V30 17870 C 1728.07 -1.87868 -0.0934243 0
M  V30 17871 O 1727.43 -1.46955 -1.06179 0
M  V30 17872 C 1727.48 -2.90028 2.14281 0
M  V30 17873 O 1726.58 -3.83086 1.52704 0
M  V30 17874 H 1725.92 -0.48434 0.454215 0
M  V30 17875 H 1728.45 -0.994315 1.78814 0
M  V30 17876 H 1728.46 -3.39406 2.26423 0
M  V30 17877 H 1727.14 -2.6872 3.17431 0
M  V30 17878 H 1725.71 -3.4165 1.49432 0
M  V30 17879 N 1727.9 -1.19782 -1.02421 0
M  V30 17880 C 1728.83 -0.963553 -2.12692 0
M  V30 17881 C 1729.81 0.104769 -1.69777 0
M  V30 17882 O 1730.99 -0.0512017 -1.94132 0
M  V30 17883 C 1728.12 -0.506525 -3.43586 0
M  V30 17884 C 1727.08 -1.51722 -4.00206 0
M  V30 17885 C 1726.4 -0.917097 -5.26776 0
M  V30 17886 C 1727.7 -2.89879 -4.34474 0
M  V30 17887 H 1729.4 -1.88579 -2.32547 0
M  V30 17888 H 1726.94 -0.908111 -1.11756 0
M  V30 17889 H 1728.9 -0.329907 -4.20107 0
M  V30 17890 H 1727.62 0.451322 -3.23467 0
M  V30 17891 H 1726.28 -1.68106 -3.25785 0
M  V30 17892 H 1725.93 0.0484457 -5.02977 0
M  V30 17893 H 1725.63 -1.59204 -5.65622 0
M  V30 17894 H 1727.15 -0.751379 -6.05959 0
M  V30 17895 H 1728.57 -2.7705 -5.01913 0
M  V30 17896 H 1726.96 -3.54209 -4.84413 0
M  V30 17897 H 1728.03 -3.42179 -3.43571 0
M  V30 17898 N 1729.38 1.21606 -1.00248 0
M  V30 17899 C 1730.79 1.72365 -0.717446 0
M  V30 17900 C 1731.14 1.80668 0.765078 0
M  V30 17901 O 1730.26 1.45951 1.59772 0
M  V30 17902 C 1730.86 3.13046 -1.29567 0
M  V30 17903 C 1729.42 3.61172 -1.05981 0
M  V30 17904 C 1728.57 2.38775 -1.41003 0
M  V30 17905 H 1731.52 1.06818 -1.17369 0
M  V30 17906 H 1731.54 3.74392 -0.679054 0
M  V30 17907 H 1731.05 3.0697 -2.37467 0
M  V30 17908 H 1729.15 3.726 0.00214307 0
M  V30 17909 H 1729.26 4.46778 -1.72993 0
M  V30 17910 H 1727.63 2.40839 -0.82877 0
M  V30 17911 H 1728.41 2.35352 -2.49928 0
M  V30 17912 N 1730.86 0.776895 1.37121 0
M  V30 17913 C 1732.1 0.344063 1.9986 0
M  V30 17914 C 1732.43 -1.07806 1.61529 0
M  V30 17915 O 1731.71 -1.74258 0.863963 0
M  V30 17916 C 1731.99 0.493512 3.56702 0
M  V30 17917 C 1731.85 1.95842 4.04927 0
M  V30 17918 C 1733.16 -0.099097 4.39988 0
M  V30 17919 H 1730.28 0.126489 0.726064 0
M  V30 17920 H 1732.93 0.980899 1.62722 0
M  V30 17921 H 1731.08 -0.0486344 3.8847 0
M  V30 17922 H 1732.75 2.56067 3.83702 0
M  V30 17923 H 1730.99 2.46544 3.56929 0
M  V30 17924 H 1731.66 2.01402 5.13947 0
M  V30 17925 H 1734.14 0.363545 4.14509 0
M  V30 17926 H 1733.01 0.0355748 5.48888 0
M  V30 17927 H 1733.27 -1.18995 4.25785 0
M  V30 17928 N 1732.33 -1.48497 0.527859 0
M  V30 17929 C 1733.3 -2.2809 -0.225312 0
M  V30 17930 C 1734.3 -1.35251 -0.869707 0
M  V30 17931 O 1735.49 -1.58163 -0.730086 0
M  V30 17932 C 1732.62 -3.14061 -1.32584 0
M  V30 17933 H 1733.81 -2.96139 0.473465 0
M  V30 17934 H 1731.36 -1.53703 0.283724 0
M  V30 17935 H 1732.1 -2.50638 -2.05794 0
M  V30 17936 H 1731.88 -3.82351 -0.868922 0
M  V30 17937 H 1733.37 -3.74106 -1.85566 0
M  V30 17938 N 1733.81 -0.262893 -1.55392 0
M  V30 17939 C 1735.23 0.09157 -1.59337 0
M  V30 17940 C 1735.43 1.55612 -1.28012 0
M  V30 17941 O 1734.48 2.30308 -1.0351 0
M  V30 17942 C 1735.8 -0.272043 -2.99467 0
M  V30 17943 C 1737.34 -0.217653 -3.12242 0
M  V30 17944 C 1737.82 -0.555528 -4.54618 0
M  V30 17945 N 1739.31 -0.506623 -4.60421 0
M  V30 17946 C 1740.05 -0.741013 -5.68592 0
M  V30 17947 N 1739.54 -1.03937 -6.84959 0
M  V30 17948 N 1741.33 -0.670636 -5.58085 0
M  V30 17949 H 1733.49 -1.2178 -1.74021 0
M  V30 17950 H 1735.75 -0.491131 -0.81086 0
M  V30 17951 H 1735.45 -1.29012 -3.27183 0
M  V30 17952 H 1735.33 0.393105 -3.75146 0
M  V30 17953 H 1737.72 0.791123 -2.84298 0
M  V30 17954 H 1737.8 -0.916884 -2.38803 0
M  V30 17955 H 1737.44 -1.56193 -4.83287 0
M  V30 17956 H 1737.37 0.165358 -5.2634 0
M  V30 17957 H 1739.86 -0.285397 -3.76821 0
M  V30 17958 H 1740.17 -1.20522 -7.63344 0
M  V30 17959 H 1738.52 -1.07702 -6.86604 0
M  V30 17960 H 1741.71 -0.437473 -4.66051 0
M  V30 17961 H 1741.88 -0.856692 -6.42312 0
M  V30 17962 N 1735.29 1.57597 0.0100073 0
M  V30 17963 C 1736.24 2.07788 1.00463 0
M  V30 17964 C 1737.21 0.971101 1.34755 0
M  V30 17965 O 1738.39 1.2429 1.44764 0
M  V30 17966 C 1735.53 2.57769 2.29454 0
M  V30 17967 C 1734.64 3.8231 2.01153 0
M  V30 17968 C 1733.78 4.2083 3.24154 0
M  V30 17969 C 1732.82 5.38236 2.91494 0
M  V30 17970 N 1731.96 5.72096 4.07001 0
M  V30 17971 H 1736.8 2.92504 0.569675 0
M  V30 17972 H 1734.33 1.44607 0.269645 0
M  V30 17973 H 1736.29 2.84821 3.04849 0
M  V30 17974 H 1734.92 1.75942 2.70637 0
M  V30 17975 H 1733.97 3.62227 1.16171 0
M  V30 17976 H 1735.28 4.67811 1.73074 0
M  V30 17977 H 1734.44 4.49111 4.07902 0
M  V30 17978 H 1733.18 3.34019 3.55363 0
M  V30 17979 H 1732.18 5.09688 2.06151 0
M  V30 17980 H 1733.41 6.26716 2.61543 0
M  V30 17981 H 1731.35 4.88243 4.38126 0
M  V30 17982 H 1731.27 6.52148 3.82411 0
M  V30 17983 H 1732.54 6.04964 4.91567 0
M  V30 17984 N 1736.77 -0.282606 1.55045 0
M  V30 17985 C 1738.02 -1.01346 1.74852 0
M  V30 17986 C 1738.34 -1.87161 0.547327 0
M  V30 17987 O 1737.61 -1.9094 -0.438015 0
M  V30 17988 H 1736.19 -0.377178 0.644784 0
M  V30 17989 H 1738.85 -0.309152 1.92432 0
M  V30 17990 H 1737.94 -1.65596 2.64545 0
M  V30 17991 N 1738.25 -1.47815 -0.546675 0
M  V30 17992 C 1739.21 -1.6063 -1.63495 0
M  V30 17993 C 1740.21 -0.480661 -1.53448 0
M  V30 17994 O 1741.4 -0.746017 -1.57417 0
M  V30 17995 C 1738.53 -1.56076 -3.03073 0
M  V30 17996 H 1739.72 -2.57652 -1.53478 0
M  V30 17997 H 1737.28 -1.36162 -0.767433 0
M  V30 17998 H 1738.01 -0.604694 -3.18613 0
M  V30 17999 H 1737.8 -2.3778 -3.11774 0
M  V30 18000 H 1739.29 -1.68204 -3.82227 0
M  V30 18001 N 1739.72 0.794246 -1.36123 0
M  V30 18002 C 1740.97 1.55421 -1.30277 0
M  V30 18003 C 1741.3 1.93834 0.119134 0
M  V30 18004 O 1740.58 1.6233 1.07141 0
M  V30 18005 C 1740.86 2.83454 -2.22094 0
M  V30 18006 C 1740.71 2.51439 -3.72959 0
M  V30 18007 C 1742.03 3.85246 -2.12776 0
M  V30 18008 H 1739.15 0.563871 -0.474572 0
M  V30 18009 H 1741.79 0.912877 -1.66633 0
M  V30 18010 H 1739.94 3.38182 -1.9122 0
M  V30 18011 H 1741.62 2.02799 -4.14331 0
M  V30 18012 H 1739.86 1.84451 -3.92632 0
M  V30 18013 H 1740.53 3.42863 -4.32608 0
M  V30 18014 H 1743.01 3.39952 -2.39942 0
M  V30 18015 H 1741.88 4.72588 -2.79198 0
M  V30 18016 H 1742.14 4.27847 -1.11353 0
M  V30 18017 N 1741.2 1.20323 1.01785 0
M  V30 18018 C 1742.43 1.03893 1.79502 0
M  V30 18019 C 1742.85 -0.407421 1.83635 0
M  V30 18020 O 1742.21 -1.29338 1.27049 0
M  V30 18021 C 1742.26 1.62562 3.21879 0
M  V30 18022 O 1741.36 0.862398 4.03282 0
M  V30 18023 H 1740.7 0.366479 0.553705 0
M  V30 18024 H 1743.23 1.59589 1.28034 0
M  V30 18025 H 1743.24 1.66244 3.72595 0
M  V30 18026 H 1741.92 2.67826 3.18186 0
M  V30 18027 H 1740.49 0.899687 3.61884 0
M  V30 18028 N 1742.68 -1.21073 1.00892 0
M  V30 18029 C 1743.9 -1.94774 0.712588 0
M  V30 18030 C 1744.33 -1.73812 -0.719085 0
M  V30 18031 O 1743.69 -1.02747 -1.49374 0
M  V30 18032 C 1743.74 -3.45156 1.04402 0
M  V30 18033 O 1742.84 -4.12122 0.151433 0
M  V30 18034 H 1742.18 -0.608775 0.26512 0
M  V30 18035 H 1744.71 -1.53721 1.35022 0
M  V30 18036 H 1744.72 -3.95744 0.992511 0
M  V30 18037 H 1743.4 -3.59736 2.08716 0
M  V30 18038 H 1741.97 -3.71994 0.259805 0
M  V30 18039 N 1744.16 -0.784156 -1.36707 0
M  V30 18040 C 1745.12 -0.184957 -2.28453 0
M  V30 18041 C 1746.12 0.614637 -1.4859 0
M  V30 18042 O 1747.31 0.436403 -1.68645 0
M  V30 18043 C 1744.44 0.744662 -3.32667 0
M  V30 18044 H 1745.64 -0.993861 -2.82953 0
M  V30 18045 H 1743.19 -0.553214 -1.46182 0
M  V30 18046 H 1743.92 1.57811 -2.83313 0
M  V30 18047 H 1743.71 0.173313 -3.91717 0
M  V30 18048 H 1745.2 1.15894 -4.01196 0
M  V30 18049 N 1745.64 1.48215 -0.535727 0
M  V30 18050 C 1746.57 2.3253 0.212562 0
M  V30 18051 C 1747.55 1.42454 0.929568 0
M  V30 18052 O 1748.73 1.71334 0.914228 0
M  V30 18053 C 1745.86 3.23777 1.25641 0
M  V30 18054 C 1744.82 4.22924 0.657191 0
M  V30 18055 C 1744.14 5.03345 1.80411 0
M  V30 18056 C 1745.44 5.20953 -0.374902 0
M  V30 18057 H 1747.14 2.95341 -0.491301 0
M  V30 18058 H 1744.68 1.42024 -0.237718 0
M  V30 18059 H 1746.64 3.81592 1.78789 0
M  V30 18060 H 1745.36 2.58978 1.98993 0
M  V30 18061 H 1744.02 3.66304 0.147184 0
M  V30 18062 H 1743.67 4.34965 2.52615 0
M  V30 18063 H 1743.37 5.70455 1.40906 0
M  V30 18064 H 1744.89 5.64013 2.33926 0
M  V30 18065 H 1746.3 5.73258 0.0697072 0
M  V30 18066 H 1744.7 5.96147 -0.687646 0
M  V30 18067 H 1745.77 4.67739 -1.27861 0
M  V30 18068 N 1747.11 0.27113 1.5525 0
M  V30 18069 C 1748.34 -0.34974 2.03618 0
M  V30 18070 C 1748.75 -1.5031 1.14907 0
M  V30 18071 O 1748.1 -1.82994 0.160886 0
M  V30 18072 C 1748.16 -0.89674 3.48136 0
M  V30 18073 C 1747.82 0.127473 4.56822 0
M  V30 18074 C 1748.82 0.945589 5.11229 0
M  V30 18075 C 1746.5 0.260562 5.01624 0
M  V30 18076 C 1748.5 1.88302 6.08951 0
M  V30 18077 C 1746.18 1.20147 5.99173 0
M  V30 18078 C 1747.18 2.01121 6.52717 0
M  V30 18079 O 1746.87 2.93621 7.48359 0
M  V30 18080 H 1746.6 -0.0843491 0.670717 0
M  V30 18081 H 1749.16 0.399804 2.01471 0
M  V30 18082 H 1747.39 -1.69628 3.4751 0
M  V30 18083 H 1749.08 -1.43027 3.79866 0
M  V30 18084 H 1749.84 0.853483 4.77431 0
M  V30 18085 H 1745.72 -0.359689 4.59595 0
M  V30 18086 H 1749.26 2.51545 6.50669 0
M  V30 18087 H 1745.16 1.29441 6.32389 0
M  V30 18088 H 1745.93 2.88258 7.66061 0
M  V30 18089 N 1748.59 -1.576 -0.00164943 0
M  V30 18090 C 1749.53 -2.0376 -1.02747 0
M  V30 18091 C 1750.5 -0.927146 -1.33577 0
M  V30 18092 O 1751.69 -1.19514 -1.45769 0
M  V30 18093 C 1748.81 -2.43381 -2.35549 0
M  V30 18094 C 1747.86 -3.65143 -2.20392 0
M  V30 18095 S 1748.69 -5.13132 -1.53151 0
M  V30 18096 C 1749.85 -5.56021 -2.87387 0
M  V30 18097 H 1750.08 -2.90452 -0.634417 0
M  V30 18098 H 1747.62 -1.52931 -0.212468 0
M  V30 18099 H 1749.57 -2.66877 -3.11909 0
M  V30 18100 H 1748.23 -1.57091 -2.71995 0
M  V30 18101 H 1747.43 -3.90611 -3.18495 0
M  V30 18102 H 1747.03 -3.41641 -1.52177 0
M  V30 18103 H 1749.32 -5.58381 -3.83689 0
M  V30 18104 H 1750.26 -6.55987 -2.6662 0
M  V30 18105 H 1750.67 -4.83582 -2.9122 0
M  V30 18106 N 1750.07 0.274379 -1.55193 0
M  V30 18107 C 1751.03 1.32237 -1.87206 0
M  V30 18108 C 1752.03 1.4242 -0.74654 0
M  V30 18109 O 1753.22 1.41595 -1.01472 0
M  V30 18110 C 1750.36 2.7039 -2.0761 0
M  V30 18111 H 1751.55 1.05083 -2.80887 0
M  V30 18112 H 1749.1 0.512375 -1.47663 0
M  V30 18113 H 1749.84 3.02727 -1.16306 0
M  V30 18114 H 1749.62 2.64385 -2.89556 0
M  V30 18115 H 1751.11 3.46114 -2.33655 0
M  V30 18116 N 1751.55 1.48103 0.538828 0
M  V30 18117 C 1752.79 1.5688 1.29461 0
M  V30 18118 C 1753.15 0.235793 1.9095 0
M  V30 18119 O 1752.44 -0.760462 1.75862 0
M  V30 18120 C 1752.64 2.63703 2.41237 0
M  V30 18121 C 1752.47 4.07262 1.90704 0
M  V30 18122 C 1751.24 4.74503 1.73709 0
M  V30 18123 C 1753.43 4.93708 1.44073 0
M  V30 18124 N 1751.42 6.0251 1.17709 0
M  V30 18125 C 1752.79 6.11889 0.999608 0
M  V30 18126 C 1754.84 4.80003 1.32294 0
M  V30 18127 C 1753.54 7.17876 0.452385 0
M  V30 18128 C 1755.57 5.86104 0.789719 0
M  V30 18129 C 1754.93 7.03486 0.358624 0
M  V30 18130 H 1751.03 0.628668 0.465081 0
M  V30 18131 H 1753.62 1.84942 0.608641 0
M  V30 18132 H 1751.79 2.37478 3.07341 0
M  V30 18133 H 1753.52 2.62217 3.0826 0
M  V30 18134 H 1750.27 4.30696 1.96971 0
M  V30 18135 H 1750.7 6.70755 0.917441 0
M  V30 18136 H 1755.34 3.896 1.64231 0
M  V30 18137 H 1753.06 8.0801 0.120677 0
M  V30 18138 H 1756.64 5.77551 0.70188 0
M  V30 18139 H 1755.52 7.84186 -0.0475698 0
M  V30 18140 N 1753.03 -0.787016 1.36542 0
M  V30 18141 C 1753.96 -1.91399 1.33749 0
M  V30 18142 C 1754.94 -1.68817 0.208559 0
M  V30 18143 O 1756.12 -1.89896 0.406574 0
M  V30 18144 C 1753.25 -3.28457 1.12842 0
M  V30 18145 C 1752.21 -3.65568 2.22585 0
M  V30 18146 C 1751.53 -5.01002 1.86818 0
M  V30 18147 C 1752.83 -3.73902 3.64684 0
M  V30 18148 H 1754.53 -1.93993 2.2805 0
M  V30 18149 H 1752.07 -0.931937 1.09777 0
M  V30 18150 H 1754.03 -4.06919 1.09522 0
M  V30 18151 H 1752.75 -3.26256 0.149918 0
M  V30 18152 H 1751.41 -2.89405 2.25035 0
M  V30 18153 H 1751.06 -4.95325 0.875361 0
M  V30 18154 H 1750.76 -5.26802 2.60294 0
M  V30 18155 H 1752.28 -5.81881 1.85058 0
M  V30 18156 H 1753.69 -4.4255 3.64448 0
M  V30 18157 H 1752.09 -4.11188 4.37086 0
M  V30 18158 H 1753.16 -2.74946 3.99416 0
M  V30 18159 N 1754.5 -1.20861 -1.01145 0
M  V30 18160 C 1755.41 -0.977926 -2.13246 0
M  V30 18161 C 1756.43 0.0678862 -1.73868 0
M  V30 18162 O 1757.61 -0.120717 -2.01038 0
M  V30 18163 C 1754.67 -0.538575 -3.42491 0
M  V30 18164 C 1753.73 -1.65584 -3.96081 0
M  V30 18165 C 1752.97 -1.23736 -5.19158 0
M  V30 18166 O 1753.19 -0.108227 -5.70297 0
M  V30 18167 O 1752.12 -2.04679 -5.6603 0
M  V30 18168 H 1755.95 -1.91666 -2.3558 0
M  V30 18169 H 1753.53 -0.992931 -1.1163 0
M  V30 18170 H 1755.42 -0.303041 -4.20309 0
M  V30 18171 H 1754.09 0.371515 -3.21561 0
M  V30 18172 H 1753 -1.94572 -3.19519 0
M  V30 18173 H 1754.33 -2.54313 -4.21409 0
M  V30 18174 N 1755.98 1.20536 -1.01532 0
M  V30 18175 C 1756.95 2.21495 -0.589298 0
M  V30 18176 C 1757.95 1.57167 0.339871 0
M  V30 18177 O 1759.14 1.73724 0.128736 0
M  V30 18178 C 1756.27 3.40614 0.139623 0
M  V30 18179 H 1757.46 2.607 -1.48241 0
M  V30 18180 H 1755.01 1.33977 -0.804977 0
M  V30 18181 H 1755.75 3.0691 1.04771 0
M  V30 18182 H 1755.53 3.88531 -0.52785 0
M  V30 18183 H 1757.02 4.15431 0.425083 0
M  V30 18184 N 1757.46 0.791395 1.36289 0
M  V30 18185 C 1758.39 0.205419 2.32595 0
M  V30 18186 C 1759.37 -0.660696 1.56744 0
M  V30 18187 O 1760.56 -0.594111 1.84889 0
M  V30 18188 C 1757.69 -0.659018 3.4099 0
M  V30 18189 C 1756.64 0.107364 4.27865 0
M  V30 18190 C 1755.97 -0.877795 5.27446 0
M  V30 18191 C 1757.27 1.29769 5.05922 0
M  V30 18192 H 1758.96 1.00999 2.8185 0
M  V30 18193 H 1756.51 0.487122 1.35511 0
M  V30 18194 H 1758.46 -1.07891 4.07354 0
M  V30 18195 H 1757.18 -1.49632 2.90307 0
M  V30 18196 H 1755.84 0.508253 3.6306 0
M  V30 18197 H 1755.49 -1.71018 4.73035 0
M  V30 18198 H 1755.19 -0.369429 5.86438 0
M  V30 18199 H 1756.71 -1.29621 5.96683 0
M  V30 18200 H 1758.13 0.953463 5.65316 0
M  V30 18201 H 1756.53 1.73949 5.74336 0
M  V30 18202 H 1757.6 2.09205 4.37449 0
M  V30 18203 N 1758.94 -1.47929 0.54358 0
M  V30 18204 C 1760.16 -2.07393 0.0168905 0
M  V30 18205 C 1760.59 -1.39557 -1.26117 0
M  V30 18206 O 1759.95 -0.465983 -1.75209 0
M  V30 18207 C 1760 -3.6017 -0.176105 0
M  V30 18208 O 1759.1 -3.9326 -1.24178 0
M  V30 18209 H 1758.44 -0.662459 0.0452126 0
M  V30 18210 H 1760.97 -1.90145 0.755376 0
M  V30 18211 H 1760.98 -4.06088 -0.394555 0
M  V30 18212 H 1759.66 -4.08944 0.757445 0
M  V30 18213 H 1758.23 -3.59105 -1.0049 0
M  V30 18214 N 1760.42 -0.27936 -1.55104 0
M  V30 18215 C 1761.36 0.606268 -2.22695 0
M  V30 18216 C 1762.33 1.14646 -1.20189 0
M  V30 18217 O 1763.52 1.19498 -1.48744 0
M  V30 18218 C 1760.66 1.78256 -2.95497 0
M  V30 18219 C 1759.77 1.27582 -4.12731 0
M  V30 18220 C 1758.91 2.41425 -4.73167 0
M  V30 18221 C 1757.95 1.87775 -5.82586 0
M  V30 18222 N 1757.08 2.95108 -6.37068 0
M  V30 18223 H 1761.92 0.0232427 -2.97991 0
M  V30 18224 H 1759.46 -0.000294714 -1.471 0
M  V30 18225 H 1761.42 2.47406 -3.35925 0
M  V30 18226 H 1760.05 2.33755 -2.22617 0
M  V30 18227 H 1759.1 0.477281 -3.77394 0
M  V30 18228 H 1760.41 0.842897 -4.91627 0
M  V30 18229 H 1759.57 3.18561 -5.16337 0
M  V30 18230 H 1758.31 2.88035 -3.93557 0
M  V30 18231 H 1757.31 1.0912 -5.38862 0
M  V30 18232 H 1758.54 1.42096 -6.64067 0
M  V30 18233 H 1756.48 3.41091 -5.60351 0
M  V30 18234 H 1756.4 2.56246 -7.11248 0
M  V30 18235 H 1757.67 3.72206 -6.84896 0
M  V30 18236 N 1761.9 1.57599 -0.0067085 0
M  V30 18237 C 1763.17 1.82097 0.714141 0
M  V30 18238 C 1763.55 0.885868 1.91613 0
M  V30 18239 O 1762.9 -0.0638506 2.28411 0
M  V30 18240 C 1763.11 3.30759 1.11354 0
M  V30 18241 C 1764.46 3.96668 1.51459 0
M  V30 18242 O 1765.48 3.35121 1.20715 0
M  V30 18243 O 1764.34 5.051 2.08654 0
M  V30 18244 H 1761.44 0.750071 0.348314 0
M  V30 18245 H 1763.98 1.69669 -0.0326766 0
M  V30 18246 H 1762.75 3.90455 0.257068 0
M  V30 18247 H 1762.38 3.48211 1.91924 0
M  V30 18248 N 1763.37 -0.266145 1.55336 0
M  V30 18249 C 1764.3 -1.33322 1.91697 0
M  V30 18250 C 1765.28 -1.51182 0.77961 0
M  V30 18251 O 1766.47 -1.64112 1.03832 0
M  V30 18252 C 1763.6 -2.69151 2.19488 0
M  V30 18253 C 1762.55 -2.66012 3.35293 0
M  V30 18254 C 1761.88 -4.05458 3.4858 0
M  V30 18255 C 1763.18 -2.24681 4.71504 0
M  V30 18256 H 1764.87 -1.03138 2.81075 0
M  V30 18257 H 1762.42 -0.494702 1.35236 0
M  V30 18258 H 1764.37 -3.43918 2.43512 0
M  V30 18259 H 1763.1 -3.00932 1.26916 0
M  V30 18260 H 1761.76 -1.93703 3.11247 0
M  V30 18261 H 1761.4 -4.34472 2.53462 0
M  V30 18262 H 1761.1 -4.04251 4.26445 0
M  V30 18263 H 1762.63 -4.81954 3.74904 0
M  V30 18264 H 1764.04 -2.89173 4.95027 0
M  V30 18265 H 1762.44 -2.34622 5.52334 0
M  V30 18266 H 1763.51 -1.19819 4.69863 0
M  V30 18267 N 1764.85 -1.48386 -0.530967 0
M  V30 18268 C 1766.26 -1.49904 -1.11291 0
M  V30 18269 C 1766.61 -0.268276 -1.94357 0
M  V30 18270 O 1765.74 0.624676 -2.07188 0
M  V30 18271 C 1766.33 -2.71622 -2.02501 0
M  V30 18272 C 1764.89 -2.76015 -2.55916 0
M  V30 18273 C 1764.04 -2.43403 -1.32855 0
M  V30 18274 H 1766.99 -1.55517 -0.316269 0
M  V30 18275 H 1767.01 -2.50084 -2.86772 0
M  V30 18276 H 1766.52 -3.61182 -1.42017 0
M  V30 18277 H 1764.62 -1.9066 -3.20124 0
M  V30 18278 H 1764.74 -3.77416 -2.95116 0
M  V30 18279 H 1763.1 -1.94537 -1.644 0
M  V30 18280 H 1763.88 -3.35202 -0.741242 0
M  V30 18281 N 1766.33 0.779763 -1.36958 0
M  V30 18282 C 1767.74 1.35555 -1.28381 0
M  V30 18283 C 1768.09 1.96067 0.0721422 0
M  V30 18284 O 1767.22 1.9325 0.973824 0
M  V30 18285 C 1767.81 2.46454 -2.32477 0
M  V30 18286 C 1766.37 2.99823 -2.27559 0
M  V30 18287 C 1765.52 1.72975 -2.16737 0
M  V30 18288 H 1768.47 0.580646 -1.47696 0
M  V30 18289 H 1768.49 3.25726 -1.96679 0
M  V30 18290 H 1768 2.02383 -3.31154 0
M  V30 18291 H 1766.1 3.4829 -1.3238 0
M  V30 18292 H 1766.22 3.55982 -3.20646 0
M  V30 18293 H 1764.58 1.95587 -1.6315 0
M  V30 18294 H 1765.36 1.31018 -3.17315 0
M  V30 18295 N 1767.81 1.21396 1.00503 0
M  V30 18296 C 1769.06 1.02536 1.73693 0
M  V30 18297 C 1769.37 -0.441584 1.9055 0
M  V30 18298 O 1770.58 -0.749579 2.60947 0
M  V30 18299 C 1769.03 1.78602 3.12457 0
M  V30 18300 C 1768.64 3.29466 3.03573 0
M  V30 18301 C 1770.38 1.68149 3.89777 0
M  V30 18302 C 1768.29 3.98021 4.37416 0
M  V30 18303 H 1767.22 0.380052 0.651212 0
M  V30 18304 H 1769.87 1.4513 1.12292 0
M  V30 18305 H 1768.25 1.288 3.74468 0
M  V30 18306 H 1769.43 3.8657 2.50799 0
M  V30 18307 H 1767.74 3.4046 2.39741 0
M  V30 18308 H 1770.34 2.167 4.8882 0
M  V30 18309 H 1770.68 0.639716 4.11355 0
M  V30 18310 H 1771.22 2.15428 3.34418 0
M  V30 18311 H 1767.95 5.02401 4.21039 0
M  V30 18312 H 1767.47 3.45706 4.9015 0
M  V30 18313 H 1769.15 4.02932 5.06216 0
M  V30 18314 N 1769.29 -1.19996 1.0217 0
M  V30 18315 C 1770.22 -2.25206 0.616818 0
M  V30 18316 C 1771.2 -1.66013 -0.370653 0
M  V30 18317 O 1772.38 -1.92519 -0.254956 0
M  V30 18318 C 1769.51 -3.47276 -0.0405129 0
M  V30 18319 C 1768.47 -4.19096 0.868479 0
M  V30 18320 C 1767.79 -5.34645 0.0766447 0
M  V30 18321 C 1769.09 -4.7468 2.1789 0
M  V30 18322 H 1770.79 -2.59328 1.49632 0
M  V30 18323 H 1768.33 -1.24655 0.720917 0
M  V30 18324 H 1770.28 -4.20063 -0.335355 0
M  V30 18325 H 1769.01 -3.12333 -0.954759 0
M  V30 18326 H 1767.67 -3.48181 1.1474 0
M  V30 18327 H 1767.32 -4.95946 -0.839411 0
M  V30 18328 H 1767.02 -5.83628 0.682041 0
M  V30 18329 H 1768.54 -6.10233 -0.211624 0
M  V30 18330 H 1769.95 -5.39259 1.94608 0
M  V30 18331 H 1768.35 -5.34121 2.7356 0
M  V30 18332 H 1769.42 -3.93141 2.83845 0
M  V30 18333 N 1770.76 -0.798611 -1.35867 0
M  V30 18334 C 1771.69 -0.217751 -2.32482 0
M  V30 18335 C 1772.67 0.652374 -1.57093 0
M  V30 18336 O 1773.86 0.584297 -1.85202 0
M  V30 18337 C 1770.99 0.640925 -3.41335 0
M  V30 18338 C 1769.94 -0.130053 -4.27802 0
M  V30 18339 C 1769.27 0.849811 -5.27904 0
M  V30 18340 C 1770.57 -1.32451 -5.05227 0
M  V30 18341 H 1772.26 -1.02492 -2.81311 0
M  V30 18342 H 1769.81 -0.494302 -1.3525 0
M  V30 18343 H 1771.76 1.05729 -4.07921 0
M  V30 18344 H 1770.49 1.4809 -2.91096 0
M  V30 18345 H 1769.15 -0.5275 -3.62785 0
M  V30 18346 H 1768.79 1.68507 -4.73935 0
M  V30 18347 H 1768.49 0.338323 -5.86625 0
M  V30 18348 H 1770.02 1.26455 -5.97362 0
M  V30 18349 H 1771.43 -0.983429 -5.64802 0
M  V30 18350 H 1769.83 -1.76992 -5.73405 0
M  V30 18351 H 1770.9 -2.11522 -4.36333 0
M  V30 18352 N 1772.24 1.47639 -0.551417 0
M  V30 18353 C 1773.49 2.02784 -0.0252425 0
M  V30 18354 C 1773.82 1.42549 1.31884 0
M  V30 18355 O 1773.1 0.578954 1.85684 0
M  V30 18356 C 1773.38 3.60024 0.0740051 0
M  V30 18357 C 1773.23 4.30702 -1.29676 0
M  V30 18358 C 1774.55 4.32946 0.790302 0
M  V30 18359 H 1771.67 0.736923 -0.0106473 0
M  V30 18360 H 1774.31 1.76131 -0.712589 0
M  V30 18361 H 1772.46 3.82863 0.65939 0
M  V30 18362 H 1774.13 4.1922 -1.9249 0
M  V30 18363 H 1772.38 3.91282 -1.87299 0
M  V30 18364 H 1773.05 5.39238 -1.18009 0
M  V30 18365 H 1775.52 4.15065 0.293326 0
M  V30 18366 H 1774.4 5.42608 0.828692 0
M  V30 18367 H 1774.66 4.01752 1.84521 0
M  V30 18368 N 1773.72 0.287581 1.54954 0
M  V30 18369 C 1775.14 -0.0662092 1.59463 0
M  V30 18370 C 1775.34 -1.53556 1.30471 0
M  V30 18371 O 1774.39 -2.28632 1.07161 0
M  V30 18372 C 1775.71 0.319651 2.98996 0
M  V30 18373 C 1777.25 0.2673 3.11857 0
M  V30 18374 C 1777.73 0.627784 4.53677 0
M  V30 18375 N 1779.22 0.579808 4.59557 0
M  V30 18376 C 1779.95 0.831377 5.67341 0
M  V30 18377 N 1779.45 1.14821 6.83219 0
M  V30 18378 N 1781.24 0.759337 5.56947 0
M  V30 18379 H 1773.39 1.24534 1.72062 0
M  V30 18380 H 1775.66 0.503969 0.802944 0
M  V30 18381 H 1775.36 1.34201 3.25089 0
M  V30 18382 H 1775.24 -0.333373 3.75724 0
M  V30 18383 H 1777.62 -0.745794 2.8552 0
M  V30 18384 H 1777.71 0.954759 2.37314 0
M  V30 18385 H 1777.35 1.63862 4.80741 0
M  V30 18386 H 1777.28 -0.0816007 5.26537 0
M  V30 18387 H 1779.77 0.34531 3.76319 0
M  V30 18388 H 1780.08 1.32651 7.6133 0
M  V30 18389 H 1778.43 1.18612 6.84804 0
M  V30 18390 H 1781.62 0.511563 4.65296 0
M  V30 18391 H 1781.79 0.95877 6.40868 0
M  V30 18392 N 1775.2 -1.57593 0.0150662 0
M  V30 18393 C 1776.45 -1.90836 -0.665282 0
M  V30 18394 C 1776.77 -0.890693 -1.73469 0
M  V30 18395 O 1776.04 0.0698113 -1.95776 0
M  V30 18396 H 1774.62 -0.704377 -0.24872 0
M  V30 18397 H 1777.28 -1.94809 0.0595521 0
M  V30 18398 H 1776.38 -2.91043 -1.12697 0
M  V30 18399 N 1776.68 0.257904 -1.55475 0
M  V30 18400 C 1777.62 1.33893 -1.90198 0
M  V30 18401 C 1778.62 1.50381 -0.779868 0
M  V30 18402 O 1779.82 1.51986 -0.964376 0
M  V30 18403 H 1776.2 0.448115 -0.603901 0
M  V30 18404 H 1778.17 1.01868 -2.80474 0
M  V30 18405 C 1776.92 2.68954 -2.20361 0
M  V30 18406 H 1776.24 2.57064 -3.062 0
M  V30 18407 H 1777.68 3.43498 -2.48567 0
M  V30 18408 C 1776.14 3.21208 -1.01623 0
M  V30 18409 O 1776.67 4.00867 -0.258567 0
M  V30 18410 N 1774.88 2.79088 -0.809825 0
M  V30 18411 H 1774.42 2.1442 -1.42764 0
M  V30 18412 H 1774.38 3.14395 -0.0170171 0
M  V30 18413 N 1778.15 1.48666 0.52309 0
M  V30 18414 C 1779.1 1.60099 1.62334 0
M  V30 18415 C 1780.09 0.457736 1.54252 0
M  V30 18416 O 1781.28 0.709544 1.62156 0
M  V30 18417 C 1778.41 1.65029 3.01032 0
M  V30 18418 C 1777.5 2.84858 3.14192 0
M  V30 18419 N 1777.89 4.09198 2.97305 0
M  V30 18420 C 1776.18 2.82334 3.45259 0
M  V30 18421 C 1776.89 4.89631 3.14064 0
M  V30 18422 N 1775.86 4.22577 3.4195 0
M  V30 18423 H 1779.66 2.53975 1.47898 0
M  V30 18424 H 1777.18 1.45133 0.728714 0
M  V30 18425 H 1779.17 1.71315 3.80075 0
M  V30 18426 H 1777.83 0.722745 3.16554 0
M  V30 18427 H 1778.85 4.39527 2.73928 0
M  V30 18428 H 1775.52 1.98865 3.67095 0
M  V30 18429 H 1776.91 5.98335 3.05688 0
M  V30 18430 N 1779.63 -0.772489 1.37369 0
M  V30 18431 C 1780.56 -1.89487 1.28948 0
M  V30 18432 C 1781.58 -1.61499 0.205434 0
M  V30 18433 O 1782.77 -1.7243 0.461519 0
M  V30 18434 C 1779.87 -3.24698 0.970798 0
M  V30 18435 C 1779.04 -3.80337 2.16015 0
M  V30 18436 C 1778.1 -4.94022 1.81187 0
M  V30 18437 O 1777.12 -5.09647 2.53473 0
M  V30 18438 N 1778.33 -5.75562 0.755549 0
M  V30 18439 H 1781.09 -1.97228 2.25658 0
M  V30 18440 H 1778.65 -0.951562 1.30984 0
M  V30 18441 H 1780.64 -3.98268 0.71866 0
M  V30 18442 H 1779.21 -3.12464 0.0922825 0
M  V30 18443 H 1778.43 -2.98554 2.57409 0
M  V30 18444 H 1779.72 -4.14242 2.95434 0
M  V30 18445 H 1779.12 -5.65486 0.155691 0
M  V30 18446 H 1777.68 -6.49362 0.563268 0
M  V30 18447 N 1781.11 -1.21927 -0.998575 0
M  V30 18448 C 1782.34 -1.06735 -1.77827 0
M  V30 18449 C 1782.76 0.378154 -1.8426 0
M  V30 18450 O 1782.12 1.27301 -1.2909 0
M  V30 18451 C 1782.17 -1.67662 -3.19252 0
M  V30 18452 O 1781.27 -0.926448 -4.01859 0
M  V30 18453 H 1780.61 -0.375241 -0.547805 0
M  V30 18454 H 1783.14 -1.61605 -1.25478 0
M  V30 18455 H 1783.15 -1.72151 -3.69903 0
M  V30 18456 H 1781.83 -2.72854 -3.13885 0
M  V30 18457 H 1780.4 -0.957145 -3.60407 0
M  V30 18458 N 1782.59 1.19452 -1.02805 0
M  V30 18459 C 1783.83 1.89394 -0.725101 0
M  V30 18460 C 1784.17 1.79368 0.744361 0
M  V30 18461 O 1783.44 1.18548 1.54196 0
M  V30 18462 C 1783.73 3.40361 -1.17586 0
M  V30 18463 C 1783.58 3.59263 -2.70648 0
M  V30 18464 C 1784.9 4.33558 -0.756011 0
M  V30 18465 H 1782.02 0.687753 -0.264887 0
M  V30 18466 H 1784.66 1.40611 -1.27783 0
M  V30 18467 H 1782.81 3.82038 -0.70561 0
M  V30 18468 H 1784.48 3.26762 -3.25614 0
M  V30 18469 H 1782.72 3.02344 -3.1108 0
M  V30 18470 H 1783.39 4.65135 -2.97244 0
M  V30 18471 H 1785.87 3.9959 -1.16046 0
M  V30 18472 H 1784.75 5.37779 -1.09931 0
M  V30 18473 H 1785.01 4.40778 0.341677 0
M  V30 18474 N 1784.07 0.805805 1.35442 0
M  V30 18475 C 1785 0.230077 2.32364 0
M  V30 18476 C 1785.98 -0.644034 1.57436 0
M  V30 18477 O 1787.16 -0.574467 1.85509 0
M  V30 18478 C 1784.29 -0.622814 3.4167 0
M  V30 18479 C 1783.25 0.152739 4.27727 0
M  V30 18480 C 1782.57 -0.821803 5.28347 0
M  V30 18481 C 1783.87 1.35128 5.04517 0
M  V30 18482 H 1785.57 1.03983 2.80763 0
M  V30 18483 H 1783.11 0.501467 1.34986 0
M  V30 18484 H 1785.07 -1.03564 4.08476 0
M  V30 18485 H 1783.79 -1.46544 2.91877 0
M  V30 18486 H 1782.45 0.546732 3.625 0
M  V30 18487 H 1782.1 -1.65991 4.74822 0
M  V30 18488 H 1781.8 -0.307209 5.86796 0
M  V30 18489 H 1783.32 -1.23285 5.98024 0
M  V30 18490 H 1784.73 1.01337 5.64273 0
M  V30 18491 H 1783.13 1.80031 5.72459 0
M  V30 18492 H 1784.2 2.13833 4.35205 0
M  V30 18493 N 1785.54 -1.47344 0.559239 0
M  V30 18494 C 1786.77 -2.0686 0.0408612 0
M  V30 18495 C 1787.19 -1.4116 -1.25376 0
M  V30 18496 O 1786.54 -0.508814 -1.75264 0
M  V30 18497 C 1786.6 -3.61162 -0.156298 0
M  V30 18498 O 1786.32 -4.24399 1.08706 0
M  V30 18499 C 1787.82 -4.37549 -0.711725 0
M  V30 18500 H 1785.04 -0.669368 0.0467647 0
M  V30 18501 H 1787.58 -1.89318 0.773229 0
M  V30 18502 H 1785.74 -3.7821 -0.838802 0
M  V30 18503 H 1786.15 -5.16961 0.886072 0
M  V30 18504 H 1787.62 -5.46187 -0.798961 0
M  V30 18505 H 1788.1 -4.03972 -1.72346 0
M  V30 18506 H 1788.71 -4.25251 -0.0648534 0
M  V30 18507 N 1787.02 -0.295795 -1.54799 0
M  V30 18508 C 1788.27 0.315007 -2.00035 0
M  V30 18509 C 1788.6 1.54295 -1.1842 0
M  V30 18510 O 1787.85 1.94134 -0.247101 0
M  V30 18511 C 1788.15 0.721225 -3.50047 0
M  V30 18512 C 1787.82 -0.404395 -4.49083 0
M  V30 18513 C 1786.48 -0.713419 -4.75882 0
M  V30 18514 C 1788.83 -1.16185 -5.08085 0
M  V30 18515 C 1786.16 -1.78311 -5.58947 0
M  V30 18516 C 1788.51 -2.22142 -5.92314 0
M  V30 18517 C 1787.18 -2.53657 -6.17426 0
M  V30 18518 H 1786.45 0.115269 -0.73198 0
M  V30 18519 H 1789.09 -0.41381 -1.86976 0
M  V30 18520 H 1787.4 1.53005 -3.60689 0
M  V30 18521 H 1789.09 1.20491 -3.82469 0
M  V30 18522 H 1785.68 -0.153436 -4.28325 0
M  V30 18523 H 1789.87 -0.936365 -4.87387 0
M  V30 18524 H 1785.12 -2.03206 -5.76643 0
M  V30 18525 H 1789.3 -2.81296 -6.3706 0
M  V30 18526 H 1786.93 -3.36676 -6.81581 0
M  V30 18527 N 1788.5 1.57583 -0.0234236 0
M  V30 18528 C 1789.73 1.95577 0.66583 0
M  V30 18529 C 1790.14 0.898193 1.66521 0
M  V30 18530 O 1789.48 -0.129109 1.83246 0
M  V30 18531 C 1789.54 3.29685 1.43345 0
M  V30 18532 C 1789.21 4.53136 0.593048 0
M  V30 18533 C 1790.21 5.19739 -0.129251 0
M  V30 18534 C 1787.89 4.99473 0.532125 0
M  V30 18535 C 1789.88 6.30997 -0.901206 0
M  V30 18536 C 1787.57 6.10615 -0.24354 0
M  V30 18537 C 1788.57 6.76235 -0.958917 0
M  V30 18538 O 1788.26 7.85243 -1.72188 0
M  V30 18539 H 1787.99 0.649084 0.188853 0
M  V30 18540 H 1790.54 2.05253 -0.0777525 0
M  V30 18541 H 1788.77 3.16484 2.22205 0
M  V30 18542 H 1790.46 3.52623 2.01027 0
M  V30 18543 H 1791.23 4.84914 -0.0914812 0
M  V30 18544 H 1787.11 4.48207 1.0785 0
M  V30 18545 H 1790.65 6.82149 -1.46011 0
M  V30 18546 H 1786.55 6.44879 -0.283046 0
M  V30 18547 H 1787.32 8.0188 -1.64105 0
M  V30 18548 N 1789.98 -0.249655 1.5561 0
M  V30 18549 C 1791.2 -0.999931 1.81703 0
M  V30 18550 C 1791.63 -1.7827 0.600113 0
M  V30 18551 O 1790.99 -1.75606 -0.450799 0
M  V30 18552 C 1791.04 -1.9157 3.05505 0
M  V30 18553 O 1790.14 -3.00702 2.82227 0
M  V30 18554 H 1789.48 -0.284673 0.599881 0
M  V30 18555 H 1792.01 -0.27148 2.02791 0
M  V30 18556 H 1792.02 -2.33088 3.34864 0
M  V30 18557 H 1790.7 -1.34014 3.93717 0
M  V30 18558 H 1789.27 -2.63332 2.64027 0
M  V30 18559 O 1791.5 -1.56587 -0.395306 0
M  V30 18560 H 1792.19 -1.62942 -1.04736 0
M  V30 END ATOM
M  V30 BEGIN BOND
M  V30 END BOND
M  V30 END CTAB
M  END
$$$$
