drugbank_target|P28472 Gamma-aminobutyric acid receptor subunit beta-3 (DB00186; DB00189; DB00228; DB00231; DB00237; DB00241; DB00252; DB00292; DB00306; DB00312; DB00349; DB00371; DB00402; DB00404; DB00463; DB00475; DB00543; DB00546; DB00555; DB00603; DB00628; DB00659; DB00683; DB00690; DB00753; DB00794; DB00801; DB00818; DB00829; DB00842; DB00897; DB01028; DB01043; DB01068; DB01107; DB01159; DB01189; DB01205; DB01215; DB01236; DB01437; DB01489; DB01511; DB01544; DB01545; DB01553; DB01558; DB01559; DB01587; DB01588; DB01589; DB01594; DB01595; DB01708; DB01956; DB09017; DB09118; DB09166; DB11582; DB11859; DB11901; DB12404; DB12537; DB13335; DB13437; DB13643; DB13837; DB13872; DB14028; DB14672; DB14715; DB14719; DB15489)
 OpenBabel12092120093D

  0  0  0     0  0            999 V3000
M  V30 BEGIN CTAB
M  V30 COUNTS 7640 7731 0 0 0
M  V30 BEGIN ATOM
M  V30 1 H -0.908 1.98254 -0.117106 0
M  V30 2 N 0 1.576 0 0
M  V30 3 C 0.933 2.03868 1.02534 0
M  V30 4 C 1.911 0.928543 1.3348 0
M  V30 5 O 3.095 1.19667 1.45644 0
M  V30 6 C 0.222 2.43627 2.35294 0
M  V30 7 C -0.732 3.65373 2.2001 0
M  V30 8 S 0.101 5.13292 1.52614 0
M  V30 9 C 1.257 5.56322 2.86805 0
M  V30 10 H 1.49 2.90518 0.631377 0
M  V30 11 H -0.977 1.52953 0.210867 0
M  V30 12 H 0.981 2.67203 3.11629 0
M  V30 13 H -0.358 1.57376 2.7183 0
M  V30 14 H -1.165 3.90944 3.18086 0
M  V30 15 H -1.563 3.418 1.51819 0
M  V30 16 H 0.729 5.58782 3.83104 0
M  V30 17 H 1.672 6.56266 2.65933 0
M  V30 18 H 2.08 4.83886 2.90714 0
M  V30 19 N 1.4781 -0.272755 1.55222 0
M  V30 20 C 2.7241 -1.00172 1.77023 0
M  V30 21 C 3.0791 -1.83928 0.564633 0
M  V30 22 O 2.3721 -1.86416 -0.442674 0
M  V30 23 C 2.5661 -1.91642 3.01675 0
M  V30 24 C 2.3951 -1.16888 4.34243 0
M  V30 25 C 1.1651 -0.884464 4.97499 0
M  V30 26 C 3.3631 -0.55919 5.11251 0
M  V30 27 N 1.3451 -0.11015 6.13801 0
M  V30 28 C 2.7161 0.0809469 6.19947 0
M  V30 29 C 4.7711 -0.467058 4.95705 0
M  V30 30 C 3.4741 0.804335 7.14789 0
M  V30 31 C 5.5001 0.242739 5.90902 0
M  V30 32 C 4.8621 0.871613 6.98987 0
M  V30 33 H 0.9611 -0.348529 0.700037 0
M  V30 34 H 3.5451 -0.277365 1.92714 0
M  V30 35 H 1.7161 -2.61303 2.87359 0
M  V30 36 H 3.4481 -2.57901 3.1188 0
M  V30 37 H 0.2031 -1.18979 4.58411 0
M  V30 38 H 0.6271 0.264344 6.76484 0
M  V30 39 H 5.2691 -0.93894 4.12242 0
M  V30 40 H 2.9871 1.2879 7.97771 0
M  V30 41 H 6.5731 0.314347 5.8095 0
M  V30 42 H 5.4531 1.4121 7.71381 0
M  V30 43 N 2.9562 -1.48159 -0.537278 0
M  V30 44 C 4.2042 -1.55497 -1.29094 0
M  V30 45 C 4.5252 -0.227454 -1.93669 0
M  V30 46 O 3.7952 0.750386 -1.80959 0
M  V30 47 H 2.3752 -0.572832 -0.47945 0
M  V30 48 H 5.0372 -1.84579 -0.625818 0
M  V30 49 H 4.1332 -2.33216 -2.07405 0
M  V30 50 N 4.4343 0.785586 -1.36625 0
M  V30 51 C 5.3643 1.91259 -1.33949 0
M  V30 52 C 6.3453 1.68795 -0.210325 0
M  V30 53 O 7.5303 1.89854 -0.408561 0
M  V30 54 C 4.6603 3.28339 -1.13186 0
M  V30 55 C 3.6143 3.65335 -2.22967 0
M  V30 56 C 2.9403 5.00806 -1.87342 0
M  V30 57 C 4.2403 3.7352 -3.65075 0
M  V30 58 H 5.9343 1.93755 -2.28253 0
M  V30 59 H 3.4803 0.930788 -1.09874 0
M  V30 60 H 5.4333 4.06804 -1.09948 0
M  V30 61 H 4.1573 3.2624 -0.153332 0
M  V30 62 H 2.8163 2.89169 -2.25337 0
M  V30 63 H 2.4643 4.95233 -0.880545 0
M  V30 64 H 2.1643 5.26529 -2.60846 0
M  V30 65 H 3.6883 5.81687 -1.85667 0
M  V30 66 H 5.1023 4.42168 -3.64911 0
M  V30 67 H 3.4993 4.10731 -4.37516 0
M  V30 68 H 4.5693 2.74527 -3.99703 0
M  V30 69 N 5.9124 1.20967 1.01018 0
M  V30 70 C 6.8754 0.965918 2.07853 0
M  V30 71 C 7.8754 -0.0610545 1.60684 0
M  V30 72 O 9.0654 0.175681 1.73312 0
M  V30 73 C 6.1974 0.455513 3.37843 0
M  V30 74 H 7.3904 1.91365 2.3091 0
M  V30 75 H 4.9434 1.02594 1.17916 0
M  V30 76 H 5.6784 -0.497381 3.20463 0
M  V30 77 H 5.4634 1.19622 3.73407 0
M  V30 78 H 6.9534 0.304667 4.16487 0
M  V30 79 N 7.3905 -1.2043 1.01659 0
M  V30 80 C 8.6385 -1.89423 0.704522 0
M  V30 81 C 8.9595 -1.79231 -0.768197 0
M  V30 82 O 8.2295 -1.1947 -1.55254 0
M  V30 83 H 6.8095 -0.701178 0.257602 0
M  V30 84 H 9.4715 -1.4626 1.28818 0
M  V30 85 H 8.5675 -2.96052 0.987916 0
M  V30 86 N 8.8686 -0.792821 -1.36206 0
M  V30 87 C 10.1166 -0.366062 -1.98757 0
M  V30 88 C 10.4376 1.0668 -1.63231 0
M  V30 89 O 9.7076 1.73587 -0.907978 0
M  V30 90 H 8.2876 -0.132364 -0.735179 0
M  V30 91 H 10.9496 -1.01562 -1.66347 0
M  V30 92 H 10.0456 -0.460638 -3.08682 0
M  V30 93 N 10.3467 1.47872 -0.545128 0
M  V30 94 C 11.7627 1.5829 -0.204032 0
M  V30 95 C 11.9627 1.54529 1.29317 0
M  V30 96 O 11.0187 1.44232 2.07252 0
M  V30 97 C 12.3317 2.89304 -0.819987 0
M  V30 98 C 13.8797 3.02864 -0.790105 0
M  V30 99 C 14.3547 4.3656 -1.38491 0
M  V30 100 N 15.8457 4.43165 -1.34755 0
M  V30 101 C 16.5807 5.45153 -1.77753 0
M  V30 102 N 16.0767 6.54016 -2.2855 0
M  V30 103 N 17.8697 5.36125 -1.68897 0
M  V30 104 H 10.0207 1.4856 -1.51802 0
M  V30 105 H 12.2837 0.706305 -0.632327 0
M  V30 106 H 11.9897 2.97757 -1.87173 0
M  V30 107 H 11.8637 3.75957 -0.305915 0
M  V30 108 H 14.2507 2.94014 0.252913 0
M  V30 109 H 14.3317 2.17782 -1.34181 0
M  V30 110 H 13.9757 4.46164 -2.42693 0
M  V30 111 H 13.9057 5.20353 -0.808754 0
M  V30 112 H 16.3967 3.65083 -0.975855 0
M  V30 113 H 16.7097 7.27994 -2.59314 0
M  V30 114 H 15.0547 6.54938 -2.32553 0
M  V30 115 H 18.2457 4.49975 -1.28998 0
M  V30 116 H 18.4187 6.15472 -2.02726 0
M  V30 117 N 11.8248 0.280983 1.55075 0
M  V30 118 C 12.7548 -0.597469 2.25727 0
M  V30 119 C 13.7358 -1.15417 1.24952 0
M  V30 120 O 14.9208 -1.18722 1.53684 0
M  V30 121 C 12.0508 -1.7789 2.98283 0
M  V30 122 C 11.0048 -1.35347 4.06036 0
M  V30 123 C 10.3308 -2.61846 4.66198 0
M  V30 124 C 11.6308 -0.499354 5.19907 0
M  V30 125 H 13.3248 -0.00824265 2.99399 0
M  V30 126 H 10.8708 -0.0025244 1.44 0
M  V30 127 H 12.8238 -2.39937 3.46422 0
M  V30 128 H 11.5478 -2.39405 2.22155 0
M  V30 129 H 10.2068 -0.756156 3.58717 0
M  V30 130 H 9.8548 -3.21632 3.86732 0
M  V30 131 H 9.5548 -2.3409 5.38958 0
M  V30 132 H 11.0788 -3.24732 5.1709 0
M  V30 133 H 12.4928 -1.02498 5.64063 0
M  V30 134 H 10.8898 -0.316424 5.99265 0
M  V30 135 H 11.9598 0.480459 4.82514 0
M  V30 136 N 13.3029 -1.57598 0.00835791 0
M  V30 137 C 14.5499 -1.90928 -0.674732 0
M  V30 138 C 14.8779 -0.88277 -1.73313 0
M  V30 139 O 14.1329 0.111294 -1.95383 0
M  V30 140 C 14.4319 -3.3101 -1.34787 0
M  V30 141 C 14.0979 -4.48922 -0.421861 0
M  V30 142 C 12.7599 -4.8091 -0.166927 0
M  V30 143 C 15.1119 -5.20755 0.215211 0
M  V30 144 C 12.4399 -5.821 0.733232 0
M  V30 145 C 14.7919 -6.22905 1.1033 0
M  V30 146 C 13.4559 -6.53346 1.36733 0
M  V30 147 H 12.7259 -0.698656 -0.246902 0
M  V30 148 H 15.3729 -1.91387 0.0656779 0
M  V30 149 H 13.6779 -3.26714 -2.16253 0
M  V30 150 H 15.3749 -3.54061 -1.8826 0
M  V30 151 H 11.9649 -4.23934 -0.630729 0
M  V30 152 H 16.1489 -4.9629 0.0312829 0
M  V30 153 H 11.4049 -6.04042 0.945712 0
M  V30 154 H 15.5789 -6.77694 1.60325 0
M  V30 155 H 13.2059 -7.31573 2.06652 0
M  V30 156 N 14.781 0.264519 -1.55364 0
M  V30 157 C 16.029 0.993021 -1.76021 0
M  V30 158 C 16.35 1.86511 -0.569099 0
M  V30 159 O 15.62 1.91438 0.415735 0
M  V30 160 H 14.2 0.369639 -0.649135 0
M  V30 161 H 16.862 0.286707 -1.9278 0
M  V30 162 H 15.958 1.62502 -2.66457 0
M  V30 163 N 16.2591 1.48442 0.529413 0
M  V30 164 C 17.5081 1.55742 1.28169 0
M  V30 165 C 17.8211 0.236511 1.94165 0
M  V30 166 O 19.0271 0.187761 2.7085 0
M  V30 167 C 17.4831 2.74667 2.32564 0
M  V30 168 C 17.0911 4.13402 1.72636 0
M  V30 169 C 18.8351 2.9128 3.08798 0
M  V30 170 C 16.7421 5.23587 2.74975 0
M  V30 171 H 15.6721 0.579796 0.48203 0
M  V30 172 H 18.3231 1.74776 0.559056 0
M  V30 173 H 16.7051 2.49067 3.07866 0
M  V30 174 H 17.8791 4.49022 1.03519 0
M  V30 175 H 16.1941 4.0191 1.08892 0
M  V30 176 H 18.7911 3.70767 3.85274 0
M  V30 177 H 19.1341 2.00757 3.64695 0
M  V30 178 H 19.6671 3.16782 2.40611 0
M  V30 179 H 16.4061 6.16076 2.23897 0
M  V30 180 H 15.9261 4.92454 3.42417 0
M  V30 181 H 17.6051 5.51724 3.37949 0
M  V30 182 N 17.7372 -0.778329 1.37039 0
M  V30 183 C 18.9842 -1.53665 1.31884 0
M  V30 184 C 19.3122 -1.9425 -0.0986303 0
M  V30 185 O 18.5672 -1.63832 -1.07041 0
M  V30 186 C 18.8662 -2.81845 2.19768 0
M  V30 187 C 18.5322 -2.60345 3.68146 0
M  V30 188 C 17.1942 -2.5419 4.08584 0
M  V30 189 C 19.5462 -2.40923 4.62175 0
M  V30 190 C 16.8742 -2.26594 5.41177 0
M  V30 191 C 19.2262 -2.14852 5.94997 0
M  V30 192 C 17.8902 -2.07137 6.34547 0
M  V30 193 H 17.1602 -0.562299 0.482598 0
M  V30 194 H 19.8072 -0.897069 1.69189 0
M  V30 195 H 18.1122 -3.50328 1.75436 0
M  V30 196 H 19.8092 -3.39692 2.13097 0
M  V30 197 H 16.3992 -2.65996 3.36072 0
M  V30 198 H 20.5832 -2.44673 4.31797 0
M  V30 199 H 15.8392 -2.19111 5.70789 0
M  V30 200 H 20.0132 -1.98822 6.67415 0
M  V30 201 H 17.6402 -1.85518 7.37216 0
M  V30 202 N 19.2153 -1.21501 -1.00376 0
M  V30 203 C 20.4403 -1.05977 -1.78279 0
M  V30 204 C 20.8653 0.385994 -1.84097 0
M  V30 205 O 20.2233 1.27849 -1.28547 0
M  V30 206 C 20.2713 -1.66302 -3.19963 0
M  V30 207 O 19.3753 -0.909333 -4.0225 0
M  V30 208 H 18.7163 -0.372906 -0.549397 0
M  V30 209 H 21.2463 -1.6107 -1.26165 0
M  V30 210 H 21.2563 -1.70574 -3.70632 0
M  V30 211 H 19.9313 -2.71515 -3.15043 0
M  V30 212 H 18.5083 -0.941795 -3.60811 0
M  V30 213 N 20.6934 1.19889 -1.02296 0
M  V30 214 C 21.6564 2.21116 -0.603351 0
M  V30 215 C 22.6564 1.5738 0.329884 0
M  V30 216 O 23.8464 1.73802 0.117702 0
M  V30 217 C 20.9784 3.40696 0.117992 0
M  V30 218 H 22.1714 2.59754 -1.49893 0
M  V30 219 H 19.7244 1.33463 -0.813468 0
M  V30 220 H 20.4594 3.07569 1.0282 0
M  V30 221 H 20.2444 3.88188 -0.552511 0
M  V30 222 H 21.7344 4.15692 0.398696 0
M  V30 223 N 22.1715 0.800033 1.35784 0
M  V30 224 C 23.5825 0.439142 1.81462 0
M  V30 225 C 23.9335 -1.03813 1.66485 0
M  V30 226 O 23.0585 -1.80626 1.19177 0
M  V30 227 C 23.6535 0.790314 3.29453 0
M  V30 228 C 22.2125 0.482111 3.733 0
M  V30 229 C 21.3595 1.01938 2.57883 0
M  V30 230 H 24.3105 0.992254 1.23855 0
M  V30 231 H 24.3315 0.0853677 3.80404 0
M  V30 232 H 23.8435 1.86554 3.40322 0
M  V30 233 H 21.9445 -0.584652 3.67984 0
M  V30 234 H 22.0575 1.01015 4.6833 0
M  V30 235 H 20.4215 0.442043 2.50835 0
M  V30 236 H 21.2045 2.10059 2.71533 0
M  V30 237 N 23.6496 -1.47581 0.552962 0
M  V30 238 C 24.8956 -2.02782 0.0273648 0
M  V30 239 C 25.2286 -1.42687 -1.31734 0
M  V30 240 O 24.5036 -0.580897 -1.85623 0
M  V30 241 C 24.7866 -3.60031 -0.0702371 0
M  V30 242 C 24.6396 -4.30566 1.30126 0
M  V30 243 C 25.9586 -4.33028 -0.785771 0
M  V30 244 H 23.0776 -0.736912 0.0114185 0
M  V30 245 H 25.7196 -1.76056 0.714432 0
M  V30 246 H 23.8696 -3.82932 -0.655382 0
M  V30 247 H 25.5416 -4.19018 1.92929 0
M  V30 248 H 23.7846 -3.91086 1.87709 0
M  V30 249 H 24.4556 -5.39114 1.18573 0
M  V30 250 H 26.9316 -4.15095 -0.288982 0
M  V30 251 H 25.8076 -5.42695 -0.823013 0
M  V30 252 H 26.0686 -4.01945 -1.841 0
M  V30 253 N 25.1277 -0.289203 -1.54924 0
M  V30 254 C 26.0577 0.58549 -2.2604 0
M  V30 255 C 27.0387 1.14753 -1.25562 0
M  V30 256 O 28.2237 1.17906 -1.54311 0
M  V30 257 C 25.3537 1.76305 -2.99222 0
M  V30 258 C 24.3077 1.33191 -4.06748 0
M  V30 259 C 23.6337 2.5937 -4.6758 0
M  V30 260 C 24.9337 0.471775 -5.20165 0
M  V30 261 H 26.6277 -0.00763532 -2.99399 0
M  V30 262 H 24.1737 -0.00511229 -1.43999 0
M  V30 263 H 26.1267 2.38097 -3.47689 0
M  V30 264 H 24.8507 2.38223 -2.23422 0
M  V30 265 H 23.5097 0.737121 -3.59113 0
M  V30 266 H 23.1577 3.19576 -3.88433 0
M  V30 267 H 22.8577 2.31228 -5.40192 0
M  V30 268 H 24.3817 3.21985 -5.18804 0
M  V30 269 H 25.7957 0.995056 -5.64599 0
M  V30 270 H 24.1927 0.284639 -5.99425 0
M  V30 271 H 25.2627 -0.506041 -4.82252 0
M  V30 272 N 26.6058 1.57591 -0.0167156 0
M  V30 273 C 27.8518 1.91567 0.665582 0
M  V30 274 C 28.1848 0.892298 1.72487 0
M  V30 275 O 27.4598 -0.0867127 1.94307 0
M  V30 276 C 27.7428 3.36069 1.29342 0
M  V30 277 C 27.5958 4.49135 0.244541 0
M  V30 278 C 28.9148 3.803 2.21495 0
M  V30 279 H 26.0338 0.69666 0.240488 0
M  V30 280 H 28.6758 1.89866 -0.0714356 0
M  V30 281 H 26.8258 3.3765 1.92158 0
M  V30 282 H 28.4978 4.59689 -0.385228 0
M  V30 283 H 26.7408 4.3165 -0.431379 0
M  V30 284 H 27.4118 5.47242 0.723207 0
M  V30 285 H 29.8878 3.80377 1.68678 0
M  V30 286 H 28.7638 4.82127 2.62382 0
M  V30 287 H 29.0248 3.15104 3.101 0
M  V30 288 N 28.0839 -0.256276 1.55502 0
M  V30 289 C 29.0469 -1.30047 1.88734 0
M  V30 290 C 30.0469 -1.4154 0.763086 0
M  V30 291 O 31.2369 -1.40403 1.03115 0
M  V30 292 C 28.3689 -2.67953 2.10747 0
M  V30 293 H 29.5619 -1.01802 2.82093 0
M  V30 294 H 27.1149 -0.495134 1.4825 0
M  V30 295 H 27.8499 -3.01351 1.19825 0
M  V30 296 H 27.6349 -2.60993 2.92617 0
M  V30 297 H 29.1249 -3.43368 2.37673 0
M  V30 298 N 29.562 -1.4872 -0.521534 0
M  V30 299 C 30.808 -1.574 -1.27879 0
M  V30 300 C 31.141 -0.250817 -1.92573 0
M  V30 301 O 30.416 0.743934 -1.79711 0
M  V30 302 C 30.699 -2.71843 -2.36164 0
M  V30 303 C 30.552 -4.13893 -1.76105 0
M  V30 304 C 31.871 -2.82008 -3.37875 0
M  V30 305 H 28.99 -0.572941 -0.463581 0
M  V30 306 H 31.632 -1.80927 -0.580119 0
M  V30 307 H 29.782 -2.51914 -2.95756 0
M  V30 308 H 31.454 -4.45284 -1.20499 0
M  V30 309 H 29.697 -4.20498 -1.06601 0
M  V30 310 H 30.368 -4.89804 -2.5455 0
M  V30 311 H 32.844 -3.00086 -2.88249 0
M  V30 312 H 31.72 -3.63796 -4.11028 0
M  V30 313 H 31.981 -1.90511 -3.98946 0
M  V30 314 N 31.0401 0.771051 -1.3745 0
M  V30 315 C 32.2861 1.5319 -1.32894 0
M  V30 316 C 32.6191 1.94008 0.0862511 0
M  V30 317 O 31.8941 1.64124 1.04373 0
M  V30 318 C 32.1771 2.79648 -2.26868 0
M  V30 319 C 32.0301 2.45079 -3.77169 0
M  V30 320 C 33.3491 3.81583 -2.19277 0
M  V30 321 H 30.4681 0.555744 -0.484064 0
M  V30 322 H 33.1101 0.884492 -1.68157 0
M  V30 323 H 31.2601 3.34891 -1.96926 0
M  V30 324 H 32.9321 1.95745 -4.1771 0
M  V30 325 H 31.1751 1.77767 -3.95704 0
M  V30 326 H 31.8461 3.35478 -4.38359 0
M  V30 327 H 34.3221 3.35835 -2.45671 0
M  V30 328 H 33.1981 4.67787 -2.87171 0
M  V30 329 H 33.4591 4.25897 -1.18592 0
M  V30 330 N 32.5182 1.22032 0.997298 0
M  V30 331 C 33.7582 1.05375 1.75144 0
M  V30 332 C 34.1222 -0.404696 1.87686 0
M  V30 333 O 35.3232 -0.691998 2.5974 0
M  V30 334 C 33.5942 1.74046 3.12158 0
M  V30 335 S 35.1532 1.72745 4.03366 0
M  V30 336 H 31.9712 0.377449 0.602539 0
M  V30 337 H 34.5732 1.54902 1.19272 0
M  V30 338 H 33.2772 2.79332 3.00669 0
M  V30 339 H 32.8082 1.24731 3.73103 0
M  V30 340 H 34.8232 0.774015 4.90126 0
M  V30 341 N 33.9963 -1.19345 1.0293 0
M  V30 342 C 35.2363 -1.90738 0.734727 0
M  V30 343 C 35.6003 -1.7785 -0.723414 0
M  V30 344 O 36.8013 -2.43844 -1.13108 0
M  V30 345 C 35.0723 -3.37569 1.17396 0
M  V30 346 S 36.6313 -4.27176 1.00329 0
M  V30 347 H 33.4493 -0.658771 0.267474 0
M  V30 348 H 36.0513 -1.4428 1.31922 0
M  V30 349 H 34.7553 -3.44475 2.23081 0
M  V30 350 H 34.2863 -3.8906 0.582772 0
M  V30 351 H 36.3013 -4.96126 -0.0859152 0
M  V30 352 N 35.4744 -0.807222 -1.35358 0
M  V30 353 C 36.4374 -0.223665 -2.28106 0
M  V30 354 C 37.4374 0.589354 -1.4961 0
M  V30 355 O 38.6274 0.407745 -1.69361 0
M  V30 356 C 35.7594 0.688149 -3.33882 0
M  V30 357 H 36.9524 -1.04169 -2.81227 0
M  V30 358 H 34.5054 -0.577921 -1.45223 0
M  V30 359 H 35.2404 1.52984 -2.85948 0
M  V30 360 H 35.0254 0.10687 -3.91954 0
M  V30 361 H 36.5154 1.09075 -4.03104 0
M  V30 362 N 36.9525 1.47285 -0.560781 0
M  V30 363 C 37.8845 2.28118 0.222438 0
M  V30 364 C 38.8975 1.37219 0.876056 0
M  V30 365 O 40.0865 1.62011 0.749307 0
M  V30 366 C 37.1865 3.1159 1.33285 0
M  V30 367 C 36.3595 4.30473 0.77534 0
M  V30 368 C 35.4185 4.95513 1.77069 0
M  V30 369 O 34.4445 5.53792 1.31539 0
M  V30 370 N 35.6465 4.90531 3.10418 0
M  V30 371 H 38.4115 2.95976 -0.470958 0
M  V30 372 H 35.9725 1.56955 -0.39709 0
M  V30 373 H 37.9645 3.51967 1.99752 0
M  V30 374 H 36.5345 2.45951 1.92943 0
M  V30 375 H 35.7545 3.94144 -0.0662113 0
M  V30 376 H 37.0425 5.07362 0.382272 0
M  V30 377 H 36.4405 4.44389 3.5005 0
M  V30 378 H 34.9975 5.34917 3.72434 0
M  V30 379 N 38.4306 0.297415 1.54768 0
M  V30 380 C 39.6556 -0.318435 2.04941 0
M  V30 381 C 40.0806 -1.4701 1.17345 0
M  V30 382 O 39.4386 -1.80436 0.176758 0
M  V30 383 C 39.4866 -0.755749 3.52592 0
M  V30 384 O 38.5906 -1.86088 3.68028 0
M  V30 385 H 37.9316 -0.062421 0.661059 0
M  V30 386 H 40.4616 0.438215 1.99852 0
M  V30 387 H 40.4716 -1.04552 3.94376 0
M  V30 388 H 39.1466 0.0867233 4.1581 0
M  V30 389 H 37.7236 -1.57193 3.38149 0
M  V30 390 N 39.9087 -1.5758 0.0250728 0
M  V30 391 C 41.1547 -1.91917 -0.655413 0
M  V30 392 C 41.4877 -0.901433 -1.72011 0
M  V30 393 O 40.7627 0.0764069 -1.9435 0
M  V30 394 C 41.0457 -3.36751 -1.27558 0
M  V30 395 C 40.8987 -4.49258 -0.220719 0
M  V30 396 C 42.2177 -3.81469 -2.19475 0
M  V30 397 H 39.3367 -0.697925 -0.23679 0
M  V30 398 H 41.9787 -1.89825 0.0815036 0
M  V30 399 H 40.1287 -3.38664 -1.90365 0
M  V30 400 H 41.8007 -4.59478 0.409601 0
M  V30 401 H 40.0437 -4.31415 0.454264 0
M  V30 402 H 40.7147 -5.47618 -0.694175 0
M  V30 403 H 43.1907 -3.81266 -1.66659 0
M  V30 404 H 42.0667 -4.83512 -2.59822 0
M  V30 405 H 42.3277 -3.16744 -3.08424 0
M  V30 406 N 41.3868 0.248026 -1.55636 0
M  V30 407 C 42.3348 1.32683 -1.91045 0
M  V30 408 C 43.3288 1.49883 -0.789401 0
M  V30 409 O 44.5348 1.51371 -0.974007 0
M  V30 410 H 40.9098 0.444272 -0.606734 0
M  V30 411 H 42.8808 1.00085 -2.81115 0
M  V30 412 C 41.6298 2.6755 -2.22064 0
M  V30 413 H 40.9528 2.55114 -3.07826 0
M  V30 414 H 42.3928 3.41912 -2.50743 0
M  V30 415 C 40.8518 3.20556 -1.0366 0
M  V30 416 O 41.3818 4.00695 -0.284016 0
M  V30 417 N 39.5878 2.78568 -0.82753 0
M  V30 418 H 39.1348 2.1351 -1.44123 0
M  V30 419 H 39.0928 3.14378 -0.0369803 0
M  V30 420 N 42.8649 1.48995 0.513639 0
M  V30 421 C 44.1419 1.48338 1.27495 0
M  V30 422 C 44.5219 0.204065 2.10111 0
M  V30 423 O 43.8699 -0.813881 2.13514 0
M  V30 424 C 44.0799 2.75498 2.14247 0
M  V30 425 C 45.4279 3.24484 2.73852 0
M  V30 426 O 46.4519 2.76528 2.24523 0
M  V30 427 O 45.3109 4.07974 3.6362 0
M  V30 428 H 42.4049 0.593149 0.576284 0
M  V30 429 H 44.9509 1.61246 0.528948 0
M  V30 430 H 43.7229 3.60109 1.53092 0
M  V30 431 H 43.3459 2.6539 2.96064 0
M  V30 432 N 44.343 -0.763751 1.37857 0
M  V30 433 C 45.754 -1.3405 1.29952 0
M  V30 434 C 46.105 -1.96138 -0.0492898 0
M  V30 435 O 45.23 -1.94372 -0.951239 0
M  V30 436 C 45.825 -2.43729 2.35333 0
M  V30 437 C 44.384 -2.97151 2.31037 0
M  V30 438 C 43.531 -1.70438 2.18738 0
M  V30 439 H 46.482 -0.563396 1.48363 0
M  V30 440 H 46.503 -3.23412 2.00462 0
M  V30 441 H 46.015 -1.9851 3.33489 0
M  V30 442 H 44.116 -3.46724 1.3643 0
M  V30 443 H 44.229 -3.52221 3.24772 0
M  V30 444 H 42.593 -1.93673 1.65418 0
M  V30 445 H 43.376 -1.27312 3.18821 0
M  V30 446 N 45.8211 -1.22559 -0.990812 0
M  V30 447 C 47.0691 -1.04933 -1.72724 0
M  V30 448 C 47.3901 0.416158 -1.90508 0
M  V30 449 O 46.6601 1.29918 -1.46622 0
M  V30 450 H 45.2401 -0.385296 -0.639965 0
M  V30 451 H 47.9021 -1.54105 -1.19322 0
M  V30 452 H 46.9981 -1.52886 -2.72089 0
M  V30 453 N 47.2992 1.18797 -1.03562 0
M  V30 454 C 48.2472 2.24297 -0.615905 0
M  V30 455 C 49.2412 1.65643 0.354808 0
M  V30 456 O 50.4472 1.78618 0.22265 0
M  V30 457 H 46.8222 0.729909 -0.180934 0
M  V30 458 H 48.7932 2.5701 -1.5162 0
M  V30 459 C 47.5422 3.47698 0.0104735 0
M  V30 460 H 46.8652 3.93125 -0.727509 0
M  V30 461 H 48.3052 4.23159 0.266995 0
M  V30 462 C 46.7642 3.12489 1.25905 0
M  V30 463 O 47.2942 3.25761 2.35038 0
M  V30 464 N 45.5002 2.6686 1.15039 0
M  V30 465 H 45.0472 2.56261 0.262328 0
M  V30 466 H 45.0052 2.43674 1.98672 0
M  V30 467 N 48.7773 0.814389 1.34928 0
M  V30 468 C 49.7103 0.175641 2.27523 0
M  V30 469 C 50.6883 -0.662953 1.48471 0
M  V30 470 O 51.8723 -0.628545 1.77712 0
M  V30 471 C 48.9993 -0.755516 3.30166 0
M  V30 472 C 48.0453 0.00445305 4.265 0
M  V30 473 S 48.8783 1.34582 5.18313 0
M  V30 474 C 50.0343 0.419315 6.24494 0
M  V30 475 H 50.2673 0.960691 2.8135 0
M  V30 476 H 47.8003 0.609846 1.41846 0
M  V30 477 H 49.7583 -1.28723 3.89796 0
M  V30 478 H 48.4193 -1.51402 2.75202 0
M  V30 479 H 47.6123 -0.703077 4.99072 0
M  V30 480 H 47.2143 0.466447 3.7108 0
M  V30 481 H 49.5063 -0.392432 6.76362 0
M  V30 482 H 50.4493 1.11446 6.99275 0
M  V30 483 H 50.8573 0.0115389 5.64499 0
M  V30 484 N 50.2554 -1.46986 0.568584 0
M  V30 485 C 51.4804 -2.07335 0.0520528 0
M  V30 486 C 51.9054 -1.41675 -1.23733 0
M  V30 487 O 51.2634 -0.495623 -1.74394 0
M  V30 488 C 51.3114 -3.60417 -0.11501 0
M  V30 489 O 50.4154 -3.95309 -1.17492 0
M  V30 490 H 49.7564 -0.661597 0.0564385 0
M  V30 491 H 52.2864 -1.88837 0.787507 0
M  V30 492 H 52.2964 -4.06698 -0.325644 0
M  V30 493 H 50.9714 -4.07601 0.826675 0
M  V30 494 H 49.5484 -3.60757 -0.943869 0
M  V30 495 N 51.7335 -0.305618 -1.54608 0
M  V30 496 C 52.9805 0.302298 -2.00231 0
M  V30 497 C 53.3085 1.5354 -1.19398 0
M  V30 498 O 52.5635 1.93973 -0.259423 0
M  V30 499 C 52.8625 0.698983 -3.50498 0
M  V30 500 C 52.5285 -0.432903 -4.48817 0
M  V30 501 C 51.1905 -0.743622 -4.75419 0
M  V30 502 C 53.5425 -1.19409 -5.07337 0
M  V30 503 C 50.8705 -1.81857 -5.57804 0
M  V30 504 C 53.2225 -2.25899 -5.90891 0
M  V30 505 C 51.8865 -2.57572 -6.15803 0
M  V30 506 H 51.1565 0.110619 -0.732697 0
M  V30 507 H 53.8035 -0.425674 -1.86709 0
M  V30 508 H 52.1085 1.50711 -3.61654 0
M  V30 509 H 53.8055 1.1806 -3.83227 0
M  V30 510 H 50.3955 -0.18063 -4.28219 0
M  V30 511 H 54.5795 -0.967295 -4.86782 0
M  V30 512 H 49.8355 -2.06864 -5.75341 0
M  V30 513 H 54.0095 -2.85335 -6.35261 0
M  V30 514 H 51.6365 -3.40998 -6.7943 0
M  V30 515 N 53.2116 1.57565 -0.0334293 0
M  V30 516 C 54.4576 1.92262 0.645226 0
M  V30 517 C 54.7906 0.910543 1.71531 0
M  V30 518 O 54.0656 -0.066099 1.94388 0
M  V30 519 C 54.3486 3.37422 1.2577 0
M  V30 520 C 54.2016 4.49369 0.196891 0
M  V30 521 C 55.5206 3.82628 2.17449 0
M  V30 522 H 52.6396 0.699171 0.233085 0
M  V30 523 H 55.2816 1.89779 -0.0915694 0
M  V30 524 H 53.4316 3.39669 1.88566 0
M  V30 525 H 55.1036 4.59254 -0.433962 0
M  V30 526 H 53.3466 4.31168 -0.477137 0
M  V30 527 H 54.0176 5.47978 0.665124 0
M  V30 528 H 56.4936 3.82145 1.64634 0
M  V30 529 H 55.3696 4.84883 2.57254 0
M  V30 530 H 55.6306 3.18376 3.0674 0
M  V30 531 N 54.6897 -0.239769 1.55765 0
M  V30 532 C 55.6367 -1.29696 1.90913 0
M  V30 533 C 56.6067 -1.47478 0.764164 0
M  V30 534 O 57.7917 -1.61345 1.01845 0
M  V30 535 C 54.9317 -2.64598 2.21544 0
M  V30 536 C 54.0447 -2.54765 3.48882 0
M  V30 537 C 53.1797 -3.82069 3.69049 0
M  V30 538 C 52.2187 -3.66883 4.89963 0
M  V30 539 N 51.3557 -4.86094 5.06614 0
M  V30 540 H 56.1957 -0.990224 2.81067 0
M  V30 541 H 53.7327 -0.477684 1.39128 0
M  V30 542 H 55.6907 -3.43132 2.3731 0
M  V30 543 H 54.3207 -2.93405 1.34585 0
M  V30 544 H 53.3727 -1.67763 3.41409 0
M  V30 545 H 54.6847 -2.39457 4.37563 0
M  V30 546 H 53.8387 -4.69046 3.84812 0
M  V30 547 H 52.5777 -4.00282 2.78614 0
M  V30 548 H 51.5827 -2.78289 4.74168 0
M  V30 549 H 52.8077 -3.50157 5.81865 0
M  V30 550 H 50.7537 -5.04655 4.19117 0
M  V30 551 H 50.6707 -4.73443 5.89396 0
M  V30 552 H 51.9387 -5.74549 5.26795 0
M  V30 553 N 56.1678 -1.49265 -0.50573 0
M  V30 554 C 57.0778 -1.68312 -1.63427 0
M  V30 555 C 58.0938 -0.565682 -1.64548 0
M  V30 556 O 59.2698 -0.839801 -1.83055 0
M  V30 557 C 56.3348 -1.74107 -2.99813 0
M  V30 558 C 55.3958 -2.97653 -3.09356 0
M  V30 559 C 54.6288 -3.03163 -4.39236 0
M  V30 560 O 54.8518 -2.16396 -5.27758 0
M  V30 561 O 53.7858 -3.9558 -4.53652 0
M  V30 562 H 57.6118 -2.63907 -1.50289 0
M  V30 563 H 55.1968 -1.32951 -0.681502 0
M  V30 564 H 57.0788 -1.803 -3.80881 0
M  V30 565 H 55.7538 -0.816901 -3.13223 0
M  V30 566 H 54.6608 -2.96981 -2.27493 0
M  V30 567 H 55.9938 -3.89535 -3.00871 0
M  V30 568 N 57.6459 0.756429 -1.3826 0
M  V30 569 C 58.8739 1.54565 -1.3754 0
M  V30 570 C 59.2889 1.88767 0.0355331 0
M  V30 571 O 58.6459 1.52572 1.0014 0
M  V30 572 C 58.6969 2.84654 -2.22833 0
M  V30 573 O 58.4179 2.51912 -3.5843 0
M  V30 574 C 59.9189 3.78807 -2.30261 0
M  V30 575 H 57.1389 0.478353 -0.470553 0
M  V30 576 H 59.6829 0.936381 -1.81803 0
M  V30 577 H 57.8379 3.41965 -1.8204 0
M  V30 578 H 58.2519 3.35325 -4.03308 0
M  V30 579 H 59.7259 4.67045 -2.94233 0
M  V30 580 H 60.2029 4.19038 -1.31545 0
M  V30 581 H 60.8089 3.2742 -2.71433 0
M  V30 582 N 59.124 1.23083 0.984299 0
M  V30 583 C 60.37 1.06214 1.72761 0
M  V30 584 C 60.703 -0.400584 1.90024 0
M  V30 585 O 59.978 -1.29672 1.44967 0
M  V30 586 C 60.261 1.78375 3.12817 0
M  V30 587 C 60.114 3.32296 3.03149 0
M  V30 588 C 61.433 1.54309 4.12161 0
M  V30 589 H 58.552 0.387251 0.627061 0
M  V30 590 H 61.194 1.51536 1.14616 0
M  V30 591 H 59.344 1.39848 3.62457 0
M  V30 592 H 61.016 3.8032 2.61064 0
M  V30 593 H 59.259 3.6153 2.39747 0
M  V30 594 H 59.93 3.77972 4.02295 0
M  V30 595 H 62.406 1.87791 3.71314 0
M  V30 596 H 61.282 2.07281 5.08258 0
M  V30 597 H 61.543 0.477572 4.39513 0
M  V30 598 N 60.6021 -1.18246 1.0419 0
M  V30 599 C 61.8791 -1.84121 0.660208 0
M  V30 600 C 62.2591 -1.92778 -0.860221 0
M  V30 601 O 61.6071 -1.45464 -1.76217 0
M  V30 602 C 61.8171 -3.22355 1.33747 0
M  V30 603 C 63.1651 -3.98376 1.46906 0
M  V30 604 O 64.1891 -3.31799 1.29568 0
M  V30 605 O 63.0481 -5.17665 1.75171 0
M  V30 606 H 60.1421 -0.794036 0.231161 0
M  V30 607 H 62.6881 -1.25628 1.14087 0
M  V30 608 H 61.4601 -3.10964 2.37522 0
M  V30 609 H 61.0831 -3.88506 0.845515 0
M  V30 610 N 62.0802 -0.821533 -1.34494 0
M  V30 611 C 63.0272 -0.240397 -2.29545 0
M  V30 612 C 63.9972 0.634031 -1.53523 0
M  V30 613 O 65.1822 0.575966 -1.81899 0
M  V30 614 C 62.3222 0.592869 -3.39969 0
M  V30 615 C 61.4352 -0.30365 -4.30932 0
M  V30 616 C 60.5702 0.539049 -5.28458 0
M  V30 617 C 59.6092 -0.356942 -6.11058 0
M  V30 618 N 58.7462 0.446603 -7.00678 0
M  V30 619 H 63.5862 -1.05632 -2.7865 0
M  V30 620 H 61.1232 -0.532413 -1.37127 0
M  V30 621 H 63.0812 1.09129 -4.02675 0
M  V30 622 H 61.7112 1.37392 -2.92102 0
M  V30 623 H 60.7632 -0.920276 -3.691 0
M  V30 624 H 62.0752 -0.992661 -4.88823 0
M  V30 625 H 61.2292 1.102 -5.96608 0
M  V30 626 H 59.9682 1.26157 -4.71101 0
M  V30 627 H 58.9732 -0.932047 -5.41842 0
M  V30 628 H 60.1982 -1.07755 -6.70497 0
M  V30 629 H 58.1442 1.15282 -6.45791 0
M  V30 630 H 58.0612 -0.184048 -7.55776 0
M  V30 631 H 59.3292 0.992352 -7.73158 0
M  V30 632 N 63.5583 1.46682 -0.576371 0
M  V30 633 C 64.4883 2.33028 0.148397 0
M  V30 634 C 65.4693 1.44961 0.889956 0
M  V30 635 O 66.6543 1.73789 0.866662 0
M  V30 636 C 63.7843 3.27117 1.1667 0
M  V30 637 C 62.7383 4.24575 0.540386 0
M  V30 638 C 62.0643 5.08126 1.6647 0
M  V30 639 C 63.3643 5.19722 -0.518331 0
M  V30 640 H 65.0583 2.93875 -0.572509 0
M  V30 641 H 62.6043 1.41315 -0.276768 0
M  V30 642 H 64.5573 3.86374 1.68204 0
M  V30 643 H 63.2813 2.64364 1.9178 0
M  V30 644 H 61.9403 3.66571 0.0461769 0
M  V30 645 H 61.5883 4.41762 2.40531 0
M  V30 646 H 61.2883 5.74122 1.25131 0
M  V30 647 H 62.8123 5.70246 2.18293 0
M  V30 648 H 64.2263 5.73232 -0.0883058 0
M  V30 649 H 62.6233 5.94026 -0.851679 0
M  V30 650 H 63.6933 4.64037 -1.40703 0
M  V30 651 N 65.0364 0.313813 1.54444 0
M  V30 652 C 65.9664 -0.549454 2.26943 0
M  V30 653 C 66.9474 -1.12741 1.27372 0
M  V30 654 O 68.1324 -1.15436 1.56167 0
M  V30 655 C 65.2624 -1.71523 3.01989 0
M  V30 656 C 64.2164 -1.26703 4.08816 0
M  V30 657 C 63.5424 -2.51898 4.71647 0
M  V30 658 C 64.8424 -0.388962 5.2085 0
M  V30 659 H 66.5364 0.0552661 2.99349 0
M  V30 660 H 64.0824 0.0280207 1.43973 0
M  V30 661 H 66.0354 -2.32535 3.51433 0
M  V30 662 H 64.7594 -2.34639 2.27183 0
M  V30 663 H 63.4184 -0.679896 3.6024 0
M  V30 664 H 63.0664 -3.13356 3.93468 0
M  V30 665 H 62.7664 -2.22605 5.43802 0
M  V30 666 H 64.2904 -3.1369 5.23861 0
M  V30 667 H 65.7044 -0.905107 5.6611 0
M  V30 668 H 64.1014 -0.18924 5.99802 0
M  V30 669 H 65.1714 0.582699 4.81386 0
M  V30 670 N 66.5145 -1.57545 0.0417849 0
M  V30 671 C 67.4615 -2.10977 -0.935805 0
M  V30 672 C 68.4315 -1.01486 -1.31491 0
M  V30 673 O 69.6165 -1.2898 -1.40602 0
M  V30 674 C 66.7565 -2.65169 -2.2086 0
M  V30 675 C 65.8695 -3.88714 -1.88482 0
M  V30 676 C 65.0045 -4.31254 -3.1015 0
M  V30 677 C 64.0435 -5.47524 -2.7365 0
M  V30 678 N 63.1805 -5.85162 -3.87982 0
M  V30 679 H 68.0205 -2.94218 -0.473249 0
M  V30 680 H 65.5575 -1.45415 -0.221981 0
M  V30 681 H 67.5155 -2.94685 -2.95325 0
M  V30 682 H 66.1455 -1.8474 -2.64709 0
M  V30 683 H 65.1975 -3.65849 -1.04205 0
M  V30 684 H 66.5095 -4.73245 -1.57608 0
M  V30 685 H 65.6635 -4.62273 -3.92923 0
M  V30 686 H 64.4025 -3.45516 -3.44195 0
M  V30 687 H 63.4075 -5.16187 -1.89291 0
M  V30 688 H 64.6325 -6.34971 -2.40807 0
M  V30 689 H 62.5785 -5.02377 -4.21846 0
M  V30 690 H 62.4955 -6.64362 -3.60775 0
M  V30 691 H 63.7635 -6.20791 -4.71422 0
M  V30 692 N 67.9926 0.231505 -1.5589 0
M  V30 693 C 69.2406 0.955461 -1.78088 0
M  V30 694 C 69.5616 1.85262 -0.608533 0
M  V30 695 O 68.8316 1.92277 0.375035 0
M  V30 696 H 67.4116 0.355787 -0.656829 0
M  V30 697 H 70.0736 0.245751 -1.93344 0
M  V30 698 H 69.1696 1.56814 -2.69844 0
M  V30 699 N 69.4707 1.49531 0.497807 0
M  V30 700 C 70.7007 1.62657 1.27382 0
M  V30 701 C 71.1087 0.298488 1.86831 0
M  V30 702 O 70.4517 -0.72647 1.68725 0
M  V30 703 C 70.5137 2.6393 2.44093 0
M  V30 704 C 70.1777 4.08195 2.05489 0
M  V30 705 C 71.1747 4.949 1.59279 0
M  V30 706 C 68.8597 4.53948 2.15026 0
M  V30 707 C 70.8537 6.25397 1.23113 0
M  V30 708 C 68.5407 5.84458 1.78473 0
M  V30 709 C 69.5387 6.70006 1.32591 0
M  V30 710 O 69.2267 7.98083 0.965327 0
M  V30 711 H 68.9587 0.550429 0.392434 0
M  V30 712 H 71.5127 1.96325 0.603801 0
M  V30 713 H 69.7427 2.25449 3.14181 0
M  V30 714 H 71.4317 2.66552 3.06113 0
M  V30 715 H 72.1977 4.60779 1.51354 0
M  V30 716 H 68.0767 3.87525 2.4969 0
M  V30 717 H 71.6207 6.92125 0.872299 0
M  V30 718 H 67.5177 6.18107 1.86048 0
M  V30 719 H 68.2857 8.11122 1.09652 0
M  V30 720 N 70.9488 -0.749086 1.3866 0
M  V30 721 C 72.2258 -1.4992 1.25632 0
M  V30 722 C 72.6058 -2.10633 -0.140317 0
M  V30 723 O 71.9538 -1.97437 -1.15025 0
M  V30 724 C 72.1638 -2.56195 2.36992 0
M  V30 725 C 73.5118 -3.22972 2.75634 0
M  V30 726 O 74.5358 -2.66502 2.36337 0
M  V30 727 O 73.3948 -4.25122 3.43415 0
M  V30 728 H 70.4888 -0.665067 0.491544 0
M  V30 729 H 73.0348 -0.784113 1.50498 0
M  V30 730 H 71.8068 -2.09612 3.30422 0
M  V30 731 H 71.4298 -3.35279 2.13714 0
M  V30 732 N 72.4269 -1.23603 -0.977757 0
M  V30 733 C 73.6759 -1.06377 -1.71368 0
M  V30 734 C 73.9889 0.399062 -1.91486 0
M  V30 735 O 75.1949 0.691312 -2.62551 0
M  V30 736 C 73.6509 -1.85512 -3.08404 0
M  V30 737 C 73.2589 -3.36141 -2.96164 0
M  V30 738 C 75.0029 -1.76783 -3.85938 0
M  V30 739 C 72.9099 -4.07659 -4.28449 0
M  V30 740 H 71.8399 -0.394452 -0.642591 0
M  V30 741 H 74.4909 -1.47594 -1.09034 0
M  V30 742 H 72.8729 -1.37103 -3.71509 0
M  V30 743 H 74.0469 -3.92056 -2.42133 0
M  V30 744 H 72.3619 -3.45712 -2.32104 0
M  V30 745 H 74.9589 -2.27526 -4.83876 0
M  V30 746 H 75.3019 -0.731116 -4.0983 0
M  V30 747 H 75.8349 -2.22818 -3.2954 0
M  V30 748 H 72.5739 -5.11648 -4.09752 0
M  V30 749 H 72.0939 -3.5653 -4.82334 0
M  V30 750 H 73.7729 -4.141 -4.97122 0
M  V30 751 N 73.905 1.17692 -1.04816 0
M  V30 752 C 75.321 1.39863 -0.768794 0
M  V30 753 C 75.521 1.91118 0.638451 0
M  V30 754 O 74.577 2.10036 1.40146 0
M  V30 755 C 75.89 2.39274 -1.82122 0
M  V30 756 C 77.438 2.52987 -1.843 0
M  V30 757 C 77.913 3.55669 -2.88555 0
M  V30 758 N 79.404 3.63183 -2.87493 0
M  V30 759 C 80.139 4.42381 -3.64811 0
M  V30 760 N 79.635 5.25125 -4.51903 0
M  V30 761 N 81.428 4.37217 -3.53267 0
M  V30 762 H 73.579 0.82752 -1.95617 0
M  V30 763 H 75.842 0.426123 -0.846831 0
M  V30 764 H 75.548 2.08678 -2.83102 0
M  V30 765 H 75.422 3.38725 -1.65967 0
M  V30 766 H 77.809 2.82896 -0.839869 0
M  V30 767 H 77.89 1.53623 -2.04532 0
M  V30 768 H 77.534 3.26499 -3.89051 0
M  V30 769 H 77.464 4.54728 -2.65575 0
M  V30 770 H 79.955 3.04103 -2.24343 0
M  V30 771 H 80.268 5.82728 -5.07591 0
M  V30 772 H 78.613 5.24519 -4.55966 0
M  V30 773 H 81.804 3.71626 -2.84625 0
M  V30 774 H 81.977 4.98696 -4.13771 0
M  V30 775 N 75.3831 0.828654 1.34056 0
M  V30 776 C 76.3131 0.269443 2.3194 0
M  V30 777 C 77.2941 -0.617247 1.58506 0
M  V30 778 O 78.4791 -0.542931 1.86456 0
M  V30 779 C 75.6091 -0.564793 3.42677 0
M  V30 780 C 74.5631 0.225241 4.27407 0
M  V30 781 C 73.8891 -0.7321 5.29664 0
M  V30 782 C 75.1891 1.43663 5.02154 0
M  V30 783 H 76.8831 1.08728 2.7896 0
M  V30 784 H 74.4291 0.524283 1.34117 0
M  V30 785 H 76.3821 -0.966233 4.10173 0
M  V30 786 H 75.1061 -1.41574 2.9432 0
M  V30 787 H 73.7651 0.608117 3.61521 0
M  V30 788 H 73.4131 -1.57916 4.77568 0
M  V30 789 H 73.1131 -0.20767 5.87233 0
M  V30 790 H 74.6371 -1.13128 6.00029 0
M  V30 791 H 76.0511 1.1089 5.62473 0
M  V30 792 H 74.4481 1.89711 5.69324 0
M  V30 793 H 75.5181 2.21181 4.31517 0
M  V30 794 N 76.8612 -1.46375 0.584142 0
M  V30 795 C 78.2772 -1.57694 0.245929 0
M  V30 796 C 78.4772 -1.57903 -1.25175 0
M  V30 797 O 77.5332 -1.49676 -2.03355 0
M  V30 798 C 78.8462 -2.87028 0.896402 0
M  V30 799 C 80.3942 -3.00662 0.870127 0
M  V30 800 C 80.8692 -4.32734 1.50017 0
M  V30 801 N 82.3602 -4.39436 1.46458 0
M  V30 802 C 83.0952 -5.40248 1.92144 0
M  V30 803 N 82.5912 -6.47726 2.4581 0
M  V30 804 N 84.3842 -5.31459 1.83052 0
M  V30 805 H 76.5352 -1.44483 1.55687 0
M  V30 806 H 78.7982 -0.689291 0.650831 0
M  V30 807 H 78.5042 -2.9269 1.95002 0
M  V30 808 H 78.3782 -3.75014 0.405486 0
M  V30 809 H 80.7652 -2.94581 -0.174871 0
M  V30 810 H 80.8462 -2.14148 1.39908 0
M  V30 811 H 80.4902 -4.39573 2.54437 0
M  V30 812 H 80.4202 -5.18025 0.946432 0
M  V30 813 H 82.9112 -3.62367 1.07231 0
M  V30 814 H 83.2242 -7.20863 2.78525 0
M  V30 815 H 81.5692 -6.48542 2.49836 0
M  V30 816 H 84.7602 -4.46396 1.40883 0
M  V30 817 H 84.9332 -6.09881 2.18973 0
M  V30 818 N 78.3393 -0.321999 -1.54275 0
M  V30 819 C 79.7503 0.166384 -1.85957 0
M  V30 820 C 80.1013 1.51747 -1.24367 0
M  V30 821 O 79.2263 2.09317 -0.549124 0
M  V30 822 C 79.8213 0.308681 -3.37391 0
M  V30 823 C 78.3803 0.741286 -3.69028 0
M  V30 824 C 77.5273 -0.137937 -2.76957 0
M  V30 825 H 80.4783 -0.542335 -1.49146 0
M  V30 826 H 80.4993 1.13984 -3.63026 0
M  V30 827 H 80.0113 -0.674809 -3.82188 0
M  V30 828 H 78.1123 1.73458 -3.29762 0
M  V30 829 H 78.2253 0.546118 -4.75977 0
M  V30 830 H 76.5893 0.386251 -2.51754 0
M  V30 831 H 77.3723 -1.11816 -3.2458 0
M  V30 832 N 79.8174 1.5752 -0.0501392 0
M  V30 833 C 81.0944 1.83996 0.663685 0
M  V30 834 C 81.4744 0.938339 1.89099 0
M  V30 835 O 80.8224 -0.00087759 2.285 0
M  V30 836 C 81.0324 3.33702 1.02196 0
M  V30 837 C 82.3804 4.00691 1.40469 0
M  V30 838 O 83.4044 3.38321 1.11433 0
M  V30 839 O 82.2634 5.10658 1.94654 0
M  V30 840 H 79.3574 0.759385 0.32751 0
M  V30 841 H 81.9034 1.69514 -0.0794238 0
M  V30 842 H 80.6754 3.91015 0.149364 0
M  V30 843 H 80.2984 3.53368 1.82255 0
M  V30 844 N 81.2955 -0.223234 1.56011 0
M  V30 845 C 82.5425 -0.947875 1.78946 0
M  V30 846 C 82.8705 -1.844 0.618608 0
M  V30 847 O 82.1255 -1.91629 -0.397093 0
M  V30 848 C 82.4245 -1.81948 3.0762 0
M  V30 849 C 82.0905 -1.07672 4.37856 0
M  V30 850 C 80.7525 -0.871544 4.73242 0
M  V30 851 C 83.1045 -0.552081 5.18268 0
M  V30 852 C 80.4325 -0.129791 5.86556 0
M  V30 853 C 82.7845 0.17632 6.32354 0
M  V30 854 C 81.4485 0.39277 6.66343 0
M  V30 855 H 80.7185 -0.346852 0.654809 0
M  V30 856 H 83.3655 -0.216171 1.90276 0
M  V30 857 H 81.6705 -2.61899 2.91404 0
M  V30 858 H 83.3675 -2.38227 3.22566 0
M  V30 859 H 79.9575 -1.24662 4.1007 0
M  V30 860 H 84.1415 -0.698076 4.91366 0
M  V30 861 H 79.3975 0.048153 6.11381 0
M  V30 862 H 83.5715 0.590367 6.93893 0
M  V30 863 H 81.1985 0.969466 7.53993 0
M  V30 864 N 82.7736 -1.49793 -0.48987 0
M  V30 865 C 84.0216 -1.59525 -1.24081 0
M  V30 866 C 84.3426 -0.288953 -1.92847 0
M  V30 867 O 83.6126 0.692436 -1.83254 0
M  V30 868 H 82.1926 -0.587796 -0.460983 0
M  V30 869 H 84.8546 -1.86477 -0.566778 0
M  V30 870 H 83.9506 -2.39696 -1.99881 0
M  V30 871 N 84.2517 0.741722 -1.39055 0
M  V30 872 C 85.4997 1.49818 -1.35643 0
M  V30 873 C 85.8207 1.94938 0.0491642 0
M  V30 874 O 85.0907 1.68505 0.999141 0
M  V30 875 H 83.6707 0.555755 -0.499144 0
M  V30 876 H 86.3327 0.880957 -1.73854 0
M  V30 877 H 85.4287 2.38348 -2.01486 0
M  V30 878 N 85.7298 1.2412 0.971189 0
M  V30 879 C 87.1408 1.07236 1.52831 0
M  V30 880 C 87.4918 -0.357352 1.92918 0
M  V30 881 O 86.6168 -1.24528 1.76979 0
M  V30 882 C 87.2118 1.94043 2.77728 0
M  V30 883 C 85.7708 1.81394 3.29808 0
M  V30 884 C 84.9178 1.89189 2.02738 0
M  V30 885 H 87.8688 1.37648 0.789864 0
M  V30 886 H 87.8898 1.47066 3.5093 0
M  V30 887 H 87.4018 2.98093 2.4852 0
M  V30 888 H 85.5028 0.801634 3.63874 0
M  V30 889 H 85.6158 2.65294 3.98944 0
M  V30 890 H 83.9798 1.32877 2.17292 0
M  V30 891 H 84.7628 2.94812 1.759 0
M  V30 892 N 87.2079 -1.17134 1.05439 0
M  V30 893 C 88.6189 -1.69084 0.791676 0
M  V30 894 C 88.9699 -1.83822 -0.685839 0
M  V30 895 O 88.0949 -1.52757 -1.53278 0
M  V30 896 C 88.6899 -3.07119 1.4305 0
M  V30 897 C 87.2489 -3.56225 1.21577 0
M  V30 898 C 86.3959 -2.32421 1.51247 0
M  V30 899 H 89.3469 -1.01617 1.219 0
M  V30 900 H 89.3679 -3.71087 0.84112 0
M  V30 901 H 88.8799 -2.9636 2.50584 0
M  V30 902 H 86.9809 -3.72257 0.159787 0
M  V30 903 H 87.0939 -4.38837 1.92246 0
M  V30 904 H 85.4579 -2.3701 0.932653 0
M  V30 905 H 86.2409 -2.24268 2.5992 0
M  V30 906 N 88.686 -0.835752 -1.33615 0
M  V30 907 C 89.932 -0.430596 -1.98176 0
M  V30 908 C 90.265 1.00684 -1.66061 0
M  V30 909 O 89.54 1.70339 -0.938877 0
M  V30 910 C 89.823 -0.648065 -3.5422 0
M  V30 911 C 89.676 -2.13255 -3.96033 0
M  V30 912 C 90.995 -0.0922113 -4.40003 0
M  V30 913 H 88.114 -0.157924 -0.719881 0
M  V30 914 H 90.756 -1.05069 -1.58305 0
M  V30 915 H 88.906 -0.120237 -3.88314 0
M  V30 916 H 90.578 -2.725 -3.72211 0
M  V30 917 H 88.821 -2.61823 -3.45878 0
M  V30 918 H 89.492 -2.23547 -5.04708 0
M  V30 919 H 91.968 -0.543343 -4.12537 0
M  V30 920 H 90.844 -0.274083 -5.48215 0
M  V30 921 H 91.105 1.00378 -4.30554 0
M  V30 922 N 90.1641 1.46063 -0.591896 0
M  V30 923 C 91.4041 2.04228 -0.0838014 0
M  V30 924 C 91.7681 1.45231 1.25587 0
M  V30 925 O 92.9691 1.94653 1.85375 0
M  V30 926 C 91.2401 3.57389 -0.0286282 0
M  V30 927 S 92.7991 4.3678 0.420557 0
M  V30 928 H 89.6171 0.709762 -0.0419319 0
M  V30 929 H 92.2191 1.78983 -0.786465 0
M  V30 930 H 90.9231 3.97843 -1.00743 0
M  V30 931 H 90.4541 3.87185 0.69652 0
M  V30 932 H 92.4691 4.67131 1.67341 0
M  V30 933 N 91.6422 0.330177 1.54103 0
M  V30 934 C 92.8882 -0.270806 2.00984 0
M  V30 935 C 93.2212 -1.51265 1.21789 0
M  V30 936 O 92.4962 -1.92142 0.301927 0
M  V30 937 C 92.7792 -0.598339 3.55094 0
M  V30 938 C 92.6322 0.654674 4.4501 0
M  V30 939 C 93.9512 -1.41334 4.16789 0
M  V30 940 H 91.0702 -0.0969531 0.730595 0
M  V30 941 H 93.7122 0.448066 1.84641 0
M  V30 942 H 91.8622 -1.21078 3.69151 0
M  V30 943 H 93.5342 1.29285 4.42813 0
M  V30 944 H 91.7772 1.28224 4.14416 0
M  V30 945 H 92.4482 0.380944 5.50684 0
M  V30 946 H 94.9242 -0.895597 4.06347 0
M  V30 947 H 93.8002 -1.61127 5.24718 0
M  V30 948 H 94.0612 -2.41146 3.70541 0
M  V30 949 N 93.1203 -1.57491 0.0584922 0
M  V30 950 C 94.3683 -1.92597 -0.612436 0
M  V30 951 C 94.6893 -0.938162 -1.70949 0
M  V30 952 O 93.9593 0.0158301 -1.95894 0
M  V30 953 H 92.5393 -0.710964 -0.229214 0
M  V30 954 H 95.2013 -1.94571 0.113218 0
M  V30 955 H 94.2973 -2.94038 -1.04633 0
M  V30 956 N 94.5984 0.214957 -1.56127 0
M  V30 957 C 95.5314 1.29382 -1.87977 0
M  V30 958 C 96.5094 1.44897 -0.737807 0
M  V30 959 O 97.6934 1.60605 -0.986833 0
M  V30 960 C 94.8204 2.66325 -2.09258 0
M  V30 961 C 93.8664 2.67789 -3.31951 0
M  V30 962 S 94.6994 2.21198 -4.8768 0
M  V30 963 C 95.8554 3.60003 -5.12004 0
M  V30 964 H 96.0884 1.02173 -2.79192 0
M  V30 965 H 93.6214 0.417516 -1.48648 0
M  V30 966 H 95.5794 3.45162 -2.22201 0
M  V30 967 H 94.2404 2.90755 -1.18829 0
M  V30 968 H 93.4334 3.68436 -3.43906 0
M  V30 969 H 93.0354 1.9702 -3.17898 0
M  V30 970 H 95.3274 4.55739 -5.01307 0
M  V30 971 H 96.2704 3.52959 -6.13861 0
M  V30 972 H 96.6784 3.53996 -4.39712 0
M  V30 973 N 96.0765 1.50051 0.48192 0
M  V30 974 C 97.0245 1.68635 1.60203 0
M  V30 975 C 98.0185 0.552184 1.60148 0
M  V30 976 O 99.2245 0.732377 1.64427 0
M  V30 977 H 95.5995 0.532081 0.531407 0
M  V30 978 H 97.5705 2.62616 1.41688 0
M  V30 979 C 96.3195 1.78775 2.9822 0
M  V30 980 H 95.6425 2.6543 2.98976 0
M  V30 981 H 97.0825 1.95806 3.7608 0
M  V30 982 C 95.5415 0.536849 3.32595 0
M  V30 983 O 96.0715 -0.328897 4.00351 0
M  V30 984 N 94.2775 0.394091 2.87915 0
M  V30 985 H 93.8245 1.09962 2.32951 0
M  V30 986 H 93.7825 -0.441737 3.11281 0
M  V30 987 N 97.5546 -0.734337 1.39446 0
M  V30 988 C 98.8036 -1.48937 1.36017 0
M  V30 989 C 99.1166 -1.95557 -0.0409005 0
M  V30 990 O 100.323 -2.70779 -0.19778 0
M  V30 991 C 98.7786 -2.69125 2.38955 0
M  V30 992 C 98.3866 -2.29452 3.8478 0
M  V30 993 C 100.131 -3.46944 2.44603 0
M  V30 994 C 98.0376 -3.46366 4.79358 0
M  V30 995 H 96.9676 -0.559296 0.505672 0
M  V30 996 H 99.6186 -0.800983 1.65095 0
M  V30 997 H 98.0006 -3.40041 2.02948 0
M  V30 998 H 99.1746 -1.66077 4.29831 0
M  V30 999 H 97.4896 -1.64723 3.82433 0
M  V30 1000 H 100.087 -4.33907 3.12456 0
M  V30 1001 H 100.43 -3.89454 1.47076 0
M  V30 1002 H 100.963 -2.83056 2.79507 0
M  V30 1003 H 97.7016 -3.08905 5.78151 0
M  V30 1004 H 97.2216 -4.08719 4.38986 0
M  V30 1005 H 98.9006 -4.12691 4.98292 0
M  V30 1006 N 99.0327 -1.24633 -0.964593 0
M  V30 1007 C 100.31 -0.995809 -1.68354 0
M  V30 1008 C 100.69 0.480964 -2.05548 0
M  V30 1009 O 100.038 1.45599 -1.76105 0
M  V30 1010 C 100.248 -1.92177 -2.91323 0
M  V30 1011 C 101.596 -2.19446 -3.63495 0
M  V30 1012 O 102.62 -1.89855 -3.01386 0
M  V30 1013 O 101.479 -2.69714 -4.75307 0
M  V30 1014 H 98.5727 -0.376854 -0.736146 0
M  V30 1015 H 101.119 -1.35745 -1.0184 0
M  V30 1016 H 99.8907 -2.91938 -2.60553 0
M  V30 1017 H 99.5137 -1.56349 -3.65569 0
M  V30 1018 N 100.511 1.16574 -1.06058 0
M  V30 1019 C 101.76 1.86385 -0.770944 0
M  V30 1020 C 102.073 1.82448 0.705129 0
M  V30 1021 O 103.279 2.47815 1.10905 0
M  V30 1022 C 101.735 3.34466 -1.32893 0
M  V30 1023 C 101.343 3.46883 -2.83507 0
M  V30 1024 C 103.087 4.09548 -1.11672 0
M  V30 1025 C 100.994 4.89036 -3.32562 0
M  V30 1026 H 99.9238 0.698181 -0.284709 0
M  V30 1027 H 102.575 1.31583 -1.27899 0
M  V30 1028 H 100.957 3.88859 -0.748662 0
M  V30 1029 H 102.131 3.02663 -3.47465 0
M  V30 1030 H 100.446 2.85232 -3.03368 0
M  V30 1031 H 103.043 5.14434 -1.45814 0
M  V30 1032 H 103.386 4.16264 -0.0549535 0
M  V30 1033 H 103.919 3.61387 -1.66265 0
M  V30 1034 H 100.658 4.87499 -4.38207 0
M  V30 1035 H 100.178 5.3389 -2.73351 0
M  V30 1036 H 101.857 5.57843 -3.2775 0
M  V30 1037 N 101.989 0.842826 1.3317 0
M  V30 1038 C 102.952 0.284065 2.27433 0
M  V30 1039 C 103.952 -0.54948 1.5112 0
M  V30 1040 O 105.142 -0.362699 1.70382 0
M  V30 1041 C 102.274 -0.599384 3.35589 0
M  V30 1042 H 103.467 1.11589 2.78366 0
M  V30 1043 H 101.02 0.616221 1.4364 0
M  V30 1044 H 101.755 -1.45349 2.89904 0
M  V30 1045 H 101.54 -0.00291266 3.921 0
M  V30 1046 H 103.03 -0.983488 4.05854 0
M  V30 1047 N 103.467 -1.45747 0.599634 0
M  V30 1048 C 104.692 -2.07178 0.0960198 0
M  V30 1049 C 105.117 -1.44268 -1.207 0
M  V30 1050 O 104.475 -0.532503 -1.73303 0
M  V30 1051 C 104.523 -3.60579 -0.0385348 0
M  V30 1052 O 103.627 -3.97713 -1.0908 0
M  V30 1053 H 102.968 -0.660251 0.0704593 0
M  V30 1054 H 105.498 -1.87124 0.827385 0
M  V30 1055 H 105.508 -4.07298 -0.239304 0
M  V30 1056 H 104.183 -4.05756 0.912947 0
M  V30 1057 H 102.76 -3.62678 -0.867135 0
M  V30 1058 N 104.945 -0.338344 -1.53925 0
M  V30 1059 C 106.194 0.260732 -2.00008 0
M  V30 1060 C 106.507 1.52073 -1.23017 0
M  V30 1061 O 107.713 2.19672 -1.5955 0
M  V30 1062 C 106.169 0.51515 -3.56194 0
M  V30 1063 C 105.777 -0.728645 -4.42035 0
M  V30 1064 C 107.521 1.07337 -4.10706 0
M  V30 1065 C 105.428 -0.445315 -5.89721 0
M  V30 1066 H 104.358 0.101205 -0.747177 0
M  V30 1067 H 107.009 -0.452866 -1.77824 0
M  V30 1068 H 105.391 1.28932 -3.74423 0
M  V30 1069 H 106.565 -1.50352 -4.35581 0
M  V30 1070 H 104.88 -1.20813 -3.98489 0
M  V30 1071 H 107.477 1.30022 -5.18651 0
M  V30 1072 H 107.82 2.0273 -3.63602 0
M  V30 1073 H 108.353 0.360034 -3.96167 0
M  V30 1074 H 105.092 -1.36883 -6.41049 0
M  V30 1075 H 104.612 0.291569 -5.99091 0
M  V30 1076 H 106.291 -0.0606218 -6.46972 0
M  V30 1077 N 106.423 1.57458 -0.0668435 0
M  V30 1078 C 107.7 1.8469 0.644132 0
M  V30 1079 C 108.08 0.958343 1.88093 0
M  V30 1080 O 107.428 0.0233579 2.28488 0
M  V30 1081 C 107.638 3.34767 0.986509 0
M  V30 1082 C 108.986 4.02159 1.36212 0
M  V30 1083 O 110.01 3.39484 1.07839 0
M  V30 1084 O 108.869 5.12694 1.89227 0
M  V30 1085 H 105.963 0.762816 0.319437 0
M  V30 1086 H 108.509 1.6942 -0.0973986 0
M  V30 1087 H 107.281 3.91151 0.107883 0
M  V30 1088 H 106.904 3.55281 1.78497 0
M  V30 1089 N 107.901 -0.206675 1.56239 0
M  V30 1090 C 108.834 -1.28383 1.88661 0
M  V30 1091 C 109.812 -1.44504 0.745481 0
M  V30 1092 O 110.996 -1.60079 0.995336 0
M  V30 1093 C 108.123 -2.65211 2.10667 0
M  V30 1094 C 107.169 -2.66025 3.33366 0
M  V30 1095 S 108.002 -2.18609 4.88846 0
M  V30 1096 C 109.158 -3.57283 5.13906 0
M  V30 1097 H 109.391 -1.00691 2.7973 0
M  V30 1098 H 106.924 -0.409627 1.48867 0
M  V30 1099 H 108.882 -3.43979 2.24029 0
M  V30 1100 H 107.543 -2.90121 1.20369 0
M  V30 1101 H 106.736 -3.66607 3.45855 0
M  V30 1102 H 106.338 -1.95331 3.18938 0
M  V30 1103 H 108.63 -4.53074 5.03717 0
M  V30 1104 H 109.573 -3.49699 6.15724 0
M  V30 1105 H 109.981 -3.51659 4.41583 0
M  V30 1106 N 109.379 -1.50304 -0.473955 0
M  V30 1107 C 110.625 -1.61389 -1.22806 0
M  V30 1108 C 110.958 -0.311955 -1.91678 0
M  V30 1109 O 110.233 0.686384 -1.81986 0
M  V30 1110 C 110.516 -2.79219 -2.27396 0
M  V30 1111 C 110.369 -4.19286 -1.62848 0
M  V30 1112 C 111.688 -2.92614 -3.28732 0
M  V30 1113 H 108.807 -0.587399 -0.445119 0
M  V30 1114 H 111.449 -1.82681 -0.522265 0
M  V30 1115 H 109.599 -2.61195 -2.87592 0
M  V30 1116 H 111.271 -4.48892 -1.06271 0
M  V30 1117 H 109.514 -4.23677 -0.931693 0
M  V30 1118 H 110.185 -4.97655 -2.38838 0
M  V30 1119 H 112.661 -3.09105 -2.78556 0
M  V30 1120 H 111.537 -3.76688 -3.99246 0
M  V30 1121 H 111.798 -2.03107 -3.92683 0
M  V30 1122 N 110.857 0.726932 -1.39834 0
M  V30 1123 C 112.082 1.52121 -1.40976 0
M  V30 1124 C 112.507 1.88098 -0.00826029 0
M  V30 1125 O 111.865 1.52479 0.980807 0
M  V30 1126 C 111.913 2.78021 -2.29644 0
M  V30 1127 O 111.017 3.74272 -1.73188 0
M  V30 1128 H 110.358 0.45908 -0.479731 0
M  V30 1129 H 112.888 0.896207 -1.83927 0
M  V30 1130 H 112.898 3.26671 -2.44438 0
M  V30 1131 H 111.573 2.51169 -3.31492 0
M  V30 1132 H 110.15 3.33073 -1.6768 0
M  V30 1133 N 112.336 1.25143 0.95797 0
M  V30 1134 C 113.246 1.06968 2.08794 0
M  V30 1135 C 114.262 0.00773911 1.73998 0
M  V30 1136 O 115.438 0.207972 2.00323 0
M  V30 1137 C 112.503 0.68691 3.39827 0
M  V30 1138 C 111.564 1.82641 3.88511 0
M  V30 1139 C 110.797 1.46181 5.1329 0
M  V30 1140 O 111.02 0.355971 5.69288 0
M  V30 1141 O 109.954 2.29085 5.566 0
M  V30 1142 H 113.78 2.01723 2.27027 0
M  V30 1143 H 111.365 1.04051 1.07209 0
M  V30 1144 H 113.247 0.485417 4.18595 0
M  V30 1145 H 111.922 -0.231417 3.22872 0
M  V30 1146 H 110.829 2.08274 3.10762 0
M  V30 1147 H 112.162 2.72386 4.09959 0
M  V30 1148 N 113.814 -1.1601 1.06675 0
M  V30 1149 C 115.06 -1.86909 0.786945 0
M  V30 1150 C 115.393 -1.81717 -0.685018 0
M  V30 1151 O 114.668 -1.23551 -1.50218 0
M  V30 1152 C 114.951 -3.36313 1.28707 0
M  V30 1153 C 114.804 -3.50175 2.82308 0
M  V30 1154 C 116.123 -4.3084 0.898071 0
M  V30 1155 H 113.242 -0.678677 0.287343 0
M  V30 1156 H 115.884 -1.36336 1.32334 0
M  V30 1157 H 114.034 -3.79513 0.830768 0
M  V30 1158 H 115.706 -3.15886 3.36175 0
M  V30 1159 H 113.949 -2.91959 3.20847 0
M  V30 1160 H 114.62 -4.55116 3.12368 0
M  V30 1161 H 117.096 -3.95561 1.29114 0
M  V30 1162 H 115.972 -5.33876 1.27543 0
M  V30 1163 H 116.233 -4.41662 -0.196651 0
M  V30 1164 N 115.292 -0.849877 -1.32721 0
M  V30 1165 C 116.24 -0.279745 -2.30912 0
M  V30 1166 C 117.234 0.594278 -1.58634 0
M  V30 1167 O 118.44 0.482613 -1.73409 0
M  V30 1168 H 114.815 -0.0717521 -0.748569 0
M  V30 1169 H 116.786 -1.12222 -2.76494 0
M  V30 1170 C 115.535 0.521108 -3.43773 0
M  V30 1171 H 114.858 -0.142141 -3.99547 0
M  V30 1172 H 116.298 0.885693 -4.14646 0
M  V30 1173 C 114.757 1.70442 -2.90605 0
M  V30 1174 O 115.287 2.8034 -2.87702 0
M  V30 1175 N 113.493 1.52991 -2.47067 0
M  V30 1176 H 113.04 0.635914 -2.49628 0
M  V30 1177 H 112.998 2.32311 -2.11847 0
M  V30 1178 N 116.77 1.45427 -0.607355 0
M  V30 1179 C 117.703 2.27635 0.160482 0
M  V30 1180 C 118.681 1.37122 0.873857 0
M  V30 1181 O 119.865 1.66551 0.882775 0
M  V30 1182 C 116.992 3.15486 1.23231 0
M  V30 1183 C 116.038 4.21939 0.622097 0
M  V30 1184 S 116.871 5.32459 -0.569852 0
M  V30 1185 C 118.027 6.23879 0.502577 0
M  V30 1186 H 118.26 2.9241 -0.536983 0
M  V30 1187 H 115.793 1.49265 -0.394868 0
M  V30 1188 H 117.751 3.66659 1.84585 0
M  V30 1189 H 116.412 2.49977 1.90185 0
M  V30 1190 H 115.605 4.8333 1.42856 0
M  V30 1191 H 115.207 3.73906 0.0837063 0
M  V30 1192 H 117.499 6.63261 1.38171 0
M  V30 1193 H 118.442 7.0806 -0.0751759 0
M  V30 1194 H 118.85 5.58545 0.8178 0
M  V30 1195 N 118.248 0.346503 1.53744 0
M  V30 1196 C 119.525 -0.304532 1.93215 0
M  V30 1197 C 119.905 -1.67993 1.27834 0
M  V30 1198 O 119.253 -2.24411 0.430352 0
M  V30 1199 C 119.463 -0.373852 3.46992 0
M  V30 1200 C 120.811 -0.62329 4.2 0
M  V30 1201 O 121.835 -0.455847 3.53271 0
M  V30 1202 O 120.694 -0.947879 5.38217 0
M  V30 1203 H 117.788 -0.178318 0.807547 0
M  V30 1204 H 120.334 0.397895 1.64969 0
M  V30 1205 H 119.106 0.591224 3.86808 0
M  V30 1206 H 118.729 -1.12294 3.81413 0
M  V30 1207 N 119.726 -1.57421 0.075193 0
M  V30 1208 C 120.956 -1.97659 -0.601203 0
M  V30 1209 C 121.364 -0.952427 -1.63479 0
M  V30 1210 O 120.707 0.0688241 -1.83571 0
M  V30 1211 C 120.769 -3.34218 -1.32434 0
M  V30 1212 C 120.433 -4.5484 -0.443826 0
M  V30 1213 C 121.43 -5.19034 0.299969 0
M  V30 1214 C 119.115 -5.00952 -0.367709 0
M  V30 1215 C 121.109 -6.27695 1.10807 0
M  V30 1216 C 118.796 -6.09484 0.444058 0
M  V30 1217 C 119.794 -6.72719 1.18061 0
M  V30 1218 O 119.482 -7.79161 1.97898 0
M  V30 1219 H 119.214 -0.65494 -0.167422 0
M  V30 1220 H 121.768 -2.04886 0.145157 0
M  V30 1221 H 119.998 -3.23615 -2.11685 0
M  V30 1222 H 121.687 -3.59038 -1.89331 0
M  V30 1223 H 122.453 -4.84351 0.250776 0
M  V30 1224 H 118.332 -4.51509 -0.930638 0
M  V30 1225 H 121.876 -6.76982 1.68347 0
M  V30 1226 H 117.773 -6.43601 0.494803 0
M  V30 1227 H 118.541 -7.96055 1.90367 0
M  V30 1228 N 121.204 0.198386 -1.56346 0
M  V30 1229 C 122.432 0.935572 -1.84539 0
M  V30 1230 C 122.847 1.76989 -0.657281 0
M  V30 1231 O 122.204 1.78626 0.374043 0
M  V30 1232 C 122.255 1.8344 -3.11499 0
M  V30 1233 O 121.976 1.03377 -4.25728 0
M  V30 1234 C 123.477 2.68355 -3.52846 0
M  V30 1235 H 120.697 0.273126 -0.612897 0
M  V30 1236 H 123.241 0.20663 -2.03453 0
M  V30 1237 H 121.396 2.51701 -2.94492 0
M  V30 1238 H 121.81 1.64599 -4.98003 0
M  V30 1239 H 123.284 3.27085 -4.44657 0
M  V30 1240 H 123.761 3.41901 -2.75681 0
M  V30 1241 H 124.367 2.05471 -3.72373 0
M  V30 1242 N 122.682 1.50554 0.465978 0
M  V30 1243 C 123.612 1.72722 1.57128 0
M  V30 1244 C 124.593 0.576294 1.6004 0
M  V30 1245 O 125.778 0.81598 1.76225 0
M  V30 1246 C 122.908 1.82605 2.95419 0
M  V30 1247 C 121.862 2.97835 3.07373 0
M  V30 1248 C 121.188 2.92867 4.47363 0
M  V30 1249 C 122.488 4.38265 2.84114 0
M  V30 1250 H 124.182 2.65267 1.38829 0
M  V30 1251 H 121.728 1.2765 0.666441 0
M  V30 1252 H 123.681 1.96698 3.72677 0
M  V30 1253 H 122.405 0.866858 3.14886 0
M  V30 1254 H 121.064 2.83401 2.3255 0
M  V30 1255 H 120.712 1.94783 4.63755 0
M  V30 1256 H 120.412 3.70227 4.56296 0
M  V30 1257 H 121.936 3.09015 5.26633 0
M  V30 1258 H 123.35 4.53198 3.51118 0
M  V30 1259 H 121.747 5.17115 3.04487 0
M  V30 1260 H 122.817 4.50281 1.7993 0
M  V30 1261 N 124.16 -0.719506 1.40217 0
M  V30 1262 C 125.388 -1.50864 1.41589 0
M  V30 1263 C 125.803 -1.88794 0.0145275 0
M  V30 1264 O 125.16 -1.55174 -0.960594 0
M  V30 1265 C 125.211 -2.78646 2.30302 0
M  V30 1266 O 124.932 -2.42321 3.64983 0
M  V30 1267 C 126.433 -3.72569 2.40224 0
M  V30 1268 H 123.653 -0.465709 0.48307 0
M  V30 1269 H 126.197 -0.88785 1.84221 0
M  V30 1270 H 124.352 -3.37019 1.91042 0
M  V30 1271 H 124.766 -3.24514 4.12057 0
M  V30 1272 H 126.24 -4.5908 3.06512 0
M  V30 1273 H 126.717 -4.15403 1.42608 0
M  V30 1274 H 127.323 -3.20109 2.80019 0
M  V30 1275 N 125.638 -1.25649 -0.95132 0
M  V30 1276 C 126.571 -1.00644 -2.04807 0
M  V30 1277 C 127.549 0.0654271 -1.62468 0
M  V30 1278 O 128.733 -0.074911 -1.88351 0
M  V30 1279 C 125.86 -0.522052 -3.34653 0
M  V30 1280 C 124.906 -1.58495 -3.95957 0
M  V30 1281 S 125.739 -3.17108 -4.31512 0
M  V30 1282 C 126.895 -2.70412 -5.64471 0
M  V30 1283 H 127.128 -1.93508 -2.25703 0
M  V30 1284 H 124.661 -1.09216 -1.09139 0
M  V30 1285 H 126.619 -0.24923 -4.09743 0
M  V30 1286 H 125.28 0.386146 -3.11717 0
M  V30 1287 H 124.473 -1.1968 -4.89584 0
M  V30 1288 H 124.075 -1.80862 -3.2736 0
M  V30 1289 H 126.367 -2.14245 -6.42733 0
M  V30 1290 H 127.31 -3.62693 -6.08161 0
M  V30 1291 H 127.718 -2.10302 -5.23864 0
M  V30 1292 N 127.117 1.15442 -1.07289 0
M  V30 1293 C 128.347 1.89821 -0.815576 0
M  V30 1294 C 128.755 1.7823 0.634867 0
M  V30 1295 O 128.098 1.13152 1.44715 0
M  V30 1296 C 128.16 3.40817 -1.14385 0
M  V30 1297 C 127.824 3.76193 -2.59476 0
M  V30 1298 C 128.821 3.77269 -3.57721 0
M  V30 1299 C 126.506 4.0652 -2.95037 0
M  V30 1300 C 128.5 4.08176 -4.89562 0
M  V30 1301 C 126.187 4.37092 -4.27076 0
M  V30 1302 C 127.185 4.37902 -5.24148 0
M  V30 1303 O 126.873 4.67741 -6.53815 0
M  V30 1304 H 126.605 0.608465 -0.294528 0
M  V30 1305 H 129.159 1.472 -1.43252 0
M  V30 1306 H 127.389 3.83835 -0.469865 0
M  V30 1307 H 129.078 3.96485 -0.869179 0
M  V30 1308 H 129.844 3.5394 -3.3159 0
M  V30 1309 H 125.723 4.05049 -2.20128 0
M  V30 1310 H 129.267 4.08723 -5.65324 0
M  V30 1311 H 125.164 4.59889 -4.5296 0
M  V30 1312 H 125.932 4.85509 -6.58957 0
M  V30 1313 N 128.595 0.856903 1.32268 0
M  V30 1314 C 129.842 0.461386 1.97174 0
M  V30 1315 C 130.17 -0.983491 1.67803 0
M  V30 1316 O 129.425 -1.70541 0.959903 0
M  V30 1317 C 129.724 0.649919 3.51441 0
M  V30 1318 C 129.39 2.0656 4.00804 0
M  V30 1319 C 128.052 2.45279 4.13995 0
M  V30 1320 C 130.404 2.98947 4.26943 0
M  V30 1321 C 127.732 3.75653 4.50668 0
M  V30 1322 C 130.084 4.28822 4.65075 0
M  V30 1323 C 128.748 4.67472 4.76472 0
M  V30 1324 H 128.018 0.168833 0.72151 0
M  V30 1325 H 130.665 1.08739 1.57633 0
M  V30 1326 H 128.97 -0.0593018 3.91755 0
M  V30 1327 H 130.667 0.32391 3.9969 0
M  V30 1328 H 127.257 1.75495 3.91024 0
M  V30 1329 H 131.441 2.70265 4.16258 0
M  V30 1330 H 126.697 4.05379 4.57688 0
M  V30 1331 H 130.871 5.0047 4.84255 0
M  V30 1332 H 128.498 5.68539 5.04646 0
M  V30 1333 N 130.073 -1.45103 0.615059 0
M  V30 1334 C 131.005 -2.28786 -0.13762 0
M  V30 1335 C 132.018 -1.40376 -0.824525 0
M  V30 1336 O 133.207 -1.64681 -0.688662 0
M  V30 1337 C 130.307 -3.16322 -1.21628 0
M  V30 1338 C 129.48 -4.33054 -0.615039 0
M  V30 1339 C 128.539 -5.01743 -1.58556 0
M  V30 1340 O 127.565 -5.58293 -1.10895 0
M  V30 1341 N 128.767 -5.01714 -2.91998 0
M  V30 1342 H 131.532 -2.94025 0.580483 0
M  V30 1343 H 129.093 -1.55373 0.45507 0
M  V30 1344 H 131.085 -3.59139 -1.86552 0
M  V30 1345 H 129.655 -2.52943 -1.83681 0
M  V30 1346 H 128.875 -3.93627 0.21245 0
M  V30 1347 H 130.163 -5.08431 -0.193704 0
M  V30 1348 H 129.561 -4.57075 -3.33316 0
M  V30 1349 H 128.118 -5.48371 -3.52325 0
M  V30 1350 N 131.551 -0.354651 -1.53558 0
M  V30 1351 C 132.483 0.5315 -2.22952 0
M  V30 1352 C 133.496 1.05503 -1.23988 0
M  V30 1353 O 134.685 0.963279 -1.50277 0
M  V30 1354 C 131.785 1.74538 -2.90499 0
M  V30 1355 C 130.958 1.35524 -4.15875 0
M  V30 1356 C 130.017 2.42999 -4.66731 0
M  V30 1357 O 129.043 2.05844 -5.30676 0
M  V30 1358 N 130.245 3.74423 -4.43608 0
M  V30 1359 H 133.01 -0.0628615 -2.99634 0
M  V30 1360 H 130.571 -0.179302 -1.60904 0
M  V30 1361 H 132.563 2.45892 -3.21433 0
M  V30 1362 H 131.133 2.24686 -2.17336 0
M  V30 1363 H 130.353 0.471998 -3.91364 0
M  V30 1364 H 131.641 1.07071 -4.97406 0
M  V30 1365 H 131.039 4.07391 -3.92491 0
M  V30 1366 H 129.596 4.41913 -4.7912 0
M  V30 1367 N 133.029 1.57378 -0.0835403 0
M  V30 1368 C 134.259 1.97975 0.590713 0
M  V30 1369 C 134.667 0.961083 1.62972 0
M  V30 1370 O 134.01 -0.0590879 1.83605 0
M  V30 1371 C 134.072 3.34915 1.3066 0
M  V30 1372 C 133.736 4.55069 0.419698 0
M  V30 1373 C 134.733 5.18868 -0.32749 0
M  V30 1374 C 132.418 5.0114 0.341137 0
M  V30 1375 C 134.412 6.27098 -1.14134 0
M  V30 1376 C 132.099 6.0924 -0.476374 0
M  V30 1377 C 133.097 6.72083 -1.21627 0
M  V30 1378 O 132.785 7.781 -2.02028 0
M  V30 1379 H 132.517 0.655818 0.163947 0
M  V30 1380 H 135.071 2.04807 -0.156021 0
M  V30 1381 H 133.301 3.24733 2.09966 0
M  V30 1382 H 134.99 3.60037 1.87424 0
M  V30 1383 H 135.756 4.84211 -0.276459 0
M  V30 1384 H 131.635 4.51996 0.90668 0
M  V30 1385 H 135.179 6.7608 -1.71935 0
M  V30 1386 H 131.076 6.43329 -0.528927 0
M  V30 1387 H 131.844 7.95034 -1.94586 0
M  V30 1388 N 134.507 -0.190092 1.56449 0
M  V30 1389 C 135.753 -0.906472 1.82084 0
M  V30 1390 C 136.108 -1.80677 0.661335 0
M  V30 1391 O 135.401 -1.88501 -0.343237 0
M  V30 1392 C 135.595 -1.75382 3.1141 0
M  V30 1393 C 135.424 -0.937053 4.39829 0
M  V30 1394 C 134.194 -0.619507 5.01488 0
M  V30 1395 C 136.392 -0.2874 5.13496 0
M  V30 1396 N 134.374 0.215367 6.13522 0
M  V30 1397 C 135.745 0.409454 6.18646 0
M  V30 1398 C 137.8 -0.203639 4.97483 0
M  V30 1399 C 136.503 1.1821 7.0952 0
M  V30 1400 C 138.529 0.555622 5.88784 0
M  V30 1401 C 137.891 1.24091 6.93384 0
M  V30 1402 H 133.99 -0.310931 0.717528 0
M  V30 1403 H 136.574 -0.174821 1.93914 0
M  V30 1404 H 134.745 -2.45703 3.00806 0
M  V30 1405 H 136.477 -2.41006 3.25112 0
M  V30 1406 H 133.232 -0.945126 4.64074 0
M  V30 1407 H 133.656 0.622562 6.74131 0
M  V30 1408 H 138.298 -0.719099 4.1664 0
M  V30 1409 H 136.016 1.70897 7.89823 0
M  V30 1410 H 139.602 0.621854 5.78467 0
M  V30 1411 H 138.482 1.81901 7.62812 0
M  V30 1412 N 135.985 -1.50799 -0.457987 0
M  V30 1413 C 137.401 -1.38515 -0.792819 0
M  V30 1414 C 137.601 -0.451409 -1.96379 0
M  V30 1415 O 136.657 0.10112 -2.52297 0
M  V30 1416 C 137.97 -2.80149 -1.09258 0
M  V30 1417 C 139.518 -2.89156 -1.19825 0
M  V30 1418 C 139.993 -4.31651 -1.53106 0
M  V30 1419 N 141.484 -4.34662 -1.60072 0
M  V30 1420 C 142.219 -5.41928 -1.87354 0
M  V30 1421 N 141.715 -6.59384 -2.12568 0
M  V30 1422 N 143.508 -5.29385 -1.88965 0
M  V30 1423 H 135.659 -2.10073 0.313511 0
M  V30 1424 H 137.922 -0.944803 0.0777862 0
M  V30 1425 H 137.628 -3.50374 -0.305084 0
M  V30 1426 H 137.502 -3.18204 -2.02549 0
M  V30 1427 H 139.889 -2.19141 -1.97639 0
M  V30 1428 H 139.97 -2.54626 -0.244821 0
M  V30 1429 H 139.614 -5.02208 -0.758266 0
M  V30 1430 H 139.544 -4.63678 -2.49621 0
M  V30 1431 H 142.035 -3.49973 -1.42573 0
M  V30 1432 H 142.348 -7.36934 -2.32696 0
M  V30 1433 H 140.693 -6.62535 -2.09933 0
M  V30 1434 H 143.884 -4.36616 -1.68772 0
M  V30 1435 H 144.057 -6.13066 -2.09891 0
M  V30 1436 N 137.463 0.71206 -1.40597 0
M  V30 1437 C 138.74 1.46536 -1.29563 0
M  V30 1438 C 139.12 2.10931 0.0844217 0
M  V30 1439 O 138.468 2.00418 1.0975 0
M  V30 1440 C 138.678 2.49821 -2.43701 0
M  V30 1441 C 140.026 3.15551 -2.841 0
M  V30 1442 O 141.05 2.60142 -2.4332 0
M  V30 1443 O 139.909 4.15867 -3.54566 0
M  V30 1444 H 137.003 0.651801 -0.509004 0
M  V30 1445 H 139.549 0.743935 -1.52524 0
M  V30 1446 H 138.321 2.00778 -3.35863 0
M  V30 1447 H 137.944 3.29495 -2.22528 0
M  V30 1448 N 138.941 1.26152 0.944643 0
M  V30 1449 C 139.888 1.07408 2.04285 0
M  V30 1450 C 140.858 -0.0198413 1.66088 0
M  V30 1451 O 142.043 0.139264 1.90291 0
M  V30 1452 C 139.183 0.70945 3.37729 0
M  V30 1453 C 138.296 1.87926 3.88983 0
M  V30 1454 C 137.431 1.45807 5.10797 0
M  V30 1455 C 136.47 2.5964 5.54305 0
M  V30 1456 N 135.607 2.18226 6.67324 0
M  V30 1457 H 140.447 2.01389 2.1965 0
M  V30 1458 H 137.984 1.00275 1.07626 0
M  V30 1459 H 139.942 0.478948 4.14442 0
M  V30 1460 H 138.572 -0.193389 3.2222 0
M  V30 1461 H 137.624 2.22279 3.08701 0
M  V30 1462 H 138.936 2.73377 4.17213 0
M  V30 1463 H 138.09 1.18781 5.94959 0
M  V30 1464 H 136.829 0.574414 4.84305 0
M  V30 1465 H 135.834 2.87399 4.68702 0
M  V30 1466 H 137.059 3.48599 5.828 0
M  V30 1467 H 135.005 1.3229 6.42523 0
M  V30 1468 H 134.922 2.97221 6.95123 0
M  V30 1469 H 136.19 1.94403 7.54869 0
M  V30 1470 N 140.419 -1.14872 1.07899 0
M  V30 1471 C 141.835 -1.37776 0.805606 0
M  V30 1472 C 142.035 -1.92743 -0.587555 0
M  V30 1473 O 141.091 -2.13678 -1.34528 0
M  V30 1474 C 142.404 -2.34361 1.88402 0
M  V30 1475 C 143.952 -2.48012 1.90942 0
M  V30 1476 C 144.427 -3.47893 2.97883 0
M  V30 1477 N 145.918 -3.55433 2.97021 0
M  V30 1478 C 146.653 -4.32553 3.76412 0
M  V30 1479 N 146.149 -5.12959 4.65666 0
M  V30 1480 N 147.942 -4.27697 3.64735 0
M  V30 1481 H 140.093 -0.775365 1.97742 0
M  V30 1482 H 142.356 -0.403521 0.857831 0
M  V30 1483 H 142.062 -2.01098 2.88535 0
M  V30 1484 H 141.936 -3.34206 1.74889 0
M  V30 1485 H 144.323 -2.8057 0.914579 0
M  V30 1486 H 144.404 -1.48147 2.08534 0
M  V30 1487 H 144.048 -3.16069 3.97571 0
M  V30 1488 H 143.978 -4.47527 2.77538 0
M  V30 1489 H 146.469 -2.98048 2.32326 0
M  V30 1490 H 146.782 -5.69065 5.22862 0
M  V30 1491 H 145.127 -5.12245 4.69712 0
M  V30 1492 H 148.318 -3.63949 2.94378 0
M  V30 1493 H 148.491 -4.8755 4.26848 0
M  V30 1494 N 141.898 -0.863906 -1.31812 0
M  V30 1495 C 142.828 -0.330843 -2.31144 0
M  V30 1496 C 143.809 0.575005 -1.60087 0
M  V30 1497 O 144.994 0.493304 -1.8783 0
M  V30 1498 C 142.124 0.47374 -3.44054 0
M  V30 1499 C 141.078 -0.338481 -4.26659 0
M  V30 1500 C 140.404 0.591412 -5.31419 0
M  V30 1501 C 141.704 -1.56926 -4.98168 0
M  V30 1502 H 143.398 -1.16086 -2.75979 0
M  V30 1503 H 140.944 -0.559657 -1.32679 0
M  V30 1504 H 142.897 0.857143 -4.12591 0
M  V30 1505 H 141.621 1.33721 -2.9797 0
M  V30 1506 H 140.28 -0.703754 -3.59782 0
M  V30 1507 H 139.928 1.45199 -4.81587 0
M  V30 1508 H 139.628 0.0519022 -5.87577 0
M  V30 1509 H 141.152 0.97179 -6.02817 0
M  V30 1510 H 142.566 -1.25764 -5.59336 0
M  V30 1511 H 140.963 -2.04739 -5.64094 0
M  V30 1512 H 142.033 -2.32544 -4.25501 0
M  V30 1513 N 143.376 1.44774 -0.622745 0
M  V30 1514 C 144.339 2.29069 0.0774015 0
M  V30 1515 C 145.339 1.4059 0.780461 0
M  V30 1516 O 146.529 1.62551 0.626322 0
M  V30 1517 C 143.661 3.21974 1.12006 0
M  V30 1518 H 144.854 2.92459 -0.663901 0
M  V30 1519 H 142.407 1.51548 -0.382486 0
M  V30 1520 H 143.142 2.63417 1.89162 0
M  V30 1521 H 142.927 3.87168 0.619951 0
M  V30 1522 H 144.417 3.85318 1.60995 0
M  V30 1523 N 144.854 0.36279 1.53368 0
M  V30 1524 C 146.084 -0.228281 2.05335 0
M  V30 1525 C 146.492 -1.43226 1.23625 0
M  V30 1526 O 145.835 -1.81717 0.269206 0
M  V30 1527 C 145.897 -0.688549 3.52845 0
M  V30 1528 C 145.561 0.398362 4.5526 0
M  V30 1529 C 146.558 1.24732 5.04716 0
M  V30 1530 C 144.243 0.557805 4.99193 0
M  V30 1531 C 146.237 2.2411 5.96702 0
M  V30 1532 C 143.924 1.55495 5.90986 0
M  V30 1533 C 144.922 2.39503 6.39631 0
M  V30 1534 O 144.61 3.37517 7.29615 0
M  V30 1535 H 144.342 -0.044395 0.674541 0
M  V30 1536 H 146.896 0.518668 1.98744 0
M  V30 1537 H 145.126 -1.48706 3.56964 0
M  V30 1538 H 146.815 -1.20231 3.87685 0
M  V30 1539 H 147.581 1.13532 4.71525 0
M  V30 1540 H 143.46 -0.0862959 4.60919 0
M  V30 1541 H 147.004 2.89718 6.34594 0
M  V30 1542 H 142.901 1.66744 6.23592 0
M  V30 1543 H 143.669 3.33213 7.47604 0
M  V30 1544 N 146.332 -1.57332 0.0918853 0
M  V30 1545 C 147.557 -1.98995 -0.584442 0
M  V30 1546 C 147.982 -0.970528 -1.61128 0
M  V30 1547 O 147.34 0.0613904 -1.81196 0
M  V30 1548 C 147.388 -3.39636 -1.21161 0
M  V30 1549 O 146.492 -3.40447 -2.32744 0
M  V30 1550 H 145.833 -0.647165 -0.148572 0
M  V30 1551 H 148.363 -2.03873 0.172347 0
M  V30 1552 H 148.373 -3.7726 -1.55367 0
M  V30 1553 H 147.048 -4.13356 -0.459313 0
M  V30 1554 H 145.625 -3.14614 -2.0018 0
M  V30 1555 N 147.81 0.181792 -1.56548 0
M  V30 1556 C 149.058 0.89832 -1.81038 0
M  V30 1557 C 149.379 1.83232 -0.667164 0
M  V30 1558 O 148.649 1.93372 0.313673 0
M  V30 1559 H 147.229 0.33471 -0.667816 0
M  V30 1560 H 149.891 0.184116 -1.94028 0
M  V30 1561 H 148.987 1.4815 -2.74696 0
M  V30 1562 N 149.288 1.51039 0.449983 0
M  V30 1563 C 150.537 1.62317 1.19733 0
M  V30 1564 C 150.85 0.339101 1.92638 0
M  V30 1565 O 152.056 0.331069 2.69474 0
M  V30 1566 C 150.512 2.86608 2.17678 0
M  V30 1567 C 150.12 4.21972 1.50479 0
M  V30 1568 C 151.864 3.07239 2.92924 0
M  V30 1569 C 149.771 5.37426 2.46834 0
M  V30 1570 H 148.701 0.604532 0.450619 0
M  V30 1571 H 151.352 1.77494 0.465625 0
M  V30 1572 H 149.734 2.65037 2.94231 0
M  V30 1573 H 150.908 4.53878 0.795716 0
M  V30 1574 H 149.223 4.07117 0.874344 0
M  V30 1575 H 151.82 3.90668 3.65079 0
M  V30 1576 H 152.163 2.19807 3.5354 0
M  V30 1577 H 152.696 3.29091 2.23481 0
M  V30 1578 H 149.435 6.27079 1.90926 0
M  V30 1579 H 148.955 5.09912 3.15832 0
M  V30 1580 H 150.634 5.68862 3.08228 0
M  V30 1581 N 150.766 -0.704594 1.40972 0
M  V30 1582 C 152.177 -1.28418 1.3552 0
M  V30 1583 C 152.528 -1.96171 0.0339434 0
M  V30 1584 O 151.653 -1.98231 -0.867944 0
M  V30 1585 C 152.248 -2.33528 2.45459 0
M  V30 1586 C 150.807 -2.87085 2.43433 0
M  V30 1587 C 149.954 -1.61007 2.2577 0
M  V30 1588 H 152.905 -0.499963 1.50619 0
M  V30 1589 H 152.926 -3.14619 2.13998 0
M  V30 1590 H 152.438 -1.84187 3.41609 0
M  V30 1591 H 150.539 -3.40626 1.51013 0
M  V30 1592 H 150.652 -3.3813 3.39419 0
M  V30 1593 H 149.016 -1.86482 1.73483 0
M  V30 1594 H 149.799 -1.13675 3.23933 0
M  V30 1595 N 152.244 -1.26651 -0.937939 0
M  V30 1596 C 153.174 -1.10993 -2.05433 0
M  V30 1597 C 154.155 -0.0142161 -1.70094 0
M  V30 1598 O 155.34 -0.186837 -1.93299 0
M  V30 1599 C 152.47 -0.745561 -3.39203 0
M  V30 1600 C 151.424 -1.79337 -3.88616 0
M  V30 1601 C 150.75 -1.28324 -5.19073 0
M  V30 1602 C 152.05 -3.19553 -4.13138 0
M  V30 1603 H 153.744 -2.0438 -2.1879 0
M  V30 1604 H 151.29 -0.984041 -1.05131 0
M  V30 1605 H 153.243 -0.622888 -4.16771 0
M  V30 1606 H 151.967 0.22401 -3.25831 0
M  V30 1607 H 150.626 -1.90477 -3.13231 0
M  V30 1608 H 150.274 -0.303414 -5.02084 0
M  V30 1609 H 149.974 -1.98369 -5.53103 0
M  V30 1610 H 151.498 -1.1733 -5.99221 0
M  V30 1611 H 152.912 -3.11471 -4.81309 0
M  V30 1612 H 151.309 -3.87218 -4.58457 0
M  V30 1613 H 152.379 -3.65368 -3.18801 0
M  V30 1614 N 153.722 1.14298 -1.08507 0
M  V30 1615 C 154.67 2.21483 -0.710483 0
M  V30 1616 C 155.664 1.66998 0.284234 0
M  V30 1617 O 156.87 1.79401 0.146692 0
M  V30 1618 H 153.245 0.721578 -0.211729 0
M  V30 1619 H 155.216 2.50348 -1.62384 0
M  V30 1620 C 153.965 3.4743 -0.137007 0
M  V30 1621 H 153.288 3.89686 -0.893592 0
M  V30 1622 H 154.728 4.2391 0.0872789 0
M  V30 1623 C 153.187 3.17548 1.12538 0
M  V30 1624 O 153.717 3.35437 2.21009 0
M  V30 1625 N 151.923 2.71499 1.03617 0
M  V30 1626 H 151.47 2.57143 0.153403 0
M  V30 1627 H 151.428 2.51881 1.88158 0
M  V30 1628 N 155.201 0.870884 1.31352 0
M  V30 1629 C 156.131 0.343096 2.30966 0
M  V30 1630 C 157.112 -0.566507 1.60389 0
M  V30 1631 O 158.297 -0.483336 1.88089 0
M  V30 1632 C 155.427 -0.455487 3.443 0
M  V30 1633 C 154.381 0.361103 4.26474 0
M  V30 1634 C 153.707 -0.563221 5.31725 0
M  V30 1635 C 155.007 1.59566 4.97329 0
M  V30 1636 H 156.701 1.17548 2.75359 0
M  V30 1637 H 154.247 0.566686 1.32381 0
M  V30 1638 H 156.2 -0.83525 4.13039 0
M  V30 1639 H 154.924 -1.32139 2.98675 0
M  V30 1640 H 153.583 0.722825 3.59403 0
M  V30 1641 H 153.231 -1.42643 4.82351 0
M  V30 1642 H 152.931 -0.0207409 5.87596 0
M  V30 1643 H 154.455 -0.939808 6.03324 0
M  V30 1644 H 155.869 1.28728 5.58661 0
M  V30 1645 H 154.266 2.07728 5.63 0
M  V30 1646 H 155.336 2.34798 4.24262 0
M  V30 1647 N 156.679 -1.44442 0.630414 0
M  V30 1648 C 157.907 -2.06414 0.141671 0
M  V30 1649 C 158.322 -1.47105 -1.18345 0
M  V30 1650 O 157.679 -0.593662 -1.72574 0
M  V30 1651 C 157.73 -3.61494 0.0199784 0
M  V30 1652 O 157.451 -4.18594 1.29269 0
M  V30 1653 C 158.952 -4.40499 -0.497544 0
M  V30 1654 H 156.172 -0.666292 0.0793452 0
M  V30 1655 H 158.716 -1.85323 0.864614 0
M  V30 1656 H 156.871 -3.8185 -0.653402 0
M  V30 1657 H 157.285 -5.12026 1.13707 0
M  V30 1658 H 158.759 -5.49433 -0.531708 0
M  V30 1659 H 159.236 -4.11895 -1.52445 0
M  V30 1660 H 159.842 -4.25061 0.142562 0
M  V30 1661 N 158.157 -0.370918 -1.53173 0
M  V30 1662 C 159.087 0.464847 -2.28826 0
M  V30 1663 C 160.068 1.07936 -1.31468 0
M  V30 1664 O 161.253 1.0956 -1.60344 0
M  V30 1665 C 158.383 1.60196 -3.08147 0
M  V30 1666 C 157.337 1.11443 -4.13237 0
M  V30 1667 C 156.663 2.3422 -4.80672 0
M  V30 1668 C 157.963 0.195384 -5.21934 0
M  V30 1669 H 159.657 -0.166329 -2.98938 0
M  V30 1670 H 157.203 -0.0814359 -1.4377 0
M  V30 1671 H 159.156 2.19332 -3.59822 0
M  V30 1672 H 157.88 2.26045 -2.35735 0
M  V30 1673 H 156.539 0.545727 -3.62515 0
M  V30 1674 H 156.187 2.98537 -4.04827 0
M  V30 1675 H 155.887 2.02269 -5.51689 0
M  V30 1676 H 157.411 2.94032 -5.35143 0
M  V30 1677 H 158.825 0.694375 -5.69079 0
M  V30 1678 H 157.222 -0.0335027 -6.00091 0
M  V30 1679 H 158.292 -0.760961 -4.78892 0
M  V30 1680 N 159.635 1.57281 -0.100228 0
M  V30 1681 C 160.912 1.86014 0.604812 0
M  V30 1682 C 161.292 0.998025 1.86018 0
M  V30 1683 O 160.64 0.0718184 2.28387 0
M  V30 1684 C 160.85 3.36784 0.915278 0
M  V30 1685 C 162.198 4.04957 1.27651 0
M  V30 1686 O 163.222 3.41695 1.00613 0
M  V30 1687 O 162.081 5.16593 1.7831 0
M  V30 1688 H 159.175 0.76942 0.303185 0
M  V30 1689 H 161.721 1.69176 -0.133313 0
M  V30 1690 H 160.493 3.91292 0.0248896 0
M  V30 1691 H 160.116 3.58987 1.70921 0
M  V30 1692 N 161.113 -0.173488 1.56642 0
M  V30 1693 C 162.061 -1.23417 1.97157 0
M  V30 1694 C 163.055 -1.45946 0.860013 0
M  V30 1695 O 164.261 -1.46551 1.04512 0
M  V30 1696 H 160.636 -0.414818 0.62724 0
M  V30 1697 H 162.607 -0.865582 2.8557 0
M  V30 1698 C 161.356 -2.5665 2.34576 0
M  V30 1699 H 160.679 -2.40137 3.19647 0
M  V30 1700 H 162.119 -3.2956 2.6677 0
M  V30 1701 C 160.578 -3.15245 1.18836 0
M  V30 1702 O 161.108 -3.98883 0.474869 0
M  V30 1703 N 159.314 -2.74303 0.959497 0
M  V30 1704 H 158.861 -2.0639 1.54146 0
M  V30 1705 H 158.819 -3.13844 0.186932 0
M  V30 1706 N 162.591 -1.51276 -0.441967 0
M  V30 1707 C 164.007 -1.39349 -0.778083 0
M  V30 1708 C 164.207 -0.472212 -1.95889 0
M  V30 1709 O 163.263 0.0743551 -2.5239 0
M  V30 1710 C 164.576 -2.81292 -1.0628 0
M  V30 1711 C 166.124 -2.9041 -1.16751 0
M  V30 1712 C 166.599 -4.33251 -1.48519 0
M  V30 1713 N 168.09 -4.36336 -1.55453 0
M  V30 1714 C 168.825 -5.43885 -1.81596 0
M  V30 1715 N 168.321 -6.61601 -2.05562 0
M  V30 1716 N 170.114 -5.3136 -1.8334 0
M  V30 1717 H 162.265 -2.09729 0.335774 0
M  V30 1718 H 164.528 -0.943925 0.0878028 0
M  V30 1719 H 164.234 -3.50678 -0.267905 0
M  V30 1720 H 164.108 -3.20334 -1.99163 0
M  V30 1721 H 166.495 -2.21225 -1.95304 0
M  V30 1722 H 166.576 -2.54871 -0.217801 0
M  V30 1723 H 166.22 -5.02984 -0.704958 0
M  V30 1724 H 166.15 -4.66299 -2.44689 0
M  V30 1725 H 168.641 -3.51466 -1.38853 0
M  V30 1726 H 168.954 -7.39361 -2.24867 0
M  V30 1727 H 167.299 -6.64725 -2.02894 0
M  V30 1728 H 170.49 -4.38382 -1.64132 0
M  V30 1729 H 170.663 -6.15258 -2.03377 0
M  V30 1730 N 164.069 0.697108 -1.41344 0
M  V30 1731 C 165.315 1.4593 -1.40827 0
M  V30 1732 C 165.648 1.94193 -0.0167098 0
M  V30 1733 O 164.923 1.69425 0.955263 0
M  V30 1734 C 165.206 2.67229 -2.41373 0
M  V30 1735 C 165.059 2.24741 -3.8963 0
M  V30 1736 C 166.378 3.69423 -2.39196 0
M  V30 1737 H 163.497 0.529303 -0.512842 0
M  V30 1738 H 166.139 0.794112 -1.72609 0
M  V30 1739 H 164.289 3.23982 -2.14401 0
M  V30 1740 H 165.961 1.73327 -4.27499 0
M  V30 1741 H 164.204 1.56542 -4.0457 0
M  V30 1742 H 164.875 3.1177 -4.55525 0
M  V30 1743 H 167.351 3.2234 -2.63128 0
M  V30 1744 H 166.227 4.51907 -3.11563 0
M  V30 1745 H 166.488 4.19012 -1.41001 0
M  V30 1746 N 165.547 1.27147 0.931209 0
M  V30 1747 C 166.51 1.09615 2.01289 0
M  V30 1748 C 167.51 0.0412581 1.60747 0
M  V30 1749 O 168.7 0.285545 1.71844 0
M  V30 1750 C 165.832 0.669447 3.34262 0
M  V30 1751 H 167.025 2.05662 2.18273 0
M  V30 1752 H 164.578 1.09885 1.11153 0
M  V30 1753 H 165.313 -0.292572 3.22978 0
M  V30 1754 H 165.098 1.43127 3.65044 0
M  V30 1755 H 166.588 0.568921 4.13706 0
M  V30 1756 N 167.025 -1.13721 1.09112 0
M  V30 1757 C 168.302 -1.81155 0.737706 0
M  V30 1758 C 168.682 -1.96253 -0.777683 0
M  V30 1759 O 168.03 -1.52807 -1.69889 0
M  V30 1760 C 168.24 -3.16392 1.47299 0
M  V30 1761 C 169.588 -3.91787 1.63671 0
M  V30 1762 O 170.612 -3.26005 1.43524 0
M  V30 1763 O 169.471 -5.0977 1.96969 0
M  V30 1764 H 166.565 -0.783518 0.26463 0
M  V30 1765 H 169.111 -1.20676 1.19312 0
M  V30 1766 H 167.883 -3.0061 2.50498 0
M  V30 1767 H 167.506 -3.8457 1.00953 0
M  V30 1768 N 168.503 -0.877838 -1.30888 0
M  V30 1769 C 169.435 -0.296607 -2.27273 0
M  V30 1770 C 170.448 0.544799 -1.53414 0
M  V30 1771 O 171.637 0.365511 -1.74718 0
M  V30 1772 C 168.737 0.597481 -3.33592 0
M  V30 1773 C 167.91 -0.213251 -4.3688 0
M  V30 1774 C 166.969 0.610208 -5.2265 0
M  V30 1775 O 165.995 0.035441 -5.69189 0
M  V30 1776 N 167.197 1.92071 -5.47804 0
M  V30 1777 H 169.962 -1.12492 -2.77787 0
M  V30 1778 H 167.523 -0.740105 -1.43993 0
M  V30 1779 H 169.515 1.15425 -3.87891 0
M  V30 1780 H 168.085 1.32647 -2.83061 0
M  V30 1781 H 167.305 -0.951466 -3.82545 0
M  V30 1782 H 168.593 -0.769262 -5.02951 0
M  V30 1783 H 167.991 2.4107 -5.11763 0
M  V30 1784 H 166.548 2.42508 -6.05007 0
M  V30 1785 N 169.982 1.44106 -0.638065 0
M  V30 1786 C 170.912 2.33448 0.0494287 0
M  V30 1787 C 171.893 1.48606 0.827672 0
M  V30 1788 O 173.078 1.77308 0.792173 0
M  V30 1789 C 170.208 3.31771 1.02691 0
M  V30 1790 C 169.162 4.26485 0.359823 0
M  V30 1791 C 168.488 5.14729 1.44769 0
M  V30 1792 C 169.788 5.17056 -0.738296 0
M  V30 1793 H 171.482 2.91183 -0.696636 0
M  V30 1794 H 169.028 1.40014 -0.336456 0
M  V30 1795 H 170.981 3.93161 1.51666 0
M  V30 1796 H 169.705 2.7226 1.80395 0
M  V30 1797 H 168.364 3.66437 -0.10934 0
M  V30 1798 H 168.012 4.51566 2.21578 0
M  V30 1799 H 167.712 5.78913 1.00668 0
M  V30 1800 H 169.236 5.78991 1.93911 0
M  V30 1801 H 170.65 5.72342 -0.331354 0
M  V30 1802 H 169.047 5.89879 -1.10286 0
M  V30 1803 H 170.117 4.57652 -1.60258 0
M  V30 1804 N 171.46 0.379036 1.52974 0
M  V30 1805 C 172.706 -0.199244 2.02422 0
M  V30 1806 C 173.061 -1.4532 1.26095 0
M  V30 1807 O 172.354 -1.88377 0.34996 0
M  V30 1808 C 172.548 -0.53096 3.53434 0
M  V30 1809 C 172.377 0.689298 4.44386 0
M  V30 1810 C 171.147 1.20546 4.9071 0
M  V30 1811 C 173.345 1.55856 4.90116 0
M  V30 1812 N 171.327 2.38434 5.65705 0
M  V30 1813 C 172.698 2.58396 5.63588 0
M  V30 1814 C 174.753 1.57986 4.7217 0
M  V30 1815 C 173.456 3.62939 6.21022 0
M  V30 1816 C 175.482 2.6143 5.30479 0
M  V30 1817 C 174.844 3.62693 6.03849 0
M  V30 1818 H 170.943 -0.0352671 0.781204 0
M  V30 1819 H 173.527 0.526614 1.87443 0
M  V30 1820 H 171.698 -1.22588 3.68547 0
M  V30 1821 H 173.43 -1.0955 3.89591 0
M  V30 1822 H 170.185 0.768022 4.67331 0
M  V30 1823 H 170.609 2.98055 6.07859 0
M  V30 1824 H 175.251 0.810475 4.14959 0
M  V30 1825 H 172.969 4.40751 6.77321 0
M  V30 1826 H 176.555 2.63949 5.18481 0
M  V30 1827 H 175.435 4.41424 6.48163 0
M  V30 1828 N 172.938 -1.57226 0.108567 0
M  V30 1829 C 174.184 -1.95121 -0.552761 0
M  V30 1830 C 174.517 -0.991345 -1.66991 0
M  V30 1831 O 173.792 -0.0267211 -1.94482 0
M  V30 1832 C 174.075 -3.43039 -1.09528 0
M  V30 1833 C 173.928 -4.49797 0.0177332 0
M  V30 1834 C 175.247 -3.92567 -1.98945 0
M  V30 1835 H 172.366 -0.709496 -0.199461 0
M  V30 1836 H 175.008 -1.89126 0.182011 0
M  V30 1837 H 173.158 -3.48279 -1.72146 0
M  V30 1838 H 174.83 -4.56661 0.652584 0
M  V30 1839 H 173.073 -4.284 0.682309 0
M  V30 1840 H 173.744 -5.50528 -0.402919 0
M  V30 1841 H 176.22 -3.89565 -1.46214 0
M  V30 1842 H 175.096 -4.96605 -2.33827 0
M  V30 1843 H 175.357 -3.32648 -2.91201 0
M  V30 1844 N 174.416 0.165178 -1.56732 0
M  V30 1845 C 175.827 0.727046 -1.71962 0
M  V30 1846 C 176.178 1.82508 -0.720078 0
M  V30 1847 O 175.303 2.16082 0.117242 0
M  V30 1848 C 175.898 1.32559 -3.11791 0
M  V30 1849 C 174.457 1.83422 -3.28684 0
M  V30 1850 C 173.604 0.715567 -2.67908 0
M  V30 1851 H 176.555 -0.0602896 -1.58585 0
M  V30 1852 H 176.576 2.19533 -3.10782 0
M  V30 1853 H 176.088 0.526195 -3.84516 0
M  V30 1854 H 174.189 2.65986 -2.60926 0
M  V30 1855 H 174.302 1.97543 -4.36478 0
M  V30 1856 H 172.666 1.13758 -2.27884 0
M  V30 1857 H 173.449 -0.0720836 -3.43224 0
M  V30 1858 N 175.894 1.51508 0.433938 0
M  V30 1859 C 177.171 1.54888 1.19453 0
M  V30 1860 C 177.551 0.315154 2.08734 0
M  V30 1861 O 176.899 -0.699558 2.17528 0
M  V30 1862 C 177.109 2.86467 1.99342 0
M  V30 1863 C 178.457 3.38545 2.56267 0
M  V30 1864 O 179.481 2.88041 2.0955 0
M  V30 1865 O 178.34 4.26675 3.41483 0
M  V30 1866 H 175.434 0.622863 0.544032 0
M  V30 1867 H 177.98 1.63823 0.442732 0
M  V30 1868 H 176.752 3.67718 1.33788 0
M  V30 1869 H 176.375 2.8071 2.8158 0
M  V30 1870 N 177.372 -0.689602 1.41712 0
M  V30 1871 C 178.6 -1.47827 1.44758 0
M  V30 1872 C 179.015 -1.88721 0.0545703 0
M  V30 1873 O 178.372 -1.57176 -0.927463 0
M  V30 1874 C 178.423 -2.73698 2.3616 0
M  V30 1875 O 178.144 -2.34524 3.7004 0
M  V30 1876 C 179.645 -3.67389 2.48072 0
M  V30 1877 H 176.865 -0.455357 0.49284 0
M  V30 1878 H 179.409 -0.848574 1.86063 0
M  V30 1879 H 177.564 -3.32891 1.98148 0
M  V30 1880 H 177.978 -3.15701 4.18847 0
M  V30 1881 H 179.452 -4.52475 3.16181 0
M  V30 1882 H 179.929 -4.12284 1.51388 0
M  V30 1883 H 180.535 -3.14097 2.86746 0
M  V30 1884 N 178.85 -1.27639 -0.924453 0
M  V30 1885 C 180.08 -1.16819 -1.70402 0
M  V30 1886 C 180.488 0.277191 -1.87158 0
M  V30 1887 O 179.831 1.20025 -1.39067 0
M  V30 1888 C 179.893 -1.78305 -3.12166 0
M  V30 1889 C 179.557 -3.27502 -3.18734 0
M  V30 1890 C 180.554 -4.2409 -3.00738 0
M  V30 1891 C 178.239 -3.68269 -3.4159 0
M  V30 1892 C 180.233 -5.59422 -3.05492 0
M  V30 1893 C 177.92 -5.0373 -3.45977 0
M  V30 1894 C 178.918 -5.99116 -3.27946 0
M  V30 1895 O 178.606 -7.32108 -3.32074 0
M  V30 1896 H 178.338 -0.406931 -0.539799 0
M  V30 1897 H 180.892 -1.69078 -1.16626 0
M  V30 1898 H 179.122 -1.20528 -3.67437 0
M  V30 1899 H 180.811 -1.62154 -3.72103 0
M  V30 1900 H 181.577 -3.93931 -2.82919 0
M  V30 1901 H 177.456 -2.94496 -3.54673 0
M  V30 1902 H 181 -6.33852 -2.91337 0
M  V30 1903 H 176.897 -5.33543 -3.63321 0
M  V30 1904 H 177.665 -7.40598 -3.48507 0
M  V30 1905 N 180.328 1.1314 -1.09713 0
M  V30 1906 C 181.575 1.84484 -0.834987 0
M  V30 1907 C 181.903 1.83689 0.639418 0
M  V30 1908 O 181.158 1.2724 1.4869 0
M  V30 1909 C 181.457 3.32167 -1.3191 0
M  V30 1910 C 181.123 3.53139 -2.80363 0
M  V30 1911 C 179.785 3.58571 -3.20905 0
M  V30 1912 C 182.137 3.60866 -3.76065 0
M  V30 1913 C 179.465 3.69267 -4.55916 0
M  V30 1914 C 181.817 3.73089 -5.10869 0
M  V30 1915 C 180.481 3.76775 -5.50996 0
M  V30 1916 H 179.751 0.675073 -0.305544 0
M  V30 1917 H 182.398 1.33554 -1.37243 0
M  V30 1918 H 180.703 3.85469 -0.701517 0
M  V30 1919 H 182.4 3.85821 -1.09284 0
M  V30 1920 H 178.99 3.49569 -2.47991 0
M  V30 1921 H 183.174 3.55946 -3.45855 0
M  V30 1922 H 178.43 3.70388 -4.86438 0
M  V30 1923 H 182.604 3.78011 -5.84877 0
M  V30 1924 H 180.231 3.84815 -6.55608 0
M  V30 1925 N 181.806 0.884767 1.30421 0
M  V30 1926 C 182.736 0.367574 2.30589 0
M  V30 1927 C 183.717 -0.549464 1.60981 0
M  V30 1928 O 184.902 -0.46336 1.88591 0
M  V30 1929 C 182.032 -0.418944 3.44764 0
M  V30 1930 C 180.986 0.406316 4.26067 0
M  V30 1931 C 180.312 -0.506793 5.32293 0
M  V30 1932 C 181.612 1.64832 4.95608 0
M  V30 1933 H 183.306 1.20462 2.74097 0
M  V30 1934 H 180.852 0.580695 1.31772 0
M  V30 1935 H 182.805 -0.791395 4.13902 0
M  V30 1936 H 181.529 -1.28964 3.0006 0
M  V30 1937 H 180.188 0.760903 3.58617 0
M  V30 1938 H 179.836 -1.37519 4.83836 0
M  V30 1939 H 179.536 0.0415828 5.87585 0
M  V30 1940 H 181.06 -0.875764 6.04287 0
M  V30 1941 H 182.474 1.34646 5.57264 0
M  V30 1942 H 180.871 2.13688 5.60765 0
M  V30 1943 H 181.941 2.39284 4.21748 0
M  V30 1944 N 183.284 -1.43765 0.645699 0
M  V30 1945 C 184.232 -2.32516 -0.0624849 0
M  V30 1946 C 185.226 -1.48183 -0.820855 0
M  V30 1947 O 186.432 -1.64439 -0.732106 0
M  V30 1948 H 182.807 -0.750989 -0.0389864 0
M  V30 1949 H 184.778 -2.89979 0.703892 0
M  V30 1950 C 183.527 -3.32389 -1.02044 0
M  V30 1951 H 182.85 -3.97301 -0.446312 0
M  V30 1952 H 184.29 -3.97138 -1.48517 0
M  V30 1953 C 182.749 -2.62416 -2.11281 0
M  V30 1954 O 183.279 -2.434 -3.19561 0
M  V30 1955 N 181.485 -2.21913 -1.87624 0
M  V30 1956 H 181.032 -2.37578 -0.995703 0
M  V30 1957 H 180.99 -1.75424 -2.6091 0
M  V30 1958 N 184.763 -0.387143 -1.52771 0
M  V30 1959 C 186.04 0.253197 -1.93954 0
M  V30 1960 C 186.42 1.64545 -1.32243 0
M  V30 1961 O 185.768 2.23191 -0.489699 0
M  V30 1962 C 185.978 0.281722 -3.47861 0
M  V30 1963 C 187.326 0.511715 -4.21505 0
M  V30 1964 O 188.35 0.362023 -3.54356 0
M  V30 1965 O 187.209 0.804847 -5.40541 0
M  V30 1966 H 184.303 0.156845 -0.811991 0
M  V30 1967 H 186.849 -0.441494 -1.63856 0
M  V30 1968 H 185.621 -0.693571 -3.85104 0
M  V30 1969 H 185.244 1.02142 -3.84256 0
M  V30 1970 N 186.241 1.57166 -0.116904 0
M  V30 1971 C 187.188 2.15202 0.83408 0
M  V30 1972 C 188.158 1.07644 1.26499 0
M  V30 1973 O 189.343 1.35541 1.34288 0
M  V30 1974 C 186.483 2.75405 2.07957 0
M  V30 1975 C 185.596 3.97264 1.69721 0
M  V30 1976 C 184.731 4.45561 2.89221 0
M  V30 1977 C 183.77 5.59956 2.47215 0
M  V30 1978 N 182.907 6.03006 3.59622 0
M  V30 1979 H 187.747 2.96141 0.332335 0
M  V30 1980 H 185.284 1.46309 0.152349 0
M  V30 1981 H 187.242 3.08439 2.80929 0
M  V30 1982 H 185.872 1.97159 2.55594 0
M  V30 1983 H 184.924 3.70404 0.866316 0
M  V30 1984 H 186.236 4.80226 1.34849 0
M  V30 1985 H 185.39 4.80493 3.7042 0
M  V30 1986 H 184.129 3.61544 3.27318 0
M  V30 1987 H 183.134 5.2463 1.64448 0
M  V30 1988 H 184.359 6.45738 2.10238 0
M  V30 1989 H 182.305 5.21931 3.97396 0
M  V30 1990 H 182.222 6.80819 3.28667 0
M  V30 1991 H 183.49 6.42576 4.41267 0
M  V30 1992 N 187.719 -0.156864 1.56817 0
M  V30 1993 C 188.666 -1.19394 1.97519 0
M  V30 1994 C 189.636 -1.4322 0.841265 0
M  V30 1995 O 190.821 -1.55719 1.10255 0
M  V30 1996 C 187.961 -2.52483 2.35258 0
M  V30 1997 C 187.074 -2.35914 3.61896 0
M  V30 1998 C 186.209 -3.61969 3.88782 0
M  V30 1999 C 185.248 -3.40395 5.08722 0
M  V30 2000 N 184.385 -4.58556 5.31668 0
M  V30 2001 H 189.225 -0.839845 2.85921 0
M  V30 2002 H 186.762 -0.403264 1.41464 0
M  V30 2003 H 188.72 -3.30071 2.55165 0
M  V30 2004 H 187.35 -2.85859 1.49949 0
M  V30 2005 H 186.402 -1.49429 3.49821 0
M  V30 2006 H 187.714 -2.15926 4.49641 0
M  V30 2007 H 186.868 -4.47989 4.09135 0
M  V30 2008 H 185.607 -3.84951 2.9944 0
M  V30 2009 H 184.612 -2.52763 4.88253 0
M  V30 2010 H 185.837 -3.18822 5.99608 0
M  V30 2011 H 183.783 -4.81729 4.45279 0
M  V30 2012 H 183.7 -4.41535 6.13664 0
M  V30 2013 H 184.968 -5.45817 5.5651 0
M  V30 2014 N 189.197 -1.51736 -0.425897 0
M  V30 2015 C 190.422 -1.69082 -1.20108 0
M  V30 2016 C 190.847 -0.392398 -1.83962 0
M  V30 2017 O 190.205 0.64858 -1.69302 0
M  V30 2018 C 190.253 -2.81604 -2.25237 0
M  V30 2019 O 189.357 -2.46004 -3.30992 0
M  V30 2020 H 188.698 -0.563408 -0.35138 0
M  V30 2021 H 191.228 -1.98358 -0.501512 0
M  V30 2022 H 191.238 -3.06025 -2.69838 0
M  V30 2023 H 189.913 -3.75817 -1.78142 0
M  V30 2024 H 188.49 -2.32195 -2.91787 0
M  V30 2025 N 190.675 0.682077 -1.42076 0
M  V30 2026 C 191.922 1.44215 -1.42156 0
M  V30 2027 C 192.25 1.94468 -0.0354186 0
M  V30 2028 O 191.505 1.70816 0.955002 0
M  V30 2029 C 191.804 2.66036 -2.38662 0
M  V30 2030 C 191.47 2.34366 -3.85206 0
M  V30 2031 C 190.132 2.25439 -4.25124 0
M  V30 2032 C 192.484 2.08513 -4.77673 0
M  V30 2033 C 189.812 1.88775 -5.55501 0
M  V30 2034 C 192.164 1.73354 -6.08384 0
M  V30 2035 C 190.828 1.62933 -6.47309 0
M  V30 2036 H 190.098 0.527718 -0.520187 0
M  V30 2037 H 192.745 0.778387 -1.74967 0
M  V30 2038 H 191.05 3.3741 -1.99152 0
M  V30 2039 H 192.747 3.24205 -2.35991 0
M  V30 2040 H 189.337 2.42213 -3.53597 0
M  V30 2041 H 193.521 2.14346 -4.47626 0
M  V30 2042 H 188.777 1.7927 -5.84527 0
M  V30 2043 H 192.951 1.52373 -6.79526 0
M  V30 2044 H 190.578 1.34292 -7.48244 0
M  V30 2045 N 192.153 1.28127 0.917671 0
M  V30 2046 C 193.399 1.15223 1.66888 0
M  V30 2047 C 193.732 -0.299293 1.9188 0
M  V30 2048 O 193.007 -1.21805 1.51637 0
M  V30 2049 C 193.29 1.94706 3.02922 0
M  V30 2050 C 193.143 3.47898 2.85109 0
M  V30 2051 C 194.462 1.75939 4.03402 0
M  V30 2052 H 191.581 0.419946 0.605652 0
M  V30 2053 H 194.223 1.57398 1.06423 0
M  V30 2054 H 192.373 1.58864 3.54534 0
M  V30 2055 H 194.045 3.93624 2.40537 0
M  V30 2056 H 192.288 3.7373 2.20246 0
M  V30 2057 H 192.959 3.98765 3.81694 0
M  V30 2058 H 195.435 2.07209 3.60837 0
M  V30 2059 H 194.311 2.33931 4.96556 0
M  V30 2060 H 194.572 0.709877 4.36364 0
M  V30 2061 N 193.631 -1.12557 1.10312 0
M  V30 2062 C 194.581 -2.16331 0.720076 0
M  V30 2063 C 195.565 -1.58616 -0.270115 0
M  V30 2064 O 196.757 -1.76823 -0.0790507 0
M  V30 2065 C 193.886 -3.42963 0.152113 0
M  V30 2066 C 192.972 -4.07663 1.16927 0
M  V30 2067 N 193.363 -4.47392 2.35953 0
M  V30 2068 C 191.661 -4.34425 1.0095 0
M  V30 2069 C 192.362 -4.97932 3.0073 0
M  V30 2070 N 191.338 -4.93358 2.28252 0
M  V30 2071 H 195.14 -2.44813 1.62616 0
M  V30 2072 H 192.654 -1.29449 0.980654 0
M  V30 2073 H 194.651 -4.16664 -0.14037 0
M  V30 2074 H 193.311 -3.1595 -0.748701 0
M  V30 2075 H 194.322 -4.39802 2.73486 0
M  V30 2076 H 190.999 -4.17177 0.164134 0
M  V30 2077 H 192.389 -5.38397 4.01969 0
M  V30 2078 N 195.109 -0.891671 -1.2995 0
M  V30 2079 C 196.357 -0.512486 -1.95494 0
M  V30 2080 C 196.678 0.942776 -1.70695 0
M  V30 2081 O 195.948 1.66374 -1.03424 0
M  V30 2082 H 194.528 -0.186533 -0.723336 0
M  V30 2083 H 197.19 -1.13621 -1.58355 0
M  V30 2084 H 196.286 -0.688342 -3.04415 0
M  V30 2085 N 196.587 1.43421 -0.653314 0
M  V30 2086 C 197.833 2.02111 -0.166992 0
M  V30 2087 C 198.166 1.51423 1.21592 0
M  V30 2088 O 197.441 0.707389 1.8118 0
M  V30 2089 C 197.724 3.5966 -0.177948 0
M  V30 2090 C 197.577 4.20579 -1.59478 0
M  V30 2091 C 198.896 4.37413 0.4856 0
M  V30 2092 H 196.015 0.734374 -0.0621557 0
M  V30 2093 H 198.657 1.70717 -0.834016 0
M  V30 2094 H 196.807 3.86537 0.390032 0
M  V30 2095 H 198.479 4.04732 -2.21336 0
M  V30 2096 H 196.722 3.77226 -2.14204 0
M  V30 2097 H 197.393 5.29665 -1.5543 0
M  V30 2098 H 199.869 4.161 0.00234528 0
M  V30 2099 H 198.745 5.47075 0.447207 0
M  V30 2100 H 199.006 4.13672 1.55974 0
M  V30 2101 N 198.065 0.39524 1.52563 0
M  V30 2102 C 199.293 -0.184943 2.06072 0
M  V30 2103 C 199.708 -1.40021 1.26647 0
M  V30 2104 O 199.065 -1.79767 0.314672 0
M  V30 2105 C 199.116 -0.549179 3.57304 0
M  V30 2106 O 198.837 0.617813 4.33722 0
M  V30 2107 C 200.338 -1.18459 4.2718 0
M  V30 2108 H 197.558 -0.0265025 0.670476 0
M  V30 2109 H 200.102 0.562184 1.96621 0
M  V30 2110 H 198.257 -1.2462 3.66809 0
M  V30 2111 H 198.671 0.317091 5.23541 0
M  V30 2112 H 200.145 -1.38976 5.34219 0
M  V30 2113 H 200.622 -2.15368 3.82771 0
M  V30 2114 H 201.228 -0.528163 4.22008 0
M  V30 2115 N 199.544 -1.57102 0.125237 0
M  V30 2116 C 200.79 -1.95697 -0.532035 0
M  V30 2117 C 201.123 -1.009 -1.6593 0
M  V30 2118 O 200.398 -0.047347 -1.94442 0
M  V30 2119 C 200.681 -3.44181 -1.05884 0
M  V30 2120 C 200.534 -4.49752 0.0654392 0
M  V30 2121 C 201.853 -3.94655 -1.9477 0
M  V30 2122 H 198.972 -0.711571 -0.191925 0
M  V30 2123 H 201.614 -1.88923 0.20206 0
M  V30 2124 H 199.764 -3.50085 -1.68442 0
M  V30 2125 H 201.436 -4.55943 0.700982 0
M  V30 2126 H 199.679 -4.27653 0.727709 0
M  V30 2127 H 200.35 -5.50924 -0.344505 0
M  V30 2128 H 202.826 -3.91094 -1.42074 0
M  V30 2129 H 201.702 -4.99057 -2.28546 0
M  V30 2130 H 201.963 -3.35718 -2.87656 0
M  V30 2131 N 201.022 0.148545 -1.56898 0
M  V30 2132 C 201.969 1.18345 -1.98149 0
M  V30 2133 C 202.939 1.42772 -0.848848 0
M  V30 2134 O 204.124 1.55132 -1.11079 0
M  V30 2135 C 201.264 2.51231 -2.36594 0
M  V30 2136 C 200.377 2.33991 -3.63142 0
M  V30 2137 C 199.512 3.59902 -3.90697 0
M  V30 2138 C 198.551 3.37692 -5.1052 0
M  V30 2139 N 197.688 4.5573 -5.34092 0
M  V30 2140 H 202.528 0.82467 -2.86362 0
M  V30 2141 H 200.065 0.395756 -1.41676 0
M  V30 2142 H 202.023 3.28713 -2.56912 0
M  V30 2143 H 200.653 2.85059 -1.51463 0
M  V30 2144 H 199.705 1.47572 -3.50609 0
M  V30 2145 H 201.017 2.13539 -4.5078 0
M  V30 2146 H 200.171 4.45813 -4.11505 0
M  V30 2147 H 198.91 3.83357 -3.01477 0
M  V30 2148 H 197.915 2.5017 -4.89587 0
M  V30 2149 H 199.14 3.15637 -6.0129 0
M  V30 2150 H 197.086 4.79361 -4.47827 0
M  V30 2151 H 197.003 4.38274 -6.15996 0
M  V30 2152 H 198.271 5.42858 -5.59397 0
M  V30 2153 N 202.5 1.5196 0.417844 0
M  V30 2154 C 203.448 1.75278 1.52907 0
M  V30 2155 C 204.442 0.619611 1.57662 0
M  V30 2156 O 205.648 0.801457 1.61173 0
M  V30 2157 H 202.023 0.554141 0.508362 0
M  V30 2158 H 203.994 2.68389 1.30422 0
M  V30 2159 C 202.743 1.91262 2.90369 0
M  V30 2160 H 202.066 2.77872 2.8745 0
M  V30 2161 H 203.506 2.11581 3.67436 0
M  V30 2162 C 201.965 0.677431 3.30019 0
M  V30 2163 O 202.495 -0.158799 4.01386 0
M  V30 2164 N 200.701 0.515851 2.85985 0
M  V30 2165 H 200.248 1.19744 2.28077 0
M  V30 2166 H 200.206 -0.309315 3.12875 0
M  V30 2167 N 203.978 -0.674533 1.42435 0
M  V30 2168 C 205.394 -0.98769 1.25367 0
M  V30 2169 C 205.594 -2.00879 0.158044 0
M  V30 2170 O 204.65 -2.48075 -0.470633 0
M  V30 2171 C 205.963 -1.49224 2.6106 0
M  V30 2172 C 207.511 -1.61 2.68417 0
M  V30 2173 C 207.986 -2.14852 4.04478 0
M  V30 2174 N 209.477 -2.22185 4.06434 0
M  V30 2175 C 210.212 -2.64928 5.08528 0
M  V30 2176 N 209.708 -3.07121 6.21006 0
M  V30 2177 N 211.501 -2.64679 4.95885 0
M  V30 2178 H 203.652 0.00152503 2.124 0
M  V30 2179 H 205.915 -0.0618434 0.945981 0
M  V30 2180 H 205.621 -0.816453 3.42092 0
M  V30 2181 H 205.495 -2.47094 2.84999 0
M  V30 2182 H 207.882 -2.27686 1.87732 0
M  V30 2183 H 207.963 -0.616195 2.48267 0
M  V30 2184 H 207.607 -1.48775 4.85622 0
M  V30 2185 H 207.537 -3.15024 4.2198 0
M  V30 2186 H 210.028 -1.92435 3.25234 0
M  V30 2187 H 210.341 -3.38423 6.94759 0
M  V30 2188 H 208.686 -3.04978 6.24511 0
M  V30 2189 H 211.877 -2.31078 4.07088 0
M  V30 2190 H 212.05 -2.9767 5.75584 0
M  V30 2191 N 205.456 -1.28612 -0.910864 0
M  V30 2192 C 206.389 -1.07109 -2.01502 0
M  V30 2193 C 207.367 0.013706 -1.62594 0
M  V30 2194 O 208.551 -0.134796 -1.88017 0
M  V30 2195 C 205.678 -0.628255 -3.32822 0
M  V30 2196 C 204.724 -1.71012 -3.90714 0
M  V30 2197 S 205.557 -3.30676 -4.21205 0
M  V30 2198 C 206.713 -2.88234 -5.55583 0
M  V30 2199 H 206.946 -2.00591 -2.19432 0
M  V30 2200 H 204.479 -1.12633 -1.05609 0
M  V30 2201 H 206.437 -0.37946 -4.08742 0
M  V30 2202 H 205.098 0.28678 -3.12788 0
M  V30 2203 H 204.291 -1.35195 -4.85529 0
M  V30 2204 H 203.893 -1.91186 -3.21441 0
M  V30 2205 H 206.185 -2.34584 -6.35591 0
M  V30 2206 H 207.128 -3.81857 -5.96314 0
M  V30 2207 H 207.536 -2.26862 -5.16908 0
M  V30 2208 N 206.934 1.1197 -1.10907 0
M  V30 2209 C 208.183 1.82947 -0.849302 0
M  V30 2210 C 208.496 1.85275 0.627112 0
M  V30 2211 O 209.702 2.52296 1.00295 0
M  V30 2212 C 208.158 3.28529 -1.46959 0
M  V30 2213 C 207.766 3.34546 -2.97965 0
M  V30 2214 C 209.51 4.04443 -1.28942 0
M  V30 2215 C 207.417 4.74491 -3.53004 0
M  V30 2216 H 206.347 0.685477 -0.314065 0
M  V30 2217 H 208.998 1.2604 -1.33365 0
M  V30 2218 H 207.38 3.85333 -0.912917 0
M  V30 2219 H 208.554 2.87654 -3.59989 0
M  V30 2220 H 206.869 2.72108 -3.15192 0
M  V30 2221 H 209.466 5.07787 -1.67502 0
M  V30 2222 H 209.809 4.15656 -0.231456 0
M  V30 2223 H 210.342 3.5401 -1.81443 0
M  V30 2224 H 207.081 4.68474 -4.58489 0
M  V30 2225 H 206.601 5.21816 -2.9575 0
M  V30 2226 H 208.28 5.4344 -3.51115 0
M  V30 2227 N 208.412 0.89855 1.29475 0
M  V30 2228 C 209.828 0.594483 1.48115 0
M  V30 2229 C 210.028 -0.86431 1.82022 0
M  V30 2230 O 209.084 -1.64457 1.91599 0
M  V30 2231 C 210.397 1.51932 2.59494 0
M  V30 2232 C 211.945 1.5244 2.7337 0
M  V30 2233 C 212.42 2.43548 3.87877 0
M  V30 2234 N 213.911 2.41589 3.95208 0
M  V30 2235 C 214.646 3.08789 4.83153 0
M  V30 2236 N 214.142 3.85265 5.75798 0
M  V30 2237 N 215.935 2.97952 4.76635 0
M  V30 2238 H 208.086 1.84207 1.05742 0
M  V30 2239 H 210.349 0.789251 0.525154 0
M  V30 2240 H 210.055 2.55865 2.41301 0
M  V30 2241 H 209.929 1.23899 3.56271 0
M  V30 2242 H 212.316 0.492518 2.90961 0
M  V30 2243 H 212.397 1.8451 1.77172 0
M  V30 2244 H 212.041 3.46829 3.71041 0
M  V30 2245 H 211.971 2.08788 4.83441 0
M  V30 2246 H 214.462 1.86025 3.28943 0
M  V30 2247 H 214.775 4.33598 6.39697 0
M  V30 2248 H 213.12 3.89371 5.75687 0
M  V30 2249 H 216.311 2.37723 4.03244 0
M  V30 2250 H 216.484 3.50599 5.44962 0
M  V30 2251 N 209.89 -1.43072 0.660911 0
M  V30 2252 C 210.82 -2.33497 -0.0122829 0
M  V30 2253 C 211.801 -1.49903 -0.803925 0
M  V30 2254 O 212.986 -1.78546 -0.763864 0
M  V30 2255 C 210.116 -3.33363 -0.973994 0
M  V30 2256 C 209.07 -4.27003 -0.291928 0
M  V30 2257 C 208.396 -5.16967 -1.36562 0
M  V30 2258 C 209.696 -5.15816 0.820462 0
M  V30 2259 H 211.39 -2.90038 0.742873 0
M  V30 2260 H 208.936 -1.39461 0.358688 0
M  V30 2261 H 210.889 -3.95524 -1.45392 0
M  V30 2262 H 209.613 -2.75095 -1.7604 0
M  V30 2263 H 208.272 -3.66217 0.167623 0
M  V30 2264 H 207.92 -4.55034 -2.14366 0
M  V30 2265 H 207.62 -5.80441 -0.914454 0
M  V30 2266 H 209.144 -5.82003 -1.84675 0
M  V30 2267 H 210.558 -5.71742 0.422366 0
M  V30 2268 H 208.955 -5.8805 1.19656 0
M  V30 2269 H 210.025 -4.55045 1.67518 0
M  V30 2270 N 211.368 -0.403325 -1.52352 0
M  V30 2271 C 212.318 0.442244 -2.2367 0
M  V30 2272 C 213.302 1.01823 -1.24583 0
M  V30 2273 O 214.494 0.942005 -1.49851 0
M  V30 2274 C 211.623 1.5615 -3.05732 0
M  V30 2275 C 210.709 0.996575 -4.12225 0
M  V30 2276 N 211.1 0.157804 -5.05554 0
M  V30 2277 C 209.398 1.26767 -4.27605 0
M  V30 2278 C 210.099 -0.155853 -5.81491 0
M  V30 2279 N 209.075 0.451775 -5.41719 0
M  V30 2280 H 212.877 -0.204964 -2.93184 0
M  V30 2281 H 210.391 -0.213418 -1.60992 0
M  V30 2282 H 212.388 2.17981 -3.55373 0
M  V30 2283 H 211.048 2.21139 -2.37755 0
M  V30 2284 H 212.059 -0.206049 -5.1749 0
M  V30 2285 H 208.736 1.91757 -3.70858 0
M  V30 2286 H 210.126 -0.836329 -6.66675 0
M  V30 2287 N 212.846 1.57033 -0.133567 0
M  V30 2288 C 214.257 1.82593 0.389464 0
M  V30 2289 C 214.608 1.05156 1.6564 0
M  V30 2290 O 213.733 0.292644 2.14412 0
M  V30 2291 C 214.328 3.31204 0.713377 0
M  V30 2292 C 212.887 3.57393 1.18098 0
M  V30 2293 C 212.034 2.76598 0.197126 0
M  V30 2294 H 214.985 1.54598 -0.358481 0
M  V30 2295 H 215.006 3.46627 1.56939 0
M  V30 2296 H 214.518 3.87537 -0.2089 0
M  V30 2297 H 212.619 3.06433 2.11966 0
M  V30 2298 H 212.732 4.65915 1.11624 0
M  V30 2299 H 211.096 2.45257 0.687088 0
M  V30 2300 H 211.879 3.35697 -0.718504 0
M  V30 2301 N 214.325 -0.140222 1.56975 0
M  V30 2302 C 215.602 -0.880769 1.74648 0
M  V30 2303 C 215.982 -1.99036 0.703404 0
M  V30 2304 O 215.33 -2.26821 -0.27648 0
M  V30 2305 C 215.54 -1.417 3.18939 0
M  V30 2306 C 216.888 -1.87774 3.80823 0
M  V30 2307 O 217.912 -1.51427 3.2241 0
M  V30 2308 O 216.771 -2.54827 4.83452 0
M  V30 2309 H 213.865 -0.416713 0.714338 0
M  V30 2310 H 216.411 -0.125618 1.69234 0
M  V30 2311 H 215.183 -0.619902 3.86359 0
M  V30 2312 H 214.806 -2.23546 3.28805 0
M  V30 2313 N 215.803 -1.52179 -0.40978 0
M  V30 2314 C 217.051 -1.65878 -1.15451 0
M  V30 2315 C 217.372 -0.390771 -1.91044 0
M  V30 2316 O 216.642 0.594323 -1.86667 0
M  V30 2317 H 215.222 -0.611405 -0.429177 0
M  V30 2318 H 217.884 -1.89219 -0.467134 0
M  V30 2319 H 216.98 -2.49954 -1.86894 0
M  V30 2320 N 217.281 0.66697 -1.42791 0
M  V30 2321 C 218.509 1.45505 -1.47091 0
M  V30 2322 C 218.924 1.8861 -0.0845873 0
M  V30 2323 O 218.281 1.58632 0.90234 0
M  V30 2324 C 218.332 2.69906 -2.40485 0
M  V30 2325 O 218.053 2.28608 -3.73725 0
M  V30 2326 C 219.554 3.63396 -2.53886 0
M  V30 2327 H 216.774 0.447459 -0.500022 0
M  V30 2328 H 219.318 0.818866 -1.8739 0
M  V30 2329 H 217.473 3.29696 -2.03419 0
M  V30 2330 H 217.887 3.08997 -4.23817 0
M  V30 2331 H 219.361 4.47387 -3.2334 0
M  V30 2332 H 219.838 4.09824 -1.57927 0
M  V30 2333 H 220.444 3.09495 -2.91706 0
M  V30 2334 N 218.759 1.29093 0.90403 0
M  V30 2335 C 220.005 1.16986 1.65656 0
M  V30 2336 C 220.338 -0.278925 1.92186 0
M  V30 2337 O 219.613 -1.2019 1.5292 0
M  V30 2338 C 219.896 1.97908 3.0084 0
M  V30 2339 C 219.749 3.50903 2.81403 0
M  V30 2340 C 221.068 1.80208 4.01513 0
M  V30 2341 H 218.187 0.426346 0.601164 0
M  V30 2342 H 220.829 1.58518 1.04747 0
M  V30 2343 H 218.979 1.62616 3.52829 0
M  V30 2344 H 220.651 3.96153 2.36348 0
M  V30 2345 H 218.894 3.76045 2.1627 0
M  V30 2346 H 219.565 4.02791 3.77443 0
M  V30 2347 H 222.041 2.11025 3.58619 0
M  V30 2348 H 220.917 2.39184 4.94047 0
M  V30 2349 H 221.178 0.756119 4.35586 0
M  V30 2350 N 220.237 -1.11381 1.11499 0
M  V30 2351 C 221.167 -2.19509 0.796125 0
M  V30 2352 C 222.148 -1.68458 -0.235796 0
M  V30 2353 O 223.333 -1.93947 -0.0991344 0
M  V30 2354 C 220.463 -3.46475 0.239205 0
M  V30 2355 C 219.417 -4.10744 1.20307 0
M  V30 2356 C 218.743 -5.32293 0.50683 0
M  V30 2357 C 220.043 -4.55597 2.55399 0
M  V30 2358 H 221.737 -2.46439 1.70024 0
M  V30 2359 H 219.283 -1.18446 0.818935 0
M  V30 2360 H 221.236 -4.214 0.00392006 0
M  V30 2361 H 219.96 -3.19006 -0.700206 0
M  V30 2362 H 218.619 -3.37813 1.42399 0
M  V30 2363 H 218.267 -5.01095 -0.437408 0
M  V30 2364 H 217.967 -5.76243 1.1497 0
M  V30 2365 H 219.491 -6.09956 0.280351 0
M  V30 2366 H 220.905 -5.21841 2.37391 0
M  V30 2367 H 219.302 -5.10363 3.15673 0
M  V30 2368 H 220.372 -3.69013 3.14575 0
M  V30 2369 N 221.715 -0.905404 -1.28997 0
M  V30 2370 C 222.945 -0.549049 -1.99171 0
M  V30 2371 C 223.353 0.87203 -1.67906 0
M  V30 2372 O 222.696 1.58796 -0.923561 0
M  V30 2373 C 222.758 -0.668306 -3.53234 0
M  V30 2374 C 222.422 -2.0574 -4.08069 0
M  V30 2375 C 223.419 -3.0292 -4.22534 0
M  V30 2376 C 221.104 -2.36833 -4.42962 0
M  V30 2377 C 223.098 -4.29314 -4.71135 0
M  V30 2378 C 220.785 -3.63467 -4.91258 0
M  V30 2379 C 221.783 -4.59522 -5.053 0
M  V30 2380 O 221.471 -5.83907 -5.52546 0
M  V30 2381 H 221.203 -0.208784 -0.64295 0
M  V30 2382 H 223.757 -1.21836 -1.65363 0
M  V30 2383 H 221.987 0.0580547 -3.86656 0
M  V30 2384 H 223.676 -0.320273 -4.04634 0
M  V30 2385 H 224.442 -2.80216 -3.95859 0
M  V30 2386 H 220.321 -1.62824 -4.31288 0
M  V30 2387 H 223.865 -5.04293 -4.8201 0
M  V30 2388 H 219.762 -3.86 -5.17372 0
M  V30 2389 H 220.53 -5.86578 -5.70849 0
M  V30 2390 N 223.193 1.4272 -0.668489 0
M  V30 2391 C 224.441 2.01226 -0.187769 0
M  V30 2392 C 224.762 1.53092 1.2078 0
M  V30 2393 O 224.032 0.74993 1.80977 0
M  V30 2394 H 222.612 0.744041 -0.0664272 0
M  V30 2395 H 225.274 1.74723 -0.863583 0
M  V30 2396 H 224.37 3.11556 -0.184166 0
M  V30 2397 N 224.671 0.411399 1.52136 0
M  V30 2398 C 225.601 -0.404015 2.29978 0
M  V30 2399 C 226.582 -1.04412 1.34284 0
M  V30 2400 O 227.767 -1.0527 1.63192 0
M  V30 2401 C 224.897 -1.5197 3.12286 0
M  V30 2402 C 223.851 -1.00448 4.16046 0
M  V30 2403 C 223.177 -2.21393 4.86712 0
M  V30 2404 C 224.477 -0.0569336 5.22269 0
M  V30 2405 H 226.171 0.245529 2.98392 0
M  V30 2406 H 223.717 0.119525 1.43503 0
M  V30 2407 H 225.67 -2.09715 3.6551 0
M  V30 2408 H 224.394 -2.19716 2.41646 0
M  V30 2409 H 223.053 -0.449421 3.63835 0
M  V30 2410 H 222.701 -2.87699 4.12599 0
M  V30 2411 H 222.401 -1.87571 5.56858 0
M  V30 2412 H 223.925 -2.7974 5.4275 0
M  V30 2413 H 225.339 -0.54325 5.7072 0
M  V30 2414 H 223.736 0.192594 5.99791 0
M  V30 2415 H 224.806 0.887663 4.76706 0
M  V30 2416 N 226.149 -1.5696 0.141893 0
M  V30 2417 C 227.565 -1.58151 -0.21456 0
M  V30 2418 C 227.765 -1.1559 -1.65049 0
M  V30 2419 O 226.821 -0.853832 -2.37626 0
M  V30 2420 C 228.134 -3.00674 0.0395576 0
M  V30 2421 C 229.682 -3.1299 -0.0245529 0
M  V30 2422 C 230.157 -4.57554 0.202167 0
M  V30 2423 N 231.648 -4.62961 0.148919 0
M  V30 2424 C 232.383 -5.7262 0.298924 0
M  V30 2425 N 231.879 -6.90947 0.50637 0
M  V30 2426 N 233.672 -5.61601 0.236886 0
M  V30 2427 H 225.823 -1.8292 1.07953 0
M  V30 2428 H 228.086 -0.846425 0.42693 0
M  V30 2429 H 227.792 -3.36183 1.03315 0
M  V30 2430 H 227.666 -3.70981 -0.682143 0
M  V30 2431 H 230.053 -2.77326 -1.00869 0
M  V30 2432 H 230.134 -2.4518 0.729396 0
M  V30 2433 H 229.778 -4.93922 1.18338 0
M  V30 2434 H 229.708 -5.23484 -0.572044 0
M  V30 2435 H 232.199 -3.77899 -0.00697015 0
M  V30 2436 H 232.512 -7.7038 0.611076 0
M  V30 2437 H 230.857 -6.92878 0.542628 0
M  V30 2438 H 234.048 -4.68039 0.0756209 0
M  V30 2439 H 234.221 -6.47015 0.357227 0
M  V30 2440 N 227.627 0.131896 -1.57047 0
M  V30 2441 C 228.876 0.84044 -1.83356 0
M  V30 2442 C 229.189 1.81646 -0.725535 0
M  V30 2443 O 230.395 2.57025 -0.874659 0
M  V30 2444 C 228.851 1.54528 -3.25037 0
M  V30 2445 C 228.459 0.610902 -4.43815 0
M  V30 2446 C 230.203 2.23972 -3.60606 0
M  V30 2447 C 228.11 1.31823 -5.76521 0
M  V30 2448 H 227.04 0.317599 -0.683847 0
M  V30 2449 H 229.691 0.0931561 -1.83263 0
M  V30 2450 H 228.073 2.33873 -3.19561 0
M  V30 2451 H 229.247 -0.148407 -4.60561 0
M  V30 2452 H 227.562 0.0241016 -4.16393 0
M  V30 2453 H 230.159 2.77558 -4.57018 0
M  V30 2454 H 230.502 3.01173 -2.87403 0
M  V30 2455 H 231.035 1.51529 -3.6781 0
M  V30 2456 H 227.774 0.587771 -6.52859 0
M  V30 2457 H 227.294 2.04987 -5.63685 0
M  V30 2458 H 228.973 1.855 -6.19838 0
M  V30 2459 N 229.106 1.52395 0.401703 0
M  V30 2460 C 230.334 1.70676 1.16949 0
M  V30 2461 C 230.749 0.419503 1.8408 0
M  V30 2462 O 230.106 -0.605061 1.72178 0
M  V30 2463 C 230.157 2.84753 2.22706 0
M  V30 2464 O 229.878 4.08495 1.58314 0
M  V30 2465 C 231.379 3.14608 3.12309 0
M  V30 2466 H 228.599 0.571787 0.351142 0
M  V30 2467 H 231.143 1.98987 0.471652 0
M  V30 2468 H 229.298 2.58941 2.88147 0
M  V30 2469 H 229.712 4.72117 2.28485 0
M  V30 2470 H 231.186 3.97923 3.82572 0
M  V30 2471 H 231.663 2.28464 3.75101 0
M  V30 2472 H 232.269 3.42212 2.52529 0
M  V30 2473 N 230.584 -0.659388 1.43143 0
M  V30 2474 C 231.812 -1.44723 1.47861 0
M  V30 2475 C 232.227 -1.88563 0.0945886 0
M  V30 2476 O 231.584 -1.59108 -0.893915 0
M  V30 2477 C 231.635 -2.68627 2.41913 0
M  V30 2478 O 231.356 -2.26623 3.74932 0
M  V30 2479 C 232.857 -3.62045 2.55809 0
M  V30 2480 H 230.077 -0.444801 0.502387 0
M  V30 2481 H 232.621 -0.808916 1.87821 0
M  V30 2482 H 230.776 -3.28613 2.05164 0
M  V30 2483 H 231.19 -3.06745 4.2545 0
M  V30 2484 H 232.664 -4.45666 3.25708 0
M  V30 2485 H 233.141 -4.08981 1.60099 0
M  V30 2486 H 233.747 -3.07944 2.93344 0
M  V30 2487 N 232.062 -1.29571 -0.897171 0
M  V30 2488 C 233.29 -1.20583 -1.68129 0
M  V30 2489 C 233.705 0.233181 -1.87354 0
M  V30 2490 O 233.062 1.15579 -1.41236 0
M  V30 2491 C 233.113 -1.91772 -3.06441 0
M  V30 2492 O 232.834 -3.30053 -2.88091 0
M  V30 2493 C 234.335 -1.89291 -4.00854 0
M  V30 2494 H 231.555 -0.417826 -0.525036 0
M  V30 2495 H 234.099 -1.70987 -1.12177 0
M  V30 2496 H 232.254 -1.45196 -3.59161 0
M  V30 2497 H 232.668 -3.65942 -3.75748 0
M  V30 2498 H 234.142 -2.43662 -4.95311 0
M  V30 2499 H 234.619 -0.869014 -4.30517 0
M  V30 2500 H 235.225 -2.35622 -3.54066 0
M  V30 2501 N 233.54 1.10788 -1.12088 0
M  V30 2502 C 234.503 2.15207 -0.788577 0
M  V30 2503 C 235.503 1.59609 0.195317 0
M  V30 2504 O 236.693 1.74174 -0.0300193 0
M  V30 2505 C 233.825 3.4047 -0.171174 0
M  V30 2506 H 235.018 2.46116 -1.71368 0
M  V30 2507 H 232.571 1.26089 -0.923652 0
M  V30 2508 H 233.306 3.15176 0.763832 0
M  V30 2509 H 233.091 3.82109 -0.879514 0
M  V30 2510 H 234.581 4.17576 0.04496 0
M  V30 2511 N 235.018 0.912232 1.28515 0
M  V30 2512 C 235.981 0.404223 2.25607 0
M  V30 2513 C 236.981 -0.468602 1.53821 0
M  V30 2514 O 238.171 -0.271873 1.72065 0
M  V30 2515 C 235.303 -0.420653 3.38295 0
M  V30 2516 H 236.496 1.26188 2.7206 0
M  V30 2517 H 234.049 0.691495 1.40171 0
M  V30 2518 H 234.784 -1.29777 2.97201 0
M  V30 2519 H 234.569 0.204935 3.91564 0
M  V30 2520 H 236.059 -0.766971 4.10496 0
M  V30 2521 N 236.496 -1.42363 0.676048 0
M  V30 2522 C 237.736 -2.03392 0.20273 0
M  V30 2523 C 238.1 -1.52306 -1.16906 0
M  V30 2524 O 239.301 -2.05129 -1.73711 0
M  V30 2525 C 237.572 -3.56614 0.236947 0
M  V30 2526 S 239.131 -4.38489 -0.165186 0
M  V30 2527 H 235.949 -0.70611 0.0832418 0
M  V30 2528 H 238.551 -1.74093 0.88948 0
M  V30 2529 H 237.255 -3.91293 1.23767 0
M  V30 2530 H 236.786 -3.90587 -0.469596 0
M  V30 2531 H 238.801 -4.76093 -1.39822 0
M  V30 2532 N 237.974 -0.419461 -1.51915 0
M  V30 2533 C 238.907 0.445751 -2.23804 0
M  V30 2534 C 239.885 1.03951 -1.25031 0
M  V30 2535 O 241.069 1.08541 -1.54114 0
M  V30 2536 C 238.196 1.61964 -2.97465 0
M  V30 2537 C 237.242 1.14828 -4.10751 0
M  V30 2538 S 238.075 0.104938 -5.35397 0
M  V30 2539 C 239.231 1.28391 -6.1259 0
M  V30 2540 H 239.464 -0.164627 -2.96844 0
M  V30 2541 H 236.997 -0.203833 -1.53049 0
M  V30 2542 H 238.955 2.29271 -3.40507 0
M  V30 2543 H 237.616 2.20139 -2.24048 0
M  V30 2544 H 236.809 2.02561 -4.61503 0
M  V30 2545 H 236.411 0.553712 -3.69878 0
M  V30 2546 H 238.703 2.20563 -6.40592 0
M  V30 2547 H 239.646 0.816724 -7.03374 0
M  V30 2548 H 240.054 1.51439 -5.43807 0
M  V30 2549 N 239.452 1.56882 -0.150215 0
M  V30 2550 C 240.385 2.12712 0.826358 0
M  V30 2551 C 241.363 1.05154 1.24022 0
M  V30 2552 O 242.547 1.33004 1.33575 0
M  V30 2553 C 239.674 2.64945 2.11002 0
M  V30 2554 C 238.72 3.8468 1.84183 0
M  V30 2555 S 239.553 5.25502 1.02995 0
M  V30 2556 C 240.709 5.81125 2.32474 0
M  V30 2557 H 240.942 2.95214 0.351598 0
M  V30 2558 H 238.475 1.54267 0.0641211 0
M  V30 2559 H 240.433 2.95689 2.84742 0
M  V30 2560 H 239.094 1.82568 2.55593 0
M  V30 2561 H 238.287 4.19482 2.79375 0
M  V30 2562 H 237.889 3.54714 1.1855 0
M  V30 2563 H 240.181 5.92753 3.281 0
M  V30 2564 H 241.124 6.78625 2.02171 0
M  V30 2565 H 241.532 5.09392 2.43269 0
M  V30 2566 N 240.93 -0.123565 1.57115 0
M  V30 2567 C 242.207 -0.862196 1.75572 0
M  V30 2568 C 242.587 -1.98279 0.724475 0
M  V30 2569 O 241.935 -2.27102 -0.252407 0
M  V30 2570 C 242.145 -1.38309 3.20424 0
M  V30 2571 C 243.493 -1.83724 3.82793 0
M  V30 2572 O 244.517 -1.47999 3.23998 0
M  V30 2573 O 243.376 -2.49685 4.86127 0
M  V30 2574 H 240.47 -0.409113 0.718718 0
M  V30 2575 H 243.016 -0.107661 1.69358 0
M  V30 2576 H 241.788 -0.578889 3.86994 0
M  V30 2577 H 241.411 -2.20046 3.31158 0
M  V30 2578 N 242.408 -1.52605 -0.393616 0
M  V30 2579 C 243.338 -1.80022 -1.48709 0
M  V30 2580 C 244.319 -0.651995 -1.57108 0
M  V30 2581 O 245.504 -0.89913 -1.72132 0
M  V30 2582 C 242.634 -1.96492 -2.86371 0
M  V30 2583 C 241.588 -3.12161 -2.92813 0
M  V30 2584 C 240.914 -3.13877 -4.3288 0
M  V30 2585 C 242.214 -4.51322 -2.6288 0
M  V30 2586 H 243.908 -2.71589 -1.26015 0
M  V30 2587 H 241.454 -1.30684 -0.604778 0
M  V30 2588 H 243.407 -2.14255 -3.62867 0
M  V30 2589 H 242.131 -1.01611 -3.10391 0
M  V30 2590 H 240.79 -2.94173 -2.18764 0
M  V30 2591 H 240.438 -2.16687 -4.53933 0
M  V30 2592 H 240.138 -3.91576 -4.38112 0
M  V30 2593 H 241.662 -3.33789 -5.1129 0
M  V30 2594 H 243.076 -4.69435 -3.29096 0
M  V30 2595 H 241.473 -5.31053 -2.79468 0
M  V30 2596 H 242.543 -4.58353 -1.58242 0
M  V30 2597 N 243.887 0.651787 -1.4349 0
M  V30 2598 C 245.303 0.96762 -1.26922 0
M  V30 2599 C 245.503 2.00602 -0.189982 0
M  V30 2600 O 244.559 2.48793 0.431107 0
M  V30 2601 C 245.872 1.45052 -2.63401 0
M  V30 2602 C 247.42 1.5671 -2.70945 0
M  V30 2603 C 247.895 2.0839 -4.07845 0
M  V30 2604 N 249.386 2.1569 -4.09917 0
M  V30 2605 C 250.121 2.56804 -5.12679 0
M  V30 2606 N 249.617 2.97203 -6.25813 0
M  V30 2607 N 251.41 2.56756 -5.00033 0
M  V30 2608 H 243.561 -0.0353158 -2.12371 0
M  V30 2609 H 245.824 0.0467858 -0.946845 0
M  V30 2610 H 245.53 0.761926 -3.43348 0
M  V30 2611 H 245.404 2.42529 -2.88894 0
M  V30 2612 H 247.791 2.2467 -1.9133 0
M  V30 2613 H 247.872 0.57662 -2.49216 0
M  V30 2614 H 247.516 1.41031 -4.87927 0
M  V30 2615 H 247.446 3.08271 -4.26938 0
M  V30 2616 H 249.937 1.87237 -3.28254 0
M  V30 2617 H 250.25 3.27328 -7.00055 0
M  V30 2618 H 248.595 2.95004 -6.29283 0
M  V30 2619 H 251.786 2.24572 -4.10713 0
M  V30 2620 H 251.959 2.88475 -5.80247 0
M  V30 2621 N 245.365 1.30045 0.890287 0
M  V30 2622 C 246.781 1.08261 1.17268 0
M  V30 2623 C 246.981 -0.160063 2.00863 0
M  V30 2624 O 246.037 -0.855181 2.37577 0
M  V30 2625 C 247.35 2.34323 1.8845 0
M  V30 2626 C 248.898 2.39735 2.01237 0
M  V30 2627 C 249.373 3.65625 2.7583 0
M  V30 2628 N 250.864 3.66402 2.83379 0
M  V30 2629 C 251.599 4.60498 3.41657 0
M  V30 2630 N 251.095 5.64933 4.01026 0
M  V30 2631 N 252.888 4.48051 3.39421 0
M  V30 2632 H 245.039 2.09777 0.332762 0
M  V30 2633 H 247.302 0.92446 0.209948 0
M  V30 2634 H 247.008 3.2498 1.34465 0
M  V30 2635 H 246.882 2.4256 2.88867 0
M  V30 2636 H 249.269 1.4956 2.54393 0
M  V30 2637 H 249.35 2.35476 0.999232 0
M  V30 2638 H 248.994 4.56156 2.23347 0
M  V30 2639 H 248.924 3.67144 3.77509 0
M  V30 2640 H 251.415 2.90896 2.41222 0
M  V30 2641 H 251.728 6.32841 4.43545 0
M  V30 2642 H 250.073 5.68732 3.99461 0
M  V30 2643 H 253.264 3.65649 2.92264 0
M  V30 2644 H 253.437 5.21565 3.84544 0
M  V30 2645 N 246.843 -1.10192 1.12674 0
M  V30 2646 C 248.073 -1.85713 0.905213 0
M  V30 2647 C 248.481 -1.81056 -0.549108 0
M  V30 2648 O 247.824 -1.19927 -1.39151 0
M  V30 2649 C 247.886 -3.34972 1.30516 0
M  V30 2650 C 247.55 -3.63385 2.77129 0
M  V30 2651 C 248.547 -3.59772 3.75313 0
M  V30 2652 C 246.232 -3.91981 3.14096 0
M  V30 2653 C 248.226 -3.84354 5.08479 0
M  V30 2654 C 245.913 -4.16218 4.47443 0
M  V30 2655 C 246.911 -4.12395 5.44444 0
M  V30 2656 O 246.599 -4.36014 6.75387 0
M  V30 2657 H 246.331 -0.593719 0.323223 0
M  V30 2658 H 248.885 -1.40198 1.50112 0
M  V30 2659 H 247.115 -3.81156 0.652463 0
M  V30 2660 H 248.804 -3.91886 1.05736 0
M  V30 2661 H 249.57 -3.37716 3.48099 0
M  V30 2662 H 245.449 -3.94085 2.39202 0
M  V30 2663 H 248.993 -3.81285 5.84181 0
M  V30 2664 H 244.89 -4.37754 4.74386 0
M  V30 2665 H 245.658 -4.53516 6.8137 0
M  V30 2666 N 248.321 -0.919034 -1.28029 0
M  V30 2667 C 249.732 -0.600735 -1.76771 0
M  V30 2668 C 250.083 0.884024 -1.75156 0
M  V30 2669 O 249.208 1.69163 -1.34956 0
M  V30 2670 C 249.803 -1.08372 -3.21 0
M  V30 2671 C 248.362 -0.816248 -3.67443 0
M  V30 2672 C 247.509 -1.24742 -2.47658 0
M  V30 2673 H 250.46 -1.09974 -1.14418 0
M  V30 2674 H 250.481 -0.427512 -3.78091 0
M  V30 2675 H 249.993 -2.16437 -3.22144 0
M  V30 2676 H 248.094 0.250968 -3.71754 0
M  V30 2677 H 248.207 -1.4277 -4.57333 0
M  V30 2678 H 246.571 -0.666083 -2.45836 0
M  V30 2679 H 247.354 -2.33653 -2.51518 0
M  V30 2680 N 249.799 1.42003 -0.683588 0
M  V30 2681 C 250.729 2.33487 -0.024866 0
M  V30 2682 C 251.71 1.51163 0.779975 0
M  V30 2683 O 252.895 1.79739 0.735362 0
M  V30 2684 C 250.025 3.3487 0.920836 0
M  V30 2685 C 248.979 4.27414 0.223958 0
M  V30 2686 C 248.305 5.19074 1.2832 0
M  V30 2687 C 249.605 5.14445 -0.90242 0
M  V30 2688 H 251.299 2.88819 -0.788921 0
M  V30 2689 H 248.845 1.38873 -0.38083 0
M  V30 2690 H 250.798 3.97787 1.39081 0
M  V30 2691 H 249.522 2.77861 1.71642 0
M  V30 2692 H 248.181 3.65904 -0.225864 0
M  V30 2693 H 247.829 4.58387 2.071 0
M  V30 2694 H 247.529 5.81822 0.821995 0
M  V30 2695 H 249.053 5.84867 1.75392 0
M  V30 2696 H 250.467 5.70998 -0.513272 0
M  V30 2697 H 248.864 5.86072 -1.28997 0
M  V30 2698 H 249.934 4.52322 -1.74737 0
M  V30 2699 N 251.277 0.427512 1.51691 0
M  V30 2700 C 252.554 -0.201684 1.94557 0
M  V30 2701 C 252.934 -1.60981 1.36559 0
M  V30 2702 O 252.282 -2.21814 0.548702 0
M  V30 2703 C 252.492 -0.189394 3.48486 0
M  V30 2704 C 253.84 -0.39978 4.22714 0
M  V30 2705 O 254.864 -0.267945 3.55191 0
M  V30 2706 O 253.723 -0.661249 5.42485 0
M  V30 2707 H 250.817 -0.135261 0.815864 0
M  V30 2708 H 253.363 0.484782 1.62628 0
M  V30 2709 H 252.135 0.795431 3.8313 0
M  V30 2710 H 251.758 -0.919187 3.86829 0
M  V30 2711 N 252.755 -1.56801 0.158532 0
M  V30 2712 C 253.665 -2.20916 -0.789518 0
M  V30 2713 C 254.681 -1.1969 -1.26294 0
M  V30 2714 O 255.857 -1.52308 -1.31773 0
M  V30 2715 C 252.922 -2.82727 -2.00665 0
M  V30 2716 C 251.983 -3.99114 -1.58134 0
M  V30 2717 C 251.216 -4.57968 -2.74045 0
M  V30 2718 O 251.439 -4.15704 -3.90572 0
M  V30 2719 O 250.373 -5.48047 -2.48855 0
M  V30 2720 H 254.199 -3.02464 -0.273681 0
M  V30 2721 H 251.784 -1.4924 -0.0690548 0
M  V30 2722 H 253.666 -3.21968 -2.71872 0
M  V30 2723 H 252.341 -2.04184 -2.51179 0
M  V30 2724 H 251.248 -3.64567 -0.839155 0
M  V30 2725 H 252.581 -4.79212 -1.12325 0
M  V30 2726 N 254.233 0.115231 -1.57178 0
M  V30 2727 C 255.165 1.16694 -1.97269 0
M  V30 2728 C 256.178 1.37445 -0.872502 0
M  V30 2729 O 257.367 1.36454 -1.15077 0
M  V30 2730 C 254.467 2.52627 -2.25905 0
M  V30 2731 C 253.64 2.52427 -3.57211 0
M  V30 2732 C 252.699 3.70134 -3.74016 0
M  V30 2733 O 251.725 3.53546 -4.46087 0
M  V30 2734 N 252.927 4.88844 -3.13068 0
M  V30 2735 H 255.692 0.82588 -2.88096 0
M  V30 2736 H 253.253 0.304461 -1.59011 0
M  V30 2737 H 255.245 3.29937 -2.34359 0
M  V30 2738 H 253.815 2.789 -1.41186 0
M  V30 2739 H 253.035 1.60805 -3.5991 0
M  V30 2740 H 254.323 2.49353 -4.43509 0
M  V30 2741 H 253.721 5.05225 -2.54489 0
M  V30 2742 H 252.278 5.63817 -3.27037 0
M  V30 2743 N 255.711 1.52812 0.385517 0
M  V30 2744 C 256.659 1.78482 1.49155 0
M  V30 2745 C 257.653 0.652914 1.56312 0
M  V30 2746 O 258.859 0.835464 1.59436 0
M  V30 2747 H 255.234 0.5648 0.496493 0
M  V30 2748 H 257.205 2.71095 1.24699 0
M  V30 2749 C 255.954 1.97378 2.86247 0
M  V30 2750 H 255.277 2.83907 2.81491 0
M  V30 2751 H 256.717 2.19327 3.62866 0
M  V30 2752 C 255.176 0.74728 3.28508 0
M  V30 2753 O 255.706 -0.0736232 4.01633 0
M  V30 2754 N 253.912 0.576396 2.84826 0
M  V30 2755 H 253.459 1.24555 2.25486 0
M  V30 2756 H 253.417 -0.24288 3.1346 0
M  V30 2757 N 257.189 -0.644168 1.43834 0
M  V30 2758 C 258.429 -1.41565 1.47441 0
M  V30 2759 C 258.793 -1.91743 0.0992723 0
M  V30 2760 O 259.994 -2.68798 0.0100192 0
M  V30 2761 C 258.265 -2.55902 2.49498 0
M  V30 2762 S 259.824 -3.44287 2.72051 0
M  V30 2763 H 256.642 -0.483118 0.521649 0
M  V30 2764 H 259.244 -0.747008 1.80666 0
M  V30 2765 H 257.948 -2.17327 3.48134 0
M  V30 2766 H 257.479 -3.27607 2.17801 0
M  V30 2767 H 259.494 -4.52927 2.0266 0
M  V30 2768 N 258.668 -1.30515 -0.883378 0
M  V30 2769 C 259.896 -1.22359 -1.66841 0
M  V30 2770 C 260.311 0.213296 -1.87591 0
M  V30 2771 O 259.668 1.14075 -1.42454 0
M  V30 2772 C 259.719 -1.95011 -3.04389 0
M  V30 2773 O 259.44 -3.3309 -2.84575 0
M  V30 2774 C 260.941 -1.93532 -3.98824 0
M  V30 2775 H 258.161 -0.423371 -0.520575 0
M  V30 2776 H 260.705 -1.72167 -1.10357 0
M  V30 2777 H 258.86 -1.48997 -3.57601 0
M  V30 2778 H 259.274 -3.69907 -3.71846 0
M  V30 2779 H 260.748 -2.48902 -4.92699 0
M  V30 2780 H 261.225 -0.914627 -4.29571 0
M  V30 2781 H 261.831 -2.39364 -3.51547 0
M  V30 2782 N 260.146 1.09593 -1.13257 0
M  V30 2783 C 261.076 2.18214 -0.830946 0
M  V30 2784 C 262.057 1.68812 0.208966 0
M  V30 2785 O 263.242 1.9408 0.0682666 0
M  V30 2786 C 260.372 3.46051 -0.294296 0
M  V30 2787 C 259.326 4.08778 -1.26826 0
M  V30 2788 C 258.652 5.31419 -0.591449 0
M  V30 2789 C 259.952 4.51476 -2.62615 0
M  V30 2790 H 261.646 2.43703 -1.73923 0
M  V30 2791 H 259.192 1.17128 -0.837675 0
M  V30 2792 H 261.145 4.2134 -0.0709606 0
M  V30 2793 H 259.869 3.20079 0.649366 0
M  V30 2794 H 258.528 3.35505 -1.47756 0
M  V30 2795 H 258.176 5.01727 0.357633 0
M  V30 2796 H 257.876 5.74341 -1.24123 0
M  V30 2797 H 259.4 6.09433 -0.377355 0
M  V30 2798 H 260.814 5.17999 -2.45663 0
M  V30 2799 H 259.211 5.05277 -3.23752 0
M  V30 2800 H 260.281 3.63962 -3.20406 0
M  V30 2801 N 261.624 0.925811 1.2754 0
M  V30 2802 C 262.534 0.428993 2.30644 0
M  V30 2803 C 263.55 -0.489387 1.66976 0
M  V30 2804 O 264.726 -0.372653 1.97922 0
M  V30 2805 C 261.791 -0.311967 3.45294 0
M  V30 2806 C 260.852 0.641098 4.24486 0
M  V30 2807 C 260.085 -0.0645955 5.33661 0
M  V30 2808 O 260.308 -1.28429 5.55754 0
M  V30 2809 O 259.242 0.606265 5.98839 0
M  V30 2810 H 263.068 1.28504 2.75173 0
M  V30 2811 H 260.653 0.691086 1.32455 0
M  V30 2812 H 262.535 -0.729972 4.15029 0
M  V30 2813 H 261.21 -1.14365 3.02824 0
M  V30 2814 H 260.117 1.10874 3.57292 0
M  V30 2815 H 261.45 1.43995 4.70666 0
M  V30 2816 N 263.102 -1.41638 0.69111 0
M  V30 2817 C 264.351 -2.00526 0.217318 0
M  V30 2818 C 264.664 -1.55353 -1.18848 0
M  V30 2819 O 265.87 -2.06769 -1.75951 0
M  V30 2820 C 264.326 -3.58313 0.337639 0
M  V30 2821 C 263.934 -4.12469 1.74852 0
M  V30 2822 C 265.678 -4.24431 -0.0766066 0
M  V30 2823 C 263.585 -5.62675 1.82074 0
M  V30 2824 H 262.515 -0.750008 0.0774893 0
M  V30 2825 H 265.166 -1.6217 0.858661 0
M  V30 2826 H 263.548 -3.9425 -0.371879 0
M  V30 2827 H 264.722 -3.8796 2.48644 0
M  V30 2828 H 263.037 -3.58861 2.11205 0
M  V30 2829 H 265.634 -5.34683 -0.0430284 0
M  V30 2830 H 265.977 -4.01101 -1.1146 0
M  V30 2831 H 266.51 -3.93512 0.582476 0
M  V30 2832 H 263.249 -5.90826 2.83911 0
M  V30 2833 H 262.769 -5.89124 1.12661 0
M  V30 2834 H 264.448 -6.27371 1.58159 0
M  V30 2835 N 264.58 -0.43555 -1.51462 0
M  V30 2836 C 265.49 0.383001 -2.31453 0
M  V30 2837 C 266.506 1.02931 -1.4029 0
M  V30 2838 O 267.682 1.02507 -1.73362 0
M  V30 2839 C 264.747 1.47043 -3.13973 0
M  V30 2840 C 263.808 0.844433 -4.20913 0
M  V30 2841 C 263.041 1.88004 -4.9949 0
M  V30 2842 O 263.264 3.10199 -4.78678 0
M  V30 2843 O 262.198 1.47157 -5.83634 0
M  V30 2844 H 266.024 -0.269964 -3.02498 0
M  V30 2845 H 263.609 -0.19813 -1.4808 0
M  V30 2846 H 265.491 2.10113 -3.65281 0
M  V30 2847 H 264.166 2.10751 -2.45695 0
M  V30 2848 H 263.073 0.175729 -3.73687 0
M  V30 2849 H 264.406 0.250869 -4.9156 0
M  V30 2850 N 266.058 1.56714 -0.166846 0
M  V30 2851 C 267.283 2.01557 0.488833 0
M  V30 2852 C 267.708 1.0463 1.56314 0
M  V30 2853 O 267.066 0.0251304 1.81283 0
M  V30 2854 C 267.114 3.4503 1.04818 0
M  V30 2855 O 266.218 3.51163 2.16236 0
M  V30 2856 H 265.559 0.653516 0.117526 0
M  V30 2857 H 268.089 2.02818 -0.269421 0
M  V30 2858 H 268.099 3.84243 1.37191 0
M  V30 2859 H 266.774 4.15077 0.261572 0
M  V30 2860 H 265.351 3.23807 1.84942 0
M  V30 2861 N 267.536 -0.106894 1.57237 0
M  V30 2862 C 268.766 -0.825191 1.89405 0
M  V30 2863 C 269.174 -1.73374 0.757496 0
M  V30 2864 O 268.517 -1.81552 -0.280115 0
M  V30 2865 C 268.579 -1.70102 3.1671 0
M  V30 2866 C 268.243 -0.965523 4.46684 0
M  V30 2867 C 269.24 -0.300741 5.19029 0
M  V30 2868 C 266.925 -0.943105 4.93367 0
M  V30 2869 C 268.919 0.376622 6.36286 0
M  V30 2870 C 266.606 -0.261949 6.10538 0
M  V30 2871 C 267.604 0.396748 6.81847 0
M  V30 2872 O 267.292 1.06701 7.96787 0
M  V30 2873 H 267.024 -0.241852 0.631255 0
M  V30 2874 H 269.578 -0.0921491 2.05193 0
M  V30 2875 H 267.808 -2.47601 2.97036 0
M  V30 2876 H 269.497 -2.29483 3.34802 0
M  V30 2877 H 270.263 -0.309599 4.84011 0
M  V30 2878 H 266.142 -1.44524 4.3776 0
M  V30 2879 H 269.686 0.891334 6.91882 0
M  V30 2880 H 265.583 -0.250896 6.45012 0
M  V30 2881 H 266.351 0.972707 8.127 0
M  V30 2882 N 269.014 -1.53014 -0.377408 0
M  V30 2883 C 270.262 -1.6829 -1.11906 0
M  V30 2884 C 270.583 -0.431206 -1.90173 0
M  V30 2885 O 269.853 0.554595 -1.87886 0
M  V30 2886 H 268.433 -0.620371 -0.416112 0
M  V30 2887 H 271.095 -1.90167 -0.426893 0
M  V30 2888 H 270.191 -2.53862 -1.8155 0
M  V30 2889 N 270.492 0.636531 -1.44174 0
M  V30 2890 C 271.722 1.42146 -1.49927 0
M  V30 2891 C 272.13 1.88812 -0.121063 0
M  V30 2892 O 271.473 1.61126 0.882267 0
M  V30 2893 C 271.535 2.67883 -2.39748 0
M  V30 2894 C 271.199 2.43048 -3.8701 0
M  V30 2895 C 272.196 2.05216 -4.77684 0
M  V30 2896 C 269.881 2.56856 -4.3166 0
M  V30 2897 C 271.875 1.81512 -6.11009 0
M  V30 2898 C 269.562 2.32766 -5.65034 0
M  V30 2899 C 270.56 1.95152 -6.54526 0
M  V30 2900 O 270.248 1.71326 -7.85431 0
M  V30 2901 H 269.98 0.442567 -0.51099 0
M  V30 2902 H 272.534 0.786158 -1.8976 0
M  V30 2903 H 270.764 3.34032 -1.94832 0
M  V30 2904 H 272.453 3.29874 -2.36513 0
M  V30 2905 H 273.219 1.94111 -4.44462 0
M  V30 2906 H 269.098 2.85104 -3.62266 0
M  V30 2907 H 272.642 1.52077 -6.80822 0
M  V30 2908 H 268.539 2.43479 -5.97819 0
M  V30 2909 H 269.307 1.85616 -7.97176 0
M  V30 2910 N 271.97 1.30982 0.876444 0
M  V30 2911 C 273.198 1.23242 1.6619 0
M  V30 2912 C 273.613 -0.203345 1.87702 0
M  V30 2913 O 272.97 -1.13317 1.43057 0
M  V30 2914 C 273.021 1.96623 3.03351 0
M  V30 2915 O 272.742 3.34594 2.82804 0
M  V30 2916 C 274.243 1.95644 3.97792 0
M  V30 2917 H 271.463 0.426126 0.518322 0
M  V30 2918 H 274.007 1.7275 1.09442 0
M  V30 2919 H 272.162 1.50892 3.56806 0
M  V30 2920 H 272.576 3.71873 3.69879 0
M  V30 2921 H 274.05 2.51511 4.91372 0
M  V30 2922 H 274.527 0.937395 4.2908 0
M  V30 2923 H 275.133 2.41225 3.50272 0
M  V30 2924 N 273.449 -1.08991 1.13837 0
M  V30 2925 C 274.677 -1.85011 0.926202 0
M  V30 2926 C 275.092 -1.8135 -0.525127 0
M  V30 2927 O 274.449 -1.21287 -1.36366 0
M  V30 2928 C 274.5 -3.32802 1.41155 0
M  V30 2929 O 274.221 -3.36444 2.80601 0
M  V30 2930 C 275.722 -4.25649 1.23847 0
M  V30 2931 H 272.942 -0.584249 0.32999 0
M  V30 2932 H 275.486 -1.37688 1.51202 0
M  V30 2933 H 273.641 -3.77536 0.868631 0
M  V30 2934 H 274.055 -4.28657 3.02248 0
M  V30 2935 H 275.529 -5.27485 1.62675 0
M  V30 2936 H 276.006 -4.38828 0.18065 0
M  V30 2937 H 276.612 -3.86735 1.76964 0
M  V30 2938 N 274.927 -0.932562 -1.27047 0
M  V30 2939 C 276.204 -0.49377 -1.89265 0
M  V30 2940 C 276.584 1.02833 -1.8436 0
M  V30 2941 O 275.932 1.88461 -1.29209 0
M  V30 2942 C 276.142 -1.04536 -3.32976 0
M  V30 2943 C 277.49 -1.10879 -4.09867 0
M  V30 2944 O 278.514 -0.995327 -3.42011 0
M  V30 2945 O 277.373 -1.28417 -5.31198 0
M  V30 2946 H 274.467 -0.159596 -0.811454 0
M  V30 2947 H 277.013 -1.02457 -1.3528 0
M  V30 2948 H 275.785 -2.08913 -3.30864 0
M  V30 2949 H 275.408 -0.496494 -3.94488 0
M  V30 2950 N 276.405 1.4127 -0.698611 0
M  V30 2951 C 277.682 1.94955 -0.158762 0
M  V30 2952 C 278.062 1.63781 1.33188 0
M  V30 2953 O 277.41 0.946423 2.07979 0
M  V30 2954 C 277.62 3.46044 -0.453309 0
M  V30 2955 C 278.968 4.22872 -0.382707 0
M  V30 2956 O 279.992 3.54076 -0.388396 0
M  V30 2957 O 278.851 5.45407 -0.345463 0
M  V30 2958 H 275.945 0.82683 -0.0167505 0
M  V30 2959 H 278.491 1.50971 -0.77498 0
M  V30 2960 H 277.263 3.62028 -1.48498 0
M  V30 2961 H 276.886 3.97128 0.19373 0
M  V30 2962 N 277.883 0.443576 1.51229 0
M  V30 2963 C 279.132 -0.122332 2.01329 0
M  V30 2964 C 279.445 -1.43237 1.33201 0
M  V30 2965 O 280.651 -2.0816 1.74304 0
M  V30 2966 C 279.107 -0.268551 3.58897 0
M  V30 2967 C 278.715 1.03142 4.35965 0
M  V30 2968 C 280.459 -0.787894 4.17124 0
M  V30 2969 C 278.366 0.850504 5.85252 0
M  V30 2970 H 277.296 -0.0494929 0.752374 0
M  V30 2971 H 279.947 0.574289 1.74282 0
M  V30 2972 H 278.329 -1.02832 3.82415 0
M  V30 2973 H 279.503 1.80001 4.24189 0
M  V30 2974 H 277.818 1.47977 3.89219 0
M  V30 2975 H 280.415 -0.939841 5.26375 0
M  V30 2976 H 280.758 -1.77201 3.76703 0
M  V30 2977 H 281.291 -0.0862669 3.97706 0
M  V30 2978 H 278.03 1.80718 6.30096 0
M  V30 2979 H 277.55 0.121825 5.99676 0
M  V30 2980 H 279.229 0.506163 6.45017 0
M  V30 2981 N 279.361 -1.56624 0.175154 0
M  V30 2982 C 280.271 -2.21741 -0.766042 0
M  V30 2983 C 281.287 -1.21023 -1.25018 0
M  V30 2984 O 282.463 -1.53697 -1.3015 0
M  V30 2985 C 279.528 -2.84839 -1.97655 0
M  V30 2986 C 278.589 -4.00769 -1.53892 0
M  V30 2987 C 277.822 -4.60849 -2.69173 0
M  V30 2988 O 278.045 -4.19823 -3.86141 0
M  V30 2989 O 276.979 -5.50655 -2.43028 0
M  V30 2990 H 280.805 -3.02738 -0.241585 0
M  V30 2991 H 278.39 -1.49305 -0.053222 0
M  V30 2992 H 280.272 -3.24834 -2.68442 0
M  V30 2993 H 278.947 -2.06836 -2.48999 0
M  V30 2994 H 277.854 -3.65436 -0.80044 0
M  V30 2995 H 279.187 -4.80376 -1.07236 0
M  V30 2996 N 280.839 0.0985539 -1.57292 0
M  V30 2997 C 282.086 0.802678 -1.85912 0
M  V30 2998 C 282.414 1.78901 -0.763186 0
M  V30 2999 O 281.669 1.94178 0.243559 0
M  V30 3000 C 281.968 1.56927 -3.21105 0
M  V30 3001 C 281.634 0.725376 -4.45027 0
M  V30 3002 C 280.296 0.492726 -4.78671 0
M  V30 3003 C 282.648 0.138493 -5.21016 0
M  V30 3004 C 279.976 -0.336727 -5.85733 0
M  V30 3005 C 282.328 -0.678264 -6.28953 0
M  V30 3006 C 280.992 -0.921039 -6.61115 0
M  V30 3007 H 280.262 0.293721 -0.680301 0
M  V30 3008 H 282.909 0.0642841 -1.91392 0
M  V30 3009 H 281.214 2.37914 -3.11294 0
M  V30 3010 H 282.911 2.11841 -3.40477 0
M  V30 3011 H 279.501 0.916815 -4.18679 0
M  V30 3012 H 283.685 0.305404 -4.95359 0
M  V30 3013 H 278.941 -0.533836 -6.09065 0
M  V30 3014 H 283.115 -1.1399 -6.87007 0
M  V30 3015 H 280.742 -1.56556 -7.43905 0
M  V30 3016 N 282.317 1.53212 0.369288 0
M  V30 3017 C 283.547 1.72868 1.13139 0
M  V30 3018 C 283.955 0.455754 1.83629 0
M  V30 3019 O 283.298 -0.580861 1.74275 0
M  V30 3020 C 283.36 2.83667 2.20847 0
M  V30 3021 C 283.024 4.24142 1.70155 0
M  V30 3022 C 284.021 5.06619 1.16763 0
M  V30 3023 C 281.706 4.70539 1.7578 0
M  V30 3024 C 283.7 6.33581 0.696678 0
M  V30 3025 C 281.387 5.97481 1.28297 0
M  V30 3026 C 282.385 6.78833 0.753307 0
M  V30 3027 O 282.073 8.03393 0.285475 0
M  V30 3028 H 281.805 0.581707 0.344373 0
M  V30 3029 H 284.359 2.00736 0.435243 0
M  V30 3030 H 282.589 2.51265 2.93944 0
M  V30 3031 H 284.278 2.91536 2.82421 0
M  V30 3032 H 285.044 4.71948 1.11758 0
M  V30 3033 H 280.923 4.07293 2.15949 0
M  V30 3034 H 284.467 6.97027 0.282581 0
M  V30 3035 H 280.364 6.31651 1.32994 0
M  V30 3036 H 281.132 8.17497 0.405145 0
M  V30 3037 N 283.795 -0.628877 1.44509 0
M  V30 3038 C 285.041 -1.38863 1.48623 0
M  V30 3039 C 285.396 -1.92038 0.117933 0
M  V30 3040 O 284.689 -1.70853 -0.86716 0
M  V30 3041 C 284.883 -2.56995 2.48371 0
M  V30 3042 C 284.712 -2.15385 3.94765 0
M  V30 3043 C 283.482 -2.02558 4.62924 0
M  V30 3044 C 285.68 -1.74158 4.83915 0
M  V30 3045 N 283.662 -1.54534 5.94132 0
M  V30 3046 C 285.033 -1.37396 6.04584 0
M  V30 3047 C 287.088 -1.61559 4.7096 0
M  V30 3048 C 285.791 -0.892948 7.13736 0
M  V30 3049 C 287.817 -1.14862 5.80139 0
M  V30 3050 C 287.179 -0.790516 6.9995 0
M  V30 3051 H 283.278 -0.502858 0.59888 0
M  V30 3052 H 285.862 -0.72121 1.8085 0
M  V30 3053 H 284.033 -3.21362 2.1813 0
M  V30 3054 H 285.765 -3.23801 2.42766 0
M  V30 3055 H 282.52 -2.23082 4.1777 0
M  V30 3056 H 282.944 -1.32815 6.63844 0
M  V30 3057 H 287.586 -1.87876 3.78764 0
M  V30 3058 H 285.304 -0.617291 8.05739 0
M  V30 3059 H 288.89 -1.05569 5.72142 0
M  V30 3060 H 287.77 -0.434713 7.82994 0
M  V30 3061 N 285.273 -1.31445 -0.869486 0
M  V30 3062 C 286.689 -1.10113 -1.15531 0
M  V30 3063 C 286.889 0.128087 -2.01092 0
M  V30 3064 O 285.945 0.817276 -2.38908 0
M  V30 3065 C 287.258 -2.37291 -1.84698 0
M  V30 3066 C 288.806 -2.42906 -1.97397 0
M  V30 3067 C 289.281 -3.69967 -2.69979 0
M  V30 3068 N 290.772 -3.70864 -2.77514 0
M  V30 3069 C 291.507 -4.65875 -3.34287 0
M  V30 3070 N 291.003 -5.71242 -3.91988 0
M  V30 3071 N 292.796 -4.53394 -3.3225 0
M  V30 3072 H 284.947 -2.1028 -0.299347 0
M  V30 3073 H 287.21 -0.927683 -0.195214 0
M  V30 3074 H 286.916 -3.27078 -1.29278 0
M  V30 3075 H 286.79 -2.47125 -2.84972 0
M  V30 3076 H 289.177 -1.53588 -2.51982 0
M  V30 3077 H 289.258 -2.37036 -0.961643 0
M  V30 3078 H 288.902 -4.59652 -2.16062 0
M  V30 3079 H 288.832 -3.73103 -3.7162 0
M  V30 3080 H 291.323 -2.94697 -2.36563 0
M  V30 3081 H 291.636 -6.39817 -4.33421 0
M  V30 3082 H 289.981 -5.75015 -3.90362 0
M  V30 3083 H 293.172 -3.70252 -2.8641 0
M  V30 3084 H 293.345 -5.27617 -3.76197 0
M  V30 3085 N 286.751 1.08385 -1.14413 0
M  V30 3086 C 287.999 1.80419 -0.910679 0
M  V30 3087 C 288.32 1.86658 0.564243 0
M  V30 3088 O 287.59 1.35985 1.41014 0
M  V30 3089 H 286.17 0.668204 -0.333934 0
M  V30 3090 H 288.832 1.31037 -1.44275 0
M  V30 3091 H 287.928 2.83238 -1.31082 0
M  V30 3092 N 288.23 0.939286 1.26551 0
M  V30 3093 C 289.478 0.58469 1.93457 0
M  V30 3094 C 289.799 -0.878774 1.74076 0
M  V30 3095 O 289.069 -1.62421 1.09528 0
M  V30 3096 H 287.649 0.21325 0.715914 0
M  V30 3097 H 290.311 1.1942 1.54029 0
M  V30 3098 H 289.407 0.800849 3.0165 0
M  V30 3099 N 289.708 -1.40897 0.706093 0
M  V30 3100 C 290.985 -1.94868 0.169099 0
M  V30 3101 C 291.365 -1.64485 -1.32318 0
M  V30 3102 O 290.713 -0.95744 -2.07474 0
M  V30 3103 C 290.923 -3.45798 0.471654 0
M  V30 3104 C 292.271 -4.22663 0.405127 0
M  V30 3105 O 293.295 -3.53865 0.407168 0
M  V30 3106 O 292.154 -5.45216 0.374383 0
M  V30 3107 H 289.248 -0.82673 0.0211352 0
M  V30 3108 H 291.794 -1.50558 0.782976 0
M  V30 3109 H 290.566 -3.61235 1.50416 0
M  V30 3110 H 290.189 -3.97225 -0.172666 0
M  V30 3111 N 291.186 -0.45159 -1.50991 0
M  V30 3112 C 292.133 0.352625 -2.2809 0
M  V30 3113 C 293.103 1.0044 -1.32291 0
M  V30 3114 O 294.288 1.02058 -1.6121 0
M  V30 3115 C 291.428 1.43983 -3.13629 0
M  V30 3116 C 290.541 0.804772 -4.24438 0
M  V30 3117 C 289.676 1.86822 -4.97263 0
M  V30 3118 C 288.715 1.21236 -5.99973 0
M  V30 3119 N 287.852 2.2178 -6.66152 0
M  V30 3120 H 292.692 -0.311186 -2.96371 0
M  V30 3121 H 290.229 -0.165308 -1.46168 0
M  V30 3122 H 292.187 2.08161 -3.61559 0
M  V30 3123 H 290.817 2.07307 -2.47434 0
M  V30 3124 H 289.869 0.0509129 -3.80366 0
M  V30 3125 H 291.181 0.286076 -4.97979 0
M  V30 3126 H 290.335 2.58628 -5.48813 0
M  V30 3127 H 289.074 2.42068 -4.23385 0
M  V30 3128 H 288.079 0.479828 -5.47702 0
M  V30 3129 H 289.304 0.667051 -6.75816 0
M  V30 3130 H 287.25 2.76079 -5.95077 0
M  V30 3131 H 287.167 1.74841 -7.35504 0
M  V30 3132 H 288.435 2.93026 -7.22327 0
M  V30 3133 N 292.664 1.56529 -0.183458 0
M  V30 3134 C 293.627 2.17324 0.728223 0
M  V30 3135 C 294.627 1.12453 1.14939 0
M  V30 3136 O 295.817 1.37902 1.06437 0
M  V30 3137 C 292.949 2.76591 1.99274 0
M  V30 3138 H 294.142 2.99241 0.198772 0
M  V30 3139 H 291.695 1.5616 0.0661391 0
M  V30 3140 H 292.43 1.98441 2.56499 0
M  V30 3141 H 292.215 3.5335 1.69959 0
M  V30 3142 H 293.705 3.23311 2.6431 0
M  V30 3143 N 294.142 -0.090211 1.57342 0
M  V30 3144 C 295.388 -0.793982 1.86611 0
M  V30 3145 C 295.721 -1.78142 0.773252 0
M  V30 3146 O 294.996 -1.93271 -0.218304 0
M  V30 3147 C 295.279 -1.51839 3.26523 0
M  V30 3148 C 295.132 -0.548609 4.46442 0
M  V30 3149 C 296.451 -2.46779 3.64401 0
M  V30 3150 H 293.57 -0.287186 0.678744 0
M  V30 3151 H 296.212 -0.0575076 1.89913 0
M  V30 3152 H 294.362 -2.14617 3.23839 0
M  V30 3153 H 296.034 0.0725513 4.61243 0
M  V30 3154 H 294.277 0.137614 4.33582 0
M  V30 3155 H 294.948 -1.09271 5.41076 0
M  V30 3156 H 297.424 -1.94089 3.68061 0
M  V30 3157 H 296.3 -2.94479 4.63221 0
M  V30 3158 H 296.561 -3.30758 2.93346 0
M  V30 3159 N 295.62 -1.53406 -0.361157 0
M  V30 3160 C 296.848 -1.73717 -1.12383 0
M  V30 3161 C 297.263 -0.468161 -1.82904 0
M  V30 3162 O 296.62 0.559198 -1.73722 0
M  V30 3163 C 296.671 -2.90558 -2.15078 0
M  V30 3164 O 296.392 -4.12549 -1.47428 0
M  V30 3165 C 297.893 -3.22777 -3.03858 0
M  V30 3166 H 295.113 -0.580896 -0.335858 0
M  V30 3167 H 297.657 -2.00167 -0.418728 0
M  V30 3168 H 295.812 -2.66489 -2.8118 0
M  V30 3169 H 296.226 -4.78009 -2.15887 0
M  V30 3170 H 297.7 -4.07927 -3.71887 0
M  V30 3171 H 298.177 -2.38329 -3.68912 0
M  V30 3172 H 298.783 -3.48787 -2.43367 0
M  V30 3173 N 297.098 0.621204 -1.44841 0
M  V30 3174 C 298.346 1.37783 -1.47852 0
M  V30 3175 C 298.667 1.94653 -0.116224 0
M  V30 3176 O 297.937 1.76367 0.852737 0
M  V30 3177 H 296.517 0.511453 -0.544449 0
M  V30 3178 H 299.179 0.730446 -1.80694 0
M  V30 3179 H 298.275 2.20414 -2.20961 0
M  V30 3180 N 298.576 1.31904 0.862503 0
M  V30 3181 C 299.822 1.22197 1.61851 0
M  V30 3182 C 300.155 -0.217641 1.92977 0
M  V30 3183 O 299.43 -1.15264 1.56666 0
M  V30 3184 C 299.713 2.07378 2.94391 0
M  V30 3185 C 299.566 3.59678 2.70096 0
M  V30 3186 C 300.885 1.92891 3.95577 0
M  V30 3187 H 298.004 0.445255 0.587296 0
M  V30 3188 H 300.646 1.6177 0.99651 0
M  V30 3189 H 298.796 1.73758 3.47477 0
M  V30 3190 H 300.468 4.03472 2.23625 0
M  V30 3191 H 298.711 3.82735 2.04197 0
M  V30 3192 H 299.382 4.14595 3.64438 0
M  V30 3193 H 301.858 2.22327 3.51724 0
M  V30 3194 H 300.734 2.54781 4.86187 0
M  V30 3195 H 300.995 0.894315 4.3296 0
M  V30 3196 N 300.054 -1.07777 1.14986 0
M  V30 3197 C 300.964 -2.18404 0.856546 0
M  V30 3198 C 301.98 -1.73211 -0.165485 0
M  V30 3199 O 303.156 -2.01399 0.00755219 0
M  V30 3200 C 300.221 -3.44977 0.34526 0
M  V30 3201 C 299.282 -4.0476 1.43065 0
M  V30 3202 C 298.515 -5.25291 0.943663 0
M  V30 3203 O 298.738 -5.70004 -0.212426 0
M  V30 3204 O 297.672 -5.76638 1.72547 0
M  V30 3205 H 301.498 -2.45978 1.78125 0
M  V30 3206 H 299.083 -1.17033 0.928631 0
M  V30 3207 H 300.965 -4.21348 0.0663671 0
M  V30 3208 H 299.64 -3.18965 -0.551631 0
M  V30 3209 H 298.547 -3.29949 1.76309 0
M  V30 3210 H 299.88 -4.35035 2.30229 0
M  V30 3211 N 301.532 -0.945985 -1.26051 0
M  V30 3212 C 302.948 -0.649045 -1.45807 0
M  V30 3213 C 303.148 0.796158 -1.85104 0
M  V30 3214 O 302.204 1.57233 -1.97571 0
M  V30 3215 C 303.517 -1.61458 -2.53677 0
M  V30 3216 C 305.065 -1.62481 -2.67524 0
M  V30 3217 C 305.54 -2.57776 -3.7857 0
M  V30 3218 N 307.031 -2.5609 -3.85969 0
M  V30 3219 C 307.766 -3.26508 -4.7136 0
M  V30 3220 N 307.262 -4.0637 -5.61102 0
M  V30 3221 N 309.055 -3.15437 -4.65248 0
M  V30 3222 H 301.206 -1.88005 -0.988328 0
M  V30 3223 H 303.469 -0.808198 -0.4955 0
M  V30 3224 H 303.175 -2.64644 -2.31638 0
M  V30 3225 H 303.049 -1.37036 -3.51427 0
M  V30 3226 H 305.436 -0.600167 -2.88933 0
M  V30 3227 H 305.517 -1.90958 -1.70202 0
M  V30 3228 H 305.161 -3.60361 -3.57913 0
M  V30 3229 H 305.091 -2.26587 -4.75359 0
M  V30 3230 H 307.582 -1.98105 -3.21812 0
M  V30 3231 H 307.895 -4.57042 -6.23164 0
M  V30 3232 H 306.24 -4.10469 -5.60839 0
M  V30 3233 H 309.431 -2.52525 -3.94143 0
M  V30 3234 H 309.604 -3.70584 -5.31575 0
M  V30 3235 N 303.011 1.40521 -0.713556 0
M  V30 3236 C 304.26 2.00155 -0.249192 0
M  V30 3237 C 304.573 1.57224 1.16362 0
M  V30 3238 O 305.779 2.09542 1.72639 0
M  V30 3239 C 304.235 3.5773 -0.3946 0
M  V30 3240 C 303.843 4.09635 -1.81392 0
M  V30 3241 C 305.587 4.24499 0.00907364 0
M  V30 3242 C 303.494 5.59707 -1.91003 0
M  V30 3243 H 302.424 0.74868 -0.0894114 0
M  V30 3244 H 305.075 1.60784 -0.884352 0
M  V30 3245 H 303.457 3.94792 0.30911 0
M  V30 3246 H 304.631 3.83955 -2.54785 0
M  V30 3247 H 302.946 3.55456 -2.16888 0
M  V30 3248 H 305.543 5.34683 -0.0420404 0
M  V30 3249 H 305.886 4.02824 1.05065 0
M  V30 3250 H 306.419 3.92536 -0.645007 0
M  V30 3251 H 303.158 5.86234 -2.93275 0
M  V30 3252 H 302.678 5.87258 -1.22019 0
M  V30 3253 H 304.357 6.24776 -1.6812 0
M  V30 3254 N 304.489 0.459591 1.5075 0
M  V30 3255 C 305.399 -0.34613 2.32033 0
M  V30 3256 C 306.415 -1.00686 1.41909 0
M  V30 3257 O 307.591 -0.997361 1.7497 0
M  V30 3258 C 304.656 -1.42029 3.16273 0
M  V30 3259 C 303.717 -0.777362 4.22203 0
M  V30 3260 C 302.95 -1.80034 5.02418 0
M  V30 3261 O 303.173 -3.02544 4.83553 0
M  V30 3262 O 302.107 -1.37853 5.85901 0
M  V30 3263 H 305.933 0.318054 3.0203 0
M  V30 3264 H 303.518 0.221663 1.47746 0
M  V30 3265 H 305.4 -2.04275 3.68578 0
M  V30 3266 H 304.075 -2.06815 2.49016 0
M  V30 3267 H 302.982 -0.116256 3.73919 0
M  V30 3268 H 304.315 -0.172634 4.91897 0
M  V30 3269 N 305.967 -1.56429 0.191757 0
M  V30 3270 C 306.897 -2.21937 -0.725696 0
M  V30 3271 C 307.878 -1.1814 -1.2238 0
M  V30 3272 O 309.063 -1.46636 -1.27325 0
M  V30 3273 C 306.193 -2.87611 -1.94672 0
M  V30 3274 C 305.147 -3.97623 -1.58366 0
M  V30 3275 C 304.473 -4.50446 -2.88102 0
M  V30 3276 C 305.773 -5.16197 -0.796133 0
M  V30 3277 H 307.467 -2.98861 -0.179606 0
M  V30 3278 H 305.013 -1.43749 -0.0849464 0
M  V30 3279 H 306.966 -3.3212 -2.59373 0
M  V30 3280 H 305.69 -2.08087 -2.51728 0
M  V30 3281 H 304.349 -3.53801 -0.960247 0
M  V30 3282 H 303.997 -3.67688 -3.43241 0
M  V30 3283 H 303.697 -5.24675 -2.64556 0
M  V30 3284 H 305.221 -4.97654 -3.53798 0
M  V30 3285 H 306.635 -5.57271 -1.34618 0
M  V30 3286 H 305.032 -5.96471 -0.658928 0
M  V30 3287 H 306.102 -4.84473 0.203478 0
M  V30 3288 N 307.445 0.0818655 -1.57387 0
M  V30 3289 C 308.856 0.634871 -1.75574 0
M  V30 3290 C 309.207 1.78435 -0.815809 0
M  V30 3291 O 308.332 2.164 0.0025366 0
M  V30 3292 C 308.927 1.15845 -3.18379 0
M  V30 3293 C 307.486 1.65741 -3.37945 0
M  V30 3294 C 306.633 0.572549 -2.71325 0
M  V30 3295 H 309.584 -0.144268 -1.58043 0
M  V30 3296 H 309.605 2.02751 -3.21982 0
M  V30 3297 H 309.117 0.321631 -3.86765 0
M  V30 3298 H 307.218 2.51781 -2.74658 0
M  V30 3299 H 307.331 1.74129 -4.46336 0
M  V30 3300 H 305.695 1.01518 -2.33594 0
M  V30 3301 H 306.478 -0.253918 -3.4236 0
M  V30 3302 N 308.923 1.53595 0.353017 0
M  V30 3303 C 309.855 1.77219 1.45348 0
M  V30 3304 C 310.868 0.65324 1.49119 0
M  V30 3305 O 312.057 0.929775 1.52373 0
M  V30 3306 C 309.157 1.84841 2.84055 0
M  V30 3307 C 308.33 3.14649 3.03833 0
M  V30 3308 C 307.389 3.13351 4.22727 0
M  V30 3309 O 306.415 3.87107 4.17297 0
M  V30 3310 N 307.617 2.35052 5.30783 0
M  V30 3311 H 310.382 2.72178 1.25457 0
M  V30 3312 H 307.943 1.52528 0.542833 0
M  V30 3313 H 309.935 1.81435 3.61751 0
M  V30 3314 H 308.505 0.971114 2.97133 0
M  V30 3315 H 307.725 3.31256 2.13689 0
M  V30 3316 H 309.013 4.00411 3.13925 0
M  V30 3317 H 308.411 1.74663 5.38061 0
M  V30 3318 H 306.968 2.37453 6.07009 0
M  V30 3319 N 310.401 -0.613514 1.45168 0
M  V30 3320 C 311.648 -1.37268 1.48875 0
M  V30 3321 C 311.976 -1.94077 0.128161 0
M  V30 3322 O 311.231 -1.75178 -0.872416 0
M  V30 3323 C 311.53 -2.54347 2.51083 0
M  V30 3324 C 311.196 -2.1572 3.95949 0
M  V30 3325 C 309.858 -2.04899 4.35396 0
M  V30 3326 C 312.21 -1.85485 4.87078 0
M  V30 3327 C 309.538 -1.62057 5.63875 0
M  V30 3328 C 311.89 -1.4413 6.15962 0
M  V30 3329 C 310.554 -1.31863 6.54346 0
M  V30 3330 H 309.824 -0.502299 0.544773 0
M  V30 3331 H 312.471 -0.694021 1.78481 0
M  V30 3332 H 310.776 -3.27524 2.15024 0
M  V30 3333 H 312.473 -3.12577 2.51191 0
M  V30 3334 H 309.063 -2.25066 3.64751 0
M  V30 3335 H 313.247 -1.92745 4.57343 0
M  V30 3336 H 308.503 -1.51177 5.92415 0
M  V30 3337 H 312.677 -1.19778 6.86022 0
M  V30 3338 H 310.304 -0.984392 7.538 0
M  V30 3339 N 311.879 -1.3236 -0.855495 0
M  V30 3340 C 313.104 -1.2601 -1.64731 0
M  V30 3341 C 313.529 0.169068 -1.87339 0
M  V30 3342 O 312.887 1.12016 -1.42556 0
M  V30 3343 C 312.935 -2.02417 -2.98429 0
M  V30 3344 O 312.039 -1.3714 -3.8893 0
M  V30 3345 H 311.38 -0.434325 -0.502253 0
M  V30 3346 H 313.91 -1.74661 -1.06558 0
M  V30 3347 H 313.92 -2.12559 -3.48257 0
M  V30 3348 H 312.595 -3.06343 -2.81295 0
M  V30 3349 H 311.172 -1.3554 -3.47395 0
M  V30 3350 N 313.357 1.07166 -1.15556 0
M  V30 3351 C 314.606 1.79181 -0.926132 0
M  V30 3352 C 314.919 1.87768 0.547967 0
M  V30 3353 O 316.125 2.56323 0.895036 0
M  V30 3354 C 314.581 3.22 -1.60761 0
M  V30 3355 C 314.189 3.21607 -3.11886 0
M  V30 3356 C 315.933 3.9861 -1.4598 0
M  V30 3357 C 313.84 4.59092 -3.72812 0
M  V30 3358 H 312.77 0.67154 -0.342856 0
M  V30 3359 H 315.421 1.2027 -1.3859 0
M  V30 3360 H 313.803 3.81115 -1.07553 0
M  V30 3361 H 314.977 2.72127 -3.71865 0
M  V30 3362 H 313.292 2.58495 -3.2645 0
M  V30 3363 H 315.889 5.00225 -1.88888 0
M  V30 3364 H 316.232 4.143 -0.407541 0
M  V30 3365 H 316.765 3.45996 -1.96295 0
M  V30 3366 H 313.504 4.48606 -4.77946 0
M  V30 3367 H 313.024 5.08803 -3.17616 0
M  V30 3368 H 314.703 5.28059 -3.73848 0
M  V30 3369 N 314.835 0.952656 1.25548 0
M  V30 3370 C 316.081 0.607272 1.93494 0
M  V30 3371 C 316.414 -0.853245 1.74452 0
M  V30 3372 O 315.689 -1.61194 1.08843 0
M  V30 3373 C 315.972 0.96435 3.46947 0
M  V30 3374 C 315.825 2.48045 3.75225 0
M  V30 3375 C 317.144 0.487987 4.37386 0
M  V30 3376 H 314.263 0.222096 0.702739 0
M  V30 3377 H 316.905 1.18895 1.48203 0
M  V30 3378 H 315.055 0.469361 3.85654 0
M  V30 3379 H 316.727 3.04905 3.46166 0
M  V30 3380 H 314.97 2.919 3.209 0
M  V30 3381 H 315.641 2.6808 4.82532 0
M  V30 3382 H 318.117 0.912558 4.0597 0
M  V30 3383 H 316.993 0.766547 5.43521 0
M  V30 3384 H 317.254 -0.612063 4.37843 0
M  V30 3385 N 316.313 -1.40141 0.720998 0
M  V30 3386 C 317.223 -2.34486 0.0731031 0
M  V30 3387 C 318.239 -1.57587 -0.737723 0
M  V30 3388 O 319.415 -1.89949 -0.669429 0
M  V30 3389 C 316.48 -3.36528 -0.833656 0
M  V30 3390 C 315.541 -4.29298 -0.0121673 0
M  V30 3391 C 314.774 -5.26466 -0.875742 0
M  V30 3392 O 314.997 -5.29745 -2.11485 0
M  V30 3393 O 313.931 -6.01092 -0.31185 0
M  V30 3394 H 317.757 -2.9152 0.851444 0
M  V30 3395 H 315.342 -1.41427 0.481527 0
M  V30 3396 H 317.224 -3.99093 -1.35289 0
M  V30 3397 H 315.899 -2.81899 -1.59105 0
M  V30 3398 H 314.806 -3.70001 0.552262 0
M  V30 3399 H 316.139 -4.87094 0.707129 0
M  V30 3400 N 317.792 -0.46758 -1.50504 0
M  V30 3401 C 318.742 0.34698 -2.25344 0
M  V30 3402 C 319.726 0.964469 -1.2879 0
M  V30 3403 O 320.918 0.8776 -1.53711 0
M  V30 3404 C 318.047 1.43042 -3.1208 0
M  V30 3405 C 317.133 0.82084 -4.16081 0
M  V30 3406 N 317.524 -0.0567602 -5.05768 0
M  V30 3407 C 315.822 1.08517 -4.32597 0
M  V30 3408 C 316.523 -0.402343 -5.80307 0
M  V30 3409 N 315.499 0.221607 -5.43148 0
M  V30 3410 H 319.301 -0.329129 -2.92051 0
M  V30 3411 H 316.815 -0.281508 -1.59942 0
M  V30 3412 H 318.812 2.02712 -3.64299 0
M  V30 3413 H 317.472 2.10856 -2.46921 0
M  V30 3414 H 318.483 -0.425349 -5.1615 0
M  V30 3415 H 315.16 1.75855 -3.78657 0
M  V30 3416 H 316.55 -1.11834 -6.62528 0
M  V30 3417 N 319.27 1.56325 -0.20005 0
M  V30 3418 C 320.686 1.58839 0.155716 0
M  V30 3419 C 320.886 1.21636 1.60645 0
M  V30 3420 O 319.942 0.941437 2.34293 0
M  V30 3421 C 321.255 3.0032 -0.151124 0
M  V30 3422 C 322.803 3.12866 -0.0916284 0
M  V30 3423 C 323.278 4.56488 -0.371845 0
M  V30 3424 N 324.769 4.62089 -0.320641 0
M  V30 3425 C 325.504 5.71116 -0.511243 0
M  V30 3426 N 325 6.88592 -0.762461 0
M  V30 3427 N 326.793 5.60335 -0.445157 0
M  V30 3428 H 318.944 1.78788 -1.14668 0
M  V30 3429 H 321.207 0.829996 -0.458051 0
M  V30 3430 H 320.913 3.32117 -1.15721 0
M  V30 3431 H 320.787 3.73257 0.543986 0
M  V30 3432 H 323.174 2.80878 0.905065 0
M  V30 3433 H 323.255 2.42304 -0.81989 0
M  V30 3434 H 322.899 4.89189 -1.36588 0
M  V30 3435 H 322.829 5.25246 0.377362 0
M  V30 3436 H 325.32 3.77665 -0.13329 0
M  V30 3437 H 325.633 7.67581 -0.896576 0
M  V30 3438 H 323.978 6.90387 -0.799412 0
M  V30 3439 H 327.169 4.67436 -0.249278 0
M  V30 3440 H 327.342 6.45243 -0.597116 0
M  V30 3441 N 320.748 -0.0735177 1.57428 0
M  V30 3442 C 321.678 -1.0879 2.06608 0
M  V30 3443 C 322.659 -1.40473 0.959237 0
M  V30 3444 O 323.844 -1.5013 1.23185 0
M  V30 3445 C 320.974 -2.40183 2.50857 0
M  V30 3446 C 319.928 -2.22858 3.65402 0
M  V30 3447 C 319.254 -3.59619 3.957 0
M  V30 3448 C 320.554 -1.65123 4.95511 0
M  V30 3449 H 322.248 -0.678673 2.91607 0
M  V30 3450 H 319.794 -0.325013 1.40284 0
M  V30 3451 H 321.747 -3.11437 2.83874 0
M  V30 3452 H 320.471 -2.83083 1.62885 0
M  V30 3453 H 319.13 -1.54045 3.32664 0
M  V30 3454 H 318.778 -4.00086 3.04861 0
M  V30 3455 H 318.478 -3.48866 4.72828 0
M  V30 3456 H 320.002 -4.32306 4.31212 0
M  V30 3457 H 321.416 -2.26241 5.26771 0
M  V30 3458 H 319.813 -1.65071 5.7695 0
M  V30 3459 H 320.883 -0.612559 4.81015 0
M  V30 3460 N 322.226 -1.5378 -0.344866 0
M  V30 3461 C 323.472 -1.71216 -1.08687 0
M  V30 3462 C 323.805 -0.473281 -1.88345 0
M  V30 3463 O 323.08 0.52968 -1.87149 0
M  V30 3464 C 323.363 -2.97486 -2.02914 0
M  V30 3465 C 323.216 -4.31579 -1.26727 0
M  V30 3466 C 324.535 -3.19422 -3.0275 0
M  V30 3467 H 321.654 -0.62301 -0.393735 0
M  V30 3468 H 324.296 -1.8645 -0.365563 0
M  V30 3469 H 322.446 -2.84629 -2.64421 0
M  V30 3470 H 324.118 -4.56284 -0.67845 0
M  V30 3471 H 322.361 -4.30049 -0.569273 0
M  V30 3472 H 323.032 -5.16106 -1.95803 0
M  V30 3473 H 325.508 -3.316 -2.51357 0
M  V30 3474 H 324.384 -4.09169 -3.65885 0
M  V30 3475 H 324.645 -2.35656 -3.74057 0
M  V30 3476 N 323.704 0.605807 -1.45491 0
M  V30 3477 C 324.929 1.39625 -1.53361 0
M  V30 3478 C 325.354 1.87351 -0.167645 0
M  V30 3479 O 324.712 1.60243 0.848051 0
M  V30 3480 C 324.76 2.57559 -2.5238 0
M  V30 3481 O 323.864 3.58248 -2.04285 0
M  V30 3482 H 323.205 0.416771 -0.516912 0
M  V30 3483 H 325.735 0.737103 -1.90861 0
M  V30 3484 H 325.745 3.0478 -2.71244 0
M  V30 3485 H 324.42 2.22171 -3.51586 0
M  V30 3486 H 322.997 3.17664 -1.95305 0
M  V30 3487 N 325.182 1.32811 0.848464 0
M  V30 3488 C 326.598 1.11937 1.13764 0
M  V30 3489 C 326.798 -0.0960789 2.01271 0
M  V30 3490 O 325.854 -0.779165 2.40178 0
M  V30 3491 C 327.167 2.402 1.809 0
M  V30 3492 C 328.715 2.46016 1.93508 0
M  V30 3493 C 329.19 3.74215 2.64059 0
M  V30 3494 N 330.681 3.75232 2.71579 0
M  V30 3495 C 331.416 4.71134 3.26833 0
M  V30 3496 N 330.912 5.77406 3.8285 0
M  V30 3497 N 332.705 4.58623 3.24995 0
M  V30 3498 H 324.856 2.1073 0.265855 0
M  V30 3499 H 327.119 0.930671 0.180431 0
M  V30 3500 H 326.825 3.29093 1.24058 0
M  V30 3501 H 326.699 2.51628 2.81004 0
M  V30 3502 H 329.086 1.57577 2.49506 0
M  V30 3503 H 329.167 2.38536 0.923811 0
M  V30 3504 H 328.811 4.63031 2.08722 0
M  V30 3505 H 328.741 3.78968 3.65637 0
M  V30 3506 H 331.232 2.98423 2.31845 0
M  V30 3507 H 331.545 6.46632 4.23187 0
M  V30 3508 H 329.89 5.81152 3.81165 0
M  V30 3509 H 333.081 3.74762 2.80484 0
M  V30 3510 H 333.254 5.33535 3.67756 0
M  V30 3511 N 326.66 -1.06551 1.16123 0
M  V30 3512 C 327.608 -2.16063 0.861371 0
M  V30 3513 C 328.602 -1.6856 -0.168517 0
M  V30 3514 O 329.808 -1.79986 -0.0227579 0
M  V30 3515 H 326.183 -0.705278 0.260934 0
M  V30 3516 H 328.154 -2.38567 1.79244 0
M  V30 3517 C 326.903 -3.45661 0.376018 0
M  V30 3518 H 326.226 -3.82604 1.15992 0
M  V30 3519 H 327.666 -4.23504 0.204951 0
M  V30 3520 C 326.125 -3.24546 -0.903954 0
M  V30 3521 O 326.655 -3.49865 -1.97377 0
M  V30 3522 N 324.861 -2.77992 -0.846679 0
M  V30 3523 H 324.408 -2.57589 0.0241017 0
M  V30 3524 H 324.366 -2.64244 -1.70359 0
M  V30 3525 N 328.138 -0.959301 -1.25041 0
M  V30 3526 C 329.384 -0.617525 -1.9317 0
M  V30 3527 C 329.717 0.843981 -1.74902 0
M  V30 3528 O 328.992 1.60615 -1.09696 0
M  V30 3529 C 329.275 -0.982736 -3.46431 0
M  V30 3530 C 329.128 -2.50032 -3.73904 0
M  V30 3531 C 330.447 -0.511176 -4.37121 0
M  V30 3532 H 327.566 -0.22582 -0.701552 0
M  V30 3533 H 330.208 -1.19679 -1.4757 0
M  V30 3534 H 328.358 -0.489806 -3.854 0
M  V30 3535 H 330.03 -3.06737 -3.44544 0
M  V30 3536 H 328.273 -2.93598 -3.19348 0
M  V30 3537 H 328.944 -2.70635 -4.81103 0
M  V30 3538 H 331.42 -0.934075 -4.0548 0
M  V30 3539 H 330.296 -0.795361 -5.43107 0
M  V30 3540 H 330.557 0.588834 -4.38161 0
M  V30 3541 N 329.616 1.39756 -0.72842 0
M  V30 3542 C 330.862 2.00942 -0.273892 0
M  V30 3543 C 331.195 1.57656 1.13394 0
M  V30 3544 O 330.47 0.802434 1.77176 0
M  V30 3545 C 330.753 3.58211 -0.368346 0
M  V30 3546 C 330.606 4.11534 -1.81548 0
M  V30 3547 C 331.925 4.39372 0.253054 0
M  V30 3548 H 329.044 0.730047 -0.100996 0
M  V30 3549 H 331.686 1.66056 -0.923337 0
M  V30 3550 H 329.836 3.88061 0.184588 0
M  V30 3551 H 331.508 3.92431 -2.42478 0
M  V30 3552 H 329.751 3.65341 -2.33898 0
M  V30 3553 H 330.422 5.20682 -1.83288 0
M  V30 3554 H 332.898 4.15527 -0.218224 0
M  V30 3555 H 331.774 5.48677 0.156585 0
M  V30 3556 H 332.035 4.21358 1.33826 0
M  V30 3557 N 331.094 0.475555 1.50254 0
M  V30 3558 C 332.341 -0.0778919 2.0235 0
M  V30 3559 C 332.669 -1.39319 1.35722 0
M  V30 3560 O 331.924 -1.89888 0.473395 0
M  V30 3561 C 332.223 -0.305114 3.56095 0
M  V30 3562 C 331.889 0.92903 4.41225 0
M  V30 3563 C 330.551 1.26739 4.6421 0
M  V30 3564 C 332.903 1.75054 4.90923 0
M  V30 3565 C 330.231 2.42724 5.34137 0
M  V30 3566 C 332.583 2.9017 5.62125 0
M  V30 3567 C 331.247 3.24416 5.83362 0
M  V30 3568 H 330.517 -0.0285027 0.740452 0
M  V30 3569 H 333.164 0.630543 1.80821 0
M  V30 3570 H 331.469 -1.09584 3.76163 0
M  V30 3571 H 333.166 -0.747377 3.93974 0
M  V30 3572 H 329.756 0.655428 4.23559 0
M  V30 3573 H 333.94 1.50231 4.73016 0
M  V30 3574 H 329.196 2.69525 5.48786 0
M  V30 3575 H 333.37 3.54169 5.99614 0
M  V30 3576 H 330.997 4.14396 6.37323 0
M  V30 3577 N 332.573 -1.56217 0.208337 0
M  V30 3578 C 333.536 -2.18455 -0.693557 0
M  V30 3579 C 334.536 -1.14268 -1.13135 0
M  V30 3580 O 335.726 -1.39577 -1.0423 0
M  V30 3581 C 332.858 -2.79727 -1.94848 0
M  V30 3582 H 334.051 -2.99519 -0.15114 0
M  V30 3583 H 331.604 -1.56245 -0.041287 0
M  V30 3584 H 332.339 -2.02497 -2.53309 0
M  V30 3585 H 332.124 -3.56009 -1.64316 0
M  V30 3586 H 333.614 -3.27475 -2.59133 0
M  V30 3587 N 334.051 0.0651679 -1.57465 0
M  V30 3588 C 335.279 0.775808 -1.91804 0
M  V30 3589 C 335.694 1.70782 -0.804916 0
M  V30 3590 O 335.051 1.81153 0.221311 0
M  V30 3591 C 335.102 1.56381 -3.25925 0
M  V30 3592 O 334.823 0.669248 -4.32958 0
M  V30 3593 C 336.324 2.37485 -3.7432 0
M  V30 3594 H 333.544 0.2202 -0.63384 0
M  V30 3595 H 336.088 0.0334587 -2.04473 0
M  V30 3596 H 334.243 2.25837 -3.14764 0
M  V30 3597 H 334.657 1.21801 -5.10162 0
M  V30 3598 H 336.131 2.88223 -4.70778 0
M  V30 3599 H 336.608 3.17307 -3.03666 0
M  V30 3600 H 337.214 1.73173 -3.88447 0
M  V30 3601 N 335.529 1.53961 0.336706 0
M  V30 3602 C 336.777 1.71197 1.07405 0
M  V30 3603 C 337.098 0.481475 1.88962 0
M  V30 3604 O 336.368 -0.504585 1.8929 0
M  V30 3605 H 334.948 0.631185 0.399517 0
M  V30 3606 H 337.61 1.91232 0.376323 0
M  V30 3607 H 336.706 2.58587 1.74755 0
M  V30 3608 N 337.007 -0.598083 1.45811 0
M  V30 3609 C 337.97 -1.69018 1.54808 0
M  V30 3610 C 338.97 -1.55037 0.426652 0
M  V30 3611 O 340.16 -1.59932 0.690456 0
M  V30 3612 C 337.292 -3.0835 1.45371 0
M  V30 3613 H 338.485 -1.62403 2.52121 0
M  V30 3614 H 336.038 -0.814626 1.33392 0
M  V30 3615 H 336.773 -3.20534 0.492793 0
M  V30 3616 H 336.558 -3.19907 2.26721 0
M  V30 3617 H 338.048 -3.8788 1.54721 0
M  V30 3618 N 338.485 -1.33259 -0.841409 0
M  V30 3619 C 339.715 -1.2742 -1.62628 0
M  V30 3620 C 340.123 0.157604 -1.88542 0
M  V30 3621 O 339.466 1.10938 -1.46419 0
M  V30 3622 C 339.528 -1.97797 -3.00194 0
M  V30 3623 C 339.192 -3.47109 -2.97261 0
M  V30 3624 C 340.189 -4.42358 -2.73159 0
M  V30 3625 C 337.874 -3.89247 -3.17478 0
M  V30 3626 C 339.868 -5.77718 -2.69296 0
M  V30 3627 C 337.555 -5.24713 -3.13241 0
M  V30 3628 C 338.553 -6.1876 -2.89181 0
M  V30 3629 O 338.241 -7.51745 -2.84843 0
M  V30 3630 H 337.973 -0.440436 -0.512827 0
M  V30 3631 H 340.527 -1.76153 -1.05638 0
M  V30 3632 H 338.757 -1.43652 -3.59028 0
M  V30 3633 H 340.446 -1.8549 -3.61038 0
M  V30 3634 H 341.212 -4.11127 -2.57294 0
M  V30 3635 H 337.091 -3.16456 -3.35226 0
M  V30 3636 H 340.635 -6.51097 -2.50436 0
M  V30 3637 H 336.532 -5.55569 -3.28654 0
M  V30 3638 H 337.3 -7.61262 -3.00702 0
M  V30 3639 N 339.963 1.05934 -1.16686 0
M  V30 3640 C 341.374 1.60263 -0.957745 0
M  V30 3641 C 341.725 1.89789 0.49745 0
M  V30 3642 O 340.85 1.67401 1.37135 0
M  V30 3643 C 341.445 2.91172 -1.73218 0
M  V30 3644 C 340.004 3.42188 -1.56794 0
M  V30 3645 C 339.151 2.16028 -1.73859 0
M  V30 3646 H 342.102 0.888392 -1.31504 0
M  V30 3647 H 342.123 3.60744 -1.21014 0
M  V30 3648 H 341.635 2.6965 -2.79124 0
M  V30 3649 H 339.736 3.68762 -0.533437 0
M  V30 3650 H 339.849 4.17273 -2.35414 0
M  V30 3651 H 338.213 2.26426 -1.16633 0
M  V30 3652 H 338.996 1.96985 -2.81161 0
M  V30 3653 N 341.441 0.965919 1.2453 0
M  V30 3654 C 342.857 0.67216 1.44756 0
M  V30 3655 C 343.057 -0.766609 1.86347 0
M  V30 3656 O 342.113 -1.5407 2.00047 0
M  V30 3657 C 343.426 1.65473 2.51076 0
M  V30 3658 C 344.974 1.66716 2.64905 0
M  V30 3659 C 345.449 2.63766 3.74421 0
M  V30 3660 N 346.94 2.62198 3.81846 0
M  V30 3661 C 347.675 3.33966 4.66106 0
M  V30 3662 N 347.171 4.15245 5.54566 0
M  V30 3663 N 348.964 3.22799 4.60171 0
M  V30 3664 H 341.115 1.89553 0.958293 0
M  V30 3665 H 343.378 0.815979 0.482579 0
M  V30 3666 H 343.084 2.68296 2.27399 0
M  V30 3667 H 342.958 1.4261 3.49202 0
M  V30 3668 H 345.345 0.646057 2.87941 0
M  V30 3669 H 345.426 1.93642 1.67142 0
M  V30 3670 H 345.07 3.6601 3.52135 0
M  V30 3671 H 345 2.34121 4.71694 0
M  V30 3672 H 347.491 2.032 3.18619 0
M  V30 3673 H 347.804 4.66898 6.15814 0
M  V30 3674 H 346.149 4.1934 5.54237 0
M  V30 3675 H 349.34 2.58764 3.90075 0
M  V30 3676 H 349.513 3.78994 5.25612 0
M  V30 3677 N 342.919 -1.39368 0.735821 0
M  V30 3678 C 343.849 -2.33234 0.111506 0
M  V30 3679 C 344.83 -1.53954 -0.723334 0
M  V30 3680 O 346.015 -1.82344 -0.668147 0
M  V30 3681 C 343.145 -3.38057 -0.795917 0
M  V30 3682 C 342.099 -4.2795 -0.065172 0
M  V30 3683 C 341.425 -5.23479 -1.08967 0
M  V30 3684 C 342.725 -5.10741 1.09273 0
M  V30 3685 H 344.419 -2.85692 0.895571 0
M  V30 3686 H 341.965 -1.37364 0.432109 0
M  V30 3687 H 343.918 -4.02675 -1.24221 0
M  V30 3688 H 342.642 -2.8404 -1.61211 0
M  V30 3689 H 341.301 -3.64813 0.361511 0
M  V30 3690 H 340.949 -4.65758 -1.89944 0
M  V30 3691 H 340.649 -5.84472 -0.605489 0
M  V30 3692 H 342.173 -5.90974 -1.53565 0
M  V30 3693 H 343.587 -5.68699 0.724841 0
M  V30 3694 H 341.984 -5.8088 1.50659 0
M  V30 3695 H 343.054 -4.45525 1.91404 0
M  V30 3696 N 344.397 -0.483516 -1.5 0
M  V30 3697 C 345.622 0.0667119 -2.07293 0
M  V30 3698 C 346.047 1.3164 -1.3436 0
M  V30 3699 O 345.405 1.76945 -0.394987 0
M  V30 3700 C 345.453 0.321126 -3.59167 0
M  V30 3701 O 344.557 1.39927 -3.87936 0
M  V30 3702 H 343.898 -0.0184758 -0.663743 0
M  V30 3703 H 346.428 -0.678125 -1.93035 0
M  V30 3704 H 346.438 0.557906 -4.04168 0
M  V30 3705 H 345.113 -0.592007 -4.11665 0
M  V30 3706 H 343.69 1.14882 -3.54763 0
M  V30 3707 N 345.875 1.56104 -0.216619 0
M  V30 3708 C 346.805 2.23063 0.690296 0
M  V30 3709 C 347.786 1.20072 1.20485 0
M  V30 3710 O 348.971 1.48643 1.24976 0
M  V30 3711 C 346.101 2.90672 1.90072 0
M  V30 3712 C 345.055 4.00092 1.5202 0
M  V30 3713 C 344.381 4.54972 2.80899 0
M  V30 3714 C 345.681 5.17398 0.71391 0
M  V30 3715 H 347.375 2.99109 0.132038 0
M  V30 3716 H 344.921 1.43866 0.0620664 0
M  V30 3717 H 346.874 3.36204 2.54057 0
M  V30 3718 H 345.598 2.12066 2.48386 0
M  V30 3719 H 344.257 3.55283 0.903839 0
M  V30 3720 H 343.905 3.73102 3.37348 0
M  V30 3721 H 343.605 5.28817 2.56176 0
M  V30 3722 H 345.129 5.0322 3.45836 0
M  V30 3723 H 346.543 5.59342 1.25735 0
M  V30 3724 H 344.94 5.97444 0.563951 0
M  V30 3725 H 346.01 4.84088 -0.280527 0
M  V30 3726 N 347.353 -0.0568162 1.57498 0
M  V30 3727 C 348.578 -0.769402 1.92601 0
M  V30 3728 C 349.003 -1.69559 0.814336 0
M  V30 3729 O 348.361 -1.79811 -0.231903 0
M  V30 3730 C 348.409 -1.52634 3.26704 0
M  V30 3731 O 347.513 -2.63797 3.16994 0
M  V30 3732 H 346.854 -0.208909 0.63028 0
M  V30 3733 H 349.384 -0.0205798 2.0459 0
M  V30 3734 H 349.394 -1.90234 3.60936 0
M  V30 3735 H 348.069 -0.846875 4.07186 0
M  V30 3736 H 346.646 -2.28943 2.94346 0
M  V30 3737 N 348.832 -1.54138 -0.328536 0
M  V30 3738 C 350.079 -1.72105 -1.06706 0
M  V30 3739 C 350.407 -0.492111 -1.88171 0
M  V30 3740 O 349.662 0.526153 -1.88494 0
M  V30 3741 C 349.961 -2.9457 -2.02393 0
M  V30 3742 C 349.627 -4.29544 -1.37122 0
M  V30 3743 C 348.289 -4.6624 -1.19052 0
M  V30 3744 C 350.641 -5.1333 -0.902331 0
M  V30 3745 C 347.969 -5.84325 -0.527331 0
M  V30 3746 C 350.321 -6.32094 -0.252988 0
M  V30 3747 C 348.985 -6.67473 -0.0600901 0
M  V30 3748 H 348.255 -0.629775 -0.390466 0
M  V30 3749 H 350.902 -1.88372 -0.34473 0
M  V30 3750 H 349.207 -2.72969 -2.81061 0
M  V30 3751 H 350.904 -3.05665 -2.59557 0
M  V30 3752 H 347.494 -4.0067 -1.52188 0
M  V30 3753 H 351.678 -4.855 -1.02974 0
M  V30 3754 H 346.934 -6.103 -0.366634 0
M  V30 3755 H 351.108 -6.96299 0.118366 0
M  V30 3756 H 348.735 -7.58832 0.455828 0
M  V30 3757 N 350.31 0.590341 -1.46126 0
M  V30 3758 C 351.726 0.912917 -1.30912 0
M  V30 3759 C 351.926 1.99616 -0.274893 0
M  V30 3760 O 350.982 2.50397 0.325197 0
M  V30 3761 C 352.295 1.3375 -2.69317 0
M  V30 3762 C 353.843 1.45077 -2.77348 0
M  V30 3763 C 354.318 1.90904 -4.16317 0
M  V30 3764 N 355.809 1.9811 -4.18696 0
M  V30 3765 C 356.544 2.34828 -5.23109 0
M  V30 3766 N 356.04 2.70393 -6.37856 0
M  V30 3767 N 357.833 2.35317 -5.10473 0
M  V30 3768 H 349.984 -0.125358 -2.1203 0
M  V30 3769 H 352.247 0.00658481 -0.947977 0
M  V30 3770 H 351.953 0.615614 -3.4627 0
M  V30 3771 H 351.827 2.30058 -2.9892 0
M  V30 3772 H 354.214 2.16353 -2.00687 0
M  V30 3773 H 354.295 0.4704 -2.51438 0
M  V30 3774 H 353.939 1.20209 -4.9347 0
M  V30 3775 H 353.869 2.89886 -4.39629 0
M  V30 3776 H 356.36 1.73146 -3.359 0
M  V30 3777 H 356.673 2.97341 -7.13308 0
M  V30 3778 H 355.018 2.68048 -6.41229 0
M  V30 3779 H 358.209 2.0695 -4.19868 0
M  V30 3780 H 358.382 2.63605 -5.9196 0
M  V30 3781 N 351.788 1.33704 0.83433 0
M  V30 3782 C 352.718 1.26967 1.95963 0
M  V30 3783 C 353.699 0.149337 1.69443 0
M  V30 3784 O 354.884 0.339852 1.91203 0
M  V30 3785 C 352.014 1.01275 3.32206 0
M  V30 3786 C 350.968 2.09652 3.73136 0
M  V30 3787 C 350.294 1.69166 5.07235 0
M  V30 3788 C 351.594 3.51372 3.86439 0
M  V30 3789 H 353.288 2.2112 2.01857 0
M  V30 3790 H 350.834 1.06447 0.969793 0
M  V30 3791 H 352.787 0.952106 4.10503 0
M  V30 3792 H 351.511 0.0356203 3.26581 0
M  V30 3793 H 350.17 2.14766 2.97104 0
M  V30 3794 H 349.818 0.701437 4.98085 0
M  V30 3795 H 349.518 2.41694 5.35591 0
M  V30 3796 H 351.042 1.64576 5.88003 0
M  V30 3797 H 352.456 3.48734 4.55036 0
M  V30 3798 H 350.853 4.22425 4.26236 0
M  V30 3799 H 351.923 3.89546 2.88759 0
M  V30 3800 N 353.266 -1.05314 1.17247 0
M  V30 3801 C 354.213 -2.13031 0.888058 0
M  V30 3802 C 355.183 -1.65253 -0.167537 0
M  V30 3803 O 356.368 -1.90775 -0.0305974 0
M  V30 3804 C 353.508 -3.42702 0.406147 0
M  V30 3805 C 352.621 -4.04161 1.52572 0
M  V30 3806 C 351.756 -5.21744 0.997808 0
M  V30 3807 C 350.795 -5.75207 2.09291 0
M  V30 3808 N 349.932 -6.84094 1.57986 0
M  V30 3809 H 354.772 -2.36698 1.81048 0
M  V30 3810 H 352.309 -1.16121 0.903013 0
M  V30 3811 H 354.267 -4.17059 0.108305 0
M  V30 3812 H 352.897 -3.19222 -0.479313 0
M  V30 3813 H 351.949 -3.27253 1.93931 0
M  V30 3814 H 353.261 -4.39881 2.35172 0
M  V30 3815 H 352.415 -6.03168 0.653739 0
M  V30 3816 H 351.154 -4.87495 0.141232 0
M  V30 3817 H 350.159 -4.92414 2.44557 0
M  V30 3818 H 351.384 -6.11505 2.95362 0
M  V30 3819 H 349.33 -6.51745 0.74598 0
M  V30 3820 H 349.247 -7.18811 2.34195 0
M  V30 3821 H 350.515 -7.69172 1.26468 0
M  V30 3822 N 354.744 -0.972509 -1.24016 0
M  V30 3823 C 356.16 -0.679827 -1.44397 0
M  V30 3824 C 356.36 0.756716 -1.86751 0
M  V30 3825 O 355.416 1.53007 -2.00861 0
M  V30 3826 C 356.729 -1.66803 -2.50195 0
M  V30 3827 C 358.277 -1.68119 -2.64017 0
M  V30 3828 C 358.752 -2.65748 -3.73017 0
M  V30 3829 N 360.243 -2.64219 -3.8045 0
M  V30 3830 C 360.978 -3.36433 -4.64328 0
M  V30 3831 N 360.474 -4.1818 -5.52356 0
M  V30 3832 N 362.267 -3.25235 -4.58453 0
M  V30 3833 H 354.418 -1.90059 -0.948228 0
M  V30 3834 H 356.681 -0.818527 -0.478245 0
M  V30 3835 H 356.387 -2.69498 -2.25973 0
M  V30 3836 H 356.261 -1.4446 -3.48441 0
M  V30 3837 H 358.648 -0.661319 -2.87594 0
M  V30 3838 H 358.729 -1.94525 -1.66113 0
M  V30 3839 H 358.373 -3.67872 -3.50189 0
M  V30 3840 H 358.303 -2.36619 -4.70446 0
M  V30 3841 H 360.794 -2.04887 -3.17537 0
M  V30 3842 H 361.107 -4.70157 -6.13329 0
M  V30 3843 H 359.452 -4.22273 -5.52006 0
M  V30 3844 H 362.643 -2.60829 -3.88698 0
M  V30 3845 H 362.816 -3.81776 -5.23594 0
M  V30 3846 N 356.222 1.38976 -0.743202 0
M  V30 3847 C 357.17 2.32394 -0.0978389 0
M  V30 3848 C 358.164 1.53486 0.716824 0
M  V30 3849 O 359.37 1.69092 0.617088 0
M  V30 3850 H 355.745 0.75189 -0.0128402 0
M  V30 3851 H 357.716 2.84441 -0.901981 0
M  V30 3852 C 356.465 3.38629 0.789036 0
M  V30 3853 H 355.788 3.99432 0.171559 0
M  V30 3854 H 357.228 4.06426 1.20807 0
M  V30 3855 C 355.687 2.76347 1.92702 0
M  V30 3856 O 356.217 2.64836 3.02034 0
M  V30 3857 N 354.423 2.34311 1.71891 0
M  V30 3858 H 353.97 2.43873 0.829675 0
M  V30 3859 H 353.928 1.9298 2.48205 0
M  V30 3860 N 357.7 0.491464 1.49741 0
M  V30 3861 C 358.949 -0.0582189 2.01616 0
M  V30 3862 C 359.262 -1.38927 1.3769 0
M  V30 3863 O 360.468 -2.02509 1.80838 0
M  V30 3864 C 358.924 -0.154235 3.59569 0
M  V30 3865 C 358.532 1.1696 4.32463 0
M  V30 3866 C 360.276 -0.65479 4.1942 0
M  V30 3867 C 358.183 1.03627 5.8225 0
M  V30 3868 H 357.113 -0.0255317 0.753568 0
M  V30 3869 H 359.764 0.629445 1.72367 0
M  V30 3870 H 358.146 -0.906138 3.85493 0
M  V30 3871 H 359.32 1.93405 4.18248 0
M  V30 3872 H 357.635 1.60285 3.84315 0
M  V30 3873 H 360.232 -0.771903 5.29099 0
M  V30 3874 H 360.575 -1.65127 3.8215 0
M  V30 3875 H 361.108 0.040304 3.9778 0
M  V30 3876 H 357.847 2.00672 6.24028 0
M  V30 3877 H 357.367 0.312546 5.98985 0
M  V30 3878 H 359.046 0.711114 6.4308 0
M  V30 3879 N 359.178 -1.55987 0.224894 0
M  V30 3880 C 360.426 -1.97998 -0.405099 0
M  V30 3881 C 360.747 -1.11387 -1.60056 0
M  V30 3882 O 360.017 -0.191645 -1.9496 0
M  V30 3883 H 358.597 -0.731235 -0.152658 0
M  V30 3884 H 361.259 -1.92279 0.318567 0
M  V30 3885 H 360.355 -3.03463 -0.729167 0
M  V30 3886 N 360.656 0.0484629 -1.57525 0
M  V30 3887 C 361.886 0.754326 -1.92337 0
M  V30 3888 C 362.294 1.70443 -0.82132 0
M  V30 3889 O 361.637 1.82466 0.21254 0
M  V30 3890 C 361.699 1.58231 -3.22805 0
M  V30 3891 C 361.363 0.799074 -4.4996 0
M  V30 3892 C 362.36 0.1079 -5.19788 0
M  V30 3893 C 360.045 0.759345 -4.96527 0
M  V30 3894 C 362.039 -0.612516 -6.3445 0
M  V30 3895 C 359.726 0.0351713 -6.1109 0
M  V30 3896 C 360.724 -0.649537 -6.79904 0
M  V30 3897 O 360.412 -1.36199 -7.92278 0
M  V30 3898 H 360.144 0.218257 -0.639797 0
M  V30 3899 H 362.698 0.0159295 -2.05394 0
M  V30 3900 H 360.928 2.36406 -3.06021 0
M  V30 3901 H 362.617 2.16898 -3.43089 0
M  V30 3902 H 363.383 0.129748 -4.84826 0
M  V30 3903 H 359.262 1.28177 -4.42822 0
M  V30 3904 H 362.806 -1.14751 -6.88097 0
M  V30 3905 H 358.703 0.0113314 -6.45499 0
M  V30 3906 H 359.471 -1.27366 -8.0853 0
M  V30 3907 N 362.134 1.5431 0.320358 0
M  V30 3908 C 363.381 1.72668 1.05792 0
M  V30 3909 C 363.709 0.502084 1.87908 0
M  V30 3910 O 362.964 -0.516149 1.88771 0
M  V30 3911 C 363.263 2.95639 2.00828 0
M  V30 3912 C 362.929 4.30265 1.34843 0
M  V30 3913 C 361.591 4.66865 1.16578 0
M  V30 3914 C 363.943 5.13801 0.875095 0
M  V30 3915 C 361.271 5.84597 0.496336 0
M  V30 3916 C 363.623 6.32219 0.219463 0
M  V30 3917 C 362.287 6.67495 0.0246915 0
M  V30 3918 H 361.557 0.631837 0.387121 0
M  V30 3919 H 364.204 1.88552 0.334735 0
M  V30 3920 H 362.509 2.74456 2.79609 0
M  V30 3921 H 364.206 3.07038 2.57932 0
M  V30 3922 H 360.796 4.01472 1.50061 0
M  V30 3923 H 364.98 4.86039 1.00398 0
M  V30 3924 H 360.236 6.10486 0.334264 0
M  V30 3925 H 364.41 6.96227 -0.155291 0
M  V30 3926 H 362.037 7.5858 -0.496065 0
M  V30 3927 N 363.613 -0.582584 1.46437 0
M  V30 3928 C 364.862 -1.337 1.5102 0
M  V30 3929 C 365.175 -1.94891 0.166359 0
M  V30 3930 O 366.381 -2.71351 0.0899954 0
M  V30 3931 C 364.837 -2.42315 2.66104 0
M  V30 3932 C 364.445 -1.87427 4.06909 0
M  V30 3933 C 366.189 -3.19099 2.79958 0
M  V30 3934 C 364.096 -2.93672 5.13333 0
M  V30 3935 H 363.026 -0.502619 0.562041 0
M  V30 3936 H 365.677 -0.621701 1.72647 0
M  V30 3937 H 364.059 -3.16645 2.37807 0
M  V30 3938 H 365.233 -1.19639 4.44998 0
M  V30 3939 H 363.548 -1.2331 3.97723 0
M  V30 3940 H 366.145 -3.9839 3.56636 0
M  V30 3941 H 366.488 -3.71695 1.87479 0
M  V30 3942 H 367.021 -2.51875 3.07902 0
M  V30 3943 H 363.76 -2.45962 6.07604 0
M  V30 3944 H 363.28 -3.59948 4.79789 0
M  V30 3945 H 364.959 -3.5762 5.39182 0
M  V30 3946 N 365.091 -1.34144 -0.827227 0
M  V30 3947 C 366.021 -1.28005 -1.95287 0
M  V30 3948 C 367.002 -0.158321 -1.69362 0
M  V30 3949 O 368.187 -0.349987 -1.9102 0
M  V30 3950 C 365.317 -1.03036 -3.31664 0
M  V30 3951 C 364.271 -2.11628 -3.72019 0
M  V30 3952 C 363.597 -1.71854 -5.0633 0
M  V30 3953 C 364.897 -3.53417 -3.8457 0
M  V30 3954 H 366.591 -2.22187 -2.00682 0
M  V30 3955 H 364.137 -1.0696 -0.964135 0
M  V30 3956 H 366.09 -0.973863 -4.09993 0
M  V30 3957 H 364.814 -0.0529391 -3.26557 0
M  V30 3958 H 363.473 -2.16339 -2.95961 0
M  V30 3959 H 363.121 -0.727841 -4.97706 0
M  V30 3960 H 362.821 -2.44531 -5.34302 0
M  V30 3961 H 364.345 -1.67692 -5.87122 0
M  V30 3962 H 365.759 -3.51142 -4.5318 0
M  V30 3963 H 364.156 -4.24679 -4.2399 0
M  V30 3964 H 365.226 -3.91072 -2.86689 0
M  V30 3965 N 366.569 1.04691 -1.17803 0
M  V30 3966 C 367.501 2.12571 -0.857097 0
M  V30 3967 C 368.514 1.62174 0.142647 0
M  V30 3968 O 369.703 1.78301 -0.0843387 0
M  V30 3969 C 366.803 3.37915 -0.258216 0
M  V30 3970 C 365.976 4.1757 -1.30207 0
M  V30 3971 C 365.035 5.2125 -0.720029 0
M  V30 3972 O 364.061 5.51888 -1.39314 0
M  V30 3973 N 365.263 5.78466 0.485507 0
M  V30 3974 H 368.028 2.40698 -1.78562 0
M  V30 3975 H 365.589 1.20831 -1.07757 0
M  V30 3976 H 367.581 4.04442 0.144584 0
M  V30 3977 H 366.151 3.07281 0.574199 0
M  V30 3978 H 365.371 3.46458 -1.88043 0
M  V30 3979 H 366.659 4.67586 -2.00601 0
M  V30 3980 H 366.057 5.55866 1.05022 0
M  V30 3981 H 364.614 6.4649 0.830307 0
M  V30 3982 N 368.047 0.979072 1.23499 0
M  V30 3983 C 369.275 0.665202 1.95915 0
M  V30 3984 C 369.69 -0.767571 1.72493 0
M  V30 3985 O 369.047 -1.51635 1.01554 0
M  V30 3986 C 369.098 0.944438 3.48945 0
M  V30 3987 O 368.819 2.3209 3.71572 0
M  V30 3988 C 370.32 0.646336 4.38563 0
M  V30 3989 H 367.54 0.247218 0.623798 0
M  V30 3990 H 370.084 1.31009 1.57025 0
M  V30 3991 H 368.239 0.345575 3.85856 0
M  V30 3992 H 368.653 2.40957 4.65876 0
M  V30 3993 H 370.127 0.892091 5.44744 0
M  V30 3994 H 370.604 -0.419575 4.37191 0
M  V30 3995 H 371.21 1.22562 4.07258 0
M  V30 3996 N 369.525 -1.3858 0.750561 0
M  V30 3997 C 370.755 -2.04175 0.31564 0
M  V30 3998 C 371.163 -1.56726 -1.05989 0
M  V30 3999 O 370.506 -0.734225 -1.68389 0
M  V30 4000 C 370.568 -3.58585 0.256389 0
M  V30 4001 C 370.232 -4.29077 1.57296 0
M  V30 4002 C 371.229 -4.54656 2.52159 0
M  V30 4003 C 368.914 -4.67324 1.84156 0
M  V30 4004 C 370.908 -5.17512 3.72103 0
M  V30 4005 C 368.595 -5.29905 3.04374 0
M  V30 4006 C 369.593 -5.54933 3.98168 0
M  V30 4007 O 369.281 -6.16212 5.16273 0
M  V30 4008 H 369.013 -0.662742 0.133226 0
M  V30 4009 H 371.567 -1.78313 1.01948 0
M  V30 4010 H 369.797 -3.83406 -0.503677 0
M  V30 4011 H 371.486 -4.05628 -0.148612 0
M  V30 4012 H 372.252 -4.25539 2.32683 0
M  V30 4013 H 368.131 -4.47191 1.11988 0
M  V30 4014 H 371.675 -5.36963 4.45327 0
M  V30 4015 H 367.572 -5.58444 3.23745 0
M  V30 4016 H 368.34 -6.34701 5.16815 0
M  V30 4017 N 371.003 -0.499398 -1.49478 0
M  V30 4018 C 371.936 0.326491 -2.25852 0
M  V30 4019 C 372.914 0.971776 -1.30366 0
M  V30 4020 O 374.098 1.00219 -1.59651 0
M  V30 4021 C 371.225 1.45969 -3.05632 0
M  V30 4022 C 370.271 0.928938 -4.16261 0
M  V30 4023 S 371.104 -0.179012 -5.35201 0
M  V30 4024 C 372.26 0.957389 -6.18534 0
M  V30 4025 H 372.493 -0.321746 -2.95554 0
M  V30 4026 H 370.026 -0.284674 -1.51753 0
M  V30 4027 H 371.984 2.109 -3.52181 0
M  V30 4028 H 370.645 2.07953 -2.35402 0
M  V30 4029 H 369.838 1.77813 -4.71592 0
M  V30 4030 H 369.44 0.356869 -3.72293 0
M  V30 4031 H 371.732 1.86296 -6.51383 0
M  V30 4032 H 372.675 0.442733 -7.06715 0
M  V30 4033 H 373.083 1.224 -5.5107 0
M  V30 4034 N 372.481 1.55866 -0.233164 0
M  V30 4035 C 373.892 1.847 0.272554 0
M  V30 4036 C 374.243 1.15477 1.58617 0
M  V30 4037 O 373.368 0.42841 2.12117 0
M  V30 4038 C 373.963 3.35071 0.501299 0
M  V30 4039 C 372.522 3.6418 0.951304 0
M  V30 4040 C 371.669 2.77292 0.0208209 0
M  V30 4041 H 374.62 1.52005 -0.456074 0
M  V30 4042 H 374.641 3.55906 1.34577 0
M  V30 4043 H 374.153 3.85424 -0.454936 0
M  V30 4044 H 372.254 3.19293 1.92049 0
M  V30 4045 H 372.367 4.72071 0.817675 0
M  V30 4046 H 370.731 2.49131 0.529723 0
M  V30 4047 H 371.514 3.30448 -0.93054 0
M  V30 4048 N 373.959 -0.0401083 1.57549 0
M  V30 4049 C 375.184 -0.748931 1.93406 0
M  V30 4050 C 375.609 -1.68686 0.832274 0
M  V30 4051 O 374.967 -1.80047 -0.212818 0
M  V30 4052 C 375.015 -1.4916 3.28304 0
M  V30 4053 O 374.119 -2.6042 3.19774 0
M  V30 4054 H 373.46 -0.202212 0.63246 0
M  V30 4055 H 375.99 0.00112086 2.046 0
M  V30 4056 H 376 -1.86395 3.62934 0
M  V30 4057 H 374.675 -0.80364 4.08062 0
M  V30 4058 H 373.252 -2.25808 2.96758 0
M  V30 4059 N 375.437 -1.54477 -0.31217 0
M  V30 4060 C 376.686 -1.72438 -1.04633 0
M  V30 4061 C 376.999 -0.511163 -1.88803 0
M  V30 4062 O 378.205 -0.572341 -2.65399 0
M  V30 4063 C 376.661 -3.05043 -1.9099 0
M  V30 4064 C 376.269 -4.33806 -1.11877 0
M  V30 4065 C 378.013 -3.32364 -2.64073 0
M  V30 4066 C 375.92 -5.57467 -1.97445 0
M  V30 4067 H 374.85 -0.642647 -0.394361 0
M  V30 4068 H 377.501 -1.80966 -0.303929 0
M  V30 4069 H 375.883 -2.90451 -2.69173 0
M  V30 4070 H 377.057 -4.59199 -0.383843 0
M  V30 4071 H 375.372 -4.13336 -0.504252 0
M  V30 4072 H 377.969 -4.21951 -3.28423 0
M  V30 4073 H 378.312 -2.50745 -3.32314 0
M  V30 4074 H 378.845 -3.47875 -1.92944 0
M  V30 4075 H 375.584 -6.41722 -1.33692 0
M  V30 4076 H 375.104 -5.36277 -2.6864 0
M  V30 4077 H 376.783 -5.94303 -2.5576 0
M  V30 4078 N 376.915 0.57481 -1.46744 0
M  V30 4079 C 377.845 1.69337 -1.60771 0
M  V30 4080 C 378.826 1.63825 -0.457736 0
M  V30 4081 O 380.011 1.8172 -0.684947 0
M  V30 4082 C 377.141 3.0798 -1.60517 0
M  V30 4083 C 376.095 3.28327 -2.74564 0
M  V30 4084 C 375.421 4.67578 -2.59373 0
M  V30 4085 C 376.721 3.15398 -4.16319 0
M  V30 4086 H 378.415 1.57853 -2.54407 0
M  V30 4087 H 375.961 0.75799 -1.22436 0
M  V30 4088 H 377.914 3.86061 -1.68923 0
M  V30 4089 H 376.638 3.20381 -0.634305 0
M  V30 4090 H 375.297 2.52649 -2.65639 0
M  V30 4091 H 374.945 4.76755 -1.60353 0
M  V30 4092 H 374.645 4.82144 -3.35873 0
M  V30 4093 H 376.169 5.47817 -2.69682 0
M  V30 4094 H 377.583 3.83315 -4.26313 0
M  V30 4095 H 375.98 3.41482 -4.93468 0
M  V30 4096 H 377.05 2.12372 -4.3592 0
M  V30 4097 N 378.394 1.34581 0.820102 0
M  V30 4098 C 379.643 1.26437 1.57151 0
M  V30 4099 C 379.956 -0.163111 1.94919 0
M  V30 4100 O 381.162 -0.366722 2.69012 0
M  V30 4101 C 379.618 2.21658 2.83541 0
M  V30 4102 C 379.226 3.69679 2.53065 0
M  V30 4103 C 380.97 2.22428 3.61561 0
M  V30 4104 C 378.877 4.56761 3.75664 0
M  V30 4105 H 377.807 0.469707 0.589823 0
M  V30 4106 H 380.458 1.59763 0.902656 0
M  V30 4107 H 378.84 1.81287 3.52067 0
M  V30 4108 H 380.014 4.18605 1.92631 0
M  V30 4109 H 378.329 3.71384 1.88316 0
M  V30 4110 H 380.926 2.8471 4.52597 0
M  V30 4111 H 381.269 1.22434 3.97889 0
M  V30 4112 H 381.802 2.61259 2.99981 0
M  V30 4113 H 378.541 5.57702 3.44454 0
M  V30 4114 H 378.061 4.12568 4.35371 0
M  V30 4115 H 379.74 4.71509 4.43044 0
M  V30 4116 N 379.872 -1.04064 1.18357 0
M  V30 4117 C 381.1 -1.80916 1.00384 0
M  V30 4118 C 381.515 -1.83414 -0.447738 0
M  V30 4119 O 380.872 -1.26962 -1.31099 0
M  V30 4120 C 380.923 -3.26516 1.55144 0
M  V30 4121 O 380.644 -3.2424 2.94618 0
M  V30 4122 C 382.145 -4.20013 1.41789 0
M  V30 4123 H 379.365 -0.569728 0.354474 0
M  V30 4124 H 381.909 -1.31151 1.56906 0
M  V30 4125 H 380.064 -3.73512 1.02798 0
M  V30 4126 H 380.478 -4.15452 3.20156 0
M  V30 4127 H 381.952 -5.20111 1.84901 0
M  V30 4128 H 382.429 -4.37667 0.36661 0
M  V30 4129 H 383.035 -3.78881 1.93207 0
M  V30 4130 N 381.35 -0.985608 -1.22978 0
M  V30 4131 C 382.599 -0.652881 -1.90841 0
M  V30 4132 C 382.912 0.817842 -1.77681 0
M  V30 4133 O 384.118 1.26185 -2.40395 0
M  V30 4134 C 382.574 -1.11717 -3.42122 0
M  V30 4135 C 382.182 -2.6126 -3.63933 0
M  V30 4136 C 383.926 -0.85843 -4.1573 0
M  V30 4137 C 381.833 -3.0133 -5.08876 0
M  V30 4138 H 380.763 -0.240491 -0.714619 0
M  V30 4139 H 383.414 -1.1942 -1.39324 0
M  V30 4140 H 381.796 -0.504027 -3.92779 0
M  V30 4141 H 382.97 -3.27858 -3.23799 0
M  V30 4142 H 381.285 -2.84937 -3.03644 0
M  V30 4143 H 383.882 -1.13359 -5.22546 0
M  V30 4144 H 384.225 0.205461 -4.15793 0
M  V30 4145 H 384.758 -1.43341 -3.71077 0
M  V30 4146 H 381.497 -4.06864 -5.13947 0
M  V30 4147 H 381.017 -2.3943 -5.49939 0
M  V30 4148 H 382.696 -2.92224 -5.77247 0
M  V30 4149 N 382.828 1.3818 -0.7579 0
M  V30 4150 C 383.758 2.33027 -0.148597 0
M  V30 4151 C 384.739 1.55085 0.69875 0
M  V30 4152 O 385.924 1.83384 0.639053 0
M  V30 4153 C 383.054 3.3928 0.742034 0
M  V30 4154 C 382.008 4.28 -0.00291946 0
M  V30 4155 C 381.334 5.25146 1.00625 0
M  V30 4156 C 382.634 5.08938 -1.17385 0
M  V30 4157 H 384.328 2.84231 -0.940909 0
M  V30 4158 H 381.874 1.36659 -0.453908 0
M  V30 4159 H 383.827 4.046 1.17799 0
M  V30 4160 H 382.551 2.86569 1.56671 0
M  V30 4161 H 381.21 3.64192 -0.419504 0
M  V30 4162 H 380.858 4.68721 1.8251 0
M  V30 4163 H 380.558 5.85361 0.512428 0
M  V30 4164 H 382.082 5.93342 1.44143 0
M  V30 4165 H 383.496 5.67474 -0.815224 0
M  V30 4166 H 381.893 5.7841 -1.59882 0
M  V30 4167 H 382.963 4.42424 -1.98468 0
M  V30 4168 N 384.306 0.507319 1.49211 0
M  V30 4169 C 385.531 -0.033725 2.07373 0
M  V30 4170 C 385.956 -1.29485 1.36437 0
M  V30 4171 O 385.314 -1.76294 0.423087 0
M  V30 4172 C 385.362 -0.263945 3.59633 0
M  V30 4173 O 384.466 -1.33737 3.90113 0
M  V30 4174 H 383.807 0.0290331 0.663365 0
M  V30 4175 H 386.337 0.708749 1.91932 0
M  V30 4176 H 386.347 -0.493536 4.05004 0
M  V30 4177 H 385.022 0.657424 4.10671 0
M  V30 4178 H 383.599 -1.09224 3.56545 0
M  V30 4179 N 385.784 -1.5574 0.241426 0
M  V30 4180 C 387.03 -1.99846 -0.378555 0
M  V30 4181 C 387.385 -1.12665 -1.55963 0
M  V30 4182 O 386.678 -0.180966 -1.90743 0
M  V30 4183 C 386.872 -3.47308 -0.843317 0
M  V30 4184 C 386.701 -4.48756 0.291178 0
M  V30 4185 C 385.471 -4.9949 0.764077 0
M  V30 4186 C 387.669 -5.02039 1.11631 0
M  V30 4187 N 385.651 -5.84676 1.87156 0
M  V30 4188 C 387.022 -5.84343 2.07226 0
M  V30 4189 C 389.077 -4.84354 1.15349 0
M  V30 4190 C 387.78 -6.50851 3.06245 0
M  V30 4191 C 389.806 -5.51636 2.13195 0
M  V30 4192 C 389.168 -6.33724 3.07528 0
M  V30 4193 H 385.267 -0.774968 -0.104634 0
M  V30 4194 H 387.851 -1.91385 0.357751 0
M  V30 4195 H 386.022 -3.56178 -1.54893 0
M  V30 4196 H 387.754 -3.78299 -1.43779 0
M  V30 4197 H 384.509 -4.72311 0.349175 0
M  V30 4198 H 384.933 -6.31967 2.42789 0
M  V30 4199 H 389.575 -4.20525 0.438057 0
M  V30 4200 H 387.293 -7.1385 3.78739 0
M  V30 4201 H 390.879 -5.39909 2.16771 0
M  V30 4202 H 389.759 -6.84867 3.82003 0
M  V30 4203 N 387.262 0.0317525 -1.57568 0
M  V30 4204 C 388.508 0.724175 -1.8943 0
M  V30 4205 C 388.841 1.75149 -0.838836 0
M  V30 4206 O 388.116 1.93948 0.146422 0
M  V30 4207 C 388.399 1.39615 -3.31933 0
M  V30 4208 C 388.252 0.382537 -4.4817 0
M  V30 4209 C 389.571 2.33084 -3.73309 0
M  V30 4210 H 386.69 0.261797 -0.688935 0
M  V30 4211 H 389.332 -0.013017 -1.89996 0
M  V30 4212 H 387.482 2.02451 -3.31581 0
M  V30 4213 H 389.154 -0.243689 -4.60656 0
M  V30 4214 H 387.397 -0.29844 -4.32772 0
M  V30 4215 H 388.068 0.891145 -5.44759 0
M  V30 4216 H 390.544 1.80295 -3.7501 0
M  V30 4217 H 389.42 2.77084 -4.73831 0
M  V30 4218 H 389.681 3.19643 -3.05419 0
M  V30 4219 N 388.74 1.54641 0.303973 0
M  V30 4220 C 389.965 1.78092 1.06292 0
M  V30 4221 C 390.39 0.537342 1.80262 0
M  V30 4222 O 389.748 -0.511993 1.7392 0
M  V30 4223 C 389.796 2.98612 2.02147 0
M  V30 4224 O 388.9 2.71528 3.10397 0
M  V30 4225 H 388.241 0.589548 0.305497 0
M  V30 4226 H 390.771 2.01716 0.3423 0
M  V30 4227 H 390.781 3.265 2.44667 0
M  V30 4228 H 389.456 3.88785 1.47714 0
M  V30 4229 H 388.033 2.54648 2.72413 0
M  V30 4230 N 390.218 -0.567019 1.47046 0
M  V30 4231 C 391.465 -1.32462 1.53167 0
M  V30 4232 C 391.793 -1.93571 0.189841 0
M  V30 4233 O 391.048 -1.77865 -0.816243 0
M  V30 4234 C 391.347 -2.4623 2.59047 0
M  V30 4235 C 391.013 -2.03014 4.02612 0
M  V30 4236 C 389.675 -1.90944 4.41694 0
M  V30 4237 C 392.027 -1.69895 4.92732 0
M  V30 4238 C 389.355 -1.44035 5.68745 0
M  V30 4239 C 391.707 -1.2446 6.20236 0
M  V30 4240 C 390.371 -1.10979 6.5821 0
M  V30 4241 H 389.641 -0.484713 0.560477 0
M  V30 4242 H 392.288 -0.636888 1.80599 0
M  V30 4243 H 390.593 -3.20517 2.25335 0
M  V30 4244 H 392.29 -3.04427 2.61008 0
M  V30 4245 H 388.88 -2.13348 3.71726 0
M  V30 4246 H 393.064 -1.78098 4.63244 0
M  V30 4247 H 388.32 -1.32254 5.96925 0
M  V30 4248 H 392.494 -0.978924 6.89485 0
M  V30 4249 H 390.121 -0.744078 7.5655 0
M  V30 4250 N 391.696 -1.35014 -0.812953 0
M  V30 4251 C 392.942 -1.29129 -1.57154 0
M  V30 4252 C 393.297 0.134922 -1.91926 0
M  V30 4253 O 392.59 1.08373 -1.58006 0
M  V30 4254 C 392.784 -2.12524 -2.87347 0
M  V30 4255 C 392.613 -3.6311 -2.65294 0
M  V30 4256 C 391.383 -4.32363 -2.61516 0
M  V30 4257 C 393.581 -4.56897 -2.36114 0
M  V30 4258 N 391.563 -5.68735 -2.31113 0
M  V30 4259 C 392.934 -5.81345 -2.15494 0
M  V30 4260 C 394.989 -4.45706 -2.21925 0
M  V30 4261 C 393.692 -6.95862 -1.82122 0
M  V30 4262 C 395.718 -5.60066 -1.89948 0
M  V30 4263 C 395.08 -6.83539 -1.7016 0
M  V30 4264 H 391.179 -0.527764 -0.577052 0
M  V30 4265 H 393.763 -1.6983 -0.952146 0
M  V30 4266 H 391.934 -1.74104 -3.47192 0
M  V30 4267 H 393.666 -1.98207 -3.5284 0
M  V30 4268 H 390.421 -3.84907 -2.75941 0
M  V30 4269 H 390.845 -6.40694 -2.18724 0
M  V30 4270 H 395.487 -3.50855 -2.35925 0
M  V30 4271 H 393.205 -7.90685 -1.6686 0
M  V30 4272 H 396.791 -5.53357 -1.79687 0
M  V30 4273 H 395.671 -7.70531 -1.45777 0
M  V30 4274 N 393.175 1.03435 -1.18907 0
M  V30 4275 C 394.424 1.76143 -0.982669 0
M  V30 4276 C 394.737 1.89416 0.487953 0
M  V30 4277 O 395.943 2.59041 0.813036 0
M  V30 4278 C 394.399 3.16722 -1.70924 0
M  V30 4279 C 394.007 3.11522 -3.21959 0
M  V30 4280 C 395.751 3.93764 -1.58588 0
M  V30 4281 C 393.658 4.46999 -3.87228 0
M  V30 4282 H 392.588 0.660292 -0.364047 0
M  V30 4283 H 395.239 1.158 -1.42347 0
M  V30 4284 H 393.621 3.775 -1.19623 0
M  V30 4285 H 394.795 2.60158 -3.80335 0
M  V30 4286 H 393.11 2.47978 -3.34508 0
M  V30 4287 H 395.707 4.93963 -2.04707 0
M  V30 4288 H 396.05 4.12794 -0.539142 0
M  V30 4289 H 396.583 3.39576 -2.07203 0
M  V30 4290 H 393.322 4.33174 -4.91976 0
M  V30 4291 H 392.842 4.98441 -3.33642 0
M  V30 4292 H 394.521 5.15898 -3.90459 0
M  V30 4293 N 394.653 0.992116 1.22453 0
M  V30 4294 C 395.601 0.534644 2.26372 0
M  V30 4295 C 396.595 -0.414293 1.64256 0
M  V30 4296 O 397.801 -0.286899 1.77699 0
M  V30 4297 H 394.176 0.154502 0.735957 0
M  V30 4298 H 396.147 1.42256 2.62309 0
M  V30 4299 C 394.896 -0.135815 3.47435 0
M  V30 4300 H 394.219 0.585311 3.95492 0
M  V30 4301 H 395.659 -0.419374 4.21921 0
M  V30 4302 C 394.118 -1.37089 3.07747 0
M  V30 4303 O 394.648 -2.46629 3.17076 0
M  V30 4304 N 392.854 -1.24585 2.62539 0
M  V30 4305 H 392.401 -0.354542 2.55149 0
M  V30 4306 H 392.359 -2.07327 2.36353 0
M  V30 4307 N 396.131 -1.37776 0.765217 0
M  V30 4308 C 397.361 -2.03828 0.337277 0
M  V30 4309 C 397.769 -1.57841 -1.04321 0
M  V30 4310 O 397.112 -0.752043 -1.67601 0
M  V30 4311 C 397.174 -3.58292 0.294407 0
M  V30 4312 C 396.838 -4.27384 1.61838 0
M  V30 4313 C 397.835 -4.51956 2.56967 0
M  V30 4314 C 395.52 -4.65345 1.89102 0
M  V30 4315 C 397.514 -5.13536 3.77571 0
M  V30 4316 C 395.201 -5.26647 3.09978 0
M  V30 4317 C 396.199 -5.50679 4.04032 0
M  V30 4318 O 395.887 -6.10702 5.2278 0
M  V30 4319 H 395.619 -0.661292 0.140248 0
M  V30 4320 H 398.173 -1.77222 1.03834 0
M  V30 4321 H 396.403 -3.83918 -0.462983 0
M  V30 4322 H 398.092 -4.05763 -0.105581 0
M  V30 4323 H 398.858 -4.23048 2.37183 0
M  V30 4324 H 394.737 -4.45978 1.16725 0
M  V30 4325 H 398.281 -5.3221 4.50997 0
M  V30 4326 H 394.178 -5.54979 3.29649 0
M  V30 4327 H 394.946 -6.29183 5.23517 0
M  V30 4328 N 397.609 -0.515225 -1.4894 0
M  V30 4329 C 398.886 0.0879088 -1.95402 0
M  V30 4330 C 399.266 1.52745 -1.45712 0
M  V30 4331 O 398.614 2.18238 -0.677093 0
M  V30 4332 C 398.824 -0.0141055 -3.48997 0
M  V30 4333 C 400.172 0.152646 -4.24326 0
M  V30 4334 O 401.196 0.0604025 -3.56149 0
M  V30 4335 O 400.055 0.34384 -5.45417 0
M  V30 4336 H 397.149 0.0874636 -0.822362 0
M  V30 4337 H 399.695 -0.578775 -1.59525 0
M  V30 4338 H 398.467 -1.01745 -3.77841 0
M  V30 4339 H 398.09 0.692091 -3.9153 0
M  V30 4340 N 399.087 1.5561 -0.249682 0
M  V30 4341 C 400.05 2.20217 0.635394 0
M  V30 4342 C 401.05 1.17227 1.10066 0
M  V30 4343 O 402.24 1.42292 1.00492 0
M  V30 4344 C 399.372 2.84794 1.87363 0
M  V30 4345 H 400.565 2.99814 0.0716752 0
M  V30 4346 H 398.118 1.563 -0.000153234 0
M  V30 4347 H 398.853 2.09142 2.47851 0
M  V30 4348 H 398.638 3.60241 1.5482 0
M  V30 4349 H 400.128 3.3423 2.5036 0
M  V30 4350 N 400.565 -0.0233959 1.57583 0
M  V30 4351 C 401.79 -0.728376 1.94189 0
M  V30 4352 C 402.215 -1.67793 0.850119 0
M  V30 4353 O 401.573 -1.80262 -0.19371 0
M  V30 4354 C 401.621 -1.45669 3.29868 0
M  V30 4355 O 400.725 -2.57013 3.22518 0
M  V30 4356 H 400.066 -0.195493 0.63457 0
M  V30 4357 H 402.596 0.0228214 2.04587 0
M  V30 4358 H 402.606 -1.82535 3.6489 0
M  V30 4359 H 401.281 -0.760314 4.08891 0
M  V30 4360 H 399.858 -2.22648 2.99136 0
M  V30 4361 N 402.043 -1.548 -0.295768 0
M  V30 4362 C 403.006 -1.85363 -1.34808 0
M  V30 4363 C 404.006 -0.726817 -1.43436 0
M  V30 4364 O 405.196 -0.995088 -1.42981 0
M  V30 4365 C 402.328 -2.03859 -2.73229 0
M  V30 4366 H 403.521 -2.7941 -1.08949 0
M  V30 4367 H 401.074 -1.46942 -0.532702 0
M  V30 4368 H 401.809 -1.12117 -3.04303 0
M  V30 4369 H 401.594 -2.8588 -2.68356 0
M  V30 4370 H 403.084 -2.28857 -3.49305 0
M  V30 4371 N 403.521 0.559213 -1.47345 0
M  V30 4372 C 404.484 1.64854 -1.59235 0
M  V30 4373 C 405.484 1.53851 -0.467607 0
M  V30 4374 O 406.674 1.58045 -0.732617 0
M  V30 4375 C 403.806 3.04388 -1.53496 0
M  V30 4376 H 404.999 1.55662 -2.56339 0
M  V30 4377 H 402.552 0.778973 -1.35505 0
M  V30 4378 H 403.287 3.19115 -0.577604 0
M  V30 4379 H 403.072 3.13783 -2.35123 0
M  V30 4380 H 404.562 3.83642 -1.6495 0
M  V30 4381 N 404.999 1.35443 0.805782 0
M  V30 4382 C 406.415 1.15499 1.10146 0
M  V30 4383 C 406.615 -0.0319975 2.01475 0
M  V30 4384 O 405.671 -0.70236 2.42535 0
M  V30 4385 C 406.984 2.45833 1.73166 0
M  V30 4386 C 408.532 2.52047 1.85583 0
M  V30 4387 C 409.007 3.82427 2.52019 0
M  V30 4388 N 410.498 3.83682 2.59504 0
M  V30 4389 C 411.233 4.81294 3.11679 0
M  V30 4390 N 410.729 5.89294 3.64287 0
M  V30 4391 N 412.522 4.6873 3.1024 0
M  V30 4392 H 404.673 2.11469 0.198678 0
M  V30 4393 H 406.936 0.93594 0.150731 0
M  V30 4394 H 406.642 3.32874 1.13526 0
M  V30 4395 H 406.516 2.6044 2.72857 0
M  V30 4396 H 408.903 1.65435 2.44367 0
M  V30 4397 H 408.984 2.41354 0.847455 0
M  V30 4398 H 408.628 4.69437 1.93885 0
M  V30 4399 H 408.558 3.90409 3.53395 0
M  V30 4400 H 411.049 3.05648 2.22234 0
M  V30 4401 H 411.362 6.59768 4.02401 0
M  V30 4402 H 409.707 5.92985 3.62483 0
M  V30 4403 H 412.898 3.83496 2.68419 0
M  V30 4404 H 413.071 5.44965 3.50596 0
M  V30 4405 N 406.477 -1.02803 1.19454 0
M  V30 4406 C 407.723 -1.76478 0.999171 0
M  V30 4407 C 408.056 -1.88456 -0.468828 0
M  V30 4408 O 407.331 -1.40198 -1.34814 0
M  V30 4409 C 407.614 -3.19044 1.66981 0
M  V30 4410 C 407.467 -3.14932 3.21151 0
M  V30 4411 C 408.786 -4.17456 1.39349 0
M  V30 4412 H 405.905 -0.640614 0.364393 0
M  V30 4413 H 408.547 -1.20005 1.47305 0
M  V30 4414 H 406.697 -3.67263 1.2669 0
M  V30 4415 H 408.369 -2.74605 3.70661 0
M  V30 4416 H 406.612 -2.52625 3.52652 0
M  V30 4417 H 407.283 -4.1566 3.63223 0
M  V30 4418 H 409.759 -3.77842 1.74283 0
M  V30 4419 H 408.635 -5.154 1.88823 0
M  V30 4420 H 408.896 -4.40949 0.318813 0
M  V30 4421 N 407.956 -0.998596 -1.21925 0
M  V30 4422 C 408.919 -0.558679 -2.22287 0
M  V30 4423 C 409.919 0.361525 -1.56683 0
M  V30 4424 O 411.109 0.152695 -1.73529 0
M  V30 4425 C 408.241 0.18661 -3.40389 0
M  V30 4426 H 409.434 -1.4463 -2.62721 0
M  V30 4427 H 406.987 -0.786413 -1.35075 0
M  V30 4428 H 407.722 1.08996 -3.05435 0
M  V30 4429 H 407.507 -0.474188 -3.89222 0
M  V30 4430 H 408.997 0.482367 -4.14805 0
M  V30 4431 N 409.434 1.37368 -0.772513 0
M  V30 4432 C 410.364 2.32856 -0.173304 0
M  V30 4433 C 411.345 1.55818 0.682262 0
M  V30 4434 O 412.53 1.84052 0.619566 0
M  V30 4435 C 409.66 3.40048 0.706007 0
M  V30 4436 C 408.614 4.27973 -0.0483144 0
M  V30 4437 C 407.94 5.26184 0.950491 0
M  V30 4438 C 409.24 5.07665 -1.22776 0
M  V30 4439 H 410.934 2.83217 -0.971002 0
M  V30 4440 H 408.48 1.3617 -0.468377 0
M  V30 4441 H 410.433 4.05827 1.13501 0
M  V30 4442 H 409.157 2.88214 1.53623 0
M  V30 4443 H 407.816 3.63726 -0.458107 0
M  V30 4444 H 407.464 4.7063 1.77529 0
M  V30 4445 H 407.164 5.85872 0.450314 0
M  V30 4446 H 408.688 5.94838 1.37842 0
M  V30 4447 H 410.102 5.66578 -0.875366 0
M  V30 4448 H 408.499 5.76681 -1.66007 0
M  V30 4449 H 409.569 4.40294 -2.03149 0
M  V30 4450 N 410.912 0.523116 1.48665 0
M  V30 4451 C 412.16 -0.0134497 2.02096 0
M  V30 4452 C 412.481 -1.35418 1.40311 0
M  V30 4453 O 411.751 -1.87543 0.566074 0
M  V30 4454 H 410.331 -0.00795915 0.746958 0
M  V30 4455 H 412.993 0.685388 1.82451 0
M  V30 4456 H 412.089 -0.126849 3.11842 0
M  V30 4457 N 412.39 -1.55475 0.257931 0
M  V30 4458 C 413.639 -1.98383 -0.364275 0
M  V30 4459 C 413.952 -1.14952 -1.58258 0
M  V30 4460 O 415.158 -1.47924 -2.27664 0
M  V30 4461 C 413.614 -3.53037 -0.699479 0
M  V30 4462 C 413.222 -4.45223 0.498046 0
M  V30 4463 C 414.966 -4.04575 -1.28526 0
M  V30 4464 C 412.873 -5.91238 0.138383 0
M  V30 4465 H 411.803 -0.740911 -0.13988 0
M  V30 4466 H 414.454 -1.79936 0.359883 0
M  V30 4467 H 412.836 -3.6722 -1.48207 0
M  V30 4468 H 414.01 -4.42803 1.27522 0
M  V30 4469 H 412.325 -4.04226 0.999503 0
M  V30 4470 H 414.922 -5.11196 -1.56788 0
M  V30 4471 H 415.265 -3.5258 -2.21344 0
M  V30 4472 H 415.798 -3.93762 -0.565337 0
M  V30 4473 H 412.537 -6.47294 1.03398 0
M  V30 4474 H 412.057 -5.96768 -0.602374 0
M  V30 4475 H 413.736 -6.46413 -0.27553 0
M  V30 4476 N 413.868 0.0150385 -1.57593 0
M  V30 4477 C 415.096 0.714395 -1.94175 0
M  V30 4478 C 415.511 1.68135 -0.858841 0
M  V30 4479 O 414.868 1.81766 0.163567 0
M  V30 4480 C 414.919 1.45933 -3.30735 0
M  V30 4481 O 414.64 0.531167 -4.34868 0
M  V30 4482 C 416.141 2.25456 -3.81686 0
M  V30 4483 H 413.361 0.199923 -0.640525 0
M  V30 4484 H 415.905 -0.0316096 -2.04476 0
M  V30 4485 H 414.06 2.15709 -3.21789 0
M  V30 4486 H 414.474 1.05509 -5.13778 0
M  V30 4487 H 415.948 2.731 -4.79709 0
M  V30 4488 H 416.425 3.07485 -3.13607 0
M  V30 4489 H 417.031 1.60727 -3.9376 0
M  V30 4490 N 415.346 1.54954 0.287554 0
M  V30 4491 C 416.574 1.78881 1.03967 0
M  V30 4492 C 416.989 0.554894 1.80462 0
M  V30 4493 O 416.346 -0.475676 1.76192 0
M  V30 4494 C 416.397 3.00488 2.0097 0
M  V30 4495 O 416.118 4.19113 1.27577 0
M  V30 4496 C 417.619 3.36907 2.88112 0
M  V30 4497 H 414.839 0.596259 0.307761 0
M  V30 4498 H 417.383 2.01937 0.322749 0
M  V30 4499 H 415.538 2.79601 2.68145 0
M  V30 4500 H 415.952 4.87765 1.92835 0
M  V30 4501 H 417.426 4.25205 3.52001 0
M  V30 4502 H 417.903 2.55659 3.57121 0
M  V30 4503 H 418.509 3.60001 2.26449 0
M  V30 4504 N 416.824 -0.551391 1.4764 0
M  V30 4505 C 418.07 -1.31024 1.54792 0
M  V30 4506 C 418.403 -1.9304 0.211967 0
M  V30 4507 O 417.678 -1.78175 -0.77999 0
M  V30 4508 C 417.961 -2.41593 2.67029 0
M  V30 4509 C 417.814 -1.84408 4.10261 0
M  V30 4510 C 419.133 -3.43488 2.75143 0
M  V30 4511 H 416.252 -0.475031 0.563485 0
M  V30 4512 H 418.894 -0.616454 1.79722 0
M  V30 4513 H 417.044 -3.00772 2.45904 0
M  V30 4514 H 418.716 -1.29445 4.42766 0
M  V30 4515 H 416.959 -1.15051 4.18265 0
M  V30 4516 H 417.63 -2.64367 4.84576 0
M  V30 4517 H 420.106 -2.94236 2.94218 0
M  V30 4518 H 418.982 -4.18274 3.55441 0
M  V30 4519 H 419.243 -4.02703 1.82435 0
M  V30 4520 N 418.302 -1.35869 -0.798587 0
M  V30 4521 C 419.232 -1.32118 -1.92528 0
M  V30 4522 C 420.213 -0.194209 -1.68988 0
M  V30 4523 O 421.398 -0.390426 -1.90235 0
M  V30 4524 C 418.528 -1.10047 -3.29404 0
M  V30 4525 C 417.482 -2.19471 -3.67446 0
M  V30 4526 C 416.808 -1.82555 -5.02571 0
M  V30 4527 C 418.108 -3.61495 -3.76987 0
M  V30 4528 H 419.802 -2.26394 -1.95924 0
M  V30 4529 H 417.348 -1.08981 -0.94123 0
M  V30 4530 H 419.301 -1.06061 -4.07835 0
M  V30 4531 H 418.025 -0.122195 -3.26371 0
M  V30 4532 H 416.684 -2.22568 -2.91306 0
M  V30 4533 H 416.332 -0.833249 -4.9605 0
M  V30 4534 H 416.032 -2.5581 -5.28995 0
M  V30 4535 H 417.556 -1.80108 -5.83432 0
M  V30 4536 H 418.97 -3.60676 -4.4563 0
M  V30 4537 H 417.367 -4.33577 -4.14887 0
M  V30 4538 H 418.437 -3.97065 -2.78329 0
M  V30 4539 N 419.78 1.02168 -1.19998 0
M  V30 4540 C 421.008 1.79296 -1.03249 0
M  V30 4541 C 421.423 1.84103 0.418502 0
M  V30 4542 O 420.78 1.29031 1.29063 0
M  V30 4543 C 420.831 3.24007 -1.60319 0
M  V30 4544 O 420.552 3.19512 -2.99739 0
M  V30 4545 C 422.053 4.17704 -1.48453 0
M  V30 4546 H 419.273 0.564016 -0.363493 0
M  V30 4547 H 421.817 1.28639 -1.58973 0
M  V30 4548 H 419.972 3.7183 -1.08727 0
M  V30 4549 H 420.386 4.10306 -3.26725 0
M  V30 4550 H 421.86 5.17104 -1.93153 0
M  V30 4551 H 422.337 4.37029 -0.436193 0
M  V30 4552 H 422.943 3.7576 -1.99211 0
M  V30 4553 N 421.258 1.00505 1.21394 0
M  V30 4554 C 422.191 0.51032 2.22421 0
M  V30 4555 C 423.169 -0.436 1.56645 0
M  V30 4556 O 424.353 -0.358709 1.85055 0
M  V30 4557 C 421.48 -0.258733 3.3771 0
M  V30 4558 C 420.526 0.635395 4.2174 0
M  V30 4559 S 421.359 2.09783 4.92698 0
M  V30 4560 C 422.515 1.33862 6.11418 0
M  V30 4561 H 422.748 1.36637 2.64041 0
M  V30 4562 H 420.281 0.812991 1.31262 0
M  V30 4563 H 422.239 -0.696372 4.0455 0
M  V30 4564 H 420.9 -1.0902 2.94573 0
M  V30 4565 H 420.093 0.0430189 5.03982 0
M  V30 4566 H 419.695 1.01031 3.60095 0
M  V30 4567 H 421.987 0.612541 6.74725 0
M  V30 4568 H 422.93 2.13675 6.75092 0
M  V30 4569 H 423.338 0.846568 5.58116 0
M  V30 4570 N 422.737 -1.36956 0.779787 0
M  V30 4571 C 423.965 -2.03755 0.359398 0
M  V30 4572 C 424.38 -1.58807 -1.02106 0
M  V30 4573 O 423.737 -0.773024 -1.6532 0
M  V30 4574 C 423.788 -3.59251 0.402568 0
M  V30 4575 O 423.509 -4.02557 1.72858 0
M  V30 4576 C 425.01 -4.43291 -0.0284068 0
M  V30 4577 H 422.23 -0.654148 0.149437 0
M  V30 4578 H 424.774 -1.75128 1.05595 0
M  V30 4579 H 422.929 -3.86621 -0.245478 0
M  V30 4580 H 423.343 -4.97111 1.67275 0
M  V30 4581 H 424.817 -5.51975 0.0529466 0
M  V30 4582 H 425.294 -4.25719 -1.07982 0
M  V30 4583 H 425.9 -4.21163 0.591758 0
M  V30 4584 N 424.215 -0.530993 -1.48385 0
M  V30 4585 C 425.443 -0.00134122 -2.069 0
M  V30 4586 C 425.858 1.2805 -1.3874 0
M  V30 4587 O 425.215 1.76204 -0.475244 0
M  V30 4588 C 425.266 0.225256 -3.60798 0
M  V30 4589 O 424.987 -1.0058 -4.26398 0
M  V30 4590 C 426.488 0.795172 -4.3611 0
M  V30 4591 H 423.708 -0.0339704 -0.67014 0
M  V30 4592 H 426.252 -0.736926 -1.90761 0
M  V30 4593 H 424.407 0.910891 -3.76539 0
M  V30 4594 H 424.821 -0.787165 -5.1856 0
M  V30 4595 H 426.295 0.903143 -5.44562 0
M  V30 4596 H 426.772 1.80031 -4.00606 0
M  V30 4597 H 427.378 0.146069 -4.25049 0
M  V30 4598 N 425.693 1.55336 -0.266172 0
M  V30 4599 C 426.942 1.98574 0.353749 0
M  V30 4600 C 427.255 1.15789 1.57646 0
M  V30 4601 O 428.461 1.49129 2.26876 0
M  V30 4602 C 426.917 3.53403 0.680747 0
M  V30 4603 C 426.525 4.44953 -0.52165 0
M  V30 4604 C 428.269 4.05251 1.26379 0
M  V30 4605 C 426.176 5.91156 -0.169736 0
M  V30 4606 H 425.106 0.741643 0.135949 0
M  V30 4607 H 427.757 1.79743 -0.369421 0
M  V30 4608 H 426.139 3.68001 1.46257 0
M  V30 4609 H 427.313 4.42121 -1.29869 0
M  V30 4610 H 425.628 4.03691 -1.02093 0
M  V30 4611 H 428.225 5.12021 1.54074 0
M  V30 4612 H 428.568 3.53749 2.19471 0
M  V30 4613 H 429.101 3.94057 0.544447 0
M  V30 4614 H 425.84 6.46736 -1.0683 0
M  V30 4615 H 425.36 5.97079 0.570717 0
M  V30 4616 H 427.039 6.4655 0.241245 0
M  V30 4617 N 427.171 -0.0066808 1.57599 0
M  V30 4618 C 428.119 -1.01851 2.09115 0
M  V30 4619 C 429.113 -1.36021 1.00969 0
M  V30 4620 O 430.319 -1.34663 1.19439 0
M  V30 4621 H 426.694 -0.346083 0.667631 0
M  V30 4622 H 428.665 -0.558394 2.93129 0
M  V30 4623 C 427.414 -2.30374 2.60429 0
M  V30 4624 H 426.737 -2.04947 3.43273 0
M  V30 4625 H 428.177 -2.99466 3.00161 0
M  V30 4626 C 426.636 -3.00893 1.51542 0
M  V30 4627 O 427.166 -3.91614 0.894484 0
M  V30 4628 N 425.372 -2.62603 1.2445 0
M  V30 4629 H 424.919 -1.88911 1.75129 0
M  V30 4630 H 424.877 -3.10101 0.518137 0
M  V30 4631 N 428.649 -1.55105 -0.279332 0
M  V30 4632 C 429.877 -1.7943 -1.03017 0
M  V30 4633 C 430.292 -0.564456 -1.80165 0
M  V30 4634 O 429.649 0.466326 -1.76442 0
M  V30 4635 C 429.7 -3.0155 -1.99374 0
M  V30 4636 O 429.421 -4.19784 -1.25352 0
M  V30 4637 C 430.922 -3.3843 -2.86321 0
M  V30 4638 H 428.142 -0.597882 -0.304594 0
M  V30 4639 H 430.686 -2.02105 -0.312035 0
M  V30 4640 H 428.841 -2.81019 -2.66659 0
M  V30 4641 H 429.255 -4.88781 -1.90246 0
M  V30 4642 H 430.729 -4.27066 -3.49741 0
M  V30 4643 H 431.206 -2.57549 -3.5576 0
M  V30 4644 H 431.812 -3.61197 -2.24536 0
M  V30 4645 N 430.127 0.543554 -1.4793 0
M  V30 4646 C 431.077 1.64527 -1.57844 0
M  V30 4647 C 432.061 1.54869 -0.436408 0
M  V30 4648 O 433.253 1.63119 -0.687101 0
M  V30 4649 C 430.382 3.03281 -1.6086 0
M  V30 4650 C 429.468 3.18093 -2.80495 0
M  V30 4651 N 429.859 3.02923 -4.05057 0
M  V30 4652 C 428.157 3.49121 -2.77543 0
M  V30 4653 C 428.858 3.20791 -4.85251 0
M  V30 4654 N 427.834 3.47749 -4.17818 0
M  V30 4655 H 431.636 1.51388 -2.5191 0
M  V30 4656 H 429.15 0.748671 -1.44113 0
M  V30 4657 H 431.147 3.82403 -1.66054 0
M  V30 4658 H 429.807 3.17521 -0.678996 0
M  V30 4659 H 430.818 2.79966 -4.35705 0
M  V30 4660 H 427.495 3.69804 -1.93781 0
M  V30 4661 H 428.885 3.13915 -5.9406 0
M  V30 4662 N 431.605 1.3629 0.791371 0
M  V30 4663 C 432.535 1.33137 1.91825 0
M  V30 4664 C 433.516 0.203168 1.68882 0
M  V30 4665 O 434.701 0.400509 1.90025 0
M  V30 4666 C 431.831 1.11793 3.28816 0
M  V30 4667 C 430.785 2.21417 3.66277 0
M  V30 4668 C 430.111 1.85218 5.01596 0
M  V30 4669 C 431.411 3.63489 3.75064 0
M  V30 4670 H 433.105 2.2743 1.9472 0
M  V30 4671 H 430.651 1.09479 0.935437 0
M  V30 4672 H 432.604 1.08222 4.07266 0
M  V30 4673 H 431.328 0.139501 3.26302 0
M  V30 4674 H 429.987 2.2411 2.90121 0
M  V30 4675 H 429.635 0.859544 4.95602 0
M  V30 4676 H 429.335 2.58611 5.27631 0
M  V30 4677 H 430.859 1.832 5.82469 0
M  V30 4678 H 432.273 3.63034 4.43711 0
M  V30 4679 H 430.67 4.35771 4.12582 0
M  V30 4680 H 431.74 3.98536 2.76219 0
M  V30 4681 N 433.083 -1.0153 1.20538 0
M  V30 4682 C 434.499 -1.27461 0.96051 0
M  V30 4683 C 434.699 -1.98273 -0.359193 0
M  V30 4684 O 433.755 -2.27886 -1.0874 0
M  V30 4685 C 435.068 -2.10837 2.14402 0
M  V30 4686 C 436.616 -2.24099 2.18515 0
M  V30 4687 C 437.091 -3.10852 3.36355 0
M  V30 4688 N 438.582 -3.18441 3.36377 0
M  V30 4689 C 439.317 -3.85795 4.24205 0
M  V30 4690 N 438.813 -4.55264 5.22213 0
M  V30 4691 N 440.606 -3.82331 4.12043 0
M  V30 4692 H 432.757 -0.539907 2.05423 0
M  V30 4693 H 435.02 -0.30092 0.898972 0
M  V30 4694 H 434.726 -1.66144 3.09983 0
M  V30 4695 H 434.6 -3.11576 2.12604 0
M  V30 4696 H 436.987 -2.68016 1.23497 0
M  V30 4697 H 437.068 -1.22865 2.24361 0
M  V30 4698 H 436.712 -2.6764 4.31661 0
M  V30 4699 H 436.642 -4.12177 3.27746 0
M  V30 4700 H 439.133 -2.68978 2.65442 0
M  V30 4701 H 439.446 -5.04331 5.85551 0
M  V30 4702 H 437.791 -4.54085 5.26148 0
M  V30 4703 H 440.982 -3.27207 3.34743 0
M  V30 4704 H 441.155 -4.34547 4.807 0
M  V30 4705 N 434.561 -1.01147 -1.20859 0
M  V30 4706 C 435.471 -0.58686 -2.27141 0
M  V30 4707 C 436.487 0.373198 -1.69951 0
M  V30 4708 O 437.663 0.235423 -2.00019 0
M  V30 4709 C 434.728 0.0733602 -3.46622 0
M  V30 4710 C 433.789 -0.931995 -4.19061 0
M  V30 4711 C 433.022 -0.303186 -5.32838 0
M  V30 4712 O 433.245 0.898395 -5.63281 0
M  V30 4713 O 432.179 -1.01735 -5.9324 0
M  V30 4714 H 436.005 -1.47155 -2.65667 0
M  V30 4715 H 433.59 -0.780689 -1.2738 0
M  V30 4716 H 435.472 0.442333 -4.19072 0
M  V30 4717 H 434.147 0.932329 -3.09983 0
M  V30 4718 H 433.054 -1.35224 -3.48805 0
M  V30 4719 H 434.387 -1.76076 -4.59628 0
M  V30 4720 N 436.039 1.36541 -0.78704 0
M  V30 4721 C 437.267 2.03561 -0.370199 0
M  V30 4722 C 437.682 1.59347 1.01263 0
M  V30 4723 O 437.039 0.781781 1.64907 0
M  V30 4724 C 437.09 3.59033 -0.421614 0
M  V30 4725 O 436.811 4.01634 -1.7499 0
M  V30 4726 C 438.312 4.433 0.00489763 0
M  V30 4727 H 435.532 0.653346 -0.152904 0
M  V30 4728 H 438.076 1.74566 -1.06522 0
M  V30 4729 H 436.231 3.86746 0.224971 0
M  V30 4730 H 436.645 4.96217 -1.69909 0
M  V30 4731 H 438.119 5.51939 -0.0822184 0
M  V30 4732 H 438.596 4.26285 1.05723 0
M  V30 4733 H 439.202 4.20843 -0.614085 0
M  V30 4734 N 437.518 0.538854 1.48102 0
M  V30 4735 C 438.448 -0.207654 2.32575 0
M  V30 4736 C 439.429 -0.926559 1.4265 0
M  V30 4737 O 440.614 -0.91061 1.71527 0
M  V30 4738 C 437.744 -1.24957 3.24042 0
M  V30 4739 C 436.698 -0.648263 4.23062 0
M  V30 4740 C 436.024 -1.79348 5.03725 0
M  V30 4741 C 437.324 0.385897 5.20872 0
M  V30 4742 H 439.018 0.497534 2.95237 0
M  V30 4743 H 436.564 0.240715 1.41974 0
M  V30 4744 H 438.517 -1.77983 3.81969 0
M  V30 4745 H 437.241 -1.98446 2.59397 0
M  V30 4746 H 435.9 -0.139452 3.66335 0
M  V30 4747 H 435.548 -2.51696 4.35498 0
M  V30 4748 H 435.248 -1.39702 5.70751 0
M  V30 4749 H 436.772 -2.32735 5.64506 0
M  V30 4750 H 438.186 -0.057607 5.73271 0
M  V30 4751 H 436.583 0.700227 5.96001 0
M  V30 4752 H 437.653 1.28848 4.67468 0
M  V30 4753 N 438.996 -1.55193 0.274407 0
M  V30 4754 C 440.407 -1.85358 -0.223488 0
M  V30 4755 C 440.758 -1.19642 -1.555 0
M  V30 4756 O 439.883 -0.484498 -2.10907 0
M  V30 4757 C 440.478 -3.36282 -0.412285 0
M  V30 4758 C 439.037 -3.66574 -0.854413 0
M  V30 4759 C 438.184 -2.7725 0.0527056 0
M  V30 4760 H 441.135 -1.50743 0.496215 0
M  V30 4761 H 441.156 -3.59349 -1.25094 0
M  V30 4762 H 440.668 -3.84083 0.556965 0
M  V30 4763 H 438.769 -3.24273 -1.83516 0
M  V30 4764 H 438.882 -4.74073 -0.692226 0
M  V30 4765 H 437.246 -2.50447 -0.463484 0
M  V30 4766 H 438.029 -3.27865 1.01783 0
M  V30 4767 N 440.474 -0.00167713 -1.576 0
M  V30 4768 C 441.421 0.989195 -2.08527 0
M  V30 4769 C 442.391 1.34031 -0.981065 0
M  V30 4770 O 443.576 1.43839 -1.2536 0
M  V30 4771 C 440.716 2.27537 -2.59463 0
M  V30 4772 C 439.829 1.98314 -3.83791 0
M  V30 4773 C 438.964 3.21025 -4.23222 0
M  V30 4774 C 438.003 2.87495 -5.40382 0
M  V30 4775 N 437.14 4.02749 -5.75098 0
M  V30 4776 H 441.98 0.547973 -2.92919 0
M  V30 4777 H 439.517 0.258917 -1.44803 0
M  V30 4778 H 441.475 3.02729 -2.87073 0
M  V30 4779 H 440.105 2.69325 -1.77943 0
M  V30 4780 H 439.157 1.13482 -3.63078 0
M  V30 4781 H 440.469 1.69601 -4.69081 0
M  V30 4782 H 439.623 4.04561 -4.52123 0
M  V30 4783 H 438.362 3.52877 -3.36644 0
M  V30 4784 H 437.367 2.02367 -5.11202 0
M  V30 4785 H 438.592 2.56889 -6.28637 0
M  V30 4786 H 436.538 4.34494 -4.91478 0
M  V30 4787 H 436.455 3.77566 -6.54966 0
M  V30 4788 H 437.723 4.87068 -6.08592 0
M  V30 4789 N 441.952 1.55251 0.271103 0
M  V30 4790 C 443.201 1.75151 1.00025 0
M  V30 4791 C 443.514 0.561041 1.87381 0
M  V30 4792 O 444.72 0.642506 2.63788 0
M  V30 4793 C 443.176 3.09999 1.82835 0
M  V30 4794 C 442.784 4.3662 1.00336 0
M  V30 4795 C 444.528 3.39249 2.55168 0
M  V30 4796 C 442.435 5.62506 1.82595 0
M  V30 4797 H 441.365 0.652877 0.377183 0
M  V30 4798 H 444.016 1.81708 0.255843 0
M  V30 4799 H 442.398 2.97485 2.61378 0
M  V30 4800 H 443.572 4.60055 0.261959 0
M  V30 4801 H 441.887 4.14527 0.394486 0
M  V30 4802 H 444.484 4.3051 3.1712 0
M  V30 4803 H 444.827 2.59467 3.2555 0
M  V30 4804 H 445.36 3.52869 1.83653 0
M  V30 4805 H 442.099 6.45041 1.16631 0
M  V30 4806 H 441.619 5.43211 2.54327 0
M  V30 4807 H 443.298 6.00875 2.39913 0
M  V30 4808 N 443.43 -0.535701 1.48216 0
M  V30 4809 C 444.841 -1.11769 1.49548 0
M  V30 4810 C 445.192 -1.94442 0.26207 0
M  V30 4811 O 444.317 -2.06987 -0.631287 0
M  V30 4812 C 444.912 -2.03367 2.70975 0
M  V30 4813 C 443.471 -2.56795 2.75196 0
M  V30 4814 C 442.618 -1.33631 2.42977 0
M  V30 4815 H 445.569 -0.321232 1.55415 0
M  V30 4816 H 445.59 -2.87569 2.49167 0
M  V30 4817 H 445.102 -1.43169 3.60727 0
M  V30 4818 H 443.203 -3.20731 1.89638 0
M  V30 4819 H 443.316 -2.9632 3.76472 0
M  V30 4820 H 441.68 -1.6502 1.94012 0
M  V30 4821 H 442.463 -0.75194 3.34964 0
M  V30 4822 N 444.908 -1.36708 -0.784132 0
M  V30 4823 C 446.138 -1.34203 -1.57077 0
M  V30 4824 C 446.546 0.0774945 -1.89041 0
M  V30 4825 O 445.889 1.04628 -1.50992 0
M  V30 4826 C 445.951 -2.10351 -2.91535 0
M  V30 4827 C 445.615 -3.59405 -2.82272 0
M  V30 4828 C 446.612 -4.53545 -2.54151 0
M  V30 4829 C 444.297 -4.02362 -3.00683 0
M  V30 4830 C 446.291 -5.8862 -2.44551 0
M  V30 4831 C 443.978 -5.37526 -2.90704 0
M  V30 4832 C 444.976 -6.30468 -2.62677 0
M  V30 4833 O 444.664 -7.63149 -2.52702 0
M  V30 4834 H 444.396 -0.461791 -0.493685 0
M  V30 4835 H 446.95 -1.80475 -0.980712 0
M  V30 4836 H 445.18 -1.5875 -3.52612 0
M  V30 4837 H 446.869 -2.00636 -3.52845 0
M  V30 4838 H 447.635 -4.21669 -2.39625 0
M  V30 4839 H 443.514 -3.30389 -3.21503 0
M  V30 4840 H 447.058 -6.61133 -2.22596 0
M  V30 4841 H 442.955 -5.69008 -3.04795 0
M  V30 4842 H 443.723 -7.73331 -2.68144 0
M  V30 4843 N 446.386 1.0089 -1.21074 0
M  V30 4844 C 447.632 1.74866 -1.02712 0
M  V30 4845 C 447.965 1.89178 0.438787 0
M  V30 4846 O 447.24 1.42325 1.32567 0
M  V30 4847 C 447.523 3.16347 -1.72036 0
M  V30 4848 C 447.376 3.09782 -3.26121 0
M  V30 4849 C 448.695 4.15187 -1.45973 0
M  V30 4850 H 445.814 0.634736 -0.374539 0
M  V30 4851 H 448.456 1.17646 -1.49196 0
M  V30 4852 H 446.606 3.65201 -1.32517 0
M  V30 4853 H 448.278 2.68673 -3.74983 0
M  V30 4854 H 446.521 2.46982 -3.56626 0
M  V30 4855 H 447.192 4.09829 -3.6979 0
M  V30 4856 H 449.668 3.75022 -1.80272 0
M  V30 4857 H 448.544 5.12331 -1.96999 0
M  V30 4858 H 448.805 4.40386 -0.388924 0
M  V30 4859 N 447.864 1.01787 1.20321 0
M  V30 4860 C 448.811 0.589197 2.23153 0
M  V30 4861 C 449.781 -0.391367 1.61423 0
M  V30 4862 O 450.966 -0.290518 1.88575 0
M  V30 4863 C 448.106 -0.0650747 3.45039 0
M  V30 4864 C 447.219 0.960207 4.21194 0
M  V30 4865 C 446.354 0.276854 5.30478 0
M  V30 4866 C 445.393 1.2888 5.98378 0
M  V30 4867 N 444.53 0.632031 6.99249 0
M  V30 4868 H 449.37 1.47071 2.59179 0
M  V30 4869 H 446.907 0.736192 1.27352 0
M  V30 4870 H 448.865 -0.461552 4.14639 0
M  V30 4871 H 447.495 -0.910233 3.09701 0
M  V30 4872 H 446.547 1.47484 3.50646 0
M  V30 4873 H 447.859 1.72977 4.67847 0
M  V30 4874 H 447.013 -0.175056 6.06447 0
M  V30 4875 H 445.752 -0.525004 4.84866 0
M  V30 4876 H 444.757 1.75109 5.21169 0
M  V30 4877 H 445.982 2.09196 6.46076 0
M  V30 4878 H 443.928 -0.149935 6.55829 0
M  V30 4879 H 443.845 1.33964 7.44036 0
M  V30 4880 H 445.113 0.203755 7.79234 0
M  V30 4881 N 449.342 -1.36122 0.79427 0
M  V30 4882 C 450.305 -2.28309 0.201889 0
M  V30 4883 C 451.305 -1.49041 -0.603603 0
M  V30 4884 O 452.495 -1.68964 -0.423888 0
M  V30 4885 C 449.627 -3.3321 -0.719978 0
M  V30 4886 H 450.82 -2.82208 1.01481 0
M  V30 4887 H 448.373 -1.45768 0.564037 0
M  V30 4888 H 449.108 -2.84475 -1.55706 0
M  V30 4889 H 448.893 -3.91835 -0.144266 0
M  V30 4890 H 450.383 -4.02044 -1.12916 0
M  V30 4891 N 450.82 -0.546701 -1.47814 0
M  V30 4892 C 452.069 -0.0166497 -2.01693 0
M  V30 4893 C 452.382 1.33721 -1.42752 0
M  V30 4894 O 453.588 1.95658 -1.8823 0
M  V30 4895 C 452.044 0.0206769 -3.59894 0
M  V30 4896 C 451.652 -1.3293 -4.27824 0
M  V30 4897 C 453.396 0.498674 -4.21561 0
M  V30 4898 C 451.303 -1.25165 -5.78003 0
M  V30 4899 H 450.233 -0.0024541 -0.753996 0
M  V30 4900 H 452.884 -0.692984 -1.69912 0
M  V30 4901 H 451.266 0.76244 -3.88591 0
M  V30 4902 H 452.44 -2.08795 -4.10781 0
M  V30 4903 H 450.755 -1.74438 -3.78101 0
M  V30 4904 H 453.352 0.575 -5.31599 0
M  V30 4905 H 453.695 1.5083 -3.88016 0
M  V30 4906 H 454.228 -0.18791 -3.97356 0
M  V30 4907 H 450.967 -2.23695 -6.1615 0
M  V30 4908 H 450.487 -0.53464 -5.97412 0
M  V30 4909 H 452.166 -0.949299 -6.39998 0
M  V30 4910 N 452.299 1.55045 -0.282633 0
M  V30 4911 C 453.576 1.9179 0.384166 0
M  V30 4912 C 453.956 1.20778 1.73136 0
M  V30 4913 O 453.304 0.33719 2.25998 0
M  V30 4914 C 453.514 3.45149 0.517014 0
M  V30 4915 C 454.862 4.17064 0.796427 0
M  V30 4916 O 455.886 3.51084 0.601535 0
M  V30 4917 O 454.745 5.33837 1.16962 0
M  V30 4918 H 451.839 0.799483 0.211558 0
M  V30 4919 H 454.385 1.66474 -0.32934 0
M  V30 4920 H 453.157 3.88922 -0.430772 0
M  V30 4921 H 452.78 3.76443 1.2797 0
M  V30 4922 N 453.777 0.010035 1.57597 0
M  V30 4923 C 454.71 -1.01234 2.04516 0
M  V30 4924 C 455.688 -1.32886 0.937024 0
M  V30 4925 O 456.872 -1.44879 1.20592 0
M  V30 4926 C 453.999 -2.33738 2.45121 0
M  V30 4927 C 453.045 -2.17679 3.66767 0
M  V30 4928 S 453.878 -1.49343 5.14254 0
M  V30 4929 C 455.034 -2.83256 5.58137 0
M  V30 4930 H 455.267 -0.612866 2.90914 0
M  V30 4931 H 452.8 -0.201124 1.53084 0
M  V30 4932 H 454.758 -3.09922 2.69182 0
M  V30 4933 H 453.419 -2.70823 1.59103 0
M  V30 4934 H 452.612 -3.1559 3.92962 0
M  V30 4935 H 452.214 -1.4964 3.42759 0
M  V30 4936 H 454.506 -3.79538 5.6121 0
M  V30 4937 H 455.449 -2.61749 6.57946 0
M  V30 4938 H 455.857 -2.87627 4.85727 0
M  V30 4939 N 455.255 -1.55392 -0.262866 0
M  V30 4940 C 456.485 -1.80251 -1.00961 0
M  V30 4941 C 456.893 -0.58117 -1.80053 0
M  V30 4942 O 456.236 0.459427 -1.77862 0
M  V30 4943 C 456.298 -2.98207 -2.00781 0
M  V30 4944 C 455.962 -4.34856 -1.40533 0
M  V30 4945 C 456.959 -5.13459 -0.815853 0
M  V30 4946 C 454.644 -4.8153 -1.42948 0
M  V30 4947 C 456.638 -6.36875 -0.258562 0
M  V30 4948 C 454.325 -6.04899 -0.868334 0
M  V30 4949 C 455.323 -6.8241 -0.283884 0
M  V30 4950 O 455.011 -8.03451 0.268644 0
M  V30 4951 H 454.743 -0.604049 -0.303482 0
M  V30 4952 H 457.297 -2.03257 -0.295926 0
M  V30 4953 H 455.527 -2.70917 -2.75936 0
M  V30 4954 H 457.216 -3.10299 -2.61667 0
M  V30 4955 H 457.982 -4.78526 -0.789812 0
M  V30 4956 H 453.861 -4.21201 -1.87378 0
M  V30 4957 H 457.405 -6.97318 0.198257 0
M  V30 4958 H 453.302 -6.39312 -0.891649 0
M  V30 4959 H 454.07 -8.18346 0.158974 0
M  V30 4960 N 456.733 0.527833 -1.48498 0
M  V30 4961 C 457.663 1.64136 -1.66077 0
M  V30 4962 C 458.644 1.62286 -0.509625 0
M  V30 4963 O 459.829 1.79449 -0.742413 0
M  V30 4964 C 456.959 3.02717 -1.70234 0
M  V30 4965 C 455.913 3.19426 -2.8487 0
M  V30 4966 C 455.239 4.5909 -2.74118 0
M  V30 4967 C 456.539 3.01993 -4.26142 0
M  V30 4968 H 458.233 1.4968 -2.593 0
M  V30 4969 H 455.779 0.718654 -1.24785 0
M  V30 4970 H 457.732 3.80491 -1.8112 0
M  V30 4971 H 456.456 3.18201 -0.735911 0
M  V30 4972 H 455.115 2.4407 -2.73542 0
M  V30 4973 H 454.763 4.71413 -1.7544 0
M  V30 4974 H 454.463 4.71214 -3.51042 0
M  V30 4975 H 455.987 5.3896 -2.86974 0
M  V30 4976 H 457.401 3.69558 -4.38292 0
M  V30 4977 H 455.798 3.2561 -5.04082 0
M  V30 4978 H 456.868 1.98396 -4.42456 0
M  V30 4979 N 458.211 1.37122 0.776871 0
M  V30 4980 C 459.144 1.26835 1.89705 0
M  V30 4981 C 460.122 0.14992 1.61907 0
M  V30 4982 O 461.306 0.323242 1.85708 0
M  V30 4983 C 458.433 0.95986 3.24814 0
M  V30 4984 C 457.479 2.09447 3.7153 0
M  V30 4985 S 458.312 3.71368 3.85806 0
M  V30 4986 C 459.468 3.42659 5.23771 0
M  V30 4987 H 459.701 2.21647 1.98141 0
M  V30 4988 H 457.234 1.22685 0.937433 0
M  V30 4989 H 459.192 0.788696 4.02852 0
M  V30 4990 H 457.853 0.0293137 3.14086 0
M  V30 4991 H 457.046 1.8335 4.69467 0
M  V30 4992 H 456.648 2.2255 3.00578 0
M  V30 4993 H 458.94 2.9733 6.0877 0
M  V30 4994 H 459.883 4.39905 5.54878 0
M  V30 4995 H 460.291 2.77708 4.91466 0
M  V30 4996 N 459.689 -1.00246 1.21608 0
M  V30 4997 C 460.937 -1.73717 1.0328 0
M  V30 4998 C 461.258 -1.90102 -0.434318 0
M  V30 4999 O 460.528 -1.45376 -1.31311 0
M  V30 5000 H 459.108 -0.643613 0.379172 0
M  V30 5001 H 461.77 -1.20787 1.52959 0
M  V30 5002 H 460.866 -2.73535 1.50283 0
M  V30 5003 N 461.167 -1.02423 -1.1978 0
M  V30 5004 C 462.407 -0.726635 -1.91048 0
M  V30 5005 C 462.771 0.730947 -1.77542 0
M  V30 5006 O 463.972 1.14141 -2.43362 0
M  V30 5007 C 462.243 -1.15964 -3.38064 0
M  V30 5008 S 463.802 -0.985172 -4.27598 0
M  V30 5009 H 460.62 -0.264679 -0.659899 0
M  V30 5010 H 463.222 -1.31309 -1.44838 0
M  V30 5011 H 461.926 -2.21619 -3.45417 0
M  V30 5012 H 461.457 -0.566274 -3.89303 0
M  V30 5013 H 463.472 0.106946 -4.96085 0
M  V30 5014 N 462.645 1.35699 -0.801477 0
M  V30 5015 C 463.892 1.98913 -0.379459 0
M  V30 5016 C 464.22 1.63592 1.05204 0
M  V30 5017 O 463.475 0.888563 1.74365 0
M  V30 5018 C 463.774 3.53828 -0.504041 0
M  V30 5019 C 463.44 4.09002 -1.8981 0
M  V30 5020 C 462.102 4.23783 -2.27951 0
M  V30 5021 C 464.454 4.38939 -2.81038 0
M  V30 5022 C 461.782 4.65816 -3.56696 0
M  V30 5023 C 464.134 4.82409 -4.09224 0
M  V30 5024 C 462.798 4.95395 -4.4737 0
M  V30 5025 H 462.068 0.727874 -0.138854 0
M  V30 5026 H 464.715 1.61994 -1.02128 0
M  V30 5027 H 463.02 3.91175 0.221242 0
M  V30 5028 H 464.717 4.00687 -0.158361 0
M  V30 5029 H 461.307 3.97946 -1.59176 0
M  V30 5030 H 465.491 4.27077 -2.52821 0
M  V30 5031 H 460.747 4.74059 -3.86106 0
M  V30 5032 H 464.921 5.04535 -4.80018 0
M  V30 5033 H 462.548 5.27724 -5.47185 0
M  V30 5034 N 464.123 0.554532 1.47522 0
M  V30 5035 C 465.369 0.0295227 2.02779 0
M  V30 5036 C 465.702 -1.31582 1.42828 0
M  V30 5037 O 464.977 -1.85561 0.582872 0
M  V30 5038 C 465.26 -0.0664057 3.60039 0
M  V30 5039 C 465.113 1.30585 4.30427 0
M  V30 5040 C 466.432 -0.781162 4.33112 0
M  V30 5041 H 463.551 0.0122027 0.736899 0
M  V30 5042 H 466.193 0.716305 1.7598 0
M  V30 5043 H 464.343 -0.651307 3.83002 0
M  V30 5044 H 466.015 1.93374 4.18813 0
M  V30 5045 H 464.258 1.88125 3.90886 0
M  V30 5046 H 464.929 1.19147 5.38988 0
M  V30 5047 H 467.405 -0.284565 4.15126 0
M  V30 5048 H 466.281 -0.817237 5.42782 0
M  V30 5049 H 466.542 -1.83672 4.0214 0
M  V30 5050 N 465.601 -1.54893 0.290851 0
M  V30 5051 C 466.848 -1.99933 -0.321391 0
M  V30 5052 C 467.176 -1.17927 -1.54672 0
M  V30 5053 O 466.431 -0.240902 -1.94212 0
M  V30 5054 C 466.73 -3.49815 -0.732397 0
M  V30 5055 C 466.396 -4.4921 0.390056 0
M  V30 5056 C 465.058 -4.76107 0.698223 0
M  V30 5057 C 467.41 -5.08453 1.14562 0
M  V30 5058 C 464.738 -5.59514 1.76526 0
M  V30 5059 C 467.09 -5.9302 2.2025 0
M  V30 5060 C 465.754 -6.18232 2.51684 0
M  V30 5061 H 465.024 -0.731608 -0.117605 0
M  V30 5062 H 467.671 -1.87107 0.407839 0
M  V30 5063 H 465.976 -3.60199 -1.54155 0
M  V30 5064 H 467.673 -3.82083 -1.21712 0
M  V30 5065 H 464.263 -4.28372 0.13976 0
M  V30 5066 H 468.447 -4.87683 0.920801 0
M  V30 5067 H 463.703 -5.77289 2.01364 0
M  V30 5068 H 467.877 -6.37955 2.7926 0
M  V30 5069 H 465.504 -6.82653 3.34499 0
M  V30 5070 N 467.08 -0.0183926 -1.57589 0
M  V30 5071 C 468.326 0.663543 -1.91638 0
M  V30 5072 C 468.659 1.72392 -0.894134 0
M  V30 5073 O 467.934 1.94316 0.0846449 0
M  V30 5074 C 468.217 1.28984 -3.36207 0
M  V30 5075 C 468.07 0.239761 -4.49161 0
M  V30 5076 C 469.389 2.2109 -3.80536 0
M  V30 5077 H 466.508 0.239746 -0.696915 0
M  V30 5078 H 469.15 -0.073456 -1.89858 0
M  V30 5079 H 467.3 1.91799 -3.37854 0
M  V30 5080 H 468.972 -0.390119 -4.59647 0
M  V30 5081 H 467.215 -0.435972 -4.31604 0
M  V30 5082 H 467.886 0.717383 -5.47319 0
M  V30 5083 H 470.362 1.68273 -3.80557 0
M  V30 5084 H 469.238 2.61869 -4.82406 0
M  V30 5085 H 469.499 3.09764 -3.15434 0
M  V30 5086 N 468.558 1.5553 0.254621 0
M  V30 5087 C 469.805 1.77 0.983736 0
M  V30 5088 C 470.133 0.58133 1.85609 0
M  V30 5089 O 469.388 -0.435621 1.9079 0
M  V30 5090 C 469.687 3.03891 1.88109 0
M  V30 5091 C 469.353 4.35597 1.16472 0
M  V30 5092 C 468.015 4.7139 0.966714 0
M  V30 5093 C 470.367 5.1705 0.656387 0
M  V30 5094 C 467.695 5.86176 0.247942 0
M  V30 5095 C 470.047 6.32581 -0.0488807 0
M  V30 5096 C 468.711 6.67 -0.258438 0
M  V30 5097 H 467.981 0.647688 0.359974 0
M  V30 5098 H 470.628 1.89802 0.254463 0
M  V30 5099 H 468.933 2.86068 2.67717 0
M  V30 5100 H 470.63 3.17701 2.44677 0
M  V30 5101 H 467.22 4.07475 1.32899 0
M  V30 5102 H 471.404 4.8986 0.796933 0
M  V30 5103 H 466.66 6.11354 0.075035 0
M  V30 5104 H 470.834 6.94942 -0.450444 0
M  V30 5105 H 468.461 7.55793 -0.817358 0
M  V30 5106 N 470.036 -0.519951 1.48776 0
M  V30 5107 C 470.966 -1.63253 1.66945 0
M  V30 5108 C 471.947 -1.62014 0.518224 0
M  V30 5109 O 473.132 -1.79053 0.751919 0
M  V30 5110 C 470.262 -3.0181 1.71836 0
M  V30 5111 C 469.216 -3.17911 2.8656 0
M  V30 5112 C 468.542 -4.5763 2.76548 0
M  V30 5113 C 469.842 -2.99729 4.27738 0
M  V30 5114 H 471.536 -1.48302 2.6009 0
M  V30 5115 H 469.082 -0.712026 1.25165 0
M  V30 5116 H 471.035 -3.79525 1.83135 0
M  V30 5117 H 469.759 -3.17806 0.752775 0
M  V30 5118 H 468.418 -2.42616 2.74833 0
M  V30 5119 H 468.066 -4.70476 1.77937 0
M  V30 5120 H 467.766 -4.69346 3.53536 0
M  V30 5121 H 469.29 -5.37431 2.89828 0
M  V30 5122 H 470.704 -3.67228 4.40246 0
M  V30 5123 H 469.101 -3.22932 5.05801 0
M  V30 5124 H 470.171 -1.96047 4.43502 0
M  V30 5125 N 471.514 -1.37532 -0.769588 0
M  V30 5126 C 472.477 -1.33292 -1.86456 0
M  V30 5127 C 473.477 -0.236537 -1.59051 0
M  V30 5128 O 474.667 -0.492511 -1.67093 0
M  V30 5129 C 471.799 -1.07118 -3.23633 0
M  V30 5130 H 472.992 -2.30692 -1.91628 0
M  V30 5131 H 470.545 -1.22593 -0.969572 0
M  V30 5132 H 471.28 -0.102578 -3.24138 0
M  V30 5133 H 471.065 -1.86479 -3.44917 0
M  V30 5134 H 472.555 -1.06806 -4.03711 0
M  V30 5135 N 472.992 0.995999 -1.22138 0
M  V30 5136 C 473.922 2.10387 -1.01289 0
M  V30 5137 C 474.903 1.69975 0.0651454 0
M  V30 5138 O 476.088 1.9396 -0.0964628 0
M  V30 5139 C 473.218 3.42312 -0.586517 0
M  V30 5140 C 472.172 3.96558 -1.61014 0
M  V30 5141 C 471.498 5.24494 -1.0397 0
M  V30 5142 C 472.798 4.27595 -2.99933 0
M  V30 5143 H 474.492 2.28086 -1.93951 0
M  V30 5144 H 472.038 1.09607 -0.933928 0
M  V30 5145 H 473.991 4.19223 -0.427793 0
M  V30 5146 H 472.715 3.24431 0.375761 0
M  V30 5147 H 471.374 3.21776 -1.75658 0
M  V30 5148 H 471.022 5.02953 -0.0688703 0
M  V30 5149 H 470.722 5.61755 -1.72352 0
M  V30 5150 H 472.246 6.04042 -0.892494 0
M  V30 5151 H 473.66 4.95315 -2.8868 0
M  V30 5152 H 472.057 4.76021 -3.6541 0
M  V30 5153 H 473.127 3.35498 -3.50099 0
M  V30 5154 N 474.47 1.03057 1.19235 0
M  V30 5155 C 475.4 0.633497 2.24742 0
M  V30 5156 C 476.381 -0.358335 1.66283 0
M  V30 5157 O 477.566 -0.240676 1.92703 0
M  V30 5158 C 474.696 -0.0147648 3.47297 0
M  V30 5159 C 473.65 0.899527 4.18441 0
M  V30 5160 C 472.976 0.116281 5.34574 0
M  V30 5161 C 474.276 2.21404 4.73051 0
M  V30 5162 H 475.97 1.5155 2.58211 0
M  V30 5163 H 473.516 0.73014 1.24117 0
M  V30 5164 H 475.469 -0.304202 4.20301 0
M  V30 5165 H 474.193 -0.931577 3.13032 0
M  V30 5166 H 472.852 1.17319 3.47321 0
M  V30 5167 H 472.5 -0.802619 4.96555 0
M  V30 5168 H 472.2 0.725293 5.83107 0
M  V30 5169 H 473.724 -0.166376 6.10373 0
M  V30 5170 H 475.138 1.98601 5.37802 0
M  V30 5171 H 473.535 2.77512 5.32078 0
M  V30 5172 H 474.605 2.86752 3.91026 0
M  V30 5173 N 475.948 -1.35272 0.808662 0
M  V30 5174 C 476.858 -2.33546 0.222079 0
M  V30 5175 C 477.874 -1.6196 -0.636011 0
M  V30 5176 O 479.05 -1.93822 -0.547274 0
M  V30 5177 C 476.115 -3.41148 -0.61795 0
M  V30 5178 C 475.176 -4.28507 0.260875 0
M  V30 5179 C 474.409 -5.3097 -0.539156 0
M  V30 5180 O 474.632 -5.42123 -1.77367 0
M  V30 5181 O 473.566 -6.01858 0.0710526 0
M  V30 5182 H 477.392 -2.85515 1.03512 0
M  V30 5183 H 474.977 -1.38079 0.570495 0
M  V30 5184 H 476.859 -4.06889 -1.09634 0
M  V30 5185 H 475.534 -2.91447 -1.40855 0
M  V30 5186 H 474.441 -3.6574 0.786451 0
M  V30 5187 H 475.774 -4.81611 1.01547 0
M  V30 5188 N 477.426 -0.562348 -1.47226 0
M  V30 5189 C 478.656 -0.0451619 -2.06551 0
M  V30 5190 C 479.064 1.25626 -1.41473 0
M  V30 5191 O 478.407 1.76563 -0.507061 0
M  V30 5192 C 478.469 0.216068 -3.5885 0
M  V30 5193 C 478.133 -0.996691 -4.45999 0
M  V30 5194 C 479.13 -1.90358 -4.83797 0
M  V30 5195 C 476.815 -1.21281 -4.87438 0
M  V30 5196 C 478.809 -3.01023 -5.6184 0
M  V30 5197 C 476.496 -2.32255 -5.65244 0
M  V30 5198 C 477.494 -3.21956 -6.02356 0
M  V30 5199 O 477.182 -4.31005 -6.78594 0
M  V30 5200 H 476.914 -0.0451646 -0.67449 0
M  V30 5201 H 479.468 -0.776842 -1.90143 0
M  V30 5202 H 477.698 1.00212 -3.7349 0
M  V30 5203 H 479.387 0.679264 -4.00176 0
M  V30 5204 H 480.153 -1.74868 -4.52378 0
M  V30 5205 H 476.032 -0.523767 -4.58015 0
M  V30 5206 H 479.576 -3.71064 -5.90726 0
M  V30 5207 H 475.473 -2.47715 -5.96077 0
M  V30 5208 H 476.241 -4.29118 -6.96994 0
M  V30 5209 N 478.904 1.54736 -0.299062 0
M  V30 5210 C 479.867 2.22127 0.565012 0
M  V30 5211 C 480.867 1.20669 1.06281 0
M  V30 5212 O 482.057 1.45417 0.959145 0
M  V30 5213 C 479.189 2.90611 1.78208 0
M  V30 5214 H 480.382 2.99891 -0.0237448 0
M  V30 5215 H 477.935 1.5622 -0.0498788 0
M  V30 5216 H 478.67 2.16921 2.41072 0
M  V30 5217 H 478.455 3.64984 1.43281 0
M  V30 5218 H 479.945 3.42026 2.396 0
M  V30 5219 N 480.382 0.0267497 1.57577 0
M  V30 5220 C 481.629 -0.652404 1.91703 0
M  V30 5221 C 481.957 -1.72271 0.902936 0
M  V30 5222 O 481.212 -1.955 -0.0884843 0
M  V30 5223 C 481.511 -1.30914 3.3256 0
M  V30 5224 C 481.177 -0.369441 4.49384 0
M  V30 5225 C 479.839 -0.110791 4.81072 0
M  V30 5226 C 482.191 0.275971 5.20469 0
M  V30 5227 C 479.519 0.801116 5.81205 0
M  V30 5228 C 481.871 1.17592 6.21575 0
M  V30 5229 C 480.535 1.44348 6.51705 0
M  V30 5230 H 479.805 -0.238732 0.70149 0
M  V30 5231 H 482.452 0.0880091 1.91298 0
M  V30 5232 H 480.757 -2.12425 3.29216 0
M  V30 5233 H 482.454 -1.84115 3.56234 0
M  V30 5234 H 479.044 -0.581211 4.24641 0
M  V30 5235 H 483.228 0.0892 4.9622 0
M  V30 5236 H 478.484 1.01614 6.02897 0
M  V30 5237 H 482.658 1.68223 6.75777 0
M  V30 5238 H 480.285 2.15176 7.29111 0
M  V30 5239 N 481.861 -1.55662 -0.24637 0
M  V30 5240 C 483.107 -1.77782 -0.975779 0
M  V30 5241 C 483.44 -0.592103 -1.84953 0
M  V30 5242 O 482.715 0.409588 -1.90138 0
M  V30 5243 C 482.998 -3.09788 -1.83584 0
M  V30 5244 C 482.851 -4.38764 -0.990241 0
M  V30 5245 C 484.17 -3.38029 -2.81823 0
M  V30 5246 H 481.289 -0.646789 -0.353317 0
M  V30 5247 H 483.931 -1.88398 -0.246248 0
M  V30 5248 H 482.081 -3.00869 -2.45784 0
M  V30 5249 H 483.753 -4.59675 -0.386897 0
M  V30 5250 H 481.996 -4.32798 -0.294626 0
M  V30 5251 H 482.667 -5.27514 -1.62584 0
M  V30 5252 H 485.143 -3.46915 -2.2976 0
M  V30 5253 H 484.019 -4.3161 -3.39122 0
M  V30 5254 H 484.28 -2.58968 -3.58313 0
M  V30 5255 N 483.339 0.512053 -1.4905 0
M  V30 5256 C 484.287 1.63568 -1.65373 0
M  V30 5257 C 485.281 1.61228 -0.519806 0
M  V30 5258 O 486.487 1.65869 -0.699101 0
M  V30 5259 H 482.862 0.542019 -0.521267 0
M  V30 5260 H 484.833 1.4695 -2.59708 0
M  V30 5261 C 483.582 3.01761 -1.7273 0
M  V30 5262 H 482.905 3.04263 -2.59353 0
M  V30 5263 H 484.345 3.79948 -1.8819 0
M  V30 5264 C 482.804 3.33609 -0.46973 0
M  V30 5265 O 483.334 3.99607 0.409492 0
M  V30 5266 N 481.54 2.88651 -0.336003 0
M  V30 5267 H 481.087 2.35119 -1.05247 0
M  V30 5268 H 481.045 3.10328 0.504363 0
M  V30 5269 N 484.817 1.37938 0.762283 0
M  V30 5270 C 486.047 1.36685 1.54922 0
M  V30 5271 C 486.455 -0.0474099 1.89141 0
M  V30 5272 O 485.798 -1.02213 1.52638 0
M  V30 5273 C 485.86 2.14963 2.88152 0
M  V30 5274 C 485.524 3.6385 2.76518 0
M  V30 5275 C 486.521 4.57531 2.46904 0
M  V30 5276 C 484.206 4.07095 2.94243 0
M  V30 5277 C 486.2 5.92436 2.35156 0
M  V30 5278 C 483.887 5.42083 2.82116 0
M  V30 5279 C 484.885 6.34567 2.52614 0
M  V30 5280 O 484.573 7.67073 2.40529 0
M  V30 5281 H 484.305 0.469586 0.486276 0
M  V30 5282 H 486.859 1.82012 0.951876 0
M  V30 5283 H 485.089 1.6434 3.50042 0
M  V30 5284 H 486.778 2.06224 3.49609 0
M  V30 5285 H 487.544 4.25428 2.32886 0
M  V30 5286 H 483.423 3.35462 3.16206 0
M  V30 5287 H 486.967 6.64591 2.12049 0
M  V30 5288 H 482.864 5.73785 2.95704 0
M  V30 5289 H 483.632 7.77499 2.55807 0
M  V30 5290 N 486.295 -0.989507 1.22664 0
M  V30 5291 C 487.544 -1.72375 1.04737 0
M  V30 5292 C 487.857 -1.91096 -0.417316 0
M  V30 5293 O 489.063 -2.6188 -0.716334 0
M  V30 5294 C 487.519 -3.10161 1.82561 0
M  V30 5295 C 487.127 -2.99358 3.333 0
M  V30 5296 C 488.871 -3.87607 1.73093 0
M  V30 5297 C 486.778 -4.32319 4.03552 0
M  V30 5298 H 485.708 -0.646326 0.388302 0
M  V30 5299 H 488.359 -1.10437 1.46546 0
M  V30 5300 H 486.741 -3.728 1.33552 0
M  V30 5301 H 487.915 -2.45863 3.89728 0
M  V30 5302 H 486.23 -2.35392 3.43481 0
M  V30 5303 H 488.827 -4.86025 2.22899 0
M  V30 5304 H 489.17 -4.10509 0.691976 0
M  V30 5305 H 489.703 -3.31652 2.19663 0
M  V30 5306 H 486.442 -4.14616 5.07714 0
M  V30 5307 H 485.962 -4.85714 3.51911 0
M  V30 5308 H 487.641 -5.01051 4.09337 0
M  V30 5309 N 487.773 -1.03688 -1.18687 0
M  V30 5310 C 489.02 -0.73803 -1.88572 0
M  V30 5311 C 489.348 0.733973 -1.8012 0
M  V30 5312 O 488.603 1.55098 -1.19344 0
M  V30 5313 C 488.902 -1.14477 -3.3857 0
M  V30 5314 C 488.568 -2.61641 -3.67226 0
M  V30 5315 C 487.23 -3.01846 -3.74757 0
M  V30 5316 C 489.582 -3.56812 -3.79914 0
M  V30 5317 C 486.91 -4.36118 -3.92451 0
M  V30 5318 C 489.262 -4.90799 -3.99123 0
M  V30 5319 C 487.926 -5.3068 -4.04888 0
M  V30 5320 H 487.196 -0.270064 -0.690034 0
M  V30 5321 H 489.843 -1.3012 -1.40503 0
M  V30 5322 H 488.148 -0.500337 -3.88592 0
M  V30 5323 H 489.845 -0.89095 -3.90977 0
M  V30 5324 H 486.435 -2.29498 -3.61979 0
M  V30 5325 H 490.619 -3.26899 -3.73431 0
M  V30 5326 H 485.875 -4.66542 -3.95157 0
M  V30 5327 H 490.049 -5.64451 -4.07882 0
M  V30 5328 H 487.676 -6.34733 -4.18351 0
M  V30 5329 N 489.251 1.34841 -0.815825 0
M  V30 5330 C 490.498 1.98499 -0.400535 0
M  V30 5331 C 490.826 1.64699 1.03463 0
M  V30 5332 O 490.081 0.907006 1.73412 0
M  V30 5333 C 490.38 3.53273 -0.541541 0
M  V30 5334 C 490.046 4.06966 -1.94138 0
M  V30 5335 C 488.708 4.21341 -2.32433 0
M  V30 5336 C 491.06 4.35933 -2.85677 0
M  V30 5337 C 488.388 4.62007 -3.61617 0
M  V30 5338 C 490.74 4.78042 -4.14317 0
M  V30 5339 C 489.404 4.90622 -4.52599 0
M  V30 5340 H 488.674 0.72636 -0.146566 0
M  V30 5341 H 491.321 1.60902 -1.0384 0
M  V30 5342 H 489.626 3.91387 0.179741 0
M  V30 5343 H 491.323 4.00497 -0.20085 0
M  V30 5344 H 487.913 3.96235 -1.63388 0
M  V30 5345 H 492.097 4.24372 -2.57337 0
M  V30 5346 H 487.353 4.69937 -3.91113 0
M  V30 5347 H 491.527 4.99415 -4.85342 0
M  V30 5348 H 489.154 5.2189 -5.52752 0
M  V30 5349 N 490.729 0.570148 1.46925 0
M  V30 5350 C 491.977 0.0508523 2.02036 0
M  V30 5351 C 492.298 -1.30885 1.44548 0
M  V30 5352 O 491.568 -1.85647 0.625453 0
M  V30 5353 H 490.148 0.0158088 0.746833 0
M  V30 5354 H 492.81 0.743086 1.80178 0
M  V30 5355 H 491.906 -0.027575 3.12088 0
M  V30 5356 N 492.207 -1.54576 0.307264 0
M  V30 5357 C 493.623 -1.59534 -0.0459251 0
M  V30 5358 C 493.823 -1.32414 -1.51884 0
M  V30 5359 O 492.879 -1.1006 -2.27251 0
M  V30 5360 C 494.192 -2.98566 0.357649 0
M  V30 5361 C 495.74 -3.11491 0.306937 0
M  V30 5362 C 496.215 -4.52842 0.685427 0
M  V30 5363 N 497.706 -4.58782 0.638203 0
M  V30 5364 C 498.441 -5.66238 0.903458 0
M  V30 5365 N 497.937 -6.81703 1.23501 0
M  V30 5366 N 499.73 -5.55937 0.830102 0
M  V30 5367 H 491.881 -1.70464 1.26712 0
M  V30 5368 H 494.144 -0.79647 0.514139 0
M  V30 5369 H 493.85 -3.23356 1.38325 0
M  V30 5370 H 493.724 -3.76117 -0.285565 0
M  V30 5371 H 496.111 -2.86446 -0.709424 0
M  V30 5372 H 496.192 -2.36081 0.984861 0
M  V30 5373 H 495.836 -4.78618 1.69963 0
M  V30 5374 H 495.766 -5.26598 -0.0146346 0
M  V30 5375 H 498.257 -3.75849 0.393138 0
M  V30 5376 H 498.57 -7.59582 1.42322 0
M  V30 5377 H 496.915 -6.8324 1.27311 0
M  V30 5378 H 500.106 -4.64608 0.570693 0
M  V30 5379 H 500.279 -6.39597 1.04019 0
M  V30 5380 N 493.685 -0.035106 -1.57561 0
M  V30 5381 C 494.933 0.64096 -1.91667 0
M  V30 5382 C 495.254 1.72323 -0.912681 0
M  V30 5383 O 494.524 1.95849 0.0449089 0
M  V30 5384 H 493.104 0.239743 -0.707483 0
M  V30 5385 H 495.766 -0.084321 -1.94718 0
M  V30 5386 H 494.862 1.08987 -2.92452 0
M  V30 5387 N 495.163 1.55791 0.238111 0
M  V30 5388 C 496.574 1.68383 0.806472 0
M  V30 5389 C 496.925 0.634157 1.85669 0
M  V30 5390 O 496.05 -0.217913 2.153 0
M  V30 5391 C 496.645 3.05268 1.46959 0
M  V30 5392 C 495.204 3.1977 1.98555 0
M  V30 5393 C 494.351 2.64279 0.839763 0
M  V30 5394 H 497.302 1.58694 0.0137535 0
M  V30 5395 H 497.323 3.00203 2.33792 0
M  V30 5396 H 496.835 3.81643 0.704993 0
M  V30 5397 H 494.936 2.48234 2.77868 0
M  V30 5398 H 495.049 4.26788 2.17689 0
M  V30 5399 H 493.413 2.22329 1.24265 0
M  V30 5400 H 494.196 3.43187 0.0881032 0
M  V30 5401 N 496.642 -0.504142 1.49319 0
M  V30 5402 C 497.574 -1.62265 1.61872 0
M  V30 5403 C 498.587 -1.54881 0.501573 0
M  V30 5404 O 499.776 -1.6087 0.773497 0
M  V30 5405 C 496.876 -3.01042 1.55651 0
M  V30 5406 C 496.049 -3.33642 2.82845 0
M  V30 5407 C 495.108 -4.51816 2.69719 0
M  V30 5408 O 494.134 -4.53755 3.4365 0
M  V30 5409 N 495.336 -5.51543 1.81055 0
M  V30 5410 H 498.101 -1.51924 2.58339 0
M  V30 5411 H 495.662 -0.691954 1.46368 0
M  V30 5412 H 497.654 -3.78013 1.44528 0
M  V30 5413 H 496.224 -3.05323 0.670546 0
M  V30 5414 H 495.444 -2.45598 3.08343 0
M  V30 5415 H 496.732 -3.5222 3.67177 0
M  V30 5416 H 496.13 -5.52774 1.20241 0
M  V30 5417 H 494.687 -6.27629 1.75856 0
M  V30 5418 N 498.12 -1.38341 -0.754957 0
M  V30 5419 C 499.536 -1.19508 -1.05783 0
M  V30 5420 C 499.736 -0.0428005 -2.01455 0
M  V30 5421 O 498.792 0.611861 -2.44975 0
M  V30 5422 C 500.105 -2.52091 -1.63923 0
M  V30 5423 C 501.653 -2.58762 -1.76101 0
M  V30 5424 C 502.128 -3.91517 -2.37652 0
M  V30 5425 N 503.619 -3.93049 -2.45085 0
M  V30 5426 C 504.354 -4.9253 -2.93602 0
M  V30 5427 N 503.85 -6.02408 -3.42165 0
M  V30 5428 N 505.643 -4.79921 -2.92629 0
M  V30 5429 H 497.794 -2.1206 -0.120056 0
M  V30 5430 H 500.057 -0.94089 -0.11589 0
M  V30 5431 H 499.763 -3.36858 -1.01093 0
M  V30 5432 H 499.637 -2.70388 -2.63003 0
M  V30 5433 H 502.024 -1.74391 -2.38058 0
M  V30 5434 H 502.105 -2.44333 -0.757294 0
M  V30 5435 H 501.749 -4.76309 -1.76329 0
M  V30 5436 H 501.679 -4.03256 -3.38662 0
M  V30 5437 H 504.17 -3.13685 -2.10736 0
M  V30 5438 H 504.483 -6.74248 -3.77637 0
M  V30 5439 H 502.828 -6.0603 -3.40225 0
M  V30 5440 H 506.019 -3.93194 -2.54001 0
M  V30 5441 H 506.192 -5.57601 -3.30128 0
M  V30 5442 N 499.598 0.982988 -1.23187 0
M  V30 5443 C 500.53 2.07729 -0.968572 0
M  V30 5444 C 501.543 1.62702 0.0564821 0
M  V30 5445 O 502.732 1.77603 -0.178733 0
M  V30 5446 C 499.832 3.36071 -0.436974 0
M  V30 5447 C 499.005 4.10081 -1.52159 0
M  V30 5448 C 498.064 5.16701 -0.99532 0
M  V30 5449 O 497.09 5.43727 -1.68373 0
M  V30 5450 N 498.292 5.80226 0.178192 0
M  V30 5451 H 501.057 2.30894 -1.9107 0
M  V30 5452 H 498.618 1.14949 -1.1401 0
M  V30 5453 H 500.61 4.04639 -0.0700051 0
M  V30 5454 H 499.18 3.09893 0.410509 0
M  V30 5455 H 498.4 3.36004 -2.06144 0
M  V30 5456 H 499.688 4.56295 -2.25105 0
M  V30 5457 H 499.086 5.60651 0.754096 0
M  V30 5458 H 497.643 6.49982 0.486449 0
M  V30 5459 N 501.076 1.04316 1.18135 0
M  V30 5460 C 502.023 0.636398 2.21853 0
M  V30 5461 C 502.993 -0.357039 1.62217 0
M  V30 5462 O 504.178 -0.250453 1.89149 0
M  V30 5463 C 501.318 0.00812779 3.45099 0
M  V30 5464 C 500.431 1.04933 4.19062 0
M  V30 5465 C 499.566 0.389313 5.29771 0
M  V30 5466 C 498.605 1.41544 5.9551 0
M  V30 5467 N 497.742 0.78021 6.97751 0
M  V30 5468 H 502.582 1.52536 2.56002 0
M  V30 5469 H 500.119 0.76304 1.25762 0
M  V30 5470 H 502.077 -0.373497 4.15525 0
M  V30 5471 H 500.707 -0.844336 3.11562 0
M  V30 5472 H 499.759 1.54888 3.47439 0
M  V30 5473 H 501.071 1.82862 4.64072 0
M  V30 5474 H 500.225 -0.0463805 6.06682 0
M  V30 5475 H 498.964 -0.422038 4.8587 0
M  V30 5476 H 497.969 1.86124 5.17337 0
M  V30 5477 H 499.194 2.22854 6.41493 0
M  V30 5478 H 497.14 -0.0107899 6.55999 0
M  V30 5479 H 497.057 1.49716 7.41027 0
M  V30 5480 H 498.325 0.368996 7.78626 0
M  V30 5481 N 502.554 -1.34406 0.822964 0
M  V30 5482 C 503.501 -2.29519 0.24284 0
M  V30 5483 C 504.471 -1.5359 -0.632397 0
M  V30 5484 O 505.656 -1.8196 -0.57403 0
M  V30 5485 C 502.796 -3.40032 -0.58925 0
M  V30 5486 C 501.909 -4.30899 0.308236 0
M  V30 5487 C 501.044 -5.28515 -0.533425 0
M  V30 5488 C 500.083 -6.1102 0.363444 0
M  V30 5489 N 499.22 -7.00725 -0.439147 0
M  V30 5490 H 504.06 -2.78537 1.05929 0
M  V30 5491 H 501.597 -1.3707 0.533872 0
M  V30 5492 H 503.555 -4.0279 -1.087 0
M  V30 5493 H 502.185 -2.92248 -1.37081 0
M  V30 5494 H 501.237 -3.69002 0.924203 0
M  V30 5495 H 502.549 -4.88717 0.997862 0
M  V30 5496 H 501.703 -5.96725 -1.09565 0
M  V30 5497 H 500.442 -4.71235 -1.25656 0
M  V30 5498 H 499.447 -5.41743 0.937812 0
M  V30 5499 H 500.672 -6.70381 1.08469 0
M  V30 5500 H 498.618 -6.45913 -1.14595 0
M  V30 5501 H 498.535 -7.55756 0.19209 0
M  V30 5502 H 499.803 -7.73263 -0.984124 0
M  V30 5503 N 504.032 -0.577932 -1.46621 0
M  V30 5504 C 504.962 0.145917 -2.33044 0
M  V30 5505 C 505.943 0.888412 -1.45056 0
M  V30 5506 O 507.128 0.864812 -1.73881 0
M  V30 5507 C 504.258 1.16322 -3.27241 0
M  V30 5508 C 503.212 0.535868 -4.24632 0
M  V30 5509 C 502.538 1.65929 -5.08303 0
M  V30 5510 C 503.838 -0.523861 -5.19666 0
M  V30 5511 H 505.532 -0.575636 -2.93814 0
M  V30 5512 H 503.078 -0.278272 -1.41286 0
M  V30 5513 H 505.031 1.67793 -3.86553 0
M  V30 5514 H 503.755 1.91498 -2.64567 0
M  V30 5515 H 502.414 0.0422759 -3.66576 0
M  V30 5516 H 502.062 2.40061 -4.42018 0
M  V30 5517 H 501.762 1.2452 -5.74255 0
M  V30 5518 H 503.286 2.17686 -5.70478 0
M  V30 5519 H 504.7 -0.0944059 -5.73222 0
M  V30 5520 H 503.097 -0.858 -5.93935 0
M  V30 5521 H 504.167 -1.41197 -4.63887 0
M  V30 5522 N 505.51 1.54411 -0.315457 0
M  V30 5523 C 506.473 2.22713 0.54142 0
M  V30 5524 C 507.473 1.2179 1.04995 0
M  V30 5525 O 508.663 1.46426 0.943667 0
M  V30 5526 C 505.795 2.92485 1.75116 0
M  V30 5527 H 506.988 2.99849 -0.0555508 0
M  V30 5528 H 504.541 1.56159 -0.0664453 0
M  V30 5529 H 505.276 2.19466 2.38758 0
M  V30 5530 H 505.061 3.66483 1.39401 0
M  V30 5531 H 506.551 3.44548 2.35959 0
M  V30 5532 N 506.988 0.0434614 1.5754 0
M  V30 5533 C 507.898 -0.94893 2.14552 0
M  V30 5534 C 508.914 -1.34707 1.10136 0
M  V30 5535 O 510.09 -1.42557 1.42266 0
M  V30 5536 C 507.155 -2.208 2.67298 0
M  V30 5537 C 506.216 -1.86893 3.86484 0
M  V30 5538 C 505.449 -3.06797 4.36705 0
M  V30 5539 O 505.672 -4.19921 3.86034 0
M  V30 5540 O 504.606 -2.8826 5.28384 0
M  V30 5541 H 508.432 -0.494099 2.99654 0
M  V30 5542 H 506.017 -0.177989 1.48336 0
M  V30 5543 H 507.899 -2.94686 3.01228 0
M  V30 5544 H 506.574 -2.65436 1.85272 0
M  V30 5545 H 505.481 -1.10347 3.57455 0
M  V30 5546 H 506.814 -1.47062 4.69716 0
M  V30 5547 N 508.466 -1.55915 -0.229846 0
M  V30 5548 C 509.413 -1.91734 -1.28478 0
M  V30 5549 C 510.383 -0.773539 -1.46988 0
M  V30 5550 O 511.568 -1.02871 -1.60693 0
M  V30 5551 C 508.708 -2.23224 -2.63182 0
M  V30 5552 C 507.821 -3.50497 -2.52539 0
M  V30 5553 C 506.956 -3.71474 -3.79711 0
M  V30 5554 C 505.995 -4.92289 -3.63755 0
M  V30 5555 N 505.132 -5.09698 -4.82858 0
M  V30 5556 H 509.972 -2.81692 -0.972308 0
M  V30 5557 H 507.509 -1.39429 -0.468815 0
M  V30 5558 H 509.467 -2.3949 -3.41614 0
M  V30 5559 H 508.097 -1.36451 -2.92542 0
M  V30 5560 H 507.149 -3.4247 -1.65585 0
M  V30 5561 H 508.461 -4.39079 -2.36666 0
M  V30 5562 H 507.615 -3.87791 -4.66586 0
M  V30 5563 H 506.354 -2.81157 -3.985 0
M  V30 5564 H 505.359 -4.7593 -2.75264 0
M  V30 5565 H 506.584 -5.84083 -3.46445 0
M  V30 5566 H 504.53 -4.22322 -5.01976 0
M  V30 5567 H 504.447 -5.92399 -4.69681 0
M  V30 5568 H 505.715 -5.30443 -5.71183 0
M  V30 5569 N 509.944 0.496216 -1.49584 0
M  V30 5570 C 511.172 1.27394 -1.63029 0
M  V30 5571 C 511.587 1.86344 -0.303569 0
M  V30 5572 O 510.944 1.68057 0.711547 0
M  V30 5573 C 510.995 2.40077 -2.70269 0
M  V30 5574 O 510.716 1.83549 -3.97796 0
M  V30 5575 C 512.217 3.31372 -2.94462 0
M  V30 5576 H 509.437 0.386211 -0.54871 0
M  V30 5577 H 511.981 0.595163 -1.95648 0
M  V30 5578 H 510.136 3.03775 -2.40415 0
M  V30 5579 H 510.55 2.57561 -4.56905 0
M  V30 5580 H 512.024 4.06707 -3.73221 0
M  V30 5581 H 512.501 3.88654 -2.0456 0
M  V30 5582 H 513.107 2.73435 -3.25751 0
M  V30 5583 N 511.423 1.38739 0.74761 0
M  V30 5584 C 512.386 1.36241 1.84312 0
M  V30 5585 C 513.386 0.261811 1.58654 0
M  V30 5586 O 514.576 0.519031 1.66288 0
M  V30 5587 C 511.708 1.12253 3.21888 0
M  V30 5588 H 512.901 2.33712 1.87933 0
M  V30 5589 H 510.454 1.2412 0.949946 0
M  V30 5590 H 511.189 0.154133 3.23934 0
M  V30 5591 H 510.974 1.91943 3.41907 0
M  V30 5592 H 512.464 1.13215 4.0196 0
M  V30 5593 N 512.901 -0.976442 1.23707 0
M  V30 5594 C 513.848 -2.06952 1.02174 0
M  V30 5595 C 514.818 -1.65984 -0.0621034 0
M  V30 5596 O 516.003 -1.90584 0.0907906 0
M  V30 5597 C 513.143 -3.39425 0.62327 0
M  V30 5598 C 512.256 -3.9364 1.77966 0
M  V30 5599 C 511.391 -5.14343 1.3276 0
M  V30 5600 C 510.43 -5.60733 2.45449 0
M  V30 5601 N 509.567 -6.72662 2.01172 0
M  V30 5602 H 514.407 -2.24704 1.95734 0
M  V30 5603 H 511.944 -1.10143 0.975034 0
M  V30 5604 H 513.902 -4.15526 0.37332 0
M  V30 5605 H 512.532 -3.21624 -0.275329 0
M  V30 5606 H 511.584 -3.14258 2.14351 0
M  V30 5607 H 512.896 -4.24035 2.62671 0
M  V30 5608 H 512.05 -5.97789 1.03601 0
M  V30 5609 H 510.789 -4.8561 0.450975 0
M  V30 5610 H 509.794 -4.75865 2.75378 0
M  V30 5611 H 511.019 -5.91483 3.33654 0
M  V30 5612 H 508.965 -6.45681 1.15895 0
M  V30 5613 H 508.882 -7.02462 2.79434 0
M  V30 5614 H 510.15 -7.59572 1.75129 0
M  V30 5615 N 514.379 -1.04941 -1.1758 0
M  V30 5616 C 515.342 -0.652456 -2.19717 0
M  V30 5617 C 516.342 0.294745 -1.58076 0
M  V30 5618 O 517.532 0.0789579 -1.74021 0
M  V30 5619 C 514.664 0.0420712 -3.40874 0
M  V30 5620 H 515.857 -1.55642 -2.5635 0
M  V30 5621 H 513.41 -0.842995 -1.31618 0
M  V30 5622 H 514.145 0.95943 -3.09783 0
M  V30 5623 H 513.93 -0.638844 -3.86861 0
M  V30 5624 H 515.42 0.306 -4.16477 0
M  V30 5625 N 515.857 1.33968 -0.830081 0
M  V30 5626 C 516.804 2.29387 -0.255008 0
M  V30 5627 C 517.774 1.53923 0.624243 0
M  V30 5628 O 518.959 1.82262 0.564372 0
M  V30 5629 C 516.099 3.4034 0.571209 0
M  V30 5630 C 515.212 4.30729 -0.331083 0
M  V30 5631 C 514.347 5.2879 0.505389 0
M  V30 5632 C 513.386 6.10819 -0.395843 0
M  V30 5633 N 512.523 7.00948 0.401979 0
M  V30 5634 H 517.363 2.77972 -1.07404 0
M  V30 5635 H 514.9 1.36785 -0.541133 0
M  V30 5636 H 516.858 4.03361 1.06562 0
M  V30 5637 H 515.488 2.9297 1.35529 0
M  V30 5638 H 514.54 3.68507 -0.943759 0
M  V30 5639 H 515.852 4.88181 -1.02377 0
M  V30 5640 H 515.006 5.97297 1.06399 0
M  V30 5641 H 513.745 4.71894 1.23155 0
M  V30 5642 H 512.75 5.41238 -0.966529 0
M  V30 5643 H 513.975 6.69797 -1.12023 0
M  V30 5644 H 511.921 6.46512 1.11168 0
M  V30 5645 H 511.838 7.55643 -0.232167 0
M  V30 5646 H 513.106 7.73774 0.943102 0
M  V30 5647 N 517.335 0.585699 1.46312 0
M  V30 5648 C 518.283 -0.158577 2.32059 0
M  V30 5649 C 519.277 -0.881427 1.44662 0
M  V30 5650 O 520.483 -0.799476 1.61271 0
M  V30 5651 H 516.858 -0.0700066 0.748734 0
M  V30 5652 H 518.829 0.583383 2.92642 0
M  V30 5653 C 517.578 -1.15701 3.27885 0
M  V30 5654 H 516.901 -0.610215 3.95116 0
M  V30 5655 H 518.341 -1.64812 3.90657 0
M  V30 5656 C 516.8 -2.21951 2.53455 0
M  V30 5657 O 517.33 -3.29352 2.29978 0
M  V30 5658 N 515.536 -1.9664 2.13965 0
M  V30 5659 H 515.083 -1.09309 2.33258 0
M  V30 5660 H 515.041 -2.6794 1.64485 0
M  V30 5661 N 518.813 -1.54241 0.323641 0
M  V30 5662 C 520.09 -1.92741 -0.333181 0
M  V30 5663 C 520.47 -1.25326 -1.69872 0
M  V30 5664 O 519.818 -0.396991 -2.25025 0
M  V30 5665 C 520.028 -3.46399 -0.425322 0
M  V30 5666 C 521.376 -4.19029 -0.68557 0
M  V30 5667 O 522.4 -3.52555 -0.50824 0
M  V30 5668 O 521.259 -5.36751 -1.02767 0
M  V30 5669 H 518.353 -0.804811 -0.190286 0
M  V30 5670 H 520.899 -1.65542 0.373361 0
M  V30 5671 H 519.671 -3.87643 0.533737 0
M  V30 5672 H 519.294 -3.79704 -1.17944 0
M  V30 5673 N 520.291 -0.0518155 -1.57515 0
M  V30 5674 C 521.707 0.304735 -1.56664 0
M  V30 5675 C 521.907 1.71395 -1.05953 0
M  V30 5676 O 520.963 2.42123 -0.716414 0
M  V30 5677 C 522.276 0.132614 -3.00407 0
M  V30 5678 C 523.824 0.20367 -3.12337 0
M  V30 5679 C 524.299 0.0600706 -4.57961 0
M  V30 5680 N 525.79 0.116326 -4.63054 0
M  V30 5681 C 526.525 0.0293363 -5.73392 0
M  V30 5682 N 526.021 -0.110038 -6.92713 0
M  V30 5683 N 527.814 0.0849651 -5.62036 0
M  V30 5684 H 519.965 -0.973056 -1.888 0
M  V30 5685 H 522.228 -0.377781 -0.869474 0
M  V30 5686 H 521.934 -0.839019 -3.41546 0
M  V30 5687 H 521.808 0.893376 -3.66468 0
M  V30 5688 H 524.195 1.16578 -2.71097 0
M  V30 5689 H 524.276 -0.587857 -2.48954 0
M  V30 5690 H 523.92 -0.898715 -4.99886 0
M  V30 5691 H 523.85 0.87075 -5.19351 0
M  V30 5692 H 526.341 0.22327 -3.7724 0
M  V30 5693 H 526.654 -0.169104 -7.72615 0
M  V30 5694 H 524.999 -0.145132 -6.94848 0
M  V30 5695 H 528.19 0.192411 -4.67704 0
M  V30 5696 H 528.363 0.0137131 -6.47999 0
M  V30 5697 N 521.769 1.56035 0.221574 0
M  V30 5698 C 522.994 1.83476 0.967026 0
M  V30 5699 C 523.419 0.632139 1.7716 0
M  V30 5700 O 522.777 -0.419082 1.7639 0
M  V30 5701 C 522.825 3.08907 1.86034 0
M  V30 5702 O 521.929 2.876 2.95567 0
M  V30 5703 H 521.27 0.604913 0.273817 0
M  V30 5704 H 523.8 2.03247 0.234893 0
M  V30 5705 H 523.81 3.3901 2.27016 0
M  V30 5706 H 522.485 3.96068 1.26898 0
M  V30 5707 H 521.062 2.6873 2.58532 0
M  V30 5708 N 523.247 -0.488276 1.49845 0
M  V30 5709 C 524.194 -1.58836 1.67451 0
M  V30 5710 C 525.164 -1.57886 0.515857 0
M  V30 5711 O 526.349 -1.75679 0.744403 0
M  V30 5712 C 523.489 -2.96915 1.75885 0
M  V30 5713 C 522.602 -3.07784 3.03138 0
M  V30 5714 C 521.737 -4.36673 3.02473 0
M  V30 5715 C 520.776 -4.41222 4.24252 0
M  V30 5716 N 519.913 -5.61557 4.21424 0
M  V30 5717 H 524.753 -1.43131 2.61376 0
M  V30 5718 H 522.29 -0.696186 1.29583 0
M  V30 5719 H 524.248 -3.76965 1.78755 0
M  V30 5720 H 522.878 -3.11295 0.85414 0
M  V30 5721 H 521.93 -2.20717 3.09819 0
M  V30 5722 H 523.242 -3.07005 3.93128 0
M  V30 5723 H 522.396 -5.25055 3.03977 0
M  V30 5724 H 521.135 -4.40037 2.10283 0
M  V30 5725 H 520.14 -3.5124 4.22978 0
M  V30 5726 H 521.365 -4.39564 5.17649 0
M  V30 5727 H 519.311 -5.65738 3.32078 0
M  V30 5728 H 519.228 -5.62447 5.05163 0
M  V30 5729 H 520.496 -6.52111 4.2705 0
M  V30 5730 N 524.725 -1.39134 -0.740242 0
M  V30 5731 C 525.95 -1.39518 -1.53459 0
M  V30 5732 C 526.375 0.00968883 -1.88098 0
M  V30 5733 O 525.733 0.995312 -1.51536 0
M  V30 5734 C 525.781 -2.26981 -2.802 0
M  V30 5735 O 524.885 -1.69609 -3.75908 0
M  V30 5736 H 524.226 -0.475328 -0.463637 0
M  V30 5737 H 526.756 -1.83064 -0.913717 0
M  V30 5738 H 526.766 -2.41309 -3.28989 0
M  V30 5739 H 525.441 -3.29081 -2.5432 0
M  V30 5740 H 524.018 -1.64495 -3.34658 0
M  V30 5741 N 526.204 0.969867 -1.24223 0
M  V30 5742 C 527.114 2.09806 -1.0497 0
M  V30 5743 C 528.13 1.73998 0.00886455 0
M  V30 5744 O 529.306 2.00513 -0.188848 0
M  V30 5745 C 526.371 3.40467 -0.654452 0
M  V30 5746 C 525.432 3.90236 -1.78926 0
M  V30 5747 C 524.665 5.14662 -1.41277 0
M  V30 5748 O 524.888 5.69602 -0.301632 0
M  V30 5749 O 523.822 5.58761 -2.23763 0
M  V30 5750 H 527.648 2.28942 -1.99548 0
M  V30 5751 H 525.233 1.08197 -1.03023 0
M  V30 5752 H 527.115 4.19039 -0.445452 0
M  V30 5753 H 525.79 3.22636 0.262216 0
M  V30 5754 H 524.697 3.12735 -2.05299 0
M  V30 5755 H 526.03 4.1254 -2.68462 0
M  V30 5756 N 527.682 1.05563 1.17022 0
M  V30 5757 C 528.907 0.788437 1.91829 0
M  V30 5758 C 529.332 -0.650356 1.76499 0
M  V30 5759 O 528.69 -1.45229 1.08527 0
M  V30 5760 C 528.738 1.1786 3.40795 0
M  V30 5761 O 527.842 0.312965 4.11211 0
M  V30 5762 H 527.183 0.288794 0.597908 0
M  V30 5763 H 529.713 1.40948 1.48307 0
M  V30 5764 H 529.723 1.14697 3.91546 0
M  V30 5765 H 528.398 2.22666 3.51273 0
M  V30 5766 H 526.975 0.405515 3.70689 0
M  V30 5767 N 529.16 -1.33526 0.837174 0
M  V30 5768 C 530.108 -2.31168 0.257698 0
M  V30 5769 C 531.102 -1.5806 -0.609388 0
M  V30 5770 O 532.308 -1.72941 -0.499139 0
M  V30 5771 H 528.683 -0.74922 0.0646058 0
M  V30 5772 H 530.654 -2.77552 1.09578 0
M  V30 5773 C 529.403 -3.4326 -0.553887 0
M  V30 5774 H 528.726 -3.99665 0.104008 0
M  V30 5775 H 530.166 -4.13782 -0.925219 0
M  V30 5776 C 528.625 -2.88965 -1.73207 0
M  V30 5777 O 529.155 -2.85013 -2.83073 0
M  V30 5778 N 527.361 -2.45596 -1.55342 0
M  V30 5779 H 526.908 -2.49009 -0.659705 0
M  V30 5780 H 526.866 -2.0962 -2.34322 0
M  V30 5781 N 530.638 -0.59345 -1.46 0
M  V30 5782 C 532.054 -0.255965 -1.57534 0
M  V30 5783 C 532.254 1.24167 -1.58697 0
M  V30 5784 O 531.31 2.02398 -1.50968 0
M  V30 5785 C 532.623 -0.91466 -2.86451 0
M  V30 5786 C 534.171 -0.889253 -3.00102 0
M  V30 5787 C 534.646 -1.52769 -4.3177 0
M  V30 5788 N 536.137 -1.49253 -4.38495 0
M  V30 5789 C 536.872 -1.9558 -5.39014 0
M  V30 5790 N 536.368 -2.49929 -6.46148 0
M  V30 5791 N 538.161 -1.86432 -5.30282 0
M  V30 5792 H 530.312 -1.56604 -1.43489 0
M  V30 5793 H 532.575 -0.655207 -0.685133 0
M  V30 5794 H 532.281 -1.96861 -2.91442 0
M  V30 5795 H 532.155 -0.429356 -3.74748 0
M  V30 5796 H 534.542 0.156111 -2.94687 0
M  V30 5797 H 534.623 -1.41268 -2.13253 0
M  V30 5798 H 534.267 -2.57231 -4.37944 0
M  V30 5799 H 534.197 -0.979398 -5.17412 0
M  V30 5800 H 536.688 -1.09536 -3.61677 0
M  V30 5801 H 537.001 -2.83109 -7.19075 0
M  V30 5802 H 535.346 -2.53961 -6.46938 0
M  V30 5803 H 538.537 -1.43722 -4.4549 0
M  V30 5804 H 538.71 -2.22852 -6.08474 0
M  V30 5805 N 532.116 1.54067 -0.331816 0
M  V30 5806 C 533.362 2.01012 0.268667 0
M  V30 5807 C 533.695 1.2195 1.51136 0
M  V30 5808 O 532.97 0.303972 1.9211 0
M  V30 5809 C 533.253 3.55158 0.59456 0
M  V30 5810 C 533.106 4.4494 -0.659409 0
M  V30 5811 C 534.425 4.16939 1.4089 0
M  V30 5812 H 531.544 0.730698 0.0961756 0
M  V30 5813 H 534.186 1.84593 -0.450031 0
M  V30 5814 H 532.336 3.6928 1.20685 0
M  V30 5815 H 534.008 4.42675 -1.29756 0
M  V30 5816 H 532.251 4.1428 -1.28665 0
M  V30 5817 H 532.922 5.50643 -0.386804 0
M  V30 5818 H 535.398 4.06443 0.891272 0
M  V30 5819 H 534.274 5.24889 1.60569 0
M  V30 5820 H 534.535 3.70798 2.40752 0
M  V30 5821 N 533.594 0.0601682 1.57485 0
M  V30 5822 C 534.871 -0.651956 1.84415 0
M  V30 5823 C 535.251 -1.88498 0.950361 0
M  V30 5824 O 534.599 -2.28496 0.0136719 0
M  V30 5825 C 534.809 -1.00069 3.34346 0
M  V30 5826 C 536.157 -1.37915 4.01578 0
M  V30 5827 O 537.181 -1.09277 3.39024 0
M  V30 5828 O 536.04 -1.91399 5.11887 0
M  V30 5829 H 533.134 -0.322668 0.761455 0
M  V30 5830 H 535.68 0.0902159 1.6946 0
M  V30 5831 H 534.452 -0.124463 3.91102 0
M  V30 5832 H 534.075 -1.80001 3.54521 0
M  V30 5833 N 535.072 -1.5615 -0.213296 0
M  V30 5834 C 536.035 -1.92249 -1.24792 0
M  V30 5835 C 537.035 -0.801828 -1.39382 0
M  V30 5836 O 538.225 -1.06948 -1.37506 0
M  V30 5837 C 535.357 -2.18056 -2.62039 0
M  V30 5838 H 536.55 -2.84793 -0.939845 0
M  V30 5839 H 534.103 -1.49559 -0.454062 0
M  V30 5840 H 534.838 -1.2809 -2.97932 0
M  V30 5841 H 534.623 -2.99703 -2.52825 0
M  V30 5842 H 536.113 -2.47051 -3.36683 0
M  V30 5843 N 536.55 0.480323 -1.50102 0
M  V30 5844 C 537.5 1.57685 -1.6468 0
M  V30 5845 C 538.484 1.52878 -0.5017 0
M  V30 5846 O 539.676 1.60058 -0.755668 0
M  V30 5847 C 536.805 2.96185 -1.73578 0
M  V30 5848 C 535.891 3.0591 -2.93734 0
M  V30 5849 N 536.282 2.85471 -4.1754 0
M  V30 5850 C 534.58 3.37036 -2.92101 0
M  V30 5851 C 535.281 2.99921 -4.9842 0
M  V30 5852 N 534.257 3.29715 -4.32191 0
M  V30 5853 H 538.059 1.40568 -2.58104 0
M  V30 5854 H 535.573 0.686874 -1.47159 0
M  V30 5855 H 537.57 3.75015 -1.82124 0
M  V30 5856 H 536.23 3.14356 -0.813057 0
M  V30 5857 H 537.241 2.61235 -4.47188 0
M  V30 5858 H 533.918 3.61253 -2.09291 0
M  V30 5859 H 535.308 2.88436 -6.06839 0
M  V30 5860 N 538.028 1.39524 0.732853 0
M  V30 5861 C 539.276 1.36594 1.48951 0
M  V30 5862 C 539.597 -0.0367507 1.94965 0
M  V30 5863 O 538.867 -0.988391 1.69138 0
M  V30 5864 H 537.447 0.502673 0.552566 0
M  V30 5865 H 540.109 1.74411 0.869869 0
M  V30 5866 H 539.205 2.03 2.3706 0
M  V30 5867 N 539.506 -0.963266 1.24736 0
M  V30 5868 C 540.454 -2.07985 1.04139 0
M  V30 5869 C 541.448 -1.69381 -0.0250556 0
M  V30 5870 O 542.654 -1.79531 0.129863 0
M  V30 5871 H 539.029 -0.680627 0.319768 0
M  V30 5872 H 541 -2.22517 1.98818 0
M  V30 5873 C 539.749 -3.4123 0.667615 0
M  V30 5874 H 539.072 -3.71397 1.48 0
M  V30 5875 H 540.512 -4.20244 0.563136 0
M  V30 5876 C 538.971 -3.3104 -0.625647 0
M  V30 5877 O 539.501 -3.65334 -1.67016 0
M  V30 5878 N 537.707 -2.84168 -0.608033 0
M  V30 5879 H 537.254 -2.56458 0.242323 0
M  V30 5880 H 537.212 -2.77732 -1.47352 0
M  V30 5881 N 540.985 -1.06182 -1.16461 0
M  V30 5882 C 542.234 -0.772927 -1.86303 0
M  V30 5883 C 542.547 0.703187 -1.82523 0
M  V30 5884 O 543.753 1.10641 -2.47933 0
M  V30 5885 C 542.209 -1.33249 -3.34324 0
M  V30 5886 C 541.817 -2.83876 -3.46581 0
M  V30 5887 C 543.561 -1.12108 -4.09429 0
M  V30 5888 C 541.468 -3.33082 -4.88682 0
M  V30 5889 H 540.398 -0.285452 -0.697878 0
M  V30 5890 H 543.049 -1.28039 -1.31447 0
M  V30 5891 H 541.431 -0.7528 -3.88779 0
M  V30 5892 H 542.605 -3.47786 -3.02293 0
M  V30 5893 H 540.92 -3.03671 -2.84909 0
M  V30 5894 H 543.517 -1.46361 -5.14279 0
M  V30 5895 H 543.86 -0.0593832 -4.16258 0
M  V30 5896 H 544.393 -1.6665 -3.6121 0
M  V30 5897 H 541.132 -4.38726 -4.87032 0
M  V30 5898 H 540.652 -2.73919 -5.33599 0
M  V30 5899 H 542.331 -3.28344 -5.57494 0
M  V30 5900 N 542.463 1.3308 -0.844243 0
M  V30 5901 C 543.393 2.3161 -0.296493 0
M  V30 5902 C 544.374 1.59215 0.598707 0
M  V30 5903 O 545.559 1.87077 0.521134 0
M  V30 5904 C 542.689 3.43313 0.524762 0
M  V30 5905 C 541.643 4.27115 -0.275106 0
M  V30 5906 C 540.969 5.30483 0.670236 0
M  V30 5907 C 542.269 5.00443 -1.49514 0
M  V30 5908 H 543.963 2.77672 -1.11976 0
M  V30 5909 H 541.509 1.33496 -0.539899 0
M  V30 5910 H 543.462 4.11273 0.918298 0
M  V30 5911 H 542.186 2.95952 1.3813 0
M  V30 5912 H 540.845 3.60787 -0.650267 0
M  V30 5913 H 540.493 4.79379 1.52332 0
M  V30 5914 H 540.193 5.87435 0.139123 0
M  V30 5915 H 541.717 6.01308 1.06117 0
M  V30 5916 H 543.131 5.61141 -1.17447 0
M  V30 5917 H 541.528 5.67071 -1.96343 0
M  V30 5918 H 542.598 4.28906 -2.26202 0
M  V30 5919 N 543.941 0.601185 1.45683 0
M  V30 5920 C 544.871 -0.108824 2.33246 0
M  V30 5921 C 545.852 -0.865223 1.46451 0
M  V30 5922 O 547.037 -0.83704 1.75235 0
M  V30 5923 C 544.167 -1.11101 3.2905 0
M  V30 5924 C 543.121 -0.468244 4.25431 0
M  V30 5925 C 542.447 -1.57822 5.10878 0
M  V30 5926 C 543.747 0.606469 5.18767 0
M  V30 5927 H 545.441 0.622306 2.92861 0
M  V30 5928 H 542.987 0.300714 1.40825 0
M  V30 5929 H 544.94 -1.61622 3.89174 0
M  V30 5930 H 543.664 -1.87265 2.67581 0
M  V30 5931 H 542.323 0.0160484 3.66596 0
M  V30 5932 H 541.971 -2.32998 4.45781 0
M  V30 5933 H 541.671 -1.15369 5.76163 0
M  V30 5934 H 543.195 -2.08583 5.73869 0
M  V30 5935 H 544.609 0.185589 5.73 0
M  V30 5936 H 543.006 0.952381 5.92494 0
M  V30 5937 H 544.076 1.48559 4.61582 0
M  V30 5938 N 545.419 -1.53889 0.339982 0
M  V30 5939 C 546.647 -2.05271 -0.259114 0
M  V30 5940 C 547.062 -1.21517 -1.44496 0
M  V30 5941 O 546.419 -0.24966 -1.80784 0
M  V30 5942 C 546.47 -3.55092 -0.677634 0
M  V30 5943 O 546.191 -4.35667 0.461051 0
M  V30 5944 C 547.692 -4.22631 -1.33782 0
M  V30 5945 H 544.912 -0.669085 -0.0506566 0
M  V30 5946 H 547.456 -1.9852 0.490935 0
M  V30 5947 H 545.611 -3.62077 -1.37763 0
M  V30 5948 H 546.025 -5.24343 0.128144 0
M  V30 5949 H 547.499 -5.28861 -1.58145 0
M  V30 5950 H 547.976 -3.74758 -2.29027 0
M  V30 5951 H 548.582 -4.19829 -0.679957 0
M  V30 5952 N 546.897 -0.0685191 -1.57451 0
M  V30 5953 C 548.122 0.613919 -1.98106 0
M  V30 5954 C 548.547 1.62551 -0.946501 0
M  V30 5955 O 547.905 1.81085 0.0882824 0
M  V30 5956 C 547.953 1.26189 -3.378 0
M  V30 5957 O 547.057 2.37773 -3.36954 0
M  V30 5958 H 546.398 0.158163 -0.644888 0
M  V30 5959 H 548.928 -0.142063 -2.04106 0
M  V30 5960 H 548.938 1.60951 -3.74912 0
M  V30 5961 H 547.613 0.520625 -4.12629 0
M  V30 5962 H 546.19 2.04829 -3.11608 0
M  V30 5963 N 548.375 1.56261 0.205012 0
M  V30 5964 C 549.305 1.96779 1.257 0
M  V30 5965 C 550.286 0.838309 1.48008 0
M  V30 5966 O 551.471 1.10189 1.59913 0
M  V30 5967 C 548.601 2.29876 2.60335 0
M  V30 5968 C 547.555 3.45469 2.52656 0
M  V30 5969 C 546.881 3.64215 3.91473 0
M  V30 5970 C 548.181 4.79954 2.06014 0
M  V30 5971 H 549.875 2.84904 0.920338 0
M  V30 5972 H 547.421 1.37072 0.441277 0
M  V30 5973 H 549.374 2.56814 3.34102 0
M  V30 5974 H 548.098 1.38622 2.95722 0
M  V30 5975 H 546.757 3.18605 1.81345 0
M  V30 5976 H 546.405 2.70309 4.24196 0
M  V30 5977 H 546.105 4.41973 3.87213 0
M  V30 5978 H 547.629 3.93519 4.66878 0
M  V30 5979 H 549.043 5.05989 2.69533 0
M  V30 5980 H 547.44 5.61111 2.12777 0
M  V30 5981 H 548.51 4.74201 1.01297 0
M  V30 5982 N 549.853 -0.472356 1.50355 0
M  V30 5983 C 550.763 -1.59637 1.7191 0
M  V30 5984 C 551.779 -1.63247 0.602195 0
M  V30 5985 O 552.955 -1.81139 0.880369 0
M  V30 5986 C 550.02 -2.9586 1.80742 0
M  V30 5987 C 549.081 -3.02649 3.04471 0
M  V30 5988 C 548.314 -4.32374 3.12872 0
M  V30 5989 O 548.537 -5.22807 2.28099 0
M  V30 5990 O 547.471 -4.44728 4.05587 0
M  V30 5991 H 551.297 -1.44373 2.67189 0
M  V30 5992 H 548.882 -0.651717 1.34436 0
M  V30 5993 H 550.764 -3.7677 1.88739 0
M  V30 5994 H 549.439 -3.11325 0.88647 0
M  V30 5995 H 548.346 -2.20821 3.01975 0
M  V30 5996 H 549.679 -2.92119 3.9614 0
M  V30 5997 N 551.331 -1.39911 -0.725443 0
M  V30 5998 C 552.577 -1.37858 -1.48738 0
M  V30 5999 C 552.91 0.0224187 -1.94187 0
M  V30 6000 O 552.185 0.989204 -1.67466 0
M  V30 6001 C 552.468 -2.3594 -2.72038 0
M  V30 6002 C 552.321 -3.85023 -2.32546 0
M  V30 6003 C 553.64 -2.31704 -3.74167 0
M  V30 6004 H 550.759 -0.502074 -0.539528 0
M  V30 6005 H 553.401 -1.70974 -0.828728 0
M  V30 6006 H 551.551 -2.0783 -3.28236 0
M  V30 6007 H 553.223 -4.2392 -1.81905 0
M  V30 6008 H 551.466 -4.01334 -1.64661 0
M  V30 6009 H 552.137 -4.49152 -3.20884 0
M  V30 6010 H 554.613 -2.5658 -3.27576 0
M  V30 6011 H 553.489 -3.02395 -4.58092 0
M  V30 6012 H 553.75 -1.3253 -4.21768 0
M  V30 6013 N 552.809 0.956637 -1.25245 0
M  V30 6014 C 553.759 2.03841 -1.02141 0
M  V30 6015 C 554.743 1.60848 0.0410058 0
M  V30 6016 O 555.935 1.76142 -0.174084 0
M  V30 6017 C 553.064 3.37282 -0.639963 0
M  V30 6018 C 552.15 3.86805 -1.73903 0
M  V30 6019 N 552.541 4.09143 -2.97381 0
M  V30 6020 C 550.839 4.15574 -1.61909 0
M  V30 6021 C 551.54 4.49923 -3.68707 0
M  V30 6022 N 550.516 4.55737 -2.96318 0
M  V30 6023 H 554.318 2.19102 -1.95886 0
M  V30 6024 H 551.832 1.1413 -1.15534 0
M  V30 6025 H 553.829 4.14403 -0.455643 0
M  V30 6026 H 552.489 3.23401 0.29018 0
M  V30 6027 H 553.5 3.96275 -3.33447 0
M  V30 6028 H 550.177 4.10566 -0.757764 0
M  V30 6029 H 551.567 4.75526 -4.74684 0
M  V30 6030 N 554.287 1.06798 1.15896 0
M  V30 6031 C 555.235 0.677525 2.22514 0
M  V30 6032 C 556.229 -0.308994 1.66558 0
M  V30 6033 O 557.435 -0.173308 1.79164 0
M  V30 6034 H 553.81 0.200994 0.724642 0
M  V30 6035 H 555.781 1.5865 2.52731 0
M  V30 6036 C 554.53 0.0854153 3.47595 0
M  V30 6037 H 553.853 0.835645 3.90969 0
M  V30 6038 H 555.293 -0.150199 4.23734 0
M  V30 6039 C 553.752 -1.1724 3.15843 0
M  V30 6040 O 554.282 -2.25965 3.32119 0
M  V30 6041 N 552.488 -1.07636 2.69931 0
M  V30 6042 H 552.035 -0.191559 2.56887 0
M  V30 6043 H 551.993 -1.91876 2.4906 0
M  V30 6044 N 555.766 -1.3263 0.851289 0
M  V30 6045 C 556.676 -2.32722 0.296268 0
M  V30 6046 C 557.692 -1.63901 -0.584162 0
M  V30 6047 O 558.868 -1.95465 -0.485334 0
M  V30 6048 C 555.933 -3.42942 -0.509103 0
M  V30 6049 C 554.994 -4.2746 0.397069 0
M  V30 6050 C 554.227 -5.32416 -0.36996 0
M  V30 6051 O 554.45 -5.47491 -1.6003 0
M  V30 6052 O 553.384 -6.01327 0.262493 0
M  V30 6053 H 557.21 -2.82078 1.12543 0
M  V30 6054 H 554.795 -1.36194 0.614135 0
M  V30 6055 H 556.677 -4.1017 -0.96634 0
M  V30 6056 H 555.352 -2.95781 -1.31512 0
M  V30 6057 H 554.259 -3.63053 0.902411 0
M  V30 6058 H 555.592 -4.78136 1.16818 0
M  V30 6059 N 557.244 -0.608902 -1.45362 0
M  V30 6060 C 558.177 0.158059 -2.27652 0
M  V30 6061 C 559.155 0.872397 -1.37215 0
M  V30 6062 O 560.339 0.881002 -1.66645 0
M  V30 6063 C 557.466 1.22896 -3.15617 0
M  V30 6064 C 556.512 0.617607 -4.22005 0
M  V30 6065 S 557.345 -0.575518 -5.32398 0
M  V30 6066 C 558.501 0.495938 -6.23932 0
M  V30 6067 H 558.734 -0.540095 -2.92353 0
M  V30 6068 H 556.267 -0.396456 -1.49223 0
M  V30 6069 H 558.225 1.84195 -3.66855 0
M  V30 6070 H 556.886 1.89919 -2.50179 0
M  V30 6071 H 556.079 1.42341 -4.83482 0
M  V30 6072 H 555.681 0.0797273 -3.73915 0
M  V30 6073 H 557.973 1.37465 -6.63408 0
M  V30 6074 H 558.916 -0.0827108 -7.08052 0
M  V30 6075 H 559.324 0.811856 -5.58631 0
M  V30 6076 N 558.722 1.53707 -0.348139 0
M  V30 6077 C 559.67 2.26671 0.521808 0
M  V30 6078 C 560.664 1.28988 1.09811 0
M  V30 6079 O 561.87 1.4668 1.04332 0
M  V30 6080 H 558.245 0.728387 0.186968 0
M  V30 6081 H 560.216 2.98176 -0.115563 0
M  V30 6082 C 558.965 3.05591 1.6586 0
M  V30 6083 H 558.288 3.80589 1.22443 0
M  V30 6084 H 559.728 3.59851 2.24239 0
M  V30 6085 C 558.187 2.15366 2.59073 0
M  V30 6086 O 558.717 1.7528 3.61441 0
M  V30 6087 N 556.923 1.80352 2.27863 0
M  V30 6088 H 556.47 2.13149 1.44656 0
M  V30 6089 H 556.428 1.20268 2.90488 0
M  V30 6090 N 560.2 0.0768682 1.57412 0
M  V30 6091 C 561.11 -0.903207 2.16516 0
M  V30 6092 C 562.126 -1.32341 1.12968 0
M  V30 6093 O 563.302 -1.39507 1.45258 0
M  V30 6094 C 560.367 -2.1508 2.71922 0
M  V30 6095 C 559.428 -1.78653 3.90361 0
M  V30 6096 C 558.661 -2.97465 4.43114 0
M  V30 6097 O 558.884 -4.11638 3.94854 0
M  V30 6098 O 557.818 -2.76987 5.3438 0
M  V30 6099 H 561.644 -0.430427 3.00634 0
M  V30 6100 H 559.229 -0.146485 1.4868 0
M  V30 6101 H 561.111 -2.8823 3.07411 0
M  V30 6102 H 559.786 -2.61446 1.9086 0
M  V30 6103 H 558.693 -1.0274 3.59716 0
M  V30 6104 H 560.026 -1.37066 4.7273 0
M  V30 6105 N 561.678 -1.56367 -0.196722 0
M  V30 6106 C 562.924 -1.80796 -0.918725 0
M  V30 6107 C 563.257 -0.650645 -1.82976 0
M  V30 6108 O 562.532 0.348889 -1.91345 0
M  V30 6109 C 562.815 -3.15472 -1.73636 0
M  V30 6110 C 562.668 -4.41693 -0.85015 0
M  V30 6111 C 563.987 -3.46824 -2.70927 0
M  V30 6112 H 561.106 -0.657702 -0.332561 0
M  V30 6113 H 563.748 -1.89086 -0.186186 0
M  V30 6114 H 561.898 -3.08536 -2.36088 0
M  V30 6115 H 563.57 -4.60673 -0.240459 0
M  V30 6116 H 561.813 -4.33517 -0.156785 0
M  V30 6117 H 562.484 -5.32419 -1.45719 0
M  V30 6118 H 564.96 -3.54049 -2.18607 0
M  V30 6119 H 563.836 -4.4218 -3.25219 0
M  V30 6120 H 564.097 -2.70236 -3.49893 0
M  V30 6121 N 563.156 0.464375 -1.50603 0
M  V30 6122 C 564.381 1.24372 -1.65971 0
M  V30 6123 C 564.806 1.84901 -0.345453 0
M  V30 6124 O 564.164 1.67596 0.691457 0
M  V30 6125 C 564.212 2.32331 -2.7578 0
M  V30 6126 O 563.316 3.37146 -2.375 0
M  V30 6127 H 562.657 0.365604 -0.554283 0
M  V30 6128 H 565.187 0.55183 -1.97018 0
M  V30 6129 H 565.197 2.77539 -2.99059 0
M  V30 6130 H 563.872 1.87648 -3.71162 0
M  V30 6131 H 562.449 2.97602 -2.24694 0
M  V30 6132 N 564.634 1.40294 0.718013 0
M  V30 6133 C 565.882 1.38167 1.47494 0
M  V30 6134 C 566.203 -0.01607 1.94993 0
M  V30 6135 O 565.473 -0.970396 1.70177 0
M  V30 6136 H 564.053 0.508505 0.547203 0
M  V30 6137 H 566.715 1.75324 0.851322 0
M  V30 6138 H 565.811 2.05503 2.34894 0
M  V30 6139 N 566.112 -0.949982 1.2575 0
M  V30 6140 C 567.36 -1.6918 1.10555 0
M  V30 6141 C 567.681 -1.91773 -0.353298 0
M  V30 6142 O 566.951 -1.50814 -1.25027 0
M  V30 6143 H 565.531 -0.626952 0.406129 0
M  V30 6144 H 568.193 -1.1419 1.57945 0
M  V30 6145 H 567.289 -2.66915 1.61749 0
M  V30 6146 N 567.59 -1.07411 -1.15328 0
M  V30 6147 C 568.839 -0.792643 -1.85473 0
M  V30 6148 C 569.152 0.683789 -1.83259 0
M  V30 6149 O 570.358 1.08005 -2.49093 0
M  V30 6150 C 568.814 -1.36787 -3.32892 0
M  V30 6151 C 568.422 -2.87536 -3.43551 0
M  V30 6152 C 570.166 -1.16444 -4.08217 0
M  V30 6153 C 568.073 -3.38247 -4.85122 0
M  V30 6154 H 567.003 -0.292838 -0.694811 0
M  V30 6155 H 569.654 -1.29426 -1.30082 0
M  V30 6156 H 568.036 -0.793993 -3.87958 0
M  V30 6157 H 569.21 -3.50973 -2.98588 0
M  V30 6158 H 567.525 -3.06676 -2.81672 0
M  V30 6159 H 570.122 -1.51808 -5.12697 0
M  V30 6160 H 570.465 -0.10353 -4.16171 0
M  V30 6161 H 570.998 -1.70472 -3.59422 0
M  V30 6162 H 567.737 -4.43866 -4.82351 0
M  V30 6163 H 567.257 -2.79564 -5.30664 0
M  V30 6164 H 568.936 -3.34238 -5.5398 0
M  V30 6165 N 569.068 1.32177 -0.85831 0
M  V30 6166 C 570.316 1.96735 -0.462568 0
M  V30 6167 C 570.637 1.6824 0.985911 0
M  V30 6168 O 569.907 0.991564 1.68952 0
M  V30 6169 H 568.487 0.727849 -0.168064 0
M  V30 6170 H 571.149 1.61195 -1.09554 0
M  V30 6171 H 570.245 3.06068 -0.610647 0
M  V30 6172 N 570.547 0.616602 1.45037 0
M  V30 6173 C 571.824 0.0469086 1.95544 0
M  V30 6174 C 572.204 -1.42345 1.55888 0
M  V30 6175 O 571.552 -2.13055 0.825824 0
M  V30 6176 C 571.762 0.254489 3.48071 0
M  V30 6177 C 573.11 0.140025 4.24369 0
M  V30 6178 O 574.134 0.185084 3.55719 0
M  V30 6179 O 572.993 0.0327034 5.4649 0
M  V30 6180 H 570.087 -0.0306051 0.826433 0
M  V30 6181 H 572.633 0.687293 1.55159 0
M  V30 6182 H 571.405 1.27532 3.69934 0
M  V30 6183 H 571.028 -0.42073 3.95368 0
M  V30 6184 N 572.025 -1.5352 0.356285 0
M  V30 6185 C 573.253 -2.05534 -0.237328 0
M  V30 6186 C 573.668 -1.23043 -1.43199 0
M  V30 6187 O 573.025 -0.268821 -1.80509 0
M  V30 6188 C 573.076 -3.55791 -0.639933 0
M  V30 6189 O 572.797 -4.35154 0.507233 0
M  V30 6190 C 574.298 -4.24027 -1.29292 0
M  V30 6191 H 571.518 -0.669585 -0.0435572 0
M  V30 6192 H 574.062 -1.97988 0.511963 0
M  V30 6193 H 572.217 -3.63518 -1.33915 0
M  V30 6194 H 572.631 -5.24178 0.18375 0
M  V30 6195 H 574.105 -5.30509 -1.52527 0
M  V30 6196 H 574.582 -3.77166 -2.25039 0
M  V30 6197 H 575.188 -4.20527 -0.63539 0
M  V30 6198 N 573.503 -0.0852151 -1.57369 0
M  V30 6199 C 574.919 0.271436 -1.57275 0
M  V30 6200 C 575.119 1.69109 -1.09565 0
M  V30 6201 O 574.175 2.40549 -0.767611 0
M  V30 6202 C 575.488 0.0688638 -3.00621 0
M  V30 6203 C 577.036 0.137373 -3.12698 0
M  V30 6204 C 577.511 -0.0370832 -4.57985 0
M  V30 6205 N 579.002 0.0180794 -4.63196 0
M  V30 6206 C 579.737 -0.0922953 -5.73326 0
M  V30 6207 N 579.233 -0.256948 -6.92323 0
M  V30 6208 N 581.026 -0.0342702 -5.6209 0
M  V30 6209 H 573.177 -1.01288 -1.86693 0
M  V30 6210 H 575.44 -0.396138 -0.861266 0
M  V30 6211 H 575.146 -0.911277 -3.39689 0
M  V30 6212 H 575.02 0.815442 -3.6828 0
M  V30 6213 H 577.407 1.10801 -2.73509 0
M  V30 6214 H 577.488 -0.640532 -2.47651 0
M  V30 6215 H 577.132 -1.00455 -4.97867 0
M  V30 6216 H 577.062 0.760392 -5.21081 0
M  V30 6217 H 579.553 0.143202 -3.77629 0
M  V30 6218 H 579.866 -0.332949 -7.72082 0
M  V30 6219 H 578.211 -0.292487 -6.94384 0
M  V30 6220 H 581.402 0.0931605 -4.68007 0
M  V30 6221 H 581.575 -0.12374 -6.47882 0
M  V30 6222 N 574.981 1.5647 0.188427 0
M  V30 6223 C 575.929 1.95971 1.25293 0
M  V30 6224 C 576.923 0.846047 1.4676 0
M  V30 6225 O 578.129 1.03109 1.47542 0
M  V30 6226 H 574.504 0.623253 0.420784 0
M  V30 6227 H 576.475 2.84731 0.892792 0
M  V30 6228 C 575.224 2.32116 2.58877 0
M  V30 6229 H 574.547 3.17341 2.43176 0
M  V30 6230 H 575.987 2.63613 3.3209 0
M  V30 6231 C 574.446 1.15823 3.16365 0
M  V30 6232 O 574.976 0.436785 3.99318 0
M  V30 6233 N 573.182 0.933278 2.75206 0
M  V30 6234 H 572.729 1.52169 2.07852 0
M  V30 6235 H 572.687 0.156976 3.14008 0
M  V30 6236 N 576.459 -0.456382 1.50847 0
M  V30 6237 C 577.684 -1.2349 1.66628 0
M  V30 6238 C 578.109 -1.84715 0.355254 0
M  V30 6239 O 577.467 -1.67961 -0.682559 0
M  V30 6240 C 577.515 -2.30865 2.77009 0
M  V30 6241 O 576.619 -3.35882 2.39285 0
M  V30 6242 H 575.96 -0.36266 0.556214 0
M  V30 6243 H 578.49 -0.541374 1.97308 0
M  V30 6244 H 578.5 -2.75949 3.00526 0
M  V30 6245 H 577.175 -1.85677 3.72152 0
M  V30 6246 H 575.752 -2.96406 2.26269 0
M  V30 6247 N 577.937 -1.40673 -0.710563 0
M  V30 6248 C 578.9 -1.4108 -1.80635 0
M  V30 6249 C 579.9 -0.303783 -1.57904 0
M  V30 6250 O 581.09 -0.562937 -1.64853 0
M  V30 6251 C 578.222 -1.20748 -3.18799 0
M  V30 6252 H 579.415 -2.38612 -1.81671 0
M  V30 6253 H 576.968 -1.26595 -0.916704 0
M  V30 6254 H 577.703 -0.239964 -3.23411 0
M  V30 6255 H 577.488 -2.00941 -3.36698 0
M  V30 6256 H 578.978 -1.23833 -3.98817 0
M  V30 6257 N 579.415 0.9433 -1.26252 0
M  V30 6258 C 580.664 1.68369 -1.11062 0
M  V30 6259 C 580.977 1.92514 0.346104 0
M  V30 6260 O 582.183 2.64358 0.618646 0
M  V30 6261 C 580.639 3.03171 -1.93946 0
M  V30 6262 C 580.247 2.86782 -3.4418 0
M  V30 6263 C 581.991 3.80916 -1.87359 0
M  V30 6264 C 579.898 4.17044 -4.19319 0
M  V30 6265 H 578.828 0.631469 -0.412023 0
M  V30 6266 H 581.479 1.04922 -1.50544 0
M  V30 6267 H 579.861 3.67587 -1.47296 0
M  V30 6268 H 581.035 2.31229 -3.98585 0
M  V30 6269 H 579.35 2.22482 -3.51981 0
M  V30 6270 H 581.947 4.77417 -2.40784 0
M  V30 6271 H 582.29 4.07658 -0.843857 0
M  V30 6272 H 582.823 3.2327 -2.31821 0
M  V30 6273 H 579.562 3.95487 -5.22753 0
M  V30 6274 H 579.082 4.72319 -3.69696 0
M  V30 6275 H 580.761 4.85513 -4.27651 0
M  V30 6276 N 580.893 1.08022 1.14757 0
M  V30 6277 C 582.118 0.82895 1.90114 0
M  V30 6278 C 582.543 -0.612772 1.77839 0
M  V30 6279 O 581.901 -1.42895 1.11583 0
M  V30 6280 C 581.949 1.25062 3.38219 0
M  V30 6281 O 581.053 0.400119 4.10454 0
M  V30 6282 H 580.394 0.301412 0.591648 0
M  V30 6283 H 582.924 1.44062 1.45284 0
M  V30 6284 H 582.934 1.22977 3.89025 0
M  V30 6285 H 581.609 2.30067 3.46471 0
M  V30 6286 H 580.186 0.484052 3.69745 0
M  V30 6287 N 582.371 -1.3172 0.865308 0
M  V30 6288 C 583.618 -1.96876 0.473931 0
M  V30 6289 C 583.946 -1.68425 -0.972786 0
M  V30 6290 O 583.201 -0.970742 -1.69927 0
M  V30 6291 C 583.5 -3.5102 0.672283 0
M  V30 6292 C 583.166 -3.9948 2.09108 0
M  V30 6293 C 581.828 -4.12425 2.4791 0
M  V30 6294 C 584.18 -4.2503 3.0166 0
M  V30 6295 C 581.508 -4.48267 3.78515 0
M  V30 6296 C 583.86 -4.62335 4.31774 0
M  V30 6297 C 582.524 -4.73486 4.70497 0
M  V30 6298 H 581.794 -0.72042 0.173424 0
M  V30 6299 H 584.441 -1.56937 1.0974 0
M  V30 6300 H 582.746 -3.91785 -0.034356 0
M  V30 6301 H 584.443 -3.99475 0.349353 0
M  V30 6302 H 581.033 -3.89898 1.77981 0
M  V30 6303 H 585.217 -4.14529 2.7291 0
M  V30 6304 H 580.473 -4.55097 4.08285 0
M  V30 6305 H 584.647 -4.81058 5.03543 0
M  V30 6306 H 582.274 -5.01016 5.71741 0
M  V30 6307 N 583.85 -0.624285 -1.44708 0
M  V30 6308 C 585.127 -0.0572781 -1.95516 0
M  V30 6309 C 585.507 1.41516 -1.56641 0
M  V30 6310 O 584.855 2.12614 -0.837111 0
M  V30 6311 C 585.065 -0.272944 -3.47931 0
M  V30 6312 C 586.413 -0.162529 -4.24289 0
M  V30 6313 O 587.437 -0.203946 -3.55616 0
M  V30 6314 O 586.296 -0.0616847 -5.46465 0
M  V30 6315 H 583.389 0.0262219 -0.826584 0
M  V30 6316 H 585.936 -0.695512 -1.54793 0
M  V30 6317 H 584.707 -1.29492 -3.69253 0
M  V30 6318 H 584.331 0.399756 -3.95585 0
M  V30 6319 N 585.328 1.53329 -0.364422 0
M  V30 6320 C 586.276 2.27212 0.497737 0
M  V30 6321 C 587.27 1.30146 1.08437 0
M  V30 6322 O 588.476 1.47778 1.0277 0
M  V30 6323 H 584.851 0.730329 0.179232 0
M  V30 6324 H 586.822 2.98037 -0.147182 0
M  V30 6325 C 585.571 3.07333 1.6261 0
M  V30 6326 H 584.894 3.81866 1.184 0
M  V30 6327 H 586.334 3.62209 2.20409 0
M  V30 6328 C 584.793 2.18102 2.56775 0
M  V30 6329 O 585.323 1.79104 3.59562 0
M  V30 6330 N 583.529 1.82759 2.25937 0
M  V30 6331 H 583.076 2.14671 1.42387 0
M  V30 6332 H 583.034 1.23342 2.89196 0
M  V30 6333 N 586.806 0.0935595 1.57322 0
M  V30 6334 C 588.031 -0.582324 1.99057 0
M  V30 6335 C 588.456 -1.61025 0.972242 0
M  V30 6336 O 587.814 -1.81202 -0.0594622 0
M  V30 6337 C 587.862 -1.20799 3.39765 0
M  V30 6338 O 586.966 -2.32382 3.40694 0
M  V30 6339 H 586.307 -0.147884 0.647323 0
M  V30 6340 H 588.837 0.174516 2.03854 0
M  V30 6341 H 588.847 -1.54966 3.77425 0
M  V30 6342 H 587.522 -0.454914 4.13405 0
M  V30 6343 H 586.099 -1.99845 3.14827 0
M  V30 6344 N 588.284 -1.56567 -0.180126 0
M  V30 6345 C 589.532 -1.81133 -0.896392 0
M  V30 6346 C 589.853 -0.669114 -1.83161 0
M  V30 6347 O 589.123 0.311616 -1.93406 0
M  V30 6348 H 587.703 -0.668172 -0.333999 0
M  V30 6349 H 590.365 -1.94048 -0.182051 0
M  V30 6350 H 589.461 -2.74854 -1.47857 0
M  V30 6351 N 589.762 0.448376 -1.51087 0
M  V30 6352 C 591.011 1.19561 -1.62444 0
M  V30 6353 C 591.324 1.92602 -0.341151 0
M  V30 6354 O 592.53 2.69439 -0.333936 0
M  V30 6355 C 590.986 2.17373 -2.8684 0
M  V30 6356 C 590.594 1.5003 -4.22131 0
M  V30 6357 C 592.338 2.92597 -3.0755 0
M  V30 6358 C 590.245 2.46262 -5.37689 0
M  V30 6359 H 589.175 0.449975 -0.605011 0
M  V30 6360 H 591.826 0.463735 -1.77544 0
M  V30 6361 H 590.208 2.93948 -2.65349 0
M  V30 6362 H 591.382 0.790886 -4.53962 0
M  V30 6363 H 589.697 0.870011 -4.0721 0
M  V30 6364 H 592.294 3.64663 -3.91056 0
M  V30 6365 H 592.637 3.53306 -2.20183 0
M  V30 6366 H 593.17 2.23131 -3.29329 0
M  V30 6367 H 589.909 1.90258 -6.27281 0
M  V30 6368 H 589.429 3.15289 -5.10248 0
M  V30 6369 H 591.108 3.07623 -5.6919 0
M  V30 6370 N 591.24 1.41047 0.703093 0
M  V30 6371 C 592.172 1.38228 1.82827 0
M  V30 6372 C 593.185 0.285637 1.60275 0
M  V30 6373 O 594.374 0.54685 1.69917 0
M  V30 6374 C 591.474 1.13136 3.19458 0
M  V30 6375 C 590.647 2.34695 3.69103 0
M  V30 6376 C 589.706 2.05574 4.84382 0
M  V30 6377 O 588.732 2.78549 4.96386 0
M  V30 6378 N 589.934 1.04135 5.71083 0
M  V30 6379 H 592.699 2.35203 1.85741 0
M  V30 6380 H 590.26 1.35562 0.885125 0
M  V30 6381 H 592.252 0.916183 3.94193 0
M  V30 6382 H 590.822 0.247836 3.11616 0
M  V30 6383 H 590.042 2.71963 2.85359 0
M  V30 6384 H 591.33 3.15705 3.99009 0
M  V30 6385 H 590.728 0.43722 5.64008 0
M  V30 6386 H 589.285 0.886078 6.45749 0
M  V30 6387 N 592.718 -0.936591 1.26751 0
M  V30 6388 C 593.948 -1.71509 1.15188 0
M  V30 6389 C 594.356 -1.86885 -0.295037 0
M  V30 6390 O 593.699 -1.37915 -1.21347 0
M  V30 6391 C 593.761 -3.13853 1.75318 0
M  V30 6392 C 593.425 -3.21845 3.24445 0
M  V30 6393 C 594.422 -3.04771 4.21201 0
M  V30 6394 C 592.107 -3.45088 3.64992 0
M  V30 6395 C 594.101 -3.10816 5.56482 0
M  V30 6396 C 591.788 -3.50767 5.00405 0
M  V30 6397 C 592.786 -3.33648 5.9596 0
M  V30 6398 O 592.474 -3.39045 7.28906 0
M  V30 6399 H 592.206 -0.543658 0.401761 0
M  V30 6400 H 594.76 -1.18234 1.67958 0
M  V30 6401 H 592.99 -3.6857 1.17016 0
M  V30 6402 H 594.679 -3.73634 1.58596 0
M  V30 6403 H 595.445 -2.86665 3.91214 0
M  V30 6404 H 591.324 -3.57467 2.91098 0
M  V30 6405 H 594.868 -2.97372 6.31043 0
M  V30 6406 H 590.765 -3.68396 5.30052 0
M  V30 6407 H 591.533 -3.55558 7.37238 0
M  V30 6408 N 594.196 -1.08629 -1.14182 0
M  V30 6409 C 595.612 -0.814363 -1.3726 0
M  V30 6410 C 595.812 0.575271 -1.93114 0
M  V30 6411 O 594.868 1.33165 -2.1453 0
M  V30 6412 C 596.181 -1.8989 -2.33157 0
M  V30 6413 C 597.729 -1.92518 -2.46791 0
M  V30 6414 C 598.204 -3.00092 -3.45989 0
M  V30 6415 N 599.695 -2.99279 -3.53534 0
M  V30 6416 C 600.43 -3.79158 -4.30147 0
M  V30 6417 N 599.926 -4.68923 -5.09983 0
M  V30 6418 N 601.719 -3.67451 -4.25366 0
M  V30 6419 H 593.87 -1.98232 -0.762758 0
M  V30 6420 H 596.133 -0.860383 -0.398051 0
M  V30 6421 H 595.839 -2.89809 -1.99257 0
M  V30 6422 H 595.713 -1.77013 -3.33086 0
M  V30 6423 H 598.1 -0.932425 -2.79982 0
M  V30 6424 H 598.181 -2.09473 -1.46816 0
M  V30 6425 H 597.825 -3.99575 -3.13532 0
M  V30 6426 H 597.755 -2.80382 -4.45751 0
M  V30 6427 H 600.246 -2.3422 -2.96563 0
M  V30 6428 H 600.559 -5.26475 -5.65724 0
M  V30 6429 H 598.904 -4.72964 -5.09244 0
M  V30 6430 H 602.095 -2.9669 -3.62067 0
M  V30 6431 H 602.268 -4.29944 -4.84822 0
M  V30 6432 N 595.674 1.31259 -0.872281 0
M  V30 6433 C 596.621 2.28459 -0.327857 0
M  V30 6434 C 597.591 1.55831 0.574957 0
M  V30 6435 O 598.776 1.83965 0.506101 0
M  V30 6436 C 595.916 3.41985 0.462644 0
M  V30 6437 C 595.029 4.29458 -0.467949 0
M  V30 6438 C 594.164 5.30131 0.336903 0
M  V30 6439 C 593.203 6.0925 -0.58997 0
M  V30 6440 N 592.34 7.01872 0.178775 0
M  V30 6441 H 597.18 2.74414 -1.16193 0
M  V30 6442 H 594.717 1.34994 -0.584376 0
M  V30 6443 H 596.675 4.06547 0.936759 0
M  V30 6444 H 595.305 2.97134 1.2614 0
M  V30 6445 H 594.357 3.65318 -1.06052 0
M  V30 6446 H 595.669 4.84677 -1.17856 0
M  V30 6447 H 594.823 6.0038 0.873427 0
M  V30 6448 H 593.562 4.75573 1.08079 0
M  V30 6449 H 592.567 5.37889 -1.13823 0
M  V30 6450 H 593.792 6.65894 -1.33275 0
M  V30 6451 H 591.738 6.49721 0.905435 0
M  V30 6452 H 591.655 7.54522 -0.472452 0
M  V30 6453 H 592.923 7.76382 0.696454 0
M  V30 6454 N 597.152 0.631951 1.44375 0
M  V30 6455 C 598.084 -0.110911 2.28931 0
M  V30 6456 C 599.097 -0.808086 1.41329 0
M  V30 6457 O 600.286 -0.669396 1.65473 0
M  V30 6458 C 597.386 -1.17928 3.1772 0
M  V30 6459 C 596.559 -0.564458 4.33743 0
M  V30 6460 C 595.618 -1.5269 5.0356 0
M  V30 6461 O 594.644 -1.04372 5.59549 0
M  V30 6462 N 595.846 -2.86123 5.05088 0
M  V30 6463 H 598.611 0.614758 2.93327 0
M  V30 6464 H 596.172 0.473171 1.54831 0
M  V30 6465 H 598.164 -1.82348 3.61291 0
M  V30 6466 H 596.734 -1.80717 2.55069 0
M  V30 6467 H 595.954 0.258373 3.93352 0
M  V30 6468 H 597.242 -0.134355 5.08623 0
M  V30 6469 H 596.64 -3.27959 4.60933 0
M  V30 6470 H 595.197 -3.45901 5.52445 0
M  V30 6471 N 598.631 -1.53133 0.372548 0
M  V30 6472 C 599.856 -2.0625 -0.218098 0
M  V30 6473 C 600.281 -1.24375 -1.41111 0
M  V30 6474 O 599.639 -0.264554 -1.79359 0
M  V30 6475 C 599.687 -3.55858 -0.582876 0
M  V30 6476 O 598.791 -3.76667 -1.67917 0
M  V30 6477 H 598.132 -0.663317 -0.030104 0
M  V30 6478 H 600.662 -1.97477 0.535169 0
M  V30 6479 H 600.672 -3.99007 -0.851925 0
M  V30 6480 H 599.347 -4.14892 0.289428 0
M  V30 6481 H 597.924 -3.45413 -1.40513 0
M  V30 6482 N 600.109 -0.101901 -1.5727 0
M  V30 6483 C 601.042 0.891377 -2.10071 0
M  V30 6484 C 602.02 1.27197 -1.01291 0
M  V30 6485 O 603.204 1.37602 -1.28833 0
M  V30 6486 C 600.331 2.19049 -2.58331 0
M  V30 6487 C 599.377 1.95925 -3.78834 0
M  V30 6488 S 600.21 1.19106 -5.22086 0
M  V30 6489 C 601.366 2.50234 -5.73702 0
M  V30 6490 H 601.599 0.442212 -2.93993 0
M  V30 6491 H 599.132 0.111529 -1.53997 0
M  V30 6492 H 601.09 2.937 -2.86793 0
M  V30 6493 H 599.751 2.61086 -1.74622 0
M  V30 6494 H 598.944 2.92143 -4.10693 0
M  V30 6495 H 598.546 1.29401 -3.50901 0
M  V30 6496 H 600.838 3.46173 -5.82384 0
M  V30 6497 H 601.781 2.22944 -6.72088 0
M  V30 6498 H 602.189 2.58818 -5.01671 0
M  V30 6499 N 601.587 1.56661 0.17182 0
M  V30 6500 C 602.998 1.71652 0.734329 0
M  V30 6501 C 603.349 0.712335 1.82812 0
M  V30 6502 O 602.474 -0.126401 2.16031 0
M  V30 6503 C 603.069 3.11226 1.3388 0
M  V30 6504 C 601.628 3.27904 1.84813 0
M  V30 6505 C 600.775 2.67603 0.726917 0
M  V30 6506 H 603.726 1.5861 -0.0535665 0
M  V30 6507 H 603.747 3.09849 2.20849 0
M  V30 6508 H 603.259 3.8429 0.54249 0
M  V30 6509 H 601.36 2.59796 2.6709 0
M  V30 6510 H 601.473 4.35637 1.99392 0
M  V30 6511 H 599.837 2.274 1.14723 0
M  V30 6512 H 600.62 3.43252 -0.0575334 0
M  V30 6513 N 603.065 -0.440357 1.51323 0
M  V30 6514 C 604.481 -0.7766 1.39431 0
M  V30 6515 C 604.681 -1.95838 0.474296 0
M  V30 6516 O 603.737 -2.52398 -0.0716692 0
M  V30 6517 C 605.05 -1.05981 2.81405 0
M  V30 6518 C 606.598 -1.16442 2.90534 0
M  V30 6519 C 607.073 -1.48058 4.33408 0
M  V30 6520 N 608.564 -1.54988 4.36501 0
M  V30 6521 C 609.299 -1.81017 5.44078 0
M  V30 6522 N 608.795 -2.04858 6.61819 0
M  V30 6523 N 610.588 -1.82774 5.31554 0
M  V30 6524 H 602.739 0.338006 2.09693 0
M  V30 6525 H 605.002 0.0888072 0.943831 0
M  V30 6526 H 604.708 -0.264173 3.50706 0
M  V30 6527 H 604.582 -1.98822 3.20546 0
M  V30 6528 H 606.969 -1.95068 2.21432 0
M  V30 6529 H 607.05 -0.215088 2.54894 0
M  V30 6530 H 606.694 -0.699605 5.03059 0
M  V30 6531 H 606.624 -2.44192 4.66559 0
M  V30 6532 H 609.115 -1.38479 3.51613 0
M  V30 6533 H 609.428 -2.2408 7.396 0
M  V30 6534 H 607.773 -2.02187 6.6494 0
M  V30 6535 H 610.964 -1.63665 4.38556 0
M  V30 6536 H 611.137 -2.02722 6.15474 0
M  V30 6537 N 604.543 -1.41418 -0.695603 0
M  V30 6538 C 605.453 -1.45622 -1.83933 0
M  V30 6539 C 606.469 -0.346825 -1.70508 0
M  V30 6540 O 607.645 -0.59454 -1.92424 0
M  V30 6541 C 604.71 -1.33627 -3.19914 0
M  V30 6542 C 603.771 -2.54882 -3.45447 0
M  V30 6543 C 603.004 -2.43449 -4.7494 0
M  V30 6544 O 603.227 -1.45905 -5.51424 0
M  V30 6545 O 602.161 -3.33206 -5.01256 0
M  V30 6546 H 605.987 -2.42114 -1.83342 0
M  V30 6547 H 603.572 -1.22956 -0.848658 0
M  V30 6548 H 605.454 -1.29221 -4.01098 0
M  V30 6549 H 604.129 -0.402508 -3.21188 0
M  V30 6550 H 603.036 -2.64865 -2.64192 0
M  V30 6551 H 604.369 -3.47087 -3.48987 0
M  V30 6552 N 606.021 0.929856 -1.27246 0
M  V30 6553 C 607.269 1.674 -1.13233 0
M  V30 6554 C 607.59 1.92311 0.322744 0
M  V30 6555 O 606.86 1.52784 1.22612 0
M  V30 6556 H 605.44 0.620411 -0.416052 0
M  V30 6557 H 608.102 1.11663 -1.59741 0
M  V30 6558 H 607.198 2.64308 -1.65975 0
M  V30 6559 N 607.499 1.09233 1.13605 0
M  V30 6560 C 608.449 0.6994 2.17008 0
M  V30 6561 C 609.433 -0.285238 1.58352 0
M  V30 6562 O 610.625 -0.09592 1.7674 0
M  V30 6563 C 607.754 0.11938 3.43092 0
M  V30 6564 C 606.84 1.13031 4.0876 0
M  V30 6565 N 607.231 2.31673 4.49623 0
M  V30 6566 C 605.529 0.967999 4.35369 0
M  V30 6567 C 606.23 2.95964 5.00779 0
M  V30 6568 N 605.206 2.23534 4.95513 0
M  V30 6569 H 609.008 1.60272 2.46354 0
M  V30 6570 H 606.522 0.968257 1.30378 0
M  V30 6571 H 608.519 -0.180122 4.16511 0
M  V30 6572 H 607.179 -0.778816 3.15221 0
M  V30 6573 H 608.19 2.69277 4.42391 0
M  V30 6574 H 604.867 0.124319 4.17315 0
M  V30 6575 H 606.257 3.96813 5.42208 0
M  V30 6576 N 608.977 -1.30795 0.87923 0
M  V30 6577 C 610.225 -1.95974 0.493809 0
M  V30 6578 C 610.546 -1.69787 -0.959021 0
M  V30 6579 O 609.816 -1.01832 -1.67353 0
M  V30 6580 H 608.396 -0.725083 0.179622 0
M  V30 6581 H 611.058 -1.59432 1.12105 0
M  V30 6582 H 610.154 -3.05058 0.659263 0
M  V30 6583 N 610.455 -0.639598 -1.44038 0
M  V30 6584 C 611.871 -0.305953 -1.5664 0
M  V30 6585 C 612.071 1.19055 -1.62567 0
M  V30 6586 O 611.127 1.97492 -1.57331 0
M  V30 6587 C 612.44 -1.00533 -2.83397 0
M  V30 6588 C 613.988 -0.984278 -2.97121 0
M  V30 6589 C 614.463 -1.66428 -4.26691 0
M  V30 6590 N 615.954 -1.63127 -4.33525 0
M  V30 6591 C 616.689 -2.12629 -5.32519 0
M  V30 6592 N 616.185 -2.70359 -6.3787 0
M  V30 6593 N 617.978 -2.03208 -5.24083 0
M  V30 6594 H 610.129 -1.6109 -1.38434 0
M  V30 6595 H 612.392 -0.676672 -0.663942 0
M  V30 6596 H 612.098 -2.06034 -2.85032 0
M  V30 6597 H 611.972 -0.548362 -3.73193 0
M  V30 6598 H 614.359 0.0622792 -2.95034 0
M  V30 6599 H 614.44 -1.47981 -2.08651 0
M  V30 6600 H 614.084 -2.71034 -4.29538 0
M  V30 6601 H 614.014 -1.14351 -5.14034 0
M  V30 6602 H 616.505 -1.20987 -3.58009 0
M  V30 6603 H 616.818 -3.05842 -7.09704 0
M  V30 6604 H 615.163 -2.74414 -6.38531 0
M  V30 6605 H 618.354 -1.57823 -4.40692 0
M  V30 6606 H 618.527 -2.42097 -6.01077 0
M  V30 6607 N 611.933 1.52934 -0.380664 0
M  V30 6608 C 613.18 2.01467 0.204278 0
M  V30 6609 C 613.508 1.26744 1.47533 0
M  V30 6610 O 612.763 0.353723 1.92477 0
M  V30 6611 C 613.062 3.5349 0.527199 0
M  V30 6612 C 612.728 4.46171 -0.651295 0
M  V30 6613 C 611.39 4.71227 -0.974619 0
M  V30 6614 C 613.742 5.00909 -1.44012 0
M  V30 6615 C 611.07 5.4827 -2.08847 0
M  V30 6616 C 613.422 5.7917 -2.5445 0
M  V30 6617 C 612.086 6.02507 -2.87301 0
M  V30 6618 H 611.356 0.73722 0.0747504 0
M  V30 6619 H 614.003 1.84411 -0.516234 0
M  V30 6620 H 612.308 3.68574 1.32892 0
M  V30 6621 H 614.005 3.88529 0.992283 0
M  V30 6622 H 610.595 4.26829 -0.389276 0
M  V30 6623 H 614.779 4.81485 -1.20357 0
M  V30 6624 H 610.035 5.64567 -2.34679 0
M  V30 6625 H 614.209 6.20588 -3.1598 0
M  V30 6626 H 611.836 6.61989 -3.7373 0
M  V30 6627 N 613.412 0.11024 1.57214 0
M  V30 6628 C 614.342 -0.840002 2.17867 0
M  V30 6629 C 615.323 -1.28352 1.11624 0
M  V30 6630 O 616.508 -1.3477 1.39824 0
M  V30 6631 C 613.638 -2.09349 2.77111 0
M  V30 6632 C 612.592 -1.78807 3.8886 0
M  V30 6633 C 611.918 -3.11112 4.34872 0
M  V30 6634 C 613.218 -1.0632 5.11364 0
M  V30 6635 H 614.912 -0.334608 2.97524 0
M  V30 6636 H 612.458 -0.159502 1.43114 0
M  V30 6637 H 614.411 -2.76275 3.18198 0
M  V30 6638 H 613.135 -2.62198 1.9473 0
M  V30 6639 H 611.794 -1.14273 3.48335 0
M  V30 6640 H 611.442 -3.61877 3.49362 0
M  V30 6641 H 611.142 -2.91453 5.10224 0
M  V30 6642 H 612.666 -3.79171 4.78604 0
M  V30 6643 H 614.08 -1.63383 5.49526 0
M  V30 6644 H 612.477 -0.967876 5.92243 0
M  V30 6645 H 613.547 -0.0484569 4.84876 0
M  V30 6646 N 614.89 -1.56749 -0.16351 0
M  V30 6647 C 616.138 -1.82074 -0.87713 0
M  V30 6648 C 616.459 -0.688503 -1.82441 0
M  V30 6649 O 615.729 0.291085 -1.93725 0
M  V30 6650 H 614.309 -0.671677 -0.326893 0
M  V30 6651 H 616.971 -1.9423 -0.161459 0
M  V30 6652 H 616.067 -2.76407 -1.44934 0
M  V30 6653 N 616.368 0.432326 -1.51554 0
M  V30 6654 C 617.645 1.19288 -1.55015 0
M  V30 6655 C 618.025 2.08701 -0.317375 0
M  V30 6656 O 617.373 2.17602 0.697243 0
M  V30 6657 C 617.583 1.99037 -2.86679 0
M  V30 6658 C 618.931 2.55907 -3.38817 0
M  V30 6659 O 619.955 2.09243 -2.88263 0
M  V30 6660 O 618.814 3.41029 -4.27038 0
M  V30 6661 H 615.908 0.543369 -0.623441 0
M  V30 6662 H 618.454 0.440988 -1.6387 0
M  V30 6663 H 617.226 1.33397 -3.6786 0
M  V30 6664 H 616.849 2.81281 -2.8101 0
M  V30 6665 N 617.846 1.41785 0.688094 0
M  V30 6666 C 619.262 1.24419 0.999608 0
M  V30 6667 C 619.462 0.138868 2.01021 0
M  V30 6668 O 618.518 -0.494283 2.47615 0
M  V30 6669 C 619.831 2.59625 1.51709 0
M  V30 6670 C 621.379 2.66869 1.63554 0
M  V30 6671 C 621.854 4.0241 2.18702 0
M  V30 6672 N 623.345 4.04295 2.26053 0
M  V30 6673 C 624.08 5.05977 2.69768 0
M  V30 6674 N 623.576 6.18047 3.13033 0
M  V30 6675 N 625.369 4.93336 2.69398 0
M  V30 6676 H 617.52 2.12392 0.0187427 0
M  V30 6677 H 619.783 0.945347 0.0708673 0
M  V30 6678 H 619.489 3.41297 0.849059 0
M  V30 6679 H 619.363 2.82628 2.49803 0
M  V30 6680 H 621.75 1.8555 2.29467 0
M  V30 6681 H 621.831 2.47668 0.639857 0
M  V30 6682 H 621.475 4.8418 1.53402 0
M  V30 6683 H 621.405 4.18955 3.19037 0
M  V30 6684 H 623.896 3.23383 1.9553 0
M  V30 6685 H 624.209 6.91498 3.45038 0
M  V30 6686 H 622.554 6.21572 3.10923 0
M  V30 6687 H 625.745 4.04865 2.34952 0
M  V30 6688 H 625.918 5.72717 3.03148 0
M  V30 6689 N 619.324 -0.923095 1.27737 0
M  V30 6690 C 620.549 -1.71054 1.17283 0
M  V30 6691 C 620.974 -1.86208 -0.266153 0
M  V30 6692 O 620.332 -1.36545 -1.1927 0
M  V30 6693 C 620.38 -3.0854 1.86642 0
M  V30 6694 O 619.484 -3.95528 1.16752 0
M  V30 6695 H 618.825 -0.524136 0.407649 0
M  V30 6696 H 621.355 -1.15487 1.6889 0
M  V30 6697 H 621.365 -3.58828 1.94182 0
M  V30 6698 H 620.04 -2.96828 2.91317 0
M  V30 6699 H 618.617 -3.53967 1.17312 0
M  V30 6700 N 620.802 -1.09834 -1.13024 0
M  V30 6701 C 621.732 -0.763451 -2.20666 0
M  V30 6702 C 622.713 0.260778 -1.68089 0
M  V30 6703 O 623.898 0.127915 -1.93778 0
M  V30 6704 C 621.028 -0.187744 -3.46792 0
M  V30 6705 C 619.982 -1.14196 -4.12484 0
M  V30 6706 C 619.308 -0.427755 -5.32986 0
M  V30 6707 C 620.608 -2.48607 -4.59338 0
M  V30 6708 H 622.302 -1.66347 -2.48936 0
M  V30 6709 H 619.848 -0.801261 -1.19649 0
M  V30 6710 H 621.801 0.0586375 -4.21359 0
M  V30 6711 H 620.525 0.747485 -3.17931 0
M  V30 6712 H 619.184 -1.37369 -3.3989 0
M  V30 6713 H 618.832 0.511747 -5.0039 0
M  V30 6714 H 618.532 -1.06403 -5.77886 0
M  V30 6715 H 620.056 -0.189772 -6.10305 0
M  V30 6716 H 621.47 -2.29618 -5.25308 0
M  V30 6717 H 619.867 -3.08062 -5.14993 0
M  V30 6718 H 620.937 -3.09062 -3.73642 0
M  V30 6719 N 622.28 1.30327 -0.886154 0
M  V30 6720 C 623.691 1.78243 -0.555554 0
M  V30 6721 C 624.042 1.72849 0.928314 0
M  V30 6722 O 623.167 1.30607 1.72542 0
M  V30 6723 C 623.762 3.23654 -1.00168 0
M  V30 6724 C 622.321 3.69401 -0.722471 0
M  V30 6725 C 621.468 2.50753 -1.18399 0
M  V30 6726 H 624.419 1.1718 -1.07026 0
M  V30 6727 H 624.44 3.79056 -0.331152 0
M  V30 6728 H 623.952 3.27548 -2.08169 0
M  V30 6729 H 622.053 3.70995 0.345496 0
M  V30 6730 H 622.166 4.60818 -1.31085 0
M  V30 6731 H 620.53 2.47452 -0.603303 0
M  V30 6732 H 621.313 2.57383 -2.27176 0
M  V30 6733 N 623.758 0.647228 1.43697 0
M  V30 6734 C 624.708 -0.0702191 2.27892 0
M  V30 6735 C 625.692 -0.800601 1.39568 0
M  V30 6736 O 626.884 -0.684055 1.63247 0
M  V30 6737 C 624.013 -1.04008 3.27165 0
M  V30 6738 C 623.099 -0.308484 4.22977 0
M  V30 6739 N 623.49 0.671721 5.0132 0
M  V30 6740 C 621.788 -0.550751 4.42586 0
M  V30 6741 C 622.489 1.10543 5.711 0
M  V30 6742 N 621.465 0.440903 5.41809 0
M  V30 6743 H 625.267 0.682031 2.85877 0
M  V30 6744 H 622.781 0.474022 1.55328 0
M  V30 6745 H 624.778 -1.56881 3.86256 0
M  V30 6746 H 623.438 -1.79246 2.70742 0
M  V30 6747 H 624.449 1.0502 5.0714 0
M  V30 6748 H 621.126 -1.28476 3.97241 0
M  V30 6749 H 622.516 1.91614 6.43998 0
M  V30 6750 N 625.236 -1.5273 0.388769 0
M  V30 6751 C 626.183 -2.26437 -0.446639 0
M  V30 6752 C 627.153 -1.28025 -1.05824 0
M  V30 6753 O 628.338 -1.56852 -1.08637 0
M  V30 6754 C 625.478 -3.07407 -1.56828 0
M  V30 6755 C 624.591 -4.20747 -0.979589 0
M  V30 6756 C 623.726 -4.89113 -2.07224 0
M  V30 6757 C 622.765 -5.94447 -1.45942 0
M  V30 6758 N 621.902 -6.56411 -2.49135 0
M  V30 6759 H 626.742 -2.97404 0.18837 0
M  V30 6760 H 624.279 -1.46727 0.104725 0
M  V30 6761 H 626.237 -3.52642 -2.22934 0
M  V30 6762 H 624.867 -2.3865 -2.17361 0
M  V30 6763 H 623.919 -3.7983 -0.208151 0
M  V30 6764 H 625.231 -4.9637 -0.491747 0
M  V30 6765 H 624.385 -5.3765 -2.81101 0
M  V30 6766 H 623.124 -4.13013 -2.59368 0
M  V30 6767 H 622.129 -5.4525 -0.705894 0
M  V30 6768 H 623.354 -6.7248 -0.945932 0
M  V30 6769 H 621.3 -5.83152 -3.00449 0
M  V30 6770 H 621.217 -7.27645 -2.05105 0
M  V30 6771 H 622.485 -7.09592 -3.22644 0
M  V30 6772 N 626.714 -0.118576 -1.57153 0
M  V30 6773 C 627.661 0.831789 -2.1529 0
M  V30 6774 C 628.631 1.26385 -1.07778 0
M  V30 6775 O 629.816 1.34144 -1.35684 0
M  V30 6776 C 626.956 2.07664 -2.75626 0
M  V30 6777 C 626.069 1.69298 -3.97444 0
M  V30 6778 C 625.204 2.88747 -4.45868 0
M  V30 6779 C 624.243 2.46619 -5.60219 0
M  V30 6780 N 623.38 3.5898 -6.03389 0
M  V30 6781 H 628.22 0.329183 -2.96176 0
M  V30 6782 H 625.757 0.150792 -1.46325 0
M  V30 6783 H 627.715 2.80601 -3.08738 0
M  V30 6784 H 626.345 2.55384 -1.97431 0
M  V30 6785 H 625.397 0.862374 -3.70496 0
M  V30 6786 H 626.709 1.34338 -4.80369 0
M  V30 6787 H 625.863 3.69909 -4.80887 0
M  V30 6788 H 624.602 3.26933 -3.61892 0
M  V30 6789 H 623.607 1.63889 -5.24805 0
M  V30 6790 H 624.832 2.0955 -6.45961 0
M  V30 6791 H 622.778 3.9684 -5.22354 0
M  V30 6792 H 622.695 3.27942 -6.81168 0
M  V30 6793 H 623.963 4.40583 -6.43045 0
M  V30 6794 N 628.193 1.56834 0.155195 0
M  V30 6795 C 629.421 1.87049 0.884326 0
M  V30 6796 C 629.836 0.705839 1.7511 0
M  V30 6797 O 629.193 -0.324641 1.79589 0
M  V30 6798 C 629.244 3.1644 1.74781 0
M  V30 6799 O 628.965 4.28417 0.915978 0
M  V30 6800 C 630.466 3.60113 2.58522 0
M  V30 6801 H 627.686 0.620196 0.25612 0
M  V30 6802 H 630.23 2.03946 0.150445 0
M  V30 6803 H 628.385 3.01321 2.43484 0
M  V30 6804 H 628.799 5.02353 1.50803 0
M  V30 6805 H 630.273 4.53508 3.14698 0
M  V30 6806 H 630.75 2.85005 3.34169 0
M  V30 6807 H 631.356 3.77898 1.95124 0
M  V30 6808 N 629.671 -0.424282 1.51781 0
M  V30 6809 C 630.621 -1.51464 1.70419 0
M  V30 6810 C 631.605 -1.50911 0.558094 0
M  V30 6811 O 632.797 -1.57143 0.814552 0
M  V30 6812 C 629.926 -2.89539 1.84451 0
M  V30 6813 C 629.012 -2.94798 3.04886 0
M  V30 6814 N 629.403 -2.69778 4.27848 0
M  V30 6815 C 627.701 -3.25962 3.04408 0
M  V30 6816 C 628.402 -2.81216 5.09208 0
M  V30 6817 N 627.378 -3.13447 4.44131 0
M  V30 6818 H 631.18 -1.30892 2.63144 0
M  V30 6819 H 628.694 -0.631783 1.49607 0
M  V30 6820 H 630.691 -3.67998 1.95917 0
M  V30 6821 H 629.351 -3.11121 0.929168 0
M  V30 6822 H 630.362 -2.44458 4.56575 0
M  V30 6823 H 627.039 -3.53236 2.22555 0
M  V30 6824 H 628.429 -2.65715 6.17127 0
M  V30 6825 N 631.149 -1.42148 -0.680565 0
M  V30 6826 C 632.079 -1.4796 -1.80638 0
M  V30 6827 C 633.06 -0.336728 -1.66734 0
M  V30 6828 O 634.245 -0.550247 -1.86242 0
M  V30 6829 C 631.375 -1.37569 -3.18892 0
M  V30 6830 C 630.329 -2.49823 -3.47524 0
M  V30 6831 C 629.655 -2.24491 -4.85291 0
M  V30 6832 C 630.955 -3.92144 -3.44994 0
M  V30 6833 H 632.649 -2.42184 -1.76032 0
M  V30 6834 H 630.195 -1.16566 -0.845481 0
M  V30 6835 H 632.148 -1.40243 -3.97379 0
M  V30 6836 H 630.872 -0.398357 -3.24162 0
M  V30 6837 H 629.531 -2.46455 -2.71395 0
M  V30 6838 H 629.179 -1.25066 -4.87204 0
M  V30 6839 H 628.879 -2.99722 -5.05411 0
M  V30 6840 H 630.403 -2.28906 -5.66069 0
M  V30 6841 H 631.817 -3.97145 -4.13459 0
M  V30 6842 H 630.214 -4.67179 -3.76648 0
M  V30 6843 H 631.284 -4.19225 -2.43676 0
M  V30 6844 N 632.627 0.916307 -1.28225 0
M  V30 6845 C 634.043 1.19425 -1.05876 0
M  V30 6846 C 634.243 2.005 0.2005 0
M  V30 6847 O 633.299 2.35806 0.902873 0
M  V30 6848 C 634.612 1.93133 -2.30478 0
M  V30 6849 C 636.16 2.06026 -2.35632 0
M  V30 6850 C 636.635 2.83141 -3.59994 0
M  V30 6851 N 638.126 2.90704 -3.60618 0
M  V30 6852 C 638.861 3.50865 -4.53521 0
M  V30 6853 N 638.357 4.12327 -5.56739 0
M  V30 6854 N 640.15 3.48379 -4.41122 0
M  V30 6855 H 632.301 0.37496 -2.09064 0
M  V30 6856 H 634.564 0.228531 -0.920042 0
M  V30 6857 H 634.27 1.40985 -3.22205 0
M  V30 6858 H 634.144 2.93696 -2.36691 0
M  V30 6859 H 636.531 2.57355 -1.44404 0
M  V30 6860 H 636.612 1.04647 -2.33415 0
M  V30 6861 H 636.256 2.32492 -4.51564 0
M  V30 6862 H 636.186 3.84829 -3.59464 0
M  V30 6863 H 638.677 2.47034 -2.85977 0
M  V30 6864 H 638.99 4.56205 -6.23776 0
M  V30 6865 H 637.335 4.10839 -5.60568 0
M  V30 6866 H 640.526 2.99572 -3.59686 0
M  V30 6867 H 640.699 3.94974 -5.13712 0
M  V30 6868 N 634.105 1.10431 1.1244 0
M  V30 6869 C 635.521 0.836096 1.35947 0
M  V30 6870 C 635.721 -0.544475 1.94004 0
M  V30 6871 O 634.777 -1.29735 2.16622 0
M  V30 6872 C 636.09 1.93575 2.30107 0
M  V30 6873 C 637.638 1.9642 2.43697 0
M  V30 6874 C 638.113 3.05559 3.41171 0
M  V30 6875 N 639.604 3.04865 3.48728 0
M  V30 6876 C 640.339 3.85954 4.24061 0
M  V30 6877 N 639.835 4.76977 5.02458 0
M  V30 6878 N 641.628 3.74172 4.19466 0
M  V30 6879 H 633.779 1.9942 0.731124 0
M  V30 6880 H 636.042 0.866607 0.384312 0
M  V30 6881 H 635.748 2.92943 1.94621 0
M  V30 6882 H 635.622 1.8229 3.30227 0
M  V30 6883 H 638.009 0.97685 2.78463 0
M  V30 6884 H 638.09 2.11782 1.43465 0
M  V30 6885 H 637.734 4.04513 3.07135 0
M  V30 6886 H 637.664 2.87438 4.41234 0
M  V30 6887 H 640.155 2.38908 2.92799 0
M  V30 6888 H 640.468 5.35409 5.57277 0
M  V30 6889 H 638.813 4.81006 5.01655 0
M  V30 6890 H 642.004 3.02412 3.57302 0
M  V30 6891 H 642.177 4.37602 4.77921 0
M  V30 6892 N 635.583 -1.29855 0.893053 0
M  V30 6893 C 636.999 -1.48366 0.588199 0
M  V30 6894 C 637.199 -1.81654 -0.872018 0
M  V30 6895 O 636.255 -1.909 -1.65268 0
M  V30 6896 C 637.568 -2.60136 1.5083 0
M  V30 6897 C 639.116 -2.74014 1.51279 0
M  V30 6898 C 639.591 -3.88905 2.41902 0
M  V30 6899 N 641.082 -3.96228 2.39911 0
M  V30 6900 C 641.817 -4.84458 3.06738 0
M  V30 6901 N 641.313 -5.77426 3.8282 0
M  V30 6902 N 643.106 -4.77894 2.95929 0
M  V30 6903 H 635.257 -1.06522 1.83757 0
M  V30 6904 H 637.52 -0.528495 0.787018 0
M  V30 6905 H 637.226 -2.42383 2.54839 0
M  V30 6906 H 637.1 -3.56793 1.22388 0
M  V30 6907 H 639.487 -2.91167 0.480179 0
M  V30 6908 H 639.568 -1.77952 1.83757 0
M  V30 6909 H 639.212 -3.72508 3.45253 0
M  V30 6910 H 639.142 -4.84322 2.06737 0
M  V30 6911 H 641.633 -3.29728 1.84629 0
M  V30 6912 H 641.946 -6.41529 4.30883 0
M  V30 6913 H 640.291 -5.77332 3.86927 0
M  V30 6914 H 643.482 -4.04248 2.36012 0
M  V30 6915 H 643.655 -5.46444 3.48286 0
M  V30 6916 N 637.061 -0.65484 -1.43351 0
M  V30 6917 C 638.286 -0.175046 -2.0666 0
M  V30 6918 C 638.711 1.15104 -1.4877 0
M  V30 6919 O 638.069 1.71144 -0.598279 0
M  V30 6920 C 638.117 -0.0991544 -3.60464 0
M  V30 6921 O 637.221 0.938169 -4.01587 0
M  V30 6922 H 636.562 -0.0956148 -0.65708 0
M  V30 6923 H 639.092 -0.898222 -1.83829 0
M  V30 6924 H 639.102 0.083632 -4.07914 0
M  V30 6925 H 637.777 -1.06719 -4.01975 0
M  V30 6926 H 636.354 0.72804 -3.65724 0
M  V30 6927 N 638.539 1.52521 -0.396863 0
M  V30 6928 C 639.764 2.06571 0.185258 0
M  V30 6929 C 640.189 1.26605 1.39115 0
M  V30 6930 O 639.547 0.293055 1.78916 0
M  V30 6931 C 639.595 3.5674 0.526189 0
M  V30 6932 O 638.699 3.7929 1.61903 0
M  V30 6933 H 638.04 0.663712 0.0195474 0
M  V30 6934 H 640.57 1.966 -0.566519 0
M  V30 6935 H 640.58 4.00311 0.788338 0
M  V30 6936 H 639.255 4.14379 -0.355397 0
M  V30 6937 H 637.832 3.47605 1.35 0
M  V30 6938 N 640.017 0.126909 1.57088 0
M  V30 6939 C 640.949 -0.850973 2.12817 0
M  V30 6940 C 641.962 -1.22457 1.07276 0
M  V30 6941 O 643.151 -1.17215 1.34622 0
M  V30 6942 C 640.251 -2.15039 2.61938 0
M  V30 6943 C 639.424 -1.94726 3.91664 0
M  V30 6944 C 638.483 -3.0847 4.26301 0
M  V30 6945 O 637.509 -2.81038 4.94981 0
M  V30 6946 N 638.711 -4.35116 3.84259 0
M  V30 6947 H 641.476 -0.3748 2.97347 0
M  V30 6948 H 639.037 -0.0572793 1.61799 0
M  V30 6949 H 641.029 -2.90141 2.82135 0
M  V30 6950 H 639.599 -2.5398 1.82244 0
M  V30 6951 H 638.819 -1.03772 3.80296 0
M  V30 6952 H 640.107 -1.78469 4.76473 0
M  V30 6953 H 639.505 -4.60276 3.2888 0
M  V30 6954 H 638.062 -5.07064 4.09548 0
M  V30 6955 N 641.495 -1.56914 -0.146875 0
M  V30 6956 C 642.425 -2.01308 -1.1831 0
M  V30 6957 C 643.406 -0.892664 -1.44795 0
M  V30 6958 O 644.591 -1.16048 -1.55713 0
M  V30 6959 C 641.721 -2.3938 -2.51624 0
M  V30 6960 C 640.675 -3.54608 -2.3966 0
M  V30 6961 C 640.001 -3.78493 -3.77686 0
M  V30 6962 C 641.301 -4.87269 -1.88058 0
M  V30 6963 H 642.995 -2.88123 -0.813964 0
M  V30 6964 H 640.541 -1.38615 -0.3901 0
M  V30 6965 H 642.494 -2.69037 -3.24341 0
M  V30 6966 H 641.218 -1.49502 -2.90373 0
M  V30 6967 H 639.877 -3.25116 -1.69396 0
M  V30 6968 H 639.525 -2.85866 -4.13871 0
M  V30 6969 H 639.225 -4.56039 -3.70543 0
M  V30 6970 H 640.749 -4.10576 -4.51951 0
M  V30 6971 H 642.163 -5.15644 -2.50568 0
M  V30 6972 H 640.56 -5.68622 -1.91805 0
M  V30 6973 H 641.63 -4.77634 -0.836277 0
M  V30 6974 N 642.974 0.416227 -1.52004 0
M  V30 6975 C 643.921 1.50666 -1.74838 0
M  V30 6976 C 644.891 1.55245 -0.590599 0
M  V30 6977 O 646.076 1.71928 -0.827374 0
M  V30 6978 C 643.216 2.88185 -1.89851 0
M  V30 6979 C 642.329 2.92971 -3.17478 0
M  V30 6980 C 641.464 4.21745 -3.22962 0
M  V30 6981 C 640.503 4.20478 -4.4482 0
M  V30 6982 N 639.64 5.40811 -4.47736 0
M  V30 6983 H 644.48 1.30498 -2.67907 0
M  V30 6984 H 642.017 0.633568 -1.32757 0
M  V30 6985 H 643.975 3.68007 -1.96537 0
M  V30 6986 H 642.605 3.06865 -1.00169 0
M  V30 6987 H 641.657 2.05684 -3.19997 0
M  V30 6988 H 642.969 2.87899 -4.07328 0
M  V30 6989 H 642.123 5.09954 -3.28682 0
M  V30 6990 H 640.862 4.29503 -2.31038 0
M  V30 6991 H 639.867 3.30659 -4.39254 0
M  V30 6992 H 641.092 4.14366 -5.38031 0
M  V30 6993 H 639.038 5.4925 -3.58692 0
M  V30 6994 H 638.955 5.37705 -5.31422 0
M  V30 6995 H 640.223 6.30993 -4.57676 0
M  V30 6996 N 644.452 1.42507 0.673017 0
M  V30 6997 C 645.701 1.42364 1.42883 0
M  V30 6998 C 646.014 0.0441598 1.9555 0
M  V30 6999 O 647.22 -0.0798679 2.71382 0
M  V30 7000 C 645.676 2.5043 2.58482 0
M  V30 7001 C 645.284 3.94392 2.12506 0
M  V30 7002 C 647.028 2.59455 3.35981 0
M  V30 7003 C 644.935 4.93964 3.25198 0
M  V30 7004 H 643.865 0.52951 0.536782 0
M  V30 7005 H 646.516 1.68422 0.728448 0
M  V30 7006 H 644.898 2.1754 3.30896 0
M  V30 7007 H 646.072 4.36645 1.47233 0
M  V30 7008 H 644.387 3.89233 1.4794 0
M  V30 7009 H 646.984 3.31025 4.19912 0
M  V30 7010 H 647.327 1.63869 3.82691 0
M  V30 7011 H 647.86 2.91549 2.70637 0
M  V30 7012 H 644.599 5.91034 2.83477 0
M  V30 7013 H 644.119 4.56341 3.89247 0
M  V30 7014 H 645.798 5.15763 3.90637 0
M  V30 7015 N 645.93 -0.909495 1.28709 0
M  V30 7016 C 646.877 -2.01245 1.13 0
M  V30 7017 C 647.847 -1.6608 0.0259684 0
M  V30 7018 O 649.032 -1.89835 0.191687 0
M  V30 7019 C 646.172 -3.35644 0.802315 0
M  V30 7020 C 645.285 -3.83653 1.98582 0
M  V30 7021 C 644.42 -5.06582 1.59837 0
M  V30 7022 C 643.459 -5.46934 2.74827 0
M  V30 7023 N 642.596 -6.61053 2.36546 0
M  V30 7024 H 647.436 -2.14013 2.0737 0
M  V30 7025 H 644.973 -1.0482 1.03205 0
M  V30 7026 H 646.931 -4.12963 0.593057 0
M  V30 7027 H 645.561 -3.22631 -0.104457 0
M  V30 7028 H 644.613 -3.02454 2.30708 0
M  V30 7029 H 645.925 -4.09515 2.84779 0
M  V30 7030 H 645.079 -5.91457 1.35143 0
M  V30 7031 H 643.818 -4.82537 0.707753 0
M  V30 7032 H 642.823 -4.60599 3.00215 0
M  V30 7033 H 644.048 -5.72965 3.64538 0
M  V30 7034 H 641.994 -6.3863 1.49959 0
M  V30 7035 H 641.911 -6.86662 3.16277 0
M  V30 7036 H 643.179 -7.49221 2.15146 0
M  V30 7037 N 647.408 -1.11026 -1.11852 0
M  V30 7038 C 648.657 -0.851249 -1.82857 0
M  V30 7039 C 648.97 0.62514 -1.85341 0
M  V30 7040 O 650.176 1.00026 -2.52403 0
M  V30 7041 C 648.632 -1.47309 -3.28372 0
M  V30 7042 C 648.24 -2.9832 -3.34229 0
M  V30 7043 C 649.984 -1.29373 -4.04306 0
M  V30 7044 C 647.891 -3.53509 -4.74115 0
M  V30 7045 H 646.821 -0.314794 -0.685143 0
M  V30 7046 H 649.472 -1.33499 -1.25898 0
M  V30 7047 H 647.854 -0.917017 -3.85236 0
M  V30 7048 H 649.028 -3.60295 -2.87271 0
M  V30 7049 H 647.343 -3.15482 -2.71772 0
M  V30 7050 H 649.94 -1.68042 -5.07608 0
M  V30 7051 H 650.283 -0.235879 -4.15631 0
M  V30 7052 H 650.816 -1.8182 -3.53817 0
M  V30 7053 H 647.555 -4.58987 -4.67986 0
M  V30 7054 H 647.075 -2.96305 -5.21501 0
M  V30 7055 H 648.754 -3.51693 -5.43066 0
M  V30 7056 N 648.886 1.2938 -0.899927 0
M  V30 7057 C 650.297 1.77644 -0.574427 0
M  V30 7058 C 650.648 1.73824 0.909928 0
M  V30 7059 O 649.773 1.32429 1.71147 0
M  V30 7060 C 650.368 3.22573 -1.03595 0
M  V30 7061 C 648.927 3.68614 -0.76161 0
M  V30 7062 C 648.074 2.49483 -1.21052 0
M  V30 7063 H 651.025 1.16038 -1.08263 0
M  V30 7064 H 651.046 3.78684 -0.371337 0
M  V30 7065 H 650.558 3.25321 -2.11631 0
M  V30 7066 H 648.659 3.7134 0.306127 0
M  V30 7067 H 648.772 4.59402 -1.35965 0
M  V30 7068 H 647.136 2.46798 -0.629515 0
M  V30 7069 H 647.919 2.54959 -2.29893 0
M  V30 7070 N 650.364 0.662433 1.43002 0
M  V30 7071 C 651.641 0.109096 1.95296 0
M  V30 7072 C 652.021 -1.37313 1.60338 0
M  V30 7073 O 651.369 -2.1032 0.893187 0
M  V30 7074 C 651.579 0.365096 3.47085 0
M  V30 7075 C 652.927 0.274964 4.23709 0
M  V30 7076 O 653.951 0.29816 3.5495 0
M  V30 7077 O 652.81 0.206549 5.4611 0
M  V30 7078 H 649.904 -0.00429724 0.826989 0
M  V30 7079 H 652.45 0.736308 1.52894 0
M  V30 7080 H 651.222 1.39237 3.65689 0
M  V30 7081 H 650.845 -0.294733 3.96506 0
M  V30 7082 N 651.842 -1.52309 0.404946 0
M  V30 7083 C 652.772 -2.29805 -0.41376 0
M  V30 7084 C 653.753 -1.3384 -1.0498 0
M  V30 7085 O 654.938 -1.62745 -1.05961 0
M  V30 7086 C 652.068 -3.11639 -1.53292 0
M  V30 7087 C 651.022 -4.15616 -1.02211 0
M  V30 7088 C 650.348 -4.8577 -2.23455 0
M  V30 7089 C 651.648 -5.2224 -0.0790725 0
M  V30 7090 H 653.342 -2.98493 0.232878 0
M  V30 7091 H 650.888 -1.43552 0.113441 0
M  V30 7092 H 652.841 -3.64618 -2.11262 0
M  V30 7093 H 651.565 -2.40712 -2.20738 0
M  V30 7094 H 650.224 -3.63641 -0.46484 0
M  V30 7095 H 649.872 -4.11376 -2.89445 0
M  V30 7096 H 649.572 -5.56058 -1.89929 0
M  V30 7097 H 651.096 -5.4156 -2.82038 0
M  V30 7098 H 652.51 -5.70485 -0.567438 0
M  V30 7099 H 650.907 -5.99867 0.167167 0
M  V30 7100 H 651.977 -4.77078 0.867447 0
M  V30 7101 N 653.32 -0.135238 -1.57019 0
M  V30 7102 C 654.548 0.526066 -2.001 0
M  V30 7103 C 654.963 1.59184 -1.01519 0
M  V30 7104 O 654.32 1.82497 -0.0104258 0
M  V30 7105 C 654.371 1.13744 -3.43139 0
M  V30 7106 O 654.092 0.114259 -4.37951 0
M  V30 7107 C 655.593 1.8805 -4.01438 0
M  V30 7108 H 652.813 0.137962 -0.656664 0
M  V30 7109 H 655.357 -0.226359 -2.03243 0
M  V30 7110 H 653.512 1.84056 -3.40885 0
M  V30 7111 H 653.926 0.56058 -5.21496 0
M  V30 7112 H 655.4 2.26133 -5.03555 0
M  V30 7113 H 655.877 2.76194 -3.41487 0
M  V30 7114 H 656.483 1.22464 -4.07287 0
M  V30 7115 N 654.798 1.5699 0.138552 0
M  V30 7116 C 656.075 1.74741 0.87891 0
M  V30 7117 C 656.455 0.705522 1.98961 0
M  V30 7118 O 655.803 -0.274066 2.2685 0
M  V30 7119 C 656.013 3.1909 1.4136 0
M  V30 7120 C 657.361 3.81023 1.87368 0
M  V30 7121 O 658.385 3.22571 1.51084 0
M  V30 7122 O 657.244 4.83722 2.54312 0
M  V30 7123 H 654.338 0.714781 0.415953 0
M  V30 7124 H 656.884 1.69248 0.123817 0
M  V30 7125 H 655.656 3.86424 0.61579 0
M  V30 7126 H 655.279 3.29043 2.23196 0
M  V30 7127 N 656.276 -0.40816 1.52223 0
M  V30 7128 C 657.522 -1.15673 1.66576 0
M  V30 7129 C 657.855 -1.90141 0.394996 0
M  V30 7130 O 657.13 -1.84798 -0.606613 0
M  V30 7131 C 657.413 -2.15042 2.88841 0
M  V30 7132 C 657.266 -1.44465 4.25969 0
M  V30 7133 C 658.585 -3.15699 3.0663 0
M  V30 7134 H 655.704 -0.41916 0.606196 0
M  V30 7135 H 658.346 -0.442348 1.84779 0
M  V30 7136 H 656.496 -2.75964 2.73452 0
M  V30 7137 H 658.168 -0.866544 4.53088 0
M  V30 7138 H 656.411 -0.746612 4.27327 0
M  V30 7139 H 657.082 -2.16976 5.07568 0
M  V30 7140 H 659.558 -2.64854 3.20923 0
M  V30 7141 H 658.434 -3.82491 3.9369 0
M  V30 7142 H 658.695 -3.83481 2.19987 0
M  V30 7143 N 657.755 -1.42862 -0.66545 0
M  V30 7144 C 658.703 -1.47319 -1.8 0
M  V30 7145 C 659.697 -0.347963 -1.65788 0
M  V30 7146 O 660.903 -0.521406 -1.72283 0
M  V30 7147 H 657.278 -0.461588 -0.593667 0
M  V30 7148 H 659.249 -2.42876 -1.7336 0
M  V30 7149 C 657.998 -1.40152 -3.18203 0
M  V30 7150 H 657.321 -2.26035 -3.2977 0
M  V30 7151 H 658.761 -1.47331 -3.9758 0
M  V30 7152 C 657.22 -0.117493 -3.36695 0
M  V30 7153 O 657.75 0.826058 -3.93115 0
M  V30 7154 N 655.956 -0.0316218 -2.90583 0
M  V30 7155 H 655.503 -0.800247 -2.44855 0
M  V30 7156 H 655.461 0.826835 -3.03333 0
M  V30 7157 N 659.233 0.902656 -1.29189 0
M  V30 7158 C 660.196 1.98797 -1.14071 0
M  V30 7159 C 661.196 1.60615 -0.0770549 0
M  V30 7160 O 662.386 1.71165 -0.323753 0
M  V30 7161 C 659.518 3.32688 -0.743739 0
M  V30 7162 H 660.711 2.13637 -2.10473 0
M  V30 7163 H 658.264 1.08678 -1.12334 0
M  V30 7164 H 658.999 3.23549 0.220554 0
M  V30 7165 H 658.784 3.61765 -1.51223 0
M  V30 7166 H 660.274 4.12337 -0.660935 0
M  V30 7167 N 660.711 1.11618 1.11262 0
M  V30 7168 C 661.96 0.860934 1.82403 0
M  V30 7169 C 662.273 -0.615303 1.8567 0
M  V30 7170 O 663.479 -0.986861 2.52929 0
M  V30 7171 C 661.935 1.49048 3.27586 0
M  V30 7172 C 661.543 3.00089 3.32642 0
M  V30 7173 C 663.287 1.31515 4.03614 0
M  V30 7174 C 661.194 3.56019 4.72234 0
M  V30 7175 H 660.124 0.318423 0.683464 0
M  V30 7176 H 662.775 1.34165 1.25188 0
M  V30 7177 H 661.157 0.937434 3.84744 0
M  V30 7178 H 662.331 3.61813 2.85356 0
M  V30 7179 H 660.646 3.16919 2.70096 0
M  V30 7180 H 663.243 1.70732 5.0671 0
M  V30 7181 H 663.586 0.257917 4.155 0
M  V30 7182 H 664.119 1.83694 3.52848 0
M  V30 7183 H 660.858 4.61463 4.65545 0
M  V30 7184 H 660.378 2.99066 5.19923 0
M  V30 7185 H 662.057 3.54568 5.41193 0
M  V30 7186 N 662.189 -1.289 0.906776 0
M  V30 7187 C 663.466 -1.90221 0.455537 0
M  V30 7188 C 663.846 -1.82251 -1.06527 0
M  V30 7189 O 663.194 -1.25385 -1.91026 0
M  V30 7190 C 663.404 -3.35015 0.97806 0
M  V30 7191 C 664.752 -4.12018 1.02598 0
M  V30 7192 O 665.776 -3.43947 0.926218 0
M  V30 7193 O 664.635 -5.33677 1.17689 0
M  V30 7194 H 661.729 -0.814505 0.143214 0
M  V30 7195 H 664.275 -1.37317 0.997104 0
M  V30 7196 H 663.047 -3.35006 2.02204 0
M  V30 7197 H 662.67 -3.95408 0.416914 0
M  V30 7198 N 663.667 -0.670007 -1.42649 0
M  V30 7199 C 665.083 -0.33911 -1.55956 0
M  V30 7200 C 665.283 1.1558 -1.65056 0
M  V30 7201 O 664.339 1.94111 -1.61485 0
M  V30 7202 C 665.652 -1.06522 -2.812 0
M  V30 7203 C 667.2 -1.04708 -2.94966 0
M  V30 7204 C 667.675 -1.75442 -4.23065 0
M  V30 7205 N 669.166 -1.72286 -4.29967 0
M  V30 7206 C 669.901 -2.23877 -5.27889 0
M  V30 7207 N 669.397 -2.83829 -6.31991 0
M  V30 7208 N 671.19 -2.14279 -5.19654 0
M  V30 7209 H 663.341 -1.6399 -1.34986 0
M  V30 7210 H 665.604 -0.690603 -0.649439 0
M  V30 7211 H 665.31 -2.12033 -2.80597 0
M  V30 7212 H 665.184 -0.627398 -3.71946 0
M  V30 7213 H 667.571 -0.000315966 -2.951 0
M  V30 7214 H 667.652 -1.52374 -2.05465 0
M  V30 7215 H 667.296 -2.80084 -4.23693 0
M  V30 7216 H 667.226 -1.25229 -5.11493 0
M  V30 7217 H 669.717 -1.28554 -3.55362 0
M  V30 7218 H 670.03 -3.20827 -7.03057 0
M  V30 7219 H 668.375 -2.87896 -6.32567 0
M  V30 7220 H 671.566 -1.67135 -4.37245 0
M  V30 7221 H 671.739 -2.54792 -5.95806 0
M  V30 7222 N 665.145 1.52092 -0.413018 0
M  V30 7223 C 666.391 2.02815 0.154104 0
M  V30 7224 C 666.746 1.293 1.42475 0
M  V30 7225 O 666.039 0.391835 1.87551 0
M  V30 7226 C 666.233 3.54529 0.4521 0
M  V30 7227 C 666.062 4.4274 -0.788116 0
M  V30 7228 C 664.832 4.87903 -1.31447 0
M  V30 7229 C 667.03 4.86522 -1.66735 0
M  V30 7230 N 665.012 5.60254 -2.50976 0
M  V30 7231 C 666.383 5.57692 -2.70886 0
M  V30 7232 C 668.438 4.68534 -1.68465 0
M  V30 7233 C 667.141 6.12783 -3.76682 0
M  V30 7234 C 669.167 5.24524 -2.73182 0
M  V30 7235 C 668.529 5.9562 -3.76054 0
M  V30 7236 H 664.628 0.781796 0.0178567 0
M  V30 7237 H 667.212 1.86223 -0.568237 0
M  V30 7238 H 665.383 3.71186 1.14348 0
M  V30 7239 H 667.115 3.91934 1.00844 0
M  V30 7240 H 663.87 4.65504 -0.871931 0
M  V30 7241 H 664.294 6.01069 -3.11521 0
M  V30 7242 H 668.936 4.13051 -0.902708 0
M  V30 7243 H 666.654 6.67335 -4.55729 0
M  V30 7244 H 670.24 5.12473 -2.75433 0
M  V30 7245 H 669.12 6.38169 -4.55752 0
M  V30 7246 N 666.623 0.143563 1.56945 0
M  V30 7247 C 667.848 -0.518701 2.00809 0
M  V30 7248 C 668.273 -1.5785 1.02298 0
M  V30 7249 O 667.631 -1.813 -0.0017839 0
M  V30 7250 C 667.679 -1.09929 3.43436 0
M  V30 7251 O 666.783 -2.21425 3.47915 0
M  V30 7252 H 666.124 -0.127215 0.6517 0
M  V30 7253 H 668.654 0.239283 2.03196 0
M  V30 7254 H 668.664 -1.4288 3.82164 0
M  V30 7255 H 667.339 -0.323162 4.14643 0
M  V30 7256 H 665.916 -1.89728 3.21026 0
M  V30 7257 N 668.101 -1.57061 -0.130224 0
M  V30 7258 C 669.517 -1.52103 -0.483413 0
M  V30 7259 C 669.717 -0.854752 -1.82473 0
M  V30 7260 O 668.773 -0.432342 -2.48771 0
M  V30 7261 C 670.086 -2.96872 -0.47825 0
M  V30 7262 C 671.634 -3.07902 -0.562592 0
M  V30 7263 C 672.109 -4.54211 -0.587929 0
M  V30 7264 N 673.6 -4.58621 -0.649684 0
M  V30 7265 C 674.335 -5.69227 -0.690551 0
M  V30 7266 N 673.831 -6.89358 -0.689743 0
M  V30 7267 N 675.624 -5.57304 -0.732708 0
M  V30 7268 H 667.775 -1.98764 0.748779 0
M  V30 7269 H 670.038 -0.907248 0.274965 0
M  V30 7270 H 669.744 -3.48944 0.439444 0
M  V30 7271 H 669.618 -3.53716 -1.31013 0
M  V30 7272 H 672.005 -2.5584 -1.47071 0
M  V30 7273 H 672.086 -2.54073 0.296764 0
M  V30 7274 H 671.73 -5.06915 0.316096 0
M  V30 7275 H 671.66 -5.0584 -1.46401 0
M  V30 7276 H 674.151 -3.72146 -0.656927 0
M  V30 7277 H 674.464 -7.69408 -0.723239 0
M  V30 7278 H 672.809 -6.91884 -0.657347 0
M  V30 7279 H 676 -4.62363 -0.730625 0
M  V30 7280 H 676.173 -6.43515 -0.76109 0
M  V30 7281 N 669.579 0.400081 -1.52437 0
M  V30 7282 C 670.828 1.14332 -1.66166 0
M  V30 7283 C 671.141 1.91419 -0.402253 0
M  V30 7284 O 672.347 2.6824 -0.419487 0
M  V30 7285 C 670.803 2.08137 -2.9361 0
M  V30 7286 C 670.411 1.36524 -4.26691 0
M  V30 7287 C 672.155 2.82664 -3.16703 0
M  V30 7288 C 670.062 2.29031 -5.45251 0
M  V30 7289 H 668.992 0.430499 -0.61902 0
M  V30 7290 H 671.643 0.407017 -1.78929 0
M  V30 7291 H 670.025 2.85358 -2.74567 0
M  V30 7292 H 671.199 0.646061 -4.56249 0
M  V30 7293 H 669.514 0.74002 -4.09771 0
M  V30 7294 H 672.111 3.52037 -4.0246 0
M  V30 7295 H 672.454 3.46122 -2.31312 0
M  V30 7296 H 672.987 2.12541 -3.36261 0
M  V30 7297 H 669.726 1.70206 -6.33017 0
M  V30 7298 H 669.246 2.98896 -5.2002 0
M  V30 7299 H 670.925 2.89359 -5.78689 0
M  V30 7300 N 671.057 1.43213 0.657864 0
M  V30 7301 C 672.303 1.44798 1.41991 0
M  V30 7302 C 672.636 0.070256 1.94073 0
M  V30 7303 O 671.911 -0.908177 1.71995 0
M  V30 7304 C 672.194 2.4865 2.60471 0
M  V30 7305 C 672.047 3.95679 2.13911 0
M  V30 7306 C 673.366 2.49292 3.62686 0
M  V30 7307 H 670.485 0.527244 0.514959 0
M  V30 7308 H 673.127 1.74733 0.74621 0
M  V30 7309 H 671.277 2.23254 3.17946 0
M  V30 7310 H 672.949 4.32116 1.61472 0
M  V30 7311 H 671.192 4.08733 1.45325 0
M  V30 7312 H 671.863 4.6395 2.99089 0
M  V30 7313 H 674.339 2.71917 3.14961 0
M  V30 7314 H 673.215 3.23907 4.43143 0
M  V30 7315 H 673.476 1.52502 4.14964 0
M  V30 7316 N 672.536 -0.895792 1.29666 0
M  V30 7317 C 673.783 -1.64664 1.17864 0
M  V30 7318 C 674.111 -1.92631 -0.26902 0
M  V30 7319 O 673.366 -1.53787 -1.21029 0
M  V30 7320 C 673.665 -3.00075 1.94139 0
M  V30 7321 C 673.331 -2.91702 3.43833 0
M  V30 7322 C 671.993 -2.89126 3.84656 0
M  V30 7323 C 674.345 -2.80622 4.39205 0
M  V30 7324 C 671.673 -2.73293 5.1916 0
M  V30 7325 C 674.025 -2.66329 5.73805 0
M  V30 7326 C 672.689 -2.62121 6.1388 0
M  V30 7327 H 671.959 -0.602549 0.431295 0
M  V30 7328 H 674.606 -1.04234 1.60648 0
M  V30 7329 H 672.911 -3.64394 1.43958 0
M  V30 7330 H 674.608 -3.57111 1.82408 0
M  V30 7331 H 671.198 -2.94511 3.11386 0
M  V30 7332 H 675.382 -2.81686 4.08615 0
M  V30 7333 H 670.638 -2.68443 5.49316 0
M  V30 7334 H 674.812 -2.56727 6.47352 0
M  V30 7335 H 672.439 -2.49611 7.18052 0
M  V30 7336 N 674.014 -1.12206 -1.10668 0
M  V30 7337 C 675.425 -0.890657 -1.64086 0
M  V30 7338 C 675.776 0.575502 -1.8757 0
M  V30 7339 O 674.901 1.4394 -1.61587 0
M  V30 7340 C 675.496 -1.61029 -2.98085 0
M  V30 7341 C 674.055 -1.4251 -3.48379 0
M  V30 7342 C 673.202 -1.64778 -2.23033 0
M  V30 7343 H 676.153 -1.27718 -0.94201 0
M  V30 7344 H 676.174 -1.05993 -3.65439 0
M  V30 7345 H 675.686 -2.67735 -2.80962 0
M  V30 7346 H 673.787 -0.380497 -3.70652 0
M  V30 7347 H 673.9 -2.17959 -4.26651 0
M  V30 7348 H 672.264 -1.07171 -2.31055 0
M  V30 7349 H 673.047 -2.72776 -2.08443 0
M  V30 7350 N 675.492 1.28418 -0.913599 0
M  V30 7351 C 676.739 1.94981 -0.546674 0
M  V30 7352 C 677.067 1.7192 0.909606 0
M  V30 7353 O 676.322 1.03314 1.66207 0
M  V30 7354 C 676.621 3.48283 -0.802099 0
M  V30 7355 C 676.287 3.91444 -2.2379 0
M  V30 7356 C 674.949 4.02939 -2.63046 0
M  V30 7357 C 677.301 4.13542 -3.17227 0
M  V30 7358 C 674.629 4.3391 -3.94891 0
M  V30 7359 C 676.981 4.45992 -4.48636 0
M  V30 7360 C 675.645 4.55698 -4.87746 0
M  V30 7361 H 674.915 0.713487 -0.200042 0
M  V30 7362 H 677.562 1.52756 -1.15489 0
M  V30 7363 H 675.867 3.91643 -0.111076 0
M  V30 7364 H 677.564 3.97903 -0.497375 0
M  V30 7365 H 674.154 3.83024 -1.9233 0
M  V30 7366 H 678.338 4.04114 -2.88107 0
M  V30 7367 H 673.594 4.39631 -4.24894 0
M  V30 7368 H 677.768 4.62038 -5.21051 0
M  V30 7369 H 675.395 4.79451 -5.89942 0
M  V30 7370 N 676.97 0.677563 1.42291 0
M  V30 7371 C 678.198 0.209459 2.05837 0
M  V30 7372 C 678.613 -1.13444 1.50917 0
M  V30 7373 O 677.97 -1.70529 0.65008 0
M  V30 7374 C 678.021 0.138819 3.61233 0
M  V30 7375 O 677.742 1.42962 4.14118 0
M  V30 7376 C 679.243 -0.352449 4.41897 0
M  V30 7377 H 676.463 0.101209 0.663323 0
M  V30 7378 H 679.007 0.925077 1.8238 0
M  V30 7379 H 677.162 -0.527505 3.83792 0
M  V30 7380 H 677.576 1.3048 5.08011 0
M  V30 7381 H 679.05 -0.350778 5.50884 0
M  V30 7382 H 679.527 -1.3882 4.16684 0
M  V30 7383 H 680.133 0.282236 4.24362 0
M  V30 7384 N 678.448 -1.51871 0.421078 0
M  V30 7385 C 679.695 -2.01938 -0.15079 0
M  V30 7386 C 680.023 -1.30611 -1.44121 0
M  V30 7387 O 679.278 -0.404631 -1.91471 0
M  V30 7388 C 679.577 -3.54764 -0.433292 0
M  V30 7389 C 679.243 -4.44288 0.76936 0
M  V30 7390 C 677.905 -4.68477 1.09921 0
M  V30 7391 C 680.257 -4.96915 1.57242 0
M  V30 7392 C 677.585 -5.4254 2.2331 0
M  V30 7393 C 679.937 -5.7222 2.69716 0
M  V30 7394 C 678.601 -5.94678 3.03174 0
M  V30 7395 H 677.871 -0.738943 -0.0551781 0
M  V30 7396 H 680.518 -1.82977 0.564945 0
M  V30 7397 H 678.823 -3.71968 -1.23074 0
M  V30 7398 H 680.52 -3.91023 -0.888922 0
M  V30 7399 H 677.11 -4.25646 0.502305 0
M  V30 7400 H 681.294 -4.78125 1.3308 0
M  V30 7401 H 676.55 -5.58146 2.49565 0
M  V30 7402 H 680.724 -6.11992 3.32323 0
M  V30 7403 H 678.351 -6.51848 3.9115 0
M  V30 7404 N 679.926 -0.151884 -1.56866 0
M  V30 7405 C 681.151 0.508044 -2.01081 0
M  V30 7406 C 681.576 1.57306 -1.03134 0
M  V30 7407 O 680.934 1.81298 -0.0078309 0
M  V30 7408 C 680.982 1.08106 -3.44014 0
M  V30 7409 O 680.086 2.19577 -3.49084 0
M  V30 7410 H 679.427 0.123757 -0.652365 0
M  V30 7411 H 681.957 -0.250055 -2.03066 0
M  V30 7412 H 681.967 1.40851 -3.82916 0
M  V30 7413 H 680.642 0.301168 -4.14808 0
M  V30 7414 H 679.219 1.88023 -3.22027 0
M  V30 7415 N 681.404 1.57128 0.121893 0
M  V30 7416 C 682.334 2.03165 1.15092 0
M  V30 7417 C 683.315 0.915587 1.43356 0
M  V30 7418 O 684.5 1.1851 1.53847 0
M  V30 7419 C 681.63 2.43352 2.47784 0
M  V30 7420 C 680.584 3.58376 2.33989 0
M  V30 7421 C 679.91 3.84454 3.71617 0
M  V30 7422 C 681.21 4.90199 1.80283 0
M  V30 7423 H 682.904 2.89382 0.768023 0
M  V30 7424 H 680.45 1.39218 0.367998 0
M  V30 7425 H 682.403 2.74163 3.20019 0
M  V30 7426 H 681.127 1.54103 2.87958 0
M  V30 7427 H 679.786 3.2777 1.64202 0
M  V30 7428 H 679.434 2.92414 4.09271 0
M  V30 7429 H 679.134 4.61877 3.6324 0
M  V30 7430 H 680.658 4.17714 4.45362 0
M  V30 7431 H 682.072 5.19565 2.42333 0
M  V30 7432 H 680.469 5.71601 1.82735 0
M  V30 7433 H 681.539 4.78904 0.760184 0
M  V30 7434 N 682.882 -0.391992 1.52647 0
M  V30 7435 C 684.129 -1.13732 1.67545 0
M  V30 7436 C 684.457 -1.90045 0.413881 0
M  V30 7437 O 683.712 -1.86157 -0.603646 0
M  V30 7438 C 684.011 -2.14401 2.85949 0
M  V30 7439 C 683.677 -1.54767 4.23507 0
M  V30 7440 C 682.339 -1.38229 4.60919 0
M  V30 7441 C 684.691 -1.11382 5.0916 0
M  V30 7442 C 682.019 -0.7685 5.81645 0
M  V30 7443 C 684.371 -0.514143 6.30507 0
M  V30 7444 C 683.035 -0.33604 6.66654 0
M  V30 7445 H 682.305 -0.416174 0.613091 0
M  V30 7446 H 684.952 -0.422327 1.86785 0
M  V30 7447 H 683.257 -2.92108 2.61114 0
M  V30 7448 H 684.954 -2.71974 2.94671 0
M  V30 7449 H 681.544 -1.68626 3.94035 0
M  V30 7450 H 685.728 -1.22962 4.80826 0
M  V30 7451 H 680.984 -0.618681 6.08262 0
M  V30 7452 H 685.158 -0.169657 6.96193 0
M  V30 7453 H 682.785 0.14166 7.60068 0
M  V30 7454 N 684.36 -1.4356 -0.65026 0
M  V30 7455 C 685.308 -1.49219 -1.78427 0
M  V30 7456 C 686.302 -0.365528 -1.65409 0
M  V30 7457 O 687.508 -0.539649 -1.7172 0
M  V30 7458 H 683.883 -0.467858 -0.588738 0
M  V30 7459 H 685.854 -2.44701 -1.70774 0
M  V30 7460 C 684.603 -1.43519 -3.16698 0
M  V30 7461 H 683.926 -2.2952 -3.27354 0
M  V30 7462 H 685.366 -1.5154 -3.95995 0
M  V30 7463 C 683.825 -0.153197 -3.36552 0
M  V30 7464 O 684.355 0.784317 -3.93969 0
M  V30 7465 N 682.561 -0.0624402 -2.90533 0
M  V30 7466 H 682.108 -0.826172 -2.43992 0
M  V30 7467 H 682.066 0.794616 -3.04193 0
M  V30 7468 N 685.838 0.888903 -1.30139 0
M  V30 7469 C 686.768 2.01046 -1.18755 0
M  V30 7470 C 687.749 1.69916 -0.0791438 0
M  V30 7471 O 688.934 1.92445 -0.260498 0
M  V30 7472 C 686.064 3.36109 -0.874518 0
M  V30 7473 C 685.018 3.81486 -1.94043 0
M  V30 7474 C 684.344 5.13796 -1.48047 0
M  V30 7475 C 685.644 4.00637 -3.35093 0
M  V30 7476 H 687.338 2.10828 -2.12584 0
M  V30 7477 H 684.884 1.01298 -1.02346 0
M  V30 7478 H 686.837 4.14089 -0.781548 0
M  V30 7479 H 685.561 3.26449 0.0994519 0
M  V30 7480 H 684.22 3.05731 -2.02297 0
M  V30 7481 H 683.868 5.0056 -0.494878 0
M  V30 7482 H 683.568 5.45127 -2.19341 0
M  V30 7483 H 685.092 5.94305 -1.40121 0
M  V30 7484 H 686.506 4.69067 -3.2962 0
M  V30 7485 H 684.903 4.43339 -4.04438 0
M  V30 7486 H 685.973 3.0462 -3.77273 0
M  V30 7487 N 687.317 1.12792 1.10072 0
M  V30 7488 C 688.563 0.886857 1.82381 0
M  V30 7489 C 688.896 -0.58576 1.85155 0
M  V30 7490 O 688.171 -1.43317 1.31493 0
M  V30 7491 C 688.454 1.46703 3.28862 0
M  V30 7492 C 688.307 3.00829 3.34398 0
M  V30 7493 C 689.626 1.12971 4.25353 0
M  V30 7494 H 686.745 0.32362 0.662148 0
M  V30 7495 H 689.387 1.39513 1.28982 0
M  V30 7496 H 687.537 1.03476 3.74466 0
M  V30 7497 H 689.209 3.52764 2.97247 0
M  V30 7498 H 687.452 3.36164 2.74183 0
M  V30 7499 H 688.123 3.36519 4.3756 0
M  V30 7500 H 690.599 1.50313 3.88001 0
M  V30 7501 H 689.475 1.56223 5.26199 0
M  V30 7502 H 689.736 0.0424452 4.4208 0
M  V30 7503 N 688.795 -1.27931 0.920396 0
M  V30 7504 C 690.025 -1.98516 0.572256 0
M  V30 7505 C 690.433 -1.68912 -0.852375 0
M  V30 7506 O 689.776 -0.94203 -1.57707 0
M  V30 7507 C 689.838 -3.5243 0.709485 0
M  V30 7508 C 689.502 -4.0564 2.10489 0
M  V30 7509 C 690.499 -4.1897 3.07831 0
M  V30 7510 C 688.184 -4.40168 2.41986 0
M  V30 7511 C 690.178 -4.66093 4.34783 0
M  V30 7512 C 687.865 -4.86983 3.69176 0
M  V30 7513 C 688.863 -4.99903 4.65388 0
M  V30 7514 O 688.551 -5.45694 5.90316 0
M  V30 7515 H 688.283 -0.64047 0.216274 0
M  V30 7516 H 690.837 -1.6393 1.23758 0
M  V30 7517 H 689.067 -3.86698 -0.0129263 0
M  V30 7518 H 690.756 -4.04233 0.367474 0
M  V30 7519 H 691.522 -3.92562 2.84816 0
M  V30 7520 H 687.401 -4.29358 1.67846 0
M  V30 7521 H 690.945 -4.76092 5.09884 0
M  V30 7522 H 686.842 -5.12832 3.92012 0
M  V30 7523 H 687.61 -5.63965 5.932 0
M  V30 7524 N 690.273 -0.685099 -1.4193 0
M  V30 7525 C 691.519 -0.220688 -2.02199 0
M  V30 7526 C 691.874 1.16329 -1.5325 0
M  V30 7527 O 691.167 1.77175 -0.729345 0
M  V30 7528 C 691.361 -0.206154 -3.56805 0
M  V30 7529 C 691.19 -1.58718 -4.2076 0
M  V30 7530 C 689.96 -2.18747 -4.55497 0
M  V30 7531 C 692.158 -2.53182 -4.47664 0
M  V30 7532 N 690.14 -3.49523 -5.04685 0
M  V30 7533 C 691.511 -3.68625 -4.98514 0
M  V30 7534 C 693.566 -2.51582 -4.29664 0
M  V30 7535 C 692.269 -4.82734 -5.33255 0
M  V30 7536 C 694.295 -3.64795 -4.65487 0
M  V30 7537 C 693.657 -4.78967 -5.16498 0
M  V30 7538 H 689.756 -0.12591 -0.771797 0
M  V30 7539 H 692.34 -0.900316 -1.72634 0
M  V30 7540 H 690.511 0.442923 -3.85866 0
M  V30 7541 H 692.243 0.272103 -4.03784 0
M  V30 7542 H 688.998 -1.71135 -4.41599 0
M  V30 7543 H 689.422 -4.1653 -5.33696 0
M  V30 7544 H 694.064 -1.64535 -3.89472 0
M  V30 7545 H 691.782 -5.7045 -5.72375 0
M  V30 7546 H 695.368 -3.64796 -4.53227 0
M  V30 7547 H 694.248 -5.6512 -5.437 0
M  V30 7548 N 691.751 1.51645 -0.429126 0
M  V30 7549 C 692.681 2.30434 0.377148 0
M  V30 7550 C 693.662 1.35493 1.02838 0
M  V30 7551 O 694.847 1.6441 1.03359 0
M  V30 7552 C 691.977 3.14038 1.48315 0
M  V30 7553 C 690.931 4.1719 0.955855 0
M  V30 7554 C 690.257 4.89263 2.15698 0
M  V30 7555 C 691.557 5.223 -0.00402136 0
M  V30 7556 H 693.251 2.98085 -0.280336 0
M  V30 7557 H 690.797 1.43354 -0.136265 0
M  V30 7558 H 692.75 3.67933 2.05435 0
M  V30 7559 H 691.474 2.44193 2.16881 0
M  V30 7560 H 690.133 3.64335 0.406929 0
M  V30 7561 H 689.781 4.15929 2.82864 0
M  V30 7562 H 689.481 5.59009 1.81059 0
M  V30 7563 H 691.005 5.45978 2.73387 0
M  V30 7564 H 692.419 5.71315 0.476607 0
M  V30 7565 H 690.816 5.99525 -0.26258 0
M  V30 7566 H 691.886 4.75638 -0.943236 0
M  V30 7567 N 693.229 0.160201 1.56784 0
M  V30 7568 C 694.459 -0.493449 2.00621 0
M  V30 7569 C 694.867 -1.5809 1.03943 0
M  V30 7570 O 694.21 -1.83675 0.0305343 0
M  V30 7571 C 694.272 -1.14169 3.4089 0
M  V30 7572 C 693.936 -0.197243 4.56574 0
M  V30 7573 C 694.933 0.580174 5.16653 0
M  V30 7574 C 692.618 -0.0963038 5.02208 0
M  V30 7575 C 694.612 1.44584 6.20785 0
M  V30 7576 C 692.299 0.772959 6.06192 0
M  V30 7577 C 693.297 1.54263 6.65351 0
M  V30 7578 O 692.985 2.39738 7.67321 0
M  V30 7579 H 692.717 -0.131764 0.663034 0
M  V30 7580 H 695.271 0.255728 2.03802 0
M  V30 7581 H 693.501 -1.93877 3.34587 0
M  V30 7582 H 695.19 -1.69641 3.6875 0
M  V30 7583 H 695.956 0.5123 4.82287 0
M  V30 7584 H 691.835 -0.685143 4.5588 0
M  V30 7585 H 695.379 2.04706 6.66889 0
M  V30 7586 H 691.276 0.842077 6.39984 0
M  V30 7587 H 692.044 2.33131 7.84597 0
M  V30 7588 N 694.707 -1.5719 -0.113559 0
M  V30 7589 C 695.937 -1.89053 -0.833212 0
M  V30 7590 C 696.345 -0.750139 -1.73694 0
M  V30 7591 O 695.688 0.287808 -1.81431 0
M  V30 7592 C 695.75 -3.15986 -1.71443 0
M  V30 7593 C 695.414 -4.46271 -0.984449 0
M  V30 7594 C 696.411 -5.18897 -0.322741 0
M  V30 7595 C 694.096 -4.92963 -0.964011 0
M  V30 7596 C 696.09 -6.3644 0.349646 0
M  V30 7597 C 693.777 -6.10422 -0.287828 0
M  V30 7598 C 694.775 -6.82009 0.36784 0
M  V30 7599 O 694.463 -7.97233 1.03322 0
M  V30 7600 H 694.195 -0.630225 -0.244526 0
M  V30 7601 H 696.749 -2.05152 -0.100847 0
M  V30 7602 H 694.979 -2.95984 -2.48858 0
M  V30 7603 H 696.668 -3.33826 -2.309 0
M  V30 7604 H 697.434 -4.83875 -0.330114 0
M  V30 7605 H 693.313 -4.37143 -1.46379 0
M  V30 7606 H 696.857 -6.92254 0.861996 0
M  V30 7607 H 692.754 -6.449 -0.278237 0
M  V30 7608 H 693.522 -8.13105 0.938247 0
M  V30 7609 N 696.185 0.383891 -1.52853 0
M  V30 7610 C 697.431 1.13009 -1.68395 0
M  V30 7611 C 697.764 1.89488 -0.425195 0
M  V30 7612 O 697.039 1.8574 0.577136 0
M  V30 7613 C 697.322 2.10419 -2.92226 0
M  V30 7614 C 697.175 1.3767 -4.28214 0
M  V30 7615 C 698.494 3.10781 -3.11614 0
M  V30 7616 H 695.613 0.409463 -0.612788 0
M  V30 7617 H 698.255 0.412895 -1.85459 0
M  V30 7618 H 696.405 2.71579 -2.77808 0
M  V30 7619 H 698.077 0.794352 -4.54409 0
M  V30 7620 H 696.32 0.678533 -4.2846 0
M  V30 7621 H 696.991 2.08874 -5.10956 0
M  V30 7622 H 699.467 2.59715 -3.25096 0
M  V30 7623 H 698.343 3.76179 -3.99725 0
M  V30 7624 H 698.604 3.79933 -2.2606 0
M  V30 7625 N 697.663 1.43903 0.642637 0
M  V30 7626 C 698.611 1.50164 1.77634 0
M  V30 7627 C 699.605 0.374294 1.65213 0
M  V30 7628 O 700.811 0.548748 1.71431 0
M  V30 7629 H 697.186 0.470974 0.586249 0
M  V30 7630 H 699.157 2.45603 1.69474 0
M  V30 7631 C 697.906 1.45196 3.15933 0
M  V30 7632 H 697.229 2.31253 3.26132 0
M  V30 7633 H 698.669 1.53638 3.95185 0
M  V30 7634 C 697.128 0.171043 3.36466 0
M  V30 7635 O 697.658 -0.763413 3.94379 0
M  V30 7636 N 695.864 0.077847 2.90496 0
M  V30 7637 H 695.411 0.8391 2.43551 0
M  V30 7638 H 695.369 -0.778473 3.0461 0
M  V30 7639 O 699.18 -0.78588 1.41089 0
M  V30 7640 H 699.871 -1.43226 1.30407 0
M  V30 END ATOM
M  V30 BEGIN BOND
M  V30 END BOND
M  V30 END CTAB
M  END
$$$$
