drugbank_target|P23467 Receptor-type tyrosine-protein phosphatase beta (DB06989; DB07068; DB07127; DB08678; DB16353)
 OpenBabel12092120393D

  0  0  0     0  0            999 V3000
M  V30 BEGIN CTAB
M  V30 COUNTS 31390 31762 0 0 0
M  V30 BEGIN ATOM
M  V30 1 H -0.908 1.98254 -0.117106 0
M  V30 2 N 0 1.576 0 0
M  V30 3 C 0.933 2.03868 1.02534 0
M  V30 4 C 1.911 0.928543 1.3348 0
M  V30 5 O 3.095 1.19667 1.45644 0
M  V30 6 C 0.222 2.43627 2.35294 0
M  V30 7 C -0.732 3.65373 2.2001 0
M  V30 8 S 0.101 5.13292 1.52614 0
M  V30 9 C 1.257 5.56322 2.86805 0
M  V30 10 H 1.49 2.90518 0.631377 0
M  V30 11 H -0.977 1.52953 0.210867 0
M  V30 12 H 0.981 2.67203 3.11629 0
M  V30 13 H -0.358 1.57376 2.7183 0
M  V30 14 H -1.165 3.90944 3.18086 0
M  V30 15 H -1.563 3.418 1.51819 0
M  V30 16 H 0.729 5.58782 3.83104 0
M  V30 17 H 1.672 6.56266 2.65933 0
M  V30 18 H 2.08 4.83886 2.90714 0
M  V30 19 N 1.4781 -0.272755 1.55222 0
M  V30 20 C 2.4081 -1.34136 1.91127 0
M  V30 21 C 3.3891 -1.51513 0.773168 0
M  V30 22 O 4.5741 -1.64552 1.03132 0
M  V30 23 C 1.7041 -2.70083 2.1834 0
M  V30 24 C 0.6581 -2.67437 3.34158 0
M  V30 25 C -0.0159 -4.06938 3.46851 0
M  V30 26 C 1.2841 -2.26686 4.70543 0
M  V30 27 H 2.9781 -1.04333 2.80633 0
M  V30 28 H 0.5241 -0.500454 1.35024 0
M  V30 29 H 2.4771 -3.44952 2.42046 0
M  V30 30 H 1.2011 -3.01469 1.25634 0
M  V30 31 H -0.1399 -1.95026 3.1042 0
M  V30 32 H -0.4919 -4.35547 2.51611 0
M  V30 33 H -0.7919 -4.06062 4.2472 0
M  V30 34 H 0.7321 -4.83545 3.72849 0
M  V30 35 H 2.1461 -2.91277 4.93792 0
M  V30 36 H 0.5431 -2.36971 5.5133 0
M  V30 37 H 1.6131 -1.21818 4.69349 0
M  V30 38 N 2.9562 -1.48159 -0.537278 0
M  V30 39 C 4.1812 -1.59707 -1.32319 0
M  V30 40 C 4.6062 -0.254859 -1.86365 0
M  V30 41 O 3.9642 0.772378 -1.64024 0
M  V30 42 C 4.0122 -2.6412 -2.45505 0
M  V30 43 O 3.1162 -2.20774 -3.48328 0
M  V30 44 H 2.4572 -0.535791 -0.392204 0
M  V30 45 H 4.9872 -1.94092 -0.647268 0
M  V30 46 H 4.9972 -2.85166 -2.91795 0
M  V30 47 H 3.6722 -3.61567 -2.05528 0
M  V30 48 H 2.2492 -2.09911 -3.08207 0
M  V30 49 N 4.4343 0.785586 -1.36625 0
M  V30 50 C 5.3843 1.88822 -1.27789 0
M  V30 51 C 6.3683 1.60014 -0.168579 0
M  V30 52 O 7.5603 1.72381 -0.401737 0
M  V30 53 C 4.6893 3.26092 -1.07327 0
M  V30 54 C 3.7753 3.60897 -2.22743 0
M  V30 55 N 4.1663 3.66982 -3.48077 0
M  V30 56 C 2.4643 3.90981 -2.14593 0
M  V30 57 C 3.1653 3.98137 -4.24101 0
M  V30 58 N 2.1413 4.13319 -3.53084 0
M  V30 59 H 5.9433 1.91759 -2.22723 0
M  V30 60 H 3.4573 0.981311 -1.29399 0
M  V30 61 H 5.4543 4.04954 -0.990842 0
M  V30 62 H 4.1143 3.24428 -0.132977 0
M  V30 63 H 5.1253 3.49531 -3.82163 0
M  V30 64 H 1.8023 3.9722 -1.2854 0
M  V30 65 H 3.1923 4.09737 -5.32509 0
M  V30 66 N 5.9124 1.20967 1.01018 0
M  V30 67 C 7.1604 1.02172 1.74371 0
M  V30 68 C 7.4814 -0.446414 1.89821 0
M  V30 69 O 6.7514 -1.32234 1.44537 0
M  V30 70 H 5.3314 0.375066 0.646014 0
M  V30 71 H 7.9934 1.52187 1.21758 0
M  V30 72 H 7.0894 1.48538 2.74487 0
M  V30 73 N 7.3905 -1.2043 1.01659 0
M  V30 74 C 8.3535 -2.21433 0.591616 0
M  V30 75 C 9.3535 -1.57203 -0.338226 0
M  V30 76 O 10.5435 -1.73737 -0.126918 0
M  V30 77 C 7.6755 -3.40628 -0.136058 0
M  V30 78 H 8.8685 -2.60545 1.48514 0
M  V30 79 H 6.4215 -1.33893 0.806379 0
M  V30 80 H 7.1565 -3.07019 -1.04449 0
M  V30 81 H 6.9415 -3.88475 0.531917 0
M  V30 82 H 8.4315 -4.15475 -0.420735 0
M  V30 83 N 8.8686 -0.792821 -1.36206 0
M  V30 84 C 10.1166 -0.366062 -1.98757 0
M  V30 85 C 10.4376 1.0668 -1.63231 0
M  V30 86 O 9.7076 1.73587 -0.907978 0
M  V30 87 H 8.2876 -0.132364 -0.735179 0
M  V30 88 H 10.9496 -1.01562 -1.66347 0
M  V30 89 H 10.0456 -0.460638 -3.08682 0
M  V30 90 N 10.3467 1.47872 -0.545128 0
M  V30 91 C 11.2767 2.32661 0.197793 0
M  V30 92 C 12.2577 1.43041 0.920504 0
M  V30 93 O 13.4427 1.71912 0.90333 0
M  V30 94 C 10.5727 3.24569 1.23582 0
M  V30 95 C 9.5267 4.23333 0.630323 0
M  V30 96 C 8.8527 5.0448 1.77211 0
M  V30 97 C 10.1527 5.20704 -0.407974 0
M  V30 98 H 11.8467 2.95024 -0.510045 0
M  V30 99 H 9.3927 1.4187 -0.246731 0
M  V30 100 H 11.3457 3.8272 1.76362 0
M  V30 101 H 10.0697 2.60236 1.97344 0
M  V30 102 H 8.7287 3.6639 0.123922 0
M  V30 103 H 8.3767 4.36561 2.49847 0
M  V30 104 H 8.0767 5.71339 1.37281 0
M  V30 105 H 9.6007 5.65487 2.3034 0
M  V30 106 H 11.0147 5.7329 0.033305 0
M  V30 107 H 9.4117 5.95699 -0.725486 0
M  V30 108 H 10.4817 4.66917 -1.30828 0
M  V30 109 N 11.8248 0.280983 1.55075 0
M  V30 110 C 12.7878 -0.590896 2.21452 0
M  V30 111 C 13.7878 -1.07682 1.19421 0
M  V30 112 O 14.9778 -0.97605 1.44288 0
M  V30 113 C 12.1098 -1.81587 2.88511 0
M  V30 114 H 13.3028 -0.0112554 2.99898 0
M  V30 115 H 10.8558 0.0316438 1.56268 0
M  V30 116 H 11.5908 -2.43587 2.14093 0
M  V30 117 H 11.3758 -1.4753 3.63287 0
M  V30 118 H 12.8658 -2.43575 3.39206 0
M  V30 119 N 13.3029 -1.57598 0.00835791 0
M  V30 120 C 14.2329 -2.1198 -0.979113 0
M  V30 121 C 15.2139 -1.03091 -1.35301 0
M  V30 122 O 16.3989 -1.30818 -1.43528 0
M  V30 123 C 13.5289 -2.62995 -2.26828 0
M  V30 124 C 12.4829 -3.76485 -2.03576 0
M  V30 125 C 11.8089 -4.13846 -3.38579 0
M  V30 126 C 13.1089 -5.0342 -1.39161 0
M  V30 127 H 14.8029 -2.94738 -0.526281 0
M  V30 128 H 12.3489 -1.41783 -0.251704 0
M  V30 129 H 14.3019 -2.99669 -2.96271 0
M  V30 130 H 13.0259 -1.7737 -2.7424 0
M  V30 131 H 11.6849 -3.40217 -1.36557 0
M  V30 132 H 11.3329 -3.25232 -3.83709 0
M  V30 133 H 11.0329 -4.90312 -3.23834 0
M  V30 134 H 12.5569 -4.53086 -4.09323 0
M  V30 135 H 13.9709 -5.37812 -1.98573 0
M  V30 136 H 12.3679 -5.84746 -1.34878 0
M  V30 137 H 13.4379 -4.83548 -0.361868 0
M  V30 138 N 14.781 0.264519 -1.55364 0
M  V30 139 C 16.027 0.992314 -1.77552 0
M  V30 140 C 16.382 1.83626 -0.574379 0
M  V30 141 O 15.675 1.86648 0.432782 0
M  V30 142 C 15.869 1.9004 -3.02687 0
M  V30 143 C 15.698 1.14583 -4.34857 0
M  V30 144 C 14.468 0.858068 -4.97961 0
M  V30 145 C 16.666 0.532069 -5.1154 0
M  V30 146 N 14.648 0.0775974 -6.13851 0
M  V30 147 C 16.019 -0.113823 -6.19896 0
M  V30 148 C 18.074 0.440763 -4.95945 0
M  V30 149 C 16.777 -0.842231 -7.14352 0
M  V30 150 C 18.803 -0.274072 -5.90765 0
M  V30 151 C 18.165 -0.90867 -6.98515 0
M  V30 152 H 14.264 0.344811 -0.701875 0
M  V30 153 H 16.848 0.267141 -1.92859 0
M  V30 154 H 15.019 2.59775 -2.88741 0
M  V30 155 H 16.751 2.56243 -3.13243 0
M  V30 156 H 13.506 1.16547 -4.59036 0
M  V30 157 H 13.93 -0.300216 -6.76334 0
M  V30 158 H 18.572 0.917064 -4.12735 0
M  V30 159 H 16.29 -1.33019 -7.97077 0
M  V30 160 H 19.876 -0.345151 -5.80775 0
M  V30 161 H 18.756 -1.45299 -7.70622 0
M  V30 162 N 16.2591 1.48442 0.529413 0
M  V30 163 C 17.5081 1.55742 1.28169 0
M  V30 164 C 17.8211 0.236511 1.94165 0
M  V30 165 O 19.0271 0.187761 2.7085 0
M  V30 166 C 17.4831 2.74667 2.32564 0
M  V30 167 C 17.0911 4.13402 1.72636 0
M  V30 168 C 18.8351 2.9128 3.08798 0
M  V30 169 C 16.7421 5.23587 2.74975 0
M  V30 170 H 15.6721 0.579796 0.48203 0
M  V30 171 H 18.3231 1.74776 0.559056 0
M  V30 172 H 16.7051 2.49067 3.07866 0
M  V30 173 H 17.8791 4.49022 1.03519 0
M  V30 174 H 16.1941 4.0191 1.08892 0
M  V30 175 H 18.7911 3.70767 3.85274 0
M  V30 176 H 19.1341 2.00757 3.64695 0
M  V30 177 H 19.6671 3.16782 2.40611 0
M  V30 178 H 16.4061 6.16076 2.23897 0
M  V30 179 H 15.9261 4.92454 3.42417 0
M  V30 180 H 17.6051 5.51724 3.37949 0
M  V30 181 N 17.7372 -0.778329 1.37039 0
M  V30 182 C 18.9652 -1.56734 1.35063 0
M  V30 183 C 19.3802 -1.88686 -0.0655597 0
M  V30 184 O 18.7372 -1.5096 -1.02554 0
M  V30 185 C 18.7882 -2.88163 2.18276 0
M  V30 186 O 18.5092 -2.57583 3.54376 0
M  V30 187 C 20.0102 -3.82422 2.24206 0
M  V30 188 H 17.2302 -0.485778 0.462883 0
M  V30 189 H 19.7742 -0.965185 1.8029 0
M  V30 190 H 17.9292 -3.44818 1.76576 0
M  V30 191 H 18.3432 -3.41699 3.97922 0
M  V30 192 H 19.8172 -4.71667 2.86765 0
M  V30 193 H 20.2942 -4.21078 1.24861 0
M  V30 194 H 20.9002 -3.31697 2.6619 0
M  V30 195 N 19.2153 -1.21501 -1.00376 0
M  V30 196 C 20.1453 -0.999478 -2.11028 0
M  V30 197 C 21.1263 0.0759671 -1.6993 0
M  V30 198 O 22.3113 -0.0841106 -1.94018 0
M  V30 199 C 19.4413 -0.564709 -3.42678 0
M  V30 200 C 18.3953 -1.58486 -3.97576 0
M  V30 201 C 17.7213 -1.00628 -5.25146 0
M  V30 202 C 19.0213 -2.97204 -4.29496 0
M  V30 203 H 20.7153 -1.92495 -2.29317 0
M  V30 204 H 18.2613 -0.92693 -1.102 0
M  V30 205 H 20.2143 -0.401091 -4.19487 0
M  V30 206 H 18.9383 0.396411 -3.24185 0
M  V30 207 H 17.5973 -1.73606 -3.22888 0
M  V30 208 H 17.2453 -0.0368439 -5.02987 0
M  V30 209 H 16.9453 -1.68771 -5.62841 0
M  V30 210 H 18.4693 -0.854015 -6.04598 0
M  V30 211 H 19.8833 -2.8552 -4.97143 0
M  V30 212 H 18.2803 -3.62372 -4.78338 0
M  V30 213 H 19.3503 -3.47956 -3.3772 0
M  V30 214 N 20.6934 1.19889 -1.02296 0
M  V30 215 C 21.9184 1.9393 -0.735237 0
M  V30 216 C 22.3434 1.74639 0.698782 0
M  V30 217 O 21.7014 1.04481 1.48167 0
M  V30 218 C 21.7494 3.43916 -1.08417 0
M  V30 219 O 20.8534 4.11917 -0.199446 0
M  V30 220 H 20.1944 0.605645 -0.272196 0
M  V30 221 H 22.7244 1.52137 -1.36804 0
M  V30 222 H 22.7344 3.9456 -1.03856 0
M  V30 223 H 21.4094 3.5728 -2.12894 0
M  V30 224 H 19.9864 3.71666 -0.303136 0
M  V30 225 N 22.1715 0.800033 1.35784 0
M  V30 226 C 23.1015 0.220184 2.3246 0
M  V30 227 C 24.0825 -0.65073 1.57161 0
M  V30 228 O 25.2675 -0.582359 1.85263 0
M  V30 229 C 22.3975 -0.637353 3.41402 0
M  V30 230 C 21.3515 0.134531 4.27789 0
M  V30 231 C 20.6775 -0.844285 5.27992 0
M  V30 232 C 21.9775 1.32979 5.05088 0
M  V30 233 H 23.6715 1.02787 2.81203 0
M  V30 234 H 21.2175 0.495717 1.35199 0
M  V30 235 H 23.1705 -1.05302 4.08031 0
M  V30 236 H 21.8945 -1.47785 2.91251 0
M  V30 237 H 20.5535 0.531296 3.6273 0
M  V30 238 H 20.2015 -1.68011 4.74111 0
M  V30 239 H 19.9015 -0.332184 5.8666 0
M  V30 240 H 21.4255 -1.2583 5.97494 0
M  V30 241 H 22.8395 0.98934 5.64699 0
M  V30 242 H 21.2365 1.77593 5.7322 0
M  V30 243 H 22.3065 2.11978 4.36111 0
M  V30 244 N 23.6496 -1.47581 0.552962 0
M  V30 245 C 24.5796 -2.32762 -0.185451 0
M  V30 246 C 25.5606 -1.43527 -0.912905 0
M  V30 247 O 26.7456 -1.72388 -0.894201 0
M  V30 248 C 23.8756 -3.25219 -1.21859 0
M  V30 249 C 22.8296 -4.23661 -0.607864 0
M  V30 250 C 22.1556 -5.05413 -1.74533 0
M  V30 251 C 23.4556 -5.20481 0.435582 0
M  V30 252 H 25.1496 -2.94749 0.525684 0
M  V30 253 H 22.6956 -1.41738 0.254251 0
M  V30 254 H 24.6486 -3.8365 -1.7433 0
M  V30 255 H 23.3726 -2.61279 -1.95961 0
M  V30 256 H 22.0316 -3.66451 -0.104489 0
M  V30 257 H 21.6796 -4.3788 -2.47529 0
M  V30 258 H 21.3796 -5.72059 -1.34249 0
M  V30 259 H 22.9036 -5.66701 -2.27338 0
M  V30 260 H 24.3176 -5.733 -0.00290157 0
M  V30 261 H 22.7146 -5.95305 0.757067 0
M  V30 262 H 23.7846 -4.66217 1.33303 0
M  V30 263 N 25.1277 -0.289203 -1.54924 0
M  V30 264 C 26.0597 0.625583 -2.20497 0
M  V30 265 C 27.0727 1.10667 -1.19402 0
M  V30 266 O 28.2617 1.02615 -1.46056 0
M  V30 267 C 25.3617 1.86702 -2.82835 0
M  V30 268 C 24.5347 1.5304 -4.09753 0
M  V30 269 C 23.5937 2.62576 -4.56005 0
M  V30 270 O 22.6197 2.28167 -5.21468 0
M  V30 271 N 23.8217 3.92901 -4.27328 0
M  V30 272 H 26.5867 0.0642801 -2.99631 0
M  V30 273 H 24.1477 -0.110896 -1.6152 0
M  V30 274 H 26.1397 2.59304 -3.10715 0
M  V30 275 H 24.7097 2.33702 -2.07611 0
M  V30 276 H 23.9297 0.637564 -3.8901 0
M  V30 277 H 25.2177 1.28072 -4.92418 0
M  V30 278 H 24.6157 4.23671 -3.74859 0
M  V30 279 H 23.1727 4.61837 -4.59946 0
M  V30 280 N 26.6058 1.57591 -0.0167156 0
M  V30 281 C 27.8338 1.95575 0.675128 0
M  V30 282 C 28.2488 0.892542 1.6637 0
M  V30 283 O 27.6058 -0.126912 1.82058 0
M  V30 284 C 27.6568 3.33608 1.39239 0
M  V30 285 O 27.3778 4.3585 0.443444 0
M  V30 286 C 28.8788 3.86151 2.17721 0
M  V30 287 H 26.0988 0.644423 0.186978 0
M  V30 288 H 28.6428 2.0437 -0.0728 0
M  V30 289 H 26.7978 3.2607 2.09182 0
M  V30 290 H 27.2118 5.158 0.951358 0
M  V30 291 H 28.6858 4.85114 2.63379 0
M  V30 292 H 29.1628 3.19738 3.01105 0
M  V30 293 H 29.7688 3.96918 1.52761 0
M  V30 294 N 28.0839 -0.256276 1.55502 0
M  V30 295 C 29.3319 -0.983672 1.76545 0
M  V30 296 C 29.6529 -1.86206 0.578982 0
M  V30 297 O 28.9229 -1.91656 -0.405577 0
M  V30 298 H 27.5029 -0.366191 0.651086 0
M  V30 299 H 30.1649 -0.276479 1.92929 0
M  V30 300 H 29.2609 -1.61087 2.67315 0
M  V30 301 N 29.562 -1.4872 -0.521534 0
M  V30 302 C 30.492 -1.66771 -1.63431 0
M  V30 303 C 31.473 -0.516499 -1.62069 0
M  V30 304 O 32.658 -0.750013 -1.79132 0
M  V30 305 C 29.788 -1.71515 -3.01993 0
M  V30 306 C 28.742 -2.86222 -3.18216 0
M  V30 307 C 28.068 -2.76061 -4.57924 0
M  V30 308 C 29.368 -4.27419 -3.00184 0
M  V30 309 H 31.062 -2.59932 -1.48579 0
M  V30 310 H 28.608 -1.25089 -0.713358 0
M  V30 311 H 30.561 -1.82731 -3.7972 0
M  V30 312 H 29.285 -0.749393 -3.17886 0
M  V30 313 H 27.944 -2.74575 -2.42908 0
M  V30 314 H 27.592 -1.77437 -4.70665 0
M  V30 315 H 27.292 -3.53037 -4.69722 0
M  V30 316 H 28.816 -2.89256 -5.37739 0
M  V30 317 H 30.23 -4.39855 -3.67697 0
M  V30 318 H 28.627 -5.05458 -3.2347 0
M  V30 319 H 29.697 -4.43293 -1.96518 0
M  V30 320 N 31.0401 0.771051 -1.3745 0
M  V30 321 C 32.0031 1.86598 -1.33093 0
M  V30 322 C 33.0031 1.59076 -0.234845 0
M  V30 323 O 34.1931 1.67145 -0.490732 0
M  V30 324 C 31.3251 3.23747 -1.06773 0
M  V30 325 H 32.5181 1.91873 -2.30488 0
M  V30 326 H 30.0711 0.970876 -1.2249 0
M  V30 327 H 30.8061 3.24148 -0.099129 0
M  V30 328 H 30.5911 3.45115 -1.86112 0
M  V30 329 H 32.0811 4.03824 -1.06377 0
M  V30 330 N 32.5182 1.22032 0.997298 0
M  V30 331 C 33.4282 1.00271 2.12092 0
M  V30 332 C 34.4442 -0.047621 1.73935 0
M  V30 333 O 35.6202 0.144136 2.00884 0
M  V30 334 C 32.6852 0.578449 3.4184 0
M  V30 335 C 31.7462 1.70189 3.94125 0
M  V30 336 C 30.9792 1.29778 5.17681 0
M  V30 337 O 31.2022 0.174676 5.70132 0
M  V30 338 O 30.1362 2.11261 5.63607 0
M  V30 339 H 33.9622 1.94398 2.3333 0
M  V30 340 H 31.5472 1.00587 1.10465 0
M  V30 341 H 33.4292 0.351998 4.19927 0
M  V30 342 H 32.1042 -0.334019 3.21972 0
M  V30 343 H 31.0112 1.98282 3.1723 0
M  V30 344 H 32.3442 2.59206 4.18417 0
M  V30 345 N 33.9963 -1.19345 1.0293 0
M  V30 346 C 35.4073 -1.70725 0.755633 0
M  V30 347 C 35.7583 -1.82326 -0.724676 0
M  V30 348 O 34.8833 -1.49471 -1.56484 0
M  V30 349 C 35.4783 -3.10084 1.36503 0
M  V30 350 C 34.0373 -3.58723 1.13994 0
M  V30 351 C 33.1843 -2.35577 1.46283 0
M  V30 352 H 36.1353 -1.0418 1.19718 0
M  V30 353 H 36.1563 -3.72787 0.762217 0
M  V30 354 H 35.6683 -3.01609 2.44241 0
M  V30 355 H 33.7693 -3.72512 0.0807901 0
M  V30 356 H 33.8823 -4.42816 1.82894 0
M  V30 357 H 32.2463 -2.38935 0.88217 0
M  V30 358 H 33.0293 -2.29731 2.55105 0
M  V30 359 N 35.4744 -0.807222 -1.35358 0
M  V30 360 C 36.3844 -0.219594 -2.3357 0
M  V30 361 C 37.4004 0.637734 -1.61892 0
M  V30 362 O 38.5764 0.549336 -1.93763 0
M  V30 363 C 35.6414 0.62158 -3.41083 0
M  V30 364 C 34.7024 -0.256315 -4.28534 0
M  V30 365 C 33.9354 0.544807 -5.30912 0
M  V30 366 O 34.1584 1.77944 -5.41934 0
M  V30 367 O 33.0924 -0.0646478 -6.01865 0
M  V30 368 H 36.9184 -1.03208 -2.85625 0
M  V30 369 H 34.5034 -0.569025 -1.38139 0
M  V30 370 H 36.3854 1.10067 -4.06772 0
M  V30 371 H 35.0604 1.41165 -2.91297 0
M  V30 372 H 33.9674 -0.782559 -3.65823 0
M  V30 373 H 35.3004 -1.01034 -4.81719 0
M  V30 374 N 36.9525 1.47285 -0.560781 0
M  V30 375 C 38.3685 1.58065 -0.22081 0
M  V30 376 C 38.5685 1.55892 1.27671 0
M  V30 377 O 37.6245 1.46422 2.0571 0
M  V30 378 C 38.9375 2.88418 -0.850625 0
M  V30 379 C 40.4855 3.02009 -0.822184 0
M  V30 380 C 40.9605 4.35066 -1.43113 0
M  V30 381 N 42.4515 4.41711 -1.39448 0
M  V30 382 C 43.1865 5.43237 -1.83525 0
M  V30 383 N 42.6825 6.51555 -2.35474 0
M  V30 384 N 44.4755 5.34304 -1.74574 0
M  V30 385 H 36.6265 1.46941 -1.53369 0
M  V30 386 H 38.8895 0.699558 -0.639783 0
M  V30 387 H 38.5955 2.95755 -1.9032 0
M  V30 388 H 38.4695 3.75612 -0.345773 0
M  V30 389 H 40.8565 2.94266 0.221714 0
M  V30 390 H 40.9375 2.16347 -1.36483 0
M  V30 391 H 40.5815 4.43565 -2.47412 0
M  V30 392 H 40.5115 5.19465 -0.863899 0
M  V30 393 H 43.0025 3.64027 -1.01452 0
M  V30 394 H 43.3155 7.25203 -2.67021 0
M  V30 395 H 41.6605 6.52435 -2.39487 0
M  V30 396 H 44.8515 4.48581 -1.33763 0
M  V30 397 H 45.0245 6.13288 -2.09242 0
M  V30 398 N 38.4306 0.297415 1.54768 0
M  V30 399 C 39.6706 -0.313829 2.01976 0
M  V30 400 C 40.0346 -1.51366 1.1812 0
M  V30 401 O 41.2356 -2.19603 1.5501 0
M  V30 402 C 39.5066 -0.664964 3.51159 0
M  V30 403 S 41.0656 -1.25958 4.20333 0
M  V30 404 H 37.8836 -0.0965014 0.704421 0
M  V30 405 H 40.4856 0.424451 1.90837 0
M  V30 406 H 39.1896 0.21681 4.09827 0
M  V30 407 H 38.7206 -1.43413 3.66328 0
M  V30 408 H 40.7356 -2.54751 4.25813 0
M  V30 409 N 39.9087 -1.5758 0.0250728 0
M  V30 410 C 40.8567 -2.11125 -0.97617 0
M  V30 411 C 41.8507 -1.03689 -1.33959 0
M  V30 412 O 43.0567 -1.22128 -1.3223 0
M  V30 413 H 39.4317 -0.674468 -0.332561 0
M  V30 414 H 41.4027 -2.94194 -0.499223 0
M  V30 415 C 40.1517 -2.65017 -2.2508 0
M  V30 416 H 39.4747 -3.47333 -1.9799 0
M  V30 417 H 40.9147 -3.06133 -2.93357 0
M  V30 418 C 39.3737 -1.57574 -2.97779 0
M  V30 419 O 39.9037 -0.973203 -3.89733 0
M  V30 420 N 38.1097 -1.29716 -2.60043 0
M  V30 421 H 37.6567 -1.789 -1.85345 0
M  V30 422 H 37.6147 -0.58051 -3.08994 0
M  V30 423 N 41.3868 0.248026 -1.55636 0
M  V30 424 C 42.6338 0.976224 -1.77415 0
M  V30 425 C 42.9618 1.85361 -0.589193 0
M  V30 426 O 42.2168 1.90973 0.427529 0
M  V30 427 C 42.5158 1.86819 -3.04686 0
M  V30 428 C 42.1818 1.14625 -4.36087 0
M  V30 429 C 40.8438 0.946723 -4.71795 0
M  V30 430 C 43.1958 0.634463 -5.17324 0
M  V30 431 C 40.5238 0.223091 -5.86276 0
M  V30 432 C 42.8758 -0.0756959 -6.32555 0
M  V30 433 C 41.5398 -0.286711 -6.66884 0
M  V30 434 H 40.8098 0.357226 -0.649208 0
M  V30 435 H 43.4568 0.246415 -1.89908 0
M  V30 436 H 41.7618 2.66502 -2.872 0
M  V30 437 H 43.4588 2.43329 -3.18735 0
M  V30 438 H 40.0488 1.3117 -4.08035 0
M  V30 439 H 44.2328 0.77616 -4.90193 0
M  V30 440 H 39.4888 0.0491185 -6.1138 0
M  V30 441 H 43.6628 -0.479899 -6.94745 0
M  V30 442 H 41.2898 -0.849389 -7.5544 0
M  V30 443 N 42.8649 1.48995 0.513639 0
M  V30 444 C 44.0929 1.61531 1.29288 0
M  V30 445 C 44.5079 0.281801 1.86685 0
M  V30 446 O 43.8649 -0.731111 1.67215 0
M  V30 447 C 43.9159 2.67449 2.43215 0
M  V30 448 O 43.6369 3.95626 1.88179 0
M  V30 449 C 45.1379 2.90575 3.34785 0
M  V30 450 H 42.3579 0.544165 0.392588 0
M  V30 451 H 44.9019 1.9494 0.617956 0
M  V30 452 H 43.0569 2.36853 3.0656 0
M  V30 453 H 43.4709 4.53868 2.62876 0
M  V30 454 H 44.9449 3.68449 4.11035 0
M  V30 455 H 45.4219 2.00011 3.91015 0
M  V30 456 H 46.0279 3.22538 2.77218 0
M  V30 457 N 44.343 -0.763751 1.37857 0
M  V30 458 C 45.273 -1.89103 1.36975 0
M  V30 459 C 46.254 -1.68439 0.237152 0
M  V30 460 O 47.439 -1.8918 0.438713 0
M  V30 461 C 44.569 -3.26496 1.18395 0
M  V30 462 C 43.523 -3.61741 2.28751 0
M  V30 463 C 42.849 -4.97762 1.95286 0
M  V30 464 C 44.149 -3.67665 3.70972 0
M  V30 465 H 45.843 -1.90099 2.31307 0
M  V30 466 H 43.389 -0.91319 1.11341 0
M  V30 467 H 45.342 -4.05003 1.16406 0
M  V30 468 H 44.066 -3.25955 0.205215 0
M  V30 469 H 42.725 -2.85547 2.29909 0
M  V30 470 H 42.373 -4.93769 0.959221 0
M  V30 471 H 42.073 -5.22313 2.69189 0
M  V30 472 H 43.597 -5.7866 1.94898 0
M  V30 473 H 45.011 -4.36307 3.719 0
M  V30 474 H 43.408 -4.03718 4.43995 0
M  V30 475 H 44.478 -2.68134 4.0402 0
M  V30 476 N 45.8211 -1.22559 -0.990812 0
M  V30 477 C 46.7841 -0.998863 -2.0629 0
M  V30 478 C 47.7841 0.0354834 -1.60761 0
M  V30 479 O 48.9741 -0.203231 -1.7301 0
M  V30 480 C 46.1061 -0.509203 -3.37076 0
M  V30 481 H 47.2991 -1.95014 -2.27837 0
M  V30 482 H 44.8521 -1.04456 -1.16269 0
M  V30 483 H 45.5871 0.446335 -3.21214 0
M  V30 484 H 45.3721 -1.25547 -3.71457 0
M  V30 485 H 46.8621 -0.370888 -4.1595 0
M  V30 486 N 47.2992 1.18797 -1.03562 0
M  V30 487 C 48.2092 2.25913 -0.632505 0
M  V30 488 C 49.2252 1.70668 0.338882 0
M  V30 489 O 50.4012 2.00453 0.195076 0
M  V30 490 C 47.4662 3.467 0.00350942 0
M  V30 491 C 46.5272 4.17098 -1.01624 0
M  V30 492 C 45.7602 5.32119 -0.410478 0
M  V30 493 O 45.9832 5.64976 0.784725 0
M  V30 494 O 44.9172 5.9107 -1.13667 0
M  V30 495 H 48.7432 2.62648 -1.52478 0
M  V30 496 H 46.3282 1.25781 -0.806195 0
M  V30 497 H 48.2102 4.19878 0.35781 0
M  V30 498 H 46.8852 3.11798 0.869686 0
M  V30 499 H 45.7922 3.4601 -1.42224 0
M  V30 500 H 47.1252 4.55987 -1.85301 0
M  V30 501 N 48.7773 0.814389 1.34928 0
M  V30 502 C 50.0023 0.410097 2.03305 0
M  V30 503 C 50.4273 -0.973464 1.60951 0
M  V30 504 O 49.7853 -1.63185 0.789964 0
M  V30 505 C 49.8333 0.51049 3.56968 0
M  V30 506 O 48.9373 -0.473035 4.09678 0
M  V30 507 H 48.2783 0.170088 0.641846 0
M  V30 508 H 50.8083 1.10244 1.72358 0
M  V30 509 H 50.8183 0.383135 4.06197 0
M  V30 510 H 49.4933 1.51963 3.87144 0
M  V30 511 H 48.0703 -0.305272 3.71648 0
M  V30 512 N 50.2554 -1.46986 0.568584 0
M  V30 513 C 51.2024 -2.30153 -0.172707 0
M  V30 514 C 52.1724 -1.39759 -0.897586 0
M  V30 515 O 53.3574 -1.68716 -0.891044 0
M  V30 516 C 50.4974 -3.23952 -1.1895 0
M  V30 517 C 49.6104 -4.29441 -0.469517 0
M  V30 518 C 48.7454 -5.1038 -1.47259 0
M  V30 519 C 47.7844 -6.07632 -0.738225 0
M  V30 520 N 46.9214 -6.8149 -1.68868 0
M  V30 521 H 51.7614 -2.93019 0.542596 0
M  V30 522 H 49.2984 -1.44422 0.279401 0
M  V30 523 H 51.2564 -3.76767 -1.79173 0
M  V30 524 H 49.8864 -2.62926 -1.87269 0
M  V30 525 H 48.9384 -3.79594 0.247467 0
M  V30 526 H 50.2504 -4.98689 0.105241 0
M  V30 527 H 49.4044 -5.67402 -2.14803 0
M  V30 528 H 48.1434 -4.4106 -2.08128 0
M  V30 529 H 47.1484 -5.49778 -0.0489293 0
M  V30 530 H 48.3734 -6.78966 -0.135129 0
M  V30 531 H 46.3194 -6.14891 -2.28573 0
M  V30 532 H 46.2364 -7.46948 -1.16636 0
M  V30 533 H 47.5044 -7.43078 -2.3549 0
M  V30 534 N 51.7335 -0.305618 -1.54608 0
M  V30 535 C 52.6965 0.555591 -2.22364 0
M  V30 536 C 53.6965 1.05768 -1.21119 0
M  V30 537 O 54.8865 0.952972 -1.45822 0
M  V30 538 C 52.0185 1.76974 -2.91364 0
M  V30 539 H 53.2115 -0.0364572 -2.99878 0
M  V30 540 H 50.7645 -0.0565007 -1.56198 0
M  V30 541 H 51.4995 2.40151 -2.17941 0
M  V30 542 H 51.2845 1.41732 -3.65588 0
M  V30 543 H 52.7745 2.38148 -3.43038 0
M  V30 544 N 53.2116 1.57565 -0.0334293 0
M  V30 545 C 54.4366 1.96689 0.657895 0
M  V30 546 C 54.8616 0.910057 1.64619 0
M  V30 547 O 54.2196 -0.128598 1.80843 0
M  V30 548 C 54.2676 3.34905 1.33683 0
M  V30 549 O 53.3716 3.31574 2.45219 0
M  V30 550 H 52.7126 0.641205 0.172489 0
M  V30 551 H 55.2426 2.04372 -0.0965621 0
M  V30 552 H 55.2526 3.71234 1.69262 0
M  V30 553 H 53.9276 4.11366 0.612411 0
M  V30 554 H 52.5046 3.06968 2.11719 0
M  V30 555 N 54.6897 -0.239769 1.55765 0
M  V30 556 C 55.9147 -0.988373 1.82335 0
M  V30 557 C 56.3397 -1.77886 0.611421 0
M  V30 558 O 55.6977 -1.75889 -0.439639 0
M  V30 559 C 55.7457 -1.89627 3.06715 0
M  V30 560 O 54.8497 -2.98904 2.84131 0
M  V30 561 H 54.1907 -0.280858 0.601677 0
M  V30 562 H 56.7207 -0.258597 2.02959 0
M  V30 563 H 56.7307 -2.30957 3.36338 0
M  V30 564 H 55.4057 -1.31511 3.9456 0
M  V30 565 H 53.9827 -2.61651 2.65694 0
M  V30 566 N 56.1678 -1.49265 -0.50573 0
M  V30 567 C 57.1178 -1.6198 -1.60457 0
M  V30 568 C 58.1018 -0.47568 -1.53708 0
M  V30 569 O 59.2938 -0.728392 -1.61318 0
M  V30 570 C 56.4228 -1.68526 -2.99089 0
M  V30 571 C 55.5088 -2.885 -3.10852 0
M  V30 572 N 55.8998 -4.12635 -2.92517 0
M  V30 573 C 54.1978 -2.86338 -3.41945 0
M  V30 574 C 54.8988 -4.93258 -3.08337 0
M  V30 575 N 53.8748 -4.26533 -3.37003 0
M  V30 576 H 57.6768 -2.55681 -1.44928 0
M  V30 577 H 55.1908 -1.45972 -0.711752 0
M  V30 578 H 57.1878 -1.75732 -3.78053 0
M  V30 579 H 55.8478 -0.759584 -3.1569 0
M  V30 580 H 56.8588 -4.42689 -2.68787 0
M  V30 581 H 53.5358 -2.03129 -3.64753 0
M  V30 582 H 54.9258 -6.01856 -2.98695 0
M  V30 583 N 57.6459 0.756429 -1.3826 0
M  V30 584 C 58.8709 1.55077 -1.37717 0
M  V30 585 C 59.2959 1.88073 0.03164 0
M  V30 586 O 58.6539 1.50364 1.01293 0
M  V30 587 C 58.7019 2.8283 -2.23695 0
M  V30 588 O 57.8059 3.77862 -1.6521 0
M  V30 589 H 57.1469 0.469152 -0.469885 0
M  V30 590 H 59.6769 0.935019 -1.81985 0
M  V30 591 H 59.6869 3.31783 -2.37453 0
M  V30 592 H 58.3619 2.58144 -3.2609 0
M  V30 593 H 56.9389 3.36555 -1.60578 0
M  V30 594 N 59.124 1.23083 0.984299 0
M  V30 595 C 60.37 1.06214 1.72761 0
M  V30 596 C 60.703 -0.400584 1.90024 0
M  V30 597 O 59.978 -1.29672 1.44967 0
M  V30 598 C 60.261 1.78375 3.12817 0
M  V30 599 C 60.114 3.32296 3.03149 0
M  V30 600 C 61.433 1.54309 4.12161 0
M  V30 601 H 58.552 0.387251 0.627061 0
M  V30 602 H 61.194 1.51536 1.14616 0
M  V30 603 H 59.344 1.39848 3.62457 0
M  V30 604 H 61.016 3.8032 2.61064 0
M  V30 605 H 59.259 3.6153 2.39747 0
M  V30 606 H 59.93 3.77972 4.02295 0
M  V30 607 H 62.406 1.87791 3.71314 0
M  V30 608 H 61.282 2.07281 5.08258 0
M  V30 609 H 61.543 0.477572 4.39513 0
M  V30 610 N 60.6021 -1.18246 1.0419 0
M  V30 611 C 61.8271 -1.92736 0.765996 0
M  V30 612 C 62.2521 -1.75728 -0.67091 0
M  V30 613 O 61.6101 -1.06825 -1.46486 0
M  V30 614 C 61.6581 -3.42148 1.13875 0
M  V30 615 O 60.7621 -4.11548 0.264954 0
M  V30 616 H 60.1031 -0.601238 0.281797 0
M  V30 617 H 62.6331 -1.49942 1.39207 0
M  V30 618 H 62.6431 -3.92858 1.1012 0
M  V30 619 H 61.3181 -3.53848 2.18551 0
M  V30 620 H 59.8951 -3.71137 0.362226 0
M  V30 621 N 62.0802 -0.821533 -1.34494 0
M  V30 622 C 63.3292 -0.405355 -1.97585 0
M  V30 623 C 63.6422 1.03677 -1.65863 0
M  V30 624 O 64.8482 1.55679 -2.22433 0
M  V30 625 C 63.3042 -0.673861 -3.53535 0
M  V30 626 C 62.9122 -2.12951 -3.94152 0
M  V30 627 C 64.6562 -0.32378 -4.23263 0
M  V30 628 C 62.5632 -2.34298 -5.43009 0
M  V30 629 H 61.4932 -0.147836 -0.739365 0
M  V30 630 H 64.1442 -1.00769 -1.53355 0
M  V30 631 H 62.5262 -0.00137554 -3.96 0
M  V30 632 H 63.7002 -2.84104 -3.62797 0
M  V30 633 H 62.0152 -2.44089 -3.37356 0
M  V30 634 H 64.6122 -0.461126 -5.32708 0
M  V30 635 H 64.9552 0.731586 -4.09821 0
M  V30 636 H 65.4882 -0.950786 -3.8627 0
M  V30 637 H 62.2272 -3.38335 -5.61435 0
M  V30 638 H 61.7472 -1.67687 -5.75883 0
M  V30 639 H 63.4262 -2.16588 -6.09671 0
M  V30 640 N 63.5583 1.46682 -0.576371 0
M  V30 641 C 64.4903 2.28341 0.198231 0
M  V30 642 C 65.5033 1.38141 0.861453 0
M  V30 643 O 66.6923 1.62797 0.732082 0
M  V30 644 C 63.7923 3.12986 1.29972 0
M  V30 645 C 62.9653 4.31271 0.729639 0
M  V30 646 C 62.0243 4.97363 1.71803 0
M  V30 647 O 61.0503 5.55156 1.25658 0
M  V30 648 N 62.2523 4.93796 3.05198 0
M  V30 649 H 65.0173 2.9546 -0.502324 0
M  V30 650 H 62.5783 1.56525 -0.413715 0
M  V30 651 H 64.5703 3.54066 1.96008 0
M  V30 652 H 63.1403 2.47984 1.90323 0
M  V30 653 H 62.3603 3.94052 -0.108012 0
M  V30 654 H 63.6483 5.07739 0.328438 0
M  V30 655 H 63.0463 4.48077 3.45317 0
M  V30 656 H 61.6033 5.38837 3.6674 0
M  V30 657 N 65.0364 0.313813 1.54444 0
M  V30 658 C 66.2824 -0.284918 2.01395 0
M  V30 659 C 66.6374 -1.50537 1.19818 0
M  V30 660 O 65.9304 -1.89692 0.269748 0
M  V30 661 C 66.1244 -0.680386 3.50864 0
M  V30 662 C 65.9534 0.500198 4.4691 0
M  V30 663 C 64.7234 0.996248 4.95382 0
M  V30 664 C 66.9214 1.34928 4.96285 0
M  V30 665 N 64.9034 2.14226 5.75309 0
M  V30 666 C 66.2744 2.3426 5.7404 0
M  V30 667 C 68.3294 1.37818 4.78446 0
M  V30 668 C 67.0324 3.36272 6.35856 0
M  V30 669 C 69.0584 2.38695 5.4109 0
M  V30 670 C 68.4204 3.36755 6.18688 0
M  V30 671 H 64.5194 -0.0683689 0.779006 0
M  V30 672 H 67.1034 0.44664 1.89508 0
M  V30 673 H 65.2744 -1.38109 3.63016 0
M  V30 674 H 67.0064 -1.25975 3.84594 0
M  V30 675 H 63.7614 0.56912 4.70168 0
M  V30 676 H 64.1854 2.72005 6.19953 0
M  V30 677 H 68.8274 0.633747 4.18023 0
M  V30 678 H 66.5454 4.11627 6.95405 0
M  V30 679 H 70.1314 2.41721 5.29209 0
M  V30 680 H 69.0114 4.13535 6.66302 0
M  V30 681 N 66.5145 -1.57545 0.0417849 0
M  V30 682 C 67.9305 -1.56467 -0.314704 0
M  V30 683 C 68.1305 -1.04859 -1.72066 0
M  V30 684 O 67.1865 -0.700983 -2.42575 0
M  V30 685 C 68.4995 -3.00317 -0.15174 0
M  V30 686 C 70.0475 -3.12201 -0.223553 0
M  V30 687 C 70.5225 -4.57913 -0.0892295 0
M  V30 688 N 72.0135 -4.6297 -0.145808 0
M  V30 689 C 72.7485 -5.73362 -0.0658459 0
M  V30 690 N 72.2445 -6.92769 0.0659282 0
M  V30 691 N 74.0375 -5.6197 -0.12075 0
M  V30 692 H 66.1885 -1.89416 0.961014 0
M  V30 693 H 68.4515 -0.871862 0.372237 0
M  V30 694 H 68.1575 -3.42073 0.817254 0
M  V30 695 H 68.0315 -3.65892 -0.916692 0
M  V30 696 H 70.4185 -2.70349 -1.18301 0
M  V30 697 H 70.4995 -2.49323 0.571994 0
M  V30 698 H 70.1435 -5.00448 0.866867 0
M  V30 699 H 70.0735 -5.18786 -0.903802 0
M  V30 700 H 72.5645 -3.7709 -0.247286 0
M  V30 701 H 72.8775 -7.72707 0.119905 0
M  V30 702 H 71.2225 -6.94927 0.100885 0
M  V30 703 H 74.4135 -4.67572 -0.222187 0
M  V30 704 H 74.5865 -6.47977 -0.0549735 0
M  V30 705 N 67.9926 0.231505 -1.5589 0
M  V30 706 C 69.2416 0.955346 -1.7764 0
M  V30 707 C 69.5546 1.85893 -0.608546 0
M  V30 708 O 70.7606 2.62067 -0.70943 0
M  V30 709 C 69.2166 1.74886 -3.14552 0
M  V30 710 C 68.8246 0.891915 -4.39032 0
M  V30 711 C 70.5686 2.46452 -3.45633 0
M  V30 712 C 68.4756 1.68221 -5.66971 0
M  V30 713 H 67.4056 0.360446 -0.662265 0
M  V30 714 H 70.0566 0.209516 -1.823 0
M  V30 715 H 68.4386 2.53723 -3.04041 0
M  V30 716 H 69.6126 0.144793 -4.60572 0
M  V30 717 H 67.9276 0.288863 -4.15397 0
M  V30 718 H 70.5246 3.06061 -4.38441 0
M  V30 719 H 70.8676 3.18841 -2.67668 0
M  V30 720 H 71.4006 1.74613 -3.57428 0
M  V30 721 H 68.1396 1.00178 -6.478 0
M  V30 722 H 67.6596 2.4042 -5.49507 0
M  V30 723 H 69.3386 2.24544 -6.06786 0
M  V30 724 N 69.4707 1.49531 0.497807 0
M  V30 725 C 70.4007 1.6935 1.60757 0
M  V30 726 C 71.3817 0.542218 1.61227 0
M  V30 727 O 72.5667 0.778417 1.77917 0
M  V30 728 C 69.6967 1.76298 2.99226 0
M  V30 729 C 68.6507 2.91248 3.13622 0
M  V30 730 C 67.9767 2.83312 4.53474 0
M  V30 731 C 69.2767 4.3214 2.93346 0
M  V30 732 H 70.9707 2.62263 1.44425 0
M  V30 733 H 68.5167 1.26208 0.693367 0
M  V30 734 H 70.4697 1.88749 3.76765 0
M  V30 735 H 69.1937 0.799871 3.16654 0
M  V30 736 H 67.8527 2.78404 2.38509 0
M  V30 737 H 67.5007 1.84902 4.67782 0
M  V30 738 H 67.2007 3.60465 4.64046 0
M  V30 739 H 68.7247 2.97775 5.33069 0
M  V30 740 H 70.1387 4.45649 3.60652 0
M  V30 741 H 68.5357 5.1054 3.15387 0
M  V30 742 H 69.6057 4.46363 1.89441 0
M  V30 743 N 70.9488 -0.749086 1.3866 0
M  V30 744 C 72.1968 -1.50535 1.34847 0
M  V30 745 C 72.5178 -1.94909 -0.0595016 0
M  V30 746 O 71.7878 -1.67973 -1.00806 0
M  V30 747 H 70.3678 -0.558395 0.49619 0
M  V30 748 H 73.0298 -0.890165 1.73384 0
M  V30 749 H 72.1258 -2.39413 2.00219 0
M  V30 750 N 72.4269 -1.23603 -0.977757 0
M  V30 751 C 73.6519 -1.09735 -1.75991 0
M  V30 752 C 74.0769 0.346858 -1.84874 0
M  V30 753 O 73.4349 1.25093 -1.3123 0
M  V30 754 C 73.4829 -1.73051 -3.16363 0
M  V30 755 O 72.5869 -0.994452 -4.0023 0
M  V30 756 H 71.9279 -0.384476 -0.541364 0
M  V30 757 H 74.4579 -1.6371 -1.2272 0
M  V30 758 H 74.4679 -1.78398 -3.66931 0
M  V30 759 H 73.1429 -2.78137 -3.09213 0
M  V30 760 H 71.7199 -1.01812 -3.58732 0
M  V30 761 N 73.905 1.17692 -1.04816 0
M  V30 762 C 75.316 1.69501 -0.782698 0
M  V30 763 C 75.667 1.83456 0.695577 0
M  V30 764 O 74.792 1.51942 1.54086 0
M  V30 765 C 75.387 3.07874 -1.41419 0
M  V30 766 C 73.946 3.56864 -1.19686 0
M  V30 767 C 73.093 2.3322 -1.50012 0
M  V30 768 H 76.044 1.02262 -1.2136 0
M  V30 769 H 76.065 3.71528 -0.821428 0
M  V30 770 H 75.577 2.97685 -2.49009 0
M  V30 771 H 73.678 3.72337 -0.140043 0
M  V30 772 H 73.791 4.39851 -1.89916 0
M  V30 773 H 72.155 2.37501 -0.920071 0
M  V30 774 H 72.938 2.25644 -2.58727 0
M  V30 775 N 75.3831 0.828654 1.34056 0
M  V30 776 C 76.6231 0.425394 1.99924 0
M  V30 777 C 76.9871 -0.994294 1.64249 0
M  V30 778 O 78.1881 -1.50074 2.23005 0
M  V30 779 C 76.4591 0.628071 3.51838 0
M  V30 780 S 78.0181 0.318511 4.37642 0
M  V30 781 H 74.8361 0.160465 0.692656 0
M  V30 782 H 77.4381 1.07572 1.63244 0
M  V30 783 H 76.1421 1.66089 3.7529 0
M  V30 784 H 75.6731 -0.0367799 3.93383 0
M  V30 785 H 77.6881 -0.865632 4.88591 0
M  V30 786 N 76.8612 -1.46375 0.584142 0
M  V30 787 C 77.8092 -2.32042 -0.161047 0
M  V30 788 C 78.8032 -1.44569 -0.882966 0
M  V30 789 O 80.0092 -1.61186 -0.801191 0
M  V30 790 H 76.3842 -0.748659 -0.0708033 0
M  V30 791 H 78.3552 -2.92704 0.580269 0
M  V30 792 C 77.1042 -3.27762 -1.1605 0
M  V30 793 H 76.4272 -3.95051 -0.614419 0
M  V30 794 H 77.8672 -3.90481 -1.65228 0
M  V30 795 C 76.3262 -2.53218 -2.22221 0
M  V30 796 O 76.8562 -2.29628 -3.29597 0
M  V30 797 N 75.0622 -2.13756 -1.96868 0
M  V30 798 H 74.6092 -2.33142 -1.09557 0
M  V30 799 H 74.5672 -1.642 -2.68115 0
M  V30 800 N 78.3393 -0.321999 -1.54275 0
M  V30 801 C 79.5863 0.281044 -2.0054 0
M  V30 802 C 79.9143 1.52265 -1.21019 0
M  V30 803 O 79.1693 1.93687 -0.279982 0
M  V30 804 C 79.4683 0.661769 -3.5122 0
M  V30 805 C 79.1343 -0.480482 -4.48333 0
M  V30 806 C 77.7963 -0.794005 -4.74604 0
M  V30 807 C 80.1483 -1.24783 -5.06042 0
M  V30 808 C 77.4763 -1.87763 -5.55844 0
M  V30 809 C 79.8283 -2.32153 -5.88462 0
M  V30 810 C 78.4923 -2.64089 -6.13036 0
M  V30 811 H 77.7623 0.102841 -0.733829 0
M  V30 812 H 80.4093 -0.445453 -1.86247 0
M  V30 813 H 78.7143 1.46867 -3.63232 0
M  V30 814 H 80.4113 1.13989 -3.84457 0
M  V30 815 H 77.0013 -0.226039 -4.28004 0
M  V30 816 H 81.1853 -1.01887 -4.85729 0
M  V30 817 H 76.4413 -2.12954 -5.73115 0
M  V30 818 H 80.6153 -2.92057 -6.32199 0
M  V30 819 H 78.2423 -3.48185 -6.75775 0
M  V30 820 N 79.8174 1.5752 -0.0501392 0
M  V30 821 C 81.0424 1.97376 0.636997 0
M  V30 822 C 81.4674 0.927466 1.63645 0
M  V30 823 O 80.8254 -0.10941 1.8097 0
M  V30 824 C 80.8734 3.36304 1.30123 0
M  V30 825 O 79.9774 3.34156 2.41689 0
M  V30 826 H 79.3184 0.642998 0.165679 0
M  V30 827 H 81.8484 2.04258 -0.118233 0
M  V30 828 H 81.8584 3.73008 1.65315 0
M  V30 829 H 80.5334 4.11993 0.568746 0
M  V30 830 H 79.1104 3.09196 2.08451 0
M  V30 831 N 81.2955 -0.223234 1.56011 0
M  V30 832 C 82.2255 -1.27988 1.95298 0
M  V30 833 C 83.2065 -1.48976 0.820979 0
M  V30 834 O 84.3915 -1.61188 1.08315 0
M  V30 835 C 81.5215 -2.63 2.26822 0
M  V30 836 C 80.4755 -2.56671 3.42497 0
M  V30 837 C 79.8015 -3.95697 3.59622 0
M  V30 838 C 81.1015 -2.11601 4.77517 0
M  V30 839 H 82.7955 -0.953525 2.8381 0
M  V30 840 H 80.3415 -0.457244 1.36548 0
M  V30 841 H 82.2945 -3.37077 2.52898 0
M  V30 842 H 81.0185 -2.9732 1.35161 0
M  V30 843 H 79.6775 -1.85051 3.16467 0
M  V30 844 H 79.3255 -4.27322 2.6534 0
M  V30 845 H 79.0255 -3.92345 4.37424 0
M  V30 846 H 80.5495 -4.71438 3.88044 0
M  V30 847 H 81.9635 -2.7542 5.02809 0
M  V30 848 H 80.3605 -2.19311 5.5859 0
M  V30 849 H 81.4305 -1.06824 4.72987 0
M  V30 850 N 82.7736 -1.49793 -0.48987 0
M  V30 851 C 84.0226 -1.59085 -1.23995 0
M  V30 852 C 84.3356 -0.287907 -1.9347 0
M  V30 853 O 85.5416 -0.259506 -2.70257 0
M  V30 854 C 83.9976 -2.80736 -2.252 0
M  V30 855 C 83.6056 -4.17833 -1.61614 0
M  V30 856 C 85.3496 -2.99364 -3.00967 0
M  V30 857 C 83.2566 -5.30693 -2.60996 0
M  V30 858 H 82.1866 -0.592372 -0.466488 0
M  V30 859 H 84.8376 -1.76197 -0.51252 0
M  V30 860 H 83.2196 -2.57142 -3.01154 0
M  V30 861 H 84.3936 -4.51608 -0.915774 0
M  V30 862 H 82.7086 -4.04656 -0.981977 0
M  V30 863 H 85.3056 -3.80851 -3.75308 0
M  V30 864 H 85.6486 -2.10356 -3.59244 0
M  V30 865 H 86.1816 -3.2305 -2.32128 0
M  V30 866 H 82.9206 -6.21796 -2.07485 0
M  V30 867 H 82.4406 -5.01359 -3.2924 0
M  V30 868 H 84.1196 -5.6049 -3.23202 0
M  V30 869 N 84.2517 0.741722 -1.39055 0
M  V30 870 C 85.4817 1.52876 -1.3897 0
M  V30 871 C 85.8897 1.8919 0.0193266 0
M  V30 872 O 85.2327 1.54138 0.999356 0
M  V30 873 C 85.2947 2.84929 -2.19216 0
M  V30 874 C 84.9587 2.71086 -3.67915 0
M  V30 875 C 85.9557 2.40084 -4.61146 0
M  V30 876 C 83.6407 2.88168 -4.11418 0
M  V30 877 C 85.6347 2.26335 -5.95862 0
M  V30 878 C 83.3217 2.74037 -5.46211 0
M  V30 879 C 84.3197 2.43166 -6.38247 0
M  V30 880 O 84.0077 2.29115 -7.70559 0
M  V30 881 H 83.7397 0.479252 -0.476753 0
M  V30 882 H 86.2937 0.924751 -1.83405 0
M  V30 883 H 84.5237 3.47564 -1.69518 0
M  V30 884 H 86.2127 3.46509 -2.11392 0
M  V30 885 H 86.9787 2.26545 -4.28838 0
M  V30 886 H 82.8577 3.11191 -3.40119 0
M  V30 887 H 86.4017 2.0216 -6.67665 0
M  V30 888 H 82.2987 2.87153 -5.78112 0
M  V30 889 H 83.0667 2.44237 -7.81211 0
M  V30 890 N 85.7298 1.2412 0.971189 0
M  V30 891 C 86.9548 1.10667 1.75407 0
M  V30 892 C 87.3798 -0.337048 1.85056 0
M  V30 893 O 86.7378 -1.24396 1.31892 0
M  V30 894 C 86.7858 1.74726 3.15441 0
M  V30 895 O 85.8898 1.01566 3.99697 0
M  V30 896 H 85.2308 0.387341 0.539317 0
M  V30 897 H 87.7608 1.64358 1.2185 0
M  V30 898 H 87.7708 1.80341 3.6598 0
M  V30 899 H 86.4458 2.79773 3.07734 0
M  V30 900 H 85.0228 1.03713 3.58187 0
M  V30 901 N 87.2079 -1.17134 1.05439 0
M  V30 902 C 88.4329 -1.91913 0.786396 0
M  V30 903 C 88.8579 -1.7643 -0.652234 0
M  V30 904 O 88.2159 -1.08372 -1.45345 0
M  V30 905 C 88.2639 -3.40921 1.17497 0
M  V30 906 O 87.3679 -4.11244 0.308589 0
M  V30 907 H 86.7089 -0.598215 0.288158 0
M  V30 908 H 89.2389 -1.48457 1.4079 0
M  V30 909 H 89.2489 -3.91668 1.14281 0
M  V30 910 H 87.9239 -3.5151 2.22292 0
M  V30 911 H 86.5009 -3.70731 0.40157 0
M  V30 912 N 88.686 -0.835752 -1.33615 0
M  V30 913 C 89.963 -0.352017 -1.92406 0
M  V30 914 C 90.343 1.16225 -1.76224 0
M  V30 915 O 89.691 1.97526 -1.14873 0
M  V30 916 C 89.901 -0.795485 -3.39813 0
M  V30 917 C 91.249 -0.801703 -4.16963 0
M  V30 918 O 92.273 -0.738889 -3.48452 0
M  V30 919 O 91.132 -0.886607 -5.3926 0
M  V30 920 H 88.226 -0.0989641 -0.821057 0
M  V30 921 H 90.772 -0.921397 -1.42507 0
M  V30 922 H 89.544 -1.83795 -3.45449 0
M  V30 923 H 89.167 -0.202505 -3.97084 0
M  V30 924 N 90.1641 1.46063 -0.591896 0
M  V30 925 C 91.3921 2.06717 -0.0868936 0
M  V30 926 C 91.8071 1.43916 1.22203 0
M  V30 927 O 91.1641 0.547698 1.74088 0
M  V30 928 C 91.2151 3.6142 0.0758725 0
M  V30 929 O 90.9361 4.21874 -1.18126 0
M  V30 930 C 92.4371 4.39025 0.61416 0
M  V30 931 H 89.6571 0.668162 -0.0616518 0
M  V30 932 H 92.2011 1.8755 -0.815175 0
M  V30 933 H 90.3561 3.79983 0.754413 0
M  V30 934 H 90.7701 5.14861 -1.00092 0
M  V30 935 H 92.2441 5.4783 0.677193 0
M  V30 936 H 92.7211 4.07708 1.63312 0
M  V30 937 H 93.3271 4.2529 -0.0298142 0
M  V30 938 N 91.6422 0.330177 1.54103 0
M  V30 939 C 92.5722 -0.525353 2.27513 0
M  V30 940 C 93.5532 -1.11383 1.2856 0
M  V30 941 O 94.7382 -1.13773 1.57383 0
M  V30 942 C 91.8682 -1.6831 3.03791 0
M  V30 943 C 90.8222 -1.2236 4.10137 0
M  V30 944 C 90.1482 -2.46882 4.74293 0
M  V30 945 C 91.4482 -0.333697 5.21233 0
M  V30 946 H 93.1422 0.087013 2.99274 0
M  V30 947 H 90.6882 0.0432893 1.43935 0
M  V30 948 H 92.6412 -2.28795 3.5388 0
M  V30 949 H 91.3652 -2.32216 2.29659 0
M  V30 950 H 90.0242 -0.64165 3.60941 0
M  V30 951 H 89.6722 -3.09165 3.96769 0
M  V30 952 H 89.3722 -2.16825 5.46133 0
M  V30 953 H 90.8962 -3.08117 5.27159 0
M  V30 954 H 92.3102 -0.845013 5.67038 0
M  V30 955 H 90.7072 -0.125612 5.99969 0
M  V30 956 H 91.7772 0.633724 4.80741 0
M  V30 957 N 93.1203 -1.57491 0.0584922 0
M  V30 958 C 94.3683 -1.92597 -0.612436 0
M  V30 959 C 94.6893 -0.938162 -1.70949 0
M  V30 960 O 93.9593 0.0158301 -1.95894 0
M  V30 961 H 92.5393 -0.710964 -0.229214 0
M  V30 962 H 95.2013 -1.94571 0.113218 0
M  V30 963 H 94.2973 -2.94038 -1.04633 0
M  V30 964 N 94.5984 0.214957 -1.56127 0
M  V30 965 C 95.5614 1.24997 -1.92116 0
M  V30 966 C 96.5614 1.39467 -0.800344 0
M  V30 967 O 97.7514 1.37619 -1.06802 0
M  V30 968 C 94.8834 2.62271 -2.17777 0
M  V30 969 H 96.0764 0.942875 -2.84693 0
M  V30 970 H 93.6294 0.455654 -1.49511 0
M  V30 971 H 94.3644 2.98068 -1.27773 0
M  V30 972 H 94.1494 2.53143 -2.99434 0
M  V30 973 H 95.6394 3.36946 -2.46693 0
M  V30 974 N 96.0765 1.50051 0.48192 0
M  V30 975 C 97.0395 1.67584 1.5636 0
M  V30 976 C 98.0395 0.546894 1.51214 0
M  V30 977 O 99.2295 0.813725 1.54026 0
M  V30 978 C 96.3615 1.691 2.96003 0
M  V30 979 H 97.5545 2.64078 1.42136 0
M  V30 980 H 95.1075 1.39369 0.707533 0
M  V30 981 H 95.8425 0.742589 3.15684 0
M  V30 982 H 95.6275 2.51105 3.01146 0
M  V30 983 H 97.1175 1.84656 3.74556 0
M  V30 984 N 97.5546 -0.734337 1.39446 0
M  V30 985 C 98.4846 -1.86155 1.40955 0
M  V30 986 C 99.4656 -1.67898 0.272827 0
M  V30 987 O 100.651 -1.88207 0.478743 0
M  V30 988 C 97.7806 -3.23912 1.25294 0
M  V30 989 C 96.7346 -3.56808 2.36373 0
M  V30 990 C 96.0606 -4.93508 2.058 0
M  V30 991 C 97.3606 -3.59713 3.78687 0
M  V30 992 H 99.0546 -1.8515 2.35287 0
M  V30 993 H 96.6006 -0.889367 1.13253 0
M  V30 994 H 98.5536 -4.02443 1.2497 0
M  V30 995 H 97.2776 -3.25446 0.274308 0
M  V30 996 H 95.9366 -2.80606 2.35914 0
M  V30 997 H 95.5846 -4.91623 1.06374 0
M  V30 998 H 95.2846 -5.16486 2.80208 0
M  V30 999 H 96.8086 -5.74396 2.07128 0
M  V30 1000 H 98.2226 -4.2832 3.81071 0
M  V30 1001 H 96.6196 -3.94209 4.52459 0
M  V30 1002 H 97.6896 -2.59504 4.09617 0
M  V30 1003 N 99.0327 -1.24633 -0.964593 0
M  V30 1004 C 100.273 -1.09981 -1.72289 0
M  V30 1005 C 100.637 0.354792 -1.88693 0
M  V30 1006 O 101.838 0.62289 -2.61483 0
M  V30 1007 C 100.109 -1.82262 -3.07434 0
M  V30 1008 S 101.668 -1.83379 -3.98645 0
M  V30 1009 H 98.4857 -0.393292 -0.59232 0
M  V30 1010 H 101.088 -1.58009 -1.15123 0
M  V30 1011 H 99.7917 -2.87206 -2.93157 0
M  V30 1012 H 99.3227 -1.3458 -3.69664 0
M  V30 1013 H 101.338 -0.903691 -4.87901 0
M  V30 1014 N 100.511 1.16574 -1.06058 0
M  V30 1015 C 101.922 1.68662 -0.800632 0
M  V30 1016 C 102.273 1.84184 0.67608 0
M  V30 1017 O 101.398 1.53568 1.52466 0
M  V30 1018 C 101.993 3.06356 -1.44676 0
M  V30 1019 C 100.552 3.55575 -1.23465 0
M  V30 1020 C 99.6988 2.31616 -1.52477 0
M  V30 1021 H 102.65 1.00969 -1.22438 0
M  V30 1022 H 102.671 3.70636 -0.860788 0
M  V30 1023 H 102.183 2.95027 -2.52152 0
M  V30 1024 H 100.284 3.72167 -0.179527 0
M  V30 1025 H 100.397 4.37812 -1.94571 0
M  V30 1026 H 98.7608 2.36512 -0.945209 0
M  V30 1027 H 99.5438 2.22887 -2.61106 0
M  V30 1028 N 101.989 0.842826 1.3317 0
M  V30 1029 C 103.217 0.454055 2.01856 0
M  V30 1030 C 103.632 -0.94587 1.63397 0
M  V30 1031 O 102.989 -1.61534 0.849302 0
M  V30 1032 C 103.04 0.569715 3.56982 0
M  V30 1033 O 102.761 1.91448 3.94055 0
M  V30 1034 C 104.262 0.178412 4.42941 0
M  V30 1035 H 101.482 0.17979 0.646465 0
M  V30 1036 H 104.026 1.1365 1.70012 0
M  V30 1037 H 102.181 -0.0648587 3.87346 0
M  V30 1038 H 102.595 1.90282 4.88767 0
M  V30 1039 H 104.069 0.310376 5.51127 0
M  V30 1040 H 104.546 -0.880056 4.30293 0
M  V30 1041 H 105.152 0.787579 4.17944 0
M  V30 1042 N 103.467 -1.45747 0.599634 0
M  V30 1043 C 104.714 -2.02292 0.0917284 0
M  V30 1044 C 105.042 -1.46906 -1.27472 0
M  V30 1045 O 104.297 -0.630652 -1.8526 0
M  V30 1046 C 104.596 -3.57399 -0.00602758 0
M  V30 1047 C 104.262 -4.31902 1.29503 0
M  V30 1048 C 102.924 -4.51974 1.65144 0
M  V30 1049 C 105.276 -4.74551 2.15525 0
M  V30 1050 C 102.604 -5.11949 2.86574 0
M  V30 1051 C 104.956 -5.35868 3.36196 0
M  V30 1052 C 103.62 -5.54165 3.72099 0
M  V30 1053 H 102.89 -0.740239 0.0335658 0
M  V30 1054 H 105.537 -1.7491 0.779661 0
M  V30 1055 H 103.842 -3.84014 -0.777183 0
M  V30 1056 H 105.539 -3.98846 -0.415038 0
M  V30 1057 H 102.129 -4.16588 1.00761 0
M  V30 1058 H 106.313 -4.58784 1.8929 0
M  V30 1059 H 101.569 -5.24305 3.14507 0
M  V30 1060 H 105.743 -5.6787 4.03109 0
M  V30 1061 H 103.37 -6.00406 4.6628 0
M  V30 1062 N 104.945 -0.338344 -1.53925 0
M  V30 1063 C 106.361 0.0137736 -1.59594 0
M  V30 1064 C 106.561 1.49186 -1.35447 0
M  V30 1065 O 105.617 2.24987 -1.14616 0
M  V30 1066 C 106.93 -0.41773 -2.97784 0
M  V30 1067 C 108.478 -0.369633 -3.1081 0
M  V30 1068 C 108.953 -0.776524 -4.51369 0
M  V30 1069 N 110.444 -0.730506 -4.57403 0
M  V30 1070 C 111.179 -1.01736 -5.64303 0
M  V30 1071 N 110.675 -1.3721 -6.79077 0
M  V30 1072 N 112.468 -0.941942 -5.54151 0
M  V30 1073 H 104.619 -1.3012 -1.67876 0
M  V30 1074 H 106.882 -0.530082 -0.78595 0
M  V30 1075 H 106.588 -1.44811 -3.20504 0
M  V30 1076 H 106.462 0.209729 -3.76616 0
M  V30 1077 H 108.849 0.651568 -2.87817 0
M  V30 1078 H 108.93 -1.03223 -2.34049 0
M  V30 1079 H 108.574 -1.79571 -4.75096 0
M  V30 1080 H 108.504 -0.0914649 -5.26521 0
M  V30 1081 H 110.995 -0.468783 -3.74981 0
M  V30 1082 H 111.308 -1.57597 -7.5656 0
M  V30 1083 H 109.653 -1.4105 -6.80536 0
M  V30 1084 H 112.844 -0.664184 -4.63364 0
M  V30 1085 H 113.017 -1.16884 -6.37371 0
M  V30 1086 N 106.423 1.57458 -0.0668435 0
M  V30 1087 C 107.672 1.92477 0.602947 0
M  V30 1088 C 107.985 0.948419 1.71068 0
M  V30 1089 O 109.191 1.19124 2.43971 0
M  V30 1090 C 107.647 3.41903 1.12383 0
M  V30 1091 C 107.255 4.47975 0.04737 0
M  V30 1092 C 108.999 3.85931 1.76797 0
M  V30 1093 C 106.906 5.88529 0.582022 0
M  V30 1094 H 105.836 0.718387 0.22899 0
M  V30 1095 H 108.487 1.82978 -0.138276 0
M  V30 1096 H 106.869 3.46459 1.91787 0
M  V30 1097 H 108.043 4.55029 -0.726978 0
M  V30 1098 H 106.358 4.13384 -0.500243 0
M  V30 1099 H 108.955 4.88322 2.17821 0
M  V30 1100 H 109.298 3.23029 2.62599 0
M  V30 1101 H 109.831 3.83958 1.04024 0
M  V30 1102 H 106.57 6.55065 -0.238721 0
M  V30 1103 H 106.09 5.85004 1.324 0
M  V30 1104 H 107.769 6.38258 1.05999 0
M  V30 1105 N 107.901 -0.206675 1.56239 0
M  V30 1106 C 109.178 -0.954051 1.70755 0
M  V30 1107 C 109.558 -2.01841 0.618353 0
M  V30 1108 O 108.906 -2.25444 -0.372434 0
M  V30 1109 C 109.116 -1.551 3.12642 0
M  V30 1110 C 110.464 -2.03757 3.72516 0
M  V30 1111 O 111.488 -1.64965 3.15698 0
M  V30 1112 O 110.347 -2.75103 4.72208 0
M  V30 1113 H 107.441 -0.446636 0.696021 0
M  V30 1114 H 109.987 -0.197283 1.68549 0
M  V30 1115 H 108.759 -0.783212 3.83382 0
M  V30 1116 H 108.382 -2.37291 3.19028 0
M  V30 1117 N 109.379 -1.50304 -0.473955 0
M  V30 1118 C 110.327 -1.69482 -1.59307 0
M  V30 1119 C 111.321 -0.560669 -1.59853 0
M  V30 1120 O 112.527 -0.741087 -1.64036 0
M  V30 1121 H 108.902 -0.534892 -0.528578 0
M  V30 1122 H 110.873 -2.63364 -1.40293 0
M  V30 1123 C 109.622 -1.80354 -2.97267 0
M  V30 1124 H 108.945 -2.67012 -2.97564 0
M  V30 1125 H 110.385 -1.97798 -3.75036 0
M  V30 1126 C 108.844 -0.55448 -3.32306 0
M  V30 1127 O 109.374 0.307661 -4.0052 0
M  V30 1128 N 107.58 -0.409354 -2.87702 0
M  V30 1129 H 107.127 -1.11196 -2.32364 0
M  V30 1130 H 107.085 0.425223 -3.11511 0
M  V30 1131 N 110.857 0.726932 -1.39834 0
M  V30 1132 C 112.085 1.51613 -1.40787 0
M  V30 1133 C 112.5 1.88799 -0.00451505 0
M  V30 1134 O 111.857 1.54662 0.968809 0
M  V30 1135 C 111.908 2.79863 -2.28821 0
M  V30 1136 O 111.629 2.44253 -3.63692 0
M  V30 1137 C 113.13 3.73837 -2.38245 0
M  V30 1138 H 110.35 0.468264 -0.480593 0
M  V30 1139 H 112.894 0.897607 -1.83748 0
M  V30 1140 H 111.049 3.38027 -1.89252 0
M  V30 1141 H 111.463 3.26695 -4.1033 0
M  V30 1142 H 112.937 4.60699 -3.04073 0
M  V30 1143 H 113.414 4.16153 -1.40403 0
M  V30 1144 H 114.02 3.21589 -2.78317 0
M  V30 1145 N 112.336 1.25143 0.95797 0
M  V30 1146 C 113.564 1.12424 1.73691 0
M  V30 1147 C 113.979 -0.322304 1.86029 0
M  V30 1148 O 113.336 -1.22186 1.35561 0
M  V30 1149 C 113.387 1.76933 3.15241 0
M  V30 1150 O 113.108 3.15932 3.03511 0
M  V30 1151 C 114.609 1.6995 4.09429 0
M  V30 1152 H 111.829 0.3923 0.544373 0
M  V30 1153 H 114.373 1.6544 1.20207 0
M  V30 1154 H 112.528 1.27895 3.6568 0
M  V30 1155 H 112.942 3.47598 3.9278 0
M  V30 1156 H 114.416 2.19753 5.06372 0
M  V30 1157 H 114.893 0.662619 4.34173 0
M  V30 1158 H 115.499 2.18461 3.64904 0
M  V30 1159 N 113.814 -1.1601 1.06675 0
M  V30 1160 C 115.044 -1.90251 0.805497 0
M  V30 1161 C 115.452 -1.77891 -0.64431 0
M  V30 1162 O 114.795 -1.12383 -1.45313 0
M  V30 1163 C 114.857 -3.41419 1.12576 0
M  V30 1164 C 114.521 -3.77564 2.57477 0
M  V30 1165 C 115.518 -3.79161 3.55715 0
M  V30 1166 C 113.203 -4.08079 2.92877 0
M  V30 1167 C 115.197 -4.10767 4.8739 0
M  V30 1168 C 112.884 -4.39351 4.24751 0
M  V30 1169 C 113.882 -4.40675 5.21818 0
M  V30 1170 O 113.57 -4.71202 6.51325 0
M  V30 1171 H 113.302 -0.610018 0.291297 0
M  V30 1172 H 115.856 -1.47958 1.4247 0
M  V30 1173 H 114.086 -3.84079 0.449503 0
M  V30 1174 H 115.775 -3.9694 0.84814 0
M  V30 1175 H 116.541 -3.55693 3.29708 0
M  V30 1176 H 112.42 -4.06211 2.17976 0
M  V30 1177 H 115.964 -4.11715 5.63148 0
M  V30 1178 H 111.861 -4.62285 4.50514 0
M  V30 1179 H 112.629 -4.88996 6.56373 0
M  V30 1180 N 115.292 -0.849877 -1.32721 0
M  V30 1181 C 116.54 -0.450032 -1.97026 0
M  V30 1182 C 116.861 0.996604 -1.67609 0
M  V30 1183 O 116.131 1.6958 -0.980786 0
M  V30 1184 H 114.711 -0.163426 -0.728904 0
M  V30 1185 H 117.373 -1.08526 -1.6189 0
M  V30 1186 H 116.469 -0.591146 -3.0645 0
M  V30 1187 N 116.77 1.45427 -0.607355 0
M  V30 1188 C 118.01 2.04128 -0.105458 0
M  V30 1189 C 118.374 1.46555 1.24039 0
M  V30 1190 O 119.575 1.96608 1.833 0
M  V30 1191 C 117.846 3.57338 -0.0665324 0
M  V30 1192 S 119.405 4.37201 0.374207 0
M  V30 1193 H 116.223 0.709278 -0.0494575 0
M  V30 1194 H 118.825 1.78139 -0.805404 0
M  V30 1195 H 117.529 3.96752 -1.04957 0
M  V30 1196 H 117.06 3.87902 0.655415 0
M  V30 1197 H 119.075 4.6888 1.62377 0
M  V30 1198 N 118.248 0.346503 1.53744 0
M  V30 1199 C 119.196 -0.52422 2.26616 0
M  V30 1200 C 120.19 -1.09948 1.28871 0
M  V30 1201 O 121.396 -1.04488 1.46568 0
M  V30 1202 H 117.771 -0.187743 0.728187 0
M  V30 1203 H 119.742 0.11239 2.98188 0
M  V30 1204 C 118.491 -1.66186 3.05414 0
M  V30 1205 H 117.814 -1.22848 3.80458 0
M  V30 1206 H 119.254 -2.24622 3.59612 0
M  V30 1207 C 117.713 -2.59302 2.1509 0
M  V30 1208 O 118.243 -3.61628 1.74895 0
M  V30 1209 N 116.449 -2.28055 1.8011 0
M  V30 1210 H 115.996 -1.44883 2.12994 0
M  V30 1211 H 115.954 -2.90615 1.19958 0
M  V30 1212 N 119.726 -1.57421 0.075193 0
M  V30 1213 C 120.656 -2.15942 -0.888324 0
M  V30 1214 C 121.637 -1.08737 -1.30806 0
M  V30 1215 O 122.822 -1.36787 -1.37851 0
M  V30 1216 C 119.952 -2.72379 -2.1547 0
M  V30 1217 C 118.906 -3.8478 -1.87425 0
M  V30 1218 C 118.232 -4.27834 -3.20721 0
M  V30 1219 C 119.532 -5.08869 -1.17684 0
M  V30 1220 H 121.226 -2.96705 -0.400799 0
M  V30 1221 H 118.772 -1.42723 -0.191342 0
M  V30 1222 H 120.725 -3.11965 -2.83295 0
M  V30 1223 H 119.449 -1.88841 -2.6647 0
M  V30 1224 H 118.108 -3.45703 -1.22004 0
M  V30 1225 H 117.756 -3.41214 -3.6957 0
M  V30 1226 H 117.456 -5.03605 -3.02746 0
M  V30 1227 H 118.98 -4.70039 -3.89738 0
M  V30 1228 H 120.394 -5.4575 -1.75584 0
M  V30 1229 H 118.791 -5.8994 -1.09956 0
M  V30 1230 H 119.861 -4.84648 -0.156453 0
M  V30 1231 N 121.204 0.198386 -1.56346 0
M  V30 1232 C 122.136 1.26987 -1.90806 0
M  V30 1233 C 123.149 1.41877 -0.798419 0
M  V30 1234 O 124.338 1.42362 -1.07682 0
M  V30 1235 C 121.438 2.64246 -2.12196 0
M  V30 1236 C 120.611 2.71007 -3.43328 0
M  V30 1237 C 119.67 3.89439 -3.5387 0
M  V30 1238 O 118.696 3.76695 -4.26719 0
M  V30 1239 N 119.898 5.04752 -2.86715 0
M  V30 1240 H 122.663 0.977433 -2.83313 0
M  V30 1241 H 120.224 0.388322 -1.57174 0
M  V30 1242 H 122.216 3.41896 -2.1654 0
M  V30 1243 H 120.786 2.85992 -1.26204 0
M  V30 1244 H 120.006 1.79657 -3.50881 0
M  V30 1245 H 121.294 2.72512 -4.29668 0
M  V30 1246 H 120.692 5.18004 -2.2735 0
M  V30 1247 H 119.249 5.8036 -2.96691 0
M  V30 1248 N 122.682 1.50554 0.465978 0
M  V30 1249 C 123.959 1.5232 1.22712 0
M  V30 1250 C 124.339 0.270807 2.09356 0
M  V30 1251 O 123.687 -0.745541 2.15995 0
M  V30 1252 C 123.897 2.82175 2.05374 0
M  V30 1253 C 125.245 3.33033 2.6339 0
M  V30 1254 O 126.269 2.83531 2.15612 0
M  V30 1255 O 125.128 4.19336 3.50456 0
M  V30 1256 H 122.222 0.611183 0.557122 0
M  V30 1257 H 124.768 1.62847 0.477381 0
M  V30 1258 H 123.54 3.64797 1.41558 0
M  V30 1259 H 123.163 2.74675 2.87471 0
M  V30 1260 N 124.16 -0.719506 1.40217 0
M  V30 1261 C 125.09 -1.8465 1.42922 0
M  V30 1262 C 126.071 -1.67599 0.29062 0
M  V30 1263 O 127.256 -1.87688 0.498677 0
M  V30 1264 C 124.386 -3.22565 1.28722 0
M  V30 1265 C 123.34 -3.54281 2.40144 0
M  V30 1266 C 122.666 -4.91298 2.11023 0
M  V30 1267 C 123.966 -3.55676 3.82481 0
M  V30 1268 H 125.66 -1.82644 2.37237 0
M  V30 1269 H 123.206 -0.877305 1.1419 0
M  V30 1270 H 125.159 -4.01095 1.29232 0
M  V30 1271 H 123.883 -3.25137 0.308811 0
M  V30 1272 H 122.542 -2.78088 2.38877 0
M  V30 1273 H 122.19 -4.90468 1.11582 0
M  V30 1274 H 121.89 -5.13485 2.8567 0
M  V30 1275 H 123.414 -5.72166 2.13209 0
M  V30 1276 H 124.828 -4.24254 3.85592 0
M  V30 1277 H 123.225 -3.89388 4.56614 0
M  V30 1278 H 124.295 -2.55144 4.12346 0
M  V30 1279 N 125.638 -1.25649 -0.95132 0
M  V30 1280 C 126.57 -1.02112 -2.05197 0
M  V30 1281 C 127.583 0.0150571 -1.62793 0
M  V30 1282 O 128.772 -0.223874 -1.77091 0
M  V30 1283 C 125.872 -0.522361 -3.3485 0
M  V30 1284 C 125.045 -1.62546 -4.06076 0
M  V30 1285 C 124.104 -1.12649 -5.14001 0
M  V30 1286 O 123.13 -1.82156 -5.39266 0
M  V30 1287 N 124.332 0.03047 -5.80492 0
M  V30 1288 H 127.097 -1.96885 -2.25957 0
M  V30 1289 H 124.658 -1.16899 -1.1201 0
M  V30 1290 H 126.65 -0.172961 -4.0433 0
M  V30 1291 H 125.22 0.33151 -3.10837 0
M  V30 1292 H 124.44 -2.14628 -3.30649 0
M  V30 1293 H 125.728 -2.36644 -4.50419 0
M  V30 1294 H 125.126 0.611169 -5.62389 0
M  V30 1295 H 123.683 0.320875 -6.5101 0
M  V30 1296 N 127.117 1.15442 -1.07289 0
M  V30 1297 C 128.08 2.18358 -0.696591 0
M  V30 1298 C 129.08 1.58637 0.262837 0
M  V30 1299 O 130.27 1.74145 0.0438809 0
M  V30 1300 C 127.402 3.4089 -0.0266151 0
M  V30 1301 H 128.595 2.53162 -1.60776 0
M  V30 1302 H 126.148 1.29893 -0.869342 0
M  V30 1303 H 126.883 3.11653 0.896822 0
M  V30 1304 H 126.668 3.85495 -0.716657 0
M  V30 1305 H 128.158 4.17009 0.222028 0
M  V30 1306 N 128.595 0.856903 1.32268 0
M  V30 1307 C 129.843 0.460474 1.96784 0
M  V30 1308 C 130.164 -0.987701 1.68135 0
M  V30 1309 O 129.434 -1.69058 0.989765 0
M  V30 1310 H 128.014 0.167289 0.728027 0
M  V30 1311 H 130.676 1.09383 1.61312 0
M  V30 1312 H 129.772 0.60739 3.06133 0
M  V30 1313 N 130.073 -1.45103 0.615059 0
M  V30 1314 C 131.301 -2.06553 0.11977 0
M  V30 1315 C 131.716 -1.45842 -1.19898 0
M  V30 1316 O 131.073 -0.575325 -1.73194 0
M  V30 1317 C 131.124 -3.61495 -0.018364 0
M  V30 1318 O 130.845 -4.19942 1.24822 0
M  V30 1319 C 132.346 -4.39947 -0.544237 0
M  V30 1320 H 129.566 -0.667096 0.0722739 0
M  V30 1321 H 132.11 -1.8623 0.84491 0
M  V30 1322 H 130.265 -3.81135 -0.693865 0
M  V30 1323 H 130.679 -5.13204 1.0827 0
M  V30 1324 H 132.153 -5.48838 -0.589953 0
M  V30 1325 H 132.63 -4.10255 -1.56805 0
M  V30 1326 H 133.236 -4.25188 0.0974703 0
M  V30 1327 N 131.551 -0.354651 -1.53558 0
M  V30 1328 C 132.8 0.239504 -2.00273 0
M  V30 1329 C 133.113 1.50759 -1.24623 0
M  V30 1330 O 134.319 2.17968 -1.61871 0
M  V30 1331 C 132.775 0.477341 -3.5672 0
M  V30 1332 C 132.383 -0.775488 -4.41237 0
M  V30 1333 C 134.127 1.02975 -4.11821 0
M  V30 1334 C 132.034 -0.507838 -5.89216 0
M  V30 1335 H 130.964 0.0932743 -0.748208 0
M  V30 1336 H 133.615 -0.471701 -1.77334 0
M  V30 1337 H 131.997 1.24953 -3.7577 0
M  V30 1338 H 133.171 -1.54963 -4.33962 0
M  V30 1339 H 131.486 -1.25033 -3.97185 0
M  V30 1340 H 134.083 1.24513 -5.2 0
M  V30 1341 H 134.426 1.98862 -3.65731 0
M  V30 1342 H 134.959 0.317994 -3.96527 0
M  V30 1343 H 131.698 -1.43674 -6.39561 0
M  V30 1344 H 131.218 0.228011 -5.99366 0
M  V30 1345 H 132.897 -0.129238 -6.46871 0
M  V30 1346 N 133.029 1.57378 -0.0835403 0
M  V30 1347 C 134.259 1.97975 0.590713 0
M  V30 1348 C 134.667 0.961083 1.62972 0
M  V30 1349 O 134.01 -0.0590879 1.83605 0
M  V30 1350 C 134.072 3.34915 1.3066 0
M  V30 1351 C 133.736 4.55069 0.419698 0
M  V30 1352 C 134.733 5.18868 -0.32749 0
M  V30 1353 C 132.418 5.0114 0.341137 0
M  V30 1354 C 134.412 6.27098 -1.14134 0
M  V30 1355 C 132.099 6.0924 -0.476374 0
M  V30 1356 C 133.097 6.72083 -1.21627 0
M  V30 1357 O 132.785 7.781 -2.02028 0
M  V30 1358 H 132.517 0.655818 0.163947 0
M  V30 1359 H 135.071 2.04807 -0.156021 0
M  V30 1360 H 133.301 3.24733 2.09966 0
M  V30 1361 H 134.99 3.60037 1.87424 0
M  V30 1362 H 135.756 4.84211 -0.276459 0
M  V30 1363 H 131.635 4.51996 0.90668 0
M  V30 1364 H 135.179 6.7608 -1.71935 0
M  V30 1365 H 131.076 6.43329 -0.528927 0
M  V30 1366 H 131.844 7.95034 -1.94586 0
M  V30 1367 N 134.507 -0.190092 1.56449 0
M  V30 1368 C 135.455 -1.25501 1.95837 0
M  V30 1369 C 136.449 -1.4685 0.844485 0
M  V30 1370 O 137.655 -1.47651 1.02952 0
M  V30 1371 H 134.03 -0.421447 0.622805 0
M  V30 1372 H 136.001 -0.895821 2.84636 0
M  V30 1373 C 134.75 -2.59124 2.31841 0
M  V30 1374 H 134.073 -2.43514 3.17082 0
M  V30 1375 H 135.513 -3.32371 2.6326 0
M  V30 1376 C 133.972 -3.16488 1.15486 0
M  V30 1377 O 134.502 -3.99365 0.432535 0
M  V30 1378 N 132.708 -2.75305 0.930349 0
M  V30 1379 H 132.255 -2.08013 1.51948 0
M  V30 1380 H 132.213 -3.14024 0.153634 0
M  V30 1381 N 135.985 -1.50799 -0.457987 0
M  V30 1382 C 137.232 -1.62442 -1.20908 0
M  V30 1383 C 137.56 -0.330865 -1.91665 0
M  V30 1384 O 136.815 0.68401 -1.83357 0
M  V30 1385 C 137.114 -2.76358 -2.2663 0
M  V30 1386 C 136.78 -4.16378 -1.73033 0
M  V30 1387 C 135.442 -4.54473 -1.58138 0
M  V30 1388 C 137.794 -5.03836 -1.33413 0
M  V30 1389 C 135.122 -5.77754 -1.02065 0
M  V30 1390 C 137.474 -6.27676 -0.78778 0
M  V30 1391 C 136.138 -6.64562 -0.625561 0
M  V30 1392 H 135.408 -0.594417 -0.442435 0
M  V30 1393 H 138.055 -1.84772 -0.503136 0
M  V30 1394 H 136.36 -2.48167 -3.03184 0
M  V30 1395 H 138.057 -2.82568 -2.84528 0
M  V30 1396 H 134.647 -3.86331 -1.85598 0
M  V30 1397 H 138.831 -4.75026 -1.4375 0
M  V30 1398 H 134.087 -6.04997 -0.882547 0
M  V30 1399 H 138.261 -6.94797 -0.472177 0
M  V30 1400 H 135.888 -7.59965 -0.188926 0
M  V30 1401 N 137.463 0.71206 -1.40597 0
M  V30 1402 C 138.879 1.02058 -1.22704 0
M  V30 1403 C 139.079 2.01228 -0.104729 0
M  V30 1404 O 138.135 2.4674 0.53624 0
M  V30 1405 C 139.448 1.56094 -2.57012 0
M  V30 1406 C 140.996 1.6806 -2.64054 0
M  V30 1407 C 141.471 2.25501 -3.9864 0
M  V30 1408 N 142.962 2.32882 -4.004 0
M  V30 1409 C 143.697 2.78317 -5.01325 0
M  V30 1410 N 143.193 3.23478 -6.12645 0
M  V30 1411 N 144.986 2.77733 -4.88693 0
M  V30 1412 H 137.137 0.0547896 -2.12329 0
M  V30 1413 H 139.4 0.0869027 -0.944008 0
M  V30 1414 H 139.106 0.906865 -3.39807 0
M  V30 1415 H 138.98 2.54564 -2.78347 0
M  V30 1416 H 141.367 2.32583 -1.81629 0
M  V30 1417 H 141.448 0.681802 -2.46546 0
M  V30 1418 H 141.092 1.61598 -4.81506 0
M  V30 1419 H 141.022 3.26102 -4.13479 0
M  V30 1420 H 143.513 2.00991 -3.20017 0
M  V30 1421 H 143.826 3.56725 -6.85542 0
M  V30 1422 H 142.171 3.21429 -6.16205 0
M  V30 1423 H 145.362 2.4179 -4.00818 0
M  V30 1424 H 145.535 3.12826 -5.67489 0
M  V30 1425 N 138.941 1.26152 0.944643 0
M  V30 1426 C 140.19 1.10883 1.68487 0
M  V30 1427 C 140.503 -0.348153 1.92477 0
M  V30 1428 O 141.709 -0.621459 2.64292 0
M  V30 1429 C 140.165 1.93624 3.03377 0
M  V30 1430 C 139.773 3.43875 2.87148 0
M  V30 1431 C 141.517 1.86954 3.81115 0
M  V30 1432 C 139.424 4.18875 4.1749 0
M  V30 1433 H 138.354 0.41135 0.631907 0
M  V30 1434 H 141.005 1.50433 1.05082 0
M  V30 1435 H 139.387 1.46904 3.67743 0
M  V30 1436 H 140.561 3.98338 2.31653 0
M  V30 1437 H 138.876 3.51744 2.22856 0
M  V30 1438 H 141.473 2.40275 4.77673 0
M  V30 1439 H 141.816 0.839518 4.07747 0
M  V30 1440 H 142.349 2.31477 3.23517 0
M  V30 1441 H 139.088 5.22332 3.96043 0
M  V30 1442 H 138.608 3.69193 4.72712 0
M  V30 1443 H 140.287 4.27134 4.85968 0
M  V30 1444 N 140.419 -1.14872 1.07899 0
M  V30 1445 C 141.668 -1.85135 0.800499 0
M  V30 1446 C 141.981 -1.83547 -0.676014 0
M  V30 1447 O 143.187 -2.49548 -1.06948 0
M  V30 1448 C 141.643 -3.3231 1.38197 0
M  V30 1449 C 141.251 -3.42329 2.8899 0
M  V30 1450 C 142.995 -4.0772 1.18174 0
M  V30 1451 C 140.902 -4.83684 3.403 0
M  V30 1452 H 139.832 -0.693563 0.29578 0
M  V30 1453 H 142.483 -1.29532 1.29976 0
M  V30 1454 H 140.865 -3.87618 0.810431 0
M  V30 1455 H 142.039 -2.97097 3.52236 0
M  V30 1456 H 140.354 -2.80369 3.07867 0
M  V30 1457 H 142.951 -5.12049 1.5398 0
M  V30 1458 H 143.294 -4.16124 0.12117 0
M  V30 1459 H 143.827 -3.58696 1.71994 0
M  V30 1460 H 140.566 -4.80465 4.45907 0
M  V30 1461 H 140.086 -5.29474 2.81811 0
M  V30 1462 H 141.765 -5.52558 3.36584 0
M  V30 1463 N 141.898 -0.863906 -1.31812 0
M  V30 1464 C 143.123 -0.48527 -2.01643 0
M  V30 1465 C 143.548 0.913058 -1.64453 0
M  V30 1466 O 142.906 1.6014 -0.849985 0
M  V30 1467 C 142.954 -0.642625 -3.54828 0
M  V30 1468 O 142.058 0.320659 -4.11151 0
M  V30 1469 H 141.399 -0.193793 -0.635091 0
M  V30 1470 H 143.929 -1.16565 -1.68148 0
M  V30 1471 H 143.939 -0.533628 -4.04495 0
M  V30 1472 H 142.614 -1.66227 -3.81237 0
M  V30 1473 H 141.191 0.167126 -3.72525 0
M  V30 1474 N 143.376 1.44774 -0.622745 0
M  V30 1475 C 144.306 2.33382 0.0741861 0
M  V30 1476 C 145.287 1.47719 0.843387 0
M  V30 1477 O 146.472 1.76458 0.810934 0
M  V30 1478 C 143.602 3.30663 1.06204 0
M  V30 1479 C 142.556 4.26079 0.405037 0
M  V30 1480 C 141.882 5.13165 1.5022 0
M  V30 1481 C 143.182 5.1781 -0.683414 0
M  V30 1482 H 144.876 2.91905 -0.665713 0
M  V30 1483 H 142.422 1.40363 -0.321587 0
M  V30 1484 H 144.375 3.9153 1.55827 0
M  V30 1485 H 143.099 2.70331 1.83272 0
M  V30 1486 H 141.758 3.66532 -0.0704683 0
M  V30 1487 H 141.406 4.49191 2.26355 0
M  V30 1488 H 141.106 5.77812 1.06803 0
M  V30 1489 H 142.63 5.76902 2.00041 0
M  V30 1490 H 144.044 5.72661 -0.270631 0
M  V30 1491 H 142.441 5.91015 -1.04023 0
M  V30 1492 H 143.511 4.59326 -1.55395 0
M  V30 1493 N 144.854 0.36279 1.53368 0
M  V30 1494 C 146.131 -0.284021 1.93527 0
M  V30 1495 C 146.511 -1.66628 1.29608 0
M  V30 1496 O 145.859 -2.23942 0.45413 0
M  V30 1497 C 146.069 -0.337028 3.47369 0
M  V30 1498 C 147.417 -0.578708 4.20638 0
M  V30 1499 O 148.441 -0.418352 3.53735 0
M  V30 1500 O 147.3 -0.89074 5.39192 0
M  V30 1501 H 144.394 -0.169743 0.809393 0
M  V30 1502 H 146.94 0.41537 1.64538 0
M  V30 1503 H 145.712 0.632217 3.86159 0
M  V30 1504 H 145.335 -1.08243 3.82582 0
M  V30 1505 N 146.332 -1.57332 0.0918853 0
M  V30 1506 C 147.242 -2.17368 -0.882505 0
M  V30 1507 C 148.258 -1.14226 -1.31257 0
M  V30 1508 O 149.434 -1.46582 -1.38115 0
M  V30 1509 C 146.499 -2.73962 -2.12476 0
M  V30 1510 C 145.56 -3.92048 -1.7492 0
M  V30 1511 C 144.793 -4.45933 -2.93223 0
M  V30 1512 O 145.016 -3.98764 -4.07852 0
M  V30 1513 O 143.95 -5.36999 -2.71875 0
M  V30 1514 H 147.776 -3.01031 -0.40172 0
M  V30 1515 H 145.361 -1.48813 -0.132291 0
M  V30 1516 H 147.243 -3.10147 -2.85283 0
M  V30 1517 H 145.918 -1.93347 -2.59613 0
M  V30 1518 H 144.825 -3.6068 -0.993025 0
M  V30 1519 H 146.158 -4.74017 -1.32548 0
M  V30 1520 N 147.81 0.181792 -1.56548 0
M  V30 1521 C 148.72 1.24538 -1.98815 0
M  V30 1522 C 149.736 1.49045 -0.897861 0
M  V30 1523 O 150.912 1.61399 -1.20467 0
M  V30 1524 C 147.977 2.56683 -2.33055 0
M  V30 1525 C 147.038 2.40131 -3.55859 0
M  V30 1526 C 146.271 3.65975 -3.88456 0
M  V30 1527 O 146.494 4.70711 -3.22161 0
M  V30 1528 O 145.428 3.6071 -4.81842 0
M  V30 1529 H 149.254 0.916647 -2.89536 0
M  V30 1530 H 146.839 0.387842 -1.44278 0
M  V30 1531 H 148.721 3.34655 -2.56094 0
M  V30 1532 H 147.396 2.89157 -1.45498 0
M  V30 1533 H 146.303 1.60226 -3.38051 0
M  V30 1534 H 147.636 2.12585 -4.43924 0
M  V30 1535 N 149.288 1.51039 0.449983 0
M  V30 1536 C 150.704 1.38934 0.785462 0
M  V30 1537 C 150.904 0.461817 1.96136 0
M  V30 1538 O 149.96 -0.0877389 2.52348 0
M  V30 1539 C 151.273 2.80724 1.0777 0
M  V30 1540 C 152.821 2.89787 1.1829 0
M  V30 1541 C 153.296 4.32457 1.50815 0
M  V30 1542 N 154.787 4.35505 1.57764 0
M  V30 1543 C 155.522 5.42914 1.84477 0
M  V30 1544 N 155.018 6.60502 2.09068 0
M  V30 1545 N 156.811 5.3038 1.86155 0
M  V30 1546 H 148.962 2.09904 -0.324647 0
M  V30 1547 H 151.225 0.944378 -0.0827957 0
M  V30 1548 H 150.931 3.50531 0.286498 0
M  V30 1549 H 150.805 3.19273 2.00859 0
M  V30 1550 H 153.192 2.20186 1.96474 0
M  V30 1551 H 153.273 2.54752 0.231314 0
M  V30 1552 H 152.917 5.02603 0.731622 0
M  V30 1553 H 152.847 4.64995 2.47158 0
M  V30 1554 H 155.338 3.50724 1.40715 0
M  V30 1555 H 155.651 7.38158 2.28785 0
M  V30 1556 H 153.996 6.63639 2.06416 0
M  V30 1557 H 157.187 4.37505 1.66454 0
M  V30 1558 H 157.36 6.1417 2.06637 0
M  V30 1559 N 150.766 -0.704594 1.40972 0
M  V30 1560 C 151.994 -1.49354 1.43182 0
M  V30 1561 C 152.409 -1.88768 0.0345508 0
M  V30 1562 O 151.766 -1.56184 -0.944081 0
M  V30 1563 C 151.817 -2.76187 2.33244 0
M  V30 1564 O 151.538 -2.38436 3.67532 0
M  V30 1565 C 153.039 -3.7 2.44162 0
M  V30 1566 H 150.259 -0.460559 0.487982 0
M  V30 1567 H 152.803 -0.868261 1.85153 0
M  V30 1568 H 150.958 -3.34974 1.94606 0
M  V30 1569 H 151.372 -3.20126 4.15475 0
M  V30 1570 H 152.846 -4.55803 3.11364 0
M  V30 1571 H 153.323 -4.13867 1.47006 0
M  V30 1572 H 153.929 -3.17121 2.83398 0
M  V30 1573 N 152.244 -1.26651 -0.937939 0
M  V30 1574 C 153.49 -1.12553 -1.687 0
M  V30 1575 C 153.823 0.329782 -1.91379 0
M  V30 1576 O 153.098 1.24202 -1.4968 0
M  V30 1577 C 153.381 -1.89862 -3.05981 0
M  V30 1578 C 153.234 -3.43318 -2.90607 0
M  V30 1579 C 154.553 -1.69499 -4.0615 0
M  V30 1580 H 151.672 -0.410257 -0.612257 0
M  V30 1581 H 154.314 -1.55685 -1.08913 0
M  V30 1582 H 152.464 -1.53204 -3.57017 0
M  V30 1583 H 154.136 -3.89747 -2.46769 0
M  V30 1584 H 152.379 -3.70179 -2.26164 0
M  V30 1585 H 153.05 -3.92642 -3.8799 0
M  V30 1586 H 155.526 -2.01442 -3.64088 0
M  V30 1587 H 154.402 -2.26002 -5.00214 0
M  V30 1588 H 154.663 -0.640365 -4.37438 0
M  V30 1589 N 153.722 1.14298 -1.08507 0
M  V30 1590 C 154.968 1.85633 -0.816581 0
M  V30 1591 C 155.301 1.82784 0.656021 0
M  V30 1592 O 154.576 1.25926 1.48233 0
M  V30 1593 C 154.859 3.34223 -1.34041 0
M  V30 1594 C 154.712 3.45639 -2.87843 0
M  V30 1595 C 156.031 4.29356 -0.9665 0
M  V30 1596 H 153.15 0.67402 -0.298104 0
M  V30 1597 H 155.792 1.34214 -1.34487 0
M  V30 1598 H 153.942 3.78144 -0.89104 0
M  V30 1599 H 155.614 3.10498 -3.41158 0
M  V30 1600 H 153.857 2.86817 -3.25451 0
M  V30 1601 H 154.528 4.50089 -3.19569 0
M  V30 1602 H 157.004 3.93457 -1.35391 0
M  V30 1603 H 155.88 5.3178 -1.3602 0
M  V30 1604 H 156.141 4.41919 0.126362 0
M  V30 1605 N 155.201 0.870884 1.31352 0
M  V30 1606 C 156.131 0.343096 2.30966 0
M  V30 1607 C 157.112 -0.566507 1.60389 0
M  V30 1608 O 158.297 -0.483336 1.88089 0
M  V30 1609 C 155.427 -0.455487 3.443 0
M  V30 1610 C 154.381 0.361103 4.26474 0
M  V30 1611 C 153.707 -0.563221 5.31725 0
M  V30 1612 C 155.007 1.59566 4.97329 0
M  V30 1613 H 156.701 1.17548 2.75359 0
M  V30 1614 H 154.247 0.566686 1.32381 0
M  V30 1615 H 156.2 -0.83525 4.13039 0
M  V30 1616 H 154.924 -1.32139 2.98675 0
M  V30 1617 H 153.583 0.722825 3.59403 0
M  V30 1618 H 153.231 -1.42643 4.82351 0
M  V30 1619 H 152.931 -0.0207409 5.87596 0
M  V30 1620 H 154.455 -0.939808 6.03324 0
M  V30 1621 H 155.869 1.28728 5.58661 0
M  V30 1622 H 154.266 2.07728 5.63 0
M  V30 1623 H 155.336 2.34798 4.24262 0
M  V30 1624 N 156.679 -1.44442 0.630414 0
M  V30 1625 C 157.611 -2.2892 -0.113347 0
M  V30 1626 C 158.624 -1.41243 -0.80959 0
M  V30 1627 O 159.813 -1.65402 -0.671156 0
M  V30 1628 C 156.913 -3.17594 -1.18266 0
M  V30 1629 C 156.086 -4.33682 -0.569073 0
M  V30 1630 C 155.145 -5.03397 -1.53226 0
M  V30 1631 O 154.171 -5.59438 -1.04967 0
M  V30 1632 N 155.373 -5.04783 -2.86661 0
M  V30 1633 H 158.138 -2.93392 0.611636 0
M  V30 1634 H 155.699 -1.54881 0.471523 0
M  V30 1635 H 157.691 -3.61097 -1.82732 0
M  V30 1636 H 156.261 -2.54876 -1.80988 0
M  V30 1637 H 155.481 -3.9338 0.254187 0
M  V30 1638 H 156.769 -5.08608 -0.139767 0
M  V30 1639 H 156.167 -4.60584 -3.28449 0
M  V30 1640 H 154.724 -5.52077 -3.46489 0
M  V30 1641 N 158.157 -0.370918 -1.53173 0
M  V30 1642 C 159.385 0.217704 -2.05751 0
M  V30 1643 C 159.8 1.42018 -1.24404 0
M  V30 1644 O 159.157 1.80245 -0.286033 0
M  V30 1645 C 159.208 0.605954 -3.56385 0
M  V30 1646 O 158.929 -0.548734 -4.3465 0
M  V30 1647 C 160.43 1.2524 -4.25241 0
M  V30 1648 H 157.65 0.0371659 -0.66997 0
M  V30 1649 H 160.194 -0.530832 -1.9749 0
M  V30 1650 H 158.349 1.3044 -3.6478 0
M  V30 1651 H 158.763 -0.23376 -5.23979 0
M  V30 1652 H 160.237 1.47458 -5.3194 0
M  V30 1653 H 160.714 2.2143 -3.79296 0
M  V30 1654 H 161.32 0.595233 -4.21114 0
M  V30 1655 N 159.635 1.57281 -0.100228 0
M  V30 1656 C 160.912 1.86014 0.604812 0
M  V30 1657 C 161.292 0.998025 1.86018 0
M  V30 1658 O 160.64 0.0718184 2.28387 0
M  V30 1659 C 160.85 3.36784 0.915278 0
M  V30 1660 C 162.198 4.04957 1.27651 0
M  V30 1661 O 163.222 3.41695 1.00613 0
M  V30 1662 O 162.081 5.16593 1.7831 0
M  V30 1663 H 159.175 0.76942 0.303185 0
M  V30 1664 H 161.721 1.69176 -0.133313 0
M  V30 1665 H 160.493 3.91292 0.0248896 0
M  V30 1666 H 160.116 3.58987 1.70921 0
M  V30 1667 N 161.113 -0.173488 1.56642 0
M  V30 1668 C 162.524 -0.736155 1.71574 0
M  V30 1669 C 162.875 -1.82888 0.710389 0
M  V30 1670 O 162 -2.16017 -0.1287 0
M  V30 1671 C 162.595 -1.34211 3.11083 0
M  V30 1672 C 161.154 -1.85162 3.27707 0
M  V30 1673 C 160.301 -0.729765 2.67525 0
M  V30 1674 H 163.252 0.0518786 1.58615 0
M  V30 1675 H 163.273 -2.21178 3.09613 0
M  V30 1676 H 162.785 -0.546579 3.84232 0
M  V30 1677 H 160.886 -2.67366 2.59512 0
M  V30 1678 H 160.999 -1.99855 4.35425 0
M  V30 1679 H 159.363 -1.14965 2.27278 0
M  V30 1680 H 160.146 0.0538806 3.43258 0
M  V30 1681 N 162.591 -1.51276 -0.441967 0
M  V30 1682 C 163.521 -1.752 -1.54361 0
M  V30 1683 C 164.502 -0.601682 -1.59103 0
M  V30 1684 O 165.687 -0.843913 -1.74905 0
M  V30 1685 C 162.817 -1.87282 -2.92477 0
M  V30 1686 C 161.771 -3.02687 -3.02596 0
M  V30 1687 C 161.097 -2.99947 -4.42647 0
M  V30 1688 C 162.397 -4.4273 -2.77106 0
M  V30 1689 H 164.091 -2.67442 -1.34592 0
M  V30 1690 H 161.637 -1.28694 -0.646048 0
M  V30 1691 H 163.59 -2.02602 -3.695 0
M  V30 1692 H 162.314 -0.916844 -3.13467 0
M  V30 1693 H 160.973 -2.87065 -2.28012 0
M  V30 1694 H 160.621 -2.02136 -4.60597 0
M  V30 1695 H 160.321 -3.77439 -4.50348 0
M  V30 1696 H 161.845 -3.17354 -5.2165 0
M  V30 1697 H 163.259 -4.58727 -3.43864 0
M  V30 1698 H 161.656 -5.21893 -2.96222 0
M  V30 1699 H 162.726 -4.53087 -1.72744 0
M  V30 1700 N 164.069 0.697108 -1.41344 0
M  V30 1701 C 165.48 1.27697 -1.36199 0
M  V30 1702 C 165.831 1.9615 -0.0443463 0
M  V30 1703 O 164.956 1.98689 0.857419 0
M  V30 1704 C 165.551 2.32223 -2.46694 0
M  V30 1705 C 164.11 2.8579 -2.44952 0
M  V30 1706 C 163.257 1.59807 -2.26621 0
M  V30 1707 H 166.208 0.491968 -1.50882 0
M  V30 1708 H 166.229 3.1348 -2.15664 0
M  V30 1709 H 165.741 1.82373 -3.42581 0
M  V30 1710 H 163.842 3.3982 -1.52817 0
M  V30 1711 H 163.955 3.36325 -3.41207 0
M  V30 1712 H 162.319 1.8556 -1.7447 0
M  V30 1713 H 163.102 1.11956 -3.24532 0
M  V30 1714 N 165.547 1.27147 0.931209 0
M  V30 1715 C 166.958 1.12044 1.49342 0
M  V30 1716 C 167.309 -0.295795 1.93957 0
M  V30 1717 O 166.434 -1.18835 1.80852 0
M  V30 1718 C 167.029 2.02781 2.71414 0
M  V30 1719 C 165.588 1.91794 3.2387 0
M  V30 1720 C 164.735 1.95543 1.96617 0
M  V30 1721 H 167.686 1.40091 0.745672 0
M  V30 1722 H 167.707 1.58156 3.46074 0
M  V30 1723 H 167.219 3.05848 2.38911 0
M  V30 1724 H 165.32 0.916992 3.6114 0
M  V30 1725 H 165.433 2.77852 3.90302 0
M  V30 1726 H 163.797 1.39722 2.12955 0
M  V30 1727 H 164.58 3.00259 1.66432 0
M  V30 1728 N 167.025 -1.13721 1.09112 0
M  V30 1729 C 167.988 -2.17222 0.731241 0
M  V30 1730 C 168.988 -1.59035 -0.237566 0
M  V30 1731 O 170.178 -1.74192 -0.0161704 0
M  V30 1732 C 167.31 -3.40804 0.0808443 0
M  V30 1733 H 168.503 -2.50573 1.64783 0
M  V30 1734 H 166.056 -1.28493 0.889897 0
M  V30 1735 H 166.791 -3.1304 -0.847127 0
M  V30 1736 H 166.576 -3.84306 0.777896 0
M  V30 1737 H 168.066 -4.1731 -0.155657 0
M  V30 1738 N 168.503 -0.877838 -1.30888 0
M  V30 1739 C 169.919 -0.570844 -1.49042 0
M  V30 1740 C 170.119 0.893159 -1.80624 0
M  V30 1741 O 169.175 1.67485 -1.88958 0
M  V30 1742 C 170.488 -1.47784 -2.61878 0
M  V30 1743 C 172.036 -1.48071 -2.75761 0
M  V30 1744 C 172.511 -2.37347 -3.91702 0
M  V30 1745 N 174.002 -2.35271 -3.99001 0
M  V30 1746 C 174.737 -3.01063 -4.88004 0
M  V30 1747 N 174.233 -3.76055 -5.81854 0
M  V30 1748 N 176.026 -2.90332 -4.81315 0
M  V30 1749 H 168.177 -1.82502 -1.0866 0
M  V30 1750 H 170.44 -0.780797 -0.537644 0
M  V30 1751 H 170.146 -2.51993 -2.45341 0
M  V30 1752 H 170.02 -1.18215 -3.58197 0
M  V30 1753 H 172.407 -0.446166 -2.91708 0
M  V30 1754 H 172.488 -1.81668 -1.80085 0
M  V30 1755 H 172.132 -3.40883 -3.76512 0
M  V30 1756 H 172.062 -2.01071 -4.86701 0
M  V30 1757 H 174.553 -1.80768 -3.3186 0
M  V30 1758 H 174.866 -4.23366 -6.46514 0
M  V30 1759 H 173.211 -3.80163 -5.81808 0
M  V30 1760 H 176.402 -2.31278 -4.06974 0
M  V30 1761 H 176.575 -3.41885 -5.50471 0
M  V30 1762 N 169.982 1.44106 -0.638065 0
M  V30 1763 C 171.229 2.01978 -0.14533 0
M  V30 1764 C 171.557 1.50234 1.23532 0
M  V30 1765 O 170.812 0.679548 1.83523 0
M  V30 1766 C 171.111 3.5729 -0.0887327 0
M  V30 1767 C 170.777 4.28317 -1.40909 0
M  V30 1768 C 169.439 4.47437 -1.77069 0
M  V30 1769 C 171.791 4.6867 -2.28031 0
M  V30 1770 C 169.119 5.04171 -3.00047 0
M  V30 1771 C 171.471 5.26766 -3.50286 0
M  V30 1772 C 170.135 5.44104 -3.86661 0
M  V30 1773 H 169.405 0.739089 -0.0531801 0
M  V30 1774 H 172.052 1.72781 -0.825761 0
M  V30 1775 H 170.357 3.8594 0.675095 0
M  V30 1776 H 172.054 3.99807 0.309145 0
M  V30 1777 H 168.644 4.1377 -1.1177 0
M  V30 1778 H 172.828 4.53604 -2.01388 0
M  V30 1779 H 168.084 5.15782 -3.28298 0
M  V30 1780 H 172.258 5.56983 -4.18023 0
M  V30 1781 H 169.885 5.87832 -4.82034 0
M  V30 1782 N 171.46 0.379036 1.52974 0
M  V30 1783 C 172.708 -0.206014 2.01047 0
M  V30 1784 C 173.029 -1.48175 1.26765 0
M  V30 1785 O 172.299 -1.92085 0.384743 0
M  V30 1786 H 170.879 -0.0791184 0.742798 0
M  V30 1787 H 173.541 0.508366 1.88153 0
M  V30 1788 H 172.637 -0.423501 3.09213 0
M  V30 1789 N 172.938 -1.57226 0.108567 0
M  V30 1790 C 174.184 -1.95121 -0.552761 0
M  V30 1791 C 174.517 -0.991345 -1.66991 0
M  V30 1792 O 173.792 -0.0267211 -1.94482 0
M  V30 1793 C 174.075 -3.43039 -1.09528 0
M  V30 1794 C 173.928 -4.49797 0.0177332 0
M  V30 1795 C 175.247 -3.92567 -1.98945 0
M  V30 1796 H 172.366 -0.709496 -0.199461 0
M  V30 1797 H 175.008 -1.89126 0.182011 0
M  V30 1798 H 173.158 -3.48279 -1.72146 0
M  V30 1799 H 174.83 -4.56661 0.652584 0
M  V30 1800 H 173.073 -4.284 0.682309 0
M  V30 1801 H 173.744 -5.50528 -0.402919 0
M  V30 1802 H 176.22 -3.89565 -1.46214 0
M  V30 1803 H 175.096 -4.96605 -2.33827 0
M  V30 1804 H 175.357 -3.32648 -2.91201 0
M  V30 1805 N 174.416 0.165178 -1.56732 0
M  V30 1806 C 175.641 0.900253 -1.86843 0
M  V30 1807 C 176.066 1.74766 -0.695596 0
M  V30 1808 O 175.424 1.77786 0.35522 0
M  V30 1809 C 175.472 1.74777 -3.15413 0
M  V30 1810 O 174.576 2.85007 -2.98068 0
M  V30 1811 H 173.917 0.251832 -0.614391 0
M  V30 1812 H 176.447 0.161468 -2.03962 0
M  V30 1813 H 176.457 2.14646 -3.46974 0
M  V30 1814 H 175.132 1.12537 -4.00385 0
M  V30 1815 H 173.709 2.48676 -2.77875 0
M  V30 1816 N 175.894 1.51508 0.433938 0
M  V30 1817 C 176.841 1.73068 1.52696 0
M  V30 1818 C 177.811 0.572441 1.55924 0
M  V30 1819 O 178.996 0.807253 1.72882 0
M  V30 1820 C 176.136 1.86474 2.90381 0
M  V30 1821 C 175.249 3.14037 2.96656 0
M  V30 1822 C 174.384 3.18019 4.25485 0
M  V30 1823 C 173.423 4.39882 4.2564 0
M  V30 1824 N 172.56 4.41394 5.45999 0
M  V30 1825 H 177.4 2.66366 1.33615 0
M  V30 1826 H 174.937 1.32008 0.649018 0
M  V30 1827 H 176.895 1.92229 3.70275 0
M  V30 1828 H 175.525 0.965809 3.08013 0
M  V30 1829 H 174.577 3.17575 2.09404 0
M  V30 1830 H 175.889 4.0394 2.92633 0
M  V30 1831 H 175.043 3.22708 5.13755 0
M  V30 1832 H 173.782 2.2601 4.3217 0
M  V30 1833 H 172.787 4.35366 3.35763 0
M  V30 1834 H 174.012 5.33159 4.20617 0
M  V30 1835 H 171.958 3.52258 5.53399 0
M  V30 1836 H 171.875 5.25111 5.4387 0
M  V30 1837 H 173.143 4.50281 6.36292 0
M  V30 1838 N 177.372 -0.689602 1.41712 0
M  V30 1839 C 178.282 -1.83314 1.46401 0
M  V30 1840 C 179.298 -1.7036 0.35405 0
M  V30 1841 O 180.474 -1.92171 0.602692 0
M  V30 1842 C 177.539 -3.19344 1.34982 0
M  V30 1843 C 176.6 -3.44363 2.56344 0
M  V30 1844 C 175.833 -4.73904 2.45461 0
M  V30 1845 O 176.056 -5.508 1.48241 0
M  V30 1846 O 174.99 -4.99839 3.35328 0
M  V30 1847 H 178.816 -1.82314 2.42889 0
M  V30 1848 H 176.401 -0.843438 1.23315 0
M  V30 1849 H 178.283 -4.00547 1.3092 0
M  V30 1850 H 176.958 -3.21014 0.41612 0
M  V30 1851 H 175.865 -2.63067 2.65982 0
M  V30 1852 H 177.198 -3.47512 3.48563 0
M  V30 1853 N 178.85 -1.27639 -0.924453 0
M  V30 1854 C 179.797 -1.10644 -2.0255 0
M  V30 1855 C 180.767 -0.00658438 -1.66099 0
M  V30 1856 O 181.952 -0.16952 -1.90045 0
M  V30 1857 C 179.092 -0.76309 -3.36557 0
M  V30 1858 C 178.205 -1.94091 -3.85944 0
M  V30 1859 C 177.34 -1.53914 -5.08413 0
M  V30 1860 C 176.379 -2.68425 -5.50104 0
M  V30 1861 N 175.516 -2.28815 -6.63768 0
M  V30 1862 H 180.356 -2.04858 -2.16419 0
M  V30 1863 H 177.893 -1.01974 -1.06017 0
M  V30 1864 H 179.851 -0.544822 -4.13627 0
M  V30 1865 H 178.481 0.142102 -3.22487 0
M  V30 1866 H 177.533 -2.27162 -3.05125 0
M  V30 1867 H 178.845 -2.7998 -4.12811 0
M  V30 1868 H 177.999 -1.28231 -5.92994 0
M  V30 1869 H 176.738 -0.651391 -4.8333 0
M  V30 1870 H 175.743 -2.94819 -4.64071 0
M  V30 1871 H 176.968 -3.57826 -5.7718 0
M  V30 1872 H 174.914 -1.42495 -6.40337 0
M  V30 1873 H 174.831 -3.08242 -6.90306 0
M  V30 1874 H 176.099 -2.06387 -7.51681 0
M  V30 1875 N 180.328 1.1314 -1.09713 0
M  V30 1876 C 181.556 1.88321 -0.856898 0
M  V30 1877 C 181.971 1.79276 0.592073 0
M  V30 1878 O 181.328 1.16142 1.40774 0
M  V30 1879 C 181.379 3.37812 -1.28706 0
M  V30 1880 O 181.1 3.46627 -2.67921 0
M  V30 1881 C 182.601 4.29952 -1.07964 0
M  V30 1882 H 179.821 0.596094 -0.308079 0
M  V30 1883 H 182.365 1.43205 -1.45988 0
M  V30 1884 H 180.52 3.805 -0.727912 0
M  V30 1885 H 180.934 4.39579 -2.8613 0
M  V30 1886 H 182.408 5.33159 -1.42986 0
M  V30 1887 H 182.885 4.39196 -0.0176577 0
M  V30 1888 H 183.491 3.93036 -1.62489 0
M  V30 1889 N 181.806 0.884767 1.30421 0
M  V30 1890 C 183.034 0.518044 2.0031 0
M  V30 1891 C 183.449 -0.893408 1.66324 0
M  V30 1892 O 182.806 -1.5875 0.900262 0
M  V30 1893 C 182.857 0.682997 3.54989 0
M  V30 1894 O 182.578 2.03888 3.87764 0
M  V30 1895 C 184.079 0.31924 4.42149 0
M  V30 1896 H 181.299 0.200265 0.640418 0
M  V30 1897 H 183.843 1.19001 1.6631 0
M  V30 1898 H 181.998 0.0584052 3.87356 0
M  V30 1899 H 182.412 2.05735 4.82466 0
M  V30 1900 H 183.886 0.485555 5.4986 0
M  V30 1901 H 184.363 -0.742717 4.32875 0
M  V30 1902 H 184.969 0.920147 4.15227 0
M  V30 1903 N 183.284 -1.43765 0.645699 0
M  V30 1904 C 184.509 -2.06767 0.161883 0
M  V30 1905 C 184.934 -1.48034 -1.16049 0
M  V30 1906 O 184.292 -0.587369 -1.71522 0
M  V30 1907 C 184.34 -3.60519 0.0762003 0
M  V30 1908 O 183.444 -4.00982 -0.963721 0
M  V30 1909 H 182.785 -0.657675 0.091429 0
M  V30 1910 H 185.315 -1.84397 0.886499 0
M  V30 1911 H 185.325 -4.07853 -0.109604 0
M  V30 1912 H 184 -4.02646 1.04157 0
M  V30 1913 H 182.577 -3.65253 -0.751312 0
M  V30 1914 N 184.763 -0.387143 -1.52771 0
M  V30 1915 C 185.991 0.195869 -2.05971 0
M  V30 1916 C 186.406 1.40691 -1.25903 0
M  V30 1917 O 185.763 1.79931 -0.305134 0
M  V30 1918 C 185.814 0.56812 -3.57008 0
M  V30 1919 O 185.535 -0.594803 -4.34043 0
M  V30 1920 C 187.036 1.20723 -4.26545 0
M  V30 1921 H 184.256 0.0300578 -0.670326 0
M  V30 1922 H 186.8 -0.551749 -1.96916 0
M  V30 1923 H 184.955 1.26564 -3.66143 0
M  V30 1924 H 185.369 -0.289322 -5.23701 0
M  V30 1925 H 186.843 1.41807 -5.33474 0
M  V30 1926 H 187.32 2.17395 -3.81623 0
M  V30 1927 H 187.926 0.550535 -4.21722 0
M  V30 1928 N 186.241 1.57166 -0.116904 0
M  V30 1929 C 187.466 1.999 0.55271 0
M  V30 1930 C 187.891 0.996039 1.59564 0
M  V30 1931 O 187.249 -0.032556 1.81271 0
M  V30 1932 C 187.297 3.4152 1.15742 0
M  V30 1933 O 186.401 3.44106 2.27299 0
M  V30 1934 H 185.742 0.649447 0.138258 0
M  V30 1935 H 188.272 2.03573 -0.204759 0
M  V30 1936 H 188.282 3.79684 1.49346 0
M  V30 1937 H 186.957 4.14034 0.393493 0
M  V30 1938 H 185.534 3.17759 1.9515 0
M  V30 1939 N 187.719 -0.156864 1.56817 0
M  V30 1940 C 188.649 -1.19589 2.00551 0
M  V30 1941 C 189.63 -1.4536 0.883426 0
M  V30 1942 O 190.815 -1.56449 1.15054 0
M  V30 1943 C 187.945 -2.53143 2.37773 0
M  V30 1944 C 186.899 -2.41913 3.53075 0
M  V30 1945 C 186.225 -3.80088 3.76081 0
M  V30 1946 C 187.525 -1.91157 4.86062 0
M  V30 1947 H 189.219 -0.832293 2.87599 0
M  V30 1948 H 186.765 -0.398918 1.38364 0
M  V30 1949 H 188.718 -3.26047 2.66967 0
M  V30 1950 H 187.442 -2.91319 1.4765 0
M  V30 1951 H 186.101 -1.71462 3.24031 0
M  V30 1952 H 185.749 -4.15683 2.83225 0
M  V30 1953 H 185.449 -3.73439 4.53671 0
M  V30 1954 H 186.973 -4.54556 4.0769 0
M  V30 1955 H 188.387 -2.53846 5.14038 0
M  V30 1956 H 186.784 -1.95422 5.67389 0
M  V30 1957 H 187.854 -0.866673 4.77092 0
M  V30 1958 N 189.197 -1.51736 -0.425897 0
M  V30 1959 C 190.147 -1.70258 -1.51645 0
M  V30 1960 C 191.131 -0.556488 -1.5097 0
M  V30 1961 O 192.323 -0.812879 -1.5723 0
M  V30 1962 C 189.452 -1.84143 -2.89735 0
M  V30 1963 C 188.538 -3.04572 -2.95122 0
M  V30 1964 N 188.929 -4.2756 -2.70233 0
M  V30 1965 C 187.227 -3.04061 -3.26286 0
M  V30 1966 C 187.928 -5.08908 -2.81757 0
M  V30 1967 N 186.904 -4.43797 -3.13919 0
M  V30 1968 H 190.706 -2.63004 -1.31172 0
M  V30 1969 H 188.22 -1.4954 -0.633375 0
M  V30 1970 H 190.217 -1.95525 -3.68206 0
M  V30 1971 H 188.877 -0.925857 -3.1122 0
M  V30 1972 H 189.888 -4.56315 -2.44943 0
M  V30 1973 H 186.565 -2.22179 -3.53473 0
M  V30 1974 H 187.955 -6.16843 -2.66372 0
M  V30 1975 N 190.675 0.682077 -1.42076 0
M  V30 1976 C 191.921 1.44428 -1.42367 0
M  V30 1977 C 192.254 1.94164 -0.0373056 0
M  V30 1978 O 191.529 1.70429 0.937239 0
M  V30 1979 C 191.812 2.64654 -2.44194 0
M  V30 1980 C 191.665 2.20596 -3.91991 0
M  V30 1981 C 192.984 3.66865 -2.431 0
M  V30 1982 H 190.103 0.523834 -0.518428 0
M  V30 1983 H 192.745 0.77576 -1.73442 0
M  V30 1984 H 190.895 3.2169 -2.17826 0
M  V30 1985 H 192.567 1.68783 -4.29313 0
M  V30 1986 H 190.81 1.52242 -4.06208 0
M  V30 1987 H 191.481 3.06921 -4.58807 0
M  V30 1988 H 193.957 3.19531 -2.66532 0
M  V30 1989 H 192.833 4.48577 -3.16339 0
M  V30 1990 H 193.094 4.17493 -1.45437 0
M  V30 1991 N 192.153 1.28127 0.917671 0
M  V30 1992 C 193.399 1.16232 1.66918 0
M  V30 1993 C 193.754 -0.28701 1.90247 0
M  V30 1994 O 193.047 -1.20586 1.48895 0
M  V30 1995 C 193.241 1.89018 3.03327 0
M  V30 1996 C 193.07 3.4088 2.9331 0
M  V30 1997 C 191.84 4.10214 2.95047 0
M  V30 1998 C 194.038 4.36689 2.71675 0
M  V30 1999 N 192.02 5.48571 2.75577 0
M  V30 2000 C 193.391 5.62382 2.6101 0
M  V30 2001 C 195.446 4.26661 2.56641 0
M  V30 2002 C 194.149 6.79189 2.36843 0
M  V30 2003 C 196.175 5.432 2.33853 0
M  V30 2004 C 195.537 6.67855 2.23939 0
M  V30 2005 H 191.636 0.48024 0.617166 0
M  V30 2006 H 194.22 1.61727 1.08409 0
M  V30 2007 H 192.391 1.45963 3.59929 0
M  V30 2008 H 194.123 1.69541 3.67475 0
M  V30 2009 H 190.878 3.61762 3.05655 0
M  V30 2010 H 191.302 6.21287 2.68945 0
M  V30 2011 H 195.944 3.30998 2.63059 0
M  V30 2012 H 193.662 7.74926 2.29164 0
M  V30 2013 H 197.248 5.37328 2.23091 0
M  V30 2014 H 196.128 7.56511 2.06546 0
M  V30 2015 N 193.631 -1.12557 1.10312 0
M  V30 2016 C 194.877 -1.84515 0.855901 0
M  V30 2017 C 195.232 -1.82409 -0.611936 0
M  V30 2018 O 194.525 -1.25778 -1.44535 0
M  V30 2019 C 194.719 -3.31462 1.33669 0
M  V30 2020 C 194.548 -3.47879 2.84974 0
M  V30 2021 C 193.318 -3.61589 3.52961 0
M  V30 2022 C 195.516 -3.43152 3.83081 0
M  V30 2023 N 193.498 -3.66359 4.926 0
M  V30 2024 C 194.869 -3.54401 5.08724 0
M  V30 2025 C 196.924 -3.2661 3.75807 0
M  V30 2026 C 195.627 -3.50815 6.2795 0
M  V30 2027 C 197.653 -3.24335 4.94531 0
M  V30 2028 C 197.015 -3.36144 6.19021 0
M  V30 2029 H 193.114 -0.690967 0.366182 0
M  V30 2030 H 195.698 -1.34763 1.40524 0
M  V30 2031 H 193.869 -3.7976 0.814686 0
M  V30 2032 H 195.601 -3.91272 1.03385 0
M  V30 2033 H 192.356 -3.63652 3.03404 0
M  V30 2034 H 192.78 -3.72411 5.65366 0
M  V30 2035 H 197.422 -3.16375 2.80476 0
M  V30 2036 H 195.14 -3.5982 7.23571 0
M  V30 2037 H 198.726 -3.12719 4.9061 0
M  V30 2038 H 197.606 -3.34357 7.09348 0
M  V30 2039 N 195.109 -0.891671 -1.2995 0
M  V30 2040 C 196.337 -0.52866 -2.00032 0
M  V30 2041 C 196.752 0.884574 -1.66795 0
M  V30 2042 O 196.109 1.5827 -0.908669 0
M  V30 2043 C 196.16 -0.701814 -3.54622 0
M  V30 2044 O 195.881 -2.05942 -3.86678 0
M  V30 2045 C 197.382 -0.342683 -4.41973 0
M  V30 2046 H 194.602 -0.203659 -0.639347 0
M  V30 2047 H 197.146 -1.19881 -1.65677 0
M  V30 2048 H 195.301 -0.0789468 -3.8732 0
M  V30 2049 H 195.715 -2.08291 -4.81368 0
M  V30 2050 H 197.189 -0.514709 -5.49595 0
M  V30 2051 H 197.666 0.71975 -4.33262 0
M  V30 2052 H 198.272 -0.942154 -4.14733 0
M  V30 2053 N 196.587 1.43421 -0.653314 0
M  V30 2054 C 197.998 1.85065 -0.246537 0
M  V30 2055 C 198.349 1.54688 1.2069 0
M  V30 2056 O 197.474 0.995896 1.92122 0
M  V30 2057 C 198.069 3.35922 -0.440666 0
M  V30 2058 C 196.628 3.76297 -0.0882064 0
M  V30 2059 C 195.775 2.67147 -0.743484 0
M  V30 2060 H 198.726 1.33572 -0.856979 0
M  V30 2061 H 198.747 3.79204 0.313798 0
M  V30 2062 H 198.259 3.58 -1.49858 0
M  V30 2063 H 196.36 3.5983 0.96711 0
M  V30 2064 H 196.473 4.76338 -0.513738 0
M  V30 2065 H 194.837 2.54086 -0.176712 0
M  V30 2066 H 195.62 2.92053 -1.80443 0
M  V30 2067 N 198.065 0.39524 1.52563 0
M  V30 2068 C 199.29 -0.187456 2.06551 0
M  V30 2069 C 199.715 -1.39249 1.26457 0
M  V30 2070 O 199.073 -1.78947 0.291151 0
M  V30 2071 C 199.121 -0.529985 3.56684 0
M  V30 2072 O 198.225 -1.62307 3.79118 0
M  V30 2073 H 197.566 -0.0202537 0.663691 0
M  V30 2074 H 200.096 0.564426 1.96661 0
M  V30 2075 H 200.106 -0.792598 4.00227 0
M  V30 2076 H 198.781 0.350987 4.14416 0
M  V30 2077 H 197.358 -1.3537 3.47461 0
M  V30 2078 N 199.544 -1.57102 0.125237 0
M  V30 2079 C 200.769 -2.0019 -0.542101 0
M  V30 2080 C 201.194 -1.00449 -1.59034 0
M  V30 2081 O 200.552 0.0229423 -1.81285 0
M  V30 2082 C 200.6 -3.42129 -1.13929 0
M  V30 2083 O 199.704 -3.45307 -2.2547 0
M  V30 2084 H 199.045 -0.650171 -0.134812 0
M  V30 2085 H 201.575 -2.03461 0.215553 0
M  V30 2086 H 201.585 -3.80471 -1.4733 0
M  V30 2087 H 200.26 -4.14237 -0.371531 0
M  V30 2088 H 198.837 -3.1879 -1.93462 0
M  V30 2089 N 201.022 0.148545 -1.56898 0
M  V30 2090 C 202.27 0.859717 -1.82902 0
M  V30 2091 C 202.591 1.81775 -0.70588 0
M  V30 2092 O 201.861 1.93994 0.272586 0
M  V30 2093 H 200.441 0.320469 -0.674766 0
M  V30 2094 H 203.103 0.142918 -1.94375 0
M  V30 2095 H 202.199 1.4229 -2.77777 0
M  V30 2096 N 202.5 1.5196 0.417844 0
M  V30 2097 C 203.447 1.74678 1.50852 0
M  V30 2098 C 204.417 0.588947 1.55308 0
M  V30 2099 O 205.602 0.825544 1.72016 0
M  V30 2100 C 202.742 1.89544 2.88387 0
M  V30 2101 C 201.855 3.17166 2.93309 0
M  V30 2102 C 200.99 3.22513 4.22088 0
M  V30 2103 C 200.029 4.44372 4.20951 0
M  V30 2104 N 199.166 4.47161 5.41287 0
M  V30 2105 H 204.006 2.67768 1.30783 0
M  V30 2106 H 201.543 1.32689 0.63498 0
M  V30 2107 H 203.501 1.96146 3.68216 0
M  V30 2108 H 202.131 0.998424 3.06971 0
M  V30 2109 H 201.183 3.19778 2.06024 0
M  V30 2110 H 202.495 4.07021 2.88332 0
M  V30 2111 H 201.649 3.28139 5.10303 0
M  V30 2112 H 200.388 2.30581 4.29748 0
M  V30 2113 H 199.393 4.38902 3.31127 0
M  V30 2114 H 200.618 5.3759 4.14938 0
M  V30 2115 H 198.564 3.58108 5.49632 0
M  V30 2116 H 198.481 5.3085 5.3827 0
M  V30 2117 H 199.749 4.57005 6.3148 0
M  V30 2118 N 203.978 -0.674533 1.42435 0
M  V30 2119 C 205.224 -1.43671 1.43131 0
M  V30 2120 C 205.557 -1.94142 0.0476021 0
M  V30 2121 O 204.832 -1.70924 -0.928188 0
M  V30 2122 C 205.115 -2.63355 2.45594 0
M  V30 2123 C 204.968 -2.18514 3.93156 0
M  V30 2124 C 206.287 -3.65571 2.45043 0
M  V30 2125 H 203.406 -0.521077 0.521198 0
M  V30 2126 H 206.048 -0.766551 1.7385 0
M  V30 2127 H 204.198 -3.2053 2.19528 0
M  V30 2128 H 205.87 -1.66504 4.30202 0
M  V30 2129 H 204.113 -1.50086 4.07009 0
M  V30 2130 H 204.784 -3.04484 4.60428 0
M  V30 2131 H 207.26 -3.18113 2.68223 0
M  V30 2132 H 206.136 -4.46893 3.18713 0
M  V30 2133 H 206.397 -4.16716 1.47649 0
M  V30 2134 N 205.456 -1.28612 -0.910864 0
M  V30 2135 C 206.684 -1.18792 -1.69399 0
M  V30 2136 C 207.099 0.253039 -1.87097 0
M  V30 2137 O 206.456 1.17071 -1.40003 0
M  V30 2138 C 206.507 -1.88511 -3.08457 0
M  V30 2139 O 206.228 -3.26979 -2.91576 0
M  V30 2140 C 207.729 -1.85029 -4.02839 0
M  V30 2141 H 204.949 -0.412233 -0.529438 0
M  V30 2142 H 207.493 -1.69788 -1.13984 0
M  V30 2143 H 205.648 -1.41379 -3.60681 0
M  V30 2144 H 206.062 -3.61936 -3.79608 0
M  V30 2145 H 207.536 -2.38395 -4.97867 0
M  V30 2146 H 208.013 -0.823303 -4.31414 0
M  V30 2147 H 208.619 -2.31853 -3.56545 0
M  V30 2148 N 206.934 1.1197 -1.10907 0
M  V30 2149 C 208.159 1.87942 -0.877064 0
M  V30 2150 C 208.584 1.79341 0.567314 0
M  V30 2151 O 207.942 1.15184 1.40009 0
M  V30 2152 C 207.99 3.34926 -1.33629 0
M  V30 2153 O 207.094 4.09303 -0.504447 0
M  V30 2154 H 206.435 0.583785 -0.316371 0
M  V30 2155 H 208.965 1.4157 -1.47712 0
M  V30 2156 H 208.975 3.8577 -1.32837 0
M  V30 2157 H 207.65 3.40504 -2.3881 0
M  V30 2158 H 206.227 3.68393 -0.577993 0
M  V30 2159 N 208.412 0.89855 1.29475 0
M  V30 2160 C 209.642 0.538479 1.99459 0
M  V30 2161 C 210.05 -0.880922 1.67441 0
M  V30 2162 O 209.393 -1.59283 0.915127 0
M  V30 2163 C 209.455 0.649564 3.53583 0
M  V30 2164 C 209.119 2.03573 4.09154 0
M  V30 2165 C 210.116 3.00675 4.24135 0
M  V30 2166 C 207.801 2.3448 4.44212 0
M  V30 2167 C 209.795 4.26809 4.73405 0
M  V30 2168 C 207.482 3.60857 4.93179 0
M  V30 2169 C 208.48 4.56836 5.0773 0
M  V30 2170 O 208.168 5.80969 5.55635 0
M  V30 2171 H 207.9 0.205372 0.644048 0
M  V30 2172 H 210.454 1.20958 1.66007 0
M  V30 2173 H 208.684 -0.0785592 3.8662 0
M  V30 2174 H 210.373 0.29881 4.04799 0
M  V30 2175 H 211.139 2.78112 3.97339 0
M  V30 2176 H 207.018 1.60534 4.32145 0
M  V30 2177 H 210.562 5.0173 4.84678 0
M  V30 2178 H 206.459 3.83251 5.19412 0
M  V30 2179 H 207.227 5.83542 5.73952 0
M  V30 2180 N 209.89 -1.43072 0.660911 0
M  V30 2181 C 210.8 -2.34585 -0.0264163 0
M  V30 2182 C 211.816 -1.54316 -0.803898 0
M  V30 2183 O 212.992 -1.86939 -0.749391 0
M  V30 2184 C 210.057 -3.32689 -0.975639 0
M  V30 2185 C 209.118 -4.2886 -0.194236 0
M  V30 2186 C 208.351 -5.22278 -1.09825 0
M  V30 2187 O 208.574 -5.20299 -2.33763 0
M  V30 2188 O 207.508 -5.99228 -0.566513 0
M  V30 2189 H 211.334 -2.94869 0.727034 0
M  V30 2190 H 208.919 -1.43342 0.42111 0
M  V30 2191 H 210.801 -3.92995 -1.52094 0
M  V30 2192 H 209.476 -2.74898 -1.70918 0
M  V30 2193 H 208.383 -3.72011 0.394835 0
M  V30 2194 H 209.716 -4.89655 0.499899 0
M  V30 2195 N 211.368 -0.403325 -1.52352 0
M  V30 2196 C 212.614 0.174605 -2.02047 0
M  V30 2197 C 212.947 1.45282 -1.28867 0
M  V30 2198 O 212.222 1.90483 -0.393257 0
M  V30 2199 C 212.505 0.428238 -3.57545 0
M  V30 2200 C 212.358 -0.866248 -4.4138 0
M  V30 2201 C 213.677 1.21287 -4.23057 0
M  V30 2202 H 210.796 0.0619851 -0.734389 0
M  V30 2203 H 213.438 -0.53565 -1.82293 0
M  V30 2204 H 211.588 1.03327 -3.74507 0
M  V30 2205 H 213.26 -1.50265 -4.3614 0
M  V30 2206 H 211.503 -1.47851 -4.07827 0
M  V30 2207 H 212.174 -0.643249 -5.48239 0
M  V30 2208 H 214.65 0.700703 -4.10158 0
M  V30 2209 H 213.526 1.35909 -5.31808 0
M  V30 2210 H 213.787 2.23193 -3.81625 0
M  V30 2211 N 212.846 1.57033 -0.133567 0
M  V30 2212 C 213.778 2.13176 0.841944 0
M  V30 2213 C 214.791 1.07794 1.22001 0
M  V30 2214 O 215.98 1.35117 1.16643 0
M  V30 2215 C 213.08 2.62847 2.13926 0
M  V30 2216 C 212.253 3.92486 1.93064 0
M  V30 2217 C 211.312 4.27605 3.0666 0
M  V30 2218 O 210.338 4.96168 2.78937 0
M  V30 2219 N 211.54 3.861 4.33483 0
M  V30 2220 H 214.305 2.97503 0.362192 0
M  V30 2221 H 211.866 1.61821 0.05042 0
M  V30 2222 H 213.858 2.83363 2.88942 0
M  V30 2223 H 212.428 1.83319 2.53205 0
M  V30 2224 H 211.648 3.80732 1.02159 0
M  V30 2225 H 212.936 4.77225 1.76447 0
M  V30 2226 H 212.334 3.30828 4.58878 0
M  V30 2227 H 210.891 4.11694 5.05323 0
M  V30 2228 N 214.325 -0.140222 1.56975 0
M  V30 2229 C 215.255 -1.17456 2.01808 0
M  V30 2230 C 216.236 -1.44415 0.898794 0
M  V30 2231 O 217.421 -1.5522 1.16707 0
M  V30 2232 C 214.551 -2.50607 2.40444 0
M  V30 2233 C 213.505 -2.38155 3.55621 0
M  V30 2234 C 212.831 -3.76078 3.80091 0
M  V30 2235 C 214.131 -1.85991 4.88062 0
M  V30 2236 H 215.825 -0.801743 2.88466 0
M  V30 2237 H 213.371 -0.38422 1.38779 0
M  V30 2238 H 215.324 -3.23197 2.7041 0
M  V30 2239 H 214.048 -2.89737 1.50732 0
M  V30 2240 H 212.707 -1.68016 3.25832 0
M  V30 2241 H 212.355 -4.12656 2.87618 0
M  V30 2242 H 212.055 -3.68606 4.57606 0
M  V30 2243 H 213.579 -4.50206 4.12488 0
M  V30 2244 H 214.993 -2.4838 5.16701 0
M  V30 2245 H 213.39 -1.89393 5.6943 0
M  V30 2246 H 214.46 -0.816023 4.77984 0
M  V30 2247 N 215.803 -1.52179 -0.40978 0
M  V30 2248 C 217.05 -1.66206 -1.15679 0
M  V30 2249 C 217.378 -0.391674 -1.90516 0
M  V30 2250 O 216.633 0.62533 -1.8544 0
M  V30 2251 C 216.932 -2.83428 -2.17723 0
M  V30 2252 C 216.598 -4.21672 -1.59699 0
M  V30 2253 C 215.26 -4.59274 -1.43599 0
M  V30 2254 C 217.612 -5.07825 -1.17317 0
M  V30 2255 C 214.94 -5.80709 -0.836328 0
M  V30 2256 C 217.292 -6.29864 -0.587691 0
M  V30 2257 C 215.956 -6.66216 -0.413818 0
M  V30 2258 H 215.226 -0.608192 -0.423301 0
M  V30 2259 H 217.873 -1.86279 -0.444097 0
M  V30 2260 H 216.178 -2.57687 -2.95135 0
M  V30 2261 H 217.875 -2.91477 -2.75394 0
M  V30 2262 H 214.465 -3.9204 -1.73213 0
M  V30 2263 H 218.649 -4.79359 -1.28565 0
M  V30 2264 H 213.905 -6.07498 -0.689626 0
M  V30 2265 H 218.079 -6.95948 -0.250894 0
M  V30 2266 H 215.706 -7.60182 0.0529471 0
M  V30 2267 N 217.281 0.66697 -1.42791 0
M  V30 2268 C 218.558 1.4234 -1.34159 0
M  V30 2269 C 218.938 2.11093 0.0172729 0
M  V30 2270 O 218.286 2.03808 1.03318 0
M  V30 2271 C 218.496 2.41942 -2.51526 0
M  V30 2272 C 219.844 3.06353 -2.93995 0
M  V30 2273 O 220.868 2.52269 -2.51473 0
M  V30 2274 O 219.727 4.04376 -3.67617 0
M  V30 2275 H 216.821 0.635277 -0.529483 0
M  V30 2276 H 219.367 0.695034 -1.54814 0
M  V30 2277 H 218.139 1.89991 -3.42081 0
M  V30 2278 H 217.762 3.22249 -2.32898 0
M  V30 2279 N 218.759 1.29093 0.90403 0
M  V30 2280 C 219.669 1.15727 2.0407 0
M  V30 2281 C 220.685 0.0815308 1.73809 0
M  V30 2282 O 221.861 0.292749 1.99261 0
M  V30 2283 C 218.926 0.830424 3.36608 0
M  V30 2284 C 217.987 1.98955 3.80415 0
M  V30 2285 C 217.22 1.6782 5.06628 0
M  V30 2286 O 217.443 0.597105 5.67266 0
M  V30 2287 O 216.377 2.52486 5.46383 0
M  V30 2288 H 220.203 2.11171 2.18267 0
M  V30 2289 H 217.788 1.08504 1.027 0
M  V30 2290 H 219.67 0.662521 4.16159 0
M  V30 2291 H 218.345 -0.0942678 3.23563 0
M  V30 2292 H 217.252 2.21267 3.01648 0
M  V30 2293 H 218.585 2.89529 3.98037 0
M  V30 2294 N 220.237 -1.11381 1.11499 0
M  V30 2295 C 221.185 -2.19522 0.768956 0
M  V30 2296 C 222.179 -1.67693 -0.239857 0
M  V30 2297 O 223.385 -1.79727 -0.0990755 0
M  V30 2298 H 219.76 -0.715711 0.230786 0
M  V30 2299 H 221.731 -2.45954 1.68964 0
M  V30 2300 C 220.48 -3.46945 0.229073 0
M  V30 2301 H 219.803 -3.8718 0.996596 0
M  V30 2302 H 221.243 -4.23993 0.0251441 0
M  V30 2303 C 219.702 -3.2042 -1.04079 0
M  V30 2304 O 220.232 -3.41178 -2.12038 0
M  V30 2305 N 218.438 -2.74151 -0.963823 0
M  V30 2306 H 217.985 -2.57459 -0.0851722 0
M  V30 2307 H 217.943 -2.56781 -1.81414 0
M  V30 2308 N 221.715 -0.905404 -1.28997 0
M  V30 2309 C 222.663 -0.377431 -2.29517 0
M  V30 2310 C 223.657 0.526461 -1.61012 0
M  V30 2311 O 224.863 0.40863 -1.753 0
M  V30 2312 H 221.238 -0.103437 -0.744852 0
M  V30 2313 H 223.209 -1.23848 -2.71485 0
M  V30 2314 C 221.958 0.374833 -3.45674 0
M  V30 2315 H 221.281 -0.311474 -3.98585 0
M  V30 2316 H 222.721 0.70903 -4.1803 0
M  V30 2317 C 221.18 1.57963 -2.97572 0
M  V30 2318 O 221.71 2.67886 -2.99333 0
M  V30 2319 N 219.916 1.42375 -2.53333 0
M  V30 2320 H 219.463 0.529466 -2.521 0
M  V30 2321 H 219.421 2.23117 -2.21509 0
M  V30 2322 N 223.193 1.4272 -0.668489 0
M  V30 2323 C 224.125 2.2914 0.052613 0
M  V30 2324 C 225.138 1.43339 0.771857 0
M  V30 2325 O 226.327 1.67123 0.627067 0
M  V30 2326 C 223.427 3.20618 1.09804 0
M  V30 2327 C 222.6 4.35039 0.45389 0
M  V30 2328 C 221.659 5.07282 1.39825 0
M  V30 2329 O 220.685 5.62024 0.900978 0
M  V30 2330 N 221.887 5.12206 2.73176 0
M  V30 2331 H 224.652 2.91668 -0.689209 0
M  V30 2332 H 222.213 1.53577 -0.512422 0
M  V30 2333 H 224.205 3.65815 1.73094 0
M  V30 2334 H 222.775 2.59585 1.74167 0
M  V30 2335 H 221.995 3.92567 -0.358396 0
M  V30 2336 H 223.283 5.088 0.00486972 0
M  V30 2337 H 222.681 4.6913 3.16122 0
M  V30 2338 H 221.238 5.61069 3.31729 0
M  V30 2339 N 224.671 0.411399 1.52136 0
M  V30 2340 C 225.618 -0.412975 2.27075 0
M  V30 2341 C 226.588 -1.03912 1.29582 0
M  V30 2342 O 227.773 -1.06296 1.58448 0
M  V30 2343 C 224.913 -1.52247 3.09701 0
M  V30 2344 C 224.026 -0.917021 4.22155 0
M  V30 2345 C 223.161 -1.9994 4.92135 0
M  V30 2346 C 222.2 -1.37101 5.96548 0
M  V30 2347 N 221.337 -2.39364 6.60038 0
M  V30 2348 H 226.177 0.232499 2.97092 0
M  V30 2349 H 223.714 0.126496 1.46555 0
M  V30 2350 H 225.672 -2.17674 3.55913 0
M  V30 2351 H 224.302 -2.13794 2.41851 0
M  V30 2352 H 223.354 -0.151742 3.80097 0
M  V30 2353 H 224.666 -0.418006 4.97045 0
M  V30 2354 H 223.82 -2.73088 5.41763 0
M  V30 2355 H 222.559 -2.53208 4.16818 0
M  V30 2356 H 221.564 -0.624873 5.46237 0
M  V30 2357 H 222.789 -0.845998 6.7381 0
M  V30 2358 H 220.735 -2.91759 5.87548 0
M  V30 2359 H 220.652 -1.9428 7.3061 0
M  V30 2360 H 221.92 -3.12074 7.14304 0
M  V30 2361 N 226.149 -1.5696 0.141893 0
M  V30 2362 C 227.398 -1.95135 -0.510427 0
M  V30 2363 C 227.711 -1.02896 -1.66348 0
M  V30 2364 O 228.917 -1.30629 -2.38009 0
M  V30 2365 C 227.373 -3.46876 -0.959427 0
M  V30 2366 C 226.981 -4.47691 0.166419 0
M  V30 2367 C 228.725 -3.93927 -1.58183 0
M  V30 2368 C 226.632 -5.90636 -0.300565 0
M  V30 2369 H 225.562 -0.728494 -0.194454 0
M  V30 2370 H 228.213 -1.8211 0.22542 0
M  V30 2371 H 226.595 -3.55215 -1.75038 0
M  V30 2372 H 227.769 -4.51043 0.94325 0
M  V30 2373 H 226.084 -4.10527 0.696905 0
M  V30 2374 H 228.681 -4.98158 -1.94275 0
M  V30 2375 H 229.024 -3.3519 -2.46888 0
M  V30 2376 H 229.557 -3.88484 -0.855863 0
M  V30 2377 H 226.296 -6.5318 0.550989 0
M  V30 2378 H 225.816 -5.90655 -1.04338 0
M  V30 2379 H 227.495 -6.42588 -0.754265 0
M  V30 2380 N 227.627 0.131896 -1.57047 0
M  V30 2381 C 228.559 1.1878 -1.9602 0
M  V30 2382 C 229.572 1.38363 -0.857875 0
M  V30 2383 O 230.761 1.37666 -1.13623 0
M  V30 2384 C 227.861 2.55008 -2.23213 0
M  V30 2385 C 227.034 2.56201 -3.54513 0
M  V30 2386 C 226.093 3.7408 -3.70069 0
M  V30 2387 O 225.119 3.58258 -4.42312 0
M  V30 2388 N 226.321 4.92137 -3.07866 0
M  V30 2389 H 229.086 0.85639 -2.87204 0
M  V30 2390 H 226.647 0.321309 -1.5868 0
M  V30 2391 H 228.639 3.32404 -2.30846 0
M  V30 2392 H 227.209 2.80382 -1.3822 0
M  V30 2393 H 226.429 1.64613 -3.58185 0
M  V30 2394 H 227.717 2.54043 -4.4084 0
M  V30 2395 H 227.115 5.07895 -2.49116 0
M  V30 2396 H 225.672 5.67254 -3.21039 0
M  V30 2397 N 229.106 1.52395 0.401703 0
M  V30 2398 C 230.354 1.66488 1.14569 0
M  V30 2399 C 230.675 0.400897 1.90835 0
M  V30 2400 O 229.945 -0.584415 1.8698 0
M  V30 2401 H 228.525 0.613672 0.425929 0
M  V30 2402 H 231.187 1.89464 0.457093 0
M  V30 2403 H 230.283 2.50942 1.85566 0
M  V30 2404 N 230.584 -0.659388 1.43143 0
M  V30 2405 C 231.83 -1.42145 1.44647 0
M  V30 2406 C 232.163 -1.9408 0.0681907 0
M  V30 2407 O 231.438 -1.71899 -0.910007 0
M  V30 2408 C 231.721 -2.60735 2.48373 0
M  V30 2409 C 231.574 -2.14332 3.95451 0
M  V30 2410 C 232.893 -3.62951 2.48906 0
M  V30 2411 H 230.012 -0.51552 0.526696 0
M  V30 2412 H 232.654 -0.748069 1.74654 0
M  V30 2413 H 230.804 -3.18184 2.22916 0
M  V30 2414 H 232.476 -1.61932 4.31944 0
M  V30 2415 H 230.719 -1.4576 4.08578 0
M  V30 2416 H 231.39 -2.99583 4.63631 0
M  V30 2417 H 233.866 -3.1525 2.71582 0
M  V30 2418 H 232.742 -4.43487 3.23435 0
M  V30 2419 H 233.003 -4.15126 1.52061 0
M  V30 2420 N 232.062 -1.29571 -0.897171 0
M  V30 2421 C 232.994 -1.10724 -2.00681 0
M  V30 2422 C 234.007 -0.0540026 -1.6271 0
M  V30 2423 O 235.196 -0.298783 -1.75982 0
M  V30 2424 C 232.296 -0.663912 -3.32333 0
M  V30 2425 C 231.469 -1.79622 -3.98816 0
M  V30 2426 C 230.528 -1.34349 -5.0876 0
M  V30 2427 O 229.554 -2.04864 -5.31055 0
M  V30 2428 N 230.756 -0.215764 -5.80099 0
M  V30 2429 H 233.521 -2.06291 -2.17403 0
M  V30 2430 H 231.082 -1.21544 -1.06951 0
M  V30 2431 H 233.074 -0.344295 -4.03233 0
M  V30 2432 H 231.644 0.199375 -3.11964 0
M  V30 2433 H 230.864 -2.28459 -3.21248 0
M  V30 2434 H 232.152 -2.55535 -4.39976 0
M  V30 2435 H 231.55 0.372091 -5.64475 0
M  V30 2436 H 230.107 0.0444707 -6.51785 0
M  V30 2437 N 233.54 1.10788 -1.12088 0
M  V30 2438 C 234.789 1.82036 -0.868659 0
M  V30 2439 C 235.102 1.85929 0.607426 0
M  V30 2440 O 236.308 2.53346 0.97613 0
M  V30 2441 C 234.764 3.26951 -1.50435 0
M  V30 2442 C 234.372 3.31367 -3.01496 0
M  V30 2443 C 236.116 4.03053 -1.33225 0
M  V30 2444 C 234.023 4.7072 -3.58017 0
M  V30 2445 H 232.953 0.682108 -0.321318 0
M  V30 2446 H 235.604 1.24618 -1.34694 0
M  V30 2447 H 233.986 3.84343 -0.953735 0
M  V30 2448 H 235.16 2.83819 -3.6302 0
M  V30 2449 H 233.475 2.6875 -3.18061 0
M  V30 2450 H 236.072 5.05981 -1.72878 0
M  V30 2451 H 236.415 4.15387 -0.275529 0
M  V30 2452 H 236.948 3.52066 -1.85188 0
M  V30 2453 H 233.687 4.63585 -4.63432 0
M  V30 2454 H 233.207 5.1865 -3.01268 0
M  V30 2455 H 234.886 5.39685 -3.56859 0
M  V30 2456 N 235.018 0.912232 1.28515 0
M  V30 2457 C 235.95 0.35676 2.26406 0
M  V30 2458 C 236.963 -0.503933 1.54804 0
M  V30 2459 O 238.152 -0.319059 1.75625 0
M  V30 2460 C 235.252 -0.508825 3.35058 0
M  V30 2461 C 234.425 0.329007 4.36161 0
M  V30 2462 C 233.484 -0.471422 5.24084 0
M  V30 2463 O 232.51 0.115482 5.69083 0
M  V30 2464 N 233.712 -1.77479 5.52704 0
M  V30 2465 H 236.477 1.19818 2.74707 0
M  V30 2466 H 234.038 0.778022 1.4198 0
M  V30 2467 H 236.03 -1.051 3.90815 0
M  V30 2468 H 234.6 -1.25095 2.86478 0
M  V30 2469 H 233.82 1.05256 3.79888 0
M  V30 2470 H 235.108 0.90234 5.00735 0
M  V30 2471 H 234.506 -2.27417 5.17975 0
M  V30 2472 H 233.063 -2.26382 6.11224 0
M  V30 2473 N 236.496 -1.42363 0.676048 0
M  V30 2474 C 237.406 -2.346 -0.00153389 0
M  V30 2475 C 238.422 -1.5516 -0.787485 0
M  V30 2476 O 239.598 -1.87723 -0.729521 0
M  V30 2477 C 236.663 -3.33705 -0.940298 0
M  V30 2478 C 235.724 -4.29042 -0.148739 0
M  V30 2479 C 234.957 -5.23413 -1.04279 0
M  V30 2480 O 235.18 -5.22749 -2.28232 0
M  V30 2481 O 234.114 -5.99795 -0.502925 0
M  V30 2482 H 237.94 -2.94082 0.758268 0
M  V30 2483 H 235.525 -1.42888 0.436289 0
M  V30 2484 H 237.407 -3.94586 -1.47917 0
M  V30 2485 H 236.082 -2.76695 -1.67993 0
M  V30 2486 H 234.989 -3.71571 0.43427 0
M  V30 2487 H 236.322 -4.89097 0.551805 0
M  V30 2488 N 237.974 -0.419461 -1.51915 0
M  V30 2489 C 239.199 0.154572 -2.06823 0
M  V30 2490 C 239.624 1.3722 -1.28656 0
M  V30 2491 O 238.982 1.78461 -0.319583 0
M  V30 2492 C 239.03 0.473172 -3.57482 0
M  V30 2493 O 238.134 1.56255 -3.81652 0
M  V30 2494 H 237.475 0.0096924 -0.663929 0
M  V30 2495 H 240.005 -0.595642 -1.95738 0
M  V30 2496 H 240.015 0.728825 -4.01438 0
M  V30 2497 H 238.69 -0.416873 -4.13805 0
M  V30 2498 H 237.267 1.29825 -3.49571 0
M  V30 2499 N 239.452 1.56882 -0.150215 0
M  V30 2500 C 240.68 2.00593 0.506948 0
M  V30 2501 C 241.095 1.03033 1.58208 0
M  V30 2502 O 240.452 0.0278396 1.82479 0
M  V30 2503 C 240.503 3.44209 1.10465 0
M  V30 2504 O 240.224 4.3804 0.0724636 0
M  V30 2505 C 241.725 4.03214 1.84211 0
M  V30 2506 H 238.945 0.65795 0.13169 0
M  V30 2507 H 241.489 2.03018 -0.245743 0
M  V30 2508 H 239.644 3.42625 1.80795 0
M  V30 2509 H 240.058 5.22007 0.510793 0
M  V30 2510 H 241.532 5.0569 2.21318 0
M  V30 2511 H 242.009 3.44107 2.72923 0
M  V30 2512 H 242.615 4.08437 1.18572 0
M  V30 2513 N 240.93 -0.123565 1.57115 0
M  V30 2514 C 242.155 -0.850398 1.89164 0
M  V30 2515 C 242.58 -1.7286 0.741688 0
M  V30 2516 O 241.938 -1.78665 -0.307958 0
M  V30 2517 C 241.986 -1.66353 3.19936 0
M  V30 2518 O 241.09 -2.77004 3.0552 0
M  V30 2519 H 240.431 -0.235454 0.620852 0
M  V30 2520 H 242.961 -0.107335 2.04318 0
M  V30 2521 H 242.971 -2.05372 3.52543 0
M  V30 2522 H 241.646 -1.01881 4.03228 0
M  V30 2523 H 240.223 -2.41221 2.84371 0
M  V30 2524 N 242.408 -1.52605 -0.393616 0
M  V30 2525 C 243.654 -1.68624 -1.13743 0
M  V30 2526 C 244.009 -0.418687 -1.87789 0
M  V30 2527 O 243.302 0.58747 -1.82371 0
M  V30 2528 C 243.496 -2.85721 -2.14705 0
M  V30 2529 C 243.325 -4.23742 -1.50575 0
M  V30 2530 C 242.095 -4.89033 -1.2718 0
M  V30 2531 C 244.293 -5.05293 -0.958311 0
M  V30 2532 N 242.275 -6.11048 -0.591058 0
M  V30 2533 C 243.646 -6.18673 -0.405367 0
M  V30 2534 C 245.701 -4.90517 -0.854274 0
M  V30 2535 C 244.404 -7.18895 0.241434 0
M  V30 2536 C 246.43 -5.90986 -0.221301 0
M  V30 2537 C 245.792 -7.03669 0.320894 0
M  V30 2538 H 241.891 -0.670556 -0.402342 0
M  V30 2539 H 244.475 -1.89946 -0.427607 0
M  V30 2540 H 242.646 -2.65987 -2.83029 0
M  V30 2541 H 244.378 -2.90699 -2.8156 0
M  V30 2542 H 241.133 -4.47672 -1.54554 0
M  V30 2543 H 241.557 -6.76474 -0.266862 0
M  V30 2544 H 246.199 -4.03612 -1.25926 0
M  V30 2545 H 243.917 -8.05413 0.658448 0
M  V30 2546 H 247.503 -5.81626 -0.142111 0
M  V30 2547 H 246.383 -7.80078 0.802956 0
M  V30 2548 N 243.887 0.651787 -1.4349 0
M  V30 2549 C 244.835 1.78586 -1.49029 0
M  V30 2550 C 245.829 1.65448 -0.363767 0
M  V30 2551 O 247.035 1.71777 -0.537821 0
M  V30 2552 H 243.41 0.589236 -0.467231 0
M  V30 2553 H 245.381 1.71035 -2.44519 0
M  V30 2554 C 244.13 3.16851 -1.43181 0
M  V30 2555 H 243.453 3.27598 -2.29171 0
M  V30 2556 H 244.893 3.96156 -1.51118 0
M  V30 2557 C 243.352 3.36568 -0.149616 0
M  V30 2558 O 243.882 3.93885 0.788509 0
M  V30 2559 N 242.088 2.90539 -0.0593484 0
M  V30 2560 H 241.635 2.4408 -0.823575 0
M  V30 2561 H 241.593 3.04108 0.797853 0
M  V30 2562 N 245.365 1.30045 0.890287 0
M  V30 2563 C 246.275 1.17885 2.02831 0
M  V30 2564 C 247.291 0.0999609 1.73713 0
M  V30 2565 O 248.467 0.313867 1.98939 0
M  V30 2566 C 245.532 0.866079 3.35708 0
M  V30 2567 C 244.593 2.02979 3.78283 0
M  V30 2568 C 243.826 1.73184 5.0482 0
M  V30 2569 O 244.049 0.657237 5.66601 0
M  V30 2570 O 242.983 2.58267 5.43674 0
M  V30 2571 H 246.809 2.13474 2.16015 0
M  V30 2572 H 244.394 1.09587 1.01543 0
M  V30 2573 H 246.276 0.706623 4.15433 0
M  V30 2574 H 244.951 -0.0599443 3.23644 0
M  V30 2575 H 243.858 2.24454 2.99285 0
M  V30 2576 H 245.191 2.93734 3.94944 0
M  V30 2577 N 246.843 -1.10192 1.12674 0
M  V30 2578 C 248.073 -1.85713 0.905213 0
M  V30 2579 C 248.481 -1.81056 -0.549108 0
M  V30 2580 O 247.824 -1.19927 -1.39151 0
M  V30 2581 C 247.886 -3.34972 1.30516 0
M  V30 2582 C 247.55 -3.63385 2.77129 0
M  V30 2583 C 248.547 -3.59772 3.75313 0
M  V30 2584 C 246.232 -3.91981 3.14096 0
M  V30 2585 C 248.226 -3.84354 5.08479 0
M  V30 2586 C 245.913 -4.16218 4.47443 0
M  V30 2587 C 246.911 -4.12395 5.44444 0
M  V30 2588 O 246.599 -4.36014 6.75387 0
M  V30 2589 H 246.331 -0.593719 0.323223 0
M  V30 2590 H 248.885 -1.40198 1.50112 0
M  V30 2591 H 247.115 -3.81156 0.652463 0
M  V30 2592 H 248.804 -3.91886 1.05736 0
M  V30 2593 H 249.57 -3.37716 3.48099 0
M  V30 2594 H 245.449 -3.94085 2.39202 0
M  V30 2595 H 248.993 -3.81285 5.84181 0
M  V30 2596 H 244.89 -4.37754 4.74386 0
M  V30 2597 H 245.658 -4.53516 6.8137 0
M  V30 2598 N 248.321 -0.919034 -1.28029 0
M  V30 2599 C 249.549 -0.570971 -1.98866 0
M  V30 2600 C 249.964 0.848996 -1.68634 0
M  V30 2601 O 249.321 1.56307 -0.942036 0
M  V30 2602 C 249.372 -0.776876 -3.53054 0
M  V30 2603 O 249.093 -2.14097 -3.82222 0
M  V30 2604 C 250.594 -0.436356 -4.41147 0
M  V30 2605 H 247.814 -0.217175 -0.634883 0
M  V30 2606 H 250.358 -1.23368 -1.63097 0
M  V30 2607 H 248.513 -0.161085 -3.87065 0
M  V30 2608 H 248.927 -2.18455 -4.76841 0
M  V30 2609 H 250.401 -0.63117 -5.4838 0
M  V30 2610 H 250.878 0.627686 -4.34692 0
M  V30 2611 H 251.484 -1.02991 -4.12641 0
M  V30 2612 N 249.799 1.42003 -0.683588 0
M  V30 2613 C 251.046 2.01413 -0.209514 0
M  V30 2614 C 251.374 1.54088 1.1869 0
M  V30 2615 O 250.629 0.737591 1.81268 0
M  V30 2616 C 250.928 3.56827 -0.202357 0
M  V30 2617 C 250.594 4.23617 -1.54464 0
M  V30 2618 C 249.256 4.41577 -1.91215 0
M  V30 2619 C 251.608 4.61178 -2.42826 0
M  V30 2620 C 248.936 4.9437 -3.15935 0
M  V30 2621 C 251.288 5.15355 -3.66867 0
M  V30 2622 C 249.952 5.31528 -4.03776 0
M  V30 2623 H 249.222 0.737023 -0.0766668 0
M  V30 2624 H 251.869 1.70067 -0.880312 0
M  V30 2625 H 250.174 3.87892 0.551969 0
M  V30 2626 H 251.871 4.00588 0.181793 0
M  V30 2627 H 248.461 4.10004 -1.24877 0
M  V30 2628 H 252.645 4.46968 -2.15717 0
M  V30 2629 H 247.901 5.05076 -3.44541 0
M  V30 2630 H 252.075 5.43402 -4.35531 0
M  V30 2631 H 249.702 5.72199 -5.00492 0
M  V30 2632 N 251.277 0.427512 1.51691 0
M  V30 2633 C 252.524 -0.142229 2.02 0
M  V30 2634 C 252.852 -1.43566 1.31221 0
M  V30 2635 O 252.107 -1.91298 0.412744 0
M  V30 2636 C 252.406 -0.418249 3.54944 0
M  V30 2637 C 252.072 0.788187 4.43958 0
M  V30 2638 C 250.734 1.11906 4.68007 0
M  V30 2639 C 253.086 1.59347 4.96244 0
M  V30 2640 C 250.414 2.25608 5.41588 0
M  V30 2641 C 252.766 2.7214 5.71072 0
M  V30 2642 C 251.43 3.05692 5.93387 0
M  V30 2643 H 250.7 -0.0520451 0.73917 0
M  V30 2644 H 253.347 0.572697 1.82736 0
M  V30 2645 H 251.652 -1.21496 3.72486 0
M  V30 2646 H 253.349 -0.872339 3.91397 0
M  V30 2647 H 249.939 0.520344 4.2543 0
M  V30 2648 H 254.123 1.35106 4.77556 0
M  V30 2649 H 249.379 2.51929 5.57083 0
M  V30 2650 H 253.553 3.34914 6.10578 0
M  V30 2651 H 251.18 3.9391 6.50184 0
M  V30 2652 N 252.755 -1.56801 0.158532 0
M  V30 2653 C 253.703 -2.18638 -0.793729 0
M  V30 2654 C 254.697 -1.14669 -1.24689 0
M  V30 2655 O 255.903 -1.32895 -1.21403 0
M  V30 2656 H 252.278 -0.700226 -0.274204 0
M  V30 2657 H 254.249 -2.97367 -0.248095 0
M  V30 2658 C 252.998 -2.83139 -2.0181 0
M  V30 2659 H 252.321 -3.62863 -1.67841 0
M  V30 2660 H 253.761 -3.29894 -2.66357 0
M  V30 2661 C 252.22 -1.82244 -2.83353 0
M  V30 2662 O 252.75 -1.3 -3.80083 0
M  V30 2663 N 250.956 -1.51288 -2.48114 0
M  V30 2664 H 250.503 -1.93964 -1.69516 0
M  V30 2665 H 250.461 -0.840296 -3.02963 0
M  V30 2666 N 254.233 0.115231 -1.57178 0
M  V30 2667 C 255.163 1.1423 -2.03651 0
M  V30 2668 C 256.144 1.42967 -0.921655 0
M  V30 2669 O 257.329 1.53343 -1.19162 0
M  V30 2670 C 254.459 2.4675 -2.44401 0
M  V30 2671 C 253.413 2.32467 -3.59365 0
M  V30 2672 C 252.739 3.69984 -3.86026 0
M  V30 2673 C 254.039 1.78203 -4.90959 0
M  V30 2674 H 255.733 0.755749 -2.89705 0
M  V30 2675 H 253.279 0.362093 -1.39373 0
M  V30 2676 H 255.232 3.18854 -2.75517 0
M  V30 2677 H 253.956 2.87302 -1.55322 0
M  V30 2678 H 252.615 1.62811 -3.28463 0
M  V30 2679 H 252.263 4.08028 -2.94147 0
M  V30 2680 H 251.963 3.61279 -4.63412 0
M  V30 2681 H 253.487 4.43587 -4.19599 0
M  V30 2682 H 254.901 2.40128 -5.20587 0
M  V30 2683 H 253.298 1.8031 -5.72371 0
M  V30 2684 H 254.368 0.739876 -4.79222 0
M  V30 2685 N 255.711 1.52812 0.385517 0
M  V30 2686 C 256.939 1.71907 1.15133 0
M  V30 2687 C 257.354 0.439004 1.83625 0
M  V30 2688 O 256.711 -0.586765 1.7281 0
M  V30 2689 C 256.762 2.87099 2.19673 0
M  V30 2690 O 256.483 4.10151 1.53973 0
M  V30 2691 C 257.984 3.17902 3.08955 0
M  V30 2692 H 255.204 0.575479 0.345057 0
M  V30 2693 H 257.748 1.99476 0.45052 0
M  V30 2694 H 255.903 2.61982 2.85384 0
M  V30 2695 H 256.317 4.74514 2.23465 0
M  V30 2696 H 257.791 4.01959 3.7833 0
M  V30 2697 H 258.268 2.3243 3.72657 0
M  V30 2698 H 258.874 3.44871 2.48885 0
M  V30 2699 N 257.189 -0.644168 1.43834 0
M  V30 2700 C 258.152 -1.73857 1.49353 0
M  V30 2701 C 259.152 -1.56315 0.377112 0
M  V30 2702 O 260.342 -1.62048 0.639226 0
M  V30 2703 C 257.474 -3.12819 1.35488 0
M  V30 2704 H 258.667 -1.70342 2.46827 0
M  V30 2705 H 256.22 -0.856652 1.30733 0
M  V30 2706 H 256.955 -3.2194 0.390569 0
M  V30 2707 H 256.74 -3.26958 2.16428 0
M  V30 2708 H 258.23 -3.92606 1.42302 0
M  V30 2709 N 258.668 -1.30515 -0.883378 0
M  V30 2710 C 259.916 -1.19194 -1.63209 0
M  V30 2711 C 260.237 0.253205 -1.93349 0
M  V30 2712 O 259.507 1.17025 -1.57105 0
M  V30 2713 H 258.087 -0.438148 -0.605009 0
M  V30 2714 H 260.749 -1.63663 -1.05832 0
M  V30 2715 H 259.845 -1.75396 -2.58153 0
M  V30 2716 N 260.146 1.09593 -1.13257 0
M  V30 2717 C 261.371 1.8604 -0.916732 0
M  V30 2718 C 261.796 1.80504 0.529146 0
M  V30 2719 O 261.154 1.18127 1.37534 0
M  V30 2720 C 261.202 3.32017 -1.40703 0
M  V30 2721 O 260.306 4.08141 -0.591153 0
M  V30 2722 H 259.647 0.576943 -0.328683 0
M  V30 2723 H 262.177 1.38405 -1.50682 0
M  V30 2724 H 262.187 3.82865 -1.4099 0
M  V30 2725 H 260.862 3.35361 -2.45979 0
M  V30 2726 H 259.439 3.67084 -0.656005 0
M  V30 2727 N 261.624 0.925811 1.2754 0
M  V30 2728 C 262.571 0.422045 2.26908 0
M  V30 2729 C 263.541 -0.510029 1.58076 0
M  V30 2730 O 264.726 -0.429599 1.85901 0
M  V30 2731 C 261.866 -0.320837 3.43605 0
M  V30 2732 C 260.979 0.64513 4.27156 0
M  V30 2733 C 260.114 -0.117405 5.3107 0
M  V30 2734 C 259.153 0.841391 6.0629 0
M  V30 2735 N 258.29 0.111604 7.02011 0
M  V30 2736 H 263.13 1.27441 2.69375 0
M  V30 2737 H 260.667 0.639697 1.32462 0
M  V30 2738 H 262.625 -0.76785 4.10073 0
M  V30 2739 H 261.255 -1.13745 3.02096 0
M  V30 2740 H 260.307 1.21067 3.6062 0
M  V30 2741 H 261.619 1.37797 4.79389 0
M  V30 2742 H 260.773 -0.624422 6.03478 0
M  V30 2743 H 259.512 -0.883219 4.79636 0
M  V30 2744 H 258.517 1.35967 5.32722 0
M  V30 2745 H 259.742 1.60696 6.59813 0
M  V30 2746 H 257.688 -0.635999 6.5291 0
M  V30 2747 H 257.605 0.784044 7.51923 0
M  V30 2748 H 258.873 -0.374823 7.78598 0
M  V30 2749 N 263.102 -1.41638 0.69111 0
M  V30 2750 C 264.332 -2.0533 0.228758 0
M  V30 2751 C 264.74 -1.52089 -1.12541 0
M  V30 2752 O 264.083 -0.662145 -1.71351 0
M  V30 2753 C 264.145 -3.59349 0.10407 0
M  V30 2754 C 263.809 -4.35362 1.38956 0
M  V30 2755 C 264.806 -4.64942 2.32648 0
M  V30 2756 C 262.491 -4.74714 1.64169 0
M  V30 2757 C 264.485 -5.32828 3.49818 0
M  V30 2758 C 262.172 -5.42338 2.81625 0
M  V30 2759 C 263.17 -5.71322 3.74273 0
M  V30 2760 O 262.858 -6.37554 4.89673 0
M  V30 2761 H 262.59 -0.667796 0.104997 0
M  V30 2762 H 265.144 -1.82477 0.942938 0
M  V30 2763 H 263.374 -3.80924 -0.665839 0
M  V30 2764 H 265.063 -4.04633 -0.320519 0
M  V30 2765 H 265.829 -4.35025 2.14425 0
M  V30 2766 H 261.708 -4.51538 0.929202 0
M  V30 2767 H 265.252 -5.55368 4.22152 0
M  V30 2768 H 261.149 -5.71673 2.99768 0
M  V30 2769 H 261.917 -6.56049 4.8943 0
M  V30 2770 N 264.58 -0.43555 -1.51462 0
M  V30 2771 C 265.528 0.391205 -2.29287 0
M  V30 2772 C 266.522 1.02247 -1.35062 0
M  V30 2773 O 267.728 0.957646 -1.52411 0
M  V30 2774 H 264.103 0.144968 -0.737895 0
M  V30 2775 H 266.074 -0.286051 -2.97026 0
M  V30 2776 C 264.823 1.48096 -3.14583 0
M  V30 2777 H 264.146 1.00457 -3.86973 0
M  V30 2778 H 265.586 2.03273 -3.72097 0
M  V30 2779 C 264.045 2.46321 -2.29843 0
M  V30 2780 O 264.575 3.50815 -1.95682 0
M  V30 2781 N 262.781 2.17166 -1.931 0
M  V30 2782 H 262.328 1.32218 -2.21079 0
M  V30 2783 H 262.286 2.83127 -1.36698 0
M  V30 2784 N 266.058 1.56714 -0.166846 0
M  V30 2785 C 267.307 1.95922 0.479318 0
M  V30 2786 C 267.62 1.05529 1.6469 0
M  V30 2787 O 268.826 1.34399 2.35901 0
M  V30 2788 C 267.282 3.48359 0.90412 0
M  V30 2789 C 266.89 4.47369 -0.237621 0
M  V30 2790 C 268.634 3.96394 1.51896 0
M  V30 2791 C 266.541 5.91039 0.206561 0
M  V30 2792 H 265.471 0.731495 0.18284 0
M  V30 2793 H 268.122 1.81728 -0.254363 0
M  V30 2794 H 266.504 3.57955 1.69365 0
M  V30 2795 H 267.678 4.49485 -1.01489 0
M  V30 2796 H 265.993 4.09366 -0.762128 0
M  V30 2797 H 268.59 5.01186 1.86325 0
M  V30 2798 H 268.933 3.39075 2.41524 0
M  V30 2799 H 269.466 3.89796 0.79395 0
M  V30 2800 H 266.205 6.52221 -0.654834 0
M  V30 2801 H 265.725 5.9224 0.949282 0
M  V30 2802 H 267.404 6.43707 0.651939 0
M  V30 2803 N 267.536 -0.106894 1.57237 0
M  V30 2804 C 268.499 -1.11466 2.0027 0
M  V30 2805 C 269.499 -1.33623 0.894519 0
M  V30 2806 O 270.689 -1.29935 1.16028 0
M  V30 2807 C 267.821 -2.46646 2.35327 0
M  V30 2808 H 269.014 -0.744516 2.90512 0
M  V30 2809 H 266.567 -0.351576 1.52295 0
M  V30 2810 H 267.302 -2.88558 1.48003 0
M  V30 2811 H 267.087 -2.31915 3.16161 0
M  V30 2812 H 268.577 -3.19151 2.69318 0
M  V30 2813 N 269.014 -1.53014 -0.377408 0
M  V30 2814 C 270.263 -1.67845 -1.11853 0
M  V30 2815 C 270.576 -0.430625 -1.90801 0
M  V30 2816 O 271.782 -0.459261 -2.67587 0
M  V30 2817 C 270.238 -2.96668 -2.03756 0
M  V30 2818 C 269.846 -4.28671 -1.30175 0
M  V30 2819 C 271.59 -3.20865 -2.77932 0
M  V30 2820 C 269.497 -5.48591 -2.20911 0
M  V30 2821 H 268.427 -0.625343 -0.421263 0
M  V30 2822 H 271.078 -1.79514 -0.380409 0
M  V30 2823 H 269.46 -2.78773 -2.8125 0
M  V30 2824 H 270.634 -4.57157 -0.578259 0
M  V30 2825 H 268.949 -4.10825 -0.679108 0
M  V30 2826 H 271.546 -4.07642 -3.46024 0
M  V30 2827 H 271.889 -2.36424 -3.4265 0
M  V30 2828 H 272.422 -3.39379 -2.07525 0
M  V30 2829 H 269.161 -6.35474 -1.6079 0
M  V30 2830 H 268.681 -5.244 -2.91144 0
M  V30 2831 H 270.36 -5.8292 -2.80736 0
M  V30 2832 N 270.492 0.636531 -1.44174 0
M  V30 2833 C 271.72 1.42353 -1.50144 0
M  V30 2834 C 272.135 1.88389 -0.124575 0
M  V30 2835 O 271.492 1.6051 0.868489 0
M  V30 2836 C 271.543 2.64744 -2.46156 0
M  V30 2837 O 271.264 2.20629 -3.7849 0
M  V30 2838 C 272.765 3.57929 -2.61537 0
M  V30 2839 H 269.985 0.436752 -0.5094 0
M  V30 2840 H 272.529 0.778933 -1.89084 0
M  V30 2841 H 270.684 3.25307 -2.10366 0
M  V30 2842 H 271.098 2.99938 -4.30276 0
M  V30 2843 H 272.572 4.40428 -3.32757 0
M  V30 2844 H 273.049 4.06382 -1.66585 0
M  V30 2845 H 273.655 3.03238 -2.98206 0
M  V30 2846 N 271.97 1.30982 0.876444 0
M  V30 2847 C 272.933 1.18054 1.96459 0
M  V30 2848 C 273.933 0.109399 1.60427 0
M  V30 2849 O 275.123 0.358173 1.70478 0
M  V30 2850 C 272.255 0.810616 3.31122 0
M  V30 2851 H 273.448 2.14735 2.09354 0
M  V30 2852 H 271.001 1.145 1.06392 0
M  V30 2853 H 271.736 -0.155322 3.23928 0
M  V30 2854 H 271.521 1.58481 3.58645 0
M  V30 2855 H 273.011 0.743876 4.10921 0
M  V30 2856 N 273.449 -1.08991 1.13837 0
M  V30 2857 C 274.695 -1.81526 0.90422 0
M  V30 2858 C 275.028 -1.85706 -0.568066 0
M  V30 2859 O 274.303 -1.32855 -1.42056 0
M  V30 2860 C 274.586 -3.27447 1.49835 0
M  V30 2861 C 274.439 -3.31512 3.04006 0
M  V30 2862 C 275.758 -4.24256 1.17025 0
M  V30 2863 H 272.877 -0.659029 0.329923 0
M  V30 2864 H 275.519 -1.27644 1.40737 0
M  V30 2865 H 273.669 -3.73462 1.07044 0
M  V30 2866 H 275.341 -2.93867 3.55584 0
M  V30 2867 H 273.584 -2.70963 3.38765 0
M  V30 2868 H 274.255 -4.34329 3.40679 0
M  V30 2869 H 276.731 -3.86549 1.54009 0
M  V30 2870 H 275.607 -5.24684 1.61237 0
M  V30 2871 H 275.868 -4.42019 0.0846274 0
M  V30 2872 N 274.927 -0.932562 -1.27047 0
M  V30 2873 C 276.152 -0.591474 -1.98787 0
M  V30 2874 C 276.577 0.824601 -1.69062 0
M  V30 2875 O 275.935 1.5541 -0.933677 0
M  V30 2876 C 275.983 -0.829808 -3.50922 0
M  V30 2877 O 275.087 0.102266 -4.12273 0
M  V30 2878 H 274.428 -0.227185 -0.623926 0
M  V30 2879 H 276.958 -1.25314 -1.61733 0
M  V30 2880 H 276.968 -0.747292 -4.01098 0
M  V30 2881 H 275.643 -1.86201 -3.7189 0
M  V30 2882 H 274.22 -0.0305761 -3.72887 0
M  V30 2883 N 276.405 1.4127 -0.698611 0
M  V30 2884 C 277.653 2.00782 -0.230409 0
M  V30 2885 C 277.974 1.5562 1.17505 0
M  V30 2886 O 277.244 0.78815 1.79346 0
M  V30 2887 H 275.824 0.742464 -0.0821944 0
M  V30 2888 H 278.486 1.72852 -0.90045 0
M  V30 2889 H 277.582 3.11095 -0.25021 0
M  V30 2890 N 277.883 0.443576 1.51229 0
M  V30 2891 C 279.131 -0.120557 2.0174 0
M  V30 2892 C 279.452 -1.42665 1.32935 0
M  V30 2893 O 278.722 -1.9028 0.465866 0
M  V30 2894 H 277.302 -0.0475426 0.745486 0
M  V30 2895 H 279.964 0.587711 1.85828 0
M  V30 2896 H 279.06 -0.291972 3.10731 0
M  V30 2897 N 279.361 -1.56624 0.175154 0
M  V30 2898 C 280.308 -2.18149 -0.753634 0
M  V30 2899 C 281.278 -1.12265 -1.22417 0
M  V30 2900 O 282.463 -1.40432 -1.29165 0
M  V30 2901 C 279.603 -2.82933 -1.97592 0
M  V30 2902 C 278.716 -4.03289 -1.5486 0
M  V30 2903 C 277.851 -4.55988 -2.72485 0
M  V30 2904 C 276.89 -5.68746 -2.26262 0
M  V30 2905 N 276.027 -6.15938 -3.36994 0
M  V30 2906 H 280.867 -2.9717 -0.222195 0
M  V30 2907 H 278.404 -1.46774 -0.0979422 0
M  V30 2908 H 280.362 -3.18653 -2.69288 0
M  V30 2909 H 278.992 -2.06509 -2.481 0
M  V30 2910 H 278.044 -3.73364 -0.728246 0
M  V30 2911 H 279.356 -4.849 -1.16933 0
M  V30 2912 H 278.51 -4.9391 -3.52332 0
M  V30 2913 H 277.249 -3.73443 -3.13674 0
M  V30 2914 H 276.254 -5.30372 -1.44863 0
M  V30 2915 H 277.479 -6.53095 -1.86127 0
M  V30 2916 H 275.425 -5.36321 -3.77751 0
M  V30 2917 H 275.342 -6.92548 -3.03172 0
M  V30 2918 H 276.61 -6.58511 -4.17114 0
M  V30 2919 N 280.839 0.0985539 -1.57292 0
M  V30 2920 C 282.255 0.45267 -1.53046 0
M  V30 2921 C 282.455 1.80713 -0.891342 0
M  V30 2922 O 281.511 2.4785 -0.482375 0
M  V30 2923 C 282.824 0.418341 -2.97776 0
M  V30 2924 C 284.372 0.500443 -3.08973 0
M  V30 2925 C 284.847 0.496297 -4.55303 0
M  V30 2926 N 286.338 0.557151 -4.59837 0
M  V30 2927 C 287.073 0.575726 -5.70502 0
M  V30 2928 N 286.569 0.550714 -6.90608 0
M  V30 2929 N 288.362 0.620277 -5.58667 0
M  V30 2930 H 280.513 -0.788673 -1.97215 0
M  V30 2931 H 282.776 -0.293188 -0.901524 0
M  V30 2932 H 282.482 -0.509659 -3.47988 0
M  V30 2933 H 282.356 1.2386 -3.56284 0
M  V30 2934 H 284.743 1.41886 -2.58751 0
M  V30 2935 H 284.824 -0.347894 -2.53423 0
M  V30 2936 H 284.468 -0.418162 -5.06176 0
M  V30 2937 H 284.398 1.3618 -5.08687 0
M  V30 2938 H 286.889 0.581816 -3.73394 0
M  V30 2939 H 287.202 0.568075 -7.70709 0
M  V30 2940 H 285.547 0.517816 -6.93068 0
M  V30 2941 H 288.738 0.637322 -4.63741 0
M  V30 2942 H 288.911 0.631283 -6.44918 0
M  V30 2943 N 282.317 1.53212 0.369288 0
M  V30 2944 C 283.542 1.73423 1.1375 0
M  V30 2945 C 283.967 0.460404 1.82378 0
M  V30 2946 O 283.325 -0.585298 1.71592 0
M  V30 2947 C 283.373 2.89769 2.1463 0
M  V30 2948 O 282.477 2.58119 3.21634 0
M  V30 2949 H 281.818 0.576061 0.330227 0
M  V30 2950 H 284.348 2.00083 0.427547 0
M  V30 2951 H 284.358 3.15829 2.58294 0
M  V30 2952 H 283.033 3.8217 1.64071 0
M  V30 2953 H 281.61 2.42864 2.82969 0
M  V30 2954 N 283.795 -0.628877 1.44509 0
M  V30 2955 C 285.042 -1.38839 1.47411 0
M  V30 2956 C 285.37 -1.94202 0.10757 0
M  V30 2957 O 284.625 -1.74243 -0.890947 0
M  V30 2958 C 284.924 -2.56995 2.48371 0
M  V30 2959 C 284.59 -2.19908 3.93639 0
M  V30 2960 C 283.252 -2.09506 4.33198 0
M  V30 2961 C 285.604 -1.9064 4.85083 0
M  V30 2962 C 282.932 -1.68028 5.62124 0
M  V30 2963 C 285.284 -1.50655 6.14399 0
M  V30 2964 C 283.948 -1.38796 6.5291 0
M  V30 2965 H 283.218 -0.508048 0.539414 0
M  V30 2966 H 285.865 -0.712913 1.77735 0
M  V30 2967 H 284.17 -3.29786 2.11538 0
M  V30 2968 H 285.867 -3.15223 2.47861 0
M  V30 2969 H 282.457 -2.28922 3.62343 0
M  V30 2970 H 286.641 -1.97585 4.55273 0
M  V30 2971 H 281.897 -1.57452 5.90778 0
M  V30 2972 H 286.071 -1.27048 6.84713 0
M  V30 2973 H 283.698 -1.06429 7.52713 0
M  V30 2974 N 285.273 -1.31445 -0.869486 0
M  V30 2975 C 286.498 -1.24256 -1.66058 0
M  V30 2976 C 286.923 0.188928 -1.87149 0
M  V30 2977 O 286.281 1.13522 -1.4136 0
M  V30 2978 C 286.329 -1.9924 -3.00559 0
M  V30 2979 O 285.433 -1.33007 -3.90362 0
M  V30 2980 H 284.774 -0.428973 -0.506831 0
M  V30 2981 H 287.304 -1.73521 -1.08404 0
M  V30 2982 H 287.314 -2.08854 -3.50491 0
M  V30 2983 H 285.989 -3.03342 -2.84528 0
M  V30 2984 H 284.566 -1.31848 -3.48813 0
M  V30 2985 N 286.751 1.08385 -1.14413 0
M  V30 2986 C 287.997 1.81044 -0.913834 0
M  V30 2987 C 288.33 1.86004 0.558209 0
M  V30 2988 O 287.605 1.33606 1.4135 0
M  V30 2989 C 287.888 3.26648 -1.51569 0
M  V30 2990 C 287.741 3.29895 -3.0576 0
M  V30 2991 C 289.06 4.23629 -1.19273 0
M  V30 2992 H 286.179 0.65727 -0.333414 0
M  V30 2993 H 288.821 1.26896 -1.41412 0
M  V30 2994 H 286.971 3.72889 -1.09023 0
M  V30 2995 H 288.643 2.91977 -3.57137 0
M  V30 2996 H 286.886 2.69163 -3.40197 0
M  V30 2997 H 287.557 4.32516 -3.42977 0
M  V30 2998 H 290.033 3.85727 -1.56057 0
M  V30 2999 H 288.909 5.23822 -1.64017 0
M  V30 3000 H 289.17 4.41968 -0.108068 0
M  V30 3001 N 288.23 0.939286 1.26551 0
M  V30 3002 C 289.46 0.601663 1.97645 0
M  V30 3003 C 289.868 -0.827206 1.70159 0
M  V30 3004 O 289.211 -1.56291 0.965338 0
M  V30 3005 C 289.273 0.761725 3.51337 0
M  V30 3006 C 288.937 2.16487 4.0247 0
M  V30 3007 C 289.934 3.14016 4.14355 0
M  V30 3008 C 287.619 2.48494 4.36527 0
M  V30 3009 C 289.613 4.41654 4.59587 0
M  V30 3010 C 287.3 3.76364 4.81449 0
M  V30 3011 C 288.298 4.72758 4.92939 0
M  V30 3012 O 287.986 5.98352 5.36871 0
M  V30 3013 H 287.718 0.225758 0.637189 0
M  V30 3014 H 290.272 1.26178 1.62075 0
M  V30 3015 H 288.502 0.0444808 3.86674 0
M  V30 3016 H 290.191 0.427442 4.03643 0
M  V30 3017 H 290.957 2.90613 3.8829 0
M  V30 3018 H 286.836 1.74202 4.26819 0
M  V30 3019 H 290.38 5.16896 4.68471 0
M  V30 3020 H 286.277 3.99582 5.06956 0
M  V30 3021 H 287.045 6.01507 5.55096 0
M  V30 3022 N 289.708 -1.40897 0.706093 0
M  V30 3023 C 290.936 -2.05373 0.250887 0
M  V30 3024 C 291.351 -1.53172 -1.10381 0
M  V30 3025 O 290.708 -0.684305 -1.69185 0
M  V30 3026 C 290.759 -3.6088 0.211571 0
M  V30 3027 O 290.48 -4.11153 1.51276 0
M  V30 3028 C 291.981 -4.42517 -0.263346 0
M  V30 3029 H 289.201 -0.66115 0.114552 0
M  V30 3030 H 291.745 -1.80479 0.961635 0
M  V30 3031 H 289.9 -3.84777 -0.450073 0
M  V30 3032 H 290.314 -5.05279 1.40689 0
M  V30 3033 H 291.788 -5.51479 -0.239718 0
M  V30 3034 H 292.265 -4.19396 -1.30397 0
M  V30 3035 H 292.871 -4.23708 0.367677 0
M  V30 3036 N 291.186 -0.45159 -1.50991 0
M  V30 3037 C 292.134 0.366864 -2.29689 0
M  V30 3038 C 293.128 1.00809 -1.36139 0
M  V30 3039 O 294.334 0.941427 -1.53418 0
M  V30 3040 H 290.709 0.137133 -0.739391 0
M  V30 3041 H 292.68 -0.317538 -2.96706 0
M  V30 3042 C 291.429 1.44751 -3.16137 0
M  V30 3043 H 290.752 0.963473 -3.88017 0
M  V30 3044 H 292.192 1.99315 -3.74232 0
M  V30 3045 C 290.651 2.43869 -2.32442 0
M  V30 3046 O 291.181 3.4872 -1.99392 0
M  V30 3047 N 289.387 2.15105 -1.95392 0
M  V30 3048 H 288.934 1.29866 -2.22469 0
M  V30 3049 H 288.892 2.81661 -1.39693 0
M  V30 3050 N 292.664 1.56529 -0.183458 0
M  V30 3051 C 293.912 1.96855 0.457452 0
M  V30 3052 C 294.233 1.07104 1.62953 0
M  V30 3053 O 293.503 0.139887 1.954 0
M  V30 3054 H 292.083 0.72693 0.171992 0
M  V30 3055 H 294.745 1.93056 -0.267476 0
M  V30 3056 H 293.841 3.01423 0.809368 0
M  V30 3057 N 294.142 -0.090211 1.57342 0
M  V30 3058 C 295.367 -0.810082 1.90925 0
M  V30 3059 C 295.792 -1.71248 0.778187 0
M  V30 3060 O 295.15 -1.79278 -0.269991 0
M  V30 3061 C 295.198 -1.59529 3.23393 0
M  V30 3062 O 294.302 -2.70461 3.11327 0
M  V30 3063 H 293.643 -0.222231 0.625707 0
M  V30 3064 H 296.173 -0.0639716 2.045 0
M  V30 3065 H 296.183 -1.97847 3.5682 0
M  V30 3066 H 294.858 -0.933055 4.05299 0
M  V30 3067 H 293.435 -2.35135 2.89423 0
M  V30 3068 N 295.62 -1.53406 -0.361157 0
M  V30 3069 C 296.848 -1.73717 -1.12383 0
M  V30 3070 C 297.263 -0.468161 -1.82904 0
M  V30 3071 O 296.62 0.559198 -1.73722 0
M  V30 3072 C 296.671 -2.90558 -2.15078 0
M  V30 3073 O 296.392 -4.12549 -1.47428 0
M  V30 3074 C 297.893 -3.22777 -3.03858 0
M  V30 3075 H 295.113 -0.580896 -0.335858 0
M  V30 3076 H 297.657 -2.00167 -0.418728 0
M  V30 3077 H 295.812 -2.66489 -2.8118 0
M  V30 3078 H 296.226 -4.78009 -2.15887 0
M  V30 3079 H 297.7 -4.07927 -3.71887 0
M  V30 3080 H 298.177 -2.38329 -3.68912 0
M  V30 3081 H 298.783 -3.48787 -2.43367 0
M  V30 3082 N 297.098 0.621204 -1.44841 0
M  V30 3083 C 298.344 1.3826 -1.48365 0
M  V30 3084 C 298.677 1.93831 -0.119624 0
M  V30 3085 O 297.952 1.74251 0.864111 0
M  V30 3086 C 298.235 2.54058 -2.55199 0
M  V30 3087 C 298.088 2.03772 -4.00995 0
M  V30 3088 C 299.407 3.56225 -2.58442 0
M  V30 3089 H 296.526 0.501374 -0.540179 0
M  V30 3090 H 299.168 0.7015 -1.76576 0
M  V30 3091 H 297.318 3.12162 -2.31274 0
M  V30 3092 H 298.99 1.50423 -4.36086 0
M  V30 3093 H 297.233 1.34876 -4.12299 0
M  V30 3094 H 297.904 2.87185 -4.71411 0
M  V30 3095 H 300.38 3.07939 -2.79844 0
M  V30 3096 H 299.256 4.34756 -3.3508 0
M  V30 3097 H 299.517 4.10949 -1.63013 0
M  V30 3098 N 298.576 1.31904 0.862503 0
M  V30 3099 C 299.987 1.19803 1.43193 0
M  V30 3100 C 300.338 -0.192567 1.95253 0
M  V30 3101 O 299.463 -1.09081 1.86896 0
M  V30 3102 C 300.058 2.16883 2.60283 0
M  V30 3103 C 298.617 2.08692 3.13248 0
M  V30 3104 C 297.764 2.05691 1.85975 0
M  V30 3105 H 300.715 1.43846 0.670365 0
M  V30 3106 H 300.736 1.76278 3.37204 0
M  V30 3107 H 300.248 3.18083 2.22363 0
M  V30 3108 H 298.349 1.10713 3.55771 0
M  V30 3109 H 298.462 2.9815 3.75025 0
M  V30 3110 H 296.826 1.50814 2.05249 0
M  V30 3111 H 297.609 3.08659 1.50282 0
M  V30 3112 N 300.054 -1.07777 1.14986 0
M  V30 3113 C 301.279 -1.84558 0.946213 0
M  V30 3114 C 301.704 -1.81323 -0.500362 0
M  V30 3115 O 301.062 -1.20301 -1.35637 0
M  V30 3116 C 301.11 -3.29736 1.45968 0
M  V30 3117 O 300.214 -4.07149 0.65601 0
M  V30 3118 H 299.555 -0.571641 0.33782 0
M  V30 3119 H 302.085 -1.35991 1.52865 0
M  V30 3120 H 302.095 -3.80574 1.47063 0
M  V30 3121 H 300.77 -3.31406 2.51283 0
M  V30 3122 H 299.347 -3.65994 0.714322 0
M  V30 3123 N 301.532 -0.945985 -1.26051 0
M  V30 3124 C 302.943 -0.638096 -1.75457 0
M  V30 3125 C 303.294 0.846672 -1.76991 0
M  V30 3126 O 302.419 1.66262 -1.38513 0
M  V30 3127 C 303.014 -1.15157 -3.18629 0
M  V30 3128 C 301.573 -0.894004 -3.65629 0
M  V30 3129 C 300.72 -1.29967 -2.44957 0
M  V30 3130 H 303.671 -1.12376 -1.1206 0
M  V30 3131 H 303.692 -0.507615 -3.77099 0
M  V30 3132 H 303.204 -2.23222 -3.1748 0
M  V30 3133 H 301.305 0.172057 -3.72203 0
M  V30 3134 H 301.418 -1.52439 -4.54202 0
M  V30 3135 H 299.782 -0.718078 -2.44368 0
M  V30 3136 H 300.565 -2.38935 -2.46505 0
M  V30 3137 N 303.011 1.40521 -0.713556 0
M  V30 3138 C 304.257 2.01221 -0.252564 0
M  V30 3139 C 304.59 1.56444 1.1506 0
M  V30 3140 O 303.865 0.783597 1.78017 0
M  V30 3141 C 304.148 3.58582 -0.330332 0
M  V30 3142 C 304.001 4.13437 -1.77173 0
M  V30 3143 C 305.32 4.39079 0.299641 0
M  V30 3144 H 302.439 0.731077 -0.0932471 0
M  V30 3145 H 305.081 1.67026 -0.905673 0
M  V30 3146 H 303.231 3.87844 0.225737 0
M  V30 3147 H 304.903 3.9498 -2.38303 0
M  V30 3148 H 303.146 3.67801 -2.3001 0
M  V30 3149 H 303.817 5.22597 -1.77755 0
M  V30 3150 H 306.293 4.15735 -0.174139 0
M  V30 3151 H 305.169 5.4848 0.214771 0
M  V30 3152 H 305.43 4.19915 1.38288 0
M  V30 3153 N 304.489 0.459591 1.5075 0
M  V30 3154 C 305.436 -0.340524 2.28274 0
M  V30 3155 C 306.406 -0.997371 1.32822 0
M  V30 3156 O 307.591 -1.01202 1.61749 0
M  V30 3157 C 304.731 -1.42317 3.14388 0
M  V30 3158 C 303.844 -0.782251 4.24859 0
M  V30 3159 C 302.979 -1.84182 4.98247 0
M  V30 3160 C 302.018 -1.18053 6.00608 0
M  V30 3161 N 301.155 -2.18244 6.67319 0
M  V30 3162 H 305.995 0.326899 2.96202 0
M  V30 3163 H 303.532 0.173057 1.46078 0
M  V30 3164 H 305.49 -2.06241 3.62658 0
M  V30 3165 H 304.12 -2.05992 2.4853 0
M  V30 3166 H 303.172 -0.0307404 3.80388 0
M  V30 3167 H 304.484 -0.259663 4.98124 0
M  V30 3168 H 303.638 -2.55714 5.50177 0
M  V30 3169 H 302.377 -2.39819 4.24662 0
M  V30 3170 H 301.382 -0.450776 5.47949 0
M  V30 3171 H 302.607 -0.631202 6.7616 0
M  V30 3172 H 300.553 -2.72919 5.96533 0
M  V30 3173 H 300.47 -1.70938 7.36421 0
M  V30 3174 H 301.738 -2.89191 7.23871 0
M  V30 3175 N 305.967 -1.56429 0.191757 0
M  V30 3176 C 307.244 -1.89224 -0.495332 0
M  V30 3177 C 307.624 -1.10478 -1.79883 0
M  V30 3178 O 306.972 -0.204852 -2.2758 0
M  V30 3179 C 307.182 -3.41548 -0.717367 0
M  V30 3180 C 308.53 -4.11711 -1.03823 0
M  V30 3181 O 309.554 -3.4698 -0.805204 0
M  V30 3182 O 308.413 -5.2611 -1.47887 0
M  V30 3183 H 305.507 -0.785788 -0.25781 0
M  V30 3184 H 308.053 -1.68111 0.231721 0
M  V30 3185 H 306.825 -3.90772 0.203287 0
M  V30 3186 H 306.448 -3.68342 -1.497 0
M  V30 3187 N 307.445 0.0818655 -1.57387 0
M  V30 3188 C 308.694 0.781681 -1.85937 0
M  V30 3189 C 309.007 1.79246 -0.782957 0
M  V30 3190 O 310.213 2.54112 -0.955987 0
M  V30 3191 C 308.669 1.44109 -3.29789 0
M  V30 3192 C 308.277 0.469396 -4.45534 0
M  V30 3193 C 310.021 2.12386 -3.67549 0
M  V30 3194 C 307.928 1.13415 -5.80423 0
M  V30 3195 H 306.858 0.295682 -0.693605 0
M  V30 3196 H 309.509 0.0348051 -1.83467 0
M  V30 3197 H 307.891 2.23588 -3.2684 0
M  V30 3198 H 309.065 -0.294856 -4.59856 0
M  V30 3199 H 307.38 -0.108383 -4.16259 0
M  V30 3200 H 309.977 2.62878 -4.65617 0
M  V30 3201 H 310.32 2.91877 -2.96839 0
M  V30 3202 H 310.853 1.39751 -3.72444 0
M  V30 3203 H 307.592 0.379771 -6.54399 0
M  V30 3204 H 307.112 1.8695 -5.69921 0
M  V30 3205 H 308.791 1.65686 -6.25426 0
M  V30 3206 N 308.923 1.53595 0.353017 0
M  V30 3207 C 310.171 1.70049 1.09215 0
M  V30 3208 C 310.492 0.461406 1.89463 0
M  V30 3209 O 309.762 -0.524633 1.88744 0
M  V30 3210 H 308.342 0.626912 0.40619 0
M  V30 3211 H 311.004 1.90822 0.396585 0
M  V30 3212 H 310.1 2.56718 1.77488 0
M  V30 3213 N 310.401 -0.613514 1.45168 0
M  V30 3214 C 311.65 -1.36874 1.4815 0
M  V30 3215 C 311.963 -1.952 0.124982 0
M  V30 3216 O 313.169 -2.71481 0.0324176 0
M  V30 3217 C 311.625 -2.47905 2.60904 0
M  V30 3218 C 311.233 -1.96016 4.02842 0
M  V30 3219 C 312.977 -3.24965 2.73126 0
M  V30 3220 C 310.884 -3.04494 5.06988 0
M  V30 3221 H 309.814 -0.514428 0.551253 0
M  V30 3222 H 312.465 -0.658182 1.7129 0
M  V30 3223 H 310.847 -3.21618 2.31037 0
M  V30 3224 H 312.021 -1.29051 4.4236 0
M  V30 3225 H 310.336 -1.31719 3.95018 0
M  V30 3226 H 312.933 -4.05865 3.48106 0
M  V30 3227 H 313.276 -3.75588 1.79553 0
M  V30 3228 H 313.809 -2.5835 3.0249 0
M  V30 3229 H 310.548 -2.58795 6.0225 0
M  V30 3230 H 310.068 -3.70044 4.72046 0
M  V30 3231 H 311.747 -3.68976 5.31475 0
M  V30 3232 N 311.879 -1.3236 -0.855495 0
M  V30 3233 C 313.104 -1.2601 -1.64731 0
M  V30 3234 C 313.529 0.169068 -1.87339 0
M  V30 3235 O 312.887 1.12016 -1.42556 0
M  V30 3236 C 312.935 -2.02417 -2.98429 0
M  V30 3237 O 312.039 -1.3714 -3.8893 0
M  V30 3238 H 311.38 -0.434325 -0.502253 0
M  V30 3239 H 313.91 -1.74661 -1.06558 0
M  V30 3240 H 313.92 -2.12559 -3.48257 0
M  V30 3241 H 312.595 -3.06343 -2.81295 0
M  V30 3242 H 311.172 -1.3554 -3.47395 0
M  V30 3243 N 313.357 1.07166 -1.15556 0
M  V30 3244 C 314.585 1.83514 -0.955519 0
M  V30 3245 C 315 1.82163 0.49621 0
M  V30 3246 O 314.357 1.23441 1.34419 0
M  V30 3247 C 314.408 3.30515 -1.46432 0
M  V30 3248 O 314.129 3.31937 -2.85918 0
M  V30 3249 C 315.63 4.23625 -1.30603 0
M  V30 3250 H 312.85 0.578926 -0.339244 0
M  V30 3251 H 315.394 1.35265 -1.53374 0
M  V30 3252 H 313.549 3.76106 -0.928584 0
M  V30 3253 H 313.963 4.23794 -3.09029 0
M  V30 3254 H 315.437 5.24831 -1.71047 0
M  V30 3255 H 315.914 4.38485 -0.250441 0
M  V30 3256 H 316.52 3.83871 -1.83094 0
M  V30 3257 N 314.835 0.952656 1.25548 0
M  V30 3258 C 315.782 0.47008 2.25962 0
M  V30 3259 C 316.752 -0.476384 1.59122 0
M  V30 3260 O 317.937 -0.39007 1.8677 0
M  V30 3261 C 315.077 -0.247881 3.44209 0
M  V30 3262 C 314.19 0.735591 4.25691 0
M  V30 3263 C 313.325 -0.0047306 5.312 0
M  V30 3264 C 312.364 0.969805 6.04368 0
M  V30 3265 N 311.501 0.260486 7.01617 0
M  V30 3266 H 316.341 1.33126 2.66611 0
M  V30 3267 H 313.878 0.66765 1.31076 0
M  V30 3268 H 315.836 -0.680695 4.1161 0
M  V30 3269 H 314.466 -1.07312 3.0444 0
M  V30 3270 H 313.518 1.28689 3.57971 0
M  V30 3271 H 314.83 1.47934 4.76358 0
M  V30 3272 H 313.984 -0.496275 6.04667 0
M  V30 3273 H 312.723 -0.781282 4.81401 0
M  V30 3274 H 311.728 1.47237 5.29718 0
M  V30 3275 H 312.953 1.74655 6.56256 0
M  V30 3276 H 310.899 -0.497364 6.54112 0
M  V30 3277 H 310.816 0.943362 7.50091 0
M  V30 3278 H 312.084 -0.209587 7.79218 0
M  V30 3279 N 316.313 -1.40141 0.720998 0
M  V30 3280 C 317.276 -2.29058 0.0805834 0
M  V30 3281 C 318.276 -1.45632 -0.681758 0
M  V30 3282 O 319.466 -1.6648 -0.512856 0
M  V30 3283 C 316.598 -3.28925 -0.895593 0
M  V30 3284 H 317.791 -2.87191 0.863793 0
M  V30 3285 H 315.344 -1.48553 0.485975 0
M  V30 3286 H 316.079 -2.75822 -1.70566 0
M  V30 3287 H 315.864 -3.90519 -0.351766 0
M  V30 3288 H 317.354 -3.95494 -1.34069 0
M  V30 3289 N 317.792 -0.46758 -1.50504 0
M  V30 3290 C 318.74 0.342482 -2.30065 0
M  V30 3291 C 319.734 0.993596 -1.37201 0
M  V30 3292 O 320.94 0.925102 -1.54408 0
M  V30 3293 H 317.315 0.129283 -0.740803 0
M  V30 3294 H 319.286 -0.34899 -2.96352 0
M  V30 3295 C 318.035 1.4139 -3.17654 0
M  V30 3296 H 317.358 0.922264 -3.89017 0
M  V30 3297 H 318.798 1.95335 -3.76325 0
M  V30 3298 C 317.257 2.4139 -2.35016 0
M  V30 3299 O 317.787 3.46586 -2.03079 0
M  V30 3300 N 315.993 2.13021 -1.97662 0
M  V30 3301 H 315.54 1.27499 -2.23834 0
M  V30 3302 H 315.498 2.80164 -1.42673 0
M  V30 3303 N 319.27 1.56325 -0.20005 0
M  V30 3304 C 320.495 2.02548 0.44597 0
M  V30 3305 C 320.92 1.07922 1.5406 0
M  V30 3306 O 320.278 0.0635775 1.81188 0
M  V30 3307 C 320.326 3.47175 0.974761 0
M  V30 3308 O 319.43 3.55671 2.08739 0
M  V30 3309 H 318.771 0.655862 0.103638 0
M  V30 3310 H 321.301 2.02201 -0.312381 0
M  V30 3311 H 321.311 3.87067 1.2901 0
M  V30 3312 H 319.986 4.15538 0.17347 0
M  V30 3313 H 318.563 3.27657 1.78032 0
M  V30 3314 N 320.748 -0.0735177 1.57428 0
M  V30 3315 C 321.678 -1.0879 2.06608 0
M  V30 3316 C 322.659 -1.40473 0.959237 0
M  V30 3317 O 323.844 -1.5013 1.23185 0
M  V30 3318 C 320.974 -2.40183 2.50857 0
M  V30 3319 C 319.928 -2.22858 3.65402 0
M  V30 3320 C 319.254 -3.59619 3.957 0
M  V30 3321 C 320.554 -1.65123 4.95511 0
M  V30 3322 H 322.248 -0.678673 2.91607 0
M  V30 3323 H 319.794 -0.325013 1.40284 0
M  V30 3324 H 321.747 -3.11437 2.83874 0
M  V30 3325 H 320.471 -2.83083 1.62885 0
M  V30 3326 H 319.13 -1.54045 3.32664 0
M  V30 3327 H 318.778 -4.00086 3.04861 0
M  V30 3328 H 318.478 -3.48866 4.72828 0
M  V30 3329 H 320.002 -4.32306 4.31212 0
M  V30 3330 H 321.416 -2.26241 5.26771 0
M  V30 3331 H 319.813 -1.65071 5.7695 0
M  V30 3332 H 320.883 -0.612559 4.81015 0
M  V30 3333 N 322.226 -1.5378 -0.344866 0
M  V30 3334 C 323.156 -1.84662 -1.42906 0
M  V30 3335 C 324.137 -0.701648 -1.54955 0
M  V30 3336 O 325.322 -0.953438 -1.69184 0
M  V30 3337 C 322.452 -2.05503 -2.79974 0
M  V30 3338 C 321.406 -3.21318 -2.82734 0
M  V30 3339 C 320.732 -3.2749 -4.22675 0
M  V30 3340 C 322.032 -4.59456 -2.48389 0
M  V30 3341 H 323.726 -2.75461 -1.17311 0
M  V30 3342 H 321.272 -1.32542 -0.562896 0
M  V30 3343 H 323.225 -2.25691 -3.55867 0
M  V30 3344 H 321.949 -1.11434 -3.07002 0
M  V30 3345 H 320.608 -3.00984 -2.09294 0
M  V30 3346 H 320.256 -2.31019 -4.4681 0
M  V30 3347 H 319.956 -4.05316 -4.25433 0
M  V30 3348 H 321.48 -3.49887 -5.00412 0
M  V30 3349 H 322.894 -4.79667 -3.13995 0
M  V30 3350 H 321.291 -5.39675 -2.62432 0
M  V30 3351 H 322.361 -4.63155 -1.4358 0
M  V30 3352 N 323.704 0.605807 -1.45491 0
M  V30 3353 C 324.953 1.36086 -1.48874 0
M  V30 3354 C 325.266 1.95131 -0.135333 0
M  V30 3355 O 326.472 2.7146 -0.0468144 0
M  V30 3356 C 324.928 2.46518 -2.62215 0
M  V30 3357 C 324.536 1.93877 -4.03876 0
M  V30 3358 C 326.28 3.23512 -2.74846 0
M  V30 3359 C 324.187 3.01801 -5.08596 0
M  V30 3360 H 323.117 0.511497 -0.553974 0
M  V30 3361 H 325.768 0.649089 -1.71636 0
M  V30 3362 H 324.15 3.20388 -2.32739 0
M  V30 3363 H 325.324 1.26704 -4.43038 0
M  V30 3364 H 323.639 1.29622 -3.95711 0
M  V30 3365 H 326.236 4.04013 -3.50253 0
M  V30 3366 H 326.579 3.74631 -1.81542 0
M  V30 3367 H 327.112 2.56742 -3.03856 0
M  V30 3368 H 323.851 2.55597 -6.03614 0
M  V30 3369 H 323.371 3.67535 -4.74002 0
M  V30 3370 H 325.05 3.66152 -5.33424 0
M  V30 3371 N 325.182 1.32811 0.848464 0
M  V30 3372 C 326.407 1.26882 1.6406 0
M  V30 3373 C 326.832 -0.15913 1.87426 0
M  V30 3374 O 326.19 -1.11258 1.43148 0
M  V30 3375 C 326.238 2.03997 2.97351 0
M  V30 3376 O 325.342 1.39201 3.88197 0
M  V30 3377 H 324.683 0.436982 0.499943 0
M  V30 3378 H 327.213 1.75224 1.0563 0
M  V30 3379 H 327.223 2.14403 3.47124 0
M  V30 3380 H 325.898 3.0783 2.79666 0
M  V30 3381 H 324.475 1.37381 3.46671 0
M  V30 3382 N 326.66 -1.06551 1.16123 0
M  V30 3383 C 327.906 -1.79719 0.952505 0
M  V30 3384 C 328.261 -1.85396 -0.514385 0
M  V30 3385 O 327.554 -1.33263 -1.37665 0
M  V30 3386 C 327.748 -3.23911 1.51052 0
M  V30 3387 C 327.577 -3.32284 3.03013 0
M  V30 3388 C 326.347 -3.42371 3.71632 0
M  V30 3389 C 328.545 -3.22363 4.00732 0
M  V30 3390 N 326.527 -3.39732 5.11327 0
M  V30 3391 C 327.898 -3.26937 5.26794 0
M  V30 3392 C 329.953 -3.0623 3.92591 0
M  V30 3393 C 328.656 -3.17035 6.45663 0
M  V30 3394 C 330.682 -2.97665 5.11028 0
M  V30 3395 C 330.044 -3.02858 6.35969 0
M  V30 3396 H 326.143 -0.670585 0.402293 0
M  V30 3397 H 328.727 -1.27125 1.4747 0
M  V30 3398 H 326.898 -3.74907 1.01484 0
M  V30 3399 H 328.63 -3.85242 1.2398 0
M  V30 3400 H 325.385 -3.47058 3.22254 0
M  V30 3401 H 325.809 -3.41919 5.84312 0
M  V30 3402 H 330.451 -3.01063 2.96852 0
M  V30 3403 H 328.169 -3.2096 7.41627 0
M  V30 3404 H 331.755 -2.86273 5.06497 0
M  V30 3405 H 330.635 -2.96286 7.26075 0
M  V30 3406 N 328.138 -0.959301 -1.25041 0
M  V30 3407 C 329.363 -0.633507 -1.97488 0
M  V30 3408 C 329.788 0.788555 -1.70773 0
M  V30 3409 O 329.146 1.53394 -0.966431 0
M  V30 3410 C 329.194 -0.904057 -3.49083 0
M  V30 3411 O 328.298 0.0147939 -4.12397 0
M  V30 3412 H 327.639 -0.240368 -0.618966 0
M  V30 3413 H 330.169 -1.28717 -1.59038 0
M  V30 3414 H 330.179 -0.832203 -3.99423 0
M  V30 3415 H 328.854 -1.94048 -3.67856 0
M  V30 3416 H 327.431 -0.109664 -3.72739 0
M  V30 3417 N 329.616 1.39756 -0.72842 0
M  V30 3418 C 330.566 2.2792 -0.0603424 0
M  V30 3419 C 331.55 1.43922 0.719399 0
M  V30 3420 O 332.742 1.66895 0.589489 0
M  V30 3421 C 329.871 3.32582 0.851104 0
M  V30 3422 C 328.957 4.24049 0.0658641 0
M  V30 3423 N 329.348 4.96653 -0.957578 0
M  V30 3424 C 327.646 4.45013 0.296509 0
M  V30 3425 C 328.347 5.63836 -1.43052 0
M  V30 3426 N 327.323 5.38397 -0.750315 0
M  V30 3427 H 331.125 2.81504 -0.84455 0
M  V30 3428 H 328.639 1.5236 -0.562155 0
M  V30 3429 H 330.636 3.94603 1.34514 0
M  V30 3430 H 329.296 2.80558 1.63454 0
M  V30 3431 H 330.307 5.00297 -1.33877 0
M  V30 3432 H 326.984 4.03943 1.05527 0
M  V30 3433 H 328.374 6.31974 -2.28163 0
M  V30 3434 N 331.094 0.475555 1.50254 0
M  V30 3435 C 332.342 -0.077738 2.0195 0
M  V30 3436 C 332.663 -1.39813 1.35931 0
M  V30 3437 O 331.933 -1.89249 0.506123 0
M  V30 3438 H 330.513 -0.031719 0.746326 0
M  V30 3439 H 333.175 0.626995 1.84539 0
M  V30 3440 H 332.271 -0.225995 3.11281 0
M  V30 3441 N 332.573 -1.56217 0.208337 0
M  V30 3442 C 333.798 -2.02782 -0.435222 0
M  V30 3443 C 334.223 -1.08738 -1.53485 0
M  V30 3444 O 333.581 -0.0731855 -1.81152 0
M  V30 3445 C 333.629 -3.47687 -0.956335 0
M  V30 3446 O 332.733 -3.56773 -2.06849 0
M  V30 3447 H 332.074 -0.656403 -0.100158 0
M  V30 3448 H 334.604 -2.02033 0.3231 0
M  V30 3449 H 334.614 -3.87745 -1.26955 0
M  V30 3450 H 333.289 -4.15624 -0.15143 0
M  V30 3451 H 331.866 -3.28597 -1.76292 0
M  V30 3452 N 334.051 0.0651679 -1.57465 0
M  V30 3453 C 335.299 0.761555 -1.87202 0
M  V30 3454 C 335.62 1.77778 -0.801243 0
M  V30 3455 O 334.89 1.95166 0.16937 0
M  V30 3456 H 333.47 0.284251 -0.690804 0
M  V30 3457 H 336.132 0.0396827 -1.9486 0
M  V30 3458 H 335.228 1.27365 -2.84929 0
M  V30 3459 N 335.529 1.53961 0.336706 0
M  V30 3460 C 336.477 1.83136 1.43401 0
M  V30 3461 C 337.471 0.702313 1.54156 0
M  V30 3462 O 338.677 0.885765 1.56698 0
M  V30 3463 H 335.052 0.580309 0.478273 0
M  V30 3464 H 337.023 2.74925 1.16012 0
M  V30 3465 C 335.772 2.06385 2.79822 0
M  V30 3466 H 335.095 2.92718 2.72316 0
M  V30 3467 H 336.535 2.30761 3.55704 0
M  V30 3468 C 334.994 0.851414 3.25964 0
M  V30 3469 O 335.524 0.0541904 4.01663 0
M  V30 3470 N 333.73 0.66672 2.82848 0
M  V30 3471 H 333.277 1.31665 2.21409 0
M  V30 3472 H 333.235 -0.143032 3.14074 0
M  V30 3473 N 337.007 -0.598083 1.45811 0
M  V30 3474 C 338.253 -1.35882 1.50545 0
M  V30 3475 C 338.586 -1.93616 0.150445 0
M  V30 3476 O 337.861 -1.75604 -0.83628 0
M  V30 3477 C 338.144 -2.49966 2.59208 0
M  V30 3478 C 337.997 -1.97367 4.04186 0
M  V30 3479 C 339.316 -3.52068 2.64076 0
M  V30 3480 H 336.435 -0.492717 0.548087 0
M  V30 3481 H 339.077 -0.673319 1.77669 0
M  V30 3482 H 337.227 -3.08443 2.3621 0
M  V30 3483 H 338.899 -1.43466 4.38423 0
M  V30 3484 H 337.142 -1.283 4.14393 0
M  V30 3485 H 337.813 -2.79649 4.75921 0
M  V30 3486 H 340.289 -3.03448 2.84708 0
M  V30 3487 H 339.165 -4.2937 3.41954 0
M  V30 3488 H 339.426 -4.08304 1.69531 0
M  V30 3489 N 338.485 -1.33259 -0.841409 0
M  V30 3490 C 339.395 -1.25332 -1.98316 0
M  V30 3491 C 340.411 -0.164364 -1.73222 0
M  V30 3492 O 341.587 -0.387486 -1.97637 0
M  V30 3493 C 338.652 -0.990078 -3.32262 0
M  V30 3494 C 337.713 -2.16879 -3.70489 0
M  V30 3495 C 336.946 -1.91801 -4.98044 0
M  V30 3496 O 337.169 -0.867075 -5.63771 0
M  V30 3497 O 336.103 -2.78267 -5.33714 0
M  V30 3498 H 339.929 -2.21344 -2.07944 0
M  V30 3499 H 337.514 -1.1328 -0.974058 0
M  V30 3500 H 339.396 -0.860321 -4.12524 0
M  V30 3501 H 338.071 -0.0602155 -3.23644 0
M  V30 3502 H 336.978 -2.35407 -2.90748 0
M  V30 3503 H 338.311 -3.0819 -3.8377 0
M  V30 3504 N 339.963 1.05934 -1.16686 0
M  V30 3505 C 341.379 1.30938 -0.912542 0
M  V30 3506 C 341.579 1.96803 0.432533 0
M  V30 3507 O 340.635 2.23693 1.17123 0
M  V30 3508 C 341.948 2.18649 -2.06429 0
M  V30 3509 C 343.496 2.32055 -2.10047 0
M  V30 3510 C 343.971 3.23122 -3.24586 0
M  V30 3511 N 345.462 3.30706 -3.24327 0
M  V30 3512 C 346.197 4.01273 -4.09594 0
M  V30 3513 N 345.693 4.74332 -5.04956 0
M  V30 3514 N 347.486 3.97361 -3.97569 0
M  V30 3515 H 339.637 0.615777 -2.03278 0
M  V30 3516 H 341.9 0.334077 -0.887185 0
M  V30 3517 H 341.606 1.77534 -3.03603 0
M  V30 3518 H 341.48 3.19252 -2.00894 0
M  V30 3519 H 343.867 2.72415 -1.13464 0
M  V30 3520 H 343.948 1.31107 -2.19647 0
M  V30 3521 H 343.592 2.83477 -4.2143 0
M  V30 3522 H 343.522 4.24057 -3.12223 0
M  V30 3523 H 346.013 2.78644 -2.55276 0
M  V30 3524 H 346.326 5.25716 -5.6643 0
M  V30 3525 H 344.671 4.733 -5.08933 0
M  V30 3526 H 347.862 3.39405 -3.22369 0
M  V30 3527 H 348.035 4.52089 -4.64241 0
M  V30 3528 N 341.441 0.965919 1.2453 0
M  V30 3529 C 342.671 0.643451 1.96324 0
M  V30 3530 C 343.079 -0.790927 1.71875 0
M  V30 3531 O 342.422 -1.54208 0.998273 0
M  V30 3532 C 342.484 0.836078 3.49643 0
M  V30 3533 C 342.148 2.24975 3.97788 0
M  V30 3534 C 343.145 3.22735 4.07601 0
M  V30 3535 C 340.83 2.57697 4.31158 0
M  V30 3536 C 342.824 4.51303 4.50116 0
M  V30 3537 C 340.511 3.86492 4.73357 0
M  V30 3538 C 341.509 4.83107 4.828 0
M  V30 3539 O 341.197 6.09605 5.24058 0
M  V30 3540 H 340.929 0.239223 0.632257 0
M  V30 3541 H 343.483 1.29587 1.59362 0
M  V30 3542 H 341.713 0.12649 3.86493 0
M  V30 3543 H 343.402 0.512965 4.02646 0
M  V30 3544 H 344.168 2.98783 3.82039 0
M  V30 3545 H 340.047 1.83216 4.23028 0
M  V30 3546 H 343.591 5.26716 4.57401 0
M  V30 3547 H 339.488 4.10245 4.98366 0
M  V30 3548 H 340.256 6.13146 5.42213 0
M  V30 3549 N 342.919 -1.39368 0.735821 0
M  V30 3550 C 344.335 -1.54204 0.411492 0
M  V30 3551 C 344.535 -1.70268 -1.07755 0
M  V30 3552 O 343.591 -1.70364 -1.86366 0
M  V30 3553 C 344.904 -2.75925 1.19523 0
M  V30 3554 C 346.452 -2.89761 1.18354 0
M  V30 3555 C 346.927 -4.14421 1.94986 0
M  V30 3556 N 348.418 -4.21462 1.92156 0
M  V30 3557 C 349.153 -5.16871 2.48258 0
M  V30 3558 N 348.649 -6.18063 3.13001 0
M  V30 3559 N 350.442 -5.09093 2.38287 0
M  V30 3560 H 342.593 -1.27189 1.70108 0
M  V30 3561 H 344.856 -0.616517 0.720147 0
M  V30 3562 H 344.562 -2.70401 2.24892 0
M  V30 3563 H 344.436 -3.68614 0.800222 0
M  V30 3564 H 346.823 -2.94777 0.137975 0
M  V30 3565 H 346.904 -1.98133 1.61793 0
M  V30 3566 H 346.548 -4.10166 2.99543 0
M  V30 3567 H 346.478 -5.05095 1.48953 0
M  V30 3568 H 348.969 -3.48979 1.44991 0
M  V30 3569 H 349.282 -6.87326 3.53275 0
M  V30 3570 H 347.627 -6.18448 3.17091 0
M  V30 3571 H 350.818 -4.28973 1.8735 0
M  V30 3572 H 350.991 -5.83272 2.82308 0
M  V30 3573 N 344.397 -0.483516 -1.5 0
M  V30 3574 C 345.327 0.293829 -2.31644 0
M  V30 3575 C 346.308 0.978864 -1.39112 0
M  V30 3576 O 347.493 0.973644 -1.68029 0
M  V30 3577 C 344.623 1.36897 -3.19181 0
M  V30 3578 C 343.577 0.804833 -4.20365 0
M  V30 3579 C 342.903 1.9792 -4.96721 0
M  V30 3580 C 344.203 -0.192313 -5.21946 0
M  V30 3581 H 345.897 -0.387616 -2.9688 0
M  V30 3582 H 343.443 -0.187856 -1.42769 0
M  V30 3583 H 345.396 1.92037 -3.751 0
M  V30 3584 H 344.12 2.07936 -2.51853 0
M  V30 3585 H 342.779 0.275319 -3.65565 0
M  V30 3586 H 342.427 2.67686 -4.25856 0
M  V30 3587 H 342.127 1.60789 -5.65173 0
M  V30 3588 H 343.651 2.53526 -5.55479 0
M  V30 3589 H 345.065 0.270333 -5.72662 0
M  V30 3590 H 343.462 -0.478543 -5.98189 0
M  V30 3591 H 344.532 -1.11409 -4.71928 0
M  V30 3592 N 345.875 1.56104 -0.216619 0
M  V30 3593 C 346.808 2.16026 0.735395 0
M  V30 3594 C 347.786 1.1032 1.1945 0
M  V30 3595 O 348.97 1.38549 1.27814 0
M  V30 3596 C 346.097 2.73656 1.99575 0
M  V30 3597 C 345.143 3.92146 1.67702 0
M  V30 3598 S 345.976 5.29397 0.806145 0
M  V30 3599 C 347.132 5.90463 2.07617 0
M  V30 3600 H 347.365 2.96439 0.226072 0
M  V30 3601 H 344.898 1.544 -0.00136639 0
M  V30 3602 H 346.856 3.075 2.71945 0
M  V30 3603 H 345.517 1.93245 2.47619 0
M  V30 3604 H 344.71 4.30954 2.61332 0
M  V30 3605 H 344.312 3.59423 1.03398 0
M  V30 3606 H 346.604 6.06136 3.02664 0
M  V30 3607 H 347.547 6.86589 1.73207 0
M  V30 3608 H 347.955 5.19252 2.21445 0
M  V30 3609 N 347.353 -0.0568162 1.57498 0
M  V30 3610 C 348.283 -1.06593 2.0775 0
M  V30 3611 C 349.264 -1.39448 0.974082 0
M  V30 3612 O 350.449 -1.48815 1.24771 0
M  V30 3613 C 347.579 -2.37509 2.5339 0
M  V30 3614 C 346.533 -2.1897 3.67745 0
M  V30 3615 C 345.859 -3.55402 3.99492 0
M  V30 3616 C 347.159 -1.59859 4.97235 0
M  V30 3617 H 348.853 -0.647706 2.9231 0
M  V30 3618 H 346.399 -0.310116 1.40621 0
M  V30 3619 H 348.352 -3.08409 2.87162 0
M  V30 3620 H 347.076 -2.8134 1.65878 0
M  V30 3621 H 345.735 -1.50508 3.3428 0
M  V30 3622 H 345.383 -3.9683 3.09088 0
M  V30 3623 H 345.083 -3.43831 4.76502 0
M  V30 3624 H 346.607 -4.27708 4.35773 0
M  V30 3625 H 348.021 -2.20642 5.29141 0
M  V30 3626 H 346.418 -1.58942 5.78669 0
M  V30 3627 H 347.488 -0.561506 4.81638 0
M  V30 3628 N 348.832 -1.54138 -0.328536 0
M  V30 3629 C 349.765 -1.78014 -1.4278 0
M  V30 3630 C 350.743 -0.629889 -1.49904 0
M  V30 3631 O 351.927 -0.866763 -1.6739 0
M  V30 3632 C 349.054 -1.89225 -2.80912 0
M  V30 3633 C 348.1 -3.11483 -2.91343 0
M  V30 3634 S 348.933 -4.70201 -2.56263 0
M  V30 3635 C 350.089 -4.84312 -3.96476 0
M  V30 3636 H 350.322 -2.70974 -1.22313 0
M  V30 3637 H 347.855 -1.45197 -0.525084 0
M  V30 3638 H 349.813 -1.9637 -3.60485 0
M  V30 3639 H 348.474 -0.972518 -2.98665 0
M  V30 3640 H 347.667 -3.16046 -3.92595 0
M  V30 3641 H 347.269 -3.02642 -2.19736 0
M  V30 3642 H 349.561 -4.66643 -4.91173 0
M  V30 3643 H 350.504 -5.86411 -3.96898 0
M  V30 3644 H 350.912 -4.12652 -3.85199 0
M  V30 3645 N 350.31 0.590341 -1.46126 0
M  V30 3646 C 351.587 1.35029 -1.41515 0
M  V30 3647 C 351.967 2.10888 -0.0946472 0
M  V30 3648 O 351.315 2.08998 0.923693 0
M  V30 3649 C 351.525 2.28269 -2.63997 0
M  V30 3650 C 352.873 2.90338 -3.09821 0
M  V30 3651 O 353.897 2.38585 -2.64492 0
M  V30 3652 O 352.756 3.84321 -3.88535 0
M  V30 3653 H 349.85 0.606317 -0.562413 0
M  V30 3654 H 352.396 0.611994 -1.58281 0
M  V30 3655 H 351.168 1.71591 -3.51671 0
M  V30 3656 H 350.791 3.0945 -2.49652 0
M  V30 3657 N 351.788 1.33704 0.83433 0
M  V30 3658 C 352.735 1.24335 1.94447 0
M  V30 3659 C 353.705 0.120991 1.65659 0
M  V30 3660 O 354.89 0.300035 1.88426 0
M  V30 3661 C 352.03 0.993124 3.30501 0
M  V30 3662 C 351.143 2.20217 3.71657 0
M  V30 3663 C 350.278 1.88572 4.96602 0
M  V30 3664 C 349.317 3.05683 5.30306 0
M  V30 3665 N 348.454 2.73997 6.46429 0
M  V30 3666 H 353.294 2.1928 2.01792 0
M  V30 3667 H 350.831 1.09035 0.987404 0
M  V30 3668 H 352.789 0.828467 4.08892 0
M  V30 3669 H 351.419 0.0803902 3.227 0
M  V30 3670 H 350.471 2.47642 2.88752 0
M  V30 3671 H 351.783 3.07752 3.92543 0
M  V30 3672 H 350.937 1.68776 5.82752 0
M  V30 3673 H 349.676 0.982799 4.77695 0
M  V30 3674 H 348.681 3.26088 4.42659 0
M  V30 3675 H 349.906 3.96737 5.51159 0
M  V30 3676 H 347.852 1.86268 6.28999 0
M  V30 3677 H 347.769 3.55064 6.67432 0
M  V30 3678 H 349.037 2.57679 7.35678 0
M  V30 3679 N 353.266 -1.05314 1.17247 0
M  V30 3680 C 354.514 -1.77941 0.958194 0
M  V30 3681 C 354.835 -1.88089 -0.514556 0
M  V30 3682 O 354.105 -1.39676 -1.37359 0
M  V30 3683 H 352.685 -0.659116 0.351533 0
M  V30 3684 H 355.347 -1.27166 1.47699 0
M  V30 3685 H 354.443 -2.79663 1.38546 0
M  V30 3686 N 354.744 -0.972509 -1.24016 0
M  V30 3687 C 355.993 -0.632603 -1.91523 0
M  V30 3688 C 356.306 0.836641 -1.76804 0
M  V30 3689 O 357.512 1.28728 -2.39043 0
M  V30 3690 C 355.968 -1.08082 -3.43287 0
M  V30 3691 C 355.576 -2.57386 -3.66683 0
M  V30 3692 C 357.32 -0.814288 -4.16617 0
M  V30 3693 C 355.227 -2.95915 -5.12043 0
M  V30 3694 H 354.157 -0.232898 -0.717129 0
M  V30 3695 H 356.808 -1.17936 -1.40582 0
M  V30 3696 H 355.19 -0.462339 -3.93292 0
M  V30 3697 H 356.364 -3.24405 -3.27258 0
M  V30 3698 H 354.679 -2.81701 -3.06649 0
M  V30 3699 H 357.276 -1.0781 -5.23718 0
M  V30 3700 H 357.619 0.24955 -4.15551 0
M  V30 3701 H 358.152 -1.39397 -3.72577 0
M  V30 3702 H 354.891 -4.0139 -5.18234 0
M  V30 3703 H 354.411 -2.33584 -5.52448 0
M  V30 3704 H 356.09 -2.86086 -5.80314 0
M  V30 3705 N 356.222 1.38976 -0.743202 0
M  V30 3706 C 357.152 2.33171 -0.123873 0
M  V30 3707 C 358.133 1.54336 0.71516 0
M  V30 3708 O 359.318 1.82696 0.658467 0
M  V30 3709 C 356.448 3.38474 0.777978 0
M  V30 3710 C 355.402 4.27979 0.0424758 0
M  V30 3711 C 354.728 5.2405 1.06189 0
M  V30 3712 C 356.028 5.10155 -1.1198 0
M  V30 3713 H 357.722 2.85213 -0.910709 0
M  V30 3714 H 355.268 1.37133 -0.439388 0
M  V30 3715 H 357.221 4.03328 1.22084 0
M  V30 3716 H 355.945 2.84891 1.59702 0
M  V30 3717 H 354.604 3.64616 -0.380853 0
M  V30 3718 H 354.252 4.66758 1.87472 0
M  V30 3719 H 353.952 5.84785 0.574485 0
M  V30 3720 H 355.476 5.9178 1.50428 0
M  V30 3721 H 356.89 5.68307 -0.75499 0
M  V30 3722 H 355.287 5.80073 -1.53738 0
M  V30 3723 H 356.357 4.44504 -1.93764 0
M  V30 3724 N 357.7 0.491464 1.49741 0
M  V30 3725 C 358.946 -0.0565092 2.02721 0
M  V30 3726 C 359.279 -1.37522 1.37118 0
M  V30 3727 O 358.554 -1.87866 0.503645 0
M  V30 3728 C 358.837 -0.219051 3.59433 0
M  V30 3729 C 358.69 1.12211 4.35579 0
M  V30 3730 C 360.009 -0.964157 4.29409 0
M  V30 3731 H 357.128 -0.0190627 0.736753 0
M  V30 3732 H 359.77 0.641021 1.7886 0
M  V30 3733 H 357.92 -0.813165 3.79895 0
M  V30 3734 H 359.592 1.75437 4.26637 0
M  V30 3735 H 357.835 1.71377 3.98513 0
M  V30 3736 H 358.506 0.961794 5.43556 0
M  V30 3737 H 360.982 -0.460378 4.13545 0
M  V30 3738 H 359.858 -1.04671 5.38828 0
M  V30 3739 H 360.119 -2.00563 3.93988 0
M  V30 3740 N 359.178 -1.55987 0.224894 0
M  V30 3741 C 360.128 -2.17076 -0.697296 0
M  V30 3742 C 361.112 -1.12006 -1.15514 0
M  V30 3743 O 362.304 -1.37985 -1.10857 0
M  V30 3744 C 359.433 -2.85679 -1.90374 0
M  V30 3745 C 358.519 -3.97977 -1.46543 0
M  V30 3746 N 358.91 -5.00359 -0.739909 0
M  V30 3747 C 357.208 -4.10128 -1.75245 0
M  V30 3748 C 357.909 -5.79407 -0.515939 0
M  V30 3749 N 356.885 -5.32892 -1.07364 0
M  V30 3750 H 360.687 -2.93592 -0.134594 0
M  V30 3751 H 358.201 -1.62379 0.0262885 0
M  V30 3752 H 360.198 -3.27857 -2.57518 0
M  V30 3753 H 358.858 -2.1066 -2.47088 0
M  V30 3754 H 359.869 -5.16412 -0.392253 0
M  V30 3755 H 356.546 -3.46263 -2.33255 0
M  V30 3756 H 357.936 -6.71872 0.0617349 0
M  V30 3757 N 360.656 0.0484629 -1.57525 0
M  V30 3758 C 361.904 0.741657 -1.88 0
M  V30 3759 C 362.225 1.76918 -0.820054 0
M  V30 3760 O 361.495 1.95335 0.148661 0
M  V30 3761 H 360.075 0.276908 -0.69378 0
M  V30 3762 H 362.737 0.019013 -1.94891 0
M  V30 3763 H 361.833 1.24336 -2.86264 0
M  V30 3764 N 362.134 1.5431 0.320358 0
M  V30 3765 C 363.382 1.72327 1.05583 0
M  V30 3766 C 363.703 0.50149 1.88441 0
M  V30 3767 O 362.973 -0.48448 1.89815 0
M  V30 3768 H 361.553 0.635387 0.3928 0
M  V30 3769 H 364.215 1.91621 0.356019 0
M  V30 3770 H 363.311 2.60426 1.72003 0
M  V30 3771 N 363.613 -0.582584 1.46437 0
M  V30 3772 C 364.859 -1.34278 1.51978 0
M  V30 3773 C 365.192 -1.93446 0.170973 0
M  V30 3774 O 364.467 -1.76481 -0.817608 0
M  V30 3775 C 364.75 -2.47203 2.61845 0
M  V30 3776 C 364.603 -1.93069 4.06257 0
M  V30 3777 C 365.922 -3.49247 2.67795 0
M  V30 3778 H 363.041 -0.486876 0.553282 0
M  V30 3779 H 365.683 -0.654437 1.78374 0
M  V30 3780 H 363.833 -3.0592 2.39469 0
M  V30 3781 H 365.505 -1.38808 4.3992 0
M  V30 3782 H 363.748 -1.23898 4.1573 0
M  V30 3783 H 364.419 -2.74586 4.7886 0
M  V30 3784 H 366.895 -3.00411 2.8791 0
M  V30 3785 H 365.771 -4.25719 3.46489 0
M  V30 3786 H 366.032 -4.06482 1.73852 0
M  V30 3787 N 365.091 -1.34144 -0.827227 0
M  V30 3788 C 366.337 -1.26446 -1.58554 0
M  V30 3789 C 366.67 0.1664 -1.93486 0
M  V30 3790 O 365.945 1.1107 -1.59667 0
M  V30 3791 C 366.228 -2.15111 -2.8879 0
M  V30 3792 C 366.081 -3.66712 -2.60465 0
M  V30 3793 C 367.4 -2.03311 -3.90324 0
M  V30 3794 H 364.519 -0.46067 -0.575284 0
M  V30 3795 H 367.161 -1.64356 -0.953269 0
M  V30 3796 H 365.311 -1.8291 -3.42748 0
M  V30 3797 H 366.983 -4.09259 -2.1285 0
M  V30 3798 H 365.226 -3.88014 -1.93978 0
M  V30 3799 H 365.897 -4.24112 -3.53317 0
M  V30 3800 H 368.373 -2.31574 -3.45706 0
M  V30 3801 H 367.249 -2.67582 -4.79261 0
M  V30 3802 H 367.51 -1.00879 -4.30437 0
M  V30 3803 N 366.569 1.04691 -1.17803 0
M  V30 3804 C 367.846 1.7472 -0.879328 0
M  V30 3805 C 368.226 2.01812 0.619271 0
M  V30 3806 O 367.574 1.65824 1.57209 0
M  V30 3807 C 367.784 3.03686 -1.71976 0
M  V30 3808 C 369.132 3.77542 -1.94286 0
M  V30 3809 O 370.156 3.13569 -1.68976 0
M  V30 3810 O 369.015 4.92506 -2.36855 0
M  V30 3811 H 366.109 0.760011 -0.326056 0
M  V30 3812 H 368.655 1.10813 -1.28525 0
M  V30 3813 H 367.427 2.79754 -2.73594 0
M  V30 3814 H 367.05 3.75332 -1.31194 0
M  V30 3815 N 368.047 0.979072 1.23499 0
M  V30 3816 C 368.994 0.517904 2.24914 0
M  V30 3817 C 369.964 -0.442525 1.60097 0
M  V30 3818 O 371.149 -0.350365 1.87556 0
M  V30 3819 C 368.289 -0.174813 3.44657 0
M  V30 3820 C 367.402 0.825721 4.24035 0
M  V30 3821 C 366.537 0.107946 5.3109 0
M  V30 3822 C 365.576 1.09778 6.02175 0
M  V30 3823 N 364.713 0.40925 7.00906 0
M  V30 3824 H 369.553 1.38751 2.63727 0
M  V30 3825 H 367.09 0.695303 1.2963 0
M  V30 3826 H 369.048 -0.593233 4.12961 0
M  V30 3827 H 367.678 -1.0083 3.06648 0
M  V30 3828 H 366.73 1.36253 3.55161 0
M  V30 3829 H 368.042 1.58005 4.73113 0
M  V30 3830 H 367.196 -0.367904 6.05583 0
M  V30 3831 H 365.935 -0.678994 4.8295 0
M  V30 3832 H 364.94 1.5844 5.26476 0
M  V30 3833 H 366.165 1.88536 6.52404 0
M  V30 3834 H 364.111 -0.358506 6.5502 0
M  V30 3835 H 364.028 1.10226 7.47921 0
M  V30 3836 H 365.296 -0.0442557 7.79487 0
M  V30 3837 N 369.525 -1.3858 0.750561 0
M  V30 3838 C 370.475 -2.27795 0.0965949 0
M  V30 3839 C 371.459 -1.45048 -0.696411 0
M  V30 3840 O 372.651 -1.67812 -0.562863 0
M  V30 3841 C 369.78 -3.33894 -0.798085 0
M  V30 3842 C 368.866 -4.241 0.0016067 0
M  V30 3843 N 369.257 -4.95067 1.03647 0
M  V30 3844 C 367.555 -4.45429 -0.225674 0
M  V30 3845 C 368.256 -5.61489 1.52004 0
M  V30 3846 N 367.232 -5.37135 0.835874 0
M  V30 3847 H 371.034 -2.80125 0.889228 0
M  V30 3848 H 368.548 -1.51446 0.586323 0
M  V30 3849 H 370.545 -3.96693 -1.28219 0
M  V30 3850 H 369.205 -2.83123 -1.5897 0
M  V30 3851 H 370.216 -4.98104 1.41819 0
M  V30 3852 H 366.893 -4.05571 -0.990872 0
M  V30 3853 H 368.283 -6.28264 2.38188 0
M  V30 3854 N 371.003 -0.499398 -1.49478 0
M  V30 3855 C 371.966 0.268838 -2.27618 0
M  V30 3856 C 372.966 0.895383 -1.33565 0
M  V30 3857 O 374.156 0.760164 -1.56739 0
M  V30 3858 C 371.288 1.38559 -3.11471 0
M  V30 3859 H 372.481 -0.416812 -2.96989 0
M  V30 3860 H 370.034 -0.254313 -1.54217 0
M  V30 3861 H 370.769 2.10544 -2.46661 0
M  V30 3862 H 370.554 0.941797 -3.80621 0
M  V30 3863 H 372.044 1.92678 -3.70493 0
M  V30 3864 N 372.481 1.55866 -0.233164 0
M  V30 3865 C 373.709 2.02998 0.399905 0
M  V30 3866 C 374.124 1.11274 1.52524 0
M  V30 3867 O 373.481 0.124528 1.82075 0
M  V30 3868 C 373.532 3.4958 0.920639 0
M  V30 3869 O 373.253 4.37808 -0.159834 0
M  V30 3870 C 374.754 4.12411 1.62578 0
M  V30 3871 H 371.974 0.664006 0.0966281 0
M  V30 3872 H 374.518 2.0143 -0.353013 0
M  V30 3873 H 372.673 3.51727 1.62379 0
M  V30 3874 H 373.087 5.23981 0.23337 0
M  V30 3875 H 374.561 5.16711 1.94201 0
M  V30 3876 H 375.038 3.5809 2.54299 0
M  V30 3877 H 375.644 4.14148 0.967553 0
M  V30 3878 N 373.959 -0.0401083 1.57549 0
M  V30 3879 C 375.184 -0.748931 1.93406 0
M  V30 3880 C 375.609 -1.68686 0.832274 0
M  V30 3881 O 374.967 -1.80047 -0.212818 0
M  V30 3882 C 375.015 -1.4916 3.28304 0
M  V30 3883 O 374.119 -2.6042 3.19774 0
M  V30 3884 H 373.46 -0.202212 0.63246 0
M  V30 3885 H 375.99 0.00112086 2.046 0
M  V30 3886 H 376 -1.86395 3.62934 0
M  V30 3887 H 374.675 -0.80364 4.08062 0
M  V30 3888 H 373.252 -2.25808 2.96758 0
M  V30 3889 N 375.437 -1.54477 -0.31217 0
M  V30 3890 C 376.667 -1.76948 -1.06645 0
M  V30 3891 C 377.075 -0.523593 -1.81811 0
M  V30 3892 O 376.418 0.51578 -1.76311 0
M  V30 3893 C 376.48 -2.91668 -2.10166 0
M  V30 3894 C 376.144 -4.30165 -1.54296 0
M  V30 3895 C 377.141 -5.10603 -0.978793 0
M  V30 3896 C 374.826 -4.76738 -1.58196 0
M  V30 3897 C 376.82 -6.3573 -0.461048 0
M  V30 3898 C 374.507 -6.01831 -1.06034 0
M  V30 3899 C 375.505 -6.81161 -0.500844 0
M  V30 3900 O 375.193 -8.03899 0.0128958 0
M  V30 3901 H 374.925 -0.594088 -0.322546 0
M  V30 3902 H 377.479 -2.02213 -0.360441 0
M  V30 3903 H 375.709 -2.62001 -2.84416 0
M  V30 3904 H 377.398 -3.01817 -2.71406 0
M  V30 3905 H 378.164 -4.75771 -0.941651 0
M  V30 3906 H 374.043 -4.15027 -2.00683 0
M  V30 3907 H 377.587 -6.97596 -0.0236894 0
M  V30 3908 H 373.484 -6.36152 -1.09459 0
M  V30 3909 H 374.252 -8.18437 -0.101457 0
M  V30 3910 N 376.915 0.57481 -1.46744 0
M  V30 3911 C 377.878 1.66533 -1.57478 0
M  V30 3912 C 378.878 1.54338 -0.451263 0
M  V30 3913 O 380.068 1.58814 -0.715813 0
M  V30 3914 C 377.2 3.05999 -1.50259 0
M  V30 3915 H 378.393 1.58372 -2.54673 0
M  V30 3916 H 375.946 0.793301 -1.34672 0
M  V30 3917 H 376.681 3.19709 -0.543725 0
M  V30 3918 H 376.466 3.16259 -2.31781 0
M  V30 3919 H 377.956 3.8537 -1.60872 0
M  V30 3920 N 378.394 1.34581 0.820102 0
M  V30 3921 C 379.641 1.27096 1.57648 0
M  V30 3922 C 379.969 -0.158317 1.93855 0
M  V30 3923 O 379.224 -1.12028 1.60463 0
M  V30 3924 C 379.523 2.10997 2.8847 0
M  V30 3925 C 379.189 3.59966 2.71543 0
M  V30 3926 C 377.851 4.00575 2.66634 0
M  V30 3927 C 380.203 4.54548 2.55021 0
M  V30 3928 C 377.531 5.33953 2.43128 0
M  V30 3929 C 379.883 5.88109 2.33047 0
M  V30 3930 C 378.547 6.27878 2.26552 0
M  V30 3931 H 377.817 0.465078 0.576874 0
M  V30 3932 H 380.464 1.6635 0.948671 0
M  V30 3933 H 378.769 1.6458 3.55557 0
M  V30 3934 H 380.466 2.0255 3.46084 0
M  V30 3935 H 377.056 3.27733 2.76205 0
M  V30 3936 H 381.24 4.24069 2.57835 0
M  V30 3937 H 376.496 5.63781 2.3656 0
M  V30 3938 H 380.67 6.60985 2.19251 0
M  V30 3939 H 378.297 7.31162 2.081 0
M  V30 3940 N 379.872 -1.04064 1.18357 0
M  V30 3941 C 380.822 -2.10393 0.878561 0
M  V30 3942 C 381.806 -1.60183 -0.151713 0
M  V30 3943 O 382.998 -1.76923 0.0523303 0
M  V30 3944 C 380.127 -3.4089 0.406096 0
M  V30 3945 C 379.213 -3.97866 1.46844 0
M  V30 3946 N 379.604 -4.28657 2.68489 0
M  V30 3947 C 377.902 -4.2574 1.32896 0
M  V30 3948 C 378.603 -4.74253 3.36836 0
M  V30 3949 N 377.579 -4.75068 2.64219 0
M  V30 3950 H 381.381 -2.32076 1.80327 0
M  V30 3951 H 378.895 -1.21818 1.07397 0
M  V30 3952 H 380.892 -4.16557 0.169088 0
M  V30 3953 H 379.552 -3.20633 -0.512275 0
M  V30 3954 H 380.563 -4.18304 3.05356 0
M  V30 3955 H 377.24 -4.1481 0.473134 0
M  V30 3956 H 378.63 -5.07096 4.40798 0
M  V30 3957 N 381.35 -0.985608 -1.22978 0
M  V30 3958 C 382.598 -0.656087 -1.91154 0
M  V30 3959 C 382.919 0.813561 -1.77218 0
M  V30 3960 O 382.189 1.58244 -1.1548 0
M  V30 3961 H 380.769 -0.239674 -0.707506 0
M  V30 3962 H 383.431 -1.25054 -1.49491 0
M  V30 3963 H 382.527 -0.912253 -2.9847 0
M  V30 3964 N 382.828 1.3818 -0.7579 0
M  V30 3965 C 383.758 2.33027 -0.148597 0
M  V30 3966 C 384.739 1.55085 0.69875 0
M  V30 3967 O 385.924 1.83384 0.639053 0
M  V30 3968 C 383.054 3.3928 0.742034 0
M  V30 3969 C 382.008 4.28 -0.00291946 0
M  V30 3970 C 381.334 5.25146 1.00625 0
M  V30 3971 C 382.634 5.08938 -1.17385 0
M  V30 3972 H 384.328 2.84231 -0.940909 0
M  V30 3973 H 381.874 1.36659 -0.453908 0
M  V30 3974 H 383.827 4.046 1.17799 0
M  V30 3975 H 382.551 2.86569 1.56671 0
M  V30 3976 H 381.21 3.64192 -0.419504 0
M  V30 3977 H 380.858 4.68721 1.8251 0
M  V30 3978 H 380.558 5.85361 0.512428 0
M  V30 3979 H 382.082 5.93342 1.44143 0
M  V30 3980 H 383.496 5.67474 -0.815224 0
M  V30 3981 H 381.893 5.7841 -1.59882 0
M  V30 3982 H 382.963 4.42424 -1.98468 0
M  V30 3983 N 384.306 0.507319 1.49211 0
M  V30 3984 C 385.534 -0.0315749 2.06876 0
M  V30 3985 C 385.949 -1.30241 1.36685 0
M  V30 3986 O 385.306 -1.76937 0.447152 0
M  V30 3987 C 385.357 -0.282627 3.60393 0
M  V30 3988 O 385.078 0.937835 4.27944 0
M  V30 3989 C 386.579 -0.864453 4.3479 0
M  V30 3990 H 383.799 0.0233048 0.670595 0
M  V30 3991 H 386.343 0.706484 1.91909 0
M  V30 3992 H 384.498 -0.97068 3.75042 0
M  V30 3993 H 384.912 0.704567 5.19746 0
M  V30 3994 H 386.386 -0.989664 5.43056 0
M  V30 3995 H 386.863 -1.86382 3.97692 0
M  V30 3996 H 387.469 -0.213672 4.24763 0
M  V30 3997 N 385.784 -1.5574 0.241426 0
M  V30 3998 C 387.195 -1.84842 -0.262755 0
M  V30 3999 C 387.546 -1.16317 -1.58003 0
M  V30 4000 O 386.671 -0.439653 -2.11887 0
M  V30 4001 C 387.266 -3.35332 -0.483523 0
M  V30 4002 C 385.825 -3.6468 -0.931977 0
M  V30 4003 C 384.972 -2.77299 -0.0061151 0
M  V30 4004 H 387.923 -1.51761 0.464129 0
M  V30 4005 H 387.944 -3.56615 -1.32688 0
M  V30 4006 H 387.456 -3.85178 0.47537 0
M  V30 4007 H 385.557 -3.20307 -1.90353 0
M  V30 4008 H 385.67 -4.72498 -0.792628 0
M  V30 4009 H 384.034 -2.49408 -0.516503 0
M  V30 4010 H 384.817 -3.2995 0.948052 0
M  V30 4011 N 387.262 0.0317525 -1.57568 0
M  V30 4012 C 388.51 0.721676 -1.88776 0
M  V30 4013 C 388.831 1.76039 -0.838772 0
M  V30 4014 O 388.101 1.95482 0.127935 0
M  V30 4015 H 386.681 0.269534 -0.696678 0
M  V30 4016 H 389.343 -0.00165879 -1.949 0
M  V30 4017 H 388.439 1.21293 -2.87566 0
M  V30 4018 N 388.74 1.54641 0.303973 0
M  V30 4019 C 389.97 1.77511 1.05705 0
M  V30 4020 C 390.378 0.533228 1.81531 0
M  V30 4021 O 389.721 -0.506423 1.76582 0
M  V30 4022 C 389.783 2.92779 2.08617 0
M  V30 4023 C 389.447 4.30977 1.52013 0
M  V30 4024 C 390.444 5.11115 0.9517 0
M  V30 4025 C 388.129 4.77571 1.55665 0
M  V30 4026 C 390.123 6.35966 0.427327 0
M  V30 4027 C 387.81 6.02384 1.02841 0
M  V30 4028 C 388.808 6.81417 0.464713 0
M  V30 4029 O 388.496 8.03881 -0.0555283 0
M  V30 4030 H 388.228 0.59579 0.319391 0
M  V30 4031 H 390.782 2.02401 0.349712 0
M  V30 4032 H 389.012 2.63506 2.83022 0
M  V30 4033 H 390.701 3.03252 2.69802 0
M  V30 4034 H 391.467 4.76264 0.916407 0
M  V30 4035 H 387.346 4.16085 1.9848 0
M  V30 4036 H 390.89 6.97599 -0.0133062 0
M  V30 4037 H 386.787 6.36723 1.06084 0
M  V30 4038 H 387.555 8.18479 0.0580522 0
M  V30 4039 N 390.218 -0.567019 1.47046 0
M  V30 4040 C 391.148 -1.68482 1.61667 0
M  V30 4041 C 392.129 -1.6358 0.466418 0
M  V30 4042 O 393.314 -1.81354 0.694574 0
M  V30 4043 C 390.444 -3.07124 1.62148 0
M  V30 4044 C 389.398 -3.26867 2.76301 0
M  V30 4045 C 388.724 -4.66196 2.61849 0
M  V30 4046 C 390.024 -3.13186 4.17986 0
M  V30 4047 H 391.718 -1.56502 2.5524 0
M  V30 4048 H 389.264 -0.751486 1.22836 0
M  V30 4049 H 391.217 -3.8516 1.70968 0
M  V30 4050 H 389.941 -3.2004 0.651287 0
M  V30 4051 H 388.6 -2.51237 2.66975 0
M  V30 4052 H 388.248 -4.75898 1.62879 0
M  V30 4053 H 387.948 -4.80356 3.38425 0
M  V30 4054 H 389.472 -5.46379 2.72584 0
M  V30 4055 H 390.886 -3.81049 4.2834 0
M  V30 4056 H 389.283 -3.3886 4.95272 0
M  V30 4057 H 390.353 -2.10057 4.3704 0
M  V30 4058 N 391.696 -1.35014 -0.812953 0
M  V30 4059 C 392.926 -1.30841 -1.59888 0
M  V30 4060 C 393.334 0.117576 -1.88834 0
M  V30 4061 O 392.677 1.07807 -1.48739 0
M  V30 4062 C 392.739 -2.0412 -2.95931 0
M  V30 4063 C 392.403 -3.53336 -2.89832 0
M  V30 4064 C 393.4 -4.48052 -2.63714 0
M  V30 4065 C 391.085 -3.95894 -3.0915 0
M  V30 4066 C 393.079 -5.833 -2.56982 0
M  V30 4067 C 390.766 -5.31239 -3.0204 0
M  V30 4068 C 391.764 -6.24754 -2.75991 0
M  V30 4069 O 391.452 -7.57617 -2.68833 0
M  V30 4070 H 391.184 -0.451215 -0.50337 0
M  V30 4071 H 393.738 -1.78354 -1.01877 0
M  V30 4072 H 391.968 -1.51235 -3.559 0
M  V30 4073 H 393.657 -1.93107 -3.57022 0
M  V30 4074 H 394.423 -4.16492 -2.48515 0
M  V30 4075 H 390.302 -3.23495 -3.28438 0
M  V30 4076 H 393.846 -6.56263 -2.36569 0
M  V30 4077 H 389.743 -5.62415 -3.16796 0
M  V30 4078 H 390.511 -7.67469 -2.84487 0
M  V30 4079 N 393.175 1.03435 -1.18907 0
M  V30 4080 C 394.123 2.13703 -0.918353 0
M  V30 4081 C 395.117 1.68947 0.123767 0
M  V30 4082 O 396.323 1.79983 -0.0249701 0
M  V30 4083 H 392.698 0.698112 -0.279542 0
M  V30 4084 H 394.669 2.33731 -1.85506 0
M  V30 4085 C 393.418 3.44542 -0.467532 0
M  V30 4086 H 392.741 3.79394 -1.26095 0
M  V30 4087 H 394.181 4.22812 -0.317164 0
M  V30 4088 C 392.64 3.26829 0.817588 0
M  V30 4089 O 393.17 3.54975 1.88031 0
M  V30 4090 N 391.376 2.80139 0.772677 0
M  V30 4091 H 390.923 2.57434 -0.0923883 0
M  V30 4092 H 390.881 2.68668 1.63294 0
M  V30 4093 N 394.653 0.992116 1.22453 0
M  V30 4094 C 395.583 0.561677 2.26644 0
M  V30 4095 C 396.564 -0.411055 1.65059 0
M  V30 4096 O 397.749 -0.301861 1.9184 0
M  V30 4097 C 394.879 -0.125247 3.47074 0
M  V30 4098 C 393.833 0.765948 4.21091 0
M  V30 4099 C 393.159 -0.0538484 5.34673 0
M  V30 4100 C 394.459 2.06242 4.79856 0
M  V30 4101 H 396.153 1.43259 2.62902 0
M  V30 4102 H 393.699 0.690283 1.26377 0
M  V30 4103 H 395.652 -0.437764 4.1912 0
M  V30 4104 H 394.376 -1.03069 3.0991 0
M  V30 4105 H 393.035 1.0621 3.50878 0
M  V30 4106 H 392.683 -0.960188 4.9375 0
M  V30 4107 H 392.383 0.539415 5.85119 0
M  V30 4108 H 393.907 -0.360477 6.09535 0
M  V30 4109 H 395.321 1.8139 5.43848 0
M  V30 4110 H 393.718 2.60444 5.40638 0
M  V30 4111 H 394.788 2.74167 3.99951 0
M  V30 4112 N 396.131 -1.37776 0.765217 0
M  V30 4113 C 397.359 -2.04124 0.337767 0
M  V30 4114 C 397.774 -1.57715 -1.03785 0
M  V30 4115 O 397.131 -0.755447 -1.6613 0
M  V30 4116 C 397.182 -3.59658 0.364442 0
M  V30 4117 O 396.903 -4.04367 1.68579 0
M  V30 4118 C 398.404 -4.43236 -0.0754221 0
M  V30 4119 H 395.624 -0.655696 0.142491 0
M  V30 4120 H 398.168 -1.76238 1.03732 0
M  V30 4121 H 396.323 -3.86339 -0.286471 0
M  V30 4122 H 396.737 -4.98857 1.61993 0
M  V30 4123 H 398.211 -5.52 -0.00560067 0
M  V30 4124 H 398.688 -4.2455 -1.12491 0
M  V30 4125 H 399.294 -4.21767 0.547055 0
M  V30 4126 N 397.609 -0.515225 -1.4894 0
M  V30 4127 C 398.855 0.0242508 -2.02785 0
M  V30 4128 C 399.188 1.35323 -1.39289 0
M  V30 4129 O 398.463 1.87041 -0.533469 0
M  V30 4130 C 398.746 0.16184 -3.59736 0
M  V30 4131 C 398.599 -1.19127 -4.33738 0
M  V30 4132 C 399.918 0.895719 -4.30888 0
M  V30 4133 H 397.037 0.00733914 -0.736963 0
M  V30 4134 H 399.679 -0.669395 -1.77818 0
M  V30 4135 H 397.829 0.752624 -3.8114 0
M  V30 4136 H 399.501 -1.82202 -4.23792 0
M  V30 4137 H 397.744 -1.77695 -3.95736 0
M  V30 4138 H 398.415 -1.04815 -5.41957 0
M  V30 4139 H 400.891 0.394528 -4.14225 0
M  V30 4140 H 399.767 0.960859 -5.40425 0
M  V30 4141 H 400.028 1.9427 -3.97129 0
M  V30 4142 N 399.087 1.5561 -0.249682 0
M  V30 4143 C 400.02 2.17537 0.689408 0
M  V30 4144 C 400.998 1.12829 1.17083 0
M  V30 4145 O 402.182 1.41229 1.24846 0
M  V30 4146 C 399.309 2.77828 1.93725 0
M  V30 4147 C 398.355 3.95615 1.59346 0
M  V30 4148 S 399.188 5.30988 0.69367 0
M  V30 4149 C 400.344 5.94734 1.95046 0
M  V30 4150 H 400.577 2.96852 0.163142 0
M  V30 4151 H 398.11 1.54362 -0.0341166 0
M  V30 4152 H 400.068 3.13199 2.65361 0
M  V30 4153 H 398.729 1.98454 2.43465 0
M  V30 4154 H 397.922 4.364 2.52132 0
M  V30 4155 H 397.524 3.61535 0.957512 0
M  V30 4156 H 399.816 6.12419 2.89739 0
M  V30 4157 H 400.759 6.90109 1.58604 0
M  V30 4158 H 401.167 5.23832 2.10381 0
M  V30 4159 N 400.565 -0.0233959 1.57583 0
M  V30 4160 C 401.793 -0.724682 1.93794 0
M  V30 4161 C 402.208 -1.68588 0.849912 0
M  V30 4162 O 401.565 -1.81676 -0.173204 0
M  V30 4163 C 401.616 -1.47684 3.29957 0
M  V30 4164 O 401.337 -0.554222 4.3458 0
M  V30 4165 C 402.838 -2.27477 3.80485 0
M  V30 4166 H 400.058 -0.203317 0.639455 0
M  V30 4167 H 402.602 0.0207653 2.04489 0
M  V30 4168 H 400.757 -2.17412 3.20641 0
M  V30 4169 H 401.171 -1.08232 5.13212 0
M  V30 4170 H 402.645 -2.7564 4.78254 0
M  V30 4171 H 403.122 -3.09144 3.11972 0
M  V30 4172 H 403.728 -1.62813 3.92902 0
M  V30 4173 N 402.043 -1.548 -0.295768 0
M  V30 4174 C 402.953 -1.89177 -1.38742 0
M  V30 4175 C 403.969 -0.786481 -1.55211 0
M  V30 4176 O 405.145 -1.08344 -1.69775 0
M  V30 4177 C 402.21 -2.13663 -2.73036 0
M  V30 4178 C 401.271 -3.37349 -2.65508 0
M  V30 4179 C 400.504 -3.60658 -3.93398 0
M  V30 4180 O 400.727 -2.86882 -4.93006 0
M  V30 4181 O 399.661 -4.54179 -3.94975 0
M  V30 4182 H 403.487 -2.82059 -1.12589 0
M  V30 4183 H 401.072 -1.41056 -0.492295 0
M  V30 4184 H 402.954 -2.3094 -3.52484 0
M  V30 4185 H 401.629 -1.23967 -2.99022 0
M  V30 4186 H 400.536 -3.25431 -1.84514 0
M  V30 4187 H 401.869 -4.27192 -2.44474 0
M  V30 4188 N 403.521 0.559213 -1.47345 0
M  V30 4189 C 404.484 1.64854 -1.59235 0
M  V30 4190 C 405.484 1.53851 -0.467607 0
M  V30 4191 O 406.674 1.58045 -0.732617 0
M  V30 4192 C 403.806 3.04388 -1.53496 0
M  V30 4193 H 404.999 1.55662 -2.56339 0
M  V30 4194 H 402.552 0.778973 -1.35505 0
M  V30 4195 H 403.287 3.19115 -0.577604 0
M  V30 4196 H 403.072 3.13783 -2.35123 0
M  V30 4197 H 404.562 3.83642 -1.6495 0
M  V30 4198 N 404.999 1.35443 0.805782 0
M  V30 4199 C 405.962 1.28301 1.89925 0
M  V30 4200 C 406.962 0.194285 1.59622 0
M  V30 4201 O 408.152 0.448036 1.6834 0
M  V30 4202 C 405.284 0.984997 3.2636 0
M  V30 4203 H 406.477 2.2553 1.97677 0
M  V30 4204 H 404.03 1.19979 1.00173 0
M  V30 4205 H 404.765 0.016603 3.24296 0
M  V30 4206 H 404.55 1.77269 3.4974 0
M  V30 4207 H 406.04 0.960651 4.064 0
M  V30 4208 N 406.477 -1.02803 1.19454 0
M  V30 4209 C 407.725 -1.75869 0.995722 0
M  V30 4210 C 408.046 -1.89138 -0.474543 0
M  V30 4211 O 407.316 -1.42558 -1.34366 0
M  V30 4212 H 405.896 -0.651511 0.365435 0
M  V30 4213 H 408.558 -1.24004 1.50363 0
M  V30 4214 H 407.654 -2.76661 1.44447 0
M  V30 4215 N 407.956 -0.998596 -1.21925 0
M  V30 4216 C 408.886 -0.573688 -2.26343 0
M  V30 4217 C 409.867 0.402296 -1.65274 0
M  V30 4218 O 411.052 0.291683 -1.91997 0
M  V30 4219 C 408.182 0.106839 -3.47136 0
M  V30 4220 C 407.136 -0.788269 -4.20678 0
M  V30 4221 C 406.462 0.0254927 -5.34694 0
M  V30 4222 C 407.762 -2.08784 -4.78755 0
M  V30 4223 H 409.456 -1.44651 -2.62138 0
M  V30 4224 H 407.002 -0.696975 -1.26009 0
M  V30 4225 H 408.955 0.415531 -4.19346 0
M  V30 4226 H 407.679 1.01424 -3.10452 0
M  V30 4227 H 406.338 -1.08069 -3.50309 0
M  V30 4228 H 405.986 0.933989 -4.94253 0
M  V30 4229 H 405.686 -0.570437 -5.84825 0
M  V30 4230 H 407.21 0.328147 -6.09718 0
M  V30 4231 H 408.624 -1.84272 -5.42878 0
M  V30 4232 H 407.021 -2.63307 -5.39249 0
M  V30 4233 H 408.091 -2.76284 -3.98491 0
M  V30 4234 N 409.434 1.37368 -0.772513 0
M  V30 4235 C 410.366 2.28899 -0.117502 0
M  V30 4236 C 411.379 1.4867 0.663405 0
M  V30 4237 O 412.568 1.71314 0.501372 0
M  V30 4238 C 409.668 3.2788 0.857192 0
M  V30 4239 C 408.841 4.37207 0.129938 0
M  V30 4240 C 407.9 5.16257 1.01811 0
M  V30 4241 O 406.926 5.67159 0.481601 0
M  V30 4242 N 408.128 5.31058 2.3443 0
M  V30 4243 H 410.893 2.85752 -0.903662 0
M  V30 4244 H 408.454 1.49353 -0.62493 0
M  V30 4245 H 410.446 3.77647 1.45482 0
M  V30 4246 H 409.016 2.7179 1.54432 0
M  V30 4247 H 408.236 3.88827 -0.648605 0
M  V30 4248 H 409.524 5.07434 -0.372559 0
M  V30 4249 H 408.922 4.91287 2.80452 0
M  V30 4250 H 407.479 5.84131 2.89197 0
M  V30 4251 N 410.912 0.523116 1.48665 0
M  V30 4252 C 411.86 -0.256859 2.31177 0
M  V30 4253 C 412.854 -0.94199 1.40794 0
M  V30 4254 O 414.06 -0.867157 1.57735 0
M  V30 4255 H 410.435 -0.1017 0.745091 0
M  V30 4256 H 412.406 0.458739 2.94853 0
M  V30 4257 C 411.155 -1.29503 3.22683 0
M  V30 4258 H 410.478 -0.777248 3.92172 0
M  V30 4259 H 411.918 -1.81233 3.83315 0
M  V30 4260 C 410.377 -2.32501 2.43813 0
M  V30 4261 O 410.907 -3.3881 2.15803 0
M  V30 4262 N 409.113 -2.05538 2.05432 0
M  V30 4263 H 408.66 -1.19104 2.28412 0
M  V30 4264 H 408.618 -2.74676 1.52973 0
M  V30 4265 N 412.39 -1.55475 0.257931 0
M  V30 4266 C 413.62 -2.03314 -0.367026 0
M  V30 4267 C 414.028 -1.13625 -1.51281 0
M  V30 4268 O 413.371 -0.145334 -1.83124 0
M  V30 4269 C 413.433 -3.47362 -0.926284 0
M  V30 4270 C 413.097 -4.56914 0.0886584 0
M  V30 4271 C 414.094 -5.12013 0.902123 0
M  V30 4272 C 411.779 -5.01827 0.217936 0
M  V30 4273 C 413.773 -6.10529 1.83122 0
M  V30 4274 C 411.46 -6.00172 1.15052 0
M  V30 4275 C 412.458 -6.54402 1.95568 0
M  V30 4276 O 412.146 -7.50827 2.87253 0
M  V30 4277 H 411.878 -0.669976 -0.0900443 0
M  V30 4278 H 414.432 -2.01804 0.382673 0
M  V30 4279 H 412.662 -3.46056 -1.72575 0
M  V30 4280 H 414.351 -3.78637 -1.46249 0
M  V30 4281 H 415.117 -4.78139 0.812891 0
M  V30 4282 H 410.996 -4.59272 -0.398721 0
M  V30 4283 H 414.54 -6.52783 2.46008 0
M  V30 4284 H 410.437 -6.33465 1.24064 0
M  V30 4285 H 411.205 -7.68483 2.81739 0
M  V30 4286 N 413.868 0.0150385 -1.57593 0
M  V30 4287 C 415.284 0.370907 -1.5523 0
M  V30 4288 C 415.484 1.75735 -0.985882 0
M  V30 4289 O 414.54 2.44944 -0.613077 0
M  V30 4290 C 415.853 0.259908 -2.99575 0
M  V30 4291 C 417.401 0.335959 -3.11192 0
M  V30 4292 C 417.876 0.254253 -4.57294 0
M  V30 4293 N 419.367 0.312618 -4.62144 0
M  V30 4294 C 420.102 0.272505 -5.72752 0
M  V30 4295 N 419.598 0.183864 -6.92556 0
M  V30 4296 N 421.391 0.323267 -5.6117 0
M  V30 4297 H 413.542 -0.892104 -1.92757 0
M  V30 4298 H 415.805 -0.340563 -0.884715 0
M  V30 4299 H 415.511 -0.693403 -3.44797 0
M  V30 4300 H 415.385 1.048 -3.62349 0
M  V30 4301 H 417.772 1.27971 -2.65909 0
M  V30 4302 H 417.853 -0.481739 -2.51223 0
M  V30 4303 H 417.497 -0.685887 -5.03247 0
M  V30 4304 H 417.427 1.09024 -5.15191 0
M  V30 4305 H 419.918 0.38307 -3.75953 0
M  V30 4306 H 420.231 0.15874 -7.72637 0
M  V30 4307 H 418.576 0.149708 -6.94839 0
M  V30 4308 H 421.767 0.390607 -4.66467 0
M  V30 4309 H 421.94 0.288539 -6.47357 0
M  V30 4310 N 415.346 1.54954 0.287554 0
M  V30 4311 C 416.592 1.76059 1.01856 0
M  V30 4312 C 416.947 0.547056 1.84459 0
M  V30 4313 O 416.24 -0.460442 1.85985 0
M  V30 4314 C 416.434 2.99833 1.94512 0
M  V30 4315 C 416.263 4.33108 1.21026 0
M  V30 4316 C 415.033 4.96632 0.931896 0
M  V30 4317 C 417.231 5.10694 0.607949 0
M  V30 4318 N 415.213 6.13668 0.168716 0
M  V30 4319 C 416.584 6.19996 -0.0217865 0
M  V30 4320 C 418.639 4.95236 0.514338 0
M  V30 4321 C 417.342 7.15524 -0.736092 0
M  V30 4322 C 419.368 5.91106 -0.186343 0
M  V30 4323 C 418.73 6.99786 -0.804875 0
M  V30 4324 H 414.829 0.696679 0.355193 0
M  V30 4325 H 417.413 1.92441 0.295741 0
M  V30 4326 H 415.584 2.84853 2.64033 0
M  V30 4327 H 417.316 3.09405 2.60865 0
M  V30 4328 H 414.071 4.57255 1.23348 0
M  V30 4329 H 414.495 6.76705 -0.199781 0
M  V30 4330 H 419.137 4.11328 0.978234 0
M  V30 4331 H 416.855 7.98964 -1.21172 0
M  V30 4332 H 420.441 5.81224 -0.258897 0
M  V30 4333 H 419.321 7.72694 -1.33843 0
M  V30 4334 N 416.824 -0.551391 1.4764 0
M  V30 4335 C 417.771 -1.65796 1.60563 0
M  V30 4336 C 418.741 -1.59932 0.448428 0
M  V30 4337 O 419.926 -1.78679 0.669222 0
M  V30 4338 C 417.066 -3.04108 1.63133 0
M  V30 4339 C 416.179 -3.20365 2.89811 0
M  V30 4340 C 415.314 -4.49109 2.8368 0
M  V30 4341 C 414.353 -4.58819 4.05156 0
M  V30 4342 N 413.49 -5.78926 3.97227 0
M  V30 4343 H 418.33 -1.54088 2.5507 0
M  V30 4344 H 415.867 -0.75052 1.26513 0
M  V30 4345 H 417.825 -3.84207 1.62606 0
M  V30 4346 H 416.455 -3.14637 0.721341 0
M  V30 4347 H 415.507 -2.33659 3.00179 0
M  V30 4348 H 416.819 -3.23402 3.79753 0
M  V30 4349 H 415.973 -5.37475 2.81434 0
M  V30 4350 H 414.712 -4.4856 1.91431 0
M  V30 4351 H 413.717 -3.68864 4.077 0
M  V30 4352 H 414.942 -4.61124 4.98539 0
M  V30 4353 H 412.888 -5.79314 3.07785 0
M  V30 4354 H 412.805 -5.83367 4.80853 0
M  V30 4355 H 414.073 -6.69637 3.99007 0
M  V30 4356 N 418.302 -1.35869 -0.798587 0
M  V30 4357 C 419.232 -1.32118 -1.92528 0
M  V30 4358 C 420.213 -0.194209 -1.68988 0
M  V30 4359 O 421.398 -0.390426 -1.90235 0
M  V30 4360 C 418.528 -1.10047 -3.29404 0
M  V30 4361 C 417.482 -2.19471 -3.67446 0
M  V30 4362 C 416.808 -1.82555 -5.02571 0
M  V30 4363 C 418.108 -3.61495 -3.76987 0
M  V30 4364 H 419.802 -2.26394 -1.95924 0
M  V30 4365 H 417.348 -1.08981 -0.94123 0
M  V30 4366 H 419.301 -1.06061 -4.07835 0
M  V30 4367 H 418.025 -0.122195 -3.26371 0
M  V30 4368 H 416.684 -2.22568 -2.91306 0
M  V30 4369 H 416.332 -0.833249 -4.9605 0
M  V30 4370 H 416.032 -2.5581 -5.28995 0
M  V30 4371 H 417.556 -1.80108 -5.83432 0
M  V30 4372 H 418.97 -3.60676 -4.4563 0
M  V30 4373 H 417.367 -4.33577 -4.14887 0
M  V30 4374 H 418.437 -3.97065 -2.78329 0
M  V30 4375 N 419.78 1.02168 -1.19998 0
M  V30 4376 C 421.026 1.75945 -1.00852 0
M  V30 4377 C 421.359 1.88702 0.458828 0
M  V30 4378 O 420.634 1.40911 1.34069 0
M  V30 4379 C 420.917 3.18154 -1.68671 0
M  V30 4380 C 420.77 3.13224 -3.22817 0
M  V30 4381 C 422.089 4.16711 -1.41561 0
M  V30 4382 H 419.208 0.638673 -0.367785 0
M  V30 4383 H 421.85 1.19222 -1.4794 0
M  V30 4384 H 420 3.66586 -1.28636 0
M  V30 4385 H 421.672 2.72635 -3.72112 0
M  V30 4386 H 419.915 2.50751 -3.53986 0
M  V30 4387 H 420.586 4.13728 -3.65422 0
M  V30 4388 H 423.062 3.76913 -1.76284 0
M  V30 4389 H 421.938 5.14391 -1.91553 0
M  V30 4390 H 422.199 4.40774 -0.342193 0
M  V30 4391 N 421.258 1.00505 1.21394 0
M  V30 4392 C 422.674 0.717873 1.42544 0
M  V30 4393 C 422.874 -0.706936 1.88692 0
M  V30 4394 O 421.93 -1.47627 2.04847 0
M  V30 4395 C 423.243 1.73377 2.45684 0
M  V30 4396 C 424.791 1.75059 2.59467 0
M  V30 4397 C 425.266 2.75545 3.6584 0
M  V30 4398 N 426.757 2.74213 3.73311 0
M  V30 4399 C 427.492 3.48626 4.55245 0
M  V30 4400 N 426.988 4.32678 5.41075 0
M  V30 4401 N 428.781 3.37276 4.49668 0
M  V30 4402 H 420.932 1.92506 0.897503 0
M  V30 4403 H 423.195 0.830919 0.456375 0
M  V30 4404 H 422.901 2.75395 2.18748 0
M  V30 4405 H 422.775 1.53647 3.44489 0
M  V30 4406 H 425.162 0.737337 2.8574 0
M  V30 4407 H 425.243 1.98861 1.60897 0
M  V30 4408 H 424.887 3.77028 3.40313 0
M  V30 4409 H 424.817 2.49009 4.64007 0
M  V30 4410 H 427.308 2.13234 3.11993 0
M  V30 4411 H 427.621 4.86253 6.00648 0
M  V30 4412 H 425.966 4.3676 5.40616 0
M  V30 4413 H 429.157 2.71043 3.81646 0
M  V30 4414 H 429.33 3.95524 5.13288 0
M  V30 4415 N 422.737 -1.36956 0.779787 0
M  V30 4416 C 423.965 -2.03755 0.359398 0
M  V30 4417 C 424.38 -1.58807 -1.02106 0
M  V30 4418 O 423.737 -0.773024 -1.6532 0
M  V30 4419 C 423.788 -3.59251 0.402568 0
M  V30 4420 O 423.509 -4.02557 1.72858 0
M  V30 4421 C 425.01 -4.43291 -0.0284068 0
M  V30 4422 H 422.23 -0.654148 0.149437 0
M  V30 4423 H 424.774 -1.75128 1.05595 0
M  V30 4424 H 422.929 -3.86621 -0.245478 0
M  V30 4425 H 423.343 -4.97111 1.67275 0
M  V30 4426 H 424.817 -5.51975 0.0529466 0
M  V30 4427 H 425.294 -4.25719 -1.07982 0
M  V30 4428 H 425.9 -4.21163 0.591758 0
M  V30 4429 N 424.215 -0.530993 -1.48385 0
M  V30 4430 C 425.178 0.220497 -2.28137 0
M  V30 4431 C 426.178 0.866851 -1.35434 0
M  V30 4432 O 427.368 0.726746 -1.58316 0
M  V30 4433 C 424.5 1.31921 -3.1434 0
M  V30 4434 H 425.693 -0.479714 -2.96038 0
M  V30 4435 H 423.246 -0.286968 -1.53643 0
M  V30 4436 H 423.981 2.05264 -2.51072 0
M  V30 4437 H 423.766 0.86085 -3.82533 0
M  V30 4438 H 425.256 1.84776 -3.74497 0
M  V30 4439 N 425.693 1.55336 -0.266172 0
M  V30 4440 C 427.104 1.85236 0.233315 0
M  V30 4441 C 427.455 1.18816 1.56132 0
M  V30 4442 O 426.58 0.473307 2.11161 0
M  V30 4443 C 427.175 3.36059 0.430113 0
M  V30 4444 C 425.734 3.66116 0.873842 0
M  V30 4445 C 424.881 2.77274 -0.0380016 0
M  V30 4446 H 427.832 1.51004 -0.488214 0
M  V30 4447 H 427.853 3.58681 1.26998 0
M  V30 4448 H 427.365 3.84373 -0.536588 0
M  V30 4449 H 425.466 3.23295 1.85233 0
M  V30 4450 H 425.579 4.73699 0.717358 0
M  V30 4451 H 423.943 2.50198 0.476759 0
M  V30 4452 H 424.726 3.284 -1.00042 0
M  V30 4453 N 427.171 -0.0066808 1.57599 0
M  V30 4454 C 428.104 -1.03397 2.03431 0
M  V30 4455 C 429.082 -1.33872 0.922877 0
M  V30 4456 O 430.266 -1.4615 1.19048 0
M  V30 4457 C 427.393 -2.36325 2.42628 0
M  V30 4458 C 426.439 -2.21557 3.64438 0
M  V30 4459 S 427.272 -1.54789 5.12641 0
M  V30 4460 C 428.428 -2.8916 5.55101 0
M  V30 4461 H 428.661 -0.643687 2.90248 0
M  V30 4462 H 426.194 -0.217349 1.52863 0
M  V30 4463 H 428.152 -3.12759 2.65879 0
M  V30 4464 H 426.813 -2.72495 1.56222 0
M  V30 4465 H 426.006 -3.1974 3.89592 0
M  V30 4466 H 425.608 -1.53267 3.41153 0
M  V30 4467 H 427.9 -3.8547 5.57153 0
M  V30 4468 H 428.843 -2.68713 6.55133 0
M  V30 4469 H 429.251 -2.92762 4.82649 0
M  V30 4470 N 428.649 -1.55105 -0.279332 0
M  V30 4471 C 429.559 -1.90638 -1.36727 0
M  V30 4472 C 430.575 -0.802899 -1.54368 0
M  V30 4473 O 431.751 -1.10138 -1.68616 0
M  V30 4474 C 428.816 -2.16547 -2.70755 0
M  V30 4475 C 427.877 -3.40146 -2.61915 0
M  V30 4476 C 427.11 -3.6481 -3.8955 0
M  V30 4477 O 427.333 -2.92095 -4.89935 0
M  V30 4478 O 426.267 -4.58343 -3.90135 0
M  V30 4479 H 430.093 -2.83237 -1.09591 0
M  V30 4480 H 427.678 -1.4157 -0.477306 0
M  V30 4481 H 429.56 -2.34665 -3.50014 0
M  V30 4482 H 428.235 -1.27131 -2.9769 0
M  V30 4483 H 427.142 -3.2737 -1.81052 0
M  V30 4484 H 428.475 -4.29761 -2.3993 0
M  V30 4485 N 430.127 0.543554 -1.4793 0
M  V30 4486 C 431.373 1.30201 -1.55485 0
M  V30 4487 C 431.706 1.92925 -0.222201 0
M  V30 4488 O 430.981 1.78586 0.77053 0
M  V30 4489 C 431.264 2.40174 -2.68307 0
M  V30 4490 C 431.117 1.8223 -4.11233 0
M  V30 4491 C 432.436 3.42024 -2.76961 0
M  V30 4492 H 429.555 0.472036 -0.565996 0
M  V30 4493 H 432.197 0.606914 -1.80046 0
M  V30 4494 H 430.347 2.99463 -2.47495 0
M  V30 4495 H 432.019 1.27096 -4.43446 0
M  V30 4496 H 430.262 1.12832 -4.18869 0
M  V30 4497 H 430.933 2.61793 -4.85972 0
M  V30 4498 H 433.409 2.92672 -2.95774 0
M  V30 4499 H 432.285 4.16383 -3.57654 0
M  V30 4500 H 432.546 4.0173 -1.84568 0
M  V30 4501 N 431.605 1.3629 0.791371 0
M  V30 4502 C 432.83 1.33726 1.58531 0
M  V30 4503 C 433.255 -0.0794933 1.87932 0
M  V30 4504 O 432.613 -1.05087 1.47738 0
M  V30 4505 C 432.661 2.16425 2.88431 0
M  V30 4506 O 431.765 1.5554 3.81944 0
M  V30 4507 H 431.106 0.457793 0.480959 0
M  V30 4508 H 433.636 1.79547 0.981031 0
M  V30 4509 H 433.646 2.28933 3.37718 0
M  V30 4510 H 432.321 3.19415 2.66359 0
M  V30 4511 H 430.898 1.51961 3.40532 0
M  V30 4512 N 433.083 -1.0153 1.20538 0
M  V30 4513 C 434.031 -2.12215 0.952235 0
M  V30 4514 C 435.025 -1.69123 -0.0968735 0
M  V30 4515 O 436.231 -1.7992 0.0536006 0
M  V30 4516 H 432.606 -0.693576 0.290613 0
M  V30 4517 H 434.577 -2.3075 1.89201 0
M  V30 4518 C 433.326 -3.43755 0.522287 0
M  V30 4519 H 432.649 -3.7734 1.32115 0
M  V30 4520 H 434.089 -4.22254 0.384389 0
M  V30 4521 C 432.548 -3.28088 -0.765489 0
M  V30 4522 O 433.078 -3.57921 -1.8236 0
M  V30 4523 N 431.284 -2.81333 -0.728011 0
M  V30 4524 H 430.831 -2.57255 0.133332 0
M  V30 4525 H 430.789 -2.71232 -1.58999 0
M  V30 4526 N 434.561 -1.01147 -1.20859 0
M  V30 4527 C 435.491 -0.597663 -2.25722 0
M  V30 4528 C 436.472 0.384744 -1.65692 0
M  V30 4529 O 437.657 0.271303 -1.92296 0
M  V30 4530 C 434.787 0.0700149 -3.47229 0
M  V30 4531 C 433.741 -0.832843 -4.19819 0
M  V30 4532 C 433.067 -0.0312202 -5.34691 0
M  V30 4533 C 434.367 -2.1385 -4.76514 0
M  V30 4534 H 436.061 -1.47423 -2.60589 0
M  V30 4535 H 433.607 -0.710301 -1.25263 0
M  V30 4536 H 435.56 0.37103 -4.19763 0
M  V30 4537 H 434.284 0.981259 -3.11511 0
M  V30 4538 H 432.943 -1.11778 -3.49144 0
M  V30 4539 H 432.591 0.881515 -4.95215 0
M  V30 4540 H 432.291 -0.632434 -5.84187 0
M  V30 4541 H 433.815 0.26346 -6.10031 0
M  V30 4542 H 435.229 -1.9002 -5.40893 0
M  V30 4543 H 433.626 -2.69012 -5.36426 0
M  V30 4544 H 434.696 -2.80495 -3.95538 0
M  V30 4545 N 436.039 1.36541 -0.78704 0
M  V30 4546 C 436.986 2.30082 -0.181901 0
M  V30 4547 C 437.956 1.5186 0.672896 0
M  V30 4548 O 439.141 1.80374 0.622072 0
M  V30 4549 C 436.281 3.3835 0.679197 0
M  V30 4550 C 435.394 4.31565 -0.193882 0
M  V30 4551 C 434.529 5.26915 0.673364 0
M  V30 4552 C 433.568 6.11769 -0.201315 0
M  V30 4553 N 432.705 6.99315 0.624777 0
M  V30 4554 H 437.545 2.81248 -0.985064 0
M  V30 4555 H 435.082 1.38437 -0.497342 0
M  V30 4556 H 437.04 3.99767 1.19341 0
M  V30 4557 H 435.67 2.8851 1.44781 0
M  V30 4558 H 434.722 3.71323 -0.826044 0
M  V30 4559 H 436.034 4.91191 -0.867937 0
M  V30 4560 H 435.188 5.9361 1.25348 0
M  V30 4561 H 433.927 4.67737 1.38105 0
M  V30 4562 H 432.932 5.44039 -0.793849 0
M  V30 4563 H 434.157 6.73022 -0.906568 0
M  V30 4564 H 432.103 6.42648 1.3168 0
M  V30 4565 H 432.02 7.56 0.00835237 0
M  V30 4566 H 433.288 7.70382 1.18879 0
M  V30 4567 N 437.518 0.538854 1.48102 0
M  V30 4568 C 438.764 0.00801365 2.02798 0
M  V30 4569 C 439.097 -1.3309 1.41424 0
M  V30 4570 O 438.372 -1.86169 0.563158 0
M  V30 4571 C 438.655 -0.104589 3.59948 0
M  V30 4572 C 438.508 1.26012 4.31788 0
M  V30 4573 C 439.827 -0.827055 4.32259 0
M  V30 4574 H 436.946 0.00438624 0.736987 0
M  V30 4575 H 439.588 0.6976 1.7673 0
M  V30 4576 H 437.738 -0.691893 3.82289 0
M  V30 4577 H 439.41 1.88922 4.2084 0
M  V30 4578 H 437.653 1.83968 3.92859 0
M  V30 4579 H 438.324 1.13424 5.40221 0
M  V30 4580 H 440.8 -0.328578 4.14801 0
M  V30 4581 H 439.676 -0.87476 5.41885 0
M  V30 4582 H 439.937 -1.87927 4.0017 0
M  V30 4583 N 438.996 -1.55193 0.274407 0
M  V30 4584 C 440.224 -2.03987 -0.345943 0
M  V30 4585 C 440.639 -1.15279 -1.4952 0
M  V30 4586 O 439.996 -0.172759 -1.8168 0
M  V30 4587 C 440.047 -3.51898 -0.827631 0
M  V30 4588 O 439.768 -4.37231 0.275855 0
M  V30 4589 C 441.269 -4.16577 -1.51587 0
M  V30 4590 H 438.489 -0.666335 -0.0789892 0
M  V30 4591 H 441.033 -2.00423 0.406294 0
M  V30 4592 H 439.188 -3.55909 -1.52996 0
M  V30 4593 H 439.602 -5.24415 -0.0943638 0
M  V30 4594 H 441.076 -5.21678 -1.80433 0
M  V30 4595 H 441.553 -3.64707 -2.44716 0
M  V30 4596 H 442.159 -4.16568 -0.857409 0
M  V30 4597 N 440.474 -0.00167713 -1.576 0
M  V30 4598 C 441.422 1.0074 -2.09652 0
M  V30 4599 C 442.416 1.35483 -1.01689 0
M  V30 4600 O 443.622 1.34028 -1.20152 0
M  V30 4601 H 439.997 0.342537 -0.669457 0
M  V30 4602 H 441.968 0.542841 -2.93421 0
M  V30 4603 C 440.717 2.2899 -2.61647 0
M  V30 4604 H 440.04 2.03124 -3.44355 0
M  V30 4605 H 441.48 2.9787 -3.01744 0
M  V30 4606 C 439.939 3.00085 -1.53136 0
M  V30 4607 O 440.469 3.91135 -0.91524 0
M  V30 4608 N 438.675 2.6194 -1.25841 0
M  V30 4609 H 438.222 1.8798 -1.76129 0
M  V30 4610 H 438.18 3.09822 -0.534576 0
M  V30 4611 N 441.952 1.55251 0.271103 0
M  V30 4612 C 443.229 1.66664 1.02384 0
M  V30 4613 C 443.609 0.534363 2.04225 0
M  V30 4614 O 442.957 -0.465337 2.23712 0
M  V30 4615 C 443.167 3.05961 1.67895 0
M  V30 4616 C 444.515 3.63772 2.18986 0
M  V30 4617 O 445.539 3.08606 1.77878 0
M  V30 4618 O 444.398 4.60429 2.94393 0
M  V30 4619 H 441.492 0.676957 0.475035 0
M  V30 4620 H 444.038 1.67589 0.26681 0
M  V30 4621 H 442.81 3.79815 0.941071 0
M  V30 4622 H 442.433 3.08943 2.5028 0
M  V30 4623 N 443.43 -0.535701 1.48216 0
M  V30 4624 C 444.678 -1.28928 1.55634 0
M  V30 4625 C 444.999 -1.93645 0.229514 0
M  V30 4626 O 444.269 -1.81038 -0.74846 0
M  V30 4627 H 442.849 -0.47884 0.573342 0
M  V30 4628 H 445.511 -0.623853 1.84646 0
M  V30 4629 H 444.607 -2.07157 2.33436 0
M  V30 4630 N 444.908 -1.36708 -0.784132 0
M  V30 4631 C 446.133 -1.34565 -1.5782 0
M  V30 4632 C 446.558 0.0695257 -1.87971 0
M  V30 4633 O 445.916 1.04302 -1.48293 0
M  V30 4634 C 445.964 -2.17952 -2.87279 0
M  V30 4635 O 445.068 -1.57563 -3.81114 0
M  V30 4636 H 444.409 -0.460337 -0.478524 0
M  V30 4637 H 446.939 -1.80064 -0.971495 0
M  V30 4638 H 446.949 -2.30721 -3.365 0
M  V30 4639 H 445.624 -3.20823 -2.64661 0
M  V30 4640 H 444.201 -1.53764 -3.39722 0
M  V30 4641 N 446.386 1.0089 -1.21074 0
M  V30 4642 C 447.316 2.1145 -0.990523 0
M  V30 4643 C 448.297 1.69897 0.0831699 0
M  V30 4644 O 449.482 1.94052 -0.0758853 0
M  V30 4645 C 446.612 3.42914 -0.550177 0
M  V30 4646 C 445.566 3.98244 -1.56799 0
M  V30 4647 C 444.892 5.25568 -0.984013 0
M  V30 4648 C 446.192 4.30752 -2.95381 0
M  V30 4649 H 447.886 2.3013 -1.91521 0
M  V30 4650 H 445.432 1.10592 -0.92225 0
M  V30 4651 H 447.385 4.19653 -0.383305 0
M  V30 4652 H 446.109 3.24014 0.41015 0
M  V30 4653 H 444.768 3.23621 -1.72236 0
M  V30 4654 H 444.416 5.02998 -0.0155216 0
M  V30 4655 H 444.116 5.63551 -1.66384 0
M  V30 4656 H 445.64 6.04955 -0.828378 0
M  V30 4657 H 447.054 4.98349 -2.8341 0
M  V30 4658 H 445.451 4.79869 -3.60341 0
M  V30 4659 H 446.521 3.39192 -3.46521 0
M  V30 4660 N 447.864 1.01787 1.20321 0
M  V30 4661 C 449.092 0.727194 1.937 0
M  V30 4662 C 449.507 -0.712305 1.74848 0
M  V30 4663 O 448.864 -1.48327 1.06327 0
M  V30 4664 C 448.915 1.05497 3.45764 0
M  V30 4665 O 448.636 2.43794 3.64 0
M  V30 4666 C 450.137 0.785534 4.36285 0
M  V30 4667 H 447.357 0.266939 0.615617 0
M  V30 4668 H 449.901 1.35939 1.52777 0
M  V30 4669 H 448.056 0.468158 3.84561 0
M  V30 4670 H 448.47 2.55656 4.57974 0
M  V30 4671 H 449.944 1.06495 5.4163 0
M  V30 4672 H 450.421 -0.280273 4.38305 0
M  V30 4673 H 451.027 1.35456 4.03152 0
M  V30 4674 N 449.342 -1.36122 0.79427 0
M  V30 4675 C 450.567 -2.03891 0.379871 0
M  V30 4676 C 450.992 -1.59488 -0.997251 0
M  V30 4677 O 450.35 -0.765652 -1.64339 0
M  V30 4678 C 450.398 -3.57687 0.457442 0
M  V30 4679 O 449.502 -4.08931 -0.5338 0
M  V30 4680 H 448.843 -0.6443 0.160541 0
M  V30 4681 H 451.373 -1.73976 1.07673 0
M  V30 4682 H 451.383 -4.06721 0.322792 0
M  V30 4683 H 450.058 -3.89357 1.46199 0
M  V30 4684 H 448.635 -3.71154 -0.360409 0
M  V30 4685 N 450.82 -0.546701 -1.47814 0
M  V30 4686 C 451.75 0.195317 -2.32682 0
M  V30 4687 C 452.731 0.918981 -1.43139 0
M  V30 4688 O 453.916 0.901501 -1.72008 0
M  V30 4689 C 451.046 1.23237 -3.247 0
M  V30 4690 C 450 0.625818 -4.234 0
M  V30 4691 C 449.326 1.76674 -5.04669 0
M  V30 4692 C 450.626 -0.413515 -5.2066 0
M  V30 4693 H 452.32 -0.513184 -2.94969 0
M  V30 4694 H 449.866 -0.248241 -1.41844 0
M  V30 4695 H 451.819 1.75955 -3.82907 0
M  V30 4696 H 450.543 1.97067 -2.60446 0
M  V30 4697 H 449.202 0.120023 -3.66403 0
M  V30 4698 H 448.85 2.49383 -4.36826 0
M  V30 4699 H 448.55 1.36673 -5.71484 0
M  V30 4700 H 450.074 2.29738 -5.65732 0
M  V30 4701 H 451.488 0.0272042 -5.73294 0
M  V30 4702 H 449.885 -0.731825 -5.95621 0
M  V30 4703 H 450.955 -1.31325 -4.66778 0
M  V30 4704 N 452.299 1.55045 -0.282633 0
M  V30 4705 C 453.246 2.22822 0.601566 0
M  V30 4706 C 454.216 1.20431 1.14392 0
M  V30 4707 O 455.401 1.48996 1.19184 0
M  V30 4708 C 452.541 2.95873 1.77632 0
M  V30 4709 C 451.654 4.12999 1.26711 0
M  V30 4710 C 450.789 4.73676 2.40426 0
M  V30 4711 C 449.828 5.82981 1.86545 0
M  V30 4712 N 448.965 6.3769 2.93762 0
M  V30 4713 H 453.805 2.97995 0.0169528 0
M  V30 4714 H 451.342 1.471 -0.00339964 0
M  V30 4715 H 453.3 3.36447 2.46697 0
M  V30 4716 H 451.93 2.2311 2.33285 0
M  V30 4717 H 450.982 3.77494 0.469314 0
M  V30 4718 H 452.294 4.91803 0.832518 0
M  V30 4719 H 451.448 5.17008 3.17471 0
M  V30 4720 H 450.187 3.94164 2.87203 0
M  V30 4721 H 449.192 5.39092 1.07983 0
M  V30 4722 H 450.417 6.64366 1.40694 0
M  V30 4723 H 448.363 5.61069 3.39908 0
M  V30 4724 H 448.28 7.11788 2.54744 0
M  V30 4725 H 449.548 6.8568 3.7076 0
M  V30 4726 N 453.777 0.010035 1.57597 0
M  V30 4727 C 455.023 -0.673697 1.91283 0
M  V30 4728 C 455.356 -1.72863 0.884979 0
M  V30 4729 O 454.631 -1.94268 -0.0949487 0
M  V30 4730 C 454.914 -1.30766 3.35518 0
M  V30 4731 C 454.767 -0.263578 4.49027 0
M  V30 4732 C 456.086 -2.23105 3.79358 0
M  V30 4733 H 453.205 -0.243439 0.695634 0
M  V30 4734 H 455.847 0.0633864 1.89894 0
M  V30 4735 H 453.997 -1.93588 3.36832 0
M  V30 4736 H 455.669 0.365738 4.59848 0
M  V30 4737 H 453.912 0.413077 4.31829 0
M  V30 4738 H 454.583 -0.746398 5.4693 0
M  V30 4739 H 457.059 -1.70289 3.79659 0
M  V30 4740 H 455.935 -2.64424 4.81011 0
M  V30 4741 H 456.196 -3.11433 3.13787 0
M  V30 4742 N 455.255 -1.55392 -0.262866 0
M  V30 4743 C 456.202 -1.88966 -1.32516 0
M  V30 4744 C 457.172 -0.742187 -1.48596 0
M  V30 4745 O 458.357 -0.99439 -1.62839 0
M  V30 4746 C 455.497 -2.17592 -2.67858 0
M  V30 4747 C 454.61 -3.45061 -2.59917 0
M  V30 4748 C 453.745 -3.63336 -3.87505 0
M  V30 4749 C 452.784 -4.84462 -3.74116 0
M  V30 4750 N 451.921 -4.99342 -4.93561 0
M  V30 4751 H 456.761 -2.79566 -1.03184 0
M  V30 4752 H 454.298 -1.38404 -0.498285 0
M  V30 4753 H 456.256 -2.3219 -3.46617 0
M  V30 4754 H 454.886 -1.30215 -2.95371 0
M  V30 4755 H 453.938 -3.38881 -1.72812 0
M  V30 4756 H 455.25 -4.3396 -2.45926 0
M  V30 4757 H 454.404 -3.77807 -4.74707 0
M  V30 4758 H 453.143 -2.72641 -4.04374 0
M  V30 4759 H 452.148 -4.69985 -2.85297 0
M  V30 4760 H 453.373 -5.76603 -3.58757 0
M  V30 4761 H 451.319 -4.1158 -5.10821 0
M  V30 4762 H 451.236 -5.82303 -4.82141 0
M  V30 4763 H 452.504 -5.18208 -5.82306 0
M  V30 4764 N 456.733 0.527833 -1.48498 0
M  V30 4765 C 457.979 1.28295 -1.57836 0
M  V30 4766 C 458.334 1.9077 -0.249943 0
M  V30 4767 O 457.627 1.76421 0.747402 0
M  V30 4768 C 457.821 2.39275 -2.65485 0
M  V30 4769 C 457.65 1.87679 -4.08664 0
M  V30 4770 C 456.42 1.70187 -4.75778 0
M  V30 4771 C 458.618 1.40409 -4.94762 0
M  V30 4772 N 456.6 1.13238 -6.03366 0
M  V30 4773 C 457.971 0.954216 -6.12613 0
M  V30 4774 C 460.026 1.28732 -4.8097 0
M  V30 4775 C 458.729 0.39915 -7.18192 0
M  V30 4776 C 460.755 0.746244 -5.86673 0
M  V30 4777 C 460.117 0.306457 -7.03733 0
M  V30 4778 H 456.216 0.460408 -0.632099 0
M  V30 4779 H 458.8 0.594913 -1.85388 0
M  V30 4780 H 456.971 3.05572 -2.3975 0
M  V30 4781 H 458.703 3.06308 -2.64495 0
M  V30 4782 H 455.458 1.93772 -4.32145 0
M  V30 4783 H 455.882 0.867687 -6.71417 0
M  V30 4784 H 460.524 1.61338 -3.90807 0
M  V30 4785 H 458.242 0.0607678 -8.08077 0
M  V30 4786 H 461.828 0.659041 -5.78055 0
M  V30 4787 H 460.708 -0.105708 -7.84129 0
M  V30 4788 N 458.211 1.37122 0.776871 0
M  V30 4789 C 459.143 1.28342 1.89897 0
M  V30 4790 C 460.156 0.200277 1.61563 0
M  V30 4791 O 461.345 0.456012 1.72577 0
M  V30 4792 C 458.445 0.960427 3.25006 0
M  V30 4793 C 457.618 2.148 3.81025 0
M  V30 4794 C 456.677 1.79608 4.94598 0
M  V30 4795 O 455.703 2.51845 5.10454 0
M  V30 4796 N 456.905 0.737171 5.758 0
M  V30 4797 H 459.67 2.25027 1.97947 0
M  V30 4798 H 457.231 1.3068 0.955739 0
M  V30 4799 H 459.223 0.705942 3.98495 0
M  V30 4800 H 457.793 0.0823066 3.12492 0
M  V30 4801 H 457.013 2.56454 2.99374 0
M  V30 4802 H 458.301 2.9411 4.15183 0
M  V30 4803 H 457.699 0.137637 5.65533 0
M  V30 4804 H 456.256 0.542534 6.49538 0
M  V30 4805 N 459.689 -1.00246 1.21608 0
M  V30 4806 C 461.105 -1.26435 0.973975 0
M  V30 4807 C 461.305 -1.98642 -0.338143 0
M  V30 4808 O 460.361 -2.29026 -1.06317 0
M  V30 4809 C 461.674 -2.08551 2.16626 0
M  V30 4810 C 463.222 -2.21769 2.20879 0
M  V30 4811 C 463.697 -3.07267 3.39633 0
M  V30 4812 N 465.188 -3.14855 3.39736 0
M  V30 4813 C 465.923 -3.81274 4.28273 0
M  V30 4814 N 465.419 -4.497 5.27012 0
M  V30 4815 N 467.212 -3.7794 4.16074 0
M  V30 4816 H 459.363 -0.518089 2.05984 0
M  V30 4817 H 461.626 -0.291368 0.902113 0
M  V30 4818 H 461.332 -1.62847 3.11727 0
M  V30 4819 H 461.206 -3.09303 2.15897 0
M  V30 4820 H 463.593 -2.66691 1.26332 0
M  V30 4821 H 463.674 -1.20478 2.25652 0
M  V30 4822 H 463.318 -2.63047 4.34475 0
M  V30 4823 H 463.248 -4.08678 3.321 0
M  V30 4824 H 465.739 -2.66147 2.6828 0
M  V30 4825 H 466.052 -4.98092 5.90867 0
M  V30 4826 H 464.397 -4.48479 5.30935 0
M  V30 4827 H 467.588 -3.23638 3.38195 0
M  V30 4828 H 467.761 -4.29424 4.85282 0
M  V30 4829 N 461.167 -1.02423 -1.1978 0
M  V30 4830 C 462.578 -0.748389 -1.71044 0
M  V30 4831 C 462.929 0.732398 -1.82017 0
M  V30 4832 O 462.054 1.57116 -1.48807 0
M  V30 4833 C 462.649 -1.35187 -3.1066 0
M  V30 4834 C 461.208 -1.12472 -3.59203 0
M  V30 4835 C 460.355 -1.45283 -2.36195 0
M  V30 4836 H 463.306 -1.19275 -1.04686 0
M  V30 4837 H 463.327 -0.746408 -3.73107 0
M  V30 4838 H 462.839 -2.4296 -3.02642 0
M  V30 4839 H 460.94 -0.0649983 -3.72543 0
M  V30 4840 H 461.053 -1.81016 -4.43588 0
M  V30 4841 H 459.417 -0.872034 -2.39307 0
M  V30 4842 H 460.2 -2.54129 -2.30811 0
M  V30 4843 N 462.645 1.35699 -0.801477 0
M  V30 4844 C 464.056 1.81415 -0.441073 0
M  V30 4845 C 464.407 1.66595 1.03636 0
M  V30 4846 O 463.532 1.19369 1.80499 0
M  V30 4847 C 464.127 3.29369 -0.793819 0
M  V30 4848 C 462.686 3.73248 -0.486083 0
M  V30 4849 C 461.833 2.57775 -1.02213 0
M  V30 4850 H 464.784 1.23749 -0.993572 0
M  V30 4851 H 464.805 3.80395 -0.0894158 0
M  V30 4852 H 464.317 3.40123 -1.86917 0
M  V30 4853 H 462.418 3.68046 0.580735 0
M  V30 4854 H 462.531 4.68222 -1.01513 0
M  V30 4855 H 460.895 2.50788 -0.444712 0
M  V30 4856 H 461.678 2.71309 -2.10348 0
M  V30 4857 N 464.123 0.554532 1.47522 0
M  V30 4858 C 465.371 0.0294208 2.02079 0
M  V30 4859 C 465.692 -1.32411 1.43151 0
M  V30 4860 O 464.962 -1.863 0.605728 0
M  V30 4861 H 463.542 0.00788672 0.746958 0
M  V30 4862 H 466.204 0.723934 1.80956 0
M  V30 4863 H 465.3 -0.0606745 3.12041 0
M  V30 4864 N 465.601 -1.54893 0.290851 0
M  V30 4865 C 466.549 -2.24579 -0.605576 0
M  V30 4866 C 467.543 -1.24824 -1.14522 0
M  V30 4867 O 468.749 -1.42706 -1.09704 0
M  V30 4868 H 465.124 -0.720946 -0.213872 0
M  V30 4869 H 467.095 -2.984 0.0048173 0
M  V30 4870 C 465.844 -2.99224 -1.77088 0
M  V30 4871 H 465.167 -3.75782 -1.36484 0
M  V30 4872 H 466.607 -3.51281 -2.3744 0
M  V30 4873 C 465.066 -2.05602 -2.66888 0
M  V30 4874 O 465.596 -1.61745 -3.67698 0
M  V30 4875 N 463.802 -1.71771 -2.34399 0
M  V30 4876 H 463.349 -2.07633 -1.52468 0
M  V30 4877 H 463.307 -1.09403 -2.94751 0
M  V30 4878 N 467.08 -0.0183926 -1.57589 0
M  V30 4879 C 468.326 0.663543 -1.91638 0
M  V30 4880 C 468.659 1.72392 -0.894134 0
M  V30 4881 O 467.934 1.94316 0.0846449 0
M  V30 4882 C 468.217 1.28984 -3.36207 0
M  V30 4883 C 468.07 0.239761 -4.49161 0
M  V30 4884 C 469.389 2.2109 -3.80536 0
M  V30 4885 H 466.508 0.239746 -0.696915 0
M  V30 4886 H 469.15 -0.073456 -1.89858 0
M  V30 4887 H 467.3 1.91799 -3.37854 0
M  V30 4888 H 468.972 -0.390119 -4.59647 0
M  V30 4889 H 467.215 -0.435972 -4.31604 0
M  V30 4890 H 467.886 0.717383 -5.47319 0
M  V30 4891 H 470.362 1.68273 -3.80557 0
M  V30 4892 H 469.238 2.61869 -4.82406 0
M  V30 4893 H 469.499 3.09764 -3.15434 0
M  V30 4894 N 468.558 1.5553 0.254621 0
M  V30 4895 C 469.835 1.6774 1.00611 0
M  V30 4896 C 470.215 0.555993 2.03647 0
M  V30 4897 O 469.563 -0.441583 2.24193 0
M  V30 4898 C 469.773 3.07725 1.6464 0
M  V30 4899 C 471.121 3.66074 2.15116 0
M  V30 4900 O 472.145 3.10476 1.74595 0
M  V30 4901 O 471.004 4.63526 2.89493 0
M  V30 4902 H 468.098 0.681958 0.467828 0
M  V30 4903 H 470.644 1.67863 0.24902 0
M  V30 4904 H 469.416 3.80792 0.900734 0
M  V30 4905 H 469.039 3.1158 2.46989 0
M  V30 4906 N 470.036 -0.519951 1.48776 0
M  V30 4907 C 471.261 -1.30447 1.6124 0
M  V30 4908 C 471.686 -1.86055 0.276591 0
M  V30 4909 O 471.044 -1.64915 -0.753183 0
M  V30 4910 C 471.092 -2.42406 2.66967 0
M  V30 4911 O 470.196 -3.45728 2.24824 0
M  V30 4912 H 469.537 -0.385924 0.540332 0
M  V30 4913 H 472.067 -0.624572 1.94834 0
M  V30 4914 H 472.077 -2.88447 2.88552 0
M  V30 4915 H 470.752 -2.01294 3.63941 0
M  V30 4916 H 469.329 -3.05737 2.13494 0
M  V30 4917 N 471.514 -1.37532 -0.769588 0
M  V30 4918 C 472.744 -1.35861 -1.55645 0
M  V30 4919 C 473.152 0.0574398 -1.89113 0
M  V30 4920 O 472.495 1.03021 -1.52093 0
M  V30 4921 C 472.557 -2.13431 -2.89288 0
M  V30 4922 C 472.221 -3.62378 -2.78444 0
M  V30 4923 C 473.218 -4.56215 -2.49326 0
M  V30 4924 C 470.903 -4.05529 -2.96398 0
M  V30 4925 C 472.897 -5.91181 -2.38294 0
M  V30 4926 C 470.584 -5.40579 -2.84987 0
M  V30 4927 C 471.582 -6.33218 -2.55975 0
M  V30 4928 O 471.27 -7.65787 -2.44594 0
M  V30 4929 H 471.002 -0.467001 -0.48876 0
M  V30 4930 H 473.556 -1.81505 -0.961515 0
M  V30 4931 H 471.786 -1.62481 -3.50909 0
M  V30 4932 H 473.475 -2.04368 -3.50697 0
M  V30 4933 H 474.241 -4.24187 -2.35139 0
M  V30 4934 H 470.12 -3.33781 -3.1798 0
M  V30 4935 H 473.664 -6.63457 -2.15571 0
M  V30 4936 H 469.561 -5.72209 -2.98743 0
M  V30 4937 H 470.329 -7.76132 -2.59927 0
M  V30 4938 N 472.992 0.995999 -1.22138 0
M  V30 4939 C 473.94 2.10673 -0.985876 0
M  V30 4940 C 474.934 1.69255 0.0699553 0
M  V30 4941 O 476.14 1.79812 -0.0822176 0
M  V30 4942 H 472.515 0.688865 -0.30161 0
M  V30 4943 H 474.486 2.27711 -1.92848 0
M  V30 4944 C 473.235 3.42881 -0.576909 0
M  V30 4945 H 472.558 3.75191 -1.38101 0
M  V30 4946 H 473.998 4.21589 -0.451518 0
M  V30 4947 C 472.457 3.29265 0.713196 0
M  V30 4948 O 472.987 3.60777 1.76643 0
M  V30 4949 N 471.193 2.82456 0.683162 0
M  V30 4950 H 470.74 2.5701 -0.174242 0
M  V30 4951 H 470.698 2.73727 1.54663 0
M  V30 4952 N 474.47 1.03057 1.19235 0
M  V30 4953 C 475.719 0.72326 1.88287 0
M  V30 4954 C 476.032 -0.751333 1.80594 0
M  V30 4955 O 477.238 -1.17176 2.44912 0
M  V30 4956 C 475.694 1.24338 3.3774 0
M  V30 4957 C 475.302 2.74587 3.53986 0
M  V30 4958 C 477.046 1.01213 4.12257 0
M  V30 4959 C 474.953 3.20009 4.97341 0
M  V30 4960 H 473.883 0.266848 0.705201 0
M  V30 4961 H 476.534 1.24509 1.34795 0
M  V30 4962 H 474.916 0.649457 3.90638 0
M  V30 4963 H 476.09 3.39649 3.11408 0
M  V30 4964 H 474.405 2.9601 2.9286 0
M  V30 4965 H 477.002 1.32675 5.17978 0
M  V30 4966 H 477.345 -0.051001 4.16269 0
M  V30 4967 H 477.878 1.57014 3.65501 0
M  V30 4968 H 474.617 4.25659 4.98493 0
M  V30 4969 H 474.137 2.59676 5.40674 0
M  V30 4970 H 475.816 3.13447 5.66003 0
M  V30 4971 N 475.948 -1.35272 0.808662 0
M  V30 4972 C 477.176 -2.02946 0.402537 0
M  V30 4973 C 477.591 -1.60937 -0.987147 0
M  V30 4974 O 476.948 -0.807917 -1.63643 0
M  V30 4975 C 476.999 -3.58317 0.47868 0
M  V30 4976 O 476.72 -3.98799 1.81358 0
M  V30 4977 C 478.221 -4.43251 0.0656281 0
M  V30 4978 H 475.441 -0.650831 0.163279 0
M  V30 4979 H 477.985 -1.72849 1.09286 0
M  V30 4980 H 476.14 -3.87055 -0.163415 0
M  V30 4981 H 476.554 -4.93451 1.77781 0
M  V30 4982 H 478.028 -5.51738 0.170017 0
M  V30 4983 H 478.505 -4.27913 -0.989278 0
M  V30 4984 H 479.111 -4.19813 0.68096 0
M  V30 4985 N 477.426 -0.562348 -1.47226 0
M  V30 4986 C 478.356 0.170627 -2.32876 0
M  V30 4987 C 479.337 0.903748 -1.44106 0
M  V30 4988 O 480.522 0.883206 -1.72954 0
M  V30 4989 C 477.652 1.19786 -3.25989 0
M  V30 4990 C 476.606 0.580875 -4.2404 0
M  V30 4991 C 475.932 1.71311 -5.06514 0
M  V30 4992 C 477.232 -0.468714 -5.20193 0
M  V30 4993 H 478.926 -0.544441 -2.94408 0
M  V30 4994 H 476.472 -0.263271 -1.41573 0
M  V30 4995 H 478.425 1.71884 -3.84752 0
M  V30 4996 H 477.149 1.94294 -2.62521 0
M  V30 4997 H 475.808 0.0811538 -3.6651 0
M  V30 4998 H 475.456 2.44736 -4.39447 0
M  V30 4999 H 475.156 1.30604 -5.72902 0
M  V30 5000 H 476.68 2.23725 -5.68137 0
M  V30 5001 H 478.094 -0.0336028 -5.7329 0
M  V30 5002 H 476.491 -0.794957 -5.94811 0
M  V30 5003 H 477.561 -1.36269 -4.65359 0
M  V30 5004 N 478.904 1.54736 -0.299062 0
M  V30 5005 C 480.129 2.04975 0.316254 0
M  V30 5006 C 480.554 1.17501 1.46885 0
M  V30 5007 O 479.912 0.178678 1.80417 0
M  V30 5008 C 479.96 3.52672 0.751997 0
M  V30 5009 O 479.064 3.68226 1.85697 0
M  V30 5010 H 478.405 0.661126 0.0617175 0
M  V30 5011 H 480.935 1.99805 -0.440341 0
M  V30 5012 H 480.945 3.94488 1.04133 0
M  V30 5013 H 479.62 4.158 -0.0911482 0
M  V30 5014 H 478.197 3.38316 1.56834 0
M  V30 5015 N 480.382 0.0267497 1.57577 0
M  V30 5016 C 481.332 -0.965003 2.06571 0
M  V30 5017 C 482.316 -1.28694 0.965746 0
M  V30 5018 O 483.508 -1.27345 1.22932 0
M  V30 5019 C 480.637 -2.24821 2.59443 0
M  V30 5020 C 479.723 -1.95474 3.76365 0
M  V30 5021 N 480.114 -1.36387 4.87065 0
M  V30 5022 C 478.412 -2.25478 3.84806 0
M  V30 5023 C 479.113 -1.24119 5.68304 0
M  V30 5024 N 478.089 -1.7359 5.15138 0
M  V30 5025 H 481.891 -0.503095 2.89562 0
M  V30 5026 H 479.405 -0.178322 1.61418 0
M  V30 5027 H 481.402 -2.9674 2.92833 0
M  V30 5028 H 480.062 -2.7164 1.77881 0
M  V30 5029 H 481.073 -1.03919 5.07367 0
M  V30 5030 H 477.75 -2.74987 3.14147 0
M  V30 5031 H 479.14 -0.784504 6.67304 0
M  V30 5032 N 481.861 -1.55662 -0.24637 0
M  V30 5033 C 482.808 -1.90361 -1.30504 0
M  V30 5034 C 483.778 -0.757905 -1.47801 0
M  V30 5035 O 484.963 -1.01161 -1.61775 0
M  V30 5036 C 482.103 -2.2042 -2.65535 0
M  V30 5037 C 481.216 -3.47799 -2.56242 0
M  V30 5038 C 480.351 -3.67426 -3.8363 0
M  V30 5039 C 479.39 -4.88403 -3.68956 0
M  V30 5040 N 478.527 -5.04548 -4.88237 0
M  V30 5041 H 483.367 -2.80645 -1.00213 0
M  V30 5042 H 480.904 -1.38924 -0.483577 0
M  V30 5043 H 482.862 -2.35853 -3.44135 0
M  V30 5044 H 481.492 -1.3334 -2.93973 0
M  V30 5045 H 480.544 -3.40694 -1.69208 0
M  V30 5046 H 481.856 -4.36544 -2.4131 0
M  V30 5047 H 481.01 -3.82821 -4.70673 0
M  V30 5048 H 479.749 -2.76914 -4.01459 0
M  V30 5049 H 478.754 -4.72984 -2.80296 0
M  V30 5050 H 479.979 -5.80375 -3.52621 0
M  V30 5051 H 477.925 -4.16974 -5.06427 0
M  V30 5052 H 477.842 -5.87384 -4.75937 0
M  V30 5053 H 479.11 -5.24355 -5.76777 0
M  V30 5054 N 483.339 0.512053 -1.4905 0
M  V30 5055 C 484.587 1.26436 -1.57665 0
M  V30 5056 C 484.908 1.93255 -0.260293 0
M  V30 5057 O 484.178 1.82206 0.719564 0
M  V30 5058 H 482.758 0.469658 -0.580888 0
M  V30 5059 H 485.42 0.594398 -1.85615 0
M  V30 5060 H 484.516 2.03417 -2.36702 0
M  V30 5061 N 484.817 1.37938 0.762283 0
M  V30 5062 C 486.045 1.36883 1.55147 0
M  V30 5063 C 486.46 -0.0435348 1.8875 0
M  V30 5064 O 485.817 -1.00786 1.52146 0
M  V30 5065 C 485.868 2.21624 2.85596 0
M  V30 5066 O 485.589 3.57358 2.5343 0
M  V30 5067 C 487.09 2.28653 3.7978 0
M  V30 5068 H 484.31 0.468521 0.480343 0
M  V30 5069 H 486.854 1.81404 0.944079 0
M  V30 5070 H 485.009 1.80588 3.42734 0
M  V30 5071 H 485.423 4.01883 3.37032 0
M  V30 5072 H 486.897 2.9225 4.68288 0
M  V30 5073 H 487.374 1.29767 4.19592 0
M  V30 5074 H 487.98 2.70043 3.28568 0
M  V30 5075 N 486.295 -0.989507 1.22664 0
M  V30 5076 C 487.544 -1.72375 1.04737 0
M  V30 5077 C 487.857 -1.91096 -0.417316 0
M  V30 5078 O 489.063 -2.6188 -0.716334 0
M  V30 5079 C 487.519 -3.10161 1.82561 0
M  V30 5080 C 487.127 -2.99358 3.333 0
M  V30 5081 C 488.871 -3.87607 1.73093 0
M  V30 5082 C 486.778 -4.32319 4.03552 0
M  V30 5083 H 485.708 -0.646326 0.388302 0
M  V30 5084 H 488.359 -1.10437 1.46546 0
M  V30 5085 H 486.741 -3.728 1.33552 0
M  V30 5086 H 487.915 -2.45863 3.89728 0
M  V30 5087 H 486.23 -2.35392 3.43481 0
M  V30 5088 H 488.827 -4.86025 2.22899 0
M  V30 5089 H 489.17 -4.10509 0.691976 0
M  V30 5090 H 489.703 -3.31652 2.19663 0
M  V30 5091 H 486.442 -4.14616 5.07714 0
M  V30 5092 H 485.962 -4.85714 3.51911 0
M  V30 5093 H 487.641 -5.01051 4.09337 0
M  V30 5094 N 487.773 -1.03688 -1.18687 0
M  V30 5095 C 488.72 -0.624624 -2.22187 0
M  V30 5096 C 489.69 0.365636 -1.62026 0
M  V30 5097 O 490.875 0.260481 -1.89014 0
M  V30 5098 C 488.015 0.0101738 -3.45099 0
M  V30 5099 C 487.128 -1.02709 -4.19613 0
M  V30 5100 C 486.263 -0.361213 -5.2997 0
M  V30 5101 C 485.302 -1.38384 -5.96252 0
M  V30 5102 N 484.439 -0.743196 -6.98155 0
M  V30 5103 H 489.279 -1.51176 -2.56807 0
M  V30 5104 H 486.816 -0.75636 -1.26165 0
M  V30 5105 H 488.774 0.395528 -4.15321 0
M  V30 5106 H 487.404 0.860848 -3.1111 0
M  V30 5107 H 486.456 -1.53043 -3.48256 0
M  V30 5108 H 487.768 -1.80398 -4.65036 0
M  V30 5109 H 486.922 0.0785537 -6.06649 0
M  V30 5110 H 485.661 0.447799 -4.8564 0
M  V30 5111 H 484.666 -1.83378 -5.18317 0
M  V30 5112 H 485.891 -2.19448 -6.42666 0
M  V30 5113 H 483.837 0.0455789 -6.55984 0
M  V30 5114 H 483.754 -1.45784 -7.41811 0
M  V30 5115 H 485.022 -0.327698 -7.78811 0
M  V30 5116 N 489.251 1.34841 -0.815825 0
M  V30 5117 C 490.161 2.33425 -0.234462 0
M  V30 5118 C 491.177 1.62295 0.627413 0
M  V30 5119 O 492.353 1.94109 0.536987 0
M  V30 5120 C 489.418 3.41471 0.599849 0
M  V30 5121 C 488.479 4.28362 -0.283596 0
M  V30 5122 C 487.712 5.31248 0.51099 0
M  V30 5123 O 487.935 5.43056 1.7449 0
M  V30 5124 O 486.869 6.01812 -0.10297 0
M  V30 5125 H 490.695 2.84962 -1.05024 0
M  V30 5126 H 488.28 1.37774 -0.577809 0
M  V30 5127 H 490.162 4.07464 1.07475 0
M  V30 5128 H 488.837 2.9219 1.39308 0
M  V30 5129 H 487.744 3.65318 -0.805836 0
M  V30 5130 H 489.077 4.81066 -1.041 0
M  V30 5131 N 490.729 0.570148 1.46925 0
M  V30 5132 C 491.954 0.0542592 2.07329 0
M  V30 5133 C 492.379 -1.23582 1.41806 0
M  V30 5134 O 491.737 -1.74341 0.497479 0
M  V30 5135 C 491.785 -0.111175 3.60429 0
M  V30 5136 O 490.889 -1.17071 3.95434 0
M  V30 5137 H 490.23 0.0571425 0.661537 0
M  V30 5138 H 492.76 0.789516 1.88753 0
M  V30 5139 H 492.77 -0.321315 4.06733 0
M  V30 5140 H 491.445 0.831012 4.07513 0
M  V30 5141 H 490.022 -0.940029 3.60857 0
M  V30 5142 N 492.207 -1.54576 0.307264 0
M  V30 5143 C 493.623 -1.59534 -0.0459251 0
M  V30 5144 C 493.823 -1.32414 -1.51884 0
M  V30 5145 O 492.879 -1.1006 -2.27251 0
M  V30 5146 C 494.192 -2.98566 0.357649 0
M  V30 5147 C 495.74 -3.11491 0.306937 0
M  V30 5148 C 496.215 -4.52842 0.685427 0
M  V30 5149 N 497.706 -4.58782 0.638203 0
M  V30 5150 C 498.441 -5.66238 0.903458 0
M  V30 5151 N 497.937 -6.81703 1.23501 0
M  V30 5152 N 499.73 -5.55937 0.830102 0
M  V30 5153 H 491.881 -1.70464 1.26712 0
M  V30 5154 H 494.144 -0.79647 0.514139 0
M  V30 5155 H 493.85 -3.23356 1.38325 0
M  V30 5156 H 493.724 -3.76117 -0.285565 0
M  V30 5157 H 496.111 -2.86446 -0.709424 0
M  V30 5158 H 496.192 -2.36081 0.984861 0
M  V30 5159 H 495.836 -4.78618 1.69963 0
M  V30 5160 H 495.766 -5.26598 -0.0146346 0
M  V30 5161 H 498.257 -3.75849 0.393138 0
M  V30 5162 H 498.57 -7.59582 1.42322 0
M  V30 5163 H 496.915 -6.8324 1.27311 0
M  V30 5164 H 500.106 -4.64608 0.570693 0
M  V30 5165 H 500.279 -6.39597 1.04019 0
M  V30 5166 N 493.685 -0.035106 -1.57561 0
M  V30 5167 C 494.931 0.64318 -1.92331 0
M  V30 5168 C 495.264 1.71434 -0.912368 0
M  V30 5169 O 494.539 1.94395 0.0640303 0
M  V30 5170 C 494.822 1.25411 -3.37556 0
M  V30 5171 C 494.675 0.192109 -4.4939 0
M  V30 5172 C 495.994 2.17041 -3.82859 0
M  V30 5173 H 493.113 0.232341 -0.699419 0
M  V30 5174 H 495.755 -0.0935889 -1.89769 0
M  V30 5175 H 493.905 1.88205 -3.39869 0
M  V30 5176 H 495.577 -0.438849 -4.59208 0
M  V30 5177 H 493.82 -0.481725 -4.31117 0
M  V30 5178 H 494.491 0.659292 -5.48049 0
M  V30 5179 H 496.967 1.64228 -3.8232 0
M  V30 5180 H 495.843 2.56738 -4.85157 0
M  V30 5181 H 496.104 3.06401 -3.18702 0
M  V30 5182 N 495.163 1.55791 0.238111 0
M  V30 5183 C 496.093 1.94068 1.29846 0
M  V30 5184 C 497.074 0.806726 1.49753 0
M  V30 5185 O 498.259 1.06772 1.62214 0
M  V30 5186 C 495.389 2.24302 2.65153 0
M  V30 5187 C 494.343 3.40032 2.59927 0
M  V30 5188 C 493.669 3.55829 3.99111 0
M  V30 5189 C 494.969 4.75476 2.16148 0
M  V30 5190 H 496.663 2.82887 0.980563 0
M  V30 5191 H 494.209 1.36105 0.470253 0
M  V30 5192 H 496.162 2.4967 3.39475 0
M  V30 5193 H 494.886 1.32318 2.98596 0
M  V30 5194 H 493.545 3.14687 1.88063 0
M  V30 5195 H 493.193 2.6125 4.29834 0
M  V30 5196 H 492.893 4.3366 3.96501 0
M  V30 5197 H 494.417 3.83528 4.7512 0
M  V30 5198 H 495.831 5.00158 2.80205 0
M  V30 5199 H 494.228 5.56472 2.24631 0
M  V30 5200 H 495.298 4.71946 1.11333 0
M  V30 5201 N 496.642 -0.504142 1.49319 0
M  V30 5202 C 497.605 -1.5883 1.65244 0
M  V30 5203 C 498.605 -1.52009 0.524386 0
M  V30 5204 O 499.795 -1.55218 0.79077 0
M  V30 5205 C 496.927 -2.98481 1.64687 0
M  V30 5206 H 498.12 -1.4604 2.61939 0
M  V30 5207 H 495.673 -0.728144 1.38303 0
M  V30 5208 H 496.408 -3.16751 0.695644 0
M  V30 5209 H 496.193 -3.0484 2.46607 0
M  V30 5210 H 497.683 -3.77256 1.79075 0
M  V30 5211 N 498.12 -1.38341 -0.754957 0
M  V30 5212 C 499.531 -1.30803 -1.3322 0
M  V30 5213 C 499.882 0.0368 -1.96165 0
M  V30 5214 O 499.007 0.938844 -1.94974 0
M  V30 5215 C 499.602 -2.3688 -2.42225 0
M  V30 5216 C 498.161 -2.32925 -2.95674 0
M  V30 5217 C 497.308 -2.19819 -1.69042 0
M  V30 5218 H 500.259 -1.48719 -0.553937 0
M  V30 5219 H 500.28 -2.02517 -3.22129 0
M  V30 5220 H 499.792 -3.34747 -1.96383 0
M  V30 5221 H 497.893 -1.38635 -3.45848 0
M  V30 5222 H 498.006 -3.27008 -3.50146 0
M  V30 5223 H 496.37 -1.66648 -1.92615 0
M  V30 5224 H 497.153 -3.19625 -1.25279 0
M  V30 5225 N 499.598 0.982988 -1.23187 0
M  V30 5226 C 500.844 1.7273 -1.07405 0
M  V30 5227 C 501.199 1.885 0.385447 0
M  V30 5228 O 500.492 1.4243 1.28157 0
M  V30 5229 C 500.686 3.12736 -1.73006 0
M  V30 5230 C 500.515 3.10621 -3.25184 0
M  V30 5231 C 499.285 3.15957 -3.94334 0
M  V30 5232 C 501.483 2.93992 -4.21987 0
M  V30 5233 N 499.465 3.03701 -5.33516 0
M  V30 5234 C 500.836 2.8987 -5.48065 0
M  V30 5235 C 502.891 2.78457 -4.12754 0
M  V30 5236 C 501.594 2.71804 -6.65969 0
M  V30 5237 C 503.62 2.61754 -5.30319 0
M  V30 5238 C 502.982 2.58328 -6.55321 0
M  V30 5239 H 499.081 0.641279 -0.447533 0
M  V30 5240 H 501.665 1.16664 -1.55877 0
M  V30 5241 H 499.836 3.67026 -1.2707 0
M  V30 5242 H 501.568 3.75786 -1.50224 0
M  V30 5243 H 498.323 3.24034 -3.45397 0
M  V30 5244 H 498.747 3.00855 -6.06478 0
M  V30 5245 H 503.389 2.79898 -3.16886 0
M  V30 5246 H 501.107 2.69108 -7.61975 0
M  V30 5247 H 504.693 2.50702 -5.25014 0
M  V30 5248 H 503.573 2.45564 -7.4476 0
M  V30 5249 N 501.076 1.04316 1.18135 0
M  V30 5250 C 502.325 0.74319 1.87509 0
M  V30 5251 C 502.638 -0.732136 1.81381 0
M  V30 5252 O 503.844 -1.14572 2.46141 0
M  V30 5253 C 502.3 1.27913 3.36402 0
M  V30 5254 C 501.908 2.78326 3.51053 0
M  V30 5255 C 503.652 1.0558 4.11161 0
M  V30 5256 C 501.559 3.25266 4.93919 0
M  V30 5257 H 500.489 0.274313 0.702331 0
M  V30 5258 H 503.14 1.25931 1.33467 0
M  V30 5259 H 501.522 0.690853 3.89927 0
M  V30 5260 H 502.696 3.42933 3.07788 0
M  V30 5261 H 501.011 2.991 2.89704 0
M  V30 5262 H 503.608 1.38161 5.16542 0
M  V30 5263 H 503.951 -0.00684729 4.16299 0
M  V30 5264 H 504.484 1.60882 3.63816 0
M  V30 5265 H 501.223 4.30922 4.9395 0
M  V30 5266 H 500.743 2.65396 5.3789 0
M  V30 5267 H 502.422 3.19433 5.62647 0
M  V30 5268 N 502.554 -1.34406 0.822964 0
M  V30 5269 C 503.782 -2.02508 0.424039 0
M  V30 5270 C 504.197 -1.61975 -0.970022 0
M  V30 5271 O 503.554 -0.825228 -1.62777 0
M  V30 5272 C 503.605 -3.57789 0.516657 0
M  V30 5273 O 503.326 -3.96853 1.85577 0
M  V30 5274 C 504.827 -4.43157 0.112637 0
M  V30 5275 H 502.047 -0.649063 0.170173 0
M  V30 5276 H 504.591 -1.7168 1.11113 0
M  V30 5277 H 502.746 -3.87207 -0.122353 0
M  V30 5278 H 503.16 -4.91538 1.83005 0
M  V30 5279 H 504.634 -5.51527 0.228526 0
M  V30 5280 H 505.111 -4.28939 -0.943837 0
M  V30 5281 H 505.717 -4.19067 0.725449 0
M  V30 5282 N 504.032 -0.577932 -1.46621 0
M  V30 5283 C 504.942 0.160651 -2.34049 0
M  V30 5284 C 505.958 0.890911 -1.49462 0
M  V30 5285 O 507.134 0.855166 -1.82343 0
M  V30 5286 C 504.199 1.16447 -3.26559 0
M  V30 5287 C 503.26 0.4394 -4.27045 0
M  V30 5288 C 502.493 1.3954 -5.15135 0
M  V30 5289 O 502.716 2.63162 -5.06065 0
M  V30 5290 O 501.65 0.908585 -5.95003 0
M  V30 5291 H 505.476 -0.557057 -2.98547 0
M  V30 5292 H 503.061 -0.338369 -1.45518 0
M  V30 5293 H 504.943 1.7434 -3.83645 0
M  V30 5294 H 503.618 1.86373 -2.64663 0
M  V30 5295 H 502.525 -0.181247 -3.73661 0
M  V30 5296 H 503.858 -0.218799 -4.91713 0
M  V30 5297 N 505.51 1.54411 -0.315457 0
M  V30 5298 C 506.738 2.04833 0.291738 0
M  V30 5299 C 507.153 1.19203 1.46411 0
M  V30 5300 O 506.51 0.220867 1.81159 0
M  V30 5301 C 506.561 3.53969 0.73404 0
M  V30 5302 O 506.282 4.36346 -0.391682 0
M  V30 5303 C 507.783 4.2045 1.40489 0
M  V30 5304 H 505.003 0.668195 0.0612947 0
M  V30 5305 H 507.547 1.99276 -0.45929 0
M  V30 5306 H 505.702 3.5984 1.43506 0
M  V30 5307 H 506.116 5.24481 -0.0447088 0
M  V30 5308 H 507.59 5.26278 1.66539 0
M  V30 5309 H 508.067 3.71067 2.3496 0
M  V30 5310 H 508.673 4.18694 0.746662 0
M  V30 5311 N 506.988 0.0434614 1.5754 0
M  V30 5312 C 507.938 -0.943039 2.07583 0
M  V30 5313 C 508.922 -1.27662 0.979342 0
M  V30 5314 O 510.114 -1.26034 1.24276 0
M  V30 5315 C 507.243 -2.22056 2.61813 0
M  V30 5316 C 506.329 -1.91471 3.78417 0
M  V30 5317 N 506.72 -1.31214 4.88484 0
M  V30 5318 C 505.018 -2.21384 3.87176 0
M  V30 5319 C 505.719 -1.18084 5.69588 0
M  V30 5320 N 504.695 -1.68116 5.16951 0
M  V30 5321 H 508.497 -0.472354 2.90079 0
M  V30 5322 H 506.011 -0.161191 1.61598 0
M  V30 5323 H 508.008 -2.93618 2.95963 0
M  V30 5324 H 506.668 -2.69738 1.80752 0
M  V30 5325 H 507.679 -0.985318 5.08441 0
M  V30 5326 H 504.356 -2.7164 3.17046 0
M  V30 5327 H 505.746 -0.713684 6.68099 0
M  V30 5328 N 508.466 -1.55915 -0.229846 0
M  V30 5329 C 509.713 -1.78542 -0.955452 0
M  V30 5330 C 510.041 -0.610785 -1.84661 0
M  V30 5331 O 509.296 0.405213 -1.91459 0
M  V30 5332 C 509.595 -3.06845 -1.8325 0
M  V30 5333 C 509.261 -4.37395 -1.09528 0
M  V30 5334 C 507.923 -4.72868 -0.891598 0
M  V30 5335 C 510.275 -5.18029 -0.574046 0
M  V30 5336 C 507.603 -5.86496 -0.154655 0
M  V30 5337 C 509.955 -6.32423 0.149513 0
M  V30 5338 C 508.619 -6.66504 0.364519 0
M  V30 5339 H 507.889 -0.653333 -0.349625 0
M  V30 5340 H 510.536 -1.90183 -0.224235 0
M  V30 5341 H 508.841 -2.90291 -2.63132 0
M  V30 5342 H 510.538 -3.21553 -2.39592 0
M  V30 5343 H 507.128 -4.09538 -1.26399 0
M  V30 5344 H 511.312 -4.91066 -0.718899 0
M  V30 5345 H 506.568 -6.11396 0.0222356 0
M  V30 5346 H 510.742 -6.94137 0.560947 0
M  V30 5347 H 508.369 -7.54397 0.937495 0
M  V30 5348 N 509.944 0.496216 -1.49584 0
M  V30 5349 C 510.891 1.59722 -1.66606 0
M  V30 5350 C 511.861 1.58158 -0.507477 0
M  V30 5351 O 513.046 1.76072 -0.735076 0
M  V30 5352 C 510.186 2.97844 -1.74308 0
M  V30 5353 C 509.299 3.09388 -3.01502 0
M  V30 5354 C 508.434 4.38271 -3.00153 0
M  V30 5355 C 507.473 4.43466 -4.21906 0
M  V30 5356 N 506.61 5.63784 -4.1844 0
M  V30 5357 H 511.45 1.44515 -2.60613 0
M  V30 5358 H 508.987 0.703048 -1.29212 0
M  V30 5359 H 510.945 3.77907 -1.76754 0
M  V30 5360 H 509.575 3.11743 -0.837619 0
M  V30 5361 H 508.627 2.22357 -3.08645 0
M  V30 5362 H 509.939 3.09085 -3.91494 0
M  V30 5363 H 509.093 5.2666 -3.01188 0
M  V30 5364 H 507.832 4.41146 -2.07947 0
M  V30 5365 H 506.837 3.53478 -4.21109 0
M  V30 5366 H 508.062 4.42303 -5.1531 0
M  V30 5367 H 506.008 5.67491 -3.29074 0
M  V30 5368 H 505.925 5.65118 -5.02173 0
M  V30 5369 H 507.193 6.54367 -4.23585 0
M  V30 5370 N 511.423 1.38739 0.74761 0
M  V30 5371 C 512.333 1.38696 1.89211 0
M  V30 5372 C 513.349 0.283303 1.71678 0
M  V30 5373 O 514.525 0.522713 1.94498 0
M  V30 5374 C 511.59 1.21662 3.24653 0
M  V30 5375 C 510.651 2.41886 3.54669 0
M  V30 5376 C 509.884 2.25655 4.83648 0
M  V30 5377 O 510.107 1.25339 5.56459 0
M  V30 5378 O 509.041 3.14372 5.13277 0
M  V30 5379 H 512.867 2.35143 1.92202 0
M  V30 5380 H 510.452 1.19721 0.893708 0
M  V30 5381 H 512.334 1.14246 4.05618 0
M  V30 5382 H 511.009 0.283024 3.2246 0
M  V30 5383 H 509.916 2.54877 2.73841 0
M  V30 5384 H 511.249 3.33895 3.61628 0
M  V30 5385 N 512.901 -0.976442 1.23707 0
M  V30 5386 C 513.831 -2.08749 1.04624 0
M  V30 5387 C 514.812 -1.70057 -0.0380956 0
M  V30 5388 O 515.997 -1.93782 0.127308 0
M  V30 5389 C 513.127 -3.41335 0.640902 0
M  V30 5390 C 512.081 -3.93947 1.67302 0
M  V30 5391 C 511.407 -5.22774 1.12301 0
M  V30 5392 C 512.707 -4.22769 3.06697 0
M  V30 5393 H 514.401 -2.24972 1.97555 0
M  V30 5394 H 511.947 -1.08108 0.951247 0
M  V30 5395 H 513.9 -4.18489 0.494434 0
M  V30 5396 H 512.624 -3.24988 -0.324099 0
M  V30 5397 H 511.283 -3.18941 1.80755 0
M  V30 5398 H 510.931 -5.0278 0.148877 0
M  V30 5399 H 510.631 -5.58942 1.81267 0
M  V30 5400 H 512.155 -6.02546 0.988479 0
M  V30 5401 H 513.569 -4.90659 2.96524 0
M  V30 5402 H 511.966 -4.70147 3.72937 0
M  V30 5403 H 513.036 -3.29885 3.55392 0
M  V30 5404 N 514.379 -1.04941 -1.1758 0
M  V30 5405 C 515.625 -0.759112 -1.88057 0
M  V30 5406 C 515.958 0.711918 -1.8068 0
M  V30 5407 O 515.233 1.52035 -1.21308 0
M  V30 5408 C 515.516 -1.237 -3.38187 0
M  V30 5409 C 515.369 -2.77078 -3.54327 0
M  V30 5410 C 516.688 -0.834014 -4.32125 0
M  V30 5411 H 513.807 -0.277237 -0.682868 0
M  V30 5412 H 516.449 -1.30296 -1.38286 0
M  V30 5413 H 514.599 -0.774337 -3.80705 0
M  V30 5414 H 516.271 -3.31449 -3.20842 0
M  V30 5415 H 514.514 -3.16477 -2.96689 0
M  V30 5416 H 515.185 -3.05577 -4.59703 0
M  V30 5417 H 517.661 -1.23228 -3.97434 0
M  V30 5418 H 516.537 -1.19603 -5.35711 0
M  V30 5419 H 516.798 0.262195 -4.41322 0
M  V30 5420 N 515.857 1.33968 -0.830081 0
M  V30 5421 C 517.268 1.80439 -0.479455 0
M  V30 5422 C 517.619 1.68756 1.00079 0
M  V30 5423 O 516.744 1.23171 1.77927 0
M  V30 5424 C 517.339 3.27611 -0.863505 0
M  V30 5425 C 515.898 3.72133 -0.565145 0
M  V30 5426 C 515.045 2.55549 -1.07657 0
M  V30 5427 H 517.996 1.21614 -1.0196 0
M  V30 5428 H 518.017 3.8012 -0.170083 0
M  V30 5429 H 517.529 3.36082 -1.94089 0
M  V30 5430 H 515.63 3.69196 0.502536 0
M  V30 5431 H 515.743 4.65963 -1.11422 0
M  V30 5432 H 514.107 2.49788 -0.497807 0
M  V30 5433 H 514.89 2.66786 -2.16055 0
M  V30 5434 N 517.335 0.585699 1.46312 0
M  V30 5435 C 518.583 0.072278 2.01971 0
M  V30 5436 C 518.904 -1.29345 1.45928 0
M  V30 5437 O 518.174 -1.84973 0.645109 0
M  V30 5438 H 516.754 0.023729 0.746623 0
M  V30 5439 H 519.416 0.762155 1.7938 0
M  V30 5440 H 518.512 0.00552767 3.121 0
M  V30 5441 N 518.813 -1.54241 0.323641 0
M  V30 5442 C 520.229 -1.59574 -0.0290018 0
M  V30 5443 C 520.429 -1.34017 -1.50472 0
M  V30 5444 O 519.485 -1.12464 -2.26071 0
M  V30 5445 C 520.798 -2.98169 0.389295 0
M  V30 5446 C 522.346 -3.11148 0.339958 0
M  V30 5447 C 522.821 -4.5209 0.733418 0
M  V30 5448 N 524.312 -4.5808 0.686827 0
M  V30 5449 C 525.047 -5.65248 0.963464 0
M  V30 5450 N 524.543 -6.80355 1.30724 0
M  V30 5451 N 526.336 -5.55025 0.88902 0
M  V30 5452 H 518.487 -1.6911 1.28512 0
M  V30 5453 H 520.75 -0.790972 0.522558 0
M  V30 5454 H 520.456 -3.21871 1.41746 0
M  V30 5455 H 520.33 -3.76399 -0.245657 0
M  V30 5456 H 522.717 -2.87182 -0.679002 0
M  V30 5457 H 522.798 -2.35023 1.00985 0
M  V30 5458 H 522.442 -4.76788 1.75029 0
M  V30 5459 H 522.372 -5.26584 0.0412189 0
M  V30 5460 H 524.863 -3.75411 0.43298 0
M  V30 5461 H 525.176 -7.58029 1.5037 0
M  V30 5462 H 523.521 -6.81851 1.3455 0
M  V30 5463 H 526.712 -4.63977 0.619939 0
M  V30 5464 H 526.885 -6.38458 1.10797 0
M  V30 5465 N 520.291 -0.0518155 -1.57515 0
M  V30 5466 C 521.221 0.920283 -2.146 0
M  V30 5467 C 522.202 1.32406 -1.06783 0
M  V30 5468 O 523.387 1.39866 -1.34726 0
M  V30 5469 C 520.517 2.1949 -2.6915 0
M  V30 5470 C 519.471 1.93116 -3.81956 0
M  V30 5471 C 518.797 3.27037 -4.23026 0
M  V30 5472 C 520.097 1.25225 -5.07066 0
M  V30 5473 H 521.791 0.444801 -2.96077 0
M  V30 5474 H 519.337 0.212508 -1.42423 0
M  V30 5475 H 521.29 2.87894 -3.07725 0
M  V30 5476 H 520.014 2.69244 -1.84865 0
M  V30 5477 H 518.673 1.27123 -3.43854 0
M  V30 5478 H 518.321 3.74595 -3.3569 0
M  V30 5479 H 518.021 3.10189 -4.99056 0
M  V30 5480 H 519.545 3.96673 -4.64202 0
M  V30 5481 H 520.959 1.83666 -5.43083 0
M  V30 5482 H 519.356 1.18702 -5.88243 0
M  V30 5483 H 520.426 0.228382 -4.84362 0
M  V30 5484 N 521.769 1.56035 0.221574 0
M  V30 5485 C 522.999 1.82864 0.961468 0
M  V30 5486 C 523.407 0.628703 1.78449 0
M  V30 5487 O 522.75 -0.412109 1.79018 0
M  V30 5488 C 522.812 3.03425 1.92804 0
M  V30 5489 C 522.476 4.38429 1.28954 0
M  V30 5490 C 523.473 5.15441 0.679431 0
M  V30 5491 C 521.158 4.85151 1.30131 0
M  V30 5492 C 523.152 6.37337 0.0896148 0
M  V30 5493 C 520.839 6.06989 0.707651 0
M  V30 5494 C 521.837 6.82923 0.102855 0
M  V30 5495 O 521.525 8.02456 -0.48157 0
M  V30 5496 H 521.257 0.611883 0.28736 0
M  V30 5497 H 523.811 2.0397 0.241932 0
M  V30 5498 H 522.041 2.78138 2.68656 0
M  V30 5499 H 523.73 3.17127 2.53348 0
M  V30 5500 H 524.496 4.80452 0.662661 0
M  V30 5501 H 520.375 4.26021 1.76145 0
M  V30 5502 H 523.919 6.96547 -0.383069 0
M  V30 5503 H 519.816 6.41451 0.721834 0
M  V30 5504 H 520.584 8.17636 -0.375887 0
M  V30 5505 N 523.247 -0.488276 1.49845 0
M  V30 5506 C 524.179 -1.60539 1.63584 0
M  V30 5507 C 525.192 -1.5434 0.517972 0
M  V30 5508 O 526.381 -1.60041 0.790516 0
M  V30 5509 C 523.481 -2.99374 1.58835 0
M  V30 5510 C 522.654 -3.30624 2.86368 0
M  V30 5511 C 521.713 -4.4893 2.74496 0
M  V30 5512 O 520.739 -4.50085 3.48443 0
M  V30 5513 N 521.941 -5.49591 1.86894 0
M  V30 5514 H 524.706 -1.49176 2.59936 0
M  V30 5515 H 522.267 -0.67639 1.47094 0
M  V30 5516 H 524.259 -3.76459 1.48529 0
M  V30 5517 H 522.829 -3.04595 0.702892 0
M  V30 5518 H 522.049 -2.42314 3.1093 0
M  V30 5519 H 523.337 -3.48305 3.70892 0
M  V30 5520 H 522.735 -5.51467 1.26097 0
M  V30 5521 H 521.292 -6.25728 1.82503 0
M  V30 5522 N 524.725 -1.39134 -0.740242 0
M  V30 5523 C 525.971 -1.36273 -1.50192 0
M  V30 5524 C 526.304 0.0430136 -1.94152 0
M  V30 5525 O 525.579 1.00691 -1.66408 0
M  V30 5526 C 525.862 -2.33041 -2.74525 0
M  V30 5527 C 525.715 -3.82535 -2.36617 0
M  V30 5528 C 527.034 -2.27723 -3.76604 0
M  V30 5529 H 524.153 -0.496323 -0.544823 0
M  V30 5530 H 526.795 -1.70085 -0.846815 0
M  V30 5531 H 524.945 -2.04337 -3.30422 0
M  V30 5532 H 526.617 -4.21967 -1.86391 0
M  V30 5533 H 524.86 -3.99565 -1.68909 0
M  V30 5534 H 525.531 -4.45723 -3.2563 0
M  V30 5535 H 528.007 -2.53091 -3.30279 0
M  V30 5536 H 526.883 -2.97519 -4.61274 0
M  V30 5537 H 527.144 -1.28049 -4.2315 0
M  V30 5538 N 526.204 0.969867 -1.24223 0
M  V30 5539 C 527.432 1.74756 -1.10761 0
M  V30 5540 C 527.847 1.85713 0.340041 0
M  V30 5541 O 527.204 1.34389 1.23474 0
M  V30 5542 C 527.255 3.16915 -1.73917 0
M  V30 5543 O 526.976 3.06511 -3.13021 0
M  V30 5544 C 528.477 4.11032 -1.66036 0
M  V30 5545 H 525.697 0.548092 -0.387087 0
M  V30 5546 H 528.241 1.2178 -1.64286 0
M  V30 5547 H 526.396 3.66884 -1.244 0
M  V30 5548 H 526.81 3.96079 -3.43834 0
M  V30 5549 H 528.284 5.08446 -2.14911 0
M  V30 5550 H 528.761 4.34785 -0.621159 0
M  V30 5551 H 529.367 3.66972 -2.14969 0
M  V30 5552 N 527.682 1.05563 1.17022 0
M  V30 5553 C 528.928 0.769074 1.87652 0
M  V30 5554 C 529.261 -0.702326 1.81055 0
M  V30 5555 O 528.536 -1.5139 1.22112 0
M  V30 5556 C 528.819 1.25492 3.37526 0
M  V30 5557 C 528.672 2.78953 3.52853 0
M  V30 5558 C 529.991 0.856919 4.31677 0
M  V30 5559 H 527.11 0.280854 0.681388 0
M  V30 5560 H 529.752 1.31027 1.37593 0
M  V30 5561 H 527.902 0.794516 3.80289 0
M  V30 5562 H 529.574 3.33146 3.19079 0
M  V30 5563 H 527.817 3.18046 2.95007 0
M  V30 5564 H 528.488 3.08011 4.58076 0
M  V30 5565 H 530.964 1.25334 3.96775 0
M  V30 5566 H 529.84 1.22443 5.35069 0
M  V30 5567 H 530.101 -0.238787 4.41455 0
M  V30 5568 N 529.16 -1.33526 0.837174 0
M  V30 5569 C 530.385 -2.0258 0.444545 0
M  V30 5570 C 530.81 -1.6258 -0.946006 0
M  V30 5571 O 530.168 -0.817548 -1.6182 0
M  V30 5572 C 530.216 -3.5605 0.571006 0
M  V30 5573 O 529.32 -4.10422 -0.403431 0
M  V30 5574 H 528.661 -0.638866 0.180958 0
M  V30 5575 H 531.191 -1.70462 1.13154 0
M  V30 5576 H 531.201 -4.05488 0.452024 0
M  V30 5577 H 529.876 -3.84509 1.58512 0
M  V30 5578 H 528.453 -3.72113 -0.242147 0
M  V30 5579 N 530.638 -0.59345 -1.46 0
M  V30 5580 C 531.878 -0.0859747 -2.04219 0
M  V30 5581 C 532.242 1.25432 -1.45364 0
M  V30 5582 O 533.443 1.85168 -1.9485 0
M  V30 5583 C 531.714 -0.0324314 -3.57385 0
M  V30 5584 S 533.273 0.415908 -4.36824 0
M  V30 5585 H 530.091 -0.0426872 -0.709717 0
M  V30 5586 H 532.693 -0.788369 -1.78899 0
M  V30 5587 H 531.397 -1.01166 -3.97735 0
M  V30 5588 H 530.928 0.6924 -3.87259 0
M  V30 5589 H 532.943 1.66844 -4.67309 0
M  V30 5590 N 532.116 1.54067 -0.331816 0
M  V30 5591 C 533.362 2.01012 0.268667 0
M  V30 5592 C 533.695 1.2195 1.51136 0
M  V30 5593 O 532.97 0.303972 1.9211 0
M  V30 5594 C 533.253 3.55158 0.59456 0
M  V30 5595 C 533.106 4.4494 -0.659409 0
M  V30 5596 C 534.425 4.16939 1.4089 0
M  V30 5597 H 531.544 0.730698 0.0961756 0
M  V30 5598 H 534.186 1.84593 -0.450031 0
M  V30 5599 H 532.336 3.6928 1.20685 0
M  V30 5600 H 534.008 4.42675 -1.29756 0
M  V30 5601 H 532.251 4.1428 -1.28665 0
M  V30 5602 H 532.922 5.50643 -0.386804 0
M  V30 5603 H 535.398 4.06443 0.891272 0
M  V30 5604 H 534.274 5.24889 1.60569 0
M  V30 5605 H 534.535 3.70798 2.40752 0
M  V30 5606 N 533.594 0.0601682 1.57485 0
M  V30 5607 C 534.819 -0.624416 1.97777 0
M  V30 5608 C 535.244 -1.63051 0.937867 0
M  V30 5609 O 534.602 -1.81036 -0.0978845 0
M  V30 5610 C 534.65 -1.27979 3.37126 0
M  V30 5611 O 533.754 -2.39556 3.35688 0
M  V30 5612 H 533.095 -0.161581 0.64404 0
M  V30 5613 H 535.625 0.131237 2.04179 0
M  V30 5614 H 535.635 -1.62937 3.74053 0
M  V30 5615 H 534.31 -0.542501 4.12347 0
M  V30 5616 H 532.887 -2.06478 3.10517 0
M  V30 5617 N 535.072 -1.5615 -0.213296 0
M  V30 5618 C 536.32 -1.79191 -0.934612 0
M  V30 5619 C 536.641 -0.630112 -1.84539 0
M  V30 5620 O 535.911 0.35257 -1.92701 0
M  V30 5621 H 534.491 -0.660937 -0.348097 0
M  V30 5622 H 537.153 -1.93618 -0.22317 0
M  V30 5623 H 536.249 -2.71656 -1.53654 0
M  V30 5624 N 536.55 0.480323 -1.50102 0
M  V30 5625 C 537.46 1.60547 -1.71061 0
M  V30 5626 C 538.476 1.63564 -0.593529 0
M  V30 5627 O 539.652 1.81604 -0.870751 0
M  V30 5628 C 536.717 2.96814 -1.79171 0
M  V30 5629 C 535.778 3.04259 -3.02861 0
M  V30 5630 C 535.011 4.34027 -3.10574 0
M  V30 5631 O 535.234 5.24009 -2.25323 0
M  V30 5632 O 534.168 4.46873 -4.03223 0
M  V30 5633 H 537.994 1.45788 -2.6642 0
M  V30 5634 H 535.579 0.658838 -1.34088 0
M  V30 5635 H 537.461 3.77765 -1.86738 0
M  V30 5636 H 536.136 3.11791 -0.869947 0
M  V30 5637 H 535.043 2.22419 -3.008 0
M  V30 5638 H 536.376 2.94216 -3.94586 0
M  V30 5639 N 538.028 1.39524 0.732853 0
M  V30 5640 C 538.958 1.41153 1.86005 0
M  V30 5641 C 539.939 0.274614 1.67869 0
M  V30 5642 O 541.124 0.480745 1.88155 0
M  V30 5643 C 538.254 1.25638 3.23778 0
M  V30 5644 C 537.208 2.36752 3.56556 0
M  V30 5645 C 536.534 2.06326 4.93289 0
M  V30 5646 C 537.834 3.79069 3.5931 0
M  V30 5647 H 539.528 2.35484 1.84899 0
M  V30 5648 H 537.074 1.13348 0.888162 0
M  V30 5649 H 539.027 1.25398 4.0231 0
M  V30 5650 H 537.751 0.277772 3.25417 0
M  V30 5651 H 536.41 2.36213 2.80355 0
M  V30 5652 H 536.058 1.06897 4.9151 0
M  V30 5653 H 535.758 2.80757 5.16187 0
M  V30 5654 H 537.282 2.07739 5.74175 0
M  V30 5655 H 538.696 3.81526 4.27914 0
M  V30 5656 H 537.093 4.52878 3.93728 0
M  V30 5657 H 538.163 4.09893 2.59068 0
M  V30 5658 N 539.506 -0.963266 1.24736 0
M  V30 5659 C 540.731 -1.74699 1.11781 0
M  V30 5660 C 541.156 -1.85267 -0.325258 0
M  V30 5661 O 540.514 -1.32681 -1.23553 0
M  V30 5662 C 540.562 -3.14322 1.76731 0
M  V30 5663 O 539.666 -3.99043 1.04109 0
M  V30 5664 H 539.007 -0.53684 0.390767 0
M  V30 5665 H 541.537 -1.20801 1.65131 0
M  V30 5666 H 541.547 -3.64824 1.82668 0
M  V30 5667 H 540.222 -3.05946 2.81726 0
M  V30 5668 H 538.799 -3.5752 1.05991 0
M  V30 5669 N 540.985 -1.06182 -1.16461 0
M  V30 5670 C 541.948 -0.675723 -2.19013 0
M  V30 5671 C 542.948 0.277963 -1.58379 0
M  V30 5672 O 544.138 0.0604962 -1.74095 0
M  V30 5673 C 541.27 0.00591459 -3.40899 0
M  V30 5674 H 542.463 -1.58353 -2.54685 0
M  V30 5675 H 540.016 -0.856908 -1.30716 0
M  V30 5676 H 540.751 0.92652 -3.10783 0
M  V30 5677 H 540.536 -0.67984 -3.86161 0
M  V30 5678 H 542.026 0.26181 -4.16778 0
M  V30 5679 N 542.463 1.3308 -0.844243 0
M  V30 5680 C 543.395 2.27954 -0.238671 0
M  V30 5681 C 544.408 1.51978 0.583665 0
M  V30 5682 O 545.597 1.73731 0.409857 0
M  V30 5683 C 542.697 3.31963 0.682185 0
M  V30 5684 C 541.87 4.37281 -0.101998 0
M  V30 5685 C 540.929 5.20928 0.743022 0
M  V30 5686 O 539.955 5.68914 0.180285 0
M  V30 5687 N 541.157 5.42738 2.0595 0
M  V30 5688 H 543.922 2.8056 -1.05386 0
M  V30 5689 H 541.483 1.4583 -0.70322 0
M  V30 5690 H 543.475 3.84828 1.25259 0
M  V30 5691 H 542.045 2.79594 1.39808 0
M  V30 5692 H 541.265 3.84843 -0.853802 0
M  V30 5693 H 542.553 5.04746 -0.641015 0
M  V30 5694 H 541.951 5.05463 2.54016 0
M  V30 5695 H 540.508 5.98639 2.57827 0
M  V30 5696 N 543.941 0.601185 1.45683 0
M  V30 5697 C 544.888 -0.121396 2.30481 0
M  V30 5698 C 545.858 -0.866232 1.41724 0
M  V30 5699 O 547.043 -0.85324 1.70659 0
M  V30 5700 C 544.183 -1.11704 3.26521 0
M  V30 5701 C 543.296 -0.373741 4.3038 0
M  V30 5702 C 542.431 -1.35854 5.13534 0
M  V30 5703 C 541.47 -0.602689 6.09126 0
M  V30 5704 N 540.607 -1.53645 6.85082 0
M  V30 5705 H 545.447 0.607732 2.91737 0
M  V30 5706 H 542.984 0.311502 1.43764 0
M  V30 5707 H 544.942 -1.70735 3.80664 0
M  V30 5708 H 543.572 -1.81366 2.67032 0
M  V30 5709 H 542.624 0.331962 3.78949 0
M  V30 5710 H 543.936 0.2163 4.98331 0
M  V30 5711 H 543.09 -2.02111 5.72046 0
M  V30 5712 H 541.829 -1.98251 4.45587 0
M  V30 5713 H 540.834 0.0735482 5.49751 0
M  V30 5714 H 542.059 0.0161467 6.79098 0
M  V30 5715 H 540.005 -2.14819 6.1983 0
M  V30 5716 H 539.922 -0.999688 7.49361 0
M  V30 5717 H 541.19 -2.1888 7.48139 0
M  V30 5718 N 545.419 -1.53889 0.339982 0
M  V30 5719 C 546.352 -2.21187 -0.561405 0
M  V30 5720 C 547.33 -1.19463 -1.10306 0
M  V30 5721 O 548.514 -1.48268 -1.164 0
M  V30 5722 C 545.641 -2.8865 -1.77198 0
M  V30 5723 C 544.687 -4.04232 -1.3601 0
M  V30 5724 S 545.52 -5.34129 -0.382909 0
M  V30 5725 C 546.676 -6.05094 -1.60039 0
M  V30 5726 H 546.909 -2.97298 0.0102092 0
M  V30 5727 H 544.442 -1.53901 0.124056 0
M  V30 5728 H 546.4 -3.28138 -2.4665 0
M  V30 5729 H 545.061 -2.12311 -2.3148 0
M  V30 5730 H 544.254 -4.50358 -2.2626 0
M  V30 5731 H 543.856 -3.66503 -0.745098 0
M  V30 5732 H 546.148 -6.2827 -2.53541 0
M  V30 5733 H 547.091 -6.98182 -1.18099 0
M  V30 5734 H 547.499 -5.35207 -1.79483 0
M  V30 5735 N 546.897 -0.0685191 -1.57451 0
M  V30 5736 C 547.86 0.885173 -2.11417 0
M  V30 5737 C 548.86 1.22853 -1.03748 0
M  V30 5738 O 550.05 1.16235 -1.2975 0
M  V30 5739 C 547.182 2.18964 -2.61281 0
M  V30 5740 H 548.375 0.417034 -2.96986 0
M  V30 5741 H 545.928 0.18014 -1.55258 0
M  V30 5742 H 546.663 2.70321 -1.79156 0
M  V30 5743 H 546.448 1.9534 -3.39977 0
M  V30 5744 H 547.938 2.87242 -3.0312 0
M  V30 5745 N 548.375 1.56261 0.205012 0
M  V30 5746 C 549.621 1.80306 0.9283 0
M  V30 5747 C 549.954 0.640932 1.83319 0
M  V30 5748 O 549.229 -0.359032 1.91158 0
M  V30 5749 C 549.512 3.14547 1.75306 0
M  V30 5750 C 549.365 4.41236 0.873562 0
M  V30 5751 C 550.684 3.45382 2.72762 0
M  V30 5752 H 547.803 0.655929 0.336044 0
M  V30 5753 H 550.445 1.88984 0.196211 0
M  V30 5754 H 548.595 3.0728 2.37721 0
M  V30 5755 H 550.267 4.60539 0.264887 0
M  V30 5756 H 548.51 4.33427 0.179773 0
M  V30 5757 H 549.181 5.31639 1.48541 0
M  V30 5758 H 551.657 3.52884 2.20481 0
M  V30 5759 H 550.533 4.40449 3.2756 0
M  V30 5760 H 550.794 2.68377 3.51321 0
M  V30 5761 N 549.853 -0.472356 1.50355 0
M  V30 5762 C 551.101 -1.22211 1.60962 0
M  V30 5763 C 551.422 -1.92497 0.311439 0
M  V30 5764 O 550.692 -1.8405 -0.671002 0
M  V30 5765 H 549.272 -0.454092 0.593135 0
M  V30 5766 H 551.934 -0.544977 1.87126 0
M  V30 5767 H 551.03 -1.9707 2.42012 0
M  V30 5768 N 551.331 -1.39911 -0.725443 0
M  V30 5769 C 552.747 -1.21725 -1.03224 0
M  V30 5770 C 552.947 -0.0855224 -2.01318 0
M  V30 5771 O 552.003 0.55976 -2.46217 0
M  V30 5772 C 553.316 -2.55511 -1.58539 0
M  V30 5773 C 554.864 -2.62439 -1.70572 0
M  V30 5774 C 555.339 -3.9647 -2.29294 0
M  V30 5775 N 556.83 -3.98159 -2.36692 0
M  V30 5776 C 557.565 -4.98647 -2.83088 0
M  V30 5777 N 557.061 -6.0953 -3.2931 0
M  V30 5778 N 558.854 -4.8602 -2.82384 0
M  V30 5779 H 551.005 -2.12267 -0.075048 0
M  V30 5780 H 553.268 -0.943136 -0.0959066 0
M  V30 5781 H 552.974 -3.38926 -0.939249 0
M  V30 5782 H 552.848 -2.75905 -2.57208 0
M  V30 5783 H 555.235 -1.79401 -2.34306 0
M  V30 5784 H 555.316 -2.45885 -0.705297 0
M  V30 5785 H 554.96 -4.79942 -1.66186 0
M  V30 5786 H 554.89 -4.10349 -3.30032 0
M  V30 5787 H 557.381 -3.18085 -2.04035 0
M  V30 5788 H 557.694 -6.82106 -3.6325 0
M  V30 5789 H 556.039 -6.1311 -3.27294 0
M  V30 5790 H 559.23 -3.98493 -2.45603 0
M  V30 5791 H 559.403 -5.64478 -3.18226 0
M  V30 5792 N 552.809 0.956637 -1.25245 0
M  V30 5793 C 554.037 1.73571 -1.12608 0
M  V30 5794 C 554.452 1.86063 0.320324 0
M  V30 5795 O 553.809 1.35691 1.22042 0
M  V30 5796 C 553.86 3.15053 -1.77268 0
M  V30 5797 O 553.581 3.03174 -3.16255 0
M  V30 5798 C 555.082 4.09248 -1.70386 0
M  V30 5799 H 552.302 0.543955 -0.392879 0
M  V30 5800 H 554.846 1.20031 -1.65568 0
M  V30 5801 H 553.001 3.65543 -1.28284 0
M  V30 5802 H 553.415 3.9241 -3.48015 0
M  V30 5803 H 554.889 5.06138 -2.20291 0
M  V30 5804 H 555.366 4.34102 -0.667239 0
M  V30 5805 H 555.972 3.64672 -2.18849 0
M  V30 5806 N 554.287 1.06798 1.15896 0
M  V30 5807 C 555.534 0.787767 1.86549 0
M  V30 5808 C 555.862 -0.685959 1.82002 0
M  V30 5809 O 555.117 -1.5188 1.23414 0
M  V30 5810 C 555.416 1.23414 3.35416 0
M  V30 5811 C 555.082 2.71285 3.6016 0
M  V30 5812 C 553.744 3.11676 3.66622 0
M  V30 5813 C 556.096 3.6676 3.7032 0
M  V30 5814 C 553.424 4.4637 3.8075 0
M  V30 5815 C 555.776 5.01209 3.8597 0
M  V30 5816 C 554.44 5.41229 3.90676 0
M  V30 5817 H 553.71 0.288264 0.682631 0
M  V30 5818 H 556.357 1.338 1.37003 0
M  V30 5819 H 554.662 0.60319 3.87129 0
M  V30 5820 H 556.359 0.994298 3.88477 0
M  V30 5821 H 552.949 2.39015 3.55767 0
M  V30 5822 H 557.133 3.36685 3.64633 0
M  V30 5823 H 552.389 4.76855 3.82648 0
M  V30 5824 H 556.563 5.75067 3.92773 0
M  V30 5825 H 554.19 6.45602 4.01375 0
M  V30 5826 N 555.766 -1.3263 0.851289 0
M  V30 5827 C 557.177 -1.79653 0.5081 0
M  V30 5828 C 557.528 -1.70327 -0.973815 0
M  V30 5829 O 556.653 -1.25986 -1.75944 0
M  V30 5830 C 557.248 -3.26196 0.915515 0
M  V30 5831 C 555.807 -3.71187 0.624277 0
M  V30 5832 C 554.954 -2.53804 1.11709 0
M  V30 5833 H 557.905 -1.19976 1.03882 0
M  V30 5834 H 557.926 -3.79801 0.230535 0
M  V30 5835 H 557.438 -3.32952 1.99411 0
M  V30 5836 H 555.539 -3.69948 -0.443737 0
M  V30 5837 H 555.652 -4.64132 1.18821 0
M  V30 5838 H 554.016 -2.48964 0.537484 0
M  V30 5839 H 554.799 -2.63315 2.20272 0
M  V30 5840 N 557.244 -0.608902 -1.45362 0
M  V30 5841 C 558.521 -0.0365378 -1.95566 0
M  V30 5842 C 558.901 1.43169 -1.55131 0
M  V30 5843 O 558.249 2.1349 -0.814513 0
M  V30 5844 C 558.459 -0.236026 -3.48201 0
M  V30 5845 C 559.807 -0.117518 -4.24437 0
M  V30 5846 O 560.831 -0.166217 -3.55812 0
M  V30 5847 O 559.69 -0.00372127 -5.465 0
M  V30 5848 H 556.784 0.0349874 -0.82626 0
M  V30 5849 H 559.33 -0.679055 -1.55521 0
M  V30 5850 H 558.102 -1.25569 -3.70605 0
M  V30 5851 H 557.725 0.441691 -3.95139 0
M  V30 5852 N 558.722 1.53707 -0.348139 0
M  V30 5853 C 559.669 2.25173 0.506518 0
M  V30 5854 C 560.639 1.25174 1.09182 0
M  V30 5855 O 561.824 1.53917 1.12757 0
M  V30 5856 C 558.964 3.03141 1.64923 0
M  V30 5857 C 558.077 4.18002 1.0908 0
M  V30 5858 C 557.212 4.83447 2.20119 0
M  V30 5859 C 556.251 5.90369 1.61651 0
M  V30 5860 N 555.388 6.49575 2.66451 0
M  V30 5861 H 560.228 2.97799 -0.109452 0
M  V30 5862 H 557.765 1.46953 -0.0657866 0
M  V30 5863 H 559.723 3.46607 2.32205 0
M  V30 5864 H 558.353 2.32803 2.23612 0
M  V30 5865 H 557.405 3.79145 0.308783 0
M  V30 5866 H 558.717 4.94892 0.623178 0
M  V30 5867 H 557.871 5.30008 2.95257 0
M  V30 5868 H 556.61 4.05991 2.70227 0
M  V30 5869 H 555.615 5.43186 0.850209 0
M  V30 5870 H 556.84 6.69735 1.1239 0
M  V30 5871 H 554.786 5.74981 3.15805 0
M  V30 5872 H 554.703 7.21952 2.24325 0
M  V30 5873 H 555.971 7.00789 3.41344 0
M  V30 5874 N 560.2 0.0768682 1.57412 0
M  V30 5875 C 561.446 -0.591961 1.93968 0
M  V30 5876 C 561.779 -1.68954 0.9575 0
M  V30 5877 O 561.054 -1.94496 -0.0124675 0
M  V30 5878 C 561.337 -1.16418 3.40762 0
M  V30 5879 C 561.19 -0.0728933 4.49741 0
M  V30 5880 C 562.509 -2.06814 3.88479 0
M  V30 5881 H 559.628 -0.213716 0.705333 0
M  V30 5882 H 562.27 0.14387 1.89455 0
M  V30 5883 H 560.42 -1.79128 3.4474 0
M  V30 5884 H 562.092 0.560446 4.57883 0
M  V30 5885 H 560.335 0.595859 4.29688 0
M  V30 5886 H 561.006 -0.513755 5.49604 0
M  V30 5887 H 563.482 -1.54033 3.8654 0
M  V30 5888 H 562.358 -2.43785 4.91793 0
M  V30 5889 H 562.619 -2.97844 3.26713 0
M  V30 5890 N 561.678 -1.56367 -0.196722 0
M  V30 5891 C 562.641 -1.93561 -1.22746 0
M  V30 5892 C 563.641 -0.816566 -1.38524 0
M  V30 5893 O 564.831 -1.084 -1.36363 0
M  V30 5894 C 561.963 -2.20823 -2.59712 0
M  V30 5895 H 563.156 -2.85774 -0.909586 0
M  V30 5896 H 560.709 -1.50032 -0.438174 0
M  V30 5897 H 561.444 -1.31243 -2.96557 0
M  V30 5898 H 561.229 -3.02368 -2.49632 0
M  V30 5899 H 562.719 -2.50608 -3.34044 0
M  V30 5900 N 563.156 0.464375 -1.50603 0
M  V30 5901 C 564.104 1.58224 -1.70493 0
M  V30 5902 C 565.098 1.59492 -0.570836 0
M  V30 5903 O 566.304 1.63561 -0.751517 0
M  V30 5904 H 562.679 0.525161 -0.538247 0
M  V30 5905 H 564.65 1.38613 -2.64252 0
M  V30 5906 C 563.399 2.96113 -1.82243 0
M  V30 5907 H 562.722 2.95858 -2.68901 0
M  V30 5908 H 564.162 3.73769 -2.00182 0
M  V30 5909 C 562.621 3.31946 -0.575628 0
M  V30 5910 O 563.151 4.00708 0.282152 0
M  V30 5911 N 561.357 2.87436 -0.427665 0
M  V30 5912 H 560.904 2.31652 -1.12674 0
M  V30 5913 H 560.862 3.11776 0.405379 0
M  V30 5914 N 564.634 1.40294 0.718013 0
M  V30 5915 C 565.564 1.43118 1.84498 0
M  V30 5916 C 566.545 0.292403 1.67568 0
M  V30 5917 O 567.73 0.500675 1.87635 0
M  V30 5918 C 564.86 1.29065 3.22427 0
M  V30 5919 C 563.814 2.40521 3.54025 0
M  V30 5920 C 563.14 2.11546 4.91073 0
M  V30 5921 C 564.44 3.82859 3.55269 0
M  V30 5922 H 566.134 2.37432 1.82391 0
M  V30 5923 H 563.68 1.14283 0.87609 0
M  V30 5924 H 565.633 1.29658 4.00957 0
M  V30 5925 H 564.357 0.312271 3.25104 0
M  V30 5926 H 563.016 2.39173 2.77834 0
M  V30 5927 H 562.664 1.12104 4.90348 0
M  V30 5928 H 562.364 2.86216 5.1318 0
M  V30 5929 H 563.888 2.13817 5.71939 0
M  V30 5930 H 565.302 3.86044 4.23843 0
M  V30 5931 H 563.699 4.57029 3.88902 0
M  V30 5932 H 564.769 4.12617 2.54706 0
M  V30 5933 N 566.112 -0.949982 1.2575 0
M  V30 5934 C 567.022 -2.08109 1.08295 0
M  V30 5935 C 568.038 -1.7399 0.0188181 0
M  V30 5936 O 569.214 -2.00187 0.220724 0
M  V30 5937 C 566.279 -3.39383 0.708534 0
M  V30 5938 C 565.34 -3.8734 1.85111 0
M  V30 5939 C 564.573 -5.12349 1.49447 0
M  V30 5940 O 564.796 -5.6905 0.392212 0
M  V30 5941 O 563.73 -5.5513 2.32624 0
M  V30 5942 H 567.556 -2.25738 2.03165 0
M  V30 5943 H 565.141 -1.06545 1.04731 0
M  V30 5944 H 567.023 -4.18277 0.512061 0
M  V30 5945 H 565.698 -3.23013 -0.210854 0
M  V30 5946 H 564.605 -3.09429 2.10248 0
M  V30 5947 H 565.938 -4.08216 2.74991 0
M  V30 5948 N 567.59 -1.07411 -1.15328 0
M  V30 5949 C 568.553 -0.698914 -2.18284 0
M  V30 5950 C 569.553 0.261149 -1.58665 0
M  V30 5951 O 570.743 0.0420277 -1.74149 0
M  V30 5952 C 567.875 -0.0302427 -3.40887 0
M  V30 5953 H 569.068 -1.61045 -2.52991 0
M  V30 5954 H 566.621 -0.870724 -1.298 0
M  V30 5955 H 567.356 0.893505 -3.11748 0
M  V30 5956 H 567.141 -0.720759 -3.85419 0
M  V30 5957 H 568.631 0.21759 -4.17033 0
M  V30 5958 N 569.068 1.32177 -0.85831 0
M  V30 5959 C 570.016 2.30729 -0.294442 0
M  V30 5960 C 571.01 1.59009 0.584165 0
M  V30 5961 O 572.216 1.73713 0.471562 0
M  V30 5962 H 568.591 0.748097 -0.0765171 0
M  V30 5963 H 570.562 2.75774 -1.1398 0
M  V30 5964 C 569.311 3.44098 0.499208 0
M  V30 5965 H 568.634 3.99449 -0.167579 0
M  V30 5966 H 570.074 4.15202 0.859273 0
M  V30 5967 C 568.533 2.91684 1.68588 0
M  V30 5968 O 569.063 2.89481 2.78503 0
M  V30 5969 N 567.269 2.48036 1.51415 0
M  V30 5970 H 566.816 2.50027 0.620006 0
M  V30 5971 H 566.774 2.13322 2.30957 0
M  V30 5972 N 570.547 0.616602 1.45037 0
M  V30 5973 C 571.495 -0.109318 2.32343 0
M  V30 5974 C 572.489 -0.850543 1.465 0
M  V30 5975 O 573.695 -0.765088 1.62931 0
M  V30 5976 H 570.07 -0.0541091 0.750051 0
M  V30 5977 H 572.041 0.645326 2.91338 0
M  V30 5978 C 570.79 -1.0872 3.30266 0
M  V30 5979 H 570.113 -0.526267 3.96321 0
M  V30 5980 H 571.553 -1.56489 3.94065 0
M  V30 5981 C 570.012 -2.16525 2.58105 0
M  V30 5982 O 570.542 -3.244 2.36913 0
M  V30 5983 N 568.748 -1.92057 2.18088 0
M  V30 5984 H 568.295 -1.04337 2.35524 0
M  V30 5985 H 568.253 -2.64391 1.70131 0
M  V30 5986 N 572.025 -1.5352 0.356285 0
M  V30 5987 C 572.973 -2.26945 -0.50978 0
M  V30 5988 C 573.967 -1.29569 -1.09125 0
M  V30 5989 O 575.173 -1.47231 -1.03552 0
M  V30 5990 H 571.548 -0.729368 -0.183102 0
M  V30 5991 H 573.519 -2.98111 0.131374 0
M  V30 5992 C 572.268 -3.06466 -1.64237 0
M  V30 5993 H 571.591 -3.81233 -1.20423 0
M  V30 5994 H 573.031 -3.61035 -2.22327 0
M  V30 5995 C 571.49 -2.16737 -2.57928 0
M  V30 5996 O 572.02 -1.77195 -3.60507 0
M  V30 5997 N 570.226 -1.81558 -2.26903 0
M  V30 5998 H 569.773 -2.13913 -1.43524 0
M  V30 5999 H 569.731 -1.21806 -2.89846 0
M  V30 6000 N 573.503 -0.0852151 -1.57369 0
M  V30 6001 C 574.751 0.579658 -1.93609 0
M  V30 6002 C 575.072 1.69332 -0.967043 0
M  V30 6003 O 574.342 1.95892 -0.0174215 0
M  V30 6004 H 572.922 0.217113 -0.714752 0
M  V30 6005 H 575.584 -0.146226 -1.94351 0
M  V30 6006 H 574.68 0.996276 -2.95771 0
M  V30 6007 N 574.981 1.5647 0.188427 0
M  V30 6008 C 576.397 1.50204 0.539532 0
M  V30 6009 C 576.597 0.78644 1.85519 0
M  V30 6010 O 575.653 0.339714 2.50204 0
M  V30 6011 C 576.966 2.94893 0.588103 0
M  V30 6012 C 578.514 3.05602 0.67648 0
M  V30 6013 C 578.989 4.51716 0.756101 0
M  V30 6014 N 580.48 4.55894 0.819451 0
M  V30 6015 C 581.215 5.66272 0.90134 0
M  V30 6016 N 580.711 6.86323 0.945118 0
M  V30 6017 N 582.504 5.54201 0.939043 0
M  V30 6018 H 574.655 2.01406 -0.674493 0
M  V30 6019 H 576.918 0.916828 -0.241103 0
M  V30 6020 H 576.624 3.50334 -0.309633 0
M  V30 6021 H 576.498 3.4861 1.44051 0
M  V30 6022 H 578.885 2.50206 1.56465 0
M  V30 6023 H 578.966 2.54999 -0.202262 0
M  V30 6024 H 578.61 5.07739 -0.12774 0
M  V30 6025 H 578.54 5.00058 1.65074 0
M  V30 6026 H 581.031 3.69452 0.794594 0
M  V30 6027 H 581.344 7.66194 1.0083 0
M  V30 6028 H 579.689 6.88968 0.913683 0
M  V30 6029 H 582.88 4.59333 0.901725 0
M  V30 6030 H 583.053 6.40247 0.999402 0
M  V30 6031 N 576.459 -0.456382 1.50847 0
M  V30 6032 C 577.392 -1.57177 1.65441 0
M  V30 6033 C 578.37 -1.54649 0.502224 0
M  V30 6034 O 579.554 -1.74057 0.723633 0
M  V30 6035 C 576.681 -2.95763 1.65052 0
M  V30 6036 C 575.727 -3.16389 2.86007 0
M  V30 6037 S 576.56 -2.94716 4.47105 0
M  V30 6038 C 577.716 -4.35617 4.49432 0
M  V30 6039 H 577.949 -1.44561 2.59787 0
M  V30 6040 H 575.482 -0.644758 1.40293 0
M  V30 6041 H 577.44 -3.75654 1.65512 0
M  V30 6042 H 576.101 -3.05756 0.719153 0
M  V30 6043 H 575.294 -4.17667 2.82081 0
M  V30 6044 H 574.896 -2.44293 2.8319 0
M  V30 6045 H 577.188 -5.28503 4.239 0
M  V30 6046 H 578.131 -4.44582 5.51137 0
M  V30 6047 H 578.539 -4.18382 3.78967 0
M  V30 6048 N 577.937 -1.40673 -0.710563 0
M  V30 6049 C 579.353 -1.22813 -1.01928 0
M  V30 6050 C 579.553 -0.10687 -2.01216 0
M  V30 6051 O 578.609 0.533614 -2.46797 0
M  V30 6052 C 579.922 -2.57178 -1.5582 0
M  V30 6053 C 581.47 -2.64233 -1.67779 0
M  V30 6054 C 581.945 -3.98879 -2.25076 0
M  V30 6055 N 583.436 -4.00647 -2.32456 0
M  V30 6056 C 584.171 -5.01621 -2.77784 0
M  V30 6057 N 583.667 -6.12989 -3.22826 0
M  V30 6058 N 585.46 -4.88988 -2.77213 0
M  V30 6059 H 577.611 -2.12335 -0.05253 0
M  V30 6060 H 579.874 -0.9441 -0.085898 0
M  V30 6061 H 579.58 -3.39903 -0.903249 0
M  V30 6062 H 579.454 -2.78618 -2.54267 0
M  V30 6063 H 581.841 -1.81876 -2.3239 0
M  V30 6064 H 581.922 -2.46619 -0.679178 0
M  V30 6065 H 581.566 -4.81678 -1.61086 0
M  V30 6066 H 581.496 -4.13826 -3.25661 0
M  V30 6067 H 583.987 -3.20231 -2.0065 0
M  V30 6068 H 584.3 -6.85921 -3.55995 0
M  V30 6069 H 582.645 -6.16547 -3.20773 0
M  V30 6070 H 585.836 -4.01075 -2.41363 0
M  V30 6071 H 586.009 -5.67822 -3.12221 0
M  V30 6072 N 579.415 0.9433 -1.26252 0
M  V30 6073 C 580.64 1.72898 -1.14547 0
M  V30 6074 C 581.065 1.85761 0.295743 0
M  V30 6075 O 580.423 1.3463 1.21427 0
M  V30 6076 C 580.471 3.11471 -1.8171 0
M  V30 6077 O 579.575 3.97336 -1.10445 0
M  V30 6078 H 578.916 0.530555 -0.399259 0
M  V30 6079 H 581.446 1.18159 -1.67032 0
M  V30 6080 H 581.456 3.61872 -1.88449 0
M  V30 6081 H 580.131 3.01425 -2.86558 0
M  V30 6082 H 578.708 3.55788 -1.11666 0
M  V30 6083 N 580.893 1.08022 1.14757 0
M  V30 6084 C 581.823 0.728248 2.21853 0
M  V30 6085 C 582.804 -0.287486 1.67653 0
M  V30 6086 O 583.989 -0.158727 1.9355 0
M  V30 6087 C 581.119 0.132549 3.47047 0
M  V30 6088 C 580.073 1.07619 4.14249 0
M  V30 6089 C 579.399 0.342907 5.33599 0
M  V30 6090 C 580.699 2.41268 4.63235 0
M  V30 6091 H 582.393 1.62365 2.51551 0
M  V30 6092 H 579.939 0.782125 1.20908 0
M  V30 6093 H 581.892 -0.125665 4.21213 0
M  V30 6094 H 580.616 -0.797971 3.16702 0
M  V30 6095 H 579.275 1.31944 3.42033 0
M  V30 6096 H 578.923 -0.59129 4.99513 0
M  V30 6097 H 578.623 0.971955 5.79506 0
M  V30 6098 H 580.147 0.0926538 6.1053 0
M  V30 6099 H 581.561 2.21232 5.28894 0
M  V30 6100 H 579.958 2.9983 5.19829 0
M  V30 6101 H 581.028 3.03079 3.78512 0
M  V30 6102 N 582.371 -1.3172 0.865308 0
M  V30 6103 C 583.617 -1.97168 0.474633 0
M  V30 6104 C 583.95 -1.68263 -0.969604 0
M  V30 6105 O 583.225 -0.976588 -1.68205 0
M  V30 6106 C 583.508 -3.52689 0.726808 0
M  V30 6107 C 583.361 -3.91185 2.22024 0
M  V30 6108 C 584.68 -4.39689 0.190201 0
M  V30 6109 H 581.799 -0.716185 0.17392 0
M  V30 6110 H 584.441 -1.55925 1.08569 0
M  V30 6111 H 582.591 -3.8795 0.206705 0
M  V30 6112 H 584.263 -3.66049 2.80724 0
M  V30 6113 H 582.506 -3.3996 2.69462 0
M  V30 6114 H 583.177 -4.99604 2.34735 0
M  V30 6115 H 585.653 -4.11225 0.635103 0
M  V30 6116 H 584.529 -5.47469 0.396132 0
M  V30 6117 H 584.79 -4.32683 -0.907625 0
M  V30 6118 N 583.85 -0.624285 -1.44708 0
M  V30 6119 C 585.096 -0.126237 -2.02407 0
M  V30 6120 C 585.428 1.24618 -1.48943 0
M  V30 6121 O 584.704 1.82569 -0.670742 0
M  V30 6122 C 584.986 -0.105449 -3.59946 0
M  V30 6123 C 584.84 -1.50972 -4.23707 0
M  V30 6124 C 586.159 0.573629 -4.36346 0
M  V30 6125 H 583.278 -0.0473472 -0.735478 0
M  V30 6126 H 585.92 -0.799452 -1.72362 0
M  V30 6127 H 584.07 0.46783 -3.85673 0
M  V30 6128 H 585.742 -2.13136 -4.0911 0
M  V30 6129 H 583.985 -2.0656 -3.81465 0
M  V30 6130 H 584.656 -1.44727 -5.32689 0
M  V30 6131 H 587.132 0.0861787 -4.16011 0
M  V30 6132 H 586.008 0.557338 -5.46063 0
M  V30 6133 H 586.269 1.64276 -4.10446 0
M  V30 6134 N 585.328 1.53329 -0.364422 0
M  V30 6135 C 586.553 2.06132 0.229033 0
M  V30 6136 C 586.978 1.23625 1.41769 0
M  V30 6137 O 586.336 0.255038 1.79497 0
M  V30 6138 C 586.384 3.55544 0.60174 0
M  V30 6139 O 585.488 3.75771 1.69912 0
M  V30 6140 H 584.829 0.663148 0.0336213 0
M  V30 6141 H 587.359 1.97758 -0.524689 0
M  V30 6142 H 587.369 3.98549 0.873073 0
M  V30 6143 H 586.044 4.15039 -0.267421 0
M  V30 6144 H 584.621 3.44663 1.42343 0
M  V30 6145 N 586.806 0.0935595 1.57322 0
M  V30 6146 C 588.052 -0.565234 1.95388 0
M  V30 6147 C 588.407 -1.65888 0.974632 0
M  V30 6148 O 587.7 -1.916 0.000376385 0
M  V30 6149 C 587.894 -1.16692 3.37813 0
M  V30 6150 C 587.723 -0.133091 4.49503 0
M  V30 6151 C 586.493 0.289884 5.04468 0
M  V30 6152 C 588.691 0.638141 5.10326 0
M  V30 6153 N 586.673 1.31214 5.99713 0
M  V30 6154 C 588.044 1.51227 6.01274 0
M  V30 6155 C 590.099 0.691827 4.9307 0
M  V30 6156 C 588.802 2.43536 6.76818 0
M  V30 6157 C 590.828 1.60251 5.69274 0
M  V30 6158 C 590.19 2.46427 6.59889 0
M  V30 6159 H 586.289 -0.177212 0.761656 0
M  V30 6160 H 588.873 0.175769 1.93905 0
M  V30 6161 H 587.044 -1.87775 3.39993 0
M  V30 6162 H 588.776 -1.78795 3.63063 0
M  V30 6163 H 585.531 -0.0975541 4.735 0
M  V30 6164 H 585.955 1.82143 6.52038 0
M  V30 6165 H 590.597 0.0397431 4.22781 0
M  V30 6166 H 588.315 3.0977 7.4637 0
M  V30 6167 H 591.901 1.64917 5.57937 0
M  V30 6168 H 590.781 3.15751 7.17824 0
M  V30 6169 N 588.284 -1.56567 -0.180126 0
M  V30 6170 C 589.509 -1.85975 -0.918041 0
M  V30 6171 C 589.934 -0.678888 -1.75422 0
M  V30 6172 O 589.292 0.372168 -1.77439 0
M  V30 6173 C 589.34 -3.13731 -1.77779 0
M  V30 6174 O 588.444 -2.95335 -2.87838 0
M  V30 6175 H 587.785 -0.61196 -0.257683 0
M  V30 6176 H 590.315 -2.03798 -0.180923 0
M  V30 6177 H 590.325 -3.4491 -2.17948 0
M  V30 6178 H 589 -3.99293 -1.16352 0
M  V30 6179 H 587.577 -2.7549 -2.51316 0
M  V30 6180 N 589.762 0.448376 -1.51087 0
M  V30 6181 C 591.173 1.0286 -1.5581 0
M  V30 6182 C 591.524 1.92583 -0.374989 0
M  V30 6183 O 590.649 2.10316 0.509533 0
M  V30 6184 C 591.244 1.87223 -2.8237 0
M  V30 6185 C 589.803 2.40314 -2.897 0
M  V30 6186 C 588.95 1.19238 -2.50355 0
M  V30 6187 H 591.901 0.230075 -1.57023 0
M  V30 6188 H 591.922 2.72553 -2.6551 0
M  V30 6189 H 591.434 1.21894 -3.68461 0
M  V30 6190 H 589.535 3.09129 -2.08014 0
M  V30 6191 H 589.648 2.73866 -3.93108 0
M  V30 6192 H 588.012 1.53428 -2.03303 0
M  V30 6193 H 588.795 0.555367 -3.38778 0
M  V30 6194 N 591.24 1.41047 0.703093 0
M  V30 6195 C 592.651 1.35657 1.28274 0
M  V30 6196 C 593.002 0.0360309 1.96167 0
M  V30 6197 O 592.127 -0.865833 1.98324 0
M  V30 6198 C 592.722 2.45707 2.33267 0
M  V30 6199 C 591.281 2.43738 2.86825 0
M  V30 6200 C 590.428 2.25941 1.60767 0
M  V30 6201 H 593.379 1.50672 0.49836 0
M  V30 6202 H 593.4 2.14333 3.14391 0
M  V30 6203 H 592.912 3.41805 1.83824 0
M  V30 6204 H 591.013 1.51375 3.40465 0
M  V30 6205 H 591.126 3.39779 3.37768 0
M  V30 6206 H 589.49 1.73681 1.86298 0
M  V30 6207 H 590.273 3.24054 1.1333 0
M  V30 6208 N 592.718 -0.936591 1.26751 0
M  V30 6209 C 593.681 -2.01752 1.08761 0
M  V30 6210 C 594.681 -1.60763 0.0344435 0
M  V30 6211 O 595.871 -1.71963 0.278258 0
M  V30 6212 C 593.003 -3.34543 0.655271 0
M  V30 6213 H 594.196 -2.19143 2.04735 0
M  V30 6214 H 591.749 -1.11618 1.09413 0
M  V30 6215 H 592.484 -3.22851 -0.30626 0
M  V30 6216 H 592.269 -3.65647 1.41578 0
M  V30 6217 H 593.759 -4.13944 0.551378 0
M  V30 6218 N 594.196 -1.08629 -1.14182 0
M  V30 6219 C 595.444 -0.815731 -1.84906 0
M  V30 6220 C 595.765 0.660441 -1.83475 0
M  V30 6221 O 595.035 1.47888 -1.28476 0
M  V30 6222 H 593.615 -0.298773 -0.684648 0
M  V30 6223 H 596.277 -1.37274 -1.38354 0
M  V30 6224 H 595.373 -1.16193 -2.89665 0
M  V30 6225 N 595.674 1.31259 -0.872281 0
M  V30 6226 C 596.951 1.91362 -0.404943 0
M  V30 6227 C 597.331 1.79362 1.11321 0
M  V30 6228 O 596.679 1.20277 1.94283 0
M  V30 6229 C 596.889 3.3749 -0.888893 0
M  V30 6230 C 598.237 4.14593 -0.916384 0
M  V30 6231 O 599.261 3.46282 -0.834701 0
M  V30 6232 O 598.12 5.3661 -1.03498 0
M  V30 6233 H 595.214 0.818016 -0.121569 0
M  V30 6234 H 597.76 1.39912 -0.960346 0
M  V30 6235 H 596.532 3.40249 -1.93251 0
M  V30 6236 H 596.155 3.96375 -0.311932 0
M  V30 6237 N 597.152 0.631951 1.44375 0
M  V30 6238 C 598.398 0.145491 2.02879 0
M  V30 6239 C 598.753 -1.21936 1.48827 0
M  V30 6240 O 598.046 -1.7976 0.663085 0
M  V30 6241 C 598.24 0.0735861 3.57324 0
M  V30 6242 C 598.069 1.42992 4.2636 0
M  V30 6243 C 596.839 2.01691 4.63302 0
M  V30 6244 C 599.037 2.36393 4.56752 0
M  V30 6245 N 597.019 3.30551 5.17309 0
M  V30 6246 C 598.39 3.49869 5.11851 0
M  V30 6247 C 600.445 2.35462 4.38705 0
M  V30 6248 C 599.148 4.6261 5.50803 0
M  V30 6249 C 601.174 3.47268 4.78706 0
M  V30 6250 C 600.536 4.59467 5.33919 0
M  V30 6251 H 596.635 0.0971781 0.775938 0
M  V30 6252 H 599.219 0.835624 1.75856 0
M  V30 6253 H 597.39 -0.585829 3.83957 0
M  V30 6254 H 599.122 -0.421777 4.02496 0
M  V30 6255 H 595.877 1.54627 4.47647 0
M  V30 6256 H 596.301 3.96435 5.48788 0
M  V30 6257 H 600.943 1.49966 3.9531 0
M  V30 6258 H 598.661 5.48813 5.93152 0
M  V30 6259 H 602.247 3.47724 4.66454 0
M  V30 6260 H 601.127 5.44551 5.64299 0
M  V30 6261 N 598.631 -1.53133 0.372548 0
M  V30 6262 C 599.541 -2.29671 -0.478379 0
M  V30 6263 C 600.557 -1.35913 -1.08644 0
M  V30 6264 O 601.733 -1.68975 -1.09588 0
M  V30 6265 C 598.798 -3.07625 -1.599 0
M  V30 6266 C 597.859 -4.17061 -1.01776 0
M  V30 6267 C 597.092 -4.91289 -2.08497 0
M  V30 6268 O 597.315 -4.65442 -3.29727 0
M  V30 6269 O 596.249 -5.7705 -1.71164 0
M  V30 6270 H 600.075 -3.03355 0.144649 0
M  V30 6271 H 597.66 -1.48773 0.136729 0
M  V30 6272 H 599.542 -3.56281 -2.25038 0
M  V30 6273 H 598.217 -2.3677 -2.2073 0
M  V30 6274 H 597.124 -3.72641 -0.330098 0
M  V30 6275 H 598.457 -4.90102 -0.453915 0
M  V30 6276 N 600.109 -0.101901 -1.5727 0
M  V30 6277 C 601.041 0.884723 -2.11436 0
M  V30 6278 C 602.054 1.24149 -1.05314 0
M  V30 6279 O 603.243 1.19341 -1.3274 0
M  V30 6280 C 600.343 2.19179 -2.58484 0
M  V30 6281 C 599.516 2.00933 -3.88516 0
M  V30 6282 C 598.575 3.15213 -4.2134 0
M  V30 6283 O 597.601 2.88877 -4.90448 0
M  V30 6284 N 598.803 4.41174 -3.77288 0
M  V30 6285 H 601.568 0.422058 -2.96713 0
M  V30 6286 H 599.129 0.0830128 -1.61687 0
M  V30 6287 H 601.121 2.94593 -2.77484 0
M  V30 6288 H 599.691 2.56847 -1.7818 0
M  V30 6289 H 598.911 1.09809 -3.78597 0
M  V30 6290 H 600.199 1.86026 -4.73573 0
M  V30 6291 H 599.597 4.6545 -3.21516 0
M  V30 6292 H 598.154 5.13515 -4.01429 0
M  V30 6293 N 601.587 1.56661 0.17182 0
M  V30 6294 C 602.817 1.85831 0.902804 0
M  V30 6295 C 603.225 0.685157 1.76358 0
M  V30 6296 O 602.568 -0.354947 1.80238 0
M  V30 6297 C 602.63 3.09406 1.83053 0
M  V30 6298 C 602.294 4.4231 1.1494 0
M  V30 6299 C 603.291 5.17342 0.515104 0
M  V30 6300 C 600.976 4.89045 1.14631 0
M  V30 6301 C 602.97 6.37299 -0.113194 0
M  V30 6302 C 600.657 6.08933 0.514184 0
M  V30 6303 C 601.655 6.82904 -0.114463 0
M  V30 6304 O 601.343 8.00518 -0.736622 0
M  V30 6305 H 601.075 0.620715 0.267748 0
M  V30 6306 H 603.629 2.04637 0.176918 0
M  V30 6307 H 601.859 2.86544 2.59672 0
M  V30 6308 H 603.548 3.25027 2.4313 0
M  V30 6309 H 604.314 4.82317 0.509474 0
M  V30 6310 H 600.193 4.31409 1.62502 0
M  V30 6311 H 603.737 6.94976 -0.604477 0
M  V30 6312 H 599.634 6.43423 0.517395 0
M  V30 6313 H 600.402 8.16027 -0.635822 0
M  V30 6314 N 603.065 -0.440357 1.51323 0
M  V30 6315 C 604.481 -0.7766 1.39431 0
M  V30 6316 C 604.681 -1.95838 0.474296 0
M  V30 6317 O 603.737 -2.52398 -0.0716692 0
M  V30 6318 C 605.05 -1.05981 2.81405 0
M  V30 6319 C 606.598 -1.16442 2.90534 0
M  V30 6320 C 607.073 -1.48058 4.33408 0
M  V30 6321 N 608.564 -1.54988 4.36501 0
M  V30 6322 C 609.299 -1.81017 5.44078 0
M  V30 6323 N 608.795 -2.04858 6.61819 0
M  V30 6324 N 610.588 -1.82774 5.31554 0
M  V30 6325 H 602.739 0.338006 2.09693 0
M  V30 6326 H 605.002 0.0888072 0.943831 0
M  V30 6327 H 604.708 -0.264173 3.50706 0
M  V30 6328 H 604.582 -1.98822 3.20546 0
M  V30 6329 H 606.969 -1.95068 2.21432 0
M  V30 6330 H 607.05 -0.215088 2.54894 0
M  V30 6331 H 606.694 -0.699605 5.03059 0
M  V30 6332 H 606.624 -2.44192 4.66559 0
M  V30 6333 H 609.115 -1.38479 3.51613 0
M  V30 6334 H 609.428 -2.2408 7.396 0
M  V30 6335 H 607.773 -2.02187 6.6494 0
M  V30 6336 H 610.964 -1.63665 4.38556 0
M  V30 6337 H 611.137 -2.02722 6.15474 0
M  V30 6338 N 604.543 -1.41418 -0.695603 0
M  V30 6339 C 605.792 -1.40073 -1.4513 0
M  V30 6340 C 606.105 -0.0130439 -1.95596 0
M  V30 6341 O 607.311 0.123032 -2.71221 0
M  V30 6342 C 605.767 -2.46286 -2.62433 0
M  V30 6343 C 605.375 -3.90962 -2.18753 0
M  V30 6344 C 607.119 -2.54077 -3.40066 0
M  V30 6345 C 605.026 -4.88728 -3.33015 0
M  V30 6346 H 603.956 -0.520903 -0.545138 0
M  V30 6347 H 606.607 -1.67242 -0.75515 0
M  V30 6348 H 604.989 -2.12248 -3.34315 0
M  V30 6349 H 606.163 -4.34248 -1.54161 0
M  V30 6350 H 604.478 -3.86831 -1.54114 0
M  V30 6351 H 607.075 -3.24303 -4.25125 0
M  V30 6352 H 607.418 -1.5776 -3.8525 0
M  V30 6353 H 607.951 -2.87206 -2.75241 0
M  V30 6354 H 604.69 -5.86449 -2.92844 0
M  V30 6355 H 604.21 -4.50091 -3.96457 0
M  V30 6356 H 605.889 -5.09483 -3.98793 0
M  V30 6357 N 606.021 0.929856 -1.27246 0
M  V30 6358 C 606.951 2.04722 -1.12299 0
M  V30 6359 C 607.932 1.70082 -0.0250464 0
M  V30 6360 O 609.117 1.93176 -0.199141 0
M  V30 6361 C 606.247 3.38721 -0.767145 0
M  V30 6362 C 605.201 3.87466 -1.81808 0
M  V30 6363 C 604.527 5.18246 -1.31626 0
M  V30 6364 C 605.827 4.11095 -3.22177 0
M  V30 6365 H 607.521 2.17485 -2.05769 0
M  V30 6366 H 605.067 1.04503 -0.990715 0
M  V30 6367 H 607.02 4.16366 -0.649413 0
M  V30 6368 H 605.744 3.25967 0.203259 0
M  V30 6369 H 604.403 3.12012 -1.92468 0
M  V30 6370 H 604.051 5.01881 -0.335378 0
M  V30 6371 H 603.751 5.51829 -2.01887 0
M  V30 6372 H 605.275 5.98462 -1.21143 0
M  V30 6373 H 606.689 4.79316 -3.1453 0
M  V30 6374 H 605.086 4.55982 -3.90129 0
M  V30 6375 H 606.156 3.16468 -3.67391 0
M  V30 6376 N 607.499 1.09233 1.13605 0
M  V30 6377 C 608.429 0.751738 2.21068 0
M  V30 6378 C 609.41 -0.269688 1.67948 0
M  V30 6379 O 610.595 -0.13819 1.93708 0
M  V30 6380 C 607.725 0.16935 3.46887 0
M  V30 6381 C 606.679 1.12007 4.13084 0
M  V30 6382 C 606.005 0.399483 5.33206 0
M  V30 6383 C 607.305 2.46168 4.6065 0
M  V30 6384 H 608.999 1.65024 2.49815 0
M  V30 6385 H 606.545 0.794905 1.20072 0
M  V30 6386 H 608.498 -0.0809824 4.21322 0
M  V30 6387 H 607.222 -0.764335 3.1753 0
M  V30 6388 H 605.881 1.35564 3.40614 0
M  V30 6389 H 605.529 -0.538277 5.00112 0
M  V30 6390 H 605.229 1.03337 5.78442 0
M  V30 6391 H 606.753 0.157403 6.10397 0
M  V30 6392 H 608.167 2.26829 5.26518 0
M  V30 6393 H 606.564 3.05326 5.1662 0
M  V30 6394 H 607.634 3.07076 3.75276 0
M  V30 6395 N 608.977 -1.30795 0.87923 0
M  V30 6396 C 610.224 -1.96362 0.494786 0
M  V30 6397 C 610.552 -1.69448 -0.954868 0
M  V30 6398 O 609.807 -0.988711 -1.68888 0
M  V30 6399 C 610.106 -3.50287 0.709476 0
M  V30 6400 C 609.772 -3.9724 2.13333 0
M  V30 6401 C 608.434 -4.09772 2.52271 0
M  V30 6402 C 610.786 -4.21807 3.06151 0
M  V30 6403 C 608.114 -4.44227 3.83248 0
M  V30 6404 C 610.466 -4.5773 4.36654 0
M  V30 6405 C 609.13 -4.68469 4.75492 0
M  V30 6406 H 608.4 -0.71854 0.181055 0
M  V30 6407 H 611.047 -1.55764 1.11399 0
M  V30 6408 H 609.352 -3.91799 0.0072 0
M  V30 6409 H 611.049 -3.99082 0.391703 0
M  V30 6410 H 607.639 -3.87988 1.82107 0
M  V30 6411 H 611.823 -4.11611 2.77291 0
M  V30 6412 H 607.079 -4.50741 4.13089 0
M  V30 6413 H 611.253 -4.7569 5.08617 0
M  V30 6414 H 608.88 -4.94923 5.77022 0
M  V30 6415 N 610.455 -0.639598 -1.44038 0
M  V30 6416 C 611.403 0.0723409 -2.32487 0
M  V30 6417 C 612.397 0.827129 -1.47834 0
M  V30 6418 O 613.603 0.73907 -1.64127 0
M  V30 6419 H 609.978 0.0421696 -0.750817 0
M  V30 6420 H 611.949 -0.691593 -2.90275 0
M  V30 6421 C 610.698 1.03452 -3.31953 0
M  V30 6422 H 610.021 0.46315 -3.97108 0
M  V30 6423 H 611.461 1.502 -3.96505 0
M  V30 6424 C 609.92 2.12392 -2.61518 0
M  V30 6425 O 610.45 3.2059 -2.42044 0
M  V30 6426 N 608.656 1.88563 -2.21116 0
M  V30 6427 H 608.203 1.00577 -2.37154 0
M  V30 6428 H 608.161 2.61651 -1.74316 0
M  V30 6429 N 611.933 1.52934 -0.380664 0
M  V30 6430 C 613.21 1.93845 0.261417 0
M  V30 6431 C 613.59 1.31544 1.65104 0
M  V30 6432 O 612.938 0.480234 2.23397 0
M  V30 6433 C 613.148 3.47739 0.296466 0
M  V30 6434 C 614.496 4.21284 0.529578 0
M  V30 6435 O 615.52 3.54199 0.377041 0
M  V30 6436 O 614.379 5.40195 0.827753 0
M  V30 6437 H 611.473 0.811318 0.160285 0
M  V30 6438 H 614.019 1.64042 -0.434544 0
M  V30 6439 H 612.791 3.85395 -0.67724 0
M  V30 6440 H 612.414 3.8382 1.0377 0
M  V30 6441 N 613.412 0.11024 1.57214 0
M  V30 6442 C 614.637 -0.561179 1.99664 0
M  V30 6443 C 615.062 -1.59985 0.989266 0
M  V30 6444 O 614.42 -1.81255 -0.0402399 0
M  V30 6445 C 614.468 -1.17189 3.41027 0
M  V30 6446 O 613.572 -2.28755 3.4314 0
M  V30 6447 H 612.913 -0.14101 0.648855 0
M  V30 6448 H 615.443 0.196128 2.03658 0
M  V30 6449 H 615.453 -1.50954 3.79047 0
M  V30 6450 H 614.128 -0.411041 4.13864 0
M  V30 6451 H 612.705 -1.96495 3.16929 0
M  V30 6452 N 614.89 -1.56749 -0.16351 0
M  V30 6453 C 616.136 -1.82704 -0.880168 0
M  V30 6454 C 616.469 -0.689311 -1.81555 0
M  V30 6455 O 615.744 0.308224 -1.92042 0
M  V30 6456 C 616.027 -3.19084 -1.66905 0
M  V30 6457 C 615.88 -4.43397 -0.756269 0
M  V30 6458 C 617.199 -3.52493 -2.63509 0
M  V30 6459 H 614.318 -0.664608 -0.318535 0
M  V30 6460 H 616.96 -1.89438 -0.146036 0
M  V30 6461 H 615.11 -3.13475 -2.2949 0
M  V30 6462 H 616.782 -4.61079 -0.14269 0
M  V30 6463 H 615.025 -4.33752 -0.0647944 0
M  V30 6464 H 615.696 -5.3539 -1.34393 0
M  V30 6465 H 618.172 -3.58606 -2.11047 0
M  V30 6466 H 617.048 -4.48979 -3.15767 0
M  V30 6467 H 617.309 -2.77597 -3.44082 0
M  V30 6468 N 616.368 0.432326 -1.51554 0
M  V30 6469 C 617.614 1.18309 -1.64714 0
M  V30 6470 C 617.947 1.90745 -0.364696 0
M  V30 6471 O 617.222 1.8381 0.635936 0
M  V30 6472 C 617.505 2.1961 -2.85383 0
M  V30 6473 C 617.358 1.51223 -4.23617 0
M  V30 6474 C 618.677 3.20538 -3.01569 0
M  V30 6475 H 615.796 0.428751 -0.599451 0
M  V30 6476 H 618.438 0.471689 -1.84052 0
M  V30 6477 H 616.588 2.8028 -2.69027 0
M  V30 6478 H 618.26 0.938516 -4.51652 0
M  V30 6479 H 616.503 0.814501 -4.26085 0
M  V30 6480 H 617.174 2.25024 -5.04052 0
M  V30 6481 H 619.65 2.69926 -3.16669 0
M  V30 6482 H 618.526 3.88706 -3.87555 0
M  V30 6483 H 618.787 3.86933 -2.13859 0
M  V30 6484 N 617.846 1.41785 0.688094 0
M  V30 6485 C 618.776 1.47 1.8142 0
M  V30 6486 C 619.757 0.327881 1.6691 0
M  V30 6487 O 620.942 0.540362 1.86531 0
M  V30 6488 C 618.072 1.35876 3.19617 0
M  V30 6489 C 617.026 2.47976 3.48844 0
M  V30 6490 C 616.352 2.21915 4.86475 0
M  V30 6491 C 617.652 3.90309 3.47068 0
M  V30 6492 H 619.346 2.41247 1.77314 0
M  V30 6493 H 616.892 1.16116 0.851651 0
M  V30 6494 H 618.845 1.38134 3.98117 0
M  V30 6495 H 617.569 0.38116 3.24368 0
M  V30 6496 H 616.228 2.45013 2.72698 0
M  V30 6497 H 615.876 1.2248 4.8786 0
M  V30 6498 H 615.576 2.97037 5.06994 0
M  V30 6499 H 617.1 2.25901 5.67275 0
M  V30 6500 H 618.514 3.94947 4.1556 0
M  V30 6501 H 616.911 4.65175 3.7912 0
M  V30 6502 H 617.981 4.17927 2.45896 0
M  V30 6503 N 619.324 -0.923095 1.27737 0
M  V30 6504 C 620.254 -2.04124 1.13383 0
M  V30 6505 C 621.235 -1.70066 0.0340658 0
M  V30 6506 O 622.42 -1.93068 0.209383 0
M  V30 6507 C 619.55 -3.3831 0.785097 0
M  V30 6508 C 618.504 -3.86496 1.8386 0
M  V30 6509 C 617.83 -5.1754 1.34373 0
M  V30 6510 C 619.13 -4.09381 3.24353 0
M  V30 6511 H 620.824 -2.1639 2.06919 0
M  V30 6512 H 618.37 -1.03976 0.996243 0
M  V30 6513 H 620.323 -4.16016 0.671485 0
M  V30 6514 H 619.047 -3.2607 -0.185969 0
M  V30 6515 H 617.706 -3.10987 1.9412 0
M  V30 6516 H 617.354 -5.01696 0.361989 0
M  V30 6517 H 617.054 -5.50751 2.04811 0
M  V30 6518 H 618.578 -5.97811 1.24315 0
M  V30 6519 H 619.992 -4.77641 3.17067 0
M  V30 6520 H 618.389 -4.53906 3.92542 0
M  V30 6521 H 619.459 -3.14515 3.69064 0
M  V30 6522 N 620.802 -1.09834 -1.13024 0
M  V30 6523 C 621.75 -0.736283 -2.20639 0
M  V30 6524 C 622.744 0.264725 -1.67319 0
M  V30 6525 O 623.95 0.125745 -1.7956 0
M  V30 6526 H 620.325 -0.220136 -0.719058 0
M  V30 6527 H 622.296 -1.65295 -2.48436 0
M  V30 6528 C 621.045 -0.177544 -3.47246 0
M  V30 6529 H 620.368 -0.939009 -3.88616 0
M  V30 6530 H 621.808 0.0378007 -4.23983 0
M  V30 6531 C 620.267 1.08824 -3.1884 0
M  V30 6532 O 620.797 2.1708 -3.37993 0
M  V30 6533 N 619.003 1.00442 -2.7269 0
M  V30 6534 H 618.55 0.123383 -2.57304 0
M  V30 6535 H 618.508 1.85206 -2.5406 0
M  V30 6536 N 622.28 1.30327 -0.886154 0
M  V30 6537 C 623.529 1.95373 -0.501243 0
M  V30 6538 C 623.842 1.70722 0.954634 0
M  V30 6539 O 625.048 2.29761 1.44644 0
M  V30 6540 C 623.504 3.49828 -0.845493 0
M  V30 6541 C 623.112 3.83296 -2.31922 0
M  V30 6542 C 624.856 4.2118 -0.529838 0
M  V30 6543 C 622.763 5.30935 -2.60504 0
M  V30 6544 H 621.693 0.731274 -0.183722 0
M  V30 6545 H 624.344 1.48258 -1.08129 0
M  V30 6546 H 622.726 3.95522 -0.19452 0
M  V30 6547 H 623.9 3.48508 -3.01461 0
M  V30 6548 H 622.215 3.2505 -2.60253 0
M  V30 6549 H 624.812 5.29825 -0.720401 0
M  V30 6550 H 625.155 4.12902 0.530828 0
M  V30 6551 H 625.688 3.81173 -1.13806 0
M  V30 6552 H 622.427 5.44265 -3.65316 0
M  V30 6553 H 621.947 5.67019 -1.95575 0
M  V30 6554 H 623.626 5.98381 -2.46066 0
M  V30 6555 N 623.758 0.647228 1.43697 0
M  V30 6556 C 624.986 0.16575 2.06235 0
M  V30 6557 C 625.401 -1.1662 1.48476 0
M  V30 6558 O 624.758 -1.7187 0.613762 0
M  V30 6559 C 624.809 0.0621651 3.61447 0
M  V30 6560 O 624.53 1.34146 4.17057 0
M  V30 6561 C 626.031 -0.446102 4.4105 0
M  V30 6562 H 623.251 0.0871158 0.665321 0
M  V30 6563 H 625.795 0.886183 1.84301 0
M  V30 6564 H 623.95 -0.608794 3.82587 0
M  V30 6565 H 624.364 1.19675 5.10664 0
M  V30 6566 H 625.838 -0.46755 5.50016 0
M  V30 6567 H 626.315 -1.47627 4.13646 0
M  V30 6568 H 626.921 0.192159 4.24866 0
M  V30 6569 N 625.236 -1.5273 0.388769 0
M  V30 6570 C 626.482 -2.01871 -0.193877 0
M  V30 6571 C 626.815 -1.27475 -1.46505 0
M  V30 6572 O 626.09 -0.375063 -1.90849 0
M  V30 6573 C 626.373 -3.5712 -0.462336 0
M  V30 6574 C 626.226 -4.42186 0.824091 0
M  V30 6575 C 627.545 -4.21881 -1.25319 0
M  V30 6576 H 624.664 -0.733764 -0.0689899 0
M  V30 6577 H 627.306 -1.82796 0.518231 0
M  V30 6578 H 625.456 -3.73504 -1.06896 0
M  V30 6579 H 627.128 -4.37554 1.46096 0
M  V30 6580 H 625.371 -4.09219 1.43952 0
M  V30 6581 H 626.042 -5.48828 0.590905 0
M  V30 6582 H 628.518 -4.0947 -0.73981 0
M  V30 6583 H 627.394 -5.30487 -1.40977 0
M  V30 6584 H 627.655 -3.79478 -2.26824 0
M  V30 6585 N 626.714 -0.118576 -1.57153 0
M  V30 6586 C 627.962 0.538461 -1.94795 0
M  V30 6587 C 628.283 1.67243 -1.00274 0
M  V30 6588 O 627.553 1.95811 -0.0589692 0
M  V30 6589 H 626.133 0.201904 -0.719197 0
M  V30 6590 H 628.795 -0.187418 -1.93997 0
M  V30 6591 H 627.891 0.933315 -2.97818 0
M  V30 6592 N 628.193 1.56834 0.155195 0
M  V30 6593 C 629.14 1.97646 1.19184 0
M  V30 6594 C 630.11 0.842788 1.4313 0
M  V30 6595 O 631.295 1.1042 1.55602 0
M  V30 6596 C 628.435 2.35527 2.52232 0
M  V30 6597 C 627.548 3.62147 2.35529 0
M  V30 6598 C 626.683 3.89167 3.61555 0
M  V30 6599 C 625.722 5.09084 3.39853 0
M  V30 6600 N 624.859 5.32156 4.5799 0
M  V30 6601 H 629.699 2.8601 0.836802 0
M  V30 6602 H 627.236 1.41507 0.401758 0
M  V30 6603 H 629.194 2.55516 3.29799 0
M  V30 6604 H 627.824 1.50253 2.85699 0
M  V30 6605 H 626.876 3.4998 1.49057 0
M  V30 6606 H 628.188 4.49871 2.15448 0
M  V30 6607 H 627.342 4.09611 4.47553 0
M  V30 6608 H 626.081 2.9985 3.84632 0
M  V30 6609 H 625.086 4.88522 2.52243 0
M  V30 6610 H 626.311 5.99947 3.18183 0
M  V30 6611 H 624.257 4.45791 4.81255 0
M  V30 6612 H 624.174 6.14133 4.40882 0
M  V30 6613 H 625.442 5.57091 5.45225 0
M  V30 6614 N 629.671 -0.424282 1.51781 0
M  V30 6615 C 630.581 -1.54087 1.76902 0
M  V30 6616 C 631.597 -1.61249 0.653826 0
M  V30 6617 O 632.773 -1.78247 0.937552 0
M  V30 6618 C 629.838 -2.8996 1.90063 0
M  V30 6619 C 628.899 -2.92809 3.13945 0
M  V30 6620 C 628.132 -4.22201 3.26469 0
M  V30 6621 O 628.355 -5.15286 2.44616 0
M  V30 6622 O 627.289 -4.31599 4.1953 0
M  V30 6623 H 631.115 -1.358 2.71647 0
M  V30 6624 H 628.7 -0.608618 1.36441 0
M  V30 6625 H 630.582 -3.70575 2.0063 0
M  V30 6626 H 629.257 -3.08347 0.985067 0
M  V30 6627 H 628.164 -2.11102 3.08847 0
M  V30 6628 H 629.497 -2.79369 4.05233 0
M  V30 6629 N 631.149 -1.42148 -0.680565 0
M  V30 6630 C 632.059 -1.47565 -1.82378 0
M  V30 6631 C 633.075 -0.36489 -1.70131 0
M  V30 6632 O 634.251 -0.614916 -1.91783 0
M  V30 6633 C 631.316 -1.37013 -3.18478 0
M  V30 6634 C 630.377 -2.58532 -3.42724 0
M  V30 6635 C 629.61 -2.48473 -4.72331 0
M  V30 6636 O 629.833 -1.51745 -5.49845 0
M  V30 6637 O 628.767 -3.38503 -4.97694 0
M  V30 6638 H 632.593 -2.44045 -1.80764 0
M  V30 6639 H 630.178 -1.23849 -0.835569 0
M  V30 6640 H 632.06 -1.33468 -3.99705 0
M  V30 6641 H 630.735 -0.436552 -3.20743 0
M  V30 6642 H 629.642 -2.67652 -2.61368 0
M  V30 6643 H 630.975 -3.50769 -3.45286 0
M  V30 6644 N 632.627 0.916307 -1.28225 0
M  V30 6645 C 633.855 1.69901 -1.18073 0
M  V30 6646 C 634.27 1.86988 0.260968 0
M  V30 6647 O 633.627 1.39505 1.17663 0
M  V30 6648 C 633.678 3.09254 -1.87201 0
M  V30 6649 O 633.399 2.92959 -3.2574 0
M  V30 6650 C 634.9 4.0362 -1.83319 0
M  V30 6651 H 632.12 0.531181 -0.409985 0
M  V30 6652 H 634.664 1.14703 -1.69303 0
M  V30 6653 H 632.819 3.61277 -1.39848 0
M  V30 6654 H 633.233 3.81139 -3.60324 0
M  V30 6655 H 634.707 4.98873 -2.36282 0
M  V30 6656 H 635.184 4.3176 -0.805007 0
M  V30 6657 H 635.79 3.57524 -2.3034 0
M  V30 6658 N 634.105 1.10431 1.1244 0
M  V30 6659 C 635.037 0.710945 2.17895 0
M  V30 6660 C 636.05 -0.252315 1.60833 0
M  V30 6661 O 637.239 -0.03679 1.78462 0
M  V30 6662 C 634.339 0.0284262 3.38888 0
M  V30 6663 C 633.512 1.01585 4.2544 0
M  V30 6664 C 632.571 0.364826 5.24934 0
M  V30 6665 O 631.597 1.01561 5.60066 0
M  V30 6666 N 632.799 -0.87674 5.73841 0
M  V30 6667 H 635.564 1.61826 2.52255 0
M  V30 6668 H 633.125 0.993132 1.27861 0
M  V30 6669 H 635.117 -0.418568 4.0253 0
M  V30 6670 H 633.687 -0.781294 3.02679 0
M  V30 6671 H 632.907 1.64111 3.58415 0
M  V30 6672 H 634.195 1.68425 4.80115 0
M  V30 6673 H 633.593 -1.42483 5.47462 0
M  V30 6674 H 632.15 -1.26688 6.39369 0
M  V30 6675 N 635.583 -1.29855 0.893053 0
M  V30 6676 C 636.813 -1.99686 0.530019 0
M  V30 6677 C 637.221 -1.67066 -0.888012 0
M  V30 6678 O 636.564 -0.908366 -1.5967 0
M  V30 6679 C 636.626 -3.53855 0.63457 0
M  V30 6680 C 636.29 -4.10013 2.01837 0
M  V30 6681 C 637.287 -4.25406 2.98874 0
M  V30 6682 C 634.972 -4.45202 2.32595 0
M  V30 6683 C 636.966 -4.7521 4.24799 0
M  V30 6684 C 634.653 -4.94704 3.58763 0
M  V30 6685 C 635.651 -5.09662 4.5468 0
M  V30 6686 O 635.339 -5.58093 5.78608 0
M  V30 6687 H 635.071 -0.644913 0.20264 0
M  V30 6688 H 637.625 -1.66518 1.20253 0
M  V30 6689 H 635.855 -3.86583 -0.0949477 0
M  V30 6690 H 637.544 -4.04922 0.281648 0
M  V30 6691 H 638.31 -3.98515 2.76425 0
M  V30 6692 H 634.189 -4.32822 1.58701 0
M  V30 6693 H 637.733 -4.86801 4.99671 0
M  V30 6694 H 633.63 -5.21032 3.81046 0
M  V30 6695 H 634.398 -5.7642 5.81104 0
M  V30 6696 N 637.061 -0.65484 -1.43351 0
M  V30 6697 C 638.307 -0.169142 -2.02093 0
M  V30 6698 C 638.64 1.21431 -1.51553 0
M  V30 6699 O 637.915 1.81105 -0.709317 0
M  V30 6700 C 638.198 -0.181775 -3.59641 0
M  V30 6701 C 638.051 -1.59926 -4.20409 0
M  V30 6702 C 639.37 0.480945 -4.37464 0
M  V30 6703 H 636.489 -0.0629371 -0.734308 0
M  V30 6704 H 639.131 -0.835833 -1.70628 0
M  V30 6705 H 637.281 0.385918 -3.86578 0
M  V30 6706 H 638.953 -2.21766 -4.04497 0
M  V30 6707 H 637.196 -2.14605 -3.76998 0
M  V30 6708 H 637.867 -1.55994 -5.295 0
M  V30 6709 H 640.343 -0.00208273 -4.161 0
M  V30 6710 H 639.219 0.441384 -5.47122 0
M  V30 6711 H 639.48 1.55533 -4.13838 0
M  V30 6712 N 638.539 1.52521 -0.396863 0
M  V30 6713 C 639.472 2.23118 0.478926 0
M  V30 6714 C 640.45 1.23475 1.05796 0
M  V30 6715 O 641.634 1.52486 1.10817 0
M  V30 6716 C 638.761 2.95028 1.66362 0
M  V30 6717 C 637.807 4.09002 1.20913 0
M  V30 6718 S 638.64 5.35182 0.184407 0
M  V30 6719 C 639.796 6.10616 1.37471 0
M  V30 6720 H 640.029 2.97056 -0.120542 0
M  V30 6721 H 637.562 1.53334 -0.18109 0
M  V30 6722 H 639.52 3.37066 2.34301 0
M  V30 6723 H 638.181 2.20756 2.23441 0
M  V30 6724 H 637.374 4.58445 2.09389 0
M  V30 6725 H 636.976 3.69016 0.608559 0
M  V30 6726 H 639.268 6.37247 2.30048 0
M  V30 6727 H 640.211 7.02084 0.921051 0
M  V30 6728 H 640.619 5.41499 1.59495 0
M  V30 6729 N 640.017 0.126909 1.57088 0
M  V30 6730 C 641.294 -0.573152 1.87014 0
M  V30 6731 C 641.674 -1.84297 1.02945 0
M  V30 6732 O 641.022 -2.28232 0.110573 0
M  V30 6733 C 641.232 -0.857984 3.38289 0
M  V30 6734 C 642.58 -1.20759 4.07066 0
M  V30 6735 O 643.604 -0.947992 3.43353 0
M  V30 6736 O 642.463 -1.69516 5.19545 0
M  V30 6737 H 639.557 -0.290082 0.774456 0
M  V30 6738 H 642.103 0.162008 1.68925 0
M  V30 6739 H 640.875 0.0415286 3.91278 0
M  V30 6740 H 640.498 -1.64803 3.61837 0
M  V30 6741 N 641.495 -1.56914 -0.146875 0
M  V30 6742 C 642.772 -1.74273 -0.888165 0
M  V30 6743 C 643.152 -0.69496 -1.99333 0
M  V30 6744 O 642.5 0.286093 -2.26702 0
M  V30 6745 C 642.71 -3.18336 -1.43051 0
M  V30 6746 C 644.058 -3.80024 -1.89387 0
M  V30 6747 O 645.082 -3.21765 -1.52792 0
M  V30 6748 O 643.941 -4.82367 -2.56874 0
M  V30 6749 H 641.035 -0.712565 -0.419738 0
M  V30 6750 H 643.581 -1.6918 -0.132791 0
M  V30 6751 H 642.353 -3.86092 -0.636274 0
M  V30 6752 H 641.976 -3.27854 -2.24938 0
M  V30 6753 N 642.974 0.416227 -1.52004 0
M  V30 6754 C 644.202 1.18573 -1.69553 0
M  V30 6755 C 644.617 1.84472 -0.401919 0
M  V30 6756 O 643.974 1.71593 0.621463 0
M  V30 6757 C 644.025 2.25413 -2.82615 0
M  V30 6758 O 643.746 1.62205 -4.06966 0
M  V30 6759 C 645.247 3.15297 -3.11613 0
M  V30 6760 H 642.467 0.356582 -0.56841 0
M  V30 6761 H 645.011 0.490618 -1.98528 0
M  V30 6762 H 643.166 2.90604 -2.56179 0
M  V30 6763 H 643.58 2.3298 -4.69916 0
M  V30 6764 H 645.054 3.86351 -3.94255 0
M  V30 6765 H 645.531 3.77264 -2.24874 0
M  V30 6766 H 646.137 2.55783 -3.39787 0
M  V30 6767 N 644.452 1.42507 0.673017 0
M  V30 6768 C 645.7 1.42789 1.43023 0
M  V30 6769 C 646.021 0.0459738 1.94946 0
M  V30 6770 O 645.291 -0.915765 1.73178 0
M  V30 6771 H 643.871 0.525657 0.530748 0
M  V30 6772 H 646.533 1.77944 0.795113 0
M  V30 6773 H 645.629 2.12872 2.28237 0
M  V30 6774 N 645.93 -0.909495 1.28709 0
M  V30 6775 C 646.86 -2.0291 1.15542 0
M  V30 6776 C 647.841 -1.7002 0.0521017 0
M  V30 6777 O 649.026 -1.92835 0.229849 0
M  V30 6778 C 646.156 -3.37458 0.820935 0
M  V30 6779 C 645.11 -3.84524 1.87949 0
M  V30 6780 C 644.436 -5.16086 1.39854 0
M  V30 6781 C 645.736 -4.05918 3.28676 0
M  V30 6782 H 647.43 -2.14183 2.09203 0
M  V30 6783 H 644.976 -1.02913 1.00722 0
M  V30 6784 H 646.929 -4.1528 0.715571 0
M  V30 6785 H 645.653 -3.26249 -0.151374 0
M  V30 6786 H 644.312 -3.08911 1.97408 0
M  V30 6787 H 643.96 -5.01284 0.41518 0
M  V30 6788 H 643.66 -5.48547 2.1064 0
M  V30 6789 H 645.184 -5.96459 1.30649 0
M  V30 6790 H 646.598 -4.74252 3.22115 0
M  V30 6791 H 644.995 -4.49717 3.97334 0
M  V30 6792 H 646.065 -3.10583 3.72379 0
M  V30 6793 N 647.408 -1.11026 -1.11852 0
M  V30 6794 C 648.654 -0.857729 -1.83768 0
M  V30 6795 C 648.987 0.615143 -1.842 0
M  V30 6796 O 648.262 1.45391 -1.29196 0
M  V30 6797 C 648.545 -1.41453 -3.31154 0
M  V30 6798 C 648.398 -2.95471 -3.39142 0
M  V30 6799 C 649.717 -1.0619 -4.27097 0
M  V30 6800 H 646.836 -0.313044 -0.667212 0
M  V30 6801 H 649.478 -1.37443 -1.31185 0
M  V30 6802 H 647.628 -0.975052 -3.76065 0
M  V30 6803 H 649.3 -3.4799 -3.02821 0
M  V30 6804 H 647.543 -3.31759 -2.79497 0
M  V30 6805 H 648.214 -3.29515 -4.42859 0
M  V30 6806 H 650.69 -1.44122 -3.90344 0
M  V30 6807 H 649.566 -1.47832 -5.28618 0
M  V30 6808 H 649.827 0.0278912 -4.42091 0
M  V30 6809 N 648.886 1.2938 -0.899927 0
M  V30 6810 C 650.297 1.77644 -0.574427 0
M  V30 6811 C 650.648 1.73824 0.909928 0
M  V30 6812 O 649.773 1.32429 1.71147 0
M  V30 6813 C 650.368 3.22573 -1.03595 0
M  V30 6814 C 648.927 3.68614 -0.76161 0
M  V30 6815 C 648.074 2.49483 -1.21052 0
M  V30 6816 H 651.025 1.16038 -1.08263 0
M  V30 6817 H 651.046 3.78684 -0.371337 0
M  V30 6818 H 650.558 3.25321 -2.11631 0
M  V30 6819 H 648.659 3.7134 0.306127 0
M  V30 6820 H 648.772 4.59402 -1.35965 0
M  V30 6821 H 647.136 2.46798 -0.629515 0
M  V30 6822 H 647.919 2.54959 -2.29893 0
M  V30 6823 N 650.364 0.662433 1.43002 0
M  V30 6824 C 651.612 0.179237 2.01304 0
M  V30 6825 C 651.933 -1.21428 1.52579 0
M  V30 6826 O 651.203 -1.81294 0.742252 0
M  V30 6827 H 649.783 0.0632725 0.744316 0
M  V30 6828 H 652.445 0.856169 1.75088 0
M  V30 6829 H 651.541 0.170957 3.11631 0
M  V30 6830 N 651.842 -1.52309 0.404946 0
M  V30 6831 C 653.258 -1.59503 0.0556255 0
M  V30 6832 C 653.458 -1.41805 -1.43156 0
M  V30 6833 O 652.514 -1.2429 -2.19792 0
M  V30 6834 C 653.827 -2.95687 0.546801 0
M  V30 6835 C 655.375 -3.08909 0.504413 0
M  V30 6836 C 655.85 -4.47566 0.97203 0
M  V30 6837 N 657.341 -4.53795 0.928679 0
M  V30 6838 C 658.076 -5.59346 1.26174 0
M  V30 6839 N 657.572 -6.72469 1.66604 0
M  V30 6840 N 659.365 -5.49532 1.18198 0
M  V30 6841 H 651.516 -1.6206 1.37296 0
M  V30 6842 H 653.779 -0.762161 0.563751 0
M  V30 6843 H 653.485 -3.13905 1.58609 0
M  V30 6844 H 653.359 -3.77172 -0.0457905 0
M  V30 6845 H 655.746 -2.90378 -0.525819 0
M  V30 6846 H 655.827 -2.2934 1.13301 0
M  V30 6847 H 655.471 -4.6684 2.00057 0
M  V30 6848 H 655.401 -5.25625 0.320292 0
M  V30 6849 H 657.892 -3.72588 0.631369 0
M  V30 6850 H 658.205 -7.48993 1.9034 0
M  V30 6851 H 656.55 -6.73761 1.70504 0
M  V30 6852 H 659.741 -4.60038 0.865011 0
M  V30 6853 H 659.914 -6.31687 1.44485 0
M  V30 6854 N 653.32 -0.135238 -1.57019 0
M  V30 6855 C 654.252 0.839675 -2.13265 0
M  V30 6856 C 655.265 1.21887 -1.07923 0
M  V30 6857 O 656.454 1.16499 -1.35241 0
M  V30 6858 C 653.554 2.13647 -2.63075 0
M  V30 6859 C 652.727 1.92646 -3.92691 0
M  V30 6860 C 651.786 3.06205 -4.27931 0
M  V30 6861 O 650.812 2.78409 -4.96465 0
M  V30 6862 N 652.014 4.33072 -3.86561 0
M  V30 6863 H 654.779 0.359026 -2.97542 0
M  V30 6864 H 652.34 0.0486979 -1.61827 0
M  V30 6865 H 654.332 2.88641 -2.8367 0
M  V30 6866 H 652.902 2.5301 -1.83588 0
M  V30 6867 H 652.122 1.01754 -3.80841 0
M  V30 6868 H 653.41 1.75939 -4.77413 0
M  V30 6869 H 652.808 4.58526 -3.31316 0
M  V30 6870 H 651.365 5.04885 -4.12231 0
M  V30 6871 N 654.798 1.5699 0.138552 0
M  V30 6872 C 656.028 1.87704 0.863184 0
M  V30 6873 C 656.436 0.722411 1.74865 0
M  V30 6874 O 655.779 -0.316636 1.80951 0
M  V30 6875 C 655.841 3.13219 1.76449 0
M  V30 6876 C 655.505 4.44648 1.05532 0
M  V30 6877 C 656.502 5.18318 0.405252 0
M  V30 6878 C 654.187 4.91367 1.04231 0
M  V30 6879 C 656.181 6.36916 -0.24835 0
M  V30 6880 C 653.868 6.09887 0.384904 0
M  V30 6881 C 654.866 6.82508 -0.259292 0
M  V30 6882 O 654.554 7.98775 -0.906258 0
M  V30 6883 H 654.286 0.626255 0.254521 0
M  V30 6884 H 656.84 2.04966 0.133472 0
M  V30 6885 H 655.07 2.91988 2.53535 0
M  V30 6886 H 656.759 3.30111 2.36181 0
M  V30 6887 H 657.525 4.83289 0.407053 0
M  V30 6888 H 653.404 4.34759 1.53315 0
M  V30 6889 H 656.948 6.93538 -0.751755 0
M  V30 6890 H 652.845 6.44376 0.380799 0
M  V30 6891 H 653.613 8.14494 -0.80877 0
M  V30 6892 N 656.276 -0.40816 1.52223 0
M  V30 6893 C 657.186 -1.52202 1.78526 0
M  V30 6894 C 658.202 -1.60546 0.670892 0
M  V30 6895 O 659.378 -1.77242 0.956404 0
M  V30 6896 C 656.443 -2.87928 1.93128 0
M  V30 6897 C 655.504 -2.89463 3.17033 0
M  V30 6898 C 654.737 -4.18715 3.30929 0
M  V30 6899 O 654.96 -5.12662 2.50067 0
M  V30 6900 O 653.894 -4.27125 4.24084 0
M  V30 6901 H 657.72 -1.32911 2.73072 0
M  V30 6902 H 655.305 -0.594112 1.37079 0
M  V30 6903 H 657.187 -3.68426 2.04549 0
M  V30 6904 H 655.862 -3.07285 1.01772 0
M  V30 6905 H 654.769 -2.07815 3.11069 0
M  V30 6906 H 656.102 -2.75055 4.08174 0
M  V30 6907 N 657.755 -1.42862 -0.66545 0
M  V30 6908 C 659.001 -1.44043 -1.42757 0
M  V30 6909 C 659.334 -0.0599629 -1.94107 0
M  V30 6910 O 658.609 0.917286 -1.71511 0
M  V30 6911 C 658.892 -2.47266 -2.61786 0
M  V30 6912 C 658.745 -3.94539 -2.16007 0
M  V30 6913 C 660.064 -2.47365 -3.64003 0
M  V30 6914 H 657.183 -0.524506 -0.517748 0
M  V30 6915 H 659.825 -1.74335 -0.755466 0
M  V30 6916 H 657.975 -2.21565 -3.19126 0
M  V30 6917 H 659.647 -4.31254 -1.63762 0
M  V30 6918 H 657.89 -4.07957 -1.47491 0
M  V30 6919 H 658.561 -4.62357 -3.01546 0
M  V30 6920 H 661.037 -2.70243 -3.16399 0
M  V30 6921 H 659.913 -3.21552 -4.44854 0
M  V30 6922 H 660.174 -1.50299 -4.15767 0
M  V30 6923 N 659.233 0.902656 -1.29189 0
M  V30 6924 C 660.143 2.03946 -1.15944 0
M  V30 6925 C 661.159 1.738 -0.0833803 0
M  V30 6926 O 662.335 1.9923 -0.29487 0
M  V30 6927 C 659.4 3.36519 -0.834006 0
M  V30 6928 C 658.461 3.80203 -1.9936 0
M  V30 6929 C 657.694 5.06449 -1.68359 0
M  V30 6930 O 657.917 5.67202 -0.603141 0
M  V30 6931 O 656.851 5.46114 -2.53067 0
M  V30 6932 H 660.677 2.18043 -2.11403 0
M  V30 6933 H 658.262 1.02584 -1.08613 0
M  V30 6934 H 660.144 4.16089 -0.666949 0
M  V30 6935 H 658.819 3.23573 0.0908245 0
M  V30 6936 H 657.726 3.01413 -2.21588 0
M  V30 6937 H 659.059 3.97729 -2.89952 0
M  V30 6938 N 660.711 1.11618 1.11262 0
M  V30 6939 C 661.957 0.867463 1.83311 0
M  V30 6940 C 662.29 -0.605366 1.84524 0
M  V30 6941 O 661.565 -1.44704 1.29965 0
M  V30 6942 C 661.848 1.43207 3.30399 0
M  V30 6943 C 661.701 2.97265 3.3757 0
M  V30 6944 C 663.02 1.08454 4.26528 0
M  V30 6945 H 660.139 0.316578 0.665543 0
M  V30 6946 H 662.781 1.38137 1.30454 0
M  V30 6947 H 660.931 0.994982 3.75543 0
M  V30 6948 H 662.603 3.49591 3.00971 0
M  V30 6949 H 660.846 3.33237 2.77733 0
M  V30 6950 H 661.517 3.31859 4.41105 0
M  V30 6951 H 663.993 1.4619 3.89574 0
M  V30 6952 H 662.869 1.50633 5.27826 0
M  V30 6953 H 663.13 -0.00444568 4.421 0
M  V30 6954 N 662.189 -1.289 0.906776 0
M  V30 6955 C 663.438 -1.9455 0.532262 0
M  V30 6956 C 663.751 -1.72219 -0.927353 0
M  V30 6957 O 664.957 -2.32033 -1.40971 0
M  V30 6958 C 663.413 -3.48438 0.901041 0
M  V30 6959 C 663.021 -3.79558 2.37991 0
M  V30 6960 C 664.765 -4.20284 0.596777 0
M  V30 6961 C 662.672 -5.26723 2.68918 0
M  V30 6962 H 661.602 -0.728259 0.195333 0
M  V30 6963 H 664.253 -1.46519 1.10474 0
M  V30 6964 H 662.635 -3.95162 0.257419 0
M  V30 6965 H 663.809 -3.43668 3.06967 0
M  V30 6966 H 662.124 -3.20868 2.65391 0
M  V30 6967 H 664.721 -5.28612 0.8046 0
M  V30 6968 H 665.064 -4.13694 -0.465072 0
M  V30 6969 H 665.597 -3.79315 1.19855 0
M  V30 6970 H 662.336 -5.38384 3.73928 0
M  V30 6971 H 661.856 -5.63836 2.04571 0
M  V30 6972 H 663.535 -5.94391 2.55555 0
M  V30 6973 N 663.667 -0.670007 -1.42649 0
M  V30 6974 C 664.913 -0.190568 -2.01903 0
M  V30 6975 C 665.246 1.19817 -1.52832 0
M  V30 6976 O 664.521 1.80342 -0.728485 0
M  V30 6977 C 664.804 -0.21991 -3.59428 0
M  V30 6978 C 664.657 -1.64376 -4.18689 0
M  V30 6979 C 665.976 0.434519 -4.3795 0
M  V30 6980 H 663.095 -0.0707219 -0.733599 0
M  V30 6981 H 665.737 -0.853883 -1.69732 0
M  V30 6982 H 663.887 0.344894 -3.86966 0
M  V30 6983 H 665.559 -2.26044 -4.02122 0
M  V30 6984 H 663.802 -2.18591 -3.747 0
M  V30 6985 H 664.473 -1.61601 -5.27815 0
M  V30 6986 H 666.949 -0.0462156 -4.16074 0
M  V30 6987 H 665.825 0.38333 -5.4756 0
M  V30 6988 H 666.086 1.51135 -4.15464 0
M  V30 6989 N 665.145 1.52092 -0.413018 0
M  V30 6990 C 666.055 2.30858 0.417318 0
M  V30 6991 C 667.071 1.38746 1.05003 0
M  V30 6992 O 668.247 1.71821 1.05069 0
M  V30 6993 C 665.312 3.11756 1.51687 0
M  V30 6994 C 664.373 4.19613 0.906825 0
M  V30 6995 C 663.606 4.96644 1.95399 0
M  V30 6996 O 663.829 4.7402 3.17271 0
M  V30 6997 O 662.763 5.81385 1.55805 0
M  V30 6998 H 666.589 3.02865 -0.225028 0
M  V30 6999 H 664.174 1.48358 -0.176126 0
M  V30 7000 H 666.056 3.62122 2.15512 0
M  V30 7001 H 664.731 2.42539 2.14375 0
M  V30 7002 H 663.638 3.73385 0.231183 0
M  V30 7003 H 664.971 4.91134 0.323814 0
M  V30 7004 N 666.623 0.143563 1.56945 0
M  V30 7005 C 667.848 -0.518701 2.00809 0
M  V30 7006 C 668.273 -1.5785 1.02298 0
M  V30 7007 O 667.631 -1.813 -0.0017839 0
M  V30 7008 C 667.679 -1.09929 3.43436 0
M  V30 7009 O 666.783 -2.21425 3.47915 0
M  V30 7010 H 666.124 -0.127215 0.6517 0
M  V30 7011 H 668.654 0.239283 2.03196 0
M  V30 7012 H 668.664 -1.4288 3.82164 0
M  V30 7013 H 667.339 -0.323162 4.14643 0
M  V30 7014 H 665.916 -1.89728 3.21026 0
M  V30 7015 N 668.101 -1.57061 -0.130224 0
M  V30 7016 C 669.349 -1.83893 -0.838313 0
M  V30 7017 C 669.67 -0.727046 -1.80939 0
M  V30 7018 O 668.94 0.249927 -1.94299 0
M  V30 7019 H 667.52 -0.67846 -0.312573 0
M  V30 7020 H 670.182 -1.94529 -0.120224 0
M  V30 7021 H 669.278 -2.79419 -1.39038 0
M  V30 7022 N 669.579 0.400081 -1.52437 0
M  V30 7023 C 670.527 1.50851 -1.7705 0
M  V30 7024 C 671.521 1.56928 -0.637969 0
M  V30 7025 O 672.727 1.60226 -0.820212 0
M  V30 7026 H 669.102 0.50186 -0.560036 0
M  V30 7027 H 671.073 1.27281 -2.69893 0
M  V30 7028 C 669.822 2.88117 -1.94638 0
M  V30 7029 H 669.145 2.84187 -2.81208 0
M  V30 7030 H 670.585 3.64942 -2.15855 0
M  V30 7031 C 669.044 3.29206 -0.715899 0
M  V30 7032 O 669.574 4.01544 0.111944 0
M  V30 7033 N 667.78 2.85363 -0.549191 0
M  V30 7034 H 667.327 2.26664 -1.22397 0
M  V30 7035 H 667.285 3.13214 0.27278 0
M  V30 7036 N 671.057 1.43213 0.657864 0
M  V30 7037 C 671.987 1.50815 1.78262 0
M  V30 7038 C 672.968 0.363211 1.66177 0
M  V30 7039 O 674.153 0.579806 1.85343 0
M  V30 7040 C 671.283 1.42625 3.16663 0
M  V30 7041 C 670.237 2.5532 3.43505 0
M  V30 7042 C 669.563 2.32184 4.81658 0
M  V30 7043 C 670.863 3.97583 3.38711 0
M  V30 7044 H 672.557 2.44954 1.72157 0
M  V30 7045 H 670.103 1.17896 0.82683 0
M  V30 7046 H 672.056 1.46548 3.95097 0
M  V30 7047 H 670.78 0.449877 3.23487 0
M  V30 7048 H 669.439 2.50742 2.6744 0
M  V30 7049 H 669.087 1.32801 4.85153 0
M  V30 7050 H 668.787 3.07724 5.00579 0
M  V30 7051 H 670.311 2.37883 5.62356 0
M  V30 7052 H 671.725 4.03673 4.07089 0
M  V30 7053 H 670.122 4.73112 3.69168 0
M  V30 7054 H 671.192 4.23049 2.36976 0
M  V30 7055 N 672.536 -0.895792 1.29666 0
M  V30 7056 C 673.483 -2.00035 1.15129 0
M  V30 7057 C 674.453 -1.66043 0.0435819 0
M  V30 7058 O 675.638 -1.89621 0.211811 0
M  V30 7059 C 672.778 -3.34774 0.83787 0
M  V30 7060 C 671.891 -3.81525 2.0264 0
M  V30 7061 C 671.026 -5.04858 1.65201 0
M  V30 7062 C 670.065 -5.43988 2.80612 0
M  V30 7063 N 669.202 -6.58507 2.43544 0
M  V30 7064 H 674.042 -2.11802 2.09628 0
M  V30 7065 H 671.579 -1.03719 1.04311 0
M  V30 7066 H 673.537 -4.12311 0.636824 0
M  V30 7067 H 672.167 -3.22724 -0.0702314 0
M  V30 7068 H 671.219 -2.9999 2.33903 0
M  V30 7069 H 672.531 -4.06472 2.89106 0
M  V30 7070 H 671.685 -5.8999 1.41408 0
M  V30 7071 H 670.424 -4.81759 0.758893 0
M  V30 7072 H 669.429 -4.57388 3.05083 0
M  V30 7073 H 670.654 -5.69066 3.70595 0
M  V30 7074 H 668.6 -6.37004 1.56724 0
M  V30 7075 H 668.517 -6.83269 3.23542 0
M  V30 7076 H 669.785 -7.46897 2.2308 0
M  V30 7077 N 674.014 -1.12206 -1.10668 0
M  V30 7078 C 674.962 -0.782918 -2.19028 0
M  V30 7079 C 675.956 0.229175 -1.67843 0
M  V30 7080 O 677.162 0.0876295 -1.79787 0
M  V30 7081 H 673.537 -0.235339 -0.714227 0
M  V30 7082 H 675.508 -1.70527 -2.44874 0
M  V30 7083 C 674.257 -0.25116 -3.46792 0
M  V30 7084 H 673.58 -1.02123 -3.86537 0
M  V30 7085 H 675.02 -0.0521409 -4.23968 0
M  V30 7086 C 673.479 1.02037 -3.21076 0
M  V30 7087 O 674.009 2.09862 -3.42522 0
M  V30 7088 N 672.215 0.946348 -2.74759 0
M  V30 7089 H 671.762 0.068777 -2.57508 0
M  V30 7090 H 671.72 1.79775 -2.57931 0
M  V30 7091 N 675.492 1.28418 -0.913599 0
M  V30 7092 C 676.717 1.99643 -0.561899 0
M  V30 7093 C 677.142 1.67819 0.849608 0
M  V30 7094 O 676.5 0.910503 1.56779 0
M  V30 7095 C 676.548 3.52116 -0.777622 0
M  V30 7096 O 675.652 4.12076 0.163457 0
M  V30 7097 H 674.993 0.627229 -0.217898 0
M  V30 7098 H 677.523 1.63575 -1.229 0
M  V30 7099 H 677.533 4.02163 -0.687666 0
M  V30 7100 H 676.208 3.74613 -1.8066 0
M  V30 7101 H 674.785 3.72892 0.0247827 0
M  V30 7102 N 676.97 0.677563 1.42291 0
M  V30 7103 C 677.88 0.000962654 2.346 0
M  V30 7104 C 678.896 -0.785833 1.55244 0
M  V30 7105 O 680.072 -0.727523 1.87801 0
M  V30 7106 C 677.137 -0.936746 3.33805 0
M  V30 7107 C 676.198 -0.144173 4.29058 0
M  V30 7108 C 675.431 -1.03722 5.23524 0
M  V30 7109 O 675.654 -2.27675 5.22992 0
M  V30 7110 O 674.588 -0.496542 5.99848 0
M  V30 7111 H 678.414 0.761397 2.94001 0
M  V30 7112 H 675.999 0.43781 1.42841 0
M  V30 7113 H 677.881 -1.47497 3.94744 0
M  V30 7114 H 676.556 -1.67698 2.76874 0
M  V30 7115 H 675.463 0.438224 3.71524 0
M  V30 7116 H 676.796 0.55701 4.89038 0
M  V30 7117 N 678.448 -1.51871 0.421078 0
M  V30 7118 C 679.864 -1.59435 0.0725398 0
M  V30 7119 C 680.064 -1.43315 -1.41644 0
M  V30 7120 O 679.12 -1.26614 -2.18461 0
M  V30 7121 C 680.433 -2.9509 0.578132 0
M  V30 7122 C 681.981 -3.08356 0.537149 0
M  V30 7123 C 682.456 -4.4651 1.01945 0
M  V30 7124 N 683.947 -4.52784 0.976758 0
M  V30 7125 C 684.682 -5.57976 1.32099 0
M  V30 7126 N 684.178 -6.70664 1.73727 0
M  V30 7127 N 685.971 -5.48248 1.2402 0
M  V30 7128 H 678.122 -1.60595 1.39007 0
M  V30 7129 H 680.385 -0.756138 0.571803 0
M  V30 7130 H 680.091 -3.12205 1.61929 0
M  V30 7131 H 679.965 -3.772 -0.00578374 0
M  V30 7132 H 682.352 -2.90919 -0.494991 0
M  V30 7133 H 682.433 -2.28125 1.15727 0
M  V30 7134 H 682.077 -4.64692 2.04997 0
M  V30 7135 H 682.007 -5.25256 0.376023 0
M  V30 7136 H 684.498 -3.71898 0.670851 0
M  V30 7137 H 684.811 -7.46932 1.98274 0
M  V30 7138 H 683.156 -6.71914 1.77641 0
M  V30 7139 H 686.347 -4.59095 0.913756 0
M  V30 7140 H 686.52 -6.30119 1.51176 0
M  V30 7141 N 679.926 -0.151884 -1.56866 0
M  V30 7142 C 681.166 0.500695 -1.98173 0
M  V30 7143 C 681.53 1.61715 -1.03499 0
M  V30 7144 O 682.731 2.33093 -1.33869 0
M  V30 7145 C 681.002 0.989333 -3.43434 0
M  V30 7146 S 682.561 1.64583 -4.06765 0
M  V30 7147 H 679.379 0.16173 -0.692361 0
M  V30 7148 H 681.981 -0.244754 -1.93962 0
M  V30 7149 H 680.685 0.166072 -4.10064 0
M  V30 7150 H 680.216 1.76929 -3.51368 0
M  V30 7151 H 682.231 2.93326 -4.00218 0
M  V30 7152 N 681.404 1.57128 0.121893 0
M  V30 7153 C 682.336 1.96773 1.17529 0
M  V30 7154 C 683.349 0.866668 1.37814 0
M  V30 7155 O 684.538 1.14497 1.3694 0
M  V30 7156 C 681.638 2.24832 2.53582 0
M  V30 7157 C 680.811 3.56138 2.53939 0
M  V30 7158 C 679.87 3.72443 3.71716 0
M  V30 7159 O 678.896 4.44584 3.55434 0
M  V30 7160 N 680.098 3.10993 4.90167 0
M  V30 7161 H 682.863 2.87743 0.838086 0
M  V30 7162 H 680.424 1.58881 0.311199 0
M  V30 7163 H 682.416 2.32958 3.30927 0
M  V30 7164 H 680.986 1.40002 2.79496 0
M  V30 7165 H 680.206 3.59226 1.62329 0
M  V30 7166 H 681.494 4.42448 2.51231 0
M  V30 7167 H 680.892 2.52345 5.06299 0
M  V30 7168 H 679.449 3.24644 5.65198 0
M  V30 7169 N 682.882 -0.391992 1.52647 0
M  V30 7170 C 684.13 -1.13507 1.67214 0
M  V30 7171 C 684.451 -1.90575 0.41304 0
M  V30 7172 O 683.721 -1.87348 -0.572498 0
M  V30 7173 H 682.301 -0.422013 0.616372 0
M  V30 7174 H 684.963 -0.44502 1.89751 0
M  V30 7175 H 684.059 -1.83964 2.52118 0
M  V30 7176 N 684.36 -1.4356 -0.65026 0
M  V30 7177 C 685.776 -1.27025 -0.966269 0
M  V30 7178 C 685.976 -0.192117 -2.00582 0
M  V30 7179 O 685.032 0.428459 -2.48838 0
M  V30 7180 C 686.345 -2.63556 -1.44772 0
M  V30 7181 C 687.893 -2.71111 -1.56421 0
M  V30 7182 C 688.368 -4.08067 -2.07956 0
M  V30 7183 N 689.859 -4.10146 -2.15254 0
M  V30 7184 C 690.594 -5.12952 -2.56258 0
M  V30 7185 N 690.09 -6.26129 -2.96537 0
M  V30 7186 N 691.883 -5.00306 -2.56224 0
M  V30 7187 H 684.034 -2.12367 0.0375758 0
M  V30 7188 H 686.297 -0.946894 -0.0457782 0
M  V30 7189 H 686.003 -3.43429 -0.758271 0
M  V30 7190 H 685.877 -2.89152 -2.42221 0
M  V30 7191 H 688.264 -1.91569 -2.24467 0
M  V30 7192 H 688.345 -2.49277 -0.573967 0
M  V30 7193 H 687.989 -4.88077 -1.40511 0
M  V30 7194 H 687.919 -4.27266 -3.07817 0
M  V30 7195 H 690.41 -3.28453 -1.86887 0
M  V30 7196 H 690.723 -7.00403 -3.26582 0
M  V30 7197 H 689.068 -6.29597 -2.94334 0
M  V30 7198 H 692.259 -4.10952 -2.24135 0
M  V30 7199 H 692.432 -5.80553 -2.87857 0
M  V30 7200 N 685.838 0.888903 -1.30139 0
M  V30 7201 C 687.066 1.67358 -1.21651 0
M  V30 7202 C 687.481 1.87499 0.221246 0
M  V30 7203 O 686.838 1.41969 1.14677 0
M  V30 7204 C 686.889 3.05213 -1.93719 0
M  V30 7205 O 686.61 2.85984 -3.31881 0
M  V30 7206 C 688.111 3.9964 -1.9184 0
M  V30 7207 H 685.331 0.522365 -0.42116 0
M  V30 7208 H 687.875 1.11086 -1.71698 0
M  V30 7209 H 686.03 3.5823 -1.4748 0
M  V30 7210 H 686.444 3.73411 -3.68327 0
M  V30 7211 H 687.918 4.93749 -2.46811 0
M  V30 7212 H 688.395 4.29955 -0.896409 0
M  V30 7213 H 689.001 3.52558 -2.37872 0
M  V30 7214 N 687.317 1.12792 1.10072 0
M  V30 7215 C 688.563 0.886857 1.82381 0
M  V30 7216 C 688.896 -0.58576 1.85155 0
M  V30 7217 O 688.171 -1.43317 1.31493 0
M  V30 7218 C 688.454 1.46703 3.28862 0
M  V30 7219 C 688.307 3.00829 3.34398 0
M  V30 7220 C 689.626 1.12971 4.25353 0
M  V30 7221 H 686.745 0.32362 0.662148 0
M  V30 7222 H 689.387 1.39513 1.28982 0
M  V30 7223 H 687.537 1.03476 3.74466 0
M  V30 7224 H 689.209 3.52764 2.97247 0
M  V30 7225 H 687.452 3.36164 2.74183 0
M  V30 7226 H 688.123 3.36519 4.3756 0
M  V30 7227 H 690.599 1.50313 3.88001 0
M  V30 7228 H 689.475 1.56223 5.26199 0
M  V30 7229 H 689.736 0.0424452 4.4208 0
M  V30 7230 N 688.795 -1.27931 0.920396 0
M  V30 7231 C 690.206 -1.76707 0.602616 0
M  V30 7232 C 690.557 -1.75249 -0.882159 0
M  V30 7233 O 689.682 -1.35135 -1.69019 0
M  V30 7234 C 690.277 -3.20884 1.08714 0
M  V30 7235 C 688.836 -3.67356 0.820157 0
M  V30 7236 C 687.983 -2.47525 1.25006 0
M  V30 7237 H 690.934 -1.14301 1.10095 0
M  V30 7238 H 690.955 -3.78045 0.431535 0
M  V30 7239 H 690.467 -3.21913 2.1678 0
M  V30 7240 H 688.568 -3.7178 -0.247012 0
M  V30 7241 H 688.681 -4.57181 1.43257 0
M  V30 7242 H 687.045 -2.45765 0.668698 0
M  V30 7243 H 687.828 -2.51269 2.3392 0
M  V30 7244 N 690.273 -0.685099 -1.4193 0
M  V30 7245 C 691.203 -0.0273506 -2.33484 0
M  V30 7246 C 692.184 0.778366 -1.51246 0
M  V30 7247 O 693.369 0.733449 -1.79817 0
M  V30 7248 C 690.499 0.917272 -3.34968 0
M  V30 7249 C 689.453 0.21941 -4.27437 0
M  V30 7250 C 688.779 1.27768 -5.1921 0
M  V30 7251 C 690.079 -0.907894 -5.14349 0
M  V30 7252 H 691.773 -0.791994 -2.88735 0
M  V30 7253 H 689.319 -0.382308 -1.38832 0
M  V30 7254 H 691.272 1.38657 -3.97935 0
M  V30 7255 H 689.996 1.71346 -2.78043 0
M  V30 7256 H 688.655 -0.229757 -3.65879 0
M  V30 7257 H 688.303 2.06612 -4.58607 0
M  V30 7258 H 688.003 0.815803 -5.81909 0
M  V30 7259 H 689.527 1.7477 -5.85054 0
M  V30 7260 H 690.941 -0.519348 -5.70943 0
M  V30 7261 H 689.338 -1.2962 -5.85934 0
M  V30 7262 H 690.408 -1.75218 -4.52136 0
M  V30 7263 N 691.751 1.51645 -0.429126 0
M  V30 7264 C 692.714 2.26116 0.374726 0
M  V30 7265 C 693.714 1.29242 0.956714 0
M  V30 7266 O 694.904 1.53022 0.832452 0
M  V30 7267 C 692.036 3.04669 1.52937 0
M  V30 7268 H 693.229 2.9861 -0.277818 0
M  V30 7269 H 690.782 1.55236 -0.182097 0
M  V30 7270 H 691.517 2.36571 2.21821 0
M  V30 7271 H 691.302 3.75814 1.11833 0
M  V30 7272 H 692.792 3.61102 2.09751 0
M  V30 7273 N 693.229 0.160201 1.56784 0
M  V30 7274 C 694.475 -0.48831 1.96833 0
M  V30 7275 C 694.808 -1.63641 1.04571 0
M  V30 7276 O 694.083 -1.94289 0.0906481 0
M  V30 7277 C 694.366 -0.981908 3.46454 0
M  V30 7278 C 694.219 0.165607 4.49495 0
M  V30 7279 C 695.538 -1.85931 3.98896 0
M  V30 7280 H 692.657 -0.176027 0.71567 0
M  V30 7281 H 695.299 0.244093 1.88426 0
M  V30 7282 H 693.449 -1.60602 3.5375 0
M  V30 7283 H 695.121 0.802372 4.54268 0
M  V30 7284 H 693.364 0.822789 4.25926 0
M  V30 7285 H 694.035 -0.221699 5.51555 0
M  V30 7286 H 696.511 -1.33327 3.94161 0
M  V30 7287 H 695.387 -2.17373 5.04024 0
M  V30 7288 H 695.648 -2.80106 3.42042 0
M  V30 7289 N 694.707 -1.5719 -0.113559 0
M  V30 7290 C 695.637 -2.03772 -1.14013 0
M  V30 7291 C 696.618 -0.923176 -1.42869 0
M  V30 7292 O 697.803 -1.19325 -1.53216 0
M  V30 7293 C 694.933 -2.44663 -2.4649 0
M  V30 7294 C 693.887 -3.59612 -2.32085 0
M  V30 7295 C 693.213 -3.8642 -3.69573 0
M  V30 7296 C 694.513 -4.91149 -1.7768 0
M  V30 7297 H 696.207 -2.89785 -0.752665 0
M  V30 7298 H 693.753 -1.39412 -0.360609 0
M  V30 7299 H 695.706 -2.75857 -3.18561 0
M  V30 7300 H 694.43 -1.55628 -2.87137 0
M  V30 7301 H 693.089 -3.28636 -1.62461 0
M  V30 7302 H 692.737 -2.94581 -4.07715 0
M  V30 7303 H 692.437 -4.63797 -3.60786 0
M  V30 7304 H 693.961 -4.2007 -4.4314 0
M  V30 7305 H 695.375 -5.20843 -2.39574 0
M  V30 7306 H 693.772 -5.72562 -1.79701 0
M  V30 7307 H 694.842 -4.79301 -0.734776 0
M  V30 7308 N 696.185 0.383891 -1.52853 0
M  V30 7309 C 697.117 1.48889 -1.74255 0
M  V30 7310 C 698.13 1.50405 -0.623063 0
M  V30 7311 O 699.319 1.54215 -0.898887 0
M  V30 7312 C 696.419 2.87721 -1.79081 0
M  V30 7313 C 695.592 3.10111 -3.08464 0
M  V30 7314 C 694.651 4.28954 -3.0477 0
M  V30 7315 O 693.677 4.25012 -3.78621 0
M  V30 7316 N 694.879 5.35411 -2.24311 0
M  V30 7317 H 697.644 1.30915 -2.69595 0
M  V30 7318 H 695.205 0.573454 -1.51404 0
M  V30 7319 H 697.197 3.65333 -1.7411 0
M  V30 7320 H 695.767 2.99029 -0.911052 0
M  V30 7321 H 694.987 2.20319 -3.26884 0
M  V30 7322 H 696.275 3.21928 -3.94005 0
M  V30 7323 H 695.673 5.41471 -1.63787 0
M  V30 7324 H 694.23 6.1167 -2.25175 0
M  V30 7325 N 697.663 1.43903 0.642637 0
M  V30 7326 C 698.593 1.52697 1.76652 0
M  V30 7327 C 699.574 0.380816 1.65782 0
M  V30 7328 O 700.759 0.599432 1.84717 0
M  V30 7329 C 697.889 1.45975 3.15133 0
M  V30 7330 C 696.843 2.58949 3.40778 0
M  V30 7331 C 696.169 2.37279 4.79169 0
M  V30 7332 C 697.469 4.01153 3.34475 0
M  V30 7333 H 699.163 2.46766 1.69549 0
M  V30 7334 H 696.709 1.18767 0.814279 0
M  V30 7335 H 698.662 1.5073 3.93521 0
M  V30 7336 H 697.386 0.484162 3.22991 0
M  V30 7337 H 696.045 2.53564 2.64765 0
M  V30 7338 H 695.693 1.37939 4.83717 0
M  V30 7339 H 695.393 3.13016 4.97287 0
M  V30 7340 H 696.917 2.43834 5.59801 0
M  V30 7341 H 698.331 4.07968 4.02784 0
M  V30 7342 H 696.728 4.77001 3.64129 0
M  V30 7343 H 697.798 4.25539 2.32475 0
M  V30 7344 N 699.141 -0.881989 1.30609 0
M  V30 7345 C 700.557 -1.16576 1.09005 0
M  V30 7346 C 700.757 -2.00961 -0.14727 0
M  V30 7347 O 699.813 -2.38117 -0.840036 0
M  V30 7348 C 701.126 -1.86954 2.35518 0
M  V30 7349 C 702.674 -1.99706 2.41011 0
M  V30 7350 C 703.149 -2.73497 3.67374 0
M  V30 7351 N 704.64 -2.8104 3.68199 0
M  V30 7352 C 705.375 -3.38718 4.62664 0
M  V30 7353 N 704.871 -3.97421 5.67475 0
M  V30 7354 N 706.664 -3.36561 4.50203 0
M  V30 7355 H 698.815 -0.319398 2.09985 0
M  V30 7356 H 701.078 -0.204058 0.925778 0
M  V30 7357 H 700.784 -1.32393 3.2583 0
M  V30 7358 H 700.658 -2.87317 2.44395 0
M  V30 7359 H 703.045 -2.53436 1.51176 0
M  V30 7360 H 703.126 -0.984218 2.36108 0
M  V30 7361 H 702.77 -2.20438 4.57569 0
M  V30 7362 H 702.7 -3.75163 3.6954 0
M  V30 7363 H 705.191 -2.39365 2.92426 0
M  V30 7364 H 705.504 -4.39507 6.35652 0
M  V30 7365 H 703.849 -3.95832 5.71264 0
M  V30 7366 H 707.04 -2.8993 3.67503 0
M  V30 7367 H 707.213 -3.81215 5.24003 0
M  V30 7368 N 700.619 -1.13374 -1.09472 0
M  V30 7369 C 701.865 -0.896516 -1.81908 0
M  V30 7370 C 702.198 0.575933 -1.85463 0
M  V30 7371 O 701.473 1.42618 -1.32251 0
M  V30 7372 C 701.756 -1.48445 -3.28079 0
M  V30 7373 C 701.609 -3.02598 -3.32798 0
M  V30 7374 C 702.928 -1.15226 -4.24748 0
M  V30 7375 H 700.047 -0.327127 -0.660422 0
M  V30 7376 H 702.689 -1.40195 -1.2824 0
M  V30 7377 H 700.839 -1.0546 -3.73912 0
M  V30 7378 H 702.511 -3.54335 -2.95372 0
M  V30 7379 H 700.754 -3.37613 -2.72397 0
M  V30 7380 H 701.425 -3.38835 -4.3577 0
M  V30 7381 H 703.901 -1.52369 -3.87199 0
M  V30 7382 H 702.777 -1.59012 -5.25363 0
M  V30 7383 H 703.038 -0.0658891 -4.42051 0
M  V30 7384 N 702.098 1.27442 -0.927168 0
M  V30 7385 C 703.045 2.26863 -0.424459 0
M  V30 7386 C 704.015 1.5813 0.508346 0
M  V30 7387 O 705.2 1.85946 0.42762 0
M  V30 7388 C 702.34 3.43639 0.31718 0
M  V30 7389 C 701.453 4.27087 -0.649675 0
M  V30 7390 C 700.588 5.31082 0.111753 0
M  V30 7391 C 699.627 6.062 -0.847843 0
M  V30 7392 N 698.764 7.01999 -0.119074 0
M  V30 7393 H 703.604 2.69239 -1.27728 0
M  V30 7394 H 701.141 1.32394 -0.641106 0
M  V30 7395 H 703.099 4.10155 0.763486 0
M  V30 7396 H 701.729 3.02217 1.13424 0
M  V30 7397 H 700.781 3.60491 -1.21451 0
M  V30 7398 H 702.093 4.79242 -1.38307 0
M  V30 7399 H 701.247 6.03544 0.618 0
M  V30 7400 H 699.986 4.7973 0.878114 0
M  V30 7401 H 698.991 5.32577 -1.36534 0
M  V30 7402 H 700.216 6.59642 -1.61398 0
M  V30 7403 H 698.162 6.52977 0.629051 0
M  V30 7404 H 698.079 7.5184 -0.792046 0
M  V30 7405 H 699.347 7.78638 0.366537 0
M  V30 7406 N 703.576 0.692616 1.41565 0
M  V30 7407 C 704.526 0.00231847 2.28 0
M  V30 7408 C 705.51 -0.755793 1.42044 0
M  V30 7409 O 706.702 -0.631772 1.65341 0
M  V30 7410 C 703.831 -0.935468 3.30309 0
M  V30 7411 C 702.917 -0.173761 4.23744 0
M  V30 7412 N 703.308 0.830872 4.98929 0
M  V30 7413 C 701.606 -0.409666 4.44115 0
M  V30 7414 C 702.307 1.28656 5.67294 0
M  V30 7415 N 701.283 0.613053 5.40132 0
M  V30 7416 H 705.085 0.772635 2.83562 0
M  V30 7417 H 702.599 0.523198 1.53741 0
M  V30 7418 H 704.596 -1.44513 3.91052 0
M  V30 7419 H 703.256 -1.70542 2.76307 0
M  V30 7420 H 704.267 1.21101 5.03542 0
M  V30 7421 H 700.944 -1.15773 4.01127 0
M  V30 7422 H 702.334 2.12006 6.37576 0
M  V30 7423 N 705.054 -1.51416 0.437162 0
M  V30 7424 C 706.017 -2.26312 -0.362729 0
M  V30 7425 C 707.017 -1.29748 -0.949847 0
M  V30 7426 O 708.207 -1.53462 -0.824325 0
M  V30 7427 C 705.339 -3.05475 -1.5132 0
M  V30 7428 H 706.532 -2.98459 0.29365 0
M  V30 7429 H 704.085 -1.55137 0.190327 0
M  V30 7430 H 704.82 -2.37744 -2.20563 0
M  V30 7431 H 704.605 -3.76401 -1.09838 0
M  V30 7432 H 706.095 -3.62209 -2.07833 0
M  V30 7433 N 706.532 -0.168513 -1.56696 0
M  V30 7434 C 707.48 0.779791 -2.19139 0
M  V30 7435 C 708.474 1.23957 -1.1546 0
M  V30 7436 O 709.68 1.20555 -1.33666 0
M  V30 7437 H 706.055 0.269739 -0.701958 0
M  V30 7438 H 708.026 0.229156 -2.97519 0
M  V30 7439 C 706.775 2.00003 -2.84419 0
M  V30 7440 H 706.098 1.65527 -3.63924 0
M  V30 7441 H 707.538 2.64251 -3.31583 0
M  V30 7442 C 705.997 2.82187 -1.84044 0
M  V30 7443 O 706.527 3.79247 -1.32418 0
M  V30 7444 N 704.733 2.47145 -1.52864 0
M  V30 7445 H 704.28 1.68277 -1.9504 0
M  V30 7446 H 704.238 3.02422 -0.859569 0
M  V30 7447 N 708.01 1.57248 0.105221 0
M  V30 7448 C 708.92 2.04653 1.14693 0
M  V30 7449 C 709.936 0.969488 1.44489 0
M  V30 7450 O 711.112 1.28196 1.55331 0
M  V30 7451 C 708.177 2.45297 2.45011 0
M  V30 7452 C 707.238 3.67148 2.22489 0
M  V30 7453 C 706.471 4.05844 3.46592 0
M  V30 7454 O 706.694 3.44736 4.54437 0
M  V30 7455 O 705.628 4.98862 3.36779 0
M  V30 7456 H 709.454 2.93663 0.774336 0
M  V30 7457 H 707.039 1.45998 0.31701 0
M  V30 7458 H 708.921 2.72112 3.21766 0
M  V30 7459 H 707.596 1.59429 2.81717 0
M  V30 7460 H 706.503 3.45463 1.43547 0
M  V30 7461 H 707.836 4.53764 1.9068 0
M  V30 7462 N 709.488 -0.375779 1.53054 0
M  V30 7463 C 710.716 -1.14036 1.72637 0
M  V30 7464 C 711.131 -1.83342 0.450687 0
M  V30 7465 O 710.488 -1.7318 -0.575749 0
M  V30 7466 C 710.539 -2.17841 2.88492 0
M  V30 7467 O 710.26 -1.51358 4.11123 0
M  V30 7468 C 711.761 -3.06924 3.19863 0
M  V30 7469 H 708.981 -0.341386 0.577665 0
M  V30 7470 H 711.525 -0.437809 1.99759 0
M  V30 7471 H 709.68 -2.8371 2.63794 0
M  V30 7472 H 710.094 -2.20439 4.75928 0
M  V30 7473 H 711.568 -3.75763 4.04359 0
M  V30 7474 H 712.045 -3.71169 2.34798 0
M  V30 7475 H 712.651 -2.46684 3.46449 0
M  V30 7476 N 710.966 -1.44241 -0.634997 0
M  V30 7477 C 712.191 -1.50516 -1.42687 0
M  V30 7478 C 712.616 -0.129864 -1.87651 0
M  V30 7479 O 711.974 0.880164 -1.58502 0
M  V30 7480 C 712.022 -2.4714 -2.62591 0
M  V30 7481 O 711.126 -1.97025 -3.62291 0
M  V30 7482 H 710.467 -0.50841 -0.427101 0
M  V30 7483 H 712.997 -1.89337 -0.775408 0
M  V30 7484 H 713.007 -2.65048 -3.10183 0
M  V30 7485 H 711.682 -3.47039 -2.29209 0
M  V30 7486 H 710.259 -1.88866 -3.21534 0
M  V30 7487 N 712.444 0.87505 -1.31075 0
M  V30 7488 C 713.374 1.99775 -1.20881 0
M  V30 7489 C 714.355 1.69822 -0.0971612 0
M  V30 7490 O 715.54 1.92158 -0.280895 0
M  V30 7491 C 712.67 3.35163 -0.910118 0
M  V30 7492 C 711.624 3.79406 -1.98078 0
M  V30 7493 C 710.95 5.12197 -1.53488 0
M  V30 7494 C 712.25 3.97061 -3.39323 0
M  V30 7495 H 713.944 2.08562 -2.14808 0
M  V30 7496 H 711.49 1.00207 -1.03415 0
M  V30 7497 H 713.443 4.13237 -0.825423 0
M  V30 7498 H 712.167 3.26536 0.064822 0
M  V30 7499 H 710.826 3.03568 -2.05528 0
M  V30 7500 H 710.474 5.00007 -0.547941 0
M  V30 7501 H 710.174 5.4277 -2.2511 0
M  V30 7502 H 711.698 5.92785 -1.46417 0
M  V30 7503 H 713.112 4.65545 -3.34576 0
M  V30 7504 H 711.509 4.39025 -4.09118 0
M  V30 7505 H 712.579 3.00601 -3.80483 0
M  V30 7506 N 713.922 1.13953 1.08869 0
M  V30 7507 C 715.147 0.928559 1.85452 0
M  V30 7508 C 715.572 -0.517642 1.80837 0
M  V30 7509 O 714.93 -1.36779 1.19001 0
M  V30 7510 C 714.978 1.42814 3.31114 0
M  V30 7511 O 714.082 0.617129 4.07756 0
M  V30 7512 H 713.423 0.33235 0.574839 0
M  V30 7513 H 715.953 1.5156 1.37443 0
M  V30 7514 H 715.963 1.43425 3.8196 0
M  V30 7515 H 714.638 2.48109 3.33788 0
M  V30 7516 H 713.215 0.679365 3.66659 0
M  V30 7517 N 715.4 -1.26948 0.933913 0
M  V30 7518 C 716.649 -1.93378 0.573409 0
M  V30 7519 C 716.962 -1.74148 -0.890614 0
M  V30 7520 O 718.168 -2.34971 -1.36017 0
M  V30 7521 C 716.624 -3.46449 0.974747 0
M  V30 7522 C 716.232 -3.74425 2.45988 0
M  V30 7523 C 717.976 -4.18924 0.685791 0
M  V30 7524 C 715.883 -5.209 2.8003 0
M  V30 7525 H 714.813 -0.723952 0.210736 0
M  V30 7526 H 717.464 -1.44143 1.13557 0
M  V30 7527 H 715.846 -3.94528 0.341181 0
M  V30 7528 H 717.02 -3.37079 3.14188 0
M  V30 7529 H 715.335 -3.15167 2.72138 0
M  V30 7530 H 717.932 -5.26786 0.916546 0
M  V30 7531 H 718.275 -4.14587 -0.377217 0
M  V30 7532 H 718.808 -3.76687 1.27874 0
M  V30 7533 H 715.547 -5.30332 3.85264 0
M  V30 7534 H 715.067 -5.59369 2.16485 0
M  V30 7535 H 716.746 -5.88837 2.68105 0
M  V30 7536 N 716.879 -0.700114 -1.41195 0
M  V30 7537 C 717.812 0.0129614 -2.28196 0
M  V30 7538 C 718.79 0.783367 -1.42486 0
M  V30 7539 O 719.974 0.773238 -1.71911 0
M  V30 7540 C 717.101 1.02575 -3.22794 0
M  V30 7541 C 716.147 0.347977 -4.25078 0
M  V30 7542 S 716.98 -0.912938 -5.27661 0
M  V30 7543 C 718.136 0.0981362 -6.25823 0
M  V30 7544 H 718.369 -0.724927 -2.88326 0
M  V30 7545 H 715.902 -0.490554 -1.464 0
M  V30 7546 H 717.86 1.60491 -3.77826 0
M  V30 7547 H 716.521 1.73624 -2.61751 0
M  V30 7548 H 715.714 1.11305 -4.91556 0
M  V30 7549 H 715.316 -0.15823 -3.73665 0
M  V30 7550 H 717.608 0.949965 -6.70807 0
M  V30 7551 H 718.551 -0.532838 -7.06092 0
M  V30 7552 H 718.959 0.454944 -5.62664 0
M  V30 7553 N 718.357 1.51182 -0.445186 0
M  V30 7554 C 719.603 2.03097 0.111049 0
M  V30 7555 C 719.958 1.32293 1.397 0
M  V30 7556 O 719.251 0.431529 1.86677 0
M  V30 7557 C 719.445 3.55408 0.376797 0
M  V30 7558 C 719.274 4.40969 -0.88185 0
M  V30 7559 C 718.044 4.85006 -1.41766 0
M  V30 7560 C 720.242 4.82876 -1.77017 0
M  V30 7561 N 718.224 5.54804 -2.62803 0
M  V30 7562 C 719.595 5.51821 -2.82654 0
M  V30 7563 C 721.65 4.64855 -1.78365 0
M  V30 7564 C 720.353 6.04655 -3.89595 0
M  V30 7565 C 722.379 5.18612 -2.84246 0
M  V30 7566 C 721.741 5.87509 -3.88603 0
M  V30 7567 H 717.84 0.781999 0.0012696 0
M  V30 7568 H 720.424 1.84976 -0.60761 0
M  V30 7569 H 718.595 3.73528 1.06449 0
M  V30 7570 H 720.327 3.93985 0.925082 0
M  V30 7571 H 717.082 4.6355 -0.970476 0
M  V30 7572 H 717.506 5.94326 -3.24201 0
M  V30 7573 H 722.148 4.11043 -0.990119 0
M  V30 7574 H 719.866 6.57518 -4.69782 0
M  V30 7575 H 723.452 5.06515 -2.86241 0
M  V30 7576 H 722.332 6.28358 -4.69186 0
M  V30 7577 N 719.835 0.176821 1.56605 0
M  V30 7578 C 720.767 -0.782836 2.15417 0
M  V30 7579 C 721.78 -1.18982 1.11117 0
M  V30 7580 O 722.969 -1.12872 1.38283 0
M  V30 7581 C 720.069 -2.06596 2.68647 0
M  V30 7582 C 719.242 -1.82167 3.9766 0
M  V30 7583 C 718.301 -2.94751 4.35899 0
M  V30 7584 O 717.327 -2.65148 5.03672 0
M  V30 7585 N 718.529 -4.2267 3.97907 0
M  V30 7586 H 721.294 -0.280012 2.98389 0
M  V30 7587 H 718.855 -0.00577529 1.61899 0
M  V30 7588 H 720.847 -2.81018 2.91223 0
M  V30 7589 H 719.417 -2.48054 1.90232 0
M  V30 7590 H 718.637 -0.916208 3.83405 0
M  V30 7591 H 719.925 -1.6322 4.81909 0
M  V30 7592 H 719.323 -4.4958 3.43357 0
M  V30 7593 H 717.88 -4.93778 4.25472 0
M  V30 7594 N 721.313 -1.57302 -0.09688 0
M  V30 7595 C 722.541 -1.90202 -0.814295 0
M  V30 7596 C 722.956 -0.770344 -1.72369 0
M  V30 7597 O 722.313 0.257764 -1.8067 0
M  V30 7598 C 722.364 -3.22708 -1.62916 0
M  V30 7599 O 722.085 -4.31522 -0.756343 0
M  V30 7600 C 723.586 -3.69459 -2.44979 0
M  V30 7601 H 720.806 -0.629275 -0.232925 0
M  V30 7602 H 723.35 -2.04364 -0.0746482 0
M  V30 7603 H 721.505 -3.1015 -2.32133 0
M  V30 7604 H 721.919 -5.07604 -1.32054 0
M  V30 7605 H 723.393 -4.64875 -2.9765 0
M  V30 7606 H 723.87 -2.97211 -3.23361 0
M  V30 7607 H 724.476 -3.84879 -1.80964 0
M  V30 7608 N 722.791 0.367657 -1.53252 0
M  V30 7609 C 724.202 0.944563 -1.61043 0
M  V30 7610 C 724.553 1.90325 -0.476546 0
M  V30 7611 O 723.678 2.12721 0.397333 0
M  V30 7612 C 724.273 1.71992 -2.91898 0
M  V30 7613 C 722.832 2.2462 -3.02031 0
M  V30 7614 C 721.979 1.05799 -2.56324 0
M  V30 7615 H 724.93 0.146516 -1.58022 0
M  V30 7616 H 724.951 2.58095 -2.79584 0
M  V30 7617 H 724.463 1.02192 -3.74404 0
M  V30 7618 H 722.564 2.97668 -2.24108 0
M  V30 7619 H 722.677 2.52644 -4.07073 0
M  V30 7620 H 721.041 1.42435 -2.1115 0
M  V30 7621 H 721.824 0.375008 -3.41246 0
M  V30 7622 N 724.269 1.44576 0.627338 0
M  V30 7623 C 725.515 1.47777 1.38888 0
M  V30 7624 C 725.848 0.111406 1.9388 0
M  V30 7625 O 725.123 -0.87149 1.73883 0
M  V30 7626 C 725.406 2.54119 2.55138 0
M  V30 7627 C 725.259 4.00128 2.0547 0
M  V30 7628 C 726.578 2.56929 3.57317 0
M  V30 7629 H 723.697 0.538048 0.50366 0
M  V30 7630 H 726.339 1.76277 0.708978 0
M  V30 7631 H 724.489 2.29948 3.13139 0
M  V30 7632 H 726.161 4.35444 1.5227 0
M  V30 7633 H 724.404 4.11724 1.36623 0
M  V30 7634 H 725.075 4.7019 2.89181 0
M  V30 7635 H 727.551 2.78536 3.09122 0
M  V30 7636 H 726.427 3.33234 4.36173 0
M  V30 7637 H 726.688 1.6127 4.11636 0
M  V30 7638 N 725.747 -0.868086 1.31537 0
M  V30 7639 C 726.71 -1.95703 1.19302 0
M  V30 7640 C 727.71 -1.60355 0.119612 0
M  V30 7641 O 728.9 -1.70247 0.36902 0
M  V30 7642 C 726.032 -3.30599 0.831684 0
M  V30 7643 H 727.225 -2.07982 2.16064 0
M  V30 7644 H 724.778 -1.05661 1.15176 0
M  V30 7645 H 725.513 -3.2402 -0.134694 0
M  V30 7646 H 725.298 -3.57629 1.60761 0
M  V30 7647 H 726.788 -4.10439 0.770026 0
M  V30 7648 N 727.225 -1.14528 -1.08264 0
M  V30 7649 C 728.135 -0.84728 -2.18765 0
M  V30 7650 C 729.151 0.172826 -1.7314 0
M  V30 7651 O 730.327 0.000985336 -2.014 0
M  V30 7652 C 727.392 -0.330633 -3.4512 0
M  V30 7653 C 726.453 -1.41348 -4.05363 0
M  V30 7654 C 725.686 -0.921387 -5.25686 0
M  V30 7655 O 725.909 0.236587 -5.69909 0
M  V30 7656 O 724.843 -1.70101 -5.77364 0
M  V30 7657 H 728.669 -1.7708 -2.46731 0
M  V30 7658 H 726.254 -0.923661 -1.17426 0
M  V30 7659 H 728.136 -0.0485053 -4.21372 0
M  V30 7660 H 726.811 0.565147 -3.18728 0
M  V30 7661 H 725.718 -1.74908 -3.30693 0
M  V30 7662 H 727.051 -2.28383 -4.36007 0
M  V30 7663 N 728.703 1.26451 -0.940633 0
M  V30 7664 C 729.949 1.94401 -0.598303 0
M  V30 7665 C 730.304 1.72449 0.853178 0
M  V30 7666 O 729.597 1.0506 1.60228 0
M  V30 7667 C 729.791 3.46503 -0.875794 0
M  V30 7668 C 729.62 3.83247 -2.3527 0
M  V30 7669 C 728.39 4.06032 -3.00776 0
M  V30 7670 C 730.588 3.91841 -3.33114 0
M  V30 7671 N 728.57 4.29656 -4.38485 0
M  V30 7672 C 729.941 4.19991 -4.56078 0
M  V30 7673 C 731.996 3.74466 -3.28146 0
M  V30 7674 C 730.699 4.32574 -5.74693 0
M  V30 7675 C 732.725 3.88281 -4.46085 0
M  V30 7676 C 732.087 4.16829 -5.67831 0
M  V30 7677 H 728.186 0.734168 -0.269297 0
M  V30 7678 H 730.77 1.52541 -1.20992 0
M  V30 7679 H 728.941 3.87292 -0.293223 0
M  V30 7680 H 730.673 4.01664 -0.494788 0
M  V30 7681 H 727.428 4.01369 -2.51396 0
M  V30 7682 H 727.852 4.45501 -5.09762 0
M  V30 7683 H 732.494 3.51424 -2.35077 0
M  V30 7684 H 730.212 4.54438 -6.68215 0
M  V30 7685 H 733.798 3.76241 -4.43773 0
M  V30 7686 H 732.678 4.27284 -6.5757 0
M  V30 7687 N 730.181 0.707592 1.40822 0
M  V30 7688 C 731.091 0.0507246 2.34545 0
M  V30 7689 C 732.107 -0.752727 1.56876 0
M  V30 7690 O 733.283 -0.687524 1.89302 0
M  V30 7691 C 730.348 -0.865731 3.35717 0
M  V30 7692 C 729.409 -0.0531313 4.29267 0
M  V30 7693 C 728.642 -0.925939 5.25606 0
M  V30 7694 O 728.865 -2.16531 5.27703 0
M  V30 7695 O 727.799 -0.369194 6.00767 0
M  V30 7696 H 731.625 0.823587 2.9232 0
M  V30 7697 H 729.21 0.46801 1.4188 0
M  V30 7698 H 731.092 -1.39091 3.97783 0
M  V30 7699 H 729.767 -1.61788 2.80368 0
M  V30 7700 H 728.674 0.516931 3.70511 0
M  V30 7701 H 730.007 0.660617 4.87747 0
M  V30 7702 N 731.66 -1.50943 0.453197 0
M  V30 7703 C 732.607 -2.28128 -0.350197 0
M  V30 7704 C 733.577 -1.32398 -1.00299 0
M  V30 7705 O 734.762 -1.61319 -1.01887 0
M  V30 7706 C 731.902 -3.13782 -1.43649 0
M  V30 7707 C 731.015 -4.24523 -0.800255 0
M  V30 7708 C 730.15 -4.97462 -1.86293 0
M  V30 7709 C 729.189 -6.00102 -1.20598 0
M  V30 7710 N 728.326 -6.66387 -2.21071 0
M  V30 7711 H 733.166 -2.96337 0.31434 0
M  V30 7712 H 730.703 -1.46151 0.166863 0
M  V30 7713 H 732.661 -3.6178 -2.07776 0
M  V30 7714 H 731.291 -2.47655 -2.07044 0
M  V30 7715 H 730.343 -3.80371 -0.0468651 0
M  V30 7716 H 731.655 -4.98009 -0.280777 0
M  V30 7717 H 730.809 -5.49088 -2.58044 0
M  V30 7718 H 729.548 -4.23642 -2.41617 0
M  V30 7719 H 728.553 -5.47753 -0.474 0
M  V30 7720 H 729.778 -6.75887 -0.659859 0
M  V30 7721 H 727.724 -5.9537 -2.75446 0
M  V30 7722 H 727.641 -7.3569 -1.74058 0
M  V30 7723 H 728.909 -7.22638 -2.92257 0
M  V30 7724 N 733.138 -0.185124 -1.56509 0
M  V30 7725 C 734.368 0.461469 -2.0138 0
M  V30 7726 C 734.776 1.56417 -1.06445 0
M  V30 7727 O 734.119 1.83603 -0.0597515 0
M  V30 7728 C 734.181 1.08731 -3.42663 0
M  V30 7729 C 733.845 0.124581 -4.5683 0
M  V30 7730 C 734.842 -0.662295 -5.15664 0
M  V30 7731 C 732.527 0.0163947 -5.02297 0
M  V30 7732 C 734.521 -1.54442 -6.18406 0
M  V30 7733 C 732.208 -0.869301 -6.04885 0
M  V30 7734 C 733.206 -1.64828 -6.62813 0
M  V30 7735 O 732.894 -2.51915 -7.63409 0
M  V30 7736 H 732.626 0.1212 -0.665046 0
M  V30 7737 H 735.18 -0.288119 -2.03369 0
M  V30 7738 H 733.41 1.8853 -3.37629 0
M  V30 7739 H 735.099 1.63753 -3.71403 0
M  V30 7740 H 735.865 -0.588963 -4.81411 0
M  V30 7741 H 731.744 0.61253 -4.56913 0
M  V30 7742 H 735.288 -2.15289 -6.63548 0
M  V30 7743 H 731.185 -0.943786 -6.38563 0
M  V30 7744 H 731.953 -2.45584 -7.80789 0
M  V30 7745 N 734.616 1.57351 0.0885366 0
M  V30 7746 C 735.865 1.85604 0.789556 0
M  V30 7747 C 736.178 0.775352 1.79576 0
M  V30 7748 O 737.384 0.945206 2.54515 0
M  V30 7749 C 735.84 3.29175 1.45506 0
M  V30 7750 C 735.448 4.45331 0.488278 0
M  V30 7751 C 737.192 3.66646 2.13942 0
M  V30 7752 C 735.099 5.79937 1.15874 0
M  V30 7753 H 734.029 0.692346 0.298619 0
M  V30 7754 H 736.68 1.83451 0.0425821 0
M  V30 7755 H 735.062 3.25889 2.24972 0
M  V30 7756 H 736.236 4.59977 -0.275359 0
M  V30 7757 H 734.551 4.16301 -0.0907363 0
M  V30 7758 H 737.148 4.64498 2.6485 0
M  V30 7759 H 737.491 2.956 2.93132 0
M  V30 7760 H 738.024 3.71848 1.41328 0
M  V30 7761 H 734.763 6.54232 0.407508 0
M  V30 7762 H 734.283 5.69123 1.89364 0
M  V30 7763 H 735.962 6.24718 1.68336 0
M  V30 7764 N 736.094 -0.359525 1.53444 0
M  V30 7765 C 737.343 -1.09886 1.69139 0
M  V30 7766 C 737.656 -1.90285 0.452863 0
M  V30 7767 O 738.862 -2.67033 0.490459 0
M  V30 7768 C 737.318 -2.0028 2.99025 0
M  V30 7769 C 736.926 -1.25164 4.30161 0
M  V30 7770 C 738.67 -2.74168 3.24086 0
M  V30 7771 C 736.577 -2.14494 5.51132 0
M  V30 7772 H 735.507 -0.413936 0.630217 0
M  V30 7773 H 738.158 -0.359434 1.79945 0
M  V30 7774 H 736.54 -2.77978 2.82036 0
M  V30 7775 H 737.714 -0.524867 4.57801 0
M  V30 7776 H 736.029 -0.631116 4.11589 0
M  V30 7777 H 738.626 -3.41243 4.11652 0
M  V30 7778 H 738.969 -3.39868 2.40407 0
M  V30 7779 H 739.502 -2.0355 3.41778 0
M  V30 7780 H 736.241 -1.53362 6.37307 0
M  V30 7781 H 735.761 -2.85004 5.27762 0
M  V30 7782 H 737.44 -2.73914 5.86157 0
M  V30 7783 N 737.572 -1.44907 -0.619662 0
M  V30 7784 C 738.797 -1.52021 -1.41083 0
M  V30 7785 C 739.222 -0.14976 -1.87503 0
M  V30 7786 O 738.58 0.863303 -1.59426 0
M  V30 7787 C 738.628 -2.49911 -2.59955 0
M  V30 7788 O 737.732 -2.00857 -3.60181 0
M  V30 7789 H 737.073 -0.512912 -0.421684 0
M  V30 7790 H 739.603 -1.90149 -0.755282 0
M  V30 7791 H 739.613 -2.68323 -3.07354 0
M  V30 7792 H 738.288 -3.4945 -2.25516 0
M  V30 7793 H 736.865 -1.92265 -3.19513 0
M  V30 7794 N 739.05 0.861098 -1.31996 0
M  V30 7795 C 739.98 1.98482 -1.22993 0
M  V30 7796 C 740.961 1.6971 -0.115168 0
M  V30 7797 O 742.146 1.91849 -0.30126 0
M  V30 7798 C 739.276 3.34179 -0.945615 0
M  V30 7799 C 738.23 3.77284 -2.02091 0
M  V30 7800 C 737.556 5.1054 -1.58912 0
M  V30 7801 C 738.856 3.93439 -3.43515 0
M  V30 7802 H 740.55 2.06271 -2.17008 0
M  V30 7803 H 738.096 0.991043 -1.04472 0
M  V30 7804 H 740.049 4.12338 -0.869206 0
M  V30 7805 H 738.773 3.26586 0.0301849 0
M  V30 7806 H 737.432 3.01371 -2.08737 0
M  V30 7807 H 737.08 4.99397 -0.600942 0
M  V30 7808 H 736.78 5.40352 -2.30854 0
M  V30 7809 H 738.304 5.91199 -1.52696 0
M  V30 7810 H 739.718 4.6197 -3.39495 0
M  V30 7811 H 738.115 4.34661 -4.13751 0
M  V30 7812 H 739.185 2.96548 -3.8365 0
M  V30 7813 N 740.528 1.15101 1.07655 0
M  V30 7814 C 741.491 0.847625 2.12951 0
M  V30 7815 C 742.491 -0.151227 1.60087 0
M  V30 7816 O 743.681 0.0780399 1.74025 0
M  V30 7817 C 740.813 0.265 3.39868 0
M  V30 7818 H 742.006 1.7809 2.41296 0
M  V30 7819 H 739.559 0.958072 1.23494 0
M  V30 7820 H 740.294 -0.676625 3.17163 0
M  V30 7821 H 740.079 0.984554 3.79538 0
M  V30 7822 H 741.569 0.0702121 4.17541 0
M  V30 7823 N 742.006 -1.2595 0.947325 0
M  V30 7824 C 743.283 -1.88676 0.515824 0
M  V30 7825 C 743.663 -1.85547 -1.00675 0
M  V30 7826 O 743.011 -1.31399 -1.8694 0
M  V30 7827 C 743.221 -3.31734 1.08415 0
M  V30 7828 C 744.569 -4.08545 1.15654 0
M  V30 7829 O 745.593 -3.40826 1.03517 0
M  V30 7830 O 744.452 -5.29663 1.34608 0
M  V30 7831 H 741.546 -0.809537 0.169055 0
M  V30 7832 H 744.092 -1.34075 1.04029 0
M  V30 7833 H 742.864 -3.28404 2.1276 0
M  V30 7834 H 742.487 -3.93882 0.542499 0
M  V30 7835 N 743.484 -0.715051 -1.40445 0
M  V30 7836 C 744.9 -0.388555 -1.54798 0
M  V30 7837 C 745.1 1.10271 -1.68649 0
M  V30 7838 O 744.156 1.88875 -1.67578 0
M  V30 7839 C 745.469 -1.15414 -2.77669 0
M  V30 7840 C 747.017 -1.14039 -2.91486 0
M  V30 7841 C 747.492 -1.88812 -4.1727 0
M  V30 7842 N 748.983 -1.85878 -4.24268 0
M  V30 7843 C 749.718 -2.40558 -5.20499 0
M  V30 7844 N 749.214 -3.03791 -6.22642 0
M  V30 7845 N 751.007 -2.30703 -5.12574 0
M  V30 7846 H 743.158 -1.68201 -1.297 0
M  V30 7847 H 745.421 -0.710915 -0.627139 0
M  V30 7848 H 745.127 -2.20853 -2.7371 0
M  V30 7849 H 745.001 -0.745412 -3.69761 0
M  V30 7850 H 747.388 -0.0941996 -2.9495 0
M  V30 7851 H 747.469 -1.58834 -2.00513 0
M  V30 7852 H 747.113 -2.93422 -4.14568 0
M  V30 7853 H 747.043 -1.41438 -5.0725 0
M  V30 7854 H 749.534 -1.39794 -3.51093 0
M  V30 7855 H 749.847 -3.43032 -6.92495 0
M  V30 7856 H 748.192 -3.07875 -6.23087 0
M  V30 7857 H 751.383 -1.80961 -4.31707 0
M  V30 7858 H 751.556 -2.73618 -5.87398 0
M  V30 7859 N 744.962 1.50701 -0.461195 0
M  V30 7860 C 746.239 1.94958 0.158296 0
M  V30 7861 C 746.619 1.40111 1.57899 0
M  V30 7862 O 745.967 0.597976 2.20537 0
M  V30 7863 C 746.177 3.48821 0.11172 0
M  V30 7864 C 747.525 4.23499 0.30552 0
M  V30 7865 O 748.549 3.557 0.188758 0
M  V30 7866 O 747.408 5.43823 0.540244 0
M  V30 7867 H 744.502 0.818674 0.117054 0
M  V30 7868 H 747.048 1.61508 -0.520888 0
M  V30 7869 H 745.82 3.81263 -0.880577 0
M  V30 7870 H 745.443 3.88781 0.832791 0
M  V30 7871 N 746.441 0.193421 1.56409 0
M  V30 7872 C 747.371 -0.723334 2.22014 0
M  V30 7873 C 748.352 -1.22254 1.1827 0
M  V30 7874 O 749.537 -1.27168 1.46771 0
M  V30 7875 C 746.667 -1.94366 2.87818 0
M  V30 7876 C 745.621 -1.57943 3.97791 0
M  V30 7877 C 744.947 -2.87623 4.50752 0
M  V30 7878 C 746.247 -0.790639 5.16281 0
M  V30 7879 H 747.941 -0.176426 2.9888 0
M  V30 7880 H 745.487 -0.0834166 1.43758 0
M  V30 7881 H 747.44 -2.5902 3.32396 0
M  V30 7882 H 746.164 -2.51507 2.08355 0
M  V30 7883 H 744.823 -0.956482 3.53903 0
M  V30 7884 H 744.471 -3.4285 3.68053 0
M  V30 7885 H 744.171 -2.63998 5.24956 0
M  V30 7886 H 745.695 -3.53268 4.9803 0
M  V30 7887 H 747.109 -1.34024 5.57414 0
M  V30 7888 H 745.506 -0.65258 5.96541 0
M  V30 7889 H 746.576 0.208633 4.84451 0
M  V30 7890 N 747.919 -1.57396 -0.0801906 0
M  V30 7891 C 748.849 -2.06145 -1.09665 0
M  V30 7892 C 749.83 -0.953273 -1.40878 0
M  V30 7893 O 751.015 -1.22548 -1.50651 0
M  V30 7894 C 748.145 -2.49836 -2.41245 0
M  V30 7895 C 747.099 -3.64454 -2.24405 0
M  V30 7896 C 746.425 -3.94172 -3.61293 0
M  V30 7897 C 747.725 -4.94807 -1.67223 0
M  V30 7898 H 749.419 -2.91316 -0.691028 0
M  V30 7899 H 746.965 -1.40145 -0.330957 0
M  V30 7900 H 748.918 -2.82552 -3.12638 0
M  V30 7901 H 747.642 -1.61683 -2.83771 0
M  V30 7902 H 746.301 -3.32008 -1.55454 0
M  V30 7903 H 745.949 -3.03163 -4.01374 0
M  V30 7904 H 745.649 -4.71345 -3.50867 0
M  V30 7905 H 747.173 -4.29376 -4.3413 0
M  V30 7906 H 748.587 -5.25807 -2.28472 0
M  V30 7907 H 746.984 -5.76245 -1.67515 0
M  V30 7908 H 748.054 -4.80751 -0.632944 0
M  V30 7909 N 749.397 0.351382 -1.53633 0
M  V30 7910 C 750.327 1.43688 -1.84055 0
M  V30 7911 C 751.308 1.55251 -0.695073 0
M  V30 7912 O 752.493 1.69587 -0.946257 0
M  V30 7913 C 749.623 2.80843 -2.04315 0
M  V30 7914 C 748.577 2.84094 -3.20117 0
M  V30 7915 C 747.903 4.2406 -3.25696 0
M  V30 7916 C 749.203 2.50334 -4.58399 0
M  V30 7917 H 750.897 1.18478 -2.74961 0
M  V30 7918 H 748.443 0.568509 -1.32303 0
M  V30 7919 H 750.396 3.56821 -2.2418 0
M  V30 7920 H 749.12 3.07471 -1.10132 0
M  V30 7921 H 747.779 2.10568 -3.00094 0
M  V30 7922 H 747.427 4.47785 -2.29123 0
M  V30 7923 H 747.127 4.27147 -4.03509 0
M  V30 7924 H 748.651 5.0189 -3.47762 0
M  V30 7925 H 750.065 3.16025 -4.78332 0
M  V30 7926 H 748.462 2.64717 -5.38558 0
M  V30 7927 H 749.532 1.45542 -4.62543 0
M  V30 7928 N 750.875 1.45233 0.611969 0
M  V30 7929 C 752.124 1.48296 1.36716 0
M  V30 7930 C 752.437 0.12706 1.95187 0
M  V30 7931 O 753.643 0.0353066 2.71477 0
M  V30 7932 C 752.099 2.61168 2.47627 0
M  V30 7933 C 751.707 4.03051 1.95587 0
M  V30 7934 C 753.451 2.73472 3.24674 0
M  V30 7935 C 751.358 5.07312 3.03954 0
M  V30 7936 H 750.288 0.5518 0.513841 0
M  V30 7937 H 752.939 1.7136 0.656359 0
M  V30 7938 H 751.321 2.31379 3.21372 0
M  V30 7939 H 752.495 4.42497 1.2858 0
M  V30 7940 H 750.81 3.95158 1.31298 0
M  V30 7941 H 753.407 3.48537 4.05494 0
M  V30 7942 H 753.75 1.79953 3.75397 0
M  V30 7943 H 754.283 3.02765 2.58028 0
M  V30 7944 H 751.022 6.02525 2.58154 0
M  V30 7945 H 750.542 4.7244 3.69541 0
M  V30 7946 H 752.221 5.31867 3.6841 0
M  V30 7947 N 752.353 -0.854086 1.3245 0
M  V30 7948 C 753.303 -1.9508 1.18016 0
M  V30 7949 C 754.287 -1.60665 0.0869417 0
M  V30 7950 O 755.479 -1.74201 0.313505 0
M  V30 7951 C 752.608 -3.3113 0.905961 0
M  V30 7952 C 751.694 -3.71763 2.04091 0
M  V30 7953 N 752.085 -3.84218 3.28953 0
M  V30 7954 C 750.383 -4.01393 1.94421 0
M  V30 7955 C 751.084 -4.192 4.03294 0
M  V30 7956 N 750.06 -4.30749 3.31596 0
M  V30 7957 H 753.862 -2.02843 2.12678 0
M  V30 7958 H 751.376 -1.04588 1.24238 0
M  V30 7959 H 753.373 -4.09471 0.783508 0
M  V30 7960 H 752.033 -3.24684 -0.0322715 0
M  V30 7961 H 753.044 -3.68524 3.63883 0
M  V30 7962 H 749.721 -4.03246 1.08162 0
M  V30 7963 H 751.111 -4.36301 5.1097 0
M  V30 7964 N 753.831 -1.1567 -1.07043 0
M  V30 7965 C 754.778 -0.856336 -2.14326 0
M  V30 7966 C 755.748 0.192051 -1.64986 0
M  V30 7967 O 756.933 0.0589148 -1.90709 0
M  V30 7968 C 754.073 -0.355227 -3.43267 0
M  V30 7969 C 753.186 -1.46555 -4.06381 0
M  V30 7970 C 752.321 -0.920245 -5.23168 0
M  V30 7971 C 751.36 -2.00729 -5.78251 0
M  V30 7972 N 750.497 -1.47813 -6.86364 0
M  V30 7973 H 755.337 -1.77514 -2.39359 0
M  V30 7974 H 752.874 -0.885676 -1.17449 0
M  V30 7975 H 754.832 -0.0463804 -4.17174 0
M  V30 7976 H 753.462 0.526649 -3.18475 0
M  V30 7977 H 752.514 -1.89052 -3.30096 0
M  V30 7978 H 753.826 -2.28616 -4.43324 0
M  V30 7979 H 752.98 -0.564127 -6.04072 0
M  V30 7980 H 751.719 -0.0688477 -4.87651 0
M  V30 7981 H 750.724 -2.3722 -4.95991 0
M  V30 7982 H 751.949 -2.86252 -6.15822 0
M  V30 7983 H 749.895 -0.649145 -6.5278 0
M  V30 7984 H 749.812 -2.23498 -7.22208 0
M  V30 7985 H 751.08 -1.15036 -7.70965 0
M  V30 7986 N 755.309 1.25446 -0.953992 0
M  V30 7987 C 756.534 1.97755 -0.625129 0
M  V30 7988 C 756.959 1.70437 0.795787 0
M  V30 7989 O 756.317 0.95992 1.53803 0
M  V30 7990 C 756.365 3.49463 -0.889251 0
M  V30 7991 O 755.469 4.12387 0.0322757 0
M  V30 7992 H 754.81 0.61998 -0.237742 0
M  V30 7993 H 757.34 1.59582 -1.28041 0
M  V30 7994 H 757.35 3.99772 -0.815263 0
M  V30 7995 H 756.025 3.68676 -1.92487 0
M  V30 7996 H 754.602 3.72782 -0.0938625 0
M  V30 7997 N 756.787 0.722489 1.40064 0
M  V30 7998 C 757.717 0.0892452 2.33329 0
M  V30 7999 C 758.698 -0.737992 1.53257 0
M  V30 8000 O 759.883 -0.685516 1.81698 0
M  V30 8001 C 757.013 -0.828139 3.37282 0
M  V30 8002 C 755.967 -0.106005 4.27869 0
M  V30 8003 C 755.293 -1.13957 5.22415 0
M  V30 8004 C 756.593 1.04395 5.11761 0
M  V30 8005 H 758.287 0.868269 2.86534 0
M  V30 8006 H 755.833 0.418982 1.3777 0
M  V30 8007 H 757.786 -1.28058 4.01471 0
M  V30 8008 H 756.51 -1.63914 2.82489 0
M  V30 8009 H 755.169 0.326683 3.65142 0
M  V30 8010 H 754.817 -1.9438 4.63924 0
M  V30 8011 H 754.517 -0.661233 5.83868 0
M  V30 8012 H 756.041 -1.59197 5.89482 0
M  V30 8013 H 757.455 0.670541 5.69365 0
M  V30 8014 H 755.852 1.4511 5.82291 0
M  V30 8015 H 756.922 1.87144 4.47331 0
M  V30 8016 N 758.265 -1.50454 0.469181 0
M  V30 8017 C 759.49 -2.0722 -0.0864892 0
M  V30 8018 C 759.915 -1.33098 -1.32916 0
M  V30 8019 O 759.273 -0.378084 -1.77314 0
M  V30 8020 C 759.321 -3.58845 -0.355384 0
M  V30 8021 O 758.425 -3.86583 -1.43622 0
M  V30 8022 H 757.766 -0.663889 0.0121414 0
M  V30 8023 H 760.296 -1.93674 0.659674 0
M  V30 8024 H 760.306 -4.03617 -0.596447 0
M  V30 8025 H 758.981 -4.12211 0.552698 0
M  V30 8026 H 757.558 -3.5365 -1.18262 0
M  V30 8027 N 759.743 -0.201713 -1.56304 0
M  V30 8028 C 760.69 0.716499 -2.19397 0
M  V30 8029 C 761.66 1.20494 -1.14326 0
M  V30 8030 O 762.845 1.26763 -1.42604 0
M  V30 8031 C 759.985 1.92762 -2.86246 0
M  V30 8032 C 759.098 1.47993 -4.0586 0
M  V30 8033 C 758.233 2.64706 -4.60547 0
M  V30 8034 C 757.272 2.16576 -5.72504 0
M  V30 8035 N 756.409 3.26491 -6.21569 0
M  V30 8036 H 761.249 0.171724 -2.97505 0
M  V30 8037 H 758.786 0.073016 -1.46919 0
M  V30 8038 H 760.744 2.6384 -3.23178 0
M  V30 8039 H 759.374 2.44559 -2.10691 0
M  V30 8040 H 758.426 0.66477 -3.74546 0
M  V30 8041 H 759.738 1.08686 -4.86815 0
M  V30 8042 H 758.892 3.43898 -4.99819 0
M  V30 8043 H 757.631 3.0729 -3.78713 0
M  V30 8044 H 756.636 1.3584 -5.32755 0
M  V30 8045 H 757.861 1.75015 -6.56161 0
M  V30 8046 H 755.807 3.68594 -5.42655 0
M  V30 8047 H 755.724 2.91374 -6.97594 0
M  V30 8048 H 756.992 4.05877 -6.65495 0
M  V30 8049 N 761.222 1.57436 0.0718424 0
M  V30 8050 C 762.499 1.78312 0.804006 0
M  V30 8051 C 762.879 0.789273 1.9579 0
M  V30 8052 O 762.227 -0.177605 2.27809 0
M  V30 8053 C 762.437 3.24798 1.277 0
M  V30 8054 C 763.785 3.88627 1.71039 0
M  V30 8055 O 764.809 3.28689 1.37266 0
M  V30 8056 O 763.668 4.94073 2.33567 0
M  V30 8057 H 760.762 0.73178 0.385262 0
M  V30 8058 H 763.308 1.69621 0.0519219 0
M  V30 8059 H 762.08 3.88688 0.45134 0
M  V30 8060 H 761.703 3.38213 2.0904 0
M  V30 8061 N 762.7 -0.34323 1.53817 0
M  V30 8062 C 763.663 -1.40444 1.8113 0
M  V30 8063 C 764.663 -1.45604 0.682366 0
M  V30 8064 O 765.853 -1.45974 0.950649 0
M  V30 8065 C 762.985 -2.79369 1.95361 0
M  V30 8066 H 764.178 -1.17489 2.75928 0
M  V30 8067 H 761.731 -0.577636 1.45234 0
M  V30 8068 H 762.466 -3.07607 1.02707 0
M  V30 8069 H 762.251 -2.7702 2.77493 0
M  V30 8070 H 763.741 -3.56178 2.18008 0
M  V30 8071 N 764.178 -1.45556 -0.604258 0
M  V30 8072 C 765.125 -1.54482 -1.71476 0
M  V30 8073 C 766.095 -0.390479 -1.61445 0
M  V30 8074 O 767.28 -0.604371 -1.80975 0
M  V30 8075 C 764.42 -1.52064 -3.09791 0
M  V30 8076 C 763.533 -2.78073 -3.30604 0
M  V30 8077 C 762.668 -2.67304 -4.59044 0
M  V30 8078 C 761.707 -3.88352 -4.73127 0
M  V30 8079 N 760.844 -3.76098 -5.9287 0
M  V30 8080 H 765.684 -2.49349 -1.63184 0
M  V30 8081 H 763.221 -1.23725 -0.795641 0
M  V30 8082 H 765.179 -1.48649 -3.89819 0
M  V30 8083 H 763.809 -0.607442 -3.17033 0
M  V30 8084 H 762.861 -2.91561 -2.44329 0
M  V30 8085 H 764.173 -3.67847 -3.36883 0
M  V30 8086 H 763.327 -2.61875 -5.47272 0
M  V30 8087 H 762.066 -1.75135 -4.55169 0
M  V30 8088 H 761.071 -3.94137 -3.83322 0
M  V30 8089 H 762.296 -4.81591 -4.78797 0
M  V30 8090 H 760.242 -2.867 -5.90033 0
M  V30 8091 H 760.159 -4.59509 -6.00323 0
M  V30 8092 H 761.427 -3.74607 -6.83586 0
M  V30 8093 N 765.656 0.84705 -1.32902 0
M  V30 8094 C 766.566 1.98845 -1.2449 0
M  V30 8095 C 767.582 1.7329 -0.15702 0
M  V30 8096 O 768.758 1.978 -0.379104 0
M  V30 8097 C 765.823 3.32679 -0.975985 0
M  V30 8098 C 764.884 3.71405 -2.15306 0
M  V30 8099 C 764.117 4.98853 -1.89688 0
M  V30 8100 O 764.34 5.64134 -0.843168 0
M  V30 8101 O 763.274 5.34889 -2.76002 0
M  V30 8102 H 767.1 2.0888 -2.2046 0
M  V30 8103 H 764.685 0.978852 -1.12867 0
M  V30 8104 H 766.567 4.12885 -0.842826 0
M  V30 8105 H 765.242 3.23667 -0.0464954 0
M  V30 8106 H 764.149 2.91743 -2.34172 0
M  V30 8107 H 765.482 3.85073 -3.06561 0
M  V30 8108 N 767.134 1.16236 1.06428 0
M  V30 8109 C 768.381 0.943034 1.79201 0
M  V30 8110 C 768.709 -0.529243 1.87161 0
M  V30 8111 O 767.964 -1.40874 1.35842 0
M  V30 8112 C 768.263 1.51396 3.2375 0
M  V30 8113 C 767.929 3.00833 3.35873 0
M  V30 8114 C 766.591 3.41626 3.38888 0
M  V30 8115 C 768.943 3.96825 3.37904 0
M  V30 8116 C 766.271 4.77033 3.4155 0
M  V30 8117 C 768.623 5.32116 3.42104 0
M  V30 8118 C 767.287 5.72392 3.43401 0
M  V30 8119 H 766.557 0.34508 0.655744 0
M  V30 8120 H 769.204 1.44929 1.25171 0
M  V30 8121 H 767.509 0.929114 3.80624 0
M  V30 8122 H 769.206 1.31996 3.78653 0
M  V30 8123 H 765.796 2.68306 3.3423 0
M  V30 8124 H 769.98 3.66376 3.34787 0
M  V30 8125 H 765.236 5.07569 3.40858 0
M  V30 8126 H 769.41 6.06286 3.42623 0
M  V30 8127 H 767.037 6.77296 3.45216 0
M  V30 8128 N 768.612 -1.24939 0.960631 0
M  V30 8129 C 769.84 -1.96881 0.636045 0
M  V30 8130 C 770.255 -1.71334 -0.793093 0
M  V30 8131 O 769.612 -0.992917 -1.53125 0
M  V30 8132 C 769.663 -3.50309 0.892533 0
M  V30 8133 O 769.384 -3.74977 2.26548 0
M  V30 8134 C 770.885 -4.39474 0.581159 0
M  V30 8135 H 768.105 -0.627399 0.237931 0
M  V30 8136 H 770.649 -1.58952 1.28664 0
M  V30 8137 H 768.804 -3.86326 0.288257 0
M  V30 8138 H 769.218 -4.69401 2.34014 0
M  V30 8139 H 770.692 -5.46008 0.811125 0
M  V30 8140 H 771.169 -4.3652 -0.48443 0
M  V30 8141 H 771.775 -4.09032 1.16502 0
M  V30 8142 N 770.09 -0.729906 -1.39679 0
M  V30 8143 C 771.337 -0.275622 -2.00615 0
M  V30 8144 C 771.665 1.13559 -1.57907 0
M  V30 8145 O 770.92 1.78745 -0.796789 0
M  V30 8146 C 771.219 -0.319564 -3.55968 0
M  V30 8147 C 770.885 -1.68308 -4.1831 0
M  V30 8148 C 769.547 -2.05629 -4.35052 0
M  V30 8149 C 771.899 -2.57857 -4.52945 0
M  V30 8150 C 769.227 -3.32018 -4.83716 0
M  V30 8151 C 771.579 -3.83613 -5.03015 0
M  V30 8152 C 770.243 -4.21033 -5.17965 0
M  V30 8153 H 769.513 -0.100857 -0.734104 0
M  V30 8154 H 772.16 -0.93575 -1.67081 0
M  V30 8155 H 770.465 0.42414 -3.89497 0
M  V30 8156 H 772.162 0.0499905 -4.00969 0
M  V30 8157 H 768.752 -1.3829 -4.05677 0
M  V30 8158 H 772.936 -2.30295 -4.39634 0
M  V30 8159 H 768.192 -3.6096 -4.93475 0
M  V30 8160 H 772.366 -4.53162 -5.28788 0
M  V30 8161 H 769.993 -5.19034 -5.55435 0
M  V30 8162 N 771.568 1.50203 -0.477153 0
M  V30 8163 C 772.796 2.0677 0.0732489 0
M  V30 8164 C 773.211 1.34033 1.32968 0
M  V30 8165 O 772.568 0.411412 1.77802 0
M  V30 8166 C 772.619 3.59751 0.35518 0
M  V30 8167 O 772.34 4.29747 -0.851425 0
M  V30 8168 C 773.841 4.3296 0.951877 0
M  V30 8169 H 771.061 0.670929 -0.00978923 0
M  V30 8170 H 773.605 1.93293 -0.667676 0
M  V30 8171 H 771.76 3.7301 1.04605 0
M  V30 8172 H 772.174 5.2106 -0.599708 0
M  V30 8173 H 773.648 5.40952 1.09888 0
M  V30 8174 H 774.125 3.93856 1.94356 0
M  V30 8175 H 774.731 4.24246 0.299208 0
M  V30 8176 N 773.046 0.209999 1.56195 0
M  V30 8177 C 774.323 -0.473214 1.89789 0
M  V30 8178 C 774.703 -1.78581 1.1257 0
M  V30 8179 O 774.051 -2.27325 0.231398 0
M  V30 8180 C 774.261 -0.677458 3.42362 0
M  V30 8181 C 775.609 -0.990114 4.12895 0
M  V30 8182 O 776.633 -0.764655 3.47896 0
M  V30 8183 O 775.492 -1.41737 5.278 0
M  V30 8184 H 772.586 -0.248622 0.788743 0
M  V30 8185 H 775.132 0.251324 1.67829 0
M  V30 8186 H 773.904 0.248878 3.90508 0
M  V30 8187 H 773.527 -1.45391 3.70064 0
M  V30 8188 N 774.524 -1.57472 -0.0634922 0
M  V30 8189 C 775.454 -2.07297 -1.07473 0
M  V30 8190 C 776.435 -0.968162 -1.39859 0
M  V30 8191 O 777.62 -1.24139 -1.49343 0
M  V30 8192 C 774.75 -2.52381 -2.38581 0
M  V30 8193 C 773.704 -3.66813 -2.20526 0
M  V30 8194 C 773.03 -3.97982 -3.57092 0
M  V30 8195 C 774.33 -4.96553 -1.61965 0
M  V30 8196 H 776.024 -2.92033 -0.660092 0
M  V30 8197 H 773.57 -1.40488 -0.316074 0
M  V30 8198 H 775.523 -2.85852 -3.09624 0
M  V30 8199 H 774.247 -1.64684 -2.8204 0
M  V30 8200 H 772.906 -3.33639 -1.51924 0
M  V30 8201 H 772.554 -3.07403 -3.98136 0
M  V30 8202 H 772.254 -4.7504 -3.45848 0
M  V30 8203 H 773.778 -4.33956 -4.29552 0
M  V30 8204 H 775.192 -5.28201 -2.22883 0
M  V30 8205 H 773.589 -5.7799 -1.61394 0
M  V30 8206 H 774.659 -4.81396 -0.581918 0
M  V30 8207 N 776.003 0.335068 -1.53997 0
M  V30 8208 C 777.249 1.07594 -1.71905 0
M  V30 8209 C 777.582 1.88039 -0.485264 0
M  V30 8210 O 776.857 1.87482 0.517752 0
M  V30 8211 C 777.14 2.01016 -2.98772 0
M  V30 8212 C 776.993 1.23977 -4.32377 0
M  V30 8213 C 778.312 3.0071 -3.21343 0
M  V30 8214 H 775.431 0.38976 -0.625505 0
M  V30 8215 H 778.073 0.353684 -1.86679 0
M  V30 8216 H 776.223 2.62603 -2.86307 0
M  V30 8217 H 777.895 0.649383 -4.56706 0
M  V30 8218 H 776.138 0.541878 -4.30402 0
M  V30 8219 H 776.809 1.92512 -5.17342 0
M  V30 8220 H 779.285 2.4924 -3.33194 0
M  V30 8221 H 778.161 3.63272 -4.11491 0
M  V30 8222 H 778.422 3.72549 -2.38033 0
M  V30 8223 N 777.481 1.45874 0.596531 0
M  V30 8224 C 778.892 1.44798 1.17857 0
M  V30 8225 C 779.243 0.181443 1.95359 0
M  V30 8226 O 778.368 -0.716336 2.042 0
M  V30 8227 C 778.963 2.62333 2.14398 0
M  V30 8228 C 777.522 2.64342 2.67955 0
M  V30 8229 C 776.669 2.37244 1.43564 0
M  V30 8230 H 779.62 1.53954 0.385222 0
M  V30 8231 H 779.641 2.37063 2.97626 0
M  V30 8232 H 779.153 3.54499 1.57963 0
M  V30 8233 H 777.254 1.76213 3.28298 0
M  V30 8234 H 777.367 3.63897 3.11634 0
M  V30 8235 H 775.731 1.87022 1.72901 0
M  V30 8236 H 776.514 3.31568 0.889805 0
M  V30 8237 N 778.959 -0.83999 1.33349 0
M  V30 8238 C 780.207 -1.59202 1.24496 0
M  V30 8239 C 780.528 -1.94077 -0.189499 0
M  V30 8240 O 779.798 -1.60868 -1.11796 0
M  V30 8241 H 778.378 -0.590276 0.457802 0
M  V30 8242 H 781.04 -1.00394 1.67054 0
M  V30 8243 H 780.136 -2.52247 1.83788 0
M  V30 8244 N 780.437 -1.16799 -1.0581 0
M  V30 8245 C 781.853 -0.913935 -1.30841 0
M  V30 8246 C 782.053 0.430439 -1.96849 0
M  V30 8247 O 781.109 1.16885 -2.23817 0
M  V30 8248 C 782.422 -2.06662 -2.18429 0
M  V30 8249 C 783.97 -2.10294 -2.31831 0
M  V30 8250 C 784.445 -3.2493 -3.22776 0
M  V30 8251 N 785.936 -3.24678 -3.30361 0
M  V30 8252 C 786.671 -4.10021 -4.00837 0
M  V30 8253 N 786.167 -5.05461 -4.73795 0
M  V30 8254 N 787.96 -3.97991 -3.96937 0
M  V30 8255 H 780.111 -2.03343 -0.613613 0
M  V30 8256 H 782.374 -0.88754 -0.333133 0
M  V30 8257 H 782.08 -3.03791 -1.77211 0
M  V30 8258 H 781.954 -2.01233 -3.19038 0
M  V30 8259 H 784.341 -1.13754 -2.72294 0
M  V30 8260 H 784.422 -2.19786 -1.30873 0
M  V30 8261 H 784.066 -4.21731 -2.83028 0
M  V30 8262 H 783.996 -3.12674 -4.23725 0
M  V30 8263 H 786.487 -2.55573 -2.78372 0
M  V30 8264 H 786.8 -5.66989 -5.25113 0
M  V30 8265 H 785.145 -5.09436 -4.72758 0
M  V30 8266 H 788.336 -3.2273 -3.39062 0
M  V30 8267 H 788.509 -4.64722 -4.51594 0
M  V30 8268 N 781.915 1.24427 -0.967243 0
M  V30 8269 C 782.862 2.25398 -0.496419 0
M  V30 8270 C 783.832 1.59667 0.457781 0
M  V30 8271 O 785.017 1.87213 0.368246 0
M  V30 8272 C 782.157 3.44474 0.207693 0
M  V30 8273 C 781.27 4.24804 -0.785221 0
M  V30 8274 C 780.405 5.31169 -0.0572631 0
M  V30 8275 C 779.444 6.03195 -1.04027 0
M  V30 8276 N 778.581 7.01265 -0.34235 0
M  V30 8277 H 783.421 2.65039 -1.36229 0
M  V30 8278 H 780.958 1.30288 -0.682902 0
M  V30 8279 H 782.916 4.12376 0.632612 0
M  V30 8280 H 781.546 3.05672 1.03752 0
M  V30 8281 H 780.598 3.56445 -1.32858 0
M  V30 8282 H 781.91 4.74599 -1.53483 0
M  V30 8283 H 781.064 6.05205 0.425674 0
M  V30 8284 H 779.803 4.8228 0.725047 0
M  V30 8285 H 778.808 5.27964 -1.53409 0
M  V30 8286 H 780.033 6.54173 -1.82302 0
M  V30 8287 H 777.979 6.54648 0.420993 0
M  V30 8288 H 777.896 7.48939 -1.03084 0
M  V30 8289 H 779.164 7.7941 0.118634 0
M  V30 8290 N 783.393 0.737304 1.3929 0
M  V30 8291 C 784.623 0.296143 2.04467 0
M  V30 8292 C 785.031 -1.0748 1.55707 0
M  V30 8293 O 784.374 -1.69082 0.718123 0
M  V30 8294 C 784.436 0.222161 3.58813 0
M  V30 8295 C 784.1 1.53195 4.30558 0
M  V30 8296 C 785.097 2.47809 4.57041 0
M  V30 8297 C 782.782 1.79688 4.6906 0
M  V30 8298 C 784.776 3.67147 5.21039 0
M  V30 8299 C 782.463 2.99304 5.32785 0
M  V30 8300 C 783.461 3.92855 5.58708 0
M  V30 8301 O 783.149 5.1037 6.2111 0
M  V30 8302 H 782.881 0.126896 0.663983 0
M  V30 8303 H 785.435 1.00242 1.79278 0
M  V30 8304 H 783.665 -0.540239 3.82908 0
M  V30 8305 H 785.354 -0.187311 4.05468 0
M  V30 8306 H 786.12 2.28611 4.2774 0
M  V30 8307 H 781.999 1.07716 4.48239 0
M  V30 8308 H 785.543 4.40183 5.41188 0
M  V30 8309 H 781.44 3.18401 5.61508 0
M  V30 8310 H 782.208 5.10735 6.39603 0
M  V30 8311 N 784.871 -1.49948 0.485112 0
M  V30 8312 C 785.804 -2.25531 -0.348027 0
M  V30 8313 C 786.782 -1.29433 -0.984172 0
M  V30 8314 O 787.966 -1.58687 -1.01738 0
M  V30 8315 C 785.093 -3.04225 -1.48878 0
M  V30 8316 C 784.139 -4.15355 -0.968616 0
M  V30 8317 S 784.972 -5.35347 0.127934 0
M  V30 8318 C 786.128 -6.17593 -1.01637 0
M  V30 8319 H 786.361 -2.95847 0.293529 0
M  V30 8320 H 783.894 -1.52018 0.27018 0
M  V30 8321 H 785.852 -3.50153 -2.14251 0
M  V30 8322 H 784.513 -2.33407 -2.1019 0
M  V30 8323 H 783.706 -4.69873 -1.82305 0
M  V30 8324 H 783.308 -3.71936 -0.392377 0
M  V30 8325 H 785.6 -6.49576 -1.92503 0
M  V30 8326 H 786.543 -7.0626 -0.510149 0
M  V30 8327 H 786.951 -5.49877 -1.27653 0
M  V30 8328 N 786.349 -0.21828 -1.56081 0
M  V30 8329 C 787.312 0.679633 -2.18892 0
M  V30 8330 C 788.312 1.12405 -1.14986 0
M  V30 8331 O 789.502 1.03339 -1.40238 0
M  V30 8332 C 786.634 1.93063 -2.80962 0
M  V30 8333 H 787.827 0.132066 -2.99609 0
M  V30 8334 H 785.38 0.0313374 -1.56269 0
M  V30 8335 H 786.115 2.52015 -2.04106 0
M  V30 8336 H 785.9 1.62046 -3.57048 0
M  V30 8337 H 787.39 2.57043 -3.29118 0
M  V30 8338 N 787.827 1.57504 0.0551401 0
M  V30 8339 C 789.055 1.92294 0.76358 0
M  V30 8340 C 789.47 0.815774 1.70266 0
M  V30 8341 O 788.827 -0.209772 1.8129 0
M  V30 8342 C 788.878 3.26914 1.54302 0
M  V30 8343 O 788.599 4.33375 0.641666 0
M  V30 8344 C 790.1 3.75825 2.35097 0
M  V30 8345 H 787.32 0.635229 0.216159 0
M  V30 8346 H 789.864 2.0449 0.0204385 0
M  V30 8347 H 788.019 3.16196 2.23828 0
M  V30 8348 H 788.433 5.10927 1.1855 0
M  V30 8349 H 789.907 4.72603 2.8522 0
M  V30 8350 H 790.384 3.0568 3.15367 0
M  V30 8351 H 790.99 3.89542 1.70696 0
M  V30 8352 N 789.305 -0.326896 1.54172 0
M  V30 8353 C 790.551 -1.06681 1.72473 0
M  V30 8354 C 790.884 -1.87779 0.49523 0
M  V30 8355 O 790.159 -1.87754 -0.507803 0
M  V30 8356 C 790.442 -1.99429 2.99834 0
M  V30 8357 C 790.295 -1.21682 4.33028 0
M  V30 8358 C 791.614 -2.99002 3.22933 0
M  V30 8359 H 788.733 -0.386438 0.627563 0
M  V30 8360 H 791.375 -0.343779 1.86864 0
M  V30 8361 H 789.525 -2.61081 2.87696 0
M  V30 8362 H 791.197 -0.625153 4.57044 0
M  V30 8363 H 789.44 -0.519045 4.30684 0
M  V30 8364 H 790.111 -1.89766 5.18356 0
M  V30 8365 H 792.587 -2.4747 3.34511 0
M  V30 8366 H 791.463 -3.61085 4.13412 0
M  V30 8367 H 791.724 -3.71281 2.40006 0
M  V30 8368 N 790.784 -1.46188 -0.588786 0
M  V30 8369 C 792.012 -1.54743 -1.37339 0
M  V30 8370 C 792.427 -0.186446 -1.87877 0
M  V30 8371 O 791.784 0.815247 -1.63279 0
M  V30 8372 C 791.835 -2.54727 -2.56508 0
M  V30 8373 O 791.556 -3.85539 -2.08066 0
M  V30 8374 C 793.057 -2.73163 -3.49137 0
M  V30 8375 H 790.277 -0.523484 -0.419768 0
M  V30 8376 H 792.821 -1.91543 -0.716345 0
M  V30 8377 H 790.976 -2.20948 -3.18215 0
M  V30 8378 H 791.39 -4.39905 -2.85629 0
M  V30 8379 H 792.864 -3.47057 -4.2925 0
M  V30 8380 H 793.341 -1.79856 -4.00685 0
M  V30 8381 H 793.947 -3.08014 -2.9327 0
M  V30 8382 N 792.262 0.832906 -1.33792 0
M  V30 8383 C 793.487 1.62568 -1.28788 0
M  V30 8384 C 793.912 1.87599 0.137246 0
M  V30 8385 O 793.27 1.44436 1.0958 0
M  V30 8386 C 793.318 2.9495 -2.07453 0
M  V30 8387 O 792.422 3.86546 -1.43722 0
M  V30 8388 H 791.763 0.494809 -0.442787 0
M  V30 8389 H 794.293 1.03578 -1.76445 0
M  V30 8390 H 794.303 3.44599 -2.1844 0
M  V30 8391 H 792.978 2.76055 -3.11073 0
M  V30 8392 H 791.555 3.45044 -1.41417 0
M  V30 8393 N 793.74 1.17359 1.05189 0
M  V30 8394 C 794.989 0.956412 1.77583 0
M  V30 8395 C 795.302 -0.516018 1.88671 0
M  V30 8396 O 796.508 -0.851401 2.57805 0
M  V30 8397 C 794.964 1.66203 3.19225 0
M  V30 8398 C 794.572 3.17299 3.16267 0
M  V30 8399 C 796.316 1.52725 3.96075 0
M  V30 8400 C 794.223 3.8055 4.52698 0
M  V30 8401 H 793.153 0.354204 0.665624 0
M  V30 8402 H 795.804 1.40612 1.17901 0
M  V30 8403 H 794.186 1.14006 3.79234 0
M  V30 8404 H 795.36 3.76431 2.65776 0
M  V30 8405 H 793.675 3.3079 2.52917 0
M  V30 8406 H 796.272 1.97351 4.96947 0
M  V30 8407 H 796.615 0.477803 4.13549 0
M  V30 8408 H 797.148 2.02139 3.42614 0
M  V30 8409 H 793.887 4.85492 4.4043 0
M  V30 8410 H 793.407 3.26206 5.03339 0
M  V30 8411 H 795.086 3.82757 5.21638 0
M  V30 8412 N 795.218 -1.23913 0.973828 0
M  V30 8413 C 796.443 -1.96735 0.656511 0
M  V30 8414 C 796.868 -1.71682 -0.768571 0
M  V30 8415 O 796.226 -0.984267 -1.52256 0
M  V30 8416 C 796.274 -3.48004 0.944735 0
M  V30 8417 O 795.378 -4.12387 0.0333357 0
M  V30 8418 H 794.719 -0.616119 0.247575 0
M  V30 8419 H 797.249 -1.57525 1.30564 0
M  V30 8420 H 797.259 -3.98424 0.87876 0
M  V30 8421 H 795.934 -3.65567 1.98328 0
M  V30 8422 H 794.511 -3.72585 0.153157 0
M  V30 8423 N 796.696 -0.74468 -1.38897 0
M  V30 8424 C 797.944 -0.296298 -1.99916 0
M  V30 8425 C 798.265 1.12325 -1.59399 0
M  V30 8426 O 797.535 1.76658 -0.846689 0
M  V30 8427 H 796.115 -0.106561 -0.73936 0
M  V30 8428 H 798.777 -0.956793 -1.69798 0
M  V30 8429 H 797.873 -0.352356 -3.10105 0
M  V30 8430 N 798.174 1.49689 -0.493057 0
M  V30 8431 C 799.451 1.9525 0.116907 0
M  V30 8432 C 799.831 1.43429 1.54892 0
M  V30 8433 O 799.179 0.644621 2.19219 0
M  V30 8434 C 799.389 3.4898 0.037705 0
M  V30 8435 C 800.737 4.24052 0.215621 0
M  V30 8436 O 801.761 3.5602 0.113266 0
M  V30 8437 O 800.62 5.44847 0.42477 0
M  V30 8438 H 797.714 0.820973 0.099662 0
M  V30 8439 H 800.26 1.60367 -0.555029 0
M  V30 8440 H 799.032 3.79309 -0.961251 0
M  V30 8441 H 798.655 3.9046 0.750137 0
M  V30 8442 N 799.652 0.226554 1.55963 0
M  V30 8443 C 800.582 -0.676079 2.23498 0
M  V30 8444 C 801.563 -1.19718 1.20837 0
M  V30 8445 O 802.748 -1.24027 1.49436 0
M  V30 8446 C 799.878 -1.88217 2.91876 0
M  V30 8447 C 798.832 -1.4947 4.01052 0
M  V30 8448 C 798.158 -2.77997 4.56751 0
M  V30 8449 C 799.458 -0.680951 5.17842 0
M  V30 8450 H 801.152 -0.112989 2.99187 0
M  V30 8451 H 798.698 -0.0529046 1.43903 0
M  V30 8452 H 800.651 -2.51911 3.37815 0
M  V30 8453 H 799.375 -2.47031 2.13643 0
M  V30 8454 H 798.034 -0.881199 3.55852 0
M  V30 8455 H 797.682 -3.34966 3.75243 0
M  V30 8456 H 797.382 -2.52803 5.30438 0
M  V30 8457 H 798.906 -3.42625 5.05411 0
M  V30 8458 H 800.32 -1.22171 5.60131 0
M  V30 8459 H 798.717 -0.525898 5.97791 0
M  V30 8460 H 799.787 0.311346 4.83899 0
M  V30 8461 N 801.13 -1.57531 -0.0467866 0
M  V30 8462 C 802.077 -2.05387 -1.05285 0
M  V30 8463 C 803.047 -0.939385 -1.36985 0
M  V30 8464 O 804.232 -1.20877 -1.47626 0
M  V30 8465 C 801.372 -2.52343 -2.35408 0
M  V30 8466 C 800.485 -3.77512 -2.10022 0
M  V30 8467 C 799.62 -4.1315 -3.33887 0
M  V30 8468 C 798.659 -5.31286 -3.03976 0
M  V30 8469 N 797.796 -5.62441 -4.20243 0
M  V30 8470 H 802.636 -2.91095 -0.637788 0
M  V30 8471 H 800.173 -1.43939 -0.303322 0
M  V30 8472 H 802.131 -2.77628 -3.11413 0
M  V30 8473 H 800.761 -1.69577 -2.7467 0
M  V30 8474 H 799.813 -3.59417 -1.24594 0
M  V30 8475 H 801.125 -4.63644 -1.83945 0
M  V30 8476 H 800.279 -4.39469 -4.18273 0
M  V30 8477 H 799.018 -3.25634 -3.63062 0
M  V30 8478 H 798.023 -5.04738 -2.17991 0
M  V30 8479 H 799.248 -6.20441 -2.76098 0
M  V30 8480 H 797.194 -4.77885 -4.49402 0
M  V30 8481 H 797.111 -6.43046 -3.97528 0
M  V30 8482 H 798.379 -5.93327 -5.05553 0
M  V30 8483 N 802.608 0.318715 -1.54344 0
M  V30 8484 C 803.556 1.41254 -1.84798 0
M  V30 8485 C 804.55 1.53325 -0.720256 0
M  V30 8486 O 805.756 1.55653 -0.903992 0
M  V30 8487 H 802.131 0.471468 -0.585851 0
M  V30 8488 H 804.102 1.12795 -2.7626 0
M  V30 8489 C 802.851 2.77395 -2.09637 0
M  V30 8490 H 802.174 2.68881 -2.95876 0
M  V30 8491 H 803.614 3.52987 -2.34896 0
M  V30 8492 C 802.073 3.24948 -0.889398 0
M  V30 8493 O 802.603 4.01573 -0.101063 0
M  V30 8494 N 800.809 2.82051 -0.699684 0
M  V30 8495 H 800.356 2.19858 -1.3424 0
M  V30 8496 H 800.314 3.1422 0.106368 0
M  V30 8497 N 804.086 1.46499 0.581025 0
M  V30 8498 C 805.311 1.55708 1.37002 0
M  V30 8499 C 805.736 0.19942 1.8704 0
M  V30 8500 O 805.094 -0.820731 1.61659 0
M  V30 8501 C 805.142 2.56716 2.53238 0
M  V30 8502 O 804.246 2.10336 3.54729 0
M  V30 8503 H 803.587 0.523912 0.407937 0
M  V30 8504 H 806.117 1.92085 0.704602 0
M  V30 8505 H 806.127 2.76378 3.00132 0
M  V30 8506 H 804.802 3.55307 2.16171 0
M  V30 8507 H 803.379 2.00669 3.14303 0
M  V30 8508 N 805.565 -0.825799 1.34232 0
M  V30 8509 C 806.79 -1.61883 1.29648 0
M  V30 8510 C 807.215 -1.87669 -0.127295 0
M  V30 8511 O 806.573 -1.45016 -1.08813 0
M  V30 8512 C 806.621 -2.93846 2.09014 0
M  V30 8513 O 805.725 -3.85778 1.4577 0
M  V30 8514 H 805.066 -0.492454 0.445405 0
M  V30 8515 H 807.596 -1.02641 1.76992 0
M  V30 8516 H 807.606 -3.43435 2.20264 0
M  V30 8517 H 806.281 -2.74401 3.12533 0
M  V30 8518 H 804.858 -3.4429 1.43245 0
M  V30 8519 N 807.043 -1.17915 -1.04565 0
M  V30 8520 C 808.268 -0.996749 -1.81878 0
M  V30 8521 C 808.693 0.450169 -1.82634 0
M  V30 8522 O 808.051 1.32268 -1.23995 0
M  V30 8523 C 808.099 -1.55005 -3.25585 0
M  V30 8524 O 807.203 -0.76804 -4.05185 0
M  V30 8525 H 806.544 -0.353456 -0.562108 0
M  V30 8526 H 809.074 -1.56557 -1.31723 0
M  V30 8527 H 809.084 -1.57503 -3.76373 0
M  V30 8528 H 807.759 -2.60327 -3.2435 0
M  V30 8529 H 806.336 -0.81498 -3.63885 0
M  V30 8530 N 808.521 1.23394 -0.980386 0
M  V30 8531 C 809.767 1.92094 -0.650223 0
M  V30 8532 C 810.1 1.76309 0.814173 0
M  V30 8533 O 809.375 1.12406 1.5873 0
M  V30 8534 C 809.658 3.44713 -1.04139 0
M  V30 8535 C 809.511 3.69606 -2.56342 0
M  V30 8536 C 810.83 4.36191 -0.585296 0
M  V30 8537 H 807.949 0.697618 -0.237695 0
M  V30 8538 H 810.591 1.45517 -1.22167 0
M  V30 8539 H 808.741 3.84513 -0.55515 0
M  V30 8540 H 810.413 3.39288 -3.1254 0
M  V30 8541 H 808.656 3.14318 -2.98976 0
M  V30 8542 H 809.327 4.76441 -2.78762 0
M  V30 8543 H 811.803 4.03836 -1.00276 0
M  V30 8544 H 810.679 5.41679 -0.887428 0
M  V30 8545 H 810.94 4.39097 0.51438 0
M  V30 8546 N 809.999 0.752036 1.385 0
M  V30 8547 C 810.946 0.123288 2.3047 0
M  V30 8548 C 811.916 -0.711326 1.50098 0
M  V30 8549 O 813.101 -0.667775 1.78733 0
M  V30 8550 C 810.241 -0.765085 3.36512 0
M  V30 8551 C 809.354 0.0839885 4.31918 0
M  V30 8552 C 808.489 -0.807243 5.25031 0
M  V30 8553 C 807.528 0.0455583 6.12083 0
M  V30 8554 N 806.665 -0.802547 6.97498 0
M  V30 8555 H 811.505 0.913169 2.83664 0
M  V30 8556 H 809.042 0.46195 1.39658 0
M  V30 8557 H 811 -1.29476 3.966 0
M  V30 8558 H 809.63 -1.52077 2.84732 0
M  V30 8559 H 808.682 0.731276 3.73305 0
M  V30 8560 H 809.994 0.74265 4.9324 0
M  V30 8561 H 809.148 -1.40414 5.90228 0
M  V30 8562 H 807.887 -1.49964 4.64071 0
M  V30 8563 H 806.892 0.655137 5.45883 0
M  V30 8564 H 808.117 0.734994 6.75111 0
M  V30 8565 H 806.063 -1.47992 6.39089 0
M  V30 8566 H 805.98 -0.200747 7.55733 0
M  V30 8567 H 807.248 -1.38447 7.67107 0
M  V30 8568 N 811.477 -1.49425 0.500989 0
M  V30 8569 C 812.725 -2.02053 -0.0434495 0
M  V30 8570 C 813.046 -1.38285 -1.37486 0
M  V30 8571 O 812.316 -0.538171 -1.88363 0
M  V30 8572 H 810.896 -0.746757 -0.0190469 0
M  V30 8573 H 813.558 -1.83449 0.658227 0
M  V30 8574 H 812.654 -3.11619 -0.173129 0
M  V30 8575 N 812.955 -0.234822 -1.55841 0
M  V30 8576 C 814.371 0.120295 -1.59146 0
M  V30 8577 C 814.571 1.57896 -1.25184 0
M  V30 8578 O 813.627 2.32138 -0.993393 0
M  V30 8579 C 814.94 -0.217984 -2.99909 0
M  V30 8580 C 816.488 -0.161298 -3.12584 0
M  V30 8581 C 816.963 -0.473438 -4.55546 0
M  V30 8582 N 818.454 -0.423494 -4.6126 0
M  V30 8583 C 819.189 -0.638334 -5.69836 0
M  V30 8584 N 818.685 -0.915659 -6.86722 0
M  V30 8585 N 820.478 -0.569864 -5.59204 0
M  V30 8586 H 812.629 -1.18622 -1.76189 0
M  V30 8587 H 814.892 -0.476426 -0.819587 0
M  V30 8588 H 814.598 -1.2309 -3.29457 0
M  V30 8589 H 814.472 0.460707 -3.74376 0
M  V30 8590 H 816.859 0.842274 -2.82825 0
M  V30 8591 H 816.94 -0.873661 -2.40418 0
M  V30 8592 H 816.584 -1.47451 -4.86025 0
M  V30 8593 H 816.514 0.260268 -5.25956 0
M  V30 8594 H 819.005 -0.217383 -3.77274 0
M  V30 8595 H 819.318 -1.06734 -7.65394 0
M  V30 8596 H 817.663 -0.953 -6.88435 0
M  V30 8597 H 820.854 -0.35334 -4.66765 0
M  V30 8598 H 821.027 -0.740698 -6.43753 0
M  V30 8599 N 814.433 1.57553 0.0384317 0
M  V30 8600 C 815.661 1.93093 0.743141 0
M  V30 8601 C 816.076 0.833787 1.69391 0
M  V30 8602 O 815.433 -0.190532 1.81503 0
M  V30 8603 C 815.484 3.28533 1.50826 0
M  V30 8604 O 815.205 4.34032 0.595665 0
M  V30 8605 C 816.706 3.78297 2.31098 0
M  V30 8606 H 813.926 0.637486 0.20941 0
M  V30 8607 H 816.47 2.045 -0.00125154 0
M  V30 8608 H 814.625 3.18552 2.20462 0
M  V30 8609 H 815.039 5.12155 1.13124 0
M  V30 8610 H 816.513 4.75602 2.80191 0
M  V30 8611 H 816.99 3.09008 3.12107 0
M  V30 8612 H 817.596 3.91331 1.66555 0
M  V30 8613 N 815.911 -0.310526 1.54511 0
M  V30 8614 C 817.157 -1.04846 1.73595 0
M  V30 8615 C 817.49 -1.87244 0.515118 0
M  V30 8616 O 816.765 -1.88282 -0.48786 0
M  V30 8617 C 817.048 -1.96237 3.01932 0
M  V30 8618 C 816.901 -1.17082 4.34295 0
M  V30 8619 C 818.22 -2.9556 3.26086 0
M  V30 8620 H 815.339 -0.37976 0.631626 0
M  V30 8621 H 817.981 -0.32394 1.87218 0
M  V30 8622 H 816.131 -2.58015 2.90449 0
M  V30 8623 H 817.803 -0.576643 4.57682 0
M  V30 8624 H 816.046 -0.473336 4.3121 0
M  V30 8625 H 816.717 -1.84257 5.20339 0
M  V30 8626 H 819.193 -2.43908 3.37117 0
M  V30 8627 H 818.069 -3.5668 4.17218 0
M  V30 8628 H 818.33 -3.68715 2.4393 0
M  V30 8629 N 817.389 -1.46805 -0.573248 0
M  V30 8630 C 818.8 -1.46655 -1.15539 0
M  V30 8631 C 819.151 -0.2125 -1.95046 0
M  V30 8632 O 818.276 0.683759 -2.05314 0
M  V30 8633 C 818.871 -2.65711 -2.10198 0
M  V30 8634 C 817.43 -2.68572 -2.63716 0
M  V30 8635 C 816.577 -2.39498 -1.39772 0
M  V30 8636 H 819.528 -1.54547 -0.36068 0
M  V30 8637 H 819.549 -2.41768 -2.93817 0
M  V30 8638 H 819.061 -3.56967 -1.52303 0
M  V30 8639 H 817.162 -1.81414 -3.25453 0
M  V30 8640 H 817.275 -3.68809 -3.05805 0
M  V30 8641 H 815.639 -1.89749 -1.69904 0
M  V30 8642 H 816.422 -3.32942 -0.836943 0
M  V30 8643 N 818.867 0.818669 -1.34668 0
M  V30 8644 C 819.83 1.9114 -1.26483 0
M  V30 8645 C 820.83 1.598 -0.179044 0
M  V30 8646 O 822.02 1.6876 -0.431952 0
M  V30 8647 C 819.152 3.27285 -0.95381 0
M  V30 8648 H 820.345 1.9982 -2.23634 0
M  V30 8649 H 817.898 1.01314 -1.19018 0
M  V30 8650 H 818.633 3.24297 0.0143428 0
M  V30 8651 H 818.418 3.51416 -1.73924 0
M  V30 8652 H 819.908 4.07299 -0.921827 0
M  V30 8653 N 820.346 1.18468 1.03938 0
M  V30 8654 C 821.278 0.870615 2.12021 0
M  V30 8655 C 822.291 -0.132318 1.62261 0
M  V30 8656 O 823.48 0.0956901 1.78243 0
M  V30 8657 C 820.58 0.279727 3.37744 0
M  V30 8658 C 819.753 1.32863 4.16733 0
M  V30 8659 C 818.812 0.753204 5.20781 0
M  V30 8660 O 817.838 1.42825 5.5099 0
M  V30 8661 N 819.04 -0.448664 5.78764 0
M  V30 8662 H 821.805 1.80091 2.39556 0
M  V30 8663 H 819.366 1.08524 1.20142 0
M  V30 8664 H 821.358 -0.118829 4.04526 0
M  V30 8665 H 819.928 -0.554621 3.07641 0
M  V30 8666 H 819.148 1.90245 3.45254 0
M  V30 8667 H 820.436 2.03574 4.66299 0
M  V30 8668 H 819.834 -1.01481 5.56523 0
M  V30 8669 H 818.391 -0.789125 6.47005 0
M  V30 8670 N 821.824 -1.22873 0.986916 0
M  V30 8671 C 823.07 -1.91746 0.660401 0
M  V30 8672 C 823.403 -1.76738 -0.804812 0
M  V30 8673 O 822.678 -1.13246 -1.58131 0
M  V30 8674 C 822.961 -3.44156 1.05966 0
M  V30 8675 C 822.814 -3.68242 2.58298 0
M  V30 8676 C 824.133 -4.35874 0.60842 0
M  V30 8677 H 821.252 -0.696347 0.241391 0
M  V30 8678 H 823.894 -1.44867 1.22937 0
M  V30 8679 H 822.044 -3.84213 0.575534 0
M  V30 8680 H 823.716 -3.37626 3.14335 0
M  V30 8681 H 821.959 -3.12728 3.00638 0
M  V30 8682 H 822.63 -4.74956 2.81285 0
M  V30 8683 H 825.106 -4.03299 1.02417 0
M  V30 8684 H 823.982 -5.41201 0.916142 0
M  V30 8685 H 824.243 -4.39364 -0.491086 0
M  V30 8686 N 823.302 -0.75937 -1.38099 0
M  V30 8687 C 824.53 -0.329111 -2.04266 0
M  V30 8688 C 824.945 1.04453 -1.57274 0
M  V30 8689 O 824.302 1.66449 -0.748397 0
M  V30 8690 C 824.353 -0.349192 -3.5981 0
M  V30 8691 O 824.074 -1.66863 -4.05078 0
M  V30 8692 C 825.575 0.0942106 -4.432 0
M  V30 8693 H 822.795 -0.13971 -0.656294 0
M  V30 8694 H 825.339 -1.02984 -1.76677 0
M  V30 8695 H 823.494 0.302846 -3.86214 0
M  V30 8696 H 823.908 -1.59877 -4.9954 0
M  V30 8697 H 825.382 0.0290004 -5.51992 0
M  V30 8698 H 825.859 1.1429 -4.24069 0
M  V30 8699 H 826.465 -0.529171 -4.21995 0
M  V30 8700 N 824.78 1.49157 -0.508906 0
M  V30 8701 C 826.057 1.95363 0.0961913 0
M  V30 8702 C 826.437 1.45064 1.53362 0
M  V30 8703 O 825.785 0.667835 2.18523 0
M  V30 8704 C 825.995 3.49 0.000688881 0
M  V30 8705 C 827.343 4.24257 0.170632 0
M  V30 8706 O 828.367 3.5612 0.0754994 0
M  V30 8707 O 827.226 5.45267 0.366957 0
M  V30 8708 H 824.32 0.821984 0.0909489 0
M  V30 8709 H 826.866 1.59769 -0.572007 0
M  V30 8710 H 825.638 3.78269 -1.00143 0
M  V30 8711 H 825.261 3.91233 0.708682 0
M  V30 8712 N 826.258 0.243083 1.55714 0
M  V30 8713 C 827.188 -0.652336 2.24203 0
M  V30 8714 C 828.169 -1.1843 1.221 0
M  V30 8715 O 829.354 -1.22435 1.50743 0
M  V30 8716 C 826.484 -1.85111 2.93856 0
M  V30 8717 C 825.438 -1.45208 4.02615 0
M  V30 8718 C 824.764 -2.73137 4.59674 0
M  V30 8719 C 826.064 -0.625988 5.18535 0
M  V30 8720 H 827.758 -0.0812504 2.9929 0
M  V30 8721 H 825.304 -0.0376388 1.43951 0
M  V30 8722 H 827.257 -2.48314 3.40468 0
M  V30 8723 H 825.981 -2.44751 2.16251 0
M  V30 8724 H 824.64 -0.843406 3.56766 0
M  V30 8725 H 824.288 -3.30967 3.78774 0
M  V30 8726 H 823.988 -2.47163 5.33089 0
M  V30 8727 H 825.512 -3.37245 5.09017 0
M  V30 8728 H 826.926 -1.16223 5.61396 0
M  V30 8729 H 825.323 -0.462465 5.98315 0
M  V30 8730 H 826.393 0.362652 4.83542 0
M  V30 8731 N 827.736 -1.57571 -0.0300757 0
M  V30 8732 C 828.686 -2.02958 -1.03885 0
M  V30 8733 C 829.67 -0.918723 -1.32092 0
M  V30 8734 O 830.862 -1.18262 -1.31694 0
M  V30 8735 C 827.991 -2.51169 -2.34028 0
M  V30 8736 C 827.077 -3.69073 -2.08915 0
M  V30 8737 N 827.468 -4.81831 -1.53858 0
M  V30 8738 C 825.766 -3.76427 -2.39204 0
M  V30 8739 C 826.467 -5.6346 -1.44526 0
M  V30 8740 N 825.443 -5.08545 -1.92048 0
M  V30 8741 H 829.245 -2.8756 -0.607157 0
M  V30 8742 H 826.759 -1.6067 -0.236399 0
M  V30 8743 H 828.756 -2.81944 -3.07104 0
M  V30 8744 H 827.416 -1.67972 -2.77876 0
M  V30 8745 H 828.427 -5.03291 -1.22142 0
M  V30 8746 H 825.104 -3.04029 -2.86134 0
M  V30 8747 H 826.494 -6.64042 -1.02456 0
M  V30 8748 N 829.214 0.302327 -1.54673 0
M  V30 8749 C 830.46 1.03924 -1.74149 0
M  V30 8750 C 830.793 1.86968 -0.525041 0
M  V30 8751 O 830.068 1.88538 0.477868 0
M  V30 8752 C 830.351 1.94633 -3.02969 0
M  V30 8753 C 830.204 1.14778 -4.34909 0
M  V30 8754 C 831.523 2.93826 -3.27649 0
M  V30 8755 H 828.642 0.376405 -0.633631 0
M  V30 8756 H 831.284 0.314007 -1.87387 0
M  V30 8757 H 829.434 2.56471 -2.91813 0
M  V30 8758 H 831.106 0.552363 -4.57981 0
M  V30 8759 H 829.349 0.450462 -4.31455 0
M  V30 8760 H 830.02 1.81495 -5.21309 0
M  V30 8761 H 832.496 2.42117 -3.38406 0
M  V30 8762 H 831.372 3.54462 -4.19104 0
M  V30 8763 H 831.633 3.67416 -2.45882 0
M  V30 8764 N 830.692 1.47107 0.565454 0
M  V30 8765 C 831.655 1.58535 1.65527 0
M  V30 8766 C 832.655 0.461081 1.54048 0
M  V30 8767 O 833.845 0.725911 1.58355 0
M  V30 8768 C 830.977 1.52204 3.05036 0
M  V30 8769 H 832.17 2.55676 1.56747 0
M  V30 8770 H 829.723 1.35174 0.78471 0
M  V30 8771 H 830.458 0.564071 3.19357 0
M  V30 8772 H 830.243 2.3379 3.14777 0
M  V30 8773 H 831.733 1.63322 3.84338 0
M  V30 8774 N 832.17 -0.811516 1.35101 0
M  V30 8775 C 833.118 -1.94449 1.27642 0
M  V30 8776 C 834.112 -1.68522 0.172287 0
M  V30 8777 O 835.318 -1.76799 0.337967 0
M  V30 8778 H 831.693 -0.638776 0.396824 0
M  V30 8779 H 833.664 -1.97861 2.23369 0
M  V30 8780 C 832.413 -3.31139 1.06029 0
M  V30 8781 H 831.736 -3.51644 1.90227 0
M  V30 8782 H 833.176 -4.10831 1.0485 0
M  V30 8783 C 831.635 -3.36072 -0.236039 0
M  V30 8784 O 832.165 -3.82292 -1.23353 0
M  V30 8785 N 830.371 -2.89314 -0.273107 0
M  V30 8786 H 829.918 -2.51893 0.539211 0
M  V30 8787 H 829.876 -2.92996 -1.1402 0
M  V30 8788 N 833.648 -1.19017 -1.03309 0
M  V30 8789 C 834.58 -0.881847 -2.11556 0
M  V30 8790 C 835.593 0.123711 -1.62329 0
M  V30 8791 O 836.782 -0.105141 -1.7819 0
M  V30 8792 C 833.882 -0.297634 -3.37591 0
M  V30 8793 C 833.055 -1.35072 -4.16022 0
M  V30 8794 C 832.114 -0.780812 -5.20375 0
M  V30 8795 O 831.14 -1.45745 -5.50224 0
M  V30 8796 N 832.342 0.417964 -5.78993 0
M  V30 8797 H 835.107 -1.81359 -2.38598 0
M  V30 8798 H 832.668 -1.0916 -1.19565 0
M  V30 8799 H 834.66 0.097374 -4.04583 0
M  V30 8800 H 833.23 0.538299 -3.0793 0
M  V30 8801 H 832.45 -1.92074 -3.4424 0
M  V30 8802 H 833.738 -2.06044 -4.65213 0
M  V30 8803 H 833.136 0.985281 -5.57054 0
M  V30 8804 H 831.693 0.754802 -6.47415 0
M  V30 8805 N 835.127 1.22348 -0.993418 0
M  V30 8806 C 836.375 1.90733 -0.668246 0
M  V30 8807 C 836.696 1.77732 0.802261 0
M  V30 8808 O 835.966 1.16486 1.57505 0
M  V30 8809 H 834.546 0.705966 -0.244174 0
M  V30 8810 H 837.208 1.48691 -1.26004 0
M  V30 8811 H 836.304 2.97883 -0.931239 0
M  V30 8812 N 836.605 0.766683 1.37694 0
M  V30 8813 C 837.538 0.0959288 2.27998 0
M  V30 8814 C 838.516 -0.714493 1.46061 0
M  V30 8815 O 839.7 -0.690337 1.75404 0
M  V30 8816 C 836.827 -0.87057 3.27321 0
M  V30 8817 C 835.873 -0.144771 4.26254 0
M  V30 8818 S 836.706 1.16365 5.22704 0
M  V30 8819 C 837.862 0.200564 6.25579 0
M  V30 8820 H 838.095 0.861666 2.84539 0
M  V30 8821 H 835.628 0.559845 1.43893 0
M  V30 8822 H 837.586 -1.42282 3.85053 0
M  V30 8823 H 836.247 -1.60938 2.69737 0
M  V30 8824 H 835.44 -0.877259 4.96307 0
M  V30 8825 H 835.042 0.33633 3.72485 0
M  V30 8826 H 837.334 -0.628833 6.74575 0
M  V30 8827 H 838.277 0.869117 7.02746 0
M  V30 8828 H 838.685 -0.185972 5.64194 0
M  V30 8829 N 838.083 -1.48885 0.516809 0
M  V30 8830 C 839.311 -2.06892 -0.0184017 0
M  V30 8831 C 839.726 -1.37511 -1.29368 0
M  V30 8832 O 839.083 -0.458409 -1.76649 0
M  V30 8833 C 839.134 -3.60566 -0.259673 0
M  V30 8834 O 838.855 -4.27338 0.965065 0
M  V30 8835 C 840.356 -4.35331 -0.836751 0
M  V30 8836 H 837.576 -0.670433 0.0275743 0
M  V30 8837 H 840.12 -1.91455 0.718689 0
M  V30 8838 H 838.275 -3.75653 -0.94678 0
M  V30 8839 H 838.689 -5.19287 0.737647 0
M  V30 8840 H 840.163 -5.43675 -0.955065 0
M  V30 8841 H 840.64 -3.9887 -1.83845 0
M  V30 8842 H 841.246 -4.2489 -0.186622 0
M  V30 8843 N 839.561 -0.251338 -1.55583 0
M  V30 8844 C 840.786 0.379136 -2.03905 0
M  V30 8845 C 841.211 1.50428 -1.12929 0
M  V30 8846 O 840.569 1.80882 -0.123114 0
M  V30 8847 C 840.617 0.86009 -3.50193 0
M  V30 8848 O 839.721 1.96932 -3.62342 0
M  V30 8849 H 839.062 0.0820183 -0.658915 0
M  V30 8850 H 841.592 -0.378692 -2.01065 0
M  V30 8851 H 841.602 1.16214 -3.91099 0
M  V30 8852 H 840.277 0.0367559 -4.15884 0
M  V30 8853 H 838.854 1.67163 -3.33333 0
M  V30 8854 N 841.039 1.57585 0.0217189 0
M  V30 8855 C 842.264 1.94267 0.726309 0
M  V30 8856 C 842.689 0.851904 1.67703 0
M  V30 8857 O 842.047 -0.191792 1.80283 0
M  V30 8858 C 842.095 3.30023 1.45318 0
M  V30 8859 O 841.199 3.22791 2.5667 0
M  V30 8860 H 840.54 0.634777 0.194818 0
M  V30 8861 H 843.07 2.04585 -0.0249985 0
M  V30 8862 H 843.08 3.65084 1.82147 0
M  V30 8863 H 841.755 4.08972 0.755962 0
M  V30 8864 H 840.332 2.99373 2.2233 0
M  V30 8865 N 842.517 -0.29412 1.54831 0
M  V30 8866 C 843.447 -1.36757 1.89261 0
M  V30 8867 C 844.428 -1.52564 0.752214 0
M  V30 8868 O 845.613 -1.65958 1.00855 0
M  V30 8869 C 842.743 -2.73066 2.14597 0
M  V30 8870 C 841.697 -2.72017 3.3044 0
M  V30 8871 C 841.023 -4.11679 3.4121 0
M  V30 8872 C 842.323 -2.33149 4.67375 0
M  V30 8873 H 844.017 -1.08191 2.79169 0
M  V30 8874 H 841.563 -0.519014 1.34321 0
M  V30 8875 H 843.516 -3.48255 2.37269 0
M  V30 8876 H 842.24 -3.03172 1.21467 0
M  V30 8877 H 840.899 -1.99285 3.07703 0
M  V30 8878 H 840.547 -4.38973 2.45584 0
M  V30 8879 H 840.247 -4.11877 4.19084 0
M  V30 8880 H 841.771 -4.88637 3.6615 0
M  V30 8881 H 843.185 -2.98054 4.89731 0
M  V30 8882 H 841.582 -2.44546 5.48012 0
M  V30 8883 H 842.652 -1.28275 4.67626 0
M  V30 8884 N 843.995 -1.47404 -0.557645 0
M  V30 8885 C 845.242 -1.54007 -1.31484 0
M  V30 8886 C 845.57 -0.202162 -1.93447 0
M  V30 8887 O 844.825 0.804901 -1.78381 0
M  V30 8888 C 845.124 -2.6061 -2.44575 0
M  V30 8889 C 844.79 -4.03896 -2.00446 0
M  V30 8890 C 843.452 -4.42901 -1.88127 0
M  V30 8891 C 845.804 -4.93804 -1.66754 0
M  V30 8892 C 843.132 -5.6965 -1.40411 0
M  V30 8893 C 845.484 -6.21016 -1.20509 0
M  V30 8894 C 844.148 -6.58903 -1.06786 0
M  V30 8895 H 843.418 -0.563552 -0.481134 0
M  V30 8896 H 846.065 -1.81001 -0.625375 0
M  V30 8897 H 844.37 -2.27371 -3.19076 0
M  V30 8898 H 846.067 -2.62941 -3.02759 0
M  V30 8899 H 842.657 -3.73077 -2.10977 0
M  V30 8900 H 846.841 -4.64369 -1.75144 0
M  V30 8901 H 842.097 -5.97755 -1.2845 0
M  V30 8902 H 846.271 -6.90095 -0.935001 0
M  V30 8903 H 843.898 -7.57008 -0.695891 0
M  V30 8904 N 845.473 0.80434 -1.35529 0
M  V30 8905 C 846.701 1.59283 -1.32048 0
M  V30 8906 C 847.116 1.88527 0.101556 0
M  V30 8907 O 846.473 1.48975 1.05417 0
M  V30 8908 C 846.524 2.92276 -2.12737 0
M  V30 8909 O 846.245 2.64299 -3.49396 0
M  V30 8910 C 847.746 3.86631 -2.16867 0
M  V30 8911 H 844.966 0.494523 -0.453528 0
M  V30 8912 H 847.51 0.999415 -1.78415 0
M  V30 8913 H 845.665 3.48125 -1.69964 0
M  V30 8914 H 846.079 3.4923 -3.91329 0
M  V30 8915 H 847.553 4.77053 -2.77712 0
M  V30 8916 H 848.03 4.23384 -1.16803 0
M  V30 8917 H 848.636 3.36717 -2.59811 0
M  V30 8918 N 846.951 1.19563 1.02676 0
M  V30 8919 C 847.899 0.931942 2.13114 0
M  V30 8920 C 848.893 -0.113007 1.69023 0
M  V30 8921 O 850.099 0.0364298 1.79963 0
M  V30 8922 H 846.474 0.283981 0.696318 0
M  V30 8923 H 848.445 1.86991 2.32545 0
M  V30 8924 C 847.194 0.489461 3.44238 0
M  V30 8925 H 846.517 1.28508 3.78584 0
M  V30 8926 H 847.957 0.34408 4.22602 0
M  V30 8927 C 846.416 -0.796761 3.27343 0
M  V30 8928 O 846.946 -1.85767 3.56165 0
M  V30 8929 N 845.152 -0.754824 2.80626 0
M  V30 8930 H 844.699 0.108778 2.5737 0
M  V30 8931 H 844.657 -1.6158 2.69702 0
M  V30 8932 N 848.429 -1.21819 0.999893 0
M  V30 8933 C 849.675 -1.91325 0.690373 0
M  V30 8934 C 850.03 -1.76323 -0.769929 0
M  V30 8935 O 849.323 -1.12585 -1.55033 0
M  V30 8936 C 849.517 -3.4193 1.04012 0
M  V30 8937 C 849.346 -3.71585 2.53287 0
M  V30 8938 C 848.116 -3.91219 3.19806 0
M  V30 8939 C 850.314 -3.75502 3.5143 0
M  V30 8940 N 848.296 -4.08246 4.58485 0
M  V30 8941 C 849.667 -3.97753 4.75597 0
M  V30 8942 C 851.722 -3.58383 3.45638 0
M  V30 8943 C 850.425 -4.04662 5.94677 0
M  V30 8944 C 852.451 -3.66555 4.64103 0
M  V30 8945 C 851.813 -3.89263 5.87072 0
M  V30 8946 H 847.912 -0.720484 0.304018 0
M  V30 8947 H 850.496 -1.46595 1.28133 0
M  V30 8948 H 848.667 -3.85452 0.477671 0
M  V30 8949 H 850.399 -3.98846 0.685864 0
M  V30 8950 H 847.154 -3.88917 2.7026 0
M  V30 8951 H 847.578 -4.20673 5.30437 0
M  V30 8952 H 852.22 -3.39807 2.51576 0
M  V30 8953 H 849.938 -4.22039 6.89136 0
M  V30 8954 H 853.524 -3.54639 4.61218 0
M  V30 8955 H 852.404 -3.95424 6.77207 0
M  V30 8956 N 849.908 -0.773975 -1.37286 0
M  V30 8957 C 851.136 -0.350758 -2.03905 0
M  V30 8958 C 851.551 1.02779 -1.58373 0
M  V30 8959 O 850.908 1.65646 -0.766009 0
M  V30 8960 C 850.959 -0.387335 -3.59419 0
M  V30 8961 O 850.68 -1.7115 -4.03286 0
M  V30 8962 C 852.181 0.047198 -4.43275 0
M  V30 8963 H 849.401 -0.146663 -0.654775 0
M  V30 8964 H 851.945 -1.04852 -1.75574 0
M  V30 8965 H 850.1 0.261865 -3.86514 0
M  V30 8966 H 850.514 -1.65166 -4.97816 0
M  V30 8967 H 851.988 -0.0295474 -5.51992 0
M  V30 8968 H 852.465 1.09786 -4.25257 0
M  V30 8969 H 853.071 -0.573899 -4.2141 0
M  V30 8970 N 851.386 1.48609 -0.524698 0
M  V30 8971 C 852.318 2.27508 0.278 0
M  V30 8972 C 853.331 1.35042 0.909258 0
M  V30 8973 O 854.52 1.60136 0.788592 0
M  V30 8974 C 851.62 3.08247 1.40843 0
M  V30 8975 C 850.793 4.28455 0.880083 0
M  V30 8976 C 849.852 4.91048 1.891 0
M  V30 8977 O 848.878 5.5042 1.45005 0
M  V30 8978 N 850.08 4.82816 3.22288 0
M  V30 8979 H 852.845 2.97037 -0.398642 0
M  V30 8980 H 850.406 1.57876 -0.358698 0
M  V30 8981 H 852.398 3.46992 2.08276 0
M  V30 8982 H 850.968 2.41173 1.98883 0
M  V30 8983 H 850.188 3.94189 0.0299228 0
M  V30 8984 H 851.476 5.06279 0.505881 0
M  V30 8985 H 850.874 4.3572 3.60783 0
M  V30 8986 H 849.431 5.25676 3.85368 0
M  V30 8987 N 852.864 0.259585 1.55447 0
M  V30 8988 C 853.827 -0.621359 2.20617 0
M  V30 8989 C 854.827 -1.09317 1.17925 0
M  V30 8990 O 856.017 -0.995842 1.42929 0
M  V30 8991 C 853.149 -1.85546 2.85982 0
M  V30 8992 H 854.342 -0.0525833 2.99854 0
M  V30 8993 H 851.895 0.0101055 1.56297 0
M  V30 8994 H 852.63 -2.46515 2.10715 0
M  V30 8995 H 852.415 -1.52523 3.61219 0
M  V30 8996 H 853.905 -2.48227 3.35817 0
M  V30 8997 N 854.342 -1.57594 -0.0133615 0
M  V30 8998 C 855.274 -2.04402 -1.03695 0
M  V30 8999 C 856.287 -0.959546 -1.31516 0
M  V30 9000 O 857.476 -1.23659 -1.28727 0
M  V30 9001 C 854.576 -2.41766 -2.37491 0
M  V30 9002 C 853.749 -3.72785 -2.28802 0
M  V30 9003 C 852.808 -3.97165 -3.45176 0
M  V30 9004 O 851.834 -4.68013 -3.23963 0
M  V30 9005 N 853.036 -3.44021 -4.67579 0
M  V30 9006 H 855.801 -2.92833 -0.637874 0
M  V30 9007 H 853.362 -1.60647 -0.20101 0
M  V30 9008 H 855.354 -2.55201 -3.14093 0
M  V30 9009 H 853.924 -1.58924 -2.69188 0
M  V30 9010 H 853.144 -3.69555 -1.37197 0
M  V30 9011 H 854.432 -4.58704 -2.20154 0
M  V30 9012 H 853.83 -2.86623 -4.87713 0
M  V30 9013 H 852.387 -3.62808 -5.41492 0
M  V30 9014 N 855.82 0.285905 -1.54985 0
M  V30 9015 C 857.068 1.01718 -1.74636 0
M  V30 9016 C 857.389 1.87277 -0.543342 0
M  V30 9017 O 856.659 1.90847 0.442078 0
M  V30 9018 H 855.239 0.378549 -0.643979 0
M  V30 9019 H 857.901 0.313247 -1.92366 0
M  V30 9020 H 856.997 1.66159 -2.64192 0
M  V30 9021 N 857.298 1.47698 0.54982 0
M  V30 9022 C 858.575 1.45185 1.31075 0
M  V30 9023 C 858.955 0.152768 2.10547 0
M  V30 9024 O 858.303 -0.865706 2.11466 0
M  V30 9025 C 858.513 2.70192 2.20902 0
M  V30 9026 C 859.861 3.1771 2.81683 0
M  V30 9027 O 860.885 2.70971 2.312 0
M  V30 9028 O 859.744 3.98986 3.7346 0
M  V30 9029 H 856.838 0.57892 0.590577 0
M  V30 9030 H 859.384 1.59908 0.568112 0
M  V30 9031 H 858.156 3.56269 1.61828 0
M  V30 9032 H 857.779 2.58091 3.02448 0
M  V30 9033 N 858.776 -0.797141 1.35954 0
M  V30 9034 C 860.022 -1.55698 1.29946 0
M  V30 9035 C 860.355 -1.93808 -0.123259 0
M  V30 9036 O 859.63 -1.62102 -1.07486 0
M  V30 9037 C 859.913 -2.83926 2.2149 0
M  V30 9038 C 859.766 -2.52232 3.72423 0
M  V30 9039 C 861.085 -3.85698 2.11955 0
M  V30 9040 H 858.204 -0.56488 0.47337 0
M  V30 9041 H 860.846 -0.916421 1.66438 0
M  V30 9042 H 858.996 -3.38588 1.905 0
M  V30 9043 H 860.668 -2.0368 4.13899 0
M  V30 9044 H 858.911 -1.85286 3.92239 0
M  V30 9045 H 859.582 -3.43782 4.31877 0
M  V30 9046 H 862.058 -3.40462 2.39218 0
M  V30 9047 H 860.934 -4.73182 2.78191 0
M  V30 9048 H 861.195 -4.28083 1.10442 0
M  V30 9049 N 860.254 -1.20106 -1.0204 0
M  V30 9050 C 861.164 -0.962051 -2.13967 0
M  V30 9051 C 862.18 0.0808053 -1.73812 0
M  V30 9052 O 863.356 -0.105774 -2.01122 0
M  V30 9053 C 860.421 -0.513108 -3.42882 0
M  V30 9054 C 859.482 -1.62636 -3.97301 0
M  V30 9055 C 858.715 -1.19875 -5.20063 0
M  V30 9056 O 858.938 -0.0658423 -5.70362 0
M  V30 9057 O 857.872 -2.00467 -5.67536 0
M  V30 9058 H 861.698 -1.8991 -2.36998 0
M  V30 9059 H 859.283 -0.984608 -1.12365 0
M  V30 9060 H 861.165 -0.271797 -4.20523 0
M  V30 9061 H 859.84 0.395402 -3.21276 0
M  V30 9062 H 858.747 -1.92192 -3.20957 0
M  V30 9063 H 860.08 -2.51174 -4.23288 0
M  V30 9064 N 861.732 1.21287 -1.00634 0
M  V30 9065 C 862.979 1.90389 -0.6898 0
M  V30 9066 C 863.307 1.78193 0.779574 0
M  V30 9067 O 862.562 1.15358 1.58085 0
M  V30 9068 C 862.861 3.41374 -1.05824 0
M  V30 9069 C 862.527 3.73766 -2.5221 0
M  V30 9070 C 861.189 3.82317 -2.92211 0
M  V30 9071 C 863.541 3.88871 -3.47028 0
M  V30 9072 C 860.869 4.03423 -4.2599 0
M  V30 9073 C 863.221 4.11484 -4.80483 0
M  V30 9074 C 861.885 4.18263 -5.20204 0
M  V30 9075 H 861.155 0.696683 -0.252416 0
M  V30 9076 H 863.802 1.43769 -1.26502 0
M  V30 9077 H 862.107 3.8974 -0.401281 0
M  V30 9078 H 863.804 3.93118 -0.79116 0
M  V30 9079 H 860.394 3.67702 -2.20212 0
M  V30 9080 H 864.578 3.8163 -3.17289 0
M  V30 9081 H 859.834 4.06902 -4.56334 0
M  V30 9082 H 864.008 4.22115 -5.53888 0
M  V30 9083 H 861.635 4.34369 -6.23881 0
M  V30 9084 N 863.21 0.781244 1.36873 0
M  V30 9085 C 864.44 0.361042 2.03421 0
M  V30 9086 C 864.848 -1.02471 1.59048 0
M  V30 9087 O 864.191 -1.66712 0.771552 0
M  V30 9088 C 864.253 0.336202 3.57924 0
M  V30 9089 C 863.917 1.66815 4.25467 0
M  V30 9090 C 864.914 2.62224 4.48926 0
M  V30 9091 C 862.599 1.9452 4.63106 0
M  V30 9092 C 864.593 3.83538 5.09095 0
M  V30 9093 C 862.28 3.16103 5.22994 0
M  V30 9094 C 863.278 4.10431 5.45926 0
M  V30 9095 O 862.966 5.29871 6.04559 0
M  V30 9096 H 862.698 0.147956 0.65961 0
M  V30 9097 H 865.252 1.05895 1.75998 0
M  V30 9098 H 863.482 -0.418147 3.84433 0
M  V30 9099 H 865.171 -0.0582199 4.05858 0
M  V30 9100 H 865.937 2.42104 4.20251 0
M  V30 9101 H 861.816 1.21921 4.44585 0
M  V30 9102 H 865.36 4.57178 5.2691 0
M  V30 9103 H 861.257 3.36104 5.51094 0
M  V30 9104 H 862.025 5.30825 6.23031 0
M  V30 9105 N 864.689 -1.48329 0.532571 0
M  V30 9106 C 865.621 -2.27652 -0.265931 0
M  V30 9107 C 866.634 -1.35522 -0.902083 0
M  V30 9108 O 867.823 -1.60552 -0.780088 0
M  V30 9109 C 864.923 -3.0899 -1.39207 0
M  V30 9110 C 864.096 -4.28915 -0.857349 0
M  V30 9111 C 863.155 -4.92044 -1.86493 0
M  V30 9112 O 862.181 -5.51181 -1.42084 0
M  V30 9113 N 863.383 -4.84518 -3.19723 0
M  V30 9114 H 866.148 -2.96821 0.414389 0
M  V30 9115 H 863.709 -1.57684 0.367066 0
M  V30 9116 H 865.701 -3.48091 -2.06433 0
M  V30 9117 H 864.271 -2.42224 -1.97601 0
M  V30 9118 H 863.491 -3.94199 -0.00901765 0
M  V30 9119 H 864.779 -5.0654 -0.479025 0
M  V30 9120 H 864.177 -4.37628 -3.58467 0
M  V30 9121 H 862.734 -5.27712 -3.82575 0
M  V30 9122 N 866.167 -0.267825 -1.55308 0
M  V30 9123 C 867.413 0.351556 -1.9973 0
M  V30 9124 C 867.746 1.56049 -1.15596 0
M  V30 9125 O 867.021 1.93203 -0.224274 0
M  V30 9126 C 867.304 0.74091 -3.52395 0
M  V30 9127 C 867.157 -0.474861 -4.47286 0
M  V30 9128 C 868.476 1.5801 -4.10756 0
M  V30 9129 H 865.595 0.126308 -0.726096 0
M  V30 9130 H 868.237 -0.373316 -1.86296 0
M  V30 9131 H 866.387 1.35851 -3.63973 0
M  V30 9132 H 868.059 -1.1134 -4.47662 0
M  V30 9133 H 866.302 -1.11425 -4.19246 0
M  V30 9134 H 866.973 -0.158782 -5.51772 0
M  V30 9135 H 869.449 1.05857 -4.0241 0
M  V30 9136 H 868.325 1.82135 -5.17801 0
M  V30 9137 H 868.586 2.55878 -3.60526 0
M  V30 9138 N 867.645 1.57599 0.00500368 0
M  V30 9139 C 868.575 2.11143 0.99705 0
M  V30 9140 C 869.556 1.0194 1.3617 0
M  V30 9141 O 870.741 1.29596 1.44632 0
M  V30 9142 C 867.871 2.61062 2.2905 0
M  V30 9143 C 866.825 3.74745 2.0676 0
M  V30 9144 C 866.151 4.10961 3.42075 0
M  V30 9145 C 867.451 5.02222 1.43424 0
M  V30 9146 H 869.145 2.94281 0.551251 0
M  V30 9147 H 866.691 1.41565 0.263715 0
M  V30 9148 H 868.644 2.97146 2.98801 0
M  V30 9149 H 867.368 1.75038 2.75734 0
M  V30 9150 H 866.027 3.39047 1.39436 0
M  V30 9151 H 865.675 3.21968 3.86453 0
M  V30 9152 H 865.375 4.87549 3.27979 0
M  V30 9153 H 866.899 4.49599 4.1315 0
M  V30 9154 H 868.313 5.36109 2.03125 0
M  V30 9155 H 866.71 5.83581 1.39831 0
M  V30 9156 H 867.78 4.83224 0.40285 0
M  V30 9157 N 869.123 -0.277682 1.55134 0
M  V30 9158 C 870.053 -1.34742 1.90701 0
M  V30 9159 C 871.034 -1.51757 0.768354 0
M  V30 9160 O 872.219 -1.64879 1.02609 0
M  V30 9161 C 869.349 -2.70775 2.17481 0
M  V30 9162 C 868.303 -2.68497 3.33307 0
M  V30 9163 C 867.629 -4.08037 3.45557 0
M  V30 9164 C 868.929 -2.28178 4.69821 0
M  V30 9165 H 870.623 -1.05224 2.803 0
M  V30 9166 H 868.169 -0.504738 1.34864 0
M  V30 9167 H 870.122 -3.45719 2.40949 0
M  V30 9168 H 868.846 -3.01867 1.24676 0
M  V30 9169 H 867.505 -1.9601 3.09799 0
M  V30 9170 H 867.153 -4.36344 2.50226 0
M  V30 9171 H 866.853 -4.07409 4.23429 0
M  V30 9172 H 868.377 -4.84726 3.71312 0
M  V30 9173 H 869.791 -2.92843 4.92865 0
M  V30 9174 H 868.188 -2.3872 5.50575 0
M  V30 9175 H 869.258 -1.23308 4.6896 0
M  V30 9176 N 870.601 -1.47988 -0.541979 0
M  V30 9177 C 871.85 -1.5465 -1.29485 0
M  V30 9178 C 872.163 -0.220041 -1.94358 0
M  V30 9179 O 873.369 -0.164792 -2.70999 0
M  V30 9180 C 871.825 -2.72685 -2.34885 0
M  V30 9181 C 871.433 -4.11923 -1.76134 0
M  V30 9182 C 873.177 -2.88651 -3.11257 0
M  V30 9183 C 871.084 -5.21237 -2.79404 0
M  V30 9184 H 870.014 -0.575688 -0.486928 0
M  V30 9185 H 872.665 -1.74296 -0.573853 0
M  V30 9186 H 871.047 -2.46448 -3.09966 0
M  V30 9187 H 872.221 -4.48128 -1.07322 0
M  V30 9188 H 870.536 -4.00972 -1.12295 0
M  V30 9189 H 873.133 -3.67487 -3.88404 0
M  V30 9190 H 873.476 -1.97658 -3.66384 0
M  V30 9191 H 874.009 -3.14731 -2.43288 0
M  V30 9192 H 870.748 -6.14156 -2.29113 0
M  V30 9193 H 870.268 -4.89533 -3.4658 0
M  V30 9194 H 871.947 -5.48839 -3.42615 0
M  V30 9195 N 872.079 0.78992 -1.36375 0
M  V30 9196 C 873.029 1.89227 -1.27189 0
M  V30 9197 C 874.013 1.60067 -0.163498 0
M  V30 9198 O 875.205 1.72507 -0.396262 0
M  V30 9199 C 872.334 3.26431 -1.06292 0
M  V30 9200 C 871.42 3.61602 -2.21596 0
M  V30 9201 N 871.811 3.68086 -3.4691 0
M  V30 9202 C 870.109 3.9166 -2.1335 0
M  V30 9203 C 870.81 3.99481 -4.22835 0
M  V30 9204 N 869.786 4.14438 -3.5177 0
M  V30 9205 H 873.588 1.92465 -2.22113 0
M  V30 9206 H 871.102 0.985414 -1.29087 0
M  V30 9207 H 873.099 4.05267 -0.97798 0
M  V30 9208 H 871.759 3.24468 -0.122676 0
M  V30 9209 H 872.77 3.50743 -3.81051 0
M  V30 9210 H 869.447 3.97626 -1.27279 0
M  V30 9211 H 870.837 4.11425 -5.31205 0
M  V30 9212 N 873.557 1.20646 1.01402 0
M  V30 9213 C 874.467 0.973385 2.13453 0
M  V30 9214 C 875.483 -0.0715865 1.73853 0
M  V30 9215 O 876.659 0.116438 2.01063 0
M  V30 9216 C 873.724 0.531285 3.42605 0
M  V30 9217 C 872.785 1.64741 3.96433 0
M  V30 9218 C 872.018 1.22631 5.1942 0
M  V30 9219 O 872.241 0.0960891 5.70319 0
M  V30 9220 O 871.175 2.03474 5.66465 0
M  V30 9221 H 875.001 1.91164 2.35987 0
M  V30 9222 H 872.586 0.990553 1.11841 0
M  V30 9223 H 874.468 0.294095 4.20373 0
M  V30 9224 H 873.143 -0.378358 3.21481 0
M  V30 9225 H 872.05 1.93891 3.19933 0
M  V30 9226 H 873.383 2.53415 4.2195 0
M  V30 9227 N 875.035 -1.20752 1.01276 0
M  V30 9228 C 875.983 -2.25432 0.572989 0
M  V30 9229 C 876.977 -1.64935 -0.386354 0
M  V30 9230 O 878.183 -1.7816 -0.256696 0
M  V30 9231 H 874.558 -0.733229 0.166972 0
M  V30 9232 H 876.529 -2.59856 1.46687 0
M  V30 9233 C 875.278 -3.47615 -0.0768249 0
M  V30 9234 H 874.601 -3.94442 0.652354 0
M  V30 9235 H 876.041 -4.22572 -0.3477 0
M  V30 9236 C 874.5 -3.1003 -1.31845 0
M  V30 9237 O 875.03 -3.21216 -2.41211 0
M  V30 9238 N 873.236 -2.64616 -1.20111 0
M  V30 9239 H 872.783 -2.55714 -0.311184 0
M  V30 9240 H 872.741 -2.39838 -2.03286 0
M  V30 9241 N 876.513 -0.788492 -1.36457 0
M  V30 9242 C 877.759 -0.360995 -1.99561 0
M  V30 9243 C 878.092 1.06433 -1.62437 0
M  V30 9244 O 877.367 1.7352 -0.878705 0
M  V30 9245 C 877.65 -0.523735 -3.56271 0
M  V30 9246 C 877.503 -1.99268 -4.03252 0
M  V30 9247 C 878.822 0.0617908 -4.40057 0
M  V30 9248 H 875.941 -0.13264 -0.724966 0
M  V30 9249 H 878.583 -0.994659 -1.61884 0
M  V30 9250 H 876.733 0.0156979 -3.88497 0
M  V30 9251 H 878.405 -2.59311 -3.81518 0
M  V30 9252 H 876.648 -2.49561 -3.54826 0
M  V30 9253 H 877.319 -2.05752 -5.12221 0
M  V30 9254 H 879.795 -0.398674 -4.14186 0
M  V30 9255 H 878.671 -0.0821089 -5.48839 0
M  V30 9256 H 878.932 1.15381 -4.26778 0
M  V30 9257 N 877.991 1.48044 -0.54043 0
M  V30 9258 C 879.237 2.02797 -0.0101718 0
M  V30 9259 C 879.57 1.41565 1.32939 0
M  V30 9260 O 878.845 0.565139 1.86109 0
M  V30 9261 C 879.128 3.59959 0.100758 0
M  V30 9262 C 878.981 4.31654 -1.26471 0
M  V30 9263 C 880.3 4.32347 0.822455 0
M  V30 9264 H 877.419 0.736982 -0.00517052 0
M  V30 9265 H 880.061 1.76656 -0.69948 0
M  V30 9266 H 878.211 3.82363 0.687824 0
M  V30 9267 H 879.883 4.20639 -1.89369 0
M  V30 9268 H 878.126 3.92663 -1.84386 0
M  V30 9269 H 878.797 5.401 -1.13998 0
M  V30 9270 H 881.273 4.14835 0.324164 0
M  V30 9271 H 880.149 5.41978 0.868993 0
M  V30 9272 H 880.41 4.00369 1.87501 0
M  V30 9273 N 879.47 0.276058 1.55163 0
M  V30 9274 C 880.719 -0.341098 1.98795 0
M  V30 9275 C 881.032 -1.56905 1.16791 0
M  V30 9276 O 882.238 -2.25922 1.50571 0
M  V30 9277 C 880.694 -0.658231 3.5383 0
M  V30 9278 C 880.302 0.549972 4.44611 0
M  V30 9279 C 882.046 -1.23796 4.06048 0
M  V30 9280 C 879.953 0.207373 5.91036 0
M  V30 9281 H 878.883 -0.131224 0.742493 0
M  V30 9282 H 881.534 0.380858 1.79504 0
M  V30 9283 H 879.916 -1.43911 3.68925 0
M  V30 9284 H 881.09 1.32681 4.41285 0
M  V30 9285 H 879.405 1.04661 4.03032 0
M  V30 9286 H 882.002 -1.50811 5.12991 0
M  V30 9287 H 882.345 -2.17214 3.55139 0
M  V30 9288 H 882.878 -0.519345 3.94395 0
M  V30 9289 H 879.617 1.10946 6.46043 0
M  V30 9290 H 879.137 -0.532687 5.9743 0
M  V30 9291 H 880.816 -0.200072 6.46691 0
M  V30 9292 N 880.948 -1.576 0.00335426 0
M  V30 9293 C 881.895 -2.08632 -0.986975 0
M  V30 9294 C 882.865 -0.982491 -1.33927 0
M  V30 9295 O 884.05 -1.25513 -1.43705 0
M  V30 9296 C 881.19 -2.59705 -2.27261 0
M  V30 9297 C 880.303 -3.84002 -1.97905 0
M  V30 9298 C 879.438 -4.23563 -3.20574 0
M  V30 9299 C 878.477 -5.40688 -2.8692 0
M  V30 9300 N 877.614 -5.75526 -4.02136 0
M  V30 9301 H 882.454 -2.92977 -0.544855 0
M  V30 9302 H 879.991 -1.44831 -0.257376 0
M  V30 9303 H 881.949 -2.87395 -3.02423 0
M  V30 9304 H 880.579 -1.7823 -2.69136 0
M  V30 9305 H 879.631 -3.63199 -1.13096 0
M  V30 9306 H 880.943 -4.69261 -1.69102 0
M  V30 9307 H 880.097 -4.52554 -4.04079 0
M  V30 9308 H 878.836 -3.37019 -3.52518 0
M  V30 9309 H 877.841 -5.11417 -2.01822 0
M  V30 9310 H 879.066 -6.2891 -2.5622 0
M  V30 9311 H 877.012 -4.9194 -4.33971 0
M  V30 9312 H 876.929 -6.55367 -3.76869 0
M  V30 9313 H 878.197 -6.0911 -4.8642 0
M  V30 9314 N 882.426 0.269451 -1.5528 0
M  V30 9315 C 883.374 1.35303 -1.89198 0
M  V30 9316 C 884.368 1.50956 -0.768671 0
M  V30 9317 O 885.574 1.52699 -0.953054 0
M  V30 9318 H 881.949 0.452591 -0.600554 0
M  V30 9319 H 883.92 1.03949 -2.79709 0
M  V30 9320 C 882.669 2.70585 -2.18356 0
M  V30 9321 H 881.992 2.59332 -3.04281 0
M  V30 9322 H 883.432 3.45335 -2.46007 0
M  V30 9323 C 881.891 3.21954 -0.992327 0
M  V30 9324 O 882.421 4.01048 -0.228769 0
M  V30 9325 N 880.627 2.79682 -0.789062 0
M  V30 9326 H 880.174 2.15475 -1.41167 0
M  V30 9327 H 880.132 3.14399 0.00634776 0
M  V30 9328 N 883.904 1.48273 0.534124 0
M  V30 9329 C 884.814 1.65162 1.66609 0
M  V30 9330 C 885.83 0.534177 1.65598 0
M  V30 9331 O 887.006 0.804715 1.84625 0
M  V30 9332 C 884.071 1.68354 3.03081 0
M  V30 9333 C 883.132 2.91696 3.1498 0
M  V30 9334 C 882.365 2.94725 4.44941 0
M  V30 9335 O 882.588 2.06285 5.31792 0
M  V30 9336 O 881.522 3.8685 4.61119 0
M  V30 9337 H 885.348 2.60991 1.55298 0
M  V30 9338 H 882.933 1.31626 0.706749 0
M  V30 9339 H 884.815 1.72998 3.84252 0
M  V30 9340 H 883.49 0.756978 3.14725 0
M  V30 9341 H 882.397 2.92586 2.33119 0
M  V30 9342 H 883.73 3.83722 3.0825 0
M  V30 9343 N 885.382 -0.782676 1.36792 0
M  V30 9344 C 886.607 -1.57676 1.34733 0
M  V30 9345 C 887.032 -1.87979 -0.0675253 0
M  V30 9346 O 886.39 -1.48404 -1.04144 0
M  V30 9347 C 886.438 -2.87047 2.18257 0
M  V30 9348 O 885.542 -3.80946 1.57969 0
M  V30 9349 H 884.883 -0.478034 0.460846 0
M  V30 9350 H 887.413 -0.969578 1.80168 0
M  V30 9351 H 887.423 -3.36254 2.31079 0
M  V30 9352 H 886.098 -2.64319 3.21104 0
M  V30 9353 H 884.675 -3.39558 1.54126 0
M  V30 9354 N 886.86 -1.21182 -1.00761 0
M  V30 9355 C 888.109 -1.02166 -1.73911 0
M  V30 9356 C 888.422 0.445638 -1.90456 0
M  V30 9357 O 889.628 0.755132 -2.60787 0
M  V30 9358 C 888.084 -1.77936 -3.12837 0
M  V30 9359 C 887.692 -3.28819 -3.04273 0
M  V30 9360 C 889.436 -1.67319 -3.90134 0
M  V30 9361 C 887.343 -3.97089 -4.38262 0
M  V30 9362 H 886.273 -0.378665 -0.652019 0
M  V30 9363 H 888.924 -1.44891 -1.12601 0
M  V30 9364 H 887.306 -1.28003 -3.74742 0
M  V30 9365 H 888.48 -3.86035 -2.51622 0
M  V30 9366 H 886.795 -3.39949 -2.40465 0
M  V30 9367 H 889.392 -2.15659 -4.8928 0
M  V30 9368 H 889.735 -0.630959 -4.11491 0
M  V30 9369 H 890.268 -2.14716 -3.34876 0
M  V30 9370 H 887.007 -5.01503 -4.22107 0
M  V30 9371 H 886.527 -3.44662 -4.90885 0
M  V30 9372 H 888.206 -4.01854 -5.07072 0
M  V30 9373 N 888.338 1.20213 -1.01915 0
M  V30 9374 C 889.563 1.94163 -0.729076 0
M  V30 9375 C 889.988 1.74416 0.704323 0
M  V30 9376 O 889.346 1.0401 1.48498 0
M  V30 9377 C 889.394 3.44258 -1.07324 0
M  V30 9378 O 888.498 4.11979 -0.186367 0
M  V30 9379 H 887.839 0.606506 -0.270272 0
M  V30 9380 H 890.369 1.52571 -1.3632 0
M  V30 9381 H 890.379 3.94888 -1.02603 0
M  V30 9382 H 889.054 3.57954 -2.11759 0
M  V30 9383 H 887.631 3.7176 -0.291334 0
M  V30 9384 N 889.816 0.795718 1.36037 0
M  V30 9385 C 891.041 0.38204 2.03851 0
M  V30 9386 C 891.466 -0.995553 1.59594 0
M  V30 9387 O 890.824 -1.64258 0.767401 0
M  V30 9388 C 890.872 0.461248 3.57638 0
M  V30 9389 O 889.976 -0.529448 4.08987 0
M  V30 9390 H 889.317 0.161227 0.644129 0
M  V30 9391 H 891.847 1.07858 1.73861 0
M  V30 9392 H 891.857 0.32712 4.06687 0
M  V30 9393 H 890.532 1.46613 3.89201 0
M  V30 9394 H 889.109 -0.35646 3.71192 0
M  V30 9395 N 891.294 -1.47756 0.548274 0
M  V30 9396 C 892.204 -2.33678 -0.207773 0
M  V30 9397 C 893.22 -1.47636 -0.920843 0
M  V30 9398 O 894.396 -1.80583 -0.89173 0
M  V30 9399 C 891.461 -3.24147 -1.23003 0
M  V30 9400 C 890.522 -4.26073 -0.52535 0
M  V30 9401 C 889.755 -5.12219 -1.4989 0
M  V30 9402 O 889.978 -5.0066 -2.73305 0
M  V30 9403 O 888.912 -5.93051 -1.02828 0
M  V30 9404 H 892.738 -2.99609 0.496794 0
M  V30 9405 H 890.323 -1.4617 0.308982 0
M  V30 9406 H 892.205 -3.80055 -1.82034 0
M  V30 9407 H 890.88 -2.60855 -1.91668 0
M  V30 9408 H 889.787 -3.7395 0.105927 0
M  V30 9409 H 891.12 -4.92054 0.119686 0
M  V30 9410 N 892.772 -0.284283 -1.55015 0
M  V30 9411 C 894 0.332948 -2.04203 0
M  V30 9412 C 894.415 1.48783 -1.16229 0
M  V30 9413 O 893.772 1.81567 -0.184323 0
M  V30 9414 C 893.823 0.805207 -3.52418 0
M  V30 9415 O 893.544 -0.303689 -4.37046 0
M  V30 9416 C 895.045 1.48931 -4.17534 0
M  V30 9417 H 892.265 0.0747447 -0.666824 0
M  V30 9418 H 894.809 -0.419048 -2.00161 0
M  V30 9419 H 892.964 1.50727 -3.56876 0
M  V30 9420 H 893.378 0.0609703 -5.24465 0
M  V30 9421 H 894.852 1.77108 -5.22816 0
M  V30 9422 H 895.329 2.42389 -3.66257 0
M  V30 9423 H 895.935 0.830867 -4.17105 0
M  V30 9424 N 894.251 1.57596 -0.0117121 0
M  V30 9425 C 895.476 1.95764 0.684938 0
M  V30 9426 C 895.901 0.887285 1.65858 0
M  V30 9427 O 895.259 -0.153508 1.80649 0
M  V30 9428 C 895.307 3.33031 1.38285 0
M  V30 9429 O 894.411 3.28163 2.49765 0
M  V30 9430 H 893.752 0.638767 0.181309 0
M  V30 9431 H 896.282 2.04486 -0.0683883 0
M  V30 9432 H 896.292 3.68866 1.74362 0
M  V30 9433 H 894.967 4.10483 0.669043 0
M  V30 9434 H 893.544 3.04021 2.15929 0
M  V30 9435 N 895.729 -0.261212 1.5542 0
M  V30 9436 C 897.145 -0.609012 1.47524 0
M  V30 9437 C 897.345 -1.88986 0.699042 0
M  V30 9438 O 896.401 -2.51517 0.222628 0
M  V30 9439 C 897.714 -0.725025 2.91828 0
M  V30 9440 C 899.262 -0.818302 3.02114 0
M  V30 9441 C 899.737 -0.965996 4.47697 0
M  V30 9442 N 901.228 -1.03123 4.51575 0
M  V30 9443 C 901.963 -1.16451 5.6145 0
M  V30 9444 N 901.459 -1.26425 6.81167 0
M  V30 9445 N 903.252 -1.19655 5.49217 0
M  V30 9446 H 895.403 0.579807 2.04333 0
M  V30 9447 H 897.666 0.198072 0.927077 0
M  V30 9448 H 897.372 0.145871 3.51397 0
M  V30 9449 H 897.246 -1.60156 3.41511 0
M  V30 9450 H 899.633 -1.67966 2.42634 0
M  V30 9451 H 899.714 0.0830895 2.55665 0
M  V30 9452 H 899.358 -0.109251 5.07782 0
M  V30 9453 H 899.288 -1.88221 4.91813 0
M  V30 9454 H 901.779 -0.966072 3.65343 0
M  V30 9455 H 902.092 -1.36462 7.60656 0
M  V30 9456 H 900.437 -1.23408 6.83956 0
M  V30 9457 H 903.628 -1.11501 4.54626 0
M  V30 9458 H 903.801 -1.29698 6.34888 0
M  V30 9459 N 897.207 -1.48554 -0.526253 0
M  V30 9460 C 898.437 -1.60197 -1.30463 0
M  V30 9461 C 898.845 -0.26278 -1.87366 0
M  V30 9462 O 898.188 0.758537 -1.67308 0
M  V30 9463 C 898.25 -2.59223 -2.49085 0
M  V30 9464 C 897.914 -4.04199 -2.13241 0
M  V30 9465 C 898.911 -4.91771 -1.68694 0
M  V30 9466 C 896.596 -4.49762 -2.2365 0
M  V30 9467 C 898.59 -6.22934 -1.35026 0
M  V30 9468 C 896.277 -5.80945 -1.89594 0
M  V30 9469 C 897.275 -6.67354 -1.45353 0
M  V30 9470 O 896.963 -7.96096 -1.11745 0
M  V30 9471 H 896.695 -0.54284 -0.402866 0
M  V30 9472 H 899.249 -1.95137 -0.641157 0
M  V30 9473 H 897.479 -2.19412 -3.18426 0
M  V30 9474 H 899.168 -2.60661 -3.11144 0
M  V30 9475 H 899.934 -4.57806 -1.6012 0
M  V30 9476 H 895.813 -3.8269 -2.5704 0
M  V30 9477 H 899.357 -6.90334 -1.00422 0
M  V30 9478 H 895.254 -6.14444 -1.9781 0
M  V30 9479 H 896.022 -8.08882 -1.25111 0
M  V30 9480 N 898.685 0.775411 -1.37205 0
M  V30 9481 C 899.91 1.5696 -1.35567 0
M  V30 9482 C 900.335 1.88012 0.0575554 0
M  V30 9483 O 899.693 1.48954 1.03355 0
M  V30 9484 C 899.741 2.85886 -2.19776 0
M  V30 9485 O 898.845 3.80103 -1.59987 0
M  V30 9486 H 898.186 0.475583 -0.463375 0
M  V30 9487 H 900.716 0.96001 -1.80679 0
M  V30 9488 H 900.726 3.35024 -2.32859 0
M  V30 9489 H 899.401 2.62613 -3.22502 0
M  V30 9490 H 897.978 3.38736 -1.55924 0
M  V30 9491 N 900.163 1.21714 1.00117 0
M  V30 9492 C 901.41 1.0367 1.73951 0
M  V30 9493 C 901.738 -0.429289 1.89703 0
M  V30 9494 O 900.993 -1.33475 1.43119 0
M  V30 9495 C 901.292 1.68345 3.15269 0
M  V30 9496 C 900.958 3.18214 3.19454 0
M  V30 9497 C 899.62 3.59109 3.20303 0
M  V30 9498 C 901.972 4.14179 3.16394 0
M  V30 9499 C 899.3 4.94467 3.15783 0
M  V30 9500 C 901.652 5.49502 3.13416 0
M  V30 9501 C 900.316 5.8979 3.12577 0
M  V30 9502 H 899.586 0.379355 0.63653 0
M  V30 9503 H 902.233 1.51361 1.17312 0
M  V30 9504 H 900.538 1.12957 3.75164 0
M  V30 9505 H 902.235 1.51882 3.71124 0
M  V30 9506 H 898.825 2.85646 3.19538 0
M  V30 9507 H 903.009 3.83607 3.14895 0
M  V30 9508 H 898.265 5.24923 3.13473 0
M  V30 9509 H 902.439 6.23595 3.10003 0
M  V30 9510 H 900.066 6.94643 3.08829 0
M  V30 9511 N 901.641 -1.19671 1.02551 0
M  V30 9512 C 902.591 -2.20655 0.574037 0
M  V30 9513 C 903.575 -1.56459 -0.375412 0
M  V30 9514 O 904.767 -1.75901 -0.196929 0
M  V30 9515 C 901.896 -3.43213 -0.0772031 0
M  V30 9516 C 900.982 -4.1456 0.894485 0
M  V30 9517 N 901.373 -4.62147 2.05557 0
M  V30 9518 C 899.671 -4.40196 0.717205 0
M  V30 9519 C 900.372 -5.16899 2.66814 0
M  V30 9520 N 899.348 -5.07496 1.94804 0
M  V30 9521 H 903.15 -2.55124 1.45908 0
M  V30 9522 H 900.664 -1.35707 0.89204 0
M  V30 9523 H 902.661 -4.14797 -0.41824 0
M  V30 9524 H 901.321 -3.10247 -0.957973 0
M  V30 9525 H 902.332 -4.5708 2.43513 0
M  V30 9526 H 899.009 -4.17342 -0.114758 0
M  V30 9527 H 900.399 -5.64032 3.65126 0
M  V30 9528 N 903.119 -0.802921 -1.35613 0
M  V30 9529 C 904.344 -0.392846 -2.03645 0
M  V30 9530 C 904.769 0.987075 -1.6012 0
M  V30 9531 O 904.127 1.63849 -0.776101 0
M  V30 9532 C 904.175 -0.480208 -3.57388 0
M  V30 9533 O 903.279 0.507751 -4.09262 0
M  V30 9534 H 902.62 -0.16464 -0.643265 0
M  V30 9535 H 905.15 -1.08779 -1.73287 0
M  V30 9536 H 905.16 -0.348683 -4.06507 0
M  V30 9537 H 903.835 -1.48675 -3.88418 0
M  V30 9538 H 902.412 0.336769 -3.71376 0
M  V30 9539 N 904.597 1.47463 -0.556102 0
M  V30 9540 C 905.527 2.32801 0.180497 0
M  V30 9541 C 906.508 1.43721 0.909848 0
M  V30 9542 O 907.693 1.72578 0.89053 0
M  V30 9543 C 904.823 3.25478 1.21167 0
M  V30 9544 C 903.777 4.2379 0.598846 0
M  V30 9545 C 903.103 5.05783 1.73457 0
M  V30 9546 C 904.403 5.20387 -0.446659 0
M  V30 9547 H 906.097 2.94636 -0.531956 0
M  V30 9548 H 903.643 1.41683 -0.257267 0
M  V30 9549 H 905.596 3.8402 1.73513 0
M  V30 9550 H 904.32 2.61695 1.95405 0
M  V30 9551 H 902.979 3.66472 0.0966897 0
M  V30 9552 H 902.627 4.38405 2.46596 0
M  V30 9553 H 902.327 5.72343 1.33031 0
M  V30 9554 H 903.851 5.67183 2.26131 0
M  V30 9555 H 905.265 5.73299 -0.00930019 0
M  V30 9556 H 903.662 5.95143 -0.769735 0
M  V30 9557 H 904.732 4.65932 -1.34295 0
M  V30 9558 N 906.075 0.2925 1.54862 0
M  V30 9559 C 907.022 -0.587365 2.23201 0
M  V30 9560 C 907.992 -1.13623 1.21157 0
M  V30 9561 O 909.177 -1.18233 1.49752 0
M  V30 9562 C 906.317 -1.75745 2.96998 0
M  V30 9563 C 905.43 -1.24078 4.13798 0
M  V30 9564 C 904.565 -2.37405 4.75197 0
M  V30 9565 C 903.604 -1.82829 5.84157 0
M  V30 9566 N 902.741 -2.89696 6.39547 0
M  V30 9567 H 907.581 0.00202207 2.98 0
M  V30 9568 H 905.118 0.012766 1.47094 0
M  V30 9569 H 907.076 -2.44549 3.38011 0
M  V30 9570 H 905.706 -2.3186 2.24591 0
M  V30 9571 H 904.758 -0.445268 3.77785 0
M  V30 9572 H 906.07 -0.801186 4.92324 0
M  V30 9573 H 905.224 -3.14172 5.19019 0
M  V30 9574 H 903.963 -2.84688 3.95985 0
M  V30 9575 H 902.968 -1.04548 5.39768 0
M  V30 9576 H 904.193 -1.36461 6.65248 0
M  V30 9577 H 902.139 -3.36328 5.63222 0
M  V30 9578 H 902.056 -2.50206 7.13395 0
M  V30 9579 H 903.324 -3.66386 6.88027 0
M  V30 9580 N 907.553 -1.57587 0.0200696 0
M  V30 9581 C 908.778 -1.96124 -0.674547 0
M  V30 9582 C 909.203 -0.896068 -1.65385 0
M  V30 9583 O 908.561 0.143925 -1.80728 0
M  V30 9584 C 908.609 -3.3376 -1.36517 0
M  V30 9585 O 907.713 -3.29483 -2.48022 0
M  V30 9586 H 907.054 -0.639719 -0.177919 0
M  V30 9587 H 909.584 -2.04447 0.0792317 0
M  V30 9588 H 909.594 -3.69785 -1.72403 0
M  V30 9589 H 908.269 -4.10832 -0.647265 0
M  V30 9590 H 906.846 -3.05162 -2.14314 0
M  V30 9591 N 909.032 0.252966 -1.55557 0
M  V30 9592 C 910.28 0.979912 -1.76754 0
M  V30 9593 C 910.601 1.86083 -0.582944 0
M  V30 9594 O 909.871 1.91742 0.401497 0
M  V30 9595 H 908.451 0.364805 -0.651864 0
M  V30 9596 H 911.113 0.272372 -1.92987 0
M  V30 9597 H 910.209 1.60518 -2.67657 0
M  V30 9598 N 910.51 1.48831 0.518367 0
M  V30 9599 C 911.735 1.61379 1.30275 0
M  V30 9600 C 912.16 0.278571 1.86026 0
M  V30 9601 O 911.518 -0.751427 1.64995 0
M  V30 9602 C 911.566 2.67225 2.42122 0
M  V30 9603 O 910.67 2.25192 3.45489 0
M  V30 9604 H 910.011 0.540742 0.385349 0
M  V30 9605 H 912.541 1.949 0.622498 0
M  V30 9606 H 912.551 2.88859 2.8814 0
M  V30 9607 H 911.226 3.64155 2.00907 0
M  V30 9608 H 909.803 2.13819 3.05509 0
M  V30 9609 N 911.988 -0.768124 1.37614 0
M  V30 9610 C 912.918 -1.89537 1.36374 0
M  V30 9611 C 913.899 -1.68513 0.231803 0
M  V30 9612 O 915.084 -1.89318 0.432705 0
M  V30 9613 C 912.214 -3.26871 1.17358 0
M  V30 9614 C 911.168 -3.62466 2.27602 0
M  V30 9615 C 910.494 -4.9838 1.93705 0
M  V30 9616 C 911.794 -3.68841 3.69802 0
M  V30 9617 H 913.488 -1.90832 2.30702 0
M  V30 9618 H 911.034 -0.91672 1.11051 0
M  V30 9619 H 912.987 -4.05371 1.15119 0
M  V30 9620 H 911.711 -3.26018 0.194865 0
M  V30 9621 H 910.37 -2.86276 2.29002 0
M  V30 9622 H 910.018 -4.94071 0.943539 0
M  V30 9623 H 909.718 -5.23165 2.6753 0
M  V30 9624 H 911.242 -5.79276 1.93059 0
M  V30 9625 H 912.656 -4.37485 3.70513 0
M  V30 9626 H 911.053 -4.05126 4.42711 0
M  V30 9627 H 912.123 -2.69415 4.03167 0
M  V30 9628 N 913.466 -1.22244 -0.994698 0
M  V30 9629 C 914.696 -1.07062 -1.76695 0
M  V30 9630 C 915.104 0.381895 -1.85306 0
M  V30 9631 O 914.447 1.27648 -1.32105 0
M  V30 9632 C 914.509 -1.60487 -3.2169 0
M  V30 9633 C 914.173 -3.09079 -3.36629 0
M  V30 9634 C 915.17 -4.06526 -3.24088 0
M  V30 9635 C 912.855 -3.48497 -3.61739 0
M  V30 9636 C 914.849 -5.41377 -3.36437 0
M  V30 9637 C 912.536 -4.83498 -3.73729 0
M  V30 9638 C 913.534 -5.79747 -3.61086 0
M  V30 9639 O 913.222 -7.12297 -3.72678 0
M  V30 9640 H 912.954 -0.375963 -0.561807 0
M  V30 9641 H 915.508 -1.62259 -1.25941 0
M  V30 9642 H 913.738 -0.996957 -3.73628 0
M  V30 9643 H 915.427 -1.40994 -3.80625 0
M  V30 9644 H 916.193 -3.77415 -3.04602 0
M  V30 9645 H 912.072 -2.74106 -3.70657 0
M  V30 9646 H 915.616 -6.16485 -3.26485 0
M  V30 9647 H 911.513 -5.1229 -3.92721 0
M  V30 9648 H 912.281 -7.1985 -3.89562 0
M  V30 9649 N 914.944 1.19125 -1.03184 0
M  V30 9650 C 916.169 1.93379 -0.749628 0
M  V30 9651 C 916.594 1.75153 0.685785 0
M  V30 9652 O 915.952 1.05579 1.47386 0
M  V30 9653 C 916 3.43101 -1.1097 0
M  V30 9654 O 915.104 4.11758 -0.230053 0
M  V30 9655 H 914.445 0.603605 -0.276689 0
M  V30 9656 H 916.975 1.51116 -1.37931 0
M  V30 9657 H 916.985 3.93778 -1.06785 0
M  V30 9658 H 915.66 3.55688 -2.15544 0
M  V30 9659 H 914.237 3.7143 -0.330748 0
M  V30 9660 N 916.422 0.810101 1.35185 0
M  V30 9661 C 917.668 0.392698 1.98962 0
M  V30 9662 C 918.001 -1.03835 1.64109 0
M  V30 9663 O 917.276 -1.721 0.9062 0
M  V30 9664 C 917.559 0.580349 3.55393 0
M  V30 9665 C 917.412 2.05658 4.00031 0
M  V30 9666 C 918.731 0.00822618 4.40099 0
M  V30 9667 H 915.85 0.144157 0.722764 0
M  V30 9668 H 918.492 1.02029 1.60281 0
M  V30 9669 H 916.642 0.0461106 3.88473 0
M  V30 9670 H 918.314 2.65348 3.77344 0
M  V30 9671 H 916.557 2.55174 3.50811 0
M  V30 9672 H 917.228 2.13875 5.08883 0
M  V30 9673 H 919.704 0.464517 4.13499 0
M  V30 9674 H 918.58 0.169414 5.48638 0
M  V30 9675 H 918.841 -1.08576 4.2856 0
M  V30 9676 N 917.9 -1.47166 0.563914 0
M  V30 9677 C 919.146 -2.02756 0.0424338 0
M  V30 9678 C 919.479 -1.43662 -1.3067 0
M  V30 9679 O 918.754 -0.594676 -1.85186 0
M  V30 9680 C 919.037 -3.60074 -0.0434793 0
M  V30 9681 C 918.89 -4.29587 1.33323 0
M  V30 9682 C 920.209 -4.336 -0.753568 0
M  V30 9683 H 917.328 -0.736806 0.0168946 0
M  V30 9684 H 919.97 -1.75521 0.727496 0
M  V30 9685 H 918.12 -3.83409 -0.626906 0
M  V30 9686 H 919.792 -4.17573 1.96037 0
M  V30 9687 H 918.035 -3.8968 1.9061 0
M  V30 9688 H 918.706 -5.38218 1.22576 0
M  V30 9689 H 921.182 -4.15299 -0.258126 0
M  V30 9690 H 920.058 -5.43291 -0.782659 0
M  V30 9691 H 920.319 -4.03302 -1.81108 0
M  V30 9692 N 919.378 -0.300708 -1.54705 0
M  V30 9693 C 920.624 0.309111 -2.0043 0
M  V30 9694 C 920.957 1.53562 -1.1888 0
M  V30 9695 O 920.232 1.92683 -0.265205 0
M  V30 9696 C 920.515 0.665995 -3.53888 0
M  V30 9697 C 920.368 -0.56963 -4.46178 0
M  V30 9698 C 921.687 1.49262 -4.14016 0
M  V30 9699 H 918.806 0.110878 -0.728612 0
M  V30 9700 H 921.448 -0.412748 -1.85463 0
M  V30 9701 H 919.598 1.281 -3.66773 0
M  V30 9702 H 921.27 -1.20811 -4.45199 0
M  V30 9703 H 919.513 -1.20292 -4.16788 0
M  V30 9704 H 920.184 -0.275785 -5.51311 0
M  V30 9705 H 922.66 0.972979 -4.04564 0
M  V30 9706 H 921.536 1.71111 -5.21548 0
M  V30 9707 H 921.797 2.48174 -3.65872 0
M  V30 9708 N 920.856 1.57574 -0.0284266 0
M  V30 9709 C 922.084 1.96071 0.660575 0
M  V30 9710 C 922.499 0.904881 1.65703 0
M  V30 9711 O 921.856 -0.113379 1.82147 0
M  V30 9712 C 921.907 3.34634 1.36756 0
M  V30 9713 O 921.628 4.36167 0.411041 0
M  V30 9714 C 923.129 3.87758 2.14845 0
M  V30 9715 H 920.349 0.645794 0.182183 0
M  V30 9716 H 922.893 2.04311 -0.0879858 0
M  V30 9717 H 921.048 3.27616 2.06753 0
M  V30 9718 H 921.462 5.16493 0.913 0
M  V30 9719 H 922.936 4.87058 2.59767 0
M  V30 9720 H 923.413 3.21967 2.9872 0
M  V30 9721 H 924.019 3.98043 1.49807 0
M  V30 9722 N 922.334 -0.244713 1.55689 0
M  V30 9723 C 923.562 -0.989944 1.8168 0
M  V30 9724 C 923.977 -1.78863 0.604449 0
M  V30 9725 O 923.334 -1.77437 -0.426907 0
M  V30 9726 C 923.385 -1.92607 3.05916 0
M  V30 9727 O 923.106 -1.1597 4.22472 0
M  V30 9728 C 924.607 -2.78711 3.44724 0
M  V30 9729 H 921.827 -0.2912 0.604519 0
M  V30 9730 H 924.371 -0.266938 2.0275 0
M  V30 9731 H 922.526 -2.60333 2.8689 0
M  V30 9732 H 922.94 -1.79311 4.92898 0
M  V30 9733 H 924.414 -3.40141 4.34751 0
M  V30 9734 H 924.891 -3.49935 2.6541 0
M  V30 9735 H 925.497 -2.16435 3.66109 0
M  V30 9736 N 923.813 -1.49104 -0.510467 0
M  V30 9737 C 925.059 -1.58346 -1.26705 0
M  V30 9738 C 925.392 -0.265121 -1.92382 0
M  V30 9739 O 924.667 0.730558 -1.80258 0
M  V30 9740 C 924.95 -2.7359 -2.34137 0
M  V30 9741 C 924.803 -4.1519 -1.73024 0
M  V30 9742 C 926.122 -2.84511 -3.3577 0
M  V30 9743 H 923.241 -0.57637 -0.459311 0
M  V30 9744 H 925.883 -1.81353 -0.566658 0
M  V30 9745 H 924.033 -2.54105 -2.93876 0
M  V30 9746 H 925.705 -4.46167 -1.17186 0
M  V30 9747 H 923.948 -4.21279 -1.03473 0
M  V30 9748 H 924.619 -4.91683 -2.50903 0
M  V30 9749 H 927.095 -3.0222 -2.86011 0
M  V30 9750 H 925.971 -3.6684 -4.08313 0
M  V30 9751 H 926.232 -1.93471 -3.97519 0
M  V30 9752 N 925.291 0.760815 -1.38019 0
M  V30 9753 C 926.516 1.55513 -1.37224 0
M  V30 9754 C 926.941 1.88062 0.037611 0
M  V30 9755 O 926.299 1.50042 1.0177 0
M  V30 9756 C 926.347 2.83539 -2.22796 0
M  V30 9757 O 925.451 3.78384 -1.64009 0
M  V30 9758 H 924.792 0.470642 -0.468393 0
M  V30 9759 H 927.322 0.940792 -1.81687 0
M  V30 9760 H 927.332 3.32535 -2.36399 0
M  V30 9761 H 926.007 2.59178 -3.25269 0
M  V30 9762 H 924.584 3.37063 -1.59508 0
M  V30 9763 N 926.769 1.22769 0.988202 0
M  V30 9764 C 928.017 1.05301 1.725 0
M  V30 9765 C 928.338 -0.412103 1.90596 0
M  V30 9766 O 927.608 -1.29606 1.46898 0
M  V30 9767 H 926.188 0.386658 0.639144 0
M  V30 9768 H 928.85 1.54359 1.18993 0
M  V30 9769 H 927.946 1.53465 2.71763 0
M  V30 9770 N 928.247 -1.18576 1.03814 0
M  V30 9771 C 929.495 -1.88121 0.738574 0
M  V30 9772 C 929.816 -1.80587 -0.735744 0
M  V30 9773 O 929.086 -1.22251 -1.53074 0
M  V30 9774 H 927.666 -0.696417 0.270208 0
M  V30 9775 H 930.328 -1.43912 1.31435 0
M  V30 9776 H 929.424 -2.94222 1.04115 0
M  V30 9777 N 929.725 -0.817259 -1.34754 0
M  V30 9778 C 930.974 -0.39908 -1.97713 0
M  V30 9779 C 931.287 1.04203 -1.65533 0
M  V30 9780 O 932.493 1.56384 -2.21937 0
M  V30 9781 C 930.949 -0.662634 -3.53747 0
M  V30 9782 C 930.557 -2.11699 -3.94826 0
M  V30 9783 C 932.301 -0.31034 -4.23364 0
M  V30 9784 C 930.208 -2.32573 -5.4375 0
M  V30 9785 H 929.138 -0.145488 -0.739831 0
M  V30 9786 H 931.789 -1.00282 -1.53674 0
M  V30 9787 H 930.171 0.0111972 -3.95998 0
M  V30 9788 H 931.345 -2.82951 -3.63697 0
M  V30 9789 H 929.66 -2.43017 -3.3813 0
M  V30 9790 H 932.257 -0.44421 -5.32852 0
M  V30 9791 H 932.6 0.744594 -4.09587 0
M  V30 9792 H 933.133 -0.938518 -3.8657 0
M  V30 9793 H 929.872 -3.36551 -5.62507 0
M  V30 9794 H 929.392 -1.65858 -5.76412 0
M  V30 9795 H 931.071 -2.14651 -6.10356 0
M  V30 9796 N 931.203 1.46865 -0.571711 0
M  V30 9797 C 932.428 2.07323 -0.0564655 0
M  V30 9798 C 932.853 1.41938 1.23431 0
M  V30 9799 O 932.211 0.499334 1.74288 0
M  V30 9800 C 932.259 3.6044 0.107339 0
M  V30 9801 O 931.363 3.95558 1.1665 0
M  V30 9802 H 930.704 0.661475 -0.0578465 0
M  V30 9803 H 933.234 1.88669 -0.791524 0
M  V30 9804 H 933.244 4.06767 0.316987 0
M  V30 9805 H 931.919 4.07425 -0.835348 0
M  V30 9806 H 930.496 3.60957 0.936189 0
M  V30 9807 N 932.681 0.308908 1.54543 0
M  V30 9808 C 933.906 -0.303196 2.05172 0
M  V30 9809 C 934.331 -1.46133 1.18434 0
M  V30 9810 O 933.689 -1.803 0.190162 0
M  V30 9811 C 933.737 -0.729526 3.53143 0
M  V30 9812 O 932.841 -1.83348 3.69401 0
M  V30 9813 H 932.182 -0.0575066 0.661505 0
M  V30 9814 H 934.712 0.453055 1.99521 0
M  V30 9815 H 934.722 -1.01619 3.95143 0
M  V30 9816 H 933.397 0.117622 4.15734 0
M  V30 9817 H 931.974 -1.54676 3.39308 0
M  V30 9818 N 934.159 -1.57557 0.0367827 0
M  V30 9819 C 935.575 -1.56366 -0.31967 0
M  V30 9820 C 935.775 -1.04313 -1.72398 0
M  V30 9821 O 934.831 -0.693278 -2.42796 0
M  V30 9822 C 936.144 -3.00267 -0.161274 0
M  V30 9823 C 937.692 -3.12128 -0.233464 0
M  V30 9824 C 938.167 -4.57882 -0.103767 0
M  V30 9825 N 939.658 -4.62922 -0.160506 0
M  V30 9826 C 940.393 -5.73338 -0.0840493 0
M  V30 9827 N 939.889 -6.92786 0.043933 0
M  V30 9828 N 941.682 -5.61929 -0.138592 0
M  V30 9829 H 933.833 -1.8972 0.954996 0
M  V30 9830 H 936.096 -0.87304 0.369467 0
M  V30 9831 H 935.802 -3.42331 0.80639 0
M  V30 9832 H 935.676 -3.65599 -0.928304 0
M  V30 9833 H 938.063 -2.69972 -1.19159 0
M  V30 9834 H 938.144 -2.49503 0.564075 0
M  V30 9835 H 937.788 -5.0072 0.850973 0
M  V30 9836 H 937.718 -5.18496 -0.920268 0
M  V30 9837 H 940.209 -3.7701 -0.259257 0
M  V30 9838 H 940.522 -7.72741 0.095372 0
M  V30 9839 H 938.867 -6.94955 0.0788211 0
M  V30 9840 H 942.058 -4.67499 -0.237031 0
M  V30 9841 H 942.231 -6.47956 -0.075546 0
M  V30 9842 N 935.637 0.236453 -1.55816 0
M  V30 9843 C 936.569 1.31602 -1.87653 0
M  V30 9844 C 937.582 1.43782 -0.763584 0
M  V30 9845 O 938.771 1.44945 -1.04178 0
M  V30 9846 C 935.871 2.69342 -2.05689 0
M  V30 9847 C 935.044 2.79298 -3.36617 0
M  V30 9848 C 934.103 3.97952 -3.44268 0
M  V30 9849 O 933.129 3.86989 -4.17406 0
M  V30 9850 N 934.331 5.11594 -2.74321 0
M  V30 9851 H 937.096 1.04623 -2.80845 0
M  V30 9852 H 934.657 0.426534 -1.5618 0
M  V30 9853 H 936.649 3.47074 -2.08138 0
M  V30 9854 H 935.219 2.88984 -1.19192 0
M  V30 9855 H 934.439 1.8816 -3.46395 0
M  V30 9856 H 935.727 2.82908 -4.22895 0
M  V30 9857 H 935.125 5.23394 -2.14651 0
M  V30 9858 H 933.682 5.87422 -2.8245 0
M  V30 9859 N 937.115 1.49373 0.502552 0
M  V30 9860 C 938.361 1.59016 1.25864 0
M  V30 9861 C 938.694 0.27532 1.92238 0
M  V30 9862 O 937.969 -0.720988 1.80643 0
M  V30 9863 C 938.252 2.74828 2.32683 0
M  V30 9864 C 938.105 4.16102 1.7082 0
M  V30 9865 C 939.424 2.86288 3.34256 0
M  V30 9866 H 936.543 0.578798 0.456248 0
M  V30 9867 H 939.185 1.81651 0.557032 0
M  V30 9868 H 937.335 2.5566 2.92524 0
M  V30 9869 H 939.007 4.46782 1.14818 0
M  V30 9870 H 937.25 4.21822 1.01238 0
M  V30 9871 H 937.921 4.93006 2.48292 0
M  V30 9872 H 940.397 3.03733 2.84404 0
M  V30 9873 H 939.273 3.69001 4.06362 0
M  V30 9874 H 939.534 1.95576 3.96488 0
M  V30 9875 N 938.594 -0.753485 1.38421 0
M  V30 9876 C 939.84 -1.51485 1.34834 0
M  V30 9877 C 940.173 -1.94102 -0.0615381 0
M  V30 9878 O 939.448 -1.65439 -1.02274 0
M  V30 9879 C 939.731 -2.76736 2.30411 0
M  V30 9880 C 939.584 -2.40256 3.80259 0
M  V30 9881 C 940.903 -3.7876 2.24119 0
M  V30 9882 H 938.022 -0.549534 0.491102 0
M  V30 9883 H 940.664 -0.863006 1.6927 0
M  V30 9884 H 938.814 -3.32357 2.01175 0
M  V30 9885 H 940.486 -1.90409 4.20169 0
M  V30 9886 H 938.729 -1.72714 3.97935 0
M  V30 9887 H 939.4 -3.29869 4.42595 0
M  V30 9888 H 941.876 -3.32679 2.49928 0
M  V30 9889 H 940.752 -4.64092 2.93104 0
M  V30 9890 H 941.013 -4.24352 1.24006 0
M  V30 9891 N 940.072 -1.23292 -0.981677 0
M  V30 9892 C 941.318 -1.06582 -1.72535 0
M  V30 9893 C 941.651 0.396538 -1.90108 0
M  V30 9894 O 940.926 1.29363 -1.45243 0
M  V30 9895 C 941.209 -1.7904 -3.12437 0
M  V30 9896 C 941.062 -3.32941 -3.02441 0
M  V30 9897 C 942.381 -1.55185 -4.11832 0
M  V30 9898 H 939.5 -0.388585 -0.626236 0
M  V30 9899 H 942.142 -1.51779 -1.14293 0
M  V30 9900 H 940.292 -1.40619 -3.62158 0
M  V30 9901 H 941.964 -3.80875 -2.60254 0
M  V30 9902 H 940.207 -3.62039 -2.38977 0
M  V30 9903 H 940.878 -3.78827 -4.0149 0
M  V30 9904 H 943.354 -1.88581 -3.70913 0
M  V30 9905 H 942.23 -2.08362 -5.07815 0
M  V30 9906 H 942.491 -0.486925 -4.3941 0
M  V30 9907 N 941.55 1.18024 -1.04442 0
M  V30 9908 C 942.46 2.25436 -0.649276 0
M  V30 9909 C 943.476 1.70915 0.326189 0
M  V30 9910 O 944.652 2.00592 0.180174 0
M  V30 9911 C 941.717 3.46693 -0.0222558 0
M  V30 9912 C 940.778 4.16332 -1.0472 0
M  V30 9913 C 940.011 5.31799 -0.450011 0
M  V30 9914 O 940.234 5.65544 0.742717 0
M  V30 9915 O 939.168 5.90209 -1.18056 0
M  V30 9916 H 942.994 2.61508 -1.54426 0
M  V30 9917 H 940.579 1.25178 -0.81552 0
M  V30 9918 H 942.461 4.20132 0.326597 0
M  V30 9919 H 941.136 3.12436 0.84649 0
M  V30 9920 H 940.043 3.44944 -1.44792 0
M  V30 9921 H 941.376 4.54598 -1.88684 0
M  V30 9922 N 943.028 0.824394 1.34319 0
M  V30 9923 C 944.276 0.41235 1.97849 0
M  V30 9924 C 944.597 -1.02841 1.65677 0
M  V30 9925 O 943.867 -1.71421 0.948245 0
M  V30 9926 H 942.447 0.149486 0.73189 0
M  V30 9927 H 945.109 1.05416 1.63931 0
M  V30 9928 H 944.205 0.532557 3.07523 0
M  V30 9929 N 944.506 -1.46559 0.579492 0
M  V30 9930 C 945.922 -1.57771 0.240921 0
M  V30 9931 C 946.122 -1.57505 -1.25676 0
M  V30 9932 O 945.178 -1.4903 -2.03829 0
M  V30 9933 C 946.491 -2.87311 0.887285 0
M  V30 9934 C 948.039 -3.00937 0.860576 0
M  V30 9935 C 948.514 -4.33208 1.48642 0
M  V30 9936 N 950.005 -4.39899 1.45062 0
M  V30 9937 C 950.74 -5.40856 1.90428 0
M  V30 9938 N 950.236 -6.48503 2.43752 0
M  V30 9939 N 952.029 -5.32037 1.81364 0
M  V30 9940 H 944.18 -1.44976 1.55228 0
M  V30 9941 H 946.443 -0.691354 0.648639 0
M  V30 9942 H 946.149 -2.93307 1.94071 0
M  V30 9943 H 946.023 -3.75141 0.393577 0
M  V30 9944 H 948.41 -2.94524 -0.184223 0
M  V30 9945 H 948.491 -2.14591 1.39227 0
M  V30 9946 H 948.135 -4.40378 2.5304 0
M  V30 9947 H 948.065 -5.18323 0.92998 0
M  V30 9948 H 950.556 -3.62706 1.0608 0
M  V30 9949 H 950.869 -7.21744 2.76234 0
M  V30 9950 H 949.214 -6.49332 2.47776 0
M  V30 9951 H 952.405 -4.46841 1.39465 0
M  V30 9952 H 952.578 -6.10573 2.17035 0
M  V30 9953 N 945.984 -0.3171 -1.54377 0
M  V30 9954 C 947.212 0.289558 -2.04864 0
M  V30 9955 C 947.627 1.46284 -1.19359 0
M  V30 9956 O 946.984 1.81135 -0.222795 0
M  V30 9957 C 947.035 0.730273 -3.54047 0
M  V30 9958 O 946.756 -0.396325 -4.36304 0
M  V30 9959 C 948.257 1.40041 -4.20599 0
M  V30 9960 H 945.477 0.0605836 -0.668259 0
M  V30 9961 H 948.021 -0.461411 -1.99227 0
M  V30 9962 H 946.176 1.43123 -3.59992 0
M  V30 9963 H 946.59 -0.0502901 -5.24476 0
M  V30 9964 H 948.064 1.65979 -5.26455 0
M  V30 9965 H 948.541 2.34565 -3.71316 0
M  V30 9966 H 949.147 0.742206 -4.18774 0
M  V30 9967 N 947.462 1.57535 -0.0451378 0
M  V30 9968 C 948.708 1.92736 0.630921 0
M  V30 9969 C 949.041 0.923265 1.70849 0
M  V30 9970 O 948.316 -0.0516512 1.94431 0
M  V30 9971 C 948.599 3.38348 1.23259 0
M  V30 9972 C 948.452 4.49503 0.16349 0
M  V30 9973 C 949.771 3.84233 2.14599 0
M  V30 9974 H 946.89 0.700884 0.227883 0
M  V30 9975 H 949.532 1.89706 -0.10567 0
M  V30 9976 H 947.682 3.41061 1.86037 0
M  V30 9977 H 949.354 4.58919 -0.46808 0
M  V30 9978 H 947.597 4.30802 -0.509166 0
M  V30 9979 H 948.268 5.48457 0.624382 0
M  V30 9980 H 950.744 3.83358 1.6179 0
M  V30 9981 H 949.62 4.86781 2.53644 0
M  V30 9982 H 949.881 3.20646 3.04366 0
M  V30 9983 N 948.94 -0.228186 1.55939 0
M  V30 9984 C 950.351 -0.795734 1.68893 0
M  V30 9985 C 950.702 -1.85261 0.645967 0
M  V30 9986 O 949.827 -2.15434 -0.2042 0
M  V30 9987 C 950.422 -1.45013 3.06197 0
M  V30 9988 C 948.981 -1.96514 3.21028 0
M  V30 9989 C 948.128 -0.822918 2.64808 0
M  V30 9990 H 951.079 -0.0036485 1.587 0
M  V30 9991 H 951.1 -2.31875 3.01685 0
M  V30 9992 H 950.612 -0.680678 3.82084 0
M  V30 9993 H 948.713 -2.76282 2.49998 0
M  V30 9994 H 948.826 -2.14967 4.28166 0
M  V30 9995 H 947.19 -1.22846 2.23116 0
M  V30 9996 H 947.973 -0.0662493 3.43236 0
M  V30 9997 N 950.418 -1.49637 -0.494624 0
M  V30 9998 C 951.643 -1.63431 -1.27691 0
M  V30 9999 C 952.068 -0.30813 -1.85559 0
M  V30 10000 O 951.426 0.725083 -1.66169 0
M  V30 10001 C 951.474 -2.71043 -2.3784 0
M  V30 10002 O 950.578 -2.3066 -3.41862 0
M  V30 10003 H 949.919 -0.546804 -0.376698 0
M  V30 10004 H 952.449 -1.95866 -0.591413 0
M  V30 10005 H 952.459 -2.93406 -2.83508 0
M  V30 10006 H 951.134 -3.67306 -1.95088 0
M  V30 10007 H 949.711 -2.18652 -3.02069 0
M  V30 10008 N 951.896 0.746133 -1.38819 0
M  V30 10009 C 953.121 1.54049 -1.38866 0
M  V30 10010 C 953.546 1.88092 0.0176624 0
M  V30 10011 O 952.904 1.51113 1.00173 0
M  V30 10012 C 952.952 2.8116 -2.25791 0
M  V30 10013 O 952.056 3.76623 -1.68014 0
M  V30 10014 H 951.397 0.465648 -0.473359 0
M  V30 10015 H 953.927 0.921469 -1.82675 0
M  V30 10016 H 953.937 3.30009 -2.39913 0
M  V30 10017 H 952.612 2.55713 -3.27999 0
M  V30 10018 H 951.189 3.35352 -1.63074 0
M  V30 10019 N 953.375 1.23811 0.975125 0
M  V30 10020 C 954.621 1.07495 1.71967 0
M  V30 10021 C 954.954 -0.386451 1.90316 0
M  V30 10022 O 954.229 -1.28591 1.45927 0
M  V30 10023 C 954.512 1.80694 3.11483 0
M  V30 10024 C 954.365 3.3454 3.00671 0
M  V30 10025 C 955.684 1.57367 4.11003 0
M  V30 10026 H 952.803 0.3919 0.624166 0
M  V30 10027 H 955.445 1.52383 1.13487 0
M  V30 10028 H 953.595 1.42538 3.61407 0
M  V30 10029 H 955.267 3.8225 2.5823 0
M  V30 10030 H 953.51 3.63301 2.37054 0
M  V30 10031 H 954.181 3.80951 3.99475 0
M  V30 10032 H 956.657 1.90545 3.69908 0
M  V30 10033 H 955.533 2.11052 5.06703 0
M  V30 10034 H 955.794 0.510221 4.39146 0
M  V30 10035 N 954.853 -1.17469 1.05066 0
M  V30 10036 C 956.078 -1.92162 0.780298 0
M  V30 10037 C 956.503 -1.76222 -0.657832 0
M  V30 10038 O 955.861 -1.0791 -1.45688 0
M  V30 10039 C 955.909 -3.41292 1.16414 0
M  V30 10040 O 955.013 -4.1134 0.295531 0
M  V30 10041 H 954.354 -0.599127 0.286257 0
M  V30 10042 H 956.884 -1.48903 1.40318 0
M  V30 10043 H 956.894 -3.92029 1.13036 0
M  V30 10044 H 955.569 -3.52214 2.21175 0
M  V30 10045 H 954.146 -3.70857 0.389797 0
M  V30 10046 N 956.331 -0.831506 -1.3388 0
M  V30 10047 C 957.579 -0.422837 -1.97627 0
M  V30 10048 C 957.9 1.01961 -1.6622 0
M  V30 10049 O 957.17 1.70916 -0.957323 0
M  V30 10050 H 955.75 -0.153365 -0.731087 0
M  V30 10051 H 958.412 -1.06284 -1.6337 0
M  V30 10052 H 957.508 -0.548858 -3.07236 0
M  V30 10053 N 957.809 1.4625 -0.587256 0
M  V30 10054 C 959.055 2.02662 -0.0746851 0
M  V30 10055 C 959.388 1.45723 1.28368 0
M  V30 10056 O 958.663 0.624062 1.84216 0
M  V30 10057 C 958.946 3.60097 -0.0138109 0
M  V30 10058 C 958.799 4.27412 -1.4014 0
M  V30 10059 C 960.118 4.34744 0.684491 0
M  V30 10060 H 957.237 0.736444 -0.0286144 0
M  V30 10061 H 959.879 1.74341 -0.755328 0
M  V30 10062 H 958.029 3.84357 0.56583 0
M  V30 10063 H 959.701 4.14401 -2.02656 0
M  V30 10064 H 957.944 3.86598 -1.96785 0
M  V30 10065 H 958.615 5.362 -1.31124 0
M  V30 10066 H 961.091 4.15657 0.192023 0
M  V30 10067 H 959.967 5.44468 0.696127 0
M  V30 10068 H 960.228 4.06132 1.74669 0
M  V30 10069 N 959.287 0.325282 1.54207 0
M  V30 10070 C 960.515 -0.27869 2.05014 0
M  V30 10071 C 960.93 -1.45649 1.20133 0
M  V30 10072 O 960.287 -1.81014 0.232398 0
M  V30 10073 C 960.338 -0.711486 3.54429 0
M  V30 10074 O 960.059 0.419458 4.36087 0
M  V30 10075 C 961.56 -1.37809 4.21336 0
M  V30 10076 H 958.78 -0.0570388 0.668571 0
M  V30 10077 H 961.324 0.47197 1.98979 0
M  V30 10078 H 959.479 -1.41212 3.60746 0
M  V30 10079 H 959.893 0.0781037 5.24442 0
M  V30 10080 H 961.367 -1.63184 5.27328 0
M  V30 10081 H 961.844 -2.32593 3.72555 0
M  V30 10082 H 962.45 -0.719987 4.19161 0
M  V30 10083 N 960.765 -1.57509 0.0534917 0
M  V30 10084 C 962.011 -1.93068 -0.62069 0
M  V30 10085 C 962.344 -0.932313 -1.70357 0
M  V30 10086 O 961.619 0.0413393 -1.94456 0
M  V30 10087 C 961.902 -3.38997 -1.21463 0
M  V30 10088 C 961.755 -4.49583 -0.13965 0
M  V30 10089 C 963.074 -3.85366 -2.12558 0
M  V30 10090 H 960.193 -0.702083 -0.224163 0
M  V30 10091 H 962.835 -1.89647 0.115729 0
M  V30 10092 H 960.985 -3.42043 -1.84226 0
M  V30 10093 H 962.657 -4.58664 0.492411 0
M  V30 10094 H 960.9 -4.30525 0.532006 0
M  V30 10095 H 961.571 -5.48781 -0.595287 0
M  V30 10096 H 964.047 -3.8421 -1.59755 0
M  V30 10097 H 962.923 -4.8812 -2.51058 0
M  V30 10098 H 963.184 -3.22256 -3.02661 0
M  V30 10099 N 962.243 0.219913 -1.56058 0
M  V30 10100 C 963.191 1.29215 -1.93407 0
M  V30 10101 C 964.185 1.48434 -0.816307 0
M  V30 10102 O 965.391 1.49589 -1.00115 0
M  V30 10103 H 961.766 0.433256 -0.614649 0
M  V30 10104 H 963.737 0.949977 -2.82875 0
M  V30 10105 C 962.486 2.63501 -2.26854 0
M  V30 10106 H 961.809 2.4952 -3.12377 0
M  V30 10107 H 963.249 3.37334 -2.56869 0
M  V30 10108 C 961.708 3.18634 -1.09425 0
M  V30 10109 O 962.238 4.00117 -0.356243 0
M  V30 10110 N 960.444 2.7703 -0.877642 0
M  V30 10111 H 959.991 2.10875 -1.47951 0
M  V30 10112 H 959.949 3.1426 -0.0936792 0
M  V30 10113 N 963.721 1.49897 0.486681 0
M  V30 10114 C 964.669 1.68125 1.60738 0
M  V30 10115 C 965.663 0.547097 1.60322 0
M  V30 10116 O 966.869 0.727153 1.64659 0
M  V30 10117 H 963.244 0.530391 0.533094 0
M  V30 10118 H 965.215 2.62165 1.42521 0
M  V30 10119 C 963.964 1.77827 2.98786 0
M  V30 10120 H 963.287 2.6448 2.99818 0
M  V30 10121 H 964.727 1.94611 3.76699 0
M  V30 10122 C 963.186 0.526287 3.32764 0
M  V30 10123 O 963.716 -0.341607 4.00245 0
M  V30 10124 N 961.922 0.384947 2.88039 0
M  V30 10125 H 961.469 1.09222 2.33299 0
M  V30 10126 H 961.427 -0.451618 3.11139 0
M  V30 10127 N 965.199 -0.738761 1.39212 0
M  V30 10128 C 966.424 -1.5331 1.39681 0
M  V30 10129 C 966.849 -1.88098 -0.00768715 0
M  V30 10130 O 966.207 -1.51642 -0.993699 0
M  V30 10131 C 966.255 -2.79958 2.27279 0
M  V30 10132 O 965.359 -3.75727 1.70008 0
M  V30 10133 H 964.7 -0.463131 0.475821 0
M  V30 10134 H 967.23 -0.911768 1.83161 0
M  V30 10135 H 967.24 -3.28732 2.41659 0
M  V30 10136 H 965.915 -2.5397 3.29351 0
M  V30 10137 H 964.492 -3.34483 1.64851 0
M  V30 10138 N 966.677 -1.24326 -0.968545 0
M  V30 10139 C 967.925 -1.08032 -1.70803 0
M  V30 10140 C 968.246 0.381728 -1.91227 0
M  V30 10141 O 967.516 1.27253 -1.48942 0
M  V30 10142 H 966.096 -0.396777 -0.632912 0
M  V30 10143 H 968.758 -1.56232 -1.16523 0
M  V30 10144 H 967.854 -1.57769 -2.69287 0
M  V30 10145 N 968.156 1.1691 -1.05688 0
M  V30 10146 C 969.572 1.39288 -0.779167 0
M  V30 10147 C 969.772 1.91587 0.624231 0
M  V30 10148 O 968.828 2.11072 1.38582 0
M  V30 10149 C 970.141 2.37914 -1.83895 0
M  V30 10150 C 971.689 2.51611 -1.86175 0
M  V30 10151 C 972.164 3.53514 -2.9119 0
M  V30 10152 N 973.655 3.61036 -2.90184 0
M  V30 10153 C 974.39 4.39657 -3.68088 0
M  V30 10154 N 973.886 5.21752 -4.55793 0
M  V30 10155 N 975.679 4.3458 -3.56507 0
M  V30 10156 H 967.83 0.81296 -1.96226 0
M  V30 10157 H 970.093 0.419818 -0.849975 0
M  V30 10158 H 969.799 2.06568 -2.84645 0
M  V30 10159 H 969.673 3.37483 -1.68479 0
M  V30 10160 H 972.06 2.82264 -0.86087 0
M  V30 10161 H 972.141 1.52099 -2.05668 0
M  V30 10162 H 971.785 3.23599 -3.91467 0
M  V30 10163 H 971.715 4.52742 -2.68947 0
M  V30 10164 H 974.206 3.02428 -2.26596 0
M  V30 10165 H 974.519 5.78939 -5.11907 0
M  V30 10166 H 972.864 5.21116 -4.59851 0
M  V30 10167 H 976.055 3.69501 -2.87379 0
M  V30 10168 H 976.228 4.95607 -4.17466 0
M  V30 10169 N 969.634 0.838594 1.33437 0
M  V30 10170 C 970.582 0.260158 2.31141 0
M  V30 10171 C 971.576 -0.607706 1.58124 0
M  V30 10172 O 972.782 -0.497298 1.72994 0
M  V30 10173 H 969.157 0.0654031 0.74915 0
M  V30 10174 H 971.128 1.09874 2.77435 0
M  V30 10175 C 969.877 -0.550234 3.43319 0
M  V30 10176 H 969.2 0.108262 3.99653 0
M  V30 10177 H 970.64 -0.920815 4.1388 0
M  V30 10178 C 969.099 -1.729 2.89149 0
M  V30 10179 O 969.629 -2.82769 2.85315 0
M  V30 10180 N 967.835 -1.5508 2.45761 0
M  V30 10181 H 967.382 -0.657055 2.49079 0
M  V30 10182 H 967.34 -2.34099 2.0987 0
M  V30 10183 N 971.112 -1.45937 0.595003 0
M  V30 10184 C 972.389 -1.95592 0.0178748 0
M  V30 10185 C 972.769 -1.53758 -1.44643 0
M  V30 10186 O 972.117 -0.794104 -2.14257 0
M  V30 10187 C 972.327 -3.4841 0.202789 0
M  V30 10188 C 973.675 -4.2453 0.0770121 0
M  V30 10189 O 974.699 -3.55954 0.132257 0
M  V30 10190 O 973.558 -5.46479 -0.0484271 0
M  V30 10191 H 970.652 -0.825888 -0.0428702 0
M  V30 10192 H 973.198 -1.56162 0.664184 0
M  V30 10193 H 971.97 -3.71787 1.22027 0
M  V30 10194 H 971.593 -3.947 -0.479376 0
M  V30 10195 N 972.59 -0.333456 -1.54032 0
M  V30 10196 C 973.82 0.267425 -2.04862 0
M  V30 10197 C 974.228 1.45559 -1.20869 0
M  V30 10198 O 973.571 1.82197 -0.234478 0
M  V30 10199 C 973.633 0.755759 -3.51466 0
M  V30 10200 C 973.297 -0.311409 -4.55938 0
M  V30 10201 C 974.294 -1.15078 -5.07004 0
M  V30 10202 C 971.979 -0.462439 -5.00167 0
M  V30 10203 C 973.973 -2.12682 -6.0087 0
M  V30 10204 C 971.66 -1.44188 -5.93846 0
M  V30 10205 C 972.658 -2.27253 -6.44085 0
M  V30 10206 O 972.346 -3.23532 -7.35923 0
M  V30 10207 H 972.078 0.0572596 -0.673571 0
M  V30 10208 H 974.632 -0.480646 -1.99697 0
M  V30 10209 H 972.862 1.55491 -3.54062 0
M  V30 10210 H 974.551 1.27607 -3.8532 0
M  V30 10211 H 975.317 -1.04513 -4.73605 0
M  V30 10212 H 971.196 0.17424 -4.60671 0
M  V30 10213 H 974.74 -2.77555 -6.40007 0
M  V30 10214 H 970.637 -1.54813 -6.2666 0
M  V30 10215 H 971.405 -3.18886 -7.53826 0
M  V30 10216 N 974.068 1.57479 -0.061844 0
M  V30 10217 C 974.998 2.15181 0.9066 0
M  V30 10218 C 975.979 1.07624 1.31724 0
M  V30 10219 O 977.164 1.35614 1.39006 0
M  V30 10220 C 974.294 2.70542 2.17771 0
M  V30 10221 C 973.248 3.83178 1.9068 0
M  V30 10222 C 972.574 4.25099 3.24337 0
M  V30 10223 C 973.874 5.07853 1.21994 0
M  V30 10224 H 975.568 2.96355 0.42594 0
M  V30 10225 H 973.114 1.42556 0.203435 0
M  V30 10226 H 975.067 3.09552 2.85929 0
M  V30 10227 H 973.791 1.86575 2.68062 0
M  V30 10228 H 972.45 3.44656 1.24931 0
M  V30 10229 H 972.098 3.38069 3.72449 0
M  V30 10230 H 971.798 5.01021 3.07005 0
M  V30 10231 H 973.322 4.66718 3.93709 0
M  V30 10232 H 974.736 5.44242 1.80204 0
M  V30 10233 H 973.133 5.88987 1.14954 0
M  V30 10234 H 974.203 4.84497 0.197536 0
M  V30 10235 N 975.546 -0.211634 1.56173 0
M  V30 10236 C 976.771 -0.955324 1.84088 0
M  V30 10237 C 977.196 -1.76754 0.643407 0
M  V30 10238 O 976.554 -1.76653 -0.407842 0
M  V30 10239 C 976.602 -1.84063 3.10085 0
M  V30 10240 O 975.706 -2.9373 2.89476 0
M  V30 10241 H 975.047 -0.26996 0.606645 0
M  V30 10242 H 977.577 -0.221947 2.03393 0
M  V30 10243 H 977.587 -2.24852 3.40449 0
M  V30 10244 H 976.262 -1.24373 3.96868 0
M  V30 10245 H 974.839 -2.56816 2.7037 0
M  V30 10246 N 977.024 -1.50153 -0.478725 0
M  V30 10247 C 978.27 -1.60998 -1.23318 0
M  V30 10248 C 978.603 -0.305868 -1.91776 0
M  V30 10249 O 977.878 0.692158 -1.81767 0
M  V30 10250 C 978.161 -2.78495 -2.28282 0
M  V30 10251 C 978.014 -4.18767 -1.64178 0
M  V30 10252 C 979.333 -2.91569 -3.2966 0
M  V30 10253 H 976.452 -0.585983 -0.446982 0
M  V30 10254 H 979.094 -1.82514 -0.528063 0
M  V30 10255 H 977.244 -2.60281 -2.8842 0
M  V30 10256 H 978.916 -4.48552 -1.07696 0
M  V30 10257 H 977.159 -4.23379 -0.94514 0
M  V30 10258 H 977.83 -4.96894 -2.40417 0
M  V30 10259 H 980.306 -3.08219 -2.79536 0
M  V30 10260 H 979.182 -3.75419 -4.0044 0
M  V30 10261 H 979.443 -2.01859 -3.93326 0
M  V30 10262 N 978.502 0.731368 -1.39602 0
M  V30 10263 C 979.727 1.52567 -1.40492 0
M  V30 10264 C 980.152 1.881 -0.00228828 0
M  V30 10265 O 979.51 1.52167 0.985643 0
M  V30 10266 C 979.558 2.78749 -2.2876 0
M  V30 10267 O 978.662 3.7482 -1.71999 0
M  V30 10268 H 978.003 0.460601 -0.478271 0
M  V30 10269 H 980.533 0.902042 -1.83642 0
M  V30 10270 H 980.543 3.27446 -2.43399 0
M  V30 10271 H 979.218 2.5222 -3.30693 0
M  V30 10272 H 977.795 3.33604 -1.66622 0
M  V30 10273 N 979.98 1.24838 0.961938 0
M  V30 10274 C 981.226 1.10321 1.70883 0
M  V30 10275 C 981.581 -0.353397 1.89127 0
M  V30 10276 O 980.874 -1.25721 1.44584 0
M  V30 10277 C 981.068 1.78289 3.09754 0
M  V30 10278 C 980.897 3.30409 3.05057 0
M  V30 10279 C 979.667 3.9964 3.09218 0
M  V30 10280 C 981.865 4.26916 2.86787 0
M  V30 10281 N 979.847 5.38594 2.94601 0
M  V30 10282 C 981.218 5.52906 2.80526 0
M  V30 10283 C 983.273 4.17421 2.71412 0
M  V30 10284 C 981.976 6.70487 2.60461 0
M  V30 10285 C 984.002 5.34686 2.52715 0
M  V30 10286 C 983.364 6.59611 2.47168 0
M  V30 10287 H 979.463 0.458353 0.63359 0
M  V30 10288 H 982.047 1.57835 1.14001 0
M  V30 10289 H 980.218 1.33281 3.64816 0
M  V30 10290 H 981.95 1.5658 3.73182 0
M  V30 10291 H 978.705 3.50847 3.18125 0
M  V30 10292 H 979.129 6.11497 2.90517 0
M  V30 10293 H 983.771 3.21592 2.74479 0
M  V30 10294 H 981.489 7.66433 2.56136 0
M  V30 10295 H 985.075 5.29194 2.41754 0
M  V30 10296 H 983.955 7.48821 2.32888 0
M  V30 10297 N 981.458 -1.16348 1.06306 0
M  V30 10298 C 982.388 -2.2291 0.695234 0
M  V30 10299 C 983.369 -1.67208 -0.312343 0
M  V30 10300 O 984.554 -1.93293 -0.187442 0
M  V30 10301 C 981.684 -3.47205 0.0810149 0
M  V30 10302 C 980.638 -4.15801 1.01458 0
M  V30 10303 C 979.964 -5.3405 0.263656 0
M  V30 10304 C 981.264 -4.66766 2.34365 0
M  V30 10305 H 982.958 -2.53934 1.58613 0
M  V30 10306 H 980.504 -1.22056 0.76409 0
M  V30 10307 H 982.457 -4.2098 -0.18818 0
M  V30 10308 H 981.181 -3.15482 -0.844897 0
M  V30 10309 H 979.84 -3.43954 1.26852 0
M  V30 10310 H 979.488 -4.9858 -0.665378 0
M  V30 10311 H 979.188 -5.80885 0.88582 0
M  V30 10312 H 980.712 -6.106 0.00200994 0
M  V30 10313 H 982.126 -5.3212 2.13356 0
M  V30 10314 H 980.523 -5.24223 2.9208 0
M  V30 10315 H 981.593 -3.82969 2.97426 0
M  V30 10316 N 982.937 -0.845659 -1.3299 0
M  V30 10317 C 983.867 -0.298957 -2.31578 0
M  V30 10318 C 984.848 0.597012 -1.59279 0
M  V30 10319 O 986.033 0.519142 -1.87132 0
M  V30 10320 C 983.163 0.521109 -3.43368 0
M  V30 10321 C 982.117 -0.279651 -4.27085 0
M  V30 10322 C 981.443 0.664591 -5.30554 0
M  V30 10323 C 982.743 -1.50046 -5.00283 0
M  V30 10324 H 984.437 -1.12272 -2.77552 0
M  V30 10325 H 981.983 -0.54132 -1.33438 0
M  V30 10326 H 983.936 0.913921 -4.1137 0
M  V30 10327 H 982.66 1.37815 -2.96099 0
M  V30 10328 H 981.319 -0.654106 -3.60717 0
M  V30 10329 H 980.967 1.51822 -4.79541 0
M  V30 10330 H 980.667 0.132871 -5.8745 0
M  V30 10331 H 982.191 1.05477 -6.01421 0
M  V30 10332 H 983.605 -1.18044 -5.61016 0
M  V30 10333 H 982.002 -1.96946 -5.66862 0
M  V30 10334 H 983.072 -2.26659 -4.28665 0
M  V30 10335 N 984.415 1.45619 -0.602734 0
M  V30 10336 C 985.378 2.28941 0.108962 0
M  V30 10337 C 986.378 1.39501 0.799762 0
M  V30 10338 O 987.568 1.61673 0.648663 0
M  V30 10339 C 984.7 3.204 1.16432 0
M  V30 10340 H 985.893 2.93346 -0.623534 0
M  V30 10341 H 983.446 1.52061 -0.361565 0
M  V30 10342 H 984.181 2.60785 1.92774 0
M  V30 10343 H 983.966 3.86277 0.673248 0
M  V30 10344 H 985.456 3.83063 1.6629 0
M  V30 10345 N 985.893 0.34162 1.53853 0
M  V30 10346 C 987.304 -0.14269 1.86154 0
M  V30 10347 C 987.655 -1.50151 1.2629 0
M  V30 10348 O 986.78 -2.08601 0.575735 0
M  V30 10349 C 987.375 -0.265691 3.37757 0
M  V30 10350 C 985.934 -0.694231 3.69942 0
M  V30 10351 C 985.081 0.173195 2.76759 0
M  V30 10352 H 988.032 0.561284 1.48443 0
M  V30 10353 H 988.053 -1.09352 3.64448 0
M  V30 10354 H 987.565 0.723424 3.81298 0
M  V30 10355 H 985.666 -1.69244 3.31945 0
M  V30 10356 H 985.779 -0.485461 4.76634 0
M  V30 10357 H 984.143 -0.35416 2.52226 0
M  V30 10358 H 984.926 1.15941 3.23129 0
M  V30 10359 N 987.371 -1.57444 0.0701946 0
M  V30 10360 C 988.619 -1.93047 -0.598106 0
M  V30 10361 C 988.94 -0.950841 -1.70247 0
M  V30 10362 O 988.21 0.00127177 -1.959 0
M  V30 10363 H 986.79 -0.712648 -0.223924 0
M  V30 10364 H 989.452 -1.94481 0.127674 0
M  V30 10365 H 988.548 -2.94807 -1.02445 0
M  V30 10366 N 988.849 0.203349 -1.56283 0
M  V30 10367 C 990.126 0.950415 -1.70958 0
M  V30 10368 C 990.506 2.01708 -0.622647 0
M  V30 10369 O 989.854 2.25523 0.367635 0
M  V30 10370 C 990.064 1.54434 -3.12971 0
M  V30 10371 C 991.412 2.02964 -3.72949 0
M  V30 10372 O 992.436 1.64293 -3.16048 0
M  V30 10373 O 991.295 2.74097 -4.72793 0
M  V30 10374 H 988.389 0.445154 -0.69697 0
M  V30 10375 H 990.935 0.193695 -1.68591 0
M  V30 10376 H 989.707 0.77505 -3.83547 0
M  V30 10377 H 989.33 2.36611 -3.19532 0
M  V30 10378 N 990.327 1.50405 0.470755 0
M  V30 10379 C 991.573 1.6165 1.22462 0
M  V30 10380 C 991.906 0.316034 1.91611 0
M  V30 10381 O 991.181 -0.682509 1.82132 0
M  V30 10382 C 991.464 2.79702 2.26801 0
M  V30 10383 C 991.317 4.19631 1.61955 0
M  V30 10384 C 992.636 2.93313 3.28109 0
M  V30 10385 H 989.755 0.588345 0.443868 0
M  V30 10386 H 992.397 1.82792 0.518376 0
M  V30 10387 H 990.547 2.61807 2.87036 0
M  V30 10388 H 992.219 4.49117 1.05316 0
M  V30 10389 H 990.462 4.23874 0.922674 0
M  V30 10390 H 991.133 4.98162 2.37779 0
M  V30 10391 H 993.609 3.09697 2.77897 0
M  V30 10392 H 992.485 3.77537 3.98443 0
M  V30 10393 H 992.746 2.03942 3.9225 0
M  V30 10394 N 991.805 -0.723954 1.39988 0
M  V30 10395 C 993.082 -1.4763 1.28316 0
M  V30 10396 C 993.462 -2.10852 -0.102302 0
M  V30 10397 O 992.81 -1.9948 -1.11445 0
M  V30 10398 C 993.02 -2.51878 2.41574 0
M  V30 10399 C 994.368 -3.17948 2.81415 0
M  V30 10400 O 995.392 -2.62195 2.41106 0
M  V30 10401 O 994.251 -4.18858 3.51027 0
M  V30 10402 H 991.345 -0.656092 0.50346 0
M  V30 10403 H 993.891 -0.75684 1.51888 0
M  V30 10404 H 992.663 -2.03618 3.34149 0
M  V30 10405 H 992.286 -3.3137 2.19727 0
M  V30 10406 N 993.283 -1.25346 -0.955304 0
M  V30 10407 C 994.231 -1.05461 -2.07318 0
M  V30 10408 C 995.225 0.0142699 -1.69394 0
M  V30 10409 O 996.431 -0.141292 -1.79445 0
M  V30 10410 H 992.806 -0.324095 -0.678577 0
M  V30 10411 H 994.777 -2.00231 -2.21247 0
M  V30 10412 C 993.526 -0.689329 -3.40798 0
M  V30 10413 H 992.849 -1.50362 -3.70447 0
M  V30 10414 H 994.289 -0.589883 -4.19877 0
M  V30 10415 C 992.748 0.604556 -3.31431 0
M  V30 10416 O 993.278 1.64686 -3.6639 0
M  V30 10417 N 991.484 0.589927 -2.84549 0
M  V30 10418 H 991.031 -0.258647 -2.56298 0
M  V30 10419 H 990.989 1.4558 -2.78664 0
M  V30 10420 N 994.761 1.15782 -1.06922 0
M  V30 10421 C 995.991 1.90079 -0.809545 0
M  V30 10422 C 996.399 1.78028 0.640523 0
M  V30 10423 O 995.742 1.12692 1.45073 0
M  V30 10424 C 995.804 3.41179 -1.13302 0
M  V30 10425 C 995.468 3.77015 -2.5828 0
M  V30 10426 C 996.465 3.78403 -3.56521 0
M  V30 10427 C 994.15 4.07455 -2.93745 0
M  V30 10428 C 996.144 4.09729 -4.88264 0
M  V30 10429 C 993.831 4.38446 -4.25686 0
M  V30 10430 C 994.829 4.39564 -5.22755 0
M  V30 10431 O 994.517 4.69814 -6.52326 0
M  V30 10432 H 994.249 0.609397 -0.292595 0
M  V30 10433 H 996.803 1.47654 -1.42784 0
M  V30 10434 H 995.033 3.83982 -0.457676 0
M  V30 10435 H 996.722 3.96759 -0.856586 0
M  V30 10436 H 997.488 3.54991 -3.30464 0
M  V30 10437 H 993.367 4.05746 -2.1884 0
M  V30 10438 H 996.911 4.10516 -5.64023 0
M  V30 10439 H 992.808 4.61325 -4.51497 0
M  V30 10440 H 993.576 4.87598 -6.57412 0
M  V30 10441 N 996.239 0.8527 1.3254 0
M  V30 10442 C 997.149 0.298744 2.3269 0
M  V30 10443 C 998.165 -0.582418 1.63963 0
M  V30 10444 O 999.341 -0.483253 1.95516 0
M  V30 10445 C 996.406 -0.505453 3.42996 0
M  V30 10446 C 995.467 0.401618 4.27417 0
M  V30 10447 C 994.7 -0.364294 5.32455 0
M  V30 10448 O 994.923 -1.59448 5.47661 0
M  V30 10449 O 993.857 0.268892 6.01299 0
M  V30 10450 H 997.683 1.12843 2.81958 0
M  V30 10451 H 995.268 0.615584 1.36128 0
M  V30 10452 H 997.15 -0.961974 4.10273 0
M  V30 10453 H 995.825 -1.31197 2.95921 0
M  V30 10454 H 994.732 0.906274 3.62957 0
M  V30 10455 H 996.065 1.17327 4.78012 0
M  V30 10456 N 997.718 -1.45297 0.610449 0
M  V30 10457 C 998.964 -2.02518 0.106917 0
M  V30 10458 C 999.297 -1.47747 -1.26034 0
M  V30 10459 O 998.572 -0.65329 -1.832 0
M  V30 10460 C 998.855 -3.6003 0.0710975 0
M  V30 10461 C 998.708 -4.25128 1.46922 0
M  V30 10462 C 1000.03 -4.35778 -0.61524 0
M  V30 10463 H 997.146 -0.735896 0.040327 0
M  V30 10464 H 999.788 -1.73117 0.782968 0
M  V30 10465 H 997.938 -3.85209 -0.504611 0
M  V30 10466 H 999.61 -4.11125 2.09223 0
M  V30 10467 H 997.853 -3.83418 2.02911 0
M  V30 10468 H 998.524 -5.34046 1.39637 0
M  V30 10469 H 1001 -4.1591 -0.125871 0
M  V30 10470 H 999.876 -5.45506 -0.609419 0
M  V30 10471 H 1000.14 -4.08859 -1.68186 0
M  V30 10472 N 999.196 -0.349774 -1.5367 0
M  V30 10473 C 1000.42 0.246038 -2.05432 0
M  V30 10474 C 1000.84 1.43719 -1.22435 0
M  V30 10475 O 1000.2 1.80622 -0.261166 0
M  V30 10476 C 1000.25 0.65501 -3.55516 0
M  V30 10477 O 999.968 -0.488782 -4.35365 0
M  V30 10478 C 1001.47 1.31088 -4.23475 0
M  V30 10479 H 998.689 0.0463952 -0.669394 0
M  V30 10480 H 1001.23 -0.503566 -1.98203 0
M  V30 10481 H 999.388 1.35455 -3.62947 0
M  V30 10482 H 999.802 -0.161528 -5.24251 0
M  V30 10483 H 1001.28 1.54774 -5.29857 0
M  V30 10484 H 1001.75 2.26636 -3.76208 0
M  V30 10485 H 1002.36 0.653211 -4.20254 0
M  V30 10486 N 1000.67 1.57404 -0.0785433 0
M  V30 10487 C 1001.6 2.16131 0.883726 0
M  V30 10488 C 1002.58 1.09015 1.30575 0
M  V30 10489 O 1003.77 1.3708 1.37559 0
M  V30 10490 C 1000.9 2.72836 2.1489 0
M  V30 10491 C 999.854 3.85178 1.86605 0
M  V30 10492 C 999.18 4.28516 3.1981 0
M  V30 10493 C 1000.48 5.09118 1.16601 0
M  V30 10494 H 1002.17 2.9679 0.394484 0
M  V30 10495 H 999.72 1.42763 0.188304 0
M  V30 10496 H 1001.67 3.12567 2.8263 0
M  V30 10497 H 1000.4 1.89408 2.66068 0
M  V30 10498 H 999.056 3.45962 1.21268 0
M  V30 10499 H 998.704 3.42 3.68843 0
M  V30 10500 H 998.404 5.04249 3.01674 0
M  V30 10501 H 999.928 4.70868 3.88737 0
M  V30 10502 H 1001.34 5.46123 1.74422 0
M  V30 10503 H 999.739 5.90173 1.087 0
M  V30 10504 H 1000.81 4.8468 0.146138 0
M  V30 10505 N 1002.15 -0.195058 1.56388 0
M  V30 10506 C 1003.38 -0.935745 1.85091 0
M  V30 10507 C 1003.8 -1.76061 0.662118 0
M  V30 10508 O 1003.16 -1.77076 -0.389083 0
M  V30 10509 C 1003.21 -1.80764 3.1202 0
M  V30 10510 O 1002.31 -2.90643 2.92575 0
M  V30 10511 H 1001.65 -0.26351 0.609474 0
M  V30 10512 H 1004.18 -0.200362 2.03617 0
M  V30 10513 H 1004.19 -2.21229 3.42815 0
M  V30 10514 H 1002.87 -1.20157 3.98165 0
M  V30 10515 H 1001.44 -2.53934 2.73079 0
M  V30 10516 N 1003.63 -1.50653 -0.462772 0
M  V30 10517 C 1004.58 -1.66509 -1.55752 0
M  V30 10518 C 1005.56 -0.519508 -1.52282 0
M  V30 10519 O 1006.76 -0.774296 -1.59166 0
M  V30 10520 C 1003.88 -1.77023 -2.94139 0
M  V30 10521 C 1002.97 -2.97284 -3.02461 0
M  V30 10522 N 1003.36 -4.20843 -2.80579 0
M  V30 10523 C 1001.66 -2.96014 -3.33604 0
M  V30 10524 C 1002.36 -5.01886 -2.94084 0
M  V30 10525 N 1001.34 -4.3601 -3.24648 0
M  V30 10526 H 1005.14 -2.59727 -1.37546 0
M  V30 10527 H 1002.65 -1.47951 -0.669653 0
M  V30 10528 H 1004.65 -1.86488 -3.72864 0
M  V30 10529 H 1003.31 -0.849688 -3.13385 0
M  V30 10530 H 1004.32 -4.50206 -2.55998 0
M  V30 10531 H 1001 -2.13493 -3.58786 0
M  V30 10532 H 1002.39 -6.10164 -2.81334 0
M  V30 10533 N 1005.11 0.71652 -1.4037 0
M  V30 10534 C 1006.39 1.46947 -1.29097 0
M  V30 10535 C 1006.77 2.10903 0.0911182 0
M  V30 10536 O 1006.11 2.00068 1.10385 0
M  V30 10537 C 1006.32 2.50594 -2.42907 0
M  V30 10538 C 1007.67 3.16451 -2.83097 0
M  V30 10539 O 1008.7 2.60913 -2.42493 0
M  V30 10540 O 1007.55 4.16991 -3.53244 0
M  V30 10541 H 1004.65 0.653413 -0.506932 0
M  V30 10542 H 1007.19 0.748774 -1.52287 0
M  V30 10543 H 1005.97 2.01843 -3.35224 0
M  V30 10544 H 1005.59 3.302 -2.21481 0
M  V30 10545 N 1006.59 1.25851 0.948643 0
M  V30 10546 C 1007.83 1.10735 1.69062 0
M  V30 10547 C 1008.16 -0.351257 1.9181 0
M  V30 10548 O 1007.43 -1.24867 1.50947 0
M  V30 10549 H 1006.01 0.406796 0.626519 0
M  V30 10550 H 1008.67 1.58066 1.14022 0
M  V30 10551 H 1007.76 1.62033 2.66743 0
M  V30 10552 N 1008.06 -1.15214 1.07534 0
M  V30 10553 C 1009.01 -2.20013 0.697337 0
M  V30 10554 C 1009.98 -1.6314 -0.312168 0
M  V30 10555 O 1011.17 -1.89768 -0.198196 0
M  V30 10556 C 1008.31 -3.44945 0.103293 0
M  V30 10557 C 1007.42 -4.16009 1.1645 0
M  V30 10558 C 1006.55 -5.28496 0.535261 0
M  V30 10559 C 1005.59 -5.9138 1.57912 0
M  V30 10560 N 1004.73 -6.95335 0.972332 0
M  V30 10561 H 1009.57 -2.51698 1.59538 0
M  V30 10562 H 1007.11 -1.2361 0.797431 0
M  V30 10563 H 1009.07 -4.16397 -0.258766 0
M  V30 10564 H 1007.7 -3.13772 -0.758096 0
M  V30 10565 H 1006.75 -3.43035 1.64411 0
M  V30 10566 H 1008.06 -4.58853 1.9559 0
M  V30 10567 H 1007.21 -6.06579 0.120942 0
M  V30 10568 H 1005.95 -4.8685 -0.287889 0
M  V30 10569 H 1004.96 -5.12008 2.0032 0
M  V30 10570 H 1006.18 -6.35103 2.40459 0
M  V30 10571 H 1004.13 -6.55779 0.170119 0
M  V30 10572 H 1004.05 -7.36616 1.70095 0
M  V30 10573 H 1005.31 -7.77312 0.583577 0
M  V30 10574 N 1009.54 -0.859717 -1.32086 0
M  V30 10575 C 1010.79 -0.466271 -1.97367 0
M  V30 10576 C 1011.12 0.976728 -1.6785 0
M  V30 10577 O 1010.4 1.68618 -0.969449 0
M  V30 10578 C 1010.68 -0.711851 -3.52994 0
M  V30 10579 C 1010.53 -2.20364 -3.92122 0
M  V30 10580 C 1011.85 -0.17156 -4.39765 0
M  V30 10581 H 1008.97 -0.170883 -0.716916 0
M  V30 10582 H 1011.61 -1.07907 -1.56384 0
M  V30 10583 H 1009.76 -0.190258 -3.88034 0
M  V30 10584 H 1011.43 -2.7917 -3.67236 0
M  V30 10585 H 1009.68 -2.68019 -3.41099 0
M  V30 10586 H 1010.35 -2.32615 -5.00594 0
M  V30 10587 H 1012.82 -0.617665 -4.1149 0
M  V30 10588 H 1011.7 -0.372921 -5.47632 0
M  V30 10589 H 1011.96 0.925959 -4.32294 0
M  V30 10590 N 1011.02 1.44971 -0.618145 0
M  V30 10591 C 1012.27 2.02458 -0.117656 0
M  V30 10592 C 1012.6 1.48413 1.25248 0
M  V30 10593 O 1011.87 0.662997 1.82851 0
M  V30 10594 C 1012.16 3.59987 -0.0901897 0
M  V30 10595 C 1012.01 4.24343 -1.49175 0
M  V30 10596 C 1013.33 4.36099 0.592121 0
M  V30 10597 H 1010.45 0.735672 -0.0442291 0
M  V30 10598 H 1013.09 1.727 -0.792138 0
M  V30 10599 H 1011.24 3.85471 0.484175 0
M  V30 10600 H 1012.91 4.10009 -2.114 0
M  V30 10601 H 1011.16 3.82337 -2.04941 0
M  V30 10602 H 1011.83 5.33298 -1.42468 0
M  V30 10603 H 1014.3 4.1597 0.103813 0
M  V30 10604 H 1013.18 5.45822 0.580481 0
M  V30 10605 H 1013.44 4.09746 1.66015 0
M  V30 10606 N 1012.5 0.357919 1.53482 0
M  V30 10607 C 1013.43 -0.526753 2.23065 0
M  V30 10608 C 1014.44 -1.05239 1.24212 0
M  V30 10609 O 1015.63 -0.960078 1.50482 0
M  V30 10610 C 1012.73 -1.73919 2.9087 0
M  V30 10611 C 1011.91 -1.34638 4.16163 0
M  V30 10612 C 1010.96 -2.42005 4.67247 0
M  V30 10613 O 1009.99 -2.04714 5.31113 0
M  V30 10614 N 1011.19 -3.73478 4.44404 0
M  V30 10615 H 1013.96 0.0692386 2.9962 0
M  V30 10616 H 1011.52 0.182726 1.60866 0
M  V30 10617 H 1013.51 -2.45207 3.21956 0
M  V30 10618 H 1012.08 -2.24223 2.17814 0
M  V30 10619 H 1011.3 -0.463667 3.91464 0
M  V30 10620 H 1012.59 -1.06012 4.97633 0
M  V30 10621 H 1011.99 -4.06555 3.93357 0
M  V30 10622 H 1010.54 -4.40893 4.80059 0
M  V30 10623 N 1013.98 -1.5736 0.0868897 0
M  V30 10624 C 1015.2 -1.98809 -0.590757 0
M  V30 10625 C 1015.63 -0.965407 -1.61436 0
M  V30 10626 O 1014.98 0.067143 -1.81176 0
M  V30 10627 C 1015.03 -3.39249 -1.22238 0
M  V30 10628 O 1014.14 -3.39706 -2.33824 0
M  V30 10629 H 1013.48 -0.64669 -0.150626 0
M  V30 10630 H 1016.01 -2.03927 0.165873 0
M  V30 10631 H 1016.02 -3.76765 -1.56564 0
M  V30 10632 H 1014.69 -4.13208 -0.472434 0
M  V30 10633 H 1013.27 -3.13977 -2.01178 0
M  V30 10634 N 1015.45 0.186762 -1.56489 0
M  V30 10635 C 1016.38 1.23395 -1.98232 0
M  V30 10636 C 1017.37 1.4702 -0.855526 0
M  V30 10637 O 1018.55 1.58616 -1.12048 0
M  V30 10638 C 1015.68 2.57635 -2.32898 0
M  V30 10639 C 1014.63 2.48607 -3.48394 0
M  V30 10640 C 1013.96 3.87196 -3.68759 0
M  V30 10641 C 1015.26 2.00398 -4.82325 0
M  V30 10642 H 1016.95 0.887026 -2.85958 0
M  V30 10643 H 1014.5 0.42525 -1.37578 0
M  V30 10644 H 1016.45 3.31082 -2.60696 0
M  V30 10645 H 1015.18 2.94084 -1.42064 0
M  V30 10646 H 1013.84 1.77615 -3.207 0
M  V30 10647 H 1013.48 4.21012 -2.75241 0
M  V30 10648 H 1013.18 3.82029 -4.46462 0
M  V30 10649 H 1014.71 4.62253 -3.98941 0
M  V30 10650 H 1016.12 2.6361 -5.091 0
M  V30 10651 H 1014.52 2.06214 -5.63556 0
M  V30 10652 H 1015.59 0.957562 -4.75351 0
M  V30 10653 N 1016.93 1.50896 0.454776 0
M  V30 10654 C 1018.18 1.6294 1.20741 0
M  V30 10655 C 1018.51 0.336339 1.91265 0
M  V30 10656 O 1017.79 -0.663153 1.82846 0
M  V30 10657 C 1018.07 2.82092 2.23822 0
M  V30 10658 C 1017.92 4.21326 1.57495 0
M  V30 10659 C 1019.24 2.96777 3.24979 0
M  V30 10660 H 1016.36 0.59302 0.437603 0
M  V30 10661 H 1019 1.83331 0.498959 0
M  V30 10662 H 1017.15 2.64837 2.84243 0
M  V30 10663 H 1018.82 4.50209 1.00546 0
M  V30 10664 H 1017.07 4.24829 0.877664 0
M  V30 10665 H 1017.74 5.00656 2.32482 0
M  V30 10666 H 1020.21 3.12627 2.74597 0
M  V30 10667 H 1019.09 3.81742 3.94416 0
M  V30 10668 H 1019.35 2.08091 3.90065 0
M  V30 10669 N 1018.41 -0.709066 1.40748 0
M  V30 10670 C 1019.66 -1.4646 1.38681 0
M  V30 10671 C 1019.97 -1.95599 -0.0056209 0
M  V30 10672 O 1021.18 -2.71091 -0.148907 0
M  V30 10673 C 1019.63 -2.64771 2.43771 0
M  V30 10674 C 1019.24 -2.22474 3.88856 0
M  V30 10675 C 1020.99 -3.42475 2.50821 0
M  V30 10676 C 1018.89 -3.37663 4.85528 0
M  V30 10677 H 1017.82 -0.550084 0.515678 0
M  V30 10678 H 1020.47 -0.771074 1.66513 0
M  V30 10679 H 1018.86 -3.36325 2.09048 0
M  V30 10680 H 1020.03 -1.58297 4.32757 0
M  V30 10681 H 1018.35 -1.57798 3.85342 0
M  V30 10682 H 1020.94 -4.28201 3.20232 0
M  V30 10683 H 1021.29 -3.86738 1.54076 0
M  V30 10684 H 1021.82 -2.77969 2.84567 0
M  V30 10685 H 1018.56 -2.98426 5.83628 0
M  V30 10686 H 1018.08 -4.00734 4.46287 0
M  V30 10687 H 1019.76 -4.03636 5.05655 0
M  V30 10688 N 1019.89 -1.26353 -0.941956 0
M  V30 10689 C 1020.85 -1.07904 -2.02211 0
M  V30 10690 C 1021.85 -0.0276283 -1.60776 0
M  V30 10691 O 1023.04 -0.270965 -1.7208 0
M  V30 10692 C 1020.17 -0.641084 -3.34818 0
M  V30 10693 H 1021.37 -2.03804 -2.20009 0
M  V30 10694 H 1018.92 -1.08939 -1.12081 0
M  V30 10695 H 1019.66 0.319943 -3.22718 0
M  V30 10696 H 1019.44 -1.40027 -3.66244 0
M  V30 10697 H 1020.93 -0.533826 -4.14174 0
M  V30 10698 N 1021.37 1.14642 -1.08144 0
M  V30 10699 C 1022.31 2.1964 -0.708995 0
M  V30 10700 C 1023.28 1.63303 0.303512 0
M  V30 10701 O 1024.47 1.8987 0.18813 0
M  V30 10702 C 1021.61 3.44886 -0.121585 0
M  V30 10703 C 1020.72 4.15386 -1.18654 0
M  V30 10704 C 1019.86 5.28205 -0.56328 0
M  V30 10705 C 1018.9 5.90534 -1.61046 0
M  V30 10706 N 1018.03 6.94809 -1.00919 0
M  V30 10707 H 1022.87 2.50848 -1.6087 0
M  V30 10708 H 1020.41 1.23185 -0.803975 0
M  V30 10709 H 1022.37 4.16528 0.23668 0
M  V30 10710 H 1021 3.14169 0.741445 0
M  V30 10711 H 1020.05 3.42159 -1.66227 0
M  V30 10712 H 1021.36 4.57809 -1.9802 0
M  V30 10713 H 1020.52 6.06507 -0.153109 0
M  V30 10714 H 1019.26 4.86995 0.262066 0
M  V30 10715 H 1018.26 5.10938 -2.03033 0
M  V30 10716 H 1019.49 6.33819 -2.43824 0
M  V30 10717 H 1017.43 6.5568 -0.204894 0
M  V30 10718 H 1017.35 7.35704 -1.73999 0
M  V30 10719 H 1018.62 7.76992 -0.624792 0
M  V30 10720 N 1022.85 0.866709 1.31628 0
M  V30 10721 C 1024.07 0.48956 2.01539 0
M  V30 10722 C 1024.5 -0.909556 1.64647 0
M  V30 10723 O 1023.85 -1.59959 0.853391 0
M  V30 10724 C 1023.9 0.650176 3.5469 0
M  V30 10725 O 1023.01 -0.311908 4.11219 0
M  V30 10726 H 1022.35 0.195144 0.634677 0
M  V30 10727 H 1024.88 1.16923 1.679 0
M  V30 10728 H 1024.89 0.542236 4.04381 0
M  V30 10729 H 1023.56 1.67038 3.80882 0
M  V30 10730 H 1022.14 -0.159197 3.7256 0
M  V30 10731 N 1024.32 -1.44642 0.625825 0
M  V30 10732 C 1025.57 -2.02393 0.128391 0
M  V30 10733 C 1025.9 -1.49075 -1.2446 0
M  V30 10734 O 1025.18 -0.672684 -1.82497 0
M  V30 10735 C 1025.46 -3.59934 0.109279 0
M  V30 10736 C 1025.31 -4.23546 1.51423 0
M  V30 10737 C 1026.63 -4.36406 -0.568985 0
M  V30 10738 H 1023.75 -0.735427 0.0481299 0
M  V30 10739 H 1026.39 -1.72277 0.801286 0
M  V30 10740 H 1024.54 -3.85722 -0.463726 0
M  V30 10741 H 1026.22 -4.08882 2.13572 0
M  V30 10742 H 1024.46 -3.81245 2.06966 0
M  V30 10743 H 1025.13 -5.32535 1.45294 0
M  V30 10744 H 1027.61 -4.1602 -0.0817516 0
M  V30 10745 H 1026.48 -5.46122 -0.551527 0
M  V30 10746 H 1026.74 -4.1062 -1.6384 0
M  V30 10747 N 1025.8 -0.366053 -1.5329 0
M  V30 10748 C 1027.22 -0.0150149 -1.59593 0
M  V30 10749 C 1027.42 1.46719 -1.38116 0
M  V30 10750 O 1026.47 2.22884 -1.18656 0
M  V30 10751 C 1027.79 -0.471374 -2.96982 0
M  V30 10752 C 1029.33 -0.425634 -3.10092 0
M  V30 10753 C 1029.81 -0.857812 -4.49895 0
M  V30 10754 N 1031.3 -0.81289 -4.56011 0
M  V30 10755 C 1032.04 -1.11898 -5.62376 0
M  V30 10756 N 1031.53 -1.49436 -6.76491 0
M  V30 10757 N 1033.32 -1.04174 -5.52362 0
M  V30 10758 H 1025.48 -1.33127 -1.65502 0
M  V30 10759 H 1027.74 -0.544172 -0.776261 0
M  V30 10760 H 1027.44 -1.50569 -3.1784 0
M  V30 10761 H 1027.32 0.141764 -3.76934 0
M  V30 10762 H 1029.71 0.599548 -2.88945 0
M  V30 10763 H 1029.79 -1.07427 -2.32149 0
M  V30 10764 H 1029.43 -1.88111 -4.7178 0
M  V30 10765 H 1029.36 -0.186419 -5.2627 0
M  V30 10766 H 1031.85 -0.536343 -3.74075 0
M  V30 10767 H 1032.16 -1.71217 -7.53594 0
M  V30 10768 H 1030.51 -1.53302 -6.77882 0
M  V30 10769 H 1033.7 -0.747654 -4.62091 0
M  V30 10770 H 1033.87 -1.28362 -6.35159 0
M  V30 10771 N 1027.28 1.57312 -0.0952337 0
M  V30 10772 C 1028.19 2.17556 0.877877 0
M  V30 10773 C 1029.21 1.14505 1.31014 0
M  V30 10774 O 1030.38 1.46876 1.37802 0
M  V30 10775 C 1027.45 2.74413 2.11892 0
M  V30 10776 C 1026.51 3.92419 1.74085 0
M  V30 10777 C 1025.74 4.46556 2.92273 0
M  V30 10778 O 1025.96 3.99631 4.07002 0
M  V30 10779 O 1024.9 5.37576 2.70732 0
M  V30 10780 H 1028.72 3.01116 0.395312 0
M  V30 10781 H 1026.31 1.48841 0.129123 0
M  V30 10782 H 1028.19 3.10754 2.84622 0
M  V30 10783 H 1026.87 1.93899 2.59201 0
M  V30 10784 H 1025.77 3.6089 0.985346 0
M  V30 10785 H 1027.11 4.74298 1.31539 0
M  V30 10786 N 1028.76 -0.17846 1.56586 0
M  V30 10787 C 1030 -0.90281 1.83381 0
M  V30 10788 C 1030.36 -1.79738 0.675139 0
M  V30 10789 O 1031.56 -2.55879 0.823368 0
M  V30 10790 C 1029.83 -1.68353 3.15265 0
M  V30 10791 S 1031.39 -2.45762 3.6352 0
M  V30 10792 H 1028.21 -0.302508 0.643436 0
M  V30 10793 H 1030.81 -0.164961 1.94803 0
M  V30 10794 H 1029.52 -1.01725 3.97593 0
M  V30 10795 H 1029.05 -2.46289 3.06766 0
M  V30 10796 H 1031.06 -3.70312 3.30278 0
M  V30 10797 N 1030.24 -1.51135 -0.446768 0
M  V30 10798 C 1031.46 -1.67411 -1.22427 0
M  V30 10799 C 1031.89 -0.367009 -1.84485 0
M  V30 10800 O 1031.24 0.67185 -1.68392 0
M  V30 10801 C 1031.29 -2.78473 -2.29096 0
M  V30 10802 O 1030.4 -2.41419 -3.34351 0
M  V30 10803 H 1029.74 -0.558512 -0.359111 0
M  V30 10804 H 1032.27 -1.97648 -0.5288 0
M  V30 10805 H 1032.28 -3.02277 -2.7403 0
M  V30 10806 H 1030.95 -3.73326 -1.83304 0
M  V30 10807 H 1029.53 -2.28152 -2.9496 0
M  V30 10808 N 1031.71 0.701592 -1.41122 0
M  V30 10809 C 1032.96 1.4616 -1.40155 0
M  V30 10810 C 1033.29 1.94498 -0.00861553 0
M  V30 10811 O 1032.54 1.69484 0.978452 0
M  V30 10812 C 1032.84 2.693 -2.34973 0
M  V30 10813 C 1032.51 2.39652 -3.81939 0
M  V30 10814 C 1031.17 2.31277 -4.21977 0
M  V30 10815 C 1033.52 2.15076 -4.74755 0
M  V30 10816 C 1030.85 1.96413 -5.52846 0
M  V30 10817 C 1033.2 1.81722 -6.05937 0
M  V30 10818 C 1031.87 1.71838 -6.45002 0
M  V30 10819 H 1031.14 0.534837 -0.512865 0
M  V30 10820 H 1033.78 0.802425 -1.73878 0
M  V30 10821 H 1032.09 3.40123 -1.94484 0
M  V30 10822 H 1033.79 3.27427 -2.31501 0
M  V30 10823 H 1030.38 2.47063 -3.50226 0
M  V30 10824 H 1034.56 2.20495 -4.4463 0
M  V30 10825 H 1029.82 1.87308 -5.82001 0
M  V30 10826 H 1033.99 1.61723 -6.77362 0
M  V30 10827 H 1031.62 1.44591 -7.46323 0
M  V30 10828 N 1033.19 1.2685 0.935242 0
M  V30 10829 C 1034.42 1.15645 1.72165 0
M  V30 10830 C 1034.84 -0.283909 1.85945 0
M  V30 10831 O 1034.2 -1.20567 1.354 0
M  V30 10832 C 1034.25 1.83689 3.10307 0
M  V30 10833 O 1033.35 1.12972 3.96625 0
M  V30 10834 H 1032.69 0.402629 0.528002 0
M  V30 10835 H 1035.22 1.67781 1.17093 0
M  V30 10836 H 1035.23 1.90749 3.60664 0
M  V30 10837 H 1033.91 2.88472 2.99595 0
M  V30 10838 H 1032.48 1.13929 3.5507 0
M  V30 10839 N 1034.67 -1.14067 1.0875 0
M  V30 10840 C 1035.9 -1.89582 0.841038 0
M  V30 10841 C 1036.32 -1.78226 -0.601436 0
M  V30 10842 O 1035.68 -1.12491 -1.42181 0
M  V30 10843 C 1035.73 -3.37415 1.27213 0
M  V30 10844 O 1034.83 -4.10191 0.426246 0
M  V30 10845 H 1034.17 -0.589716 0.305173 0
M  V30 10846 H 1036.7 -1.44364 1.44984 0
M  V30 10847 H 1036.71 -3.88234 1.25451 0
M  V30 10848 H 1035.39 -3.44999 2.32268 0
M  V30 10849 H 1033.96 -3.69429 0.507585 0
M  V30 10850 N 1036.15 -0.873678 -1.31166 0
M  V30 10851 C 1037.08 -0.348011 -2.30892 0
M  V30 10852 C 1038.06 0.563092 -1.60509 0
M  V30 10853 O 1039.24 0.479332 -1.88192 0
M  V30 10854 C 1036.37 0.448158 -3.44396 0
M  V30 10855 C 1035.33 -0.370179 -4.26396 0
M  V30 10856 C 1034.65 0.551903 -5.31844 0
M  V30 10857 C 1035.95 -1.60624 -4.96988 0
M  V30 10858 H 1037.65 -1.18134 -2.75109 0
M  V30 10859 H 1035.19 -0.569502 -1.3226 0
M  V30 10860 H 1037.15 0.826458 -4.13216 0
M  V30 10861 H 1035.87 1.31503 -2.98956 0
M  V30 10862 H 1034.53 -0.730472 -3.59249 0
M  V30 10863 H 1034.18 1.41616 -4.82653 0
M  V30 10864 H 1033.88 0.00823478 -5.87599 0
M  V30 10865 H 1035.4 0.926965 -6.03523 0
M  V30 10866 H 1036.82 -1.29917 -5.58386 0
M  V30 10867 H 1035.21 -2.08926 -5.62557 0
M  V30 10868 H 1036.28 -2.357 -4.23761 0
M  V30 10869 N 1037.63 1.44308 -0.633487 0
M  V30 10870 C 1038.85 2.06384 -0.146063 0
M  V30 10871 C 1039.27 1.47357 1.18031 0
M  V30 10872 O 1038.63 0.597334 1.72448 0
M  V30 10873 C 1038.68 3.61489 -0.0276722 0
M  V30 10874 O 1038.4 4.18318 -1.3016 0
M  V30 10875 C 1039.9 4.40604 0.488168 0
M  V30 10876 H 1037.12 0.666122 -0.0807632 0
M  V30 10877 H 1039.66 1.85139 -0.868557 0
M  V30 10878 H 1037.82 3.81988 0.645273 0
M  V30 10879 H 1038.23 5.11783 -1.14797 0
M  V30 10880 H 1039.71 5.49545 0.520013 0
M  V30 10881 H 1040.18 4.12218 1.51568 0
M  V30 10882 H 1040.79 4.2503 -0.151608 0
M  V30 10883 N 1039.1 0.374177 1.53094 0
M  V30 10884 C 1040.52 -0.103172 1.86415 0
M  V30 10885 C 1040.87 -1.47439 1.29446 0
M  V30 10886 O 1039.99 -2.07333 0.619853 0
M  V30 10887 C 1040.59 -0.193988 3.38244 0
M  V30 10888 C 1039.15 -0.615605 3.71332 0
M  V30 10889 C 1038.29 0.23186 2.76329 0
M  V30 10890 H 1041.24 0.592644 1.47219 0
M  V30 10891 H 1041.26 -1.01597 3.66686 0
M  V30 10892 H 1040.78 0.80414 3.79678 0
M  V30 10893 H 1038.88 -1.62165 3.3546 0
M  V30 10894 H 1038.99 -0.38425 4.77557 0
M  V30 10895 H 1037.35 -0.300579 2.5292 0
M  V30 10896 H 1038.14 1.22769 3.20597 0
M  V30 10897 N 1040.58 -1.57259 0.103575 0
M  V30 10898 C 1041.83 -1.94272 -0.557024 0
M  V30 10899 C 1042.15 -0.986739 -1.68192 0
M  V30 10900 O 1041.42 -0.0402818 -1.95859 0
M  V30 10901 H 1040 -0.717237 -0.208757 0
M  V30 10902 H 1042.66 -1.94167 0.168898 0
M  V30 10903 H 1041.76 -2.96914 -0.961691 0
M  V30 10904 N 1042.06 0.170153 -1.56679 0
M  V30 10905 C 1043.48 0.521966 -1.50823 0
M  V30 10906 C 1043.68 1.84589 -0.808037 0
M  V30 10907 O 1042.73 2.49791 -0.368891 0
M  V30 10908 C 1044.05 0.553648 -2.95559 0
M  V30 10909 C 1045.59 0.640769 -3.06371 0
M  V30 10910 C 1046.07 0.703332 -4.52567 0
M  V30 10911 N 1047.56 0.76619 -4.56819 0
M  V30 10912 C 1048.29 0.835192 -5.67285 0
M  V30 10913 N 1047.79 0.864957 -6.87379 0
M  V30 10914 N 1049.58 0.874302 -5.55259 0
M  V30 10915 H 1041.73 -0.697952 -2.00605 0
M  V30 10916 H 1044 -0.251787 -0.913952 0
M  V30 10917 H 1043.7 -0.350498 -3.49949 0
M  V30 10918 H 1043.58 1.39973 -3.50268 0
M  V30 10919 H 1045.96 1.53534 -2.52015 0
M  V30 10920 H 1046.05 -0.232008 -2.54746 0
M  V30 10921 H 1045.69 -0.186986 -5.07556 0
M  V30 10922 H 1045.62 1.59227 -5.0195 0
M  V30 10923 H 1048.11 0.751424 -3.70354 0
M  V30 10924 H 1048.42 0.918814 -7.67318 0
M  V30 10925 H 1046.77 0.833215 -6.89987 0
M  V30 10926 H 1049.96 0.848057 -4.60354 0
M  V30 10927 H 1050.13 0.924615 -6.4137 0
M  V30 10928 N 1043.54 1.5137 0.438746 0
M  V30 10929 C 1044.47 1.75528 1.53987 0
M  V30 10930 C 1045.45 0.605067 1.58975 0
M  V30 10931 O 1046.63 0.847634 1.74725 0
M  V30 10932 C 1043.76 1.87904 2.92078 0
M  V30 10933 C 1042.72 3.0333 3.01951 0
M  V30 10934 C 1042.04 3.00888 4.42007 0
M  V30 10935 C 1043.34 4.43319 2.76163 0
M  V30 10936 H 1045.04 2.67728 1.34022 0
M  V30 10937 H 1042.58 1.28831 0.643308 0
M  V30 10938 H 1044.54 2.03388 3.69068 0
M  V30 10939 H 1043.26 0.923514 3.13271 0
M  V30 10940 H 1041.92 2.87549 2.274 0
M  V30 10941 H 1041.57 2.03116 4.60166 0
M  V30 10942 H 1041.27 3.78397 4.49544 0
M  V30 10943 H 1042.79 3.18464 5.20973 0
M  V30 10944 H 1044.21 4.59458 3.42887 0
M  V30 10945 H 1042.6 5.22523 2.9511 0
M  V30 10946 H 1043.67 4.53453 1.71779 0
M  V30 10947 N 1045.02 -0.694098 1.41492 0
M  V30 10948 C 1046.25 -1.48071 1.44078 0
M  V30 10949 C 1046.65 -1.89147 0.0448984 0
M  V30 10950 O 1046 -1.57441 -0.946464 0
M  V30 10951 C 1046.06 -2.77324 2.28761 0
M  V30 10952 C 1045.72 -2.58443 3.76904 0
M  V30 10953 C 1046.72 -2.24294 4.69029 0
M  V30 10954 C 1044.41 -2.74037 4.20962 0
M  V30 10955 C 1046.4 -2.0598 6.03201 0
M  V30 10956 C 1044.09 -2.5534 5.55198 0
M  V30 10957 C 1045.08 -2.21362 6.46133 0
M  V30 10958 O 1044.77 -2.02829 7.77892 0
M  V30 10959 H 1044.5 -0.462794 0.492745 0
M  V30 10960 H 1047.06 -0.861968 1.86438 0
M  V30 10961 H 1045.29 -3.4161 1.81217 0
M  V30 10962 H 1046.98 -3.39134 2.23031 0
M  V30 10963 H 1047.74 -2.11859 4.36281 0
M  V30 10964 H 1043.62 -2.99467 3.50486 0
M  V30 10965 H 1047.17 -1.79382 6.74142 0
M  V30 10966 H 1043.06 -2.67366 5.87525 0
M  V30 10967 H 1043.83 -2.17581 7.89051 0
M  V30 10968 N 1046.49 -1.27344 -0.928501 0
M  V30 10969 C 1047.72 -1.16447 -1.7102 0
M  V30 10970 C 1048.14 0.278799 -1.8673 0
M  V30 10971 O 1047.49 1.18989 -1.38376 0
M  V30 10972 C 1047.55 -1.84242 -3.11026 0
M  V30 10973 O 1047.27 -3.2293 -2.96054 0
M  V30 10974 C 1048.77 -1.7946 -4.05351 0
M  V30 10975 H 1045.99 -0.404898 -0.535069 0
M  V30 10976 H 1048.53 -1.68201 -1.16313 0
M  V30 10977 H 1046.69 -1.36395 -3.62595 0
M  V30 10978 H 1047.1 -3.5667 -3.8456 0
M  V30 10979 H 1048.57 -2.31511 -5.01105 0
M  V30 10980 H 1049.05 -0.763771 -4.32508 0
M  V30 10981 H 1049.66 -2.26918 -3.59706 0
M  V30 10982 N 1047.97 1.13488 -1.09353 0
M  V30 10983 C 1049.22 1.85022 -0.830354 0
M  V30 10984 C 1049.55 1.83266 0.64242 0
M  V30 10985 O 1048.83 1.27024 1.47293 0
M  V30 10986 C 1049.11 3.33218 -1.36521 0
M  V30 10987 C 1048.96 3.43491 -2.90404 0
M  V30 10988 C 1050.28 4.28626 -0.998381 0
M  V30 10989 H 1047.4 0.671786 -0.303105 0
M  V30 10990 H 1050.04 1.33211 -1.3548 0
M  V30 10991 H 1048.19 3.77471 -0.919117 0
M  V30 10992 H 1049.86 3.07954 -3.43456 0
M  V30 10993 H 1048.11 2.84391 -3.27573 0
M  V30 10994 H 1048.78 4.47702 -3.22905 0
M  V30 10995 H 1051.25 3.9244 -1.38311 0
M  V30 10996 H 1050.13 5.30754 -1.39968 0
M  V30 10997 H 1050.39 4.42001 0.093517 0
M  V30 10998 N 1049.45 0.880621 1.30701 0
M  V30 10999 C 1050.68 0.511682 2.00473 0
M  V30 11000 C 1051.09 -0.898684 1.6604 0
M  V30 11001 O 1050.45 -1.59035 0.895218 0
M  V30 11002 C 1050.5 0.671723 3.55204 0
M  V30 11003 O 1050.22 2.02656 3.8841 0
M  V30 11004 C 1051.72 0.3052 4.42248 0
M  V30 11005 H 1048.94 0.198231 0.64105 0
M  V30 11006 H 1051.49 1.18472 1.66687 0
M  V30 11007 H 1049.64 0.0461066 3.87373 0
M  V30 11008 H 1050.06 2.04202 4.83117 0
M  V30 11009 H 1051.53 0.468095 5.50012 0
M  V30 11010 H 1052.01 -0.756456 4.32637 0
M  V30 11011 H 1052.61 0.906959 4.15517 0
M  V30 11012 N 1050.93 -1.4397 0.641131 0
M  V30 11013 C 1052.18 -2.01163 0.147026 0
M  V30 11014 C 1052.49 -1.51099 -1.24211 0
M  V30 11015 O 1053.7 -2.00487 -1.83078 0
M  V30 11016 C 1052.15 -3.59275 0.212068 0
M  V30 11017 C 1051.76 -4.18334 1.60314 0
M  V30 11018 C 1053.51 -4.23903 -0.225057 0
M  V30 11019 C 1051.41 -5.68701 1.62276 0
M  V30 11020 H 1050.34 -0.75226 0.051201 0
M  V30 11021 H 1052.99 -1.65075 0.801396 0
M  V30 11022 H 1051.38 -3.92708 -0.509589 0
M  V30 11023 H 1052.55 -3.96422 2.34918 0
M  V30 11024 H 1050.86 -3.66031 1.9852 0
M  V30 11025 H 1053.46 -5.34205 -0.230074 0
M  V30 11026 H 1053.8 -3.96956 -1.25426 0
M  V30 11027 H 1054.34 -3.95309 0.44444 0
M  V30 11028 H 1051.08 -6.00397 2.63066 0
M  V30 11029 H 1050.6 -5.92705 0.919797 0
M  V30 11030 H 1052.28 -6.32521 1.36112 0
M  V30 11031 N 1052.41 -0.382291 -1.52893 0
M  V30 11032 C 1053.64 0.202408 -2.05908 0
M  V30 11033 C 1054.05 1.4109 -1.25456 0
M  V30 11034 O 1053.41 1.80027 -0.29942 0
M  V30 11035 C 1053.46 0.579452 -3.56826 0
M  V30 11036 O 1053.18 -0.58102 -4.3423 0
M  V30 11037 C 1054.68 1.22076 -4.2616 0
M  V30 11038 H 1051.9 0.0321859 -0.670228 0
M  V30 11039 H 1054.44 -0.545494 -1.9709 0
M  V30 11040 H 1052.6 1.27726 -3.65739 0
M  V30 11041 H 1053.01 -0.272693 -5.23791 0
M  V30 11042 H 1054.49 1.435 -5.33021 0
M  V30 11043 H 1054.96 2.18605 -3.80931 0
M  V30 11044 H 1055.57 0.563922 -4.21545 0
M  V30 11045 N 1053.89 1.57202 -0.111913 0
M  V30 11046 C 1055.11 1.99297 0.555713 0
M  V30 11047 C 1055.53 0.991444 1.60673 0
M  V30 11048 O 1054.89 -0.0166672 1.82492 0
M  V30 11049 C 1054.94 3.41413 1.18826 0
M  V30 11050 O 1054.66 4.37733 0.179261 0
M  V30 11051 C 1056.16 3.98602 1.93989 0
M  V30 11052 H 1053.38 0.654543 0.147695 0
M  V30 11053 H 1055.92 2.03557 -0.196163 0
M  V30 11054 H 1054.08 3.38115 1.89096 0
M  V30 11055 H 1054.49 5.20606 0.637935 0
M  V30 11056 H 1055.97 5.00143 2.33584 0
M  V30 11057 H 1056.44 3.37349 2.81233 0
M  V30 11058 H 1057.05 4.05424 1.28497 0
M  V30 11059 N 1055.36 -0.161842 1.56767 0
M  V30 11060 C 1056.78 -0.51396 1.51098 0
M  V30 11061 C 1056.98 -1.84158 0.817815 0
M  V30 11062 O 1056.04 -2.49592 0.382133 0
M  V30 11063 C 1057.35 -0.537966 2.95849 0
M  V30 11064 C 1058.9 -0.624512 3.06706 0
M  V30 11065 C 1059.37 -0.679322 4.52934 0
M  V30 11066 N 1060.86 -0.741953 4.57219 0
M  V30 11067 C 1061.6 -0.805096 5.6772 0
M  V30 11068 N 1061.09 -0.828492 6.87828 0
M  V30 11069 N 1062.89 -0.844843 5.55715 0
M  V30 11070 H 1055.04 0.708581 2.00232 0
M  V30 11071 H 1057.3 0.25663 0.912603 0
M  V30 11072 H 1057.01 0.369052 3.49758 0
M  V30 11073 H 1056.88 -1.38113 3.51005 0
M  V30 11074 H 1059.27 -1.52195 2.52825 0
M  V30 11075 H 1059.35 0.245515 2.54619 0
M  V30 11076 H 1058.99 0.213901 5.07449 0
M  V30 11077 H 1058.92 -1.56563 5.02788 0
M  V30 11078 H 1061.41 -0.731772 3.70747 0
M  V30 11079 H 1061.73 -0.878109 7.67795 0
M  V30 11080 H 1060.07 -0.796612 6.9042 0
M  V30 11081 H 1063.26 -0.823632 4.60797 0
M  V30 11082 H 1063.44 -0.890588 6.41851 0
M  V30 11083 N 1056.84 -1.516 -0.430713 0
M  V30 11084 C 1058.07 -1.687 -1.20644 0
M  V30 11085 C 1058.49 -0.386555 -1.84085 0
M  V30 11086 O 1057.85 0.653952 -1.69095 0
M  V30 11087 C 1057.9 -2.80887 -2.2613 0
M  V30 11088 O 1057 -2.44952 -3.31772 0
M  V30 11089 H 1056.34 -0.562289 -0.353167 0
M  V30 11090 H 1058.87 -1.98198 -0.507807 0
M  V30 11091 H 1058.88 -3.05167 -2.70809 0
M  V30 11092 H 1057.56 -3.75249 -1.79334 0
M  V30 11093 H 1056.13 -2.31267 -2.92523 0
M  V30 11094 N 1058.32 0.686584 -1.41858 0
M  V30 11095 C 1059.57 1.44379 -1.41418 0
M  V30 11096 C 1059.89 1.94981 -0.0273696 0
M  V30 11097 O 1059.16 1.72296 0.932248 0
M  V30 11098 H 1057.74 0.53574 -0.520568 0
M  V30 11099 H 1060.4 0.812056 -1.77177 0
M  V30 11100 H 1059.5 2.30258 -2.10684 0
M  V30 11101 N 1059.8 1.27835 0.921735 0
M  V30 11102 C 1060.74 1.11075 2.02314 0
M  V30 11103 C 1061.71 0.0101195 1.66097 0
M  V30 11104 O 1062.9 0.173564 1.90009 0
M  V30 11105 C 1060.04 0.770251 3.36394 0
M  V30 11106 C 1059.15 1.94912 3.8553 0
M  V30 11107 C 1058.29 1.54996 5.08084 0
M  V30 11108 C 1057.33 2.69595 5.49531 0
M  V30 11109 N 1056.46 2.30227 6.6328 0
M  V30 11110 H 1061.3 2.05319 2.15982 0
M  V30 11111 H 1058.84 1.022 1.058 0
M  V30 11112 H 1060.8 0.553624 4.1351 0
M  V30 11113 H 1059.43 -0.135238 3.22517 0
M  V30 11114 H 1058.48 2.27811 3.04641 0
M  V30 11115 H 1059.79 2.80858 4.12214 0
M  V30 11116 H 1058.95 1.29493 5.9272 0
M  V30 11117 H 1057.69 0.661676 4.83191 0
M  V30 11118 H 1056.69 2.95806 4.63442 0
M  V30 11119 H 1057.92 3.59054 5.76417 0
M  V30 11120 H 1055.86 1.43858 6.40032 0
M  V30 11121 H 1055.78 3.09711 6.89649 0
M  V30 11122 H 1057.05 2.07987 7.5124 0
M  V30 11123 N 1061.28 -1.12907 1.09954 0
M  V30 11124 C 1062.51 -1.87866 0.859656 0
M  V30 11125 C 1062.91 -1.79664 -0.593096 0
M  V30 11126 O 1062.26 -1.16499 -1.42034 0
M  V30 11127 C 1062.32 -3.38055 1.22308 0
M  V30 11128 C 1061.98 -3.70035 2.68185 0
M  V30 11129 C 1062.98 -3.68817 3.66428 0
M  V30 11130 C 1060.66 -3.99523 3.04444 0
M  V30 11131 C 1062.66 -3.96639 4.98955 0
M  V30 11132 C 1060.35 -4.27006 4.37161 0
M  V30 11133 C 1061.34 -4.25549 5.34225 0
M  V30 11134 O 1061.03 -4.52354 6.64553 0
M  V30 11135 H 1060.76 -0.601425 0.308649 0
M  V30 11136 H 1063.32 -1.43817 1.46649 0
M  V30 11137 H 1061.55 -3.82634 0.559322 0
M  V30 11138 H 1063.24 -3.94348 0.961479 0
M  V30 11139 H 1064 -3.46104 3.3976 0
M  V30 11140 H 1059.88 -3.99801 2.29521 0
M  V30 11141 H 1063.43 -3.95418 5.74709 0
M  V30 11142 H 1059.32 -4.49192 4.6357 0
M  V30 11143 H 1060.09 -4.69997 6.70108 0
M  V30 11144 N 1062.75 -0.88754 -1.30232 0
M  V30 11145 C 1063.66 -0.360333 -2.31816 0
M  V30 11146 C 1064.68 0.538741 -1.6545 0
M  V30 11147 O 1065.86 0.431246 -1.96729 0
M  V30 11148 C 1062.92 0.414336 -3.44215 0
M  V30 11149 C 1061.98 -0.514799 -4.26202 0
M  V30 11150 C 1061.21 0.222994 -5.33234 0
M  V30 11151 O 1061.44 1.44871 -5.51696 0
M  V30 11152 O 1060.37 -0.428221 -6.00375 0
M  V30 11153 H 1064.2 -1.20279 -2.78867 0
M  V30 11154 H 1061.78 -0.651459 -1.34448 0
M  V30 11155 H 1063.66 0.852859 -4.12679 0
M  V30 11156 H 1062.34 1.23305 -2.99295 0
M  V30 11157 H 1061.25 -1.00219 -3.60426 0
M  V30 11158 H 1062.58 -1.29959 -4.74733 0
M  V30 11159 N 1064.23 1.43628 -0.648757 0
M  V30 11160 C 1065.18 2.32529 0.057536 0
M  V30 11161 C 1066.17 1.48358 0.817699 0
M  V30 11162 O 1067.38 1.64595 0.728605 0
M  V30 11163 H 1063.76 0.75107 0.037388 0
M  V30 11164 H 1065.73 2.89829 -0.710062 0
M  V30 11165 C 1064.48 3.32605 1.01336 0
M  V30 11166 H 1063.8 3.97395 0.437855 0
M  V30 11167 H 1065.24 3.97453 1.47672 0
M  V30 11168 C 1063.7 2.62865 2.10722 0
M  V30 11169 O 1064.23 2.4408 3.19042 0
M  V30 11170 N 1062.43 2.22312 1.87152 0
M  V30 11171 H 1061.98 2.3779 0.990644 0
M  V30 11172 H 1061.94 1.75979 2.60536 0
M  V30 11173 N 1065.71 0.390394 1.52688 0
M  V30 11174 C 1066.66 -0.461191 2.23287 0
M  V30 11175 C 1067.64 -1.02875 1.23716 0
M  V30 11176 O 1068.84 -0.954675 1.49047 0
M  V30 11177 C 1065.97 -1.58736 3.04397 0
M  V30 11178 C 1065.05 -1.03149 4.11365 0
M  V30 11179 N 1065.44 -0.20066 5.05402 0
M  V30 11180 C 1063.74 -1.30388 4.26515 0
M  V30 11181 C 1064.44 0.106548 5.81602 0
M  V30 11182 N 1063.42 -0.497687 5.41317 0
M  V30 11183 H 1067.22 0.1801 2.93348 0
M  V30 11184 H 1064.73 0.199761 1.61167 0
M  V30 11185 H 1066.73 -2.20986 3.53512 0
M  V30 11186 H 1065.39 -2.23147 2.35872 0
M  V30 11187 H 1066.4 0.162168 5.17646 0
M  V30 11188 H 1063.08 -1.94894 3.69219 0
M  V30 11189 H 1064.47 0.779778 6.6736 0
M  V30 11190 N 1067.19 -1.57141 0.120249 0
M  V30 11191 C 1068.41 -2.00017 -0.548454 0
M  V30 11192 C 1068.84 -0.999433 -1.59352 0
M  V30 11193 O 1068.2 0.0286978 -1.81277 0
M  V30 11194 C 1068.24 -3.41766 -1.15015 0
M  V30 11195 O 1067.35 -3.44589 -2.26566 0
M  V30 11196 H 1066.69 -0.649739 -0.136875 0
M  V30 11197 H 1069.22 -2.03529 0.209092 0
M  V30 11198 H 1069.23 -3.80001 -1.48537 0
M  V30 11199 H 1067.9 -4.14117 -0.384681 0
M  V30 11200 H 1066.48 -3.18174 -1.94473 0
M  V30 11201 N 1068.67 0.153526 -1.5685 0
M  V30 11202 C 1069.91 0.867232 -1.8299 0
M  V30 11203 C 1070.24 1.81462 -0.700125 0
M  V30 11204 O 1069.5 1.93207 0.311348 0
M  V30 11205 C 1069.8 1.68066 -3.15418 0
M  V30 11206 C 1069.46 0.880635 -4.42217 0
M  V30 11207 C 1068.12 0.659899 -4.76654 0
M  V30 11208 C 1070.48 0.320698 -5.20212 0
M  V30 11209 C 1067.8 -0.131588 -5.86552 0
M  V30 11210 C 1070.16 -0.457794 -6.30941 0
M  V30 11211 C 1068.82 -0.689168 -6.63933 0
M  V30 11212 H 1068.09 0.317343 -0.669608 0
M  V30 11213 H 1070.74 0.131208 -1.9105 0
M  V30 11214 H 1069.04 2.4866 -3.02779 0
M  V30 11215 H 1070.74 2.23623 -3.32857 0
M  V30 11216 H 1067.33 1.06274 -4.15215 0
M  V30 11217 H 1071.51 0.47853 -4.93988 0
M  V30 11218 H 1066.77 -0.320413 -6.1056 0
M  V30 11219 H 1070.94 -0.898839 -6.90575 0
M  V30 11220 H 1068.57 -1.30433 -7.48927 0
M  V30 11221 N 1070.14 1.51827 0.422667 0
M  V30 11222 C 1071.37 1.69337 1.19748 0
M  V30 11223 C 1071.79 0.396312 1.83878 0
M  V30 11224 O 1071.15 -0.644976 1.6944 0
M  V30 11225 C 1071.2 2.82082 2.24637 0
M  V30 11226 O 1070.3 2.46708 3.30468 0
M  V30 11227 H 1069.65 0.564154 0.35018 0
M  V30 11228 H 1072.18 1.98465 0.497289 0
M  V30 11229 H 1072.19 3.06599 2.69186 0
M  V30 11230 H 1070.86 3.76195 1.77341 0
M  V30 11231 H 1069.44 2.32815 2.91293 0
M  V30 11232 N 1071.62 -0.679052 1.4222 0
M  V30 11233 C 1072.55 -1.80455 1.41311 0
M  V30 11234 C 1073.57 -1.59767 0.312799 0
M  V30 11235 O 1074.76 -1.68964 0.575612 0
M  V30 11236 C 1071.86 -3.17492 1.18541 0
M  V30 11237 C 1071.03 -3.65066 2.40926 0
M  V30 11238 C 1070.09 -4.80823 2.13765 0
M  V30 11239 O 1069.11 -4.91587 2.86934 0
M  V30 11240 N 1070.32 -5.69233 1.13813 0
M  V30 11241 H 1073.08 -1.81722 2.38322 0
M  V30 11242 H 1070.64 -0.861988 1.37045 0
M  V30 11243 H 1072.63 -3.92581 0.982958 0
M  V30 11244 H 1071.2 -3.1115 0.300691 0
M  V30 11245 H 1070.42 -2.80702 2.76767 0
M  V30 11246 H 1071.71 -3.93593 3.22431 0
M  V30 11247 H 1071.11 -5.63185 0.532887 0
M  V30 11248 H 1069.67 -6.44152 0.995554 0
M  V30 11249 N 1073.1 -1.28322 -0.914942 0
M  V30 11250 C 1074.01 -1.13993 -2.05043 0
M  V30 11251 C 1075.03 -0.0667921 -1.73872 0
M  V30 11252 O 1076.2 -0.275845 -1.99502 0
M  V30 11253 C 1073.27 -0.801856 -3.373 0
M  V30 11254 C 1072.33 -1.95723 -3.82088 0
M  V30 11255 C 1071.56 -1.63519 -5.08033 0
M  V30 11256 O 1071.78 -0.54899 -5.67752 0
M  V30 11257 O 1070.72 -2.47844 -5.48504 0
M  V30 11258 H 1074.54 -2.09313 -2.2005 0
M  V30 11259 H 1072.13 -1.0763 -1.03616 0
M  V30 11260 H 1074.01 -0.627214 -4.16706 0
M  V30 11261 H 1072.69 0.121696 -3.23471 0
M  V30 11262 H 1071.59 -2.18702 -3.03514 0
M  V30 11263 H 1072.93 -2.86144 -4.00478 0
M  V30 11264 N 1074.58 1.12322 -1.10551 0
M  V30 11265 C 1075.99 1.35858 -0.837543 0
M  V30 11266 C 1076.19 1.94062 0.54241 0
M  V30 11267 O 1075.25 2.1676 1.29505 0
M  V30 11268 C 1076.56 2.299 -1.9382 0
M  V30 11269 C 1078.11 2.43488 -1.96679 0
M  V30 11270 C 1078.59 3.40846 -3.05922 0
M  V30 11271 N 1080.08 3.48404 -3.05236 0
M  V30 11272 C 1080.81 4.2365 -3.86405 0
M  V30 11273 N 1080.31 5.01951 -4.77512 0
M  V30 11274 N 1082.1 4.19068 -3.74618 0
M  V30 11275 H 1074.25 0.729002 -1.99498 0
M  V30 11276 H 1076.52 0.38339 -0.867016 0
M  V30 11277 H 1076.22 1.94309 -2.9315 0
M  V30 11278 H 1076.1 3.30033 -1.82641 0
M  V30 11279 H 1078.48 2.78359 -0.979813 0
M  V30 11280 H 1078.56 1.43239 -2.11934 0
M  V30 11281 H 1078.21 3.06704 -4.04839 0
M  V30 11282 H 1078.14 4.40927 -2.87907 0
M  V30 11283 H 1080.63 2.92545 -2.39219 0
M  V30 11284 H 1080.94 5.56707 -5.36002 0
M  V30 11285 H 1079.29 5.01143 -4.8154 0
M  V30 11286 H 1082.48 3.5698 -3.02792 0
M  V30 11287 H 1082.65 4.77455 -4.38111 0
M  V30 11288 N 1076.06 0.894434 1.2976 0
M  V30 11289 C 1077.28 0.532916 1.99919 0
M  V30 11290 C 1077.7 -0.881022 1.66983 0
M  V30 11291 O 1077.06 -1.58076 0.912035 0
M  V30 11292 C 1077.11 0.70936 3.54472 0
M  V30 11293 O 1076.83 2.06764 3.86239 0
M  V30 11294 C 1078.33 0.352089 4.419 0
M  V30 11295 H 1075.55 0.205019 0.638912 0
M  V30 11296 H 1078.09 1.20233 1.65421 0
M  V30 11297 H 1076.25 0.0871901 3.87302 0
M  V30 11298 H 1076.66 2.09315 4.80924 0
M  V30 11299 H 1078.14 0.526405 5.49484 0
M  V30 11300 H 1078.61 -0.710527 4.33415 0
M  V30 11301 H 1079.22 0.950979 4.14532 0
M  V30 11302 N 1077.53 -1.43282 0.656365 0
M  V30 11303 C 1078.78 -2.02075 0.171293 0
M  V30 11304 C 1079.11 -1.51682 -1.21269 0
M  V30 11305 O 1078.39 -0.711243 -1.81029 0
M  V30 11306 C 1078.67 -3.59621 0.185602 0
M  V30 11307 C 1078.52 -4.20239 1.60373 0
M  V30 11308 C 1079.84 -4.37515 -0.476289 0
M  V30 11309 H 1076.96 -0.73424 0.0637185 0
M  V30 11310 H 1079.6 -1.70539 0.837648 0
M  V30 11311 H 1077.75 -3.86619 -0.381804 0
M  V30 11312 H 1079.43 -4.0426 2.22197 0
M  V30 11313 H 1077.67 -3.76769 2.15006 0
M  V30 11314 H 1078.34 -5.29333 1.56557 0
M  V30 11315 H 1080.82 -4.16099 0.00651073 0
M  V30 11316 H 1079.69 -5.47169 -0.435562 0
M  V30 11317 H 1079.95 -4.14003 -1.55093 0
M  V30 11318 N 1079.01 -0.398486 -1.52479 0
M  V30 11319 C 1080.42 0.0735015 -1.86555 0
M  V30 11320 C 1080.78 1.45361 -1.31775 0
M  V30 11321 O 1079.9 2.0632 -0.652759 0
M  V30 11322 C 1080.5 0.140152 -3.3851 0
M  V30 11323 C 1079.05 0.556451 -3.72264 0
M  V30 11324 C 1078.2 -0.275792 -2.75925 0
M  V30 11325 H 1081.15 -0.615991 -1.46257 0
M  V30 11326 H 1081.17 0.957507 -3.68255 0
M  V30 11327 H 1080.69 -0.864442 -3.7835 0
M  V30 11328 H 1078.79 1.56808 -3.37997 0
M  V30 11329 H 1078.9 0.308227 -4.78107 0
M  V30 11330 H 1077.26 0.260304 -2.53366 0
M  V30 11331 H 1078.05 -1.27854 -3.18604 0
M  V30 11332 N 1080.49 1.57075 -0.12858 0
M  V30 11333 C 1081.77 1.87075 0.571162 0
M  V30 11334 C 1082.15 1.03141 1.84188 0
M  V30 11335 O 1081.5 0.113001 2.2822 0
M  V30 11336 C 1081.71 3.3838 0.854383 0
M  V30 11337 C 1083.05 4.07194 1.20326 0
M  V30 11338 O 1084.08 3.43454 0.944338 0
M  V30 11339 O 1082.94 5.19725 1.68963 0
M  V30 11340 H 1080.03 0.774764 0.289258 0
M  V30 11341 H 1082.58 1.68908 -0.163806 0
M  V30 11342 H 1081.35 3.91273 -0.0456925 0
M  V30 11343 H 1080.97 3.62012 1.64418 0
M  V30 11344 N 1081.97 -0.145205 1.5693 0
M  V30 11345 C 1082.92 -1.17923 1.98401 0
M  V30 11346 C 1083.89 -1.42591 0.851885 0
M  V30 11347 O 1085.07 -1.54896 1.11409 0
M  V30 11348 C 1082.21 -2.50727 2.37128 0
M  V30 11349 C 1081.32 -2.33218 3.63639 0
M  V30 11350 C 1080.46 -3.5907 3.91462 0
M  V30 11351 C 1079.5 -3.36605 5.11237 0
M  V30 11352 N 1078.64 -4.54592 5.35061 0
M  V30 11353 H 1083.48 -0.818573 2.86537 0
M  V30 11354 H 1081.01 -0.392739 1.4176 0
M  V30 11355 H 1082.97 -3.28165 2.57611 0
M  V30 11356 H 1081.6 -2.84736 1.52069 0
M  V30 11357 H 1080.65 -1.46826 3.50922 0
M  V30 11358 H 1081.96 -2.12579 4.51234 0
M  V30 11359 H 1081.12 -4.44936 4.12453 0
M  V30 11360 H 1079.86 -3.82715 3.02293 0
M  V30 11361 H 1078.86 -2.49127 4.90118 0
M  V30 11362 H 1080.09 -3.14357 6.01961 0
M  V30 11363 H 1078.03 -4.78406 4.48847 0
M  V30 11364 H 1077.95 -4.36962 6.16928 0
M  V30 11365 H 1079.22 -5.41666 5.60551 0
M  V30 11366 N 1083.45 -1.52049 -0.414609 0
M  V30 11367 C 1084.69 -1.66084 -1.16379 0
M  V30 11368 C 1085.03 -0.386932 -1.90306 0
M  V30 11369 O 1084.3 0.614441 -1.8454 0
M  V30 11370 C 1084.58 -2.87927 -2.16264 0
M  V30 11371 C 1084.44 -4.25353 -1.46269 0
M  V30 11372 C 1085.76 -3.05289 -3.16996 0
M  V30 11373 H 1082.88 -0.604414 -0.421726 0
M  V30 11374 H 1085.52 -1.8459 -0.450177 0
M  V30 11375 H 1083.67 -2.7228 -2.77121 0
M  V30 11376 H 1085.34 -4.52717 -0.885743 0
M  V30 11377 H 1083.58 -4.27006 -0.76472 0
M  V30 11378 H 1084.25 -5.06644 -2.19126 0
M  V30 11379 H 1086.73 -3.19798 -2.66212 0
M  V30 11380 H 1085.61 -3.92065 -3.84156 0
M  V30 11381 H 1085.87 -2.1836 -3.84411 0
M  V30 11382 N 1084.93 0.6715 -1.42579 0
M  V30 11383 C 1085.86 1.79703 -1.42266 0
M  V30 11384 C 1086.87 1.59599 -0.321268 0
M  V30 11385 O 1088.06 1.68657 -0.584564 0
M  V30 11386 C 1085.16 3.16859 -1.20224 0
M  V30 11387 C 1084.33 3.63783 -2.42859 0
M  V30 11388 C 1083.39 4.79683 -2.16312 0
M  V30 11389 O 1082.42 4.90058 -2.89537 0
M  V30 11390 N 1083.62 5.68622 -1.16831 0
M  V30 11391 H 1086.38 1.80455 -2.39282 0
M  V30 11392 H 1083.95 0.854708 -1.375 0
M  V30 11393 H 1085.94 3.92054 -1.00376 0
M  V30 11394 H 1084.51 3.10987 -0.317188 0
M  V30 11395 H 1083.73 2.7923 -2.78252 0
M  V30 11396 H 1085.02 3.91877 -3.24514 0
M  V30 11397 H 1084.41 5.62894 -0.562746 0
M  V30 11398 H 1082.97 6.43615 -1.0297 0
M  V30 11399 N 1086.4 1.28806 0.908124 0
M  V30 11400 C 1087.65 1.16058 1.65454 0
M  V30 11401 C 1087.97 -0.290057 1.92831 0
M  V30 11402 O 1087.24 -1.20001 1.54843 0
M  V30 11403 H 1085.82 0.426522 0.61326 0
M  V30 11404 H 1088.48 1.61614 1.08936 0
M  V30 11405 H 1087.58 1.70437 2.61453 0
M  V30 11406 N 1087.88 -1.11734 1.11145 0
M  V30 11407 C 1089.13 -1.83677 0.859684 0
M  V30 11408 C 1089.46 -1.84265 -0.613182 0
M  V30 11409 O 1088.74 -1.29351 -1.45254 0
M  V30 11410 C 1089.02 -3.31003 1.41805 0
M  V30 11411 C 1088.87 -3.38827 2.95831 0
M  V30 11412 C 1090.19 -4.26984 1.06645 0
M  V30 11413 H 1087.31 -0.666879 0.313754 0
M  V30 11414 H 1089.95 -1.31038 1.37583 0
M  V30 11415 H 1088.1 -3.75961 0.979054 0
M  V30 11416 H 1089.77 -3.02451 3.48312 0
M  V30 11417 H 1088.02 -2.79143 3.32056 0
M  V30 11418 H 1088.69 -4.42508 3.29986 0
M  V30 11419 H 1091.16 -3.9019 1.44537 0
M  V30 11420 H 1090.04 -5.2846 1.48394 0
M  V30 11421 H 1090.3 -4.42094 -0.0231866 0
M  V30 11422 N 1089.36 -0.901303 -1.29284 0
M  V30 11423 C 1090.58 -0.542823 -2.0017 0
M  V30 11424 C 1091.01 0.865583 -1.67001 0
M  V30 11425 O 1090.37 1.5764 -0.895502 0
M  V30 11426 C 1090.42 -0.743987 -3.52842 0
M  V30 11427 O 1089.52 0.202771 -4.11901 0
M  V30 11428 H 1088.86 -0.211903 -0.62928 0
M  V30 11429 H 1091.39 -1.21333 -1.64741 0
M  V30 11430 H 1091.4 -0.64926 -4.02801 0
M  V30 11431 H 1090.08 -1.77077 -3.7632 0
M  V30 11432 H 1088.65 0.0603637 -3.72851 0
M  V30 11433 N 1090.84 1.42931 -0.663954 0
M  V30 11434 C 1092.08 2.01982 -0.182007 0
M  V30 11435 C 1092.42 1.52323 1.20463 0
M  V30 11436 O 1091.69 0.720834 1.80649 0
M  V30 11437 C 1091.97 3.59518 -0.204671 0
M  V30 11438 C 1091.83 4.19382 -1.62599 0
M  V30 11439 C 1093.15 4.37762 0.45308 0
M  V30 11440 H 1090.27 0.733892 -0.0676115 0
M  V30 11441 H 1092.91 1.70092 -0.84668 0
M  V30 11442 H 1091.06 3.86816 0.361295 0
M  V30 11443 H 1092.73 4.03076 -2.24337 0
M  V30 11444 H 1090.97 3.75623 -2.17001 0
M  V30 11445 H 1091.64 5.28496 -1.59362 0
M  V30 11446 H 1094.12 4.1609 -0.0285774 0
M  V30 11447 H 1093 5.47392 0.406538 0
M  V30 11448 H 1093.26 4.1482 1.52895 0
M  V30 11449 N 1092.32 0.406567 1.52266 0
M  V30 11450 C 1093.54 -0.172101 2.06685 0
M  V30 11451 C 1093.97 -1.38306 1.27488 0
M  V30 11452 O 1093.32 -1.78726 0.304441 0
M  V30 11453 C 1093.37 -0.503463 3.57068 0
M  V30 11454 O 1092.48 -1.59485 3.80314 0
M  V30 11455 H 1091.82 -0.0153209 0.663823 0
M  V30 11456 H 1094.35 0.579025 1.96236 0
M  V30 11457 H 1094.36 -0.762833 4.00805 0
M  V30 11458 H 1093.03 0.381775 4.14144 0
M  V30 11459 H 1091.61 -1.32784 3.48458 0
M  V30 11460 N 1093.79 -1.57004 0.136909 0
M  V30 11461 C 1094.74 -2.17524 -0.823784 0
M  V30 11462 C 1095.74 -1.1294 -1.26258 0
M  V30 11463 O 1096.94 -1.3121 -1.23223 0
M  V30 11464 H 1093.32 -0.696381 -0.283827 0
M  V30 11465 H 1095.29 -2.96997 -0.289052 0
M  V30 11466 C 1094.04 -2.80331 -2.05693 0
M  V30 11467 H 1093.36 -3.60515 -1.72825 0
M  V30 11468 H 1094.8 -3.26192 -2.70878 0
M  V30 11469 C 1093.26 -1.78322 -2.85837 0
M  V30 11470 O 1093.79 -1.2475 -3.81838 0
M  V30 11471 N 1092 -1.47854 -2.50175 0
M  V30 11472 H 1091.54 -1.9161 -1.72173 0
M  V30 11473 H 1091.5 -0.798464 -3.04092 0
M  V30 11474 N 1095.27 0.136881 -1.57004 0
M  V30 11475 C 1096.5 0.866405 -1.88436 0
M  V30 11476 C 1096.92 1.73483 -0.727006 0
M  V30 11477 O 1096.28 1.78398 0.323094 0
M  V30 11478 C 1096.33 1.69059 -3.18514 0
M  V30 11479 O 1095.43 2.79584 -3.03161 0
M  V30 11480 H 1094.77 0.240709 -0.618834 0
M  V30 11481 H 1097.3 0.124653 -2.0422 0
M  V30 11482 H 1097.31 2.08353 -3.50789 0
M  V30 11483 H 1095.99 1.05296 -4.0235 0
M  V30 11484 H 1094.57 2.43623 -2.82315 0
M  V30 11485 N 1096.75 1.52266 0.40654 0
M  V30 11486 C 1097.71 1.75168 1.47814 0
M  V30 11487 C 1098.71 0.621575 1.48301 0
M  V30 11488 O 1099.9 0.889476 1.4978 0
M  V30 11489 C 1097.04 1.83642 2.87208 0
M  V30 11490 H 1098.23 2.70834 1.28798 0
M  V30 11491 H 1095.78 1.42722 0.637196 0
M  V30 11492 H 1096.52 0.898994 3.1159 0
M  V30 11493 H 1096.3 2.65801 2.88257 0
M  V30 11494 H 1097.79 2.03093 3.64888 0
M  V30 11495 N 1098.23 -0.663929 1.42933 0
M  V30 11496 C 1099.64 -0.978346 1.26097 0
M  V30 11497 C 1099.84 -2.00756 0.172968 0
M  V30 11498 O 1098.9 -2.48418 -0.452184 0
M  V30 11499 C 1100.21 -1.4728 2.62162 0
M  V30 11500 C 1101.76 -1.59001 2.69606 0
M  V30 11501 C 1102.24 -2.1184 4.06064 0
M  V30 11502 N 1103.73 -2.19158 4.08074 0
M  V30 11503 C 1104.46 -2.61141 5.10483 0
M  V30 11504 N 1103.96 -3.02498 6.23271 0
M  V30 11505 N 1105.75 -2.60986 4.97838 0
M  V30 11506 H 1097.9 0.0173096 2.12393 0
M  V30 11507 H 1100.17 -0.0548116 0.946414 0
M  V30 11508 H 1099.87 -0.791008 3.42689 0
M  V30 11509 H 1099.75 -2.4497 2.86827 0
M  V30 11510 H 1102.13 -2.26284 1.89418 0
M  V30 11511 H 1102.21 -0.597728 2.48718 0
M  V30 11512 H 1101.86 -1.45162 4.86714 0
M  V30 11513 H 1101.79 -3.1188 4.2431 0
M  V30 11514 H 1104.28 -1.90013 3.26655 0
M  V30 11515 H 1104.59 -3.33251 6.97254 0
M  V30 11516 H 1102.94 -3.00328 6.2676 0
M  V30 11517 H 1106.13 -2.28046 4.08794 0
M  V30 11518 H 1106.3 -2.93384 5.7778 0
M  V30 11519 N 1099.71 -1.29285 -0.901281 0
M  V30 11520 C 1100.93 -1.20169 -1.69039 0
M  V30 11521 C 1101.36 0.234509 -1.86632 0
M  V30 11522 O 1100.71 1.16935 -1.38549 0
M  V30 11523 C 1100.76 -1.91852 -3.05328 0
M  V30 11524 O 1099.87 -1.23448 -3.9349 0
M  V30 11525 H 1099.21 -0.416486 -0.517141 0
M  V30 11526 H 1101.74 -1.70826 -1.12603 0
M  V30 11527 H 1101.75 -2.00244 -3.5548 0
M  V30 11528 H 1100.42 -2.96313 -2.91841 0
M  V30 11529 H 1099 -1.23303 -3.51924 0
M  V30 11530 N 1101.18 1.11143 -1.11736 0
M  V30 11531 C 1102.46 1.79384 -0.779785 0
M  V30 11532 C 1102.84 1.98015 0.731668 0
M  V30 11533 O 1102.19 1.56731 1.66276 0
M  V30 11534 C 1102.4 3.12868 -1.54643 0
M  V30 11535 C 1103.75 3.8786 -1.7277 0
M  V30 11536 O 1104.77 3.22566 -1.51094 0
M  V30 11537 O 1103.63 5.05034 -2.08813 0
M  V30 11538 H 1100.72 0.777128 -0.282845 0
M  V30 11539 H 1103.27 1.17858 -1.22096 0
M  V30 11540 H 1102.04 2.94682 -2.57446 0
M  V30 11541 H 1101.67 3.82109 -1.09901 0
M  V30 11542 N 1102.66 0.908147 1.28804 0
M  V30 11543 C 1103.89 0.553287 1.99054 0
M  V30 11544 C 1104.3 -0.868455 1.68091 0
M  V30 11545 O 1103.64 -1.58599 0.926939 0
M  V30 11546 C 1103.71 0.675823 3.5309 0
M  V30 11547 C 1103.37 2.06608 4.0763 0
M  V30 11548 C 1104.37 3.03819 4.21889 0
M  V30 11549 C 1102.05 2.37775 4.42457 0
M  V30 11550 C 1104.05 4.30316 4.7022 0
M  V30 11551 C 1101.73 3.64512 4.90484 0
M  V30 11552 C 1102.73 4.60597 5.04321 0
M  V30 11553 O 1102.42 5.85082 5.51302 0
M  V30 11554 H 1102.15 0.210152 0.642504 0
M  V30 11555 H 1104.7 1.22188 1.65104 0
M  V30 11556 H 1102.93 -0.0498253 3.86668 0
M  V30 11557 H 1104.62 0.328884 4.04565 0
M  V30 11558 H 1105.39 2.81057 3.95262 0
M  V30 11559 H 1101.27 1.63742 4.3094 0
M  V30 11560 H 1104.81 5.05318 4.80936 0
M  V30 11561 H 1100.71 3.87101 5.1655 0
M  V30 11562 H 1101.48 5.87791 5.69599 0
M  V30 11563 N 1104.14 -1.42577 0.671525 0
M  V30 11564 C 1105.07 -2.33499 0.00506984 0
M  V30 11565 C 1106.05 -1.50497 -0.792763 0
M  V30 11566 O 1107.24 -1.79109 -0.750574 0
M  V30 11567 C 1104.37 -3.34077 -0.949194 0
M  V30 11568 C 1103.32 -4.27208 -0.260187 0
M  V30 11569 C 1102.65 -5.17968 -1.32716 0
M  V30 11570 C 1103.95 -5.15192 0.858772 0
M  V30 11571 H 1105.64 -2.89477 0.764407 0
M  V30 11572 H 1103.19 -1.39191 0.369043 0
M  V30 11573 H 1105.14 -3.96594 -1.42448 0
M  V30 11574 H 1103.86 -2.76396 -1.73991 0
M  V30 11575 H 1102.52 -3.66082 0.194834 0
M  V30 11576 H 1102.17 -4.56615 -2.10979 0
M  V30 11577 H 1101.87 -5.81104 -0.871293 0
M  V30 11578 H 1103.39 -5.83359 -1.80345 0
M  V30 11579 H 1104.81 -5.71412 0.464844 0
M  V30 11580 H 1103.21 -5.87144 1.24023 0
M  V30 11581 H 1104.28 -4.53787 1.70895 0
M  V30 11582 N 1105.62 -0.414636 -1.52048 0
M  V30 11583 C 1107.03 -0.0657806 -1.59464 0
M  V30 11584 C 1107.23 1.4225 -1.42713 0
M  V30 11585 O 1106.29 2.18996 -1.25687 0
M  V30 11586 C 1107.6 -0.565618 -2.95332 0
M  V30 11587 C 1109.15 -0.524072 -3.08581 0
M  V30 11588 C 1109.63 -1.00051 -4.46938 0
M  V30 11589 N 1111.12 -0.957555 -4.53194 0
M  V30 11590 C 1111.85 -1.29733 -5.58531 0
M  V30 11591 N 1111.35 -1.70883 -6.71395 0
M  V30 11592 N 1113.14 -1.21694 -5.48769 0
M  V30 11593 H 1105.29 -1.38325 -1.61183 0
M  V30 11594 H 1107.56 -0.568593 -0.758556 0
M  V30 11595 H 1107.26 -1.60604 -3.12888 0
M  V30 11596 H 1107.14 0.0217735 -3.77194 0
M  V30 11597 H 1109.52 0.507319 -2.90707 0
M  V30 11598 H 1109.6 -1.14759 -2.28613 0
M  V30 11599 H 1109.25 -2.03025 -4.65557 0
M  V30 11600 H 1109.18 -0.353754 -5.2541 0
M  V30 11601 H 1111.67 -0.65508 -3.72179 0
M  V30 11602 H 1111.98 -1.95105 -7.47766 0
M  V30 11603 H 1110.33 -1.74791 -6.72661 0
M  V30 11604 H 1113.52 -0.894286 -4.59478 0
M  V30 11605 H 1113.69 -1.48504 -6.30754 0
M  V30 11606 N 1107.1 1.56929 -0.145233 0
M  V30 11607 C 1108.34 1.96358 0.50707 0
M  V30 11608 C 1108.68 1.03005 1.64632 0
M  V30 11609 O 1107.95 0.0721045 1.94366 0
M  V30 11610 C 1108.23 3.45502 1.01492 0
M  V30 11611 C 1108.09 4.49633 -0.122708 0
M  V30 11612 C 1109.41 3.97103 1.89729 0
M  V30 11613 H 1106.52 0.713958 0.182848 0
M  V30 11614 H 1109.17 1.8865 -0.226102 0
M  V30 11615 H 1107.32 3.52202 1.6397 0
M  V30 11616 H 1108.99 4.55013 -0.758988 0
M  V30 11617 H 1107.23 4.26691 -0.782109 0
M  V30 11618 H 1107.9 5.51318 0.27432 0
M  V30 11619 H 1110.38 3.92871 1.37082 0
M  V30 11620 H 1109.25 5.01927 2.22173 0
M  V30 11621 H 1109.52 3.39354 2.83357 0
M  V30 11622 N 1108.58 -0.128553 1.57075 0
M  V30 11623 C 1109.8 -0.8564 1.88893 0
M  V30 11624 C 1110.23 -1.73095 0.736196 0
M  V30 11625 O 1109.58 -1.78567 -0.313629 0
M  V30 11626 C 1109.63 -1.67368 3.19406 0
M  V30 11627 O 1108.74 -2.77973 3.04639 0
M  V30 11628 H 1108.08 -0.237424 0.620102 0
M  V30 11629 H 1110.61 -0.113821 2.04283 0
M  V30 11630 H 1110.62 -2.0649 3.51889 0
M  V30 11631 H 1109.29 -1.03161 4.02903 0
M  V30 11632 H 1107.87 -2.42123 2.83603 0
M  V30 11633 N 1110.05 -1.5248 -0.398459 0
M  V30 11634 C 1111.3 -1.68262 -1.14277 0
M  V30 11635 C 1111.65 -0.412722 -1.87921 0
M  V30 11636 O 1110.95 0.593257 -1.82184 0
M  V30 11637 C 1111.14 -2.85038 -2.15611 0
M  V30 11638 C 1110.97 -4.23262 -1.51919 0
M  V30 11639 C 1109.74 -4.88627 -1.28732 0
M  V30 11640 C 1111.94 -5.04986 -0.974349 0
M  V30 11641 N 1109.92 -6.10857 -0.610455 0
M  V30 11642 C 1111.29 -6.18542 -0.425008 0
M  V30 11643 C 1113.35 -4.90243 -0.869843 0
M  V30 11644 C 1112.05 -7.18968 0.218609 0
M  V30 11645 C 1114.08 -5.90913 -0.240063 0
M  V30 11646 C 1113.44 -7.03767 0.298552 0
M  V30 11647 H 1109.54 -0.669275 -0.404469 0
M  V30 11648 H 1112.12 -1.8981 -0.433635 0
M  V30 11649 H 1110.29 -2.65087 -2.83872 0
M  V30 11650 H 1112.02 -2.89804 -2.82481 0
M  V30 11651 H 1108.78 -4.47179 -1.55975 0
M  V30 11652 H 1109.2 -6.76386 -0.288338 0
M  V30 11653 H 1113.84 -4.0321 -1.27207 0
M  V30 11654 H 1111.56 -8.05618 0.632874 0
M  V30 11655 H 1115.15 -5.81578 -0.160576 0
M  V30 11656 H 1114.03 -7.80329 0.778185 0
M  V30 11657 N 1111.53 0.65634 -1.43283 0
M  V30 11658 C 1112.78 1.41837 -1.44949 0
M  V30 11659 C 1113.11 1.94065 -0.0723212 0
M  V30 11660 O 1112.39 1.72092 0.906346 0
M  V30 11661 C 1112.67 2.60206 -2.48927 0
M  V30 11662 C 1112.52 2.1349 -3.95907 0
M  V30 11663 C 1113.84 3.62421 -2.49678 0
M  V30 11664 H 1110.96 0.514398 -0.527792 0
M  V30 11665 H 1113.6 0.74435 -1.74813 0
M  V30 11666 H 1111.75 3.17708 -2.23592 0
M  V30 11667 H 1113.42 1.61012 -4.32288 0
M  V30 11668 H 1111.67 1.4489 -4.08888 0
M  V30 11669 H 1112.34 2.98596 -4.64268 0
M  V30 11670 H 1114.81 3.14671 -2.72252 0
M  V30 11671 H 1113.69 4.42798 -3.24378 0
M  V30 11672 H 1113.95 4.14802 -1.52944 0
M  V30 11673 N 1113.01 1.29761 0.894412 0
M  V30 11674 C 1113.96 1.11962 1.98617 0
M  V30 11675 C 1114.94 0.0374952 1.60856 0
M  V30 11676 O 1116.14 0.259789 1.75083 0
M  V30 11677 C 1113.26 0.803708 3.3376 0
M  V30 11678 C 1112.35 1.92563 3.77863 0
M  V30 11679 N 1112.74 3.16983 3.94152 0
M  V30 11680 C 1111.04 1.81986 4.07182 0
M  V30 11681 C 1111.74 3.90212 4.31404 0
M  V30 11682 N 1110.72 3.18194 4.40742 0
M  V30 11683 H 1114.52 2.06339 2.09287 0
M  V30 11684 H 1112.03 1.20963 1.08359 0
M  V30 11685 H 1114.03 0.657223 4.11687 0
M  V30 11686 H 1112.69 -0.132098 3.24431 0
M  V30 11687 H 1113.7 3.52378 3.79539 0
M  V30 11688 H 1110.38 0.957112 4.06381 0
M  V30 11689 H 1111.77 4.97312 4.51808 0
M  V30 11690 N 1114.49 -1.10549 1.12324 0
M  V30 11691 C 1115.45 -2.15039 0.793156 0
M  V30 11692 C 1116.45 -1.59651 -0.19192 0
M  V30 11693 O 1117.64 -1.74167 0.0337262 0
M  V30 11694 C 1114.77 -3.40433 0.17842 0
M  V30 11695 H 1115.97 -2.4575 1.71892 0
M  V30 11696 H 1113.52 -1.25892 0.926333 0
M  V30 11697 H 1114.25 -3.15338 -0.757122 0
M  V30 11698 H 1114.04 -3.81921 0.887645 0
M  V30 11699 H 1115.53 -4.17584 -0.0360724 0
M  V30 11700 N 1115.97 -0.914965 -1.28321 0
M  V30 11701 C 1117.19 -0.564654 -1.99046 0
M  V30 11702 C 1117.61 0.854345 -1.68364 0
M  V30 11703 O 1116.97 1.56605 -0.937068 0
M  V30 11704 C 1117.02 -0.765663 -3.53299 0
M  V30 11705 O 1116.74 -2.12883 -3.829 0
M  V30 11706 C 1118.24 -0.422347 -4.41283 0
M  V30 11707 H 1115.46 -0.215158 -0.635569 0
M  V30 11708 H 1118 -1.2285 -1.63487 0
M  V30 11709 H 1116.16 -0.148795 -3.87114 0
M  V30 11710 H 1116.57 -2.1694 -4.77533 0
M  V30 11711 H 1118.05 -0.613757 -5.48577 0
M  V30 11712 H 1118.52 0.641484 -4.3449 0
M  V30 11713 H 1119.13 -1.01681 -4.12966 0
M  V30 11714 N 1117.44 1.42219 -0.679077 0
M  V30 11715 C 1118.69 2.01081 -0.202718 0
M  V30 11716 C 1119.01 1.53986 1.19639 0
M  V30 11717 O 1118.28 0.763359 1.80415 0
M  V30 11718 H 1116.86 0.743526 -0.0719547 0
M  V30 11719 H 1119.52 1.74077 -0.876544 0
M  V30 11720 H 1118.62 3.11411 -0.207314 0
M  V30 11721 N 1118.92 0.422693 1.51826 0
M  V30 11722 C 1120.2 -0.20786 1.94492 0
M  V30 11723 C 1120.58 -1.61414 1.36047 0
M  V30 11724 O 1119.93 -2.21987 0.541657 0
M  V30 11725 C 1120.14 -0.200457 3.48424 0
M  V30 11726 C 1121.48 -0.413199 4.22585 0
M  V30 11727 O 1122.51 -0.27922 3.55104 0
M  V30 11728 O 1121.37 -0.678469 5.42272 0
M  V30 11729 H 1118.46 -0.137851 0.81543 0
M  V30 11730 H 1121.01 0.479617 1.62781 0
M  V30 11731 H 1119.78 0.783263 3.83381 0
M  V30 11732 H 1119.4 -0.931464 3.86535 0
M  V30 11733 N 1120.4 -1.5685 0.153553 0
M  V30 11734 C 1121.65 -1.96334 -0.495915 0
M  V30 11735 C 1121.97 -1.03873 -1.64441 0
M  V30 11736 O 1121.23 -0.069231 -1.95578 0
M  V30 11737 C 1121.53 -3.42022 -1.0371 0
M  V30 11738 C 1121.19 -4.509 -0.00637049 0
M  V30 11739 C 1119.86 -4.80402 0.276956 0
M  V30 11740 C 1122.21 -5.16556 0.694187 0
M  V30 11741 C 1119.54 -5.72866 1.26653 0
M  V30 11742 C 1121.89 -6.10087 1.67263 0
M  V30 11743 C 1120.55 -6.37965 1.96359 0
M  V30 11744 H 1119.82 -0.718436 -0.181468 0
M  V30 11745 H 1122.47 -1.89968 0.241768 0
M  V30 11746 H 1120.77 -3.45252 -1.85225 0
M  V30 11747 H 1122.47 -3.69903 -1.54831 0
M  V30 11748 H 1119.06 -4.27942 -0.237378 0
M  V30 11749 H 1123.25 -4.9389 0.488496 0
M  V30 11750 H 1118.5 -5.92756 1.49833 0
M  V30 11751 H 1122.68 -6.60036 2.22094 0
M  V30 11752 H 1120.3 -7.09416 2.73189 0
M  V30 11753 N 1121.88 0.120221 -1.57141 0
M  V30 11754 C 1123.15 0.858458 -1.75755 0
M  V30 11755 C 1123.53 1.98124 -0.728693 0
M  V30 11756 O 1122.88 2.27155 0.247573 0
M  V30 11757 C 1123.09 1.37627 -3.20718 0
M  V30 11758 C 1124.44 1.82909 -3.83183 0
M  V30 11759 O 1125.46 1.47309 -3.24312 0
M  V30 11760 O 1124.32 2.4865 -4.86657 0
M  V30 11761 H 1121.42 0.407583 -0.719587 0
M  V30 11762 H 1123.96 0.104057 -1.69381 0
M  V30 11763 H 1122.74 0.570651 -3.87117 0
M  V30 11764 H 1122.36 2.19341 -3.31625 0
M  V30 11765 N 1123.36 1.52689 0.390367 0
M  V30 11766 C 1124.31 1.73751 1.4763 0
M  V30 11767 C 1125.29 0.591572 1.4963 0
M  V30 11768 O 1126.48 0.849354 1.5529 0
M  V30 11769 C 1123.61 1.90855 2.85358 0
M  V30 11770 C 1122.7 3.11377 2.87933 0
M  V30 11771 N 1123.09 4.33751 2.6018 0
M  V30 11772 C 1121.39 3.11594 3.19101 0
M  V30 11773 C 1122.09 5.15346 2.69803 0
M  V30 11774 N 1121.06 4.51002 3.03476 0
M  V30 11775 H 1124.87 2.65994 1.24997 0
M  V30 11776 H 1122.38 1.50977 0.598301 0
M  V30 11777 H 1124.38 2.04065 3.63542 0
M  V30 11778 H 1123.04 0.998241 3.08974 0
M  V30 11779 H 1124.05 4.61907 2.34227 0
M  V30 11780 H 1120.72 2.30368 3.48191 0
M  V30 11781 H 1122.11 6.22892 2.51902 0
M  V30 11782 N 1124.83 -0.648732 1.43629 0
M  V30 11783 C 1126.06 -1.43412 1.48716 0
M  V30 11784 C 1126.47 -1.88908 0.105051 0
M  V30 11785 O 1125.82 -1.60373 -0.895896 0
M  V30 11786 C 1125.88 -2.69906 2.37468 0
M  V30 11787 C 1125.54 -2.46321 3.84935 0
M  V30 11788 C 1126.54 -2.09259 4.75927 0
M  V30 11789 C 1124.22 -2.60506 4.29467 0
M  V30 11790 C 1126.22 -1.86686 6.09448 0
M  V30 11791 C 1123.9 -2.37548 5.6304 0
M  V30 11792 C 1124.9 -2.00694 6.52848 0
M  V30 11793 O 1124.59 -1.77979 7.83951 0
M  V30 11794 H 1124.32 -0.446883 0.507219 0
M  V30 11795 H 1126.88 -0.802218 1.89086 0
M  V30 11796 H 1125.11 -3.35672 1.91993 0
M  V30 11797 H 1126.8 -3.31867 2.33707 0
M  V30 11798 H 1127.56 -1.97872 4.428 0
M  V30 11799 H 1123.44 -2.88165 3.59836 0
M  V30 11800 H 1126.98 -1.57844 6.79508 0
M  V30 11801 H 1122.88 -2.48539 5.95734 0
M  V30 11802 H 1123.65 -1.92368 7.95573 0
M  V30 11803 N 1126.31 -1.30234 -0.887518 0
M  V30 11804 C 1127.22 -1.18316 -2.02579 0
M  V30 11805 C 1128.24 -0.103658 -1.73691 0
M  V30 11806 O 1129.41 -0.3181 -1.98872 0
M  V30 11807 C 1126.48 -0.873222 -3.35523 0
M  V30 11808 C 1125.54 -2.03783 -3.7785 0
M  V30 11809 C 1124.77 -1.74258 -5.0445 0
M  V30 11810 O 1125 -0.669295 -5.6646 0
M  V30 11811 O 1123.93 -2.59423 -5.43124 0
M  V30 11812 H 1127.76 -2.13933 -2.15561 0
M  V30 11813 H 1125.34 -1.09803 -1.0131 0
M  V30 11814 H 1127.22 -0.715463 -4.15282 0
M  V30 11815 H 1125.9 0.053056 -3.23657 0
M  V30 11816 H 1124.81 -2.2509 -2.98806 0
M  V30 11817 H 1126.14 -2.94574 -3.94318 0
M  V30 11818 N 1127.79 1.09952 -1.12909 0
M  V30 11819 C 1129.04 1.82286 -0.888797 0
M  V30 11820 C 1129.37 1.85218 0.58379 0
M  V30 11821 O 1128.64 1.31645 1.43177 0
M  V30 11822 C 1128.93 3.28706 -1.47053 0
M  V30 11823 C 1128.78 3.34078 -3.01184 0
M  V30 11824 C 1130.1 4.25233 -1.13424 0
M  V30 11825 H 1127.22 0.661803 -0.324324 0
M  V30 11826 H 1129.86 1.28833 -1.3965 0
M  V30 11827 H 1128.01 3.74356 -1.03874 0
M  V30 11828 H 1129.68 2.96871 -3.5308 0
M  V30 11829 H 1127.93 2.73825 -3.36455 0
M  V30 11830 H 1128.6 4.37202 -3.36984 0
M  V30 11831 H 1131.07 3.87841 -1.50726 0
M  V30 11832 H 1129.95 5.26033 -1.56783 0
M  V30 11833 H 1130.21 4.42075 -0.0471496 0
M  V30 11834 N 1129.27 0.921757 1.27833 0
M  V30 11835 C 1130.5 0.575202 1.98744 0
M  V30 11836 C 1130.91 -0.845405 1.68815 0
M  V30 11837 O 1130.27 -1.56106 0.94536 0
M  V30 11838 C 1130.32 0.784389 3.52888 0
M  V30 11839 O 1130.04 2.1491 3.81766 0
M  V30 11840 C 1131.54 0.445744 4.41053 0
M  V30 11841 H 1128.76 0.218525 0.634419 0
M  V30 11842 H 1131.31 1.23715 1.62834 0
M  V30 11843 H 1129.46 0.169323 3.8703 0
M  V30 11844 H 1129.87 2.19469 4.76375 0
M  V30 11845 H 1131.35 0.64284 5.48244 0
M  V30 11846 H 1131.83 -0.618433 4.34824 0
M  V30 11847 H 1132.43 1.03869 4.12421 0
M  V30 11848 N 1130.75 -1.41857 0.686609 0
M  V30 11849 C 1132 -2.00594 0.21095 0
M  V30 11850 C 1132.31 -1.54974 -1.19341 0
M  V30 11851 O 1133.51 -2.0621 -1.76607 0
M  V30 11852 C 1131.97 -3.58418 0.326261 0
M  V30 11853 C 1131.58 -4.13022 1.73542 0
M  V30 11854 C 1133.32 -4.24404 -0.0900816 0
M  V30 11855 C 1131.23 -5.6325 1.80287 0
M  V30 11856 H 1130.16 -0.75025 0.0751077 0
M  V30 11857 H 1132.81 -1.62442 0.853508 0
M  V30 11858 H 1131.19 -3.9413 -0.384394 0
M  V30 11859 H 1132.37 -3.88747 2.47411 0
M  V30 11860 H 1130.68 -3.5953 2.10065 0
M  V30 11861 H 1133.28 -5.34666 -0.060004 0
M  V30 11862 H 1133.62 -4.00745 -1.12733 0
M  V30 11863 H 1134.15 -3.93695 0.569979 0
M  V30 11864 H 1130.89 -5.91724 2.82034 0
M  V30 11865 H 1130.41 -5.89479 1.1079 0
M  V30 11866 H 1132.09 -6.2787 1.56167 0
M  V30 11867 N 1132.22 -0.430739 -1.51599 0
M  V30 11868 C 1133.17 0.384024 -2.27583 0
M  V30 11869 C 1134.14 1.02254 -1.30895 0
M  V30 11870 O 1135.33 1.0427 -1.59789 0
M  V30 11871 C 1132.47 1.48291 -3.11615 0
M  V30 11872 C 1131.58 0.863187 -4.23288 0
M  V30 11873 C 1130.71 1.93657 -4.94642 0
M  V30 11874 C 1129.75 1.29493 -5.98246 0
M  V30 11875 N 1128.89 2.30939 -6.63032 0
M  V30 11876 H 1133.73 -0.270314 -2.96771 0
M  V30 11877 H 1131.27 -0.145148 -1.46382 0
M  V30 11878 H 1133.23 2.13124 -3.58656 0
M  V30 11879 H 1131.86 2.10697 -2.44554 0
M  V30 11880 H 1130.91 0.103326 -3.8026 0
M  V30 11881 H 1132.22 0.354676 -4.97537 0
M  V30 11882 H 1131.37 2.66167 -5.45197 0
M  V30 11883 H 1130.11 2.4788 -4.20008 0
M  V30 11884 H 1129.12 0.555262 -5.46989 0
M  V30 11885 H 1130.34 0.760122 -6.74833 0
M  V30 11886 H 1128.29 2.84254 -5.91216 0
M  V30 11887 H 1128.21 1.84961 -7.33025 0
M  V30 11888 H 1129.47 3.02953 -7.1822 0
M  V30 11889 N 1133.7 1.56767 -0.161869 0
M  V30 11890 C 1134.65 2.18807 0.789074 0
M  V30 11891 C 1135.64 1.14934 1.24445 0
M  V30 11892 O 1136.85 1.33154 1.2112 0
M  V30 11893 H 1133.23 0.700808 0.272713 0
M  V30 11894 H 1135.2 2.97419 0.241766 0
M  V30 11895 C 1133.95 2.83568 2.01207 0
M  V30 11896 H 1133.27 3.63219 1.67068 0
M  V30 11897 H 1134.71 3.3046 2.65654 0
M  V30 11898 C 1133.17 1.82846 2.82964 0
M  V30 11899 O 1133.7 1.30809 3.79805 0
M  V30 11900 N 1131.9 1.51815 2.47791 0
M  V30 11901 H 1131.45 1.94325 1.69103 0
M  V30 11902 H 1131.41 0.846742 3.02783 0
M  V30 11903 N 1135.18 -0.111886 1.57202 0
M  V30 11904 C 1136.13 -1.13688 2.00858 0
M  V30 11905 C 1137.1 -1.40752 0.881939 0
M  V30 11906 O 1138.28 -1.52498 1.14669 0
M  V30 11907 C 1135.42 -2.45641 2.42393 0
M  V30 11908 C 1134.54 -2.25452 3.68504 0
M  V30 11909 C 1133.67 -3.50686 3.9899 0
M  V30 11910 C 1132.71 -3.25685 5.18262 0
M  V30 11911 N 1131.85 -4.4314 5.44583 0
M  V30 11912 H 1136.69 -0.757611 2.88209 0
M  V30 11913 H 1134.22 -0.362582 1.42561 0
M  V30 11914 H 1136.18 -3.22627 2.64514 0
M  V30 11915 H 1134.81 -2.81447 1.58074 0
M  V30 11916 H 1133.86 -1.39349 3.53958 0
M  V30 11917 H 1135.18 -2.0296 4.55641 0
M  V30 11918 H 1134.33 -4.36087 4.21797 0
M  V30 11919 H 1133.07 -3.76216 3.10343 0
M  V30 11920 H 1132.07 -2.38675 4.95292 0
M  V30 11921 H 1133.3 -3.01518 6.08493 0
M  V30 11922 H 1131.24 -4.68778 4.58893 0
M  V30 11923 H 1131.16 -4.23778 6.26058 0
M  V30 11924 H 1132.43 -5.29654 5.71915 0
M  V30 11925 N 1136.66 -1.52894 -0.382264 0
M  V30 11926 C 1137.61 -1.78799 -1.48774 0
M  V30 11927 C 1138.6 -0.65624 -1.56173 0
M  V30 11928 O 1139.81 -0.838856 -1.59258 0
M  V30 11929 H 1136.18 -0.565855 -0.49529 0
M  V30 11930 H 1138.15 -2.7136 -1.24122 0
M  V30 11931 C 1136.9 -1.97987 -2.85826 0
M  V30 11932 H 1136.22 -2.84505 -2.80886 0
M  V30 11933 H 1137.66 -2.20099 -3.62398 0
M  V30 11934 C 1136.12 -0.75427 -3.28348 0
M  V30 11935 O 1136.65 0.0650749 -4.01647 0
M  V30 11936 N 1134.86 -0.582457 -2.84703 0
M  V30 11937 H 1134.41 -1.25034 -2.2522 0
M  V30 11938 H 1134.36 0.236208 -3.13511 0
M  V30 11939 N 1138.14 0.641106 -1.43971 0
M  V30 11940 C 1139.09 1.77474 -1.50352 0
M  V30 11941 C 1140.08 1.65173 -0.376052 0
M  V30 11942 O 1141.29 1.71373 -0.550572 0
M  V30 11943 H 1137.66 0.585747 -0.471597 0
M  V30 11944 H 1139.63 1.69213 -2.45784 0
M  V30 11945 C 1138.38 3.15778 -1.45532 0
M  V30 11946 H 1137.7 3.25886 -2.316 0
M  V30 11947 H 1139.14 3.95022 -1.54058 0
M  V30 11948 C 1137.6 3.36447 -0.174624 0
M  V30 11949 O 1138.13 3.9446 0.759215 0
M  V30 11950 N 1136.34 2.90487 -0.0809383 0
M  V30 11951 H 1135.89 2.43461 -0.841691 0
M  V30 11952 H 1135.84 3.04693 0.775231 0
M  V30 11953 N 1139.62 1.30703 0.880598 0
M  V30 11954 C 1140.86 1.19778 1.63277 0
M  V30 11955 C 1141.19 -0.246521 1.92931 0
M  V30 11956 O 1140.45 -1.19226 1.55189 0
M  V30 11957 C 1140.74 1.97628 2.97789 0
M  V30 11958 C 1140.41 3.47213 2.87669 0
M  V30 11959 C 1139.07 3.88004 2.84617 0
M  V30 11960 C 1141.42 4.4245 2.75477 0
M  V30 11961 C 1138.75 5.22315 2.67216 0
M  V30 11962 C 1141.1 5.76874 2.59614 0
M  V30 11963 C 1139.77 6.16898 2.54939 0
M  V30 11964 H 1139.04 0.438298 0.597475 0
M  V30 11965 H 1141.69 1.61853 1.02352 0
M  V30 11966 H 1139.99 1.48201 3.6269 0
M  V30 11967 H 1141.69 1.86563 3.54958 0
M  V30 11968 H 1138.28 3.14802 2.90857 0
M  V30 11969 H 1142.46 4.11875 2.76899 0
M  V30 11970 H 1137.72 5.52412 2.62014 0
M  V30 11971 H 1141.89 6.50304 2.49155 0
M  V30 11972 H 1139.52 7.20916 2.41214 0
M  V30 11973 N 1141.09 -1.09351 1.1349 0
M  V30 11974 C 1142.34 -1.80915 0.89177 0
M  V30 11975 C 1142.66 -1.86688 -0.5837 0
M  V30 11976 O 1143.86 -2.54568 -0.943788 0
M  V30 11977 C 1142.32 -3.25009 1.54587 0
M  V30 11978 C 1141.93 -3.27501 3.05691 0
M  V30 11979 C 1143.67 -4.01323 1.38346 0
M  V30 11980 C 1141.58 -4.66123 3.63983 0
M  V30 11981 H 1140.51 -0.677961 0.329978 0
M  V30 11982 H 1143.16 -1.22893 1.3627 0
M  V30 11983 H 1141.54 -3.83098 1.0026 0
M  V30 11984 H 1142.71 -2.79174 3.66604 0
M  V30 11985 H 1141.03 -2.64677 3.21457 0
M  V30 11986 H 1143.63 -5.03739 1.79307 0
M  V30 11987 H 1143.97 -4.15003 0.328404 0
M  V30 11988 H 1144.5 -3.49679 1.89656 0
M  V30 11989 H 1141.24 -4.57646 4.69298 0
M  V30 11990 H 1140.76 -5.14772 3.07848 0
M  V30 11991 H 1142.44 -5.35097 3.63703 0
M  V30 11992 N 1142.57 -0.928524 -1.27343 0
M  V30 11993 C 1143.5 -0.385563 -2.25934 0
M  V30 11994 C 1144.52 0.484178 -1.55433 0
M  V30 11995 O 1145.71 0.296668 -1.76017 0
M  V30 11996 C 1142.81 0.466116 -3.35679 0
M  V30 11997 C 1141.98 -0.384523 -4.35707 0
M  V30 11998 C 1141.04 0.404644 -5.24642 0
M  V30 11999 O 1140.06 -0.187943 -5.6889 0
M  V30 12000 N 1141.27 1.70426 -5.54919 0
M  V30 12001 H 1144.03 -1.23306 -2.73159 0
M  V30 12002 H 1141.59 -0.796039 -1.40978 0
M  V30 12003 H 1143.58 1.00115 -3.92121 0
M  V30 12004 H 1142.15 1.21437 -2.88048 0
M  V30 12005 H 1141.37 -1.10085 -3.78517 0
M  V30 12006 H 1142.66 -0.966033 -4.99545 0
M  V30 12007 H 1142.06 2.20802 -5.20829 0
M  V30 12008 H 1140.62 2.1858 -6.14057 0
M  V30 12009 N 1144.05 1.41491 -0.694123 0
M  V30 12010 C 1145.28 2.05579 -0.233466 0
M  V30 12011 C 1145.69 1.5223 1.11675 0
M  V30 12012 O 1145.05 0.669937 1.69759 0
M  V30 12013 C 1145.1 3.61047 -0.180967 0
M  V30 12014 O 1144.82 4.12421 -1.47785 0
M  V30 12015 C 1146.32 4.42278 0.300853 0
M  V30 12016 H 1143.54 0.662097 -0.108943 0
M  V30 12017 H 1146.09 1.81288 -0.946299 0
M  V30 12018 H 1144.24 3.84381 0.482678 0
M  V30 12019 H 1144.66 5.06454 -1.364 0
M  V30 12020 H 1146.13 5.51256 0.286464 0
M  V30 12021 H 1146.61 4.18276 1.33948 0
M  V30 12022 H 1147.21 4.24004 -0.331741 0
M  V30 12023 N 1145.53 0.438773 1.51369 0
M  V30 12024 C 1146.47 -0.37195 2.27783 0
M  V30 12025 C 1147.44 -1.01558 1.31435 0
M  V30 12026 O 1148.63 -1.03421 1.60339 0
M  V30 12027 C 1145.77 -1.46636 3.12397 0
M  V30 12028 C 1144.88 -0.840727 4.2374 0
M  V30 12029 C 1144.02 -1.91031 4.95662 0
M  V30 12030 C 1143.06 -1.26318 5.98924 0
M  V30 12031 N 1142.19 -2.27419 6.64248 0
M  V30 12032 H 1147.03 0.286048 2.96624 0
M  V30 12033 H 1144.57 0.152909 1.46303 0
M  V30 12034 H 1146.53 -2.11219 3.59781 0
M  V30 12035 H 1145.16 -2.09397 2.45668 0
M  V30 12036 H 1144.21 -0.0831588 3.80309 0
M  V30 12037 H 1145.52 -0.328285 4.97719 0
M  V30 12038 H 1144.68 -2.63272 5.46601 0
M  V30 12039 H 1143.42 -2.45649 4.21317 0
M  V30 12040 H 1142.42 -0.526246 5.47276 0
M  V30 12041 H 1143.65 -0.724324 6.75226 0
M  V30 12042 H 1141.59 -2.81114 5.92715 0
M  V30 12043 H 1141.51 -1.81071 7.33996 0
M  V30 12044 H 1142.78 -2.99139 7.19817 0
M  V30 12045 N 1147.01 -1.56678 0.170181 0
M  V30 12046 C 1148.23 -2.0166 -0.484543 0
M  V30 12047 C 1148.66 -1.04962 -1.56091 0
M  V30 12048 O 1148.01 -0.0289887 -1.81277 0
M  V30 12049 C 1148.06 -3.45252 -1.04084 0
M  V30 12050 O 1147.17 -3.51623 -2.15488 0
M  V30 12051 H 1146.51 -0.653765 -0.116135 0
M  V30 12052 H 1149.04 -2.02761 0.273737 0
M  V30 12053 H 1149.05 -3.84534 -1.36373 0
M  V30 12054 H 1147.72 -4.15131 -0.252738 0
M  V30 12055 H 1146.3 -3.242 -1.84252 0
M  V30 12056 N 1148.48 0.103547 -1.57259 0
M  V30 12057 C 1149.73 0.807231 -1.84842 0
M  V30 12058 C 1150.05 1.80308 -0.758181 0
M  V30 12059 O 1151.25 2.55406 -0.920877 0
M  V30 12060 C 1149.71 1.4864 -3.27771 0
M  V30 12061 C 1149.32 0.53075 -4.44845 0
M  V30 12062 C 1151.06 2.17431 -3.64587 0
M  V30 12063 C 1148.97 1.21403 -5.78805 0
M  V30 12064 H 1147.9 0.305212 -0.689465 0
M  V30 12065 H 1150.55 0.0600855 -1.83402 0
M  V30 12066 H 1148.93 2.28071 -3.23728 0
M  V30 12067 H 1150.1 -0.231455 -4.60218 0
M  V30 12068 H 1148.42 -0.0510078 -4.16369 0
M  V30 12069 H 1151.02 2.6927 -4.6195 0
M  V30 12070 H 1151.36 2.9594 -2.92789 0
M  V30 12071 H 1151.89 1.4487 -3.70483 0
M  V30 12072 H 1148.63 0.469918 -6.53813 0
M  V30 12073 H 1148.15 1.94787 -5.6729 0
M  V30 12074 H 1149.83 1.74289 -6.23083 0
M  V30 12075 N 1149.96 1.53094 0.37415 0
M  V30 12076 C 1151.37 1.60641 0.951381 0
M  V30 12077 C 1151.72 0.468474 1.90525 0
M  V30 12078 O 1150.85 -0.406347 2.12551 0
M  V30 12079 C 1151.44 2.91166 1.73228 0
M  V30 12080 C 1150 3.01077 2.25898 0
M  V30 12081 C 1149.15 2.55873 1.06885 0
M  V30 12082 H 1152.1 1.57959 0.153214 0
M  V30 12083 H 1152.12 2.78487 2.59278 0
M  V30 12084 H 1151.63 3.73968 1.03778 0
M  V30 12085 H 1149.73 2.22844 2.98615 0
M  V30 12086 H 1149.85 4.05998 2.54367 0
M  V30 12087 H 1148.21 2.10544 1.43329 0
M  V30 12088 H 1148.99 3.41084 0.38947 0
M  V30 12089 N 1151.44 -0.633461 1.44309 0
M  V30 12090 C 1152.39 -1.74554 1.50995 0
M  V30 12091 C 1153.36 -1.62199 0.357873 0
M  V30 12092 O 1154.54 -1.82156 0.567787 0
M  V30 12093 C 1151.68 -3.12792 1.45791 0
M  V30 12094 C 1150.79 -3.3614 2.71356 0
M  V30 12095 C 1149.93 -4.64337 2.58002 0
M  V30 12096 C 1148.97 -4.80855 3.78741 0
M  V30 12097 N 1148.11 -6.00327 3.64077 0
M  V30 12098 H 1152.95 -1.68174 2.46011 0
M  V30 12099 H 1150.48 -0.820407 1.22097 0
M  V30 12100 H 1152.44 -3.92735 1.40765 0
M  V30 12101 H 1151.07 -3.18193 0.543445 0
M  V30 12102 H 1150.12 -2.50154 2.86579 0
M  V30 12103 H 1151.43 -3.44226 3.60985 0
M  V30 12104 H 1150.59 -5.52437 2.50795 0
M  V30 12105 H 1149.33 -4.58605 1.65929 0
M  V30 12106 H 1148.33 -3.91185 3.86334 0
M  V30 12107 H 1149.56 -4.88403 4.71847 0
M  V30 12108 H 1147.5 -5.9569 2.74754 0
M  V30 12109 H 1147.42 -6.09459 4.47321 0
M  V30 12110 H 1148.69 -6.90995 3.60758 0
M  V30 12111 N 1152.92 -1.31168 -0.873655 0
M  V30 12112 C 1154.14 -1.23728 -1.66452 0
M  V30 12113 C 1154.57 0.194869 -1.87088 0
M  V30 12114 O 1153.93 1.1397 -1.40998 0
M  V30 12115 C 1153.97 -1.98285 -3.0119 0
M  V30 12116 O 1153.08 -1.31767 -3.90783 0
M  V30 12117 H 1152.42 -0.427362 -0.508191 0
M  V30 12118 H 1154.95 -1.73176 -1.08955 0
M  V30 12119 H 1154.96 -2.0774 -3.51153 0
M  V30 12120 H 1153.63 -3.02437 -2.8549 0
M  V30 12121 H 1152.21 -1.3074 -3.4923 0
M  V30 12122 N 1154.4 1.08748 -1.14068 0
M  V30 12123 C 1155.31 2.19123 -0.837998 0
M  V30 12124 C 1156.32 1.73065 0.180164 0
M  V30 12125 O 1157.5 2.01398 0.00952285 0
M  V30 12126 C 1154.56 3.45257 -0.316 0
M  V30 12127 C 1153.62 4.05959 -1.39628 0
M  V30 12128 C 1152.86 5.26072 -0.899095 0
M  V30 12129 O 1153.08 5.69804 0.260744 0
M  V30 12130 O 1152.01 5.7808 -1.67652 0
M  V30 12131 H 1155.84 2.4748 -1.76033 0
M  V30 12132 H 1153.43 1.17816 -0.918675 0
M  V30 12133 H 1155.31 4.21389 -0.0306425 0
M  V30 12134 H 1153.98 3.18486 0.578654 0
M  V30 12135 H 1152.89 3.31432 -1.73505 0
M  V30 12136 H 1154.22 4.36971 -2.26533 0
M  V30 12137 N 1155.87 0.935264 1.26849 0
M  V30 12138 C 1156.82 0.430895 2.28574 0
M  V30 12139 C 1157.82 -0.488739 1.62196 0
M  V30 12140 O 1159.02 -0.367605 1.76206 0
M  V30 12141 H 1155.4 0.120793 0.742235 0
M  V30 12142 H 1157.37 1.3015 2.68521 0
M  V30 12143 C 1156.12 -0.294053 3.46454 0
M  V30 12144 H 1155.44 0.404416 3.97749 0
M  V30 12145 H 1156.88 -0.611272 4.19571 0
M  V30 12146 C 1155.34 -1.50975 3.01178 0
M  V30 12147 O 1155.87 -2.60826 3.05504 0
M  V30 12148 N 1154.08 -1.36423 2.56587 0
M  V30 12149 H 1153.62 -0.470483 2.53267 0
M  V30 12150 H 1153.58 -2.17886 2.26656 0
M  V30 12151 N 1157.35 -1.41121 0.701616 0
M  V30 12152 C 1158.26 -2.34565 0.0407815 0
M  V30 12153 C 1159.28 -1.56555 -0.75937 0
M  V30 12154 O 1160.45 -1.89008 -0.695542 0
M  V30 12155 C 1157.52 -3.35347 -0.879954 0
M  V30 12156 C 1156.58 -4.29241 -0.0713279 0
M  V30 12157 C 1155.81 -5.25209 -0.948211 0
M  V30 12158 O 1156.04 -5.26781 -2.18766 0
M  V30 12159 O 1154.97 -6.00605 -0.394657 0
M  V30 12160 H 1158.8 -2.92666 0.811188 0
M  V30 12161 H 1156.38 -1.42077 0.461991 0
M  V30 12162 H 1158.26 -3.9719 -1.40776 0
M  V30 12163 H 1156.94 -2.7968 -1.62975 0
M  V30 12164 H 1155.85 -3.70727 0.50122 0
M  V30 12165 H 1157.18 -4.88022 0.639935 0
M  V30 12166 N 1158.83 -0.446794 -1.51134 0
M  V30 12167 C 1160.07 0.115546 -2.04073 0
M  V30 12168 C 1160.43 1.39137 -1.32306 0
M  V30 12169 O 1161.64 2.03455 -1.75668 0
M  V30 12170 C 1159.91 0.319657 -3.55968 0
M  V30 12171 S 1161.47 0.844045 -4.30606 0
M  V30 12172 H 1158.28 0.0274089 -0.710471 0
M  V30 12173 H 1160.89 -0.608368 -1.85793 0
M  V30 12174 H 1159.59 -0.615082 -4.05765 0
M  V30 12175 H 1159.12 1.07038 -3.78558 0
M  V30 12176 H 1161.14 2.12051 -4.48608 0
M  V30 12177 N 1160.31 1.56586 -0.178487 0
M  V30 12178 C 1161.55 1.9739 0.465306 0
M  V30 12179 C 1161.89 1.06474 1.6241 0
M  V30 12180 O 1161.16 0.113316 1.9417 0
M  V30 12181 C 1161.45 3.47577 0.941408 0
M  V30 12182 C 1161.3 4.49271 -0.218054 0
M  V30 12183 C 1162.62 4.01038 1.81263 0
M  V30 12184 H 1159.74 0.717676 0.167663 0
M  V30 12185 H 1162.38 1.88128 -0.266067 0
M  V30 12186 H 1160.53 3.556 1.56463 0
M  V30 12187 H 1162.2 4.53301 -0.855332 0
M  V30 12188 H 1160.44 4.24936 -0.872441 0
M  V30 12189 H 1161.11 5.51776 0.157315 0
M  V30 12190 H 1163.59 3.9569 1.28718 0
M  V30 12191 H 1162.47 5.06526 2.11476 0
M  V30 12192 H 1162.73 3.45288 2.76096 0
M  V30 12193 N 1161.79 -0.095206 1.57312 0
M  V30 12194 C 1163.03 -0.798719 1.86083 0
M  V30 12195 C 1163.36 -1.78739 0.766991 0
M  V30 12196 O 1162.62 -1.9423 -0.239425 0
M  V30 12197 C 1162.92 -1.56244 3.21438 0
M  V30 12198 C 1162.58 -0.715903 4.4518 0
M  V30 12199 C 1161.24 -0.482537 4.78774 0
M  V30 12200 C 1163.6 -0.127404 5.21044 0
M  V30 12201 C 1160.92 0.349193 5.8566 0
M  V30 12202 C 1163.28 0.691649 6.28808 0
M  V30 12203 C 1161.94 0.935107 6.60918 0
M  V30 12204 H 1161.21 -0.292272 0.680924 0
M  V30 12205 H 1163.86 -0.0602105 1.91405 0
M  V30 12206 H 1162.16 -2.37251 3.118 0
M  V30 12207 H 1163.86 -2.11116 3.40927 0
M  V30 12208 H 1160.45 -0.907902 4.18874 0
M  V30 12209 H 1164.63 -0.29486 4.95423 0
M  V30 12210 H 1159.89 0.546797 6.0895 0
M  V30 12211 H 1164.06 1.15452 6.86763 0
M  V30 12212 H 1161.69 1.58139 7.4357 0
M  V30 12213 N 1163.26 -1.53291 -0.366026 0
M  V30 12214 C 1164.51 -1.69702 -1.11036 0
M  V30 12215 C 1164.84 -0.44728 -1.88979 0
M  V30 12216 O 1164.12 0.55542 -1.86401 0
M  V30 12217 C 1164.4 -2.94661 -2.06995 0
M  V30 12218 C 1164.25 -4.29791 -1.32663 0
M  V30 12219 C 1165.57 -3.15219 -3.07123 0
M  V30 12220 H 1162.69 -0.617525 -0.402284 0
M  V30 12221 H 1165.33 -1.85929 -0.391223 0
M  V30 12222 H 1163.48 -2.80958 -2.68318 0
M  V30 12223 H 1165.16 -4.55305 -0.741266 0
M  V30 12224 H 1163.4 -4.29223 -0.628484 0
M  V30 12225 H 1164.07 -5.13359 -2.02896 0
M  V30 12226 H 1166.55 -3.28105 -2.55903 0
M  V30 12227 H 1165.42 -4.04088 -3.71489 0
M  V30 12228 H 1165.68 -2.30479 -3.77269 0
M  V30 12229 N 1164.74 0.6258 -1.44643 0
M  V30 12230 C 1165.67 1.75086 -1.47911 0
M  V30 12231 C 1166.69 1.58496 -0.37188 0
M  V30 12232 O 1167.88 1.66712 -0.637925 0
M  V30 12233 C 1164.98 3.12874 -1.30243 0
M  V30 12234 C 1164.15 3.55873 -2.54309 0
M  V30 12235 C 1163.21 4.72558 -2.31464 0
M  V30 12236 O 1162.23 4.80599 -3.04981 0
M  V30 12237 N 1163.44 5.64617 -1.34862 0
M  V30 12238 H 1166.2 1.72751 -2.44902 0
M  V30 12239 H 1163.76 0.810531 -1.4015 0
M  V30 12240 H 1165.75 3.88663 -1.12798 0
M  V30 12241 H 1164.32 3.0982 -0.415966 0
M  V30 12242 H 1163.54 2.70237 -2.86994 0
M  V30 12243 H 1164.83 3.81355 -3.36817 0
M  V30 12244 H 1164.23 5.60819 -0.741542 0
M  V30 12245 H 1162.79 6.40013 -1.23394 0
M  V30 12246 N 1166.22 1.31629 0.866686 0
M  V30 12247 C 1167.15 1.22151 1.99001 0
M  V30 12248 C 1168.13 0.107972 1.69757 0
M  V30 12249 O 1169.32 0.293125 1.91975 0
M  V30 12250 C 1166.45 0.93144 3.34577 0
M  V30 12251 C 1165.4 2.0049 3.78137 0
M  V30 12252 C 1164.73 1.56747 5.11209 0
M  V30 12253 C 1166.03 3.41844 3.94892 0
M  V30 12254 H 1167.72 2.16132 2.0719 0
M  V30 12255 H 1165.27 1.04051 0.995463 0
M  V30 12256 H 1167.22 0.851719 4.12703 0
M  V30 12257 H 1165.94 -0.0440289 3.2657 0
M  V30 12258 H 1164.6 2.07457 3.02253 0
M  V30 12259 H 1164.25 0.579767 4.99648 0
M  V30 12260 H 1163.95 2.28562 5.41326 0
M  V30 12261 H 1165.47 1.50188 5.91841 0
M  V30 12262 H 1166.89 3.37534 4.63405 0
M  V30 12263 H 1165.29 4.11905 4.36411 0
M  V30 12264 H 1166.36 3.82389 2.98172 0
M  V30 12265 N 1167.7 -1.08142 1.14644 0
M  V30 12266 C 1168.95 -1.80849 0.917685 0
M  V30 12267 C 1169.28 -1.86123 -0.554249 0
M  V30 12268 O 1168.55 -1.33907 -1.41065 0
M  V30 12269 C 1168.84 -3.26325 1.52264 0
M  V30 12270 C 1168.69 -3.29244 3.06461 0
M  V30 12271 C 1170.01 -4.23375 1.20175 0
M  V30 12272 H 1167.13 -0.656559 0.334812 0
M  V30 12273 H 1169.77 -1.26595 1.41682 0
M  V30 12274 H 1167.92 -3.72656 1.09817 0
M  V30 12275 H 1169.59 -2.91216 3.57758 0
M  V30 12276 H 1167.83 -2.68438 3.40769 0
M  V30 12277 H 1168.51 -4.31785 3.43897 0
M  V30 12278 H 1170.98 -3.85394 1.56877 0
M  V30 12279 H 1169.86 -5.23472 1.65132 0
M  V30 12280 H 1170.12 -4.41944 0.117474 0
M  V30 12281 N 1169.18 -0.941978 -1.26351 0
M  V30 12282 C 1170.59 -0.632522 -1.75659 0
M  V30 12283 C 1170.94 0.852287 -1.76722 0
M  V30 12284 O 1170.06 1.66701 -1.37985 0
M  V30 12285 C 1170.66 -1.14145 -3.18993 0
M  V30 12286 C 1169.22 -0.882391 -3.65911 0
M  V30 12287 C 1168.37 -1.29189 -2.45368 0
M  V30 12288 H 1171.32 -1.12019 -1.12416 0
M  V30 12289 H 1171.34 -0.495639 -3.77258 0
M  V30 12290 H 1170.85 -2.22213 -3.18187 0
M  V30 12291 H 1168.95 0.183873 -3.72146 0
M  V30 12292 H 1169.06 -1.50996 -4.54683 0
M  V30 12293 H 1167.43 -0.710316 -2.44595 0
M  V30 12294 H 1168.21 -2.38152 -2.47262 0
M  V30 12295 N 1170.66 1.40747 -0.709091 0
M  V30 12296 C 1171.9 2.00606 -0.245324 0
M  V30 12297 C 1172.22 1.56489 1.16346 0
M  V30 12298 O 1171.49 0.801456 1.78755 0
M  V30 12299 H 1170.07 0.741833 -0.0877098 0
M  V30 12300 H 1172.74 1.72178 -0.913271 0
M  V30 12301 H 1171.83 3.10901 -0.273322 0
M  V30 12302 N 1172.13 0.454803 1.50895 0
M  V30 12303 C 1173.55 0.108037 1.59234 0
M  V30 12304 C 1173.75 -1.38416 1.46435 0
M  V30 12305 O 1172.81 -2.15586 1.31449 0
M  V30 12306 C 1174.12 0.643721 2.93729 0
M  V30 12307 C 1175.67 0.605703 3.07083 0
M  V30 12308 C 1176.14 1.11865 4.44128 0
M  V30 12309 N 1177.63 1.07738 4.50496 0
M  V30 12310 C 1178.37 1.44495 5.54895 0
M  V30 12311 N 1177.86 1.88624 6.66628 0
M  V30 12312 N 1179.66 1.36201 5.45349 0
M  V30 12313 H 1171.81 1.4255 1.57459 0
M  V30 12314 H 1174.07 0.588504 0.743214 0
M  V30 12315 H 1173.78 1.68844 3.0852 0
M  V30 12316 H 1173.65 0.0782404 3.77119 0
M  V30 12317 H 1176.04 -0.430065 2.91949 0
M  V30 12318 H 1176.12 1.2078 2.2549 0
M  V30 12319 H 1175.76 2.15297 4.6001 0
M  V30 12320 H 1175.69 0.492933 5.24288 0
M  V30 12321 H 1178.18 0.753526 3.70311 0
M  V30 12322 H 1178.5 2.14863 7.4233 0
M  V30 12323 H 1176.84 1.92564 6.6779 0
M  V30 12324 H 1180.03 1.01579 4.56946 0
M  V30 12325 H 1180.21 1.65175 6.26595 0
M  V30 12326 N 1173.61 -1.56489 0.186789 0
M  V30 12327 C 1174.54 -2.21705 -0.732739 0
M  V30 12328 C 1175.52 -1.17751 -1.22755 0
M  V30 12329 O 1176.71 -1.46231 -1.27789 0
M  V30 12330 C 1173.84 -2.86992 -1.95584 0
M  V30 12331 C 1172.79 -3.97118 -1.59628 0
M  V30 12332 C 1172.12 -4.49529 -2.89531 0
M  V30 12333 C 1173.42 -5.15941 -0.812518 0
M  V30 12334 H 1175.11 -2.98802 -0.189094 0
M  V30 12335 H 1172.66 -1.43722 -0.0895099 0
M  V30 12336 H 1174.61 -3.31295 -2.60426 0
M  V30 12337 H 1173.33 -2.07287 -2.52388 0
M  V30 12338 H 1171.99 -3.53494 -0.971475 0
M  V30 12339 H 1171.64 -3.66596 -3.44407 0
M  V30 12340 H 1171.34 -5.23832 -2.66221 0
M  V30 12341 H 1172.87 -4.96528 -3.55376 0
M  V30 12342 H 1174.28 -5.56841 -1.36386 0
M  V30 12343 H 1172.68 -5.96259 -0.677862 0
M  V30 12344 H 1173.75 -4.84535 0.188095 0
M  V30 12345 N 1175.09 0.086862 -1.5736 0
M  V30 12346 C 1176.32 0.801004 -1.9044 0
M  V30 12347 C 1176.73 1.72396 -0.779513 0
M  V30 12348 O 1176.07 1.81894 0.256972 0
M  V30 12349 C 1176.13 1.66055 -3.18851 0
M  V30 12350 C 1175.8 0.908561 -4.47877 0
M  V30 12351 C 1176.79 0.234621 -5.1937 0
M  V30 12352 C 1174.48 0.8802 -4.94528 0
M  V30 12353 C 1176.47 -0.45762 -6.35755 0
M  V30 12354 C 1174.16 0.184179 -6.10822 0
M  V30 12355 C 1175.16 -0.483545 -6.81286 0
M  V30 12356 O 1174.85 -1.16839 -7.95364 0
M  V30 12357 H 1174.58 0.233794 -0.634284 0
M  V30 12358 H 1177.13 0.0660113 -2.05294 0
M  V30 12359 H 1175.36 2.43798 -3.00165 0
M  V30 12360 H 1177.05 2.252 -3.37698 0
M  V30 12361 H 1177.82 0.247938 -4.84366 0
M  V30 12362 H 1173.7 1.38938 -4.39565 0
M  V30 12363 H 1177.24 -0.979369 -6.90691 0
M  V30 12364 H 1173.14 0.168737 -6.45279 0
M  V30 12365 H 1173.9 -1.07612 -8.11395 0
M  V30 12366 N 1176.57 1.53483 0.357892 0
M  V30 12367 C 1177.79 1.74264 1.12458 0
M  V30 12368 C 1178.22 0.473944 1.82031 0
M  V30 12369 O 1177.58 -0.57253 1.72023 0
M  V30 12370 C 1177.62 2.91356 2.12471 0
M  V30 12371 O 1176.73 2.60502 3.19707 0
M  V30 12372 H 1176.07 0.578499 0.325937 0
M  V30 12373 H 1178.6 2.00395 0.412666 0
M  V30 12374 H 1178.61 3.1774 2.5594 0
M  V30 12375 H 1177.28 3.83378 1.61226 0
M  V30 12376 H 1175.86 2.44961 2.81156 0
M  V30 12377 N 1178.05 -0.61812 1.44973 0
M  V30 12378 C 1179.29 -1.37944 1.48658 0
M  V30 12379 C 1179.62 -1.93805 0.123749 0
M  V30 12380 O 1178.9 -1.74434 -0.860401 0
M  V30 12381 C 1179.18 -2.53515 2.55739 0
M  V30 12382 C 1179.04 -2.02918 4.01428 0
M  V30 12383 C 1180.35 -3.55674 2.59199 0
M  V30 12384 H 1177.47 -0.500223 0.541244 0
M  V30 12385 H 1180.12 -0.69774 1.76725 0
M  V30 12386 H 1178.27 -3.11669 2.31937 0
M  V30 12387 H 1179.94 -1.49494 4.36405 0
M  V30 12388 H 1178.18 -1.33999 4.12586 0
M  V30 12389 H 1178.85 -2.86181 4.72021 0
M  V30 12390 H 1181.33 -3.07343 2.80499 0
M  V30 12391 H 1180.2 -4.34042 3.36004 0
M  V30 12392 H 1180.46 -4.10601 1.63888 0
M  V30 12393 N 1179.52 -1.32087 -0.859693 0
M  V30 12394 C 1180.75 -1.25348 -1.64607 0
M  V30 12395 C 1181.17 0.179425 -1.87945 0
M  V30 12396 O 1180.52 1.11487 -1.44489 0
M  V30 12397 C 1180.57 -2.0047 -3.00822 0
M  V30 12398 O 1180.3 -3.38169 -2.7852 0
M  V30 12399 C 1181.8 -2.00694 -3.95268 0
M  V30 12400 H 1179.02 -0.432692 -0.512854 0
M  V30 12401 H 1181.56 -1.7413 -1.07234 0
M  V30 12402 H 1179.72 -1.55423 -3.54855 0
M  V30 12403 H 1180.13 -3.76553 -3.65113 0
M  V30 12404 H 1181.6 -2.57748 -4.88129 0
M  V30 12405 H 1182.08 -0.99196 -4.27851 0
M  V30 12406 H 1182.69 -2.45666 -3.47172 0
M  V30 12407 N 1181 1.07532 -1.15215 0
M  V30 12408 C 1182.25 1.8036 -0.927263 0
M  V30 12409 C 1182.58 1.86414 0.544371 0
M  V30 12410 O 1181.86 1.34653 1.40353 0
M  V30 12411 C 1182.14 3.25512 -1.53992 0
M  V30 12412 C 1181.99 3.27614 -3.08203 0
M  V30 12413 C 1183.31 4.22731 -1.22418 0
M  V30 12414 H 1180.43 0.654775 -0.338289 0
M  V30 12415 H 1183.07 1.25842 -1.42351 0
M  V30 12416 H 1181.22 3.72068 -1.11791 0
M  V30 12417 H 1182.89 2.89315 -3.59297 0
M  V30 12418 H 1181.14 2.66627 -3.42188 0
M  V30 12419 H 1181.81 4.29956 -3.46182 0
M  V30 12420 H 1184.28 3.84557 -1.58919 0
M  V30 12421 H 1183.16 5.22589 -1.67906 0
M  V30 12422 H 1183.42 4.41875 -0.14091 0
M  V30 12423 N 1182.48 0.948665 1.2585 0
M  V30 12424 C 1183.71 0.617229 1.97479 0
M  V30 12425 C 1184.12 -0.809406 1.7057 0
M  V30 12426 O 1183.48 -1.54066 0.97826 0
M  V30 12427 C 1183.53 0.859065 3.51144 0
M  V30 12428 O 1183.25 2.2296 3.77121 0
M  V30 12429 C 1184.75 0.539197 4.40009 0
M  V30 12430 H 1181.97 0.231933 0.629641 0
M  V30 12431 H 1184.52 1.27141 1.60173 0
M  V30 12432 H 1182.67 0.25138 3.86584 0
M  V30 12433 H 1183.09 2.29524 4.71613 0
M  V30 12434 H 1184.56 0.758986 5.46757 0
M  V30 12435 H 1185.04 -0.526062 4.36038 0
M  V30 12436 H 1185.64 1.12594 4.10125 0
M  V30 12437 N 1183.96 -1.40369 0.716545 0
M  V30 12438 C 1185.19 -2.05181 0.266143 0
M  V30 12439 C 1185.6 -1.53988 -1.09239 0
M  V30 12440 O 1184.96 -0.696859 -1.68672 0
M  V30 12441 C 1185.01 -3.60713 0.238384 0
M  V30 12442 O 1184.73 -4.10018 1.54328 0
M  V30 12443 C 1186.23 -4.42701 -0.230453 0
M  V30 12444 H 1183.45 -0.66028 0.119463 0
M  V30 12445 H 1186 -1.7976 0.97502 0
M  V30 12446 H 1184.15 -3.85101 -0.421466 0
M  V30 12447 H 1184.56 -5.0422 1.4444 0
M  V30 12448 H 1186.04 -5.51642 -0.198728 0
M  V30 12449 H 1186.52 -4.20354 -1.27276 0
M  V30 12450 H 1187.12 -4.23423 0.399155 0
M  V30 12451 N 1185.44 -0.462799 -1.50652 0
M  V30 12452 C 1186.38 0.335664 -2.28346 0
M  V30 12453 C 1187.35 0.994541 -1.33034 0
M  V30 12454 O 1188.54 1.00857 -1.61964 0
M  V30 12455 C 1185.68 1.41648 -3.1469 0
M  V30 12456 C 1184.79 0.773207 -4.25024 0
M  V30 12457 C 1183.93 1.83121 -4.98638 0
M  V30 12458 C 1182.97 1.16774 -6.00858 0
M  V30 12459 N 1182.1 2.16823 -6.67782 0
M  V30 12460 H 1186.94 -0.333202 -2.96131 0
M  V30 12461 H 1184.48 -0.176166 -1.46041 0
M  V30 12462 H 1186.44 2.05468 -3.63096 0
M  V30 12463 H 1185.07 2.05462 -2.48968 0
M  V30 12464 H 1184.12 0.0226444 -3.80393 0
M  V30 12465 H 1185.43 0.249061 -4.98178 0
M  V30 12466 H 1184.59 2.54543 -5.5072 0
M  V30 12467 H 1183.32 2.38915 -4.25172 0
M  V30 12468 H 1182.33 0.439112 -5.48044 0
M  V30 12469 H 1183.55 0.616809 -6.76293 0
M  V30 12470 H 1181.5 2.71649 -5.97112 0
M  V30 12471 H 1181.42 1.69371 -7.36783 0
M  V30 12472 H 1182.69 2.8765 -7.24484 0
M  V30 12473 N 1186.91 1.56388 -0.195085 0
M  V30 12474 C 1188.14 2.02406 0.452399 0
M  V30 12475 C 1188.56 1.07432 1.54402 0
M  V30 12476 O 1187.92 0.0578246 1.81208 0
M  V30 12477 C 1187.97 3.46864 0.985778 0
M  V30 12478 O 1187.07 3.55007 2.09867 0
M  V30 12479 H 1186.42 0.65553 0.105719 0
M  V30 12480 H 1188.95 2.02299 -0.30596 0
M  V30 12481 H 1188.96 3.86655 1.30238 0
M  V30 12482 H 1187.63 4.15481 0.186662 0
M  V30 12483 H 1186.21 3.2709 1.79071 0
M  V30 12484 N 1188.39 -0.0785156 1.57404 0
M  V30 12485 C 1189.64 -0.777399 1.8655 0
M  V30 12486 C 1189.96 -1.78451 0.786142 0
M  V30 12487 O 1189.23 -1.95016 -0.185911 0
M  V30 12488 H 1187.81 -0.290097 0.688369 0
M  V30 12489 H 1190.47 -0.0562017 1.94819 0
M  V30 12490 H 1189.57 -1.29776 2.83839 0
M  V30 12491 N 1189.87 -1.5367 -0.349747 0
M  V30 12492 C 1190.8 -1.77528 -1.4497 0
M  V30 12493 C 1191.82 -0.656412 -1.4898 0
M  V30 12494 O 1193 -0.933016 -1.52174 0
M  V30 12495 C 1190.1 -1.85445 -2.8366 0
M  V30 12496 C 1189.28 -3.15295 -3.03163 0
M  V30 12497 C 1188.34 -3.1425 -4.22059 0
M  V30 12498 O 1187.36 -3.87994 -4.16472 0
M  V30 12499 N 1188.56 -2.36181 -5.30282 0
M  V30 12500 H 1191.33 -2.72444 -1.24877 0
M  V30 12501 H 1188.89 -1.52644 -0.539586 0
M  V30 12502 H 1190.88 -1.82204 -3.61364 0
M  V30 12503 H 1189.45 -0.977436 -2.96926 0
M  V30 12504 H 1188.67 -3.31711 -2.12983 0
M  V30 12505 H 1189.96 -4.01078 -3.13072 0
M  V30 12506 H 1189.36 -1.75808 -5.37688 0
M  V30 12507 H 1187.92 -2.38744 -6.06502 0
M  V30 12508 N 1191.35 0.610423 -1.45298 0
M  V30 12509 C 1192.58 1.39419 -1.52466 0
M  V30 12510 C 1192.99 1.88563 -0.1551 0
M  V30 12511 O 1192.33 1.62692 0.853061 0
M  V30 12512 C 1192.39 2.63515 -2.44541 0
M  V30 12513 C 1192.06 2.36028 -3.91331 0
M  V30 12514 C 1193.05 1.96567 -4.81308 0
M  V30 12515 C 1190.74 2.49028 -4.36223 0
M  V30 12516 C 1192.73 1.70461 -6.14184 0
M  V30 12517 C 1190.42 2.22536 -5.6914 0
M  V30 12518 C 1191.42 1.83314 -6.5794 0
M  V30 12519 O 1191.1 1.57131 -7.88394 0
M  V30 12520 H 1190.84 0.433278 -0.518889 0
M  V30 12521 H 1193.39 0.751803 -1.91147 0
M  V30 12522 H 1191.62 3.30463 -2.00826 0
M  V30 12523 H 1193.31 3.25554 -2.42424 0
M  V30 12524 H 1194.08 1.86062 -4.4789 0
M  V30 12525 H 1189.95 2.78524 -3.67349 0
M  V30 12526 H 1193.5 1.39773 -6.83454 0
M  V30 12527 H 1189.4 2.32657 -6.02114 0
M  V30 12528 H 1190.16 1.71207 -8.00394 0
M  V30 12529 N 1192.83 1.32541 0.852676 0
M  V30 12530 C 1193.74 1.23646 1.99371 0
M  V30 12531 C 1194.75 0.149673 1.73355 0
M  V30 12532 O 1195.93 0.370716 1.97959 0
M  V30 12533 C 1192.99 0.961873 3.3309 0
M  V30 12534 C 1192.05 2.1373 3.72315 0
M  V30 12535 C 1191.29 1.87572 4.99652 0
M  V30 12536 O 1191.51 0.819247 5.64486 0
M  V30 12537 O 1190.44 2.73732 5.36054 0
M  V30 12538 H 1194.27 2.19573 2.09813 0
M  V30 12539 H 1191.86 1.12451 0.983627 0
M  V30 12540 H 1193.74 0.825316 4.13239 0
M  V30 12541 H 1192.41 0.0327745 3.23683 0
M  V30 12542 H 1191.32 2.32933 2.92733 0
M  V30 12543 H 1192.65 3.04925 3.86369 0
M  V30 12544 N 1194.3 -1.0692 1.15784 0
M  V30 12545 C 1195.27 -2.12407 0.861167 0
M  V30 12546 C 1196.27 -1.6018 -0.141031 0
M  V30 12547 O 1197.46 -1.73972 0.0891192 0
M  V30 12548 C 1194.59 -3.39693 0.286636 0
M  V30 12549 H 1195.78 -2.40157 1.79623 0
M  V30 12550 H 1193.34 -1.22881 0.965916 0
M  V30 12551 H 1194.07 -3.17587 -0.656417 0
M  V30 12552 H 1193.86 -3.78903 1.0087 0
M  V30 12553 H 1195.35 -4.17488 0.0967971 0
M  V30 12554 N 1195.78 -0.955326 -1.25345 0
M  V30 12555 C 1196.73 -0.467205 -2.2786 0
M  V30 12556 C 1197.72 0.462873 -1.62954 0
M  V30 12557 O 1198.93 0.339526 -1.76769 0
M  V30 12558 H 1195.31 -0.132586 -0.74022 0
M  V30 12559 H 1197.28 -1.34406 -2.66416 0
M  V30 12560 C 1196.03 0.238898 -3.46878 0
M  V30 12561 H 1195.35 -0.467644 -3.97056 0
M  V30 12562 H 1196.79 0.544444 -4.2049 0
M  V30 12563 C 1195.25 1.46164 -3.03542 0
M  V30 12564 O 1195.78 2.55933 -3.09615 0
M  V30 12565 N 1193.98 1.32324 -2.58725 0
M  V30 12566 H 1193.53 0.430131 -2.53984 0
M  V30 12567 H 1193.49 2.14253 -2.30094 0
M  V30 12568 N 1197.26 1.39987 -0.723979 0
M  V30 12569 C 1198.17 2.3447 -0.0780936 0
M  V30 12570 C 1199.19 1.57744 0.734368 0
M  V30 12571 O 1200.36 1.90091 0.665385 0
M  V30 12572 C 1197.43 3.36705 0.826492 0
M  V30 12573 C 1196.49 4.293 0.00303036 0
M  V30 12574 C 1195.72 5.26651 0.864535 0
M  V30 12575 O 1195.95 5.30194 2.10357 0
M  V30 12576 O 1194.88 6.01157 0.299057 0
M  V30 12577 H 1198.71 2.91338 -0.857646 0
M  V30 12578 H 1196.29 1.41324 -0.484536 0
M  V30 12579 H 1198.17 3.9938 1.34439 0
M  V30 12580 H 1196.85 2.82237 1.58505 0
M  V30 12581 H 1195.75 3.69883 -0.560136 0
M  V30 12582 H 1197.09 4.86942 -0.717494 0
M  V30 12583 N 1198.74 0.470782 1.50404 0
M  V30 12584 C 1199.67 -0.359838 2.26358 0
M  V30 12585 C 1200.68 -0.95735 1.31676 0
M  V30 12586 O 1201.87 -0.84581 1.57189 0
M  V30 12587 C 1198.97 -1.51864 3.02969 0
M  V30 12588 C 1198.15 -1.03397 4.25003 0
M  V30 12589 C 1197.21 -2.06679 4.83911 0
M  V30 12590 O 1196.23 -1.64754 5.44835 0
M  V30 12591 N 1197.43 -3.39484 4.70883 0
M  V30 12592 H 1200.2 0.291299 2.98281 0
M  V30 12593 H 1197.76 0.301549 1.59067 0
M  V30 12594 H 1199.75 -2.2065 3.39258 0
M  V30 12595 H 1198.32 -2.07448 2.33846 0
M  V30 12596 H 1197.54 -0.172012 3.93825 0
M  V30 12597 H 1198.83 -0.68807 5.04126 0
M  V30 12598 H 1198.23 -3.76256 4.22431 0
M  V30 12599 H 1196.78 -4.04068 5.11441 0
M  V30 12600 N 1200.22 -1.56282 0.203376 0
M  V30 12601 C 1201.47 -1.97421 -0.432346 0
M  V30 12602 C 1201.79 -1.0917 -1.61576 0
M  V30 12603 O 1201.06 -0.164759 -1.95206 0
M  V30 12604 H 1199.64 -0.729062 -0.162721 0
M  V30 12605 H 1202.3 -1.927 0.292039 0
M  V30 12606 H 1201.39 -3.02429 -0.770918 0
M  V30 12607 N 1201.7 0.070167 -1.57444 0
M  V30 12608 C 1202.64 1.10193 -2.04842 0
M  V30 12609 C 1203.64 1.39978 -0.954069 0
M  V30 12610 O 1204.84 1.39366 -1.13917 0
M  V30 12611 H 1201.22 0.372699 -0.653146 0
M  V30 12612 H 1203.19 0.676033 -2.90641 0
M  V30 12613 C 1201.94 2.40679 -2.50936 0
M  V30 12614 H 1201.26 2.1861 -3.34738 0
M  V30 12615 H 1202.7 3.11315 -2.87852 0
M  V30 12616 C 1201.16 3.06754 -1.39297 0
M  V30 12617 O 1201.69 3.949 -0.735989 0
M  V30 12618 N 1199.9 2.67404 -1.13769 0
M  V30 12619 H 1199.44 1.95813 -1.67376 0
M  V30 12620 H 1199.4 3.11937 -0.392787 0
M  V30 12621 N 1203.17 1.53854 0.341593 0
M  V30 12622 C 1204.42 1.70856 1.07948 0
M  V30 12623 C 1204.74 0.475474 1.89114 0
M  V30 12624 O 1204.01 -0.510592 1.89129 0
M  V30 12625 H 1202.59 0.629914 0.401519 0
M  V30 12626 H 1205.25 1.91112 0.382393 0
M  V30 12627 H 1204.35 2.5803 1.75575 0
M  V30 12628 N 1204.65 -0.602709 1.4562 0
M  V30 12629 C 1206.07 -0.923983 1.30133 0
M  V30 12630 C 1206.27 -1.99842 0.25796 0
M  V30 12631 O 1205.32 -2.50112 -0.346414 0
M  V30 12632 C 1206.64 -1.36029 2.68173 0
M  V30 12633 C 1208.18 -1.47423 2.76108 0
M  V30 12634 C 1208.66 -1.94427 4.14683 0
M  V30 12635 N 1210.15 -2.01653 4.17002 0
M  V30 12636 C 1210.89 -2.39255 5.211 0
M  V30 12637 N 1210.38 -2.75791 6.3554 0
M  V30 12638 N 1212.17 -2.39636 5.08459 0
M  V30 12639 H 1204.33 0.107377 2.12128 0
M  V30 12640 H 1206.59 -0.0146216 0.947887 0
M  V30 12641 H 1206.29 -0.644949 3.45736 0
M  V30 12642 H 1206.17 -2.32584 2.96959 0
M  V30 12643 H 1208.56 -2.18047 1.98845 0
M  V30 12644 H 1208.64 -0.4917 2.5103 0
M  V30 12645 H 1208.28 -1.24389 4.92433 0
M  V30 12646 H 1208.21 -2.93603 4.37156 0
M  V30 12647 H 1210.7 -1.75988 3.3442 0
M  V30 12648 H 1211.01 -3.03378 7.10761 0
M  V30 12649 H 1209.36 -2.73475 6.38934 0
M  V30 12650 H 1212.55 -2.10502 4.18098 0
M  V30 12651 H 1212.72 -2.68614 5.89704 0
M  V30 12652 N 1206.13 -1.32992 -0.845635 0
M  V30 12653 C 1207.36 -1.27087 -1.63268 0
M  V30 12654 C 1207.77 0.159481 -1.88125 0
M  V30 12655 O 1207.13 1.09948 -1.45663 0
M  V30 12656 C 1207.18 -2.03649 -2.98679 0
M  V30 12657 O 1206.9 -3.41104 -2.74918 0
M  V30 12658 C 1208.4 -2.04875 -3.93117 0
M  V30 12659 H 1205.62 -0.438107 -0.508236 0
M  V30 12660 H 1208.17 -1.75257 -1.05381 0
M  V30 12661 H 1206.32 -1.59178 -3.53187 0
M  V30 12662 H 1206.74 -3.80405 -3.61099 0
M  V30 12663 H 1208.21 -2.62911 -4.85368 0
M  V30 12664 H 1208.69 -1.03728 -4.26775 0
M  V30 12665 H 1209.29 -2.49334 -3.44547 0
M  V30 12666 N 1207.61 1.06304 -1.1635 0
M  V30 12667 C 1208.86 1.78487 -0.939423 0
M  V30 12668 C 1209.17 1.8817 0.533998 0
M  V30 12669 O 1210.38 2.56981 0.875962 0
M  V30 12670 C 1208.83 3.20796 -1.63149 0
M  V30 12671 C 1208.44 3.19281 -3.14267 0
M  V30 12672 C 1210.18 3.97514 -1.48938 0
M  V30 12673 C 1208.09 4.56309 -3.76213 0
M  V30 12674 H 1207.02 0.668973 -0.347837 0
M  V30 12675 H 1209.67 1.19237 -1.3948 0
M  V30 12676 H 1208.05 3.80305 -1.10382 0
M  V30 12677 H 1209.23 2.69356 -3.73877 0
M  V30 12678 H 1207.54 2.56062 -3.28362 0
M  V30 12679 H 1210.14 4.98808 -1.926 0
M  V30 12680 H 1210.48 4.13986 -0.438319 0
M  V30 12681 H 1211.02 3.44528 -1.98861 0
M  V30 12682 H 1207.75 4.45042 -4.81267 0
M  V30 12683 H 1207.27 5.06429 -3.21388 0
M  V30 12684 H 1208.95 5.25266 -3.77762 0
M  V30 12685 N 1209.09 0.96196 1.24836 0
M  V30 12686 C 1210.5 0.660388 1.7463 0
M  V30 12687 C 1210.85 -0.824064 1.78055 0
M  V30 12688 O 1209.97 -1.64485 1.40619 0
M  V30 12689 C 1210.57 1.19205 3.17137 0
M  V30 12690 C 1209.13 0.940493 3.64461 0
M  V30 12691 C 1208.27 1.33076 2.43282 0
M  V30 12692 H 1211.22 1.13794 1.1062 0
M  V30 12693 H 1211.25 0.555595 3.76422 0
M  V30 12694 H 1210.76 2.27247 3.14612 0
M  V30 12695 H 1208.86 -0.124645 3.72391 0
M  V30 12696 H 1208.97 1.5821 4.52224 0
M  V30 12697 H 1207.34 0.749139 2.43434 0
M  V30 12698 H 1208.12 2.42055 2.43442 0
M  V30 12699 N 1210.56 -1.39601 0.731392 0
M  V30 12700 C 1211.47 -2.34425 0.090527 0
M  V30 12701 C 1212.49 -1.58131 -0.725992 0
M  V30 12702 O 1213.67 -1.90441 -0.655294 0
M  V30 12703 C 1210.73 -3.37138 -0.808624 0
M  V30 12704 C 1209.79 -4.29295 0.0197365 0
M  V30 12705 C 1209.02 -5.27102 -0.836593 0
M  V30 12706 O 1209.25 -5.31302 -2.07543 0
M  V30 12707 O 1208.18 -6.01307 -0.267172 0
M  V30 12708 H 1212.01 -2.9088 0.873084 0
M  V30 12709 H 1209.59 -1.41066 0.492024 0
M  V30 12710 H 1211.47 -4.00087 -1.32319 0
M  V30 12711 H 1210.15 -2.83074 -1.57006 0
M  V30 12712 H 1209.06 -3.69581 0.579744 0
M  V30 12713 H 1210.39 -4.86555 0.743308 0
M  V30 12714 N 1212.04 -0.478751 -1.50152 0
M  V30 12715 C 1213.45 -0.0254907 -1.86683 0
M  V30 12716 C 1213.8 1.38171 -1.39295 0
M  V30 12717 O 1212.93 2.0257 -0.761207 0
M  V30 12718 C 1213.52 -0.0394819 -3.38777 0
M  V30 12719 C 1212.08 0.35834 -3.7469 0
M  V30 12720 C 1211.23 -0.421667 -2.74075 0
M  V30 12721 H 1214.18 -0.692653 -1.42787 0
M  V30 12722 H 1214.2 0.760957 -3.72813 0
M  V30 12723 H 1213.71 -1.06378 -3.73236 0
M  V30 12724 H 1211.82 1.38671 -3.45834 0
M  V30 12725 H 1211.93 0.0543589 -4.79069 0
M  V30 12726 H 1210.29 0.125634 -2.5439 0
M  V30 12727 H 1211.08 -1.44562 -3.11379 0
M  V30 12728 N 1213.52 1.56172 -0.211661 0
M  V30 12729 C 1214.77 1.98332 0.423332 0
M  V30 12730 C 1215.1 1.09895 1.60115 0
M  V30 12731 O 1214.37 0.154477 1.93886 0
M  V30 12732 C 1214.66 3.49495 0.86747 0
M  V30 12733 C 1214.51 4.48708 -0.313302 0
M  V30 12734 C 1215.83 4.04793 1.72716 0
M  V30 12735 H 1212.95 0.72107 0.152402 0
M  V30 12736 H 1215.59 1.87521 -0.305912 0
M  V30 12737 H 1213.74 3.58839 1.48885 0
M  V30 12738 H 1215.41 4.51385 -0.951291 0
M  V30 12739 H 1213.66 4.2299 -0.96238 0
M  V30 12740 H 1214.33 5.51985 0.0402402 0
M  V30 12741 H 1216.8 3.98332 1.20296 0
M  V30 12742 H 1215.68 5.10898 2.00684 0
M  V30 12743 H 1215.94 3.51067 2.68709 0
M  V30 12744 N 1215 -0.0618163 1.57479 0
M  V30 12745 C 1215.95 -1.0724 2.04373 0
M  V30 12746 C 1216.92 -1.37875 0.926271 0
M  V30 12747 O 1218.1 -1.48772 1.19463 0
M  V30 12748 C 1215.24 -2.37805 2.50085 0
M  V30 12749 C 1214.35 -2.13614 3.7549 0
M  V30 12750 C 1213.49 -3.37814 4.09945 0
M  V30 12751 C 1212.53 -3.09032 5.28361 0
M  V30 12752 N 1211.66 -4.25591 5.58406 0
M  V30 12753 H 1216.5 -0.665536 2.90473 0
M  V30 12754 H 1214.04 -0.317043 1.43643 0
M  V30 12755 H 1216 -3.14048 2.74644 0
M  V30 12756 H 1214.63 -2.76275 1.66948 0
M  V30 12757 H 1213.68 -1.28017 3.58212 0
M  V30 12758 H 1214.99 -1.88361 4.61867 0
M  V30 12759 H 1214.15 -4.22447 4.35458 0
M  V30 12760 H 1212.89 -3.66153 3.22154 0
M  V30 12761 H 1211.89 -2.22797 5.02635 0
M  V30 12762 H 1213.12 -2.82006 6.17778 0
M  V30 12763 H 1211.06 -4.53941 4.73575 0
M  V30 12764 H 1210.98 -4.03646 6.39223 0
M  V30 12765 H 1212.25 -5.11191 5.88476 0
M  V30 12766 N 1216.48 -1.54033 -0.333429 0
M  V30 12767 C 1217.75 -1.62404 -1.09015 0
M  V30 12768 C 1218.13 -0.451653 -2.06212 0
M  V30 12769 O 1217.48 0.555086 -2.21655 0
M  V30 12770 C 1217.69 -2.98949 -1.80085 0
M  V30 12771 C 1219.04 -3.54655 -2.33464 0
M  V30 12772 O 1220.06 -3.0119 -1.90166 0
M  V30 12773 O 1218.92 -4.48195 -3.12703 0
M  V30 12774 H 1216.02 -0.65727 -0.501921 0
M  V30 12775 H 1218.56 -1.66378 -0.33411 0
M  V30 12776 H 1217.33 -3.75716 -1.09332 0
M  V30 12777 H 1216.96 -2.98609 -2.62523 0
M  V30 12778 N 1217.95 0.594978 -1.45938 0
M  V30 12779 C 1218.88 1.71536 -1.58422 0
M  V30 12780 C 1219.87 1.64441 -0.435116 0
M  V30 12781 O 1221.05 1.82647 -0.659839 0
M  V30 12782 C 1218.18 3.10163 -1.56257 0
M  V30 12783 C 1217.13 3.3208 -2.70013 0
M  V30 12784 C 1216.46 4.71108 -2.52905 0
M  V30 12785 C 1217.76 3.21105 -4.11933 0
M  V30 12786 H 1219.45 1.61344 -2.52207 0
M  V30 12787 H 1217 0.774791 -1.2138 0
M  V30 12788 H 1218.95 3.88352 -1.63587 0
M  V30 12789 H 1217.68 3.21225 -0.590093 0
M  V30 12790 H 1216.34 2.56286 -2.62132 0
M  V30 12791 H 1215.98 4.7892 -1.53768 0
M  V30 12792 H 1215.68 4.86727 -3.29197 0
M  V30 12793 H 1217.21 5.51482 -2.62107 0
M  V30 12794 H 1218.62 3.89153 -4.2099 0
M  V30 12795 H 1217.02 3.4825 -4.88715 0
M  V30 12796 H 1218.09 2.18359 -4.32952 0
M  V30 12797 N 1219.43 1.33438 0.838571 0
M  V30 12798 C 1220.66 1.27951 1.62592 0
M  V30 12799 C 1221.08 -0.149502 1.88207 0
M  V30 12800 O 1220.43 -1.09174 1.46244 0
M  V30 12801 C 1220.48 2.0523 2.97595 0
M  V30 12802 O 1220.2 3.42557 2.73105 0
M  V30 12803 C 1221.71 2.06957 3.92025 0
M  V30 12804 H 1218.93 0.440796 0.505905 0
M  V30 12805 H 1221.47 1.75814 1.0445 0
M  V30 12806 H 1219.62 1.61049 3.52338 0
M  V30 12807 H 1220.04 3.82314 3.59076 0
M  V30 12808 H 1221.51 2.65481 4.83967 0
M  V30 12809 H 1221.99 1.0599 4.26219 0
M  V30 12810 H 1222.6 2.51158 3.4322 0
M  V30 12811 N 1220.91 -1.05686 1.16912 0
M  V30 12812 C 1221.84 -2.15268 0.904532 0
M  V30 12813 C 1222.82 -1.69424 -0.151548 0
M  V30 12814 O 1224.01 -1.942 -0.00235371 0
M  V30 12815 C 1221.14 -3.44853 0.411581 0
M  V30 12816 C 1220.09 -4.04237 1.40628 0
M  V30 12817 C 1219.42 -5.29105 0.771479 0
M  V30 12818 C 1220.72 -4.42303 2.77787 0
M  V30 12819 H 1222.41 -2.37659 1.82094 0
M  V30 12820 H 1219.96 -1.14217 0.876947 0
M  V30 12821 H 1221.91 -4.20857 0.213929 0
M  V30 12822 H 1220.63 -3.22099 -0.540352 0
M  V30 12823 H 1219.29 -3.30297 1.59058 0
M  V30 12824 H 1218.94 -5.02652 -0.187133 0
M  V30 12825 H 1218.64 -5.69797 1.43545 0
M  V30 12826 H 1220.16 -6.07801 0.583988 0
M  V30 12827 H 1221.58 -5.09362 2.63103 0
M  V30 12828 H 1219.98 -4.93997 3.40716 0
M  V30 12829 H 1221.05 -3.52877 3.32575 0
M  V30 12830 N 1222.39 -0.968567 -1.24324 0
M  V30 12831 C 1223.8 -0.675239 -1.44612 0
M  V30 12832 C 1224 0.762641 -1.8651 0
M  V30 12833 O 1223.06 1.53644 -2.00374 0
M  V30 12834 C 1224.37 -1.66007 -2.50723 0
M  V30 12835 C 1225.92 -1.6728 -2.6455 0
M  V30 12836 C 1226.4 -2.64563 -3.73859 0
M  V30 12837 N 1227.89 -2.6301 -3.81287 0
M  V30 12838 C 1228.62 -3.34957 -4.65394 0
M  V30 12839 N 1228.12 -4.16424 -5.53681 0
M  V30 12840 N 1229.91 -3.23778 -4.59483 0
M  V30 12841 H 1222.06 -1.89757 -0.954257 0
M  V30 12842 H 1224.33 -0.817004 -0.480841 0
M  V30 12843 H 1224.03 -2.68779 -2.26827 0
M  V30 12844 H 1223.91 -1.43353 -3.48898 0
M  V30 12845 H 1226.29 -0.652184 -2.87803 0
M  V30 12846 H 1226.37 -1.93997 -1.6673 0
M  V30 12847 H 1226.02 -3.66759 -3.51355 0
M  V30 12848 H 1225.95 -2.35124 -4.71194 0
M  V30 12849 H 1228.44 -2.03877 -3.18186 0
M  V30 12850 H 1228.75 -4.68207 -6.14818 0
M  V30 12851 H 1227.1 -4.20518 -5.53344 0
M  V30 12852 H 1230.29 -2.59594 -3.89524 0
M  V30 12853 H 1230.46 -3.80112 -5.24804 0
M  V30 12854 N 1223.87 1.39211 -0.738786 0
M  V30 12855 C 1224.81 2.32424 -0.0904601 0
M  V30 12856 C 1225.81 1.53258 0.721694 0
M  V30 12857 O 1227.01 1.68895 0.622454 0
M  V30 12858 H 1223.39 0.751927 -0.010453 0
M  V30 12859 H 1225.36 2.84726 -0.892945 0
M  V30 12860 C 1224.11 3.38377 0.799783 0
M  V30 12861 H 1223.43 3.99375 0.18424 0
M  V30 12862 H 1224.87 4.0604 1.22096 0
M  V30 12863 C 1223.33 2.75734 1.93578 0
M  V30 12864 O 1223.86 2.63876 3.02874 0
M  V30 12865 N 1222.07 2.33764 1.72634 0
M  V30 12866 H 1221.61 2.43609 0.837413 0
M  V30 12867 H 1221.57 1.92191 2.48817 0
M  V30 12868 N 1225.34 0.486708 1.49896 0
M  V30 12869 C 1226.76 0.141788 1.58969 0
M  V30 12870 C 1226.96 -1.35279 1.49338 0
M  V30 12871 O 1226.02 -2.1275 1.35992 0
M  V30 12872 C 1227.33 0.70588 2.92297 0
M  V30 12873 C 1228.88 0.670704 3.0573 0
M  V30 12874 C 1229.35 1.21261 4.41656 0
M  V30 12875 N 1230.84 1.17269 4.4811 0
M  V30 12876 C 1231.58 1.56233 5.51705 0
M  V30 12877 N 1231.07 2.02721 6.62477 0
M  V30 12878 N 1232.87 1.47738 5.42337 0
M  V30 12879 H 1225.02 1.45858 1.544 0
M  V30 12880 H 1227.28 0.604137 0.730563 0
M  V30 12881 H 1226.99 1.7535 3.04869 0
M  V30 12882 H 1226.86 0.158215 3.76868 0
M  V30 12883 H 1229.25 -0.368041 2.92796 0
M  V30 12884 H 1229.33 1.25535 2.22878 0
M  V30 12885 H 1228.97 2.25006 4.5534 0
M  V30 12886 H 1228.9 0.604031 5.23124 0
M  V30 12887 H 1231.39 0.831905 3.6863 0
M  V30 12888 H 1231.71 2.3056 7.37606 0
M  V30 12889 H 1230.05 2.06686 6.63556 0
M  V30 12890 H 1233.24 1.11249 4.54688 0
M  V30 12891 H 1233.42 1.78429 6.2295 0
M  V30 12892 N 1226.82 -1.56058 0.219941 0
M  V30 12893 C 1228.05 -2.031 -0.42014 0
M  V30 12894 C 1228.47 -1.09875 -1.52673 0
M  V30 12895 O 1227.83 -0.0866458 -1.81093 0
M  V30 12896 C 1227.88 -3.48389 -0.93047 0
M  V30 12897 O 1226.98 -3.583 -2.04192 0
M  V30 12898 H 1226.32 -0.657129 -0.0952772 0
M  V30 12899 H 1228.85 -2.01787 0.338105 0
M  V30 12900 H 1228.86 -3.88678 -1.2407 0
M  V30 12901 H 1227.54 -4.15725 -0.120539 0
M  V30 12902 H 1226.12 -3.29898 -1.73845 0
M  V30 12903 N 1228.3 0.053464 -1.57509 0
M  V30 12904 C 1229.53 0.761533 -1.92375 0
M  V30 12905 C 1229.94 1.70179 -0.817585 0
M  V30 12906 O 1229.3 1.81313 0.207843 0
M  V30 12907 C 1229.35 1.53954 -3.27078 0
M  V30 12908 O 1229.07 0.637054 -4.33443 0
M  V30 12909 C 1230.57 2.34697 -3.76075 0
M  V30 12910 H 1227.79 0.215483 -0.635459 0
M  V30 12911 H 1230.34 0.0182624 -2.04492 0
M  V30 12912 H 1228.49 2.23492 -3.16434 0
M  V30 12913 H 1228.91 1.18006 -5.11053 0
M  V30 12914 H 1230.38 2.84716 -4.72906 0
M  V30 12915 H 1230.86 3.15041 -3.06016 0
M  V30 12916 H 1231.46 1.70281 -3.89724 0
M  V30 12917 N 1229.78 1.54207 0.325255 0
M  V30 12918 C 1230.69 1.86495 1.42326 0
M  V30 12919 C 1231.71 0.756718 1.56684 0
M  V30 12920 O 1232.88 1.05084 1.71812 0
M  V30 12921 C 1229.95 2.08414 2.77064 0
M  V30 12922 C 1229.01 3.32221 2.71897 0
M  V30 12923 C 1228.24 3.53085 4.00209 0
M  V30 12924 O 1228.46 2.77421 4.98391 0
M  V30 12925 O 1227.4 4.46559 4.0357 0
M  V30 12926 H 1231.22 2.79859 1.17951 0
M  V30 12927 H 1228.81 1.40091 0.519124 0
M  V30 12928 H 1230.69 2.24171 3.56827 0
M  V30 12929 H 1229.37 1.18238 3.01333 0
M  V30 12930 H 1228.27 3.21851 1.90691 0
M  V30 12931 H 1229.61 4.22449 2.52582 0
M  V30 12932 N 1231.26 -0.58723 1.46251 0
M  V30 12933 C 1232.53 -1.34727 1.41802 0
M  V30 12934 C 1232.91 -2.10867 0.0991354 0
M  V30 12935 O 1232.26 -2.09194 -0.919242 0
M  V30 12936 C 1232.47 -2.27706 2.64482 0
M  V30 12937 C 1233.82 -2.89678 3.10438 0
M  V30 12938 O 1234.84 -2.38021 2.64999 0
M  V30 12939 O 1233.7 -3.83493 3.89352 0
M  V30 12940 H 1230.8 -0.605119 0.563702 0
M  V30 12941 H 1233.34 -0.608623 1.5841 0
M  V30 12942 H 1232.12 -1.70842 3.52035 0
M  V30 12943 H 1231.74 -3.08918 2.50311 0
M  V30 12944 N 1232.74 -1.33881 -0.831482 0
M  V30 12945 C 1233.67 -1.27384 -1.95693 0
M  V30 12946 C 1234.65 -0.152943 -1.69411 0
M  V30 12947 O 1235.83 -0.34392 -1.9113 0
M  V30 12948 C 1232.96 -1.01982 -3.31989 0
M  V30 12949 C 1231.92 -2.10445 -3.72689 0
M  V30 12950 C 1231.24 -1.70245 -5.06873 0
M  V30 12951 C 1232.54 -3.52194 -3.8569 0
M  V30 12952 H 1234.24 -2.21549 -2.01386 0
M  V30 12953 H 1231.78 -1.06653 -0.967526 0
M  V30 12954 H 1233.73 -0.960841 -4.103 0
M  V30 12955 H 1232.46 -0.0425709 -3.26572 0
M  V30 12956 H 1231.12 -2.15398 -2.96647 0
M  V30 12957 H 1230.77 -0.712036 -4.97935 0
M  V30 12958 H 1230.47 -2.42834 -5.35075 0
M  V30 12959 H 1231.99 -1.65827 -5.87651 0
M  V30 12960 H 1233.4 -3.49701 -4.54293 0
M  V30 12961 H 1231.8 -4.23331 -4.25336 0
M  V30 12962 H 1232.87 -3.9016 -2.87929 0
M  V30 12963 N 1234.21 1.05064 -1.1747 0
M  V30 12964 C 1235.16 2.11131 -0.860692 0
M  V30 12965 C 1236.15 1.60049 0.165288 0
M  V30 12966 O 1237.34 1.76961 -0.0373288 0
M  V30 12967 C 1234.47 3.41222 -0.37718 0
M  V30 12968 C 1233.55 3.99097 -1.43466 0
M  V30 12969 N 1233.95 4.30918 -2.64846 0
M  V30 12970 C 1232.24 4.26851 -1.29282 0
M  V30 12971 C 1232.94 4.77092 -3.32804 0
M  V30 12972 N 1231.92 4.77291 -2.60182 0
M  V30 12973 H 1235.72 2.33597 -1.78353 0
M  V30 12974 H 1233.24 1.22724 -1.06361 0
M  V30 12975 H 1235.23 4.16685 -0.133766 0
M  V30 12976 H 1233.89 3.20188 0.53944 0
M  V30 12977 H 1234.9 4.20877 -3.01799 0
M  V30 12978 H 1231.58 4.15197 -0.437949 0
M  V30 12979 H 1232.97 5.10815 -4.36483 0
M  V30 12980 N 1235.69 0.975146 1.23809 0
M  V30 12981 C 1236.94 0.642074 1.92367 0
M  V30 12982 C 1237.27 -0.82164 1.75962 0
M  V30 12983 O 1236.55 -1.59205 1.11732 0
M  V30 12984 C 1236.83 1.02677 3.45151 0
M  V30 12985 C 1236.68 2.54773 3.7069 0
M  V30 12986 C 1238 0.5668 4.36435 0
M  V30 12987 H 1235.12 0.234735 0.698619 0
M  V30 12988 H 1237.76 1.21549 1.46034 0
M  V30 12989 H 1235.91 0.538846 3.84745 0
M  V30 12990 H 1237.58 3.11099 3.4061 0
M  V30 12991 H 1235.83 2.97641 3.15583 0
M  V30 12992 H 1236.5 2.7674 4.77618 0
M  V30 12993 H 1238.97 0.985635 4.04258 0
M  V30 12994 H 1237.85 0.864458 5.4205 0
M  V30 12995 H 1238.11 -0.532989 4.38875 0
M  V30 12996 N 1237.17 -1.38817 0.746158 0
M  V30 12997 C 1238.4 -2.0457 0.309605 0
M  V30 12998 C 1238.81 -1.5627 -1.05948 0
M  V30 12999 O 1238.17 -0.73248 -1.67156 0
M  V30 13000 C 1238.22 -3.60126 0.314843 0
M  V30 13001 O 1237.94 -4.06652 1.6299 0
M  V30 13002 C 1239.44 -4.4309 -0.136497 0
M  V30 13003 H 1236.66 -0.657597 0.133441 0
M  V30 13004 H 1239.21 -1.77651 1.01293 0
M  V30 13005 H 1237.36 -3.85908 -0.339685 0
M  V30 13006 H 1237.78 -5.01042 1.55103 0
M  V30 13007 H 1239.25 -5.5194 -0.0816714 0
M  V30 13008 H 1239.73 -4.22959 -1.18332 0
M  V30 13009 H 1240.33 -4.22481 0.488879 0
M  V30 13010 N 1238.65 -0.49465 -1.49636 0
M  V30 13011 C 1239.89 0.0442152 -2.03352 0
M  V30 13012 C 1240.25 1.35275 -1.36815 0
M  V30 13013 O 1239.54 1.85158 -0.492671 0
M  V30 13014 C 1239.74 0.259743 -3.56455 0
M  V30 13015 C 1239.56 -1.02635 -4.37831 0
M  V30 13016 C 1238.33 -1.57636 -4.80082 0
M  V30 13017 C 1240.53 -1.92797 -4.76795 0
M  V30 13018 N 1238.51 -2.80902 -5.45864 0
M  V30 13019 C 1239.89 -3.00644 -5.4223 0
M  V30 13020 C 1241.94 -1.93552 -4.5874 0
M  V30 13021 C 1240.64 -4.09265 -5.91519 0
M  V30 13022 C 1242.67 -3.01144 -5.08986 0
M  V30 13023 C 1242.03 -4.07709 -5.74415 0
M  V30 13024 H 1238.13 -0.0244415 -0.781618 0
M  V30 13025 H 1240.71 -0.668098 -1.82878 0
M  V30 13026 H 1238.89 0.941108 -3.76826 0
M  V30 13027 H 1240.62 0.795048 -3.96814 0
M  V30 13028 H 1237.37 -1.12236 -4.60109 0
M  V30 13029 H 1237.8 -3.43565 -5.83345 0
M  V30 13030 H 1242.44 -1.12473 -4.07566 0
M  V30 13031 H 1240.16 -4.91146 -6.41717 0
M  V30 13032 H 1243.74 -3.02739 -4.9683 0
M  V30 13033 H 1242.62 -4.89591 -6.12593 0
M  V30 13034 N 1240.13 1.55939 -0.228214 0
M  V30 13035 C 1241.35 2.0332 0.409364 0
M  V30 13036 C 1241.78 1.10683 1.52088 0
M  V30 13037 O 1241.13 0.0962484 1.81044 0
M  V30 13038 C 1241.18 3.48877 0.911981 0
M  V30 13039 O 1240.29 3.59378 2.02289 0
M  V30 13040 H 1239.63 0.657625 0.0917909 0
M  V30 13041 H 1242.16 2.01605 -0.348802 0
M  V30 13042 H 1242.17 3.89331 1.22007 0
M  V30 13043 H 1240.84 4.15783 0.0984902 0
M  V30 13044 H 1239.42 3.30815 1.72093 0
M  V30 13045 N 1241.6 -0.0451101 1.57535 0
M  V30 13046 C 1242.85 -0.737654 1.88157 0
M  V30 13047 C 1243.17 -1.76743 0.823817 0
M  V30 13048 O 1242.44 -1.95366 -0.144503 0
M  V30 13049 H 1241.02 -0.275431 0.694368 0
M  V30 13050 H 1243.69 -0.0148651 1.94894 0
M  V30 13051 H 1242.78 -1.23726 2.86528 0
M  V30 13052 N 1243.08 -1.54377 -0.317073 0
M  V30 13053 C 1244.05 -1.83488 -1.37349 0
M  V30 13054 C 1245.05 -0.706981 -1.44424 0
M  V30 13055 O 1246.24 -0.975289 -1.44339 0
M  V30 13056 C 1243.37 -2.00074 -2.76013 0
M  V30 13057 H 1244.56 -2.77883 -1.12789 0
M  V30 13058 H 1242.11 -1.46194 -0.552902 0
M  V30 13059 H 1242.85 -1.07913 -3.05819 0
M  V30 13060 H 1242.63 -2.82155 -2.7227 0
M  V30 13061 H 1244.12 -2.24022 -3.52426 0
M  V30 13062 N 1244.56 0.579466 -1.4656 0
M  V30 13063 C 1245.51 1.70937 -1.57744 0
M  V30 13064 C 1246.5 1.6343 -0.44577 0
M  V30 13065 O 1247.71 1.68884 -0.622762 0
M  V30 13066 H 1244.08 0.565218 -0.496017 0
M  V30 13067 H 1246.05 1.58636 -2.52739 0
M  V30 13068 C 1244.8 3.09321 -1.58794 0
M  V30 13069 H 1244.13 3.1577 -2.45213 0
M  V30 13070 H 1245.57 3.88132 -1.70674 0
M  V30 13071 C 1244.03 3.35404 -0.317165 0
M  V30 13072 O 1244.56 3.97325 0.591228 0
M  V30 13073 N 1242.76 2.89883 -0.204071 0
M  V30 13074 H 1242.31 2.39672 -0.944194 0
M  V30 13075 H 1242.27 3.07706 0.645303 0
M  V30 13076 N 1246.04 1.3432 0.824371 0
M  V30 13077 C 1247.29 1.26345 1.57738 0
M  V30 13078 C 1247.61 -0.166836 1.94285 0
M  V30 13079 O 1246.88 -1.09911 1.62162 0
M  V30 13080 H 1245.46 0.46466 0.584893 0
M  V30 13081 H 1248.12 1.68214 0.984373 0
M  V30 13082 H 1247.22 1.8672 2.50084 0
M  V30 13083 N 1247.52 -1.0444 1.18026 0
M  V30 13084 C 1248.79 -1.74533 0.883045 0
M  V30 13085 C 1249.17 -2.01944 -0.614975 0
M  V30 13086 O 1248.52 -1.66158 -1.56855 0
M  V30 13087 C 1248.73 -3.0332 1.72621 0
M  V30 13088 C 1250.08 -3.77128 1.9509 0
M  V30 13089 O 1251.1 -3.13209 1.69643 0
M  V30 13090 O 1249.96 -4.92001 2.37903 0
M  V30 13091 H 1247.06 -0.759315 0.327673 0
M  V30 13092 H 1249.6 -1.10539 1.2876 0
M  V30 13093 H 1248.37 -2.79171 2.74188 0
M  V30 13094 H 1248 -3.75052 1.31993 0
M  V30 13095 N 1248.99 -0.981699 -1.2329 0
M  V30 13096 C 1250.24 -0.652266 -1.92024 0
M  V30 13097 C 1250.57 0.812297 -1.76396 0
M  V30 13098 O 1249.85 1.5861 -1.12575 0
M  V30 13099 C 1250.13 -1.04506 -3.44602 0
M  V30 13100 C 1249.98 -2.56735 -3.69333 0
M  V30 13101 C 1251.3 -0.589937 -4.36128 0
M  V30 13102 H 1248.42 -0.238437 -0.697364 0
M  V30 13103 H 1251.06 -1.22322 -1.45387 0
M  V30 13104 H 1249.21 -0.559242 -3.84454 0
M  V30 13105 H 1250.89 -3.12901 -3.38955 0
M  V30 13106 H 1249.13 -2.9931 -3.14 0
M  V30 13107 H 1249.8 -2.79269 -4.76144 0
M  V30 13108 H 1252.28 -1.00706 -4.0373 0
M  V30 13109 H 1251.15 -0.893192 -5.41584 0
M  V30 13110 H 1251.41 0.509707 -4.39152 0
M  V30 13111 N 1250.47 1.3842 -0.753509 0
M  V30 13112 C 1251.75 1.94181 -0.235142 0
M  V30 13113 C 1252.13 1.68881 1.26659 0
M  V30 13114 O 1251.48 1.02731 2.04104 0
M  V30 13115 C 1251.69 3.43998 -0.588751 0
M  V30 13116 C 1253.04 4.21044 -0.548352 0
M  V30 13117 O 1254.06 3.52279 -0.52704 0
M  V30 13118 O 1252.92 5.43631 -0.559221 0
M  V30 13119 H 1250.01 0.825536 -0.0491834 0
M  V30 13120 H 1252.56 1.47813 -0.833626 0
M  V30 13121 H 1251.33 3.55921 -1.6259 0
M  V30 13122 H 1250.95 3.97582 0.0377429 0
M  V30 13123 N 1251.95 0.502579 1.49372 0
M  V30 13124 C 1252.88 -0.311743 2.2707 0
M  V30 13125 C 1253.9 -0.929204 1.33677 0
M  V30 13126 O 1255.08 -0.812277 1.58948 0
M  V30 13127 C 1252.18 -1.45404 3.06122 0
M  V30 13128 C 1251.36 -0.943591 4.27101 0
M  V30 13129 C 1250.42 -1.96368 4.88186 0
M  V30 13130 O 1249.44 -1.5316 5.48207 0
M  V30 13131 N 1250.64 -3.29419 4.77978 0
M  V30 13132 H 1253.41 0.354503 2.97596 0
M  V30 13133 H 1250.97 0.335222 1.58392 0
M  V30 13134 H 1252.96 -2.13404 3.43862 0
M  V30 13135 H 1251.53 -2.02441 2.38194 0
M  V30 13136 H 1250.75 -0.0884372 3.94101 0
M  V30 13137 H 1252.04 -0.580983 5.05472 0
M  V30 13138 H 1251.44 -3.67211 4.30317 0
M  V30 13139 H 1250 -3.93129 5.19897 0
M  V30 13140 N 1253.43 -1.55816 0.23648 0
M  V30 13141 C 1254.66 -2.02789 -0.39501 0
M  V30 13142 C 1255.07 -1.1153 -1.52832 0
M  V30 13143 O 1254.41 -0.120084 -1.83307 0
M  V30 13144 C 1254.47 -3.46052 -0.974066 0
M  V30 13145 C 1254.14 -4.56993 0.0256825 0
M  V30 13146 C 1255.13 -5.13208 0.831477 0
M  V30 13147 C 1252.82 -5.0208 0.148759 0
M  V30 13148 C 1254.81 -6.12994 1.74691 0
M  V30 13149 C 1252.5 -6.017 1.0677 0
M  V30 13150 C 1253.5 -6.57035 1.86531 0
M  V30 13151 O 1253.18 -7.54714 2.76878 0
M  V30 13152 H 1252.92 -0.668672 -0.0992687 0
M  V30 13153 H 1255.47 -2.02312 0.354826 0
M  V30 13154 H 1253.7 -3.43645 -1.77327 0
M  V30 13155 H 1255.39 -3.76586 -1.51453 0
M  V30 13156 H 1256.16 -4.79214 0.746922 0
M  V30 13157 H 1252.03 -4.58679 -0.461976 0
M  V30 13158 H 1255.58 -6.56111 2.36989 0
M  V30 13159 H 1251.48 -6.35115 1.15322 0
M  V30 13160 H 1252.24 -7.72292 2.71122 0
M  V30 13161 N 1254.91 0.036755 -1.57557 0
M  V30 13162 C 1255.82 1.05687 -2.09446 0
M  V30 13163 C 1256.83 1.40137 -1.03139 0
M  V30 13164 O 1258.01 1.49611 -1.34828 0
M  V30 13165 C 1255.07 2.34114 -2.55717 0
M  V30 13166 C 1254.13 2.06316 -3.76473 0
M  V30 13167 C 1253.37 3.2862 -4.20529 0
M  V30 13168 O 1253.59 4.3902 -3.64167 0
M  V30 13169 O 1252.52 3.14772 -5.13033 0
M  V30 13170 H 1256.35 0.64593 -2.96751 0
M  V30 13171 H 1253.94 0.253235 -1.47238 0
M  V30 13172 H 1255.82 3.09631 -2.85844 0
M  V30 13173 H 1254.49 2.74519 -1.71526 0
M  V30 13174 H 1253.4 1.28392 -3.51378 0
M  V30 13175 H 1254.73 1.70772 -4.61625 0
M  V30 13176 N 1256.39 1.54543 0.308881 0
M  V30 13177 C 1257.63 1.7266 1.04266 0
M  V30 13178 C 1257.95 0.51518 1.88694 0
M  V30 13179 O 1259.15 0.577988 2.65276 0
M  V30 13180 C 1257.61 3.05448 1.9034 0
M  V30 13181 C 1257.22 4.34043 1.10953 0
M  V30 13182 C 1258.96 3.32925 2.63365 0
M  V30 13183 C 1256.87 5.57886 1.96258 0
M  V30 13184 H 1255.8 0.643485 0.392992 0
M  V30 13185 H 1258.45 1.8103 0.300077 0
M  V30 13186 H 1256.83 2.91023 2.68555 0
M  V30 13187 H 1258.01 4.59279 0.374069 0
M  V30 13188 H 1256.32 4.13442 0.495453 0
M  V30 13189 H 1258.92 4.22649 3.27524 0
M  V30 13190 H 1259.26 2.51451 3.3178 0
M  V30 13191 H 1259.79 3.48285 1.92204 0
M  V30 13192 H 1256.53 6.42005 1.32326 0
M  V30 13193 H 1256.05 5.36847 2.67498 0
M  V30 13194 H 1257.73 5.94846 2.54494 0
M  V30 13195 N 1257.86 -0.571685 1.46866 0
M  V30 13196 C 1258.8 -1.69475 1.54307 0
M  V30 13197 C 1259.81 -1.57006 0.430449 0
M  V30 13198 O 1261 -1.64229 0.69936 0
M  V30 13199 C 1258.1 -3.07824 1.41766 0
M  V30 13200 C 1257.27 -3.46189 2.67342 0
M  V30 13201 C 1256.33 -4.63642 2.48843 0
M  V30 13202 O 1255.36 -4.68949 3.22608 0
M  V30 13203 N 1256.56 -5.59223 1.55724 0
M  V30 13204 H 1259.32 -1.63543 2.51145 0
M  V30 13205 H 1256.88 -0.757957 1.43062 0
M  V30 13206 H 1258.88 -3.84208 1.27146 0
M  V30 13207 H 1257.45 -3.08063 0.530667 0
M  V30 13208 H 1256.67 -2.59399 2.96826 0
M  V30 13209 H 1257.95 -3.68591 3.50739 0
M  V30 13210 H 1257.35 -5.5768 0.949175 0
M  V30 13211 H 1255.91 -6.34993 1.47063 0
M  V30 13212 N 1259.34 -1.34755 -0.817236 0
M  V30 13213 C 1260.27 -1.29452 -1.94331 0
M  V30 13214 C 1261.25 -0.170902 -1.69239 0
M  V30 13215 O 1262.44 -0.364173 -1.90755 0
M  V30 13216 C 1259.57 -1.05497 -3.30889 0
M  V30 13217 C 1258.52 -2.14386 -3.70436 0
M  V30 13218 C 1257.85 -1.75612 -5.05039 0
M  V30 13219 C 1259.15 -3.56265 -3.81933 0
M  V30 13220 H 1260.84 -2.23672 -1.99025 0
M  V30 13221 H 1258.39 -1.07674 -0.956159 0
M  V30 13222 H 1260.34 -1.0043 -4.09257 0
M  V30 13223 H 1259.06 -0.0772059 -3.26509 0
M  V30 13224 H 1257.72 -2.18532 -2.94345 0
M  V30 13225 H 1257.37 -0.764809 -4.97152 0
M  V30 13226 H 1257.07 -2.48495 -5.3247 0
M  V30 13227 H 1258.6 -1.72051 -5.85859 0
M  V30 13228 H 1260.01 -3.545 -4.50558 0
M  V30 13229 H 1258.41 -4.27818 -4.20822 0
M  V30 13230 H 1259.48 -3.93192 -2.83775 0
M  V30 13231 N 1260.82 1.03812 -1.18578 0
M  V30 13232 C 1261.75 2.13802 -0.938665 0
M  V30 13233 C 1262.73 1.69643 0.124575 0
M  V30 13234 O 1263.92 1.94179 -0.0285421 0
M  V30 13235 C 1261.05 3.44154 -0.466392 0
M  V30 13236 C 1260 4.01949 -1.47041 0
M  V30 13237 C 1259.33 5.27811 -0.855558 0
M  V30 13238 C 1260.63 4.37827 -2.84789 0
M  V30 13239 H 1262.32 2.34732 -1.85852 0
M  V30 13240 H 1259.87 1.12808 -0.895007 0
M  V30 13241 H 1261.82 4.20463 -0.280856 0
M  V30 13242 H 1260.54 3.22918 0.489041 0
M  V30 13243 H 1259.2 3.27725 -1.64293 0
M  V30 13244 H 1258.85 5.02886 0.107142 0
M  V30 13245 H 1258.55 5.67441 -1.52592 0
M  V30 13246 H 1260.07 6.06795 -0.680609 0
M  V30 13247 H 1261.49 5.05112 -2.71173 0
M  V30 13248 H 1259.88 4.88514 -3.48532 0
M  V30 13249 H 1260.95 3.47541 -3.38147 0
M  V30 13250 N 1262.3 0.988223 1.22768 0
M  V30 13251 C 1263.54 0.661461 1.91392 0
M  V30 13252 C 1263.87 -0.805942 1.77016 0
M  V30 13253 O 1263.13 -1.5978 1.12999 0
M  V30 13254 C 1263.43 1.00744 3.42907 0
M  V30 13255 C 1263.09 2.46634 3.77469 0
M  V30 13256 C 1261.75 2.86503 3.86613 0
M  V30 13257 C 1264.11 3.41217 3.9398 0
M  V30 13258 C 1261.43 4.19954 4.09702 0
M  V30 13259 C 1263.79 4.74321 4.18572 0
M  V30 13260 C 1262.45 5.13938 4.25939 0
M  V30 13261 H 1261.72 0.242046 0.700353 0
M  V30 13262 H 1264.37 1.24354 1.45631 0
M  V30 13263 H 1262.67 0.34338 3.90292 0
M  V30 13264 H 1264.37 0.732714 3.94249 0
M  V30 13265 H 1260.96 2.14729 3.70931 0
M  V30 13266 H 1265.14 3.11589 3.86298 0
M  V30 13267 H 1260.4 4.50243 4.13631 0
M  V30 13268 H 1264.57 5.47561 4.30291 0
M  V30 13269 H 1262.2 6.17364 4.43583 0
M  V30 13270 N 1263.78 -1.38018 0.760839 0
M  V30 13271 C 1264.72 -2.32251 0.127425 0
M  V30 13272 C 1265.72 -1.54387 -0.69722 0
M  V30 13273 O 1266.92 -1.69864 -0.595505 0
M  V30 13274 H 1263.3 -0.751666 0.0224141 0
M  V30 13275 H 1265.27 -2.8327 0.93813 0
M  V30 13276 C 1264.02 -3.39606 -0.745849 0
M  V30 13277 H 1263.34 -3.99618 -0.120679 0
M  V30 13278 H 1264.78 -4.07931 -1.15621 0
M  V30 13279 C 1263.24 -2.78778 -1.89167 0
M  V30 13280 O 1263.77 -2.68661 -2.98637 0
M  V30 13281 N 1261.98 -2.36481 -1.68894 0
M  V30 13282 H 1261.52 -2.4491 -0.798551 0
M  V30 13283 H 1261.48 -1.96126 -2.45728 0
M  V30 13284 N 1265.25 -0.510493 -1.49103 0
M  V30 13285 C 1266.53 0.0941122 -1.95373 0
M  V30 13286 C 1266.91 1.53207 -1.45227 0
M  V30 13287 O 1266.26 2.18452 -0.670161 0
M  V30 13288 C 1266.47 -0.00302507 -3.49 0
M  V30 13289 C 1267.82 0.166117 -4.24275 0
M  V30 13290 O 1268.84 0.0717097 -3.56128 0
M  V30 13291 O 1267.7 0.361155 -5.45305 0
M  V30 13292 H 1264.79 0.0900741 -0.82208 0
M  V30 13293 H 1267.34 -0.573707 -1.59708 0
M  V30 13294 H 1266.11 -1.00545 -3.78162 0
M  V30 13295 H 1265.73 0.704518 -3.91308 0
M  V30 13296 N 1266.73 1.55688 -0.24474 0
M  V30 13297 C 1267.66 2.17317 0.696311 0
M  V30 13298 C 1268.64 1.12456 1.17441 0
M  V30 13299 O 1269.83 1.40832 1.25294 0
M  V30 13300 C 1266.95 2.77211 1.94606 0
M  V30 13301 C 1266 3.95107 1.60602 0
M  V30 13302 S 1266.83 5.30765 0.710525 0
M  V30 13303 C 1267.99 5.94111 1.96933 0
M  V30 13304 H 1268.22 2.96799 0.172566 0
M  V30 13305 H 1265.75 1.54372 -0.0292155 0
M  V30 13306 H 1267.71 3.12355 2.66354 0
M  V30 13307 H 1266.37 1.9768 2.44093 0
M  V30 13308 H 1265.57 4.35598 2.53517 0
M  V30 13309 H 1265.17 3.61229 0.968986 0
M  V30 13310 H 1267.46 6.11496 2.91682 0
M  V30 13311 H 1268.4 6.89602 1.60794 0
M  V30 13312 H 1268.81 5.23161 2.12043 0
M  V30 13313 N 1268.21 -0.0283989 1.57574 0
M  V30 13314 C 1269.16 -1.02881 2.06601 0
M  V30 13315 C 1270.13 -1.35879 0.955308 0
M  V30 13316 O 1271.31 -1.46205 1.22592 0
M  V30 13317 C 1268.45 -2.32447 2.55073 0
M  V30 13318 C 1267.56 -2.05602 3.79937 0
M  V30 13319 C 1266.7 -3.29043 4.17018 0
M  V30 13320 C 1265.74 -2.97755 5.34797 0
M  V30 13321 N 1264.88 -4.1365 5.67308 0
M  V30 13322 H 1269.72 -0.603772 2.91819 0
M  V30 13323 H 1267.25 -0.286503 1.44283 0
M  V30 13324 H 1269.21 -3.08152 2.81244 0
M  V30 13325 H 1267.84 -2.72672 1.72771 0
M  V30 13326 H 1266.89 -1.2039 3.60847 0
M  V30 13327 H 1268.2 -1.78522 4.65759 0
M  V30 13328 H 1267.36 -4.13115 4.4432 0
M  V30 13329 H 1266.1 -3.59237 3.29849 0
M  V30 13330 H 1265.1 -2.12085 5.07247 0
M  V30 13331 H 1266.33 -2.68839 6.23621 0
M  V30 13332 H 1264.27 -4.43794 4.83097 0
M  V30 13333 H 1264.19 -3.89996 6.47641 0
M  V30 13334 H 1265.46 -4.98594 5.99186 0
M  V30 13335 N 1269.69 -1.54705 -0.300681 0
M  V30 13336 C 1270.93 -1.74259 -1.03738 0
M  V30 13337 C 1271.27 -0.52703 -1.86912 0
M  V30 13338 O 1270.54 0.475862 -1.88589 0
M  V30 13339 C 1270.82 -3.03175 -1.94311 0
M  V30 13340 C 1270.68 -4.35031 -1.14315 0
M  V30 13341 C 1272 -3.27962 -2.93478 0
M  V30 13342 H 1269.12 -0.634031 -0.37573 0
M  V30 13343 H 1271.76 -1.87421 -0.312012 0
M  V30 13344 H 1269.91 -2.92086 -2.5616 0
M  V30 13345 H 1271.58 -4.5804 -0.547489 0
M  V30 13346 H 1269.82 -4.31503 -0.44587 0
M  V30 13347 H 1270.49 -5.21502 -1.80941 0
M  V30 13348 H 1272.97 -3.38663 -2.41757 0
M  V30 13349 H 1271.85 -4.19481 -3.54016 0
M  V30 13350 H 1272.11 -2.46273 -3.67154 0
M  V30 13351 N 1271.17 0.563888 -1.47167 0
M  V30 13352 C 1272.41 1.32136 -1.53448 0
M  V30 13353 C 1272.74 1.9353 -0.19396 0
M  V30 13354 O 1272 1.78038 0.812456 0
M  V30 13355 C 1272.3 2.45678 -2.59571 0
M  V30 13356 C 1271.96 2.02157 -4.03043 0
M  V30 13357 C 1270.62 1.90003 -4.421 0
M  V30 13358 C 1272.98 1.68846 -4.93093 0
M  V30 13359 C 1270.3 1.42825 -5.6905 0
M  V30 13360 C 1272.66 1.2314 -6.20499 0
M  V30 13361 C 1271.32 1.09578 -6.58444 0
M  V30 13362 H 1270.59 0.483519 -0.561507 0
M  V30 13363 H 1273.24 0.633042 -1.80734 0
M  V30 13364 H 1271.54 3.20037 -2.26017 0
M  V30 13365 H 1273.24 3.03871 -2.61655 0
M  V30 13366 H 1269.83 2.12557 -3.7218 0
M  V30 13367 H 1274.01 1.77111 -4.63622 0
M  V30 13368 H 1269.27 1.30983 -5.97205 0
M  V30 13369 H 1273.44 0.964247 -6.89692 0
M  V30 13370 H 1271.07 0.727975 -7.56706 0
M  V30 13371 N 1272.64 1.35187 0.810078 0
M  V30 13372 C 1274.06 1.25329 1.38381 0
M  V30 13373 C 1274.41 -0.115799 1.95858 0
M  V30 13374 O 1273.53 -1.01663 1.91033 0
M  V30 13375 C 1274.13 2.2693 2.51572 0
M  V30 13376 C 1272.69 2.20824 3.04818 0
M  V30 13377 C 1271.83 2.1283 1.7776 0
M  V30 13378 H 1274.78 1.46366 0.613402 0
M  V30 13379 H 1274.8 1.89375 3.30026 0
M  V30 13380 H 1274.32 3.26563 2.09709 0
M  V30 13381 H 1272.42 1.24589 3.51153 0
M  V30 13382 H 1272.53 3.12637 3.63036 0
M  V30 13383 H 1270.89 1.58752 1.99173 0
M  V30 13384 H 1271.68 3.14318 1.38054 0
M  V30 13385 N 1274.12 -1.03182 1.19127 0
M  V30 13386 C 1275.53 -1.57984 0.994888 0
M  V30 13387 C 1275.88 -1.90898 -0.453019 0
M  V30 13388 O 1275.01 -1.70556 -1.33191 0
M  V30 13389 C 1275.6 -2.8705 1.79966 0
M  V30 13390 C 1274.16 -3.38435 1.64737 0
M  V30 13391 C 1273.31 -2.11912 1.78854 0
M  V30 13392 H 1276.26 -0.857458 1.33542 0
M  V30 13393 H 1276.28 -3.57821 1.294 0
M  V30 13394 H 1275.79 -2.63062 2.85341 0
M  V30 13395 H 1273.9 -3.67416 0.619358 0
M  V30 13396 H 1274.01 -4.11665 2.45089 0
M  V30 13397 H 1272.37 -2.23642 1.21886 0
M  V30 13398 H 1273.16 -1.90369 2.85682 0
M  V30 13399 N 1275.6 -0.99472 -1.22242 0
M  V30 13400 C 1276.85 -0.671602 -1.91039 0
M  V30 13401 C 1277.18 0.796543 -1.77441 0
M  V30 13402 O 1276.43 1.59179 -1.13845 0
M  V30 13403 C 1276.73 -1.02561 -3.42368 0
M  V30 13404 C 1276.4 -2.48632 -3.76155 0
M  V30 13405 C 1275.06 -2.88549 -3.85088 0
M  V30 13406 C 1277.41 -3.43302 -3.92165 0
M  V30 13407 C 1274.74 -4.22121 -4.07469 0
M  V30 13408 C 1277.09 -4.76534 -4.1605 0
M  V30 13409 C 1275.75 -5.1619 -4.23207 0
M  V30 13410 H 1275.02 -0.245756 -0.69906 0
M  V30 13411 H 1277.67 -1.25125 -1.44969 0
M  V30 13412 H 1275.98 -0.364073 -3.90105 0
M  V30 13413 H 1277.67 -0.753612 -3.93855 0
M  V30 13414 H 1274.26 -2.16693 -3.69787 0
M  V30 13415 H 1278.45 -3.13633 -3.8464 0
M  V30 13416 H 1273.7 -4.52431 -4.11238 0
M  V30 13417 H 1277.88 -5.49835 -4.27381 0
M  V30 13418 H 1275.5 -6.19708 -4.40303 0
M  V30 13419 N 1277.08 1.37613 -0.768148 0
M  V30 13420 C 1278.03 2.27654 -0.125596 0
M  V30 13421 C 1279.01 1.45923 0.677883 0
M  V30 13422 O 1280.2 1.68515 0.541448 0
M  V30 13423 C 1277.33 3.34884 0.7555 0
M  V30 13424 C 1276.42 4.24064 -0.0556137 0
M  V30 13425 N 1276.81 4.93707 -1.09943 0
M  V30 13426 C 1275.11 4.4568 0.168932 0
M  V30 13427 C 1275.81 5.59508 -1.59142 0
M  V30 13428 N 1274.79 5.36027 -0.904208 0
M  V30 13429 H 1278.59 2.7897 -0.924828 0
M  V30 13430 H 1276.1 1.50687 -0.605561 0
M  V30 13431 H 1278.1 3.98294 1.23157 0
M  V30 13432 H 1276.76 2.85124 1.55352 0
M  V30 13433 H 1277.77 4.96258 -1.48151 0
M  V30 13434 H 1274.45 4.068 0.939144 0
M  V30 13435 H 1275.84 6.2518 -2.4617 0
M  V30 13436 N 1278.56 0.518393 1.4883 0
M  V30 13437 C 1279.49 -0.239685 2.32267 0
M  V30 13438 C 1280.47 -0.94613 1.41359 0
M  V30 13439 O 1281.65 -0.934162 1.70256 0
M  V30 13440 C 1278.78 -1.29411 3.22289 0
M  V30 13441 C 1277.74 -0.706504 4.22129 0
M  V30 13442 C 1277.06 -1.86273 5.01205 0
M  V30 13443 C 1278.36 0.314079 5.21355 0
M  V30 13444 H 1280.06 0.4568 2.95895 0
M  V30 13445 H 1277.6 0.221126 1.42292 0
M  V30 13446 H 1279.56 -1.8323 3.7948 0
M  V30 13447 H 1278.28 -2.02001 2.56638 0
M  V30 13448 H 1276.94 -0.189924 3.66108 0
M  V30 13449 H 1276.59 -2.57674 4.31988 0
M  V30 13450 H 1276.29 -1.47554 5.68772 0
M  V30 13451 H 1277.81 -2.40492 5.61245 0
M  V30 13452 H 1279.22 -0.136604 5.73137 0
M  V30 13453 H 1277.62 0.618026 5.96909 0
M  V30 13454 H 1278.69 1.22394 4.69199 0
M  V30 13455 N 1280.03 -1.55556 0.252993 0
M  V30 13456 C 1281.28 -1.99385 -0.370599 0
M  V30 13457 C 1281.61 -1.14101 -1.57145 0
M  V30 13458 O 1280.89 -0.205828 -1.93408 0
M  V30 13459 C 1281.17 -3.51672 -0.774503 0
M  V30 13460 C 1281.02 -4.47719 0.432159 0
M  V30 13461 C 1282.34 -4.0923 -1.61923 0
M  V30 13462 H 1279.46 -0.724858 -0.133231 0
M  V30 13463 H 1282.1 -1.86644 0.355522 0
M  V30 13464 H 1280.25 -3.62661 -1.39318 0
M  V30 13465 H 1281.93 -4.48704 1.07063 0
M  V30 13466 H 1280.17 -4.2029 1.07419 0
M  V30 13467 H 1280.84 -5.51898 0.106123 0
M  V30 13468 H 1283.32 -4.01381 -1.09693 0
M  V30 13469 H 1282.19 -5.16039 -1.87068 0
M  V30 13470 H 1282.45 -3.58067 -2.59307 0
M  V30 13471 N 1281.51 0.0200419 -1.57587 0
M  V30 13472 C 1282.46 1.0362 -2.08244 0
M  V30 13473 C 1283.45 1.36872 -0.998119 0
M  V30 13474 O 1284.66 1.35671 -1.18293 0
M  V30 13475 H 1281.04 0.351731 -0.664673 0
M  V30 13476 H 1283.01 0.583226 -2.92645 0
M  V30 13477 C 1281.76 2.32574 -2.58466 0
M  V30 13478 H 1281.08 2.0785 -3.41523 0
M  V30 13479 H 1282.52 3.02 -2.97611 0
M  V30 13480 C 1280.98 3.02167 -1.48986 0
M  V30 13481 O 1281.51 3.92359 -0.861251 0
M  V30 13482 N 1279.71 2.63649 -1.22219 0
M  V30 13483 H 1279.26 1.90389 -1.73521 0
M  V30 13484 H 1279.22 3.10529 -0.491828 0
M  V30 13485 N 1282.99 1.54862 0.292472 0
M  V30 13486 C 1284.22 1.7855 1.04534 0
M  V30 13487 C 1284.63 0.549161 1.80637 0
M  V30 13488 O 1283.99 -0.481268 1.7604 0
M  V30 13489 C 1284.04 2.99849 2.01923 0
M  V30 13490 O 1283.76 4.18706 1.28907 0
M  V30 13491 C 1285.26 3.35991 2.8918 0
M  V30 13492 H 1282.48 0.595279 0.309652 0
M  V30 13493 H 1285.03 2.01834 0.329159 0
M  V30 13494 H 1283.18 2.78749 2.69032 0
M  V30 13495 H 1283.6 4.87151 1.94383 0
M  V30 13496 H 1285.07 4.24085 3.53349 0
M  V30 13497 H 1285.55 2.54524 3.57931 0
M  V30 13498 H 1286.15 3.59281 2.27591 0
M  V30 13499 N 1284.47 -0.556076 1.47464 0
M  V30 13500 C 1285.43 -1.64515 1.59586 0
M  V30 13501 C 1286.43 -1.53751 0.470881 0
M  V30 13502 O 1287.62 -1.57889 0.735979 0
M  V30 13503 C 1284.75 -3.0406 1.54143 0
M  V30 13504 H 1285.95 -1.55116 2.56669 0
M  V30 13505 H 1283.5 -0.776087 1.35671 0
M  V30 13506 H 1284.23 -3.18991 0.584395 0
M  V30 13507 H 1284.02 -3.13282 2.3579 0
M  V30 13508 H 1285.51 -3.8329 1.65766 0
M  V30 13509 N 1285.95 -1.35615 -0.802897 0
M  V30 13510 C 1287.18 -1.32217 -1.59142 0
M  V30 13511 C 1287.59 0.0995496 -1.88537 0
M  V30 13512 O 1286.95 1.05258 -1.49087 0
M  V30 13513 C 1287 -2.13048 -2.92049 0
M  V30 13514 O 1286.72 -3.49677 -2.63927 0
M  V30 13515 C 1288.22 -2.17278 -3.864 0
M  V30 13516 H 1285.44 -0.454054 -0.49404 0
M  V30 13517 H 1287.98 -1.78521 -0.997516 0
M  V30 13518 H 1286.14 -1.70334 -3.47944 0
M  V30 13519 H 1286.55 -3.917 -3.48814 0
M  V30 13520 H 1288.03 -2.7822 -4.76758 0
M  V30 13521 H 1288.5 -1.17253 -4.23259 0
M  V30 13522 H 1289.11 -2.6017 -3.3644 0
M  V30 13523 N 1287.43 1.02549 -1.19673 0
M  V30 13524 C 1288.34 2.14373 -0.952972 0
M  V30 13525 C 1289.35 1.73776 0.0881727 0
M  V30 13526 O 1290.53 2.01165 -0.0972471 0
M  V30 13527 C 1287.59 3.43096 -0.498569 0
M  V30 13528 C 1286.65 3.97987 -1.60951 0
M  V30 13529 C 1285.89 5.20567 -1.17669 0
M  V30 13530 O 1286.11 5.70385 -0.0416636 0
M  V30 13531 O 1285.04 5.6838 -1.98059 0
M  V30 13532 H 1288.87 2.378 -1.88904 0
M  V30 13533 H 1286.45 1.12781 -0.979836 0
M  V30 13534 H 1288.34 4.20634 -0.253968 0
M  V30 13535 H 1287.01 3.21105 0.409018 0
M  V30 13536 H 1285.92 3.21768 -1.90829 0
M  V30 13537 H 1287.25 4.24349 -2.49377 0
M  V30 13538 N 1288.9 1.00119 1.21713 0
M  V30 13539 C 1290.13 0.699416 1.94401 0
M  V30 13540 C 1290.54 -0.741376 1.7407 0
M  V30 13541 O 1289.88 -1.51286 1.04203 0
M  V30 13542 C 1289.95 0.935875 3.47105 0
M  V30 13543 C 1289.61 2.36276 3.91181 0
M  V30 13544 C 1290.61 3.34276 3.9819 0
M  V30 13545 C 1288.29 2.6994 4.23601 0
M  V30 13546 C 1290.29 4.6401 4.37005 0
M  V30 13547 C 1287.97 3.99891 4.62094 0
M  V30 13548 C 1288.97 4.96737 4.68766 0
M  V30 13549 O 1288.66 6.24364 5.06384 0
M  V30 13550 H 1288.39 0.257233 0.625146 0
M  V30 13551 H 1290.95 1.34098 1.55585 0
M  V30 13552 H 1289.18 0.237133 3.85972 0
M  V30 13553 H 1290.86 0.628075 4.01011 0
M  V30 13554 H 1291.63 3.09603 3.73324 0
M  V30 13555 H 1287.51 1.95257 4.17607 0
M  V30 13556 H 1291.05 5.39601 4.42128 0
M  V30 13557 H 1286.95 4.2435 4.86412 0
M  V30 13558 H 1287.72 6.28424 5.24429 0
M  V30 13559 N 1290.38 -1.37203 0.775435 0
M  V30 13560 C 1291.8 -1.52962 0.455488 0
M  V30 13561 C 1292 -1.73284 -1.02834 0
M  V30 13562 O 1291.05 -1.75631 -1.81411 0
M  V30 13563 C 1292.37 -2.72389 1.27377 0
M  V30 13564 C 1293.91 -2.86252 1.26604 0
M  V30 13565 C 1294.39 -4.08666 2.06775 0
M  V30 13566 N 1295.88 -4.15786 2.04148 0
M  V30 13567 C 1296.62 -5.09548 2.6296 0
M  V30 13568 N 1296.11 -6.08845 3.30574 0
M  V30 13569 N 1297.9 -5.02059 2.5277 0
M  V30 13570 H 1290.06 -1.22265 1.73681 0
M  V30 13571 H 1292.32 -0.595638 0.737509 0
M  V30 13572 H 1292.02 -2.63849 2.32544 0
M  V30 13573 H 1291.9 -3.66171 0.905467 0
M  V30 13574 H 1294.29 -2.94261 0.222345 0
M  V30 13575 H 1294.37 -1.93418 1.67401 0
M  V30 13576 H 1294.01 -4.01419 3.11168 0
M  V30 13577 H 1293.94 -5.00621 1.63358 0
M  V30 13578 H 1296.43 -3.44683 1.54926 0
M  V30 13579 H 1296.74 -6.76926 3.72815 0
M  V30 13580 H 1295.09 -6.09113 3.34674 0
M  V30 13581 H 1298.28 -4.23431 1.99559 0
M  V30 13582 H 1298.45 -5.74947 2.98898 0
M  V30 13583 N 1291.86 -0.526279 -1.48553 0
M  V30 13584 C 1293.11 0.0091665 -2.02498 0
M  V30 13585 C 1293.43 1.34632 -1.40373 0
M  V30 13586 O 1292.69 1.88172 -0.537573 0
M  V30 13587 C 1292.99 0.184075 -3.56926 0
M  V30 13588 C 1292.65 -1.07825 -4.37818 0
M  V30 13589 C 1291.32 -1.42422 -4.59641 0
M  V30 13590 C 1293.67 -1.91616 -4.84699 0
M  V30 13591 C 1291 -2.60713 -5.25591 0
M  V30 13592 C 1293.35 -3.09082 -5.51952 0
M  V30 13593 C 1292.01 -3.44029 -5.72014 0
M  V30 13594 H 1291.28 0.00335426 -0.740992 0
M  V30 13595 H 1293.93 -0.691553 -1.78577 0
M  V30 13596 H 1292.23 0.967532 -3.79666 0
M  V30 13597 H 1293.93 0.613226 -3.96283 0
M  V30 13598 H 1290.52 -0.798812 -4.2109 0
M  V30 13599 H 1294.71 -1.66199 -4.67645 0
M  V30 13600 H 1289.96 -2.87996 -5.39322 0
M  V30 13601 H 1294.14 -3.74317 -5.87247 0
M  V30 13602 H 1291.76 -4.35789 -6.2289 0
M  V30 13603 N 1293.34 1.5542 -0.261239 0
M  V30 13604 C 1294.57 2.03687 0.363225 0
M  V30 13605 C 1294.98 1.14007 1.50492 0
M  V30 13606 O 1294.34 0.157349 1.8182 0
M  V30 13607 C 1294.39 3.51184 0.857435 0
M  V30 13608 O 1294.11 4.37449 -0.238776 0
M  V30 13609 C 1295.61 4.15277 1.55113 0
M  V30 13610 H 1292.83 0.665641 0.0846356 0
M  V30 13611 H 1295.37 2.00761 -0.389288 0
M  V30 13612 H 1293.53 3.54599 1.56008 0
M  V30 13613 H 1293.94 5.24316 0.138821 0
M  V30 13614 H 1295.42 5.20129 1.8485 0
M  V30 13615 H 1295.89 3.62619 2.47799 0
M  V30 13616 H 1296.5 4.15826 0.892695 0
M  V30 13617 N 1294.82 -0.0116844 1.57596 0
M  V30 13618 C 1296.04 -0.713924 1.94725 0
M  V30 13619 C 1296.47 -1.67157 0.862565 0
M  V30 13620 O 1295.82 -1.80401 -0.180308 0
M  V30 13621 C 1295.87 -1.43214 3.30941 0
M  V30 13622 O 1294.98 -2.5461 3.24419 0
M  V30 13623 H 1294.32 -0.190772 0.636005 0
M  V30 13624 H 1296.85 0.0380247 2.04565 0
M  V30 13625 H 1296.86 -1.79819 3.66237 0
M  V30 13626 H 1295.53 -0.729906 4.09445 0
M  V30 13627 H 1294.11 -2.20419 3.00782 0
M  V30 13628 N 1296.29 -1.55015 -0.284256 0
M  V30 13629 C 1297.22 -1.90128 -1.3555 0
M  V30 13630 C 1298.2 -0.761914 -1.52082 0
M  V30 13631 O 1299.39 -1.01909 -1.65312 0
M  V30 13632 C 1296.52 -2.16332 -2.71695 0
M  V30 13633 C 1295.47 -3.32166 -2.69907 0
M  V30 13634 C 1294.8 -3.43824 -4.09498 0
M  V30 13635 C 1296.1 -4.6885 -2.30168 0
M  V30 13636 H 1297.79 -2.79852 -1.06411 0
M  V30 13637 H 1295.34 -1.34649 -0.510451 0
M  V30 13638 H 1297.29 -2.39482 -3.46737 0
M  V30 13639 H 1296.02 -1.23395 -3.02392 0
M  V30 13640 H 1294.68 -3.08965 -1.97322 0
M  V30 13641 H 1294.32 -2.48375 -4.374 0
M  V30 13642 H 1294.02 -4.21698 -4.092 0
M  V30 13643 H 1295.55 -3.69254 -4.86296 0
M  V30 13644 H 1296.96 -4.91619 -2.9493 0
M  V30 13645 H 1295.36 -5.49558 -2.41052 0
M  V30 13646 H 1296.43 -4.68433 -1.25294 0
M  V30 13647 N 1297.77 0.548248 -1.47757 0
M  V30 13648 C 1299 1.3302 -1.58472 0
M  V30 13649 C 1299.41 1.87292 -0.238186 0
M  V30 13650 O 1298.77 1.65465 0.76991 0
M  V30 13651 C 1298.82 2.49386 -2.61704 0
M  V30 13652 O 1298.54 1.97355 -3.9113 0
M  V30 13653 C 1300.04 3.41471 -2.82688 0
M  V30 13654 H 1297.26 0.405172 -0.534861 0
M  V30 13655 H 1299.81 0.663251 -1.93446 0
M  V30 13656 H 1297.96 3.12001 -2.29639 0
M  V30 13657 H 1298.38 2.7339 -4.47614 0
M  V30 13658 H 1299.85 4.19516 -3.58762 0
M  V30 13659 H 1300.33 3.95573 -1.90837 0
M  V30 13660 H 1300.93 2.84664 -3.15985 0
M  V30 13661 N 1299.25 1.36039 0.795694 0
M  V30 13662 C 1300.66 1.2679 1.37044 0
M  V30 13663 C 1301.01 -0.0950192 1.9597 0
M  V30 13664 O 1300.14 -0.996311 1.921 0
M  V30 13665 C 1300.73 2.29585 2.49151 0
M  V30 13666 C 1299.29 2.24044 3.02458 0
M  V30 13667 C 1298.44 2.14703 1.75493 0
M  V30 13668 H 1301.39 1.47009 0.597843 0
M  V30 13669 H 1301.41 1.92864 3.27999 0
M  V30 13670 H 1300.92 3.28769 2.06234 0
M  V30 13671 H 1299.02 1.28307 3.49812 0
M  V30 13672 H 1299.14 3.1647 3.597 0
M  V30 13673 H 1297.5 1.60856 1.97478 0
M  V30 13674 H 1298.28 3.15765 1.34713 0
M  V30 13675 N 1300.73 -1.01913 1.20215 0
M  V30 13676 C 1301.98 -1.75124 1.00876 0
M  V30 13677 C 1302.3 -1.89485 -0.460475 0
M  V30 13678 O 1301.57 -1.43552 -1.33302 0
M  V30 13679 H 1300.15 -0.648777 0.370266 0
M  V30 13680 H 1302.81 -1.22883 1.5128 0
M  V30 13681 H 1301.91 -2.7558 1.46499 0
M  V30 13682 N 1302.21 -1.00763 -1.2118 0
M  V30 13683 C 1303.62 -0.720905 -1.42391 0
M  V30 13684 C 1303.82 0.702918 -1.88842 0
M  V30 13685 O 1302.88 1.47191 -2.05161 0
M  V30 13686 C 1304.19 -1.739 -2.45315 0
M  V30 13687 C 1305.74 -1.75611 -2.59094 0
M  V30 13688 C 1306.21 -2.76323 -3.65253 0
M  V30 13689 N 1307.71 -2.75007 -3.72727 0
M  V30 13690 C 1308.44 -3.49594 -4.54502 0
M  V30 13691 N 1307.94 -4.33828 -5.40153 0
M  V30 13692 N 1309.73 -3.38232 -4.4895 0
M  V30 13693 H 1301.88 -1.92697 -0.893404 0
M  V30 13694 H 1304.14 -0.831888 -0.454606 0
M  V30 13695 H 1303.85 -2.75859 -2.18162 0
M  V30 13696 H 1303.72 -1.5438 -3.44161 0
M  V30 13697 H 1306.11 -0.743416 -2.85582 0
M  V30 13698 H 1306.19 -1.99203 -1.60474 0
M  V30 13699 H 1305.84 -3.77751 -3.39509 0
M  V30 13700 H 1305.77 -2.49996 -4.63476 0
M  V30 13701 H 1308.26 -2.13897 -3.11539 0
M  V30 13702 H 1308.57 -4.8753 -5.99612 0
M  V30 13703 H 1306.91 -4.3791 -5.39685 0
M  V30 13704 H 1310.11 -2.71855 -3.81068 0
M  V30 13705 H 1310.28 -3.96615 -5.12445 0
M  V30 13706 N 1303.68 1.3679 -0.7827 0
M  V30 13707 C 1304.62 2.28805 -0.13451 0
M  V30 13708 C 1305.63 1.49159 0.652338 0
M  V30 13709 O 1306.82 1.71682 0.488626 0
M  V30 13710 C 1303.92 3.28508 0.832802 0
M  V30 13711 C 1303.09 4.37291 0.0974435 0
M  V30 13712 C 1302.15 5.16999 0.979715 0
M  V30 13713 O 1301.18 5.67501 0.439439 0
M  V30 13714 N 1302.38 5.32786 2.30477 0
M  V30 13715 H 1305.14 2.85072 -0.924873 0
M  V30 13716 H 1302.7 1.48884 -0.636012 0
M  V30 13717 H 1304.7 3.78718 1.42671 0
M  V30 13718 H 1303.27 2.7293 1.52408 0
M  V30 13719 H 1302.49 3.88335 -0.677483 0
M  V30 13720 H 1303.77 5.07143 -0.410259 0
M  V30 13721 H 1303.17 4.93358 2.76793 0
M  V30 13722 H 1301.73 5.86264 2.84848 0
M  V30 13723 N 1305.16 0.53415 1.48272 0
M  V30 13724 C 1306.39 0.00573642 2.06599 0
M  V30 13725 C 1306.8 -1.28303 1.3905 0
M  V30 13726 O 1306.14 -1.77499 0.473274 0
M  V30 13727 C 1306.21 -0.28451 3.58372 0
M  V30 13728 C 1305.87 0.911397 4.4782 0
M  V30 13729 C 1306.87 1.81091 4.87342 0
M  V30 13730 C 1304.55 1.11957 4.89664 0
M  V30 13731 C 1306.55 2.90246 5.67482 0
M  V30 13732 C 1304.23 2.21426 5.69573 0
M  V30 13733 C 1305.23 3.10403 6.08391 0
M  V30 13734 O 1304.92 4.17977 6.86695 0
M  V30 13735 H 1304.65 0.0322847 0.675229 0
M  V30 13736 H 1307.2 0.740415 1.91591 0
M  V30 13737 H 1305.43 -1.07321 3.71509 0
M  V30 13738 H 1307.12 -0.755508 3.98807 0
M  V30 13739 H 1307.89 1.66204 4.55633 0
M  V30 13740 H 1303.77 0.436266 4.58931 0
M  V30 13741 H 1307.31 3.59724 5.97699 0
M  V30 13742 H 1303.21 2.36295 6.00695 0
M  V30 13743 H 1303.98 4.15738 7.05056 0
M  V30 13744 N 1306.64 -1.55279 0.269478 0
M  V30 13745 C 1307.59 -2.22304 -0.620435 0
M  V30 13746 C 1308.56 -1.19457 -1.15409 0
M  V30 13747 O 1309.74 -1.4798 -1.20443 0
M  V30 13748 C 1306.88 -2.94356 -1.80134 0
M  V30 13749 C 1306 -4.1191 -1.30207 0
M  V30 13750 C 1305.13 -4.71621 -2.44433 0
M  V30 13751 C 1304.17 -5.81379 -1.91481 0
M  V30 13752 N 1303.31 -6.35176 -2.99158 0
M  V30 13753 H 1308.15 -2.9797 -0.0422165 0
M  V30 13754 H 1305.68 -1.47097 -0.00907173 0
M  V30 13755 H 1307.64 -3.34343 -2.4954 0
M  V30 13756 H 1306.27 -2.21124 -2.35168 0
M  V30 13757 H 1305.32 -3.77082 -0.501301 0
M  V30 13758 H 1306.64 -4.9108 -0.874183 0
M  V30 13759 H 1305.79 -5.14298 -3.21842 0
M  V30 13760 H 1304.53 -3.91715 -2.90535 0
M  V30 13761 H 1303.53 -5.38157 -1.12549 0
M  V30 13762 H 1304.76 -6.63149 -1.46322 0
M  V30 13763 H 1302.7 -5.58167 -3.44652 0
M  V30 13764 H 1302.62 -7.09602 -2.60769 0
M  V30 13765 H 1303.89 -6.82512 -3.7656 0
M  V30 13766 N 1308.12 0.00332656 -1.576 0
M  V30 13767 C 1309.37 0.688044 -1.89602 0
M  V30 13768 C 1309.68 1.75121 -0.871316 0
M  V30 13769 O 1310.89 2.49032 -1.08144 0
M  V30 13770 C 1309.34 1.27494 -3.36561 0
M  V30 13771 C 1308.95 0.246771 -4.4732 0
M  V30 13772 C 1310.69 1.93804 -3.77677 0
M  V30 13773 C 1308.6 0.843471 -5.85354 0
M  V30 13774 H 1307.53 0.260747 -0.707479 0
M  V30 13775 H 1310.18 -0.0566727 -1.83412 0
M  V30 13776 H 1308.56 2.07022 -3.37577 0
M  V30 13777 H 1309.74 -0.523668 -4.57815 0
M  V30 13778 H 1308.05 -0.3157 -4.15202 0
M  V30 13779 H 1310.65 2.39347 -4.78139 0
M  V30 13780 H 1310.99 2.7672 -3.11017 0
M  V30 13781 H 1311.53 1.21015 -3.78946 0
M  V30 13782 H 1308.27 0.0531655 -6.55478 0
M  V30 13783 H 1307.79 1.58315 -5.7853 0
M  V30 13784 H 1309.46 1.34311 -6.32906 0
M  V30 13785 N 1309.6 1.55164 0.276031 0
M  V30 13786 C 1310.53 1.90844 1.34539 0
M  V30 13787 C 1311.51 0.769968 1.51676 0
M  V30 13788 O 1312.69 1.02785 1.64769 0
M  V30 13789 C 1309.82 2.17769 2.70543 0
M  V30 13790 C 1308.78 3.33592 2.68142 0
M  V30 13791 C 1308.1 3.45991 4.07669 0
M  V30 13792 C 1309.4 4.70064 2.27678 0
M  V30 13793 H 1311.1 2.80412 1.04926 0
M  V30 13794 H 1308.64 1.34918 0.503303 0
M  V30 13795 H 1310.6 2.41317 3.45462 0
M  V30 13796 H 1309.32 1.24997 3.01734 0
M  V30 13797 H 1307.98 3.10007 1.95681 0
M  V30 13798 H 1307.63 2.50691 4.36077 0
M  V30 13799 H 1307.33 4.23862 4.06958 0
M  V30 13800 H 1308.85 3.71828 4.84331 0
M  V30 13801 H 1310.26 4.93176 2.92319 0
M  V30 13802 H 1308.66 5.50829 2.38134 0
M  V30 13803 H 1309.73 4.69091 1.22808 0
M  V30 13804 N 1311.07 -0.540404 1.48045 0
M  V30 13805 C 1312.32 -1.2987 1.55762 0
M  V30 13806 C 1312.65 -1.92877 0.226307 0
M  V30 13807 O 1311.93 -1.7875 -0.766727 0
M  V30 13808 C 1312.21 -2.39602 2.68817 0
M  V30 13809 C 1312.06 -1.81354 4.1162 0
M  V30 13810 C 1313.38 -3.41434 2.77688 0
M  V30 13811 H 1310.5 -0.47083 0.566999 0
M  V30 13812 H 1313.14 -0.603081 1.80175 0
M  V30 13813 H 1311.29 -2.98936 2.48132 0
M  V30 13814 H 1312.97 -1.26151 4.43716 0
M  V30 13815 H 1311.21 -1.1194 4.19108 0
M  V30 13816 H 1311.88 -2.60758 4.86528 0
M  V30 13817 H 1314.36 -2.92042 2.96396 0
M  V30 13818 H 1313.23 -4.15621 3.5854 0
M  V30 13819 H 1313.49 -4.01336 1.85422 0
M  V30 13820 N 1312.55 -1.36459 -0.788468 0
M  V30 13821 C 1313.48 -1.33545 -1.91541 0
M  V30 13822 C 1314.46 -0.206762 -1.68839 0
M  V30 13823 O 1315.65 -0.404553 -1.89939 0
M  V30 13824 C 1312.78 -1.12492 -3.28577 0
M  V30 13825 C 1311.73 -2.22196 -3.65805 0
M  V30 13826 C 1311.06 -1.86285 -5.01201 0
M  V30 13827 C 1312.36 -3.64286 -3.7429 0
M  V30 13828 H 1314.05 -2.27844 -1.94236 0
M  V30 13829 H 1311.6 -1.09677 -0.933105 0
M  V30 13830 H 1313.55 -1.09089 -4.07035 0
M  V30 13831 H 1312.28 -0.146446 -3.26272 0
M  V30 13832 H 1310.93 -2.24727 -2.89644 0
M  V30 13833 H 1310.58 -0.87009 -4.95417 0
M  V30 13834 H 1310.28 -2.59734 -5.27079 0
M  V30 13835 H 1311.81 -1.84439 -5.82078 0
M  V30 13836 H 1313.22 -3.63977 -4.42937 0
M  V30 13837 H 1311.62 -4.36648 -4.11653 0
M  V30 13838 H 1312.69 -3.99123 -2.75371 0
M  V30 13839 N 1314.03 1.01274 -1.20754 0
M  V30 13840 C 1315.26 1.78524 -1.04579 0
M  V30 13841 C 1315.67 1.84409 0.404809 0
M  V30 13842 O 1315.03 1.29987 1.281 0
M  V30 13843 C 1315.08 3.22806 -1.62722 0
M  V30 13844 O 1314.8 3.17276 -3.02106 0
M  V30 13845 C 1316.3 4.16589 -1.51553 0
M  V30 13846 H 1313.52 0.561299 -0.367674 0
M  V30 13847 H 1316.07 1.27454 -1.59924 0
M  V30 13848 H 1314.22 3.71011 -1.11487 0
M  V30 13849 H 1314.64 4.07866 -3.29766 0
M  V30 13850 H 1316.11 5.15654 -1.9699 0
M  V30 13851 H 1316.59 4.36692 -0.468659 0
M  V30 13852 H 1317.19 3.74269 -2.01998 0
M  V30 13853 N 1315.51 1.01404 1.20644 0
M  V30 13854 C 1316.76 0.697244 1.89265 0
M  V30 13855 C 1317.07 -0.776149 1.79542 0
M  V30 13856 O 1318.28 -1.2054 2.43274 0
M  V30 13857 C 1316.73 1.19672 3.39421 0
M  V30 13858 C 1316.34 2.69683 3.57736 0
M  V30 13859 C 1318.09 0.955225 4.13613 0
M  V30 13860 C 1315.99 3.13124 5.01704 0
M  V30 13861 H 1314.92 0.257105 0.708811 0
M  V30 13862 H 1317.57 1.22639 1.36499 0
M  V30 13863 H 1315.96 0.595562 3.91496 0
M  V30 13864 H 1317.13 3.35326 3.16059 0
M  V30 13865 H 1315.44 2.91946 2.96911 0
M  V30 13866 H 1318.04 1.25524 5.19757 0
M  V30 13867 H 1318.38 -0.108362 4.16159 0
M  V30 13868 H 1318.92 1.51962 3.67631 0
M  V30 13869 H 1315.66 4.18748 5.04311 0
M  V30 13870 H 1315.18 2.522 5.44201 0
M  V30 13871 H 1316.86 3.05617 5.70269 0
M  V30 13872 N 1316.99 -1.36373 0.789944 0
M  V30 13873 C 1318.21 -2.04011 0.373396 0
M  V30 13874 C 1318.64 -1.59171 -1.00231 0
M  V30 13875 O 1318 -0.760431 -1.64582 0
M  V30 13876 C 1318.04 -3.5783 0.446083 0
M  V30 13877 O 1317.15 -4.08759 -0.54678 0
M  V30 13878 H 1316.49 -0.644807 0.158495 0
M  V30 13879 H 1319.02 -1.74317 1.0712 0
M  V30 13880 H 1319.03 -4.06822 0.309877 0
M  V30 13881 H 1317.7 -3.89819 1.44962 0
M  V30 13882 H 1316.28 -3.71038 -0.372192 0
M  V30 13883 N 1318.47 -0.542005 -1.47987 0
M  V30 13884 C 1319.71 -0.0122873 -2.02096 0
M  V30 13885 C 1320.03 1.3362 -1.42024 0
M  V30 13886 O 1319.3 1.86807 -0.589911 0
M  V30 13887 H 1317.88 -0.00155365 -0.746998 0
M  V30 13888 H 1320.55 -0.708566 -1.81564 0
M  V30 13889 H 1319.64 0.0871275 -3.11978 0
M  V30 13890 N 1319.94 1.55134 -0.277709 0
M  V30 13891 C 1321.22 1.91667 0.390253 0
M  V30 13892 C 1321.6 1.20228 1.73518 0
M  V30 13893 O 1320.95 0.330013 2.26104 0
M  V30 13894 C 1321.16 3.44983 0.52797 0
M  V30 13895 C 1322.51 4.16809 0.809665 0
M  V30 13896 O 1323.53 3.50891 0.612679 0
M  V30 13897 O 1322.39 5.33463 1.18656 0
M  V30 13898 H 1319.48 0.798807 0.214095 0
M  V30 13899 H 1322.03 1.66577 -0.324053 0
M  V30 13900 H 1320.8 3.89056 -0.418422 0
M  V30 13901 H 1320.42 3.76035 1.29164 0
M  V30 13902 N 1321.42 0.00503138 1.57599 0
M  V30 13903 C 1322.67 -0.679766 1.91068 0
M  V30 13904 C 1323 -1.73144 0.879486 0
M  V30 13905 O 1322.28 -1.94237 -0.101116 0
M  V30 13906 C 1322.56 -1.3183 3.35101 0
M  V30 13907 C 1322.41 -0.277833 4.48941 0
M  V30 13908 C 1323.73 -2.24308 3.78647 0
M  V30 13909 H 1320.85 -0.245646 0.694857 0
M  V30 13910 H 1323.49 0.057357 1.89913 0
M  V30 13911 H 1321.64 -1.94657 3.36216 0
M  V30 13912 H 1323.31 0.351136 4.59962 0
M  V30 13913 H 1321.56 0.399365 4.31958 0
M  V30 13914 H 1322.23 -0.763759 5.46691 0
M  V30 13915 H 1324.7 -1.71494 3.79116 0
M  V30 13916 H 1323.58 -2.6595 4.80169 0
M  V30 13917 H 1323.84 -3.12427 3.12797 0
M  V30 13918 N 1322.9 -1.55308 -0.267798 0
M  V30 13919 C 1323.83 -1.84963 -1.35356 0
M  V30 13920 C 1324.84 -0.73446 -1.45291 0
M  V30 13921 O 1326.03 -1.01237 -1.47015 0
M  V30 13922 C 1323.13 -2.00221 -2.73432 0
M  V30 13923 C 1322.31 -3.30922 -2.86024 0
M  V30 13924 C 1321.37 -3.3618 -4.04808 0
M  V30 13925 O 1320.39 -4.09525 -3.9532 0
M  V30 13926 N 1321.59 -2.63958 -5.17017 0
M  V30 13927 H 1324.36 -2.7868 -1.1026 0
M  V30 13928 H 1321.92 -1.55289 -0.457914 0
M  V30 13929 H 1323.91 -2.01103 -3.51197 0
M  V30 13930 H 1322.48 -1.13346 -2.91327 0
M  V30 13931 H 1321.7 -3.42534 -1.951 0
M  V30 13932 H 1322.99 -4.17109 -2.91371 0
M  V30 13933 H 1322.39 -2.04062 -5.27613 0
M  V30 13934 H 1320.94 -2.70558 -5.92994 0
M  V30 13935 N 1324.38 0.532545 -1.4833 0
M  V30 13936 C 1325.31 1.65325 -1.58746 0
M  V30 13937 C 1326.32 1.5581 -0.471925 0
M  V30 13938 O 1327.51 1.62317 -0.742656 0
M  V30 13939 C 1324.61 3.03957 -1.49877 0
M  V30 13940 C 1323.78 3.38979 -2.76427 0
M  V30 13941 C 1322.84 4.56881 -2.61048 0
M  V30 13942 O 1321.87 4.6023 -3.34928 0
M  V30 13943 N 1323.07 5.54898 -1.70496 0
M  V30 13944 H 1325.84 1.56827 -2.55393 0
M  V30 13945 H 1323.4 0.71976 -1.45021 0
M  V30 13946 H 1325.39 3.80702 -1.37288 0
M  V30 13947 H 1323.96 3.06548 -0.612158 0
M  V30 13948 H 1323.18 2.51438 -3.03599 0
M  V30 13949 H 1324.47 3.59163 -3.60388 0
M  V30 13950 H 1323.87 5.54968 -1.0967 0
M  V30 13951 H 1322.42 6.3087 -1.63847 0
M  V30 13952 N 1325.86 1.36875 0.78122 0
M  V30 13953 C 1327.08 1.349 1.57533 0
M  V30 13954 C 1327.51 -0.0655249 1.87986 0
M  V30 13955 O 1326.86 -1.03986 1.48515 0
M  V30 13956 C 1326.91 2.18562 2.86815 0
M  V30 13957 O 1326.02 1.58374 3.80777 0
M  V30 13958 H 1325.36 0.461355 0.477543 0
M  V30 13959 H 1327.89 1.80271 0.96766 0
M  V30 13960 H 1327.9 2.31436 3.36008 0
M  V30 13961 H 1326.57 3.21385 2.63978 0
M  V30 13962 H 1325.15 1.54487 3.39394 0
M  V30 13963 N 1327.33 -1.00632 1.21289 0
M  V30 13964 C 1328.3 -2.07543 0.972548 0
M  V30 13965 C 1329.3 -1.60703 -0.0559244 0
M  V30 13966 O 1330.49 -1.73255 0.181213 0
M  V30 13967 C 1327.62 -3.37696 0.466297 0
M  V30 13968 H 1328.81 -2.30298 1.92101 0
M  V30 13969 H 1326.36 -1.17588 1.02969 0
M  V30 13970 H 1327.1 -3.2062 -0.487148 0
M  V30 13971 H 1326.88 -3.73024 1.20813 0
M  V30 13972 H 1328.37 -4.16388 0.317962 0
M  V30 13973 N 1328.81 -1.02043 -1.20104 0
M  V30 13974 C 1330.06 -0.711973 -1.89571 0
M  V30 13975 C 1330.39 0.758725 -1.79091 0
M  V30 13976 O 1329.64 1.56728 -1.17195 0
M  V30 13977 C 1329.94 -1.098 -3.40116 0
M  V30 13978 C 1329.61 -2.56555 -3.70797 0
M  V30 13979 C 1328.27 -2.96653 -3.78881 0
M  V30 13980 C 1330.62 -3.51543 -3.84795 0
M  V30 13981 C 1327.95 -4.30669 -3.98424 0
M  V30 13982 C 1330.3 -4.85252 -4.05849 0
M  V30 13983 C 1328.96 -5.2505 -4.12163 0
M  V30 13984 H 1328.23 -0.260529 -0.69369 0
M  V30 13985 H 1330.88 -1.28172 -1.42282 0
M  V30 13986 H 1329.19 -0.446738 -3.89245 0
M  V30 13987 H 1330.88 -0.836985 -3.92168 0
M  V30 13988 H 1327.47 -2.24488 -3.65107 0
M  V30 13989 H 1331.66 -3.21721 -3.77901 0
M  V30 13990 H 1326.91 -4.61052 -4.01548 0
M  V30 13991 H 1331.09 -5.58777 -4.15622 0
M  V30 13992 H 1328.71 -6.28908 -4.27059 0
M  V30 13993 N 1330.29 1.35952 -0.797165 0
M  V30 13994 C 1331.54 1.98283 -0.369685 0
M  V30 13995 C 1331.85 1.63968 1.06649 0
M  V30 13996 O 1333.06 2.19591 1.59662 0
M  V30 13997 C 1331.51 3.54692 -0.610046 0
M  V30 13998 C 1331.12 3.97925 -2.05814 0
M  V30 13999 C 1332.87 4.23778 -0.247457 0
M  V30 14000 C 1330.77 5.47142 -2.24475 0
M  V30 14001 H 1329.7 0.741909 -0.134489 0
M  V30 14002 H 1332.35 1.55146 -0.979893 0
M  V30 14003 H 1330.74 3.95938 0.0699822 0
M  V30 14004 H 1331.91 3.67857 -2.77521 0
M  V30 14005 H 1330.23 3.417 -2.37971 0
M  V30 14006 H 1332.82 5.33452 -0.365059 0
M  V30 14007 H 1333.17 4.08436 0.805315 0
M  V30 14008 H 1333.7 3.87921 -0.881028 0
M  V30 14009 H 1330.44 5.67441 -3.28163 0
M  V30 14010 H 1329.96 5.78811 -1.57282 0
M  V30 14011 H 1331.64 6.13475 -2.05567 0
M  V30 14012 N 1331.77 0.549846 1.47697 0
M  V30 14013 C 1332.68 -0.205286 2.337 0
M  V30 14014 C 1333.69 -0.919271 1.47734 0
M  V30 14015 O 1334.87 -0.889808 1.80678 0
M  V30 14016 C 1331.94 -1.22658 3.24278 0
M  V30 14017 C 1331 -0.520815 4.26129 0
M  V30 14018 C 1330.23 -1.49345 5.12378 0
M  V30 14019 O 1330.45 -2.72772 5.00951 0
M  V30 14020 O 1329.39 -1.02197 5.93161 0
M  V30 14021 H 1333.21 0.499982 2.99556 0
M  V30 14022 H 1330.8 0.310538 1.46137 0
M  V30 14023 H 1332.68 -1.8163 3.80248 0
M  V30 14024 H 1331.35 -1.9139 2.61059 0
M  V30 14025 H 1330.26 0.109906 3.73939 0
M  V30 14026 H 1331.59 0.124922 4.92041 0
M  V30 14027 N 1333.25 -1.54984 0.285932 0
M  V30 14028 C 1334.49 -1.99436 -0.32709 0
M  V30 14029 C 1334.82 -1.17582 -1.55562 0
M  V30 14030 O 1334.09 -0.268002 -1.94058 0
M  V30 14031 H 1332.67 -0.736662 -0.123846 0
M  V30 14032 H 1335.33 -1.90881 0.393774 0
M  V30 14033 H 1334.42 -3.0609 -0.609523 0
M  V30 14034 N 1334.72 -0.0133892 -1.57594 0
M  V30 14035 C 1335.97 0.668634 -1.91143 0
M  V30 14036 C 1336.3 1.7303 -0.888299 0
M  V30 14037 O 1335.55 1.95418 0.105056 0
M  V30 14038 C 1335.85 1.33729 -3.31438 0
M  V30 14039 C 1335.52 0.407527 -4.49055 0
M  V30 14040 C 1334.18 0.151573 -4.80961 0
M  V30 14041 C 1336.53 -0.231835 -5.20684 0
M  V30 14042 C 1333.86 -0.751812 -5.81863 0
M  V30 14043 C 1336.21 -1.12318 -6.22549 0
M  V30 14044 C 1334.88 -1.38818 -6.52906 0
M  V30 14045 H 1334.15 0.24467 -0.699441 0
M  V30 14046 H 1336.79 -0.0717876 -1.91365 0
M  V30 14047 H 1335.1 2.15209 -3.27403 0
M  V30 14048 H 1336.8 1.87128 -3.5466 0
M  V30 14049 H 1333.39 0.617192 -4.24133 0
M  V30 14050 H 1337.57 -0.0471268 -4.96278 0
M  V30 14051 H 1332.83 -0.964991 -6.03737 0
M  V30 14052 H 1337 -1.62488 -6.77179 0
M  V30 14053 H 1334.63 -2.08986 -7.3091 0
M  V30 14054 N 1336.2 1.55448 0.259558 0
M  V30 14055 C 1337.43 1.80727 1.00723 0
M  V30 14056 C 1337.85 0.587354 1.79431 0
M  V30 14057 O 1337.2 -0.443819 1.77021 0
M  V30 14058 C 1337.25 3.04064 1.95517 0
M  V30 14059 O 1336.97 4.21346 1.19996 0
M  V30 14060 C 1338.48 3.42049 2.81988 0
M  V30 14061 H 1335.7 0.601713 0.296956 0
M  V30 14062 H 1338.24 2.02486 0.286273 0
M  V30 14063 H 1336.39 2.84392 2.63058 0
M  V30 14064 H 1336.81 4.91164 1.84006 0
M  V30 14065 H 1338.28 4.31485 3.44274 0
M  V30 14066 H 1338.76 2.62059 3.52451 0
M  V30 14067 H 1339.37 3.64027 2.19918 0
M  V30 14068 N 1337.68 -0.524672 1.4861 0
M  V30 14069 C 1338.93 -1.28211 1.5713 0
M  V30 14070 C 1339.26 -1.92626 0.246751 0
M  V30 14071 O 1338.53 -1.79553 -0.747725 0
M  V30 14072 C 1338.82 -2.36737 2.71344 0
M  V30 14073 C 1338.67 -1.76978 4.1352 0
M  V30 14074 C 1339.99 -3.3847 2.81294 0
M  V30 14075 H 1337.11 -0.46479 0.571961 0
M  V30 14076 H 1339.75 -0.583937 1.80804 0
M  V30 14077 H 1337.9 -2.96287 2.51289 0
M  V30 14078 H 1339.57 -1.21438 4.45029 0
M  V30 14079 H 1337.82 -1.07488 4.20272 0
M  V30 14080 H 1338.49 -2.55583 4.89266 0
M  V30 14081 H 1340.96 -2.88882 2.99477 0
M  V30 14082 H 1339.84 -4.11795 3.62928 0
M  V30 14083 H 1340.1 -3.99347 1.89669 0
M  V30 14084 N 1339.16 -1.37287 -0.77395 0
M  V30 14085 C 1340.57 -1.28954 -1.3501 0
M  V30 14086 C 1340.92 0.0638301 -1.96096 0
M  V30 14087 O 1340.05 0.965624 -1.93661 0
M  V30 14088 C 1340.64 -2.3352 -2.45467 0
M  V30 14089 C 1339.2 -2.28828 -2.98856 0
M  V30 14090 C 1338.35 -2.17468 -1.72055 0
M  V30 14091 H 1341.3 -1.47941 -0.57438 0
M  V30 14092 H 1341.32 -1.98058 -3.24889 0
M  V30 14093 H 1340.83 -3.32009 -2.00977 0
M  V30 14094 H 1338.93 -1.33855 -3.47726 0
M  V30 14095 H 1339.04 -3.22152 -3.54619 0
M  V30 14096 H 1337.41 -1.63977 -1.94894 0
M  V30 14097 H 1338.19 -3.17868 -1.29672 0
M  V30 14098 N 1340.64 0.999871 -1.21821 0
M  V30 14099 C 1341.86 1.7794 -1.06546 0
M  V30 14100 C 1342.29 1.84219 0.380115 0
M  V30 14101 O 1341.64 1.28955 1.27438 0
M  V30 14102 C 1341.69 3.1943 -1.67322 0
M  V30 14103 O 1340.8 4.01957 -0.922171 0
M  V30 14104 H 1340.14 0.548204 -0.374658 0
M  V30 14105 H 1342.67 1.2565 -1.61472 0
M  V30 14106 H 1342.68 3.70086 -1.71757 0
M  V30 14107 H 1341.35 3.14175 -2.7252 0
M  V30 14108 H 1339.93 3.60509 -0.95331 0
M  V30 14109 N 1342.11 1.02678 1.19562 0
M  V30 14110 C 1343.08 0.610407 2.20922 0
M  V30 14111 C 1344.08 -0.324858 1.57484 0
M  V30 14112 O 1345.27 -0.112153 1.73839 0
M  V30 14113 C 1342.4 -0.107115 3.40732 0
M  V30 14114 H 1343.59 1.50722 2.59274 0
M  V30 14115 H 1341.15 0.817725 1.33203 0
M  V30 14116 H 1341.88 -1.01837 3.07896 0
M  V30 14117 H 1341.67 0.564901 3.88009 0
M  V30 14118 H 1343.16 -0.385423 4.15818 0
M  V30 14119 N 1343.59 -1.35528 0.804364 0
M  V30 14120 C 1344.84 -1.99126 0.384261 0
M  V30 14121 C 1345.17 -1.63668 -1.0453 0
M  V30 14122 O 1344.45 -0.898896 -1.72482 0
M  V30 14123 C 1344.73 -3.55636 0.565278 0
M  V30 14124 C 1344.58 -4.00899 2.03961 0
M  V30 14125 C 1345.9 -4.40099 -0.0104301 0
M  V30 14126 H 1343.02 -0.723369 0.141092 0
M  V30 14127 H 1345.66 -1.60712 1.01348 0
M  V30 14128 H 1343.81 -3.88489 0.0296425 0
M  V30 14129 H 1345.48 -3.78465 2.63746 0
M  V30 14130 H 1343.73 -3.5189 2.53685 0
M  V30 14131 H 1344.4 -5.09785 2.11716 0
M  V30 14132 H 1346.87 -4.13692 0.446985 0
M  V30 14133 H 1345.75 -5.48705 0.146155 0
M  V30 14134 H 1346.01 -4.28096 -1.10392 0
M  V30 14135 N 1345.07 -0.557671 -1.47404 0
M  V30 14136 C 1346.02 0.189765 -2.30019 0
M  V30 14137 C 1346.99 0.907923 -1.3909 0
M  V30 14138 O 1348.17 0.903528 -1.68051 0
M  V30 14139 C 1345.31 1.21348 -3.23061 0
M  V30 14140 C 1344.43 0.501343 -4.29081 0
M  V30 14141 C 1343.56 1.51039 -5.09275 0
M  V30 14142 C 1342.6 0.783254 -6.07068 0
M  V30 14143 N 1341.74 1.73916 -6.80219 0
M  V30 14144 H 1346.58 -0.520856 -2.93413 0
M  V30 14145 H 1344.11 -0.268686 -1.44625 0
M  V30 14146 H 1346.07 1.81961 -3.75428 0
M  V30 14147 H 1344.7 1.89213 -2.61531 0
M  V30 14148 H 1343.75 -0.219317 -3.79767 0
M  V30 14149 H 1345.07 -0.0682656 -4.98753 0
M  V30 14150 H 1344.22 2.19004 -5.65793 0
M  V30 14151 H 1342.96 2.11392 -4.39505 0
M  V30 14152 H 1341.96 0.0896883 -5.49727 0
M  V30 14153 H 1343.19 0.185464 -6.78847 0
M  V30 14154 H 1341.14 2.33125 -6.13179 0
M  V30 14155 H 1341.05 1.22171 -7.46063 0
M  V30 14156 H 1342.32 2.40993 -7.41311 0
M  V30 14157 N 1346.55 1.54831 -0.294147 0
M  V30 14158 C 1347.5 2.24707 0.600795 0
M  V30 14159 C 1348.49 1.25067 1.14257 0
M  V30 14160 O 1349.7 1.42939 1.094 0
M  V30 14161 H 1346.07 0.721399 0.212338 0
M  V30 14162 H 1348.04 2.98398 -0.0111682 0
M  V30 14163 C 1346.79 2.996 1.76451 0
M  V30 14164 H 1346.12 3.76072 1.35684 0
M  V30 14165 H 1347.56 3.51785 2.36692 0
M  V30 14166 C 1346.01 2.0617 2.6645 0
M  V30 14167 O 1346.54 1.62527 3.67353 0
M  V30 14168 N 1344.75 1.7227 2.34033 0
M  V30 14169 H 1344.3 2.07957 1.52025 0
M  V30 14170 H 1344.26 1.10031 2.94518 0
M  V30 14171 N 1348.03 0.0217466 1.57585 0
M  V30 14172 C 1349.28 -0.657793 1.90672 0
M  V30 14173 C 1349.59 -1.73713 0.899066 0
M  V30 14174 O 1350.8 -2.4728 1.12092 0
M  V30 14175 C 1349.25 -1.22124 3.38547 0
M  V30 14176 C 1348.86 -0.175575 4.47656 0
M  V30 14177 C 1350.6 -1.87771 3.80713 0
M  V30 14178 C 1348.51 -0.750239 5.86622 0
M  V30 14179 H 1347.44 -0.249459 0.711538 0
M  V30 14180 H 1350.09 0.0858449 1.83299 0
M  V30 14181 H 1348.47 -2.01625 3.40828 0
M  V30 14182 H 1349.65 0.596436 4.56924 0
M  V30 14183 H 1347.96 0.381715 4.14647 0
M  V30 14184 H 1350.56 -2.3171 4.81887 0
M  V30 14185 H 1350.9 -2.71737 3.1538 0
M  V30 14186 H 1351.44 -1.14971 3.80823 0
M  V30 14187 H 1348.17 0.0511222 6.5548 0
M  V30 14188 H 1347.69 -1.49091 5.80975 0
M  V30 14189 H 1349.37 -1.24225 6.34962 0
M  V30 14190 N 1349.51 -1.55583 -0.251311 0
M  V30 14191 C 1350.46 -1.86337 -1.31387 0
M  V30 14192 C 1351.44 -0.723887 -1.43697 0
M  V30 14193 O 1352.63 -0.985717 -1.47012 0
M  V30 14194 C 1349.76 -2.15772 -2.67016 0
M  V30 14195 C 1348.85 -3.36036 -2.58729 0
M  V30 14196 N 1349.24 -4.55414 -2.20071 0
M  V30 14197 C 1347.54 -3.39058 -2.89751 0
M  V30 14198 C 1348.24 -5.37544 -2.22309 0
M  V30 14199 N 1347.21 -4.76494 -2.61638 0
M  V30 14200 H 1351.01 -2.76168 -1.00541 0
M  V30 14201 H 1348.53 -1.55751 -0.459941 0
M  V30 14202 H 1350.53 -2.35967 -3.43693 0
M  V30 14203 H 1349.19 -1.27237 -2.98732 0
M  V30 14204 H 1350.2 -4.8112 -1.91688 0
M  V30 14205 H 1346.87 -2.60781 -3.26036 0
M  V30 14206 H 1348.26 -6.43042 -1.94798 0
M  V30 14207 N 1350.98 0.516783 -1.48886 0
M  V30 14208 C 1352.23 1.26841 -1.56825 0
M  V30 14209 C 1352.55 1.93957 -0.252998 0
M  V30 14210 O 1353.75 2.70681 -0.210765 0
M  V30 14211 C 1352.21 2.30223 -2.76633 0
M  V30 14212 C 1351.82 1.69117 -4.14853 0
M  V30 14213 C 1353.56 3.06313 -2.93893 0
M  V30 14214 C 1351.47 2.70516 -5.25904 0
M  V30 14215 H 1350.4 0.477087 -0.58387 0
M  V30 14216 H 1353.05 0.544187 -1.75245 0
M  V30 14217 H 1351.43 3.05739 -2.51674 0
M  V30 14218 H 1352.6 0.997003 -4.49885 0
M  V30 14219 H 1350.92 1.05473 -4.0282 0
M  V30 14220 H 1353.52 3.8211 -3.74027 0
M  V30 14221 H 1353.86 3.62976 -2.03848 0
M  V30 14222 H 1354.39 2.37911 -3.18815 0
M  V30 14223 H 1351.13 2.18655 -6.17956 0
M  V30 14224 H 1350.65 3.38221 -4.95345 0
M  V30 14225 H 1352.33 3.3325 -5.54575 0
M  V30 14226 N 1352.46 1.37696 0.766659 0
M  V30 14227 C 1353.69 1.36564 1.56093 0
M  V30 14228 C 1354.11 -0.0455828 1.88045 0
M  V30 14229 O 1353.47 -1.02405 1.49609 0
M  V30 14230 C 1353.52 2.21592 2.84481 0
M  V30 14231 O 1352.62 1.62404 3.79076 0
M  V30 14232 H 1351.96 0.466394 0.472623 0
M  V30 14233 H 1354.49 1.81287 0.948486 0
M  V30 14234 H 1354.5 2.34987 3.33534 0
M  V30 14235 H 1353.18 3.24167 2.60554 0
M  V30 14236 H 1351.75 1.58078 3.37736 0
M  V30 14237 N 1353.94 -0.993397 1.22349 0
M  V30 14238 C 1355.35 -1.54739 1.04465 0
M  V30 14239 C 1355.7 -1.92243 -0.392057 0
M  V30 14240 O 1354.83 -1.74707 -1.27697 0
M  V30 14241 C 1355.42 -2.81179 1.89007 0
M  V30 14242 C 1353.98 -3.33023 1.75421 0
M  V30 14243 C 1353.13 -2.06114 1.85505 0
M  V30 14244 H 1356.08 -0.814539 1.36202 0
M  V30 14245 H 1356.1 -3.53523 1.40718 0
M  V30 14246 H 1355.61 -2.53851 2.93566 0
M  V30 14247 H 1353.71 -3.6526 0.735935 0
M  V30 14248 H 1353.83 -4.03659 2.58062 0
M  V30 14249 H 1352.19 -2.19651 1.2894 0
M  V30 14250 H 1352.97 -1.81184 2.91594 0
M  V30 14251 N 1355.42 -1.03311 -1.19015 0
M  V30 14252 C 1356.37 -0.611169 -2.24427 0
M  V30 14253 C 1357.36 0.358303 -1.65567 0
M  V30 14254 O 1358.57 0.22642 -1.7857 0
M  V30 14255 H 1354.94 -0.179393 -0.730289 0
M  V30 14256 H 1356.91 -1.51077 -2.57329 0
M  V30 14257 C 1355.66 0.0178126 -3.47695 0
M  V30 14258 H 1354.98 -0.71921 -3.93278 0
M  V30 14259 H 1356.42 0.275926 -4.23101 0
M  V30 14260 C 1354.88 1.26564 -3.12223 0
M  V30 14261 O 1355.41 2.35725 -3.25264 0
M  V30 14262 N 1353.62 1.15602 -2.66617 0
M  V30 14263 H 1353.17 0.267736 -2.56205 0
M  V30 14264 H 1353.12 1.99186 -2.43254 0
M  V30 14265 N 1356.9 1.35099 -0.81154 0
M  V30 14266 C 1358.14 1.98233 -0.393453 0
M  V30 14267 C 1358.46 1.64688 1.04417 0
M  V30 14268 O 1357.73 0.931845 1.72318 0
M  V30 14269 H 1356.31 0.733283 -0.142496 0
M  V30 14270 H 1358.98 1.6493 -1.03847 0
M  V30 14271 H 1358.07 3.08017 -0.503188 0
M  V30 14272 N 1358.37 0.56548 1.47106 0
M  V30 14273 C 1359.34 -0.167191 2.28589 0
M  V30 14274 C 1360.34 -0.835005 1.3742 0
M  V30 14275 O 1361.53 -0.689598 1.59969 0
M  V30 14276 C 1358.66 -1.24548 3.17333 0
M  V30 14277 H 1359.85 0.548677 2.94838 0
M  V30 14278 H 1357.4 0.322749 1.52931 0
M  V30 14279 H 1358.14 -1.99348 2.55794 0
M  V30 14280 H 1357.92 -0.771335 3.84438 0
M  V30 14281 H 1359.41 -1.75985 3.78707 0
M  V30 14282 N 1359.85 -1.54672 0.302354 0
M  V30 14283 C 1361.08 -2.04578 -0.309093 0
M  V30 14284 C 1361.5 -1.17957 -1.47416 0
M  V30 14285 O 1360.85 -0.2055 -1.81339 0
M  V30 14286 C 1360.9 -3.53334 -0.764023 0
M  V30 14287 O 1360.62 -4.36662 0.354674 0
M  V30 14288 C 1362.13 -4.19243 -1.44048 0
M  V30 14289 H 1359.35 -0.667651 -0.0669575 0
M  V30 14290 H 1361.89 -1.99658 0.442379 0
M  V30 14291 H 1360.04 -3.5861 -1.46552 0
M  V30 14292 H 1360.46 -5.245 0.000241188 0
M  V30 14293 H 1361.93 -5.24847 -1.70995 0
M  V30 14294 H 1362.41 -3.69061 -2.38098 0
M  V30 14295 H 1363.02 -4.18046 -0.782132 0
M  V30 14296 N 1361.33 -0.0301034 -1.57571 0
M  V30 14297 C 1362.61 0.68703 -1.83137 0
M  V30 14298 C 1362.99 1.90277 -0.914216 0
M  V30 14299 O 1362.34 2.2848 0.0299358 0
M  V30 14300 C 1362.55 1.06431 -3.32375 0
M  V30 14301 C 1363.89 1.45554 -3.98873 0
M  V30 14302 O 1364.92 1.15727 -3.36877 0
M  V30 14303 O 1363.78 2.01133 -5.08142 0
M  V30 14304 H 1360.87 0.337141 -0.755159 0
M  V30 14305 H 1363.42 -0.0578604 -1.69601 0
M  V30 14306 H 1362.19 0.199077 -3.90793 0
M  V30 14307 H 1361.81 1.86734 -3.51022 0
M  V30 14308 N 1362.81 1.55714 0.243056 0
M  V30 14309 C 1364.03 1.82126 0.992219 0
M  V30 14310 C 1364.46 0.607665 1.78014 0
M  V30 14311 O 1363.82 -0.443351 1.75796 0
M  V30 14312 C 1363.86 3.06314 1.90274 0
M  V30 14313 O 1362.97 2.83499 2.99503 0
M  V30 14314 H 1362.31 0.601082 0.282128 0
M  V30 14315 H 1364.84 2.02904 0.262881 0
M  V30 14316 H 1364.85 3.35849 2.31666 0
M  V30 14317 H 1363.52 3.94282 1.32344 0
M  V30 14318 H 1362.1 2.65141 2.62211 0
M  V30 14319 N 1364.29 -0.50888 1.49158 0
M  V30 14320 C 1365.22 -1.62008 1.68154 0
M  V30 14321 C 1366.2 -1.61624 0.53025 0
M  V30 14322 O 1367.38 -1.78489 0.765205 0
M  V30 14323 C 1364.51 -3.00525 1.74075 0
M  V30 14324 C 1363.47 -3.15773 2.88915 0
M  V30 14325 C 1362.79 -4.55562 2.79942 0
M  V30 14326 C 1364.09 -2.96542 4.29953 0
M  V30 14327 H 1365.79 -1.46365 2.61185 0
M  V30 14328 H 1363.33 -0.702705 1.2569 0
M  V30 14329 H 1365.29 -3.78154 1.8595 0
M  V30 14330 H 1364.01 -3.17238 0.776373 0
M  V30 14331 H 1362.67 -2.40567 2.76628 0
M  V30 14332 H 1362.32 -4.6914 1.81429 0
M  V30 14333 H 1362.02 -4.66706 3.57015 0
M  V30 14334 H 1363.54 -5.35262 2.93814 0
M  V30 14335 H 1364.95 -3.63947 4.42963 0
M  V30 14336 H 1363.35 -3.19164 5.08187 0
M  V30 14337 H 1364.42 -1.92745 4.44946 0
M  V30 14338 N 1365.76 -1.381 -0.759346 0
M  V30 14339 C 1366.99 -1.37213 -1.54855 0
M  V30 14340 C 1367.41 0.0395175 -1.88759 0
M  V30 14341 O 1366.76 1.00462 -1.5236 0
M  V30 14342 C 1366.82 -2.22232 -2.85123 0
M  V30 14343 O 1366.54 -3.57897 -2.52668 0
M  V30 14344 C 1368.04 -2.29461 -3.79292 0
M  V30 14345 H 1365.26 -0.469542 -0.479345 0
M  V30 14346 H 1367.8 -1.81604 -0.940216 0
M  V30 14347 H 1365.96 -1.81317 -3.42349 0
M  V30 14348 H 1366.37 -4.02599 -3.36176 0
M  V30 14349 H 1367.84 -2.93246 -4.67665 0
M  V30 14350 H 1368.32 -1.3066 -4.19315 0
M  V30 14351 H 1368.93 -2.70741 -3.27993 0
M  V30 14352 N 1367.24 0.986894 -1.22875 0
M  V30 14353 C 1368.49 1.72985 -1.05849 0
M  V30 14354 C 1368.82 1.89939 0.404594 0
M  V30 14355 O 1368.1 1.44693 1.29978 0
M  V30 14356 C 1368.38 3.13193 -1.77714 0
M  V30 14357 C 1368.23 3.0385 -3.31655 0
M  V30 14358 C 1369.55 4.12486 -1.53438 0
M  V30 14359 H 1366.67 0.627877 -0.385926 0
M  V30 14360 H 1369.31 1.14936 -1.51294 0
M  V30 14361 H 1367.46 3.62751 -1.39083 0
M  V30 14362 H 1369.13 2.61866 -3.79768 0
M  V30 14363 H 1367.38 2.4051 -3.61023 0
M  V30 14364 H 1368.05 4.03092 -3.77122 0
M  V30 14365 H 1370.52 3.71709 -1.87007 0
M  V30 14366 H 1369.4 5.08694 -2.06207 0
M  V30 14367 H 1369.66 4.39613 -0.468294 0
M  V30 14368 N 1368.72 1.0394 1.18466 0
M  V30 14369 C 1369.67 0.623063 2.241 0
M  V30 14370 C 1370.66 -0.349518 1.65755 0
M  V30 14371 O 1371.87 -0.216947 1.78688 0
M  V30 14372 H 1368.24 0.183263 0.729327 0
M  V30 14373 H 1370.21 1.52439 2.56524 0
M  V30 14374 C 1368.96 0.000626805 3.477 0
M  V30 14375 H 1368.29 0.740056 3.92891 0
M  V30 14376 H 1369.73 -0.253484 4.23242 0
M  V30 14377 C 1368.19 -1.24907 3.1289 0
M  V30 14378 O 1368.72 -2.33996 3.2651 0
M  V30 14379 N 1366.92 -1.14187 2.67226 0
M  V30 14380 H 1366.47 -0.254146 2.56343 0
M  V30 14381 H 1366.43 -1.97893 2.44307 0
M  V30 14382 N 1370.2 -1.34667 0.818693 0
M  V30 14383 C 1371.44 -1.99131 0.414527 0
M  V30 14384 C 1371.8 -1.63747 -1.01018 0
M  V30 14385 O 1371.09 -0.896699 -1.69322 0
M  V30 14386 C 1371.29 -3.53157 0.549059 0
M  V30 14387 C 1371.12 -4.03505 1.98529 0
M  V30 14388 C 1369.89 -4.32296 2.61627 0
M  V30 14389 C 1372.08 -4.2118 2.95147 0
M  V30 14390 N 1370.07 -4.68651 3.96534 0
M  V30 14391 C 1371.44 -4.60668 4.14952 0
M  V30 14392 C 1373.49 -4.03418 2.91819 0
M  V30 14393 C 1372.19 -4.8425 5.31878 0
M  V30 14394 C 1374.22 -4.28164 4.07958 0
M  V30 14395 C 1373.58 -4.67934 5.26514 0
M  V30 14396 H 1369.68 -0.75607 0.199704 0
M  V30 14397 H 1372.27 -1.63154 1.0625 0
M  V30 14398 H 1370.44 -3.88339 -0.0689894 0
M  V30 14399 H 1372.17 -4.04527 0.118304 0
M  V30 14400 H 1368.92 -4.23051 2.12896 0
M  V30 14401 H 1369.35 -4.9107 4.66025 0
M  V30 14402 H 1373.99 -3.71802 2.01303 0
M  V30 14403 H 1371.71 -5.14734 6.22956 0
M  V30 14404 H 1375.29 -4.15961 4.06777 0
M  V30 14405 H 1374.17 -4.86707 6.14887 0
M  V30 14406 N 1371.68 -0.573274 -1.46804 0
M  V30 14407 C 1372.9 -0.0605984 -2.06811 0
M  V30 14408 C 1373.32 1.24024 -1.4235 0
M  V30 14409 O 1372.68 1.7477 -0.525515 0
M  V30 14410 C 1372.73 0.121828 -3.61295 0
M  V30 14411 O 1372.45 -1.12751 -4.23342 0
M  V30 14412 C 1373.95 0.669941 -4.38208 0
M  V30 14413 H 1371.17 -0.0531498 -0.668892 0
M  V30 14414 H 1373.71 -0.791259 -1.88572 0
M  V30 14415 H 1371.87 0.802674 -3.78993 0
M  V30 14416 H 1372.28 -0.935361 -5.16092 0
M  V30 14417 H 1373.76 0.746806 -5.46925 0
M  V30 14418 H 1374.23 1.68483 -4.05598 0
M  V30 14419 H 1374.84 0.0242721 -4.25293 0
M  V30 14420 N 1373.15 1.5451 -0.310553 0
M  V30 14421 C 1374.57 1.85829 0.180166 0
M  V30 14422 C 1374.92 1.23239 1.52665 0
M  V30 14423 O 1374.04 0.53359 2.09718 0
M  V30 14424 C 1374.64 3.37153 0.333687 0
M  V30 14425 C 1373.2 3.68469 0.768625 0
M  V30 14426 C 1372.34 2.77051 -0.117399 0
M  V30 14427 H 1375.29 1.49544 -0.531262 0
M  V30 14428 H 1375.31 3.62171 1.16673 0
M  V30 14429 H 1374.83 3.82678 -0.646455 0
M  V30 14430 H 1372.93 3.28467 1.75898 0
M  V30 14431 H 1373.04 4.75559 0.581392 0
M  V30 14432 H 1371.4 2.51461 0.404905 0
M  V30 14433 H 1372.19 3.254 -1.09407 0
M  V30 14434 N 1374.63 0.0384594 1.57553 0
M  V30 14435 C 1375.88 -0.636879 1.91803 0
M  V30 14436 C 1376.2 -1.72128 0.916347 0
M  V30 14437 O 1375.47 -1.95858 -0.0407405 0
M  V30 14438 H 1374.05 -0.238237 0.707992 0
M  V30 14439 H 1376.71 0.0884651 1.94699 0
M  V30 14440 H 1375.81 -1.08364 2.92683 0
M  V30 14441 N 1376.11 -1.55841 -0.234795 0
M  V30 14442 C 1377.36 -1.77886 -0.959217 0
M  V30 14443 C 1377.68 -0.604621 -1.8539 0
M  V30 14444 O 1376.95 0.379092 -1.92197 0
M  V30 14445 H 1375.53 -0.656077 -0.357172 0
M  V30 14446 H 1378.19 -1.93292 -0.249831 0
M  V30 14447 H 1377.29 -2.69512 -1.57383 0
M  V30 14448 N 1377.59 0.500963 -1.49426 0
M  V30 14449 C 1378.84 1.25261 -1.58601 0
M  V30 14450 C 1379.16 1.93056 -0.274647 0
M  V30 14451 O 1378.43 1.82736 0.706003 0
M  V30 14452 H 1377.01 0.465328 -0.584362 0
M  V30 14453 H 1379.67 0.580588 -1.86052 0
M  V30 14454 H 1378.77 2.01652 -2.38208 0
M  V30 14455 N 1379.07 1.38501 0.752011 0
M  V30 14456 C 1380.34 1.25315 1.50185 0
M  V30 14457 C 1380.72 -0.144762 2.10603 0
M  V30 14458 O 1380.07 -1.15441 1.97194 0
M  V30 14459 C 1380.28 2.36451 2.56694 0
M  V30 14460 C 1381.63 2.74952 3.23553 0
M  V30 14461 O 1382.65 2.35774 2.67 0
M  V30 14462 O 1381.51 3.42517 4.25845 0
M  V30 14463 H 1378.61 0.490139 0.666103 0
M  V30 14464 H 1381.15 1.50333 0.787288 0
M  V30 14465 H 1379.93 3.29978 2.10309 0
M  V30 14466 H 1379.55 2.13006 3.35729 0
M  V30 14467 N 1380.55 -0.980364 1.23396 0
M  V30 14468 C 1381.79 -1.72421 1.06765 0
M  V30 14469 C 1382.12 -1.90151 -0.394515 0
M  V30 14470 O 1381.4 -1.4538 -1.29209 0
M  V30 14471 C 1381.68 -3.12246 1.79372 0
M  V30 14472 C 1381.54 -3.02087 3.33262 0
M  V30 14473 C 1382.85 -4.11667 1.55624 0
M  V30 14474 H 1379.97 -0.625822 0.389251 0
M  V30 14475 H 1382.62 -1.14132 1.51901 0
M  V30 14476 H 1380.77 -3.62008 1.41004 0
M  V30 14477 H 1382.44 -2.59848 3.81152 0
M  V30 14478 H 1380.68 -2.38592 3.62293 0
M  V30 14479 H 1381.35 -4.01087 3.79254 0
M  V30 14480 H 1383.83 -3.70712 1.88975 0
M  V30 14481 H 1382.7 -5.07593 2.08902 0
M  V30 14482 H 1382.96 -4.39358 0.491601 0
M  V30 14483 N 1382.02 -1.04567 -1.17913 0
M  V30 14484 C 1383.3 -0.666082 -1.8391 0
M  V30 14485 C 1383.68 0.854062 -1.93052 0
M  V30 14486 O 1383.03 1.75752 -1.46026 0
M  V30 14487 C 1383.24 -1.34776 -3.21926 0
M  V30 14488 C 1384.59 -1.48177 -3.97905 0
M  V30 14489 O 1385.61 -1.30627 -3.31384 0
M  V30 14490 O 1384.47 -1.76822 -5.17104 0
M  V30 14491 H 1381.56 -0.233694 -0.793294 0
M  V30 14492 H 1384.11 -1.14487 -1.25263 0
M  V30 14493 H 1382.88 -2.38514 -3.10204 0
M  V30 14494 H 1382.5 -0.857914 -3.88234 0
M  V30 14495 N 1383.5 1.34231 -0.825823 0
M  V30 14496 C 1384.73 2.02949 -0.427354 0
M  V30 14497 C 1385.15 1.61772 0.959755 0
M  V30 14498 O 1384.51 0.803799 1.62508 0
M  V30 14499 C 1384.56 3.56522 -0.540799 0
M  V30 14500 O 1383.66 4.10065 0.438213 0
M  V30 14501 H 1383 0.640378 -0.175535 0
M  V30 14502 H 1385.53 1.71416 -1.11704 0
M  V30 14503 H 1385.54 4.05857 -0.41763 0
M  V30 14504 H 1384.22 3.85839 -1.55246 0
M  V30 14505 H 1382.79 3.71894 0.273687 0
M  V30 14506 N 1384.98 0.581051 1.46498 0
M  V30 14507 C 1386.21 0.0714615 2.06476 0
M  V30 14508 C 1386.62 -1.23815 1.43061 0
M  V30 14509 O 1385.96 -1.75903 0.529504 0
M  V30 14510 C 1386.02 -0.170353 3.59096 0
M  V30 14511 C 1385.69 1.05341 4.44694 0
M  V30 14512 C 1386.68 1.96503 4.81334 0
M  V30 14513 C 1384.37 1.27479 4.85854 0
M  V30 14514 C 1386.36 3.08154 5.57961 0
M  V30 14515 C 1384.05 2.39434 5.62241 0
M  V30 14516 C 1385.05 3.29601 5.98207 0
M  V30 14517 O 1384.74 4.39612 6.7305 0
M  V30 14518 H 1384.47 0.0537502 0.67386 0
M  V30 14519 H 1387.02 0.800993 1.89138 0
M  V30 14520 H 1385.25 -0.954477 3.74735 0
M  V30 14521 H 1386.94 -0.628248 4.01009 0
M  V30 14522 H 1387.71 1.80615 4.50115 0
M  V30 14523 H 1383.59 0.582051 4.57311 0
M  V30 14524 H 1387.13 3.78557 5.85953 0
M  V30 14525 H 1383.03 2.55286 5.92874 0
M  V30 14526 H 1383.79 4.37959 6.91473 0
M  V30 14527 N 1386.46 -1.54343 0.318742 0
M  V30 14528 C 1387.69 -2.04894 -0.287378 0
M  V30 14529 C 1388.1 -1.19514 -1.46157 0
M  V30 14530 O 1387.46 -0.224722 -1.81111 0
M  V30 14531 C 1387.51 -3.54124 -0.726505 0
M  V30 14532 O 1387.23 -4.36261 0.400968 0
M  V30 14533 C 1388.73 -4.20748 -1.39594 0
M  V30 14534 H 1385.95 -0.668323 -0.0598724 0
M  V30 14535 H 1388.49 -1.99177 0.463531 0
M  V30 14536 H 1386.65 -3.60145 -1.4274 0
M  V30 14537 H 1387.06 -5.2447 0.0558714 0
M  V30 14538 H 1388.54 -5.26632 -1.65418 0
M  V30 14539 H 1389.01 -3.71566 -2.3417 0
M  V30 14540 H 1389.62 -4.18852 -0.737749 0
M  V30 14541 N 1387.94 -0.0468143 -1.5753 0
M  V30 14542 C 1389.18 0.628869 -1.92803 0
M  V30 14543 C 1389.51 1.70751 -0.925083 0
M  V30 14544 O 1388.79 1.94437 0.0495821 0
M  V30 14545 C 1389.07 1.22899 -3.38479 0
M  V30 14546 C 1388.93 0.158707 -4.4952 0
M  V30 14547 C 1390.24 2.1419 -3.84461 0
M  V30 14548 H 1387.36 0.227137 -0.701126 0
M  V30 14549 H 1390.01 -0.107689 -1.89695 0
M  V30 14550 H 1388.16 1.85674 -3.41259 0
M  V30 14551 H 1389.83 -0.472963 -4.58869 0
M  V30 14552 H 1388.07 -0.51375 -4.30747 0
M  V30 14553 H 1388.74 0.618545 -5.48523 0
M  V30 14554 H 1391.22 1.61382 -3.8353 0
M  V30 14555 H 1390.09 2.53125 -4.87051 0
M  V30 14556 H 1390.35 3.04024 -3.2097 0
M  V30 14557 N 1389.41 1.55964 0.226527 0
M  V30 14558 C 1390.64 1.83168 0.972846 0
M  V30 14559 C 1391.06 0.626512 1.7736 0
M  V30 14560 O 1390.42 -0.42468 1.76256 0
M  V30 14561 C 1390.47 3.08315 1.87014 0
M  V30 14562 O 1389.57 2.8666 2.96479 0
M  V30 14563 H 1388.92 0.604041 0.275736 0
M  V30 14564 H 1391.45 2.03172 0.241345 0
M  V30 14565 H 1391.46 3.38288 2.28091 0
M  V30 14566 H 1390.13 3.95663 1.28154 0
M  V30 14567 H 1388.71 2.67907 2.59384 0
M  V30 14568 N 1390.89 -0.493031 1.4969 0
M  V30 14569 C 1391.86 -1.57598 1.6642 0
M  V30 14570 C 1392.86 -1.51615 0.535668 0
M  V30 14571 O 1394.05 -1.54626 0.802283 0
M  V30 14572 C 1391.18 -2.97249 1.66901 0
M  V30 14573 H 1392.37 -1.4409 2.63017 0
M  V30 14574 H 1389.92 -0.717846 1.3884 0
M  V30 14575 H 1390.66 -3.16225 0.719164 0
M  V30 14576 H 1390.44 -3.02999 2.48865 0
M  V30 14577 H 1391.93 -3.75914 1.81874 0
M  V30 14578 N 1392.37 -1.38898 -0.744656 0
M  V30 14579 C 1393.62 -1.35595 -1.50401 0
M  V30 14580 C 1393.95 0.0511979 -1.94433 0
M  V30 14581 O 1393.2 1.03011 -1.66395 0
M  V30 14582 C 1393.5 -2.2658 -2.76398 0
M  V30 14583 C 1393.17 -3.74389 -2.51283 0
M  V30 14584 C 1391.83 -4.14666 -2.44143 0
M  V30 14585 C 1394.18 -4.67916 -2.29573 0
M  V30 14586 C 1391.51 -5.46545 -2.1332 0
M  V30 14587 C 1393.86 -6.00063 -2.00269 0
M  V30 14588 C 1392.52 -6.39413 -1.91591 0
M  V30 14589 H 1391.79 -0.496176 -0.550355 0
M  V30 14590 H 1394.44 -1.71328 -0.855514 0
M  V30 14591 H 1392.75 -1.83933 -3.45942 0
M  V30 14592 H 1394.44 -2.21323 -3.34391 0
M  V30 14593 H 1391.03 -3.42463 -2.57715 0
M  V30 14594 H 1395.22 -4.37639 -2.34063 0
M  V30 14595 H 1390.47 -5.75966 -2.05117 0
M  V30 14596 H 1394.65 -6.72068 -1.82476 0
M  V30 14597 H 1392.27 -7.41524 -1.67472 0
M  V30 14598 N 1393.85 0.973806 -1.23914 0
M  V30 14599 C 1395.26 1.24128 -1.00322 0
M  V30 14600 C 1395.46 1.99378 0.29169 0
M  V30 14601 O 1394.52 2.31445 1.00943 0
M  V30 14602 C 1395.83 2.03438 -2.21435 0
M  V30 14603 C 1397.38 2.16553 -2.25995 0
M  V30 14604 C 1397.86 2.99257 -3.46712 0
M  V30 14605 N 1399.35 3.0684 -3.46992 0
M  V30 14606 C 1400.08 3.71174 -4.37055 0
M  V30 14607 N 1399.58 4.37277 -5.37364 0
M  V30 14608 N 1401.37 3.68126 -4.24782 0
M  V30 14609 H 1393.52 0.469872 -2.07138 0
M  V30 14610 H 1395.79 0.270234 -0.908668 0
M  V30 14611 H 1395.49 1.55527 -3.15443 0
M  V30 14612 H 1395.37 3.0418 -2.23057 0
M  V30 14613 H 1397.75 2.6367 -1.32522 0
M  V30 14614 H 1397.83 1.15179 -2.28402 0
M  V30 14615 H 1397.48 2.52835 -4.40496 0
M  V30 14616 H 1397.41 4.00815 -3.41547 0
M  V30 14617 H 1399.9 2.59813 -2.74419 0
M  V30 14618 H 1400.21 4.84166 -6.02331 0
M  V30 14619 H 1398.56 4.35965 -5.41257 0
M  V30 14620 H 1401.75 3.15657 -3.45656 0
M  V30 14621 H 1401.92 4.17981 -4.95173 0
M  V30 14622 N 1395.33 1.05191 1.17357 0
M  V30 14623 C 1396.28 0.623047 2.19322 0
M  V30 14624 C 1397.26 -0.340467 1.57257 0
M  V30 14625 O 1398.45 -0.157698 1.76296 0
M  V30 14626 C 1395.58 -0.000731889 3.433 0
M  V30 14627 C 1394.67 0.986608 4.12464 0
M  V30 14628 N 1395.06 2.158 4.57454 0
M  V30 14629 C 1393.36 0.815082 4.38489 0
M  V30 14630 C 1394.06 2.78262 5.10828 0
M  V30 14631 N 1393.03 2.0606 5.03031 0
M  V30 14632 H 1396.84 1.51555 2.5181 0
M  V30 14633 H 1394.35 0.922048 1.33686 0
M  V30 14634 H 1396.35 -0.325738 4.15625 0
M  V30 14635 H 1395.01 -0.888627 3.12304 0
M  V30 14636 H 1396.02 2.53634 4.51542 0
M  V30 14637 H 1392.69 -0.021765 4.17494 0
M  V30 14638 H 1394.08 3.77599 5.55759 0
M  V30 14639 N 1396.8 -1.33791 0.83293 0
M  V30 14640 C 1398.03 -2.0272 0.438111 0
M  V30 14641 C 1398.45 -1.62279 -0.951163 0
M  V30 14642 O 1397.81 -0.812406 -1.62079 0
M  V30 14643 C 1397.86 -3.5623 0.559698 0
M  V30 14644 O 1396.96 -4.10292 -0.41646 0
M  V30 14645 H 1396.31 -0.639438 0.178928 0
M  V30 14646 H 1398.84 -1.70821 1.12612 0
M  V30 14647 H 1398.85 -4.0563 0.439148 0
M  V30 14648 H 1397.52 -3.8501 1.5729 0
M  V30 14649 H 1396.1 -3.72034 -0.25396 0
M  V30 14650 N 1398.28 -0.588812 -1.46187 0
M  V30 14651 C 1399.21 0.178825 -2.28501 0
M  V30 14652 C 1400.23 0.849686 -1.38867 0
M  V30 14653 O 1401.42 0.718224 -1.63413 0
M  V30 14654 C 1398.52 1.27309 -3.14079 0
M  V30 14655 C 1397.69 0.692974 -4.31876 0
M  V30 14656 C 1396.75 1.67572 -4.98805 0
M  V30 14657 O 1395.77 1.20937 -5.56204 0
M  V30 14658 N 1396.98 3.00992 -4.96371 0
M  V30 14659 H 1399.74 -0.527407 -2.95023 0
M  V30 14660 H 1397.3 -0.426998 -1.56168 0
M  V30 14661 H 1399.29 1.92993 -3.55719 0
M  V30 14662 H 1397.86 1.88209 -2.49592 0
M  V30 14663 H 1397.08 -0.141485 -3.93946 0
M  V30 14664 H 1398.37 0.28529 -5.08 0
M  V30 14665 H 1397.77 3.41498 -4.50994 0
M  V30 14666 H 1396.33 3.62149 -5.41933 0
M  V30 14667 N 1399.76 1.54172 -0.326923 0
M  V30 14668 C 1400.71 2.24454 0.537501 0
M  V30 14669 C 1401.68 1.23658 1.10896 0
M  V30 14670 O 1402.86 1.52348 1.14868 0
M  V30 14671 C 1400 3.00839 1.69085 0
M  V30 14672 C 1399.12 4.16459 1.1483 0
M  V30 14673 C 1398.25 4.80368 2.26761 0
M  V30 14674 C 1397.29 5.88085 1.69771 0
M  V30 14675 N 1396.43 6.45842 2.75378 0
M  V30 14676 H 1401.27 2.97921 -0.0684022 0
M  V30 14677 H 1398.8 1.4703 -0.0455287 0
M  V30 14678 H 1400.76 3.43375 2.36959 0
M  V30 14679 H 1399.39 2.297 2.26799 0
M  V30 14680 H 1398.44 3.78683 0.361004 0
M  V30 14681 H 1399.76 4.93986 0.69132 0
M  V30 14682 H 1398.91 5.25889 3.02533 0
M  V30 14683 H 1397.65 4.02228 2.75796 0
M  V30 14684 H 1396.65 5.41963 0.924985 0
M  V30 14685 H 1397.88 6.68123 1.21609 0
M  V30 14686 H 1395.82 5.70574 3.23699 0
M  V30 14687 H 1395.74 7.18792 2.34253 0
M  V30 14688 H 1397.01 6.96018 3.50969 0
M  V30 14689 N 1401.24 0.0551678 1.57503 0
M  V30 14690 C 1402.48 -0.618636 1.93134 0
M  V30 14691 C 1402.82 -1.70258 0.934125 0
M  V30 14692 O 1402.09 -1.9446 -0.0392699 0
M  V30 14693 C 1402.38 -1.21103 3.39126 0
M  V30 14694 C 1402.23 -0.134865 4.49598 0
M  V30 14695 C 1403.55 -2.12148 3.85592 0
M  V30 14696 H 1400.67 -0.223416 0.702321 0
M  V30 14697 H 1403.31 0.117748 1.89635 0
M  V30 14698 H 1401.46 -1.83862 3.42238 0
M  V30 14699 H 1403.13 0.497292 4.58612 0
M  V30 14700 H 1401.37 0.536587 4.30469 0
M  V30 14701 H 1402.04 -0.589447 5.48844 0
M  V30 14702 H 1404.52 -1.59346 3.8438 0
M  V30 14703 H 1403.4 -2.50539 4.88387 0
M  V30 14704 H 1403.66 -3.02318 3.22578 0
M  V30 14705 N 1402.72 -1.56081 -0.218252 0
M  V30 14706 C 1403.99 -1.70043 -0.966684 0
M  V30 14707 C 1404.37 -0.603372 -2.02293 0
M  V30 14708 O 1403.72 0.389138 -2.25162 0
M  V30 14709 C 1403.93 -3.11484 -1.57413 0
M  V30 14710 C 1405.28 -3.70995 -2.06513 0
M  V30 14711 O 1406.3 -3.14466 -1.67301 0
M  V30 14712 O 1405.16 -4.70156 -2.78596 0
M  V30 14713 H 1402.26 -0.692691 -0.451784 0
M  V30 14714 H 1404.8 -1.68398 -0.209774 0
M  V30 14715 H 1403.57 -3.8279 -0.811614 0
M  V30 14716 H 1403.2 -3.1726 -2.3965 0
M  V30 14717 N 1404.2 0.485086 -1.49949 0
M  V30 14718 C 1405.42 1.26648 -1.64241 0
M  V30 14719 C 1405.85 1.85359 -0.319939 0
M  V30 14720 O 1405.2 1.66628 0.714487 0
M  V30 14721 C 1405.25 2.36109 -2.72552 0
M  V30 14722 O 1404.36 3.40387 -2.32832 0
M  V30 14723 H 1403.7 0.373208 -0.549192 0
M  V30 14724 H 1406.23 0.578929 -1.96239 0
M  V30 14725 H 1406.24 2.81634 -2.95205 0
M  V30 14726 H 1404.91 1.92745 -3.6854 0
M  V30 14727 H 1403.49 3.0067 -2.20571 0
M  V30 14728 N 1405.67 1.39291 0.737279 0
M  V30 14729 C 1406.61 1.33728 1.86144 0
M  V30 14730 C 1407.62 0.246468 1.60924 0
M  V30 14731 O 1408.81 0.505252 1.712 0
M  V30 14732 C 1405.91 1.05312 3.22122 0
M  V30 14733 C 1405.08 2.25624 3.74716 0
M  V30 14734 C 1404.14 1.937 4.89251 0
M  V30 14735 O 1403.17 2.66361 5.03031 0
M  V30 14736 N 1404.37 0.901782 5.73453 0
M  V30 14737 H 1407.13 2.30604 1.91421 0
M  V30 14738 H 1404.69 1.33364 0.917919 0
M  V30 14739 H 1406.69 0.819784 3.9631 0
M  V30 14740 H 1405.26 0.171773 3.12128 0
M  V30 14741 H 1404.48 2.64923 2.91906 0
M  V30 14742 H 1405.76 3.05881 4.06589 0
M  V30 14743 H 1405.16 0.299553 5.64906 0
M  V30 14744 H 1403.72 0.728344 6.47718 0
M  V30 14745 N 1407.15 -0.967221 1.24429 0
M  V30 14746 C 1408.38 -1.7452 1.11133 0
M  V30 14747 C 1408.79 -1.85785 -0.336087 0
M  V30 14748 O 1408.15 -1.34652 -1.23188 0
M  V30 14749 C 1408.2 -3.16544 1.74591 0
M  V30 14750 O 1407.92 -3.05845 3.13673 0
M  V30 14751 C 1409.42 -4.10677 1.6691 0
M  V30 14752 H 1406.64 -0.547267 0.388253 0
M  V30 14753 H 1409.19 -1.2143 1.64545 0
M  V30 14754 H 1407.34 -3.66618 1.2518 0
M  V30 14755 H 1407.76 -3.95346 3.44676 0
M  V30 14756 H 1409.23 -5.07987 2.15992 0
M  V30 14757 H 1409.71 -4.34652 0.630411 0
M  V30 14758 H 1410.31 -3.66514 2.15749 0
M  V30 14759 N 1408.63 -1.05812 -1.16797 0
M  V30 14760 C 1409.88 -0.767008 -1.86547 0
M  V30 14761 C 1410.19 0.708979 -1.82299 0
M  V30 14762 O 1411.4 1.11428 -2.4758 0
M  V30 14763 C 1409.85 -1.32186 -3.34746 0
M  V30 14764 C 1409.46 -2.82774 -3.4748 0
M  V30 14765 C 1411.21 -1.10808 -4.09783 0
M  V30 14766 C 1409.11 -3.31529 -4.89737 0
M  V30 14767 H 1408.04 -0.283235 -0.698781 0
M  V30 14768 H 1410.69 -1.27621 -1.31853 0
M  V30 14769 H 1409.08 -0.740453 -3.89016 0
M  V30 14770 H 1410.25 -3.46825 -3.03396 0
M  V30 14771 H 1408.56 -3.02765 -2.85871 0
M  V30 14772 H 1411.16 -1.44728 -5.14741 0
M  V30 14773 H 1411.5 -0.046167 -4.16274 0
M  V30 14774 H 1412.04 -1.65502 -3.61737 0
M  V30 14775 H 1408.78 -4.37177 -4.88422 0
M  V30 14776 H 1408.3 -2.72224 -5.34466 0
M  V30 14777 H 1409.98 -3.26572 -5.58534 0
M  V30 14778 N 1410.11 1.33347 -0.840014 0
M  V30 14779 C 1411.52 1.80077 -0.492851 0
M  V30 14780 C 1411.87 1.69495 0.988221 0
M  V30 14781 O 1410.99 1.2449 1.77006 0
M  V30 14782 C 1411.59 3.2696 -0.887827 0
M  V30 14783 C 1410.15 3.71703 -0.592785 0
M  V30 14784 C 1409.3 2.54742 -1.09554 0
M  V30 14785 H 1412.25 1.20853 -1.02861 0
M  V30 14786 H 1412.27 3.79983 -0.198327 0
M  V30 14787 H 1411.78 3.3463 -1.96581 0
M  V30 14788 H 1409.88 3.69559 0.475086 0
M  V30 14789 H 1409.99 4.65123 -1.14882 0
M  V30 14790 H 1408.36 2.49411 -0.516357 0
M  V30 14791 H 1409.14 2.65173 -2.18032 0
M  V30 14792 N 1411.59 0.596556 1.45873 0
M  V30 14793 C 1412.53 -0.128713 2.30441 0
M  V30 14794 C 1413.5 -0.870727 1.41448 0
M  V30 14795 O 1414.69 -0.858654 1.70387 0
M  V30 14796 C 1411.83 -1.1274 3.26165 0
M  V30 14797 C 1410.94 -0.387403 4.30259 0
M  V30 14798 C 1410.08 -1.37484 5.131 0
M  V30 14799 C 1409.11 -0.622025 6.08931 0
M  V30 14800 N 1408.25 -1.5582 6.84591 0
M  V30 14801 H 1413.09 0.598466 2.91929 0
M  V30 14802 H 1410.63 0.306936 1.43862 0
M  V30 14803 H 1412.59 -1.71943 3.8012 0
M  V30 14804 H 1411.22 -1.82213 2.66455 0
M  V30 14805 H 1410.27 0.319929 3.79052 0
M  V30 14806 H 1411.58 0.200477 4.98397 0
M  V30 14807 H 1410.73 -2.03926 5.71401 0
M  V30 14808 H 1409.47 -1.99665 4.44955 0
M  V30 14809 H 1408.48 0.0560936 5.49771 0
M  V30 14810 H 1409.7 -0.00541426 6.791 0
M  V30 14811 H 1407.65 -2.16786 6.19145 0
M  V30 14812 H 1407.57 -1.02347 7.4904 0
M  V30 14813 H 1408.83 -2.21254 7.4744 0
M  V30 14814 N 1413.06 -1.53996 0.335095 0
M  V30 14815 C 1414.01 -2.21479 -0.541388 0
M  V30 14816 C 1415 -1.19926 -1.07268 0
M  V30 14817 O 1416.19 -1.45508 -1.00779 0
M  V30 14818 C 1413.32 -2.98477 -1.69607 0
M  V30 14819 C 1412.4 -4.07379 -1.17912 0
M  V30 14820 N 1412.8 -5.0435 -0.382732 0
M  V30 14821 C 1411.09 -4.21537 -1.45679 0
M  V30 14822 C 1411.79 -5.81608 -0.103194 0
M  V30 14823 N 1410.77 -5.39171 -0.692513 0
M  V30 14824 H 1414.57 -2.93806 0.0742285 0
M  V30 14825 H 1412.09 -1.61782 0.141529 0
M  V30 14826 H 1414.08 -3.45316 -2.33587 0
M  V30 14827 H 1412.74 -2.27674 -2.31505 0
M  V30 14828 H 1413.75 -5.17894 -0.0245533 0
M  V30 14829 H 1410.43 -3.61953 -2.08078 0
M  V30 14830 H 1411.82 -6.69737 0.538682 0
M  V30 14831 N 1414.54 -0.0635198 -1.57472 0
M  V30 14832 C 1415.79 0.608384 -1.93459 0
M  V30 14833 C 1416.12 1.6976 -0.943141 0
M  V30 14834 O 1415.4 1.94478 0.0289567 0
M  V30 14835 C 1415.68 1.19302 -3.39763 0
M  V30 14836 C 1415.53 0.11102 -4.49663 0
M  V30 14837 C 1416.85 2.101 -3.86712 0
M  V30 14838 H 1413.97 0.219688 -0.703496 0
M  V30 14839 H 1416.61 -0.127803 -1.8957 0
M  V30 14840 H 1414.76 1.82044 -3.43209 0
M  V30 14841 H 1416.43 -0.521606 -4.58342 0
M  V30 14842 H 1414.68 -0.559408 -4.30178 0
M  V30 14843 H 1415.35 0.560332 -5.49149 0
M  V30 14844 H 1417.82 1.57305 -3.8522 0
M  V30 14845 H 1416.7 2.47945 -4.89708 0
M  V30 14846 H 1416.96 3.00603 -3.24177 0
M  V30 14847 N 1416.02 1.56195 0.209972 0
M  V30 14848 C 1417.27 1.79745 0.932638 0
M  V30 14849 C 1417.59 0.634252 1.83868 0
M  V30 14850 O 1416.85 -0.380798 1.91959 0
M  V30 14851 C 1417.15 3.09154 1.79328 0
M  V30 14852 C 1416.81 4.38754 1.03949 0
M  V30 14853 C 1415.48 4.73965 0.831308 0
M  V30 14854 C 1417.83 5.18718 0.508031 0
M  V30 14855 C 1415.16 5.86646 0.0799547 0
M  V30 14856 C 1417.51 6.32182 -0.230037 0
M  V30 14857 C 1416.17 6.65986 -0.449366 0
M  V30 14858 H 1415.44 0.657732 0.341276 0
M  V30 14859 H 1418.09 1.90453 0.199998 0
M  V30 14860 H 1416.39 2.93618 2.59414 0
M  V30 14861 H 1418.09 3.24578 2.35478 0
M  V30 14862 H 1414.68 4.11114 1.21174 0
M  V30 14863 H 1418.87 4.91941 0.656306 0
M  V30 14864 H 1414.12 6.11318 -0.100092 0
M  V30 14865 H 1418.3 6.93367 -0.649296 0
M  V30 14866 H 1415.92 7.53142 -1.03349 0
M  V30 14867 N 1417.5 -0.477127 1.50204 0
M  V30 14868 C 1418.41 -1.60182 1.71403 0
M  V30 14869 C 1419.42 -1.63437 0.597009 0
M  V30 14870 O 1420.6 -1.81418 0.874614 0
M  V30 14871 C 1417.66 -2.96432 1.79802 0
M  V30 14872 C 1416.73 -3.03614 3.03508 0
M  V30 14873 C 1415.96 -4.33365 3.11497 0
M  V30 14874 O 1416.18 -5.23529 2.26438 0
M  V30 14875 O 1415.12 -4.46013 4.04173 0
M  V30 14876 H 1418.94 -1.45221 2.66729 0
M  V30 14877 H 1416.53 -0.655982 1.34228 0
M  V30 14878 H 1418.41 -3.77367 1.87542 0
M  V30 14879 H 1417.08 -3.11605 0.876581 0
M  V30 14880 H 1415.99 -2.21779 3.01272 0
M  V30 14881 H 1417.32 -2.93376 3.95211 0
M  V30 14882 N 1418.98 -1.3968 -0.729882 0
M  V30 14883 C 1419.93 -1.35296 -1.83518 0
M  V30 14884 C 1420.91 -0.232935 -1.59205 0
M  V30 14885 O 1422.1 -0.470887 -1.70621 0
M  V30 14886 C 1419.23 -1.20383 -3.21501 0
M  V30 14887 C 1418.32 -2.37108 -3.51626 0
M  V30 14888 N 1418.71 -3.62585 -3.52655 0
M  V30 14889 C 1417.01 -2.30177 -3.82014 0
M  V30 14890 C 1417.71 -4.39803 -3.8072 0
M  V30 14891 N 1416.68 -3.69456 -3.98752 0
M  V30 14892 H 1420.49 -2.30271 -1.82627 0
M  V30 14893 H 1418 -1.33249 -0.92836 0
M  V30 14894 H 1420 -1.15325 -4.00632 0
M  V30 14895 H 1418.66 -0.263628 -3.23628 0
M  V30 14896 H 1419.67 -3.9594 -3.33845 0
M  V30 14897 H 1416.34 -1.44446 -3.91716 0
M  V30 14898 H 1417.73 -5.4859 -3.87941 0
M  V30 14899 N 1420.45 0.960609 -1.2494 0
M  V30 14900 C 1421.68 1.73928 -1.12057 0
M  V30 14901 C 1422.1 1.8596 0.32623 0
M  V30 14902 O 1421.45 1.35303 1.22472 0
M  V30 14903 C 1421.51 3.15614 -1.76267 0
M  V30 14904 O 1421.23 3.04177 -3.15291 0
M  V30 14905 C 1422.73 4.09786 -1.69086 0
M  V30 14906 H 1419.95 0.5452 -0.39115 0
M  V30 14907 H 1422.49 1.20556 -1.65186 0
M  V30 14908 H 1420.65 3.65949 -1.27123 0
M  V30 14909 H 1421.06 3.93513 -3.46768 0
M  V30 14910 H 1422.53 5.06835 -2.18683 0
M  V30 14911 H 1423.01 4.34312 -0.653453 0
M  V30 14912 H 1423.62 3.65365 -2.1769 0
M  V30 14913 N 1421.93 1.0643 1.16234 0
M  V30 14914 C 1423.18 0.78184 1.86798 0
M  V30 14915 C 1423.51 -0.691734 1.81784 0
M  V30 14916 O 1422.76 -1.52271 1.22931 0
M  V30 14917 C 1423.06 1.22348 3.35806 0
M  V30 14918 C 1422.73 2.7014 3.61019 0
M  V30 14919 C 1421.39 3.1051 3.6761 0
M  V30 14920 C 1423.74 3.65582 3.71482 0
M  V30 14921 C 1421.07 4.45159 3.82165 0
M  V30 14922 C 1423.42 4.99981 3.87559 0
M  V30 14923 C 1422.09 5.39986 3.92392 0
M  V30 14924 H 1421.36 0.286096 0.683542 0
M  V30 14925 H 1424 1.33364 1.37427 0
M  V30 14926 H 1422.31 0.590896 3.87319 0
M  V30 14927 H 1424 0.981959 3.88791 0
M  V30 14928 H 1420.59 2.37884 3.56524 0
M  V30 14929 H 1424.78 3.35525 3.657 0
M  V30 14930 H 1420.03 4.75637 3.8416 0
M  V30 14931 H 1424.21 5.73817 3.94597 0
M  V30 14932 H 1421.84 6.44324 4.03423 0
M  V30 14933 N 1423.41 -1.329 0.847073 0
M  V30 14934 C 1424.36 -2.26534 0.258111 0
M  V30 14935 C 1425.34 -1.49627 -0.591653 0
M  V30 14936 O 1426.54 -1.71385 -0.442277 0
M  V30 14937 C 1423.67 -3.38719 -0.558969 0
M  V30 14938 C 1422.75 -4.23018 0.30276 0
M  V30 14939 N 1423.14 -4.86457 1.38541 0
M  V30 14940 C 1421.44 -4.45907 0.0911992 0
M  V30 14941 C 1422.14 -5.49277 1.91492 0
M  V30 14942 N 1421.12 -5.29843 1.21519 0
M  V30 14943 H 1424.92 -2.73103 1.0859 0
M  V30 14944 H 1422.43 -1.46901 0.692386 0
M  V30 14945 H 1424.43 -4.04797 -0.997259 0
M  V30 14946 H 1423.09 -2.93697 -1.38464 0
M  V30 14947 H 1424.1 -4.86776 1.76832 0
M  V30 14948 H 1420.78 -4.11584 -0.70037 0
M  V30 14949 H 1422.17 -6.09764 2.82201 0
M  V30 14950 N 1424.89 -0.604284 -1.45555 0
M  V30 14951 C 1426.3 -0.267665 -1.57339 0
M  V30 14952 C 1426.5 1.22984 -1.59616 0
M  V30 14953 O 1425.56 2.0127 -1.52468 0
M  V30 14954 C 1426.87 -0.935923 -2.85764 0
M  V30 14955 C 1428.42 -0.911531 -2.99433 0
M  V30 14956 C 1428.9 -1.55974 -4.30623 0
M  V30 14957 N 1430.39 -1.52507 -4.37374 0
M  V30 14958 C 1431.12 -1.9958 -5.37546 0
M  V30 14959 N 1430.62 -2.54724 -6.44273 0
M  V30 14960 N 1432.41 -1.90368 -5.28882 0
M  V30 14961 H 1424.56 -1.57666 -1.42321 0
M  V30 14962 H 1426.83 -0.66028 -0.680245 0
M  V30 14963 H 1426.53 -1.99022 -2.89971 0
M  V30 14964 H 1426.41 -0.457194 -3.74419 0
M  V30 14965 H 1428.79 0.134206 -2.94795 0
M  V30 14966 H 1428.87 -1.42849 -2.12197 0
M  V30 14967 H 1428.52 -2.60479 -4.3602 0
M  V30 14968 H 1428.45 -1.01782 -5.1667 0
M  V30 14969 H 1430.94 -1.12221 -3.60853 0
M  V30 14970 H 1431.25 -2.88445 -7.16951 0
M  V30 14971 H 1429.6 -2.58761 -6.45033 0
M  V30 14972 H 1432.79 -1.47029 -4.4441 0
M  V30 14973 H 1432.96 -2.27367 -6.06802 0
M  V30 14974 N 1426.37 1.53816 -0.343257 0
M  V30 14975 C 1427.3 2.27951 0.506005 0
M  V30 14976 C 1428.28 1.29502 1.10287 0
M  V30 14977 O 1429.46 1.58344 1.12432 0
M  V30 14978 C 1426.59 3.0521 1.65723 0
M  V30 14979 C 1425.55 4.11161 1.18871 0
M  V30 14980 C 1424.87 4.76373 2.42843 0
M  V30 14981 C 1426.17 5.21498 0.289403 0
M  V30 14982 H 1427.87 2.99189 -0.112435 0
M  V30 14983 H 1425.41 1.43893 -0.055516 0
M  V30 14984 H 1427.37 3.55811 2.2578 0
M  V30 14985 H 1426.09 2.31624 2.30256 0
M  V30 14986 H 1424.75 3.61473 0.610962 0
M  V30 14987 H 1424.4 3.99381 3.05784 0
M  V30 14988 H 1424.1 5.47955 2.12177 0
M  V30 14989 H 1425.62 5.29758 3.03627 0
M  V30 14990 H 1427.03 5.67736 0.796808 0
M  V30 14991 H 1425.43 6.00054 0.0746366 0
M  V30 14992 H 1426.5 4.80185 -0.674543 0
M  V30 14993 N 1427.84 0.0718701 1.57436 0
M  V30 14994 C 1428.75 -0.910077 2.16229 0
M  V30 14995 C 1429.77 -1.32699 1.12548 0
M  V30 14996 O 1430.95 -1.39967 1.44814 0
M  V30 14997 C 1428.01 -2.15942 2.71238 0
M  V30 14998 C 1427.07 -1.79891 3.89792 0
M  V30 14999 C 1426.31 -2.9887 4.42168 0
M  V30 15000 O 1426.53 -4.1289 3.93545 0
M  V30 15001 O 1425.46 -2.78682 5.33498 0
M  V30 15002 H 1429.29 -0.439969 3.00496 0
M  V30 15003 H 1426.87 -0.151204 1.48633 0
M  V30 15004 H 1428.76 -2.89204 3.06494 0
M  V30 15005 H 1427.43 -2.62051 1.90029 0
M  V30 15006 H 1426.34 -1.03881 3.59388 0
M  V30 15007 H 1427.67 -1.38566 4.72293 0
M  V30 15008 N 1429.32 -1.56304 -0.201686 0
M  V30 15009 C 1430.29 -1.93171 -1.2336 0
M  V30 15010 C 1431.29 -0.812164 -1.38782 0
M  V30 15011 O 1432.48 -1.07967 -1.36707 0
M  V30 15012 C 1429.61 -2.19997 -2.60411 0
M  V30 15013 H 1430.8 -2.85483 -0.918654 0
M  V30 15014 H 1428.35 -1.49893 -0.442935 0
M  V30 15015 H 1429.09 -1.30301 -2.96972 0
M  V30 15016 H 1428.87 -3.01574 -2.5059 0
M  V30 15017 H 1430.36 -2.49547 -3.34838 0
M  V30 15018 N 1430.8 0.469154 -1.50455 0
M  V30 15019 C 1432.05 1.21868 -1.61222 0
M  V30 15020 C 1432.37 1.9243 -0.315535 0
M  V30 15021 O 1431.64 1.84192 0.667083 0
M  V30 15022 H 1430.22 0.452828 -0.594101 0
M  V30 15023 H 1432.88 0.540993 -1.87241 0
M  V30 15024 H 1431.98 1.96554 -2.42431 0
M  V30 15025 N 1432.28 1.40065 0.722464 0
M  V30 15026 C 1433.19 1.42086 1.86678 0
M  V30 15027 C 1434.2 0.314223 1.71139 0
M  V30 15028 O 1435.38 0.55771 1.93524 0
M  V30 15029 C 1432.45 1.27498 3.22405 0
M  V30 15030 C 1431.51 2.48243 3.50248 0
M  V30 15031 C 1430.74 2.34342 4.79499 0
M  V30 15032 O 1430.96 1.35355 5.54108 0
M  V30 15033 O 1429.9 3.23579 5.07523 0
M  V30 15034 H 1433.72 2.38571 1.87929 0
M  V30 15035 H 1431.31 1.21314 0.871968 0
M  V30 15036 H 1433.19 1.21543 4.03491 0
M  V30 15037 H 1431.86 0.341141 3.21897 0
M  V30 15038 H 1430.77 2.59775 2.69199 0
M  V30 15039 H 1432.1 3.40364 3.55547 0
M  V30 15040 N 1433.76 -0.95397 1.25448 0
M  V30 15041 C 1434.69 -2.05412 1.01679 0
M  V30 15042 C 1435.7 -1.62789 -0.0184932 0
M  V30 15043 O 1436.89 -1.77137 0.220136 0
M  V30 15044 C 1433.99 -3.3496 0.515292 0
M  V30 15045 C 1433.16 -4.06418 1.61688 0
M  V30 15046 C 1432.22 -5.14237 1.11564 0
M  V30 15047 O 1431.25 -5.39649 1.81017 0
M  V30 15048 N 1432.45 -5.80484 -0.0427228 0
M  V30 15049 H 1435.22 -2.26372 1.96407 0
M  V30 15050 H 1432.78 -1.12257 1.16662 0
M  V30 15051 H 1434.77 -4.04366 0.164426 0
M  V30 15052 H 1433.34 -3.10767 -0.33807 0
M  V30 15053 H 1432.56 -3.31101 2.1393 0
M  V30 15054 H 1433.85 -4.50917 2.35693 0
M  V30 15055 H 1433.25 -5.62259 -0.623038 0
M  V30 15056 H 1431.8 -6.50941 -0.334615 0
M  V30 15057 N 1435.24 -1.07045 -1.15668 0
M  V30 15058 C 1436.47 -0.811567 -1.89992 0
M  V30 15059 C 1436.87 0.638628 -1.78096 0
M  V30 15060 O 1436.22 1.44953 -1.12846 0
M  V30 15061 C 1436.28 -1.13665 -3.41058 0
M  V30 15062 C 1435.94 -2.58681 -3.7674 0
M  V30 15063 C 1436.94 -3.56923 -3.78023 0
M  V30 15064 C 1434.62 -2.94178 -4.07142 0
M  V30 15065 C 1436.62 -4.88699 -4.09209 0
M  V30 15066 C 1434.31 -4.26152 -4.37993 0
M  V30 15067 C 1435.3 -5.23222 -4.39007 0
M  V30 15068 O 1434.99 -6.52826 -4.6912 0
M  V30 15069 H 1434.72 -0.293243 -0.609085 0
M  V30 15070 H 1437.28 -1.42941 -1.47502 0
M  V30 15071 H 1435.51 -0.461762 -3.83933 0
M  V30 15072 H 1437.2 -0.860808 -3.96667 0
M  V30 15073 H 1437.96 -3.30842 -3.54639 0
M  V30 15074 H 1433.84 -2.19272 -4.05513 0
M  V30 15075 H 1437.39 -5.6446 -4.09915 0
M  V30 15076 H 1433.28 -4.51988 -4.60844 0
M  V30 15077 H 1434.05 -6.5793 -4.86898 0
M  V30 15078 N 1436.71 1.32449 -0.85411 0
M  V30 15079 C 1437.65 2.2777 -0.255605 0
M  V30 15080 C 1438.66 1.52407 0.572355 0
M  V30 15081 O 1439.85 1.74031 0.396935 0
M  V30 15082 C 1436.95 3.32461 0.657496 0
M  V30 15083 C 1436.12 4.37193 -0.134492 0
M  V30 15084 C 1435.18 5.21465 0.704288 0
M  V30 15085 O 1434.21 5.69033 0.138001 0
M  V30 15086 N 1435.41 5.44254 2.01911 0
M  V30 15087 H 1438.17 2.79769 -1.07468 0
M  V30 15088 H 1435.73 1.45304 -0.714038 0
M  V30 15089 H 1437.73 3.85748 1.22396 0
M  V30 15090 H 1436.3 2.80625 1.37726 0
M  V30 15091 H 1435.52 3.84198 -0.882378 0
M  V30 15092 H 1436.8 5.04256 -0.678508 0
M  V30 15093 H 1436.2 5.07336 2.50252 0
M  V30 15094 H 1434.76 6.00538 2.53371 0
M  V30 15095 N 1438.19 0.611994 1.45232 0
M  V30 15096 C 1439.44 0.106467 2.01419 0
M  V30 15097 C 1439.75 -1.2723 1.48566 0
M  V30 15098 O 1440.96 -1.8708 1.96757 0
M  V30 15099 C 1439.42 0.139639 3.59629 0
M  V30 15100 C 1439.02 1.51853 4.21479 0
M  V30 15101 C 1440.77 -0.310417 4.23364 0
M  V30 15102 C 1438.67 1.50785 5.71855 0
M  V30 15103 H 1437.6 0.0360345 0.753138 0
M  V30 15104 H 1440.26 0.767974 1.66657 0
M  V30 15105 H 1438.64 -0.588606 3.91601 0
M  V30 15106 H 1439.81 2.26884 4.01074 0
M  V30 15107 H 1438.13 1.91105 3.69956 0
M  V30 15108 H 1440.72 -0.337656 5.33633 0
M  V30 15109 H 1441.07 -1.33398 3.94348 0
M  V30 15110 H 1441.6 0.364704 3.96125 0
M  V30 15111 H 1438.34 2.50916 6.05575 0
M  V30 15112 H 1437.86 0.800195 5.94438 0
M  V30 15113 H 1439.54 1.23341 6.35135 0
M  V30 15114 N 1439.67 -1.53632 0.351409 0
M  V30 15115 C 1440.6 -2.21598 -0.544952 0
M  V30 15116 C 1441.58 -1.20279 -1.09415 0
M  V30 15117 O 1442.76 -1.49129 -1.15295 0
M  V30 15118 C 1439.89 -2.89959 -1.75048 0
M  V30 15119 C 1438.94 -4.05232 -1.33002 0
M  V30 15120 S 1439.77 -5.34399 -0.343204 0
M  V30 15121 C 1440.93 -6.06266 -1.55538 0
M  V30 15122 H 1441.16 -2.97282 0.0323028 0
M  V30 15123 H 1438.69 -1.53804 0.13549 0
M  V30 15124 H 1440.65 -3.29961 -2.44204 0
M  V30 15125 H 1439.31 -2.14025 -2.29896 0
M  V30 15126 H 1438.5 -4.52027 -2.22907 0
M  V30 15127 H 1438.11 -3.67046 -0.717841 0
M  V30 15128 H 1440.4 -6.30137 -2.48865 0
M  V30 15129 H 1441.34 -6.9904 -1.12907 0
M  V30 15130 H 1441.75 -5.36526 -1.755 0
M  V30 15131 N 1441.15 -0.0802183 -1.57396 0
M  V30 15132 C 1442.4 0.586573 -1.92982 0
M  V30 15133 C 1442.71 1.70256 -0.962918 0
M  V30 15134 O 1443.92 2.4295 -1.21193 0
M  V30 15135 C 1442.37 1.09475 -3.42846 0
M  V30 15136 C 1441.98 0.0093098 -4.47999 0
M  V30 15137 C 1443.72 1.73512 -3.87419 0
M  V30 15138 C 1441.63 0.532002 -5.89002 0
M  V30 15139 H 1440.56 0.222878 -0.720306 0
M  V30 15140 H 1443.21 -0.153816 -1.82854 0
M  V30 15141 H 1441.59 1.88836 -3.48076 0
M  V30 15142 H 1442.77 -0.765609 -4.54395 0
M  V30 15143 H 1441.08 -0.535345 -4.12944 0
M  V30 15144 H 1443.68 2.13665 -4.90154 0
M  V30 15145 H 1444.02 2.59845 -3.25248 0
M  V30 15146 H 1444.56 1.00758 -3.84828 0
M  V30 15147 H 1441.29 -0.294364 -6.54839 0
M  V30 15148 H 1440.81 1.27425 -5.86108 0
M  V30 15149 H 1442.49 1.00573 -6.39135 0
M  V30 15150 N 1442.63 1.56409 0.193394 0
M  V30 15151 C 1443.59 1.93822 1.22334 0
M  V30 15152 C 1444.59 0.819513 1.3835 0
M  V30 15153 O 1445.78 1.0869 1.36132 0
M  V30 15154 C 1442.91 2.21375 2.59241 0
M  V30 15155 H 1444.1 2.85967 0.903502 0
M  V30 15156 H 1441.66 1.50125 0.43498 0
M  V30 15157 H 1442.39 1.31874 2.96277 0
M  V30 15158 H 1442.18 3.02899 2.48988 0
M  V30 15159 H 1443.67 2.51319 3.33509 0
M  V30 15160 N 1444.1 -0.461169 1.50702 0
M  V30 15161 C 1445.33 -1.24019 1.66235 0
M  V30 15162 C 1445.75 -1.84827 0.349388 0
M  V30 15163 O 1445.11 -1.67743 -0.687888 0
M  V30 15164 C 1445.16 -2.31743 2.76274 0
M  V30 15165 O 1444.26 -3.3664 2.38217 0
M  V30 15166 H 1443.6 -0.364424 0.55506 0
M  V30 15167 H 1446.13 -0.547636 1.97135 0
M  V30 15168 H 1446.14 -2.76902 2.99649 0
M  V30 15169 H 1444.82 -1.86858 3.7156 0
M  V30 15170 H 1443.4 -2.97123 2.25327 0
M  V30 15171 N 1445.58 -1.40446 -0.715026 0
M  V30 15172 C 1446.83 -1.3896 -1.47709 0
M  V30 15173 C 1447.16 0.00798698 -1.94198 0
M  V30 15174 O 1446.44 0.976732 -1.68197 0
M  V30 15175 C 1446.72 -2.37955 -2.70277 0
M  V30 15176 C 1446.57 -3.8674 -2.29678 0
M  V30 15177 C 1447.89 -2.34478 -3.72435 0
M  V30 15178 H 1445.01 -0.50607 -0.535782 0
M  V30 15179 H 1447.65 -1.71585 -0.815999 0
M  V30 15180 H 1445.8 -2.10264 -3.26682 0
M  V30 15181 H 1447.47 -4.2526 -1.7875 0
M  V30 15182 H 1445.72 -4.02547 -1.61674 0
M  V30 15183 H 1446.39 -4.51524 -3.17538 0
M  V30 15184 H 1448.86 -2.59007 -3.2566 0
M  V30 15185 H 1447.74 -3.05791 -4.55832 0
M  V30 15186 H 1448 -1.35661 -4.20771 0
M  V30 15187 N 1447.06 0.947303 -1.25952 0
M  V30 15188 C 1448.28 1.73261 -1.13997 0
M  V30 15189 C 1448.71 1.85666 0.301639 0
M  V30 15190 O 1448.07 1.34244 1.21854 0
M  V30 15191 C 1448.12 3.12046 -1.8072 0
M  V30 15192 O 1447.22 3.97684 -1.09182 0
M  V30 15193 H 1446.56 0.53182 -0.397572 0
M  V30 15194 H 1449.09 1.18689 -1.66656 0
M  V30 15195 H 1449.1 3.62468 -1.87299 0
M  V30 15196 H 1447.78 3.02334 -2.856 0
M  V30 15197 H 1446.35 3.56141 -1.10536 0
M  V30 15198 N 1448.54 1.07657 1.15099 0
M  V30 15199 C 1449.79 0.800025 1.85591 0
M  V30 15200 C 1450.11 -0.675973 1.82909 0
M  V30 15201 O 1449.38 -1.48971 1.27218 0
M  V30 15202 H 1447.96 0.292958 0.687157 0
M  V30 15203 H 1450.62 1.36096 1.39513 0
M  V30 15204 H 1449.72 1.13733 2.90639 0
M  V30 15205 N 1450.02 -1.31994 0.861122 0
M  V30 15206 C 1451.24 -2.01745 0.481013 0
M  V30 15207 C 1451.67 -1.6426 -0.916527 0
M  V30 15208 O 1451.02 -0.846603 -1.60319 0
M  V30 15209 C 1451.07 -3.54963 0.635134 0
M  V30 15210 O 1450.18 -4.11083 -0.329337 0
M  V30 15211 H 1449.52 -0.635499 0.192452 0
M  V30 15212 H 1452.05 -1.68394 1.1621 0
M  V30 15213 H 1452.06 -4.04607 0.525089 0
M  V30 15214 H 1450.73 -3.81587 1.65422 0
M  V30 15215 H 1449.31 -3.72489 -0.174989 0
M  V30 15216 N 1451.49 -0.619688 -1.44906 0
M  V30 15217 C 1452.42 0.0791121 -2.33366 0
M  V30 15218 C 1453.41 0.846503 -1.47541 0
M  V30 15219 O 1454.59 0.814657 -1.76287 0
M  V30 15220 C 1451.72 1.06901 -3.30438 0
M  V30 15221 C 1450.67 0.41403 -4.25993 0
M  V30 15222 C 1450 1.51303 -5.12846 0
M  V30 15223 C 1451.3 -0.672483 -5.17953 0
M  V30 15224 H 1452.99 -0.659551 -2.92045 0
M  V30 15225 H 1450.54 -0.318623 -1.40431 0
M  V30 15226 H 1452.49 1.56653 -3.912 0
M  V30 15227 H 1451.22 1.83842 -2.69944 0
M  V30 15228 H 1449.88 -0.0627315 -3.66546 0
M  V30 15229 H 1449.52 2.27303 -4.48712 0
M  V30 15230 H 1449.22 1.08022 -5.77586 0
M  V30 15231 H 1450.75 2.01258 -5.76479 0
M  V30 15232 H 1452.16 -0.258542 -5.72717 0
M  V30 15233 H 1450.56 -1.02776 -5.91234 0
M  V30 15234 H 1451.63 -1.54425 -4.59653 0
M  V30 15235 N 1452.97 1.53444 -0.359552 0
M  V30 15236 C 1453.92 2.25544 0.48977 0
M  V30 15237 C 1454.89 1.25982 1.08248 0
M  V30 15238 O 1456.07 1.54751 1.1161 0
M  V30 15239 C 1453.21 3.04358 1.62666 0
M  V30 15240 C 1452.33 4.18801 1.0597 0
M  V30 15241 C 1451.46 4.85069 2.1652 0
M  V30 15242 C 1450.5 5.91554 1.57259 0
M  V30 15243 N 1449.64 6.51537 2.61617 0
M  V30 15244 H 1454.48 2.97709 -0.13158 0
M  V30 15245 H 1452.02 1.469 -0.0767056 0
M  V30 15246 H 1453.97 3.48324 2.29623 0
M  V30 15247 H 1452.6 2.34459 2.21876 0
M  V30 15248 H 1451.66 3.79364 0.280599 0
M  V30 15249 H 1452.97 4.95341 0.586383 0
M  V30 15250 H 1452.12 5.32187 2.9131 0
M  V30 15251 H 1450.86 4.07988 2.67202 0
M  V30 15252 H 1449.87 5.43803 0.809818 0
M  V30 15253 H 1451.09 6.70552 1.07409 0
M  V30 15254 H 1449.04 5.77312 3.11523 0
M  V30 15255 H 1448.95 7.23599 2.18954 0
M  V30 15256 H 1450.22 7.03306 3.36127 0
M  V30 15257 N 1454.45 0.0885642 1.57351 0
M  V30 15258 C 1455.4 -0.890284 2.14888 0
M  V30 15259 C 1456.39 -1.29671 1.09004 0
M  V30 15260 O 1457.6 -1.272 1.27359 0
M  V30 15261 H 1453.97 -0.305107 0.687324 0
M  V30 15262 H 1455.94 -0.380243 2.95967 0
M  V30 15263 C 1454.69 -2.14216 2.73874 0
M  V30 15264 H 1454.02 -1.8383 3.55031 0
M  V30 15265 H 1455.46 -2.8078 3.17708 0
M  V30 15266 C 1453.92 -2.91186 1.69448 0
M  V30 15267 O 1454.45 -3.85494 1.12949 0
M  V30 15268 N 1452.65 -2.54603 1.40091 0
M  V30 15269 H 1452.2 -1.77984 1.86225 0
M  V30 15270 H 1452.16 -3.06403 0.704577 0
M  V30 15271 N 1455.93 -1.56509 -0.185096 0
M  V30 15272 C 1456.86 -1.91878 -1.25361 0
M  V30 15273 C 1457.87 -0.810443 -1.41194 0
M  V30 15274 O 1459.06 -1.08887 -1.41442 0
M  V30 15275 C 1456.16 -2.14433 -2.62434 0
M  V30 15276 C 1455.34 -3.45618 -2.6808 0
M  V30 15277 C 1454.39 -3.57165 -3.86419 0
M  V30 15278 O 1453.42 -4.29904 -3.73056 0
M  V30 15279 N 1454.62 -2.90993 -5.02298 0
M  V30 15280 H 1457.39 -2.84133 -0.953328 0
M  V30 15281 H 1454.95 -1.57498 -0.374955 0
M  V30 15282 H 1456.94 -2.19437 -3.40044 0
M  V30 15283 H 1455.51 -1.28629 -2.84909 0
M  V30 15284 H 1454.73 -3.52394 -1.76669 0
M  V30 15285 H 1456.02 -4.31968 -2.68851 0
M  V30 15286 H 1455.42 -2.31743 -5.16054 0
M  V30 15287 H 1453.97 -3.01611 -5.77819 0
M  V30 15288 N 1457.41 0.45317 -1.50944 0
M  V30 15289 C 1458.66 1.20076 -1.62064 0
M  V30 15290 C 1458.97 1.92709 -0.335034 0
M  V30 15291 O 1460.17 2.69543 -0.32538 0
M  V30 15292 C 1458.63 2.18283 -2.86148 0
M  V30 15293 C 1458.24 1.5137 -4.21653 0
M  V30 15294 C 1459.98 2.93572 -3.0662 0
M  V30 15295 C 1457.89 2.47968 -5.36904 0
M  V30 15296 H 1456.82 0.451894 -0.603579 0
M  V30 15297 H 1459.47 0.46937 -1.77396 0
M  V30 15298 H 1457.85 2.94789 -2.64415 0
M  V30 15299 H 1459.03 0.805295 -4.53709 0
M  V30 15300 H 1457.34 0.882935 -4.06931 0
M  V30 15301 H 1459.94 3.65903 -3.89897 0
M  V30 15302 H 1460.28 3.54003 -2.1906 0
M  V30 15303 H 1460.81 2.24175 -3.28619 0
M  V30 15304 H 1457.55 1.92249 -6.26674 0
M  V30 15305 H 1457.07 3.16907 -5.09244 0
M  V30 15306 H 1458.75 3.09428 -5.6821 0
M  V30 15307 N 1458.88 1.40823 0.707568 0
M  V30 15308 C 1459.83 1.4191 1.84294 0
M  V30 15309 C 1460.83 0.298592 1.66748 0
M  V30 15310 O 1462.03 0.47003 1.73755 0
M  V30 15311 H 1458.41 0.44376 0.607109 0
M  V30 15312 H 1460.38 2.37623 1.80494 0
M  V30 15313 C 1459.13 1.30643 3.22223 0
M  V30 15314 H 1458.45 2.16145 3.36335 0
M  V30 15315 H 1459.89 1.35463 4.01778 0
M  V30 15316 C 1458.35 0.0174867 3.36895 0
M  V30 15317 O 1458.88 -0.942398 3.90489 0
M  V30 15318 N 1457.09 -0.0546572 2.90549 0
M  V30 15319 H 1456.63 0.727204 2.47122 0
M  V30 15320 H 1456.59 -0.916521 3.00744 0
M  V30 15321 N 1460.36 -0.94061 1.26453 0
M  V30 15322 C 1461.61 -1.68937 1.12197 0
M  V30 15323 C 1461.94 -1.91309 -0.33382 0
M  V30 15324 O 1461.22 -1.49417 -1.24518 0
M  V30 15325 C 1461.5 -3.06381 1.89215 0
M  V30 15326 C 1461.35 -2.91331 3.42704 0
M  V30 15327 C 1462.67 -4.06507 1.68642 0
M  V30 15328 H 1459.79 -0.613121 0.408964 0
M  V30 15329 H 1462.43 -1.09242 1.55455 0
M  V30 15330 H 1460.58 -3.57339 1.5245 0
M  V30 15331 H 1462.25 -2.47591 3.89226 0
M  V30 15332 H 1460.5 -2.26945 3.697 0
M  V30 15333 H 1461.17 -3.88818 3.91822 0
M  V30 15334 H 1463.64 -3.64512 2.00674 0
M  V30 15335 H 1462.52 -5.0069 2.24945 0
M  V30 15336 H 1462.78 -4.37572 0.631131 0
M  V30 15337 N 1461.84 -1.08266 -1.14527 0
M  V30 15338 C 1463.09 -0.812661 -1.85805 0
M  V30 15339 C 1463.42 0.659878 -1.82645 0
M  V30 15340 O 1462.69 1.48498 -1.25612 0
M  V30 15341 C 1462.98 -1.33335 -3.34505 0
M  V30 15342 C 1462.83 -2.87113 -3.46246 0
M  V30 15343 C 1464.15 -0.957435 -4.29559 0
M  V30 15344 H 1461.27 -0.296681 -0.674648 0
M  V30 15345 H 1463.91 -1.34203 -1.34497 0
M  V30 15346 H 1462.06 -0.883056 -3.78331 0
M  V30 15347 H 1463.73 -3.40502 -3.11217 0
M  V30 15348 H 1461.98 -3.24845 -2.87504 0
M  V30 15349 H 1462.65 -3.18618 -4.50762 0
M  V30 15350 H 1465.12 -1.3456 -3.93742 0
M  V30 15351 H 1464 -1.34897 -5.32066 0
M  V30 15352 H 1464.26 0.135689 -4.41892 0
M  V30 15353 N 1463.32 1.31536 -0.86811 0
M  V30 15354 C 1464.57 1.96386 -0.477176 0
M  V30 15355 C 1464.89 1.68968 0.973381 0
M  V30 15356 O 1464.16 1.00409 1.68211 0
M  V30 15357 H 1462.74 0.726579 -0.173468 0
M  V30 15358 H 1465.4 1.60377 -1.10749 0
M  V30 15359 H 1464.5 3.05606 -0.633376 0
M  V30 15360 N 1464.8 0.627364 1.44575 0
M  V30 15361 C 1466.21 0.292662 1.56894 0
M  V30 15362 C 1466.41 -1.20429 1.61552 0
M  V30 15363 O 1465.47 -1.98819 1.55651 0
M  V30 15364 C 1466.78 0.981267 2.84239 0
M  V30 15365 C 1468.33 0.959053 2.97945 0
M  V30 15366 C 1468.81 1.62805 4.28087 0
M  V30 15367 N 1470.3 1.59446 4.34892 0
M  V30 15368 C 1471.03 2.08107 5.34302 0
M  V30 15369 N 1470.53 2.64942 6.40139 0
M  V30 15370 N 1472.32 1.98758 5.25787 0
M  V30 15371 H 1464.47 1.5991 1.39795 0
M  V30 15372 H 1466.73 0.671019 0.669655 0
M  V30 15373 H 1466.44 2.0361 2.86768 0
M  V30 15374 H 1466.31 0.516703 3.73644 0
M  V30 15375 H 1468.7 -0.0872902 2.94971 0
M  V30 15376 H 1468.78 1.46207 2.09898 0
M  V30 15377 H 1468.43 2.67382 4.31821 0
M  V30 15378 H 1468.36 1.09989 5.14985 0
M  V30 15379 H 1470.85 1.17947 3.59022 0
M  V30 15380 H 1471.16 2.99814 7.12272 0
M  V30 15381 H 1469.51 2.68991 6.40835 0
M  V30 15382 H 1472.7 1.54081 4.42014 0
M  V30 15383 H 1472.87 2.36992 6.03107 0
M  V30 15384 N 1466.28 -1.53251 0.367684 0
M  V30 15385 C 1467.5 -2.05705 -0.222047 0
M  V30 15386 C 1467.92 -1.24104 -1.4228 0
M  V30 15387 O 1467.28 -0.282228 -1.80305 0
M  V30 15388 C 1467.33 -3.56257 -0.613475 0
M  V30 15389 O 1467.05 -4.34765 0.539558 0
M  V30 15390 C 1468.55 -4.24976 -1.26137 0
M  V30 15391 H 1465.77 -0.66989 -0.0385799 0
M  V30 15392 H 1468.31 -1.97602 0.526663 0
M  V30 15393 H 1466.47 -3.64503 -1.3121 0
M  V30 15394 H 1466.88 -5.24027 0.222699 0
M  V30 15395 H 1468.36 -5.31628 -1.4858 0
M  V30 15396 H 1468.83 -3.78828 -2.2223 0
M  V30 15397 H 1469.44 -4.20987 -0.604121 0
M  V30 15398 N 1467.75 -0.0969077 -1.57302 0
M  V30 15399 C 1469 0.567212 -1.94706 0
M  V30 15400 C 1469.33 1.67721 -0.978937 0
M  V30 15401 O 1468.61 1.94496 -0.0123016 0
M  V30 15402 C 1468.89 1.12069 -3.42217 0
M  V30 15403 C 1468.74 0.015615 -4.49797 0
M  V30 15404 C 1470.06 2.0185 -3.91081 0
M  V30 15405 H 1467.18 0.204716 -0.707997 0
M  V30 15406 H 1469.82 -0.167984 -1.89256 0
M  V30 15407 H 1467.97 1.74723 -3.46993 0
M  V30 15408 H 1469.65 -0.61871 -4.57132 0
M  V30 15409 H 1467.89 -0.650529 -4.28895 0
M  V30 15410 H 1468.56 0.443724 -5.50214 0
M  V30 15411 H 1471.04 1.49098 -3.8847 0
M  V30 15412 H 1469.91 2.37502 -4.94858 0
M  V30 15413 H 1470.17 2.93659 -3.3048 0
M  V30 15414 N 1469.23 1.56605 0.176793 0
M  V30 15415 C 1470.64 1.71418 0.739775 0
M  V30 15416 C 1470.99 0.706527 1.83037 0
M  V30 15417 O 1470.12 -0.133259 2.15989 0
M  V30 15418 C 1470.71 3.10799 1.34867 0
M  V30 15419 C 1469.27 3.27315 1.85854 0
M  V30 15420 C 1468.42 2.67371 0.73541 0
M  V30 15421 H 1471.37 1.58626 -0.0485305 0
M  V30 15422 H 1471.39 3.09146 2.21831 0
M  V30 15423 H 1470.9 3.84116 0.554688 0
M  V30 15424 H 1469 2.58947 2.67913 0
M  V30 15425 H 1469.12 4.35002 2.00774 0
M  V30 15426 H 1467.48 2.27035 1.15444 0
M  V30 15427 H 1468.26 3.43268 -0.0466351 0
M  V30 15428 N 1470.71 -0.445159 1.51182 0
M  V30 15429 C 1471.67 -1.52224 1.71349 0
M  V30 15430 C 1472.67 -1.49834 0.583632 0
M  V30 15431 O 1473.86 -1.51995 0.85107 0
M  V30 15432 C 1470.99 -2.91789 1.76273 0
M  V30 15433 H 1472.19 -1.35649 2.67468 0
M  V30 15434 H 1469.74 -0.673312 1.41054 0
M  V30 15435 H 1470.48 -3.13777 0.819405 0
M  V30 15436 H 1470.26 -2.94928 2.58379 0
M  V30 15437 H 1471.75 -3.69938 1.93741 0
M  V30 15438 N 1472.19 -1.41197 -0.700089 0
M  V30 15439 C 1473.41 -1.43856 -1.494 0
M  V30 15440 C 1473.84 -0.0441877 -1.88048 0
M  V30 15441 O 1473.2 0.951503 -1.54325 0
M  V30 15442 C 1473.24 -2.34913 -2.73584 0
M  V30 15443 O 1472.35 -1.80305 -3.70896 0
M  V30 15444 H 1471.69 -0.488412 -0.449833 0
M  V30 15445 H 1474.22 -1.85606 -0.860911 0
M  V30 15446 H 1474.23 -2.50633 -3.21943 0
M  V30 15447 H 1472.9 -3.36229 -2.44791 0
M  V30 15448 H 1471.48 -1.74012 -3.29809 0
M  V30 15449 N 1473.67 0.933891 -1.2695 0
M  V30 15450 C 1474.91 1.6834 -1.13091 0
M  V30 15451 C 1475.24 1.91484 0.32367 0
M  V30 15452 O 1474.52 1.50075 1.23724 0
M  V30 15453 C 1474.8 3.05374 -1.90838 0
M  V30 15454 C 1474.66 2.8951 -3.44244 0
M  V30 15455 C 1475.97 4.05607 -1.70795 0
M  V30 15456 H 1473.09 0.610944 -0.41221 0
M  V30 15457 H 1475.74 1.08416 -1.56032 0
M  V30 15458 H 1473.89 3.56526 -1.54343 0
M  V30 15459 H 1475.56 2.45523 -3.90533 0
M  V30 15460 H 1473.8 2.24981 -3.70899 0
M  V30 15461 H 1474.47 3.86734 -3.93879 0
M  V30 15462 H 1476.95 3.63443 -2.02604 0
M  V30 15463 H 1475.82 4.9949 -2.27597 0
M  V30 15464 H 1476.08 4.37231 -0.654327 0
M  V30 15465 N 1475.14 1.08871 1.13951 0
M  V30 15466 C 1476.08 0.680849 2.18854 0
M  V30 15467 C 1477.09 -0.274456 1.6047 0
M  V30 15468 O 1478.28 -0.0613804 1.78394 0
M  V30 15469 C 1475.38 -0.0182788 3.38895 0
M  V30 15470 C 1474.55 0.957125 4.268 0
M  V30 15471 C 1473.61 0.29245 5.25387 0
M  V30 15472 O 1472.64 0.938329 5.61413 0
M  V30 15473 N 1473.84 -0.955738 5.72578 0
M  V30 15474 H 1476.6 1.58334 2.54461 0
M  V30 15475 H 1474.16 0.975417 1.29218 0
M  V30 15476 H 1476.16 -0.474001 4.01915 0
M  V30 15477 H 1474.73 -0.822932 3.01574 0
M  V30 15478 H 1473.95 1.59156 3.60642 0
M  V30 15479 H 1475.23 1.61792 4.82391 0
M  V30 15480 H 1474.63 -1.50014 5.45447 0
M  V30 15481 H 1473.19 -1.35488 6.37563 0
M  V30 15482 N 1476.62 -1.31073 0.875073 0
M  V30 15483 C 1477.87 -1.9613 0.487584 0
M  V30 15484 C 1478.19 -1.69482 -0.964407 0
M  V30 15485 O 1477.46 -1.013 -1.67676 0
M  V30 15486 H 1476.04 -0.725649 0.177319 0
M  V30 15487 H 1478.7 -1.59787 1.11598 0
M  V30 15488 H 1477.8 -3.05265 0.649574 0
M  V30 15489 N 1478.1 -0.635022 -1.4424 0
M  V30 15490 C 1479.35 -0.141276 -2.02307 0
M  V30 15491 C 1479.68 1.23508 -1.49865 0
M  V30 15492 O 1478.95 1.82065 -0.684291 0
M  V30 15493 C 1479.24 -0.132196 -3.59857 0
M  V30 15494 C 1479.09 -1.54117 -4.22573 0
M  V30 15495 C 1480.41 0.541186 -4.3676 0
M  V30 15496 H 1477.53 -0.0528117 -0.735105 0
M  V30 15497 H 1480.17 -0.812239 -1.71763 0
M  V30 15498 H 1478.32 0.439156 -3.8601 0
M  V30 15499 H 1479.99 -2.16171 -4.07514 0
M  V30 15500 H 1478.24 -2.09389 -3.79919 0
M  V30 15501 H 1478.91 -1.48682 -5.31599 0
M  V30 15502 H 1481.38 0.0552603 -4.16063 0
M  V30 15503 H 1480.26 0.516742 -5.46462 0
M  V30 15504 H 1480.52 1.61222 -4.11655 0
M  V30 15505 N 1479.58 1.53054 -0.375806 0
M  V30 15506 C 1480.83 2.00584 0.211847 0
M  V30 15507 C 1481.14 1.26692 1.49025 0
M  V30 15508 O 1482.35 1.64863 2.15713 0
M  V30 15509 C 1480.8 3.57345 0.428074 0
M  V30 15510 C 1480.41 4.40125 -0.836299 0
M  V30 15511 C 1482.15 4.13203 0.972825 0
M  V30 15512 C 1480.06 5.88459 -0.589093 0
M  V30 15513 H 1478.99 0.749424 0.0829412 0
M  V30 15514 H 1481.64 1.76666 -0.496126 0
M  V30 15515 H 1480.02 3.77458 1.19756 0
M  V30 15516 H 1481.2 4.31782 -1.60936 0
M  V30 15517 H 1479.51 3.95422 -1.30501 0
M  V30 15518 H 1482.11 5.21669 1.17326 0
M  V30 15519 H 1482.45 3.68441 1.93797 0
M  V30 15520 H 1482.99 3.96928 0.263249 0
M  V30 15521 H 1479.73 6.37517 -1.52485 0
M  V30 15522 H 1479.25 5.99624 0.145285 0
M  V30 15523 H 1480.92 6.46631 -0.218485 0
M  V30 15524 N 1481.06 0.105248 1.57248 0
M  V30 15525 C 1482.02 -0.835589 2.13426 0
M  V30 15526 C 1483.02 -1.20398 1.06587 0
M  V30 15527 O 1484.21 -1.13175 1.32428 0
M  V30 15528 C 1481.34 -2.12806 2.6632 0
M  V30 15529 H 1482.53 -0.347606 2.97879 0
M  V30 15530 H 1480.09 -0.143855 1.55637 0
M  V30 15531 H 1480.82 -2.66066 1.85416 0
M  V30 15532 H 1480.61 -1.87352 3.44444 0
M  V30 15533 H 1482.1 -2.80089 3.09741 0
M  V30 15534 N 1482.53 -1.56697 -0.168486 0
M  V30 15535 C 1483.81 -1.73032 -0.912097 0
M  V30 15536 C 1484.19 -0.667424 -2.00271 0
M  V30 15537 O 1483.54 0.317307 -2.26286 0
M  V30 15538 C 1483.75 -3.16334 -1.47424 0
M  V30 15539 C 1485.1 -3.77378 -1.94606 0
M  V30 15540 O 1486.12 -3.19629 -1.57212 0
M  V30 15541 O 1484.98 -4.78781 -2.63497 0
M  V30 15542 H 1482.07 -0.706713 -0.429518 0
M  V30 15543 H 1484.62 -1.68981 -0.156093 0
M  V30 15544 H 1483.39 -3.85179 -0.689421 0
M  V30 15545 H 1483.02 -3.24723 -2.29435 0
M  V30 15546 N 1484.01 0.437135 -1.51416 0
M  V30 15547 C 1484.96 1.55124 -1.73319 0
M  V30 15548 C 1485.95 1.58437 -0.599511 0
M  V30 15549 O 1487.16 1.62179 -0.780896 0
M  V30 15550 H 1483.54 0.515368 -0.547632 0
M  V30 15551 H 1485.51 1.33824 -2.66709 0
M  V30 15552 C 1484.26 2.92778 -1.87554 0
M  V30 15553 H 1483.58 2.9096 -2.74194 0
M  V30 15554 H 1485.02 3.70097 -2.06891 0
M  V30 15555 C 1483.48 3.30854 -0.635408 0
M  V30 15556 O 1484.01 4.01152 0.20983 0
M  V30 15557 N 1482.21 2.86618 -0.47944 0
M  V30 15558 H 1481.76 2.29582 -1.16834 0
M  V30 15559 H 1481.72 3.12456 0.349078 0
M  V30 15560 N 1485.49 1.41566 0.692592 0
M  V30 15561 C 1486.45 1.43369 1.78824 0
M  V30 15562 C 1487.45 0.323867 1.57505 0
M  V30 15563 O 1488.64 0.583885 1.64123 0
M  V30 15564 C 1485.78 1.24798 3.17235 0
M  V30 15565 H 1486.97 2.40906 1.78617 0
M  V30 15566 H 1484.52 1.27752 0.900508 0
M  V30 15567 H 1485.26 0.281129 3.23079 0
M  V30 15568 H 1485.04 2.05212 3.34111 0
M  V30 15569 H 1486.53 1.28902 3.97208 0
M  V30 15570 N 1486.97 -0.927146 1.27443 0
M  V30 15571 C 1488.2 -1.70648 1.1646 0
M  V30 15572 C 1488.61 -1.871 -0.28114 0
M  V30 15573 O 1487.95 -1.38813 -1.20319 0
M  V30 15574 C 1488.01 -3.12542 1.77646 0
M  V30 15575 C 1487.68 -3.19425 3.26828 0
M  V30 15576 C 1488.67 -3.01633 4.23454 0
M  V30 15577 C 1486.36 -3.42366 3.67547 0
M  V30 15578 C 1488.35 -3.06672 5.58776 0
M  V30 15579 C 1486.04 -3.47039 5.02998 0
M  V30 15580 C 1487.04 -3.2921 5.98423 0
M  V30 15581 O 1486.72 -3.33619 7.31405 0
M  V30 15582 H 1486.46 -0.540657 0.40579 0
M  V30 15583 H 1489.01 -1.16983 1.68832 0
M  V30 15584 H 1487.24 -3.67691 1.19752 0
M  V30 15585 H 1488.93 -3.72445 1.61369 0
M  V30 15586 H 1489.7 -2.8375 3.93333 0
M  V30 15587 H 1485.57 -3.55294 2.93747 0
M  V30 15588 H 1489.12 -2.92674 6.33236 0
M  V30 15589 H 1485.02 -3.64446 5.32775 0
M  V30 15590 H 1485.78 -3.5007 7.3986 0
M  V30 15591 N 1488.45 -1.09474 -1.13372 0
M  V30 15592 C 1489.67 -0.853093 -1.89043 0
M  V30 15593 C 1490.1 0.590075 -1.78605 0
M  V30 15594 O 1489.45 1.41462 -1.13394 0
M  V30 15595 C 1489.5 -1.29359 -3.36599 0
M  V30 15596 O 1488.61 -0.452355 -4.09912 0
M  V30 15597 H 1487.95 -0.308922 -0.587761 0
M  V30 15598 H 1490.48 -1.459 -1.43437 0
M  V30 15599 H 1490.49 -1.27921 -3.87428 0
M  V30 15600 H 1489.16 -2.3446 -3.43513 0
M  V30 15601 H 1487.74 -0.531098 -3.69099 0
M  V30 15602 N 1489.92 1.30607 -0.882012 0
M  V30 15603 C 1491.15 2.00954 -0.513048 0
M  V30 15604 C 1491.57 1.65697 0.890279 0
M  V30 15605 O 1490.93 0.872001 1.58952 0
M  V30 15606 C 1490.98 3.53907 -0.691525 0
M  V30 15607 O 1490.08 4.11555 0.263896 0
M  V30 15608 H 1489.43 0.632356 -0.202537 0
M  V30 15609 H 1491.96 1.66524 -1.18874 0
M  V30 15610 H 1491.97 4.0372 -0.589392 0
M  V30 15611 H 1490.64 3.78907 -1.71471 0
M  V30 15612 H 1489.22 3.7272 0.115707 0
M  V30 15613 N 1491.4 0.642663 1.43901 0
M  V30 15614 C 1492.63 0.158971 2.05987 0
M  V30 15615 C 1493.04 -1.17635 1.48184 0
M  V30 15616 O 1492.38 -1.73499 0.603634 0
M  V30 15617 C 1492.45 -0.0178946 3.59496 0
M  V30 15618 C 1492.11 1.24107 4.39826 0
M  V30 15619 C 1493.11 2.16742 4.72566 0
M  V30 15620 C 1490.79 1.47971 4.8001 0
M  V30 15621 C 1492.79 3.31541 5.44389 0
M  V30 15622 C 1490.47 2.63065 5.5158 0
M  V30 15623 C 1491.47 3.54676 5.8369 0
M  V30 15624 O 1491.16 4.67763 6.53799 0
M  V30 15625 H 1490.89 0.0822826 0.670974 0
M  V30 15626 H 1493.44 0.880492 1.85571 0
M  V30 15627 H 1491.67 -0.79468 3.78446 0
M  V30 15628 H 1493.36 -0.457601 4.03312 0
M  V30 15629 H 1494.13 1.99543 4.42049 0
M  V30 15630 H 1490.01 0.775488 4.54431 0
M  V30 15631 H 1493.55 4.03069 5.69369 0
M  V30 15632 H 1489.45 2.80202 5.81513 0
M  V30 15633 H 1490.22 4.66892 6.72275 0
M  V30 15634 N 1492.88 -1.52852 0.383918 0
M  V30 15635 C 1494.11 -2.06406 -0.202764 0
M  V30 15636 C 1494.53 -1.25421 -1.40183 0
M  V30 15637 O 1493.89 -0.277876 -1.79158 0
M  V30 15638 C 1493.94 -3.56281 -0.556414 0
M  V30 15639 O 1493.04 -3.77904 -1.65113 0
M  V30 15640 H 1492.38 -0.663523 -0.0251737 0
M  V30 15641 H 1494.91 -1.97074 0.54983 0
M  V30 15642 H 1494.92 -3.99629 -0.822249 0
M  V30 15643 H 1493.6 -4.14665 0.320253 0
M  V30 15644 H 1492.17 -3.46448 -1.37943 0
M  V30 15645 N 1494.36 -0.113586 -1.5719 0
M  V30 15646 C 1495.29 0.835363 -2.18046 0
M  V30 15647 C 1496.27 1.28114 -1.11897 0
M  V30 15648 O 1497.46 1.34472 -1.40111 0
M  V30 15649 C 1494.59 2.08759 -2.77556 0
M  V30 15650 C 1493.54 1.77979 -3.8924 0
M  V30 15651 C 1492.87 3.10185 -4.35533 0
M  V30 15652 C 1494.17 1.05231 -5.11589 0
M  V30 15653 H 1495.86 0.328275 -2.97595 0
M  V30 15654 H 1493.41 0.156456 -1.43148 0
M  V30 15655 H 1495.36 2.75597 -3.18785 0
M  V30 15656 H 1494.08 2.61783 -1.95288 0
M  V30 15657 H 1492.74 1.13532 -3.48577 0
M  V30 15658 H 1492.39 3.61133 -3.50131 0
M  V30 15659 H 1492.09 2.90367 -5.10843 0
M  V30 15660 H 1493.61 3.78151 -4.7941 0
M  V30 15661 H 1495.03 1.62213 -5.49872 0
M  V30 15662 H 1493.42 0.955269 -5.92448 0
M  V30 15663 H 1494.49 0.038137 -4.84885 0
M  V30 15664 N 1495.84 1.56784 0.160173 0
M  V30 15665 C 1497.09 1.81812 0.873344 0
M  V30 15666 C 1497.4 0.692686 1.82924 0
M  V30 15667 O 1498.61 0.828202 2.5856 0
M  V30 15668 C 1497.06 3.222 1.6036 0
M  V30 15669 C 1496.67 4.42642 0.690776 0
M  V30 15670 C 1498.41 3.56512 2.30433 0
M  V30 15671 C 1496.32 5.74052 1.4219 0
M  V30 15672 H 1495.25 0.678013 0.32987 0
M  V30 15673 H 1497.9 1.83066 0.126164 0
M  V30 15674 H 1496.28 3.15295 2.39593 0
M  V30 15675 H 1497.46 4.60754 -0.0653914 0
M  V30 15676 H 1495.77 4.16282 0.09913 0
M  V30 15677 H 1498.37 4.51942 2.85749 0
M  V30 15678 H 1498.71 2.8193 3.06303 0
M  V30 15679 H 1499.25 3.65019 1.58132 0
M  V30 15680 H 1495.98 6.51694 0.705318 0
M  V30 15681 H 1495.5 5.59899 2.15111 0
M  V30 15682 H 1497.18 6.16395 1.96639 0
M  V30 15683 N 1497.32 -0.429099 1.51646 0
M  V30 15684 C 1498.56 -1.17958 1.64966 0
M  V30 15685 C 1498.89 -1.90667 0.368755 0
M  V30 15686 O 1498.17 -1.83945 -0.632023 0
M  V30 15687 C 1498.45 -2.19002 2.8585 0
M  V30 15688 C 1498.31 -1.50321 4.23938 0
M  V30 15689 C 1499.62 -3.19895 3.0225 0
M  V30 15690 H 1496.74 -0.427474 0.600362 0
M  V30 15691 H 1499.39 -0.46777 1.84152 0
M  V30 15692 H 1497.54 -2.79707 2.69623 0
M  V30 15693 H 1499.21 -0.928902 4.51851 0
M  V30 15694 H 1497.45 -0.805431 4.26257 0
M  V30 15695 H 1498.12 -2.2395 5.0453 0
M  V30 15696 H 1500.6 -2.69251 3.17243 0
M  V30 15697 H 1499.47 -3.8788 3.88381 0
M  V30 15698 H 1499.73 -3.86477 2.14682 0
M  V30 15699 N 1498.79 -1.41931 -0.685074 0
M  V30 15700 C 1500.02 -1.45432 -1.47866 0
M  V30 15701 C 1500.44 -0.0641302 -1.87991 0
M  V30 15702 O 1499.8 0.935081 -1.55325 0
M  V30 15703 C 1499.85 -2.37801 -2.71077 0
M  V30 15704 O 1498.95 -1.84229 -3.68963 0
M  V30 15705 H 1498.29 -0.493156 -0.444627 0
M  V30 15706 H 1500.82 -1.86508 -0.841177 0
M  V30 15707 H 1500.83 -2.54033 -3.19266 0
M  V30 15708 H 1499.51 -3.38807 -2.41211 0
M  V30 15709 H 1498.09 -1.775 -3.27945 0
M  V30 15710 N 1500.27 0.920374 -1.27933 0
M  V30 15711 C 1501.52 1.67163 -1.1588 0
M  V30 15712 C 1501.87 1.90186 0.291025 0
M  V30 15713 O 1501.17 1.4864 1.209 0
M  V30 15714 C 1501.36 3.03725 -1.88377 0
M  V30 15715 C 1501.19 2.94029 -3.4026 0
M  V30 15716 C 1499.96 2.95912 -4.0959 0
M  V30 15717 C 1502.16 2.72596 -4.36115 0
M  V30 15718 N 1500.14 2.76734 -5.47988 0
M  V30 15719 C 1501.51 2.62196 -5.6183 0
M  V30 15720 C 1503.56 2.57541 -4.26119 0
M  V30 15721 C 1502.27 2.38276 -6.78688 0
M  V30 15722 C 1504.29 2.35 -5.42705 0
M  V30 15723 C 1503.66 2.25348 -6.67381 0
M  V30 15724 H 1499.75 0.618178 -0.478936 0
M  V30 15725 H 1502.34 1.0875 -1.61498 0
M  V30 15726 H 1500.51 3.60237 -1.45203 0
M  V30 15727 H 1502.24 3.67832 -1.68765 0
M  V30 15728 H 1499 3.06418 -3.61116 0
M  V30 15729 H 1499.42 2.70256 -6.20718 0
M  V30 15730 H 1504.06 2.63757 -3.30442 0
M  V30 15731 H 1501.78 2.30799 -7.7444 0
M  V30 15732 H 1505.37 2.24225 -5.36856 0
M  V30 15733 H 1504.25 2.08143 -7.56073 0
M  V30 15734 N 1501.75 1.10074 1.1279 0
M  V30 15735 C 1502.68 0.704023 2.1812 0
M  V30 15736 C 1503.69 -0.25742 1.60752 0
M  V30 15737 O 1504.88 -0.0424559 1.7845 0
M  V30 15738 C 1501.98 0.0176666 3.38895 0
M  V30 15739 C 1501.16 1.00234 4.2576 0
M  V30 15740 C 1500.22 0.348158 5.25047 0
M  V30 15741 O 1499.24 0.997821 5.60386 0
M  V30 15742 N 1500.44 -0.894955 5.7356 0
M  V30 15743 H 1503.21 1.61024 2.52767 0
M  V30 15744 H 1500.77 0.989068 1.28176 0
M  V30 15745 H 1502.76 -0.431346 4.02395 0
M  V30 15746 H 1501.33 -0.7909 3.02429 0
M  V30 15747 H 1500.55 1.62972 3.58934 0
M  V30 15748 H 1501.84 1.669 4.80647 0
M  V30 15749 H 1501.24 -1.4422 5.47007 0
M  V30 15750 H 1499.79 -1.28718 6.38964 0
M  V30 15751 N 1503.23 -1.30138 0.888926 0
M  V30 15752 C 1504.17 -2.28023 0.356923 0
M  V30 15753 C 1505.14 -1.56551 -0.555066 0
M  V30 15754 O 1506.33 -1.84595 -0.482633 0
M  V30 15755 C 1503.47 -3.42546 -0.419056 0
M  V30 15756 C 1502.58 -4.28827 0.5226 0
M  V30 15757 C 1501.72 -5.30517 -0.269366 0
M  V30 15758 C 1500.76 -6.08449 0.667507 0
M  V30 15759 N 1499.89 -7.02043 -0.08938 0
M  V30 15760 H 1504.73 -2.72912 1.19678 0
M  V30 15761 H 1502.27 -1.34239 0.60152 0
M  V30 15762 H 1504.23 -4.07707 -0.884911 0
M  V30 15763 H 1502.86 -2.98716 -1.22346 0
M  V30 15764 H 1501.91 -3.63938 1.10695 0
M  V30 15765 H 1503.22 -4.83136 1.24018 0
M  V30 15766 H 1502.38 -6.01444 -0.796901 0
M  V30 15767 H 1501.12 -4.76911 -1.02014 0
M  V30 15768 H 1500.12 -5.36396 1.20664 0
M  V30 15769 H 1501.35 -6.64143 1.41744 0
M  V30 15770 H 1499.29 -6.50822 -0.822622 0
M  V30 15771 H 1499.21 -7.53859 0.568499 0
M  V30 15772 H 1500.48 -7.77206 -0.597529 0
M  V30 15773 N 1504.71 -0.650285 -1.43559 0
M  V30 15774 C 1505.67 0.0336325 -2.29175 0
M  V30 15775 C 1506.67 0.753465 -1.42055 0
M  V30 15776 O 1507.86 0.595158 -1.63718 0
M  V30 15777 C 1504.99 1.05835 -3.24055 0
M  V30 15778 H 1506.18 -0.719643 -2.91138 0
M  V30 15779 H 1503.74 -0.411363 -1.5079 0
M  V30 15780 H 1504.47 1.84096 -2.66982 0
M  V30 15781 H 1504.26 0.545884 -3.88281 0
M  V30 15782 H 1505.75 1.53606 -3.88323 0
M  V30 15783 N 1506.18 1.52647 -0.392018 0
M  V30 15784 C 1507.15 2.25135 0.429754 0
M  V30 15785 C 1508.15 1.26871 0.987946 0
M  V30 15786 O 1509.34 1.50947 0.86952 0
M  V30 15787 C 1506.47 3.00849 1.60321 0
M  V30 15788 H 1507.66 2.99199 -0.204918 0
M  V30 15789 H 1505.21 1.55634 -0.144188 0
M  V30 15790 H 1505.95 2.31092 2.27524 0
M  V30 15791 H 1505.73 3.72975 1.20964 0
M  V30 15792 H 1507.22 3.55879 2.18494 0
M  V30 15793 N 1507.66 0.121921 1.57128 0
M  V30 15794 C 1508.91 -0.534313 1.94909 0
M  V30 15795 C 1509.23 -1.67029 1.0063 0
M  V30 15796 O 1508.5 -1.95798 0.0631366 0
M  V30 15797 H 1507.08 -0.200372 0.719625 0
M  V30 15798 H 1509.74 0.191546 1.93956 0
M  V30 15799 H 1508.84 -0.926974 2.98016 0
M  V30 15800 N 1509.14 -1.56867 -0.151857 0
M  V30 15801 C 1510.39 -1.83353 -0.866566 0
M  V30 15802 C 1510.72 -0.702784 -1.81038 0
M  V30 15803 O 1509.99 0.293944 -1.92266 0
M  V30 15804 C 1510.28 -3.20316 -1.64529 0
M  V30 15805 C 1510.13 -4.43946 -0.723297 0
M  V30 15806 C 1511.45 -3.54441 -2.60882 0
M  V30 15807 H 1508.57 -0.666957 -0.313588 0
M  V30 15808 H 1511.21 -1.89541 -0.131954 0
M  V30 15809 H 1509.36 -3.15172 -2.27154 0
M  V30 15810 H 1511.03 -4.61173 -0.10842 0
M  V30 15811 H 1509.28 -4.33788 -0.0325582 0
M  V30 15812 H 1509.95 -5.36374 -1.3041 0
M  V30 15813 H 1512.42 -3.60164 -2.08377 0
M  V30 15814 H 1511.3 -4.51314 -3.12422 0
M  V30 15815 H 1511.56 -2.80146 -3.42009 0
M  V30 15816 N 1510.62 0.421051 -1.51871 0
M  V30 15817 C 1511.58 1.49478 -1.73749 0
M  V30 15818 C 1512.58 1.48887 -0.607395 0
M  V30 15819 O 1513.77 1.50622 -0.875143 0
M  V30 15820 C 1510.9 2.88947 -1.80893 0
M  V30 15821 H 1512.1 1.31377 -2.69593 0
M  V30 15822 H 1509.65 0.650786 -1.42107 0
M  V30 15823 H 1510.38 3.12434 -0.86922 0
M  V30 15824 H 1510.17 2.90781 -2.63038 0
M  V30 15825 H 1511.66 3.66809 -1.99602 0
M  V30 15826 N 1512.1 1.42293 0.677538 0
M  V30 15827 C 1513.01 1.47953 1.82063 0
M  V30 15828 C 1514.02 0.36851 1.70053 0
M  V30 15829 O 1515.2 0.618996 1.91652 0
M  V30 15830 C 1512.26 1.3769 3.18186 0
M  V30 15831 C 1511.32 2.59261 3.42173 0
M  V30 15832 C 1510.56 2.49478 4.71801 0
M  V30 15833 O 1510.78 1.52915 5.49521 0
M  V30 15834 O 1509.71 3.39562 4.96972 0
M  V30 15835 H 1513.54 2.4443 1.80244 0
M  V30 15836 H 1511.13 1.24027 0.832932 0
M  V30 15837 H 1513.01 1.34319 3.9942 0
M  V30 15838 H 1511.68 0.443377 3.20649 0
M  V30 15839 H 1510.59 2.68207 2.60798 0
M  V30 15840 H 1511.92 3.51503 3.44538 0
M  V30 15841 N 1513.57 -0.913576 1.28419 0
M  V30 15842 C 1514.99 -1.192 1.0613 0
M  V30 15843 C 1515.19 -2.00542 -0.196232 0
M  V30 15844 O 1514.25 -2.35998 -0.897853 0
M  V30 15845 C 1515.56 -1.92642 2.30889 0
M  V30 15846 C 1517.11 -2.05524 2.3607 0
M  V30 15847 C 1517.58 -2.82374 3.60595 0
M  V30 15848 N 1519.07 -2.89935 3.61236 0
M  V30 15849 C 1519.81 -3.49899 4.54266 0
M  V30 15850 N 1519.3 -4.11141 5.57615 0
M  V30 15851 N 1521.1 -3.4744 4.41862 0
M  V30 15852 H 1513.25 -0.370509 2.09143 0
M  V30 15853 H 1515.51 -0.226573 0.920526 0
M  V30 15854 H 1515.22 -1.40299 3.22504 0
M  V30 15855 H 1515.09 -2.93191 2.37316 0
M  V30 15856 H 1517.48 -2.57047 1.44951 0
M  V30 15857 H 1517.56 -1.0415 2.33637 0
M  V30 15858 H 1517.2 -2.3153 4.52058 0
M  V30 15859 H 1517.13 -3.84063 3.60282 0
M  V30 15860 H 1519.62 -2.46424 2.86502 0
M  V30 15861 H 1519.94 -4.54877 6.24746 0
M  V30 15862 H 1518.28 -4.09645 5.61441 0
M  V30 15863 H 1521.47 -2.98806 3.60323 0
M  V30 15864 H 1521.65 -3.9388 5.14551 0
M  V30 15865 N 1515.05 -1.1067 -1.12204 0
M  V30 15866 C 1516.28 -0.871601 -1.87314 0
M  V30 15867 C 1516.69 0.581644 -1.80038 0
M  V30 15868 O 1516.03 1.4129 -1.17401 0
M  V30 15869 C 1516.1 -1.24458 -3.37269 0
M  V30 15870 C 1515.76 -2.70536 -3.6832 0
M  V30 15871 C 1516.76 -3.68769 -3.66477 0
M  V30 15872 C 1514.44 -3.06982 -3.97577 0
M  V30 15873 C 1516.44 -5.01471 -3.93454 0
M  V30 15874 C 1514.12 -4.39871 -4.24213 0
M  V30 15875 C 1515.12 -5.36924 -4.22139 0
M  V30 15876 O 1514.81 -6.6742 -4.48113 0
M  V30 15877 H 1514.54 -0.312472 -0.599447 0
M  V30 15878 H 1517.09 -1.47562 -1.4288 0
M  V30 15879 H 1515.32 -0.583674 -3.8227 0
M  V30 15880 H 1517.01 -0.986569 -3.93728 0
M  V30 15881 H 1517.78 -3.41957 -3.43934 0
M  V30 15882 H 1513.66 -2.32062 -3.98332 0
M  V30 15883 H 1517.2 -5.77215 -3.9175 0
M  V30 15884 H 1513.1 -4.6642 -4.46231 0
M  V30 15885 H 1513.87 -6.73088 -4.6572 0
M  V30 15886 N 1516.53 1.29665 -0.895815 0
M  V30 15887 C 1517.81 1.90601 -0.439394 0
M  V30 15888 C 1518.19 1.81341 1.08068 0
M  V30 15889 O 1517.54 1.23761 1.92082 0
M  V30 15890 C 1517.75 3.35832 -0.949622 0
M  V30 15891 C 1519.09 4.12873 -0.991015 0
M  V30 15892 O 1520.12 3.4472 -0.897025 0
M  V30 15893 O 1518.98 5.34656 -1.1316 0
M  V30 15894 H 1516.07 0.81569 -0.136304 0
M  V30 15895 H 1518.62 1.38157 -0.985426 0
M  V30 15896 H 1517.39 3.36708 -1.99357 0
M  V30 15897 H 1517.01 3.95747 -0.383376 0
M  V30 15898 N 1518.01 0.657889 1.43212 0
M  V30 15899 C 1519.26 0.170493 2.00978 0
M  V30 15900 C 1519.57 -1.22439 1.52539 0
M  V30 15901 O 1520.78 -1.80725 2.02609 0
M  V30 15902 C 1519.23 0.253982 3.59003 0
M  V30 15903 C 1518.84 1.65185 4.16435 0
M  V30 15904 C 1520.58 -0.17557 4.24137 0
M  V30 15905 C 1518.49 1.68902 5.66768 0
M  V30 15906 H 1517.42 0.0599767 0.751611 0
M  V30 15907 H 1520.07 0.820606 1.64129 0
M  V30 15908 H 1518.45 -0.463723 3.93275 0
M  V30 15909 H 1519.63 2.39529 3.93653 0
M  V30 15910 H 1517.94 2.02779 3.63689 0
M  V30 15911 H 1520.54 -0.167714 5.34437 0
M  V30 15912 H 1520.88 -1.20784 3.98393 0
M  V30 15913 H 1521.42 0.490544 3.94764 0
M  V30 15914 H 1518.16 2.70055 5.97286 0
M  V30 15915 H 1517.68 0.988906 5.91592 0
M  V30 15916 H 1519.35 1.43485 6.30889 0
M  V30 15917 N 1519.49 -1.52437 0.400108 0
M  V30 15918 C 1520.42 -2.29672 -0.421054 0
M  V30 15919 C 1521.4 -1.33506 -1.05405 0
M  V30 15920 O 1522.58 -1.62408 -1.06477 0
M  V30 15921 C 1519.71 -3.1115 -1.54281 0
M  V30 15922 C 1518.67 -4.1529 -1.0353 0
M  V30 15923 C 1517.99 -4.85058 -2.24996 0
M  V30 15924 C 1519.29 -5.22212 -0.0956529 0
M  V30 15925 H 1520.99 -2.98565 0.2234 0
M  V30 15926 H 1518.53 -1.43588 0.108883 0
M  V30 15927 H 1520.49 -3.63945 -2.12419 0
M  V30 15928 H 1519.21 -2.4001 -2.21501 0
M  V30 15929 H 1517.87 -3.63492 -0.476383 0
M  V30 15930 H 1517.52 -4.10455 -2.9075 0
M  V30 15931 H 1517.22 -5.55452 -1.91694 0
M  V30 15932 H 1518.74 -5.40661 -2.83756 0
M  V30 15933 H 1520.15 -5.70302 -0.585548 0
M  V30 15934 H 1518.55 -5.99917 0.148121 0
M  V30 15935 H 1519.62 -4.77351 0.852296 0
M  V30 15936 N 1520.96 -0.130252 -1.57061 0
M  V30 15937 C 1521.89 0.812189 -2.18919 0
M  V30 15938 C 1522.88 1.2692 -1.13249 0
M  V30 15939 O 1524.06 1.32978 -1.41529 0
M  V30 15940 C 1521.19 2.05803 -2.79754 0
M  V30 15941 C 1520.14 1.73841 -3.91105 0
M  V30 15942 C 1519.47 3.05549 -4.38799 0
M  V30 15943 C 1520.77 0.997991 -5.12677 0
M  V30 15944 H 1522.46 0.296692 -2.97926 0
M  V30 15945 H 1520.01 0.141265 -1.43305 0
M  V30 15946 H 1521.96 2.72201 -3.21691 0
M  V30 15947 H 1520.69 2.59697 -1.98053 0
M  V30 15948 H 1519.35 1.09828 -3.49762 0
M  V30 15949 H 1518.99 3.57399 -3.53942 0
M  V30 15950 H 1518.69 2.84932 -5.13894 0
M  V30 15951 H 1520.22 3.73045 -4.83394 0
M  V30 15952 H 1521.63 1.56372 -5.51562 0
M  V30 15953 H 1520.03 0.892378 -5.93428 0
M  V30 15954 H 1521.1 -0.0132936 -4.84898 0
M  V30 15955 N 1522.44 1.56945 0.143535 0
M  V30 15956 C 1523.37 2.0156 1.17881 0
M  V30 15957 C 1524.35 0.895744 1.44604 0
M  V30 15958 O 1525.54 1.16379 1.55466 0
M  V30 15959 C 1522.67 2.39915 2.51114 0
M  V30 15960 C 1521.62 3.55117 2.38905 0
M  V30 15961 C 1520.95 3.79296 3.7688 0
M  V30 15962 C 1522.25 4.87668 1.87021 0
M  V30 15963 H 1523.94 2.88296 0.80783 0
M  V30 15964 H 1521.49 1.38698 0.387149 0
M  V30 15965 H 1523.44 2.69727 3.23767 0
M  V30 15966 H 1522.17 1.5012 2.90055 0
M  V30 15967 H 1520.83 3.25476 1.68703 0
M  V30 15968 H 1520.47 2.86747 4.13262 0
M  V30 15969 H 1520.17 4.56827 3.69571 0
M  V30 15970 H 1521.7 4.11537 4.51076 0
M  V30 15971 H 1523.11 5.16176 2.4947 0
M  V30 15972 H 1521.51 5.69029 1.90594 0
M  V30 15973 H 1522.58 4.77811 0.82611 0
M  V30 15974 N 1523.92 -0.412991 1.52093 0
M  V30 15975 C 1525.15 -1.18212 1.69805 0
M  V30 15976 C 1525.56 -1.84386 0.405844 0
M  V30 15977 O 1524.92 -1.71725 -0.617809 0
M  V30 15978 C 1524.97 -2.24811 2.83094 0
M  V30 15979 O 1524.69 -1.61338 4.0731 0
M  V30 15980 C 1526.19 -3.14633 3.12283 0
M  V30 15981 H 1523.41 -0.355371 0.569168 0
M  V30 15982 H 1525.96 -0.486392 1.98632 0
M  V30 15983 H 1524.11 -2.90058 2.56797 0
M  V30 15984 H 1524.53 -2.31979 4.7041 0
M  V30 15985 H 1526 -3.85511 3.95076 0
M  V30 15986 H 1526.48 -3.76785 2.25677 0
M  V30 15987 H 1527.08 -2.55059 3.40331 0
M  V30 15988 N 1525.4 -1.4265 -0.669982 0
M  V30 15989 C 1526.31 -1.48916 -1.81276 0
M  V30 15990 C 1527.33 -0.377523 -1.69855 0
M  V30 15991 O 1528.5 -0.629151 -1.91321 0
M  V30 15992 C 1525.57 -1.39376 -3.17451 0
M  V30 15993 C 1524.63 -2.61072 -3.40793 0
M  V30 15994 C 1523.86 -2.51976 -4.70472 0
M  V30 15995 O 1524.08 -1.55827 -5.48702 0
M  V30 15996 O 1523.02 -3.42193 -4.95164 0
M  V30 15997 H 1526.84 -2.45382 -1.78945 0
M  V30 15998 H 1524.43 -1.24467 -0.826342 0
M  V30 15999 H 1526.31 -1.36435 -3.98702 0
M  V30 16000 H 1524.99 -0.460376 -3.20409 0
M  V30 16001 H 1523.89 -2.69587 -2.59372 0
M  V30 16002 H 1525.23 -3.53325 -3.42669 0
M  V30 16003 N 1526.88 0.906753 -1.28902 0
M  V30 16004 C 1527.83 2.03141 -1.13299 0
M  V30 16005 C 1528.82 1.69325 -0.0504114 0
M  V30 16006 O 1530.03 1.78774 -0.209696 0
M  V30 16007 H 1526.4 0.665709 -0.349766 0
M  V30 16008 H 1528.37 2.13441 -2.08531 0
M  V30 16009 C 1527.12 3.37918 -0.818935 0
M  V30 16010 H 1526.44 3.64437 -1.64395 0
M  V30 16011 H 1527.88 4.17318 -0.749753 0
M  V30 16012 C 1526.34 3.33498 0.477582 0
M  V30 16013 O 1526.87 3.7241 1.50578 0
M  V30 16014 N 1525.08 2.86594 0.480862 0
M  V30 16015 H 1524.63 2.55124 -0.356308 0
M  V30 16016 H 1524.58 2.84019 1.34835 0
M  V30 16017 N 1528.36 1.11264 1.11616 0
M  V30 16018 C 1529.6 0.858664 1.82952 0
M  V30 16019 C 1529.92 -0.617439 1.84967 0
M  V30 16020 O 1529.19 -1.44849 1.31893 0
M  V30 16021 H 1527.77 0.314671 0.677489 0
M  V30 16022 H 1530.44 1.40466 1.35113 0
M  V30 16023 H 1529.53 1.22921 2.86874 0
M  V30 16024 N 1529.83 -1.29188 0.902679 0
M  V30 16025 C 1531.08 -1.94718 0.526082 0
M  V30 16026 C 1531.4 -1.71924 -0.932816 0
M  V30 16027 O 1532.6 -2.31585 -1.41707 0
M  V30 16028 C 1531.06 -3.48723 0.889974 0
M  V30 16029 C 1530.67 -3.80312 2.36784 0
M  V30 16030 C 1532.41 -4.20472 0.58343 0
M  V30 16031 C 1530.32 -5.27574 2.67244 0
M  V30 16032 H 1529.25 -0.728875 0.193019 0
M  V30 16033 H 1531.9 -1.46869 1.10008 0
M  V30 16034 H 1530.28 -3.95242 0.244872 0
M  V30 16035 H 1531.45 -3.44641 3.05875 0
M  V30 16036 H 1529.77 -3.21709 2.64371 0
M  V30 16037 H 1532.37 -5.28864 0.787813 0
M  V30 16038 H 1532.71 -4.13544 -0.478204 0
M  V30 16039 H 1533.24 -3.79693 1.1865 0
M  V30 16040 H 1529.98 -5.39569 3.72217 0
M  V30 16041 H 1529.5 -5.64482 2.0278 0
M  V30 16042 H 1531.18 -5.95199 2.53666 0
M  V30 16043 N 1531.31 -0.665475 -1.42861 0
M  V30 16044 C 1532.24 0.00482845 -2.335 0
M  V30 16045 C 1533.22 0.799135 -1.50159 0
M  V30 16046 O 1534.41 0.75816 -1.78789 0
M  V30 16047 C 1531.54 0.963347 -3.33672 0
M  V30 16048 C 1530.49 0.278294 -4.27094 0
M  V30 16049 C 1529.82 1.34911 -5.174 0
M  V30 16050 C 1531.12 -0.836925 -5.15551 0
M  V30 16051 H 1532.81 -0.752129 -2.89799 0
M  V30 16052 H 1530.36 -0.363139 -1.39346 0
M  V30 16053 H 1532.31 1.44128 -3.95986 0
M  V30 16054 H 1531.03 1.75161 -2.75656 0
M  V30 16055 H 1529.69 -0.179314 -3.66161 0
M  V30 16056 H 1529.34 2.12912 -4.55716 0
M  V30 16057 H 1529.04 0.895919 -5.8073 0
M  V30 16058 H 1530.57 1.82816 -5.8259 0
M  V30 16059 H 1531.98 -0.440617 -5.71604 0
M  V30 16060 H 1530.38 -1.21533 -5.87665 0
M  V30 16061 H 1531.45 -1.6897 -4.54507 0
M  V30 16062 N 1532.79 1.52222 -0.408187 0
M  V30 16063 C 1533.72 2.29892 0.408868 0
M  V30 16064 C 1534.7 1.34063 1.04695 0
M  V30 16065 O 1535.89 1.6297 1.05615 0
M  V30 16066 C 1533.02 3.11964 1.52629 0
M  V30 16067 C 1531.97 4.15833 1.01326 0
M  V30 16068 C 1531.3 4.86244 2.2242 0
M  V30 16069 C 1532.6 5.22256 0.0679573 0
M  V30 16070 H 1534.29 2.98443 -0.23923 0
M  V30 16071 H 1531.84 1.43528 -0.116496 0
M  V30 16072 H 1533.79 3.65067 2.10486 0
M  V30 16073 H 1532.51 2.41181 2.20225 0
M  V30 16074 H 1531.17 3.63739 0.4571 0
M  V30 16075 H 1530.82 4.11991 2.88569 0
M  V30 16076 H 1530.52 5.56461 1.88746 0
M  V30 16077 H 1532.04 5.42159 2.80885 0
M  V30 16078 H 1533.46 5.70604 0.555295 0
M  V30 16079 H 1531.85 5.9983 -0.179934 0
M  V30 16080 H 1532.92 4.76892 -0.877599 0
M  V30 16081 N 1534.27 0.138579 1.5699 0
M  V30 16082 C 1535.68 -0.217898 1.58106 0
M  V30 16083 C 1535.88 -1.65293 1.15241 0
M  V30 16084 O 1534.94 -2.37805 0.848815 0
M  V30 16085 C 1536.25 0.033211 3.00682 0
M  V30 16086 C 1537.8 -0.0311593 3.12984 0
M  V30 16087 C 1538.28 0.192508 4.57595 0
M  V30 16088 N 1539.77 0.139147 4.62991 0
M  V30 16089 C 1540.5 0.286837 5.72682 0
M  V30 16090 N 1540 0.491784 6.91052 0
M  V30 16091 N 1541.79 0.225032 5.61649 0
M  V30 16092 H 1533.94 1.07567 1.83148 0
M  V30 16093 H 1536.2 0.425143 0.847324 0
M  V30 16094 H 1535.91 1.02605 3.364 0
M  V30 16095 H 1535.78 -0.689972 3.70836 0
M  V30 16096 H 1538.17 -1.01454 2.77112 0
M  V30 16097 H 1538.25 0.724219 2.45334 0
M  V30 16098 H 1537.9 1.17295 4.9417 0
M  V30 16099 H 1537.83 -0.583092 5.23362 0
M  V30 16100 H 1540.32 -0.0149467 3.77897 0
M  V30 16101 H 1540.63 0.594813 7.70508 0
M  V30 16102 H 1538.98 0.528002 6.92991 0
M  V30 16103 H 1542.17 0.0657415 4.68054 0
M  V30 16104 H 1542.34 0.343569 6.47089 0
M  V30 16105 N 1535.75 -1.57019 -0.13521 0
M  V30 16106 C 1536.69 -2.0011 -1.18569 0
M  V30 16107 C 1537.69 -0.895372 -1.43804 0
M  V30 16108 O 1538.89 -1.08057 -1.43957 0
M  V30 16109 H 1535.27 -0.637176 -0.399388 0
M  V30 16110 H 1537.24 -2.87597 -0.795636 0
M  V30 16111 C 1535.99 -2.40769 -2.50849 0
M  V30 16112 H 1535.31 -3.25412 -2.32265 0
M  V30 16113 H 1536.75 -2.74733 -3.22951 0
M  V30 16114 C 1535.21 -1.26494 -3.12251 0
M  V30 16115 O 1535.74 -0.572067 -3.97606 0
M  V30 16116 N 1533.95 -1.02615 -2.7188 0
M  V30 16117 H 1533.49 -1.59136 -2.02567 0
M  V30 16118 H 1533.45 -0.263464 -3.13294 0
M  V30 16119 N 1537.22 0.404919 -1.52309 0
M  V30 16120 C 1538.45 1.17309 -1.70429 0
M  V30 16121 C 1538.87 1.84169 -0.415617 0
M  V30 16122 O 1538.22 1.7205 0.608693 0
M  V30 16123 C 1538.28 2.23306 -2.84282 0
M  V30 16124 O 1538 1.59176 -4.0816 0
M  V30 16125 C 1539.5 3.12972 -3.13948 0
M  V30 16126 H 1536.72 0.352348 -0.571045 0
M  V30 16127 H 1539.26 0.475851 -1.98887 0
M  V30 16128 H 1537.42 2.88693 -2.58332 0
M  V30 16129 H 1537.83 2.29481 -4.71634 0
M  V30 16130 H 1539.3 3.83411 -3.97115 0
M  V30 16131 H 1539.78 3.75582 -2.27672 0
M  V30 16132 H 1540.39 2.53251 -3.41678 0
M  V30 16133 N 1538.7 1.43003 0.662408 0
M  V30 16134 C 1539.93 1.47766 1.45533 0
M  V30 16135 C 1540.35 0.0940298 1.87865 0
M  V30 16136 O 1539.71 -0.910252 1.56793 0
M  V30 16137 C 1539.76 2.42084 2.6726 0
M  V30 16138 O 1538.86 1.90076 3.65985 0
M  V30 16139 H 1538.2 0.500167 0.436725 0
M  V30 16140 H 1540.73 1.87823 0.811399 0
M  V30 16141 H 1540.74 2.5908 3.15185 0
M  V30 16142 H 1539.42 3.42601 2.3579 0
M  V30 16143 H 1538 1.82695 3.2508 0
M  V30 16144 N 1540.18 -0.899904 1.29381 0
M  V30 16145 C 1541.09 -2.03699 1.16378 0
M  V30 16146 C 1542.11 -1.73782 0.0870792 0
M  V30 16147 O 1543.28 -1.99167 0.299109 0
M  V30 16148 C 1540.35 -3.36341 0.841166 0
M  V30 16149 C 1539.41 -3.79778 2.00168 0
M  V30 16150 C 1538.64 -5.0609 1.69437 0
M  V30 16151 O 1538.86 -5.67073 0.615212 0
M  V30 16152 O 1537.8 -5.45574 2.54229 0
M  V30 16153 H 1541.62 -2.17592 2.11866 0
M  V30 16154 H 1539.21 -1.02353 1.08831 0
M  V30 16155 H 1541.09 -4.15946 0.675803 0
M  V30 16156 H 1539.77 -3.23591 -0.0839376 0
M  V30 16157 H 1538.67 -3.00941 2.22229 0
M  V30 16158 H 1540.01 -3.97111 2.90798 0
M  V30 16159 N 1541.66 -1.11854 -1.11024 0
M  V30 16160 C 1543.07 -0.885443 -1.64368 0
M  V30 16161 C 1543.42 0.581455 -1.87386 0
M  V30 16162 O 1542.55 1.44452 -1.61129 0
M  V30 16163 C 1543.14 -1.60082 -2.98595 0
M  V30 16164 C 1541.7 -1.41403 -3.4883 0
M  V30 16165 C 1540.85 -1.64069 -2.23555 0
M  V30 16166 H 1543.8 -1.27418 -0.94606 0
M  V30 16167 H 1543.82 -1.04832 -3.65774 0
M  V30 16168 H 1543.33 -2.66842 -2.8181 0
M  V30 16169 H 1541.43 -0.368727 -3.70771 0
M  V30 16170 H 1541.54 -2.16603 -4.27341 0
M  V30 16171 H 1539.91 -1.06437 -2.31394 0
M  V30 16172 H 1540.69 -2.72112 -2.09308 0
M  V30 16173 N 1543.14 1.28707 -0.909517 0
M  V30 16174 C 1544.1 2.25692 -0.39946 0
M  V30 16175 C 1545.1 1.53721 0.471848 0
M  V30 16176 O 1546.29 1.72008 0.275504 0
M  V30 16177 C 1543.42 3.38205 0.427793 0
M  V30 16178 H 1544.61 2.72326 -1.25613 0
M  V30 16179 H 1542.17 1.40317 -0.688535 0
M  V30 16180 H 1542.9 2.96926 1.30404 0
M  V30 16181 H 1542.69 3.91606 -0.19667 0
M  V30 16182 H 1544.18 4.10334 0.775634 0
M  V30 16183 N 1544.61 0.673042 1.42506 0
M  V30 16184 C 1545.84 0.202922 2.05902 0
M  V30 16185 C 1546.26 -1.13923 1.50556 0
M  V30 16186 O 1545.61 -1.70735 0.644662 0
M  V30 16187 C 1545.67 0.12735 3.61276 0
M  V30 16188 O 1545.39 1.41646 4.1457 0
M  V30 16189 C 1546.89 -0.366477 4.41783 0
M  V30 16190 H 1544.11 0.0991021 0.663641 0
M  V30 16191 H 1546.65 0.919282 1.82673 0
M  V30 16192 H 1544.81 -0.539687 3.83622 0
M  V30 16193 H 1545.22 1.28866 5.08423 0
M  V30 16194 H 1546.69 -0.368267 5.5077 0
M  V30 16195 H 1547.17 -1.40142 4.16241 0
M  V30 16196 H 1547.78 0.268761 4.2445 0
M  V30 16197 N 1546.09 -1.52004 0.416254 0
M  V30 16198 C 1547.32 -2.06307 -0.156491 0
M  V30 16199 C 1547.74 -1.28567 -1.3826 0
M  V30 16200 O 1547.09 -0.339447 -1.79315 0
M  V30 16201 C 1547.14 -3.58028 -0.499824 0
M  V30 16202 O 1546.86 -4.32828 0.677602 0
M  V30 16203 C 1548.37 -4.28773 -1.12553 0
M  V30 16204 H 1545.59 -0.670778 -0.0172483 0
M  V30 16205 H 1548.13 -1.95826 0.589262 0
M  V30 16206 H 1546.28 -3.68493 -1.19547 0
M  V30 16207 H 1546.7 -5.23053 0.389302 0
M  V30 16208 H 1548.17 -5.36085 -1.31592 0
M  V30 16209 H 1548.65 -3.85706 -2.10066 0
M  V30 16210 H 1549.26 -4.22696 -0.469881 0
M  V30 16211 N 1547.57 -0.146903 -1.56914 0
M  V30 16212 C 1548.52 0.792821 -2.16756 0
M  V30 16213 C 1549.49 1.2442 -1.1004 0
M  V30 16214 O 1550.67 1.31674 -1.38081 0
M  V30 16215 C 1547.81 2.02659 -2.79327 0
M  V30 16216 C 1546.93 1.62102 -4.00433 0
M  V30 16217 C 1546.06 2.80658 -4.51004 0
M  V30 16218 C 1545.1 2.36474 -5.64576 0
M  V30 16219 N 1544.24 3.48038 -6.09766 0
M  V30 16220 H 1549.08 0.275708 -2.96722 0
M  V30 16221 H 1546.61 0.124374 -1.46573 0
M  V30 16222 H 1548.57 2.74986 -3.13749 0
M  V30 16223 H 1547.2 2.51781 -2.02005 0
M  V30 16224 H 1546.25 0.795407 -3.71991 0
M  V30 16225 H 1547.57 1.25652 -4.82714 0
M  V30 16226 H 1546.72 3.61175 -4.87481 0
M  V30 16227 H 1545.46 3.20353 -3.6773 0
M  V30 16228 H 1544.46 1.54397 -5.27676 0
M  V30 16229 H 1545.69 1.97865 -6.49635 0
M  V30 16230 H 1543.63 3.87354 -5.29427 0
M  V30 16231 H 1543.55 3.15602 -6.86972 0
M  V30 16232 H 1544.82 4.28912 -6.50887 0
M  V30 16233 N 1549.05 1.57088 0.126881 0
M  V30 16234 C 1549.98 1.96399 1.18153 0
M  V30 16235 C 1550.99 0.862288 1.38089 0
M  V30 16236 O 1552.18 1.14062 1.37303 0
M  V30 16237 C 1549.28 2.24026 2.54295 0
M  V30 16238 C 1548.46 3.5533 2.55068 0
M  V30 16239 C 1547.51 3.71261 3.72896 0
M  V30 16240 O 1546.54 4.43454 3.56844 0
M  V30 16241 N 1547.74 3.09435 4.91152 0
M  V30 16242 H 1550.51 2.87476 0.847217 0
M  V30 16243 H 1548.07 1.58781 0.316242 0
M  V30 16244 H 1550.06 2.31906 3.31665 0
M  V30 16245 H 1548.63 1.39114 2.79939 0
M  V30 16246 H 1547.85 3.58708 1.63468 0
M  V30 16247 H 1549.14 4.41649 2.52634 0
M  V30 16248 H 1548.54 2.50736 5.07097 0
M  V30 16249 H 1547.09 3.22848 5.66226 0
M  V30 16250 N 1550.53 -0.396836 1.52522 0
M  V30 16251 C 1551.48 -1.48365 1.73123 0
M  V30 16252 C 1552.46 -1.4988 0.585224 0
M  V30 16253 O 1553.65 -1.55649 0.842763 0
M  V30 16254 C 1550.78 -2.86165 1.89644 0
M  V30 16255 C 1549.87 -2.8925 3.10153 0
M  V30 16256 N 1550.26 -2.62017 4.32644 0
M  V30 16257 C 1548.56 -3.20419 3.10238 0
M  V30 16258 C 1549.26 -2.71985 5.14197 0
M  V30 16259 N 1548.23 -3.05385 4.49712 0
M  V30 16260 H 1552.04 -1.26124 2.65462 0
M  V30 16261 H 1549.55 -0.604696 1.50722 0
M  V30 16262 H 1551.55 -3.64404 2.02522 0
M  V30 16263 H 1550.21 -3.09395 0.985134 0
M  V30 16264 H 1551.22 -2.36183 4.6091 0
M  V30 16265 H 1547.89 -3.49164 2.2889 0
M  V30 16266 H 1549.28 -2.54541 6.21819 0
M  V30 16267 N 1552.01 -1.43353 -0.654814 0
M  V30 16268 C 1552.95 -1.48387 -1.76776 0
M  V30 16269 C 1553.92 -0.333755 -1.62712 0
M  V30 16270 O 1555.11 -0.540683 -1.82979 0
M  V30 16271 C 1552.25 -1.41132 -3.14922 0
M  V30 16272 C 1551.36 -2.66336 -3.40131 0
M  V30 16273 C 1550.5 -2.5108 -4.68116 0
M  V30 16274 C 1549.53 -3.71561 -4.86425 0
M  V30 16275 N 1548.67 -3.55125 -6.05666 0
M  V30 16276 H 1553.51 -2.43487 -1.71808 0
M  V30 16277 H 1551.05 -1.20866 -0.838442 0
M  V30 16278 H 1553.01 -1.3492 -3.94782 0
M  V30 16279 H 1551.64 -0.496149 -3.18964 0
M  V30 16280 H 1550.69 -2.82834 -2.5438 0
M  V30 16281 H 1552 -3.55835 -3.49546 0
M  V30 16282 H 1551.15 -2.42567 -5.56099 0
M  V30 16283 H 1549.89 -1.59103 -4.61018 0
M  V30 16284 H 1548.9 -3.80484 -3.96877 0
M  V30 16285 H 1550.12 -4.64545 -4.95353 0
M  V30 16286 H 1548.07 -2.65881 -5.99703 0
M  V30 16287 H 1547.99 -4.38224 -6.16032 0
M  V30 16288 H 1549.25 -3.5046 -6.96274 0
M  V30 16289 N 1553.48 0.89303 -1.29857 0
M  V30 16290 C 1554.73 1.64413 -1.18214 0
M  V30 16291 C 1555.06 1.92687 0.26492 0
M  V30 16292 O 1554.31 1.54044 1.20702 0
M  V30 16293 C 1554.61 2.99661 -1.94777 0
M  V30 16294 C 1554.28 2.90969 -3.44453 0
M  V30 16295 C 1552.94 2.88306 -3.8527 0
M  V30 16296 C 1555.29 2.79686 -4.39801 0
M  V30 16297 C 1552.62 2.72188 -5.19741 0
M  V30 16298 C 1554.97 2.65107 -5.7437 0
M  V30 16299 C 1553.64 2.60814 -6.14437 0
M  V30 16300 H 1552.91 0.60163 -0.432577 0
M  V30 16301 H 1555.55 1.03891 -1.60869 0
M  V30 16302 H 1553.86 3.64087 -1.44733 0
M  V30 16303 H 1555.56 3.56722 -1.83168 0
M  V30 16304 H 1552.15 2.93848 -3.12012 0
M  V30 16305 H 1556.33 2.80816 -4.09214 0
M  V30 16306 H 1551.59 2.67273 -5.49886 0
M  V30 16307 H 1555.76 2.55349 -6.47897 0
M  V30 16308 H 1553.39 2.48082 -7.18582 0
M  V30 16309 N 1554.96 1.12442 1.10429 0
M  V30 16310 C 1555.87 0.805377 2.20343 0
M  V30 16311 C 1556.89 -0.205836 1.72778 0
M  V30 16312 O 1558.06 -0.0394195 2.01361 0
M  V30 16313 C 1555.13 0.264711 3.45688 0
M  V30 16314 C 1554.19 1.33586 4.07987 0
M  V30 16315 C 1553.42 0.8209 5.27349 0
M  V30 16316 O 1553.65 -0.345303 5.69354 0
M  V30 16317 O 1552.58 1.59052 5.80505 0
M  V30 16318 H 1556.41 1.7234 2.50065 0
M  V30 16319 H 1553.99 0.901084 1.19167 0
M  V30 16320 H 1555.87 -0.0319164 4.21388 0
M  V30 16321 H 1554.55 -0.625869 3.17592 0
M  V30 16322 H 1553.45 1.68566 3.33971 0
M  V30 16323 H 1554.79 2.20021 4.40286 0
M  V30 16324 N 1556.44 -1.28223 0.91633 0
M  V30 16325 C 1557.72 -1.89878 0.469661 0
M  V30 16326 C 1558.1 -1.83037 -1.05169 0
M  V30 16327 O 1557.44 -1.26801 -1.90088 0
M  V30 16328 C 1557.65 -3.34279 1.00293 0
M  V30 16329 C 1559 -4.11244 1.05657 0
M  V30 16330 O 1560.03 -3.43249 0.951753 0
M  V30 16331 O 1558.89 -5.32788 1.21652 0
M  V30 16332 H 1555.98 -0.813418 0.149263 0
M  V30 16333 H 1558.53 -1.36572 1.00728 0
M  V30 16334 H 1557.3 -3.33494 2.04688 0
M  V30 16335 H 1556.92 -3.95087 0.446287 0
M  V30 16336 N 1557.92 -0.68059 -1.42147 0
M  V30 16337 C 1558.85 -0.0199376 -2.33491 0
M  V30 16338 C 1559.83 0.783164 -1.50999 0
M  V30 16339 O 1561.01 0.739154 -1.79583 0
M  V30 16340 C 1558.14 0.927902 -3.34675 0
M  V30 16341 C 1557.1 0.232979 -4.27365 0
M  V30 16342 C 1556.42 1.29415 -5.18802 0
M  V30 16343 C 1557.72 -0.891559 -5.14634 0
M  V30 16344 H 1559.42 -0.782823 -2.88985 0
M  V30 16345 H 1556.96 -0.377898 -1.38953 0
M  V30 16346 H 1558.92 1.3992 -3.97493 0
M  V30 16347 H 1557.64 1.72228 -2.77498 0
M  V30 16348 H 1556.3 -0.21814 -3.6595 0
M  V30 16349 H 1555.95 2.08067 -4.57949 0
M  V30 16350 H 1555.65 0.834274 -5.81647 0
M  V30 16351 H 1557.17 1.76627 -5.84496 0
M  V30 16352 H 1558.59 -0.501219 -5.71105 0
M  V30 16353 H 1556.98 -1.27759 -5.86343 0
M  V30 16354 H 1558.05 -1.73781 -4.5269 0
M  V30 16355 N 1559.4 1.51781 -0.424309 0
M  V30 16356 C 1560.62 2.06387 0.145548 0
M  V30 16357 C 1561.04 1.29299 1.37576 0
M  V30 16358 O 1560.4 0.348952 1.79133 0
M  V30 16359 C 1560.45 3.58288 0.48083 0
M  V30 16360 O 1560.17 4.32463 -0.700546 0
M  V30 16361 C 1561.67 4.29364 1.10278 0
M  V30 16362 H 1558.89 0.67086 0.0136908 0
M  V30 16363 H 1561.43 1.95511 -0.599639 0
M  V30 16364 H 1559.59 3.69122 1.17591 0
M  V30 16365 H 1560 5.22839 -0.417035 0
M  V30 16366 H 1561.48 5.36776 1.28747 0
M  V30 16367 H 1561.95 3.86815 2.08017 0
M  V30 16368 H 1562.56 4.2294 0.447458 0
M  V30 16369 N 1560.87 0.155222 1.56834 0
M  V30 16370 C 1562.28 -0.364232 1.83113 0
M  V30 16371 C 1562.64 -1.64173 1.07432 0
M  V30 16372 O 1561.76 -2.13988 0.322202 0
M  V30 16373 C 1562.36 -0.667608 3.32157 0
M  V30 16374 C 1560.91 -1.13156 3.58989 0
M  V30 16375 C 1560.06 -0.158941 2.76844 0
M  V30 16376 H 1563.01 0.379779 1.54089 0
M  V30 16377 H 1563.03 -1.52141 3.4876 0
M  V30 16378 H 1562.55 0.262355 3.87212 0
M  V30 16379 H 1560.65 -2.07717 3.09329 0
M  V30 16380 H 1560.76 -1.05184 4.67411 0
M  V30 16381 H 1559.12 -0.653181 2.46182 0
M  V30 16382 H 1559.91 0.764757 3.34674 0
M  V30 16383 N 1562.35 -1.57153 -0.118549 0
M  V30 16384 C 1563.6 -1.84511 -0.824623 0
M  V30 16385 C 1563.92 -0.740473 -1.80394 0
M  V30 16386 O 1563.19 0.235481 -1.9448 0
M  V30 16387 H 1561.77 -0.680764 -0.307522 0
M  V30 16388 H 1564.43 -1.94613 -0.105764 0
M  V30 16389 H 1563.53 -2.80444 -1.36958 0
M  V30 16390 N 1563.83 0.388742 -1.5273 0
M  V30 16391 C 1564.78 1.47488 -1.77527 0
M  V30 16392 C 1565.75 1.54155 -0.618505 0
M  V30 16393 O 1566.93 1.70407 -0.858251 0
M  V30 16394 C 1564.07 2.84714 -1.95018 0
M  V30 16395 C 1563.18 2.87197 -3.2271 0
M  V30 16396 C 1562.32 4.15851 -3.30517 0
M  V30 16397 C 1561.36 4.12386 -4.52332 0
M  V30 16398 N 1560.5 5.32647 -4.57418 0
M  V30 16399 H 1565.34 1.25644 -2.70218 0
M  V30 16400 H 1562.87 0.609519 -1.33878 0
M  V30 16401 H 1564.83 3.64402 -2.03143 0
M  V30 16402 H 1563.46 3.05008 -1.05688 0
M  V30 16403 H 1562.51 1.99879 -3.23655 0
M  V30 16404 H 1563.82 2.80505 -4.12454 0
M  V30 16405 H 1562.98 5.03943 -3.37827 0
M  V30 16406 H 1561.72 4.25265 -2.38748 0
M  V30 16407 H 1560.72 3.22683 -4.45147 0
M  V30 16408 H 1561.95 4.04594 -5.45418 0
M  V30 16409 H 1559.89 5.42691 -3.68541 0
M  V30 16410 H 1559.81 5.28032 -5.41035 0
M  V30 16411 H 1561.08 6.22636 -4.68983 0
M  V30 16412 N 1565.31 1.43698 0.647203 0
M  V30 16413 C 1566.25 1.49323 1.75987 0
M  V30 16414 C 1567.22 0.342379 1.62533 0
M  V30 16415 O 1568.41 0.550379 1.8269 0
M  V30 16416 C 1565.55 1.428 3.14169 0
M  V30 16417 C 1564.66 2.68136 3.38714 0
M  V30 16418 C 1563.8 2.53559 4.66778 0
M  V30 16419 C 1562.84 3.74135 4.84447 0
M  V30 16420 N 1561.97 3.58332 6.03774 0
M  V30 16421 H 1566.81 2.44395 1.70514 0
M  V30 16422 H 1564.35 1.21309 0.832021 0
M  V30 16423 H 1566.31 1.37011 3.94061 0
M  V30 16424 H 1564.94 0.513057 3.18697 0
M  V30 16425 H 1563.99 2.84179 2.52877 0
M  V30 16426 H 1565.3 3.57684 3.47654 0
M  V30 16427 H 1564.46 2.45513 5.54805 0
M  V30 16428 H 1563.2 1.61545 4.60168 0
M  V30 16429 H 1562.2 3.82584 3.94854 0
M  V30 16430 H 1563.43 4.67165 4.92883 0
M  V30 16431 H 1561.37 2.69057 5.98284 0
M  V30 16432 H 1561.29 4.41485 6.13699 0
M  V30 16433 H 1562.56 3.54148 6.94406 0
M  V30 16434 N 1566.79 -0.886131 1.30328 0
M  V30 16435 C 1568.02 -1.66857 1.2183 0
M  V30 16436 C 1568.42 -1.87899 -0.221474 0
M  V30 16437 O 1567.77 -1.42571 -1.15841 0
M  V30 16438 C 1567.83 -3.06732 1.87499 0
M  V30 16439 C 1567.49 -3.08865 3.36825 0
M  V30 16440 C 1568.49 -2.88008 4.32836 0
M  V30 16441 C 1566.18 -3.305 3.78253 0
M  V30 16442 C 1568.17 -2.8874 5.6825 0
M  V30 16443 C 1565.86 -3.30861 5.13784 0
M  V30 16444 C 1566.85 -3.10005 6.08593 0
M  V30 16445 O 1566.54 -3.10181 7.41649 0
M  V30 16446 H 1566.27 -0.527473 0.422786 0
M  V30 16447 H 1568.83 -1.11553 1.72468 0
M  V30 16448 H 1567.06 -3.63695 1.31389 0
M  V30 16449 H 1568.75 -3.67122 1.73136 0
M  V30 16450 H 1569.51 -2.71093 4.02161 0
M  V30 16451 H 1565.39 -3.45769 3.04902 0
M  V30 16452 H 1568.94 -2.7238 6.42227 0
M  V30 16453 H 1564.83 -3.47312 5.441 0
M  V30 16454 H 1565.6 -3.26354 7.50623 0
M  V30 16455 N 1568.26 -1.13026 -1.09832 0
M  V30 16456 C 1569.21 -0.803817 -2.1635 0
M  V30 16457 C 1570.18 0.232226 -1.64469 0
M  V30 16458 O 1571.37 0.105403 -1.90509 0
M  V30 16459 C 1568.51 -0.271414 -3.44031 0
M  V30 16460 C 1567.62 -1.36602 -4.09834 0
M  V30 16461 C 1566.75 -0.792393 -5.25257 0
M  V30 16462 C 1565.79 -1.86569 -5.82974 0
M  V30 16463 N 1564.93 -1.31032 -6.89764 0
M  V30 16464 H 1569.77 -1.71624 -2.43617 0
M  V30 16465 H 1567.31 -0.856772 -1.19574 0
M  V30 16466 H 1569.27 0.0553638 -4.17163 0
M  V30 16467 H 1567.9 0.604154 -3.17096 0
M  V30 16468 H 1566.95 -1.80946 -3.34608 0
M  V30 16469 H 1568.26 -2.17737 -4.48767 0
M  V30 16470 H 1567.41 -0.416652 -6.05268 0
M  V30 16471 H 1566.15 0.0500894 -4.87674 0
M  V30 16472 H 1565.16 -2.25054 -5.01628 0
M  V30 16473 H 1566.38 -2.7115 -6.22619 0
M  V30 16474 H 1564.33 -0.489768 -6.54169 0
M  V30 16475 H 1564.25 -2.0582 -7.27444 0
M  V30 16476 H 1565.51 -0.962011 -7.73541 0
M  V30 16477 N 1569.74 1.27735 -0.923117 0
M  V30 16478 C 1570.99 1.93857 -0.556994 0
M  V30 16479 C 1571.3 1.73386 0.905346 0
M  V30 16480 O 1572.51 2.3381 1.38005 0
M  V30 16481 C 1570.97 3.47263 -0.94534 0
M  V30 16482 C 1570.57 3.76497 -2.42805 0
M  V30 16483 C 1572.32 4.1949 -0.65025 0
M  V30 16484 C 1570.23 5.23256 -2.75603 0
M  V30 16485 H 1569.16 0.725712 -0.204591 0
M  V30 16486 H 1571.81 1.451 -1.12331 0
M  V30 16487 H 1570.19 3.94803 -0.307721 0
M  V30 16488 H 1571.36 3.39731 -3.11319 0
M  V30 16489 H 1569.68 3.17463 -2.69456 0
M  V30 16490 H 1572.27 5.27544 -0.871851 0
M  V30 16491 H 1572.62 4.14253 0.412352 0
M  V30 16492 H 1573.15 3.77758 -1.24676 0
M  V30 16493 H 1569.89 5.33579 -3.80754 0
M  V30 16494 H 1569.41 5.61185 -2.11735 0
M  V30 16495 H 1571.09 5.91088 -2.63103 0
M  V30 16496 N 1571.22 0.688118 1.41784 0
M  V30 16497 C 1572.15 -0.02099 2.2919 0
M  V30 16498 C 1573.17 -0.752005 1.44391 0
M  V30 16499 O 1574.35 -0.603947 1.67972 0
M  V30 16500 C 1571.45 -1.0537 3.22103 0
M  V30 16501 C 1570.63 -0.393817 4.35624 0
M  V30 16502 C 1569.69 -1.32812 5.09163 0
M  V30 16503 O 1568.71 -0.823341 5.63214 0
M  V30 16504 N 1569.91 -2.66083 5.15927 0
M  V30 16505 H 1572.68 0.729389 2.90689 0
M  V30 16506 H 1570.24 0.533564 1.52855 0
M  V30 16507 H 1572.23 -1.6803 3.68169 0
M  V30 16508 H 1570.8 -1.70568 2.61964 0
M  V30 16509 H 1570.02 0.41253 3.92035 0
M  V30 16510 H 1571.31 0.065338 5.08758 0
M  V30 16511 H 1570.71 -3.09619 4.73448 0
M  V30 16512 H 1569.27 -3.23956 5.65593 0
M  V30 16513 N 1572.7 -1.51554 0.432352 0
M  V30 16514 C 1573.95 -2.01232 -0.137255 0
M  V30 16515 C 1574.26 -1.32135 -1.44221 0
M  V30 16516 O 1575.47 -1.72756 -2.09446 0
M  V30 16517 C 1573.92 -3.58688 -0.295152 0
M  V30 16518 C 1573.53 -4.36718 0.999072 0
M  V30 16519 C 1575.27 -4.16528 -0.818798 0
M  V30 16520 C 1573.18 -5.85867 0.80709 0
M  V30 16521 H 1572.11 -0.751986 -0.0550696 0
M  V30 16522 H 1574.76 -1.74703 0.561352 0
M  V30 16523 H 1573.14 -3.81643 -1.05664 0
M  V30 16524 H 1574.32 -4.25512 1.76851 0
M  V30 16525 H 1572.63 -3.90306 1.45087 0
M  V30 16526 H 1575.23 -5.25664 -0.978841 0
M  V30 16527 H 1575.57 -3.75379 -1.79989 0
M  V30 16528 H 1576.11 -3.97632 -0.11575 0
M  V30 16529 H 1572.85 -6.31419 1.76041 0
M  V30 16530 H 1572.37 -5.9975 0.0773617 0
M  V30 16531 H 1574.04 -6.45375 0.458328 0
M  V30 16532 N 1574.18 -0.163538 -1.56749 0
M  V30 16533 C 1575.11 0.765571 -2.20593 0
M  V30 16534 C 1576.09 1.24489 -1.15916 0
M  V30 16535 O 1577.27 1.29946 -1.44318 0
M  V30 16536 C 1574.4 1.99823 -2.84057 0
M  V30 16537 C 1573.36 1.65506 -3.94705 0
M  V30 16538 C 1572.68 2.96172 -4.45181 0
M  V30 16539 C 1573.98 0.88902 -5.14678 0
M  V30 16540 H 1575.68 0.233431 -2.98489 0
M  V30 16541 H 1573.22 0.110836 -1.43573 0
M  V30 16542 H 1575.18 2.65316 -3.27392 0
M  V30 16543 H 1573.9 2.55437 -2.03517 0
M  V30 16544 H 1572.56 1.02384 -3.52013 0
M  V30 16545 H 1572.21 3.49811 -3.61443 0
M  V30 16546 H 1571.91 2.73968 -5.19823 0
M  V30 16547 H 1573.43 3.62708 -4.91198 0
M  V30 16548 H 1574.84 1.44637 -5.54755 0
M  V30 16549 H 1573.24 0.766302 -5.95187 0
M  V30 16550 H 1574.31 -0.116145 -4.84761 0
M  V30 16551 N 1575.65 1.57214 0.110213 0
M  V30 16552 C 1576.88 1.89505 0.830391 0
M  V30 16553 C 1577.3 0.755702 1.73016 0
M  V30 16554 O 1576.65 -0.273072 1.80445 0
M  V30 16555 C 1576.71 3.21316 1.65646 0
M  V30 16556 O 1576.43 4.30865 0.7929 0
M  V30 16557 C 1577.93 3.67369 2.48102 0
M  V30 16558 H 1575.15 0.627277 0.238252 0
M  V30 16559 H 1577.69 2.04293 0.0919716 0
M  V30 16560 H 1575.85 3.08171 2.34754 0
M  V30 16561 H 1576.26 5.06466 1.36353 0
M  V30 16562 H 1577.73 4.62335 3.0158 0
M  V30 16563 H 1578.21 2.94459 3.25869 0
M  V30 16564 H 1578.82 3.83331 1.8422 0
M  V30 16565 N 1577.13 -0.380637 1.52934 0
M  V30 16566 C 1578.38 -1.1265 1.68635 0
M  V30 16567 C 1578.71 -1.89397 0.429227 0
M  V30 16568 O 1577.99 -1.85863 -0.573182 0
M  V30 16569 C 1578.27 -2.09797 2.92673 0
M  V30 16570 C 1578.12 -1.36758 4.28506 0
M  V30 16571 C 1579.44 -3.10117 3.12274 0
M  V30 16572 H 1576.56 -0.408158 0.613658 0
M  V30 16573 H 1579.2 -0.408947 1.85547 0
M  V30 16574 H 1577.35 -2.70987 2.78385 0
M  V30 16575 H 1579.02 -0.784679 4.54577 0
M  V30 16576 H 1577.27 -0.669413 4.28604 0
M  V30 16577 H 1577.94 -2.07786 5.11399 0
M  V30 16578 H 1580.41 -2.59022 3.25648 0
M  V30 16579 H 1579.29 -3.75328 4.00525 0
M  V30 16580 H 1579.55 -3.79451 2.26868 0
M  V30 16581 N 1578.61 -1.44039 -0.639573 0
M  V30 16582 C 1579.84 -1.50063 -1.43164 0
M  V30 16583 C 1580.26 -0.123906 -1.87691 0
M  V30 16584 O 1579.62 0.885192 -1.58221 0
M  V30 16585 C 1579.67 -2.46305 -2.63375 0
M  V30 16586 O 1578.77 -1.95874 -3.62915 0
M  V30 16587 H 1578.11 -0.507052 -0.428713 0
M  V30 16588 H 1580.64 -1.8909 -0.781415 0
M  V30 16589 H 1580.65 -2.64062 -3.11023 0
M  V30 16590 H 1579.33 -3.46309 -2.3031 0
M  V30 16591 H 1577.9 -1.87844 -3.22132 0
M  V30 16592 N 1580.09 0.879207 -1.30796 0
M  V30 16593 C 1581.34 1.62828 -1.19715 0
M  V30 16594 C 1581.66 1.93429 0.247031 0
M  V30 16595 O 1580.93 1.57478 1.16522 0
M  V30 16596 H 1579.51 0.603607 -0.440077 0
M  V30 16597 H 1582.17 1.05309 -1.64 0
M  V30 16598 H 1581.27 2.57591 -1.76219 0
M  V30 16599 N 1581.57 1.13606 1.09231 0
M  V30 16600 C 1582.82 0.897278 1.81089 0
M  V30 16601 C 1583.14 -0.578066 1.86235 0
M  V30 16602 O 1582.41 -1.42018 1.34935 0
M  V30 16603 H 1580.99 0.328971 0.670662 0
M  V30 16604 H 1583.65 1.433 1.32103 0
M  V30 16605 H 1582.74 1.28979 2.84202 0
M  V30 16606 N 1583.05 -1.27244 0.929878 0
M  V30 16607 C 1583.98 -2.29161 0.448066 0
M  V30 16608 C 1584.96 -1.62806 -0.492776 0
M  V30 16609 O 1586.14 -1.90098 -0.39706 0
M  V30 16610 C 1583.27 -3.46019 -0.298002 0
M  V30 16611 C 1582.23 -4.24384 0.555211 0
M  V30 16612 C 1581.55 -5.33741 -0.320153 0
M  V30 16613 C 1582.85 -4.89535 1.8208 0
M  V30 16614 H 1584.55 -2.69712 1.29983 0
M  V30 16615 H 1582.09 -1.29659 0.626466 0
M  V30 16616 H 1584.04 -4.16419 -0.646024 0
M  V30 16617 H 1582.77 -3.0439 -1.18381 0
M  V30 16618 H 1581.43 -3.55733 0.885971 0
M  V30 16619 H 1581.08 -4.88354 -1.20498 0
M  V30 16620 H 1580.78 -5.8708 0.247241 0
M  V30 16621 H 1582.3 -6.06982 -0.663697 0
M  V30 16622 H 1583.71 -5.52209 1.54071 0
M  V30 16623 H 1582.11 -5.52941 2.33186 0
M  V30 16624 H 1583.18 -4.13113 2.53901 0
M  V30 16625 N 1584.52 -0.695628 -1.41417 0
M  V30 16626 C 1585.77 -0.226618 -2.01228 0
M  V30 16627 C 1586.1 1.17376 -1.5509 0
M  V30 16628 O 1585.35 1.80635 -0.752964 0
M  V30 16629 C 1585.65 -0.232664 -3.56642 0
M  V30 16630 C 1585.32 -1.58057 -4.2229 0
M  V30 16631 C 1583.98 -1.94959 -4.39937 0
M  V30 16632 C 1586.33 -2.46735 -4.59098 0
M  V30 16633 C 1583.66 -3.20123 -4.91669 0
M  V30 16634 C 1586.01 -3.71232 -5.1222 0
M  V30 16635 C 1584.68 -4.08277 -5.28078 0
M  V30 16636 H 1583.95 -0.0829255 -0.736345 0
M  V30 16637 H 1586.59 -0.894729 -1.69313 0
M  V30 16638 H 1584.9 0.518995 -3.88347 0
M  V30 16639 H 1586.6 0.147754 -4.00728 0
M  V30 16640 H 1583.19 -1.28356 -4.08929 0
M  V30 16641 H 1587.37 -2.19506 -4.45119 0
M  V30 16642 H 1582.63 -3.48819 -5.02131 0
M  V30 16643 H 1586.8 -4.40132 -5.39682 0
M  V30 16644 H 1584.43 -5.05335 -5.67927 0
M  V30 16645 N 1586 1.51322 -0.440383 0
M  V30 16646 C 1587.23 2.07017 0.126018 0
M  V30 16647 C 1587.65 1.30537 1.35431 0
M  V30 16648 O 1587.01 0.344178 1.78003 0
M  V30 16649 C 1587.06 3.58101 0.4238 0
M  V30 16650 O 1586.16 3.83772 1.50973 0
M  V30 16651 H 1585.5 0.664 0.000530178 0
M  V30 16652 H 1588.03 1.94897 -0.622594 0
M  V30 16653 H 1588.04 4.02405 0.673363 0
M  V30 16654 H 1586.72 4.13191 -0.473932 0
M  V30 16655 H 1585.29 3.51329 1.24989 0
M  V30 16656 N 1587.48 0.171848 1.5666 0
M  V30 16657 C 1588.43 -0.758237 2.17989 0
M  V30 16658 C 1589.4 -1.22654 1.12006 0
M  V30 16659 O 1590.58 -1.29461 1.40159 0
M  V30 16660 C 1587.72 -1.98189 2.82516 0
M  V30 16661 C 1586.83 -1.55711 4.02962 0
M  V30 16662 C 1585.97 -2.73447 4.55412 0
M  V30 16663 C 1585.01 -2.27462 5.68267 0
M  V30 16664 N 1584.15 -3.38293 6.15225 0
M  V30 16665 H 1588.99 -0.228467 2.97123 0
M  V30 16666 H 1586.52 -0.10104 1.46753 0
M  V30 16667 H 1588.48 -2.6996 3.18084 0
M  V30 16668 H 1587.11 -2.48536 2.05985 0
M  V30 16669 H 1586.16 -0.736126 3.7321 0
M  V30 16670 H 1587.47 -1.17957 4.84652 0
M  V30 16671 H 1586.63 -3.53374 4.93165 0
M  V30 16672 H 1585.37 -3.14462 3.7278 0
M  V30 16673 H 1584.37 -1.45982 5.30065 0
M  V30 16674 H 1585.6 -1.87505 6.52701 0
M  V30 16675 H 1583.54 -3.78882 5.35522 0
M  V30 16676 H 1583.46 -3.04633 6.91907 0
M  V30 16677 H 1584.73 -4.18503 6.57629 0
M  V30 16678 N 1588.96 -1.5727 -0.101874 0
M  V30 16679 C 1589.87 -2.04896 -1.14257 0
M  V30 16680 C 1590.88 -0.972561 -1.44282 0
M  V30 16681 O 1592.06 -1.28526 -1.55058 0
M  V30 16682 C 1589.12 -2.45818 -2.44488 0
M  V30 16683 C 1588.19 -3.6762 -2.21707 0
M  V30 16684 C 1587.42 -4.06581 -3.45728 0
M  V30 16685 O 1587.64 -3.45702 -4.53703 0
M  V30 16686 O 1586.58 -4.99578 -3.35716 0
M  V30 16687 H 1590.4 -2.93827 -0.768085 0
M  V30 16688 H 1587.99 -1.46065 -0.313902 0
M  V30 16689 H 1589.87 -2.72796 -3.21186 0
M  V30 16690 H 1588.54 -1.60028 -2.81377 0
M  V30 16691 H 1587.45 -3.45768 -1.42812 0
M  V30 16692 H 1588.78 -4.54169 -1.89714 0
M  V30 16693 N 1590.44 0.372521 -1.53134 0
M  V30 16694 C 1591.4 1.43875 -1.78417 0
M  V30 16695 C 1592.4 1.46879 -0.654455 0
M  V30 16696 O 1593.59 1.47761 -0.922619 0
M  V30 16697 C 1590.72 2.83046 -1.89994 0
M  V30 16698 H 1591.91 1.22733 -2.73636 0
M  V30 16699 H 1589.47 0.605247 -1.44106 0
M  V30 16700 H 1590.2 3.09511 -0.968179 0
M  V30 16701 H 1589.99 2.82265 -2.72156 0
M  V30 16702 H 1591.48 3.60273 -2.11171 0
M  V30 16703 N 1591.91 1.44376 0.631925 0
M  V30 16704 C 1592.85 1.47167 1.75711 0
M  V30 16705 C 1593.86 0.365158 1.58652 0
M  V30 16706 O 1595.05 0.630852 1.66981 0
M  V30 16707 C 1592.15 1.28916 3.13423 0
M  V30 16708 C 1591.32 2.52798 3.56948 0
M  V30 16709 C 1590.38 2.29458 4.73535 0
M  V30 16710 O 1589.41 3.02941 4.81887 0
M  V30 16711 N 1590.61 1.32467 5.65184 0
M  V30 16712 H 1593.37 2.44168 1.73788 0
M  V30 16713 H 1590.93 1.39805 0.816465 0
M  V30 16714 H 1592.93 1.1115 3.89137 0
M  V30 16715 H 1591.5 0.402828 3.09994 0
M  V30 16716 H 1590.72 2.85846 2.71451 0
M  V30 16717 H 1592 3.35198 3.82779 0
M  V30 16718 H 1591.4 0.717762 5.61128 0
M  V30 16719 H 1589.96 1.2068 6.40531 0
M  V30 16720 N 1593.39 -0.872258 1.31261 0
M  V30 16721 C 1594.62 -1.65795 1.23772 0
M  V30 16722 C 1595.03 -1.87766 -0.197351 0
M  V30 16723 O 1594.39 -1.43418 -1.1286 0
M  V30 16724 C 1594.44 -3.02722 1.9759 0
M  V30 16725 O 1594.16 -2.81734 3.35496 0
M  V30 16726 C 1595.66 -3.97165 1.96913 0
M  V30 16727 H 1592.88 -0.516959 0.427778 0
M  V30 16728 H 1595.43 -1.0889 1.73099 0
M  V30 16729 H 1593.58 -3.56322 1.5203 0
M  V30 16730 H 1594 -3.6869 3.73052 0
M  V30 16731 H 1595.47 -4.90566 2.53079 0
M  V30 16732 H 1595.95 -4.28778 0.951089 0
M  V30 16733 H 1596.55 -3.495 2.42342 0
M  V30 16734 N 1594.87 -1.14184 -1.08627 0
M  V30 16735 C 1595.78 -0.84033 -2.19033 0
M  V30 16736 C 1596.8 0.178322 -1.73084 0
M  V30 16737 O 1597.97 0.00737963 -2.01399 0
M  V30 16738 C 1595.04 -0.319674 -3.45223 0
M  V30 16739 C 1594.1 -1.4006 -4.0581 0
M  V30 16740 C 1593.33 -0.904693 -5.25976 0
M  V30 16741 O 1593.55 0.25468 -5.69831 0
M  V30 16742 O 1592.49 -1.68267 -5.77901 0
M  V30 16743 H 1596.31 -1.76296 -2.47292 0
M  V30 16744 H 1593.9 -0.919929 -1.17719 0
M  V30 16745 H 1595.78 -0.0351268 -4.21385 0
M  V30 16746 H 1594.46 0.575264 -3.18547 0
M  V30 16747 H 1593.36 -1.73858 -3.31247 0
M  V30 16748 H 1594.7 -2.26998 -4.3673 0
M  V30 16749 N 1596.35 1.26749 -0.936613 0
M  V30 16750 C 1597.6 1.9358 -0.580605 0
M  V30 16751 C 1597.92 1.7389 0.882446 0
M  V30 16752 O 1597.19 1.09185 1.62652 0
M  V30 16753 H 1595.77 0.716363 -0.211739 0
M  V30 16754 H 1598.43 1.54281 -1.19095 0
M  V30 16755 H 1597.53 3.01819 -0.79448 0
M  V30 16756 N 1597.83 0.703118 1.41046 0
M  V30 16757 C 1599.24 0.375417 1.55122 0
M  V30 16758 C 1599.44 -1.11696 1.67709 0
M  V30 16759 O 1598.5 -1.90289 1.65971 0
M  V30 16760 C 1599.81 1.13056 2.78638 0
M  V30 16761 C 1601.36 1.11564 2.92442 0
M  V30 16762 C 1601.83 1.85268 4.18855 0
M  V30 16763 N 1603.33 1.82275 4.25829 0
M  V30 16764 C 1604.06 2.36137 5.2252 0
M  V30 16765 N 1603.56 2.98502 6.25195 0
M  V30 16766 N 1605.35 2.26349 5.14512 0
M  V30 16767 H 1597.5 1.67096 1.31121 0
M  V30 16768 H 1599.76 0.705573 0.633144 0
M  V30 16769 H 1599.47 2.18524 2.75572 0
M  V30 16770 H 1599.34 0.714037 3.7038 0
M  V30 16771 H 1601.73 0.0691901 2.95019 0
M  V30 16772 H 1601.81 1.57128 2.01853 0
M  V30 16773 H 1601.46 2.89896 4.1704 0
M  V30 16774 H 1601.39 1.37133 5.08431 0
M  V30 16775 H 1603.88 1.36812 3.52265 0
M  V30 16776 H 1604.19 3.37149 6.95378 0
M  V30 16777 H 1602.53 3.02582 6.25675 0
M  V30 16778 H 1605.73 1.77294 4.33226 0
M  V30 16779 H 1605.9 2.68629 5.89697 0
M  V30 16780 N 1599.3 -1.51086 0.448402 0
M  V30 16781 C 1600.53 -2.06593 -0.112695 0
M  V30 16782 C 1600.95 -1.31471 -1.35502 0
M  V30 16783 O 1600.3 -0.377406 -1.78555 0
M  V30 16784 C 1600.36 -3.59008 -0.423769 0
M  V30 16785 O 1600.08 -4.31293 0.769259 0
M  V30 16786 C 1601.58 -4.31064 -1.03433 0
M  V30 16787 H 1598.8 -0.670993 -0.00301626 0
M  V30 16788 H 1601.34 -1.94532 0.630667 0
M  V30 16789 H 1599.5 -3.70946 -1.11704 0
M  V30 16790 H 1599.91 -5.2211 0.500162 0
M  V30 16791 H 1601.38 -5.38756 -1.20191 0
M  V30 16792 H 1601.86 -3.90075 -2.01837 0
M  V30 16793 H 1602.47 -4.23598 -0.380115 0
M  V30 16794 N 1600.78 -0.180154 -1.56567 0
M  V30 16795 C 1602.03 0.463205 -1.97439 0
M  V30 16796 C 1602.36 1.62296 -1.06647 0
M  V30 16797 O 1601.64 1.94157 -0.115382 0
M  V30 16798 C 1601.92 0.937709 -3.47677 0
M  V30 16799 C 1601.77 -0.222835 -4.49248 0
M  V30 16800 C 1603.09 1.80836 -4.01231 0
M  V30 16801 H 1600.21 0.166899 -0.717854 0
M  V30 16802 H 1602.85 -0.268069 -1.88099 0
M  V30 16803 H 1601 1.56084 -3.55767 0
M  V30 16804 H 1602.67 -0.860155 -4.5321 0
M  V30 16805 H 1600.92 -0.876962 -4.24843 0
M  V30 16806 H 1601.59 0.151444 -5.51792 0
M  V30 16807 H 1604.06 1.28297 -3.95827 0
M  V30 16808 H 1602.94 2.10937 -5.06751 0
M  V30 16809 H 1603.2 2.75728 -3.45581 0
M  V30 16810 N 1602.26 1.57322 0.0935319 0
M  V30 16811 C 1603.67 1.75099 0.64787 0
M  V30 16812 C 1604.02 0.802558 1.79035 0
M  V30 16813 O 1603.15 -0.0185803 2.16392 0
M  V30 16814 C 1603.74 3.17512 1.18203 0
M  V30 16815 C 1602.3 3.36707 1.68242 0
M  V30 16816 C 1601.45 2.70893 0.592649 0
M  V30 16817 H 1604.4 1.58146 -0.132546 0
M  V30 16818 H 1604.42 3.2047 2.05132 0
M  V30 16819 H 1603.93 3.86516 0.350297 0
M  V30 16820 H 1602.03 2.72784 2.5381 0
M  V30 16821 H 1602.15 4.45033 1.77433 0
M  V30 16822 H 1600.51 2.32835 1.03248 0
M  V30 16823 H 1601.29 3.42539 -0.228529 0
M  V30 16824 N 1603.74 -0.364395 1.53329 0
M  V30 16825 C 1604.7 -1.42927 1.79178 0
M  V30 16826 C 1605.7 -1.4653 0.662235 0
M  V30 16827 O 1606.89 -1.4727 0.930442 0
M  V30 16828 C 1604.02 -2.82035 1.91492 0
M  V30 16829 H 1605.22 -1.21281 2.74283 0
M  V30 16830 H 1602.77 -0.597596 1.44425 0
M  V30 16831 H 1603.5 -3.08993 0.984579 0
M  V30 16832 H 1603.29 -2.80818 2.73649 0
M  V30 16833 H 1604.78 -3.59148 2.13078 0
M  V30 16834 N 1605.22 -1.44709 -0.62426 0
M  V30 16835 C 1606.18 -1.51738 -1.7178 0
M  V30 16836 C 1607.18 -0.398646 -1.5578 0
M  V30 16837 O 1608.37 -0.661525 -1.61151 0
M  V30 16838 C 1605.5 -1.39792 -3.1092 0
M  V30 16839 H 1606.69 -2.49154 -1.6692 0
M  V30 16840 H 1604.25 -1.31903 -0.838531 0
M  V30 16841 H 1604.98 -0.434955 -3.2137 0
M  V30 16842 H 1604.77 -2.20919 -3.2394 0
M  V30 16843 H 1606.26 -1.47706 -3.90606 0
M  V30 16844 N 1606.69 0.865285 -1.31722 0
M  V30 16845 C 1607.94 1.62108 -1.21855 0
M  V30 16846 C 1608.27 1.9293 0.221714 0
M  V30 16847 O 1607.55 1.56423 1.15595 0
M  V30 16848 C 1607.83 2.94828 -2.06756 0
M  V30 16849 C 1607.68 2.70855 -3.59107 0
M  V30 16850 C 1609 3.95983 -1.92055 0
M  V30 16851 H 1606.12 0.588234 -0.444015 0
M  V30 16852 H 1608.76 0.999922 -1.6156 0
M  V30 16853 H 1606.91 3.47843 -1.73025 0
M  V30 16854 H 1608.59 2.24477 -4.02999 0
M  V30 16855 H 1606.83 2.05004 -3.82303 0
M  V30 16856 H 1607.5 3.65312 -4.13825 0
M  V30 16857 H 1609.98 3.52193 -2.21584 0
M  V30 16858 H 1608.85 4.86724 -2.53754 0
M  V30 16859 H 1609.11 4.33148 -0.885174 0
M  V30 16860 N 1608.17 1.14759 1.0802 0
M  V30 16861 C 1609.4 0.941887 1.84218 0
M  V30 16862 C 1609.82 -0.509702 1.8179 0
M  V30 16863 O 1609.17 -1.35331 1.22441 0
M  V30 16864 C 1609.22 1.43978 3.31591 0
M  V30 16865 O 1608.94 2.83449 3.34048 0
M  V30 16866 C 1610.45 1.27459 4.24581 0
M  V30 16867 H 1607.67 0.334942 0.581425 0
M  V30 16868 H 1610.21 1.52367 1.36399 0
M  V30 16869 H 1608.36 0.900674 3.76785 0
M  V30 16870 H 1608.78 3.05878 4.26073 0
M  V30 16871 H 1610.25 1.67151 5.26084 0
M  V30 16872 H 1610.73 0.217925 4.38659 0
M  V30 16873 H 1611.34 1.80243 3.85217 0
M  V30 16874 N 1609.65 -1.26251 0.943322 0
M  V30 16875 C 1610.93 -1.88839 0.509831 0
M  V30 16876 C 1611.31 -1.85227 -1.01263 0
M  V30 16877 O 1610.66 -1.30805 -1.87356 0
M  V30 16878 C 1610.87 -3.32076 1.07361 0
M  V30 16879 C 1612.21 -4.0891 1.14357 0
M  V30 16880 O 1613.24 -3.41153 1.02435 0
M  V30 16881 O 1612.1 -5.30088 1.32926 0
M  V30 16882 H 1609.19 -0.810069 0.166484 0
M  V30 16883 H 1611.74 -1.34405 1.03602 0
M  V30 16884 H 1610.51 -3.29077 2.11716 0
M  V30 16885 H 1610.13 -3.94052 0.529991 0
M  V30 16886 N 1611.13 -0.710588 -1.40671 0
M  V30 16887 C 1612.06 -0.0694601 -2.33397 0
M  V30 16888 C 1613.04 0.750959 -1.52626 0
M  V30 16889 O 1614.23 0.700896 -1.81111 0
M  V30 16890 C 1611.36 0.856704 -3.36568 0
M  V30 16891 C 1610.31 0.142276 -4.27763 0
M  V30 16892 C 1609.64 1.18382 -5.21431 0
M  V30 16893 C 1610.94 -1.00052 -5.12627 0
M  V30 16894 H 1612.63 -0.843945 -2.87259 0
M  V30 16895 H 1610.18 -0.407287 -1.3812 0
M  V30 16896 H 1612.13 1.31457 -4.00371 0
M  V30 16897 H 1610.85 1.66303 -2.81089 0
M  V30 16898 H 1609.51 -0.295714 -3.65405 0
M  V30 16899 H 1609.16 1.98306 -4.62259 0
M  V30 16900 H 1608.86 0.71071 -5.83286 0
M  V30 16901 H 1610.38 1.64189 -5.88111 0
M  V30 16902 H 1611.8 -0.622246 -5.69913 0
M  V30 16903 H 1610.19 -1.40168 -5.83501 0
M  V30 16904 H 1611.26 -1.83345 -4.48902 0
M  V30 16905 N 1612.61 1.50847 -0.456408 0
M  V30 16906 C 1614.02 1.59222 -0.109731 0
M  V30 16907 C 1614.22 1.46582 1.3826 0
M  V30 16908 O 1613.28 1.31678 2.15446 0
M  V30 16909 C 1614.59 2.9366 -0.646846 0
M  V30 16910 C 1616.14 3.07019 -0.60897 0
M  V30 16911 C 1616.62 4.44009 -1.12338 0
M  V30 16912 N 1618.11 4.50381 -1.08217 0
M  V30 16913 C 1618.84 5.54741 -1.45086 0
M  V30 16914 N 1618.34 6.66427 -1.89333 0
M  V30 16915 N 1620.13 5.45204 -1.36782 0
M  V30 16916 H 1612.28 1.57307 -1.42717 0
M  V30 16917 H 1614.54 0.742587 -0.589295 0
M  V30 16918 H 1614.25 3.0834 -1.69172 0
M  V30 16919 H 1614.12 3.7711 -0.0822535 0
M  V30 16920 H 1616.51 2.91995 0.426958 0
M  V30 16921 H 1616.59 2.25362 -1.21019 0
M  V30 16922 H 1616.24 4.59781 -2.15787 0
M  V30 16923 H 1616.17 5.24235 -0.498512 0
M  V30 16924 H 1618.66 3.70231 -0.757467 0
M  V30 16925 H 1618.97 7.42101 -2.15652 0
M  V30 16926 H 1617.32 6.67585 -1.93275 0
M  V30 16927 H 1620.51 4.56837 -1.02066 0
M  V30 16928 H 1620.68 6.26419 -1.65842 0
M  V30 16929 N 1614.09 0.188454 1.56469 0
M  V30 16930 C 1615.33 -0.452238 1.96565 0
M  V30 16931 C 1615.65 -1.63219 1.07792 0
M  V30 16932 O 1616.85 -2.34024 1.37641 0
M  V30 16933 C 1615.31 -0.855966 3.49573 0
M  V30 16934 C 1614.92 0.299329 4.46999 0
M  V30 16935 C 1616.66 -1.46411 3.98452 0
M  V30 16936 C 1614.57 -0.124987 5.91268 0
M  V30 16937 H 1613.5 -0.172729 0.733949 0
M  V30 16938 H 1616.15 0.279415 1.8136 0
M  V30 16939 H 1614.53 -1.64409 3.60258 0
M  V30 16940 H 1615.71 1.07681 4.48042 0
M  V30 16941 H 1614.02 0.818542 4.08275 0
M  V30 16942 H 1616.62 -1.79392 5.03709 0
M  V30 16943 H 1616.96 -2.36822 3.42376 0
M  V30 16944 H 1617.49 -0.740088 3.90855 0
M  V30 16945 H 1614.23 0.744769 6.51255 0
M  V30 16946 H 1613.75 -0.86747 5.93494 0
M  V30 16947 H 1615.43 -0.563054 6.44545 0
M  V30 16948 N 1615.56 -1.5737 -0.0851874 0
M  V30 16949 C 1616.79 -1.90802 -0.800137 0
M  V30 16950 C 1617.21 -0.783132 -1.71792 0
M  V30 16951 O 1616.56 0.244331 -1.80857 0
M  V30 16952 C 1616.61 -3.2391 -1.60513 0
M  V30 16953 O 1616.34 -4.32072 -0.724253 0
M  V30 16954 C 1617.84 -3.7127 -2.42226 0
M  V30 16955 H 1615.06 -0.630988 -0.228242 0
M  V30 16956 H 1617.6 -2.04414 -0.0594587 0
M  V30 16957 H 1615.76 -3.11867 -2.29822 0
M  V30 16958 H 1616.17 -5.08571 -1.28279 0
M  V30 16959 H 1617.64 -4.67074 -2.94187 0
M  V30 16960 H 1618.12 -2.99606 -3.21143 0
M  V30 16961 H 1618.73 -3.86214 -1.78099 0
M  V30 16962 N 1617.04 0.356258 -1.53521 0
M  V30 16963 C 1617.95 1.46055 -1.83589 0
M  V30 16964 C 1618.97 1.58176 -0.724997 0
M  V30 16965 O 1620.14 1.73894 -1.01601 0
M  V30 16966 C 1617.21 2.81207 -2.0279 0
M  V30 16967 C 1616.27 2.78535 -3.26675 0
M  V30 16968 C 1615.5 4.07241 -3.4495 0
M  V30 16969 O 1615.73 5.03879 -2.67324 0
M  V30 16970 O 1614.66 4.12485 -4.38337 0
M  V30 16971 H 1618.49 1.23566 -2.77426 0
M  V30 16972 H 1616.07 0.547243 -1.39017 0
M  V30 16973 H 1617.95 3.61271 -2.16936 0
M  V30 16974 H 1616.63 3.03654 -1.12143 0
M  V30 16975 H 1615.53 1.97137 -3.17943 0
M  V30 16976 H 1616.87 2.61042 -4.17274 0
M  V30 16977 N 1618.52 1.45038 0.616577 0
M  V30 16978 C 1619.47 1.53343 1.74896 0
M  V30 16979 C 1620.46 0.404033 1.64511 0
M  V30 16980 O 1621.67 0.57958 1.70414 0
M  V30 16981 H 1618.04 0.481471 0.577658 0
M  V30 16982 H 1620.01 2.4862 1.65017 0
M  V30 16983 C 1618.76 1.50871 3.13262 0
M  V30 16984 H 1618.09 2.37098 3.21908 0
M  V30 16985 H 1619.53 1.60741 3.9235 0
M  V30 16986 C 1617.98 0.231704 3.36102 0
M  V30 16987 O 1618.51 -0.692154 3.95692 0
M  V30 16988 N 1616.72 0.130232 2.90308 0
M  V30 16989 H 1616.27 0.882893 2.41997 0
M  V30 16990 H 1616.23 -0.723403 3.05964 0
M  V30 16991 N 1620 -0.858287 1.32179 0
M  V30 16992 C 1621.22 -1.64997 1.25662 0
M  V30 16993 C 1621.65 -1.87303 -0.173021 0
M  V30 16994 O 1621.01 -1.42319 -1.12317 0
M  V30 16995 C 1621.05 -2.98855 2.01787 0
M  V30 16996 O 1620.16 -3.89218 1.36319 0
M  V30 16997 H 1619.5 -0.503169 0.433264 0
M  V30 16998 H 1622.03 -1.06926 1.74436 0
M  V30 16999 H 1622.04 -3.48704 2.11824 0
M  V30 17000 H 1620.71 -2.81941 3.05748 0
M  V30 17001 H 1619.29 -3.4768 1.34807 0
M  V30 17002 N 1621.48 -1.1533 -1.07409 0
M  V30 17003 C 1622.7 -0.951643 -1.83715 0
M  V30 17004 C 1623.12 0.500054 -1.82057 0
M  V30 17005 O 1622.48 1.3468 -1.23157 0
M  V30 17006 C 1622.53 -1.45734 -3.30823 0
M  V30 17007 O 1622.25 -2.85217 -3.3254 0
M  V30 17008 C 1623.75 -1.29709 -4.23899 0
M  V30 17009 H 1620.97 -0.338021 -0.57964 0
M  V30 17010 H 1623.51 -1.53088 -1.35589 0
M  V30 17011 H 1621.67 -0.920643 -3.76302 0
M  V30 17012 H 1622.08 -3.08134 -4.24445 0
M  V30 17013 H 1623.56 -1.69938 -5.2519 0
M  V30 17014 H 1624.03 -0.241185 -4.38537 0
M  V30 17015 H 1624.64 -1.82283 -3.84256 0
M  V30 17016 N 1622.95 1.25748 -0.950004 0
M  V30 17017 C 1624.37 1.45599 -0.653697 0
M  V30 17018 C 1624.57 1.85357 0.790245 0
M  V30 17019 O 1623.63 1.98071 1.56601 0
M  V30 17020 C 1624.94 2.5316 -1.62267 0
M  V30 17021 C 1626.49 2.67004 -1.63334 0
M  V30 17022 C 1626.96 3.77745 -2.58984 0
M  V30 17023 N 1628.45 3.8515 -2.57321 0
M  V30 17024 C 1629.19 4.70315 -3.28011 0
M  V30 17025 N 1628.68 5.59802 -4.08159 0
M  V30 17026 N 1630.48 4.64239 -3.16921 0
M  V30 17027 H 1622.63 0.982321 -1.88319 0
M  V30 17028 H 1624.89 0.492917 -0.809776 0
M  V30 17029 H 1624.6 2.30792 -2.65382 0
M  V30 17030 H 1624.47 3.50988 -1.38158 0
M  V30 17031 H 1626.86 2.88739 -0.609388 0
M  V30 17032 H 1626.94 1.69591 -1.915 0
M  V30 17033 H 1626.58 3.56761 -3.61502 0
M  V30 17034 H 1626.51 4.74633 -2.28103 0
M  V30 17035 H 1629 3.21178 -1.99131 0
M  V30 17036 H 1629.32 6.21701 -4.59029 0
M  V30 17037 H 1627.66 5.59525 -4.12258 0
M  V30 17038 H 1630.85 3.93335 -2.53782 0
M  V30 17039 H 1631.03 5.30389 -3.72279 0
M  V30 17040 N 1624.43 0.718038 1.40292 0
M  V30 17041 C 1625.38 0.0434428 2.27959 0
M  V30 17042 C 1626.37 -0.730049 1.43384 0
M  V30 17043 O 1627.56 -0.601847 1.66454 0
M  V30 17044 C 1624.69 -0.875738 3.31942 0
M  V30 17045 C 1623.77 -0.0973011 4.23988 0
M  V30 17046 N 1624.16 0.92073 4.97349 0
M  V30 17047 C 1622.46 -0.329494 4.44781 0
M  V30 17048 C 1623.16 1.38868 5.64881 0
M  V30 17049 N 1622.14 0.710377 5.38938 0
M  V30 17050 H 1625.94 0.823656 2.82123 0
M  V30 17051 H 1623.45 0.550843 1.52773 0
M  V30 17052 H 1625.45 -1.37436 3.93595 0
M  V30 17053 H 1624.11 -1.6553 2.79338 0
M  V30 17054 H 1625.12 1.30164 5.01276 0
M  V30 17055 H 1621.8 -1.08519 4.0315 0
M  V30 17056 H 1623.19 2.23471 6.33648 0
M  V30 17057 N 1625.91 -1.50602 0.464402 0
M  V30 17058 C 1626.84 -2.31252 -0.323263 0
M  V30 17059 C 1627.82 -1.37856 -0.996476 0
M  V30 17060 O 1629.01 -1.66777 -0.994933 0
M  V30 17061 C 1626.14 -3.17414 -1.40945 0
M  V30 17062 C 1625.09 -4.19307 -0.858226 0
M  V30 17063 C 1624.42 -4.94164 -2.0422 0
M  V30 17064 C 1625.72 -5.22148 0.125921 0
M  V30 17065 H 1627.41 -2.97349 0.34983 0
M  V30 17066 H 1624.96 -1.42997 0.169685 0
M  V30 17067 H 1626.91 -3.72627 -1.96791 0
M  V30 17068 H 1625.63 -2.49189 -2.11122 0
M  V30 17069 H 1624.29 -3.65185 -0.321785 0
M  V30 17070 H 1623.94 -4.22417 -2.7308 0
M  V30 17071 H 1623.64 -5.63083 -1.67963 0
M  V30 17072 H 1625.16 -5.5221 -2.60569 0
M  V30 17073 H 1626.58 -5.72272 -0.343136 0
M  V30 17074 H 1624.98 -5.98749 0.402433 0
M  V30 17075 H 1626.05 -4.73307 1.05399 0
M  V30 17076 N 1627.39 -0.19675 -1.56367 0
M  V30 17077 C 1628.61 0.450245 -2.02454 0
M  V30 17078 C 1629.04 1.54287 -1.07597 0
M  V30 17079 O 1628.4 1.81202 -0.0597529 0
M  V30 17080 C 1628.44 0.982087 -3.46969 0
M  V30 17081 O 1627.55 2.09489 -3.5523 0
M  V30 17082 H 1626.89 0.105022 -0.655642 0
M  V30 17083 H 1629.42 -0.308112 -2.02267 0
M  V30 17084 H 1629.43 1.29826 -3.86793 0
M  V30 17085 H 1628.1 0.18224 -4.15501 0
M  V30 17086 H 1626.68 1.78723 -3.27281 0
M  V30 17087 N 1628.87 1.57413 0.0768405 0
M  V30 17088 C 1630.11 1.87002 0.776948 0
M  V30 17089 C 1630.44 0.787799 1.77831 0
M  V30 17090 O 1629.7 -0.216742 1.94496 0
M  V30 17091 C 1630 3.2324 1.52482 0
M  V30 17092 C 1629.66 4.45986 0.663899 0
M  V30 17093 C 1628.32 4.79305 0.426629 0
M  V30 17094 C 1630.68 5.21157 0.0665867 0
M  V30 17095 C 1628 5.85213 -0.417518 0
M  V30 17096 C 1630.36 6.27958 -0.764986 0
M  V30 17097 C 1629.02 6.59781 -1.01218 0
M  V30 17098 H 1628.29 0.684289 0.284306 0
M  V30 17099 H 1630.94 1.91463 0.0378686 0
M  V30 17100 H 1629.24 3.14547 2.33596 0
M  V30 17101 H 1630.94 3.43368 2.07123 0
M  V30 17102 H 1627.53 4.19905 0.858956 0
M  V30 17103 H 1631.71 4.95734 0.237022 0
M  V30 17104 H 1626.97 6.0827 -0.617827 0
M  V30 17105 H 1631.14 6.85369 -1.23459 0
M  V30 17106 H 1628.77 7.41674 -1.66806 0
M  V30 17107 N 1630.34 -0.348112 1.53707 0
M  V30 17108 C 1631.76 -0.690926 1.43869 0
M  V30 17109 C 1631.96 -1.92614 0.59177 0
M  V30 17110 O 1631.02 -2.5237 0.0809797 0
M  V30 17111 C 1632.33 -0.887824 2.87295 0
M  V30 17112 C 1633.88 -0.986731 2.9704 0
M  V30 17113 C 1634.35 -1.21598 4.41563 0
M  V30 17114 N 1635.84 -1.28328 4.45069 0
M  V30 17115 C 1636.58 -1.47809 5.54022 0
M  V30 17116 N 1636.07 -1.64492 6.72989 0
M  V30 17117 N 1637.87 -1.5032 5.41628 0
M  V30 17118 H 1630.02 0.464101 2.07268 0
M  V30 17119 H 1632.28 0.145678 0.93674 0
M  V30 17120 H 1631.99 -0.0517672 3.51662 0
M  V30 17121 H 1631.86 -1.79089 3.31974 0
M  V30 17122 H 1634.25 -1.81331 2.32815 0
M  V30 17123 H 1634.33 -0.0606692 2.55728 0
M  V30 17124 H 1633.97 -0.394341 5.06367 0
M  V30 17125 H 1633.9 -2.15553 4.80463 0
M  V30 17126 H 1636.39 -1.16979 3.59339 0
M  V30 17127 H 1636.71 -1.78979 7.51789 0
M  V30 17128 H 1635.05 -1.61636 6.75943 0
M  V30 17129 H 1638.24 -1.36865 4.47644 0
M  V30 17130 H 1638.42 -1.6516 6.26599 0
M  V30 17131 N 1631.82 -1.45363 -0.608876 0
M  V30 17132 C 1633.07 -1.50525 -1.36799 0
M  V30 17133 C 1633.42 -0.14442 -1.91857 0
M  V30 17134 O 1632.72 0.843502 -1.72034 0
M  V30 17135 C 1632.91 -2.51893 -2.53544 0
M  V30 17136 C 1632.74 -3.97699 -2.09918 0
M  V30 17137 C 1631.51 -4.65675 -1.96151 0
M  V30 17138 C 1633.71 -4.86272 -1.67464 0
M  V30 17139 N 1631.69 -5.96207 -1.46321 0
M  V30 17140 C 1633.06 -6.06423 -1.29041 0
M  V30 17141 C 1635.12 -4.73144 -1.55045 0
M  V30 17142 C 1633.82 -7.149 -0.794378 0
M  V30 17143 C 1635.84 -5.81668 -1.06846 0
M  V30 17144 C 1635.21 -7.00974 -0.693858 0
M  V30 17145 H 1631.31 -0.605762 -0.494546 0
M  V30 17146 H 1633.89 -1.81828 -0.696187 0
M  V30 17147 H 1632.06 -2.22544 -3.18322 0
M  V30 17148 H 1633.79 -2.47211 -3.2042 0
M  V30 17149 H 1630.55 -4.20808 -2.17296 0
M  V30 17150 H 1630.97 -6.65614 -1.23642 0
M  V30 17151 H 1635.61 -3.81321 -1.82632 0
M  V30 17152 H 1633.33 -8.06514 -0.506051 0
M  V30 17153 H 1636.92 -5.73544 -0.976637 0
M  V30 17154 H 1635.8 -7.83519 -0.326629 0
M  V30 17155 N 1633.3 0.851265 -1.32632 0
M  V30 17156 C 1634.53 1.63805 -1.26394 0
M  V30 17157 C 1634.94 1.88056 0.167454 0
M  V30 17158 O 1634.3 1.45196 1.10564 0
M  V30 17159 C 1634.35 2.9954 -2.02381 0
M  V30 17160 O 1634.07 2.76361 -3.39935 0
M  V30 17161 C 1635.57 3.93982 -2.03207 0
M  V30 17162 H 1632.79 0.510088 -0.435948 0
M  V30 17163 H 1635.34 1.06123 -1.74809 0
M  V30 17164 H 1633.49 3.53859 -1.5768 0
M  V30 17165 H 1633.91 3.62708 -3.78871 0
M  V30 17166 H 1635.38 4.86478 -2.60851 0
M  V30 17167 H 1635.86 4.27211 -1.01918 0
M  V30 17168 H 1636.46 3.45601 -2.47871 0
M  V30 17169 N 1634.78 1.15898 1.06796 0
M  V30 17170 C 1635.74 0.863427 2.12315 0
M  V30 17171 C 1636.74 -0.139326 1.60195 0
M  V30 17172 O 1637.93 0.0909705 1.73962 0
M  V30 17173 C 1635.06 0.290251 3.39662 0
M  V30 17174 H 1636.26 1.79879 2.39966 0
M  V30 17175 H 1633.81 0.967223 1.22778 0
M  V30 17176 H 1634.54 -0.653037 3.17657 0
M  V30 17177 H 1634.33 1.01273 3.78796 0
M  V30 17178 H 1635.82 0.10124 4.17477 0
M  V30 17179 N 1636.26 -1.25243 0.956659 0
M  V30 17180 C 1637.48 -1.97621 0.629337 0
M  V30 17181 C 1637.91 -1.70606 -0.792158 0
M  V30 17182 O 1637.26 -0.963192 -1.53598 0
M  V30 17183 C 1637.31 -3.49273 0.896687 0
M  V30 17184 O 1636.42 -4.12393 -0.0234986 0
M  V30 17185 H 1635.76 -0.619472 0.239061 0
M  V30 17186 H 1638.29 -1.5931 1.28381 0
M  V30 17187 H 1638.3 -3.99597 0.82377 0
M  V30 17188 H 1636.97 -3.68265 1.93271 0
M  V30 17189 H 1635.55 -3.72761 0.101796 0
M  V30 17190 N 1637.73 -0.725468 -1.3991 0
M  V30 17191 C 1638.64 -0.0805887 -2.34462 0
M  V30 17192 C 1639.66 0.732689 -1.57822 0
M  V30 17193 O 1640.84 0.663362 -1.90162 0
M  V30 17194 C 1637.9 0.822908 -3.36792 0
M  V30 17195 C 1636.96 -0.00153812 -4.293 0
M  V30 17196 C 1636.2 0.85893 -5.26743 0
M  V30 17197 O 1636.42 2.09793 -5.30418 0
M  V30 17198 O 1635.35 0.292659 -6.01188 0
M  V30 17199 H 1639.18 -0.860746 -2.91247 0
M  V30 17200 H 1636.76 -0.48604 -1.41273 0
M  V30 17201 H 1638.65 1.34014 -3.99522 0
M  V30 17202 H 1637.32 1.58204 -2.82406 0
M  V30 17203 H 1636.23 -0.564072 -3.69823 0
M  V30 17204 H 1637.56 -0.722675 -4.86866 0
M  V30 17205 N 1639.21 1.50354 -0.472382 0
M  V30 17206 C 1640.46 2.01934 0.0820006 0
M  V30 17207 C 1640.78 1.35636 1.401 0
M  V30 17208 O 1640.05 0.502127 1.89355 0
M  V30 17209 H 1638.63 0.746258 0.0332943 0
M  V30 17210 H 1641.29 1.84671 -0.623099 0
M  V30 17211 H 1640.39 3.11232 0.232565 0
M  V30 17212 N 1640.69 0.205039 1.56261 0
M  V30 17213 C 1641.6 -0.723548 2.23164 0
M  V30 17214 C 1642.62 -1.22683 1.23389 0
M  V30 17215 O 1643.79 -1.27191 1.56155 0
M  V30 17216 C 1640.86 -1.92178 2.88563 0
M  V30 17217 C 1639.92 -1.46209 4.03635 0
M  V30 17218 C 1639.15 -2.60321 4.65906 0
M  V30 17219 O 1639.38 -3.78051 4.27122 0
M  V30 17220 O 1638.31 -2.32465 5.55197 0
M  V30 17221 H 1642.14 -0.183715 3.03144 0
M  V30 17222 H 1639.72 -0.0246933 1.4938 0
M  V30 17223 H 1641.6 -2.62188 3.29902 0
M  V30 17224 H 1640.28 -2.45003 2.11555 0
M  V30 17225 H 1639.18 -0.730492 3.66899 0
M  V30 17226 H 1640.52 -0.980402 4.82337 0
M  V30 17227 N 1642.17 -1.57451 -0.0684915 0
M  V30 17228 C 1643.1 -2.06954 -1.0813 0
M  V30 17229 C 1644.08 -0.963716 -1.40166 0
M  V30 17230 O 1645.27 -1.23664 -1.49736 0
M  V30 17231 C 1642.4 -2.51622 -2.39381 0
M  V30 17232 C 1641.35 -3.66111 -2.2169 0
M  V30 17233 C 1640.68 -3.96846 -3.58354 0
M  V30 17234 C 1641.98 -4.96036 -1.63541 0
M  V30 17235 H 1643.67 -2.91822 -0.66936 0
M  V30 17236 H 1641.22 -1.40387 -0.320533 0
M  V30 17237 H 1643.17 -2.84867 -3.1053 0
M  V30 17238 H 1641.89 -1.63788 -2.82562 0
M  V30 17239 H 1640.55 -3.33155 -1.52982 0
M  V30 17240 H 1640.2 -3.06137 -3.9911 0
M  V30 17241 H 1639.9 -4.73939 -3.47354 0
M  V30 17242 H 1641.42 -4.3259 -4.30927 0
M  V30 17243 H 1642.84 -5.27491 -2.24559 0
M  V30 17244 H 1641.23 -5.77474 -1.63228 0
M  V30 17245 H 1642.3 -4.81208 -0.597199 0
M  V30 17246 N 1643.65 0.339955 -1.5389 0
M  V30 17247 C 1644.87 1.10417 -1.75564 0
M  V30 17248 C 1645.3 1.81466 -0.495156 0
M  V30 17249 O 1644.66 1.72679 0.552415 0
M  V30 17250 C 1644.7 2.09056 -2.93816 0
M  V30 17251 O 1643.81 3.16645 -2.64215 0
M  V30 17252 H 1643.15 0.319164 -0.582263 0
M  V30 17253 H 1645.68 0.389251 -2.00863 0
M  V30 17254 H 1645.69 2.52215 -3.20705 0
M  V30 17255 H 1644.36 1.56741 -3.85234 0
M  V30 17256 H 1642.94 2.78278 -2.48225 0
M  V30 17257 N 1645.13 1.45684 0.601159 0
M  V30 17258 C 1646.37 1.51248 1.35999 0
M  V30 17259 C 1646.73 0.154593 1.91778 0
M  V30 17260 O 1646.02 -0.834366 1.72479 0
M  V30 17261 C 1646.21 2.53235 2.52204 0
M  V30 17262 C 1646.04 3.98807 2.07806 0
M  V30 17263 C 1644.81 4.66708 1.93678 0
M  V30 17264 C 1647.01 4.87153 1.64883 0
M  V30 17265 N 1644.99 5.96975 1.43157 0
M  V30 17266 C 1646.36 6.07098 1.25823 0
M  V30 17267 C 1648.42 4.7396 1.52533 0
M  V30 17268 C 1647.12 7.15311 0.756454 0
M  V30 17269 C 1649.15 5.82227 1.0376 0
M  V30 17270 C 1648.51 7.01332 0.656674 0
M  V30 17271 H 1644.61 0.608376 0.491327 0
M  V30 17272 H 1647.19 1.82194 0.686534 0
M  V30 17273 H 1645.36 2.24229 3.17137 0
M  V30 17274 H 1647.1 2.48907 3.19104 0
M  V30 17275 H 1643.85 4.21955 2.15061 0
M  V30 17276 H 1644.27 6.6626 1.20111 0
M  V30 17277 H 1648.92 3.82284 1.80607 0
M  V30 17278 H 1646.63 8.06771 0.463273 0
M  V30 17279 H 1650.22 5.74054 0.946207 0
M  V30 17280 H 1649.1 7.83682 0.285073 0
M  V30 17281 N 1646.6 -0.84422 1.33082 0
M  V30 17282 C 1647.83 -1.62896 1.27076 0
M  V30 17283 C 1648.24 -1.88509 -0.161583 0
M  V30 17284 O 1647.58 -1.46184 -1.11247 0
M  V30 17285 C 1647.65 -3.00611 1.97163 0
M  V30 17286 C 1647.31 -2.97993 3.46481 0
M  V30 17287 C 1648.31 -2.74092 4.4178 0
M  V30 17288 C 1645.99 -3.18299 3.88576 0
M  V30 17289 C 1647.99 -2.70515 5.77148 0
M  V30 17290 C 1645.67 -3.14348 5.2405 0
M  V30 17291 C 1646.67 -2.90486 6.18148 0
M  V30 17292 O 1646.36 -2.86429 7.51142 0
M  V30 17293 H 1646.09 -0.513756 0.439353 0
M  V30 17294 H 1648.65 -1.06009 1.7593 0
M  V30 17295 H 1646.88 -3.5933 1.42893 0
M  V30 17296 H 1648.56 -3.61428 1.84728 0
M  V30 17297 H 1649.33 -2.58161 4.10582 0
M  V30 17298 H 1645.21 -3.35893 3.15748 0
M  V30 17299 H 1648.75 -2.5181 6.50567 0
M  V30 17300 H 1644.65 -3.29826 5.54874 0
M  V30 17301 H 1645.42 -3.02309 7.60626 0
M  V30 17302 N 1648.08 -1.16463 -1.0618 0
M  V30 17303 C 1649.03 -0.868264 -2.15787 0
M  V30 17304 C 1650.02 0.163135 -1.68613 0
M  V30 17305 O 1651.23 0.0170117 -1.79992 0
M  V30 17306 H 1647.6 -0.263184 -0.704442 0
M  V30 17307 H 1649.58 -1.80005 -2.37993 0
M  V30 17308 C 1648.32 -0.387052 -3.45539 0
M  V30 17309 H 1647.65 -1.17212 -3.82232 0
M  V30 17310 H 1649.09 -0.218471 -4.23437 0
M  V30 17311 C 1647.55 0.893588 -3.24833 0
M  V30 17312 O 1648.08 1.96259 -3.50493 0
M  V30 17313 N 1646.28 0.8378 -2.78261 0
M  V30 17314 H 1645.83 -0.0323251 -2.5758 0
M  V30 17315 H 1645.79 1.69515 -2.64787 0
M  V30 17316 N 1649.56 1.24734 -0.963288 0
M  V30 17317 C 1650.81 1.91987 -0.618386 0
M  V30 17318 C 1651.12 1.76179 0.849726 0
M  V30 17319 O 1652.33 2.38082 1.30496 0
M  V30 17320 C 1650.78 3.44079 -1.05534 0
M  V30 17321 C 1650.39 3.68582 -2.5466 0
M  V30 17322 C 1652.14 4.17209 -0.783378 0
M  V30 17323 C 1650.04 5.14223 -2.92111 0
M  V30 17324 H 1648.97 0.718836 -0.227575 0
M  V30 17325 H 1651.62 1.41453 -1.1689 0
M  V30 17326 H 1650.01 3.93624 -0.433168 0
M  V30 17327 H 1651.18 3.29655 -3.2197 0
M  V30 17328 H 1649.49 3.08729 -2.79419 0
M  V30 17329 H 1652.09 5.24503 -1.03924 0
M  V30 17330 H 1652.43 4.15355 0.280352 0
M  V30 17331 H 1652.97 3.736 -1.36631 0
M  V30 17332 H 1649.71 5.21195 -3.97537 0
M  V30 17333 H 1649.23 5.54164 -2.29482 0
M  V30 17334 H 1650.91 5.82419 -2.81775 0
M  V30 17335 N 1651.04 0.732878 1.39523 0
M  V30 17336 C 1652.28 0.279891 2.00556 0
M  V30 17337 C 1652.61 -1.13223 1.58148 0
M  V30 17338 O 1651.87 -1.78575 0.800591 0
M  V30 17339 C 1652.17 0.32714 3.559 0
M  V30 17340 C 1651.83 1.69198 4.17951 0
M  V30 17341 C 1650.49 2.06555 4.34613 0
M  V30 17342 C 1652.85 2.58821 4.52395 0
M  V30 17343 C 1650.17 3.33047 4.83008 0
M  V30 17344 C 1652.53 3.84682 5.02197 0
M  V30 17345 C 1651.19 4.22134 5.17068 0
M  V30 17346 H 1650.46 0.102419 0.733888 0
M  V30 17347 H 1653.11 0.939304 1.66881 0
M  V30 17348 H 1651.41 -0.415849 3.89587 0
M  V30 17349 H 1653.11 -0.0414564 4.00979 0
M  V30 17350 H 1649.7 1.39153 4.05382 0
M  V30 17351 H 1653.88 2.31231 4.39142 0
M  V30 17352 H 1649.14 3.6201 4.92706 0
M  V30 17353 H 1653.31 4.54286 5.27823 0
M  V30 17354 H 1650.94 5.20215 5.54329 0
M  V30 17355 N 1652.52 -1.50101 0.480349 0
M  V30 17356 C 1653.45 -2.31581 -0.298718 0
M  V30 17357 C 1654.43 -1.38905 -0.981798 0
M  V30 17358 O 1655.61 -1.67823 -0.977188 0
M  V30 17359 C 1652.74 -3.18891 -1.37571 0
M  V30 17360 C 1651.7 -4.20194 -0.813704 0
M  V30 17361 C 1651.02 -4.96302 -1.98968 0
M  V30 17362 C 1652.32 -5.21985 0.181295 0
M  V30 17363 H 1654.02 -2.96961 0.381349 0
M  V30 17364 H 1651.56 -1.42809 0.184842 0
M  V30 17365 H 1653.51 -3.74694 -1.92828 0
M  V30 17366 H 1652.24 -2.51414 -2.08467 0
M  V30 17367 H 1650.9 -3.65506 -0.283034 0
M  V30 17368 H 1650.55 -4.2529 -2.68584 0
M  V30 17369 H 1650.25 -5.64833 -1.61981 0
M  V30 17370 H 1651.77 -5.54943 -2.54698 0
M  V30 17371 H 1653.18 -5.72604 -0.28242 0
M  V30 17372 H 1651.58 -5.98289 0.465916 0
M  V30 17373 H 1652.65 -4.72162 1.10413 0
M  V30 17374 N 1653.99 -0.213323 -1.5615 0
M  V30 17375 C 1655.22 0.425071 -2.0218 0
M  V30 17376 C 1655.63 1.54471 -1.09249 0
M  V30 17377 O 1654.97 1.83465 -0.0928585 0
M  V30 17378 C 1655.04 1.02533 -3.44568 0
M  V30 17379 C 1654.7 0.0421613 -4.56981 0
M  V30 17380 C 1655.7 -0.755199 -5.14386 0
M  V30 17381 C 1653.38 -0.0742081 -5.02245 0
M  V30 17382 C 1655.38 -1.65571 -6.1552 0
M  V30 17383 C 1653.06 -0.978264 -6.03219 0
M  V30 17384 C 1654.06 -1.76757 -6.59732 0
M  V30 17385 O 1653.75 -2.65644 -7.58741 0
M  V30 17386 H 1653.48 0.109184 -0.667124 0
M  V30 17387 H 1656.04 -0.324754 -2.02816 0
M  V30 17388 H 1654.27 1.82409 -3.40975 0
M  V30 17389 H 1655.95 1.57027 -3.74296 0
M  V30 17390 H 1656.72 -0.6757 -4.8027 0
M  V30 17391 H 1652.6 0.530016 -4.57943 0
M  V30 17392 H 1656.14 -2.27223 -6.59557 0
M  V30 17393 H 1652.04 -1.05881 -6.36757 0
M  V30 17394 H 1652.81 -2.59627 -7.76232 0
M  V30 17395 N 1655.47 1.57485 0.0601405 0
M  V30 17396 C 1656.42 2.0554 1.08886 0
M  V30 17397 C 1657.41 0.962963 1.39368 0
M  V30 17398 O 1658.62 1.14802 1.38638 0
M  V30 17399 H 1655 0.655506 0.368532 0
M  V30 17400 H 1656.97 2.91066 0.657513 0
M  V30 17401 C 1655.72 2.52464 2.39076 0
M  V30 17402 H 1655.04 3.36123 2.16475 0
M  V30 17403 H 1656.48 2.89829 3.09476 0
M  V30 17404 C 1654.94 1.41248 3.05861 0
M  V30 17405 O 1655.47 0.761119 3.94423 0
M  V30 17406 N 1653.67 1.1547 2.66674 0
M  V30 17407 H 1653.22 1.6862 1.94744 0
M  V30 17408 H 1653.18 0.412641 3.1168 0
M  V30 17409 N 1656.95 -0.331789 1.54068 0
M  V30 17410 C 1658.36 -0.906719 1.63204 0
M  V30 17411 C 1658.71 -1.89161 0.520837 0
M  V30 17412 O 1657.84 -2.1359 -0.347577 0
M  V30 17413 C 1658.43 -1.65132 2.95832 0
M  V30 17414 C 1656.99 -2.17509 3.07192 0
M  V30 17415 C 1656.14 -0.99788 2.58723 0
M  V30 17416 H 1659.09 -0.109595 1.58321 0
M  V30 17417 H 1659.11 -2.515 2.85531 0
M  V30 17418 H 1658.62 -0.934255 3.76687 0
M  V30 17419 H 1656.72 -2.92356 2.30995 0
M  V30 17420 H 1656.84 -2.43074 4.12858 0
M  V30 17421 H 1655.2 -1.37469 2.14417 0
M  V30 17422 H 1655.98 -0.295261 3.42028 0
M  V30 17423 N 1658.43 -1.46001 -0.593424 0
M  V30 17424 C 1659.71 -1.4123 -1.35327 0
M  V30 17425 C 1660.09 -0.0901956 -2.10907 0
M  V30 17426 O 1659.43 0.928102 -2.08803 0
M  V30 17427 C 1659.64 -2.63515 -2.28825 0
M  V30 17428 C 1660.99 -3.09208 -2.90991 0
M  V30 17429 O 1662.02 -2.63988 -2.39142 0
M  V30 17430 O 1660.87 -3.87723 -3.8514 0
M  V30 17431 H 1657.97 -0.561132 -0.607503 0
M  V30 17432 H 1660.51 -1.58151 -0.615333 0
M  V30 17433 H 1659.29 -3.51308 -1.72333 0
M  V30 17434 H 1658.91 -2.48999 -3.09976 0
M  V30 17435 N 1659.91 0.83715 -1.33527 0
M  V30 17436 C 1661.15 1.58937 -1.24834 0
M  V30 17437 C 1661.48 1.94117 0.185368 0
M  V30 17438 O 1660.75 1.61105 1.11453 0
M  V30 17439 H 1659.33 0.589301 -0.459057 0
M  V30 17440 H 1661.99 1.00038 -1.67267 0
M  V30 17441 H 1661.08 2.51855 -1.84325 0
M  V30 17442 N 1661.38 1.17024 1.05561 0
M  V30 17443 C 1662.33 0.879696 2.15323 0
M  V30 17444 C 1663.33 -0.154191 1.68697 0
M  V30 17445 O 1664.53 -0.00746608 1.79998 0
M  V30 17446 H 1660.91 0.266916 0.703036 0
M  V30 17447 H 1662.88 1.81264 2.37035 0
M  V30 17448 C 1661.63 0.405371 3.45329 0
M  V30 17449 H 1660.95 1.19238 3.81605 0
M  V30 17450 H 1662.39 0.240923 4.23315 0
M  V30 17451 C 1660.85 -0.876349 3.25303 0
M  V30 17452 O 1661.38 -1.94397 3.51529 0
M  V30 17453 N 1659.59 -0.823031 2.78702 0
M  V30 17454 H 1659.13 0.0459847 2.57559 0
M  V30 17455 H 1659.09 -1.68108 2.65682 0
M  V30 17456 N 1662.86 -1.24221 0.969889 0
M  V30 17457 C 1663.79 -2.27619 0.520745 0
M  V30 17458 C 1664.77 -1.64291 -0.440731 0
M  V30 17459 O 1665.96 -1.91265 -0.336381 0
M  V30 17460 C 1663.09 -3.46792 -0.187768 0
M  V30 17461 C 1662.04 -4.22402 0.689945 0
M  V30 17462 C 1661.37 -5.34489 -0.150186 0
M  V30 17463 C 1662.67 -4.83494 1.97562 0
M  V30 17464 H 1664.36 -2.65441 1.38498 0
M  V30 17465 H 1661.91 -1.276 0.667398 0
M  V30 17466 H 1663.86 -4.18263 -0.513216 0
M  V30 17467 H 1662.59 -3.08002 -1.08637 0
M  V30 17468 H 1661.24 -3.52734 0.998696 0
M  V30 17469 H 1660.89 -4.9194 -1.049 0
M  V30 17470 H 1660.59 -5.85996 0.433891 0
M  V30 17471 H 1662.12 -6.08786 -0.470255 0
M  V30 17472 H 1663.53 -5.47028 1.71561 0
M  V30 17473 H 1661.93 -5.45243 2.5066 0
M  V30 17474 H 1663 -4.04826 2.66915 0
M  V30 17475 N 1664.34 -0.740267 -1.39132 0
M  V30 17476 C 1665.27 -0.064087 -2.2911 0
M  V30 17477 C 1666.29 0.697897 -1.47082 0
M  V30 17478 O 1667.47 0.541189 -1.70098 0
M  V30 17479 C 1664.57 0.933426 -3.25792 0
M  V30 17480 C 1663.75 0.231867 -4.36785 0
M  V30 17481 C 1662.81 1.13823 -5.13742 0
M  V30 17482 O 1661.83 0.613741 -5.65881 0
M  V30 17483 N 1663.03 2.46751 -5.25447 0
M  V30 17484 H 1665.8 -0.836774 -2.87781 0
M  V30 17485 H 1663.36 -0.589928 -1.5077 0
M  V30 17486 H 1665.35 1.5425 -3.74151 0
M  V30 17487 H 1663.92 1.60728 -2.68114 0
M  V30 17488 H 1663.14 -0.557747 -3.90234 0
M  V30 17489 H 1664.43 -0.254115 -5.08165 0
M  V30 17490 H 1663.83 2.91834 -4.84613 0
M  V30 17491 H 1662.39 3.02741 -5.77227 0
M  V30 17492 N 1665.82 1.49844 -0.488302 0
M  V30 17493 C 1666.73 2.32651 0.301746 0
M  V30 17494 C 1667.74 1.43807 0.979573 0
M  V30 17495 O 1668.92 1.76844 0.963758 0
M  V30 17496 C 1665.99 3.18928 1.35962 0
M  V30 17497 C 1665.05 4.23611 0.696575 0
M  V30 17498 C 1664.28 5.05765 1.70404 0
M  V30 17499 O 1664.5 4.89243 2.93253 0
M  V30 17500 O 1663.44 5.88427 1.26637 0
M  V30 17501 H 1667.26 3.01367 -0.375687 0
M  V30 17502 H 1664.85 1.47296 -0.249844 0
M  V30 17503 H 1666.73 3.72413 1.97198 0
M  V30 17504 H 1665.4 2.52921 2.02021 0
M  V30 17505 H 1664.31 3.74073 0.0448118 0
M  V30 17506 H 1665.64 4.92137 0.0786446 0
M  V30 17507 N 1667.3 0.221601 1.56034 0
M  V30 17508 C 1668.71 -0.133783 1.59038 0
M  V30 17509 C 1668.91 -1.58952 1.23841 0
M  V30 17510 O 1667.97 -2.32972 0.973677 0
M  V30 17511 C 1669.28 0.192549 3.00083 0
M  V30 17512 C 1670.83 0.134791 3.1271 0
M  V30 17513 C 1671.3 0.434799 4.55931 0
M  V30 17514 N 1672.8 0.384372 4.61602 0
M  V30 17515 C 1673.53 0.59 5.70357 0
M  V30 17516 N 1673.03 0.857405 6.87474 0
M  V30 17517 N 1674.82 0.522433 5.59667 0
M  V30 17518 H 1666.97 1.17124 1.77189 0
M  V30 17519 H 1669.23 0.46946 0.823597 0
M  V30 17520 H 1668.94 1.20292 3.30488 0
M  V30 17521 H 1668.81 -0.49243 3.73972 0
M  V30 17522 H 1671.2 -0.866221 2.821 0
M  V30 17523 H 1671.28 0.853247 2.4115 0
M  V30 17524 H 1670.93 1.43325 4.87258 0
M  V30 17525 H 1670.86 -0.304849 5.25717 0
M  V30 17526 H 1673.35 0.185389 3.77445 0
M  V30 17527 H 1673.66 1.00241 7.66271 0
M  V30 17528 H 1672 0.894599 6.89218 0
M  V30 17529 H 1675.2 0.313754 4.67047 0
M  V30 17530 H 1675.37 0.686094 6.44358 0
M  V30 17531 N 1668.77 -1.57515 -0.0517878 0
M  V30 17532 C 1669.74 -2.04049 -1.04387 0
M  V30 17533 C 1670.74 -0.940745 -1.30409 0
M  V30 17534 O 1671.93 -1.20505 -1.25794 0
M  V30 17535 C 1669.06 -2.43816 -2.38257 0
M  V30 17536 H 1670.25 -2.9294 -0.642367 0
M  V30 17537 H 1667.81 -1.53432 -0.29805 0
M  V30 17538 H 1668.54 -1.58013 -2.832 0
M  V30 17539 H 1668.33 -3.24086 -2.20705 0
M  V30 17540 H 1669.82 -2.80325 -3.09528 0
M  V30 17541 N 1670.25 0.323614 -1.54242 0
M  V30 17542 C 1671.19 1.41936 -1.79963 0
M  V30 17543 C 1672.2 1.47845 -0.681604 0
M  V30 17544 O 1673.39 1.50569 -0.95871 0
M  V30 17545 C 1670.49 2.80472 -1.90233 0
M  V30 17546 C 1669.66 2.97768 -3.20395 0
M  V30 17547 C 1668.72 4.16664 -3.21368 0
M  V30 17548 O 1667.75 4.09827 -3.95007 0
M  V30 17549 N 1668.95 5.26196 -2.45148 0
M  V30 17550 H 1671.71 1.20235 -2.74524 0
M  V30 17551 H 1669.27 0.513599 -1.53538 0
M  V30 17552 H 1671.27 3.58219 -1.88312 0
M  V30 17553 H 1669.84 2.95224 -1.02769 0
M  V30 17554 H 1669.06 2.07322 -3.35278 0
M  V30 17555 H 1670.34 3.06219 -4.06334 0
M  V30 17556 H 1669.74 5.34626 -1.84909 0
M  V30 17557 H 1668.3 6.02362 -2.49004 0
M  V30 17558 N 1671.73 1.46313 0.585673 0
M  V30 17559 C 1672.98 1.51694 1.34598 0
M  V30 17560 C 1673.31 0.166889 1.93482 0
M  V30 17561 O 1672.59 -0.821331 1.76308 0
M  V30 17562 C 1672.87 2.61322 2.47755 0
M  V30 17563 C 1672.72 4.05848 1.93926 0
M  V30 17564 C 1674.04 2.67058 3.49812 0
M  V30 17565 H 1671.16 0.552253 0.488043 0
M  V30 17566 H 1673.8 1.78235 0.658201 0
M  V30 17567 H 1671.95 2.38822 3.06425 0
M  V30 17568 H 1673.62 4.39626 1.39736 0
M  V30 17569 H 1671.87 4.15468 1.24775 0
M  V30 17570 H 1672.54 4.78279 2.75596 0
M  V30 17571 H 1675.01 2.87276 3.01018 0
M  V30 17572 H 1673.89 3.45589 4.2645 0
M  V30 17573 H 1674.15 1.72993 4.06849 0
M  V30 17574 N 1673.21 -0.830057 1.33969 0
M  V30 17575 C 1674.49 -1.57112 1.16513 0
M  V30 17576 C 1674.87 -2.09429 -0.265075 0
M  V30 17577 O 1674.21 -1.90263 -1.26539 0
M  V30 17578 C 1674.42 -2.69808 2.2137 0
M  V30 17579 C 1675.77 -3.38761 2.55981 0
M  V30 17580 O 1676.8 -2.80058 2.20104 0
M  V30 17581 O 1675.66 -4.44753 3.1758 0
M  V30 17582 H 1672.75 -0.693066 0.451207 0
M  V30 17583 H 1675.3 -0.872048 1.4558 0
M  V30 17584 H 1674.07 -2.28852 3.17399 0
M  V30 17585 H 1673.69 -3.47372 1.93439 0
M  V30 17586 N 1674.69 -1.17582 -1.04939 0
M  V30 17587 C 1676.1 -0.971326 -1.59443 0
M  V30 17588 C 1676.45 0.481308 -1.90205 0
M  V30 17589 O 1675.57 1.35708 -1.6856 0
M  V30 17590 C 1676.17 -1.75685 -2.8969 0
M  V30 17591 C 1674.73 -1.59695 -3.40844 0
M  V30 17592 C 1673.88 -1.75688 -2.14544 0
M  V30 17593 H 1676.83 -1.32254 -0.877188 0
M  V30 17594 H 1676.85 -1.24074 -3.59703 0
M  V30 17595 H 1676.36 -2.81405 -2.67269 0
M  V30 17596 H 1674.46 -0.564746 -3.68295 0
M  V30 17597 H 1674.57 -2.38951 -4.15258 0
M  V30 17598 H 1672.94 -1.18553 -2.25427 0
M  V30 17599 H 1673.72 -2.82825 -1.94589 0
M  V30 17600 N 1676.17 1.23705 -0.976463 0
M  V30 17601 C 1677.1 2.2734 -0.532809 0
M  V30 17602 C 1678.08 1.64523 0.432012 0
M  V30 17603 O 1679.26 1.9144 0.326233 0
M  V30 17604 C 1676.39 3.46887 0.169374 0
M  V30 17605 C 1675.35 4.22031 -0.712336 0
M  V30 17606 C 1674.67 5.34561 0.121838 0
M  V30 17607 C 1675.97 4.8244 -2.00123 0
M  V30 17608 H 1677.67 2.64702 -1.39904 0
M  V30 17609 H 1675.21 1.27244 -0.674156 0
M  V30 17610 H 1677.16 4.18529 0.491028 0
M  V30 17611 H 1675.89 3.08574 1.07002 0
M  V30 17612 H 1674.55 3.522 -1.01739 0
M  V30 17613 H 1674.2 4.92489 1.0229 0
M  V30 17614 H 1673.9 5.85758 -0.464962 0
M  V30 17615 H 1675.42 6.09027 0.437963 0
M  V30 17616 H 1676.83 5.46111 -1.7446 0
M  V30 17617 H 1675.23 5.43906 -2.53548 0
M  V30 17618 H 1676.3 4.03405 -2.69059 0
M  V30 17619 N 1677.64 0.747635 1.38738 0
M  V30 17620 C 1678.89 0.301593 2.00545 0
M  V30 17621 C 1679.22 -1.11208 1.59205 0
M  V30 17622 O 1678.5 -1.76052 0.826806 0
M  V30 17623 C 1678.78 0.417739 3.57669 0
M  V30 17624 C 1678.63 1.87209 4.0899 0
M  V30 17625 C 1679.95 -0.192403 4.39679 0
M  V30 17626 H 1677.07 0.11106 0.728584 0
M  V30 17627 H 1679.71 0.946162 1.64766 0
M  V30 17628 H 1677.86 -0.131024 3.88279 0
M  V30 17629 H 1679.54 2.4787 3.89048 0
M  V30 17630 H 1677.78 2.38917 3.62079 0
M  V30 17631 H 1678.45 1.90455 5.18103 0
M  V30 17632 H 1680.93 0.27554 4.15187 0
M  V30 17633 H 1679.8 -0.0808605 5.4884 0
M  V30 17634 H 1680.06 -1.28 4.23165 0
M  V30 17635 N 1679.12 -1.49583 0.496242 0
M  V30 17636 C 1680.05 -2.26936 -0.321366 0
M  V30 17637 C 1681.07 -1.33282 -0.934863 0
M  V30 17638 O 1682.26 -1.58602 -0.819008 0
M  V30 17639 C 1679.36 -3.05503 -1.467 0
M  V30 17640 C 1678.53 -4.26697 -0.961687 0
M  V30 17641 C 1677.59 -4.8735 -1.98436 0
M  V30 17642 O 1676.61 -5.47553 -1.55482 0
M  V30 17643 N 1677.82 -4.76577 -3.31443 0
M  V30 17644 H 1680.58 -2.97744 0.341884 0
M  V30 17645 H 1678.14 -1.58532 0.328504 0
M  V30 17646 H 1680.13 -3.42954 -2.1486 0
M  V30 17647 H 1678.7 -2.37334 -2.03449 0
M  V30 17648 H 1677.92 -3.9406 -0.105143 0
M  V30 17649 H 1679.21 -5.05221 -0.602405 0
M  V30 17650 H 1678.61 -4.28756 -3.69032 0
M  V30 17651 H 1677.17 -5.18226 -3.95329 0
M  V30 17652 N 1680.6 -0.229873 -1.55915 0
M  V30 17653 C 1681.82 0.4072 -2.03363 0
M  V30 17654 C 1682.25 1.5197 -1.10845 0
M  V30 17655 O 1681.61 1.81034 -0.098175 0
M  V30 17656 C 1681.66 0.908268 -3.48974 0
M  V30 17657 O 1680.76 2.01907 -3.59593 0
M  V30 17658 H 1680.1 0.091091 -0.657722 0
M  V30 17659 H 1682.63 -0.350947 -2.01568 0
M  V30 17660 H 1682.64 1.21593 -3.8946 0
M  V30 17661 H 1681.32 0.0940655 -4.15794 0
M  V30 17662 H 1679.89 1.71741 -3.30998 0
M  V30 17663 N 1682.08 1.5754 0.0434337 0
M  V30 17664 C 1683.32 1.88608 0.737108 0
M  V30 17665 C 1683.65 0.825342 1.7612 0
M  V30 17666 O 1682.91 -0.175437 1.94912 0
M  V30 17667 C 1683.21 3.26402 1.45591 0
M  V30 17668 C 1682.87 4.47294 0.56915 0
M  V30 17669 C 1681.53 4.80102 0.324866 0
M  V30 17670 C 1683.89 5.21181 -0.0439735 0
M  V30 17671 C 1681.21 5.84195 -0.541556 0
M  V30 17672 C 1683.57 6.26194 -0.898013 0
M  V30 17673 C 1682.23 6.57486 -1.1519 0
M  V30 17674 H 1681.5 0.690166 0.269727 0
M  V30 17675 H 1684.15 1.915 -0.00275199 0
M  V30 17676 H 1682.45 3.19431 2.26872 0
M  V30 17677 H 1684.15 3.47684 1.99793 0
M  V30 17678 H 1680.74 4.21632 0.769694 0
M  V30 17679 H 1684.92 4.96125 0.131816 0
M  V30 17680 H 1680.18 6.06823 -0.746711 0
M  V30 17681 H 1684.35 6.82596 -1.37969 0
M  V30 17682 H 1681.98 7.37969 -1.82501 0
M  V30 17683 N 1683.56 -0.31543 1.54411 0
M  V30 17684 C 1684.78 -1.0761 1.77299 0
M  V30 17685 C 1685.21 -1.80655 0.523963 0
M  V30 17686 O 1684.56 -1.73536 -0.524874 0
M  V30 17687 C 1684.61 -2.04355 2.97105 0
M  V30 17688 O 1683.72 -3.12401 2.69219 0
M  V30 17689 H 1683.06 -0.30986 0.587267 0
M  V30 17690 H 1685.59 -0.357246 2.01457 0
M  V30 17691 H 1685.6 -2.47081 3.24677 0
M  V30 17692 H 1684.27 -1.50592 3.87679 0
M  V30 17693 H 1682.85 -2.74294 2.52621 0
M  V30 17694 N 1685.03 -1.46622 -0.577906 0
M  V30 17695 C 1686.28 -1.52181 -1.33594 0
M  V30 17696 C 1686.61 -0.175484 -1.93707 0
M  V30 17697 O 1685.86 0.829407 -1.77255 0
M  V30 17698 C 1686.16 -2.57215 -2.48144 0
M  V30 17699 C 1685.83 -4.01095 -2.05993 0
M  V30 17700 C 1684.49 -4.40267 -1.94213 0
M  V30 17701 C 1686.84 -4.91459 -1.73543 0
M  V30 17702 C 1684.17 -5.67661 -1.48248 0
M  V30 17703 C 1686.52 -6.19296 -1.29055 0
M  V30 17704 C 1685.19 -6.57369 -1.15856 0
M  V30 17705 H 1684.46 -0.556868 -0.488855 0
M  V30 17706 H 1687.1 -1.80122 -0.65026 0
M  V30 17707 H 1685.41 -2.22952 -3.22179 0
M  V30 17708 H 1687.11 -2.58744 -3.06354 0
M  V30 17709 H 1683.7 -3.70134 -2.16098 0
M  V30 17710 H 1687.88 -4.61911 -1.81527 0
M  V30 17711 H 1683.14 -5.95928 -1.36676 0
M  V30 17712 H 1687.31 -6.88741 -1.03001 0
M  V30 17713 H 1684.94 -7.55977 -0.800148 0
M  V30 17714 N 1686.51 0.822941 -1.34408 0
M  V30 17715 C 1687.44 1.94142 -1.21826 0
M  V30 17716 C 1688.46 1.6215 -0.145353 0
M  V30 17717 O 1689.65 1.74025 -0.397205 0
M  V30 17718 C 1686.75 3.28077 -0.849619 0
M  V30 17719 C 1685.92 3.88092 -2.0175 0
M  V30 17720 C 1684.98 5.00406 -1.62726 0
M  V30 17721 O 1684 5.18703 -2.34383 0
M  V30 17722 N 1685.21 5.7797 -0.541413 0
M  V30 17723 H 1687.97 2.05467 -2.18182 0
M  V30 17724 H 1685.53 0.999521 -1.27362 0
M  V30 17725 H 1687.52 4.00661 -0.57035 0
M  V30 17726 H 1686.09 3.12591 0.0237499 0
M  V30 17727 H 1685.31 3.07902 -2.46151 0
M  V30 17728 H 1686.6 4.24921 -2.79856 0
M  V30 17729 H 1686 5.65674 0.0542929 0
M  V30 17730 H 1684.56 6.51005 -0.321874 0
M  V30 17731 N 1687.99 1.18137 1.04314 0
M  V30 17732 C 1688.94 0.902484 2.14378 0
M  V30 17733 C 1689.93 -0.136289 1.68851 0
M  V30 17734 O 1691.14 0.0116256 1.79996 0
M  V30 17735 H 1687.51 0.274358 0.700165 0
M  V30 17736 H 1689.48 1.83768 2.35099 0
M  V30 17737 C 1688.23 0.441975 3.4488 0
M  V30 17738 H 1687.56 1.23279 3.80319 0
M  V30 17739 H 1689 0.285808 4.23036 0
M  V30 17740 C 1687.46 -0.841797 3.26214 0
M  V30 17741 O 1687.99 -1.90658 3.53571 0
M  V30 17742 N 1686.19 -0.793425 2.79559 0
M  V30 17743 H 1685.74 0.0732997 2.57496 0
M  V30 17744 H 1685.7 -1.65281 2.6745 0
M  V30 17745 N 1689.47 -1.23186 0.98301 0
M  V30 17746 C 1690.4 -2.27054 0.544858 0
M  V30 17747 C 1691.38 -1.64749 -0.423281 0
M  V30 17748 O 1692.56 -1.91611 -0.316075 0
M  V30 17749 C 1689.69 -3.46972 -0.150976 0
M  V30 17750 C 1688.65 -4.21647 0.734707 0
M  V30 17751 C 1687.97 -5.34618 -0.0934874 0
M  V30 17752 C 1689.27 -4.81372 2.02679 0
M  V30 17753 H 1690.97 -2.63957 1.41305 0
M  V30 17754 H 1688.51 -1.26885 0.680895 0
M  V30 17755 H 1690.47 -4.18784 -0.468825 0
M  V30 17756 H 1689.19 -3.09137 -1.05364 0
M  V30 17757 H 1687.85 -3.51655 1.03605 0
M  V30 17758 H 1687.5 -4.93025 -0.996768 0
M  V30 17759 H 1687.2 -5.85503 0.496019 0
M  V30 17760 H 1688.72 -6.09251 -0.405658 0
M  V30 17761 H 1690.14 -5.45178 1.77353 0
M  V30 17762 H 1688.53 -5.42554 2.56429 0
M  V30 17763 H 1689.6 -4.01972 2.71194 0
M  V30 17764 N 1690.95 -0.754982 -1.38339 0
M  V30 17765 C 1691.88 -0.143678 -2.33058 0
M  V30 17766 C 1692.86 0.702022 -1.54938 0
M  V30 17767 O 1694.04 0.642922 -1.83249 0
M  V30 17768 C 1691.17 0.749194 -3.39123 0
M  V30 17769 C 1690.13 0.00611459 -4.28 0
M  V30 17770 C 1689.45 1.01733 -5.24933 0
M  V30 17771 C 1690.75 -1.1631 -5.09185 0
M  V30 17772 H 1692.45 -0.934907 -2.84429 0
M  V30 17773 H 1689.99 -0.451023 -1.36754 0
M  V30 17774 H 1691.95 1.18653 -4.04351 0
M  V30 17775 H 1690.67 1.57276 -2.86237 0
M  V30 17776 H 1689.33 -0.411816 -3.6428 0
M  V30 17777 H 1688.98 1.83499 -4.68334 0
M  V30 17778 H 1688.68 0.524783 -5.85252 0
M  V30 17779 H 1690.2 1.45395 -5.93037 0
M  V30 17780 H 1691.61 -0.803244 -5.67645 0
M  V30 17781 H 1690.01 -1.5866 -5.78746 0
M  V30 17782 H 1691.08 -1.97533 -4.42842 0
M  V30 17783 N 1692.42 1.49318 -0.504168 0
M  V30 17784 C 1693.36 2.27103 0.309327 0
M  V30 17785 C 1694.37 1.33776 0.927781 0
M  V30 17786 O 1695.56 1.59034 0.810585 0
M  V30 17787 C 1692.66 3.06277 1.45078 0
M  V30 17788 C 1691.83 4.27201 0.939045 0
M  V30 17789 C 1690.89 4.88395 1.95849 0
M  V30 17790 O 1689.92 5.4837 1.52576 0
M  V30 17791 N 1691.12 4.78328 3.28911 0
M  V30 17792 H 1693.88 2.97558 -0.35767 0
M  V30 17793 H 1691.44 1.58356 -0.336907 0
M  V30 17794 H 1693.44 3.44088 2.13038 0
M  V30 17795 H 1692.01 2.38409 2.02188 0
M  V30 17796 H 1691.23 3.9411 0.0842433 0
M  V30 17797 H 1692.51 5.05534 0.575603 0
M  V30 17798 H 1691.91 4.30707 3.66753 0
M  V30 17799 H 1690.47 5.20315 3.92576 0
M  V30 17800 N 1693.9 0.238138 1.5579 0
M  V30 17801 C 1695.15 -0.388263 1.98335 0
M  V30 17802 C 1695.47 -1.59104 1.12743 0
M  V30 17803 O 1694.74 -1.9479 0.208201 0
M  V30 17804 H 1693.32 -0.14644 0.732505 0
M  V30 17805 H 1695.98 0.334891 1.92001 0
M  V30 17806 H 1695.08 -0.703359 3.04071 0
M  V30 17807 N 1695.38 -1.57561 -0.0350783 0
M  V30 17808 C 1696.8 -1.54746 -0.390618 0
M  V30 17809 C 1697 -0.963454 -1.76974 0
M  V30 17810 O 1696.05 -0.581878 -2.45704 0
M  V30 17811 C 1697.37 -2.9922 -0.297984 0
M  V30 17812 C 1698.91 -3.10739 -0.375506 0
M  V30 17813 C 1699.39 -4.56933 -0.312387 0
M  V30 17814 N 1700.88 -4.61709 -0.371364 0
M  V30 17815 C 1701.61 -5.72359 -0.34532 0
M  V30 17816 N 1701.11 -6.92266 -0.271921 0
M  V30 17817 N 1702.9 -5.60713 -0.394605 0
M  V30 17818 H 1695.05 -1.93876 0.867519 0
M  V30 17819 H 1697.32 -0.888974 0.329285 0
M  V30 17820 H 1697.02 -3.45651 0.649499 0
M  V30 17821 H 1696.9 -3.60987 -1.094 0
M  V30 17822 H 1699.28 -2.6426 -1.31342 0
M  V30 17823 H 1699.37 -2.51815 0.449752 0
M  V30 17824 H 1699.01 -5.04079 0.621834 0
M  V30 17825 H 1698.94 -5.13762 -1.15567 0
M  V30 17826 H 1701.43 -3.75436 -0.430848 0
M  V30 17827 H 1701.74 -7.72373 -0.256983 0
M  V30 17828 H 1700.09 -6.94592 -0.238058 0
M  V30 17829 H 1703.28 -4.65933 -0.449896 0
M  V30 17830 H 1703.45 -6.46938 -0.37084 0
M  V30 17831 N 1696.86 0.307236 -1.54576 0
M  V30 17832 C 1697.79 1.4031 -1.79968 0
M  V30 17833 C 1698.77 1.4902 -0.650513 0
M  V30 17834 O 1699.95 1.66178 -0.889778 0
M  V30 17835 C 1697.08 2.78274 -1.93083 0
M  V30 17836 C 1696.13 2.87017 -3.15473 0
M  V30 17837 S 1696.96 2.49751 -4.73693 0
M  V30 17838 C 1698.12 3.89755 -4.89736 0
M  V30 17839 H 1698.35 1.18562 -2.72636 0
M  V30 17840 H 1695.88 0.504999 -1.45908 0
M  V30 17841 H 1697.84 3.57741 -2.01325 0
M  V30 17842 H 1696.5 2.97295 -1.01364 0
M  V30 17843 H 1695.69 3.88196 -3.21434 0
M  V30 17844 H 1695.3 2.15539 -3.05645 0
M  V30 17845 H 1697.59 4.84687 -4.73376 0
M  V30 17846 H 1698.53 3.88768 -5.91832 0
M  V30 17847 H 1698.94 3.79468 -4.17928 0
M  V30 17848 N 1698.34 1.46926 0.570122 0
M  V30 17849 C 1699.57 1.56253 1.35161 0
M  V30 17850 C 1699.97 0.207041 1.88064 0
M  V30 17851 O 1699.32 -0.807871 1.64982 0
M  V30 17852 C 1699.38 2.51715 2.56671 0
M  V30 17853 C 1699.04 3.97691 2.25147 0
M  V30 17854 C 1700.04 4.86546 1.83219 0
M  V30 17855 C 1697.73 4.42924 2.36904 0
M  V30 17856 C 1699.72 6.18651 1.53459 0
M  V30 17857 C 1697.41 5.75061 2.06757 0
M  V30 17858 C 1698.4 6.62745 1.65101 0
M  V30 17859 O 1698.09 7.92427 1.3533 0
M  V30 17860 H 1697.82 0.53064 0.418804 0
M  V30 17861 H 1700.38 1.93147 0.698804 0
M  V30 17862 H 1698.61 2.09862 3.24799 0
M  V30 17863 H 1700.3 2.5131 3.18745 0
M  V30 17864 H 1701.06 4.52851 1.7364 0
M  V30 17865 H 1696.94 3.7489 2.68287 0
M  V30 17866 H 1700.49 6.87049 1.20872 0
M  V30 17867 H 1696.38 6.08301 2.15964 0
M  V30 17868 H 1697.15 8.04811 1.49069 0
M  V30 17869 N 1699.82 -0.815801 1.34842 0
M  V30 17870 C 1700.76 -1.92713 1.27006 0
M  V30 17871 C 1701.73 -1.65476 0.143838 0
M  V30 17872 O 1702.92 -1.87994 0.326007 0
M  V30 17873 C 1700.06 -3.29099 1.03863 0
M  V30 17874 C 1699.17 -3.68583 2.25324 0
M  V30 17875 C 1698.31 -4.93953 1.95407 0
M  V30 17876 C 1697.34 -5.26037 3.12971 0
M  V30 17877 N 1696.48 -6.42586 2.82891 0
M  V30 17878 H 1701.32 -1.98747 2.22044 0
M  V30 17879 H 1698.86 -0.972265 1.10388 0
M  V30 17880 H 1700.82 -4.07709 0.884809 0
M  V30 17881 H 1699.45 -3.22558 0.124911 0
M  V30 17882 H 1698.5 -2.85307 2.51603 0
M  V30 17883 H 1699.81 -3.88259 3.1314 0
M  V30 17884 H 1698.96 -5.80367 1.76801 0
M  V30 17885 H 1697.7 -4.76293 1.04862 0
M  V30 17886 H 1696.71 -4.38117 3.32165 0
M  V30 17887 H 1697.93 -5.45632 4.04305 0
M  V30 17888 H 1695.88 -6.26369 1.9493 0
M  V30 17889 H 1695.8 -6.62469 3.64239 0
M  V30 17890 H 1697.06 -7.32052 2.67805 0
M  V30 17891 N 1701.29 -1.18689 -1.03686 0
M  V30 17892 C 1702.23 -0.860751 -2.11344 0
M  V30 17893 C 1703.2 0.178884 -1.61613 0
M  V30 17894 O 1704.39 0.05699 -1.88414 0
M  V30 17895 C 1701.52 -0.286745 -3.37484 0
M  V30 17896 C 1700.56 -1.30417 -4.06071 0
M  V30 17897 S 1701.39 -2.86155 -4.52632 0
M  V30 17898 C 1702.55 -2.30276 -5.82 0
M  V30 17899 H 1702.78 -1.77251 -2.38683 0
M  V30 17900 H 1700.32 -1.01316 -1.16509 0
M  V30 17901 H 1702.27 0.0379216 -4.10482 0
M  V30 17902 H 1700.94 0.60319 -3.08254 0
M  V30 17903 H 1700.13 -0.851497 -4.96755 0
M  V30 17904 H 1699.73 -1.57527 -3.39207 0
M  V30 17905 H 1702.02 -1.68773 -6.56142 0
M  V30 17906 H 1702.97 -3.19275 -6.32036 0
M  V30 17907 H 1703.37 -1.73153 -5.37288 0
M  V30 17908 N 1702.77 1.22662 -0.989529 0
M  V30 17909 C 1704.02 1.91605 -0.66448 0
M  V30 17910 C 1704.35 1.76909 0.801048 0
M  V30 17911 O 1703.63 1.13583 1.5789 0
M  V30 17912 C 1703.91 3.43929 -1.06698 0
M  V30 17913 C 1703.76 3.67691 -2.59082 0
M  V30 17914 C 1705.08 4.35744 -0.617695 0
M  V30 17915 H 1702.2 0.695832 -0.242872 0
M  V30 17916 H 1704.84 1.44605 -1.23245 0
M  V30 17917 H 1702.99 3.8409 -0.58371 0
M  V30 17918 H 1704.66 3.36956 -3.15053 0
M  V30 17919 H 1702.91 3.12088 -3.01303 0
M  V30 17920 H 1703.58 4.74356 -2.82295 0
M  V30 17921 H 1706.05 4.0308 -1.03275 0
M  V30 17922 H 1704.93 5.41004 -0.927659 0
M  V30 17923 H 1705.19 4.39468 0.481734 0
M  V30 17924 N 1704.25 0.762308 1.37937 0
M  V30 17925 C 1705.5 0.319104 1.9916 0
M  V30 17926 C 1705.81 -1.10787 1.61201 0
M  V30 17927 O 1707.02 -1.65198 2.15457 0
M  V30 17928 C 1705.47 0.519582 3.5613 0
M  V30 17929 C 1705.08 1.9562 4.03034 0
M  V30 17930 C 1706.83 0.139528 4.24271 0
M  V30 17931 C 1704.73 2.10478 5.52678 0
M  V30 17932 H 1703.66 0.115564 0.745091 0
M  V30 17933 H 1706.31 0.940092 1.5759 0
M  V30 17934 H 1704.7 -0.170724 3.95632 0
M  V30 17935 H 1705.87 2.68069 3.74801 0
M  V30 17936 H 1704.18 2.29197 3.47646 0
M  V30 17937 H 1706.78 0.22918 5.34209 0
M  V30 17938 H 1707.12 -0.908999 4.06255 0
M  V30 17939 H 1707.66 0.782019 3.90038 0
M  V30 17940 H 1704.4 3.13616 5.75609 0
M  V30 17941 H 1703.92 1.42501 5.82626 0
M  V30 17942 H 1705.6 1.89887 6.18508 0
M  V30 17943 N 1705.73 -1.49049 0.51208 0
M  V30 17944 C 1706.97 -2.0278 -0.0285311 0
M  V30 17945 C 1707.31 -1.39003 -1.35617 0
M  V30 17946 O 1706.58 -0.52952 -1.87153 0
M  V30 17947 C 1706.86 -3.59701 -0.169433 0
M  V30 17948 C 1706.72 -4.33989 1.18211 0
M  V30 17949 C 1708.04 -4.30698 -0.904812 0
M  V30 17950 H 1705.16 -0.736946 -0.00889467 0
M  V30 17951 H 1707.8 -1.77959 0.66564 0
M  V30 17952 H 1705.95 -3.8098 -0.760667 0
M  V30 17953 H 1707.62 -4.24176 1.81307 0
M  V30 17954 H 1705.86 -3.9611 1.76859 0
M  V30 17955 H 1706.53 -5.42177 1.03671 0
M  V30 17956 H 1709.01 -4.14141 -0.40327 0
M  V30 17957 H 1707.89 -5.40221 -0.972264 0
M  V30 17958 H 1708.15 -3.96718 -1.95108 0
M  V30 17959 N 1707.21 -0.246397 -1.55662 0
M  V30 17960 C 1708.43 0.382645 -2.03331 0
M  V30 17961 C 1708.85 1.51573 -1.12566 0
M  V30 17962 O 1708.21 1.81962 -0.139992 0
M  V30 17963 C 1708.26 0.890907 -3.5035 0
M  V30 17964 O 1707.98 -0.197023 -4.37657 0
M  V30 17965 C 1709.48 1.59069 -4.13778 0
M  V30 17966 H 1706.7 0.0909834 -0.664803 0
M  V30 17967 H 1709.24 -0.370113 -2.01123 0
M  V30 17968 H 1707.4 1.59385 -3.53094 0
M  V30 17969 H 1707.81 0.188846 -5.2416 0
M  V30 17970 H 1709.29 1.89805 -5.18342 0
M  V30 17971 H 1709.76 2.51248 -3.60238 0
M  V30 17972 H 1710.37 0.932333 -4.14955 0
M  V30 17973 N 1708.68 1.57577 0.026722 0
M  V30 17974 C 1709.63 2.03179 1.03452 0
M  V30 17975 C 1710.62 0.921533 1.31896 0
M  V30 17976 O 1711.81 1.18542 1.31442 0
M  V30 17977 C 1708.94 2.51666 2.33493 0
M  V30 17978 C 1708.02 3.69517 2.08129 0
M  V30 17979 N 1708.42 4.82158 1.52832 0
M  V30 17980 C 1706.71 3.76936 2.38402 0
M  V30 17981 C 1707.41 5.63766 1.43327 0
M  V30 17982 N 1706.39 5.08953 1.90965 0
M  V30 17983 H 1710.19 2.87689 0.601036 0
M  V30 17984 H 1707.71 1.6072 0.232979 0
M  V30 17985 H 1709.7 2.82597 3.06503 0
M  V30 17986 H 1708.36 1.68564 2.77518 0
M  V30 17987 H 1709.37 5.0355 1.21071 0
M  V30 17988 H 1706.05 3.04637 2.85486 0
M  V30 17989 H 1707.44 6.64259 1.01043 0
M  V30 17990 N 1710.16 -0.299034 1.54737 0
M  V30 17991 C 1711.39 -1.05723 1.7843 0
M  V30 17992 C 1711.81 -1.80089 0.543094 0
M  V30 17993 O 1711.17 -1.74083 -0.506438 0
M  V30 17994 C 1711.22 -2.01193 2.99255 0
M  V30 17995 O 1710.32 -3.09528 2.72518 0
M  V30 17996 H 1709.66 -0.303614 0.590521 0
M  V30 17997 H 1712.19 -0.335859 2.01825 0
M  V30 17998 H 1712.2 -2.43623 3.27279 0
M  V30 17999 H 1710.88 -1.46472 3.89254 0
M  V30 18000 H 1709.45 -2.71599 2.55516 0
M  V30 18001 N 1711.64 -1.47227 -0.562322 0
M  V30 18002 C 1712.89 -1.53286 -1.31712 0
M  V30 18003 C 1713.21 -0.194583 -1.94027 0
M  V30 18004 O 1712.48 0.780961 -1.7966 0
M  V30 18005 H 1711.06 -0.564621 -0.489094 0
M  V30 18006 H 1713.72 -1.83492 -0.657024 0
M  V30 18007 H 1712.82 -2.29665 -2.1133 0
M  V30 18008 N 1713.12 0.808639 -1.35273 0
M  V30 18009 C 1714.03 1.95198 -1.30134 0
M  V30 18010 C 1715.04 1.72769 -0.206587 0
M  V30 18011 O 1716.22 1.96633 -0.4356 0
M  V30 18012 C 1713.28 3.29747 -1.07087 0
M  V30 18013 C 1712.35 3.65086 -2.25855 0
M  V30 18014 C 1711.58 4.93215 -2.03898 0
M  V30 18015 O 1711.8 5.61487 -1.00439 0
M  V30 18016 O 1710.74 5.26765 -2.91208 0
M  V30 18017 H 1714.56 2.0248 -2.26353 0
M  V30 18018 H 1712.15 0.946124 -1.15624 0
M  V30 18019 H 1714.03 4.10302 -0.960734 0
M  V30 18020 H 1712.7 3.23401 -0.139177 0
M  V30 18021 H 1711.61 2.84917 -2.42432 0
M  V30 18022 H 1712.94 3.76135 -3.17464 0
M  V30 18023 N 1714.6 1.19237 1.03055 0
M  V30 18024 C 1715.53 0.95226 2.132 0
M  V30 18025 C 1716.51 -0.113771 1.69719 0
M  V30 18026 O 1717.69 0.0409057 1.94157 0
M  V30 18027 C 1714.82 0.488296 3.4385 0
M  V30 18028 C 1713.78 1.49597 4.01005 0
M  V30 18029 C 1713.1 0.889148 5.27255 0
M  V30 18030 C 1714.4 2.87571 4.36005 0
M  V30 18031 H 1716.1 1.87343 2.33544 0
M  V30 18032 H 1713.64 0.902172 1.12236 0
M  V30 18033 H 1715.6 0.307623 4.20276 0
M  V30 18034 H 1714.32 -0.468469 3.23223 0
M  V30 18035 H 1712.98 1.66376 3.26672 0
M  V30 18036 H 1712.63 -0.0751191 5.02944 0
M  V30 18037 H 1712.33 1.56202 5.66458 0
M  V30 18038 H 1713.85 0.719233 6.06349 0
M  V30 18039 H 1715.26 2.74384 5.03375 0
M  V30 18040 H 1713.66 3.51635 4.86285 0
M  V30 18041 H 1714.73 3.40353 3.45381 0
M  V30 18042 N 1716.07 -1.22136 0.99602 0
M  V30 18043 C 1717.3 -1.95519 0.69189 0
M  V30 18044 C 1717.72 -1.7304 -0.73748 0
M  V30 18045 O 1717.08 -1.01157 -1.50456 0
M  V30 18046 C 1717.13 -3.46244 1.00735 0
M  V30 18047 O 1716.23 -4.12259 0.107713 0
M  V30 18048 H 1715.58 -0.611553 0.258648 0
M  V30 18049 H 1718.11 -1.55145 1.33384 0
M  V30 18050 H 1718.12 -3.96774 0.950482 0
M  V30 18051 H 1716.79 -3.6193 2.04889 0
M  V30 18052 H 1715.37 -3.72248 0.220336 0
M  V30 18053 N 1717.55 -0.769612 -1.37531 0
M  V30 18054 C 1718.5 -0.142211 -2.32165 0
M  V30 18055 C 1719.49 0.687376 -1.54827 0
M  V30 18056 O 1720.7 0.584677 -1.7024 0
M  V30 18057 H 1717.08 -0.0271998 -0.751508 0
M  V30 18058 H 1719.05 -0.956148 -2.82667 0
M  V30 18059 C 1717.8 0.72421 -3.40074 0
M  V30 18060 H 1717.12 0.0952318 -3.99687 0
M  V30 18061 H 1718.56 1.13021 -4.08659 0
M  V30 18062 C 1717.02 1.87388 -2.79977 0
M  V30 18063 O 1717.55 2.96921 -2.70557 0
M  V30 18064 N 1715.75 1.67384 -2.37552 0
M  V30 18065 H 1715.3 0.782941 -2.45414 0
M  V30 18066 H 1715.26 2.44474 -1.97686 0
M  V30 18067 N 1719.03 1.48775 -0.519977 0
M  V30 18068 C 1719.94 2.33239 0.252329 0
M  V30 18069 C 1720.96 1.45852 0.948849 0
M  V30 18070 O 1722.13 1.78848 0.92603 0
M  V30 18071 C 1719.2 3.2174 1.29166 0
M  V30 18072 C 1718.26 4.24993 0.606564 0
M  V30 18073 C 1717.49 5.09266 1.59638 0
M  V30 18074 O 1717.71 4.95353 2.82809 0
M  V30 18075 O 1716.65 5.90981 1.14127 0
M  V30 18076 H 1720.47 3.00503 -0.439527 0
M  V30 18077 H 1718.06 1.46733 -0.281032 0
M  V30 18078 H 1719.94 3.76512 1.89254 0
M  V30 18079 H 1718.62 2.5715 1.96611 0
M  V30 18080 H 1717.52 3.74084 -0.0345447 0
M  V30 18081 H 1718.86 4.92193 -0.0257627 0
M  V30 18082 N 1720.51 0.254649 1.55529 0
M  V30 18083 C 1721.73 -0.374795 2.03985 0
M  V30 18084 C 1722.16 -1.50188 1.13249 0
M  V30 18085 O 1721.52 -1.80855 0.126963 0
M  V30 18086 C 1721.56 -0.852635 3.50375 0
M  V30 18087 O 1720.67 -1.9616 3.6276 0
M  V30 18088 H 1720.01 -0.0806157 0.659088 0
M  V30 18089 H 1722.54 0.38297 2.00984 0
M  V30 18090 H 1722.55 -1.15381 3.91345 0
M  V30 18091 H 1721.22 -0.0279044 4.15891 0
M  V30 18092 H 1719.8 -1.66453 3.33688 0
M  V30 18093 N 1721.99 -1.57589 -0.0183649 0
M  V30 18094 C 1723.23 -1.89757 -0.707008 0
M  V30 18095 C 1723.56 -0.853257 -1.74785 0
M  V30 18096 O 1722.82 0.144406 -1.95166 0
M  V30 18097 C 1723.12 -3.28677 -1.4038 0
M  V30 18098 C 1722.78 -4.48142 -0.497917 0
M  V30 18099 C 1721.44 -4.80558 -0.248444 0
M  V30 18100 C 1723.8 -5.21046 0.126883 0
M  V30 18101 C 1721.12 -5.8326 0.634428 0
M  V30 18102 C 1723.48 -6.24686 0.997521 0
M  V30 18103 C 1722.14 -6.5557 1.25635 0
M  V30 18104 H 1721.41 -0.694369 -0.258713 0
M  V30 18105 H 1724.06 -1.91471 0.0332176 0
M  V30 18106 H 1722.36 -3.23 -2.21761 0
M  V30 18107 H 1724.06 -3.50818 -1.94236 0
M  V30 18108 H 1720.65 -4.22803 -0.702519 0
M  V30 18109 H 1724.83 -4.96272 -0.0528705 0
M  V30 18110 H 1720.09 -6.05558 0.843157 0
M  V30 18111 H 1724.26 -6.80315 1.48811 0
M  V30 18112 H 1721.89 -7.34972 1.94218 0
M  V30 18113 N 1723.46 0.290824 -1.54893 0
M  V30 18114 C 1724.71 1.02244 -1.73865 0
M  V30 18115 C 1725.03 1.88079 -0.537166 0
M  V30 18116 O 1726.23 2.64584 -0.608908 0
M  V30 18117 C 1724.69 1.86762 -3.07649 0
M  V30 18118 C 1724.3 1.0588 -4.35308 0
M  V30 18119 C 1726.04 2.59461 -3.35976 0
M  V30 18120 C 1723.95 1.89734 -5.60138 0
M  V30 18121 H 1722.88 0.385455 -0.648028 0
M  V30 18122 H 1725.53 0.27893 -1.81368 0
M  V30 18123 H 1723.91 2.6514 -2.94137 0
M  V30 18124 H 1725.08 0.320443 -4.59684 0
M  V30 18125 H 1723.4 0.447169 -4.13992 0
M  V30 18126 H 1726 3.22569 -4.26442 0
M  V30 18127 H 1726.34 3.28823 -2.55306 0
M  V30 18128 H 1726.87 1.88126 -3.50505 0
M  V30 18129 H 1723.61 1.24825 -6.43505 0
M  V30 18130 H 1723.13 2.61215 -5.39932 0
M  V30 18131 H 1724.81 2.47535 -5.97775 0
M  V30 18132 N 1724.94 1.47523 0.554506 0
M  V30 18133 C 1726.19 1.54287 1.31156 0
M  V30 18134 C 1726.52 0.206279 1.93403 0
M  V30 18135 O 1725.77 -0.801103 1.78552 0
M  V30 18136 C 1726.07 2.6113 2.4402 0
M  V30 18137 C 1725.74 4.04322 1.99586 0
M  V30 18138 C 1724.4 4.43301 1.87184 0
M  V30 18139 C 1726.75 4.94158 1.65703 0
M  V30 18140 C 1724.08 5.69948 1.39198 0
M  V30 18141 C 1726.43 6.21271 1.19187 0
M  V30 18142 C 1725.1 6.59129 1.05383 0
M  V30 18143 H 1724.37 0.564575 0.479934 0
M  V30 18144 H 1727.01 1.81134 0.621521 0
M  V30 18145 H 1725.32 2.2805 3.18591 0
M  V30 18146 H 1727.01 2.63585 3.02199 0
M  V30 18147 H 1723.6 3.73526 2.10182 0
M  V30 18148 H 1727.79 4.6474 1.74156 0
M  V30 18149 H 1723.04 5.98027 1.27178 0
M  V30 18150 H 1727.22 6.90292 0.920312 0
M  V30 18151 H 1724.85 7.57155 0.679777 0
M  V30 18152 N 1726.42 -0.801453 1.357 0
M  V30 18153 C 1727.67 -1.55571 1.29004 0
M  V30 18154 C 1727.99 -1.9454 -0.133836 0
M  V30 18155 O 1727.26 -1.64004 -1.07143 0
M  V30 18156 H 1725.84 -0.576922 0.47452 0
M  V30 18157 H 1728.5 -0.95568 1.69861 0
M  V30 18158 H 1727.6 -2.46879 1.90937 0
M  V30 18159 N 1727.9 -1.19782 -1.02421 0
M  V30 18160 C 1729.31 -0.951034 -1.2817 0
M  V30 18161 C 1729.51 0.373883 -1.98001 0
M  V30 18162 O 1728.57 1.10427 -2.27073 0
M  V30 18163 C 1729.88 -2.12833 -2.12421 0
M  V30 18164 C 1731.43 -2.16847 -2.25713 0
M  V30 18165 C 1731.91 -3.34041 -3.13337 0
M  V30 18166 N 1733.4 -3.34007 -3.20926 0
M  V30 18167 C 1734.13 -4.21333 -3.88929 0
M  V30 18168 N 1733.63 -5.18823 -4.59123 0
M  V30 18169 N 1735.42 -4.09197 -3.85376 0
M  V30 18170 H 1727.57 -2.05017 -0.555122 0
M  V30 18171 H 1729.84 -0.896717 -0.307576 0
M  V30 18172 H 1729.54 -3.08742 -1.68437 0
M  V30 18173 H 1729.42 -2.10288 -3.13143 0
M  V30 18174 H 1731.8 -1.21506 -2.68924 0
M  V30 18175 H 1731.88 -2.23444 -1.24525 0
M  V30 18176 H 1731.53 -4.29665 -2.70833 0
M  V30 18177 H 1731.46 -3.24682 -4.14595 0
M  V30 18178 H 1733.95 -2.63441 -2.70938 0
M  V30 18179 H 1734.26 -5.81796 -5.08658 0
M  V30 18180 H 1732.61 -5.22767 -4.57973 0
M  V30 18181 H 1735.8 -3.32308 -3.2968 0
M  V30 18182 H 1735.97 -4.77465 -4.38099 0
M  V30 18183 N 1729.38 1.21606 -1.00248 0
M  V30 18184 C 1730.61 1.94609 -0.702502 0
M  V30 18185 C 1731.02 1.73928 0.734483 0
M  V30 18186 O 1730.38 1.04432 1.49667 0
M  V30 18187 C 1730.43 3.47077 -1.01092 0
M  V30 18188 O 1730.15 3.67071 -2.39145 0
M  V30 18189 C 1731.65 4.37248 -0.729988 0
M  V30 18190 H 1728.87 0.618962 -0.259088 0
M  V30 18191 H 1731.41 1.54494 -1.33985 0
M  V30 18192 H 1729.57 3.85125 -0.419215 0
M  V30 18193 H 1729.98 4.61188 -2.49811 0
M  V30 18194 H 1731.46 5.4294 -0.99598 0
M  V30 18195 H 1731.93 4.37913 0.33599 0
M  V30 18196 H 1732.54 4.04842 -1.30318 0
M  V30 18197 N 1730.86 0.776895 1.37121 0
M  V30 18198 C 1732.1 0.344063 1.9986 0
M  V30 18199 C 1732.43 -1.07806 1.61529 0
M  V30 18200 O 1731.71 -1.74258 0.863963 0
M  V30 18201 C 1731.99 0.493512 3.56702 0
M  V30 18202 C 1731.85 1.95842 4.04927 0
M  V30 18203 C 1733.16 -0.099097 4.39988 0
M  V30 18204 H 1730.28 0.126489 0.726064 0
M  V30 18205 H 1732.93 0.980899 1.62722 0
M  V30 18206 H 1731.08 -0.0486344 3.8847 0
M  V30 18207 H 1732.75 2.56067 3.83702 0
M  V30 18208 H 1730.99 2.46544 3.56929 0
M  V30 18209 H 1731.66 2.01402 5.13947 0
M  V30 18210 H 1734.14 0.363545 4.14509 0
M  V30 18211 H 1733.01 0.0355748 5.48888 0
M  V30 18212 H 1733.27 -1.18995 4.25785 0
M  V30 18213 N 1732.33 -1.48497 0.527859 0
M  V30 18214 C 1733.74 -1.86498 0.0868541 0
M  V30 18215 C 1734.1 -1.43763 -1.33517 0
M  V30 18216 O 1733.22 -0.827397 -1.99958 0
M  V30 18217 C 1733.82 -3.38464 0.150843 0
M  V30 18218 C 1732.37 -3.75666 -0.234956 0
M  V30 18219 C 1731.52 -2.72541 0.511549 0
M  V30 18220 H 1734.47 -1.40432 0.739223 0
M  V30 18221 H 1734.49 -3.75114 -0.637972 0
M  V30 18222 H 1734.01 -3.69537 1.18592 0
M  V30 18223 H 1732.11 -3.50206 -1.27225 0
M  V30 18224 H 1732.22 -4.78989 0.103178 0
M  V30 18225 H 1730.58 -2.54665 -0.0419281 0
M  V30 18226 H 1731.37 -3.06457 1.54722 0
M  V30 18227 N 1733.81 -0.262893 -1.55392 0
M  V30 18228 C 1734.77 0.616662 -2.20749 0
M  V30 18229 C 1735.77 1.09066 -1.18158 0
M  V30 18230 O 1736.96 0.992797 -1.4314 0
M  V30 18231 C 1734.1 1.84937 -2.86376 0
M  V30 18232 H 1735.29 0.0462013 -2.99864 0
M  V30 18233 H 1732.84 -0.013432 -1.56294 0
M  V30 18234 H 1733.58 2.46066 -2.1124 0
M  V30 18235 H 1733.36 1.51754 -3.61543 0
M  V30 18236 H 1734.85 2.47511 -3.36345 0
M  V30 18237 N 1735.29 1.57597 0.0100073 0
M  V30 18238 C 1736.51 1.94801 0.711852 0
M  V30 18239 C 1736.94 0.864343 1.67065 0
M  V30 18240 O 1736.3 -0.178388 1.8042 0
M  V30 18241 C 1736.35 3.31094 1.42862 0
M  V30 18242 O 1735.45 3.2469 2.54264 0
M  V30 18243 H 1734.79 0.636207 0.190095 0
M  V30 18244 H 1737.32 2.04561 -0.0402016 0
M  V30 18245 H 1737.33 3.66428 1.79429 0
M  V30 18246 H 1736.01 4.09522 0.725549 0
M  V30 18247 H 1734.58 3.01017 2.20099 0
M  V30 18248 N 1736.77 -0.282606 1.55045 0
M  V30 18249 C 1738.01 -1.01698 1.75458 0
M  V30 18250 C 1738.35 -1.86284 0.548808 0
M  V30 18251 O 1737.62 -1.89131 -0.45382 0
M  V30 18252 C 1737.9 -1.90759 3.05423 0
M  V30 18253 C 1737.76 -1.0923 4.36336 0
M  V30 18254 C 1739.08 -2.8963 3.31364 0
M  V30 18255 H 1736.2 -0.368305 0.638373 0
M  V30 18256 H 1738.84 -0.290118 1.87772 0
M  V30 18257 H 1736.99 -2.52734 2.95055 0
M  V30 18258 H 1738.66 -0.493996 4.58647 0
M  V30 18259 H 1736.9 -0.395481 4.31994 0
M  V30 18260 H 1737.57 -1.74842 5.23578 0
M  V30 18261 H 1740.05 -2.37788 3.41462 0
M  V30 18262 H 1738.93 -3.49096 4.23584 0
M  V30 18263 H 1739.19 -3.64255 2.50541 0
M  V30 18264 N 1738.25 -1.47815 -0.546675 0
M  V30 18265 C 1739.47 -1.58864 -1.33331 0
M  V30 18266 C 1739.9 -0.24302 -1.86524 0
M  V30 18267 O 1739.25 0.782777 -1.63531 0
M  V30 18268 C 1739.3 -2.62556 -2.47177 0
M  V30 18269 O 1738.41 -2.18558 -3.49723 0
M  V30 18270 H 1737.75 -0.53329 -0.395598 0
M  V30 18271 H 1740.28 -1.93677 -0.659579 0
M  V30 18272 H 1740.29 -2.83307 -2.936 0
M  V30 18273 H 1738.96 -3.60255 -2.0782 0
M  V30 18274 H 1737.54 -2.0795 -3.09534 0
M  V30 18275 N 1739.72 0.794246 -1.36123 0
M  V30 18276 C 1740.67 1.8963 -1.26588 0
M  V30 18277 C 1741.66 1.60118 -0.158415 0
M  V30 18278 O 1742.85 1.72632 -0.390783 0
M  V30 18279 C 1739.98 3.26767 -1.05255 0
M  V30 18280 C 1739.06 3.62304 -2.20447 0
M  V30 18281 N 1739.46 3.69185 -3.4574 0
M  V30 18282 C 1737.75 3.92336 -2.12106 0
M  V30 18283 C 1738.45 4.00822 -4.21565 0
M  V30 18284 N 1737.43 4.15553 -3.50453 0
M  V30 18285 H 1741.23 1.93169 -2.21501 0
M  V30 18286 H 1738.75 0.989508 -1.28773 0
M  V30 18287 H 1740.74 4.05575 -0.965108 0
M  V30 18288 H 1739.4 3.24505 -0.112374 0
M  V30 18289 H 1740.41 3.51951 -3.79935 0
M  V30 18290 H 1737.09 3.98028 -1.26016 0
M  V30 18291 H 1738.48 4.1311 -5.29896 0
M  V30 18292 N 1741.2 1.20323 1.01785 0
M  V30 18293 C 1742.13 0.974819 2.12178 0
M  V30 18294 C 1743.11 -0.0957637 1.6983 0
M  V30 18295 O 1744.3 0.0614963 1.94103 0
M  V30 18296 C 1741.43 0.524739 3.43313 0
M  V30 18297 C 1740.38 1.53842 3.99395 0
M  V30 18298 C 1739.71 0.945021 5.26283 0
M  V30 18299 C 1741.01 2.92179 4.3293 0
M  V30 18300 H 1742.7 1.8981 2.31544 0
M  V30 18301 H 1740.25 0.914025 1.11273 0
M  V30 18302 H 1742.2 0.352182 4.19926 0
M  V30 18303 H 1740.92 -0.434161 3.23701 0
M  V30 18304 H 1739.58 1.69832 3.24889 0
M  V30 18305 H 1739.23 -0.0217709 5.02995 0
M  V30 18306 H 1738.93 1.62201 5.64769 0
M  V30 18307 H 1740.46 0.783504 6.05552 0
M  V30 18308 H 1741.87 2.79708 5.00436 0
M  V30 18309 H 1740.27 3.56773 4.82528 0
M  V30 18310 H 1741.34 3.43997 3.41752 0
M  V30 18311 N 1742.68 -1.21073 1.00892 0
M  V30 18312 C 1744.1 -1.42314 0.72242 0
M  V30 18313 C 1744.3 -1.88917 -0.700908 0
M  V30 18314 O 1743.35 -2.05318 -1.46973 0
M  V30 18315 C 1744.66 -2.4513 1.74161 0
M  V30 18316 C 1746.21 -2.58907 1.75887 0
M  V30 18317 C 1746.69 -3.64959 2.76711 0
M  V30 18318 N 1748.18 -3.72434 2.75404 0
M  V30 18319 C 1748.91 -4.54129 3.50077 0
M  V30 18320 N 1748.41 -5.39691 4.34403 0
M  V30 18321 N 1750.2 -4.48589 3.38709 0
M  V30 18322 H 1742.35 -0.891353 1.92792 0
M  V30 18323 H 1744.62 -0.45372 0.832371 0
M  V30 18324 H 1744.32 -2.17868 2.76091 0
M  V30 18325 H 1744.2 -3.43996 1.54746 0
M  V30 18326 H 1746.58 -2.85503 0.746455 0
M  V30 18327 H 1746.66 -1.60261 1.99374 0
M  V30 18328 H 1746.31 -3.39107 3.78112 0
M  V30 18329 H 1746.24 -4.63209 2.50489 0
M  V30 18330 H 1748.73 -3.11311 2.14228 0
M  V30 18331 H 1749.04 -5.99092 4.88168 0
M  V30 18332 H 1747.39 -5.39219 4.38484 0
M  V30 18333 H 1750.58 -3.80778 2.7226 0
M  V30 18334 H 1750.75 -5.12023 3.97161 0
M  V30 18335 N 1744.16 -0.784156 -1.36707 0
M  V30 18336 C 1745.41 -0.353434 -1.98986 0
M  V30 18337 C 1745.73 1.07714 -1.62551 0
M  V30 18338 O 1745 1.7416 -0.896938 0
M  V30 18339 H 1743.58 -0.127693 -0.736005 0
M  V30 18340 H 1746.24 -1.00503 -1.66988 0
M  V30 18341 H 1745.34 -0.441028 -3.08968 0
M  V30 18342 N 1745.64 1.48215 -0.535727 0
M  V30 18343 C 1746.86 2.07399 -0.00589172 0
M  V30 18344 C 1747.29 1.38886 1.26856 0
M  V30 18345 O 1746.64 0.456684 1.75454 0
M  V30 18346 C 1746.69 3.60071 0.195203 0
M  V30 18347 O 1745.8 3.92596 1.26261 0
M  V30 18348 H 1745.14 0.662689 -0.0416988 0
M  V30 18349 H 1747.67 1.90543 -0.745281 0
M  V30 18350 H 1747.68 4.05873 0.416085 0
M  V30 18351 H 1746.35 4.0934 -0.735747 0
M  V30 18352 H 1744.93 3.58567 1.02393 0
M  V30 18353 N 1747.11 0.27113 1.5525 0
M  V30 18354 C 1748.06 -0.634087 2.2379 0
M  V30 18355 C 1749.06 -1.16101 1.23357 0
M  V30 18356 O 1750.26 -1.1151 1.413 0
M  V30 18357 H 1746.64 -0.223023 0.718168 0
M  V30 18358 H 1748.61 -0.0331304 2.98382 0
M  V30 18359 C 1747.36 -1.80879 2.96948 0
M  V30 18360 H 1746.68 -1.41252 3.74016 0
M  V30 18361 H 1748.12 -2.41888 3.48233 0
M  V30 18362 C 1746.58 -2.69481 2.02192 0
M  V30 18363 O 1747.11 -3.69725 1.57056 0
M  V30 18364 N 1745.32 -2.36565 1.68776 0
M  V30 18365 H 1744.86 -1.55096 2.05677 0
M  V30 18366 H 1744.82 -2.96119 1.05646 0
M  V30 18367 N 1748.59 -1.576 -0.00164943 0
M  V30 18368 C 1750.01 -1.5554 -0.357706 0
M  V30 18369 C 1750.21 -1.00078 -1.74891 0
M  V30 18370 O 1749.26 -0.633864 -2.44414 0
M  V30 18371 C 1750.58 -2.99785 -0.234448 0
M  V30 18372 C 1752.13 -3.11466 -0.309509 0
M  V30 18373 C 1752.6 -4.57493 -0.215394 0
M  V30 18374 N 1754.09 -4.62393 -0.273345 0
M  V30 18375 C 1754.83 -5.72963 -0.223836 0
M  V30 18376 N 1754.32 -6.92687 -0.12502 0
M  V30 18377 N 1756.12 -5.61424 -0.27558 0
M  V30 18378 H 1748.27 -1.91992 0.908448 0
M  V30 18379 H 1750.53 -0.88179 0.348067 0
M  V30 18380 H 1750.24 -3.44195 0.722671 0
M  V30 18381 H 1750.11 -3.63226 -1.01718 0
M  V30 18382 H 1752.5 -2.66986 -1.25707 0
M  V30 18383 H 1752.58 -2.50805 0.503064 0
M  V30 18384 H 1752.22 -5.02647 0.728617 0
M  V30 18385 H 1752.15 -5.16098 -1.04643 0
M  V30 18386 H 1754.64 -3.76265 -0.351116 0
M  V30 18387 H 1754.96 -7.72744 -0.0930938 0
M  V30 18388 H 1753.3 -6.94941 -0.0906712 0
M  V30 18389 H 1756.49 -4.66782 -0.350963 0
M  V30 18390 H 1756.66 -6.47579 -0.233531 0
M  V30 18391 N 1750.07 0.274379 -1.55193 0
M  V30 18392 C 1751.02 1.35903 -1.88767 0
M  V30 18393 C 1752.01 1.512 -0.763874 0
M  V30 18394 O 1753.22 1.53 -0.948201 0
M  V30 18395 H 1749.59 0.454495 -0.599114 0
M  V30 18396 H 1751.56 1.04837 -2.79378 0
M  V30 18397 C 1750.31 2.71277 -2.17496 0
M  V30 18398 H 1749.64 2.60297 -3.03456 0
M  V30 18399 H 1751.08 3.46115 -2.44909 0
M  V30 18400 C 1749.54 3.22268 -0.982101 0
M  V30 18401 O 1750.07 4.01119 -0.216035 0
M  V30 18402 N 1748.27 2.79931 -0.780179 0
M  V30 18403 H 1747.82 2.15923 -1.40482 0
M  V30 18404 H 1747.78 3.14396 0.0163297 0
M  V30 18405 N 1751.55 1.48103 0.538828 0
M  V30 18406 C 1752.78 1.59316 1.32008 0
M  V30 18407 C 1753.19 0.250107 1.87136 0
M  V30 18408 O 1752.55 -0.759358 1.65952 0
M  V30 18409 C 1752.6 2.63287 2.47714 0
M  V30 18410 O 1752.32 3.92379 1.9486 0
M  V30 18411 C 1753.82 2.84856 3.39664 0
M  V30 18412 H 1751.04 0.53743 0.401758 0
M  V30 18413 H 1753.59 1.93864 0.65092 0
M  V30 18414 H 1751.74 2.31621 3.10532 0
M  V30 18415 H 1752.15 4.49346 2.70534 0
M  V30 18416 H 1753.63 3.61426 4.17223 0
M  V30 18417 H 1754.11 1.93352 3.9435 0
M  V30 18418 H 1754.71 3.17791 2.82647 0
M  V30 18419 N 1753.03 -0.787016 1.36542 0
M  V30 18420 C 1754.25 -1.57588 1.34065 0
M  V30 18421 C 1754.67 -1.88641 -0.0775397 0
M  V30 18422 O 1754.03 -1.50306 -1.03511 0
M  V30 18423 C 1754.08 -2.89543 2.16442 0
M  V30 18424 O 1753.8 -2.59828 3.52734 0
M  V30 18425 C 1755.3 -3.83838 2.21773 0
M  V30 18426 H 1752.52 -0.488708 0.459789 0
M  V30 18427 H 1755.06 -0.976614 1.79673 0
M  V30 18428 H 1753.22 -3.45933 1.74383 0
M  V30 18429 H 1753.63 -3.44219 3.95744 0
M  V30 18430 H 1755.11 -4.73478 2.83765 0
M  V30 18431 H 1755.58 -4.21862 1.22185 0
M  V30 18432 H 1756.19 -3.33381 2.64078 0
M  V30 18433 N 1754.5 -1.20861 -1.01145 0
M  V30 18434 C 1755.78 -0.93084 -1.72031 0
M  V30 18435 C 1756.16 0.559051 -2.03563 0
M  V30 18436 O 1755.51 1.52214 -1.70421 0
M  V30 18437 C 1755.72 -1.8092 -2.98444 0
M  V30 18438 C 1757.07 -2.05415 -3.71604 0
M  V30 18439 O 1758.09 -1.78216 -3.08411 0
M  V30 18440 O 1756.95 -2.5138 -4.85253 0
M  V30 18441 H 1754.04 -0.348488 -0.74999 0
M  V30 18442 H 1756.59 -1.3176 -1.06946 0
M  V30 18443 H 1755.36 -2.81783 -2.71503 0
M  V30 18444 H 1754.99 -1.42285 -3.71269 0
M  V30 18445 N 1755.98 1.20536 -1.01532 0
M  V30 18446 C 1757.21 1.94393 -0.722908 0
M  V30 18447 C 1757.63 1.74191 0.709857 0
M  V30 18448 O 1756.99 1.03538 1.48827 0
M  V30 18449 C 1757.04 3.44597 -1.06231 0
M  V30 18450 O 1756.14 4.12036 -0.173286 0
M  V30 18451 H 1755.48 0.607361 -0.268345 0
M  V30 18452 H 1758.01 1.53003 -1.35835 0
M  V30 18453 H 1758.02 3.95212 -1.01348 0
M  V30 18454 H 1756.7 3.58624 -2.10621 0
M  V30 18455 H 1755.28 3.71851 -0.27953 0
M  V30 18456 N 1757.46 0.791395 1.36289 0
M  V30 18457 C 1758.39 0.205419 2.32595 0
M  V30 18458 C 1759.37 -0.660696 1.56744 0
M  V30 18459 O 1760.56 -0.594111 1.84889 0
M  V30 18460 C 1757.69 -0.659018 3.4099 0
M  V30 18461 C 1756.64 0.107364 4.27865 0
M  V30 18462 C 1755.97 -0.877795 5.27446 0
M  V30 18463 C 1757.27 1.29769 5.05922 0
M  V30 18464 H 1758.96 1.00999 2.8185 0
M  V30 18465 H 1756.51 0.487122 1.35511 0
M  V30 18466 H 1758.46 -1.07891 4.07354 0
M  V30 18467 H 1757.18 -1.49632 2.90307 0
M  V30 18468 H 1755.84 0.508253 3.6306 0
M  V30 18469 H 1755.49 -1.71018 4.73035 0
M  V30 18470 H 1755.19 -0.369429 5.86438 0
M  V30 18471 H 1756.71 -1.29621 5.96683 0
M  V30 18472 H 1758.13 0.953463 5.65316 0
M  V30 18473 H 1756.53 1.73949 5.74336 0
M  V30 18474 H 1757.6 2.09205 4.37449 0
M  V30 18475 N 1758.94 -1.47929 0.54358 0
M  V30 18476 C 1760.19 -2.03387 0.0226665 0
M  V30 18477 C 1760.54 -1.41189 -1.30704 0
M  V30 18478 O 1759.83 -0.553281 -1.83438 0
M  V30 18479 C 1760.03 -3.57116 -0.142408 0
M  V30 18480 C 1759.86 -4.3422 1.16975 0
M  V30 18481 C 1758.63 -4.7464 1.73335 0
M  V30 18482 C 1760.82 -4.70199 2.08369 0
M  V30 18483 N 1758.81 -5.36333 2.98697 0
M  V30 18484 C 1760.18 -5.32052 3.18309 0
M  V30 18485 C 1762.23 -4.52128 2.0853 0
M  V30 18486 C 1760.94 -5.77744 4.28491 0
M  V30 18487 C 1762.96 -4.9881 3.17715 0
M  V30 18488 C 1762.32 -5.607 4.26374 0
M  V30 18489 H 1758.42 -0.780392 0.0501262 0
M  V30 18490 H 1761.01 -1.80583 0.727863 0
M  V30 18491 H 1759.18 -3.79716 -0.816707 0
M  V30 18492 H 1760.91 -3.99213 -0.664154 0
M  V30 18493 H 1757.66 -4.5617 1.27302 0
M  V30 18494 H 1758.09 -5.71734 3.62559 0
M  V30 18495 H 1762.73 -4.03647 1.25812 0
M  V30 18496 H 1760.45 -6.25223 5.11979 0
M  V30 18497 H 1764.03 -4.86608 3.1891 0
M  V30 18498 H 1762.91 -5.96165 5.09467 0
M  V30 18499 N 1760.42 -0.27936 -1.55104 0
M  V30 18500 C 1761.66 0.336205 -1.9969 0
M  V30 18501 C 1761.99 1.55542 -1.16777 0
M  V30 18502 O 1761.25 1.94385 -0.226497 0
M  V30 18503 C 1761.55 0.758312 -3.49263 0
M  V30 18504 C 1761.21 -0.356741 -4.49487 0
M  V30 18505 C 1759.87 -0.662905 -4.76612 0
M  V30 18506 C 1762.23 -1.10789 -5.09289 0
M  V30 18507 C 1759.55 -1.72373 -5.60807 0
M  V30 18508 C 1761.91 -2.15847 -5.94637 0
M  V30 18509 C 1760.57 -2.47094 -6.20081 0
M  V30 18510 H 1759.84 0.123026 -0.730716 0
M  V30 18511 H 1762.49 -0.393956 -1.87404 0
M  V30 18512 H 1760.79 1.56822 -3.59046 0
M  V30 18513 H 1762.49 1.24541 -3.8117 0
M  V30 18514 H 1759.08 -0.107997 -4.28464 0
M  V30 18515 H 1763.26 -0.884619 -4.88353 0
M  V30 18516 H 1758.52 -1.97079 -5.78766 0
M  V30 18517 H 1762.69 -2.74523 -6.40008 0
M  V30 18518 H 1760.32 -3.29428 -6.85114 0
M  V30 18519 N 1761.9 1.57599 -0.0067085 0
M  V30 18520 C 1762.84 2.09973 1.00071 0
M  V30 18521 C 1763.84 1.02121 1.35158 0
M  V30 18522 O 1765.04 1.20579 1.33644 0
M  V30 18523 H 1761.42 0.670547 0.340398 0
M  V30 18524 H 1763.39 2.93593 0.533471 0
M  V30 18525 C 1762.14 2.62376 2.28153 0
M  V30 18526 H 1761.46 3.45002 2.02024 0
M  V30 18527 H 1762.9 3.02694 2.96905 0
M  V30 18528 C 1761.36 1.54093 2.99595 0
M  V30 18529 O 1761.89 0.927722 3.9084 0
M  V30 18530 N 1760.1 1.26676 2.61537 0
M  V30 18531 H 1759.64 1.76728 1.87417 0
M  V30 18532 H 1759.6 0.544464 3.0965 0
M  V30 18533 N 1763.37 -0.266145 1.55336 0
M  V30 18534 C 1764.62 -0.994172 1.77448 0
M  V30 18535 C 1764.97 -1.83686 0.572457 0
M  V30 18536 O 1764.27 -1.86603 -0.434735 0
M  V30 18537 C 1764.46 -1.90357 3.02488 0
M  V30 18538 C 1764.29 -1.15038 4.34737 0
M  V30 18539 C 1763.06 -0.863279 4.97871 0
M  V30 18540 C 1765.26 -0.537422 5.11484 0
M  V30 18541 N 1763.24 -0.0840218 6.13842 0
M  V30 18542 C 1764.61 0.107335 6.19907 0
M  V30 18543 C 1766.67 -0.445953 4.95899 0
M  V30 18544 C 1765.37 0.834754 7.1444 0
M  V30 18545 C 1767.4 0.267889 5.90793 0
M  V30 18546 C 1766.76 0.901359 6.98609 0
M  V30 18547 H 1762.86 -0.345546 0.701514 0
M  V30 18548 H 1765.44 -0.269159 1.92831 0
M  V30 18549 H 1763.61 -2.60078 2.88469 0
M  V30 18550 H 1765.34 -2.56571 3.12975 0
M  V30 18551 H 1762.1 -1.17027 4.58914 0
M  V30 18552 H 1762.52 0.293137 6.76365 0
M  V30 18553 H 1767.16 -0.921383 4.12638 0
M  V30 18554 H 1764.88 1.32185 7.97216 0
M  V30 18555 H 1768.47 0.339073 5.80811 0
M  V30 18556 H 1767.35 1.44492 7.70773 0
M  V30 18557 N 1764.85 -1.48386 -0.530967 0
M  V30 18558 C 1766.08 -1.60269 -1.31638 0
M  V30 18559 C 1766.5 -0.262789 -1.86255 0
M  V30 18560 O 1765.86 0.765389 -1.64352 0
M  V30 18561 C 1765.91 -2.65163 -2.44379 0
M  V30 18562 O 1765.01 -2.22254 -3.47386 0
M  V30 18563 H 1764.35 -0.537456 -0.38992 0
M  V30 18564 H 1766.88 -1.94366 -0.639 0
M  V30 18565 H 1766.89 -2.86405 -2.90579 0
M  V30 18566 H 1765.57 -3.62439 -2.03987 0
M  V30 18567 H 1764.14 -2.11221 -3.07311 0
M  V30 18568 N 1766.33 0.779763 -1.36958 0
M  V30 18569 C 1767.74 1.35555 -1.28381 0
M  V30 18570 C 1768.09 1.96067 0.0721422 0
M  V30 18571 O 1767.22 1.9325 0.973824 0
M  V30 18572 C 1767.81 2.46454 -2.32477 0
M  V30 18573 C 1766.37 2.99823 -2.27559 0
M  V30 18574 C 1765.52 1.72975 -2.16737 0
M  V30 18575 H 1768.47 0.580646 -1.47696 0
M  V30 18576 H 1768.49 3.25726 -1.96679 0
M  V30 18577 H 1768 2.02383 -3.31154 0
M  V30 18578 H 1766.1 3.4829 -1.3238 0
M  V30 18579 H 1766.22 3.55982 -3.20646 0
M  V30 18580 H 1764.58 1.95587 -1.6315 0
M  V30 18581 H 1765.36 1.31018 -3.17315 0
M  V30 18582 N 1767.81 1.21396 1.00503 0
M  V30 18583 C 1768.77 0.974756 2.07439 0
M  V30 18584 C 1769.77 -0.0542142 1.60709 0
M  V30 18585 O 1770.96 0.183056 1.73236 0
M  V30 18586 C 1768.09 0.46989 3.37646 0
M  V30 18587 H 1769.29 1.92346 2.30094 0
M  V30 18588 H 1766.84 1.03095 1.17479 0
M  V30 18589 H 1767.57 -0.483735 3.20672 0
M  V30 18590 H 1767.36 1.2121 3.72895 0
M  V30 18591 H 1768.85 0.322393 4.16354 0
M  V30 18592 N 1769.29 -1.19996 1.0217 0
M  V30 18593 C 1770.51 -1.94007 0.733207 0
M  V30 18594 C 1770.94 -1.74565 -0.70061 0
M  V30 18595 O 1770.29 -1.04326 -1.48276 0
M  V30 18596 C 1770.34 -3.44029 1.08057 0
M  V30 18597 O 1769.45 -4.11938 0.195135 0
M  V30 18598 H 1768.79 -0.605929 0.271562 0
M  V30 18599 H 1771.32 -1.5228 1.36645 0
M  V30 18600 H 1771.33 -3.94669 1.03443 0
M  V30 18601 H 1770 -3.57502 2.1252 0
M  V30 18602 H 1768.58 -3.71697 0.299246 0
M  V30 18603 N 1770.76 -0.798611 -1.35867 0
M  V30 18604 C 1772.01 -0.374519 -1.986 0
M  V30 18605 C 1772.33 1.05984 -1.63684 0
M  V30 18606 O 1771.6 1.73199 -0.915359 0
M  V30 18607 H 1770.18 -0.135492 -0.734609 0
M  V30 18608 H 1772.84 -1.02269 -1.65913 0
M  V30 18609 H 1771.94 -0.473773 -3.08483 0
M  V30 18610 N 1772.24 1.47639 -0.551417 0
M  V30 18611 C 1773.52 1.95559 0.0401983 0
M  V30 18612 C 1773.9 1.49396 1.49144 0
M  V30 18613 O 1773.25 0.730148 2.1652 0
M  V30 18614 C 1773.46 3.48859 -0.0992677 0
M  V30 18615 C 1774.8 4.24572 0.0490517 0
M  V30 18616 O 1775.83 3.5619 -0.026527 0
M  V30 18617 O 1774.69 5.46094 0.210638 0
M  V30 18618 H 1771.78 0.824251 0.0673694 0
M  V30 18619 H 1774.33 1.58065 -0.617532 0
M  V30 18620 H 1773.1 3.75245 -1.10936 0
M  V30 18621 H 1772.72 3.93102 0.596339 0
M  V30 18622 N 1773.72 0.287581 1.54954 0
M  V30 18623 C 1774.97 -0.32561 1.99865 0
M  V30 18624 C 1775.3 -1.54921 1.176 0
M  V30 18625 O 1774.55 -1.94262 0.236802 0
M  V30 18626 C 1774.85 -0.739779 3.4966 0
M  V30 18627 C 1774.52 0.380573 4.49291 0
M  V30 18628 C 1773.18 0.688172 4.76254 0
M  V30 18629 C 1775.53 1.13489 5.08694 0
M  V30 18630 C 1772.86 1.75344 5.59885 0
M  V30 18631 C 1775.21 2.18998 5.93484 0
M  V30 18632 C 1773.87 2.50379 6.18762 0
M  V30 18633 H 1773.14 -0.119149 0.731358 0
M  V30 18634 H 1775.79 0.403889 1.87192 0
M  V30 18635 H 1774.1 -1.54915 3.59873 0
M  V30 18636 H 1775.79 -1.22518 3.81825 0
M  V30 18637 H 1772.38 0.130718 4.28401 0
M  V30 18638 H 1776.57 0.910505 4.87877 0
M  V30 18639 H 1771.82 2.00145 5.77713 0
M  V30 18640 H 1776 2.77913 6.38543 0
M  V30 18641 H 1773.62 3.33057 6.83357 0
M  V30 18642 N 1775.2 -1.57593 0.0150662 0
M  V30 18643 C 1776.48 -1.82473 -0.704474 0
M  V30 18644 C 1776.86 -0.896018 -1.91141 0
M  V30 18645 O 1776.2 0.0517365 -2.28441 0
M  V30 18646 C 1776.41 -3.31345 -1.09598 0
M  V30 18647 C 1777.76 -3.97465 -1.49353 0
M  V30 18648 O 1778.79 -3.35757 -1.18936 0
M  V30 18649 O 1777.64 -5.06199 -2.05972 0
M  V30 18650 H 1774.74 -0.751908 -0.344331 0
M  V30 18651 H 1777.28 -1.69649 0.041674 0
M  V30 18652 H 1776.06 -3.90586 -0.236358 0
M  V30 18653 H 1775.68 -3.49224 -1.90075 0
M  V30 18654 N 1776.68 0.257904 -1.55475 0
M  V30 18655 C 1777.92 0.98747 -1.76792 0
M  V30 18656 C 1778.25 1.85732 -0.577411 0
M  V30 18657 O 1777.51 1.90698 0.439647 0
M  V30 18658 C 1777.81 1.8875 -3.03494 0
M  V30 18659 C 1777.47 1.17391 -4.35351 0
M  V30 18660 C 1776.13 0.976662 -4.71184 0
M  V30 18661 C 1778.49 0.667299 -5.16911 0
M  V30 18662 C 1775.81 0.260314 -5.86122 0
M  V30 18663 C 1778.17 -0.0355283 -6.3259 0
M  V30 18664 C 1776.83 -0.244359 -6.67053 0
M  V30 18665 H 1776.1 0.361341 -0.646926 0
M  V30 18666 H 1778.75 0.258469 -1.89748 0
M  V30 18667 H 1777.05 2.6832 -2.85502 0
M  V30 18668 H 1778.75 2.45348 -3.17184 0
M  V30 18669 H 1775.34 1.33758 -4.07194 0
M  V30 18670 H 1779.52 0.807271 -4.89691 0
M  V30 18671 H 1774.78 0.0879391 -6.11337 0
M  V30 18672 H 1778.95 -0.435775 -6.95035 0
M  V30 18673 H 1776.58 -0.801403 -7.55964 0
M  V30 18674 N 1778.15 1.48666 0.52309 0
M  V30 18675 C 1779.38 1.60474 1.30122 0
M  V30 18676 C 1779.79 0.266767 1.8731 0
M  V30 18677 O 1779.14 -0.754974 1.67469 0
M  V30 18678 C 1779.2 2.59753 2.48533 0
M  V30 18679 C 1778.86 4.04652 2.12381 0
M  V30 18680 C 1779.86 4.92129 1.67647 0
M  V30 18681 C 1777.54 4.50237 2.22692 0
M  V30 18682 C 1779.54 6.2322 1.337 0
M  V30 18683 C 1777.22 5.81348 1.88357 0
M  V30 18684 C 1778.22 6.67662 1.43932 0
M  V30 18685 O 1777.91 7.96332 1.10051 0
M  V30 18686 H 1777.64 0.543696 0.40171 0
M  V30 18687 H 1780.2 1.95273 0.637002 0
M  V30 18688 H 1778.43 2.20089 3.17958 0
M  V30 18689 H 1780.12 2.61323 3.10588 0
M  V30 18690 H 1780.88 4.58146 1.59145 0
M  V30 18691 H 1776.76 3.83236 2.56225 0
M  V30 18692 H 1780.3 6.90546 0.989527 0
M  V30 18693 H 1776.2 6.14864 1.96502 0
M  V30 18694 H 1776.97 8.09146 1.23389 0
M  V30 18695 N 1779.63 -0.772489 1.37369 0
M  V30 18696 C 1780.54 -1.91679 1.35263 0
M  V30 18697 C 1781.56 -1.72161 0.252321 0
M  V30 18698 O 1782.73 -1.95409 0.487581 0
M  V30 18699 C 1779.8 -3.26792 1.15792 0
M  V30 18700 C 1778.86 -3.5897 2.35455 0
M  V30 18701 C 1778.09 -4.87636 2.16903 0
M  V30 18702 O 1778.32 -5.58627 1.15291 0
M  V30 18703 O 1777.25 -5.18859 3.05072 0
M  V30 18704 H 1781.08 -1.96408 2.31641 0
M  V30 18705 H 1778.66 -0.915136 1.18092 0
M  V30 18706 H 1780.54 -4.07611 1.06918 0
M  V30 18707 H 1779.22 -3.22918 0.224872 0
M  V30 18708 H 1778.13 -2.78389 2.49901 0
M  V30 18709 H 1779.46 -3.67586 3.27325 0
M  V30 18710 N 1781.11 -1.21927 -0.998575 0
M  V30 18711 C 1782.04 -1.00845 -2.106 0
M  V30 18712 C 1783.02 0.068733 -1.69961 0
M  V30 18713 O 1784.21 -0.0923686 -1.9398 0
M  V30 18714 C 1781.34 -0.57929 -3.42435 0
M  V30 18715 C 1780.29 -1.60177 -3.96897 0
M  V30 18716 C 1779.62 -1.02863 -5.24713 0
M  V30 18717 C 1780.92 -2.9903 -4.28227 0
M  V30 18718 H 1782.61 -1.93469 -2.28495 0
M  V30 18719 H 1780.16 -0.931612 -1.09804 0
M  V30 18720 H 1782.11 -0.418944 -4.19312 0
M  V30 18721 H 1780.83 0.382608 -3.24351 0
M  V30 18722 H 1779.49 -1.74979 -3.22146 0
M  V30 18723 H 1779.14 -0.058254 -5.02966 0
M  V30 18724 H 1778.84 -1.71166 -5.62117 0
M  V30 18725 H 1780.36 -0.879743 -6.04229 0
M  V30 18726 H 1781.78 -2.87634 -4.95923 0
M  V30 18727 H 1780.18 -3.64404 -4.76791 0
M  V30 18728 H 1781.25 -3.4939 -3.36236 0
M  V30 18729 N 1782.59 1.19452 -1.02805 0
M  V30 18730 C 1783.84 1.88439 -0.719284 0
M  V30 18731 C 1784.15 1.80435 0.755143 0
M  V30 18732 O 1785.36 2.44664 1.17693 0
M  V30 18733 C 1783.81 3.38001 -1.23625 0
M  V30 18734 C 1783.42 3.54564 -2.7384 0
M  V30 18735 C 1785.16 4.1247 -1.00343 0
M  V30 18736 C 1783.07 4.98016 -3.18958 0
M  V30 18737 H 1782 0.705762 -0.265359 0
M  V30 18738 H 1784.65 1.35058 -1.24224 0
M  V30 18739 H 1783.03 3.90774 -0.641211 0
M  V30 18740 H 1784.21 3.12124 -3.38991 0
M  V30 18741 H 1782.52 2.93484 -2.95392 0
M  V30 18742 H 1785.12 5.18257 -1.31581 0
M  V30 18743 H 1785.46 4.16257 0.0597873 0
M  V30 18744 H 1786 3.65832 -1.56243 0
M  V30 18745 H 1782.74 4.9939 -4.24605 0
M  V30 18746 H 1782.26 5.41221 -2.58534 0
M  V30 18747 H 1783.93 5.66664 -3.12252 0
M  V30 18748 N 1784.07 0.805805 1.35442 0
M  V30 18749 C 1785 0.230077 2.32364 0
M  V30 18750 C 1785.98 -0.644034 1.57436 0
M  V30 18751 O 1787.16 -0.574467 1.85509 0
M  V30 18752 C 1784.29 -0.622814 3.4167 0
M  V30 18753 C 1783.25 0.152739 4.27727 0
M  V30 18754 C 1782.57 -0.821803 5.28347 0
M  V30 18755 C 1783.87 1.35128 5.04517 0
M  V30 18756 H 1785.57 1.03983 2.80763 0
M  V30 18757 H 1783.11 0.501467 1.34986 0
M  V30 18758 H 1785.07 -1.03564 4.08476 0
M  V30 18759 H 1783.79 -1.46544 2.91877 0
M  V30 18760 H 1782.45 0.546732 3.625 0
M  V30 18761 H 1782.1 -1.65991 4.74822 0
M  V30 18762 H 1781.8 -0.307209 5.86796 0
M  V30 18763 H 1783.32 -1.23285 5.98024 0
M  V30 18764 H 1784.73 1.01337 5.64273 0
M  V30 18765 H 1783.13 1.80031 5.72459 0
M  V30 18766 H 1784.2 2.13833 4.35205 0
M  V30 18767 N 1785.54 -1.47344 0.559239 0
M  V30 18768 C 1786.77 -2.0656 0.040802 0
M  V30 18769 C 1787.18 -1.41208 -1.25925 0
M  V30 18770 O 1786.53 -0.503333 -1.7667 0
M  V30 18771 C 1786.59 -3.58804 -0.223642 0
M  V30 18772 C 1786.25 -4.46208 0.987275 0
M  V30 18773 C 1787.25 -4.84198 1.89336 0
M  V30 18774 C 1784.93 -4.87693 1.20252 0
M  V30 18775 C 1786.93 -5.62474 2.99837 0
M  V30 18776 C 1784.61 -5.65733 2.31061 0
M  V30 18777 C 1785.61 -6.03034 3.20684 0
M  V30 18778 O 1785.3 -6.79502 4.29572 0
M  V30 18779 H 1785.03 -0.674583 0.0437408 0
M  V30 18780 H 1787.59 -1.90306 0.772827 0
M  V30 18781 H 1785.82 -3.73277 -1.01 0
M  V30 18782 H 1787.51 -4.00032 -0.687709 0
M  V30 18783 H 1788.27 -4.52746 1.73913 0
M  V30 18784 H 1784.15 -4.58124 0.514098 0
M  V30 18785 H 1787.69 -5.91508 3.69817 0
M  V30 18786 H 1783.59 -5.96598 2.46456 0
M  V30 18787 H 1784.36 -6.97898 4.27645 0
M  V30 18788 N 1787.02 -0.295795 -1.54799 0
M  V30 18789 C 1787.97 0.598403 -2.24771 0
M  V30 18790 C 1788.96 1.14123 -1.25189 0
M  V30 18791 O 1790.17 1.09248 -1.43056 0
M  V30 18792 H 1786.55 0.21157 -0.721625 0
M  V30 18793 H 1788.52 -0.0143437 -2.98397 0
M  V30 18794 C 1787.27 1.76132 -2.99788 0
M  V30 18795 H 1786.59 1.35284 -3.76216 0
M  V30 18796 H 1788.03 2.36317 -3.52037 0
M  V30 18797 C 1786.49 2.6623 -2.06453 0
M  V30 18798 O 1787.02 3.67179 -1.62918 0
M  V30 18799 N 1785.22 2.3385 -1.72518 0
M  V30 18800 H 1784.77 1.51804 -2.08119 0
M  V30 18801 H 1784.73 2.944 -1.10344 0
M  V30 18802 N 1788.5 1.57583 -0.0234236 0
M  V30 18803 C 1789.91 1.79422 0.516201 0
M  V30 18804 C 1790.26 0.933151 1.72588 0
M  V30 18805 O 1789.39 0.141985 2.15934 0
M  V30 18806 C 1789.98 3.25405 0.943248 0
M  V30 18807 C 1788.54 3.48259 1.42802 0
M  V30 18808 C 1787.69 2.74543 0.390074 0
M  V30 18809 H 1790.64 1.56727 -0.24949 0
M  V30 18810 H 1790.66 3.34803 1.80795 0
M  V30 18811 H 1790.17 3.88049 0.0626242 0
M  V30 18812 H 1788.27 2.9086 2.32877 0
M  V30 18813 H 1788.39 4.56968 1.43933 0
M  V30 18814 H 1786.75 2.39852 0.856919 0
M  V30 18815 H 1787.53 3.399 -0.481986 0
M  V30 18816 N 1789.98 -0.249655 1.5561 0
M  V30 18817 C 1790.93 -1.32883 1.90906 0
M  V30 18818 C 1791.92 -1.49965 0.787832 0
M  V30 18819 O 1793.13 -1.51473 0.972422 0
M  V30 18820 H 1789.5 -0.444907 0.606269 0
M  V30 18821 H 1791.47 -1.00379 2.8101 0
M  V30 18822 C 1790.22 -2.67782 2.21784 0
M  V30 18823 H 1789.55 -2.55436 3.07559 0
M  V30 18824 H 1790.99 -3.42175 2.50385 0
M  V30 18825 C 1789.44 -3.20664 1.03325 0
M  V30 18826 O 1789.97 -4.00724 0.279822 0
M  V30 18827 N 1788.18 -2.78655 0.824614 0
M  V30 18828 H 1787.73 -2.1366 1.43899 0
M  V30 18829 H 1787.69 -3.14382 0.03369 0
M  V30 18830 N 1791.46 -1.48941 -0.515198 0
M  V30 18831 C 1792.71 -1.57398 -1.26768 0
M  V30 18832 C 1793.03 -0.256213 -1.93309 0
M  V30 18833 O 1792.3 0.723408 -1.82054 0
M  V30 18834 H 1790.88 -0.579895 -0.470883 0
M  V30 18835 H 1793.54 -1.85489 -0.598315 0
M  V30 18836 H 1792.63 -2.36272 -2.03916 0
M  V30 18837 N 1792.94 0.765193 -1.37777 0
M  V30 18838 C 1794.16 1.55436 -1.36556 0
M  V30 18839 C 1794.58 1.8874 0.0475187 0
M  V30 18840 O 1793.94 1.51933 1.01107 0
M  V30 18841 C 1793.99 2.86063 -2.21021 0
M  V30 18842 O 1793.71 2.54183 -3.56823 0
M  V30 18843 C 1795.21 3.80261 -2.27851 0
M  V30 18844 H 1792.43 0.481331 -0.467506 0
M  V30 18845 H 1794.97 0.947906 -1.81204 0
M  V30 18846 H 1793.13 3.43114 -1.79864 0
M  V30 18847 H 1793.54 3.37879 -4.01171 0
M  V30 18848 H 1795.02 4.68904 -2.91261 0
M  V30 18849 H 1795.49 4.19865 -1.28881 0
M  V30 18850 H 1796.1 3.29137 -2.69349 0
M  V30 18851 N 1794.41 1.22455 0.992094 0
M  V30 18852 C 1795.36 0.99534 2.08235 0
M  V30 18853 C 1796.33 -0.0832064 1.65891 0
M  V30 18854 O 1797.52 0.0665468 1.90684 0
M  V30 18855 C 1794.66 0.580055 3.4019 0
M  V30 18856 C 1793.77 1.72946 3.95871 0
M  V30 18857 C 1792.9 1.26208 5.15989 0
M  V30 18858 C 1791.94 2.38298 5.63809 0
M  V30 18859 N 1791.08 1.92602 6.75166 0
M  V30 18860 H 1795.92 1.92861 2.27175 0
M  V30 18861 H 1793.46 0.960948 1.11374 0
M  V30 18862 H 1795.41 0.320448 4.15968 0
M  V30 18863 H 1794.04 -0.316208 3.21248 0
M  V30 18864 H 1793.1 2.10337 3.16958 0
M  V30 18865 H 1794.41 2.57257 4.27341 0
M  V30 18866 H 1793.56 0.959904 5.99058 0
M  V30 18867 H 1792.3 0.389184 4.86145 0
M  V30 18868 H 1791.31 2.69304 4.79328 0
M  V30 18869 H 1792.53 3.26105 5.95678 0
M  V30 18870 H 1790.48 1.07675 6.47103 0
M  V30 18871 H 1790.39 2.70478 7.05959 0
M  V30 18872 H 1791.66 1.65455 7.61738 0
M  V30 18873 N 1795.89 -1.18905 1.03437 0
M  V30 18874 C 1796.84 -2.22318 0.619933 0
M  V30 18875 C 1797.81 -1.61948 -0.369056 0
M  V30 18876 O 1798.99 -1.88958 -0.26447 0
M  V30 18877 C 1796.13 -3.45096 -0.0174579 0
M  V30 18878 C 1795.25 -4.19829 1.01823 0
M  V30 18879 C 1794.38 -5.30046 0.350026 0
M  V30 18880 C 1793.42 -5.96543 1.37125 0
M  V30 18881 N 1792.56 -6.98311 0.728458 0
M  V30 18882 H 1797.4 -2.57125 1.50634 0
M  V30 18883 H 1794.93 -1.26324 0.753695 0
M  V30 18884 H 1796.89 -4.15236 -0.404294 0
M  V30 18885 H 1795.52 -3.10927 -0.867412 0
M  V30 18886 H 1794.57 -3.48578 1.52308 0
M  V30 18887 H 1795.89 -4.65415 1.79416 0
M  V30 18888 H 1795.04 -6.06631 -0.0913585 0
M  V30 18889 H 1793.78 -4.85544 -0.458049 0
M  V30 18890 H 1792.78 -5.18703 1.82284 0
M  V30 18891 H 1794.01 -6.43127 2.18091 0
M  V30 18892 H 1791.96 -6.55973 -0.0594251 0
M  V30 18893 H 1791.87 -7.42117 1.44218 0
M  V30 18894 H 1793.14 -7.78878 0.311259 0
M  V30 18895 N 1797.37 -0.812977 -1.35013 0
M  V30 18896 C 1798.28 -0.229534 -2.33474 0
M  V30 18897 C 1799.3 0.630837 -1.62162 0
M  V30 18898 O 1800.47 0.541083 -1.93995 0
M  V30 18899 C 1797.54 0.607055 -3.41344 0
M  V30 18900 C 1796.6 -0.274554 -4.28421 0
M  V30 18901 C 1795.83 0.522202 -5.31139 0
M  V30 18902 O 1796.05 1.75636 -5.42686 0
M  V30 18903 O 1794.99 -0.0902666 -6.01832 0
M  V30 18904 H 1798.81 -1.04423 -2.85183 0
M  V30 18905 H 1796.4 -0.5749 -1.37896 0
M  V30 18906 H 1798.28 1.08335 -4.07236 0
M  V30 18907 H 1796.96 1.39924 -2.91895 0
M  V30 18908 H 1795.86 -0.798124 -3.65487 0
M  V30 18909 H 1797.2 -1.03084 -4.81284 0
M  V30 18910 N 1798.85 1.47045 -0.567045 0
M  V30 18911 C 1799.8 2.31838 0.188075 0
M  V30 18912 C 1800.79 1.4353 0.899752 0
M  V30 18913 O 1802 1.60241 0.81992 0
M  V30 18914 H 1798.37 0.747783 0.0795226 0
M  V30 18915 H 1800.34 2.9336 -0.546121 0
M  V30 18916 C 1799.09 3.26387 1.19861 0
M  V30 18917 H 1798.41 3.94308 0.660412 0
M  V30 18918 H 1799.85 3.8853 1.69767 0
M  V30 18919 C 1798.31 2.50612 2.25157 0
M  V30 18920 O 1798.84 2.25771 3.3225 0
M  V30 18921 N 1797.05 2.11447 1.99345 0
M  V30 18922 H 1796.6 2.31849 1.12267 0
M  V30 18923 H 1796.55 1.61064 2.7001 0
M  V30 18924 N 1800.33 0.304 1.5464 0
M  V30 18925 C 1801.57 -0.297701 2.0121 0
M  V30 18926 C 1801.93 -1.51295 1.18859 0
M  V30 18927 O 1801.22 -1.89859 0.257697 0
M  V30 18928 C 1801.41 -0.702651 3.50425 0
M  V30 18929 C 1801.24 0.47181 4.47218 0
M  V30 18930 C 1800.01 0.964773 4.96004 0
M  V30 18931 C 1802.21 1.31774 4.97132 0
M  V30 18932 N 1800.19 2.10568 5.76658 0
M  V30 18933 C 1801.56 2.3061 5.75516 0
M  V30 18934 C 1803.62 1.34777 4.79312 0
M  V30 18935 C 1802.32 3.32228 6.37979 0
M  V30 18936 C 1804.35 2.35255 5.42595 0
M  V30 18937 C 1803.71 3.3282 6.20814 0
M  V30 18938 H 1799.81 -0.073314 0.778556 0
M  V30 18939 H 1802.39 0.434597 1.89788 0
M  V30 18940 H 1800.56 -1.40412 3.62131 0
M  V30 18941 H 1802.3 -1.28415 3.83786 0
M  V30 18942 H 1799.05 0.539254 4.7052 0
M  V30 18943 H 1799.47 2.68063 6.21668 0
M  V30 18944 H 1804.12 0.607191 4.18417 0
M  V30 18945 H 1801.83 4.07203 6.98005 0
M  V30 18946 H 1805.42 2.38355 5.30733 0
M  V30 18947 H 1804.3 4.09296 6.68914 0
M  V30 18948 N 1801.8 -1.57568 0.0317802 0
M  V30 18949 C 1802.75 -2.10379 -0.949183 0
M  V30 18950 C 1803.72 -1.00649 -1.32133 0
M  V30 18951 O 1804.91 -1.28084 -1.41418 0
M  V30 18952 C 1802.05 -2.63762 -2.22539 0
M  V30 18953 C 1801.16 -3.87509 -1.90946 0
M  V30 18954 C 1800.29 -4.29276 -3.12882 0
M  V30 18955 C 1799.33 -5.45775 -2.77121 0
M  V30 18956 N 1798.47 -5.82686 -3.9169 0
M  V30 18957 H 1803.31 -2.93912 -0.491922 0
M  V30 18958 H 1800.85 -1.45272 -0.23121 0
M  V30 18959 H 1802.8 -2.92803 -2.9719 0
M  V30 18960 H 1801.43 -1.83055 -2.65877 0
M  V30 18961 H 1800.49 -3.6518 -1.06526 0
M  V30 18962 H 1801.8 -4.72235 -1.6061 0
M  V30 18963 H 1800.95 -4.59768 -3.95851 0
M  V30 18964 H 1799.69 -3.43323 -3.46382 0
M  V30 18965 H 1798.7 -5.14974 -1.92565 0
M  V30 18966 H 1799.92 -6.3343 -2.44834 0
M  V30 18967 H 1797.87 -4.99688 -4.25027 0
M  V30 18968 H 1797.78 -6.62058 -3.64986 0
M  V30 18969 H 1799.05 -6.17785 -4.75355 0
M  V30 18970 N 1803.28 0.241399 -1.5574 0
M  V30 18971 C 1804.56 0.991821 -1.68589 0
M  V30 18972 C 1804.94 2.03167 -0.573274 0
M  V30 18973 O 1804.29 2.2456 0.422521 0
M  V30 18974 C 1804.5 1.6202 -3.09112 0
M  V30 18975 C 1805.85 2.11998 -3.67889 0
M  V30 18976 O 1806.87 1.71951 -3.11948 0
M  V30 18977 O 1805.73 2.85545 -4.65968 0
M  V30 18978 H 1802.82 0.462017 -0.685907 0
M  V30 18979 H 1805.37 0.23475 -1.68068 0
M  V30 18980 H 1804.14 0.86835 -3.81543 0
M  V30 18981 H 1803.76 2.44333 -3.13667 0
M  V30 18982 N 1804.76 1.49212 0.507292 0
M  V30 18983 C 1805.71 1.65417 1.60953 0
M  V30 18984 C 1806.68 0.495737 1.5853 0
M  V30 18985 O 1807.86 0.722002 1.76612 0
M  V30 18986 C 1805 1.72095 2.99128 0
M  V30 18987 C 1804.12 2.99199 3.11615 0
M  V30 18988 C 1803.25 2.96895 4.40485 0
M  V30 18989 C 1802.29 4.18607 4.46581 0
M  V30 18990 N 1801.43 4.14248 5.66871 0
M  V30 18991 H 1806.27 2.59535 1.46444 0
M  V30 18992 H 1803.8 1.28687 0.712609 0
M  V30 18993 H 1805.76 1.73947 3.79207 0
M  V30 18994 H 1804.39 0.814484 3.12356 0
M  V30 18995 H 1803.44 3.06988 2.24639 0
M  V30 18996 H 1804.76 3.89192 3.11979 0
M  V30 18997 H 1803.91 2.97275 5.28878 0
M  V30 18998 H 1802.65 2.0467 4.42675 0
M  V30 18999 H 1801.65 4.18477 3.56591 0
M  V30 19000 H 1802.88 5.12017 4.46112 0
M  V30 19001 H 1800.82 3.24857 5.69916 0
M  V30 19002 H 1800.74 4.97969 5.68826 0
M  V30 19003 H 1802.01 4.18722 6.57489 0
M  V30 19004 N 1806.24 -0.757876 1.38181 0
M  V30 19005 C 1807.52 -1.50715 1.24677 0
M  V30 19006 C 1807.9 -2.1054 -0.153689 0
M  V30 19007 O 1807.24 -1.96703 -1.16276 0
M  V30 19008 C 1807.45 -2.57695 2.3536 0
M  V30 19009 C 1808.8 -3.24716 2.73578 0
M  V30 19010 O 1809.83 -2.67997 2.3464 0
M  V30 19011 O 1808.68 -4.27294 3.40709 0
M  V30 19012 H 1805.78 -0.668175 0.487311 0
M  V30 19013 H 1808.32 -0.793653 1.49997 0
M  V30 19014 H 1807.1 -2.11706 3.29084 0
M  V30 19015 H 1806.72 -3.36629 2.11581 0
M  V30 19016 N 1807.72 -1.22979 -0.985586 0
M  V30 19017 C 1808.65 -1.03073 -2.09519 0
M  V30 19018 C 1809.63 0.0507025 -1.70024 0
M  V30 19019 O 1810.81 -0.112938 -1.93871 0
M  V30 19020 C 1807.94 -0.615578 -3.41801 0
M  V30 19021 C 1806.9 -1.64377 -3.95176 0
M  V30 19022 C 1806.22 -1.08422 -5.23592 0
M  V30 19023 C 1807.52 -3.03555 -4.25032 0
M  V30 19024 H 1809.22 -1.95882 -2.2643 0
M  V30 19025 H 1806.76 -0.943206 -1.0881 0
M  V30 19026 H 1808.72 -0.463394 -4.18844 0
M  V30 19027 H 1807.44 0.348185 -3.24739 0
M  V30 19028 H 1806.1 -1.78386 -3.20272 0
M  V30 19029 H 1805.75 -0.111597 -5.02876 0
M  V30 19030 H 1805.45 -1.77118 -5.6027 0
M  V30 19031 H 1806.97 -0.94378 -6.03262 0
M  V30 19032 H 1808.38 -2.92878 -4.92844 0
M  V30 19033 H 1806.78 -3.69441 -4.72899 0
M  V30 19034 H 1807.85 -3.52937 -3.32511 0
M  V30 19035 N 1809.19 1.18355 -1.04066 0
M  V30 19036 C 1810.42 1.92275 -0.76406 0
M  V30 19037 C 1810.84 1.76176 0.678777 0
M  V30 19038 O 1810.19 1.0914 1.46269 0
M  V30 19039 C 1810.25 3.43686 -1.12083 0
M  V30 19040 O 1809.97 3.59277 -2.50702 0
M  V30 19041 C 1811.47 4.34705 -0.868726 0
M  V30 19042 H 1808.69 0.610406 -0.278649 0
M  V30 19043 H 1811.23 1.50153 -1.38832 0
M  V30 19044 H 1809.39 3.83596 -0.541528 0
M  V30 19045 H 1809.8 4.53007 -2.64357 0
M  V30 19046 H 1811.27 5.39497 -1.16821 0
M  V30 19047 H 1811.75 4.3876 0.196501 0
M  V30 19048 H 1812.36 4.00491 -1.43132 0
M  V30 19049 N 1810.67 0.820125 1.3458 0
M  V30 19050 C 1811.58 0.241913 2.33349 0
M  V30 19051 C 1812.6 -0.622228 1.62494 0
M  V30 19052 O 1813.77 -0.530787 1.9428 0
M  V30 19053 C 1810.84 -0.588944 3.41661 0
M  V30 19054 C 1809.9 0.29727 4.2827 0
M  V30 19055 C 1809.13 -0.494028 5.31409 0
M  V30 19056 O 1809.36 -1.72755 5.4361 0
M  V30 19057 O 1808.29 0.122182 6.01776 0
M  V30 19058 H 1812.12 1.05934 2.84626 0
M  V30 19059 H 1809.7 0.582205 1.37589 0
M  V30 19060 H 1811.58 -1.06174 4.07805 0
M  V30 19061 H 1810.26 -1.38374 2.92633 0
M  V30 19062 H 1809.17 0.817495 3.65059 0
M  V30 19063 H 1810.5 1.05635 4.80731 0
M  V30 19064 N 1812.15 -1.46743 0.574835 0
M  V30 19065 C 1813.4 -2.03294 0.0658028 0
M  V30 19066 C 1813.75 -1.43929 -1.2768 0
M  V30 19067 O 1813.04 -0.592066 -1.82223 0
M  V30 19068 C 1813.24 -3.57338 -0.0666259 0
M  V30 19069 C 1813.07 -4.31641 1.26159 0
M  V30 19070 C 1811.84 -4.70857 1.83363 0
M  V30 19071 C 1814.04 -4.65673 2.18296 0
M  V30 19072 N 1812.02 -5.29877 3.10006 0
M  V30 19073 C 1813.39 -5.25181 3.29523 0
M  V30 19074 C 1815.44 -4.47603 2.18073 0
M  V30 19075 C 1814.15 -5.68525 4.4065 0
M  V30 19076 C 1816.17 -4.91958 3.28224 0
M  V30 19077 C 1815.53 -5.5153 4.38171 0
M  V30 19078 H 1811.63 -0.779153 0.0666682 0
M  V30 19079 H 1814.22 -1.78999 0.766004 0
M  V30 19080 H 1812.39 -3.81363 -0.73598 0
M  V30 19081 H 1814.12 -4.00532 -0.579326 0
M  V30 19082 H 1810.88 -4.53367 1.3695 0
M  V30 19083 H 1811.3 -5.63915 3.74605 0
M  V30 19084 H 1815.94 -4.00888 1.34345 0
M  V30 19085 H 1813.66 -6.14222 5.25125 0
M  V30 19086 H 1817.25 -4.79734 3.2916 0
M  V30 19087 H 1816.13 -5.85224 5.21998 0
M  V30 19088 N 1813.63 -0.312197 -1.54477 0
M  V30 19089 C 1815.04 0.0408317 -1.59548 0
M  V30 19090 C 1815.24 1.51461 -1.32898 0
M  V30 19091 O 1814.3 2.26899 -1.10785 0
M  V30 19092 C 1815.61 -0.367179 -2.9845 0
M  V30 19093 C 1817.16 -0.31688 -3.11392 0
M  V30 19094 C 1817.64 -0.699881 -4.52621 0
M  V30 19095 N 1819.13 -0.652846 -4.58576 0
M  V30 19096 C 1819.86 -0.921531 -5.65946 0
M  V30 19097 N 1819.36 -1.25676 -6.81306 0
M  V30 19098 N 1821.15 -0.847847 -5.55669 0
M  V30 19099 H 1813.3 -1.27255 -1.70059 0
M  V30 19100 H 1815.57 -0.516679 -0.794825 0
M  V30 19101 H 1815.27 -1.39356 -3.22913 0
M  V30 19102 H 1815.15 0.273556 -3.76207 0
M  V30 19103 H 1817.53 0.700275 -2.86671 0
M  V30 19104 H 1817.61 -0.992393 -2.35765 0
M  V30 19105 H 1817.26 -1.7149 -4.78073 0
M  V30 19106 H 1817.19 -0.00217708 -5.266 0
M  V30 19107 H 1819.68 -0.405135 -3.75722 0
M  V30 19108 H 1819.99 -1.44746 -7.59123 0
M  V30 19109 H 1818.34 -1.29491 -6.8283 0
M  V30 19110 H 1821.53 -0.585523 -4.64424 0
M  V30 19111 H 1821.7 -1.06061 -6.39261 0
M  V30 19112 N 1815.11 1.57549 -0.040136 0
M  V30 19113 C 1816.35 1.9225 0.636094 0
M  V30 19114 C 1816.68 0.917539 1.71498 0
M  V30 19115 O 1815.94 -0.0718721 1.95568 0
M  V30 19116 C 1816.24 3.3366 1.28084 0
M  V30 19117 C 1815.9 4.49682 0.331249 0
M  V30 19118 C 1814.56 4.81149 0.0699171 0
M  V30 19119 C 1816.92 5.20216 -0.320179 0
M  V30 19120 C 1814.24 5.80503 -0.850464 0
M  V30 19121 C 1816.6 6.20553 -1.22868 0
M  V30 19122 C 1815.26 6.50455 -1.4988 0
M  V30 19123 H 1814.53 0.703493 0.232763 0
M  V30 19124 H 1817.18 1.91216 -0.104258 0
M  V30 19125 H 1815.48 3.31008 2.0962 0
M  V30 19126 H 1817.18 3.57785 1.81082 0
M  V30 19127 H 1813.77 4.25119 0.545114 0
M  V30 19128 H 1817.95 4.96126 -0.131354 0
M  V30 19129 H 1813.21 6.02012 -1.06733 0
M  V30 19130 H 1817.38 6.74323 -1.73958 0
M  V30 19131 H 1815.01 7.27257 -2.21362 0
M  V30 19132 N 1816.58 -0.233136 1.55866 0
M  V30 19133 C 1817.52 -1.31202 1.87932 0
M  V30 19134 C 1818.53 -1.43619 0.766642 0
M  V30 19135 O 1819.72 -1.44723 1.04487 0
M  V30 19136 C 1816.82 -2.68904 2.06262 0
M  V30 19137 C 1815.99 -2.78581 3.37211 0
M  V30 19138 C 1815.05 -3.97219 3.45114 0
M  V30 19139 O 1814.08 -3.861 4.18229 0
M  V30 19140 N 1815.28 -5.11009 2.7541 0
M  V30 19141 H 1818.04 -1.04025 2.81067 0
M  V30 19142 H 1815.6 -0.423209 1.56271 0
M  V30 19143 H 1817.6 -3.46631 2.08876 0
M  V30 19144 H 1816.17 -2.8873 1.19807 0
M  V30 19145 H 1815.39 -1.87422 3.46795 0
M  V30 19146 H 1816.67 -2.82008 4.23496 0
M  V30 19147 H 1816.07 -5.22936 2.15764 0
M  V30 19148 H 1814.63 -5.8682 2.837 0
M  V30 19149 N 1818.06 -1.49479 -0.499372 0
M  V30 19150 C 1819.31 -1.58734 -1.25092 0
M  V30 19151 C 1819.63 -0.276701 -1.93027 0
M  V30 19152 O 1818.9 0.704058 -1.82811 0
M  V30 19153 H 1817.48 -0.584857 -0.464706 0
M  V30 19154 H 1820.14 -1.86113 -0.578608 0
M  V30 19155 H 1819.24 -2.38422 -2.01399 0
M  V30 19156 N 1819.54 0.750537 -1.38581 0
M  V30 19157 C 1820.47 1.87785 -1.38777 0
M  V30 19158 C 1821.45 1.68204 -0.253244 0
M  V30 19159 O 1822.64 1.88752 -0.456779 0
M  V30 19160 C 1819.77 3.2535 -1.21511 0
M  V30 19161 C 1818.72 3.59538 -2.32199 0
M  V30 19162 C 1818.05 4.95873 -2.00036 0
M  V30 19163 C 1819.35 3.64102 -3.74469 0
M  V30 19164 H 1821.04 1.87879 -2.33113 0
M  V30 19165 H 1818.59 0.902504 -1.12209 0
M  V30 19166 H 1820.54 4.03872 -1.20272 0
M  V30 19167 H 1819.26 3.25744 -0.236366 0
M  V30 19168 H 1817.92 2.83336 -2.32629 0
M  V30 19169 H 1817.57 4.9283 -1.00638 0
M  V30 19170 H 1817.27 5.19716 -2.7417 0
M  V30 19171 H 1818.8 5.7677 -2.00421 0
M  V30 19172 H 1820.21 4.32731 -3.76054 0
M  V30 19173 H 1818.61 3.99455 -4.47834 0
M  V30 19174 H 1819.68 2.64259 -4.06565 0
M  V30 19175 N 1821.02 1.235 0.979051 0
M  V30 19176 C 1822.27 1.06949 1.72307 0
M  V30 19177 C 1822.6 -0.392491 1.90192 0
M  V30 19178 O 1821.87 -1.29054 1.45518 0
M  V30 19179 C 1822.16 1.79705 3.12055 0
M  V30 19180 C 1822.01 3.33583 3.01732 0
M  V30 19181 C 1823.33 1.56062 4.11501 0
M  V30 19182 H 1820.45 0.389917 0.625407 0
M  V30 19183 H 1823.09 1.52022 1.1397 0
M  V30 19184 H 1821.24 1.4139 3.61858 0
M  V30 19185 H 1822.91 3.81428 2.59443 0
M  V30 19186 H 1821.15 3.62547 2.38206 0
M  V30 19187 H 1821.83 3.79681 4.00683 0
M  V30 19188 H 1824.3 1.8937 3.70511 0
M  V30 19189 H 1823.18 2.09442 5.07371 0
M  V30 19190 H 1823.44 0.496276 4.39306 0
M  V30 19191 N 1822.5 -1.17802 1.04693 0
M  V30 19192 C 1823.91 -1.69583 0.780923 0
M  V30 19193 C 1824.26 -1.83383 -0.697497 0
M  V30 19194 O 1823.38 -1.51781 -1.54245 0
M  V30 19195 C 1823.98 -3.08021 1.41097 0
M  V30 19196 C 1822.54 -3.56989 1.19313 0
M  V30 19197 C 1821.69 -2.33377 1.49768 0
M  V30 19198 H 1824.64 -1.02389 1.21253 0
M  V30 19199 H 1824.66 -3.71613 0.817539 0
M  V30 19200 H 1824.17 -2.97945 2.48697 0
M  V30 19201 H 1822.27 -3.72351 0.136146 0
M  V30 19202 H 1822.38 -4.40049 1.89456 0
M  V30 19203 H 1820.75 -2.37597 0.917585 0
M  V30 19204 H 1821.53 -2.25914 2.58491 0
M  V30 19205 N 1823.98 -0.827251 -1.34143 0
M  V30 19206 C 1825.22 -0.41656 -1.9776 0
M  V30 19207 C 1825.54 1.02488 -1.65895 0
M  V30 19208 O 1824.81 1.71219 -0.951891 0
M  V30 19209 H 1823.39 -0.151044 -0.73157 0
M  V30 19210 H 1826.06 -1.05765 -1.63706 0
M  V30 19211 H 1825.15 -0.539101 -3.07409 0
M  V30 19212 N 1825.45 1.46436 -0.582609 0
M  V30 19213 C 1826.87 1.5772 -0.244278 0
M  V30 19214 C 1827.07 1.57772 1.2534 0
M  V30 19215 O 1826.13 1.49463 2.03512 0
M  V30 19216 C 1827.44 2.87122 -0.893398 0
M  V30 19217 C 1828.99 3.00753 -0.866979 0
M  V30 19218 C 1829.46 4.32891 -1.49564 0
M  V30 19219 N 1830.95 4.3959 -1.45998 0
M  V30 19220 C 1831.69 5.40449 -1.91578 0
M  V30 19221 N 1831.18 6.47983 -2.45132 0
M  V30 19222 N 1832.98 5.3165 -1.82496 0
M  V30 19223 H 1825.13 1.44646 -1.55536 0
M  V30 19224 H 1827.39 0.689972 -0.650109 0
M  V30 19225 H 1827.1 2.92894 -1.94695 0
M  V30 19226 H 1826.97 3.75056 -0.40156 0
M  V30 19227 H 1829.36 2.94563 0.177954 0
M  V30 19228 H 1829.44 2.14295 -1.39684 0
M  V30 19229 H 1829.08 4.39839 -2.53977 0
M  V30 19230 H 1829.01 5.18124 -0.94101 0
M  V30 19231 H 1831.5 3.62479 -1.06851 0
M  V30 19232 H 1831.82 7.21154 -2.7777 0
M  V30 19233 H 1830.16 6.48803 -2.49157 0
M  V30 19234 H 1833.35 4.46543 -1.40416 0
M  V30 19235 H 1833.53 6.1011 -2.18334 0
M  V30 19236 N 1826.93 0.320385 1.54309 0
M  V30 19237 C 1827.88 -0.547011 2.24224 0
M  V30 19238 C 1828.85 -1.11419 1.23187 0
M  V30 19239 O 1830.03 -1.15513 1.5186 0
M  V30 19240 C 1827.17 -1.70359 3.0012 0
M  V30 19241 C 1826.29 -1.16594 4.15968 0
M  V30 19242 C 1825.42 -2.28795 4.79402 0
M  V30 19243 C 1824.46 -1.72263 5.8736 0
M  V30 19244 N 1823.6 -2.78113 6.44668 0
M  V30 19245 H 1828.44 0.0557725 2.97948 0
M  V30 19246 H 1825.97 0.0392956 1.47048 0
M  V30 19247 H 1827.93 -2.38413 3.42367 0
M  V30 19248 H 1826.56 -2.27771 2.28736 0
M  V30 19249 H 1825.61 -0.377054 3.78527 0
M  V30 19250 H 1826.93 -0.712254 4.93689 0
M  V30 19251 H 1826.08 -3.04759 5.24601 0
M  V30 19252 H 1824.82 -2.77499 4.01056 0
M  V30 19253 H 1823.82 -0.947951 5.41566 0
M  V30 19254 H 1825.05 -1.2444 6.67601 0
M  V30 19255 H 1823 -3.26115 5.69197 0
M  V30 19256 H 1822.91 -2.37298 7.17792 0
M  V30 19257 H 1824.18 -3.53916 6.94524 0
M  V30 19258 N 1828.41 -1.57525 0.0484906 0
M  V30 19259 C 1829.64 -1.96611 -0.634631 0
M  V30 19260 C 1830.05 -0.924571 -1.65071 0
M  V30 19261 O 1829.39 0.0999398 -1.83428 0
M  V30 19262 C 1829.45 -3.31924 -1.38082 0
M  V30 19263 C 1829.12 -4.54022 -0.520883 0
M  V30 19264 C 1830.11 -5.19468 0.21192 0
M  V30 19265 C 1827.8 -5.00257 -0.452595 0
M  V30 19266 C 1829.79 -6.29483 1.00148 0
M  V30 19267 C 1827.48 -6.1015 0.340652 0
M  V30 19268 C 1828.48 -6.74624 1.06638 0
M  V30 19269 O 1828.17 -7.82404 1.84659 0
M  V30 19270 H 1827.9 -0.652007 -0.178503 0
M  V30 19271 H 1830.45 -2.05103 0.110397 0
M  V30 19272 H 1828.68 -3.19979 -2.17142 0
M  V30 19273 H 1830.37 -3.55777 -1.95392 0
M  V30 19274 H 1831.14 -4.84707 0.168615 0
M  V30 19275 H 1827.02 -4.49866 -1.00706 0
M  V30 19276 H 1830.56 -6.79739 1.56844 0
M  V30 19277 H 1826.46 -6.44347 0.385605 0
M  V30 19278 H 1827.22 -7.99168 1.76842 0
M  V30 19279 N 1829.89 0.224867 -1.55988 0
M  V30 19280 C 1831.13 0.951154 -1.79111 0
M  V30 19281 C 1831.47 1.84119 -0.617568 0
M  V30 19282 O 1830.74 1.90686 0.383312 0
M  V30 19283 C 1831.02 1.79292 -3.12292 0
M  V30 19284 C 1830.88 0.929603 -4.40089 0
M  V30 19285 C 1832.2 2.77132 -3.41886 0
M  V30 19286 H 1829.32 0.344359 -0.651603 0
M  V30 19287 H 1831.96 0.220228 -1.88719 0
M  V30 19288 H 1830.11 2.41609 -3.04232 0
M  V30 19289 H 1831.78 0.323432 -4.60165 0
M  V30 19290 H 1830.02 0.234877 -4.33164 0
M  V30 19291 H 1830.69 1.55289 -5.29707 0
M  V30 19292 H 1833.17 2.24951 -3.50052 0
M  V30 19293 H 1832.05 3.33135 -4.36248 0
M  V30 19294 H 1832.31 3.54705 -2.63887 0
M  V30 19295 N 1831.37 1.49742 0.491438 0
M  V30 19296 C 1832.3 1.70033 1.60034 0
M  V30 19297 C 1833.28 0.549076 1.60994 0
M  V30 19298 O 1834.46 0.785983 1.77584 0
M  V30 19299 C 1831.59 1.7757 2.98473 0
M  V30 19300 C 1830.55 2.9258 3.12379 0
M  V30 19301 C 1829.87 2.85239 4.52264 0
M  V30 19302 C 1831.17 4.33385 2.91504 0
M  V30 19303 H 1832.87 2.62875 1.43307 0
M  V30 19304 H 1830.41 1.26502 0.687989 0
M  V30 19305 H 1832.36 1.90351 3.75958 0
M  V30 19306 H 1831.09 0.813343 3.1631 0
M  V30 19307 H 1829.75 2.79417 2.37322 0
M  V30 19308 H 1829.4 1.86892 4.66991 0
M  V30 19309 H 1829.1 3.62437 4.62508 0
M  V30 19310 H 1830.62 3.00041 5.31797 0
M  V30 19311 H 1832.03 4.4718 3.58752 0
M  V30 19312 H 1830.43 5.11878 3.13211 0
M  V30 19313 H 1831.5 4.47166 1.87539 0
M  V30 19314 N 1832.84 -0.743177 1.38977 0
M  V30 19315 C 1834.09 -1.50377 1.36961 0
M  V30 19316 C 1834.45 -1.92364 -0.0370572 0
M  V30 19317 O 1833.74 -1.63317 -1.0019 0
M  V30 19318 C 1833.93 -2.76157 2.26874 0
M  V30 19319 C 1833.76 -2.46468 3.76143 0
M  V30 19320 C 1832.53 -2.3917 4.45113 0
M  V30 19321 C 1834.73 -2.12552 4.68323 0
M  V30 19322 N 1832.71 -2.01865 5.79762 0
M  V30 19323 C 1834.08 -1.85625 5.9156 0
M  V30 19324 C 1836.14 -1.98951 4.56424 0
M  V30 19325 C 1834.84 -1.46467 7.0423 0
M  V30 19326 C 1836.87 -1.61195 5.69008 0
M  V30 19327 C 1836.23 -1.35147 6.91314 0
M  V30 19328 H 1832.33 -0.549441 0.556452 0
M  V30 19329 H 1834.91 -0.864468 1.74456 0
M  V30 19330 H 1833.08 -3.3788 1.9155 0
M  V30 19331 H 1834.81 -3.42294 2.15909 0
M  V30 19332 H 1831.57 -2.55991 3.98454 0
M  V30 19333 H 1831.99 -1.85829 6.50997 0
M  V30 19334 H 1836.64 -2.1776 3.62409 0
M  V30 19335 H 1834.35 -1.26397 7.98154 0
M  V30 19336 H 1837.94 -1.51288 5.61786 0
M  V30 19337 H 1836.82 -1.06368 7.76953 0
M  V30 19338 N 1834.32 -1.24018 -0.972487 0
M  V30 19339 C 1835.57 -1.07861 -1.71738 0
M  V30 19340 C 1835.9 0.382399 -1.90398 0
M  V30 19341 O 1835.18 1.2828 -1.462 0
M  V30 19342 C 1835.46 -1.81357 -3.11098 0
M  V30 19343 C 1835.31 -3.35179 -2.99959 0
M  V30 19344 C 1836.63 -1.58242 -4.10667 0
M  V30 19345 H 1833.75 -0.393228 -0.623331 0
M  V30 19346 H 1836.39 -1.52625 -1.13162 0
M  V30 19347 H 1834.54 -1.43307 -3.61103 0
M  V30 19348 H 1836.21 -3.82798 -2.57416 0
M  V30 19349 H 1834.46 -3.63805 -2.3628 0
M  V30 19350 H 1835.13 -3.818 -3.98664 0
M  V30 19351 H 1837.6 -1.91332 -3.69501 0
M  V30 19352 H 1836.48 -2.1213 -5.06253 0
M  V30 19353 H 1836.74 -0.519567 -4.39036 0
M  V30 19354 N 1835.8 1.17245 -1.05316 0
M  V30 19355 C 1837.05 1.87813 -0.765112 0
M  V30 19356 C 1837.38 1.80907 0.706147 0
M  V30 19357 O 1836.65 1.21793 1.51647 0
M  V30 19358 C 1836.94 3.3779 -1.24779 0
M  V30 19359 C 1836.79 3.53441 -2.78208 0
M  V30 19360 C 1838.11 4.31857 -0.847805 0
M  V30 19361 H 1835.23 0.681979 -0.279415 0
M  V30 19362 H 1837.87 1.37869 -1.30737 0
M  V30 19363 H 1836.02 3.80456 -0.786487 0
M  V30 19364 H 1837.69 3.19782 -3.32472 0
M  V30 19365 H 1835.94 2.95678 -3.17423 0
M  V30 19366 H 1836.61 4.58725 -3.07043 0
M  V30 19367 H 1839.08 3.97039 -1.24496 0
M  V30 19368 H 1837.96 5.35326 -1.21313 0
M  V30 19369 H 1838.22 4.41403 0.248104 0
M  V30 19370 N 1837.28 0.834353 1.33702 0
M  V30 19371 C 1838.51 0.441228 2.02141 0
M  V30 19372 C 1838.92 -0.956226 1.62794 0
M  V30 19373 O 1838.28 -1.6207 0.839027 0
M  V30 19374 C 1838.33 0.547035 3.57337 0
M  V30 19375 O 1838.05 1.88942 3.95262 0
M  V30 19376 C 1839.55 0.150282 4.43045 0
M  V30 19377 H 1836.77 0.175681 0.647593 0
M  V30 19378 H 1839.32 1.12568 1.7073 0
M  V30 19379 H 1837.47 -0.0894532 3.87297 0
M  V30 19380 H 1837.88 1.87174 4.89965 0
M  V30 19381 H 1839.36 0.275374 5.51313 0
M  V30 19382 H 1839.84 -0.907361 4.29725 0
M  V30 19383 H 1840.44 0.761025 4.18436 0
M  V30 19384 N 1838.76 -1.46125 0.590367 0
M  V30 19385 C 1839.71 -2.27441 -0.159552 0
M  V30 19386 C 1840.69 -1.3632 -0.854728 0
M  V30 19387 O 1841.88 -1.60439 -0.74756 0
M  V30 19388 C 1839.01 -3.22834 -1.16761 0
M  V30 19389 C 1838.1 -4.21441 -0.474153 0
M  V30 19390 N 1838.49 -5.03569 0.474569 0
M  V30 19391 C 1836.79 -4.40086 -0.723925 0
M  V30 19392 C 1837.49 -5.74996 0.880574 0
M  V30 19393 N 1836.46 -5.43121 0.228047 0
M  V30 19394 H 1840.27 -2.88332 0.569375 0
M  V30 19395 H 1837.78 -1.57068 0.412732 0
M  V30 19396 H 1839.78 -3.79806 -1.7191 0
M  V30 19397 H 1838.44 -2.63503 -1.89727 0
M  V30 19398 H 1839.45 -5.10869 0.850477 0
M  V30 19399 H 1836.12 -3.91896 -1.43958 0
M  V30 19400 H 1837.51 -6.51018 1.66207 0
M  V30 19401 N 1840.23 -0.328564 -1.54137 0
M  V30 19402 C 1841.46 0.277044 -2.05541 0
M  V30 19403 C 1841.88 1.44613 -1.20285 0
M  V30 19404 O 1841.24 1.80043 -0.213107 0
M  V30 19405 C 1841.29 0.684495 -3.54044 0
M  V30 19406 O 1840.39 1.78629 -3.71706 0
M  V30 19407 H 1839.74 0.049078 -0.662184 0
M  V30 19408 H 1842.27 -0.478426 -1.98928 0
M  V30 19409 H 1842.28 0.965784 -3.96405 0
M  V30 19410 H 1840.95 -0.170554 -4.1555 0
M  V30 19411 H 1839.53 1.50343 -3.4125 0
M  V30 19412 N 1841.71 1.57497 -0.0568439 0
M  V30 19413 C 1842.96 1.92533 0.614452 0
M  V30 19414 C 1843.28 0.936373 1.71047 0
M  V30 19415 O 1842.55 -0.0178803 1.95892 0
M  V30 19416 H 1841.13 0.710724 0.229958 0
M  V30 19417 H 1843.79 1.94583 -0.111181 0
M  V30 19418 H 1842.89 2.93928 1.04941 0
M  V30 19419 N 1843.19 -0.216591 1.56105 0
M  V30 19420 C 1844.47 -0.964874 1.70146 0
M  V30 19421 C 1844.85 -2.02229 0.605524 0
M  V30 19422 O 1844.2 -2.25203 -0.386742 0
M  V30 19423 C 1844.41 -1.57082 3.11651 0
M  V30 19424 C 1845.75 -2.06118 3.71215 0
M  V30 19425 O 1846.78 -1.66966 3.14644 0
M  V30 19426 O 1845.64 -2.78095 4.70452 0
M  V30 19427 H 1842.73 -0.451047 0.693171 0
M  V30 19428 H 1845.28 -0.207982 1.68421 0
M  V30 19429 H 1844.05 -0.80754 3.82877 0
M  V30 19430 H 1843.67 -2.39312 3.17515 0
M  V30 19431 N 1844.67 -1.5 -0.48349 0
M  V30 19432 C 1845.6 -1.70879 -1.5913 0
M  V30 19433 C 1846.58 -0.557606 -1.60701 0
M  V30 19434 O 1847.76 -0.79539 -1.77164 0
M  V30 19435 C 1844.89 -1.7915 -2.97527 0
M  V30 19436 C 1843.85 -2.94233 -3.10823 0
M  V30 19437 C 1843.17 -2.87634 -4.50745 0
M  V30 19438 C 1844.47 -4.34925 -2.89202 0
M  V30 19439 H 1846.17 -2.63632 -1.41911 0
M  V30 19440 H 1843.71 -1.26865 -0.68127 0
M  V30 19441 H 1845.67 -1.92342 -3.74943 0
M  V30 19442 H 1844.39 -0.830106 -3.15875 0
M  V30 19443 H 1843.05 -2.80672 -2.35837 0
M  V30 19444 H 1842.7 -1.89365 -4.65993 0
M  V30 19445 H 1842.4 -3.64885 -4.60579 0
M  V30 19446 H 1843.92 -3.02857 -5.30198 0
M  V30 19447 H 1845.34 -4.49076 -3.56376 0
M  V30 19448 H 1843.73 -5.13531 -3.10492 0
M  V30 19449 H 1844.8 -4.48154 -1.85165 0
M  V30 19450 N 1846.15 0.735796 -1.39369 0
M  V30 19451 C 1847.37 1.53013 -1.40007 0
M  V30 19452 C 1847.8 1.881 0.00368376 0
M  V30 19453 O 1847.15 1.51853 0.990469 0
M  V30 19454 C 1847.2 2.79474 -2.27874 0
M  V30 19455 O 1846.31 3.75364 -1.70808 0
M  V30 19456 H 1845.65 0.462117 -0.476806 0
M  V30 19457 H 1848.18 0.907868 -1.83355 0
M  V30 19458 H 1848.19 3.28217 -2.42358 0
M  V30 19459 H 1846.86 2.53268 -3.29891 0
M  V30 19460 H 1845.44 3.34131 -1.65562 0
M  V30 19461 N 1847.63 1.24532 0.965897 0
M  V30 19462 C 1848.57 1.03699 2.08205 0
M  V30 19463 C 1849.57 -0.0286308 1.69376 0
M  V30 19464 O 1850.77 0.126073 1.79558 0
M  V30 19465 H 1847.15 0.318331 0.6813 0
M  V30 19466 H 1849.12 1.98348 2.22937 0
M  V30 19467 C 1847.87 0.660411 3.41371 0
M  V30 19468 H 1847.19 1.47216 3.71709 0
M  V30 19469 H 1848.63 0.554264 4.20362 0
M  V30 19470 C 1847.09 -0.632633 3.30907 0
M  V30 19471 O 1847.62 -1.67786 3.6498 0
M  V30 19472 N 1845.83 -0.61403 2.84039 0
M  V30 19473 H 1845.37 0.236909 2.56508 0
M  V30 19474 H 1845.33 -1.47938 2.7742 0
M  V30 19475 N 1849.1 -1.16685 1.05936 0
M  V30 19476 C 1850.05 -2.20953 0.66695 0
M  V30 19477 C 1851.02 -1.62694 -0.334621 0
M  V30 19478 O 1852.21 -1.89477 -0.22433 0
M  V30 19479 C 1849.35 -3.45055 0.0557459 0
M  V30 19480 C 1848.46 -4.17574 1.10706 0
M  V30 19481 C 1847.59 -5.29184 0.462377 0
M  V30 19482 C 1846.63 -5.935 1.49748 0
M  V30 19483 N 1845.77 -6.96608 0.876416 0
M  V30 19484 H 1850.61 -2.53872 1.56054 0
M  V30 19485 H 1848.15 -1.24697 0.780321 0
M  V30 19486 H 1850.1 -4.16001 -0.316125 0
M  V30 19487 H 1848.73 -3.12697 -0.801265 0
M  V30 19488 H 1847.79 -3.45269 1.59668 0
M  V30 19489 H 1849.1 -4.61505 1.89248 0
M  V30 19490 H 1848.25 -6.06689 0.0373376 0
M  V30 19491 H 1846.99 -4.86407 -0.354955 0
M  V30 19492 H 1846 -5.1472 1.93245 0
M  V30 19493 H 1847.22 -6.38357 2.31684 0
M  V30 19494 H 1845.17 -6.55952 0.0797299 0
M  V30 19495 H 1845.08 -7.38891 1.59927 0
M  V30 19496 H 1846.35 -7.78043 0.4764 0
M  V30 19497 N 1850.58 -0.841432 -1.33258 0
M  V30 19498 C 1851.83 -0.439027 -1.97991 0
M  V30 19499 C 1852.16 0.999767 -1.66488 0
M  V30 19500 O 1851.44 1.69938 -0.94612 0
M  V30 19501 C 1851.72 -0.663137 -3.53941 0
M  V30 19502 C 1851.57 -2.14939 -3.95122 0
M  V30 19503 C 1852.89 -0.11094 -4.3996 0
M  V30 19504 H 1850.01 -0.160987 -0.719203 0
M  V30 19505 H 1852.65 -1.05742 -1.57856 0
M  V30 19506 H 1850.8 -0.136765 -3.88259 0
M  V30 19507 H 1852.47 -2.74082 -3.71048 0
M  V30 19508 H 1850.72 -2.63293 -3.4476 0
M  V30 19509 H 1851.39 -2.25694 -5.03752 0
M  V30 19510 H 1853.86 -0.560898 -4.12302 0
M  V30 19511 H 1852.74 -0.297416 -5.48094 0
M  V30 19512 H 1853 0.985446 -4.30977 0
M  V30 19513 N 1852.06 1.4581 -0.598108 0
M  V30 19514 C 1853.29 2.06679 -0.0956921 0
M  V30 19515 C 1853.7 1.44435 1.2159 0
M  V30 19516 O 1853.06 0.555104 1.73853 0
M  V30 19517 C 1853.11 3.61449 0.0604873 0
M  V30 19518 O 1852.83 4.21368 -1.1992 0
M  V30 19519 C 1854.33 4.39282 0.595466 0
M  V30 19520 H 1851.55 0.667893 -0.0644954 0
M  V30 19521 H 1854.1 1.87202 -0.823151 0
M  V30 19522 H 1852.25 3.80301 0.738231 0
M  V30 19523 H 1852.67 5.1443 -1.02282 0
M  V30 19524 H 1854.14 5.48114 0.653868 0
M  V30 19525 H 1854.62 4.084 1.61575 0
M  V30 19526 H 1855.22 4.25273 -0.0479171 0
M  V30 19527 N 1853.54 0.336733 1.53961 0
M  V30 19528 C 1854.5 -0.510638 2.23439 0
M  V30 19529 C 1855.5 -1.03304 1.23227 0
M  V30 19530 O 1856.69 -0.923373 1.47714 0
M  V30 19531 C 1853.82 -1.71063 2.94873 0
M  V30 19532 H 1855.02 0.0969205 2.99743 0
M  V30 19533 H 1852.57 0.0879867 1.56052 0
M  V30 19534 H 1853.3 -2.35707 2.22739 0
M  V30 19535 H 1853.09 -1.34331 3.68371 0
M  V30 19536 H 1854.58 -2.31182 3.47771 0
M  V30 19537 N 1855.02 -1.57465 0.0651956 0
M  V30 19538 C 1855.93 -2.15841 -0.919235 0
M  V30 19539 C 1856.94 -1.11984 -1.33175 0
M  V30 19540 O 1858.12 -1.44219 -1.4058 0
M  V30 19541 C 1855.18 -2.7032 -2.1709 0
M  V30 19542 C 1854.24 -3.89026 -1.81542 0
M  V30 19543 C 1853.48 -4.40897 -3.00742 0
M  V30 19544 O 1853.7 -3.91792 -4.14555 0
M  V30 19545 O 1852.63 -5.32312 -2.80941 0
M  V30 19546 H 1856.46 -3.00307 -0.452704 0
M  V30 19547 H 1854.04 -1.48567 -0.157504 0
M  V30 19548 H 1855.93 -3.05266 -2.90501 0
M  V30 19549 H 1854.6 -1.88917 -2.62854 0
M  V30 19550 H 1853.51 -3.58944 -1.05404 0
M  V30 19551 H 1854.84 -4.71701 -1.40567 0
M  V30 19552 N 1856.49 0.20831 -1.56217 0
M  V30 19553 C 1857.72 0.951404 -1.84291 0
M  V30 19554 C 1858.14 1.76616 -0.647168 0
M  V30 19555 O 1857.5 1.7674 0.404081 0
M  V30 19556 C 1857.55 1.83403 -3.10477 0
M  V30 19557 O 1856.65 2.93113 -2.90101 0
M  V30 19558 H 1855.99 0.268668 -0.607218 0
M  V30 19559 H 1858.52 0.217618 -2.03439 0
M  V30 19560 H 1858.53 2.24127 -3.40927 0
M  V30 19561 H 1857.21 1.23528 -3.97132 0
M  V30 19562 H 1855.79 2.5624 -2.70916 0
M  V30 19563 N 1857.97 1.50255 0.475528 0
M  V30 19564 C 1859.39 1.37582 0.808907 0
M  V30 19565 C 1859.59 0.428494 1.96891 0
M  V30 19566 O 1858.64 -0.130513 2.52162 0
M  V30 19567 C 1859.96 2.78856 1.12515 0
M  V30 19568 C 1861.5 2.8774 1.23186 0
M  V30 19569 C 1861.98 4.29838 1.58126 0
M  V30 19570 N 1863.47 4.32767 1.65126 0
M  V30 19571 C 1864.21 5.39708 1.93656 0
M  V30 19572 N 1863.7 6.56862 2.20237 0
M  V30 19573 N 1865.49 5.27147 1.95121 0
M  V30 19574 H 1857.65 2.10425 -0.28901 0
M  V30 19575 H 1859.91 0.945646 -0.0667713 0
M  V30 19576 H 1859.61 3.49995 0.345892 0
M  V30 19577 H 1859.49 3.15822 2.06244 0
M  V30 19578 H 1861.88 2.16823 2.0018 0
M  V30 19579 H 1861.96 2.54323 0.274475 0
M  V30 19580 H 1861.6 5.0129 0.816737 0
M  V30 19581 H 1861.53 4.60737 2.55007 0
M  V30 19582 H 1864.02 3.48288 1.46642 0
M  V30 19583 H 1864.33 7.34173 2.41268 0
M  V30 19584 H 1862.68 6.60044 2.17639 0
M  V30 19585 H 1865.87 4.3462 1.73849 0
M  V30 19586 H 1866.04 6.10578 2.17021 0
M  V30 19587 N 1859.45 -0.728395 1.39758 0
M  V30 19588 C 1860.68 -1.5176 1.40629 0
M  V30 19589 C 1861.09 -1.888 0.00253909 0
M  V30 19590 O 1860.45 -1.54561 -0.970428 0
M  V30 19591 C 1860.5 -2.80102 2.28528 0
M  V30 19592 O 1860.22 -2.44633 3.63436 0
M  V30 19593 C 1861.72 -3.74087 2.37853 0
M  V30 19594 H 1858.94 -0.468767 0.480103 0
M  V30 19595 H 1861.49 -0.89953 1.83654 0
M  V30 19596 H 1859.64 -3.38225 1.88898 0
M  V30 19597 H 1860.06 -3.27124 4.09988 0
M  V30 19598 H 1861.53 -4.61017 3.03591 0
M  V30 19599 H 1862.01 -4.163 1.39968 0
M  V30 19600 H 1862.61 -3.2188 2.7798 0
M  V30 19601 N 1860.93 -1.25042 -0.959279 0
M  V30 19602 C 1861.89 -1.05107 -2.03679 0
M  V30 19603 C 1862.89 -0.0054691 -1.60799 0
M  V30 19604 O 1864.08 -0.247225 -1.72437 0
M  V30 19605 C 1861.21 -0.594881 -3.35669 0
M  V30 19606 H 1862.41 -2.00753 -2.22796 0
M  V30 19607 H 1859.96 -1.07384 -1.13571 0
M  V30 19608 H 1860.69 0.364387 -3.22246 0
M  V30 19609 H 1860.48 -1.34966 -3.68139 0
M  V30 19610 H 1861.97 -0.476698 -4.1487 0
M  V30 19611 N 1862.41 1.16121 -1.06553 0
M  V30 19612 C 1863.82 1.68319 -0.807804 0
M  V30 19613 C 1864.17 1.8447 0.668234 0
M  V30 19614 O 1863.29 1.54215 1.51811 0
M  V30 19615 C 1863.89 3.05738 -1.45979 0
M  V30 19616 C 1862.45 3.55046 -1.24977 0
M  V30 19617 C 1861.59 2.30965 -1.53462 0
M  V30 19618 H 1864.55 1.00447 -1.22866 0
M  V30 19619 H 1864.57 3.70266 -0.876556 0
M  V30 19620 H 1864.08 2.93951 -2.53405 0
M  V30 19621 H 1862.18 3.72087 -0.195367 0
M  V30 19622 H 1862.29 4.36979 -1.96433 0
M  V30 19623 H 1860.66 2.36107 -0.955268 0
M  V30 19624 H 1861.44 2.21773 -2.62052 0
M  V30 19625 N 1863.88 0.848487 1.3281 0
M  V30 19626 C 1865.11 0.46174 2.02195 0
M  V30 19627 C 1865.53 -0.932159 1.63378 0
M  V30 19628 O 1864.89 -1.6112 0.831266 0
M  V30 19629 C 1864.94 0.601234 3.55552 0
M  V30 19630 O 1864.04 -0.368549 4.1075 0
M  V30 19631 H 1863.39 0.186379 0.637306 0
M  V30 19632 H 1865.92 1.14598 1.69495 0
M  V30 19633 H 1865.93 0.486456 4.0509 0
M  V30 19634 H 1864.6 1.61773 3.83148 0
M  V30 19635 H 1863.18 -0.210525 3.72305 0
M  V30 19636 N 1865.36 -1.4549 0.605832 0
M  V30 19637 C 1866.77 -1.85775 0.18559 0
M  V30 19638 C 1867.12 -1.50638 -1.25708 0
M  V30 19639 O 1866.25 -0.932227 -1.95291 0
M  V30 19640 C 1866.84 -3.37189 0.330043 0
M  V30 19641 C 1865.4 -3.76383 -0.0354934 0
M  V30 19642 C 1864.55 -2.69446 0.655297 0
M  V30 19643 H 1867.5 -1.36316 0.812624 0
M  V30 19644 H 1867.52 -3.77968 -0.438236 0
M  V30 19645 H 1867.03 -3.62731 1.38014 0
M  V30 19646 H 1865.14 -3.56458 -1.08483 0
M  V30 19647 H 1865.25 -4.77769 0.356935 0
M  V30 19648 H 1863.61 -2.5453 0.0931235 0
M  V30 19649 H 1864.4 -2.97825 1.70749 0
M  V30 19650 N 1866.84 -0.344893 -1.5378 0
M  V30 19651 C 1868.25 0.138727 -1.86184 0
M  V30 19652 C 1868.6 1.49882 -1.26609 0
M  V30 19653 O 1867.73 2.08478 -0.580174 0
M  V30 19654 C 1868.32 0.258502 -3.37812 0
M  V30 19655 C 1866.88 0.686356 -3.70089 0
M  V30 19656 C 1866.03 -0.179085 -2.76721 0
M  V30 19657 H 1868.98 -0.564442 -1.48323 0
M  V30 19658 H 1869 1.08576 -3.6468 0
M  V30 19659 H 1868.51 -0.731538 -3.81143 0
M  V30 19660 H 1866.61 1.68537 -3.32304 0
M  V30 19661 H 1866.73 0.475315 -4.76736 0
M  V30 19662 H 1865.09 0.348791 -2.523 0
M  V30 19663 H 1865.87 -1.16628 -3.22882 0
M  V30 19664 N 1868.32 1.57428 -0.0735454 0
M  V30 19665 C 1869.54 1.98301 0.607591 0
M  V30 19666 C 1869.97 0.951686 1.62248 0
M  V30 19667 O 1869.33 -0.0825008 1.81112 0
M  V30 19668 C 1869.37 3.38201 1.2511 0
M  V30 19669 O 1868.48 3.37711 2.36696 0
M  V30 19670 H 1867.82 0.64539 0.156104 0
M  V30 19671 H 1870.35 2.0406 -0.148578 0
M  V30 19672 H 1870.36 3.75424 1.59753 0
M  V30 19673 H 1869.03 4.12793 0.50745 0
M  V30 19674 H 1867.61 3.1226 2.03833 0
M  V30 19675 N 1869.8 -0.200022 1.56326 0
M  V30 19676 C 1870.73 -1.25071 1.97179 0
M  V30 19677 C 1871.71 -1.4774 0.84303 0
M  V30 19678 O 1872.89 -1.5956 1.10699 0
M  V30 19679 C 1870.02 -2.596 2.30706 0
M  V30 19680 C 1868.98 -2.51552 3.46274 0
M  V30 19681 C 1868.3 -3.90309 3.65463 0
M  V30 19682 C 1869.6 -2.0448 4.80609 0
M  V30 19683 H 1871.3 -0.911238 2.85196 0
M  V30 19684 H 1868.84 -0.436899 1.37212 0
M  V30 19685 H 1870.8 -3.33281 2.5788 0
M  V30 19686 H 1869.52 -2.95278 1.39565 0
M  V30 19687 H 1868.18 -1.80327 3.19183 0
M  V30 19688 H 1867.83 -4.23331 2.71662 0
M  V30 19689 H 1867.53 -3.858 4.43207 0
M  V30 19690 H 1869.05 -4.65619 3.95008 0
M  V30 19691 H 1870.46 -2.67917 5.06847 0
M  V30 19692 H 1868.86 -2.10985 5.61788 0
M  V30 19693 H 1869.93 -0.997828 4.74522 0
M  V30 19694 N 1871.27 -1.50505 -0.467553 0
M  V30 19695 C 1872.21 -1.64271 -1.58399 0
M  V30 19696 C 1873.19 -0.490745 -1.55018 0
M  V30 19697 O 1874.37 -0.710709 -1.74589 0
M  V30 19698 C 1871.5 -1.62854 -2.96978 0
M  V30 19699 C 1870.54 -2.83654 -3.18501 0
M  V30 19700 S 1871.38 -4.44908 -2.98022 0
M  V30 19701 C 1872.53 -4.4619 -4.38937 0
M  V30 19702 H 1872.76 -2.58708 -1.46484 0
M  V30 19703 H 1870.3 -1.39812 -0.655141 0
M  V30 19704 H 1872.26 -1.62722 -3.76871 0
M  V30 19705 H 1870.92 -0.696465 -3.06281 0
M  V30 19706 H 1870.11 -2.78977 -4.19747 0
M  V30 19707 H 1869.71 -2.81371 -2.46386 0
M  V30 19708 H 1872 -4.1997 -5.31631 0
M  V30 19709 H 1872.95 -5.47826 -4.48656 0
M  V30 19710 H 1873.35 -3.75855 -4.21181 0
M  V30 19711 N 1872.75 0.720973 -1.40142 0
M  V30 19712 C 1873.98 1.51519 -1.41622 0
M  V30 19713 C 1874.4 1.88093 -0.0162669 0
M  V30 19714 O 1873.76 1.52895 0.974307 0
M  V30 19715 C 1873.81 2.77041 -2.30826 0
M  V30 19716 O 1872.91 3.73532 -1.74779 0
M  V30 19717 H 1872.25 0.457034 -0.481681 0
M  V30 19718 H 1874.78 0.88837 -1.84307 0
M  V30 19719 H 1874.79 3.25628 -2.45826 0
M  V30 19720 H 1873.47 2.49755 -3.32558 0
M  V30 19721 H 1872.05 3.32356 -1.69097 0
M  V30 19722 N 1874.23 1.25549 0.952634 0
M  V30 19723 C 1875.48 1.10416 1.69748 0
M  V30 19724 C 1875.81 -0.354517 1.91242 0
M  V30 19725 O 1875.06 -1.27756 1.48246 0
M  V30 19726 C 1875.36 1.80586 3.08421 0
M  V30 19727 C 1875.03 3.30504 3.06721 0
M  V30 19728 C 1873.69 3.71402 3.05965 0
M  V30 19729 C 1876.04 4.26275 2.99898 0
M  V30 19730 C 1873.37 5.06478 2.96137 0
M  V30 19731 C 1875.72 5.61378 2.91612 0
M  V30 19732 C 1874.38 6.01601 2.89192 0
M  V30 19733 H 1873.65 0.404041 0.621154 0
M  V30 19734 H 1876.3 1.55848 1.11283 0
M  V30 19735 H 1874.61 1.27592 3.70442 0
M  V30 19736 H 1876.3 1.66328 3.64878 0
M  V30 19737 H 1872.89 2.97965 3.08083 0
M  V30 19738 H 1877.08 3.95669 2.996 0
M  V30 19739 H 1872.33 5.3682 2.92633 0
M  V30 19740 H 1876.51 6.3528 2.85294 0
M  V30 19741 H 1874.13 7.06227 2.81333 0
M  V30 19742 N 1875.71 -1.15554 1.07168 0
M  V30 19743 C 1876.67 -2.18431 0.694305 0
M  V30 19744 C 1877.67 -1.5861 -0.264497 0
M  V30 19745 O 1878.86 -1.7414 -0.0457035 0
M  V30 19746 C 1875.99 -3.40892 0.0230473 0
M  V30 19747 H 1877.19 -2.53331 1.60511 0
M  V30 19748 H 1874.74 -1.29984 0.867982 0
M  V30 19749 H 1875.47 -3.11559 -0.900083 0
M  V30 19750 H 1875.26 -3.8557 0.712622 0
M  V30 19751 H 1876.75 -4.16986 -0.226392 0
M  V30 19752 N 1877.19 -0.855519 -1.32358 0
M  V30 19753 C 1878.46 -0.380575 -1.91862 0
M  V30 19754 C 1878.84 1.13593 -1.77932 0
M  V30 19755 O 1878.19 1.95797 -1.17796 0
M  V30 19756 C 1878.4 -0.845902 -3.38593 0
M  V30 19757 C 1879.75 -0.863586 -4.15725 0
M  V30 19758 O 1880.77 -0.790597 -3.47315 0
M  V30 19759 O 1879.63 -0.966658 -5.37883 0
M  V30 19760 H 1876.73 -0.111156 -0.819496 0
M  V30 19761 H 1879.27 -0.942476 -1.41122 0
M  V30 19762 H 1878.05 -1.88909 -3.42679 0
M  V30 19763 H 1877.67 -0.2615 -3.96739 0
M  V30 19764 N 1878.67 1.45167 -0.61354 0
M  V30 19765 C 1879.91 2.01407 -0.10861 0
M  V30 19766 C 1880.23 1.48701 1.27072 0
M  V30 19767 O 1881.43 1.96956 1.8687 0
M  V30 19768 C 1879.89 3.59614 -0.143466 0
M  V30 19769 C 1879.5 4.21317 -1.52302 0
M  V30 19770 C 1881.24 4.23396 0.305912 0
M  V30 19771 C 1879.15 5.71694 -1.51393 0
M  V30 19772 H 1878.08 0.7531 -0.0368359 0
M  V30 19773 H 1880.73 1.66575 -0.769748 0
M  V30 19774 H 1879.11 3.91664 0.584438 0
M  V30 19775 H 1880.29 4.00832 -2.2731 0
M  V30 19776 H 1878.6 3.69753 -1.91499 0
M  V30 19777 H 1881.2 5.33668 0.331977 0
M  V30 19778 H 1881.54 3.9449 1.32978 0
M  V30 19779 H 1882.07 3.96086 -0.36892 0
M  V30 19780 H 1878.81 6.05308 -2.5156 0
M  V30 19781 H 1878.33 5.94353 -0.80652 0
M  V30 19782 H 1880.01 6.35003 -1.24017 0
M  V30 19783 N 1880.14 0.353044 1.53595 0
M  V30 19784 C 1881.11 -0.48691 2.23968 0
M  V30 19785 C 1882.11 -1.01991 1.24316 0
M  V30 19786 O 1883.3 -0.907654 1.48685 0
M  V30 19787 C 1880.43 -1.67926 2.96671 0
M  V30 19788 H 1881.62 0.128707 2.99624 0
M  V30 19789 H 1879.17 0.104533 1.5595 0
M  V30 19790 H 1879.91 -2.33331 2.25227 0
M  V30 19791 H 1879.69 -1.30417 3.69776 0
M  V30 19792 H 1881.18 -2.2748 3.50203 0
M  V30 19793 N 1881.62 -1.57387 0.0818932 0
M  V30 19794 C 1882.57 -2.14508 -0.899386 0
M  V30 19795 C 1883.56 -1.08453 -1.30132 0
M  V30 19796 O 1884.77 -1.26818 -1.27739 0
M  V30 19797 H 1881.14 -0.686024 -0.308018 0
M  V30 19798 H 1883.12 -2.95804 -0.392786 0
M  V30 19799 C 1881.86 -2.72963 -2.15375 0
M  V30 19800 H 1881.19 -3.54248 -1.85333 0
M  V30 19801 H 1882.63 -3.16515 -2.82125 0
M  V30 19802 C 1881.09 -1.68212 -2.91901 0
M  V30 19803 O 1881.62 -1.11314 -3.85969 0
M  V30 19804 N 1879.82 -1.3901 -2.55195 0
M  V30 19805 H 1879.37 -1.85468 -1.78771 0
M  V30 19806 H 1879.33 -0.691582 -3.06699 0
M  V30 19807 N 1883.1 0.191729 -1.56429 0
M  V30 19808 C 1884.33 0.927708 -1.84936 0
M  V30 19809 C 1884.74 1.76708 -0.664809 0
M  V30 19810 O 1884.1 1.78783 0.366436 0
M  V30 19811 C 1884.15 1.82113 -3.12277 0
M  V30 19812 O 1883.87 1.01564 -4.26165 0
M  V30 19813 C 1885.37 2.6685 -3.53986 0
M  V30 19814 H 1882.59 0.270514 -0.614055 0
M  V30 19815 H 1885.14 0.197968 -2.0354 0
M  V30 19816 H 1883.29 2.50445 -2.9556 0
M  V30 19817 H 1883.71 1.62478 -4.987 0
M  V30 19818 H 1885.18 3.25189 -4.46045 0
M  V30 19819 H 1885.66 3.40725 -2.77134 0
M  V30 19820 H 1886.26 2.03884 -3.73245 0
M  V30 19821 N 1884.58 1.50751 0.459565 0
M  V30 19822 C 1885.8 1.66367 1.23842 0
M  V30 19823 C 1886.23 0.351355 1.84789 0
M  V30 19824 O 1885.59 -0.686103 1.67816 0
M  V30 19825 C 1885.63 2.76521 2.31449 0
M  V30 19826 O 1884.74 2.38576 3.36386 0
M  V30 19827 H 1884.08 0.555447 0.363833 0
M  V30 19828 H 1886.61 1.97193 0.545538 0
M  V30 19829 H 1886.62 2.99943 2.76583 0
M  V30 19830 H 1885.29 3.71759 1.86462 0
M  V30 19831 H 1883.87 2.25643 2.96883 0
M  V30 19832 N 1886.06 -0.713531 1.40522 0
M  V30 19833 C 1886.99 -1.8404 1.43707 0
M  V30 19834 C 1887.97 -1.67474 0.297751 0
M  V30 19835 O 1889.15 -1.87474 0.506662 0
M  V30 19836 C 1886.28 -3.22014 1.30094 0
M  V30 19837 C 1885.24 -3.53255 2.4165 0
M  V30 19838 C 1884.56 -4.90395 2.13113 0
M  V30 19839 C 1885.86 -3.54045 3.83991 0
M  V30 19840 H 1887.56 -1.81632 2.38013 0
M  V30 19841 H 1885.1 -0.872437 1.14562 0
M  V30 19842 H 1887.05 -4.00541 1.30938 0
M  V30 19843 H 1885.78 -3.25002 0.322648 0
M  V30 19844 H 1884.44 -2.77069 2.40059 0
M  V30 19845 H 1884.09 -4.89988 1.13669 0
M  V30 19846 H 1883.79 -5.12264 2.87853 0
M  V30 19847 H 1885.31 -5.71254 2.15642 0
M  V30 19848 H 1886.72 -4.22609 3.87395 0
M  V30 19849 H 1885.12 -3.87441 4.58268 0
M  V30 19850 H 1886.19 -2.53387 4.13428 0
M  V30 19851 N 1887.53 -1.26053 -0.945962 0
M  V30 19852 C 1888.5 -1.07262 -2.02553 0
M  V30 19853 C 1889.5 -0.0225237 -1.60784 0
M  V30 19854 O 1890.69 -0.265501 -1.72165 0
M  V30 19855 C 1887.82 -0.63045 -3.3502 0
M  V30 19856 H 1889.01 -2.03105 -2.20655 0
M  V30 19857 H 1886.56 -1.08582 -1.12426 0
M  V30 19858 H 1887.3 0.330188 -3.22615 0
M  V30 19859 H 1887.08 -1.38863 -3.66687 0
M  V30 19860 H 1888.57 -0.520674 -4.14341 0
M  V30 19861 N 1889.01 1.14984 -1.07779 0
M  V30 19862 C 1890.26 1.85219 -0.798561 0
M  V30 19863 C 1890.57 1.83476 0.677935 0
M  V30 19864 O 1891.78 2.49436 1.0721 0
M  V30 19865 C 1890.24 3.32454 -1.37849 0
M  V30 19866 C 1889.84 3.42631 -2.88631 0
M  V30 19867 C 1891.59 4.07843 -1.17747 0
M  V30 19868 C 1889.49 4.8404 -3.39794 0
M  V30 19869 H 1888.42 0.693872 -0.295054 0
M  V30 19870 H 1891.08 1.29668 -1.2984 0
M  V30 19871 H 1889.46 3.87703 -0.806374 0
M  V30 19872 H 1890.63 2.97466 -3.51925 0
M  V30 19873 H 1888.95 2.80691 -3.07573 0
M  V30 19874 H 1891.54 5.1221 -1.53444 0
M  V30 19875 H 1891.89 4.16136 -0.116815 0
M  V30 19876 H 1892.42 3.58876 -1.71618 0
M  V30 19877 H 1889.16 4.80932 -4.45404 0
M  V30 19878 H 1888.68 5.29769 -2.81256 0
M  V30 19879 H 1890.36 5.5291 -3.36005 0
M  V30 19880 N 1890.49 0.862526 1.31902 0
M  V30 19881 C 1891.72 0.484006 2.01159 0
M  V30 19882 C 1892.13 -0.92148 1.64785 0
M  V30 19883 O 1891.49 -1.60254 0.873216 0
M  V30 19884 C 1891.54 0.622709 3.56096 0
M  V30 19885 O 1891.26 1.97284 3.91166 0
M  V30 19886 C 1892.76 0.244225 4.42627 0
M  V30 19887 H 1889.98 0.189378 0.643721 0
M  V30 19888 H 1892.53 1.16164 1.68304 0
M  V30 19889 H 1890.68 -0.00728166 3.87399 0
M  V30 19890 H 1891.1 1.97525 4.85885 0
M  V30 19891 H 1892.57 0.392254 5.50605 0
M  V30 19892 H 1893.05 -0.816006 4.31553 0
M  V30 19893 H 1893.65 0.84961 4.16727 0
M  V30 19894 N 1891.97 -1.4484 0.62123 0
M  V30 19895 C 1893.21 -2.02981 0.130446 0
M  V30 19896 C 1893.57 -1.47918 -1.23036 0
M  V30 19897 O 1892.86 -0.649739 -1.80247 0
M  V30 19898 C 1893.06 -3.57369 0.0470922 0
M  V30 19899 C 1892.89 -4.27409 1.39827 0
M  V30 19900 C 1891.66 -4.64785 1.98251 0
M  V30 19901 C 1893.85 -4.58492 2.33 0
M  V30 19902 N 1891.84 -5.19746 3.26707 0
M  V30 19903 C 1893.21 -5.14431 3.46064 0
M  V30 19904 C 1895.26 -4.40439 2.32203 0
M  V30 19905 C 1893.96 -5.54218 4.58514 0
M  V30 19906 C 1895.99 -4.81267 3.43709 0
M  V30 19907 C 1895.35 -5.37311 4.55496 0
M  V30 19908 H 1891.45 -0.776638 0.0914226 0
M  V30 19909 H 1894.04 -1.76471 0.822563 0
M  V30 19910 H 1892.21 -3.83512 -0.61428 0
M  V30 19911 H 1893.94 -4.02172 -0.451606 0
M  V30 19912 H 1890.69 -4.48781 1.51304 0
M  V30 19913 H 1891.12 -5.51712 3.92356 0
M  V30 19914 H 1895.76 -3.96411 1.47031 0
M  V30 19915 H 1893.48 -5.97205 5.44401 0
M  V30 19916 H 1897.06 -4.69019 3.44256 0
M  V30 19917 H 1895.94 -5.68321 5.40353 0
M  V30 19918 N 1893.45 -0.361184 -1.53405 0
M  V30 19919 C 1894.39 0.487369 -2.25596 0
M  V30 19920 C 1895.36 1.08114 -1.26097 0
M  V30 19921 O 1896.55 1.11446 -1.54869 0
M  V30 19922 C 1893.69 1.62342 -3.04531 0
M  V30 19923 C 1892.8 1.05525 -4.18914 0
M  V30 19924 C 1891.94 2.16004 -4.853 0
M  V30 19925 C 1890.98 1.5663 -5.91721 0
M  V30 19926 N 1890.11 2.60923 -6.51816 0
M  V30 19927 H 1894.95 -0.134748 -2.97695 0
M  V30 19928 H 1892.49 -0.0782688 -1.46892 0
M  V30 19929 H 1894.45 2.29252 -3.48568 0
M  V30 19930 H 1893.08 2.21626 -2.34695 0
M  V30 19931 H 1892.13 0.276561 -3.79393 0
M  V30 19932 H 1893.44 0.581111 -4.95403 0
M  V30 19933 H 1892.6 2.90743 -5.32497 0
M  V30 19934 H 1891.33 2.66768 -4.08272 0
M  V30 19935 H 1890.34 0.804031 -5.43889 0
M  V30 19936 H 1891.56 1.06696 -6.70666 0
M  V30 19937 H 1889.51 3.10909 -5.77643 0
M  V30 19938 H 1889.43 2.18184 -7.23831 0
M  V30 19939 H 1890.7 3.35378 -7.03663 0
M  V30 19940 N 1894.92 1.57341 -0.0902386 0
M  V30 19941 C 1896.17 1.93793 0.573474 0
M  V30 19942 C 1896.49 0.972444 1.69022 0
M  V30 19943 O 1895.76 0.0236753 1.95886 0
M  V30 19944 H 1894.34 0.715442 0.21483 0
M  V30 19945 H 1897.01 1.94303 -0.15243 0
M  V30 19946 H 1896.1 2.96088 0.986829 0
M  V30 19947 N 1896.4 -0.183431 1.56529 0
M  V30 19948 C 1897.81 -0.747035 1.71103 0
M  V30 19949 C 1898.16 -1.83335 0.698762 0
M  V30 19950 O 1897.29 -2.15931 -0.142414 0
M  V30 19951 C 1897.88 -1.36183 3.10225 0
M  V30 19952 C 1896.44 -1.87239 3.26525 0
M  V30 19953 C 1895.59 -0.746737 2.67056 0
M  V30 19954 H 1898.54 0.0418058 1.58645 0
M  V30 19955 H 1898.56 -2.2314 3.08203 0
M  V30 19956 H 1898.07 -0.570966 3.83877 0
M  V30 19957 H 1896.18 -2.69008 2.57809 0
M  V30 19958 H 1896.29 -2.02616 4.34147 0
M  V30 19959 H 1894.65 -1.16406 2.26543 0
M  V30 19960 H 1895.44 0.0320833 3.43285 0
M  V30 19961 N 1897.88 -1.50992 -0.451564 0
M  V30 19962 C 1899.29 -1.55592 -1.03189 0
M  V30 19963 C 1899.64 -0.370923 -1.92662 0
M  V30 19964 O 1898.77 0.513972 -2.10208 0
M  V30 19965 C 1899.36 -2.81975 -1.87818 0
M  V30 19966 C 1897.92 -2.89192 -2.40925 0
M  V30 19967 C 1897.07 -2.50103 -1.19766 0
M  V30 19968 H 1900.02 -1.56974 -0.233388 0
M  V30 19969 H 1900.04 -2.64934 -2.73112 0
M  V30 19970 H 1899.55 -3.68203 -1.22672 0
M  V30 19971 H 1897.65 -2.07362 -3.09567 0
M  V30 19972 H 1897.77 -3.92529 -2.74696 0
M  V30 19973 H 1896.13 -2.02978 -1.53857 0
M  V30 19974 H 1896.91 -3.3866 -0.562517 0
M  V30 19975 N 1899.36 0.706069 -1.40899 0
M  V30 19976 C 1900.64 1.45984 -1.30185 0
M  V30 19977 C 1901.02 2.10965 0.0754423 0
M  V30 19978 O 1900.36 2.00883 1.08896 0
M  V30 19979 C 1900.57 2.48782 -2.44762 0
M  V30 19980 C 1901.92 3.14339 -2.85441 0
M  V30 19981 O 1902.95 2.59104 -2.44425 0
M  V30 19982 O 1901.8 4.14354 -3.56333 0
M  V30 19983 H 1898.9 0.649628 -0.511774 0
M  V30 19984 H 1901.44 0.737436 -1.5284 0
M  V30 19985 H 1900.22 1.99346 -3.36715 0
M  V30 19986 H 1899.84 3.28545 -2.23929 0
M  V30 19987 N 1900.84 1.26553 0.939264 0
M  V30 19988 C 1902.08 1.13385 1.68865 0
M  V30 19989 C 1902.44 -0.319227 1.89733 0
M  V30 19990 O 1901.73 -1.23093 1.46829 0
M  V30 19991 C 1901.92 1.83848 3.06488 0
M  V30 19992 C 1901.75 3.35858 2.99048 0
M  V30 19993 C 1900.52 4.05152 3.0196 0
M  V30 19994 C 1902.72 4.3202 2.7904 0
M  V30 19995 N 1900.7 5.4382 2.84839 0
M  V30 19996 C 1902.07 5.57876 2.70508 0
M  V30 19997 C 1904.13 4.22248 2.63838 0
M  V30 19998 C 1902.83 6.75076 2.48325 0
M  V30 19999 C 1904.86 5.39157 2.4303 0
M  V30 20000 C 1904.22 6.63962 2.35231 0
M  V30 20001 H 1900.32 0.469707 0.62522 0
M  V30 20002 H 1902.9 1.59865 1.11136 0
M  V30 20003 H 1901.07 1.3984 3.62353 0
M  V30 20004 H 1902.81 1.63286 3.70297 0
M  V30 20005 H 1899.56 3.56528 3.11745 0
M  V30 20006 H 1899.99 6.16638 2.7944 0
M  V30 20007 H 1904.63 3.2649 2.68634 0
M  V30 20008 H 1902.35 7.70929 2.4227 0
M  V30 20009 H 1905.93 5.33468 2.3217 0
M  V30 20010 H 1904.81 7.529 2.19344 0
M  V30 20011 N 1902.31 -1.14411 1.08387 0
M  V30 20012 C 1903.54 -1.89307 0.834895 0
M  V30 20013 C 1903.96 -1.78574 -0.612923 0
M  V30 20014 O 1903.31 -1.14494 -1.42118 0
M  V30 20015 C 1903.37 -3.39289 1.24761 0
M  V30 20016 O 1903.09 -3.49725 2.63863 0
M  V30 20017 C 1904.59 -4.31181 1.02947 0
M  V30 20018 H 1901.81 -0.599644 0.301112 0
M  V30 20019 H 1904.35 -1.44897 1.44309 0
M  V30 20020 H 1902.51 -3.81322 0.683524 0
M  V30 20021 H 1902.92 -4.42884 2.80988 0
M  V30 20022 H 1904.39 -5.34789 1.36763 0
M  V30 20023 H 1904.87 -4.39187 -0.0335224 0
M  V30 20024 H 1905.48 -3.94903 1.57898 0
M  V30 20025 N 1903.79 -0.869509 -1.31443 0
M  V30 20026 C 1905.07 -0.400903 -1.91447 0
M  V30 20027 C 1905.45 1.117 -1.79127 0
M  V30 20028 O 1904.8 1.94536 -1.19866 0
M  V30 20029 C 1905.01 -0.881767 -3.37677 0
M  V30 20030 C 1906.36 -0.90763 -4.14786 0
M  V30 20031 O 1907.38 -0.82739 -3.46457 0
M  V30 20032 O 1906.24 -1.02365 -5.36827 0
M  V30 20033 H 1903.33 -0.119842 -0.818271 0
M  V30 20034 H 1905.88 -0.957391 -1.40115 0
M  V30 20035 H 1904.65 -1.92533 -3.40657 0
M  V30 20036 H 1904.27 -0.303565 -3.96439 0
M  V30 20037 N 1905.27 1.44508 -0.628902 0
M  V30 20038 C 1906.5 2.0613 -0.139308 0
M  V30 20039 C 1906.91 1.47055 1.19044 0
M  V30 20040 O 1906.25 0.587051 1.74067 0
M  V30 20041 C 1906.31 3.59462 0.0521977 0
M  V30 20042 C 1905.98 4.4099 -1.19904 0
M  V30 20043 C 1906.97 4.74613 -2.12222 0
M  V30 20044 C 1904.66 4.81401 -1.43383 0
M  V30 20045 C 1906.65 5.47528 -3.26332 0
M  V30 20046 C 1904.34 5.54065 -2.5779 0
M  V30 20047 C 1905.34 5.87047 -3.49091 0
M  V30 20048 O 1905.03 6.58233 -4.61503 0
M  V30 20049 H 1904.76 0.671728 -0.0758762 0
M  V30 20050 H 1907.31 1.86402 -0.862745 0
M  V30 20051 H 1905.54 3.77671 0.830756 0
M  V30 20052 H 1907.23 4.02857 0.496066 0
M  V30 20053 H 1908 4.43933 -1.95316 0
M  V30 20054 H 1903.88 4.5515 -0.73209 0
M  V30 20055 H 1907.42 5.7319 -3.97617 0
M  V30 20056 H 1903.32 5.8416 -2.7464 0
M  V30 20057 H 1904.09 6.767 -4.60456 0
M  V30 20058 N 1906.75 0.369315 1.53212 0
M  V30 20059 C 1907.7 -0.490481 2.2737 0
M  V30 20060 C 1908.69 -1.08021 1.30491 0
M  V30 20061 O 1909.9 -1.02298 1.48105 0
M  V30 20062 H 1906.27 -0.176899 0.730897 0
M  V30 20063 H 1908.24 0.156696 2.97988 0
M  V30 20064 C 1906.99 -1.61628 3.0785 0
M  V30 20065 H 1906.32 -1.1718 3.82242 0
M  V30 20066 H 1907.76 -2.19252 3.62911 0
M  V30 20067 C 1906.21 -2.56077 2.18921 0
M  V30 20068 O 1906.74 -3.58988 1.80251 0
M  V30 20069 N 1904.95 -2.25352 1.83479 0
M  V30 20070 H 1904.5 -1.41701 2.15124 0
M  V30 20071 H 1904.46 -2.888 1.24264 0
M  V30 20072 N 1908.23 -1.57291 0.0985816 0
M  V30 20073 C 1909.5 -1.85951 -0.606759 0
M  V30 20074 C 1909.88 -0.996077 -1.86122 0
M  V30 20075 O 1909.23 -0.0694281 -2.28394 0
M  V30 20076 C 1909.44 -3.36688 -0.918803 0
M  V30 20077 C 1910.79 -4.04824 -1.28074 0
M  V30 20078 O 1911.81 -3.41589 -1.00971 0
M  V30 20079 O 1910.67 -5.16406 -1.7885 0
M  V30 20080 H 1907.77 -0.769103 -0.30399 0
M  V30 20081 H 1910.31 -1.69189 0.131543 0
M  V30 20082 H 1909.09 -3.91289 -0.0289848 0
M  V30 20083 H 1908.71 -3.58808 -1.71296 0
M  V30 20084 N 1909.71 0.175127 -1.56624 0
M  V30 20085 C 1910.95 0.892368 -1.81777 0
M  V30 20086 C 1911.28 1.8241 -0.675051 0
M  V30 20087 O 1910.54 1.9276 0.337944 0
M  V30 20088 C 1910.83 1.72397 -3.13072 0
M  V30 20089 C 1910.5 0.941494 -4.40961 0
M  V30 20090 C 1909.16 0.725524 -4.75699 0
M  V30 20091 C 1911.51 0.392358 -5.19721 0
M  V30 20092 C 1908.84 -0.0507428 -5.86678 0
M  V30 20093 C 1911.19 -0.370801 -6.31512 0
M  V30 20094 C 1909.86 -0.597606 -6.64819 0
M  V30 20095 H 1909.13 0.326541 -0.665171 0
M  V30 20096 H 1911.78 0.157524 -1.90851 0
M  V30 20097 H 1910.08 2.52809 -2.99324 0
M  V30 20098 H 1911.78 2.28189 -3.29743 0
M  V30 20099 H 1908.37 1.11986 -4.13711 0
M  V30 20100 H 1912.55 0.546561 -4.93281 0
M  V30 20101 H 1907.81 -0.236241 -6.10943 0
M  V30 20102 H 1911.98 -0.803585 -6.91748 0
M  V30 20103 H 1909.61 -1.201 -7.50653 0
M  V30 20104 N 1911.18 1.5123 0.44355 0
M  V30 20105 C 1912.09 1.74928 1.56324 0
M  V30 20106 C 1913.11 0.633267 1.62067 0
M  V30 20107 O 1914.29 0.914808 1.79425 0
M  V30 20108 C 1911.35 1.86361 2.92354 0
M  V30 20109 C 1910.41 3.10196 2.96778 0
M  V30 20110 C 1909.64 3.21073 4.26319 0
M  V30 20111 O 1909.87 2.38043 5.18355 0
M  V30 20112 O 1908.8 4.14008 4.369 0
M  V30 20113 H 1912.63 2.69898 1.39243 0
M  V30 20114 H 1910.21 1.35656 0.62592 0
M  V30 20115 H 1912.09 1.95901 3.73096 0
M  V30 20116 H 1910.77 0.945775 3.09575 0
M  V30 20117 H 1909.68 3.06138 2.15013 0
M  V30 20118 H 1911.01 4.01648 2.84499 0
M  V30 20119 N 1912.66 -0.698586 1.41271 0
M  V30 20120 C 1913.59 -1.82505 1.4565 0
M  V30 20121 C 1914.57 -1.67149 0.315497 0
M  V30 20122 O 1915.76 -1.86926 0.526518 0
M  V30 20123 C 1912.89 -3.20616 1.33502 0
M  V30 20124 C 1911.84 -3.50672 2.45383 0
M  V30 20125 C 1911.17 -4.88107 2.18302 0
M  V30 20126 C 1912.47 -3.49952 3.87725 0
M  V30 20127 H 1914.16 -1.79098 2.39926 0
M  V30 20128 H 1911.71 -0.860237 1.15481 0
M  V30 20129 H 1913.66 -3.9913 1.35179 0
M  V30 20130 H 1912.38 -3.24642 0.357101 0
M  V30 20131 H 1911.04 -2.74507 2.42984 0
M  V30 20132 H 1910.69 -4.88755 1.1886 0
M  V30 20133 H 1910.39 -5.09182 2.9327 0
M  V30 20134 H 1911.92 -5.68934 2.21689 0
M  V30 20135 H 1913.33 -4.18476 3.91855 0
M  V30 20136 H 1911.73 -3.82559 4.62351 0
M  V30 20137 H 1912.8 -2.48988 4.16093 0
M  V30 20138 N 1914.14 -1.27049 -0.93254 0
M  V30 20139 C 1915.07 -1.05151 -2.03656 0
M  V30 20140 C 1916.08 -0.00913996 -1.62797 0
M  V30 20141 O 1917.27 -0.25017 -1.76738 0
M  V30 20142 C 1914.37 -0.572071 -3.34037 0
M  V30 20143 C 1913.55 -1.68563 -4.03615 0
M  V30 20144 C 1912.61 -1.20276 -5.12269 0
M  V30 20145 O 1911.63 -1.9015 -5.36499 0
M  V30 20146 N 1912.83 -0.0558099 -5.80473 0
M  V30 20147 H 1915.6 -2.00221 -2.23006 0
M  V30 20148 H 1913.16 -1.18551 -1.1026 0
M  V30 20149 H 1915.15 -0.233036 -4.04029 0
M  V30 20150 H 1913.72 0.285274 -3.11296 0
M  V30 20151 H 1912.94 -2.19519 -3.27422 0
M  V30 20152 H 1914.23 -2.43313 -4.46852 0
M  V30 20153 H 1913.63 0.527516 -5.63235 0
M  V30 20154 H 1912.18 0.224082 -6.51415 0
M  V30 20155 N 1915.62 1.13835 -1.08993 0
M  V30 20156 C 1916.86 1.855 -0.834342 0
M  V30 20157 C 1917.22 1.81684 0.63315 0
M  V30 20158 O 1916.51 1.24085 1.45991 0
M  V30 20159 C 1916.71 3.32997 -1.29798 0
M  V30 20160 C 1916.53 3.51176 -2.80901 0
M  V30 20161 C 1915.3 3.65678 -3.48723 0
M  V30 20162 C 1917.5 3.47593 -3.79056 0
M  V30 20163 N 1915.48 3.72074 -4.88297 0
M  V30 20164 C 1916.86 3.60305 -5.04559 0
M  V30 20165 C 1918.91 3.30967 -3.71975 0
M  V30 20166 C 1917.61 3.58108 -6.2382 0
M  V30 20167 C 1919.64 3.30076 -4.90718 0
M  V30 20168 C 1919 3.43334 -6.15062 0
M  V30 20169 H 1915.1 0.695187 -0.358105 0
M  V30 20170 H 1917.68 1.36391 -1.38944 0
M  V30 20171 H 1915.86 3.80683 -0.770378 0
M  V30 20172 H 1917.59 3.9245 -0.988183 0
M  V30 20173 H 1914.34 3.67163 -2.99146 0
M  V30 20174 H 1914.77 3.78974 -5.60988 0
M  V30 20175 H 1919.41 3.19622 -2.7677 0
M  V30 20176 H 1917.13 3.68228 -7.19329 0
M  V30 20177 H 1920.71 3.18415 -4.86933 0
M  V30 20178 H 1919.59 3.426 -7.05404 0
M  V30 20179 N 1917.1 0.876467 1.3098 0
M  V30 20180 C 1918.03 0.352925 2.30817 0
M  V30 20181 C 1919.01 -0.559675 1.60629 0
M  V30 20182 O 1920.19 -0.475326 1.88293 0
M  V30 20183 C 1917.32 -0.440827 3.44491 0
M  V30 20184 C 1916.28 0.379253 4.26316 0
M  V30 20185 C 1915.6 -0.540582 5.3196 0
M  V30 20186 C 1916.9 1.61682 4.96645 0
M  V30 20187 H 1918.6 1.18719 2.74857 0
M  V30 20188 H 1916.14 0.572316 1.32138 0
M  V30 20189 H 1918.09 -0.817661 4.13391 0
M  V30 20190 H 1916.82 -1.30866 2.99235 0
M  V30 20191 H 1915.48 0.738117 3.59092 0
M  V30 20192 H 1915.13 -1.40588 4.82953 0
M  V30 20193 H 1914.83 0.00427133 5.876 0
M  V30 20194 H 1916.35 -0.914118 6.03719 0
M  V30 20195 H 1917.76 1.31105 5.58108 0
M  V30 20196 H 1916.16 2.10123 5.62111 0
M  V30 20197 H 1917.23 2.36602 4.23258 0
M  V30 20198 N 1918.57 -1.44173 0.636557 0
M  V30 20199 C 1919.98 -1.8534 0.224954 0
M  V30 20200 C 1920.34 -1.53271 -1.22485 0
M  V30 20201 O 1919.46 -0.973441 -1.93269 0
M  V30 20202 C 1920.06 -3.36413 0.401492 0
M  V30 20203 C 1918.61 -3.76374 0.0443511 0
M  V30 20204 C 1917.76 -2.67995 0.712303 0
M  V30 20205 H 1920.71 -1.34562 0.841356 0
M  V30 20206 H 1920.73 -3.78812 -0.357965 0
M  V30 20207 H 1920.25 -3.59722 1.45677 0
M  V30 20208 H 1918.35 -3.58679 -1.00897 0
M  V30 20209 H 1918.46 -4.76904 0.458196 0
M  V30 20210 H 1916.82 -2.54275 0.147092 0
M  V30 20211 H 1917.61 -2.94136 1.77028 0
M  V30 20212 N 1920.05 -0.377435 -1.53014 0
M  V30 20213 C 1921.47 -0.0268747 -1.59577 0
M  V30 20214 C 1921.67 1.45688 -1.39202 0
M  V30 20215 O 1920.72 2.21996 -1.20309 0
M  V30 20216 C 1922.04 -0.493431 -2.96624 0
M  V30 20217 C 1923.58 -0.448667 -3.09768 0
M  V30 20218 C 1924.06 -0.891223 -4.49245 0
M  V30 20219 N 1925.55 -0.846756 -4.55395 0
M  V30 20220 C 1926.29 -1.16074 -5.61529 0
M  V30 20221 N 1925.78 -1.5446 -6.75362 0
M  V30 20222 N 1927.57 -1.08276 -5.51573 0
M  V30 20223 H 1919.73 -1.34353 -1.64508 0
M  V30 20224 H 1921.99 -0.549926 -0.772195 0
M  V30 20225 H 1921.69 -1.52927 -3.16712 0
M  V30 20226 H 1921.57 0.113748 -3.77028 0
M  V30 20227 H 1923.96 0.578058 -2.89383 0
M  V30 20228 H 1924.04 -1.0915 -2.31344 0
M  V30 20229 H 1923.68 -1.91612 -4.70369 0
M  V30 20230 H 1923.61 -0.225524 -5.26117 0
M  V30 20231 H 1926.1 -0.564127 -3.73666 0
M  V30 20232 H 1926.41 -1.76813 -7.52301 0
M  V30 20233 H 1924.76 -1.58336 -6.76724 0
M  V30 20234 H 1927.95 -0.781974 -4.61522 0
M  V30 20235 H 1928.12 -1.33078 -6.34188 0
M  V30 20236 N 1921.53 1.57237 -0.106922 0
M  V30 20237 C 1922.81 1.8627 0.596889 0
M  V30 20238 C 1923.19 1.00593 1.85591 0
M  V30 20239 O 1922.54 0.0815394 2.28354 0
M  V30 20240 C 1922.75 3.37171 0.900934 0
M  V30 20241 C 1924.09 4.05497 1.25926 0
M  V30 20242 O 1925.12 3.4212 0.99158 0
M  V30 20243 O 1923.98 5.17347 1.76109 0
M  V30 20244 H 1921.07 0.770704 0.299907 0
M  V30 20245 H 1923.62 1.69117 -0.140513 0
M  V30 20246 H 1922.39 3.91299 0.00823337 0
M  V30 20247 H 1922.01 3.59712 1.69391 0
M  V30 20248 N 1923.01 -0.166818 1.56715 0
M  V30 20249 C 1923.97 -1.19027 1.95871 0
M  V30 20250 C 1924.97 -1.36939 0.842877 0
M  V30 20251 O 1926.16 -1.34268 1.10985 0
M  V30 20252 C 1923.29 -2.55446 2.25743 0
M  V30 20253 H 1924.49 -0.854834 2.87459 0
M  V30 20254 H 1922.04 -0.409436 1.50842 0
M  V30 20255 H 1922.77 -2.93996 1.36884 0
M  V30 20256 H 1922.56 -2.4381 3.07081 0
M  V30 20257 H 1924.05 -3.29196 2.56943 0
M  V30 20258 N 1924.49 -1.51463 -0.435524 0
M  V30 20259 C 1925.42 -1.75856 -1.53613 0
M  V30 20260 C 1926.4 -0.608449 -1.58846 0
M  V30 20261 O 1927.58 -0.85135 -1.74544 0
M  V30 20262 C 1924.71 -1.88525 -2.91677 0
M  V30 20263 C 1923.67 -3.03972 -3.01305 0
M  V30 20264 C 1922.99 -3.01828 -4.41366 0
M  V30 20265 C 1924.29 -4.43905 -2.75219 0
M  V30 20266 H 1925.99 -2.68013 -1.33452 0
M  V30 20267 H 1923.53 -1.28968 -0.640564 0
M  V30 20268 H 1925.49 -2.04173 -3.68634 0
M  V30 20269 H 1924.21 -0.930179 -3.13074 0
M  V30 20270 H 1922.87 -2.88033 -2.26788 0
M  V30 20271 H 1922.52 -2.04095 -4.59733 0
M  V30 20272 H 1922.22 -3.79353 -4.48737 0
M  V30 20273 H 1923.74 -3.19572 -5.20294 0
M  V30 20274 H 1925.15 -4.60187 -3.41908 0
M  V30 20275 H 1923.55 -5.2315 -2.93998 0
M  V30 20276 H 1924.62 -4.53818 -1.70814 0
M  V30 20277 N 1925.96 0.691085 -1.4164 0
M  V30 20278 C 1927.19 1.47978 -1.44603 0
M  V30 20279 C 1927.61 1.88727 -0.0525951 0
M  V30 20280 O 1926.96 1.57079 0.929107 0
M  V30 20281 C 1927.02 2.73945 -2.35874 0
M  V30 20282 O 1926.74 2.34912 -3.69795 0
M  V30 20283 C 1928.24 3.67649 -2.47688 0
M  V30 20284 H 1925.46 0.455873 -0.492363 0
M  V30 20285 H 1928 0.850521 -1.85974 0
M  V30 20286 H 1926.16 3.33098 -1.97799 0
M  V30 20287 H 1926.57 3.16139 -4.18517 0
M  V30 20288 H 1928.04 4.52806 -3.15707 0
M  V30 20289 H 1928.52 4.12443 -1.50956 0
M  V30 20290 H 1929.13 3.14397 -2.86417 0
M  V30 20291 N 1927.44 1.27542 0.925789 0
M  V30 20292 C 1928.69 1.14161 1.67616 0
M  V30 20293 C 1929.02 -0.311471 1.91686 0
M  V30 20294 O 1928.3 -1.22766 1.5086 0
M  V30 20295 C 1928.58 1.92778 3.04152 0
M  V30 20296 C 1928.43 3.46081 2.87312 0
M  V30 20297 C 1929.75 1.73374 4.04511 0
M  V30 20298 H 1926.87 0.416091 0.608307 0
M  V30 20299 H 1929.51 1.56719 1.0742 0
M  V30 20300 H 1927.66 1.5661 3.55536 0
M  V30 20301 H 1929.33 3.92089 2.43031 0
M  V30 20302 H 1927.58 3.72324 2.22615 0
M  V30 20303 H 1928.25 3.96333 3.84219 0
M  V30 20304 H 1930.72 2.04914 3.62146 0
M  V30 20305 H 1929.6 2.30773 4.98031 0
M  V30 20306 H 1929.86 0.682154 4.36806 0
M  V30 20307 N 1928.92 -1.13255 1.09595 0
M  V30 20308 C 1930.17 -1.84571 0.833056 0
M  V30 20309 C 1930.5 -1.83622 -0.641341 0
M  V30 20310 O 1929.75 -1.27084 -1.48823 0
M  V30 20311 C 1930.05 -3.32304 1.31562 0
M  V30 20312 C 1929.72 -3.53433 2.79993 0
M  V30 20313 C 1928.38 -3.58907 3.2053 0
M  V30 20314 C 1930.73 -3.61259 3.75687 0
M  V30 20315 C 1928.06 -3.69744 4.55529 0
M  V30 20316 C 1930.41 -3.73624 5.10478 0
M  V30 20317 C 1929.07 -3.77352 5.50601 0
M  V30 20318 H 1928.34 -0.675393 0.304837 0
M  V30 20319 H 1930.99 -1.33697 1.37103 0
M  V30 20320 H 1929.3 -3.85542 0.697482 0
M  V30 20321 H 1930.99 -3.85935 1.0888 0
M  V30 20322 H 1927.58 -3.49828 2.47625 0
M  V30 20323 H 1931.77 -3.56308 3.45483 0
M  V30 20324 H 1927.02 -3.70897 4.8605 0
M  V30 20325 H 1931.2 -3.78623 5.84481 0
M  V30 20326 H 1928.82 -3.85501 6.55204 0
M  V30 20327 N 1930.4 -0.883401 -1.30514 0
M  V30 20328 C 1931.35 -0.33846 -2.30124 0
M  V30 20329 C 1932.34 0.553686 -1.60096 0
M  V30 20330 O 1933.55 0.438295 -1.74582 0
M  V30 20331 H 1929.92 -0.0907927 -0.746499 0
M  V30 20332 H 1931.89 -1.19227 -2.73546 0
M  V30 20333 C 1930.64 0.43339 -3.44988 0
M  V30 20334 H 1929.96 -0.243847 -3.99056 0
M  V30 20335 H 1931.4 0.779808 -4.16767 0
M  V30 20336 C 1929.86 1.62986 -2.94851 0
M  V30 20337 O 1930.39 2.72922 -2.94748 0
M  V30 20338 N 1928.6 1.4665 -2.50883 0
M  V30 20339 H 1928.15 0.572135 -2.51166 0
M  V30 20340 H 1928.1 2.2684 -2.17694 0
M  V30 20341 N 1931.88 1.43833 -0.644194 0
M  V30 20342 C 1933.29 1.85218 -0.23478 0
M  V30 20343 C 1933.64 1.53918 1.2167 0
M  V30 20344 O 1932.76 0.983677 1.92751 0
M  V30 20345 C 1933.36 3.36195 -0.419327 0
M  V30 20346 C 1931.92 3.76345 -0.0643105 0
M  V30 20347 C 1931.06 2.67614 -0.726506 0
M  V30 20348 H 1934.02 1.34114 -0.84848 0
M  V30 20349 H 1934.04 3.78997 0.33787 0
M  V30 20350 H 1933.55 3.58944 -1.47582 0
M  V30 20351 H 1931.65 3.59209 0.989939 0
M  V30 20352 H 1931.76 4.76654 -0.483481 0
M  V30 20353 H 1930.13 2.54193 -0.160575 0
M  V30 20354 H 1930.91 2.93193 -1.78585 0
M  V30 20355 N 1933.35 0.385544 1.52811 0
M  V30 20356 C 1934.58 -0.197738 2.05652 0
M  V30 20357 C 1934.99 -1.41373 1.2574 0
M  V30 20358 O 1934.34 -1.81297 0.296184 0
M  V30 20359 C 1934.4 -0.636031 3.53829 0
M  V30 20360 C 1934.06 0.465981 4.54618 0
M  V30 20361 C 1935.06 1.3222 5.02806 0
M  V30 20362 C 1932.74 0.631936 4.98309 0
M  V30 20363 C 1934.74 2.32954 5.93305 0
M  V30 20364 C 1932.42 1.64261 5.8861 0
M  V30 20365 C 1933.42 2.48983 6.36 0
M  V30 20366 O 1933.11 3.48324 7.24518 0
M  V30 20367 H 1932.84 -0.0343646 0.675126 0
M  V30 20368 H 1935.4 0.548149 1.97951 0
M  V30 20369 H 1933.63 -1.43384 3.59135 0
M  V30 20370 H 1935.32 -1.14456 3.89429 0
M  V30 20371 H 1936.08 1.20528 4.69785 0
M  V30 20372 H 1931.96 -0.0177815 4.60997 0
M  V30 20373 H 1935.5 2.99118 6.30218 0
M  V30 20374 H 1931.4 1.75993 6.21045 0
M  V30 20375 H 1932.17 3.44288 7.42569 0
M  V30 20376 N 1934.83 -1.57178 0.115259 0
M  V30 20377 C 1935.78 -2.16368 -0.853683 0
M  V30 20378 C 1936.77 -1.11189 -1.27802 0
M  V30 20379 O 1937.98 -1.29499 -1.2502 0
M  V30 20380 H 1934.36 -0.692403 -0.293397 0
M  V30 20381 H 1936.33 -2.9657 -0.329954 0
M  V30 20382 C 1935.08 -2.7747 -2.09537 0
M  V30 20383 H 1934.4 -3.581 -1.77777 0
M  V30 20384 H 1935.84 -3.22428 -2.75347 0
M  V30 20385 C 1934.3 -1.74366 -2.88268 0
M  V30 20386 O 1934.83 -1.19476 -3.83521 0
M  V30 20387 N 1933.03 -1.44392 -2.52189 0
M  V30 20388 H 1932.58 -1.89219 -1.74797 0
M  V30 20389 H 1932.54 -0.756482 -3.05163 0
M  V30 20390 N 1936.31 0.158505 -1.56801 0
M  V30 20391 C 1937.26 1.21526 -1.98328 0
M  V30 20392 C 1938.25 1.45117 -0.873926 0
M  V30 20393 O 1939.46 1.45545 -1.05908 0
M  V30 20394 H 1935.83 0.408803 -0.631177 0
M  V30 20395 H 1937.81 0.838242 -2.86384 0
M  V30 20396 C 1936.55 2.54396 -2.37019 0
M  V30 20397 H 1935.88 2.3707 -3.21928 0
M  V30 20398 H 1937.32 3.26994 -2.69909 0
M  V30 20399 C 1935.78 3.14095 -1.21845 0
M  V30 20400 O 1936.31 3.98411 -0.51298 0
M  V30 20401 N 1934.51 2.73373 -0.985675 0
M  V30 20402 H 1934.06 2.04907 -1.56112 0
M  V30 20403 H 1934.02 3.13651 -0.216926 0
M  V30 20404 N 1937.79 1.51692 0.427485 0
M  V30 20405 C 1939.21 1.40086 0.764726 0
M  V30 20406 C 1939.41 0.490917 1.95428 0
M  V30 20407 O 1938.46 -0.0502236 2.5245 0
M  V30 20408 C 1939.77 2.82295 1.03586 0
M  V30 20409 C 1941.32 2.91513 1.1397 0
M  V30 20410 C 1941.8 4.34651 1.44371 0
M  V30 20411 N 1943.29 4.37802 1.51274 0
M  V30 20412 C 1944.02 5.45596 1.76388 0
M  V30 20413 N 1943.52 6.63536 1.99228 0
M  V30 20414 N 1945.31 5.33088 1.78252 0
M  V30 20415 H 1937.46 2.09399 -0.355809 0
M  V30 20416 H 1939.73 0.943043 -0.0968225 0
M  V30 20417 H 1939.43 3.50918 0.234369 0
M  V30 20418 H 1939.31 3.22223 1.96092 0
M  V30 20419 H 1941.69 2.23082 1.9318 0
M  V30 20420 H 1941.77 2.55068 0.193426 0
M  V30 20421 H 1941.42 5.03635 0.656841 0
M  V30 20422 H 1941.35 4.68617 2.4022 0
M  V30 20423 H 1943.84 3.52777 1.35487 0
M  V30 20424 H 1944.15 7.41477 2.17789 0
M  V30 20425 H 1942.5 6.66634 1.9653 0
M  V30 20426 H 1945.69 4.39931 1.59933 0
M  V30 20427 H 1945.86 6.17174 1.97486 0
M  V30 20428 N 1939.27 -0.683564 1.42004 0
M  V30 20429 C 1940.21 -1.7973 1.44796 0
M  V30 20430 C 1941.18 -1.63352 0.300905 0
M  V30 20431 O 1942.37 -1.84031 0.503707 0
M  V30 20432 C 1939.51 -3.17701 1.34758 0
M  V30 20433 C 1938.62 -3.45428 2.59429 0
M  V30 20434 C 1937.76 -4.73079 2.41598 0
M  V30 20435 C 1936.8 -4.93812 3.61685 0
M  V30 20436 N 1935.93 -6.12698 3.4285 0
M  V30 20437 H 1940.77 -1.76679 2.39976 0
M  V30 20438 H 1938.31 -0.862624 1.19152 0
M  V30 20439 H 1940.27 -3.9742 1.26938 0
M  V30 20440 H 1938.9 -3.19899 0.431785 0
M  V30 20441 H 1937.95 -2.60027 2.77651 0
M  V30 20442 H 1939.26 -3.56645 3.48721 0
M  V30 20443 H 1938.42 -5.60873 2.31314 0
M  V30 20444 H 1937.16 -4.6413 1.49782 0
M  V30 20445 H 1936.16 -4.04463 3.72411 0
M  V30 20446 H 1937.39 -5.04612 4.5447 0
M  V30 20447 H 1935.33 -6.04938 2.53744 0
M  V30 20448 H 1935.25 -6.24736 4.25724 0
M  V30 20449 H 1936.52 -7.03194 3.36361 0
M  V30 20450 N 1940.75 -1.28031 -0.919012 0
M  V30 20451 C 1941.97 -1.17828 -1.70679 0
M  V30 20452 C 1942.4 0.260207 -1.86292 0
M  V30 20453 O 1941.75 1.18833 -1.36925 0
M  V30 20454 C 1941.8 -1.87626 -3.07943 0
M  V30 20455 O 1940.91 -1.18014 -3.95154 0
M  V30 20456 H 1940.25 -0.40932 -0.522832 0
M  V30 20457 H 1942.78 -1.69258 -1.14947 0
M  V30 20458 H 1942.79 -1.95327 -3.58206 0
M  V30 20459 H 1941.46 -2.92263 -2.95897 0
M  V30 20460 H 1940.04 -1.18441 -3.5359 0
M  V30 20461 N 1942.22 1.12672 -1.10194 0
M  V30 20462 C 1943.13 2.2192 -0.76082 0
M  V30 20463 C 1944.15 1.72328 0.240604 0
M  V30 20464 O 1945.33 2.01241 0.0799808 0
M  V30 20465 C 1942.39 3.46151 -0.19501 0
M  V30 20466 C 1941.45 4.10595 -1.25339 0
M  V30 20467 C 1940.68 5.28896 -0.714485 0
M  V30 20468 O 1940.91 5.68543 0.459943 0
M  V30 20469 O 1939.84 5.83592 -1.47324 0
M  V30 20470 H 1943.67 2.53487 -1.67266 0
M  V30 20471 H 1941.25 1.20959 -0.876892 0
M  V30 20472 H 1943.13 4.21238 0.116809 0
M  V30 20473 H 1941.81 3.16266 0.689729 0
M  V30 20474 H 1940.72 3.37299 -1.61803 0
M  V30 20475 H 1942.05 4.44629 -2.11106 0
M  V30 20476 N 1943.7 0.89031 1.30043 0
M  V30 20477 C 1944.95 0.51044 1.95548 0
M  V30 20478 C 1945.27 -0.944562 1.70596 0
M  V30 20479 O 1944.54 -1.66482 1.0325 0
M  V30 20480 H 1943.12 0.185776 0.723531 0
M  V30 20481 H 1945.78 1.13455 1.58474 0
M  V30 20482 H 1944.88 0.685155 3.04487 0
M  V30 20483 N 1945.18 -1.43489 0.651812 0
M  V30 20484 C 1946.6 -1.56374 0.31925 0
M  V30 20485 C 1946.8 -1.63573 -1.1767 0
M  V30 20486 O 1945.85 -1.59003 -1.96149 0
M  V30 20487 C 1947.16 -2.82532 1.02937 0
M  V30 20488 C 1948.71 -2.96274 1.00949 0
M  V30 20489 C 1949.19 -4.25262 1.70047 0
M  V30 20490 N 1950.68 -4.32123 1.66805 0
M  V30 20491 C 1951.41 -5.30693 2.17146 0
M  V30 20492 N 1950.91 -6.3555 2.75769 0
M  V30 20493 N 1952.7 -5.22337 2.07654 0
M  V30 20494 H 1944.85 -1.3706 1.6226 0
M  V30 20495 H 1947.12 -0.658169 0.682289 0
M  V30 20496 H 1946.82 -2.83271 2.08448 0
M  V30 20497 H 1946.7 -3.72713 0.580047 0
M  V30 20498 H 1949.08 -2.95077 -0.0372118 0
M  V30 20499 H 1949.16 -2.07386 1.49749 0
M  V30 20500 H 1948.81 -4.2722 2.74673 0
M  V30 20501 H 1948.74 -5.13044 1.18714 0
M  V30 20502 H 1951.23 -3.56968 1.24024 0
M  V30 20503 H 1951.54 -7.0708 3.11861 0
M  V30 20504 H 1949.89 -6.36177 2.79829 0
M  V30 20505 H 1953.08 -4.39336 1.61561 0
M  V30 20506 H 1953.25 -5.98998 2.47195 0
M  V30 20507 N 1946.66 -0.393643 -1.52605 0
M  V30 20508 C 1947.91 0.188423 -2.00818 0
M  V30 20509 C 1948.22 1.47537 -1.28422 0
M  V30 20510 O 1949.43 2.13775 -1.6737 0
M  V30 20511 C 1947.88 0.386341 -3.5782 0
M  V30 20512 C 1947.49 -0.887606 -4.39119 0
M  V30 20513 C 1949.23 0.924537 -4.1431 0
M  V30 20514 C 1947.14 -0.657729 -5.87731 0
M  V30 20515 H 1946.07 0.0741894 -0.750341 0
M  V30 20516 H 1948.72 -0.516709 -1.76075 0
M  V30 20517 H 1947.1 1.15343 -3.7883 0
M  V30 20518 H 1948.28 -1.65965 -4.29875 0
M  V30 20519 H 1946.59 -1.35107 -3.93872 0
M  V30 20520 H 1949.19 1.1123 -5.23003 0
M  V30 20521 H 1949.53 1.89484 -3.70677 0
M  V30 20522 H 1950.07 0.216908 -3.97208 0
M  V30 20523 H 1946.8 -1.59915 -6.35694 0
M  V30 20524 H 1946.32 0.0752963 -5.99753 0
M  V30 20525 H 1948 -0.293935 -6.46332 0
M  V30 20526 N 1948.14 1.57115 -0.123593 0
M  V30 20527 C 1949.38 1.95641 0.534082 0
M  V30 20528 C 1949.71 1.00726 1.66036 0
M  V30 20529 O 1948.99 0.045312 1.94447 0
M  V30 20530 C 1949.27 3.4407 1.06244 0
M  V30 20531 C 1949.13 4.49759 -0.0607321 0
M  V30 20532 C 1950.44 3.94451 1.95183 0
M  V30 20533 H 1947.56 0.71137 0.19267 0
M  V30 20534 H 1950.21 1.88944 -0.200083 0
M  V30 20535 H 1948.36 3.49909 1.68808 0
M  V30 20536 H 1950.03 4.56016 -0.69621 0
M  V30 20537 H 1948.27 4.27729 -0.723232 0
M  V30 20538 H 1948.94 5.50888 0.350271 0
M  V30 20539 H 1951.42 3.90945 1.42483 0
M  V30 20540 H 1950.29 4.98817 2.29069 0
M  V30 20541 H 1950.55 3.35417 2.88007 0
M  V30 20542 N 1949.61 -0.150187 1.56883 0
M  V30 20543 C 1950.84 -0.877076 1.87059 0
M  V30 20544 C 1951.25 -1.75396 0.709427 0
M  V30 20545 O 1950.59 -1.80711 -0.330043 0
M  V30 20546 C 1950.66 -1.78766 3.11902 0
M  V30 20547 C 1950.32 -1.08826 4.43853 0
M  V30 20548 C 1951.32 -0.443669 5.18003 0
M  V30 20549 C 1949 -1.07872 4.9058 0
M  V30 20550 C 1951 0.201122 6.37083 0
M  V30 20551 C 1948.68 -0.430111 6.09584 0
M  V30 20552 C 1949.68 0.208684 6.82681 0
M  V30 20553 O 1949.37 0.847012 7.99425 0
M  V30 20554 H 1949.1 -0.259157 0.62435 0
M  V30 20555 H 1951.66 -0.148664 2.04861 0
M  V30 20556 H 1949.89 -2.55693 2.901 0
M  V30 20557 H 1951.57 -2.38622 3.28351 0
M  V30 20558 H 1952.34 -0.442872 4.82974 0
M  V30 20559 H 1948.22 -1.56534 4.33611 0
M  V30 20560 H 1951.76 0.700316 6.94076 0
M  V30 20561 H 1947.66 -0.428563 6.44076 0
M  V30 20562 H 1948.43 0.748362 8.15072 0
M  V30 20563 N 1951.09 -1.51916 -0.419434 0
M  V30 20564 C 1952.34 -1.65142 -1.16502 0
M  V30 20565 C 1952.66 -0.378632 -1.91289 0
M  V30 20566 O 1951.93 0.606164 -1.86286 0
M  V30 20567 H 1950.51 -0.608667 -0.433051 0
M  V30 20568 H 1953.17 -1.88919 -0.47914 0
M  V30 20569 H 1952.27 -2.48762 -1.88477 0
M  V30 20570 N 1952.57 0.676023 -1.42365 0
M  V30 20571 C 1953.5 1.80165 -1.48536 0
M  V30 20572 C 1954.48 1.66625 -0.342049 0
M  V30 20573 O 1955.67 1.86065 -0.55619 0
M  V30 20574 C 1952.8 3.18451 -1.38586 0
M  V30 20575 C 1951.75 3.46724 -2.50931 0
M  V30 20576 C 1951.08 4.84572 -2.2604 0
M  V30 20577 C 1952.38 3.4374 -3.93243 0
M  V30 20578 H 1954.07 1.75258 -2.42745 0
M  V30 20579 H 1951.62 0.841756 -1.16835 0
M  V30 20580 H 1953.57 3.96929 -1.41511 0
M  V30 20581 H 1952.29 3.24033 -0.408703 0
M  V30 20582 H 1950.95 2.70607 -2.47321 0
M  V30 20583 H 1950.6 4.86802 -1.2662 0
M  V30 20584 H 1950.3 5.04452 -3.01334 0
M  V30 20585 H 1951.82 5.65336 -2.30712 0
M  V30 20586 H 1953.24 4.12189 -3.98463 0
M  V30 20587 H 1951.64 3.75155 -4.68379 0
M  V30 20588 H 1952.71 2.42337 -4.20001 0
M  V30 20589 N 1954.05 1.28517 0.912209 0
M  V30 20590 C 1955.46 1.06257 1.19087 0
M  V30 20591 C 1955.66 -0.194098 2.00563 0
M  V30 20592 O 1954.72 -0.895341 2.36093 0
M  V30 20593 C 1956.03 2.31094 1.92396 0
M  V30 20594 C 1957.58 2.36288 2.05273 0
M  V30 20595 C 1958.06 3.60896 2.8199 0
M  V30 20596 N 1959.55 3.61545 2.89551 0
M  V30 20597 C 1960.28 4.54639 3.49416 0
M  V30 20598 N 1959.78 5.58053 4.10547 0
M  V30 20599 N 1961.57 4.42231 3.46969 0
M  V30 20600 H 1953.72 2.09183 0.368283 0
M  V30 20601 H 1955.99 0.920767 0.225593 0
M  V30 20602 H 1955.69 3.22653 1.39956 0
M  V30 20603 H 1955.57 2.37627 2.92939 0
M  V30 20604 H 1957.95 1.45225 2.56893 0
M  V30 20605 H 1958.03 2.33748 1.03901 0
M  V30 20606 H 1957.68 4.52304 2.31049 0
M  V30 20607 H 1957.61 3.6069 3.8368 0
M  V30 20608 H 1960.1 2.86764 2.46119 0
M  V30 20609 H 1960.41 6.25229 4.54212 0
M  V30 20610 H 1958.76 5.61877 4.09047 0
M  V30 20611 H 1961.95 3.60641 2.98422 0
M  V30 20612 H 1962.12 5.1497 3.93332 0
M  V30 20613 N 1955.53 -1.12086 1.1079 0
M  V30 20614 C 1956.94 -1.65205 0.869718 0
M  V30 20615 C 1957.29 -1.86823 -0.599309 0
M  V30 20616 O 1956.41 -1.59743 -1.45983 0
M  V30 20617 C 1957.01 -3.00109 1.57226 0
M  V30 20618 C 1955.57 -3.50163 1.38068 0
M  V30 20619 C 1954.71 -2.2511 1.61928 0
M  V30 20620 H 1957.67 -0.958175 1.2651 0
M  V30 20621 H 1957.69 -3.66757 1.01337 0
M  V30 20622 H 1957.2 -2.84344 2.64141 0
M  V30 20623 H 1955.3 -3.71106 0.33333 0
M  V30 20624 H 1955.41 -4.29388 2.12515 0
M  V30 20625 H 1953.78 -2.32399 1.04224 0
M  V30 20626 H 1954.56 -2.11895 2.70103 0
M  V30 20627 N 1957 -0.897194 -1.29569 0
M  V30 20628 C 1958.25 -0.520803 -1.95274 0
M  V30 20629 C 1958.57 0.935501 -1.71095 0
M  V30 20630 O 1957.84 1.65932 -1.04131 0
M  V30 20631 H 1956.42 -0.18961 -0.722535 0
M  V30 20632 H 1959.09 -1.14294 -1.5787 0
M  V30 20633 H 1958.18 -0.701293 -3.04119 0
M  V30 20634 N 1958.48 1.43142 -0.659413 0
M  V30 20635 C 1959.9 1.56203 -0.327538 0
M  V30 20636 C 1960.1 1.64194 1.16801 0
M  V30 20637 O 1959.15 1.60041 1.95303 0
M  V30 20638 C 1960.47 2.81982 -1.04434 0
M  V30 20639 C 1962.02 2.95735 -1.02518 0
M  V30 20640 C 1962.49 4.24354 -1.723 0
M  V30 20641 N 1963.98 4.31232 -1.69094 0
M  V30 20642 C 1964.72 5.29534 -2.19957 0
M  V30 20643 N 1964.21 6.34078 -2.79135 0
M  V30 20644 N 1966.01 5.21229 -2.10421 0
M  V30 20645 H 1958.16 1.36198 -1.62984 0
M  V30 20646 H 1960.42 0.654541 -0.685769 0
M  V30 20647 H 1960.13 2.82162 -2.09947 0
M  V30 20648 H 1960 3.72401 -0.599805 0
M  V30 20649 H 1962.39 2.95092 0.0215626 0
M  V30 20650 H 1962.47 2.06589 -1.50846 0
M  V30 20651 H 1962.11 4.25758 -2.76935 0
M  V30 20652 H 1962.04 5.12408 -1.21433 0
M  V30 20653 H 1964.53 3.56306 -1.25915 0
M  V30 20654 H 1964.85 7.05417 -3.15606 0
M  V30 20655 H 1963.19 6.34684 -2.83199 0
M  V30 20656 H 1966.38 4.38473 -1.63888 0
M  V30 20657 H 1966.55 5.97679 -2.50368 0
M  V30 20658 N 1959.96 0.40173 1.52394 0
M  V30 20659 C 1961.19 -0.178662 2.06629 0
M  V30 20660 C 1961.61 -1.3871 1.27048 0
M  V30 20661 O 1960.97 -1.78821 0.298765 0
M  V30 20662 C 1961.02 -0.514797 3.56906 0
M  V30 20663 O 1960.12 -1.60691 3.79805 0
M  V30 20664 H 1959.46 -0.0174284 0.663771 0
M  V30 20665 H 1961.99 0.572792 1.96419 0
M  V30 20666 H 1962 -0.775554 4.00561 0
M  V30 20667 H 1960.68 0.368624 4.14263 0
M  V30 20668 H 1959.25 -1.3389 3.48034 0
M  V30 20669 N 1961.44 -1.57047 0.131923 0
M  V30 20670 C 1962.67 -1.99699 -0.52952 0
M  V30 20671 C 1963.08 -1.01077 -1.59938 0
M  V30 20672 O 1962.42 0.00256808 -1.837 0
M  V30 20673 C 1962.48 -3.38777 -1.20293 0
M  V30 20674 C 1962.15 -4.56145 -0.279483 0
M  V30 20675 C 1963.14 -5.17614 0.486981 0
M  V30 20676 C 1960.83 -5.01953 -0.186784 0
M  V30 20677 C 1962.82 -6.2329 1.33375 0
M  V30 20678 C 1960.51 -6.07486 0.6636 0
M  V30 20679 C 1961.51 -6.68023 1.42248 0
M  V30 20680 O 1961.19 -7.71516 2.25873 0
M  V30 20681 H 1960.93 -0.660552 -0.143691 0
M  V30 20682 H 1963.48 -2.0423 0.218962 0
M  V30 20683 H 1961.71 -3.31039 -1.99875 0
M  V30 20684 H 1963.4 -3.65634 -1.76258 0
M  V30 20685 H 1964.17 -4.83132 0.425311 0
M  V30 20686 H 1960.04 -4.54572 -0.76718 0
M  V30 20687 H 1963.59 -6.7047 1.92655 0
M  V30 20688 H 1959.49 -6.41397 0.726617 0
M  V30 20689 H 1960.25 -7.8867 2.18955 0
M  V30 20690 N 1962.92 0.141865 -1.5696 0
M  V30 20691 C 1963.85 1.20022 -1.95262 0
M  V30 20692 C 1964.86 1.38905 -0.849072 0
M  V30 20693 O 1966.05 1.38385 -1.12747 0
M  V30 20694 C 1963.15 2.56421 -2.21589 0
M  V30 20695 C 1962.32 2.58447 -3.52879 0
M  V30 20696 C 1961.38 3.76422 -3.67686 0
M  V30 20697 O 1960.41 3.61059 -4.40028 0
M  V30 20698 N 1961.61 4.94082 -3.04734 0
M  V30 20699 H 1964.38 0.87461 -2.86654 0
M  V30 20700 H 1961.94 0.331379 -1.58472 0
M  V30 20701 H 1963.93 3.33863 -2.28731 0
M  V30 20702 H 1962.5 2.81254 -1.36437 0
M  V30 20703 H 1961.72 1.66884 -3.57132 0
M  V30 20704 H 1963.01 2.56837 -4.39218 0
M  V30 20705 H 1962.4 5.09467 -2.45886 0
M  V30 20706 H 1960.96 5.69281 -3.1743 0
M  V30 20707 N 1964.39 1.52136 0.411372 0
M  V30 20708 C 1965.64 1.66085 1.15853 0
M  V30 20709 C 1965.97 0.38968 1.90556 0
M  V30 20710 O 1965.22 -0.62727 1.85375 0
M  V30 20711 C 1965.52 2.832 2.1802 0
M  V30 20712 C 1965.19 4.21504 1.6014 0
M  V30 20713 C 1963.85 4.59124 1.4408 0
M  V30 20714 C 1966.2 5.07702 1.17848 0
M  V30 20715 C 1963.53 5.80621 0.842405 0
M  V30 20716 C 1965.88 6.29802 0.594283 0
M  V30 20717 C 1964.55 6.66172 0.420791 0
M  V30 20718 H 1963.82 0.607749 0.423937 0
M  V30 20719 H 1966.46 1.86233 0.446046 0
M  V30 20720 H 1964.77 2.57378 2.95405 0
M  V30 20721 H 1966.47 2.91189 2.75699 0
M  V30 20722 H 1963.06 3.91858 1.73623 0
M  V30 20723 H 1967.24 4.79224 1.29066 0
M  V30 20724 H 1962.5 6.07426 0.695983 0
M  V30 20725 H 1966.67 6.95921 0.258177 0
M  V30 20726 H 1964.3 7.60187 -0.044991 0
M  V30 20727 N 1965.87 -0.668464 1.42721 0
M  V30 20728 C 1966.82 -1.80311 1.46938 0
M  V30 20729 C 1967.82 -1.65861 0.344463 0
M  V30 20730 O 1969.02 -1.72392 0.517768 0
M  V30 20731 H 1965.4 -0.59464 0.460333 0
M  V30 20732 H 1967.37 -1.73872 2.4251 0
M  V30 20733 C 1966.12 -3.18498 1.3948 0
M  V30 20734 H 1965.44 -3.30246 2.25338 0
M  V30 20735 H 1966.88 -3.9789 1.46492 0
M  V30 20736 C 1965.34 -3.36719 0.110386 0
M  V30 20737 O 1965.87 -3.92939 -0.834354 0
M  V30 20738 N 1964.07 -2.90589 0.0254882 0
M  V30 20739 H 1963.62 -2.45023 0.795077 0
M  V30 20740 H 1963.58 -3.03158 -0.833236 0
M  V30 20741 N 1967.35 -1.28999 -0.905381 0
M  V30 20742 C 1968.6 -1.16813 -1.65779 0
M  V30 20743 C 1968.93 0.280936 -1.92157 0
M  V30 20744 O 1968.21 1.2035 -1.52794 0
M  V30 20745 C 1968.49 -1.97593 -3.01047 0
M  V30 20746 C 1968.34 -3.50608 -2.8177 0
M  V30 20747 C 1969.66 -1.79788 -4.01702 0
M  V30 20748 H 1966.78 -0.425716 -0.60161 0
M  V30 20749 H 1969.42 -1.58409 -1.04913 0
M  V30 20750 H 1967.57 -1.62246 -3.52999 0
M  V30 20751 H 1969.24 -3.95905 -2.36763 0
M  V30 20752 H 1967.49 -3.75818 -2.16663 0
M  V30 20753 H 1968.16 -4.02396 -3.77865 0
M  V30 20754 H 1970.63 -2.10649 -3.5884 0
M  V30 20755 H 1969.51 -2.38667 -4.94297 0
M  V30 20756 H 1969.77 -0.75156 -4.35665 0
M  V30 20757 N 1968.83 1.11497 -1.11383 0
M  V30 20758 C 1969.78 2.1752 -0.771611 0
M  V30 20759 C 1970.75 1.64106 0.256616 0
M  V30 20760 O 1971.93 1.90331 0.133672 0
M  V30 20761 C 1969.07 3.44396 -0.220313 0
M  V30 20762 C 1968.18 4.11817 -1.30503 0
M  V30 20763 C 1967.32 5.26375 -0.714331 0
M  V30 20764 C 1966.36 5.85679 -1.77894 0
M  V30 20765 N 1965.5 6.91634 -1.20778 0
M  V30 20766 H 1970.34 2.46138 -1.67989 0
M  V30 20767 H 1967.87 1.20832 -0.838927 0
M  V30 20768 H 1969.83 4.17035 0.117286 0
M  V30 20769 H 1968.46 3.16164 0.651161 0
M  V30 20770 H 1967.51 3.37258 -1.75959 0
M  V30 20771 H 1968.82 4.5195 -2.11051 0
M  V30 20772 H 1967.98 6.05819 -0.326754 0
M  V30 20773 H 1966.72 4.87546 0.12248 0
M  V30 20774 H 1965.72 5.04914 -2.17583 0
M  V30 20775 H 1966.95 6.26576 -2.61877 0
M  V30 20776 H 1964.89 6.54824 -0.392602 0
M  V30 20777 H 1964.81 7.30419 -1.94998 0
M  V30 20778 H 1966.08 7.74884 -0.847072 0
M  V30 20779 N 1970.31 0.904053 1.29092 0
M  V30 20780 C 1971.54 0.547758 1.99517 0
M  V30 20781 C 1971.95 -0.868589 1.67633 0
M  V30 20782 O 1971.31 -1.57394 0.923758 0
M  V30 20783 C 1971.36 0.735683 3.53935 0
M  V30 20784 O 1971.08 2.09629 3.84691 0
M  V30 20785 C 1972.58 0.38492 4.41626 0
M  V30 20786 H 1969.8 0.209762 0.63737 0
M  V30 20787 H 1972.34 1.2146 1.64523 0
M  V30 20788 H 1970.5 0.11597 3.87226 0
M  V30 20789 H 1970.91 2.12883 4.79355 0
M  V30 20790 H 1972.39 0.567226 5.49078 0
M  V30 20791 H 1972.86 -0.678298 4.33931 0
M  V30 20792 H 1973.47 0.981759 4.13813 0
M  V30 20793 N 1971.79 -1.4279 0.666995 0
M  V30 20794 C 1973.03 -2.01942 0.186305 0
M  V30 20795 C 1973.36 -1.52579 -1.20139 0
M  V30 20796 O 1972.64 -0.724677 -1.80496 0
M  V30 20797 C 1972.92 -3.59474 0.212322 0
M  V30 20798 C 1972.78 -4.19035 1.63491 0
M  V30 20799 C 1974.09 -4.37857 -0.443762 0
M  V30 20800 H 1971.21 -0.733747 0.0691733 0
M  V30 20801 H 1973.86 -1.69912 0.850298 0
M  V30 20802 H 1972.01 -3.86892 -0.353062 0
M  V30 20803 H 1973.68 -4.02598 2.25195 0
M  V30 20804 H 1971.92 -3.75161 2.178 0
M  V30 20805 H 1972.59 -5.28155 1.60486 0
M  V30 20806 H 1975.07 -4.16083 0.0374331 0
M  V30 20807 H 1973.94 -5.47478 -0.394887 0
M  V30 20808 H 1974.2 -4.15144 -1.52012 0
M  V30 20809 N 1973.26 -0.409806 -1.52179 0
M  V30 20810 C 1974.49 0.167702 -2.06721 0
M  V30 20811 C 1974.91 1.38034 -1.27782 0
M  V30 20812 O 1974.27 1.7866 -0.308244 0
M  V30 20813 C 1974.32 0.495862 -3.57174 0
M  V30 20814 O 1973.42 1.58675 -3.80652 0
M  V30 20815 H 1972.76 0.013908 -0.663854 0
M  V30 20816 H 1975.29 -0.583201 -1.96112 0
M  V30 20817 H 1975.3 0.754301 -4.00967 0
M  V30 20818 H 1973.98 -0.390588 -4.14062 0
M  V30 20819 H 1972.56 1.32042 -3.48739 0
M  V30 20820 N 1974.74 1.56975 -0.14025 0
M  V30 20821 C 1975.99 1.95519 0.51153 0
M  V30 20822 C 1976.31 1.02572 1.65843 0
M  V30 20823 O 1975.58 0.0859828 1.95711 0
M  V30 20824 H 1974.16 0.721914 0.191961 0
M  V30 20825 H 1976.82 1.9372 -0.214169 0
M  V30 20826 H 1975.92 2.99078 0.892131 0
M  V30 20827 N 1976.22 -0.133539 1.57033 0
M  V30 20828 C 1977.5 -0.873327 1.75021 0
M  V30 20829 C 1977.88 -1.98735 0.71187 0
M  V30 20830 O 1977.22 -2.26937 -0.266823 0
M  V30 20831 C 1977.43 -1.40341 3.19539 0
M  V30 20832 C 1978.78 -1.86151 3.81619 0
M  V30 20833 O 1979.81 -1.50053 3.23052 0
M  V30 20834 O 1978.67 -2.52767 4.84532 0
M  V30 20835 H 1975.76 -0.413669 0.716105 0
M  V30 20836 H 1978.31 -0.118413 1.69286 0
M  V30 20837 H 1977.08 -0.60345 3.86619 0
M  V30 20838 H 1976.7 -2.22145 3.29754 0
M  V30 20839 N 1977.7 -1.52352 -0.403298 0
M  V30 20840 C 1978.92 -1.70849 -1.17582 0
M  V30 20841 C 1979.35 -0.419696 -1.83358 0
M  V30 20842 O 1978.71 0.623346 -1.70247 0
M  V30 20843 C 1978.75 -2.8492 -2.21027 0
M  V30 20844 O 1977.86 -2.50896 -3.273 0
M  V30 20845 H 1977.2 -0.568568 -0.342967 0
M  V30 20846 H 1979.73 -1.99082 -0.471975 0
M  V30 20847 H 1979.74 -3.10002 -2.6526 0
M  V30 20848 H 1978.41 -3.78423 -1.72536 0
M  V30 20849 H 1976.99 -2.36506 -2.88304 0
M  V30 20850 N 1979.18 0.660885 -1.43074 0
M  V30 20851 C 1980.42 1.42136 -1.45495 0
M  V30 20852 C 1980.78 1.92253 -0.0751598 0
M  V30 20853 O 1980.07 1.68881 0.904973 0
M  V30 20854 C 1980.26 2.6246 -2.42589 0
M  V30 20855 C 1980.09 2.24119 -3.89873 0
M  V30 20856 C 1978.86 2.12811 -4.58301 0
M  V30 20857 C 1981.06 1.84886 -4.79918 0
M  V30 20858 N 1979.04 1.6772 -5.90545 0
M  V30 20859 C 1980.41 1.50819 -6.01376 0
M  V30 20860 C 1982.47 1.72001 -4.67247 0
M  V30 20861 C 1981.17 1.05159 -7.11572 0
M  V30 20862 C 1983.2 1.27746 -5.77438 0
M  V30 20863 C 1982.56 0.946114 -6.98017 0
M  V30 20864 H 1978.66 0.516063 -0.58754 0
M  V30 20865 H 1981.24 0.761285 -1.792 0
M  V30 20866 H 1979.41 3.26138 -2.10924 0
M  V30 20867 H 1981.15 3.29124 -2.35499 0
M  V30 20868 H 1977.9 2.32325 -4.12701 0
M  V30 20869 H 1978.32 1.47558 -6.60724 0
M  V30 20870 H 1982.97 1.9626 -3.74489 0
M  V30 20871 H 1980.68 0.796478 -8.04165 0
M  V30 20872 H 1984.27 1.18277 -5.69651 0
M  V30 20873 H 1983.15 0.608883 -7.81833 0
M  V30 20874 N 1980.65 1.29477 0.898527 0
M  V30 20875 C 1981.6 1.14706 2.00278 0
M  V30 20876 C 1982.57 0.040077 1.66052 0
M  V30 20877 O 1983.76 0.207808 1.89665 0
M  V30 20878 C 1980.9 0.830802 3.3495 0
M  V30 20879 C 1980.01 2.01834 3.81952 0
M  V30 20880 C 1979.14 1.64135 5.05206 0
M  V30 20881 C 1978.18 2.79464 5.44579 0
M  V30 20882 N 1977.32 2.42153 6.59019 0
M  V30 20883 H 1982.16 2.09181 2.12244 0
M  V30 20884 H 1979.7 1.04092 1.03939 0
M  V30 20885 H 1981.66 0.628119 4.12445 0
M  V30 20886 H 1980.29 -0.0770431 3.22708 0
M  V30 20887 H 1979.34 2.33269 3.00483 0
M  V30 20888 H 1980.65 2.88247 4.07081 0
M  V30 20889 H 1979.8 1.40163 5.90288 0
M  V30 20890 H 1978.54 0.748722 4.81918 0
M  V30 20891 H 1977.55 3.04117 4.58031 0
M  V30 20892 H 1978.77 3.69393 5.69847 0
M  V30 20893 H 1976.72 1.55379 6.37333 0
M  V30 20894 H 1976.64 3.221 6.8395 0
M  V30 20895 H 1977.9 2.21503 7.47366 0
M  V30 20896 N 1982.13 -1.10905 1.11972 0
M  V30 20897 C 1983.36 -1.86555 0.894699 0
M  V30 20898 C 1983.78 -1.80434 -0.555801 0
M  V30 20899 O 1983.13 -1.18957 -1.38403 0
M  V30 20900 C 1983.18 -3.35148 1.35492 0
M  V30 20901 O 1982.9 -3.41154 2.74856 0
M  V30 20902 C 1984.41 -4.27687 1.16612 0
M  V30 20903 H 1981.63 -0.589761 0.320037 0
M  V30 20904 H 1984.17 -1.40232 1.48846 0
M  V30 20905 H 1982.32 -3.78955 0.804493 0
M  V30 20906 H 1982.74 -4.3372 2.94936 0
M  V30 20907 H 1984.21 -5.30168 1.53708 0
M  V30 20908 H 1984.69 -4.39072 0.106219 0
M  V30 20909 H 1985.3 -3.8968 1.70381 0
M  V30 20910 N 1983.61 -0.910886 -1.2861 0
M  V30 20911 C 1984.84 -0.557522 -1.98935 0
M  V30 20912 C 1985.25 0.864875 -1.68275 0
M  V30 20913 O 1984.59 1.58401 -0.930312 0
M  V30 20914 C 1984.65 -0.683336 -3.52946 0
M  V30 20915 C 1984.32 -2.07475 -4.07189 0
M  V30 20916 C 1985.31 -3.04716 -4.21241 0
M  V30 20917 C 1983 -2.38716 -4.4195 0
M  V30 20918 C 1984.99 -4.31315 -4.69303 0
M  V30 20919 C 1982.68 -3.65555 -4.89707 0
M  V30 20920 C 1983.68 -4.61669 -5.0334 0
M  V30 20921 O 1983.37 -5.86254 -5.50056 0
M  V30 20922 H 1983.1 -0.211519 -0.642056 0
M  V30 20923 H 1985.65 -1.22539 -1.64843 0
M  V30 20924 H 1983.88 0.0415955 -3.86678 0
M  V30 20925 H 1985.57 -0.337494 -4.04494 0
M  V30 20926 H 1986.34 -2.81898 -3.94662 0
M  V30 20927 H 1982.22 -1.64658 -4.30591 0
M  V30 20928 H 1985.76 -5.0634 -4.79859 0
M  V30 20929 H 1981.66 -3.88199 -5.15724 0
M  V30 20930 H 1982.43 -5.89002 -5.68347 0
M  V30 20931 N 1985.09 1.42434 -0.674558 0
M  V30 20932 C 1986.31 2.06399 -0.203545 0
M  V30 20933 C 1986.74 1.50345 1.1304 0
M  V30 20934 O 1986.1 0.621837 1.70302 0
M  V30 20935 C 1986.14 3.60293 -0.148884 0
M  V30 20936 O 1985.25 4.02843 0.882667 0
M  V30 20937 H 1984.59 0.655698 -0.104672 0
M  V30 20938 H 1987.12 1.82572 -0.923502 0
M  V30 20939 H 1987.13 4.07991 0.0273375 0
M  V30 20940 H 1985.8 4.00464 -1.12256 0
M  V30 20941 H 1984.38 3.66694 0.677506 0
M  V30 20942 N 1986.57 0.417871 1.51959 0
M  V30 20943 C 1987.51 -0.403305 2.27249 0
M  V30 20944 C 1988.48 -1.0336 1.30023 0
M  V30 20945 O 1989.67 -1.05621 1.58899 0
M  V30 20946 C 1986.81 -1.50928 3.10346 0
M  V30 20947 C 1985.92 -0.899043 4.22541 0
M  V30 20948 C 1985.06 -1.97844 4.92982 0
M  V30 20949 C 1984.1 -1.3456 5.97126 0
M  V30 20950 N 1983.23 -2.36552 6.6105 0
M  V30 20951 H 1988.07 0.245143 2.9699 0
M  V30 20952 H 1985.61 0.132733 1.465 0
M  V30 20953 H 1987.57 -2.16157 3.56836 0
M  V30 20954 H 1986.2 -2.12763 2.42759 0
M  V30 20955 H 1985.25 -0.135561 3.80158 0
M  V30 20956 H 1986.56 -0.396845 4.97219 0
M  V30 20957 H 1985.72 -2.7078 5.42921 0
M  V30 20958 H 1984.45 -2.51432 4.17892 0
M  V30 20959 H 1983.46 -0.601616 5.46499 0
M  V30 20960 H 1984.68 -0.817308 6.74164 0
M  V30 20961 H 1982.63 -2.89256 5.88784 0
M  V30 20962 H 1982.55 -1.91169 7.3143 0
M  V30 20963 H 1983.82 -3.09031 7.15626 0
M  V30 20964 N 1988.04 -1.56898 0.148573 0
M  V30 20965 C 1989.46 -1.82957 -0.371991 0
M  V30 20966 C 1989.81 -1.06735 -1.64627 0
M  V30 20967 O 1988.93 -0.313128 -2.14123 0
M  V30 20968 C 1989.53 -3.31871 -0.681682 0
M  V30 20969 C 1988.09 -3.58506 -1.14676 0
M  V30 20970 C 1987.23 -2.76774 -0.170675 0
M  V30 20971 H 1990.18 -1.54248 0.373244 0
M  V30 20972 H 1990.2 -3.48112 -1.53618 0
M  V30 20973 H 1989.72 -3.8732 0.245938 0
M  V30 20974 H 1987.82 -3.08445 -2.09027 0
M  V30 20975 H 1987.93 -4.66961 -1.07165 0
M  V30 20976 H 1986.29 -2.45903 -0.663611 0
M  V30 20977 H 1987.08 -3.34995 0.750563 0
M  V30 20978 N 1989.52 0.125209 -1.57102 0
M  V30 20979 C 1990.77 0.832627 -1.83712 0
M  V30 20980 C 1991.08 1.81336 -0.733261 0
M  V30 20981 O 1992.29 2.56651 -0.885592 0
M  V30 20982 C 1990.75 1.53143 -3.25692 0
M  V30 20983 C 1990.35 0.592004 -4.44071 0
M  V30 20984 C 1992.1 2.22435 -3.61556 0
M  V30 20985 C 1990.01 1.29368 -5.77077 0
M  V30 20986 H 1988.94 0.314685 -0.685193 0
M  V30 20987 H 1991.59 0.0853544 -1.83301 0
M  V30 20988 H 1989.97 2.32511 -3.20554 0
M  V30 20989 H 1991.14 -0.16801 -4.60494 0
M  V30 20990 H 1989.46 0.00637692 -4.164 0
M  V30 20991 H 1992.05 2.75611 -4.58195 0
M  V30 20992 H 1992.4 2.99947 -2.88683 0
M  V30 20993 H 1992.93 1.49962 -3.68451 0
M  V30 20994 H 1989.67 0.559975 -6.53104 0
M  V30 20995 H 1989.19 2.02586 -5.64552 0
M  V30 20996 H 1990.87 1.8286 -6.20622 0
M  V30 20997 N 1991 1.52564 0.395213 0
M  V30 20998 C 1992.25 1.67305 1.14085 0
M  V30 20999 C 1992.58 0.409869 1.90132 0
M  V30 21000 O 1991.83 -0.607574 1.8603 0
M  V30 21001 C 1992.13 2.85496 2.15004 0
M  V30 21002 C 1991.8 4.23179 1.55661 0
M  V30 21003 C 1990.46 4.60626 1.39202 0
M  V30 21004 C 1992.81 5.08923 1.12457 0
M  V30 21005 C 1990.14 5.81482 0.780775 0
M  V30 21006 C 1992.49 6.30397 0.527451 0
M  V30 21007 C 1991.15 6.66581 0.350111 0
M  V30 21008 H 1990.42 0.612211 0.417467 0
M  V30 21009 H 1993.07 1.86695 0.426269 0
M  V30 21010 H 1991.38 2.60496 2.92658 0
M  V30 21011 H 1993.07 2.94096 2.72595 0
M  V30 21012 H 1989.66 3.93678 1.69457 0
M  V30 21013 H 1993.85 4.80566 1.23976 0
M  V30 21014 H 1989.1 6.0813 0.631518 0
M  V30 21015 H 1993.28 6.96156 0.184351 0
M  V30 21016 H 1990.9 7.60096 -0.125616 0
M  V30 21017 N 1992.48 -0.653289 1.43422 0
M  V30 21018 C 1993.73 -1.41039 1.44749 0
M  V30 21019 C 1994.05 -1.94864 0.0728692 0
M  V30 21020 O 1993.32 -1.74425 -0.891782 0
M  V30 21021 H 1991.9 -0.523445 0.53293 0
M  V30 21022 H 1994.56 -0.770483 1.79024 0
M  V30 21023 H 1993.66 -2.25278 2.16001 0
M  V30 21024 N 1993.96 -1.29952 -0.891648 0
M  V30 21025 C 1995.18 -1.21422 -1.68141 0
M  V30 21026 C 1995.61 0.220633 -1.86802 0
M  V30 21027 O 1994.96 1.15902 -1.39414 0
M  V30 21028 C 1995.01 -1.94116 -3.03894 0
M  V30 21029 O 1994.12 -1.26369 -3.92562 0
M  V30 21030 H 1993.46 -0.420318 -0.514032 0
M  V30 21031 H 1995.99 -1.71658 -1.11331 0
M  V30 21032 H 1996 -2.02881 -3.53982 0
M  V30 21033 H 1994.67 -2.98474 -2.89631 0
M  V30 21034 H 1993.25 -1.25915 -3.50998 0
M  V30 21035 N 1995.44 1.1031 -1.12559 0
M  V30 21036 C 1996.68 1.82567 -0.883005 0
M  V30 21037 C 1997.01 1.85031 0.589667 0
M  V30 21038 O 1996.29 1.3119 1.43595 0
M  V30 21039 C 1996.57 3.29171 -1.46009 0
M  V30 21040 C 1996.43 3.35032 -3.00122 0
M  V30 21041 C 1997.74 4.25591 -1.12073 0
M  V30 21042 H 1994.86 0.662829 -0.322221 0
M  V30 21043 H 1997.51 1.29276 -1.3924 0
M  V30 21044 H 1995.66 3.74684 -1.02685 0
M  V30 21045 H 1997.33 2.9799 -3.52135 0
M  V30 21046 H 1995.57 2.74892 -3.35584 0
M  V30 21047 H 1996.24 4.3827 -3.35595 0
M  V30 21048 H 1998.72 3.88318 -1.49494 0
M  V30 21049 H 1997.59 5.26528 -1.55112 0
M  V30 21050 H 1997.85 4.42088 -0.0331138 0
M  V30 21051 N 1996.91 0.917694 1.28125 0
M  V30 21052 C 1998.33 0.616431 1.47215 0
M  V30 21053 C 1998.53 -0.837161 1.83286 0
M  V30 21054 O 1997.59 -1.61591 1.94022 0
M  V30 21055 C 1998.9 1.55772 2.57207 0
M  V30 21056 C 2000.45 1.56486 2.71074 0
M  V30 21057 C 2000.92 2.49286 3.84214 0
M  V30 21058 N 2002.41 2.47436 3.91573 0
M  V30 21059 C 2003.15 3.15936 4.7851 0
M  V30 21060 N 2002.64 3.9378 5.70008 0
M  V30 21061 N 2004.44 3.05004 4.72154 0
M  V30 21062 H 1996.59 1.85758 1.02993 0
M  V30 21063 H 1998.85 0.796969 0.513366 0
M  V30 21064 H 1998.56 2.59423 2.37471 0
M  V30 21065 H 1998.43 1.2918 3.5439 0
M  V30 21066 H 2000.82 0.535708 2.90197 0
M  V30 21067 H 2000.9 1.87122 1.7441 0
M  V30 21068 H 2000.54 3.52306 3.65846 0
M  V30 21069 H 2000.47 2.1595 4.80284 0
M  V30 21070 H 2002.96 1.90893 3.26141 0
M  V30 21071 H 2003.28 4.43058 6.33182 0
M  V30 21072 H 2001.62 3.97885 5.69836 0
M  V30 21073 H 2004.81 2.4369 3.99666 0
M  V30 21074 H 2004.99 3.5866 5.39691 0
M  V30 21075 N 1998.39 -1.42074 0.682102 0
M  V30 21076 C 1999.62 -2.05769 0.216029 0
M  V30 21077 C 2000.03 -1.51278 -1.12962 0
M  V30 21078 O 1999.39 -0.655521 -1.70321 0
M  V30 21079 C 1999.44 -3.61187 0.150351 0
M  V30 21080 O 1999.16 -4.13659 1.44283 0
M  V30 21081 C 2000.66 -4.42007 -0.338339 0
M  V30 21082 H 1997.88 -0.662997 0.103326 0
M  V30 21083 H 2000.43 -1.82084 0.930895 0
M  V30 21084 H 1998.58 -3.83958 -0.515249 0
M  V30 21085 H 1999 -5.07592 1.32101 0
M  V30 21086 H 2000.47 -5.50994 -0.33319 0
M  V30 21087 H 2000.95 -4.17125 -1.37489 0
M  V30 21088 H 2001.55 -4.2427 0.295782 0
M  V30 21089 N 1999.87 -0.425924 -1.51735 0
M  V30 21090 C 2000.82 0.391248 -2.2746 0
M  V30 21091 C 2001.79 1.02669 -1.30569 0
M  V30 21092 O 2002.97 1.04777 -1.59457 0
M  V30 21093 C 2000.11 1.4928 -3.11142 0
M  V30 21094 C 1999.22 0.876622 -4.23012 0
M  V30 21095 C 1998.36 1.95227 -4.94024 0
M  V30 21096 C 1997.4 1.31392 -5.97832 0
M  V30 21097 N 1996.54 2.33043 -6.62296 0
M  V30 21098 H 2001.38 -0.26089 -2.96856 0
M  V30 21099 H 1998.91 -0.1405 -1.46427 0
M  V30 21100 H 2000.87 2.14262 -3.57977 0
M  V30 21101 H 1999.5 2.11473 -2.43884 0
M  V30 21102 H 1998.55 0.115399 -3.80225 0
M  V30 21103 H 1999.86 0.370471 -4.97422 0
M  V30 21104 H 1999.02 2.67897 -5.44349 0
M  V30 21105 H 1997.76 2.49212 -4.19219 0
M  V30 21106 H 1996.76 0.572626 -5.4681 0
M  V30 21107 H 1997.99 0.781544 -6.74588 0
M  V30 21108 H 1995.93 2.86129 -5.9031 0
M  V30 21109 H 1995.85 1.87287 -7.32434 0
M  V30 21110 H 1997.12 3.05231 -7.17255 0
M  V30 21111 N 2001.35 1.56817 -0.156891 0
M  V30 21112 C 2002.76 1.83151 0.362283 0
M  V30 21113 C 2003.11 1.07606 1.64059 0
M  V30 21114 O 2002.23 0.324479 2.13953 0
M  V30 21115 C 2002.83 3.32228 0.664072 0
M  V30 21116 C 2001.39 3.59109 1.12773 0
M  V30 21117 C 2000.54 2.76861 0.155995 0
M  V30 21118 H 2003.49 1.54048 -0.381419 0
M  V30 21119 H 2003.51 3.48921 1.5177 0
M  V30 21120 H 2003.02 3.87184 -0.266475 0
M  V30 21121 H 2001.12 3.0955 2.07388 0
M  V30 21122 H 2001.23 4.67523 1.04687 0
M  V30 21123 H 1999.6 2.46251 0.650561 0
M  V30 21124 H 2000.38 3.34592 -0.768318 0
M  V30 21125 N 2002.83 -0.116876 1.57166 0
M  V30 21126 C 2004.1 -0.854715 1.75937 0
M  V30 21127 C 2004.48 -1.97969 0.732908 0
M  V30 21128 O 2003.83 -2.27207 -0.242738 0
M  V30 21129 C 2004.04 -1.36944 3.2101 0
M  V30 21130 C 2005.39 -1.82093 3.83572 0
M  V30 21131 O 2006.41 -1.46618 3.24625 0
M  V30 21132 O 2005.27 -2.47614 4.87186 0
M  V30 21133 H 2002.37 -0.40605 0.720453 0
M  V30 21134 H 2004.91 -0.100451 1.69402 0
M  V30 21135 H 2003.68 -0.56241 3.87237 0
M  V30 21136 H 2003.31 -2.18635 3.32091 0
M  V30 21137 N 2004.3 -1.52772 -0.387116 0
M  V30 21138 C 2005.25 -1.77684 -1.47299 0
M  V30 21139 C 2006.22 -0.620145 -1.54089 0
M  V30 21140 O 2007.41 -0.860064 -1.70316 0
M  V30 21141 C 2004.55 -1.95321 -2.84506 0
M  V30 21142 C 2003.66 -3.23016 -2.86853 0
M  V30 21143 C 2002.79 -3.30959 -4.15499 0
M  V30 21144 C 2001.83 -4.5277 -4.11905 0
M  V30 21145 N 2000.97 -4.57985 -5.3216 0
M  V30 21146 H 2005.81 -2.70351 -1.25356 0
M  V30 21147 H 2003.35 -1.33943 -0.608094 0
M  V30 21148 H 2005.3 -2.03531 -3.64185 0
M  V30 21149 H 2003.93 -1.06012 -3.04895 0
M  V30 21150 H 2002.99 -3.23868 -1.99534 0
M  V30 21151 H 2004.3 -4.12753 -2.80066 0
M  V30 21152 H 2003.45 -3.38363 -5.03583 0
M  V30 21153 H 2002.19 -2.392 -4.25011 0
M  V30 21154 H 2001.2 -4.4549 -3.22209 0
M  V30 21155 H 2002.42 -5.45848 -4.04013 0
M  V30 21156 H 2000.37 -3.69118 -5.42299 0
M  V30 21157 H 2000.28 -5.41596 -5.27456 0
M  V30 21158 H 2001.55 -4.69645 -6.22136 0
M  V30 21159 N 2005.78 0.645673 -1.43767 0
M  V30 21160 C 2007.03 1.40137 -1.45067 0
M  V30 21161 C 2007.34 1.9543 -0.0815041 0
M  V30 21162 O 2008.55 2.71486 0.0280161 0
M  V30 21163 C 2007.01 2.53651 -2.55322 0
M  V30 21164 C 2006.61 2.04934 -3.98379 0
M  V30 21165 C 2008.36 3.30964 -2.65826 0
M  V30 21166 C 2006.26 3.15703 -5.00086 0
M  V30 21167 H 2005.19 0.52657 -0.539667 0
M  V30 21168 H 2007.85 0.696144 -1.69782 0
M  V30 21169 H 2006.23 3.26681 -2.23821 0
M  V30 21170 H 2007.4 1.38865 -4.39378 0
M  V30 21171 H 2005.72 1.40478 -3.91988 0
M  V30 21172 H 2008.31 4.13513 -3.38986 0
M  V30 21173 H 2008.66 3.79492 -1.71149 0
M  V30 21174 H 2009.19 2.65018 -2.96665 0
M  V30 21175 H 2005.93 2.72136 -5.96341 0
M  V30 21176 H 2005.45 3.80459 -4.63693 0
M  V30 21177 H 2007.13 3.80714 -5.23131 0
M  V30 21178 N 2007.26 1.30423 0.884744 0
M  V30 21179 C 2008.19 1.12637 1.99613 0
M  V30 21180 C 2009.2 0.0695549 1.62651 0
M  V30 21181 O 2010.39 0.315593 1.75688 0
M  V30 21182 C 2007.49 0.695652 3.31683 0
M  V30 21183 C 2006.67 1.83427 3.97081 0
M  V30 21184 C 2005.73 1.39206 5.07453 0
M  V30 21185 O 2004.75 2.09931 5.29072 0
M  V30 21186 N 2005.95 0.27121 5.79866 0
M  V30 21187 H 2008.72 2.0836 2.15421 0
M  V30 21188 H 2006.28 1.22561 1.05784 0
M  V30 21189 H 2008.27 0.382828 4.02885 0
M  V30 21190 H 2006.84 -0.169542 3.1214 0
M  V30 21191 H 2006.06 2.31519 3.19049 0
M  V30 21192 H 2007.35 2.5973 4.37513 0
M  V30 21193 H 2006.75 -0.318111 5.64805 0
M  V30 21194 H 2005.3 0.0178406 6.51798 0
M  V30 21195 N 2008.74 -1.09711 1.13142 0
M  V30 21196 C 2009.69 -2.18355 0.801498 0
M  V30 21197 C 2010.68 -1.68031 -0.214907 0
M  V30 21198 O 2011.89 -1.79855 -0.0723523 0
M  V30 21199 H 2008.26 -0.712202 0.241398 0
M  V30 21200 H 2010.23 -2.43416 1.72601 0
M  V30 21201 C 2008.98 -3.46566 0.280613 0
M  V30 21202 H 2008.3 -3.85656 1.05403 0
M  V30 21203 H 2009.74 -4.23908 0.0881579 0
M  V30 21204 C 2008.2 -3.21932 -0.993053 0
M  V30 21205 O 2008.73 -3.44292 -2.06944 0
M  V30 21206 N 2006.94 -2.75553 -0.922971 0
M  V30 21207 H 2006.49 -2.57557 -0.0468975 0
M  V30 21208 H 2006.44 -2.59449 -1.77577 0
M  V30 21209 N 2010.22 -0.924476 -1.27637 0
M  V30 21210 C 2011.15 -0.438348 -2.29349 0
M  V30 21211 C 2012.13 0.499673 -1.62595 0
M  V30 21212 O 2013.31 0.405114 -1.89928 0
M  V30 21213 C 2010.44 0.312668 -3.4589 0
M  V30 21214 C 2009.4 -0.537216 -4.24615 0
M  V30 21215 C 2008.72 0.342776 -5.336 0
M  V30 21216 C 2010.02 -1.80003 -4.90302 0
M  V30 21217 H 2011.72 -1.28838 -2.70261 0
M  V30 21218 H 2009.26 -0.620964 -1.29923 0
M  V30 21219 H 2011.22 0.66367 -4.16141 0
M  V30 21220 H 2009.94 1.1967 -3.03886 0
M  V30 21221 H 2008.6 -0.870883 -3.56106 0
M  V30 21222 H 2008.25 1.22567 -4.87838 0
M  V30 21223 H 2007.95 -0.222352 -5.87179 0
M  V30 21224 H 2009.47 0.689422 -6.06695 0
M  V30 21225 H 2010.88 -1.51729 -5.52857 0
M  V30 21226 H 2009.28 -2.3084 -5.53925 0
M  V30 21227 H 2010.35 -2.52148 -4.14186 0
M  V30 21228 N 2011.69 1.41711 -0.689627 0
M  V30 21229 C 2012.64 2.28 0.00249406 0
M  V30 21230 C 2013.63 1.41884 0.75879 0
M  V30 21231 O 2014.82 1.65207 0.635261 0
M  V30 21232 C 2011.95 3.30111 0.942438 0
M  V30 21233 C 2011.04 4.23706 0.182705 0
M  V30 21234 N 2011.43 4.99103 -0.820339 0
M  V30 21235 C 2009.72 4.44027 0.41904 0
M  V30 21236 C 2010.43 5.67564 -1.27459 0
M  V30 21237 N 2009.4 5.4026 -0.60165 0
M  V30 21238 H 2013.2 2.83725 -0.766648 0
M  V30 21239 H 2010.72 1.53851 -0.519952 0
M  V30 21240 H 2012.71 3.90746 1.45338 0
M  V30 21241 H 2011.37 2.75947 1.71124 0
M  V30 21242 H 2012.39 5.03797 -1.20038 0
M  V30 21243 H 2009.06 4.00882 1.16619 0
M  V30 21244 H 2010.45 6.38022 -2.10659 0
M  V30 21245 N 2013.17 0.433965 1.51507 0
M  V30 21246 C 2014.41 -0.132843 2.03968 0
M  V30 21247 C 2014.78 -1.40254 1.31122 0
M  V30 21248 O 2015.98 -2.04937 1.73937 0
M  V30 21249 C 2014.25 -0.349825 3.55684 0
M  V30 21250 S 2015.81 -0.880522 4.29875 0
M  V30 21251 H 2012.63 -0.0334314 0.710214 0
M  V30 21252 H 2015.23 0.592595 1.86302 0
M  V30 21253 H 2013.93 0.580659 4.06271 0
M  V30 21254 H 2013.46 -1.10244 3.77637 0
M  V30 21255 H 2015.48 -2.15847 4.46794 0
M  V30 21256 N 2014.65 -1.56732 0.165206 0
M  V30 21257 C 2016.07 -1.58453 -0.191031 0
M  V30 21258 C 2016.27 -1.1803 -1.63313 0
M  V30 21259 O 2015.32 -0.889055 -2.3633 0
M  V30 21260 C 2016.64 -3.00582 0.0842414 0
M  V30 21261 C 2018.18 -3.12992 0.0219686 0
M  V30 21262 C 2018.66 -4.57203 0.270149 0
M  V30 21263 N 2020.15 -4.62688 0.217711 0
M  V30 21264 C 2020.88 -5.72113 0.383998 0
M  V30 21265 N 2020.38 -6.90118 0.609007 0
M  V30 21266 N 2022.17 -5.61187 0.320329 0
M  V30 21267 H 2014.32 -1.81296 1.1066 0
M  V30 21268 H 2016.59 -0.839986 0.439463 0
M  V30 21269 H 2016.29 -3.3461 1.083 0
M  V30 21270 H 2016.17 -3.71954 -0.62693 0
M  V30 21271 H 2018.55 -2.78794 -0.967358 0
M  V30 21272 H 2018.64 -2.44069 0.765755 0
M  V30 21273 H 2018.28 -4.92108 1.25666 0
M  V30 21274 H 2018.21 -5.24276 -0.494177 0
M  V30 21275 H 2020.7 -3.77868 0.0491965 0
M  V30 21276 H 2021.01 -7.69387 0.725507 0
M  V30 21277 H 2019.36 -6.91995 0.645549 0
M  V30 21278 H 2022.55 -4.67875 0.145176 0
M  V30 21279 H 2022.72 -6.46412 0.453351 0
M  V30 21280 N 2016.13 0.10854 -1.57226 0
M  V30 21281 C 2017.54 0.664549 -1.74472 0
M  V30 21282 C 2017.89 1.79792 -0.785438 0
M  V30 21283 O 2017.02 2.16364 0.0392281 0
M  V30 21284 C 2017.61 1.21227 -3.16369 0
M  V30 21285 C 2016.17 1.71447 -3.35086 0
M  V30 21286 C 2015.32 0.618471 -2.70315 0
M  V30 21287 H 2018.27 -0.11745 -1.58265 0
M  V30 21288 H 2018.29 2.08181 -3.18498 0
M  V30 21289 H 2017.8 0.387164 -3.86164 0
M  V30 21290 H 2015.9 2.56402 -2.7035 0
M  V30 21291 H 2016.01 1.81672 -4.4332 0
M  V30 21292 H 2014.38 1.05465 -2.31839 0
M  V30 21293 H 2015.16 -0.195832 -3.42741 0
M  V30 21294 N 2017.61 1.52975 0.379009 0
M  V30 21295 C 2018.54 1.74729 1.48332 0
M  V30 21296 C 2019.55 0.627862 1.50206 0
M  V30 21297 O 2020.74 0.903805 1.53927 0
M  V30 21298 C 2017.84 1.79998 2.87148 0
M  V30 21299 C 2017.01 3.09452 3.09125 0
M  V30 21300 C 2016.07 3.06138 4.27979 0
M  V30 21301 O 2015.1 3.79976 4.23801 0
M  V30 21302 N 2016.3 2.26019 5.34692 0
M  V30 21303 H 2019.07 2.70011 1.30054 0
M  V30 21304 H 2016.63 1.51586 0.568617 0
M  V30 21305 H 2018.62 1.75275 3.64775 0
M  V30 21306 H 2017.19 0.920593 2.98737 0
M  V30 21307 H 2016.41 3.27586 2.19274 0
M  V30 21308 H 2017.7 3.9503 3.20669 0
M  V30 21309 H 2017.09 1.65515 5.40945 0
M  V30 21310 H 2015.65 2.27126 6.10948 0
M  V30 21311 N 2019.08 -0.63804 1.44107 0
M  V30 21312 C 2020.03 -1.77153 1.5073 0
M  V30 21313 C 2021.03 -1.65093 0.379567 0
M  V30 21314 O 2022.23 -1.71255 0.554218 0
M  V30 21315 H 2018.61 -0.584742 0.472843 0
M  V30 21316 H 2020.58 -1.68689 2.46143 0
M  V30 21317 C 2019.33 -3.15467 1.46204 0
M  V30 21318 H 2018.65 -3.25392 2.32293 0
M  V30 21319 H 2020.09 -3.94693 1.54899 0
M  V30 21320 C 2018.55 -3.36409 0.181784 0
M  V30 21321 O 2019.08 -3.94621 -0.750818 0
M  V30 21322 N 2017.29 -2.90469 0.0871207 0
M  V30 21323 H 2016.83 -2.43281 0.846871 0
M  V30 21324 H 2016.79 -3.04857 -0.768744 0
M  V30 21325 N 2020.56 -1.3089 -0.877815 0
M  V30 21326 C 2021.79 -1.23199 -1.66844 0
M  V30 21327 C 2022.21 0.200808 -1.87025 0
M  V30 21328 O 2021.57 1.14417 -1.40636 0
M  V30 21329 C 2021.62 -1.97328 -3.01818 0
M  V30 21330 O 2020.72 -1.30526 -3.91199 0
M  V30 21331 H 2020.06 -0.425746 -0.509545 0
M  V30 21332 H 2022.59 -1.7283 -1.09504 0
M  V30 21333 H 2022.6 -2.06624 -3.51811 0
M  V30 21334 H 2021.28 -3.01529 -2.86449 0
M  V30 21335 H 2019.86 -1.29631 -3.49643 0
M  V30 21336 N 2022.04 1.0911 -1.13723 0
M  V30 21337 C 2023.27 1.85108 -0.924265 0
M  V30 21338 C 2023.68 1.81295 0.527025 0
M  V30 21339 O 2023.04 1.21144 1.36493 0
M  V30 21340 C 2023.09 3.3295 -1.40807 0
M  V30 21341 O 2022.81 3.36738 -2.80249 0
M  V30 21342 C 2024.31 4.25778 -1.23401 0
M  V30 21343 H 2021.53 0.584594 -0.329379 0
M  V30 21344 H 2024.08 1.37847 -1.51058 0
M  V30 21345 H 2022.23 3.77627 -0.864679 0
M  V30 21346 H 2022.65 4.28973 -3.01799 0
M  V30 21347 H 2024.12 5.27655 -1.62123 0
M  V30 21348 H 2024.6 4.38847 -0.176058 0
M  V30 21349 H 2025.2 3.8692 -1.76559 0
M  V30 21350 N 2023.52 0.931232 1.27145 0
M  V30 21351 C 2024.48 0.43771 2.24982 0
M  V30 21352 C 2025.48 -0.445689 1.545 0
M  V30 21353 O 2026.67 -0.24627 1.7245 0
M  V30 21354 C 2023.8 -0.370327 3.38883 0
M  V30 21355 H 2025 1.30217 2.70154 0
M  V30 21356 H 2022.55 0.712252 1.39128 0
M  V30 21357 H 2023.28 -1.25346 2.99097 0
M  V30 21358 H 2023.07 0.263109 3.91216 0
M  V30 21359 H 2024.56 -0.705876 4.11591 0
M  V30 21360 N 2025 -1.41343 0.697132 0
M  V30 21361 C 2026.25 -2.00432 0.225852 0
M  V30 21362 C 2026.56 -1.55857 -1.18186 0
M  V30 21363 O 2027.77 -2.07516 -1.75069 0
M  V30 21364 C 2026.22 -3.58166 0.352888 0
M  V30 21365 C 2025.83 -4.11721 1.76607 0
M  V30 21366 C 2027.57 -4.2446 -0.0585393 0
M  V30 21367 C 2025.48 -5.61895 1.84467 0
M  V30 21368 H 2024.41 -0.749671 0.0806811 0
M  V30 21369 H 2027.06 -1.61804 0.865556 0
M  V30 21370 H 2025.44 -3.94405 -0.355093 0
M  V30 21371 H 2026.62 -3.86898 2.50293 0
M  V30 21372 H 2024.93 -3.57959 2.12731 0
M  V30 21373 H 2027.53 -5.34696 -0.0202684 0
M  V30 21374 H 2027.87 -4.01572 -1.09752 0
M  V30 21375 H 2028.41 -3.93261 0.599221 0
M  V30 21376 H 2025.14 -5.89612 2.86423 0
M  V30 21377 H 2024.66 -5.8864 1.15167 0
M  V30 21378 H 2026.34 -6.26692 1.60828 0
M  V30 21379 N 2026.48 -0.441993 -1.51275 0
M  V30 21380 C 2027.44 0.355502 -2.26426 0
M  V30 21381 C 2028.44 0.945699 -1.30051 0
M  V30 21382 O 2029.63 0.819422 -1.53724 0
M  V30 21383 C 2026.76 1.50344 -3.05957 0
M  V30 21384 H 2027.95 -0.303177 -2.98364 0
M  V30 21385 H 2025.51 -0.195279 -1.55075 0
M  V30 21386 H 2026.24 2.19803 -2.38447 0
M  V30 21387 H 2026.03 1.08636 -3.7675 0
M  V30 21388 H 2027.52 2.06676 -3.6287 0
M  V30 21389 N 2027.95 1.56642 -0.173515 0
M  V30 21390 C 2029.19 1.98845 0.473303 0
M  V30 21391 C 2029.56 1.05721 1.60272 0
M  V30 21392 O 2030.76 1.37073 2.31224 0
M  V30 21393 C 2029.03 3.44767 0.94185 0
M  V30 21394 S 2030.59 4.08998 1.58954 0
M  V30 21395 H 2027.41 0.694527 0.152161 0
M  V30 21396 H 2030.01 1.93606 -0.271494 0
M  V30 21397 H 2028.71 4.10254 0.109473 0
M  V30 21398 H 2028.24 3.53776 1.72063 0
M  V30 21399 H 2030.26 4.04227 2.87775 0
M  V30 21400 N 2029.43 -0.1002 1.57281 0
M  V30 21401 C 2030.66 -0.82219 1.90407 0
M  V30 21402 C 2031.08 -1.71739 0.767297 0
M  V30 21403 O 2030.44 -1.79103 -0.281369 0
M  V30 21404 C 2030.49 -1.61579 3.22373 0
M  V30 21405 O 2029.59 -2.72433 3.09603 0
M  V30 21406 H 2028.93 -0.2262 0.624283 0
M  V30 21407 H 2031.46 -0.0769557 2.04455 0
M  V30 21408 H 2031.47 -2.00109 3.55556 0
M  V30 21409 H 2030.15 -0.958772 4.04698 0
M  V30 21410 H 2028.72 -2.36968 2.87925 0
M  V30 21411 N 2030.91 -1.53174 -0.370891 0
M  V30 21412 C 2032.16 -1.70296 -1.11224 0
M  V30 21413 C 2032.51 -0.446551 -1.87146 0
M  V30 21414 O 2031.8 0.5603 -1.83224 0
M  V30 21415 C 2032 -2.88881 -2.10435 0
M  V30 21416 C 2031.83 -4.25933 -1.4426 0
M  V30 21417 C 2030.6 -4.90869 -1.19898 0
M  V30 21418 C 2032.79 -5.06661 -0.883105 0
M  V30 21419 N 2030.78 -6.11859 -0.500174 0
M  V30 21420 C 2032.15 -6.19208 -0.313371 0
M  V30 21421 C 2034.2 -4.91732 -0.781276 0
M  V30 21422 C 2032.91 -7.18456 0.348255 0
M  V30 21423 C 2034.93 -5.91249 -0.13344 0
M  V30 21424 C 2034.29 -7.03114 0.425443 0
M  V30 21425 H 2030.39 -0.676462 -0.392331 0
M  V30 21426 H 2032.98 -1.90561 -0.399329 0
M  V30 21427 H 2031.15 -2.70164 -2.79044 0
M  V30 21428 H 2032.88 -2.94852 -2.77208 0
M  V30 21429 H 2029.63 -4.49919 -1.47884 0
M  V30 21430 H 2030.06 -6.76796 -0.16629 0
M  V30 21431 H 2034.7 -4.05439 -1.19914 0
M  V30 21432 H 2032.42 -8.04345 0.778081 0
M  V30 21433 H 2036 -5.81773 -0.0556501 0
M  V30 21434 H 2034.88 -7.78799 0.918808 0
M  V30 21435 N 2032.39 0.630389 -1.44443 0
M  V30 21436 C 2033.64 1.38591 -1.46545 0
M  V30 21437 C 2033.95 1.95333 -0.102227 0
M  V30 21438 O 2035.16 2.715 -0.000780135 0
M  V30 21439 C 2033.61 2.50929 -2.57998 0
M  V30 21440 C 2033.22 2.00697 -4.00531 0
M  V30 21441 C 2034.96 3.28126 -2.69321 0
M  V30 21442 C 2032.87 3.10381 -5.03406 0
M  V30 21443 H 2031.8 0.520816 -0.545221 0
M  V30 21444 H 2034.45 0.678097 -1.70511 0
M  V30 21445 H 2032.83 3.24288 -2.27273 0
M  V30 21446 H 2034.01 1.34197 -4.40826 0
M  V30 21447 H 2032.32 1.36313 -3.93456 0
M  V30 21448 H 2034.92 4.09894 -3.43353 0
M  V30 21449 H 2035.26 3.77655 -1.75164 0
M  V30 21450 H 2035.8 2.61857 -2.99459 0
M  V30 21451 H 2032.53 2.65795 -5.99194 0
M  V30 21452 H 2032.05 3.7552 -4.67702 0
M  V30 21453 H 2033.73 3.75144 -5.27139 0
M  V30 21454 N 2033.87 1.31354 0.870861 0
M  V30 21455 C 2035.28 1.18891 1.43951 0
M  V30 21456 C 2035.63 -0.204961 1.95126 0
M  V30 21457 O 2034.75 -1.10266 1.862 0
M  V30 21458 C 2035.35 2.15226 2.61655 0
M  V30 21459 C 2033.91 2.06699 3.14567 0
M  V30 21460 C 2033.05 2.04505 1.87277 0
M  V30 21461 H 2036 1.43418 0.679486 0
M  V30 21462 H 2036.03 1.74134 3.38316 0
M  V30 21463 H 2035.54 3.16664 2.24378 0
M  V30 21464 H 2033.64 1.08452 3.56467 0
M  V30 21465 H 2033.75 2.95763 3.7691 0
M  V30 21466 H 2032.12 1.49508 2.06202 0
M  V30 21467 H 2032.9 3.07698 1.52239 0
M  V30 21468 N 2035.34 -1.08505 1.143 0
M  V30 21469 C 2036.75 -1.62355 0.921836 0
M  V30 21470 C 2037.11 -1.88635 -0.539569 0
M  V30 21471 O 2036.23 -1.64307 -1.40827 0
M  V30 21472 C 2036.83 -2.94955 1.66694 0
M  V30 21473 C 2035.38 -3.45593 1.49139 0
M  V30 21474 C 2034.53 -2.19845 1.69008 0
M  V30 21475 H 2037.48 -0.917442 1.29494 0
M  V30 21476 H 2037.5 -3.63348 1.12954 0
M  V30 21477 H 2037.02 -2.75796 2.73053 0
M  V30 21478 H 2035.12 -3.69858 0.451226 0
M  V30 21479 H 2035.23 -4.2241 2.26068 0
M  V30 21480 H 2033.59 -2.28966 1.11565 0
M  V30 21481 H 2034.38 -2.03194 2.76707 0
M  V30 21482 N 2036.82 -0.937962 -1.26649 0
M  V30 21483 C 2038.1 -0.501822 -1.89053 0
M  V30 21484 C 2038.48 1.02047 -1.84796 0
M  V30 21485 O 2037.83 1.87909 -1.3001 0
M  V30 21486 C 2038.04 -1.05952 -3.32528 0
M  V30 21487 C 2039.38 -1.12622 -4.09391 0
M  V30 21488 O 2040.41 -1.00988 -3.41584 0
M  V30 21489 O 2039.27 -1.30677 -5.30646 0
M  V30 21490 H 2036.36 -0.163048 -0.810768 0
M  V30 21491 H 2038.91 -1.03032 -1.34843 0
M  V30 21492 H 2037.68 -2.10319 -3.29972 0
M  V30 21493 H 2037.3 -0.513282 -3.94273 0
M  V30 21494 N 2038.3 1.40971 -0.704618 0
M  V30 21495 C 2039.52 2.05921 -0.24728 0
M  V30 21496 C 2039.95 1.52708 1.09826 0
M  V30 21497 O 2039.31 0.657821 1.68945 0
M  V30 21498 C 2039.36 3.59896 -0.225274 0
M  V30 21499 O 2038.46 4.04625 0.797019 0
M  V30 21500 H 2037.8 0.65333 -0.118557 0
M  V30 21501 H 2040.33 1.80572 -0.962021 0
M  V30 21502 H 2040.34 4.07957 -0.0592095 0
M  V30 21503 H 2039.02 3.97993 -1.20725 0
M  V30 21504 H 2037.59 3.68048 0.599572 0
M  V30 21505 N 2039.78 0.45001 1.51039 0
M  V30 21506 C 2041.06 -0.172746 1.94836 0
M  V30 21507 C 2041.44 -1.58934 1.38936 0
M  V30 21508 O 2040.78 -2.20974 0.581609 0
M  V30 21509 C 2040.99 -0.137579 3.48729 0
M  V30 21510 C 2042.34 -0.33691 4.23261 0
M  V30 21511 O 2043.37 -0.215124 3.5555 0
M  V30 21512 O 2042.22 -0.580548 5.43408 0
M  V30 21513 H 2039.32 -0.12312 0.817784 0
M  V30 21514 H 2041.86 0.5089 1.6189 0
M  V30 21515 H 2040.64 0.852286 3.81905 0
M  V30 21516 H 2040.26 -0.861592 3.88152 0
M  V30 21517 N 2041.26 -1.56548 0.18182 0
M  V30 21518 C 2042.5 -1.97196 -0.460422 0
M  V30 21519 C 2042.83 -1.06822 -1.6254 0
M  V30 21520 O 2042.09 -0.104496 -1.95421 0
M  V30 21521 C 2042.39 -3.43837 -0.975236 0
M  V30 21522 C 2042.05 -4.50838 0.07496 0
M  V30 21523 C 2040.71 -4.79825 0.363562 0
M  V30 21524 C 2043.07 -5.1522 0.787246 0
M  V30 21525 C 2040.39 -5.70489 1.36966 0
M  V30 21526 C 2042.75 -6.06971 1.7824 0
M  V30 21527 C 2041.41 -6.3432 2.07834 0
M  V30 21528 H 2040.68 -0.721592 -0.16848 0
M  V30 21529 H 2043.33 -1.89501 0.275993 0
M  V30 21530 H 2041.63 -3.48537 -1.78967 0
M  V30 21531 H 2043.33 -3.72636 -1.48134 0
M  V30 21532 H 2039.92 -4.28301 -0.160151 0
M  V30 21533 H 2044.1 -4.92929 0.5775 0
M  V30 21534 H 2039.36 -5.89957 1.605 0
M  V30 21535 H 2043.53 -6.55922 2.33963 0
M  V30 21536 H 2041.16 -7.04374 2.85941 0
M  V30 21537 N 2042.73 0.0918577 -1.57332 0
M  V30 21538 C 2044.01 0.826617 -1.77275 0
M  V30 21539 C 2044.39 1.96778 -0.764311 0
M  V30 21540 O 2043.74 2.27564 0.20656 0
M  V30 21541 C 2043.95 1.3182 -3.23148 0
M  V30 21542 C 2045.3 1.75968 -3.8642 0
M  V30 21543 O 2046.32 1.41435 -3.26917 0
M  V30 21544 O 2045.18 2.39831 -4.91063 0
M  V30 21545 H 2042.27 0.394537 -0.726821 0
M  V30 21546 H 2044.82 0.0734883 -1.69541 0
M  V30 21547 H 2043.59 0.500733 -3.88083 0
M  V30 21548 H 2043.22 2.13324 -3.35527 0
M  V30 21549 N 2044.21 1.53368 0.362763 0
M  V30 21550 C 2045.46 1.69352 1.10292 0
M  V30 21551 C 2045.78 0.449366 1.89752 0
M  V30 21552 O 2045.05 -0.536608 1.88407 0
M  V30 21553 H 2043.63 0.62432 0.410162 0
M  V30 21554 H 2046.29 1.90567 0.408694 0
M  V30 21555 H 2045.39 2.55586 1.79115 0
M  V30 21556 N 2045.69 -0.62272 1.44776 0
M  V30 21557 C 2046.92 -1.40706 1.51279 0
M  V30 21558 C 2047.33 -1.88688 0.139108 0
M  V30 21559 O 2046.67 -1.61963 -0.866823 0
M  V30 21560 C 2046.73 -2.65579 2.42298 0
M  V30 21561 C 2046.4 -2.39338 3.89315 0
M  V30 21562 C 2047.39 -2.0064 4.79624 0
M  V30 21563 C 2045.08 -2.52717 4.34096 0
M  V30 21564 C 2047.07 -1.75662 6.12716 0
M  V30 21565 C 2044.76 -2.27354 5.67233 0
M  V30 21566 C 2045.76 -1.88886 6.56362 0
M  V30 21567 O 2045.45 -1.6381 7.87033 0
M  V30 21568 H 2045.18 -0.437662 0.515197 0
M  V30 21569 H 2047.73 -0.767982 1.90503 0
M  V30 21570 H 2045.96 -3.32154 1.98017 0
M  V30 21571 H 2047.65 -3.27598 2.39655 0
M  V30 21572 H 2048.42 -1.89853 4.46297 0
M  V30 21573 H 2044.3 -2.81628 3.64975 0
M  V30 21574 H 2047.84 -1.45562 6.82244 0
M  V30 21575 H 2043.74 -2.37753 6.0012 0
M  V30 21576 H 2044.51 -1.77986 7.98914 0
M  V30 21577 N 2047.17 -1.31814 -0.863883 0
M  V30 21578 C 2048.39 -1.24961 -1.65528 0
M  V30 21579 C 2048.82 0.18096 -1.87228 0
M  V30 21580 O 2048.18 1.12919 -1.41842 0
M  V30 21581 C 2048.22 -2.00518 -2.99708 0
M  V30 21582 O 2047.33 -1.34668 -3.89793 0
M  V30 21583 H 2046.67 -0.431127 -0.505001 0
M  V30 21584 H 2049.2 -1.73981 -1.07665 0
M  V30 21585 H 2049.21 -2.10344 -3.49599 0
M  V30 21586 H 2047.88 -3.0455 -2.83235 0
M  V30 21587 H 2046.46 -1.33332 -3.48249 0
M  V30 21588 N 2048.65 1.07897 -1.14873 0
M  V30 21589 C 2049.9 1.79765 -0.914736 0
M  V30 21590 C 2050.21 1.87416 0.559879 0
M  V30 21591 O 2051.41 2.55749 0.911294 0
M  V30 21592 C 2049.87 3.23014 -1.58713 0
M  V30 21593 C 2049.48 3.23581 -3.09837 0
M  V30 21594 C 2051.22 3.99529 -1.43446 0
M  V30 21595 C 2049.13 4.6145 -3.69889 0
M  V30 21596 H 2048.06 0.673704 -0.338585 0
M  V30 21597 H 2050.71 1.21148 -1.37824 0
M  V30 21598 H 2049.09 3.8179 -1.05131 0
M  V30 21599 H 2050.27 2.74482 -3.7013 0
M  V30 21600 H 2048.58 2.60562 -3.24802 0
M  V30 21601 H 2051.18 5.01415 -1.85708 0
M  V30 21602 H 2051.52 4.14551 -0.381226 0
M  V30 21603 H 2052.05 3.47235 -1.94094 0
M  V30 21604 H 2048.79 4.51632 -4.75088 0
M  V30 21605 H 2048.31 5.10809 -3.14378 0
M  V30 21606 H 2049.99 5.30422 -3.70488 0
M  V30 21607 N 2050.12 0.944665 1.2615 0
M  V30 21608 C 2051.03 0.463226 2.29981 0
M  V30 21609 C 2052.05 -0.464516 1.67685 0
M  V30 21610 O 2053.23 -0.343195 1.98454 0
M  V30 21611 C 2050.29 -0.260612 3.45719 0
M  V30 21612 C 2049.35 0.704117 4.23486 0
M  V30 21613 C 2048.59 0.0147279 5.33698 0
M  V30 21614 O 2048.81 -1.20155 5.57601 0
M  V30 21615 O 2047.74 0.695202 5.97872 0
M  V30 21616 H 2051.57 1.3258 2.73233 0
M  V30 21617 H 2049.15 0.710696 1.31413 0
M  V30 21618 H 2051.04 -0.668207 4.16068 0
M  V30 21619 H 2049.71 -1.09852 3.0449 0
M  V30 21620 H 2048.62 1.16172 3.55605 0
M  V30 21621 H 2049.95 1.50974 4.68474 0
M  V30 21622 N 2051.6 -1.40596 0.712085 0
M  V30 21623 C 2052.84 -2.0281 0.254462 0
M  V30 21624 C 2053.21 -1.55234 -1.12989 0
M  V30 21625 O 2054.41 -2.09487 -1.6843 0
M  V30 21626 C 2052.68 -3.55895 0.327689 0
M  V30 21627 S 2054.24 -4.38767 -0.0534624 0
M  V30 21628 H 2051.06 -0.703761 0.101197 0
M  V30 21629 H 2053.66 -1.71772 0.933528 0
M  V30 21630 H 2052.36 -3.88014 1.33692 0
M  V30 21631 H 2051.89 -3.91656 -0.369973 0
M  V30 21632 H 2053.91 -4.79499 -1.27652 0
M  V30 21633 N 2053.08 -0.458013 -1.50798 0
M  V30 21634 C 2054.5 -0.111425 -1.59211 0
M  V30 21635 C 2054.7 1.38104 -1.46729 0
M  V30 21636 O 2053.75 2.15306 -1.31907 0
M  V30 21637 C 2055.07 -0.649971 -2.93591 0
M  V30 21638 C 2056.61 -0.612237 -3.06954 0
M  V30 21639 C 2057.09 -1.1281 -4.43889 0
M  V30 21640 N 2058.58 -1.08696 -4.50266 0
M  V30 21641 C 2059.31 -1.45676 -5.54586 0
M  V30 21642 N 2058.81 -1.90042 -6.66225 0
M  V30 21643 N 2060.6 -1.37362 -5.45058 0
M  V30 21644 H 2052.75 -1.42885 -1.57155 0
M  V30 21645 H 2055.02 -0.590085 -0.741959 0
M  V30 21646 H 2054.72 -1.695 -3.0816 0
M  V30 21647 H 2054.6 -0.0862666 -3.77101 0
M  V30 21648 H 2056.98 0.42385 -2.9204 0
M  V30 21649 H 2057.07 -1.21259 -2.25233 0
M  V30 21650 H 2056.71 -2.16276 -4.59551 0
M  V30 21651 H 2056.64 -0.50409 -5.24182 0
M  V30 21652 H 2059.13 -0.761406 -3.7015 0
M  V30 21653 H 2059.44 -2.16442 -7.41871 0
M  V30 21654 H 2057.79 -1.93985 -6.67379 0
M  V30 21655 H 2060.98 -1.02552 -4.56728 0
M  V30 21656 H 2061.15 -1.66508 -6.26242 0
M  V30 21657 N 2054.56 1.56449 -0.190119 0
M  V30 21658 C 2055.51 2.1886 0.732745 0
M  V30 21659 C 2056.48 1.1343 1.21338 0
M  V30 21660 O 2057.66 1.4166 1.27817 0
M  V30 21661 C 2054.8 2.84809 1.94878 0
M  V30 21662 C 2053.91 4.04751 1.50998 0
M  V30 21663 C 2053.05 4.58572 2.68114 0
M  V30 21664 C 2052.09 5.70883 2.20815 0
M  V30 21665 N 2051.23 6.19132 3.3109 0
M  V30 21666 H 2056.07 2.97369 0.193776 0
M  V30 21667 H 2053.6 1.46861 0.0839065 0
M  V30 21668 H 2055.56 3.21213 2.66229 0
M  V30 21669 H 2054.19 2.08872 2.46115 0
M  V30 21670 H 2053.24 3.74043 0.69252 0
M  V30 21671 H 2054.55 4.85996 1.12292 0
M  V30 21672 H 2053.71 4.97256 3.47594 0
M  V30 21673 H 2052.45 3.76425 3.1009 0
M  V30 21674 H 2051.45 5.31733 1.39786 0
M  V30 21675 H 2052.68 6.54845 1.79875 0
M  V30 21676 H 2050.62 5.39908 3.72607 0
M  V30 21677 H 2050.54 6.95415 2.96538 0
M  V30 21678 H 2051.81 6.62468 4.108 0
M  V30 21679 N 2056.04 -0.0835127 1.57379 0
M  V30 21680 C 2056.97 -1.13193 1.98148 0
M  V30 21681 C 2057.95 -1.38213 0.856507 0
M  V30 21682 O 2059.13 -1.5178 1.11781 0
M  V30 21683 C 2056.26 -2.47874 2.30817 0
M  V30 21684 C 2055.31 -2.39062 3.53202 0
M  V30 21685 S 2056.14 -1.79599 5.04484 0
M  V30 21686 C 2057.29 -3.15881 5.40342 0
M  V30 21687 H 2057.53 -0.784436 2.86765 0
M  V30 21688 H 2055.06 -0.291621 1.51621 0
M  V30 21689 H 2057.02 -3.25351 2.50314 0
M  V30 21690 H 2055.68 -2.79788 1.4275 0
M  V30 21691 H 2054.87 -3.38355 3.73539 0
M  V30 21692 H 2054.47 -1.69718 3.33274 0
M  V30 21693 H 2056.77 -4.12176 5.37696 0
M  V30 21694 H 2057.71 -3.00336 6.41252 0
M  V30 21695 H 2058.12 -3.15947 4.67801 0
M  V30 21696 N 2057.52 -1.53558 -0.354624 0
M  V30 21697 C 2058.79 -1.60886 -1.11243 0
M  V30 21698 C 2059.17 -0.423192 -2.06815 0
M  V30 21699 O 2058.52 0.585579 -2.20869 0
M  V30 21700 C 2058.73 -2.96439 -1.84188 0
M  V30 21701 C 2060.08 -3.51404 -2.38329 0
M  V30 21702 O 2061.1 -2.9854 -1.94299 0
M  V30 21703 O 2059.96 -4.43843 -3.1885 0
M  V30 21704 H 2057.06 -0.650291 -0.510932 0
M  V30 21705 H 2059.6 -1.65902 -0.357007 0
M  V30 21706 H 2058.37 -3.74173 -1.145 0
M  V30 21707 H 2058 -2.94963 -2.66613 0
M  V30 21708 N 2058.99 0.615033 -1.45104 0
M  V30 21709 C 2060.22 1.40105 -1.52244 0
M  V30 21710 C 2060.64 1.88183 -0.152561 0
M  V30 21711 O 2059.99 1.61783 0.844537 0
M  V30 21712 C 2060.04 2.61056 -2.50064 0
M  V30 21713 O 2059.77 2.14979 -3.81727 0
M  V30 21714 C 2061.27 3.54003 -2.66828 0
M  V30 21715 H 2058.49 0.429133 -0.515835 0
M  V30 21716 H 2061.03 0.750744 -1.90221 0
M  V30 21717 H 2059.19 3.22145 -2.15178 0
M  V30 21718 H 2059.6 2.9351 -4.34686 0
M  V30 21719 H 2061.07 4.35434 -3.39266 0
M  V30 21720 H 2061.55 4.03861 -1.72606 0
M  V30 21721 H 2062.16 2.98773 -3.0268 0
M  V30 21722 N 2060.47 1.3227 0.85688 0
M  V30 21723 C 2061.4 1.16846 1.97179 0
M  V30 21724 C 2062.42 0.10404 1.62467 0
M  V30 21725 O 2063.61 0.352788 1.74979 0
M  V30 21726 C 2060.71 0.76585 3.30133 0
M  V30 21727 C 2059.88 1.91808 3.93101 0
M  V30 21728 C 2058.94 1.49939 5.04386 0
M  V30 21729 O 2057.96 2.21106 5.245 0
M  V30 21730 N 2059.17 0.394147 5.7916 0
M  V30 21731 H 2061.93 2.12882 2.10953 0
M  V30 21732 H 2059.49 1.24777 1.03161 0
M  V30 21733 H 2061.48 0.4682 4.01983 0
M  V30 21734 H 2060.05 -0.103295 3.12429 0
M  V30 21735 H 2059.27 2.38235 3.14067 0
M  V30 21736 H 2060.56 2.68952 4.31906 0
M  V30 21737 H 2059.96 -0.198236 5.65353 0
M  V30 21738 H 2058.52 0.156093 6.51613 0
M  V30 21739 N 2061.95 -1.07287 1.15444 0
M  V30 21740 C 2062.86 -2.18038 0.865835 0
M  V30 21741 C 2063.88 -1.7328 -0.15811 0
M  V30 21742 O 2065.05 -2.01394 0.016125 0
M  V30 21743 C 2062.12 -3.44827 0.359941 0
M  V30 21744 C 2061.18 -4.04148 1.44786 0
M  V30 21745 C 2060.41 -5.24885 0.966015 0
M  V30 21746 O 2060.63 -5.7009 -0.188161 0
M  V30 21747 O 2059.57 -5.75898 1.75 0
M  V30 21748 H 2063.39 -2.45218 1.7917 0
M  V30 21749 H 2060.98 -1.16637 0.933604 0
M  V30 21750 H 2062.86 -4.21316 0.0843019 0
M  V30 21751 H 2061.54 -3.19197 -0.538049 0
M  V30 21752 H 2060.44 -3.29195 1.77711 0
M  V30 21753 H 2061.78 -4.34051 2.32079 0
M  V30 21754 N 2063.43 -0.951342 -1.25647 0
M  V30 21755 C 2064.67 -0.605246 -1.93558 0
M  V30 21756 C 2065.01 0.85507 -1.74362 0
M  V30 21757 O 2064.28 1.61308 -1.08674 0
M  V30 21758 C 2064.56 -0.960718 -3.47048 0
M  V30 21759 C 2064.42 -2.47652 -3.75484 0
M  V30 21760 C 2065.74 -0.483409 -4.37437 0
M  V30 21761 H 2062.86 -0.22136 -0.702971 0
M  V30 21762 H 2065.5 -1.1874 -1.48327 0
M  V30 21763 H 2063.65 -0.465324 -3.85703 0
M  V30 21764 H 2065.32 -3.04543 -3.46484 0
M  V30 21765 H 2063.56 -2.91564 -3.21205 0
M  V30 21766 H 2064.23 -2.67575 -4.82812 0
M  V30 21767 H 2066.71 -0.908309 -4.06065 0
M  V30 21768 H 2065.59 -0.760858 -5.43601 0
M  V30 21769 H 2065.85 0.616645 -4.37778 0
M  V30 21770 N 2064.91 1.40216 -0.719531 0
M  V30 21771 C 2065.82 2.34494 -0.0706489 0
M  V30 21772 C 2066.83 1.5751 0.739372 0
M  V30 21773 O 2068.01 1.89879 0.671417 0
M  V30 21774 C 2065.07 3.36441 0.837178 0
M  V30 21775 C 2064.13 4.29297 0.0166603 0
M  V30 21776 C 2063.37 5.26374 0.881251 0
M  V30 21777 O 2063.59 5.29524 2.1204 0
M  V30 21778 O 2062.52 6.01059 0.318141 0
M  V30 21779 H 2066.35 2.91609 -0.848392 0
M  V30 21780 H 2063.93 1.41478 -0.480047 0
M  V30 21781 H 2065.82 3.98951 1.35707 0
M  V30 21782 H 2064.49 2.81733 1.594 0
M  V30 21783 H 2063.4 3.70059 -0.54839 0
M  V30 21784 H 2064.73 4.87168 -0.70203 0
M  V30 21785 N 2066.38 0.466004 1.50553 0
M  V30 21786 C 2067.63 -0.0907392 2.02297 0
M  V30 21787 C 2067.96 -1.40178 1.34835 0
M  V30 21788 O 2067.21 -1.90185 0.461328 0
M  V30 21789 C 2067.51 -0.32772 3.55894 0
M  V30 21790 C 2067.18 0.900994 4.41806 0
M  V30 21791 C 2065.84 1.23789 4.65005 0
M  V30 21792 C 2068.19 1.71933 4.92025 0
M  V30 21793 C 2065.52 2.39327 5.35667 0
M  V30 21794 C 2067.87 2.86595 5.63956 0
M  V30 21795 C 2066.54 3.20705 5.8541 0
M  V30 21796 H 2065.81 -0.0332038 0.740256 0
M  V30 21797 H 2068.45 0.619048 1.81218 0
M  V30 21798 H 2066.76 -1.1197 3.7546 0
M  V30 21799 H 2068.46 -0.772379 3.93491 0
M  V30 21800 H 2065.05 0.628519 4.23966 0
M  V30 21801 H 2069.23 1.47224 4.73961 0
M  V30 21802 H 2064.49 2.66035 5.50487 0
M  V30 21803 H 2068.66 3.50355 6.01851 0
M  V30 21804 H 2066.29 4.10341 6.39941 0
M  V30 21805 N 2067.86 -1.56346 0.198413 0
M  V30 21806 C 2069.09 -2.02502 -0.44809 0
M  V30 21807 C 2069.51 -1.07761 -1.54173 0
M  V30 21808 O 2068.87 -0.0616812 -1.81195 0
M  V30 21809 C 2068.92 -3.47073 -0.978394 0
M  V30 21810 O 2068.02 -3.55452 -2.09111 0
M  V30 21811 H 2067.36 -0.655753 -0.104324 0
M  V30 21812 H 2069.89 -2.02234 0.310265 0
M  V30 21813 H 2069.9 -3.86931 -1.29415 0
M  V30 21814 H 2068.58 -4.1552 -0.177819 0
M  V30 21815 H 2067.15 -3.27471 -1.78375 0
M  V30 21816 N 2069.34 0.0751653 -1.57421 0
M  V30 21817 C 2070.76 0.429873 -1.53702 0
M  V30 21818 C 2070.96 1.79369 -0.918103 0
M  V30 21819 O 2070.01 2.47105 -0.519159 0
M  V30 21820 C 2071.33 0.374037 -2.98365 0
M  V30 21821 C 2072.87 0.454466 -3.09683 0
M  V30 21822 C 2073.35 0.428572 -4.5599 0
M  V30 21823 N 2074.84 0.488746 -4.60614 0
M  V30 21824 C 2075.57 0.49087 -5.71295 0
M  V30 21825 N 2075.07 0.448011 -6.9135 0
M  V30 21826 N 2076.86 0.537175 -5.59527 0
M  V30 21827 H 2069.01 -0.817897 -1.96021 0
M  V30 21828 H 2071.28 -0.306554 -0.897067 0
M  V30 21829 H 2070.98 -0.561323 -3.47192 0
M  V30 21830 H 2070.86 1.18551 -3.58086 0
M  V30 21831 H 2073.24 1.38025 -2.60832 0
M  V30 21832 H 2073.33 -0.385521 -2.52878 0
M  V30 21833 H 2072.97 -0.493347 -5.05498 0
M  V30 21834 H 2072.9 1.28605 -5.10655 0
M  V30 21835 H 2075.39 0.526255 -3.74218 0
M  V30 21836 H 2075.7 0.453464 -7.71468 0
M  V30 21837 H 2074.05 0.414751 -6.93761 0
M  V30 21838 H 2077.24 0.568327 -4.64637 0
M  V30 21839 H 2077.41 0.535362 -6.45785 0
M  V30 21840 N 2070.82 1.53744 0.346476 0
M  V30 21841 C 2071.77 1.81527 1.42536 0
M  V30 21842 C 2072.74 0.660781 1.52391 0
M  V30 21843 O 2073.92 0.904918 1.67976 0
M  V30 21844 C 2071.06 2.02795 2.79228 0
M  V30 21845 C 2070.17 3.30508 2.78188 0
M  V30 21846 C 2069.31 3.41859 4.06578 0
M  V30 21847 C 2068.35 4.63532 3.99755 0
M  V30 21848 N 2067.48 4.71933 5.1983 0
M  V30 21849 H 2072.32 2.7358 1.18144 0
M  V30 21850 H 2069.86 1.35508 0.572368 0
M  V30 21851 H 2071.82 2.13115 3.58661 0
M  V30 21852 H 2070.45 1.14059 3.01978 0
M  V30 21853 H 2069.5 3.29044 1.90877 0
M  V30 21854 H 2070.81 4.20033 2.69024 0
M  V30 21855 H 2069.97 3.51595 4.94435 0
M  V30 21856 H 2068.71 2.50385 4.1852 0
M  V30 21857 H 2067.71 4.53876 3.10284 0
M  V30 21858 H 2068.94 5.56368 3.89399 0
M  V30 21859 H 2066.88 3.83367 5.32321 0
M  V30 21860 H 2066.8 5.5539 5.12911 0
M  V30 21861 H 2068.07 4.85975 6.09466 0
M  V30 21862 N 2072.3 -0.607329 1.45428 0
M  V30 21863 C 2073.23 -1.72873 1.56962 0
M  V30 21864 C 2074.21 -1.64804 0.421159 0
M  V30 21865 O 2075.39 -1.83199 0.64433 0
M  V30 21866 C 2072.52 -3.11476 1.53622 0
M  V30 21867 C 2071.48 -3.34357 2.67188 0
M  V30 21868 C 2070.8 -4.73236 2.48902 0
M  V30 21869 C 2072.1 -3.24586 4.09196 0
M  V30 21870 H 2073.8 -1.63477 2.5083 0
M  V30 21871 H 2071.34 -0.785054 1.20718 0
M  V30 21872 H 2073.3 -3.89725 1.60288 0
M  V30 21873 H 2072.02 -3.21714 0.562838 0
M  V30 21874 H 2070.68 -2.58499 2.5995 0
M  V30 21875 H 2070.33 -4.80206 1.49702 0
M  V30 21876 H 2070.03 -4.895 3.25059 0
M  V30 21877 H 2071.55 -5.53684 2.57422 0
M  V30 21878 H 2072.96 -3.92709 4.17676 0
M  V30 21879 H 2071.36 -3.52381 4.85745 0
M  V30 21880 H 2072.43 -2.22022 4.31085 0
M  V30 21881 N 2073.77 -1.32722 -0.849853 0
M  V30 21882 C 2074.68 -1.2407 -1.99108 0
M  V30 21883 C 2075.7 -0.153362 -1.73323 0
M  V30 21884 O 2076.88 -0.374928 -1.97879 0
M  V30 21885 C 2073.94 -0.96896 -3.32884 0
M  V30 21886 C 2073 -2.14522 -3.71859 0
M  V30 21887 C 2072.24 -1.88635 -4.99252 0
M  V30 21888 O 2072.46 -0.831259 -5.6431 0
M  V30 21889 O 2071.39 -2.74872 -5.35471 0
M  V30 21890 H 2075.22 -2.20019 -2.09345 0
M  V30 21891 H 2072.8 -1.1266 -0.981232 0
M  V30 21892 H 2074.69 -0.834109 -4.13062 0
M  V30 21893 H 2073.36 -0.0396635 -3.23676 0
M  V30 21894 H 2072.27 -2.33556 -2.92237 0
M  V30 21895 H 2073.6 -3.05747 -3.8572 0
M  V30 21896 N 2075.25 1.06673 -1.16011 0
M  V30 21897 C 2076.2 2.14051 -0.863174 0
M  V30 21898 C 2077.17 1.65046 0.186783 0
M  V30 21899 O 2078.35 1.90727 0.0528262 0
M  V30 21900 C 2075.49 3.43152 -0.366184 0
M  V30 21901 C 2074.61 4.05911 -1.47852 0
M  V30 21902 C 2073.74 5.22872 -0.936942 0
M  V30 21903 C 2072.78 5.77607 -2.02574 0
M  V30 21904 N 2071.92 6.85889 -1.50004 0
M  V30 21905 H 2076.76 2.38791 -1.78277 0
M  V30 21906 H 2074.3 1.17165 -0.889421 0
M  V30 21907 H 2076.25 4.17157 -0.0596984 0
M  V30 21908 H 2074.88 3.18641 0.516479 0
M  V30 21909 H 2073.94 3.29491 -1.90105 0
M  V30 21910 H 2075.25 4.42592 -2.3003 0
M  V30 21911 H 2074.4 6.03888 -0.583409 0
M  V30 21912 H 2073.14 4.87627 -0.0844157 0
M  V30 21913 H 2072.15 4.95231 -2.38802 0
M  V30 21914 H 2073.37 6.14905 -2.88217 0
M  V30 21915 H 2071.32 6.5257 -0.669982 0
M  V30 21916 H 2071.23 7.21491 -2.25802 0
M  V30 21917 H 2072.5 7.70594 -1.17496 0
M  V30 21918 N 2076.73 0.957992 1.25141 0
M  V30 21919 C 2077.64 0.487592 2.29477 0
M  V30 21920 C 2078.66 -0.446704 1.68168 0
M  V30 21921 O 2079.83 -0.322127 1.98807 0
M  V30 21922 C 2076.9 -0.22393 3.45976 0
M  V30 21923 C 2075.96 0.748994 4.22716 0
M  V30 21924 C 2075.19 0.0713329 5.33652 0
M  V30 21925 O 2075.41 -1.14234 5.58844 0
M  V30 21926 O 2074.35 0.758575 5.97101 0
M  V30 21927 H 2078.17 1.35471 2.71811 0
M  V30 21928 H 2075.76 0.724594 1.30652 0
M  V30 21929 H 2077.64 -0.624039 4.16754 0
M  V30 21930 H 2076.32 -1.06616 3.05638 0
M  V30 21931 H 2075.22 1.19938 3.54353 0
M  V30 21932 H 2076.56 1.55935 4.66846 0
M  V30 21933 N 2078.21 -1.39832 0.726957 0
M  V30 21934 C 2079.16 -2.30655 0.0817379 0
M  V30 21935 C 2080.13 -1.48792 -0.738257 0
M  V30 21936 O 2081.31 -1.775 -0.699873 0
M  V30 21937 C 2078.45 -3.35079 -0.825599 0
M  V30 21938 C 2077.56 -4.32 0.006145 0
M  V30 21939 C 2076.7 -5.23491 -0.90172 0
M  V30 21940 C 2075.74 -6.12066 -0.064744 0
M  V30 21941 N 2074.87 -6.95939 -0.928103 0
M  V30 21942 H 2079.71 -2.85263 0.861906 0
M  V30 21943 H 2077.25 -1.40468 0.436709 0
M  V30 21944 H 2079.21 -3.94203 -1.36602 0
M  V30 21945 H 2077.84 -2.81946 -1.57183 0
M  V30 21946 H 2076.89 -3.74562 0.66389 0
M  V30 21947 H 2078.2 -4.94499 0.65365 0
M  V30 21948 H 2077.36 -5.87602 -1.51027 0
M  V30 21949 H 2076.1 -4.61294 -1.58302 0
M  V30 21950 H 2075.1 -5.46975 0.556665 0
M  V30 21951 H 2076.33 -6.76326 0.613222 0
M  V30 21952 H 2074.27 -6.36318 -1.59484 0
M  V30 21953 H 2074.19 -7.55249 -0.336895 0
M  V30 21954 H 2075.46 -7.64487 -1.52247 0
M  V30 21955 N 2079.69 -0.473982 -1.50304 0
M  V30 21956 C 2080.91 0.0798733 -2.07246 0
M  V30 21957 C 2081.34 1.3249 -1.33521 0
M  V30 21958 O 2080.69 1.77192 -0.383743 0
M  V30 21959 C 2080.74 0.343926 -3.58956 0
M  V30 21960 O 2079.85 1.42387 -3.8704 0
M  V30 21961 H 2079.19 -0.0142608 -0.663847 0
M  V30 21962 H 2081.72 -0.665854 -1.93462 0
M  V30 21963 H 2081.73 0.583558 -4.03805 0
M  V30 21964 H 2080.4 -0.565855 -4.12033 0
M  V30 21965 H 2078.98 1.17132 -3.54026 0
M  V30 21966 N 2081.16 1.56239 -0.206702 0
M  V30 21967 C 2082.09 2.2262 0.704446 0
M  V30 21968 C 2083.08 1.19305 1.21245 0
M  V30 21969 O 2084.26 1.47846 1.25917 0
M  V30 21970 C 2081.39 2.89459 1.91913 0
M  V30 21971 C 2080.34 3.99119 1.54558 0
M  V30 21972 C 2079.67 4.53179 2.83783 0
M  V30 21973 C 2080.97 5.16934 0.746749 0
M  V30 21974 H 2082.66 2.99019 0.151028 0
M  V30 21975 H 2080.21 1.43824 0.0712004 0
M  V30 21976 H 2082.16 3.34584 2.56186 0
M  V30 21977 H 2080.89 2.10484 2.49728 0
M  V30 21978 H 2079.55 3.54702 0.926381 0
M  V30 21979 H 2079.19 3.70952 3.39711 0
M  V30 21980 H 2078.89 5.2718 2.59528 0
M  V30 21981 H 2080.42 5.01013 3.49024 0
M  V30 21982 H 2081.83 5.58532 1.29284 0
M  V30 21983 H 2080.23 5.97074 0.601876 0
M  V30 21984 H 2081.3 4.84256 -0.249783 0
M  V30 21985 N 2082.64 -0.0668159 1.57458 0
M  V30 21986 C 2083.57 -1.0791 2.07069 0
M  V30 21987 C 2084.55 -1.40063 0.965207 0
M  V30 21988 O 2085.74 -1.49604 1.23823 0
M  V30 21989 C 2082.87 -2.39113 2.51877 0
M  V30 21990 C 2081.82 -2.213 3.66347 0
M  V30 21991 C 2081.15 -3.57931 3.97227 0
M  V30 21992 C 2082.45 -1.63013 4.9621 0
M  V30 21993 H 2084.14 -0.666254 2.91893 0
M  V30 21994 H 2081.69 -0.319039 1.40421 0
M  V30 21995 H 2083.64 -3.10226 2.85198 0
M  V30 21996 H 2082.37 -2.82387 1.64088 0
M  V30 21997 H 2081.02 -1.52628 3.33317 0
M  V30 21998 H 2080.67 -3.98784 3.06562 0
M  V30 21999 H 2080.37 -3.4685 4.74309 0
M  V30 22000 H 2081.9 -4.30467 4.33048 0
M  V30 22001 H 2083.31 -2.23997 5.27729 0
M  V30 22002 H 2081.71 -1.62614 5.77648 0
M  V30 22003 H 2082.78 -0.592078 4.81272 0
M  V30 22004 N 2084.12 -1.53926 -0.338317 0
M  V30 22005 C 2085.07 -1.82986 -1.43592 0
M  V30 22006 C 2086.06 -0.700699 -1.54229 0
M  V30 22007 O 2087.27 -0.884124 -1.5679 0
M  V30 22008 H 2083.64 -0.579808 -0.47888 0
M  V30 22009 H 2085.62 -2.74804 -1.16299 0
M  V30 22010 C 2084.36 -2.06092 -2.80038 0
M  V30 22011 H 2083.69 -2.92433 -2.72622 0
M  V30 22012 H 2085.13 -2.30388 -3.55946 0
M  V30 22013 C 2083.59 -0.848002 -3.26053 0
M  V30 22014 O 2084.12 -0.0499866 -4.01669 0
M  V30 22015 N 2082.32 -0.663759 -2.82918 0
M  V30 22016 H 2081.87 -1.31433 -2.21547 0
M  V30 22017 H 2081.83 0.146319 -3.14059 0
M  V30 22018 N 2085.6 0.599608 -1.45748 0
M  V30 22019 C 2086.85 1.35451 -1.49452 0
M  V30 22020 C 2087.16 1.95072 -0.143637 0
M  V30 22021 O 2088.37 2.71437 -0.0583691 0
M  V30 22022 C 2086.82 2.454 -2.63262 0
M  V30 22023 C 2086.43 1.92156 -4.04698 0
M  V30 22024 C 2088.18 3.22339 -2.7622 0
M  V30 22025 C 2086.08 2.99633 -5.09876 0
M  V30 22026 H 2085.01 0.509134 -0.556146 0
M  V30 22027 H 2087.66 0.641777 -1.71911 0
M  V30 22028 H 2086.05 3.19395 -2.34101 0
M  V30 22029 H 2087.22 1.24817 -4.43574 0
M  V30 22030 H 2085.53 1.27937 -3.96259 0
M  V30 22031 H 2088.13 4.02519 -3.5197 0
M  V30 22032 H 2088.47 3.73854 -1.83135 0
M  V30 22033 H 2089.01 2.55446 -3.04946 0
M  V30 22034 H 2085.75 2.53026 -6.04697 0
M  V30 22035 H 2085.27 3.65514 -4.75562 0
M  V30 22036 H 2086.95 3.63878 -5.34978 0
M  V30 22037 N 2087.08 1.33171 0.842803 0
M  V30 22038 C 2088.01 1.17435 1.95664 0
M  V30 22039 C 2088.99 0.0708009 1.62446 0
M  V30 22040 O 2090.17 0.232312 1.87063 0
M  V30 22041 C 2087.3 0.80035 3.29108 0
M  V30 22042 C 2086.35 1.91083 3.813 0
M  V30 22043 S 2087.18 3.52116 4.03453 0
M  V30 22044 C 2088.33 3.16714 5.39855 0
M  V30 22045 H 2088.57 2.11722 2.08713 0
M  V30 22046 H 2086.1 1.17968 0.996135 0
M  V30 22047 H 2088.06 0.591341 4.06218 0
M  V30 22048 H 2086.72 -0.123859 3.13856 0
M  V30 22049 H 2085.91 1.60242 4.77848 0
M  V30 22050 H 2085.51 2.0763 3.11072 0
M  V30 22051 H 2087.81 2.67294 6.22543 0
M  V30 22052 H 2088.75 4.12328 5.75666 0
M  V30 22053 H 2089.16 2.53416 5.04421 0
M  V30 22054 N 2088.56 -1.06056 1.16576 0
M  V30 22055 C 2089.49 -2.13035 0.817996 0
M  V30 22056 C 2090.47 -1.6122 -0.211409 0
M  V30 22057 O 2091.65 -1.88261 -0.0949392 0
M  V30 22058 C 2088.78 -3.37993 0.218692 0
M  V30 22059 C 2087.82 -4.08616 1.22209 0
M  V30 22060 S 2088.66 -4.58305 2.76978 0
M  V30 22061 C 2089.81 -5.86521 2.18503 0
M  V30 22062 H 2090.05 -2.42205 1.72406 0
M  V30 22063 H 2087.58 -1.18527 0.989482 0
M  V30 22064 H 2089.54 -4.10323 -0.120616 0
M  V30 22065 H 2088.2 -3.06976 -0.665173 0
M  V30 22066 H 2087.39 -4.9837 0.75124 0
M  V30 22067 H 2086.99 -3.42312 1.50661 0
M  V30 22068 H 2089.28 -6.59409 1.55519 0
M  V30 22069 H 2090.23 -6.3834 3.06476 0
M  V30 22070 H 2090.64 -5.40668 1.62292 0
M  V30 22071 N 2090.03 -0.964615 -1.24631 0
M  V30 22072 C 2090.96 -0.511091 -2.27838 0
M  V30 22073 C 2091.94 0.447692 -1.64103 0
M  V30 22074 O 2093.13 0.344485 -1.9112 0
M  V30 22075 C 2090.26 0.202467 -3.46709 0
M  V30 22076 C 2089.21 -0.672032 -4.22691 0
M  V30 22077 C 2088.54 0.172842 -5.34421 0
M  V30 22078 C 2089.84 -1.9551 -4.84327 0
M  V30 22079 H 2091.53 -1.37371 -2.66025 0
M  V30 22080 H 2089.08 -0.661983 -1.27882 0
M  V30 22081 H 2091.03 0.530942 -4.18042 0
M  V30 22082 H 2089.76 1.09942 -3.07539 0
M  V30 22083 H 2088.42 -0.983734 -3.53155 0
M  V30 22084 H 2088.06 1.06985 -4.91491 0
M  V30 22085 H 2087.76 -0.409046 -5.86175 0
M  V30 22086 H 2089.29 0.496057 -6.08582 0
M  V30 22087 H 2090.7 -1.69241 -5.4775 0
M  V30 22088 H 2089.1 -2.48346 -5.46301 0
M  V30 22089 H 2090.17 -2.65197 -4.05954 0
M  V30 22090 N 2091.51 1.39445 -0.734362 0
M  V30 22091 C 2092.76 2.00824 -0.282443 0
M  V30 22092 C 2093.09 1.58137 1.12722 0
M  V30 22093 O 2092.37 0.809969 1.76833 0
M  V30 22094 C 2092.65 3.58051 -0.38359 0
M  V30 22095 C 2092.5 4.10758 -1.83298 0
M  V30 22096 C 2093.82 4.39476 0.234349 0
M  V30 22097 H 2090.94 0.729611 -0.104103 0
M  V30 22098 H 2093.58 1.65661 -0.930397 0
M  V30 22099 H 2091.73 3.88136 0.168068 0
M  V30 22100 H 2093.4 3.91395 -2.44147 0
M  V30 22101 H 2091.65 3.64342 -2.35451 0
M  V30 22102 H 2092.32 5.19897 -1.85503 0
M  V30 22103 H 2094.79 4.15431 -0.235909 0
M  V30 22104 H 2093.67 5.48738 0.133228 0
M  V30 22105 H 2093.93 4.21924 1.32032 0
M  V30 22106 N 2092.99 0.481946 1.5005 0
M  V30 22107 C 2094.4 0.0294639 1.86677 0
M  V30 22108 C 2094.75 -1.37874 1.39589 0
M  V30 22109 O 2093.88 -2.02407 0.765517 0
M  V30 22110 C 2094.47 0.0466921 3.38768 0
M  V30 22111 C 2093.03 -0.350364 3.74766 0
M  V30 22112 C 2092.18 0.427499 2.73985 0
M  V30 22113 H 2095.13 0.69569 1.42639 0
M  V30 22114 H 2095.15 -0.75302 3.72974 0
M  V30 22115 H 2094.66 1.07172 3.73009 0
M  V30 22116 H 2092.76 -1.37934 3.46128 0
M  V30 22117 H 2092.88 -0.0441626 4.7908 0
M  V30 22118 H 2091.24 -0.120219 2.54416 0
M  V30 22119 H 2092.02 1.45225 3.1107 0
M  V30 22120 N 2094.47 -1.56127 0.214985 0
M  V30 22121 C 2095.42 -2.16628 -0.711066 0
M  V30 22122 C 2096.4 -1.11271 -1.16222 0
M  V30 22123 O 2097.59 -1.37278 -1.11731 0
M  V30 22124 C 2094.72 -2.84465 -1.92184 0
M  V30 22125 C 2093.81 -3.97039 -1.49067 0
M  V30 22126 N 2094.2 -4.99879 -0.771666 0
M  V30 22127 C 2092.5 -4.09007 -1.77846 0
M  V30 22128 C 2093.2 -5.79068 -0.55272 0
M  V30 22129 N 2092.17 -5.322 -1.10745 0
M  V30 22130 H 2095.98 -2.935 -0.153234 0
M  V30 22131 H 2093.49 -1.62392 0.0159773 0
M  V30 22132 H 2095.49 -3.26215 -2.59595 0
M  V30 22133 H 2094.15 -2.09087 -2.48421 0
M  V30 22134 H 2095.16 -5.16153 -0.425036 0
M  V30 22135 H 2091.84 -3.44775 -2.35449 0
M  V30 22136 H 2093.23 -6.71897 0.019071 0
M  V30 22137 N 2095.95 0.0584645 -1.57492 0
M  V30 22138 C 2096.89 1.06805 -2.04601 0
M  V30 22139 C 2097.86 1.37677 -0.929204 0
M  V30 22140 O 2099.05 1.48518 -1.19779 0
M  V30 22141 C 2096.19 2.37272 -2.50591 0
M  V30 22142 C 2095.3 2.12815 -3.75944 0
M  V30 22143 C 2094.44 3.36941 -4.10663 0
M  V30 22144 C 2093.47 3.07907 -5.29018 0
M  V30 22145 N 2092.61 4.24401 -5.5931 0
M  V30 22146 H 2097.45 0.659352 -2.90614 0
M  V30 22147 H 2094.99 0.313985 -1.4371 0
M  V30 22148 H 2096.95 3.13463 -2.75312 0
M  V30 22149 H 2095.58 2.75919 -1.67536 0
M  V30 22150 H 2094.63 1.27255 -3.58483 0
M  V30 22151 H 2095.94 1.87378 -4.62267 0
M  V30 22152 H 2095.09 4.21519 -4.36356 0
M  V30 22153 H 2093.83 3.65466 -3.22933 0
M  V30 22154 H 2092.84 2.21727 -5.03108 0
M  V30 22155 H 2094.06 2.80691 -6.18377 0
M  V30 22156 H 2092.01 4.52933 -4.7454 0
M  V30 22157 H 2091.93 4.02284 -6.40081 0
M  V30 22158 H 2093.19 5.09938 -5.89562 0
M  V30 22159 N 2097.42 1.54103 0.330149 0
M  V30 22160 C 2098.84 1.44666 0.674089 0
M  V30 22161 C 2099.04 0.614208 1.91911 0
M  V30 22162 O 2098.1 0.110427 2.52258 0
M  V30 22163 C 2099.41 2.88311 0.854235 0
M  V30 22164 C 2100.96 2.98171 0.951998 0
M  V30 22165 C 2101.43 4.42952 1.16436 0
M  V30 22166 N 2102.92 4.46536 1.23125 0
M  V30 22167 C 2103.66 5.55709 1.41333 0
M  V30 22168 N 2103.15 6.74863 1.56626 0
M  V30 22169 N 2104.95 5.43345 1.43988 0
M  V30 22170 H 2097.1 2.06712 -0.488258 0
M  V30 22171 H 2099.36 0.934976 -0.1566 0
M  V30 22172 H 2099.07 3.51698 0.0107232 0
M  V30 22173 H 2098.94 3.34042 1.75202 0
M  V30 22174 H 2101.33 2.34916 1.78602 0
M  V30 22175 H 2101.41 2.55781 0.0308205 0
M  V30 22176 H 2101.05 5.06793 0.335219 0
M  V30 22177 H 2100.98 4.82946 2.09931 0
M  V30 22178 H 2103.47 3.60679 1.12777 0
M  V30 22179 H 2103.79 7.53826 1.70193 0
M  V30 22180 H 2102.13 6.77783 1.53737 0
M  V30 22181 H 2105.32 4.49211 1.31632 0
M  V30 22182 H 2105.5 6.28484 1.57836 0
M  V30 22183 N 2098.9 -0.59187 1.46064 0
M  V30 22184 C 2100.13 -1.37466 1.54229 0
M  V30 22185 C 2100.54 -1.8835 0.1791 0
M  V30 22186 O 2099.88 -1.63765 -0.832274 0
M  V30 22187 C 2099.95 -2.60379 2.47877 0
M  V30 22188 C 2099.61 -2.31026 3.94305 0
M  V30 22189 C 2100.61 -1.90422 4.83772 0
M  V30 22190 C 2098.29 -2.43453 4.39359 0
M  V30 22191 C 2100.29 -1.62626 6.16305 0
M  V30 22192 C 2097.97 -2.15271 5.71928 0
M  V30 22193 C 2098.97 -1.74921 6.60221 0
M  V30 22194 O 2098.66 -1.47079 7.90331 0
M  V30 22195 H 2098.39 -0.426635 0.524365 0
M  V30 22196 H 2100.94 -0.7274 1.92089 0
M  V30 22197 H 2099.17 -3.27879 2.05018 0
M  V30 22198 H 2100.86 -3.2244 2.4655 0
M  V30 22199 H 2101.63 -1.80343 4.50224 0
M  V30 22200 H 2097.51 -2.73823 3.70866 0
M  V30 22201 H 2101.05 -1.31058 6.85179 0
M  V30 22202 H 2096.95 -2.2497 6.05028 0
M  V30 22203 H 2097.72 -1.61 8.02509 0
M  V30 22204 N 2100.38 -1.33616 -0.835729 0
M  V30 22205 C 2101.31 -1.26762 -1.96096 0
M  V30 22206 C 2102.29 -0.147563 -1.69459 0
M  V30 22207 O 2103.48 -0.33785 -1.91239 0
M  V30 22208 C 2100.61 -1.00927 -3.32312 0
M  V30 22209 C 2099.56 -2.09261 -3.73355 0
M  V30 22210 C 2098.89 -1.68635 -5.07411 0
M  V30 22211 C 2100.19 -3.50968 -3.86806 0
M  V30 22212 H 2101.88 -2.20908 -2.02089 0
M  V30 22213 H 2099.43 -1.06346 -0.970907 0
M  V30 22214 H 2101.38 -0.947809 -4.10603 0
M  V30 22215 H 2100.1 -0.0322023 -3.26584 0
M  V30 22216 H 2098.76 -2.14455 -2.97329 0
M  V30 22217 H 2098.41 -0.696223 -4.98158 0
M  V30 22218 H 2098.11 -2.41134 -5.35844 0
M  V30 22219 H 2099.63 -1.63961 -5.88175 0
M  V30 22220 H 2101.05 -3.48257 -4.55401 0
M  V30 22221 H 2099.45 -4.21978 -4.26678 0
M  V30 22222 H 2100.52 -3.89244 -2.89166 0
M  V30 22223 N 2101.86 1.05436 -1.17136 0
M  V30 22224 C 2103.1 1.78658 -0.959644 0
M  V30 22225 C 2103.44 1.87366 0.510659 0
M  V30 22226 O 2102.71 1.37162 1.37901 0
M  V30 22227 C 2103 3.22682 -1.59839 0
M  V30 22228 C 2102.85 3.22002 -3.14062 0
M  V30 22229 C 2104.17 4.20454 -1.30023 0
M  V30 22230 H 2101.29 0.648566 -0.350044 0
M  V30 22231 H 2103.93 1.23254 -1.44598 0
M  V30 22232 H 2102.08 3.69992 -1.18484 0
M  V30 22233 H 2103.75 2.82787 -3.64457 0
M  V30 22234 H 2101.99 2.60411 -3.46941 0
M  V30 22235 H 2102.66 4.23642 -3.53881 0
M  V30 22236 H 2105.14 3.81628 -1.65829 0
M  V30 22237 H 2104.02 5.19475 -1.77304 0
M  V30 22238 H 2104.28 4.41549 -0.220588 0
M  V30 22239 N 2103.34 0.971211 1.24118 0
M  V30 22240 C 2104.56 0.652357 1.96873 0
M  V30 22241 C 2104.99 -0.772193 1.71519 0
M  V30 22242 O 2104.34 -1.52463 0.981051 0
M  V30 22243 C 2104.39 0.937388 3.48203 0
M  V30 22244 O 2103.5 0.0246311 4.12393 0
M  V30 22245 H 2102.84 0.246274 0.61664 0
M  V30 22246 H 2105.37 1.30231 1.578 0
M  V30 22247 H 2105.38 0.870349 3.98609 0
M  V30 22248 H 2104.05 1.97556 3.65984 0
M  V30 22249 H 2102.63 0.145292 3.72617 0
M  V30 22250 N 2104.81 -1.39054 0.741747 0
M  V30 22251 C 2106.06 -1.99612 0.289503 0
M  V30 22252 C 2106.38 -1.59538 -1.13168 0
M  V30 22253 O 2107.58 -2.12981 -1.68379 0
M  V30 22254 C 2106.04 -3.56862 0.466657 0
M  V30 22255 C 2105.65 -4.05894 1.89616 0
M  V30 22256 C 2107.39 -4.24431 0.0765289 0
M  V30 22257 C 2105.3 -5.55742 2.0225 0
M  V30 22258 H 2104.23 -0.746725 0.10449 0
M  V30 22259 H 2106.88 -1.58968 0.916594 0
M  V30 22260 H 2105.26 -3.95335 -0.229437 0
M  V30 22261 H 2106.43 -3.78739 2.62475 0
M  V30 22262 H 2104.75 -3.5101 2.24011 0
M  V30 22263 H 2107.35 -5.3449 0.149851 0
M  V30 22264 H 2107.69 -4.04861 -0.969208 0
M  V30 22265 H 2108.22 -3.91156 0.724031 0
M  V30 22266 H 2104.96 -5.80201 3.05036 0
M  V30 22267 H 2104.48 -5.84678 1.33836 0
M  V30 22268 H 2106.16 -6.21258 1.80685 0
M  V30 22269 N 2106.29 -0.489897 -1.49792 0
M  V30 22270 C 2107.24 0.294423 -2.28914 0
M  V30 22271 C 2108.21 0.970384 -1.34806 0
M  V30 22272 O 2109.39 0.979195 -1.63757 0
M  V30 22273 C 2106.53 1.35949 -3.17194 0
M  V30 22274 C 2105.65 0.696419 -4.2635 0
M  V30 22275 C 2104.78 1.74098 -5.0186 0
M  V30 22276 C 2103.82 1.05917 -6.02866 0
M  V30 22277 N 2102.96 2.04743 -6.71584 0
M  V30 22278 H 2107.8 -0.386562 -2.95482 0
M  V30 22279 H 2105.34 -0.202479 -1.457 0
M  V30 22280 H 2107.29 1.98886 -3.66743 0
M  V30 22281 H 2105.92 2.00938 -2.52633 0
M  V30 22282 H 2104.98 -0.0459714 -3.80372 0
M  V30 22283 H 2106.29 0.159163 -4.98546 0
M  V30 22284 H 2105.44 2.44568 -5.55222 0
M  V30 22285 H 2104.18 2.31207 -4.29412 0
M  V30 22286 H 2103.19 0.340189 -5.48747 0
M  V30 22287 H 2104.41 0.494725 -6.77296 0
M  V30 22288 H 2102.36 2.60835 -6.01915 0
M  V30 22289 H 2102.27 1.56053 -7.39718 0
M  V30 22290 H 2103.54 2.74536 -7.29555 0
M  V30 22291 N 2107.77 1.56011 -0.223262 0
M  V30 22292 C 2109.02 1.98642 0.408581 0
M  V30 22293 C 2109.35 1.11082 1.59294 0
M  V30 22294 O 2108.62 0.168881 1.93765 0
M  V30 22295 C 2108.91 3.5013 0.841473 0
M  V30 22296 C 2108.76 4.48462 -0.346639 0
M  V30 22297 C 2110.08 4.06065 1.69703 0
M  V30 22298 H 2107.2 0.722183 0.147039 0
M  V30 22299 H 2109.84 1.87289 -0.319839 0
M  V30 22300 H 2107.99 3.59936 1.46214 0
M  V30 22301 H 2109.66 4.50665 -0.98481 0
M  V30 22302 H 2107.91 4.22263 -0.993788 0
M  V30 22303 H 2108.58 5.52 -0.00078187 0
M  V30 22304 H 2111.05 3.99215 1.17332 0
M  V30 22305 H 2109.93 5.12376 1.96882 0
M  V30 22306 H 2110.19 3.53054 2.66093 0
M  V30 22307 N 2109.25 -0.0501116 1.5752 0
M  V30 22308 C 2110.18 -1.08434 2.01928 0
M  V30 22309 C 2111.19 -1.33718 0.928613 0
M  V30 22310 O 2112.38 -1.31576 1.20623 0
M  V30 22311 C 2109.48 -2.43065 2.36162 0
M  V30 22312 C 2108.66 -2.37433 3.67347 0
M  V30 22313 C 2107.71 -3.54345 3.89007 0
M  V30 22314 O 2106.74 -3.3479 4.60331 0
M  V30 22315 N 2107.94 -4.75475 3.33022 0
M  V30 22316 H 2110.71 -0.705995 2.91266 0
M  V30 22317 H 2108.27 -0.238421 1.60135 0
M  V30 22318 H 2110.26 -3.19959 2.47807 0
M  V30 22319 H 2108.83 -2.72821 1.52603 0
M  V30 22320 H 2108.05 -1.45778 3.66254 0
M  V30 22321 H 2109.34 -2.30792 4.53445 0
M  V30 22322 H 2108.74 -4.94264 2.75171 0
M  V30 22323 H 2107.29 -5.49806 3.50081 0
M  V30 22324 N 2110.73 -1.54276 -0.321972 0
M  V30 22325 C 2111.95 -1.76841 -1.0836 0
M  V30 22326 C 2112.38 -0.5163 -1.80876 0
M  V30 22327 O 2111.73 0.532225 -1.73312 0
M  V30 22328 C 2111.78 -2.96236 -2.05613 0
M  V30 22329 O 2110.89 -2.67893 -3.1354 0
M  V30 22330 H 2110.23 -0.585948 -0.312347 0
M  V30 22331 H 2112.76 -2.01304 -0.365783 0
M  V30 22332 H 2112.77 -3.23627 -2.48455 0
M  V30 22333 H 2111.44 -3.87037 -1.52234 0
M  V30 22334 H 2110.02 -2.51456 -2.75362 0
M  V30 22335 N 2112.2 0.584116 -1.46376 0
M  V30 22336 C 2113.17 1.6753 -1.56417 0
M  V30 22337 C 2114.17 1.54622 -0.441454 0
M  V30 22338 O 2115.36 1.59265 -0.705714 0
M  V30 22339 C 2112.49 3.06947 -1.48313 0
M  V30 22340 H 2113.68 1.59986 -2.53662 0
M  V30 22341 H 2111.24 0.801837 -1.34165 0
M  V30 22342 H 2111.97 3.20048 -0.523413 0
M  V30 22343 H 2111.76 3.17724 -2.29768 0
M  V30 22344 H 2113.25 3.86384 -1.58422 0
M  V30 22345 N 2113.68 1.34058 0.828631 0
M  V30 22346 C 2114.93 1.25844 1.58138 0
M  V30 22347 C 2115.25 -0.173004 1.94231 0
M  V30 22348 O 2114.52 -1.10425 1.61812 0
M  V30 22349 H 2113.1 0.4628 0.586366 0
M  V30 22350 H 2115.76 1.67901 0.989709 0
M  V30 22351 H 2114.86 1.85925 2.50676 0
M  V30 22352 N 2115.16 -1.04814 1.17694 0
M  V30 22353 C 2116.09 -2.12156 0.840545 0
M  V30 22354 C 2117.07 -1.61435 -0.194298 0
M  V30 22355 O 2118.26 -1.88351 -0.0749663 0
M  V30 22356 C 2115.38 -3.37742 0.254529 0
M  V30 22357 C 2114.43 -4.07297 1.26536 0
M  V30 22358 S 2115.26 -4.55342 2.81823 0
M  V30 22359 C 2116.42 -5.84171 2.24712 0
M  V30 22360 H 2116.65 -2.40363 1.74965 0
M  V30 22361 H 2114.18 -1.17471 1.002 0
M  V30 22362 H 2116.14 -4.10428 -0.077089 0
M  V30 22363 H 2114.8 -3.07664 -0.632577 0
M  V30 22364 H 2114 -4.97545 0.804056 0
M  V30 22365 H 2113.6 -3.40695 1.54283 0
M  V30 22366 H 2115.89 -6.57722 1.62504 0
M  V30 22367 H 2116.83 -6.35053 3.1323 0
M  V30 22368 H 2117.24 -5.38916 1.68018 0
M  V30 22369 N 2116.64 -0.977779 -1.23601 0
M  V30 22370 C 2117.87 -0.663151 -1.95984 0
M  V30 22371 C 2118.28 0.769376 -1.72412 0
M  V30 22372 O 2117.64 1.51741 -1.01395 0
M  V30 22373 C 2117.69 -0.940786 -3.49044 0
M  V30 22374 O 2117.41 -2.31701 -3.71815 0
M  V30 22375 C 2118.91 -0.641745 -4.3863 0
M  V30 22376 H 2116.13 -0.246565 -0.624057 0
M  V30 22377 H 2118.68 -1.30845 -1.57162 0
M  V30 22378 H 2116.83 -0.341537 -3.85892 0
M  V30 22379 H 2117.25 -2.40469 -4.66128 0
M  V30 22380 H 2118.72 -0.886389 -5.44837 0
M  V30 22381 H 2119.2 0.42415 -4.37147 0
M  V30 22382 H 2119.8 -1.22135 -4.07386 0
M  V30 22383 N 2118.12 1.38658 -0.749111 0
M  V30 22384 C 2119.34 2.0503 -0.312666 0
M  V30 22385 C 2119.77 1.56125 1.04912 0
M  V30 22386 O 2119.13 0.711236 1.66767 0
M  V30 22387 C 2119.17 3.58997 -0.339658 0
M  V30 22388 O 2118.28 4.06956 0.667887 0
M  V30 22389 H 2117.62 0.649228 -0.139282 0
M  V30 22390 H 2120.15 1.7742 -1.01898 0
M  V30 22391 H 2120.16 4.07562 -0.188968 0
M  V30 22392 H 2118.83 3.93951 -1.33325 0
M  V30 22393 H 2117.41 3.69769 0.482177 0
M  V30 22394 N 2119.6 0.497834 1.49531 0
M  V30 22395 C 2120.51 -0.286926 2.32839 0
M  V30 22396 C 2121.52 -0.970397 1.44427 0
M  V30 22397 O 2122.7 -0.952478 1.77454 0
M  V30 22398 C 2119.76 -1.33928 3.19788 0
M  V30 22399 C 2118.82 -0.669588 4.24046 0
M  V30 22400 C 2118.06 -1.67181 5.0684 0
M  V30 22401 O 2118.28 -2.90132 4.91101 0
M  V30 22402 O 2117.21 -1.22887 5.89222 0
M  V30 22403 H 2121.04 0.394869 3.01122 0
M  V30 22404 H 2118.62 0.259218 1.47134 0
M  V30 22405 H 2120.51 -1.94822 3.73661 0
M  V30 22406 H 2119.18 -2.00407 2.54202 0
M  V30 22407 H 2118.09 -0.0209922 3.74094 0
M  V30 22408 H 2119.42 -0.0473067 4.92177 0
M  V30 22409 N 2121.07 -1.5589 0.231532 0
M  V30 22410 C 2122.32 -1.98855 -0.398041 0
M  V30 22411 C 2122.65 -1.11925 -1.58702 0
M  V30 22412 O 2121.93 -0.179155 -1.93673 0
M  V30 22413 C 2122.21 -3.50572 -0.822893 0
M  V30 22414 C 2122.06 -4.48272 0.370417 0
M  V30 22415 C 2123.38 -4.0696 -1.67547 0
M  V30 22416 H 2120.5 -0.722953 -0.143207 0
M  V30 22417 H 2123.14 -1.87116 0.329767 0
M  V30 22418 H 2121.29 -3.60706 -1.44303 0
M  V30 22419 H 2122.97 -4.50137 1.0087 0
M  V30 22420 H 2121.21 -4.2173 1.01617 0
M  V30 22421 H 2121.88 -5.51992 0.0300558 0
M  V30 22422 H 2124.36 -3.99831 -1.15214 0
M  V30 22423 H 2123.23 -5.13412 -1.94162 0
M  V30 22424 H 2123.49 -3.5446 -2.64217 0
M  V30 22425 N 2122.55 0.0417572 -1.57545 0
M  V30 22426 C 2123.8 0.736189 -1.88966 0
M  V30 22427 C 2124.13 1.75678 -0.827697 0
M  V30 22428 O 2123.41 1.93851 0.158734 0
M  V30 22429 C 2123.69 1.4172 -3.3104 0
M  V30 22430 C 2123.54 0.410987 -4.47918 0
M  V30 22431 C 2124.86 2.3545 -3.71822 0
M  V30 22432 H 2121.98 0.266166 -0.687259 0
M  V30 22433 H 2124.62 -0.000952352 -1.9 0
M  V30 22434 H 2122.77 2.04552 -3.30289 0
M  V30 22435 H 2124.44 -0.214433 -4.60801 0
M  V30 22436 H 2122.69 -0.270954 -4.32953 0
M  V30 22437 H 2123.36 0.925718 -5.44182 0
M  V30 22438 H 2125.83 1.82673 -3.73858 0
M  V30 22439 H 2124.71 2.80087 -4.72062 0
M  V30 22440 H 2124.97 3.21575 -3.03384 0
M  V30 22441 N 2124.03 1.54445 0.313786 0
M  V30 22442 C 2124.94 1.87547 1.40937 0
M  V30 22443 C 2125.96 0.768341 1.56117 0
M  V30 22444 O 2127.13 1.06358 1.71026 0
M  V30 22445 C 2124.2 2.10467 2.75508 0
M  V30 22446 C 2123.26 3.34232 2.69421 0
M  V30 22447 C 2122.49 3.56049 3.97574 0
M  V30 22448 O 2122.71 2.81118 4.96316 0
M  V30 22449 O 2121.65 4.49546 4.0024 0
M  V30 22450 H 2125.47 2.80728 1.15868 0
M  V30 22451 H 2123.06 1.40473 0.508698 0
M  V30 22452 H 2124.94 2.26817 3.55151 0
M  V30 22453 H 2123.62 1.20474 3.00446 0
M  V30 22454 H 2122.52 3.23259 1.88294 0
M  V30 22455 H 2123.86 4.24314 2.49436 0
M  V30 22456 N 2125.51 -0.576345 1.46683 0
M  V30 22457 C 2126.78 -1.3367 1.428 0
M  V30 22458 C 2127.16 -2.10788 0.114803 0
M  V30 22459 O 2126.51 -2.09871 -0.903671 0
M  V30 22460 C 2126.72 -2.25735 2.66167 0
M  V30 22461 C 2128.07 -2.87363 3.12583 0
M  V30 22462 O 2129.09 -2.36045 2.6676 0
M  V30 22463 O 2127.95 -3.80589 3.92191 0
M  V30 22464 H 2125.05 -0.600913 0.568184 0
M  V30 22465 H 2127.59 -0.596834 1.58858 0
M  V30 22466 H 2126.37 -1.68221 3.53295 0
M  V30 22467 H 2125.99 -3.07049 2.52599 0
M  V30 22468 N 2126.99 -1.34495 -0.82151 0
M  V30 22469 C 2128.21 -1.30164 -1.61468 0
M  V30 22470 C 2128.64 0.121303 -1.87708 0
M  V30 22471 O 2127.99 1.08349 -1.45362 0
M  V30 22472 C 2128.04 -2.09951 -2.93177 0
M  V30 22473 O 2127.15 -1.47 -3.85311 0
M  V30 22474 H 2126.49 -0.446975 -0.491029 0
M  V30 22475 H 2129.02 -1.77318 -1.02075 0
M  V30 22476 H 2129.03 -2.21359 -3.4273 0
M  V30 22477 H 2127.7 -3.13407 -2.73402 0
M  V30 22478 H 2126.28 -1.44343 -3.4383 0
M  V30 22479 N 2128.46 1.04188 -1.18248 0
M  V30 22480 C 2129.69 1.81021 -1.00194 0
M  V30 22481 C 2130.11 1.83367 0.449658 0
M  V30 22482 O 2129.46 1.26824 1.31232 0
M  V30 22483 C 2129.52 3.26678 -1.54802 0
M  V30 22484 O 2129.24 3.24548 -2.94279 0
M  V30 22485 C 2130.74 4.20161 -1.41349 0
M  V30 22486 H 2127.96 0.570098 -0.353877 0
M  V30 22487 H 2130.5 1.31316 -1.56769 0
M  V30 22488 H 2128.66 3.7362 -1.02407 0
M  V30 22489 H 2129.07 4.15787 -3.19721 0
M  V30 22490 H 2130.54 5.20304 -1.84357 0
M  V30 22491 H 2131.02 4.37705 -0.362029 0
M  V30 22492 H 2131.63 3.79083 -1.92811 0
M  V30 22493 N 2129.94 0.98432 1.23081 0
M  V30 22494 C 2131.19 0.650883 1.90909 0
M  V30 22495 C 2131.5 -0.819701 1.77596 0
M  V30 22496 O 2132.71 -1.26436 2.40263 0
M  V30 22497 C 2131.17 1.11359 3.42239 0
M  V30 22498 C 2130.77 2.60879 3.64206 0
M  V30 22499 C 2132.52 0.854079 4.15819 0
M  V30 22500 C 2130.43 3.00797 5.09191 0
M  V30 22501 H 2129.36 0.239743 0.71487 0
M  V30 22502 H 2132.01 1.19274 1.39449 0
M  V30 22503 H 2130.39 0.499916 3.92832 0
M  V30 22504 H 2131.56 3.27519 3.24142 0
M  V30 22505 H 2129.88 2.84619 3.03942 0
M  V30 22506 H 2132.47 1.12812 5.22664 0
M  V30 22507 H 2132.82 -0.209813 4.15771 0
M  V30 22508 H 2133.35 1.42952 3.71227 0
M  V30 22509 H 2130.09 4.06326 5.14373 0
M  V30 22510 H 2129.61 2.38854 5.5019 0
M  V30 22511 H 2131.29 2.9162 5.77552 0
M  V30 22512 N 2131.42 -1.38259 0.756453 0
M  V30 22513 C 2132.65 -2.04335 0.324799 0
M  V30 22514 C 2133.06 -1.57053 -1.04784 0
M  V30 22515 O 2132.42 -0.744882 -1.66607 0
M  V30 22516 C 2132.47 -3.59882 0.341597 0
M  V30 22517 O 2132.19 -4.0543 1.66008 0
M  V30 22518 C 2133.69 -4.43179 -0.103565 0
M  V30 22519 H 2130.91 -0.656588 0.138324 0
M  V30 22520 H 2133.46 -1.76894 1.02611 0
M  V30 22521 H 2131.61 -3.8615 -0.310997 0
M  V30 22522 H 2132.03 -4.99876 1.58822 0
M  V30 22523 H 2133.5 -5.51985 -0.0406515 0
M  V30 22524 H 2133.98 -4.23827 -1.15185 0
M  V30 22525 H 2134.58 -4.22106 0.520263 0
M  V30 22526 N 2132.9 -0.505757 -1.49264 0
M  V30 22527 C 2133.83 0.316874 -2.25989 0
M  V30 22528 C 2134.81 0.966218 -1.30778 0
M  V30 22529 O 2135.99 0.995383 -1.60076 0
M  V30 22530 C 2133.12 1.44666 -3.0625 0
M  V30 22531 C 2132.17 0.911211 -4.16652 0
M  V30 22532 S 2133 -0.201792 -5.3512 0
M  V30 22533 C 2134.16 0.931051 -6.18936 0
M  V30 22534 H 2134.39 -0.334324 -2.95414 0
M  V30 22535 H 2131.92 -0.291131 -1.5163 0
M  V30 22536 H 2133.88 2.09399 -3.53076 0
M  V30 22537 H 2132.54 2.06949 -2.36285 0
M  V30 22538 H 2131.73 1.75804 -4.72344 0
M  V30 22539 H 2131.34 0.341018 -3.72442 0
M  V30 22540 H 2133.63 1.83522 -6.5217 0
M  V30 22541 H 2134.57 0.412646 -7.06897 0
M  V30 22542 H 2134.98 1.20053 -5.51586 0
M  V30 22543 N 2134.38 1.55765 -0.239796 0
M  V30 22544 C 2135.63 1.97945 0.387367 0
M  V30 22545 C 2135.94 1.131 1.59586 0
M  V30 22546 O 2137.14 1.45261 2.29372 0
M  V30 22547 C 2135.6 3.52198 0.740571 0
M  V30 22548 C 2135.21 4.45773 -0.446131 0
M  V30 22549 C 2136.95 4.0305 1.33232 0
M  V30 22550 C 2134.86 5.91359 -0.0694771 0
M  V30 22551 H 2133.79 0.739231 0.148505 0
M  V30 22552 H 2136.44 1.80343 -0.338891 0
M  V30 22553 H 2134.82 3.65468 1.52476 0
M  V30 22554 H 2136 4.44259 -1.22354 0
M  V30 22555 H 2134.31 4.05364 -0.952332 0
M  V30 22556 H 2136.91 5.09335 1.62734 0
M  V30 22557 H 2137.25 3.49977 2.25437 0
M  V30 22558 H 2137.78 3.93077 0.611183 0
M  V30 22559 H 2134.52 6.48455 -0.958485 0
M  V30 22560 H 2134.04 5.96025 0.671873 0
M  V30 22561 H 2135.72 6.46048 0.350837 0
M  V30 22562 N 2135.85 -0.0334016 1.57565 0
M  V30 22563 C 2137.13 -0.760253 1.80221 0
M  V30 22564 C 2137.51 -1.93806 0.836817 0
M  V30 22565 O 2136.86 -2.28174 -0.121959 0
M  V30 22566 C 2137.07 -1.19735 3.27818 0
M  V30 22567 C 2138.42 -1.61505 3.92685 0
M  V30 22568 O 2139.44 -1.29204 3.31941 0
M  V30 22569 O 2138.3 -2.21441 4.99626 0
M  V30 22570 H 2135.39 -0.36729 0.740964 0
M  V30 22571 H 2137.94 -0.0105137 1.69697 0
M  V30 22572 H 2136.71 -0.356354 3.89674 0
M  V30 22573 H 2136.34 -2.00724 3.43214 0
M  V30 22574 N 2137.33 -1.54609 -0.305591 0
M  V30 22575 C 2138.75 -1.4572 -0.650988 0
M  V30 22576 C 2138.95 -0.644662 -1.90909 0
M  V30 22577 O 2138 -0.150545 -2.52051 0
M  V30 22578 C 2139.32 -2.89634 -0.808259 0
M  V30 22579 C 2140.87 -2.99648 -0.904441 0
M  V30 22580 C 2141.34 -4.44748 -1.09375 0
M  V30 22581 N 2142.83 -4.48438 -1.16006 0
M  V30 22582 C 2143.57 -5.57887 -1.32474 0
M  V30 22583 N 2143.06 -6.77269 -1.4587 0
M  V30 22584 N 2144.86 -5.45567 -1.35326 0
M  V30 22585 H 2137.01 -2.05909 0.521082 0
M  V30 22586 H 2139.27 -0.932366 0.171455 0
M  V30 22587 H 2138.98 -3.51671 0.0452303 0
M  V30 22588 H 2138.85 -3.36787 -1.69866 0
M  V30 22589 H 2141.24 -2.37727 -1.74842 0
M  V30 22590 H 2141.32 -2.55798 0.00987599 0
M  V30 22591 H 2140.96 -5.07262 -0.25455 0
M  V30 22592 H 2140.89 -4.86224 -2.02222 0
M  V30 22593 H 2143.38 -3.62428 -1.07025 0
M  V30 22594 H 2143.7 -7.56439 -1.58179 0
M  V30 22595 H 2142.04 -6.80143 -1.42934 0
M  V30 22596 H 2145.23 -4.51248 -1.24469 0
M  V30 22597 H 2145.4 -6.30915 -1.47817 0
M  V30 22598 N 2138.81 0.568558 -1.46987 0
M  V30 22599 C 2140.22 1.1507 -1.47023 0
M  V30 22600 C 2140.57 1.94977 -0.218726 0
M  V30 22601 O 2139.7 2.05531 0.677201 0
M  V30 22602 C 2140.29 2.09348 -2.66381 0
M  V30 22603 C 2138.85 2.62857 -2.69413 0
M  V30 22604 C 2138 1.39006 -2.39943 0
M  V30 22605 H 2140.95 0.355745 -1.54661 0
M  V30 22606 H 2140.97 2.93044 -2.42705 0
M  V30 22607 H 2140.48 1.51163 -3.57451 0
M  V30 22608 H 2138.58 3.24872 -1.82452 0
M  V30 22609 H 2138.7 3.04626 -3.69784 0
M  V30 22610 H 2137.06 1.69297 -1.90291 0
M  V30 22611 H 2137.84 0.826309 -3.33207 0
M  V30 22612 N 2140.29 1.34929 0.814366 0
M  V30 22613 C 2141.7 1.24889 1.38779 0
M  V30 22614 C 2142.05 -0.122017 1.9582 0
M  V30 22615 O 2141.18 -1.02269 1.90709 0
M  V30 22616 C 2141.77 2.2613 2.52291 0
M  V30 22617 C 2140.33 2.19855 3.05517 0
M  V30 22618 C 2139.48 2.12265 1.78435 0
M  V30 22619 H 2142.43 1.46171 0.618046 0
M  V30 22620 H 2142.45 1.88326 3.30626 0
M  V30 22621 H 2141.96 3.25896 2.10745 0
M  V30 22622 H 2140.06 1.23474 3.51547 0
M  V30 22623 H 2140.17 3.11482 3.64027 0
M  V30 22624 H 2138.54 1.58119 1.99676 0
M  V30 22625 H 2139.32 3.13878 1.39051 0
M  V30 22626 N 2141.77 -1.0356 1.18799 0
M  V30 22627 C 2143.18 -1.58299 0.989867 0
M  V30 22628 C 2143.53 -1.90754 -0.459077 0
M  V30 22629 O 2142.65 -1.70132 -1.33731 0
M  V30 22630 C 2143.25 -2.8762 1.79054 0
M  V30 22631 C 2141.81 -3.38957 1.63662 0
M  V30 22632 C 2140.95 -2.12479 1.7818 0
M  V30 22633 H 2143.91 -0.861694 1.33269 0
M  V30 22634 H 2143.93 -3.5823 1.28263 0
M  V30 22635 H 2143.44 -2.63967 2.84505 0
M  V30 22636 H 2141.54 -3.67611 0.607689 0
M  V30 22637 H 2141.65 -4.12441 2.43781 0
M  V30 22638 H 2140.02 -2.24028 1.21176 0
M  V30 22639 H 2140.8 -1.91275 2.85076 0
M  V30 22640 N 2143.25 -0.990834 -1.22557 0
M  V30 22641 C 2144.66 -0.700966 -1.73042 0
M  V30 22642 C 2145.01 0.782283 -1.7993 0
M  V30 22643 O 2144.13 1.61158 -1.4442 0
M  V30 22644 C 2144.73 -1.26574 -3.14268 0
M  V30 22645 C 2143.29 -1.0253 -3.62167 0
M  V30 22646 C 2142.43 -1.38718 -2.4011 0
M  V30 22647 H 2145.38 -1.16344 -1.07934 0
M  V30 22648 H 2145.41 -0.643298 -3.75023 0
M  V30 22649 H 2144.92 -2.34527 -3.09222 0
M  V30 22650 H 2143.02 0.0376973 -3.72581 0
M  V30 22651 H 2143.13 -1.68722 -4.48408 0
M  V30 22652 H 2141.5 -0.805751 -2.41619 0
M  V30 22653 H 2142.28 -2.47671 -2.37727 0
M  V30 22654 N 2144.72 1.37856 -0.763775 0
M  V30 22655 C 2146.13 1.82562 -0.390909 0
M  V30 22656 C 2146.49 1.63676 1.08188 0
M  V30 22657 O 2145.61 1.14349 1.8372 0
M  V30 22658 C 2146.21 3.31432 -0.702745 0
M  V30 22659 C 2144.76 3.74446 -0.383033 0
M  V30 22660 C 2143.91 2.60494 -0.950696 0
M  V30 22661 H 2146.86 1.2644 -0.95909 0
M  V30 22662 H 2146.88 3.80497 0.0154528 0
M  V30 22663 H 2146.4 3.45145 -1.77472 0
M  V30 22664 H 2144.5 3.66306 0.681946 0
M  V30 22665 H 2144.61 4.70842 -0.885708 0
M  V30 22666 H 2142.97 2.51918 -0.375427 0
M  V30 22667 H 2143.76 2.77003 -2.02791 0
M  V30 22668 N 2146.2 0.513665 1.48994 0
M  V30 22669 C 2147.61 0.0690541 1.86572 0
M  V30 22670 C 2147.96 -1.34882 1.42482 0
M  V30 22671 O 2147.09 -2.00738 0.808279 0
M  V30 22672 C 2147.68 0.118539 3.38593 0
M  V30 22673 C 2146.24 -0.270792 3.75425 0
M  V30 22674 C 2145.39 0.485519 2.73016 0
M  V30 22675 H 2148.34 0.725789 1.41131 0
M  V30 22676 H 2148.36 -0.673737 3.74488 0
M  V30 22677 H 2147.87 1.1506 3.70652 0
M  V30 22678 H 2145.97 -1.30561 3.48976 0
M  V30 22679 H 2146.09 0.0574672 4.79066 0
M  V30 22680 H 2144.45 -0.066227 2.54614 0
M  V30 22681 H 2145.23 1.5179 3.0792 0
M  V30 22682 N 2147.68 -1.55636 0.248053 0
M  V30 22683 C 2148.63 -2.18088 -0.664956 0
M  V30 22684 C 2149.61 -1.13711 -1.13836 0
M  V30 22685 O 2150.81 -1.39617 -1.08794 0
M  V30 22686 C 2147.93 -2.88477 -1.86107 0
M  V30 22687 C 2147.02 -4.00112 -1.40611 0
M  V30 22688 N 2147.41 -5.01403 -0.665461 0
M  V30 22689 C 2145.71 -4.12688 -1.6913 0
M  V30 22690 C 2146.41 -5.8011 -0.429767 0
M  V30 22691 N 2145.39 -5.34429 -0.994315 0
M  V30 22692 H 2149.19 -2.93759 -0.0909433 0
M  V30 22693 H 2146.7 -1.62322 0.0504194 0
M  V30 22694 H 2148.7 -3.31648 -2.52617 0
M  V30 22695 H 2147.36 -2.14309 -2.4393 0
M  V30 22696 H 2148.37 -5.16938 -0.315457 0
M  V30 22697 H 2145.05 -3.49692 -2.28083 0
M  V30 22698 H 2146.44 -6.71706 0.161586 0
M  V30 22699 N 2149.16 0.0250451 -1.5758 0
M  V30 22700 C 2150.41 0.714108 -1.88636 0
M  V30 22701 C 2150.72 1.76305 -0.847099 0
M  V30 22702 O 2151.93 2.50499 -1.04702 0
M  V30 22703 C 2150.38 1.3212 -3.34772 0
M  V30 22704 C 2149.99 0.308393 -4.46937 0
M  V30 22705 C 2151.73 1.98991 -3.74971 0
M  V30 22706 C 2149.64 0.924059 -5.84136 0
M  V30 22707 H 2148.57 0.270472 -0.703819 0
M  V30 22708 H 2151.22 -0.0313912 -1.83473 0
M  V30 22709 H 2149.6 2.11654 -3.34692 0
M  V30 22710 H 2150.78 -0.460527 -4.58493 0
M  V30 22711 H 2149.09 -0.258451 -4.15597 0
M  V30 22712 H 2151.69 2.45913 -4.74796 0
M  V30 22713 H 2152.03 2.8098 -3.07174 0
M  V30 22714 H 2152.57 1.26226 -3.77242 0
M  V30 22715 H 2149.3 0.143492 -6.55343 0
M  V30 22716 H 2148.82 1.66272 -5.76293 0
M  V30 22717 H 2150.5 1.4302 -6.30995 0
M  V30 22718 N 2150.64 1.54769 0.297388 0
M  V30 22719 C 2152.05 1.46063 0.643251 0
M  V30 22720 C 2152.25 0.654777 1.90565 0
M  V30 22721 O 2151.31 0.16391 2.51967 0
M  V30 22722 C 2152.62 2.90058 0.792888 0
M  V30 22723 C 2154.17 3.00123 0.888538 0
M  V30 22724 C 2154.64 4.45322 1.07014 0
M  V30 22725 N 2156.13 4.49047 1.13626 0
M  V30 22726 C 2156.87 5.58582 1.29514 0
M  V30 22727 N 2156.37 6.78033 1.42276 0
M  V30 22728 N 2158.16 5.46277 1.32431 0
M  V30 22729 H 2150.31 2.0563 -0.531995 0
M  V30 22730 H 2152.57 0.931444 -0.176397 0
M  V30 22731 H 2152.28 3.51642 -0.0638796 0
M  V30 22732 H 2152.15 3.37683 1.68077 0
M  V30 22733 H 2154.54 2.38651 1.73579 0
M  V30 22734 H 2154.62 2.55789 -0.0234414 0
M  V30 22735 H 2154.26 5.0739 0.227645 0
M  V30 22736 H 2154.19 4.8729 1.9964 0
M  V30 22737 H 2156.69 3.62991 1.05101 0
M  V30 22738 H 2157 7.57267 1.54165 0
M  V30 22739 H 2155.34 6.80892 1.39325 0
M  V30 22740 H 2158.53 4.51902 1.22074 0
M  V30 22741 H 2158.71 6.3169 1.44469 0
M  V30 22742 N 2152.11 -0.560755 1.47286 0
M  V30 22743 C 2153.36 -1.32004 1.53957 0
M  V30 22744 C 2153.69 -1.9317 0.199705 0
M  V30 22745 O 2152.97 -1.77676 -0.791288 0
M  V30 22746 C 2153.25 -2.43284 2.6549 0
M  V30 22747 C 2153.1 -1.87009 4.09081 0
M  V30 22748 C 2154.42 -3.45228 2.72957 0
M  V30 22749 H 2151.54 -0.478599 0.560457 0
M  V30 22750 H 2154.18 -0.627854 1.79327 0
M  V30 22751 H 2152.33 -3.02327 2.43989 0
M  V30 22752 H 2154.01 -1.32254 4.41935 0
M  V30 22753 H 2152.25 -1.17705 4.17526 0
M  V30 22754 H 2152.92 -2.67438 4.82888 0
M  V30 22755 H 2155.4 -2.96099 2.92344 0
M  V30 22756 H 2154.27 -4.20522 3.52778 0
M  V30 22757 H 2154.53 -4.03854 1.79874 0
M  V30 22758 N 2153.59 -1.35359 -0.807199 0
M  V30 22759 C 2154.54 -1.28262 -1.9404 0
M  V30 22760 C 2155.53 -0.177666 -1.68466 0
M  V30 22761 O 2156.74 -0.34361 -1.7669 0
M  V30 22762 H 2153.11 -0.398861 -0.637506 0
M  V30 22763 H 2155.09 -2.23999 -1.97147 0
M  V30 22764 C 2153.83 -1.07086 -3.30799 0
M  V30 22765 H 2153.16 -1.91349 -3.51035 0
M  V30 22766 H 2154.6 -1.06161 -4.10495 0
M  V30 22767 C 2153.06 0.225309 -3.36146 0
M  V30 22768 O 2153.59 1.22131 -3.82684 0
M  V30 22769 N 2151.79 0.26387 -2.894 0
M  V30 22770 H 2151.34 -0.54725 -2.5172 0
M  V30 22771 H 2151.3 1.13084 -2.93359 0
M  V30 22772 N 2155.07 1.02928 -1.19346 0
M  V30 22773 C 2155.98 2.14674 -0.946161 0
M  V30 22774 C 2157 1.73748 0.0936895 0
M  V30 22775 O 2158.17 2.01195 -0.0908598 0
M  V30 22776 C 2155.24 3.43253 -0.487673 0
M  V30 22777 C 2154.3 3.98496 -1.59686 0
M  V30 22778 C 2153.53 5.20938 -1.16016 0
M  V30 22779 O 2153.75 5.70395 -0.0235541 0
M  V30 22780 O 2152.69 5.69006 -1.96254 0
M  V30 22781 H 2156.51 2.38399 -1.88148 0
M  V30 22782 H 2154.1 1.13092 -0.97625 0
M  V30 22783 H 2155.98 4.20713 -0.240612 0
M  V30 22784 H 2154.66 3.20974 0.41921 0
M  V30 22785 H 2153.56 3.22373 -1.89807 0
M  V30 22786 H 2154.9 4.25138 -2.48029 0
M  V30 22787 N 2156.55 0.997319 1.2203 0
M  V30 22788 C 2157.49 0.551276 2.2412 0
M  V30 22789 C 2158.46 -0.418681 1.60737 0
M  V30 22790 O 2159.65 -0.322451 1.88056 0
M  V30 22791 C 2156.79 -0.123569 3.44879 0
M  V30 22792 C 2155.9 0.888653 4.22761 0
M  V30 22793 C 2155.04 0.186868 5.30871 0
M  V30 22794 C 2154.08 1.18716 6.00477 0
M  V30 22795 N 2153.21 0.513378 7.00221 0
M  V30 22796 H 2158.05 1.42656 2.61636 0
M  V30 22797 H 2155.59 0.714493 1.28582 0
M  V30 22798 H 2157.55 -0.53179 4.13797 0
M  V30 22799 H 2156.18 -0.962614 3.08113 0
M  V30 22800 H 2155.23 1.41517 3.53096 0
M  V30 22801 H 2156.54 1.65019 4.70712 0
M  V30 22802 H 2155.7 -0.277858 6.06063 0
M  V30 22803 H 2154.44 -0.60714 4.83906 0
M  V30 22804 H 2153.44 1.66247 5.24063 0
M  V30 22805 H 2154.67 1.98212 6.4953 0
M  V30 22806 H 2152.61 -0.261113 6.5548 0
M  V30 22807 H 2152.53 1.21329 7.462 0
M  V30 22808 H 2153.8 0.0716018 7.79467 0
M  V30 22809 N 2158.03 -1.37449 0.771075 0
M  V30 22810 C 2159.3 -1.93866 0.259851 0
M  V30 22811 C 2159.68 -1.7048 -1.24498 0
M  V30 22812 O 2159.03 -1.05322 -2.0278 0
M  V30 22813 C 2159.24 -3.4322 0.63251 0
M  V30 22814 C 2160.59 -4.20312 0.601925 0
M  V30 22815 O 2161.61 -3.5158 0.571859 0
M  V30 22816 O 2160.47 -5.42875 0.628405 0
M  V30 22817 H 2157.57 -0.824843 0.0596922 0
M  V30 22818 H 2160.11 -1.4674 0.852382 0
M  V30 22819 H 2158.88 -3.53822 1.6711 0
M  V30 22820 H 2158.51 -3.97598 0.0128904 0
M  V30 22821 N 2159.5 -0.52156 -1.4872 0
M  V30 22822 C 2160.75 0.0156187 -2.02794 0
M  V30 22823 C 2161.08 1.34729 -1.39863 0
M  V30 22824 O 2160.36 1.86812 -0.541426 0
M  V30 22825 C 2160.64 0.146526 -3.59802 0
M  V30 22826 C 2160.49 -1.20972 -4.33227 0
M  V30 22827 C 2161.81 0.87737 -4.31266 0
M  V30 22828 H 2158.93 0.00420207 -0.736988 0
M  V30 22829 H 2161.57 -0.676958 -1.77531 0
M  V30 22830 H 2159.72 0.736393 -3.81457 0
M  V30 22831 H 2161.4 -1.84005 -4.23013 0
M  V30 22832 H 2159.64 -1.79378 -3.94976 0
M  V30 22833 H 2160.31 -1.07121 -5.41506 0
M  V30 22834 H 2162.79 0.376892 -4.1439 0
M  V30 22835 H 2161.66 0.937846 -5.40829 0
M  V30 22836 H 2161.92 1.92578 -3.97953 0
M  V30 22837 N 2160.98 1.55502 -0.256304 0
M  V30 22838 C 2161.91 2.24749 0.633265 0
M  V30 22839 C 2162.89 1.23102 1.17388 0
M  V30 22840 O 2164.08 1.51778 1.2115 0
M  V30 22841 C 2161.21 2.95418 1.82607 0
M  V30 22842 C 2160.16 4.03834 1.41782 0
M  V30 22843 C 2159.49 4.61978 2.69222 0
M  V30 22844 C 2160.79 5.19048 0.581913 0
M  V30 22845 H 2162.48 2.99348 0.0558207 0
M  V30 22846 H 2160.03 1.43978 0.0254079 0
M  V30 22847 H 2161.98 3.42565 2.45412 0
M  V30 22848 H 2160.71 2.18323 2.42905 0
M  V30 22849 H 2159.36 3.5747 0.813066 0
M  V30 22850 H 2159.01 3.81572 3.27737 0
M  V30 22851 H 2158.71 5.3517 2.42625 0
M  V30 22852 H 2160.24 5.11864 3.32908 0
M  V30 22853 H 2161.65 5.62363 1.11449 0
M  V30 22854 H 2160.05 5.98687 0.411617 0
M  V30 22855 H 2161.12 4.83216 -0.403719 0
M  V30 22856 N 2162.46 -0.0166879 1.57591 0
M  V30 22857 C 2163.71 -0.704094 1.89012 0
M  V30 22858 C 2164.02 -1.75854 0.856437 0
M  V30 22859 O 2165.23 -2.4994 1.06029 0
M  V30 22860 C 2163.68 -1.30343 3.35468 0
M  V30 22861 C 2163.29 -0.284687 4.47095 0
M  V30 22862 C 2165.04 -1.96999 3.76021 0
M  V30 22863 C 2162.94 -0.893068 5.84618 0
M  V30 22864 H 2161.87 -0.266736 0.705243 0
M  V30 22865 H 2164.52 0.0411208 1.83454 0
M  V30 22866 H 2162.91 -2.09876 3.3581 0
M  V30 22867 H 2164.08 0.484835 4.58242 0
M  V30 22868 H 2162.4 0.280487 4.15454 0
M  V30 22869 H 2164.99 -2.43392 4.76093 0
M  V30 22870 H 2165.34 -2.79347 3.0866 0
M  V30 22871 H 2165.87 -1.24224 3.77906 0
M  V30 22872 H 2162.61 -0.108736 6.5541 0
M  V30 22873 H 2162.13 -1.63214 5.77167 0
M  V30 22874 H 2163.81 -1.39672 6.31744 0
M  V30 22875 N 2163.94 -1.54924 -0.289176 0
M  V30 22876 C 2165.16 -1.791 -1.04585 0
M  V30 22877 C 2165.59 -0.55455 -1.7974 0
M  V30 22878 O 2164.95 0.495343 -1.74402 0
M  V30 22879 C 2164.99 -3.0053 -1.99283 0
M  V30 22880 O 2164.1 -2.74483 -3.07787 0
M  V30 22881 H 2163.44 -0.592442 -0.299847 0
M  V30 22882 H 2165.97 -2.02034 -0.323001 0
M  V30 22883 H 2165.98 -3.28824 -2.41534 0
M  V30 22884 H 2164.65 -3.90179 -1.4399 0
M  V30 22885 H 2163.23 -2.5724 -2.69966 0
M  V30 22886 N 2165.42 0.552936 -1.47582 0
M  V30 22887 C 2166.36 1.65963 -1.60389 0
M  V30 22888 C 2167.33 1.59979 -0.446754 0
M  V30 22889 O 2168.52 1.78749 -0.667351 0
M  V30 22890 C 2165.66 3.04278 -1.62815 0
M  V30 22891 C 2164.77 3.20668 -2.89476 0
M  V30 22892 C 2163.91 4.49406 -2.8321 0
M  V30 22893 C 2162.95 4.59243 -4.04676 0
M  V30 22894 N 2162.08 5.79341 -3.96621 0
M  V30 22895 H 2166.92 1.54355 -2.54909 0
M  V30 22896 H 2164.46 0.751844 -1.26435 0
M  V30 22897 H 2166.42 3.84377 -1.62204 0
M  V30 22898 H 2165.05 3.14712 -0.718048 0
M  V30 22899 H 2164.1 2.33973 -2.99935 0
M  V30 22900 H 2165.41 3.238 -3.79414 0
M  V30 22901 H 2164.57 5.3777 -2.80872 0
M  V30 22902 H 2163.3 4.4876 -1.90961 0
M  V30 22903 H 2162.31 3.69291 -4.07314 0
M  V30 22904 H 2163.53 4.61645 -4.98057 0
M  V30 22905 H 2161.48 5.79636 -3.07178 0
M  V30 22906 H 2161.4 5.8387 -4.80242 0
M  V30 22907 H 2162.67 6.70054 -3.98306 0
M  V30 22908 N 2166.89 1.35785 0.800009 0
M  V30 22909 C 2168.12 1.32717 1.59377 0
M  V30 22910 C 2168.54 -0.0914251 1.87878 0
M  V30 22911 O 2167.9 -1.06023 1.47068 0
M  V30 22912 C 2167.95 2.14589 2.898 0
M  V30 22913 O 2167.05 1.53112 3.82924 0
M  V30 22914 H 2166.4 0.45473 0.483856 0
M  V30 22915 H 2168.93 1.7892 0.992412 0
M  V30 22916 H 2168.94 2.26784 3.39165 0
M  V30 22917 H 2167.61 3.17717 2.68382 0
M  V30 22918 H 2166.19 1.49795 3.41491 0
M  V30 22919 N 2168.37 -1.02294 1.19891 0
M  V30 22920 C 2169.6 -1.79941 1.03131 0
M  V30 22921 C 2170.02 -1.8346 -0.415201 0
M  V30 22922 O 2169.38 -1.26499 -1.29876 0
M  V30 22923 C 2169.43 -3.22565 1.61196 0
M  V30 22924 O 2168.53 -4.03644 0.845295 0
M  V30 22925 H 2167.87 -0.555254 0.364128 0
M  V30 22926 H 2170.4 -1.28709 1.59045 0
M  V30 22927 H 2170.41 -3.73296 1.64663 0
M  V30 22928 H 2169.09 -3.19318 2.66474 0
M  V30 22929 H 2167.67 -3.62262 0.884338 0
M  V30 22930 N 2169.85 -1.00378 -1.21499 0
M  V30 22931 C 2171.1 -0.681173 -1.8985 0
M  V30 22932 C 2171.41 0.791343 -1.78877 0
M  V30 22933 O 2172.62 1.22598 -2.42244 0
M  V30 22934 C 2171.07 -1.1679 -3.40424 0
M  V30 22935 C 2170.68 -2.6664 -3.6001 0
M  V30 22936 C 2172.43 -0.920124 -4.14408 0
M  V30 22937 C 2170.33 -3.0886 -5.04341 0
M  V30 22938 H 2169.26 -0.251086 -0.710965 0
M  V30 22939 H 2171.91 -1.21478 -1.37533 0
M  V30 22940 H 2170.3 -0.562349 -3.91987 0
M  V30 22941 H 2171.47 -3.32634 -3.18891 0
M  V30 22942 H 2169.79 -2.89419 -2.99376 0
M  V30 22943 H 2172.38 -1.21113 -5.20803 0
M  V30 22944 H 2172.73 0.143641 -4.16052 0
M  V30 22945 H 2173.26 -1.4884 -3.68906 0
M  V30 22946 H 2170 -4.14458 -5.07844 0
M  V30 22947 H 2169.52 -2.47577 -5.4632 0
M  V30 22948 H 2171.2 -3.00772 -5.7284 0
M  V30 22949 N 2171.33 1.37038 -0.778354 0
M  V30 22950 C 2172.28 2.3207 -0.156991 0
M  V30 22951 C 2173.27 1.55262 0.677503 0
M  V30 22952 O 2174.48 1.70608 0.573826 0
M  V30 22953 H 2170.85 0.75132 -0.0319844 0
M  V30 22954 H 2172.82 2.82052 -0.974127 0
M  V30 22955 C 2171.57 3.40528 0.702542 0
M  V30 22956 H 2170.89 3.99739 0.0697802 0
M  V30 22957 H 2172.33 4.0937 1.10417 0
M  V30 22958 C 2170.79 2.81165 1.85602 0
M  V30 22959 O 2171.32 2.72442 2.95192 0
M  V30 22960 N 2169.53 2.38613 1.65868 0
M  V30 22961 H 2169.08 2.45907 0.767299 0
M  V30 22962 H 2169.03 1.99239 2.4321 0
M  V30 22963 N 2172.81 0.529439 1.48441 0
M  V30 22964 C 2174.05 -0.00485664 2.02499 0
M  V30 22965 C 2174.38 -1.34333 1.40659 0
M  V30 22966 O 2173.64 -1.88057 0.541576 0
M  V30 22967 C 2173.94 -0.176478 3.56964 0
M  V30 22968 C 2173.6 1.08757 4.37587 0
M  V30 22969 C 2172.26 1.434 4.59336 0
M  V30 22970 C 2174.62 1.92647 4.8429 0
M  V30 22971 C 2171.94 2.61831 5.25035 0
M  V30 22972 C 2174.3 3.10256 5.51293 0
M  V30 22973 C 2172.96 3.45246 5.71281 0
M  V30 22974 H 2172.23 -0.00177717 0.740998 0
M  V30 22975 H 2174.88 0.695352 1.7843 0
M  V30 22976 H 2173.18 -0.959449 3.79871 0
M  V30 22977 H 2174.88 -0.604791 3.96413 0
M  V30 22978 H 2171.47 0.807773 4.20919 0
M  V30 22979 H 2175.65 1.67194 4.6729 0
M  V30 22980 H 2170.91 2.89143 5.38708 0
M  V30 22981 H 2175.08 3.75566 5.86449 0
M  V30 22982 H 2172.71 4.37113 6.21961 0
M  V30 22983 N 2174.29 -1.55364 0.264547 0
M  V30 22984 C 2175.51 -2.03764 -0.358889 0
M  V30 22985 C 2175.93 -1.14327 -1.50249 0
M  V30 22986 O 2175.29 -0.161219 -1.81787 0
M  V30 22987 C 2175.34 -3.51366 -0.849959 0
M  V30 22988 O 2175.06 -4.37397 0.248086 0
M  V30 22989 C 2176.56 -4.15606 -1.54229 0
M  V30 22990 H 2173.78 -0.66582 -0.0832187 0
M  V30 22991 H 2176.32 -2.00677 0.39356 0
M  V30 22992 H 2174.48 -3.5493 -1.55253 0
M  V30 22993 H 2174.89 -5.24345 -0.127661 0
M  V30 22994 H 2176.37 -5.20522 -1.83742 0
M  V30 22995 H 2176.84 -3.63145 -2.47027 0
M  V30 22996 H 2177.45 -4.16015 -0.883843 0
M  V30 22997 N 2175.76 0.00833021 -1.57598 0
M  V30 22998 C 2177.01 0.695941 -1.90485 0
M  V30 22999 C 2177.34 1.73883 -0.864775 0
M  V30 23000 O 2176.62 1.94144 0.11758 0
M  V30 23001 C 2176.9 1.34667 -3.33971 0
M  V30 23002 C 2176.75 0.315885 -4.48689 0
M  V30 23003 C 2178.07 2.2751 -3.76732 0
M  V30 23004 H 2175.19 0.251528 -0.69275 0
M  V30 23005 H 2177.83 -0.0412539 -1.89955 0
M  V30 23006 H 2175.98 1.975 -3.34553 0
M  V30 23007 H 2177.66 -0.312127 -4.60243 0
M  V30 23008 H 2175.9 -0.362729 -4.32281 0
M  V30 23009 H 2176.57 0.810081 -5.46024 0
M  V30 23010 H 2179.05 1.74702 -3.77649 0
M  V30 23011 H 2177.92 2.70011 -4.77897 0
M  V30 23012 H 2178.18 3.15068 -3.10136 0
M  V30 23013 N 2177.24 1.55075 0.280956 0
M  V30 23014 C 2178.19 1.8819 1.36702 0
M  V30 23015 C 2179.18 0.757458 1.51522 0
M  V30 23016 O 2180.39 0.941707 1.53401 0
M  V30 23017 H 2176.76 0.597182 0.457031 0
M  V30 23018 H 2178.74 2.78931 1.0602 0
M  V30 23019 C 2177.48 2.16344 2.72196 0
M  V30 23020 H 2176.81 3.0235 2.61581 0
M  V30 23021 H 2178.25 2.4344 3.4715 0
M  V30 23022 C 2176.71 0.968431 3.22681 0
M  V30 23023 O 2177.24 0.199029 4.01207 0
M  V30 23024 N 2175.44 0.768305 2.8026 0
M  V30 23025 H 2174.99 1.39565 2.16516 0
M  V30 23026 H 2174.95 -0.029657 3.14386 0
M  V30 23027 N 2178.72 -0.545102 1.47873 0
M  V30 23028 C 2179.96 -1.31236 1.56705 0
M  V30 23029 C 2180.32 -1.90628 0.229129 0
M  V30 23030 O 2181.52 -2.68111 0.192359 0
M  V30 23031 C 2179.8 -2.38385 2.66284 0
M  V30 23032 S 2181.35 -3.25037 2.94782 0
M  V30 23033 H 2178.17 -0.446614 0.553224 0
M  V30 23034 H 2180.77 -0.622716 1.85317 0
M  V30 23035 H 2179.48 -1.93208 3.62076 0
M  V30 23036 H 2179.01 -3.12075 2.39526 0
M  V30 23037 H 2181.02 -4.38135 2.32922 0
M  V30 23038 N 2180.2 -1.36208 -0.792797 0
M  V30 23039 C 2181.42 -1.3356 -1.58671 0
M  V30 23040 C 2181.85 0.0814602 -1.87924 0
M  V30 23041 O 2181.21 1.05241 -1.47628 0
M  V30 23042 C 2181.25 -2.16123 -2.88658 0
M  V30 23043 O 2180.36 -1.5514 -3.82106 0
M  V30 23044 H 2179.7 -0.45729 -0.481438 0
M  V30 23045 H 2182.23 -1.79444 -0.982909 0
M  V30 23046 H 2182.24 -2.28579 -3.37958 0
M  V30 23047 H 2180.91 -3.19136 -2.66693 0
M  V30 23048 H 2179.49 -1.51604 -3.40691 0
M  V30 23049 N 2181.68 1.01656 -1.20431 0
M  V30 23050 C 2182.92 1.75625 -1.02604 0
M  V30 23051 C 2183.28 1.87366 0.43725 0
M  V30 23052 O 2182.57 1.38844 1.32034 0
M  V30 23053 C 2182.76 3.17385 -1.64322 0
M  V30 23054 C 2182.59 3.19465 -3.165 0
M  V30 23055 C 2181.36 3.26704 -3.85477 0
M  V30 23056 C 2183.56 3.0551 -4.13725 0
M  V30 23057 N 2181.54 3.18289 -5.24943 0
M  V30 23058 C 2182.91 3.04864 -5.39868 0
M  V30 23059 C 2184.97 2.89727 -4.04923 0
M  V30 23060 C 2183.67 2.90054 -6.58226 0
M  V30 23061 C 2185.7 2.7627 -5.22904 0
M  V30 23062 C 2185.06 2.76291 -6.47953 0
M  V30 23063 H 2181.16 0.653369 -0.42969 0
M  V30 23064 H 2183.74 1.20915 -1.52603 0
M  V30 23065 H 2181.91 3.70388 -1.16906 0
M  V30 23066 H 2183.65 3.79783 -1.3981 0
M  V30 23067 H 2180.4 3.3343 -3.36335 0
M  V30 23068 H 2180.82 3.17455 -5.97956 0
M  V30 23069 H 2185.47 2.88525 -3.09052 0
M  V30 23070 H 2183.18 2.90005 -7.54269 0
M  V30 23071 H 2186.77 2.65075 -5.17906 0
M  V30 23072 H 2185.65 2.65996 -7.3771 0
M  V30 23073 N 2183.15 1.01021 1.20965 0
M  V30 23074 C 2184.4 0.695875 1.90168 0
M  V30 23075 C 2184.73 -0.773882 1.78441 0
M  V30 23076 O 2183.98 -1.57716 1.15862 0
M  V30 23077 C 2184.28 1.06913 3.41034 0
M  V30 23078 C 2183.95 2.53402 3.72959 0
M  V30 23079 C 2182.61 2.9343 3.81382 0
M  V30 23080 C 2184.96 3.48268 3.87761 0
M  V30 23081 C 2182.29 4.27275 4.02061 0
M  V30 23082 C 2184.64 4.81794 4.09948 0
M  V30 23083 C 2183.31 5.21537 4.166 0
M  V30 23084 H 2182.58 0.254639 0.695874 0
M  V30 23085 H 2185.22 1.26961 1.43364 0
M  V30 23086 H 2183.53 0.413721 3.8961 0
M  V30 23087 H 2185.23 0.803706 3.92863 0
M  V30 23088 H 2181.82 2.21384 3.66997 0
M  V30 23089 H 2186 3.18506 3.80615 0
M  V30 23090 H 2181.26 4.57631 4.05443 0
M  V30 23091 H 2185.43 5.55233 4.20344 0
M  V30 23092 H 2183.06 6.25264 4.32375 0
M  V30 23093 N 2184.63 -1.36623 0.78561 0
M  V30 23094 C 2185.86 -2.04129 0.366917 0
M  V30 23095 C 2186.28 -1.58852 -1.00736 0
M  V30 23096 O 2185.64 -0.755202 -1.64822 0
M  V30 23097 C 2185.69 -3.5797 0.43472 0
M  V30 23098 O 2184.79 -4.08584 -0.559755 0
M  V30 23099 H 2184.13 -0.645306 0.156447 0
M  V30 23100 H 2186.66 -1.74656 1.06566 0
M  V30 23101 H 2186.67 -4.06918 0.296959 0
M  V30 23102 H 2185.35 -3.90277 1.43724 0
M  V30 23103 H 2183.92 -3.70918 -0.38397 0
M  V30 23104 N 2186.11 -0.537304 -1.48158 0
M  V30 23105 C 2187.39 0.0588571 -1.95511 0
M  V30 23106 C 2187.77 1.50563 -1.47966 0
M  V30 23107 O 2187.11 2.17207 -0.709454 0
M  V30 23108 C 2187.32 -0.0659743 -3.48938 0
M  V30 23109 C 2188.67 0.089563 -4.24506 0
M  V30 23110 O 2189.7 0.00746266 -3.56199 0
M  V30 23111 O 2188.56 0.262738 -5.45868 0
M  V30 23112 H 2185.65 0.0752315 -0.823571 0
M  V30 23113 H 2188.2 -0.60242 -1.58647 0
M  V30 23114 H 2186.97 -1.0735 -3.76287 0
M  V30 23115 H 2186.59 0.633822 -3.92516 0
M  V30 23116 N 2187.59 1.55221 -0.272782 0
M  V30 23117 C 2188.82 2.03951 0.348078 0
M  V30 23118 C 2189.23 1.15123 1.4964 0
M  V30 23119 O 2188.59 0.170857 1.81698 0
M  V30 23120 C 2188.64 3.51812 0.831313 0
M  V30 23121 O 2188.36 4.37259 -0.271279 0
M  V30 23122 C 2189.86 4.16418 1.52023 0
M  V30 23123 H 2187.08 0.666252 0.0796865 0
M  V30 23124 H 2189.63 2.00466 -0.404197 0
M  V30 23125 H 2187.78 3.55748 1.53368 0
M  V30 23126 H 2188.19 5.24405 0.0998522 0
M  V30 23127 H 2189.67 5.21489 1.80979 0
M  V30 23128 H 2190.15 3.6445 2.45097 0
M  V30 23129 H 2190.75 4.16478 0.861768 0
M  V30 23130 N 2189.07 2.77022e-05 1.576 0
M  V30 23131 C 2190.01 -1.0096 2.09547 0
M  V30 23132 C 2191.01 -1.3559 1.01547 0
M  V30 23133 O 2192.21 -1.34154 1.20012 0
M  V30 23134 H 2188.59 -0.343238 0.669098 0
M  V30 23135 H 2190.56 -0.545912 2.93364 0
M  V30 23136 C 2189.31 -2.29263 2.61407 0
M  V30 23137 H 2188.63 -2.03484 3.44143 0
M  V30 23138 H 2190.07 -2.98185 3.01433 0
M  V30 23139 C 2188.53 -3.00245 1.52822 0
M  V30 23140 O 2189.06 -3.9123 0.911146 0
M  V30 23141 N 2187.27 -2.62071 1.25567 0
M  V30 23142 H 2186.81 -1.88164 1.75932 0
M  V30 23143 H 2186.77 -3.09878 0.531333 0
M  V30 23144 N 2190.54 -1.55222 -0.272728 0
M  V30 23145 C 2191.79 -1.75494 -1.00231 0
M  V30 23146 C 2192.11 -0.559233 -1.86809 0
M  V30 23147 O 2191.38 0.425848 -1.91215 0
M  V30 23148 H 2189.96 -0.647172 -0.373065 0
M  V30 23149 H 2192.63 -1.92625 -0.296893 0
M  V30 23150 H 2191.72 -2.65594 -1.63909 0
M  V30 23151 N 2192.02 0.537252 -1.4816 0
M  V30 23152 C 2192.99 1.62469 -1.61668 0
M  V30 23153 C 2193.99 1.53139 -0.490422 0
M  V30 23154 O 2195.18 1.56939 -0.756026 0
M  V30 23155 C 2192.31 3.02073 -1.58003 0
M  V30 23156 H 2193.5 1.51834 -2.58624 0
M  V30 23157 H 2191.05 0.758747 -1.36648 0
M  V30 23158 H 2191.79 3.18221 -0.624969 0
M  V30 23159 H 2191.57 3.10254 -2.3976 0
M  V30 23160 H 2193.06 3.81148 -1.70634 0
M  V30 23161 N 2193.5 1.36626 0.785562 0
M  V30 23162 C 2194.75 1.31264 1.54588 0
M  V30 23163 C 2195.08 -0.106789 1.93906 0
M  V30 23164 O 2194.35 -1.06105 1.63009 0
M  V30 23165 C 2194.64 2.23894 2.82034 0
M  V30 23166 C 2194.49 3.74553 2.49059 0
M  V30 23167 C 2195.81 2.15224 3.83884 0
M  V30 23168 H 2192.93 0.478152 0.560838 0
M  V30 23169 H 2195.57 1.67211 0.902248 0
M  V30 23170 H 2193.72 1.93369 3.36958 0
M  V30 23171 H 2195.39 4.15614 2.00157 0
M  V30 23172 H 2193.64 3.93799 1.81947 0
M  V30 23173 H 2194.31 4.34782 3.40101 0
M  V30 23174 H 2196.78 2.42101 3.38417 0
M  V30 23175 H 2195.66 2.82201 4.70801 0
M  V30 23176 H 2195.92 1.14075 4.27129 0
M  V30 23177 N 2194.98 -1.01016 1.20969 0
M  V30 23178 C 2195.93 -2.09689 0.964317 0
M  V30 23179 C 2196.9 -1.6575 -0.107824 0
M  V30 23180 O 2198.08 -1.90762 0.0382323 0
M  V30 23181 C 2195.22 -3.41014 0.52949 0
M  V30 23182 C 2194.33 -3.98395 1.6705 0
M  V30 23183 C 2193.47 -5.17806 1.18534 0
M  V30 23184 C 2192.51 -5.67284 2.29902 0
M  V30 23185 N 2191.64 -6.77951 1.82558 0
M  V30 23186 H 2196.48 -2.30013 1.89467 0
M  V30 23187 H 2194.02 -1.12788 0.944309 0
M  V30 23188 H 2195.98 -4.16397 0.258662 0
M  V30 23189 H 2194.61 -3.20743 -0.363862 0
M  V30 23190 H 2193.66 -3.20046 2.05609 0
M  V30 23191 H 2194.97 -4.31113 2.50885 0
M  V30 23192 H 2194.13 -6.00417 0.870867 0
M  V30 23193 H 2192.87 -4.86669 0.316973 0
M  V30 23194 H 2191.87 -4.83273 2.62158 0
M  V30 23195 H 2193.1 -6.00453 3.17226 0
M  V30 23196 H 2191.04 -6.4863 0.980568 0
M  V30 23197 H 2190.96 -7.09896 2.59969 0
M  V30 23198 H 2192.23 -7.6411 1.54129 0
M  V30 23199 N 2196.46 -1.01661 -1.20428 0
M  V30 23200 C 2197.69 -0.724115 -1.93495 0
M  V30 23201 C 2198.09 0.719149 -1.75 0
M  V30 23202 O 2197.44 1.49947 -1.06121 0
M  V30 23203 C 2197.5 -0.980001 -3.45885 0
M  V30 23204 C 2197.16 -2.41238 -3.8814 0
M  V30 23205 C 2198.16 -3.3932 -3.93901 0
M  V30 23206 C 2195.85 -2.75313 -4.20129 0
M  V30 23207 C 2197.84 -4.69537 -4.31061 0
M  V30 23208 C 2195.53 -4.05743 -4.56964 0
M  V30 23209 C 2196.52 -5.02666 -4.62402 0
M  V30 23210 O 2196.21 -6.30762 -4.98392 0
M  V30 23211 H 2195.94 -0.265173 -0.621819 0
M  V30 23212 H 2198.5 -1.36069 -1.53865 0
M  V30 23213 H 2196.73 -0.286265 -3.85639 0
M  V30 23214 H 2198.42 -0.679091 -4.00179 0
M  V30 23215 H 2199.18 -3.14332 -3.69352 0
M  V30 23216 H 2195.06 -2.00559 -4.15087 0
M  V30 23217 H 2198.61 -5.45187 -4.3522 0
M  V30 23218 H 2194.5 -4.3051 -4.80969 0
M  V30 23219 H 2195.27 -6.35051 -5.16384 0
M  V30 23220 N 2197.93 1.36205 -0.792844 0
M  V30 23221 C 2199.18 1.9915 -0.366821 0
M  V30 23222 C 2199.51 1.62921 1.0624 0
M  V30 23223 O 2198.76 0.877473 1.74925 0
M  V30 23224 C 2199.06 3.54141 -0.481564 0
M  V30 23225 C 2198.73 4.10199 -1.87209 0
M  V30 23226 C 2197.39 4.25222 -2.25255 0
M  V30 23227 C 2199.74 4.40715 -2.78245 0
M  V30 23228 C 2197.07 4.68072 -3.53731 0
M  V30 23229 C 2199.42 4.84998 -4.06152 0
M  V30 23230 C 2198.09 4.98226 -4.44215 0
M  V30 23231 H 2197.36 0.728741 -0.134229 0
M  V30 23232 H 2200 1.6264 -1.01097 0
M  V30 23233 H 2198.31 3.91026 0.246077 0
M  V30 23234 H 2200.01 4.0078 -0.132915 0
M  V30 23235 H 2196.6 3.98949 -1.56646 0
M  V30 23236 H 2200.78 4.28674 -2.50104 0
M  V30 23237 H 2196.04 4.76501 -3.83088 0
M  V30 23238 H 2200.21 5.07573 -4.76805 0
M  V30 23239 H 2197.84 5.31187 -5.43823 0
M  V30 23240 N 2199.41 0.545154 1.47871 0
M  V30 23241 C 2200.64 0.0211204 2.06889 0
M  V30 23242 C 2201.06 -1.26718 1.39957 0
M  V30 23243 O 2200.41 -1.75741 0.492067 0
M  V30 23244 C 2200.46 -0.190754 3.60996 0
M  V30 23245 O 2200.18 1.04652 4.25417 0
M  V30 23246 C 2201.69 -0.753445 4.3685 0
M  V30 23247 H 2198.91 0.0403753 0.669784 0
M  V30 23248 H 2201.45 0.755128 1.90048 0
M  V30 23249 H 2199.6 -0.874854 3.77392 0
M  V30 23250 H 2200.02 0.836702 5.17783 0
M  V30 23251 H 2201.49 -0.851043 5.454 0
M  V30 23252 H 2201.97 -1.76193 4.02309 0
M  V30 23253 H 2202.58 -0.105429 4.25169 0
M  V30 23254 N 2200.89 -1.55074 0.28101 0
M  V30 23255 C 2202.14 -2.00021 -0.334575 0
M  V30 23256 C 2202.47 -1.16917 -1.55061 0
M  V30 23257 O 2201.74 -0.24068 -1.93005 0
M  V30 23258 C 2202.03 -3.53012 -0.710945 0
M  V30 23259 C 2201.88 -4.46867 0.512844 0
M  V30 23260 C 2203.2 -4.12084 -1.54515 0
M  V30 23261 H 2200.32 -0.727143 -0.120135 0
M  V30 23262 H 2202.96 -1.85973 0.38913 0
M  V30 23263 H 2201.11 -3.65114 -1.32754 0
M  V30 23264 H 2202.78 -4.467 1.15139 0
M  V30 23265 H 2201.03 -4.18284 1.14982 0
M  V30 23266 H 2201.7 -5.51617 0.205653 0
M  V30 23267 H 2204.17 -4.03294 -1.02435 0
M  V30 23268 H 2203.05 -5.1933 -1.7773 0
M  V30 23269 H 2203.31 -3.62686 -2.52806 0
M  V30 23270 N 2202.37 -0.00838561 -1.57598 0
M  V30 23271 C 2203.62 0.675698 -1.91212 0
M  V30 23272 C 2203.95 1.72956 -0.883169 0
M  V30 23273 O 2203.22 1.94258 0.0969819 0
M  V30 23274 C 2203.51 1.31117 -3.35381 0
M  V30 23275 C 2203.36 0.268278 -4.48999 0
M  V30 23276 C 2204.68 2.23502 -3.79124 0
M  V30 23277 H 2201.8 0.244167 -0.695379 0
M  V30 23278 H 2204.44 -0.0613989 -1.89901 0
M  V30 23279 H 2202.59 1.93941 -3.36629 0
M  V30 23280 H 2204.26 -0.360925 -4.59886 0
M  V30 23281 H 2202.5 -0.408557 -4.31872 0
M  V30 23282 H 2203.18 0.752122 -5.46852 0
M  V30 23283 H 2205.65 1.70686 -3.7948 0
M  V30 23284 H 2204.53 2.64927 -4.80734 0
M  V30 23285 H 2204.79 3.11761 -3.13461 0
M  V30 23286 N 2203.85 1.55365 0.264492 0
M  V30 23287 C 2205.09 1.76633 0.996429 0
M  V30 23288 C 2205.43 0.570511 1.85631 0
M  V30 23289 O 2204.7 -0.431717 1.89648 0
M  V30 23290 C 2204.98 3.07628 1.87182 0
M  V30 23291 C 2204.84 4.37581 1.0413 0
M  V30 23292 C 2206.16 3.34722 2.85743 0
M  V30 23293 H 2203.28 0.642628 0.36083 0
M  V30 23294 H 2205.92 1.88098 0.268185 0
M  V30 23295 H 2204.07 2.97985 2.49274 0
M  V30 23296 H 2205.74 4.59193 0.440436 0
M  V30 23297 H 2203.98 4.32426 0.345039 0
M  V30 23298 H 2204.65 5.25583 1.6872 0
M  V30 23299 H 2207.13 3.44214 2.33787 0
M  V30 23300 H 2206.01 4.27629 3.44129 0
M  V30 23301 H 2206.27 2.54775 3.61306 0
M  V30 23302 N 2205.33 -0.529387 1.48443 0
M  V30 23303 C 2206.74 -0.85798 1.34577 0
M  V30 23304 C 2206.94 -1.98308 0.357235 0
M  V30 23305 O 2206 -2.51528 -0.221335 0
M  V30 23306 C 2207.31 -1.22495 2.74619 0
M  V30 23307 C 2208.86 -1.33479 2.83112 0
M  V30 23308 C 2209.33 -1.73519 4.23858 0
M  V30 23309 N 2210.82 -1.8062 4.26533 0
M  V30 23310 C 2211.56 -2.12987 5.32376 0
M  V30 23311 N 2211.06 -2.43774 6.48495 0
M  V30 23312 N 2212.85 -2.13998 5.1977 0
M  V30 23313 H 2205 0.212962 2.1133 0
M  V30 23314 H 2207.26 0.0326365 0.947438 0
M  V30 23315 H 2206.97 -0.471843 3.4852 0
M  V30 23316 H 2206.84 -2.17495 3.08181 0
M  V30 23317 H 2209.23 -2.07866 2.09465 0
M  V30 23318 H 2209.31 -0.365983 2.53168 0
M  V30 23319 H 2208.95 -0.996925 4.9802 0
M  V30 23320 H 2208.88 -2.71451 4.51245 0
M  V30 23321 H 2211.38 -1.59102 3.42775 0
M  V30 23322 H 2211.69 -2.67579 7.24998 0
M  V30 23323 H 2210.03 -2.41293 6.51769 0
M  V30 23324 H 2213.22 -1.89404 4.2807 0
M  V30 23325 H 2213.4 -2.38891 6.02358 0
M  V30 23326 N 2206.8 -1.37041 -0.778305 0
M  V30 23327 C 2207.71 -1.3445 -1.92251 0
M  V30 23328 C 2208.73 -0.245021 -1.72266 0
M  V30 23329 O 2209.91 -0.479293 -1.95614 0
M  V30 23330 C 2206.97 -1.14405 -3.2728 0
M  V30 23331 C 2206.03 -2.33931 -3.59965 0
M  V30 23332 C 2205.26 -2.14834 -4.88551 0
M  V30 23333 O 2205.49 -1.12922 -5.59111 0
M  V30 23334 O 2204.42 -3.0287 -5.20147 0
M  V30 23335 H 2208.25 -2.30807 -1.97388 0
M  V30 23336 H 2205.83 -1.17703 -0.920134 0
M  V30 23337 H 2207.71 -1.05189 -4.0806 0
M  V30 23338 H 2206.39 -0.211181 -3.2301 0
M  V30 23339 H 2205.3 -2.48718 -2.79446 0
M  V30 23340 H 2206.63 -3.25763 -3.6897 0
M  V30 23341 N 2208.28 1.00373 -1.21503 0
M  V30 23342 C 2209.24 2.07336 -0.976963 0
M  V30 23343 C 2210.24 1.60714 0.052504 0
M  V30 23344 O 2211.43 1.73216 -0.1849 0
M  V30 23345 C 2208.57 3.37596 -0.473483 0
M  V30 23346 H 2209.76 2.29889 -1.92591 0
M  V30 23347 H 2207.31 1.17369 -1.03219 0
M  V30 23348 H 2208.05 3.20723 0.480323 0
M  V30 23349 H 2207.83 3.72766 -1.21607 0
M  V30 23350 H 2209.32 4.16319 -0.326824 0
M  V30 23351 N 2209.76 1.02298 1.19887 0
M  V30 23352 C 2211.04 0.630864 1.85147 0
M  V30 23353 C 2211.42 -0.890748 1.91387 0
M  V30 23354 O 2210.76 -1.78506 1.42645 0
M  V30 23355 C 2210.97 1.28608 3.2444 0
M  V30 23356 C 2212.32 1.40557 4.00661 0
M  V30 23357 O 2213.35 1.24279 3.33816 0
M  V30 23358 O 2212.21 1.66922 5.20384 0
M  V30 23359 H 2209.3 0.218513 0.79761 0
M  V30 23360 H 2211.85 1.12076 1.27425 0
M  V30 23361 H 2210.62 2.32551 3.147 0
M  V30 23362 H 2210.24 0.783669 3.898 0
M  V30 23363 N 2211.24 -1.35782 0.800057 0
M  V30 23364 C 2212.49 -1.9856 0.376632 0
M  V30 23365 C 2212.81 -1.63797 -1.0581 0
M  V30 23366 O 2212.08 -0.917202 -1.73102 0
M  V30 23367 H 2210.66 -0.734465 0.136274 0
M  V30 23368 H 2213.32 -1.65804 1.02445 0
M  V30 23369 H 2212.41 -3.08432 0.477056 0
M  V30 23370 N 2212.72 -0.552988 -1.4758 0
M  V30 23371 C 2213.94 -0.0300957 -2.07378 0
M  V30 23372 C 2214.37 1.25226 -1.40357 0
M  V30 23373 O 2213.72 1.74909 -0.477129 0
M  V30 23374 C 2213.77 0.153168 -3.60275 0
M  V30 23375 O 2212.88 1.21671 -3.94043 0
M  V30 23376 H 2212.22 -0.0494298 -0.662158 0
M  V30 23377 H 2214.75 -0.767468 -1.8966 0
M  V30 23378 H 2214.76 0.36869 -4.06331 0
M  V30 23379 H 2213.43 -0.783469 -4.08454 0
M  V30 23380 H 2212.01 0.982016 -3.59737 0
M  V30 23381 N 2214.19 1.54923 -0.28923 0
M  V30 23382 C 2215.47 1.91952 0.375998 0
M  V30 23383 C 2215.85 1.21514 1.7262 0
M  V30 23384 O 2215.2 0.346807 2.25853 0
M  V30 23385 C 2215.41 3.45366 0.502318 0
M  V30 23386 C 2216.76 4.17399 0.778667 0
M  V30 23387 O 2217.78 3.51337 0.586585 0
M  V30 23388 O 2216.64 5.3433 1.14689 0
M  V30 23389 H 2213.73 0.800376 0.208153 0
M  V30 23390 H 2216.28 1.66332 -0.336423 0
M  V30 23391 H 2215.05 3.88735 -0.447324 0
M  V30 23392 H 2214.67 3.76985 1.26366 0
M  V30 23393 N 2215.67 0.0167433 1.57591 0
M  V30 23394 C 2216.58 -0.985172 2.12912 0
M  V30 23395 C 2217.6 -1.36555 1.07836 0
M  V30 23396 O 2218.77 -1.44948 1.39828 0
M  V30 23397 C 2215.84 -2.253 2.63516 0
M  V30 23398 C 2214.9 -1.93419 3.83259 0
M  V30 23399 C 2214.13 -3.14157 4.3144 0
M  V30 23400 O 2214.36 -4.26406 3.78859 0
M  V30 23401 O 2213.29 -2.97177 5.23421 0
M  V30 23402 H 2217.12 -0.544836 2.98773 0
M  V30 23403 H 2214.7 -0.203115 1.48013 0
M  V30 23404 H 2216.58 -2.99751 2.96188 0
M  V30 23405 H 2215.26 -2.68539 1.80745 0
M  V30 23406 H 2214.16 -1.16392 3.55533 0
M  V30 23407 H 2215.5 -1.55005 4.67155 0
M  V30 23408 N 2217.15 -1.55503 -0.256249 0
M  V30 23409 C 2218.08 -1.92542 -1.32098 0
M  V30 23410 C 2219.06 -0.789221 -1.50683 0
M  V30 23411 O 2220.25 -1.04874 -1.63447 0
M  V30 23412 C 2217.38 -2.21197 -2.67748 0
M  V30 23413 C 2216.33 -3.3698 -2.63872 0
M  V30 23414 C 2215.66 -3.51154 -4.0323 0
M  V30 23415 C 2216.96 -4.72925 -2.21674 0
M  V30 23416 H 2218.65 -2.81726 -1.01346 0
M  V30 23417 H 2216.2 -1.35548 -0.486081 0
M  V30 23418 H 2218.15 -2.45697 -3.42361 0
M  V30 23419 H 2216.87 -1.2883 -3.00117 0
M  V30 23420 H 2215.53 -3.12474 -1.91717 0
M  V30 23421 H 2215.18 -2.56224 -4.32849 0
M  V30 23422 H 2214.88 -4.2901 -4.01527 0
M  V30 23423 H 2216.4 -3.77965 -4.79557 0
M  V30 23424 H 2217.82 -4.96859 -2.86015 0
M  V30 23425 H 2216.22 -5.53816 -2.311 0
M  V30 23426 H 2217.29 -4.70617 -1.16825 0
M  V30 23427 N 2218.63 0.521507 -1.48721 0
M  V30 23428 C 2219.58 1.62524 -1.63874 0
M  V30 23429 C 2220.55 1.58996 -0.480587 0
M  V30 23430 O 2221.73 1.77293 -0.705116 0
M  V30 23431 C 2218.87 3.00756 -1.69232 0
M  V30 23432 C 2217.98 3.14455 -2.96212 0
M  V30 23433 C 2217.12 4.43298 -2.92678 0
M  V30 23434 C 2216.16 4.50556 -4.14326 0
M  V30 23435 N 2215.29 5.70798 -4.0882 0
M  V30 23436 H 2220.13 1.48913 -2.58126 0
M  V30 23437 H 2217.67 0.724856 -1.28001 0
M  V30 23438 H 2219.63 3.8085 -1.70321 0
M  V30 23439 H 2218.26 3.13119 -0.784641 0
M  V30 23440 H 2217.31 2.27558 -3.0483 0
M  V30 23441 H 2218.62 3.15679 -3.86197 0
M  V30 23442 H 2217.78 5.31691 -2.92215 0
M  V30 23443 H 2216.52 4.44608 -2.00437 0
M  V30 23444 H 2215.52 3.60568 -4.15055 0
M  V30 23445 H 2216.75 4.50977 -5.07737 0
M  V30 23446 H 2214.69 5.7299 -3.19404 0
M  V30 23447 H 2214.61 5.73552 -4.92519 0
M  V30 23448 H 2215.88 6.61455 -4.12429 0
M  V30 23449 N 2220.11 1.37452 0.771027 0
M  V30 23450 C 2221.52 1.29241 1.34735 0
M  V30 23451 C 2221.87 -0.0596564 1.96109 0
M  V30 23452 O 2220.99 -0.9615 1.93866 0
M  V30 23453 C 2221.59 2.34042 2.44969 0
M  V30 23454 C 2220.15 2.29463 2.98368 0
M  V30 23455 C 2219.29 2.17834 1.71592 0
M  V30 23456 H 2222.25 1.48063 0.57123 0
M  V30 23457 H 2222.27 1.98749 3.24467 0
M  V30 23458 H 2221.78 3.32436 2.0027 0
M  V30 23459 H 2219.88 1.34595 3.4744 0
M  V30 23460 H 2219.99 3.22906 3.53933 0
M  V30 23461 H 2218.36 1.64392 1.94544 0
M  V30 23462 H 2219.14 3.18143 1.28995 0
M  V30 23463 N 2221.58 -0.997276 1.22033 0
M  V30 23464 C 2222.49 -2.1209 1.00275 0
M  V30 23465 C 2223.51 -1.73935 -0.0475905 0
M  V30 23466 O 2224.69 -2.00883 0.144171 0
M  V30 23467 C 2221.75 -3.41839 0.578509 0
M  V30 23468 C 2220.81 -3.94122 1.70196 0
M  V30 23469 C 2220.05 -5.17679 1.29787 0
M  V30 23470 O 2220.27 -5.70132 0.174776 0
M  V30 23471 O 2219.2 -5.63603 2.11271 0
M  V30 23472 H 2223.03 -2.33327 1.94402 0
M  V30 23473 H 2220.61 -1.10464 1.00589 0
M  V30 23474 H 2222.5 -4.19927 0.352072 0
M  V30 23475 H 2221.17 -3.21973 -0.333962 0
M  V30 23476 H 2220.08 -3.17227 1.98287 0
M  V30 23477 H 2221.41 -4.18413 2.59213 0
M  V30 23478 N 2223.06 -1.02932 -1.19343 0
M  V30 23479 C 2223.99 -0.568609 -2.22035 0
M  V30 23480 C 2225.01 0.355751 -1.58866 0
M  V30 23481 O 2226.2 0.152072 -1.77851 0
M  V30 23482 C 2223.3 0.190693 -3.38363 0
M  V30 23483 C 2222.47 -0.738719 -4.31117 0
M  V30 23484 C 2221.53 -0.0247422 -5.26194 0
M  V30 23485 O 2220.55 -0.651454 -5.6546 0
M  V30 23486 N 2221.76 1.24584 -5.66974 0
M  V30 23487 H 2224.52 -1.45181 -2.62188 0
M  V30 23488 H 2222.08 -0.908405 -1.34013 0
M  V30 23489 H 2224.07 0.677891 -3.98982 0
M  V30 23490 H 2222.64 0.975314 -2.96996 0
M  V30 23491 H 2221.86 -1.406 -3.68273 0
M  V30 23492 H 2223.15 -1.37037 -4.89998 0
M  V30 23493 H 2222.55 1.77573 -5.37107 0
M  V30 23494 H 2221.11 1.67753 -6.29843 0
M  V30 23495 N 2224.54 1.35356 -0.807246 0
M  V30 23496 C 2225.47 2.28525 -0.175758 0
M  V30 23497 C 2226.49 1.50311 0.625328 0
M  V30 23498 O 2227.67 1.72535 0.45758 0
M  V30 23499 C 2224.77 3.29957 0.773413 0
M  V30 23500 C 2223.95 4.37396 0.0185527 0
M  V30 23501 C 2223.01 5.18682 0.886304 0
M  V30 23502 O 2222.03 5.68201 0.337006 0
M  V30 23503 N 2223.23 5.36856 2.20829 0
M  V30 23504 H 2226 2.83358 -0.976141 0
M  V30 23505 H 2223.56 1.47713 -0.662763 0
M  V30 23506 H 2225.55 3.81229 1.35817 0
M  V30 23507 H 2224.12 2.75634 1.4746 0
M  V30 23508 H 2223.34 3.87049 -0.747417 0
M  V30 23509 H 2224.63 5.06321 -0.501666 0
M  V30 23510 H 2224.03 4.9827 2.6785 0
M  V30 23511 H 2222.59 5.91306 2.74227 0
M  V30 23512 N 2226.02 0.560807 1.47284 0
M  V30 23513 C 2226.97 -0.205344 2.27073 0
M  V30 23514 C 2227.95 -0.88202 1.34571 0
M  V30 23515 O 2229.14 -0.779732 1.589 0
M  V30 23516 C 2226.27 -1.23241 3.20416 0
M  V30 23517 C 2225.36 -0.558967 4.204 0
M  V30 23518 N 2225.75 0.373016 5.04423 0
M  V30 23519 C 2224.05 -0.812445 4.38538 0
M  V30 23520 C 2224.75 0.764548 5.76654 0
M  V30 23521 N 2223.73 0.118575 5.43471 0
M  V30 23522 H 2227.53 0.511168 2.89421 0
M  V30 23523 H 2225.04 0.381002 1.57867 0
M  V30 23524 H 2227.04 -1.79528 3.76265 0
M  V30 23525 H 2225.7 -1.94998 2.59627 0
M  V30 23526 H 2226.71 0.747377 5.12479 0
M  V30 23527 H 2223.39 -1.51825 3.88916 0
M  V30 23528 H 2224.78 1.53057 6.54235 0
M  V30 23529 N 2227.5 -1.54768 0.297442 0
M  V30 23530 C 2228.91 -1.85669 -0.195914 0
M  V30 23531 C 2229.26 -1.2194 -1.53704 0
M  V30 23532 O 2228.38 -0.515791 -2.10163 0
M  V30 23533 C 2228.98 -3.36858 -0.362259 0
M  V30 23534 C 2227.54 -3.67804 -0.799836 0
M  V30 23535 C 2226.68 -2.77141 0.0939065 0
M  V30 23536 H 2229.64 -1.49989 0.518565 0
M  V30 23537 H 2229.66 -3.61169 -1.19739 0
M  V30 23538 H 2229.17 -3.83212 0.613988 0
M  V30 23539 H 2227.27 -3.26964 -1.78676 0
M  V30 23540 H 2227.38 -4.75049 -0.62169 0
M  V30 23541 H 2225.75 -2.51109 -0.42621 0
M  V30 23542 H 2226.53 -3.26316 1.06644 0
M  V30 23543 N 2228.97 -0.0251005 -1.5758 0
M  V30 23544 C 2229.9 0.956538 -2.13008 0
M  V30 23545 C 2230.89 1.34198 -1.04523 0
M  V30 23546 O 2232.07 1.42131 -1.32335 0
M  V30 23547 C 2229.2 2.24022 -2.6539 0
M  V30 23548 C 2228.15 1.99565 -3.78626 0
M  V30 23549 C 2227.48 3.34163 -4.1742 0
M  V30 23550 C 2228.78 1.33805 -5.0487 0
M  V30 23551 H 2230.47 0.494939 -2.95281 0
M  V30 23552 H 2228.02 0.236627 -1.42043 0
M  V30 23553 H 2229.97 2.93071 -3.02799 0
M  V30 23554 H 2228.7 2.7234 -1.80273 0
M  V30 23555 H 2227.36 1.32935 -3.41649 0
M  V30 23556 H 2227 3.80232 -3.29291 0
M  V30 23557 H 2226.7 3.18606 -4.93724 0
M  V30 23558 H 2228.23 4.04486 -4.57409 0
M  V30 23559 H 2229.64 1.92848 -5.39891 0
M  V30 23560 H 2228.04 1.28659 -5.86146 0
M  V30 23561 H 2229.11 0.310476 -4.83905 0
M  V30 23562 N 2230.45 1.55637 0.247999 0
M  V30 23563 C 2231.86 1.67868 0.817148 0
M  V30 23564 C 2232.21 0.622355 1.86068 0
M  V30 23565 O 2231.34 -0.23158 2.15157 0
M  V30 23566 C 2231.93 3.04328 1.48895 0
M  V30 23567 C 2230.49 3.18503 2.00581 0
M  V30 23568 C 2229.64 2.6374 0.856527 0
M  V30 23569 H 2232.59 1.58682 0.02383 0
M  V30 23570 H 2232.61 2.98712 2.35693 0
M  V30 23571 H 2232.12 3.81188 0.729212 0
M  V30 23572 H 2230.23 2.46465 2.79439 0
M  V30 23573 H 2230.34 4.25397 2.20395 0
M  V30 23574 H 2228.7 2.21536 1.25674 0
M  V30 23575 H 2229.49 3.43124 0.109893 0
M  V30 23576 N 2231.93 -0.513613 1.48996 0
M  V30 23577 C 2233.16 -1.29759 1.61794 0
M  V30 23578 C 2233.58 -1.85936 0.284508 0
M  V30 23579 O 2232.94 -1.65234 -0.746156 0
M  V30 23580 C 2232.99 -2.41268 2.67997 0
M  V30 23581 O 2232.09 -3.44768 2.26294 0
M  V30 23582 H 2231.43 -0.383621 0.54197 0
M  V30 23583 H 2233.96 -0.616273 1.95098 0
M  V30 23584 H 2233.97 -2.87216 2.89777 0
M  V30 23585 H 2232.65 -1.99743 3.64795 0
M  V30 23586 H 2231.22 -3.04825 2.14793 0
M  V30 23587 N 2233.41 -1.37859 -0.763727 0
M  V30 23588 C 2234.64 -1.36523 -1.55065 0
M  V30 23589 C 2235.05 0.0493894 -1.89136 0
M  V30 23590 O 2234.39 1.02372 -1.52531 0
M  V30 23591 C 2234.45 -2.14661 -2.88376 0
M  V30 23592 C 2234.12 -3.6356 -2.76899 0
M  V30 23593 C 2235.11 -4.57272 -2.47382 0
M  V30 23594 C 2232.8 -4.06787 -2.94669 0
M  V30 23595 C 2234.79 -5.9219 -2.35776 0
M  V30 23596 C 2232.48 -5.41787 -2.82683 0
M  V30 23597 C 2233.48 -6.34302 -2.53278 0
M  V30 23598 O 2233.17 -7.66821 -2.41332 0
M  V30 23599 H 2232.9 -0.469077 -0.486768 0
M  V30 23600 H 2235.45 -1.81913 -0.953781 0
M  V30 23601 H 2233.68 -1.63973 -3.50214 0
M  V30 23602 H 2235.37 -2.05858 -3.49824 0
M  V30 23603 H 2236.14 -4.25184 -2.33331 0
M  V30 23604 H 2232.02 -3.35131 -3.16557 0
M  V30 23605 H 2235.56 -6.64368 -2.12745 0
M  V30 23606 H 2231.46 -5.73475 -2.96304 0
M  V30 23607 H 2232.22 -7.77231 -2.56621 0
M  V30 23608 N 2234.89 0.990791 -1.22561 0
M  V30 23609 C 2235.82 2.09954 -1.02184 0
M  V30 23610 C 2236.8 1.70001 0.0579095 0
M  V30 23611 O 2237.98 1.93917 -0.104718 0
M  V30 23612 C 2235.11 3.42059 -0.601083 0
M  V30 23613 C 2234.07 3.95869 -1.627 0
M  V30 23614 C 2233.39 5.24047 -1.06202 0
M  V30 23615 C 2234.69 4.26315 -3.0175 0
M  V30 23616 H 2236.39 2.27259 -1.9492 0
M  V30 23617 H 2233.93 1.09209 -0.938585 0
M  V30 23618 H 2235.89 4.19037 -0.445634 0
M  V30 23619 H 2234.61 3.24588 0.361948 0
M  V30 23620 H 2233.27 3.21025 -1.77027 0
M  V30 23621 H 2232.92 5.02919 -0.0902787 0
M  V30 23622 H 2232.62 5.61016 -1.74741 0
M  V30 23623 H 2234.14 6.03657 -0.918198 0
M  V30 23624 H 2235.56 4.94081 -2.90786 0
M  V30 23625 H 2233.95 4.74461 -3.67433 0
M  V30 23626 H 2235.02 3.34004 -3.51524 0
M  V30 23627 N 2236.37 1.03564 1.18795 0
M  V30 23628 C 2237.28 0.632544 2.25912 0
M  V30 23629 C 2238.29 -0.338852 1.70669 0
M  V30 23630 O 2239.47 -0.195041 2.00453 0
M  V30 23631 C 2236.53 -0.00344848 3.467 0
M  V30 23632 C 2235.59 1.01631 4.17097 0
M  V30 23633 C 2234.83 0.410571 5.32118 0
M  V30 23634 O 2235.05 -0.784626 5.64978 0
M  V30 23635 O 2233.98 1.13677 5.91068 0
M  V30 23636 H 2237.81 1.52483 2.62646 0
M  V30 23637 H 2235.39 0.806217 1.2578 0
M  V30 23638 H 2237.28 -0.357736 4.19879 0
M  V30 23639 H 2235.95 -0.869631 3.118 0
M  V30 23640 H 2234.86 1.4223 3.46008 0
M  V30 23641 H 2236.19 1.85309 4.55984 0
M  V30 23642 N 2237.84 -1.34926 0.814413 0
M  V30 23643 C 2239.07 -2.02479 0.410576 0
M  V30 23644 C 2239.48 -1.61501 -0.985597 0
M  V30 23645 O 2238.82 -0.812005 -1.64779 0
M  V30 23646 C 2238.89 -3.56997 0.423446 0
M  V30 23647 C 2238.55 -4.21269 1.77148 0
M  V30 23648 C 2239.55 -4.42393 2.73101 0
M  V30 23649 C 2237.23 -4.58221 2.05763 0
M  V30 23650 C 2239.23 -4.99584 3.95847 0
M  V30 23651 C 2236.91 -5.15124 3.28771 0
M  V30 23652 C 2237.91 -5.35748 4.23631 0
M  V30 23653 O 2237.6 -5.91448 5.44467 0
M  V30 23654 H 2237.33 -0.655803 0.164009 0
M  V30 23655 H 2239.89 -1.73362 1.10159 0
M  V30 23656 H 2238.12 -3.85339 -0.324209 0
M  V30 23657 H 2239.8 -4.05879 0.0408396 0
M  V30 23658 H 2240.57 -4.14217 2.52287 0
M  V30 23659 H 2236.45 -4.41478 1.32734 0
M  V30 23660 H 2239.99 -5.15597 4.699 0
M  V30 23661 H 2235.89 -5.42728 3.49452 0
M  V30 23662 H 2236.66 -6.09892 5.4587 0
M  V30 23663 N 2239.32 -0.56861 -1.46985 0
M  V30 23664 C 2240.74 -0.229217 -1.57945 0
M  V30 23665 C 2240.94 1.2684 -1.56569 0
M  V30 23666 O 2239.99 2.04928 -1.47515 0
M  V30 23667 C 2241.31 -0.865959 -2.87961 0
M  V30 23668 C 2242.85 -0.838241 -3.01567 0
M  V30 23669 C 2243.33 -1.45426 -4.34298 0
M  V30 23670 N 2244.82 -1.41796 -4.40963 0
M  V30 23671 C 2245.56 -1.86413 -5.42253 0
M  V30 23672 N 2245.05 -2.38937 -6.50293 0
M  V30 23673 N 2246.84 -1.77414 -5.33367 0
M  V30 23674 H 2239 -1.54148 -1.46123 0
M  V30 23675 H 2241.26 -0.643496 -0.696144 0
M  V30 23676 H 2240.96 -1.91891 -2.94738 0
M  V30 23677 H 2240.84 -0.365753 -3.75423 0
M  V30 23678 H 2243.23 0.206054 -2.9438 0
M  V30 23679 H 2243.31 -1.37632 -2.15618 0
M  V30 23680 H 2242.95 -2.49768 -4.42242 0
M  V30 23681 H 2242.88 -0.891527 -5.18998 0
M  V30 23682 H 2245.37 -1.03388 -3.63482 0
M  V30 23683 H 2245.68 -2.70876 -7.23772 0
M  V30 23684 H 2244.03 -2.42955 -6.51151 0
M  V30 23685 H 2247.22 -1.36148 -4.47863 0
M  V30 23686 H 2247.39 -2.12503 -6.12166 0
M  V30 23687 N 2240.8 1.54608 -0.305646 0
M  V30 23688 C 2241.75 2.20406 0.583556 0
M  V30 23689 C 2242.73 1.17857 1.09537 0
M  V30 23690 O 2243.93 1.43559 1.03537 0
M  V30 23691 C 2241.05 2.95186 1.75272 0
M  V30 23692 C 2240.14 4.05055 1.25665 0
M  V30 23693 N 2240.53 5.03528 0.47891 0
M  V30 23694 C 2238.83 4.1868 1.53697 0
M  V30 23695 C 2239.53 5.81306 0.214167 0
M  V30 23696 N 2238.51 5.37751 0.79528 0
M  V30 23697 H 2242.31 2.93894 -0.0181462 0
M  V30 23698 H 2239.82 1.62023 -0.110629 0
M  V30 23699 H 2241.82 3.40795 2.40134 0
M  V30 23700 H 2240.48 2.23215 2.35808 0
M  V30 23701 H 2241.49 5.17753 0.123382 0
M  V30 23702 H 2238.17 3.57916 2.14947 0
M  V30 23703 H 2239.56 6.70643 -0.410774 0
M  V30 23704 N 2242.28 0.033457 1.57564 0
M  V30 23705 C 2243.23 -0.964923 2.11641 0
M  V30 23706 C 2244.22 -1.33405 1.044 0
M  V30 23707 O 2245.43 -1.31578 1.2283 0
M  V30 23708 H 2241.8 -0.328968 0.676228 0
M  V30 23709 H 2243.77 -0.483562 2.94456 0
M  V30 23710 C 2242.52 -2.23667 2.66211 0
M  V30 23711 H 2241.84 -1.96139 3.48381 0
M  V30 23712 H 2243.28 -2.91724 3.0769 0
M  V30 23713 C 2241.74 -2.96936 1.59156 0
M  V30 23714 O 2242.27 -3.89209 0.993927 0
M  V30 23715 N 2240.48 -2.59349 1.31097 0
M  V30 23716 H 2240.03 -1.8439 1.79883 0
M  V30 23717 H 2239.98 -3.08681 0.596943 0
M  V30 23718 N 2243.76 -1.55766 -0.239741 0
M  V30 23719 C 2244.72 -1.90105 -1.28034 0
M  V30 23720 C 2245.72 -0.77808 -1.40722 0
M  V30 23721 O 2246.91 -1.04601 -1.39299 0
M  V30 23722 C 2244.04 -2.13581 -2.65699 0
M  V30 23723 H 2245.23 -2.83158 -0.987998 0
M  V30 23724 H 2242.79 -1.48768 -0.479356 0
M  V30 23725 H 2243.52 -1.2302 -3.00061 0
M  V30 23726 H 2243.31 -2.95374 -2.5787 0
M  V30 23727 H 2244.8 -2.41307 -3.40823 0
M  V30 23728 N 2245.23 0.505704 -1.49266 0
M  V30 23729 C 2246.46 1.28899 -1.6248 0
M  V30 23730 C 2246.88 1.85782 -0.294365 0
M  V30 23731 O 2246.24 1.65627 0.737383 0
M  V30 23732 C 2246.29 2.39843 -2.69273 0
M  V30 23733 O 2245.39 3.43563 -2.28119 0
M  V30 23734 H 2244.73 0.380741 -0.543996 0
M  V30 23735 H 2247.26 0.605918 -1.95422 0
M  V30 23736 H 2247.27 2.85676 -2.91296 0
M  V30 23737 H 2245.95 1.97806 -3.65849 0
M  V30 23738 H 2244.53 3.03682 -2.16407 0
M  V30 23739 N 2246.71 1.38262 0.756405 0
M  V30 23740 C 2247.96 1.33633 1.5108 0
M  V30 23741 C 2248.27 -0.0719725 1.95468 0
M  V30 23742 O 2249.48 -0.240786 2.7043 0
M  V30 23743 C 2247.94 2.34648 2.72888 0
M  V30 23744 C 2247.54 3.81085 2.35537 0
M  V30 23745 C 2249.29 2.39058 3.50787 0
M  V30 23746 C 2247.2 4.73794 3.5394 0
M  V30 23747 H 2246.13 0.49672 0.567261 0
M  V30 23748 H 2248.78 1.63802 0.827118 0
M  V30 23749 H 2247.16 1.97519 3.43223 0
M  V30 23750 H 2248.33 4.27138 1.72887 0
M  V30 23751 H 2246.65 3.79767 1.7078 0
M  V30 23752 H 2249.24 3.05521 4.38818 0
M  V30 23753 H 2249.59 1.40868 3.91742 0
M  V30 23754 H 2250.12 2.74973 2.87462 0
M  V30 23755 H 2246.86 5.73169 3.18053 0
M  V30 23756 H 2246.38 4.32436 4.15643 0
M  V30 23757 H 2248.06 4.91671 4.20558 0
M  V30 23758 N 2248.19 -0.984277 1.23084 0
M  V30 23759 C 2249.61 -1.24974 0.992659 0
M  V30 23760 C 2249.81 -1.99123 -0.308583 0
M  V30 23761 O 2248.86 -2.30581 -1.02901 0
M  V30 23762 C 2250.18 -2.05308 2.19702 0
M  V30 23763 C 2251.72 -2.18461 2.24151 0
M  V30 23764 C 2252.2 -3.02185 3.44163 0
M  V30 23765 N 2253.69 -3.09771 3.44378 0
M  V30 23766 C 2254.42 -3.74867 4.33892 0
M  V30 23767 N 2253.92 -4.41817 5.33638 0
M  V30 23768 N 2255.71 -3.71714 4.21646 0
M  V30 23769 H 2247.86 -0.487417 2.06732 0
M  V30 23770 H 2250.13 -0.277928 0.906344 0
M  V30 23771 H 2249.83 -1.58195 3.14113 0
M  V30 23772 H 2249.71 -3.0606 2.2047 0
M  V30 23773 H 2252.09 -2.64784 1.30282 0
M  V30 23774 H 2252.18 -1.17111 2.27417 0
M  V30 23775 H 2251.82 -2.56561 4.38337 0
M  V30 23776 H 2251.75 -4.03697 3.38137 0
M  V30 23777 H 2254.24 -2.6213 2.72206 0
M  V30 23778 H 2254.55 -4.89255 5.98205 0
M  V30 23779 H 2252.9 -4.40538 5.37542 0
M  V30 23780 H 2256.09 -3.18576 3.42968 0
M  V30 23781 H 2256.26 -4.22164 4.91611 0
M  V30 23782 N 2249.67 -1.04192 -1.18244 0
M  V30 23783 C 2250.91 -0.747155 -1.88535 0
M  V30 23784 C 2251.25 0.723377 -1.80225 0
M  V30 23785 O 2250.52 1.52802 -1.2034 0
M  V30 23786 C 2250.81 -1.2155 -3.38965 0
M  V30 23787 C 2250.66 -2.74823 -3.56079 0
M  V30 23788 C 2251.98 -0.806558 -4.32646 0
M  V30 23789 H 2249.1 -0.272895 -0.684615 0
M  V30 23790 H 2251.74 -1.29415 -1.3911 0
M  V30 23791 H 2249.89 -0.750148 -3.81189 0
M  V30 23792 H 2251.56 -3.29405 -3.2294 0
M  V30 23793 H 2249.8 -3.14587 -2.98693 0
M  V30 23794 H 2250.47 -3.02652 -4.61634 0
M  V30 23795 H 2252.95 -1.20702 -3.98209 0
M  V30 23796 H 2251.83 -1.16199 -5.3646 0
M  V30 23797 H 2252.09 0.290213 -4.41146 0
M  V30 23798 N 2251.15 1.34492 -0.821557 0
M  V30 23799 C 2252.38 2.02259 -0.421308 0
M  V30 23800 C 2252.78 1.62022 0.977018 0
M  V30 23801 O 2252.13 0.820732 1.64346 0
M  V30 23802 C 2252.19 3.56768 -0.442373 0
M  V30 23803 C 2251.85 4.20324 -1.7938 0
M  V30 23804 C 2252.85 4.40939 -2.75443 0
M  V30 23805 C 2250.54 4.57124 -2.0819 0
M  V30 23806 C 2252.53 4.97477 -3.98491 0
M  V30 23807 C 2250.22 5.13373 -3.31498 0
M  V30 23808 C 2251.21 5.33494 -4.26466 0
M  V30 23809 O 2250.9 5.88553 -5.47596 0
M  V30 23810 H 2250.63 0.654924 -0.167484 0
M  V30 23811 H 2253.19 1.72775 -1.11076 0
M  V30 23812 H 2251.42 3.85505 0.303769 0
M  V30 23813 H 2253.11 4.05852 -0.0623638 0
M  V30 23814 H 2253.87 4.12874 -2.5448 0
M  V30 23815 H 2249.75 4.40768 -1.35074 0
M  V30 23816 H 2253.3 5.13098 -4.72627 0
M  V30 23817 H 2249.19 5.40867 -3.52325 0
M  V30 23818 H 2249.96 6.06988 -5.49097 0
M  V30 23819 N 2252.62 0.576397 1.46681 0
M  V30 23820 C 2253.56 -0.198191 2.28342 0
M  V30 23821 C 2254.57 -0.861429 1.38142 0
M  V30 23822 O 2255.76 -0.732053 1.62798 0
M  V30 23823 C 2252.86 -1.29967 3.12989 0
M  V30 23824 C 2252.03 -0.729563 4.31273 0
M  V30 23825 C 2251.09 -1.71795 4.97366 0
M  V30 23826 O 2250.12 -1.25648 5.55159 0
M  V30 23827 N 2251.32 -3.05189 4.93801 0
M  V30 23828 H 2254.08 0.502376 2.95459 0
M  V30 23829 H 2251.64 0.413743 1.56524 0
M  V30 23830 H 2253.64 -1.96002 3.5407 0
M  V30 23831 H 2252.21 -1.90319 2.47987 0
M  V30 23832 H 2251.43 0.108081 3.94052 0
M  V30 23833 H 2252.71 -0.328348 5.07739 0
M  V30 23834 H 2252.11 -3.45309 4.48083 0
M  V30 23835 H 2250.67 -3.6673 5.38843 0
M  V30 23836 N 2254.1 -1.54444 0.313841 0
M  V30 23837 C 2255.33 -2.04802 -0.293882 0
M  V30 23838 C 2255.75 -1.1905 -1.46535 0
M  V30 23839 O 2255.1 -0.218971 -1.81182 0
M  V30 23840 C 2255.15 -3.53892 -0.737744 0
M  V30 23841 O 2254.87 -4.36386 0.387115 0
M  V30 23842 C 2256.38 -4.20302 -1.40929 0
M  V30 23843 H 2253.6 -0.66813 -0.061994 0
M  V30 23844 H 2256.14 -1.99324 0.457205 0
M  V30 23845 H 2254.29 -3.5969 -1.43883 0
M  V30 23846 H 2254.71 -5.24485 0.0392196 0
M  V30 23847 H 2256.18 -5.26104 -1.67089 0
M  V30 23848 H 2256.66 -3.7082 -2.35348 0
M  V30 23849 H 2257.27 -4.18616 -0.751043 0
M  V30 23850 N 2255.58 -0.0418125 -1.57545 0
M  V30 23851 C 2256.53 0.953686 -2.1215 0
M  V30 23852 C 2257.52 1.3285 -1.05106 0
M  V30 23853 O 2258.73 1.30925 -1.23526 0
M  V30 23854 H 2255.1 0.325377 -0.677963 0
M  V30 23855 H 2257.07 0.467939 -2.94708 0
M  V30 23856 C 2255.82 2.22252 -2.67394 0
M  V30 23857 H 2255.15 1.94288 -3.49417 0
M  V30 23858 H 2256.59 2.90088 -3.09232 0
M  V30 23859 C 2255.05 2.96088 -1.60729 0
M  V30 23860 O 2255.58 3.88677 -1.01455 0
M  V30 23861 N 2253.78 2.5865 -1.32471 0
M  V30 23862 H 2253.33 1.83434 -1.80859 0
M  V30 23863 H 2253.29 3.0836 -0.613304 0
M  V30 23864 N 2257.06 1.55891 0.231477 0
M  V30 23865 C 2258.29 1.8225 0.97306 0
M  V30 23866 C 2258.7 0.617359 1.78844 0
M  V30 23867 O 2258.04 -0.423468 1.78752 0
M  V30 23868 C 2258.1 3.02195 1.94727 0
M  V30 23869 C 2257.77 4.37601 1.31735 0
M  V30 23870 C 2258.76 5.14999 0.712147 0
M  V30 23871 C 2256.45 4.84315 1.33209 0
M  V30 23872 C 2258.44 6.37267 0.130083 0
M  V30 23873 C 2256.13 6.06527 0.746179 0
M  V30 23874 C 2257.13 6.82843 0.146217 0
M  V30 23875 O 2256.81 8.02746 -0.430606 0
M  V30 23876 H 2256.55 0.610046 0.29124 0
M  V30 23877 H 2259.1 2.03812 0.254879 0
M  V30 23878 H 2257.33 2.76426 2.70417 0
M  V30 23879 H 2259.02 3.15512 2.55356 0
M  V30 23880 H 2259.79 4.80021 0.693156 0
M  V30 23881 H 2255.66 4.24894 1.78846 0
M  V30 23882 H 2259.21 6.96777 -0.338832 0
M  V30 23883 H 2255.11 6.4098 0.76255 0
M  V30 23884 H 2255.87 8.17859 -0.323962 0
M  V30 23885 N 2258.54 -0.497781 1.49532 0
M  V30 23886 C 2259.78 -1.2517 1.59181 0
M  V30 23887 C 2260.11 -1.92475 0.279966 0
M  V30 23888 O 2259.37 -1.8148 -0.732351 0
M  V30 23889 C 2259.67 -2.33873 2.70256 0
M  V30 23890 C 2259.33 -1.84005 4.11647 0
M  V30 23891 C 2257.99 -1.70124 4.50124 0
M  V30 23892 C 2260.35 -1.46716 5.00124 0
M  V30 23893 C 2257.67 -1.17337 5.74847 0
M  V30 23894 C 2260.03 -0.95381 6.25368 0
M  V30 23895 C 2258.69 -0.801421 6.62671 0
M  V30 23896 H 2257.96 -0.45803 0.582486 0
M  V30 23897 H 2260.61 -0.551916 1.83374 0
M  V30 23898 H 2258.91 -3.09653 2.40047 0
M  V30 23899 H 2260.61 -2.91915 2.7493 0
M  V30 23900 H 2257.2 -1.95769 3.81278 0
M  V30 23901 H 2261.38 -1.56286 4.7105 0
M  V30 23902 H 2256.64 -1.04254 6.02446 0
M  V30 23903 H 2260.81 -0.656103 6.93302 0
M  V30 23904 H 2258.44 -0.390217 7.59198 0
M  V30 23905 N 2260.01 -1.38661 -0.749062 0
M  V30 23906 C 2260.98 -1.36048 -1.84455 0
M  V30 23907 C 2261.98 -0.26015 -1.58682 0
M  V30 23908 O 2263.17 -0.517291 -1.66342 0
M  V30 23909 C 2260.3 -1.11916 -3.22006 0
M  V30 23910 H 2261.49 -2.33515 -1.88178 0
M  V30 23911 H 2259.05 -1.2402 -0.951244 0
M  V30 23912 H 2259.78 -0.150743 -3.23949 0
M  V30 23913 H 2259.57 -1.91585 -3.42108 0
M  V30 23914 H 2261.06 -1.12795 -4.02078 0
M  V30 23915 N 2261.49 0.977736 -1.23605 0
M  V30 23916 C 2262.72 1.75989 -1.09738 0
M  V30 23917 C 2263.14 1.84875 0.346825 0
M  V30 23918 O 2262.5 1.31232 1.25091 0
M  V30 23919 C 2262.55 3.1636 -1.73057 0
M  V30 23920 O 2261.65 4.00229 -0.994522 0
M  V30 23921 H 2260.99 0.541357 -0.384485 0
M  V30 23922 H 2263.52 1.22717 -1.63712 0
M  V30 23923 H 2263.53 3.66928 -1.78404 0
M  V30 23924 H 2262.21 3.09208 -2.78142 0
M  V30 23925 H 2260.79 3.5873 -1.01818 0
M  V30 23926 N 2262.97 1.04818 1.1769 0
M  V30 23927 C 2263.92 0.645836 2.2158 0
M  V30 23928 C 2264.89 -0.35013 1.62368 0
M  V30 23929 O 2266.07 -0.2424 1.89254 0
M  V30 23930 C 2263.21 0.0228174 3.45092 0
M  V30 23931 C 2262.33 1.06716 4.18612 0
M  V30 23932 C 2261.46 0.411861 5.29601 0
M  V30 23933 C 2260.5 1.44077 5.94902 0
M  V30 23934 N 2259.64 0.809904 6.97413 0
M  V30 23935 H 2264.48 1.53624 2.5535 0
M  V30 23936 H 2262.01 0.768386 1.25436 0
M  V30 23937 H 2263.97 -0.355807 4.1568 0
M  V30 23938 H 2262.6 -0.831067 3.11918 0
M  V30 23939 H 2261.65 1.56366 3.46777 0
M  V30 23940 H 2262.97 1.84835 4.6329 0
M  V30 23941 H 2262.12 -0.0205557 6.06697 0
M  V30 23942 H 2260.86 -0.401352 4.86046 0
M  V30 23943 H 2259.86 1.88325 5.1654 0
M  V30 23944 H 2261.09 2.25582 6.40538 0
M  V30 23945 H 2259.04 0.0171339 6.55998 0
M  V30 23946 H 2258.95 1.52869 7.40383 0
M  V30 23947 H 2260.22 0.402136 7.78462 0
M  V30 23948 N 2264.45 -1.34055 0.828678 0
M  V30 23949 C 2265.69 -1.99924 0.425429 0
M  V30 23950 C 2266.05 -1.64251 -0.994265 0
M  V30 23951 O 2267.25 -2.23008 -1.5007 0
M  V30 23952 C 2265.53 -3.51837 0.628133 0
M  V30 23953 S 2267.08 -4.37642 0.318588 0
M  V30 23954 H 2263.9 -0.692653 0.160477 0
M  V30 23955 H 2266.5 -1.63242 1.07575 0
M  V30 23956 H 2265.21 -3.75287 1.66095 0
M  V30 23957 H 2264.74 -3.93383 -0.0367107 0
M  V30 23958 H 2266.75 -4.88593 -0.865546 0
M  V30 23959 N 2265.93 -0.584167 -1.46374 0
M  V30 23960 C 2266.89 0.138068 -2.28784 0
M  V30 23961 C 2267.89 0.817438 -1.38472 0
M  V30 23962 O 2269.08 0.669171 -1.60835 0
M  V30 23963 C 2266.21 1.20497 -3.18894 0
M  V30 23964 H 2267.41 -0.586179 -2.94116 0
M  V30 23965 H 2264.96 -0.342198 -1.52508 0
M  V30 23966 H 2265.69 1.96075 -2.58312 0
M  V30 23967 H 2265.48 0.722316 -3.85389 0
M  V30 23968 H 2266.97 1.71148 -3.80917 0
M  V30 23969 N 2267.41 1.54275 -0.322027 0
M  V30 23970 C 2268.32 2.27975 0.553591 0
M  V30 23971 C 2269.33 1.3227 1.13052 0
M  V30 23972 O 2270.51 1.65282 1.15081 0
M  V30 23973 C 2267.57 3.02204 1.69922 0
M  V30 23974 C 2266.63 4.13492 1.15426 0
M  V30 23975 C 2265.87 4.84172 2.24529 0
M  V30 23976 O 2266.09 4.54356 3.44844 0
M  V30 23977 O 2265.02 5.71114 1.90034 0
M  V30 23978 H 2268.85 3.03667 -0.0448878 0
M  V30 23979 H 2266.43 1.49142 -0.087768 0
M  V30 23980 H 2268.32 3.48694 2.36624 0
M  V30 23981 H 2266.99 2.29389 2.28391 0
M  V30 23982 H 2265.9 3.71355 0.452371 0
M  V30 23983 H 2267.23 4.88346 0.614719 0
M  V30 23984 N 2268.88 0.0501669 1.5752 0
M  V30 23985 C 2269.83 -0.942421 2.12653 0
M  V30 23986 C 2270.83 -1.32291 1.05809 0
M  V30 23987 O 2272.03 -1.30268 1.24219 0
M  V30 23988 H 2268.41 -0.321777 0.679679 0
M  V30 23989 H 2270.38 -0.452304 2.94952 0
M  V30 23990 C 2269.13 -2.20831 2.68568 0
M  V30 23991 H 2268.45 -1.92433 3.50442 0
M  V30 23992 H 2269.89 -2.88444 3.10767 0
M  V30 23993 C 2268.35 -2.95231 1.62297 0
M  V30 23994 O 2268.88 -3.88133 1.03515 0
M  V30 23995 N 2267.08 -2.57944 1.33841 0
M  V30 23996 H 2266.63 -1.82472 1.81829 0
M  V30 23997 H 2266.59 -3.0803 0.629649 0
M  V30 23998 N 2270.36 -1.56011 -0.223207 0
M  V30 23999 C 2271.77 -1.69147 -0.790338 0
M  V30 24000 C 2272.12 -0.651878 -1.85054 0
M  V30 24001 O 2271.25 0.197321 -2.15499 0
M  V30 24002 C 2271.84 -3.06659 -1.44034 0
M  V30 24003 C 2270.4 -3.21654 -1.95489 0
M  V30 24004 C 2269.55 -2.6507 -0.81446 0
M  V30 24005 H 2272.5 -1.587 0.001418 0
M  V30 24006 H 2272.52 -3.02424 -2.30911 0
M  V30 24007 H 2272.03 -3.823 -0.668476 0
M  V30 24008 H 2270.13 -2.50879 -2.75482 0
M  V30 24009 H 2270.25 -4.2885 -2.13599 0
M  V30 24010 H 2268.61 -2.23507 -1.22133 0
M  V30 24011 H 2269.39 -3.43255 -0.0552912 0
M  V30 24012 N 2271.84 0.489844 -1.49794 0
M  V30 24013 C 2272.79 1.61093 -1.67785 0
M  V30 24014 C 2273.78 1.60437 -0.543711 0
M  V30 24015 O 2274.99 1.64812 -0.723676 0
M  V30 24016 H 2271.36 0.534212 -0.529265 0
M  V30 24017 H 2273.33 1.43074 -2.61863 0
M  V30 24018 C 2272.08 2.9916 -1.77196 0
M  V30 24019 H 2271.41 3.00375 -2.63846 0
M  V30 24020 H 2272.85 3.77109 -1.93816 0
M  V30 24021 C 2271.3 3.32874 -0.519262 0
M  V30 24022 O 2271.83 4.00172 0.350054 0
M  V30 24023 N 2270.04 2.8812 -0.378867 0
M  V30 24024 H 2269.59 2.33529 -1.0873 0
M  V30 24025 H 2269.55 3.11043 0.458185 0
M  V30 24026 N 2273.32 1.39056 0.741698 0
M  V30 24027 C 2274.54 1.39357 1.53605 0
M  V30 24028 C 2274.97 -0.0116574 1.88096 0
M  V30 24029 O 2274.33 -0.996898 1.51432 0
M  V30 24030 C 2274.37 2.26687 2.80438 0
M  V30 24031 O 2273.48 1.69215 3.76085 0
M  V30 24032 H 2272.82 0.474843 0.464134 0
M  V30 24033 H 2275.35 1.82968 0.915633 0
M  V30 24034 H 2275.36 2.40965 3.29241 0
M  V30 24035 H 2274.03 3.28814 2.54665 0
M  V30 24036 H 2272.61 1.64144 3.3483 0
M  V30 24037 N 2274.8 -0.971167 1.24121 0
M  V30 24038 C 2275.74 -2.08642 1.02816 0
M  V30 24039 C 2276.74 -1.69362 -0.0358105 0
M  V30 24040 O 2277.94 -1.7961 0.11846 0
M  V30 24041 H 2274.32 -0.682643 0.31544 0
M  V30 24042 H 2276.29 -2.23775 1.97401 0
M  V30 24043 C 2275.04 -3.41647 0.645934 0
M  V30 24044 H 2274.36 -3.7233 1.45639 0
M  V30 24045 H 2275.8 -4.20593 0.53644 0
M  V30 24046 C 2274.26 -3.30636 -0.646655 0
M  V30 24047 O 2274.79 -3.64266 -1.69332 0
M  V30 24048 N 2273 -2.83776 -0.626065 0
M  V30 24049 H 2272.54 -2.56606 0.226033 0
M  V30 24050 H 2272.5 -2.7679 -1.49112 0
M  V30 24051 N 2276.27 -1.05441 -1.17133 0
M  V30 24052 C 2277.5 -0.786429 -1.91912 0
M  V30 24053 C 2277.92 0.652203 -1.76431 0
M  V30 24054 O 2277.28 1.45343 -1.08375 0
M  V30 24055 C 2277.33 -1.17503 -3.40918 0
M  V30 24056 O 2276.43 -0.308661 -4.11243 0
M  V30 24057 H 2275.78 -0.288168 -0.59821 0
M  V30 24058 H 2278.31 -1.40792 -1.48454 0
M  V30 24059 H 2278.32 -1.14287 -3.91666 0
M  V30 24060 H 2276.99 -2.22298 -3.51506 0
M  V30 24061 H 2275.57 -0.401635 -3.70731 0
M  V30 24062 N 2277.75 1.33613 -0.835776 0
M  V30 24063 C 2278.7 2.29276 -0.26477 0
M  V30 24064 C 2279.67 1.54188 0.617685 0
M  V30 24065 O 2280.85 1.82501 0.556609 0
M  V30 24066 C 2277.99 3.4058 0.556717 0
M  V30 24067 C 2277.11 4.30585 -0.349415 0
M  V30 24068 C 2276.24 5.29001 0.482876 0
M  V30 24069 C 2275.28 6.10645 -0.42184 0
M  V30 24070 N 2274.42 7.01113 0.372139 0
M  V30 24071 H 2279.26 2.77512 -1.08586 0
M  V30 24072 H 2276.8 1.36553 -0.546951 0
M  V30 24073 H 2278.75 4.03811 1.04845 0
M  V30 24074 H 2277.38 2.93545 1.34281 0
M  V30 24075 H 2276.44 3.68102 -0.959437 0
M  V30 24076 H 2277.75 4.87741 -1.04454 0
M  V30 24077 H 2276.9 5.97745 1.03856 0
M  V30 24078 H 2275.64 4.72414 1.21145 0
M  V30 24079 H 2274.65 5.40821 -0.989559 0
M  V30 24080 H 2275.87 6.69314 -1.14873 0
M  V30 24081 H 2273.82 6.46979 1.08415 0
M  V30 24082 H 2273.73 7.55538 -0.26433 0
M  V30 24083 H 2275 7.74168 0.910157 0
M  V30 24084 N 2279.23 0.591922 1.46062 0
M  V30 24085 C 2280.46 0.0850678 2.07225 0
M  V30 24086 C 2280.88 -1.21461 1.43628 0
M  V30 24087 O 2280.24 -1.73583 0.523336 0
M  V30 24088 C 2280.29 -0.0575933 3.60554 0
M  V30 24089 O 2279.39 -1.11181 3.9713 0
M  V30 24090 H 2278.73 0.0669684 0.660614 0
M  V30 24091 H 2281.26 0.817483 1.87559 0
M  V30 24092 H 2281.27 -0.260829 4.07165 0
M  V30 24093 H 2279.95 0.891488 4.06233 0
M  V30 24094 H 2278.52 -0.886292 3.62214 0
M  V30 24095 N 2280.71 -1.54102 0.330204 0
M  V30 24096 C 2281.96 -2.00687 -0.27037 0
M  V30 24097 C 2282.28 -1.21828 -1.51619 0
M  V30 24098 O 2281.54 -0.290284 -1.93535 0
M  V30 24099 C 2281.84 -3.51567 -0.643072 0
M  V30 24100 C 2281.5 -4.48071 0.50433 0
M  V30 24101 C 2280.17 -4.74175 0.819247 0
M  V30 24102 C 2282.52 -5.05371 1.27474 0
M  V30 24103 C 2279.85 -5.54837 1.90718 0
M  V30 24104 C 2282.2 -5.87219 2.35281 0
M  V30 24105 C 2280.86 -6.11622 2.67347 0
M  V30 24106 H 2280.13 -0.734366 -0.0989353 0
M  V30 24107 H 2282.78 -1.86007 0.455357 0
M  V30 24108 H 2281.08 -3.64008 -1.44932 0
M  V30 24109 H 2282.78 -3.85058 -1.11942 0
M  V30 24110 H 2279.37 -4.27877 0.248809 0
M  V30 24111 H 2283.55 -4.8518 1.0447 0
M  V30 24112 H 2278.81 -5.71973 2.16001 0
M  V30 24113 H 2282.98 -6.30636 2.95417 0
M  V30 24114 H 2280.61 -6.73913 3.51775 0
M  V30 24115 N 2282.19 -0.0585199 -1.57491 0
M  V30 24116 C 2283.13 0.931131 -2.1315 0
M  V30 24117 C 2284.13 1.31728 -1.06509 0
M  V30 24118 O 2285.33 1.29607 -1.24908 0
M  V30 24119 H 2281.71 0.318168 -0.681376 0
M  V30 24120 H 2283.68 0.436655 -2.95188 0
M  V30 24121 C 2282.43 2.19404 -2.69736 0
M  V30 24122 H 2281.75 1.90572 -3.51458 0
M  V30 24123 H 2283.19 2.86792 -3.12292 0
M  V30 24124 C 2281.65 2.94366 -1.6386 0
M  V30 24125 O 2282.18 3.87579 -1.05572 0
M  V30 24126 N 2280.39 2.5723 -1.35207 0
M  V30 24127 H 2279.93 1.81505 -1.82794 0
M  V30 24128 H 2279.89 3.07692 -0.645976 0
M  V30 24129 N 2283.66 1.56128 0.21493 0
M  V30 24130 C 2284.91 1.78645 0.93642 0
M  V30 24131 C 2285.23 0.628261 1.85236 0
M  V30 24132 O 2286.43 0.737232 2.61299 0
M  V30 24133 C 2284.89 3.16392 1.71535 0
M  V30 24134 C 2284.5 4.39955 0.845222 0
M  V30 24135 C 2286.24 3.48231 2.42766 0
M  V30 24136 C 2284.15 5.68726 1.62188 0
M  V30 24137 H 2283.08 0.666057 0.35339 0
M  V30 24138 H 2285.73 1.82512 0.190137 0
M  V30 24139 H 2284.11 3.06719 2.50478 0
M  V30 24140 H 2285.28 4.607 0.0958543 0
M  V30 24141 H 2283.6 4.1568 0.244716 0
M  V30 24142 H 2286.2 4.41668 3.01386 0
M  V30 24143 H 2286.54 2.7104 3.15979 0
M  V30 24144 H 2287.07 3.59263 1.70806 0
M  V30 24145 H 2283.81 6.48828 0.932897 0
M  V30 24146 H 2283.33 5.5203 2.34569 0
M  V30 24147 H 2285.01 6.09137 2.18084 0
M  V30 24148 N 2285.14 -0.481893 1.50052 0
M  V30 24149 C 2286.09 -1.58122 1.68125 0
M  V30 24150 C 2287.06 -1.57665 0.522573 0
M  V30 24151 O 2288.24 -1.75361 0.751874 0
M  V30 24152 C 2285.38 -2.96164 1.77147 0
M  V30 24153 C 2284.5 -3.06491 3.04445 0
M  V30 24154 C 2283.63 -4.35382 3.04329 0
M  V30 24155 C 2282.67 -4.39412 4.26126 0
M  V30 24156 N 2281.81 -5.59758 4.2381 0
M  V30 24157 H 2286.65 -1.42017 2.61983 0
M  V30 24158 H 2284.19 -0.690664 1.29878 0
M  V30 24159 H 2286.14 -3.762 1.80358 0
M  V30 24160 H 2284.77 -3.10928 0.867383 0
M  V30 24161 H 2283.83 -2.19396 3.10756 0
M  V30 24162 H 2285.14 -3.05329 3.94431 0
M  V30 24163 H 2284.29 -5.23756 3.06209 0
M  V30 24164 H 2283.03 -4.39138 2.12154 0
M  V30 24165 H 2282.04 -3.49437 4.24469 0
M  V30 24166 H 2283.26 -4.37357 5.19515 0
M  V30 24167 H 2281.21 -5.6432 3.34484 0
M  V30 24168 H 2281.12 -5.60292 5.07552 0
M  V30 24169 H 2282.39 -6.50287 4.29821 0
M  V30 24170 N 2286.62 -1.39448 -0.734313 0
M  V30 24171 C 2287.55 -1.40959 -1.86153 0
M  V30 24172 C 2288.53 -0.272857 -1.67897 0
M  V30 24173 O 2289.72 -0.478776 -1.88206 0
M  V30 24174 C 2286.85 -1.25299 -3.23909 0
M  V30 24175 C 2285.8 -2.36379 -3.56804 0
M  V30 24176 C 2285.13 -2.05809 -4.93504 0
M  V30 24177 C 2286.43 -3.78693 -3.59707 0
M  V30 24178 H 2288.12 -2.3529 -1.85146 0
M  V30 24179 H 2285.67 -1.13255 -0.889347 0
M  V30 24180 H 2287.62 -1.24977 -4.02441 0
M  V30 24181 H 2286.34 -0.274366 -3.25446 0
M  V30 24182 H 2285 -2.35919 -2.80602 0
M  V30 24183 H 2284.65 -1.06383 -4.91622 0
M  V30 24184 H 2284.35 -2.80217 -5.16481 0
M  V30 24185 H 2285.87 -2.07138 -5.74392 0
M  V30 24186 H 2287.29 -3.81078 -4.28313 0
M  V30 24187 H 2285.69 -4.52466 -3.94201 0
M  V30 24188 H 2286.76 -4.09621 -2.59496 0
M  V30 24189 N 2288.1 0.964571 -1.24635 0
M  V30 24190 C 2289.35 1.70457 -1.08576 0
M  V30 24191 C 2289.67 1.91348 0.375621 0
M  V30 24192 O 2288.94 1.49347 1.26776 0
M  V30 24193 H 2287.52 0.631642 -0.398795 0
M  V30 24194 H 2290.18 1.16023 -1.56603 0
M  V30 24195 H 2289.28 2.68782 -1.58628 0
M  V30 24196 N 2289.58 1.0606 1.16572 0
M  V30 24197 C 2290.54 0.67343 2.19083 0
M  V30 24198 C 2291.54 -0.27962 1.5835 0
M  V30 24199 O 2292.73 -0.0623182 1.74088 0
M  V30 24200 C 2289.86 -0.00948241 3.40899 0
M  V30 24201 H 2291.05 1.58086 2.54851 0
M  V30 24202 H 2288.61 0.855539 1.30806 0
M  V30 24203 H 2289.34 -0.929772 3.10686 0
M  V30 24204 H 2289.13 0.675798 3.86232 0
M  V30 24205 H 2290.62 -0.266171 4.16751 0
M  V30 24206 N 2291.06 -1.33168 0.84285 0
M  V30 24207 C 2291.97 -2.32905 0.281485 0
M  V30 24208 C 2292.98 -1.63527 -0.594558 0
M  V30 24209 O 2294.16 -1.95153 -0.497735 0
M  V30 24210 C 2291.22 -3.42612 -0.530869 0
M  V30 24211 C 2290.28 -4.27703 0.369918 0
M  V30 24212 C 2289.52 -5.32171 -0.40376 0
M  V30 24213 O 2289.74 -5.46464 -1.63504 0
M  V30 24214 O 2288.67 -6.01482 0.224305 0
M  V30 24215 H 2292.5 -2.82787 1.10749 0
M  V30 24216 H 2290.08 -1.36581 0.605474 0
M  V30 24217 H 2291.97 -4.09549 -0.992365 0
M  V30 24218 H 2290.64 -2.9494 -1.33387 0
M  V30 24219 H 2289.55 -3.63619 0.879339 0
M  V30 24220 H 2290.88 -4.78869 1.13779 0
M  V30 24221 N 2292.53 -0.599659 -1.45746 0
M  V30 24222 C 2293.47 0.172512 -2.27547 0
M  V30 24223 C 2294.44 0.881092 -1.36658 0
M  V30 24224 O 2295.63 0.891566 -1.66082 0
M  V30 24225 C 2292.76 1.24897 -3.14831 0
M  V30 24226 C 2291.8 0.644391 -4.21604 0
M  V30 24227 S 2292.63 -0.5417 -5.32753 0
M  V30 24228 C 2293.79 0.535546 -6.23605 0
M  V30 24229 H 2294.02 -0.52152 -2.9269 0
M  V30 24230 H 2291.56 -0.386973 -1.49472 0
M  V30 24231 H 2293.51 1.8652 -3.65678 0
M  V30 24232 H 2292.18 1.91504 -2.48968 0
M  V30 24233 H 2291.37 1.45408 -4.82569 0
M  V30 24234 H 2290.97 0.103469 -3.73857 0
M  V30 24235 H 2293.26 1.41675 -6.62521 0
M  V30 24236 H 2294.21 -0.0377491 -7.0809 0
M  V30 24237 H 2294.61 0.847312 -5.58105 0
M  V30 24238 N 2294.01 1.53925 -0.338371 0
M  V30 24239 C 2294.92 2.28549 0.52938 0
M  V30 24240 C 2295.94 1.33461 1.11642 0
M  V30 24241 O 2297.11 1.66494 1.13322 0
M  V30 24242 C 2294.18 3.03989 1.66707 0
M  V30 24243 C 2293.24 4.14693 1.11034 0
M  V30 24244 C 2292.47 4.86526 2.19381 0
M  V30 24245 O 2292.7 4.57988 3.40005 0
M  V30 24246 O 2291.63 5.73097 1.83966 0
M  V30 24247 H 2295.46 3.03602 -0.0770932 0
M  V30 24248 H 2293.04 1.4904 -0.103582 0
M  V30 24249 H 2294.92 3.51184 2.32912 0
M  V30 24250 H 2293.6 2.31798 2.25945 0
M  V30 24251 H 2292.5 3.71814 0.412958 0
M  V30 24252 H 2293.84 4.88971 0.562889 0
M  V30 24253 N 2295.49 0.0668712 1.57458 0
M  V30 24254 C 2296.71 -0.615992 1.98041 0
M  V30 24255 C 2297.14 -1.6265 0.944799 0
M  V30 24256 O 2296.5 -1.81076 -0.0901776 0
M  V30 24257 C 2296.55 -1.26543 3.37667 0
M  V30 24258 O 2295.65 -2.38125 3.36705 0
M  V30 24259 H 2294.99 -0.158838 0.644722 0
M  V30 24260 H 2297.52 0.139927 2.04121 0
M  V30 24261 H 2297.53 -1.61343 3.74743 0
M  V30 24262 H 2296.21 -0.524944 4.12574 0
M  V30 24263 H 2294.78 -2.05155 3.11394 0
M  V30 24264 N 2296.97 -1.56239 -0.206647 0
M  V30 24265 C 2297.9 -1.96647 -1.25906 0
M  V30 24266 C 2298.88 -0.83676 -1.48096 0
M  V30 24267 O 2300.06 -1.10021 -1.60028 0
M  V30 24268 C 2297.19 -2.29603 -2.60576 0
M  V30 24269 C 2296.15 -3.45204 -2.53018 0
M  V30 24270 C 2295.47 -3.63805 -3.91854 0
M  V30 24271 C 2296.77 -4.79738 -2.06516 0
M  V30 24272 H 2298.47 -2.84807 -0.923319 0
M  V30 24273 H 2296.01 -1.37026 -0.442711 0
M  V30 24274 H 2297.97 -2.56464 -3.34371 0
M  V30 24275 H 2296.69 -1.38312 -2.95867 0
M  V30 24276 H 2295.35 -3.18415 -1.81679 0
M  V30 24277 H 2295 -2.69865 -4.24479 0
M  V30 24278 H 2294.7 -4.41567 -3.87675 0
M  V30 24279 H 2296.22 -3.93031 -4.67289 0
M  V30 24280 H 2297.64 -5.05706 -2.70063 0
M  V30 24281 H 2296.03 -5.60888 -2.13364 0
M  V30 24282 H 2297.1 -4.74095 -1.01793 0
M  V30 24283 N 2298.45 0.473929 -1.50305 0
M  V30 24284 C 2299.69 1.2238 -1.60834 0
M  V30 24285 C 2300.01 1.92529 -0.309424 0
M  V30 24286 O 2299.28 1.8398 0.672928 0
M  V30 24287 H 2297.86 0.454712 -0.59266 0
M  V30 24288 H 2300.53 0.546935 -1.87069 0
M  V30 24289 H 2299.62 1.97323 -2.41806 0
M  V30 24290 N 2299.92 1.39835 0.726907 0
M  V30 24291 C 2301.17 1.37227 1.48368 0
M  V30 24292 C 2301.49 -0.0284514 1.94979 0
M  V30 24293 O 2300.76 -0.981183 1.69557 0
M  V30 24294 H 2299.34 0.505021 0.550421 0
M  V30 24295 H 2302 1.7478 0.862437 0
M  V30 24296 H 2301.1 2.04007 2.36194 0
M  V30 24297 N 2301.4 -0.957948 1.25144 0
M  V30 24298 C 2302.35 -2.05411 1.05239 0
M  V30 24299 C 2303.32 -1.66058 -0.0374269 0
M  V30 24300 O 2304.5 -1.90428 0.119106 0
M  V30 24301 C 2301.64 -3.38461 0.673649 0
M  V30 24302 C 2300.76 -3.90951 1.83797 0
M  V30 24303 C 2299.89 -5.12313 1.4039 0
M  V30 24304 C 2298.93 -5.57023 2.53756 0
M  V30 24305 N 2298.07 -6.69598 2.11147 0
M  V30 24306 H 2302.91 -2.21771 1.99052 0
M  V30 24307 H 2300.44 -1.08682 0.991297 0
M  V30 24308 H 2302.4 -4.14926 0.435037 0
M  V30 24309 H 2301.03 -3.21997 -0.227497 0
M  V30 24310 H 2300.08 -3.11037 2.18998 0
M  V30 24311 H 2301.4 -4.20084 2.68944 0
M  V30 24312 H 2300.55 -5.96183 1.12474 0
M  V30 24313 H 2299.29 -4.84887 0.5231 0
M  V30 24314 H 2298.29 -4.71719 2.8242 0
M  V30 24315 H 2299.52 -5.86458 3.42408 0
M  V30 24316 H 2297.47 -6.43887 1.25479 0
M  V30 24317 H 2297.38 -6.98231 2.89844 0
M  V30 24318 H 2298.65 -7.56886 1.86399 0
M  V30 24319 N 2302.88 -1.06677 -1.16008 0
M  V30 24320 C 2304.12 -0.79507 -1.88303 0
M  V30 24321 C 2304.48 0.666434 -1.80063 0
M  V30 24322 O 2305.68 1.05289 -2.47321 0
M  V30 24323 C 2303.96 -1.28082 -3.33661 0
M  V30 24324 S 2305.51 -1.13876 -4.23766 0
M  V30 24325 H 2302.33 -0.288308 -0.649923 0
M  V30 24326 H 2304.93 -1.36448 -1.40008 0
M  V30 24327 H 2303.64 -2.33933 -3.37199 0
M  V30 24328 H 2303.17 -0.706321 -3.87007 0
M  V30 24329 H 2305.18 -0.0720541 -4.96148 0
M  V30 24330 N 2304.36 1.32719 -0.8499 0
M  V30 24331 C 2305.63 1.92021 -0.372439 0
M  V30 24332 C 2306.01 1.77449 1.14346 0
M  V30 24333 O 2305.36 1.16965 1.96294 0
M  V30 24334 C 2305.57 3.38949 -0.831541 0
M  V30 24335 C 2306.92 4.16087 -0.845955 0
M  V30 24336 O 2307.94 3.47647 -0.775867 0
M  V30 24337 O 2306.8 5.38288 -0.943848 0
M  V30 24338 H 2303.9 0.81996 -0.107681 0
M  V30 24339 H 2306.44 1.4152 -0.936485 0
M  V30 24340 H 2305.22 3.43477 -1.87454 0
M  V30 24341 H 2304.84 3.96846 -0.244679 0
M  V30 24342 N 2305.84 0.60738 1.45426 0
M  V30 24343 C 2307.25 0.187567 1.85755 0
M  V30 24344 C 2307.6 -1.25548 1.50772 0
M  V30 24345 O 2306.72 -1.95191 0.934304 0
M  V30 24346 C 2307.32 0.333632 3.37153 0
M  V30 24347 C 2305.88 -0.031488 3.76387 0
M  V30 24348 C 2305.02 0.658164 2.69376 0
M  V30 24349 H 2307.98 0.814074 1.3623 0
M  V30 24350 H 2308 -0.434213 3.78014 0
M  V30 24351 H 2307.51 1.38399 3.62584 0
M  V30 24352 H 2305.61 -1.08104 3.56573 0
M  V30 24353 H 2305.72 0.362019 4.7773 0
M  V30 24354 H 2304.09 0.095832 2.5452 0
M  V30 24355 H 2304.87 1.71066 2.97643 0
M  V30 24356 N 2307.31 -1.53743 0.34653 0
M  V30 24357 C 2308.54 -2.0538 -0.250374 0
M  V30 24358 C 2308.96 -1.22131 -1.43977 0
M  V30 24359 O 2308.31 -0.257353 -1.80676 0
M  V30 24360 C 2308.37 -3.55377 -0.662512 0
M  V30 24361 O 2308.09 -4.35467 0.479592 0
M  V30 24362 C 2309.59 -4.23197 -1.31982 0
M  V30 24363 H 2306.81 -0.669295 -0.047808 0
M  V30 24364 H 2309.35 -1.98309 0.499381 0
M  V30 24365 H 2307.51 -3.62661 -1.36221 0
M  V30 24366 H 2307.92 -5.24284 0.150462 0
M  V30 24367 H 2309.39 -5.2953 -1.55892 0
M  V30 24368 H 2309.87 -3.75729 -2.2743 0
M  V30 24369 H 2310.48 -4.20115 -0.66208 0
M  V30 24370 N 2308.79 -0.0752207 -1.5742 0
M  V30 24371 C 2309.72 0.920446 -2.09906 0
M  V30 24372 C 2310.74 1.25916 -1.03194 0
M  V30 24373 O 2311.93 1.21575 -1.30697 0
M  V30 24374 C 2309.03 2.2353 -2.5473 0
M  V30 24375 C 2308.2 2.07491 -3.85053 0
M  V30 24376 C 2307.26 3.22311 -4.15935 0
M  V30 24377 O 2306.28 2.97151 -4.85479 0
M  V30 24378 N 2307.49 4.47507 -3.69753 0
M  V30 24379 H 2310.25 0.472307 -2.95955 0
M  V30 24380 H 2307.81 0.110416 -1.61523 0
M  V30 24381 H 2309.8 2.99255 -2.72449 0
M  V30 24382 H 2308.37 2.59831 -1.738 0
M  V30 24383 H 2307.59 1.16213 -3.76681 0
M  V30 24384 H 2308.88 1.94029 -4.70351 0
M  V30 24385 H 2308.28 4.70835 -3.13578 0
M  V30 24386 H 2306.84 5.20248 -3.92665 0
M  V30 24387 N 2310.27 1.56347 0.198358 0
M  V30 24388 C 2311.2 1.90808 1.26984 0
M  V30 24389 C 2312.22 0.798444 1.41876 0
M  V30 24390 O 2313.4 1.07684 1.4236 0
M  V30 24391 C 2310.5 2.12201 2.64242 0
M  V30 24392 C 2309.68 3.43333 2.71001 0
M  V30 24393 C 2308.74 3.53877 3.89433 0
M  V30 24394 O 2307.76 4.26726 3.76688 0
M  V30 24395 N 2308.96 2.86724 5.04747 0
M  V30 24396 H 2311.73 2.83315 0.977383 0
M  V30 24397 H 2309.29 1.57175 0.388294 0
M  V30 24398 H 2311.28 2.16546 3.41892 0
M  V30 24399 H 2309.85 1.26209 2.8599 0
M  V30 24400 H 2309.07 3.50884 1.7965 0
M  V30 24401 H 2310.36 4.29673 2.72504 0
M  V30 24402 H 2309.76 2.27359 5.18 0
M  V30 24403 H 2308.32 2.96701 5.80355 0
M  V30 24404 N 2311.75 -0.465951 1.50554 0
M  V30 24405 C 2312.7 -1.5633 1.69793 0
M  V30 24406 C 2313.67 -1.57102 0.539266 0
M  V30 24407 O 2314.85 -1.74554 0.770432 0
M  V30 24408 C 2311.99 -2.94268 1.80278 0
M  V30 24409 C 2311.1 -3.03245 3.07679 0
M  V30 24410 C 2310.24 -4.3213 3.08929 0
M  V30 24411 C 2309.28 -4.34868 4.30763 0
M  V30 24412 N 2308.41 -5.55232 4.29723 0
M  V30 24413 H 2313.25 -1.39231 2.63475 0
M  V30 24414 H 2310.79 -0.67685 1.30603 0
M  V30 24415 H 2312.75 -3.74266 1.84338 0
M  V30 24416 H 2311.38 -3.09991 0.900312 0
M  V30 24417 H 2310.43 -2.16088 3.13066 0
M  V30 24418 H 2311.74 -3.01128 3.97647 0
M  V30 24419 H 2310.9 -5.20479 3.11747 0
M  V30 24420 H 2309.64 -4.36863 2.168 0
M  V30 24421 H 2308.64 -3.44915 4.28152 0
M  V30 24422 H 2309.87 -4.31822 5.24125 0
M  V30 24423 H 2307.81 -5.6074 3.4045 0
M  V30 24424 H 2307.73 -5.54877 5.13466 0
M  V30 24425 H 2309 -6.45692 4.36694 0
M  V30 24426 N 2313.23 -1.40218 -0.719481 0
M  V30 24427 C 2314.47 -1.38285 -1.4793 0
M  V30 24428 C 2314.8 0.0161194 -1.94493 0
M  V30 24429 O 2314.06 0.999926 -1.68226 0
M  V30 24430 C 2314.36 -2.31529 -2.72267 0
M  V30 24431 C 2314.02 -3.78861 -2.4449 0
M  V30 24432 C 2312.68 -4.19002 -2.36624 0
M  V30 24433 C 2315.04 -4.71981 -2.21096 0
M  V30 24434 C 2312.36 -5.50304 -2.03427 0
M  V30 24435 C 2314.72 -6.03577 -1.89413 0
M  V30 24436 C 2313.38 -6.42765 -1.80026 0
M  V30 24437 H 2312.65 -0.506022 -0.541316 0
M  V30 24438 H 2315.3 -1.72843 -0.824472 0
M  V30 24439 H 2313.6 -1.90143 -3.42568 0
M  V30 24440 H 2315.3 -2.27318 -3.30344 0
M  V30 24441 H 2311.89 -3.47055 -2.51497 0
M  V30 24442 H 2316.07 -4.4179 -2.26131 0
M  V30 24443 H 2311.33 -5.79572 -1.94695 0
M  V30 24444 H 2315.5 -6.7525 -1.70324 0
M  V30 24445 H 2313.13 -7.44424 -1.5407 0
M  V30 24446 N 2314.7 0.951297 -1.25651 0
M  V30 24447 C 2315.94 1.71111 -1.11805 0
M  V30 24448 C 2316.31 1.8906 0.334725 0
M  V30 24449 O 2317.51 2.6213 0.595075 0
M  V30 24450 C 2315.78 3.0548 -1.85517 0
M  V30 24451 S 2317.34 3.96674 -1.87604 0
M  V30 24452 H 2314.16 0.588108 -0.399562 0
M  V30 24453 H 2316.76 1.13438 -1.59224 0
M  V30 24454 H 2315.46 2.90089 -2.90304 0
M  V30 24455 H 2314.99 3.68214 -1.38499 0
M  V30 24456 H 2317.01 4.86914 -0.955475 0
M  V30 24457 N 2316.18 1.07291 1.1544 0
M  V30 24458 C 2317.46 0.708824 1.82305 0
M  V30 24459 C 2317.84 -0.808773 1.94992 0
M  V30 24460 O 2317.19 -1.72296 1.50088 0
M  V30 24461 C 2317.4 1.42253 3.18693 0
M  V30 24462 C 2318.75 1.57424 3.94339 0
M  V30 24463 O 2319.77 1.38325 3.28245 0
M  V30 24464 O 2318.63 1.88843 5.12836 0
M  V30 24465 H 2315.72 0.252146 0.787624 0
M  V30 24466 H 2318.27 1.1738 1.22557 0
M  V30 24467 H 2317.04 2.45689 3.04553 0
M  V30 24468 H 2316.66 0.948291 3.86126 0
M  V30 24469 N 2317.66 -1.32267 0.856927 0
M  V30 24470 C 2318.91 -1.96783 0.460509 0
M  V30 24471 C 2319.23 -1.68137 -0.987672 0
M  V30 24472 O 2318.5 -0.989795 -1.69056 0
M  V30 24473 H 2317.08 -0.728024 0.167302 0
M  V30 24474 H 2319.74 -1.6131 1.09385 0
M  V30 24475 H 2318.84 -3.06132 0.607443 0
M  V30 24476 N 2319.14 -0.615084 -1.45102 0
M  V30 24477 C 2320.55 -0.197416 -1.85653 0
M  V30 24478 C 2320.9 1.24747 -1.51435 0
M  V30 24479 O 2320.03 1.94693 -0.944643 0
M  V30 24480 C 2320.62 -0.351507 -3.36972 0
M  V30 24481 C 2319.18 0.0115268 -3.76398 0
M  V30 24482 C 2318.33 -0.672441 -2.69023 0
M  V30 24483 H 2321.28 -0.821287 -1.35796 0
M  V30 24484 H 2321.3 0.41416 -3.78239 0
M  V30 24485 H 2320.81 -1.4032 -3.61845 0
M  V30 24486 H 2318.91 1.06211 -3.57141 0
M  V30 24487 H 2319.02 -0.387349 -4.77532 0
M  V30 24488 H 2317.39 -0.109328 -2.54465 0
M  V30 24489 H 2318.17 -1.72642 -2.96732 0
M  V30 24490 N 2320.62 1.53557 -0.354678 0
M  V30 24491 C 2321.55 2.28321 0.489051 0
M  V30 24492 C 2322.53 1.30318 1.09322 0
M  V30 24493 O 2323.71 1.59175 1.11252 0
M  V30 24494 C 2320.84 3.06433 1.6345 0
M  V30 24495 C 2319.8 4.12033 1.15813 0
M  V30 24496 C 2319.12 4.78164 2.39297 0
M  V30 24497 C 2320.42 5.21698 0.250639 0
M  V30 24498 H 2322.12 2.99097 -0.134666 0
M  V30 24499 H 2319.66 1.43848 -0.0662079 0
M  V30 24500 H 2321.62 3.57479 2.2313 0
M  V30 24501 H 2320.34 2.33329 2.28529 0
M  V30 24502 H 2319 3.61917 0.584083 0
M  V30 24503 H 2318.65 4.01643 3.02807 0
M  V30 24504 H 2318.35 5.49517 2.08099 0
M  V30 24505 H 2319.87 5.31999 2.99682 0
M  V30 24506 H 2321.29 5.68312 0.754595 0
M  V30 24507 H 2319.68 6.00092 0.0300413 0
M  V30 24508 H 2320.75 4.79671 -0.710209 0
M  V30 24509 N 2322.1 0.083568 1.57378 0
M  V30 24510 C 2323.04 -0.879502 2.13386 0
M  V30 24511 C 2324.01 -1.28752 1.04939 0
M  V30 24512 O 2325.2 -1.3713 1.32665 0
M  V30 24513 C 2322.34 -2.13747 2.70936 0
M  V30 24514 C 2321.45 -1.78103 3.93578 0
M  V30 24515 C 2320.59 -2.98599 4.39331 0
M  V30 24516 C 2319.62 -2.59027 5.54591 0
M  V30 24517 N 2318.76 -3.72321 5.95249 0
M  V30 24518 H 2323.6 -0.395024 2.9537 0
M  V30 24519 H 2321.14 -0.183323 1.45953 0
M  V30 24520 H 2323.1 -2.87403 3.02416 0
M  V30 24521 H 2321.73 -2.59715 1.91698 0
M  V30 24522 H 2320.78 -0.944625 3.68485 0
M  V30 24523 H 2322.09 -1.44997 4.7726 0
M  V30 24524 H 2321.24 -3.80521 4.72535 0
M  V30 24525 H 2319.98 -3.34907 3.54526 0
M  V30 24526 H 2318.99 -1.7553 5.21027 0
M  V30 24527 H 2320.21 -2.23876 6.41137 0
M  V30 24528 H 2318.16 -4.08369 5.13392 0
M  V30 24529 H 2318.08 -3.43022 6.737 0
M  V30 24530 H 2319.34 -4.54786 6.3308 0
M  V30 24531 N 2323.57 -1.5645 -0.190064 0
M  V30 24532 C 2324.98 -1.70785 -0.754282 0
M  V30 24533 C 2325.34 -0.690984 -1.8363 0
M  V30 24534 O 2324.46 0.151566 -2.15869 0
M  V30 24535 C 2325.06 -3.09645 -1.37497 0
M  V30 24536 C 2323.61 -3.25728 -1.88622 0
M  V30 24537 C 2322.76 -2.66737 -0.758051 0
M  V30 24538 H 2325.71 -1.58661 0.0350803 0
M  V30 24539 H 2325.73 -3.07254 -2.24444 0
M  V30 24540 H 2325.25 -3.83632 -0.587234 0
M  V30 24541 H 2323.35 -2.56666 -2.70099 0
M  V30 24542 H 2323.46 -4.33284 -2.04455 0
M  V30 24543 H 2321.82 -2.26048 -1.17365 0
M  V30 24544 H 2322.61 -3.43296 0.0175308 0
M  V30 24545 N 2325.05 0.45796 -1.50799 0
M  V30 24546 C 2326 1.5522 -1.67006 0
M  V30 24547 C 2326.99 1.52116 -0.524367 0
M  V30 24548 O 2328.18 1.58918 -0.779373 0
M  V30 24549 C 2325.31 2.93572 -1.77961 0
M  V30 24550 C 2324.39 3.01511 -2.98249 0
M  V30 24551 N 2324.78 2.79234 -4.21737 0
M  V30 24552 C 2323.08 3.32657 -2.97078 0
M  V30 24553 C 2323.78 2.9248 -5.02822 0
M  V30 24554 N 2322.76 3.23255 -4.37044 0
M  V30 24555 H 2326.56 1.36716 -2.60165 0
M  V30 24556 H 2324.07 0.664926 -1.48164 0
M  V30 24557 H 2326.07 3.72267 -1.87677 0
M  V30 24558 H 2324.73 3.13113 -0.859689 0
M  V30 24559 H 2325.74 2.54559 -4.51021 0
M  V30 24560 H 2322.42 3.58102 -2.14637 0
M  V30 24561 H 2323.81 2.79385 -6.11059 0
M  V30 24562 N 2326.53 1.40598 0.712035 0
M  V30 24563 C 2327.76 1.4239 1.50109 0
M  V30 24564 C 2328.17 0.0245727 1.88784 0
M  V30 24565 O 2327.53 -0.952324 1.55683 0
M  V30 24566 C 2327.58 2.31781 2.77416 0
M  V30 24567 O 2327.3 3.66267 2.40375 0
M  V30 24568 C 2328.8 2.42203 3.71285 0
M  V30 24569 H 2326.02 0.485541 0.463132 0
M  V30 24570 H 2328.57 1.84691 0.878035 0
M  V30 24571 H 2326.72 1.92833 3.35997 0
M  V30 24572 H 2327.14 4.13778 3.22317 0
M  V30 24573 H 2328.61 3.08951 4.57442 0
M  V30 24574 H 2329.09 1.44817 4.14638 0
M  V30 24575 H 2329.69 2.81718 3.18614 0
M  V30 24576 N 2328.01 -0.94462 1.26153 0
M  V30 24577 C 2328.97 -2.02438 1.07477 0
M  V30 24578 C 2329.97 -1.60782 0.0242347 0
M  V30 24579 O 2331.16 -1.72136 0.267333 0
M  V30 24580 C 2328.29 -3.34952 0.634015 0
M  V30 24581 H 2329.49 -2.20438 2.0334 0
M  V30 24582 H 2327.04 -1.1231 1.08702 0
M  V30 24583 H 2327.77 -3.2265 -0.326754 0
M  V30 24584 H 2327.56 -3.66539 1.39253 0
M  V30 24585 H 2329.05 -4.14286 0.525083 0
M  V30 24586 N 2329.49 -1.07901 -1.1487 0
M  V30 24587 C 2330.72 -0.825664 -1.89384 0
M  V30 24588 C 2331.12 0.625375 -1.78566 0
M  V30 24589 O 2330.47 1.44111 -1.1392 0
M  V30 24590 C 2330.53 -1.16197 -3.40204 0
M  V30 24591 C 2330.19 -2.61474 -3.74807 0
M  V30 24592 C 2331.19 -3.59723 -3.7536 0
M  V30 24593 C 2328.87 -2.97196 -4.04945 0
M  V30 24594 C 2330.87 -4.91727 -4.05566 0
M  V30 24595 C 2328.56 -4.29395 -4.34814 0
M  V30 24596 C 2329.55 -5.2647 -4.35107 0
M  V30 24597 O 2329.24 -6.56294 -4.64256 0
M  V30 24598 H 2328.97 -0.297761 -0.606889 0
M  V30 24599 H 2331.53 -1.44034 -1.46436 0
M  V30 24600 H 2329.76 -0.490282 -3.83579 0
M  V30 24601 H 2331.45 -0.890263 -3.96017 0
M  V30 24602 H 2332.21 -3.33468 -3.5217 0
M  V30 24603 H 2328.09 -2.2228 -4.03872 0
M  V30 24604 H 2331.64 -5.67491 -4.05709 0
M  V30 24605 H 2327.53 -4.554 -4.57472 0
M  V30 24606 H 2328.3 -6.61531 -4.81995 0
M  V30 24607 N 2330.96 1.31811 -0.863929 0
M  V30 24608 C 2332.38 1.49638 -0.55503 0
M  V30 24609 C 2332.58 1.79668 0.912234 0
M  V30 24610 O 2331.64 1.87174 1.69476 0
M  V30 24611 C 2332.95 2.63429 -1.45003 0
M  V30 24612 C 2334.5 2.77313 -1.45143 0
M  V30 24613 C 2334.97 3.94193 -2.33186 0
M  V30 24614 N 2336.46 4.0147 -2.31032 0
M  V30 24615 C 2337.2 4.91165 -2.95879 0
M  V30 24616 N 2336.69 5.85803 -3.69873 0
M  V30 24617 N 2338.49 4.84362 -2.85219 0
M  V30 24618 H 2330.64 1.10586 -1.81341 0
M  V30 24619 H 2332.9 0.545881 -0.77506 0
M  V30 24620 H 2332.61 2.47996 -2.49381 0
M  V30 24621 H 2332.48 3.59429 -1.14416 0
M  V30 24622 H 2334.87 2.92164 -0.415253 0
M  V30 24623 H 2334.95 1.81998 -1.79751 0
M  V30 24624 H 2334.59 3.80101 -3.36877 0
M  V30 24625 H 2334.52 4.88803 -1.95906 0
M  V30 24626 H 2337.01 3.33756 -1.77244 0
M  V30 24627 H 2337.33 6.50961 -4.16497 0
M  V30 24628 H 2335.67 5.85801 -3.73981 0
M  V30 24629 H 2338.86 4.09401 -2.26955 0
M  V30 24630 H 2339.04 5.5406 -3.36037 0
M  V30 24631 N 2332.44 0.62277 1.44773 0
M  V30 24632 C 2333.69 0.121432 2.01334 0
M  V30 24633 C 2334 -1.26123 1.49507 0
M  V30 24634 O 2335.21 -1.85612 1.98142 0
M  V30 24635 C 2333.67 0.166362 3.59515 0
M  V30 24636 C 2333.27 1.54981 4.20339 0
M  V30 24637 C 2335.02 -0.278946 4.23583 0
M  V30 24638 C 2332.92 1.55031 5.70718 0
M  V30 24639 H 2331.85 0.0416304 0.75285 0
M  V30 24640 H 2334.51 0.780338 1.66081 0
M  V30 24641 H 2332.89 -0.559488 3.92028 0
M  V30 24642 H 2334.06 2.29858 3.99377 0
M  V30 24643 H 2332.38 1.93849 3.68526 0
M  V30 24644 H 2334.97 -0.29799 5.33869 0
M  V30 24645 H 2335.32 -1.30464 3.95329 0
M  V30 24646 H 2335.85 0.394132 3.95843 0
M  V30 24647 H 2332.59 2.55409 6.03694 0
M  V30 24648 H 2332.11 0.844349 5.93827 0
M  V30 24649 H 2333.79 1.28058 6.342 0
M  V30 24650 N 2333.92 -1.53367 0.362817 0
M  V30 24651 C 2335.14 -2.06107 -0.23119 0
M  V30 24652 C 2335.57 -1.23477 -1.41898 0
M  V30 24653 O 2334.93 -0.25316 -1.79524 0
M  V30 24654 C 2334.98 -3.55481 -0.605461 0
M  V30 24655 O 2334.08 -3.75593 -1.70305 0
M  V30 24656 H 2333.42 -0.663113 -0.0343154 0
M  V30 24657 H 2335.95 -1.97813 0.522619 0
M  V30 24658 H 2335.96 -3.98458 -0.877244 0
M  V30 24659 H 2334.64 -4.15067 0.263077 0
M  V30 24660 H 2333.21 -3.44514 -1.42704 0
M  V30 24661 N 2335.4 -0.091913 -1.57332 0
M  V30 24662 C 2336.65 0.572215 -1.93413 0
M  V30 24663 C 2336.96 1.69536 -0.975545 0
M  V30 24664 O 2338.17 2.42042 -1.22995 0
M  V30 24665 C 2336.62 1.06924 -3.4365 0
M  V30 24666 C 2336.23 -0.0239837 -4.47994 0
M  V30 24667 C 2337.97 1.70628 -3.88698 0
M  V30 24668 C 2335.88 0.488215 -5.89381 0
M  V30 24669 H 2334.81 0.217519 -0.721943 0
M  V30 24670 H 2337.46 -0.167401 -1.82735 0
M  V30 24671 H 2335.84 1.86244 -3.4947 0
M  V30 24672 H 2337.02 -0.799357 -4.53814 0
M  V30 24673 H 2335.33 -0.566018 -4.12535 0
M  V30 24674 H 2337.93 2.10016 -4.91729 0
M  V30 24675 H 2338.27 2.57421 -3.2717 0
M  V30 24676 H 2338.81 0.978955 -3.85566 0
M  V30 24677 H 2335.55 -0.343021 -6.54602 0
M  V30 24678 H 2335.07 1.23066 -5.87039 0
M  V30 24679 H 2336.74 0.958205 -6.39865 0
M  V30 24680 N 2336.88 1.56548 0.181765 0
M  V30 24681 C 2338.29 1.50432 0.533133 0
M  V30 24682 C 2338.49 0.79433 1.85183 0
M  V30 24683 O 2337.55 0.350361 2.50057 0
M  V30 24684 C 2338.86 2.95141 0.575545 0
M  V30 24685 C 2340.41 3.05887 0.663466 0
M  V30 24686 C 2340.88 4.52033 0.736866 0
M  V30 24687 N 2342.38 4.56239 0.800037 0
M  V30 24688 C 2343.11 5.6665 0.877227 0
M  V30 24689 N 2342.61 6.86719 0.915895 0
M  V30 24690 N 2344.4 5.54595 0.915444 0
M  V30 24691 H 2336.55 2.01117 -0.68306 0
M  V30 24692 H 2338.81 0.915793 -0.245004 0
M  V30 24693 H 2338.52 3.50199 -0.324543 0
M  V30 24694 H 2338.39 3.4922 1.42566 0
M  V30 24695 H 2340.78 2.50869 1.55398 0
M  V30 24696 H 2340.86 2.54911 -0.213115 0
M  V30 24697 H 2340.51 5.0768 -0.149351 0
M  V30 24698 H 2340.44 5.00756 1.62944 0
M  V30 24699 H 2342.93 3.69787 0.778861 0
M  V30 24700 H 2343.24 7.66616 0.975678 0
M  V30 24701 H 2341.58 6.89351 0.884348 0
M  V30 24702 H 2344.78 4.59712 0.882164 0
M  V30 24703 H 2344.95 6.40666 0.97214 0
M  V30 24704 N 2338.35 -0.449957 1.5104 0
M  V30 24705 C 2339.32 -1.52767 1.70865 0
M  V30 24706 C 2340.32 -1.50019 0.578872 0
M  V30 24707 O 2341.51 -1.52264 0.84624 0
M  V30 24708 C 2338.64 -2.92347 1.75346 0
M  V30 24709 H 2339.83 -1.36498 2.67036 0
M  V30 24710 H 2337.39 -0.677787 1.40839 0
M  V30 24711 H 2338.12 -3.14036 0.809438 0
M  V30 24712 H 2337.91 -2.95747 2.57441 0
M  V30 24713 H 2339.4 -3.70551 1.92566 0
M  V30 24714 N 2339.83 -1.40974 -0.704569 0
M  V30 24715 C 2341.08 -1.39847 -1.46455 0
M  V30 24716 C 2341.41 -0.00451012 -1.94499 0
M  V30 24717 O 2340.66 0.982027 -1.69277 0
M  V30 24718 C 2340.96 -2.34404 -2.69796 0
M  V30 24719 C 2340.63 -3.81433 -2.40458 0
M  V30 24720 C 2339.29 -4.21488 -2.32167 0
M  V30 24721 C 2341.64 -4.743 -2.16077 0
M  V30 24722 C 2338.97 -5.5243 -1.97579 0
M  V30 24723 C 2341.32 -6.05552 -1.83 0
M  V30 24724 C 2339.99 -6.44638 -1.73199 0
M  V30 24725 H 2339.26 -0.511735 -0.535918 0
M  V30 24726 H 2341.9 -1.73708 -0.806093 0
M  V30 24727 H 2340.21 -1.93765 -3.40532 0
M  V30 24728 H 2341.9 -2.30809 -3.27915 0
M  V30 24729 H 2338.49 -3.49703 -2.47801 0
M  V30 24730 H 2342.68 -4.44164 -2.21433 0
M  V30 24731 H 2337.93 -5.81605 -1.88537 0
M  V30 24732 H 2342.11 -6.77019 -1.63152 0
M  V30 24733 H 2339.74 -7.46016 -1.46166 0
M  V30 24734 N 2341.31 0.937917 -1.26653 0
M  V30 24735 C 2342.54 1.71878 -1.15176 0
M  V30 24736 C 2342.95 1.86518 0.292635 0
M  V30 24737 O 2342.31 1.3749 1.20011 0
M  V30 24738 C 2342.36 3.12383 -1.81931 0
M  V30 24739 O 2342.08 2.9844 -3.20726 0
M  V30 24740 C 2343.58 4.0667 -1.76449 0
M  V30 24741 H 2340.8 0.538056 -0.40092 0
M  V30 24742 H 2343.35 1.17557 -1.67334 0
M  V30 24743 H 2341.5 3.63596 -1.33703 0
M  V30 24744 H 2341.92 3.87194 -3.53809 0
M  V30 24745 H 2343.39 5.02808 -2.2779 0
M  V30 24746 H 2343.87 4.33062 -0.731684 0
M  V30 24747 H 2344.47 3.61379 -2.24245 0
M  V30 24748 N 2342.79 1.08509 1.14296 0
M  V30 24749 C 2343.72 0.673897 2.19069 0
M  V30 24750 C 2344.73 -0.279549 1.60382 0
M  V30 24751 O 2345.92 -0.067044 1.78374 0
M  V30 24752 C 2343.02 -0.0290383 3.38888 0
M  V30 24753 C 2342.2 0.943569 4.27101 0
M  V30 24754 C 2341.25 0.275768 5.25477 0
M  V30 24755 O 2340.28 0.9205 5.61708 0
M  V30 24756 N 2341.48 -0.973913 5.72272 0
M  V30 24757 H 2344.25 1.57525 2.54963 0
M  V30 24758 H 2341.81 0.97131 1.29527 0
M  V30 24759 H 2343.8 -0.486759 4.01762 0
M  V30 24760 H 2342.37 -0.832502 3.01311 0
M  V30 24761 H 2341.59 1.5801 3.61146 0
M  V30 24762 H 2342.88 1.6026 4.82902 0
M  V30 24763 H 2342.28 -1.51745 5.44968 0
M  V30 24764 H 2340.83 -1.37511 6.37129 0
M  V30 24765 N 2344.27 -1.31351 0.870907 0
M  V30 24766 C 2345.2 -2.30965 0.343137 0
M  V30 24767 C 2346.18 -1.6039 -0.566479 0
M  V30 24768 O 2347.36 -1.8809 -0.483303 0
M  V30 24769 C 2344.49 -3.44301 -0.455426 0
M  V30 24770 C 2343.45 -4.26473 0.361178 0
M  V30 24771 C 2342.77 -5.31726 -0.563127 0
M  V30 24772 C 2344.07 -4.97326 1.59575 0
M  V30 24773 H 2345.77 -2.75357 1.17553 0
M  V30 24774 H 2343.31 -1.3238 0.566709 0
M  V30 24775 H 2345.27 -4.13041 -0.835178 0
M  V30 24776 H 2343.99 -2.98678 -1.32134 0
M  V30 24777 H 2342.65 -3.59402 0.722888 0
M  V30 24778 H 2342.3 -4.82353 -1.42634 0
M  V30 24779 H 2342 -5.87596 -0.0206376 0
M  V30 24780 H 2343.52 -6.03326 -0.939702 0
M  V30 24781 H 2344.93 -5.58659 1.28738 0
M  V30 24782 H 2343.33 -5.62996 2.07738 0
M  V30 24783 H 2344.4 -4.24258 2.34805 0
M  V30 24784 N 2345.74 -0.630439 -1.44441 0
M  V30 24785 C 2346.99 -0.134652 -2.02052 0
M  V30 24786 C 2347.32 1.24324 -1.49579 0
M  V30 24787 O 2346.57 1.83879 -0.669838 0
M  V30 24788 C 2346.87 -0.0698463 -3.57332 0
M  V30 24789 C 2346.54 -1.38643 -4.29056 0
M  V30 24790 C 2345.2 -1.74702 -4.48367 0
M  V30 24791 C 2347.55 -2.25551 -4.69868 0
M  V30 24792 C 2344.88 -2.97378 -5.0575 0
M  V30 24793 C 2347.23 -3.47497 -5.2861 0
M  V30 24794 C 2345.9 -3.8378 -5.4614 0
M  V30 24795 H 2345.17 -0.0492728 -0.73936 0
M  V30 24796 H 2347.81 -0.816617 -1.73216 0
M  V30 24797 H 2346.12 0.695485 -3.85578 0
M  V30 24798 H 2347.82 0.330273 -3.99638 0
M  V30 24799 H 2344.41 -1.09582 -4.14355 0
M  V30 24800 H 2348.59 -1.98987 -4.54662 0
M  V30 24801 H 2343.85 -3.25567 -5.1751 0
M  V30 24802 H 2348.02 -4.15073 -5.59184 0
M  V30 24803 H 2345.65 -4.78921 -5.90372 0
M  V30 24804 N 2347.22 1.53172 -0.370945 0
M  V30 24805 C 2348.5 1.93675 0.27372 0
M  V30 24806 C 2348.88 1.30493 1.65936 0
M  V30 24807 O 2348.23 0.466039 2.23697 0
M  V30 24808 C 2348.44 3.47543 0.31854 0
M  V30 24809 C 2349.79 4.2094 0.556318 0
M  V30 24810 O 2350.81 3.53952 0.399525 0
M  V30 24811 O 2349.67 5.39658 0.862038 0
M  V30 24812 H 2346.76 0.810284 0.165434 0
M  V30 24813 H 2349.31 1.64315 -0.424119 0
M  V30 24814 H 2348.08 3.85817 -0.652755 0
M  V30 24815 H 2347.7 3.83153 1.06206 0
M  V30 24816 N 2348.7 0.100255 1.57281 0
M  V30 24817 C 2349.61 -0.870927 2.17835 0
M  V30 24818 C 2350.63 -1.30647 1.14923 0
M  V30 24819 O 2351.8 -1.37333 1.47315 0
M  V30 24820 C 2348.87 -2.11015 2.75088 0
M  V30 24821 C 2347.93 -1.72831 3.92973 0
M  V30 24822 C 2347.16 -2.90846 4.47487 0
M  V30 24823 O 2347.38 -4.05724 4.00929 0
M  V30 24824 O 2346.32 -2.69014 5.38438 0
M  V30 24825 H 2350.14 -0.385697 3.01241 0
M  V30 24826 H 2347.73 -0.124371 1.48881 0
M  V30 24827 H 2349.61 -2.83629 3.11661 0
M  V30 24828 H 2348.29 -2.5858 1.94725 0
M  V30 24829 H 2347.19 -0.97382 3.61203 0
M  V30 24830 H 2348.53 -1.30024 4.74715 0
M  V30 24831 N 2350.18 -1.56643 -0.17346 0
M  V30 24832 C 2351.46 -1.72742 -0.917586 0
M  V30 24833 C 2351.84 -0.661062 -2.00482 0
M  V30 24834 O 2351.18 0.32449 -2.26184 0
M  V30 24835 C 2351.39 -3.15864 -1.48428 0
M  V30 24836 C 2352.74 -3.76758 -1.95803 0
M  V30 24837 O 2353.77 -3.19129 -1.58226 0
M  V30 24838 O 2352.63 -4.77942 -2.65016 0
M  V30 24839 H 2349.72 -0.705346 -0.431759 0
M  V30 24840 H 2352.27 -1.6893 -0.161457 0
M  V30 24841 H 2351.04 -3.84958 -0.701647 0
M  V30 24842 H 2350.66 -3.23993 -2.30465 0
M  V30 24843 N 2351.66 0.44194 -1.51277 0
M  V30 24844 C 2352.59 1.54358 -1.75203 0
M  V30 24845 C 2353.57 1.59102 -0.60171 0
M  V30 24846 O 2354.75 1.74903 -0.843944 0
M  V30 24847 C 2351.88 2.92474 -1.87287 0
M  V30 24848 C 2350.84 3.02591 -3.02692 0
M  V30 24849 C 2350.16 4.42641 -2.99955 0
M  V30 24850 C 2351.46 2.77098 -4.42735 0
M  V30 24851 H 2353.16 1.34587 -2.67445 0
M  V30 24852 H 2350.7 0.646026 -1.28695 0
M  V30 24853 H 2352.66 3.69497 -2.02609 0
M  V30 24854 H 2351.38 3.13465 -0.916899 0
M  V30 24855 H 2350.04 2.28007 -2.87069 0
M  V30 24856 H 2349.69 4.60594 -2.02144 0
M  V30 24857 H 2349.39 4.50341 -3.77447 0
M  V30 24858 H 2350.91 5.21644 -3.17363 0
M  V30 24859 H 2352.33 3.43856 -4.58733 0
M  V30 24860 H 2350.72 2.96213 -5.21899 0
M  V30 24861 H 2351.79 1.72736 -4.5309 0
M  V30 24862 N 2353.14 1.41345 0.697083 0
M  V30 24863 C 2354.08 1.43074 1.81103 0
M  V30 24864 C 2355.05 0.285303 1.63631 0
M  V30 24865 O 2356.24 0.486124 1.84503 0
M  V30 24866 C 2353.38 1.31721 3.18973 0
M  V30 24867 C 2352.49 2.56121 3.47888 0
M  V30 24868 C 2351.63 2.37072 4.75363 0
M  V30 24869 C 2350.66 3.56957 4.97241 0
M  V30 24870 N 2349.8 3.36988 6.15941 0
M  V30 24871 H 2354.64 2.3828 1.7896 0
M  V30 24872 H 2352.18 1.18324 0.873954 0
M  V30 24873 H 2354.14 1.2314 3.98613 0
M  V30 24874 H 2352.77 0.40124 3.20297 0
M  V30 24875 H 2351.82 2.75157 2.62665 0
M  V30 24876 H 2353.13 3.45301 3.59956 0
M  V30 24877 H 2352.28 2.25951 5.63055 0
M  V30 24878 H 2351.02 1.45346 4.65538 0
M  V30 24879 H 2350.03 3.68535 4.07998 0
M  V30 24880 H 2351.25 4.49634 5.08926 0
M  V30 24881 H 2349.2 2.4796 6.07332 0
M  V30 24882 H 2349.12 4.19743 6.2877 0
M  V30 24883 H 2350.38 3.29636 7.06371 0
M  V30 24884 N 2354.61 -0.931187 1.27148 0
M  V30 24885 C 2355.52 -2.06476 1.11376 0
M  V30 24886 C 2356.54 -1.73943 0.0446756 0
M  V30 24887 O 2357.72 -1.99837 0.250452 0
M  V30 24888 C 2354.78 -3.38292 0.758897 0
M  V30 24889 C 2353.84 -3.84546 1.90848 0
M  V30 24890 C 2353.07 -5.10071 1.57045 0
M  V30 24891 O 2353.3 -5.68404 0.476745 0
M  V30 24892 O 2352.23 -5.51612 2.40849 0
M  V30 24893 H 2356.06 -2.22694 2.06497 0
M  V30 24894 H 2353.64 -1.04976 1.06303 0
M  V30 24895 H 2355.52 -4.1747 0.574171 0
M  V30 24896 H 2354.2 -3.2329 -0.162822 0
M  V30 24897 H 2353.11 -3.0627 2.14824 0
M  V30 24898 H 2354.44 -4.04084 2.81028 0
M  V30 24899 N 2356.09 -1.09114 -1.13719 0
M  V30 24900 C 2357.34 -0.825224 -1.84922 0
M  V30 24901 C 2357.67 0.649119 -1.83349 0
M  V30 24902 O 2356.92 1.4936 -1.26452 0
M  V30 24903 C 2357.22 -1.30152 -3.32859 0
M  V30 24904 C 2356.89 -2.78493 -3.54616 0
M  V30 24905 C 2355.55 -3.19005 -3.60263 0
M  V30 24906 C 2357.9 -3.74153 -3.62849 0
M  V30 24907 C 2355.23 -4.53957 -3.71671 0
M  V30 24908 C 2357.58 -5.0889 -3.75785 0
M  V30 24909 C 2356.24 -5.48997 -3.79682 0
M  V30 24910 H 2355.51 -0.301971 -0.676679 0
M  V30 24911 H 2358.16 -1.36535 -1.34277 0
M  V30 24912 H 2356.47 -0.681132 -3.85834 0
M  V30 24913 H 2358.16 -1.07243 -3.86393 0
M  V30 24914 H 2354.75 -2.4614 -3.50875 0
M  V30 24915 H 2358.94 -3.43969 -3.57769 0
M  V30 24916 H 2354.19 -4.84474 -3.72954 0
M  V30 24917 H 2358.37 -5.8287 -3.81097 0
M  V30 24918 H 2355.99 -6.53564 -3.88275 0
M  V30 24919 N 2357.57 1.30887 -0.877861 0
M  V30 24920 C 2358.8 2.00581 -0.507449 0
M  V30 24921 C 2359.21 1.65849 0.902186 0
M  V30 24922 O 2358.57 0.891859 1.59224 0
M  V30 24923 C 2358.62 3.55345 -0.664224 0
M  V30 24924 O 2358.34 3.88837 -2.01836 0
M  V30 24925 C 2359.84 4.42312 -0.295865 0
M  V30 24926 H 2357.06 0.641467 -0.196878 0
M  V30 24927 H 2359.61 1.66937 -1.1812 0
M  V30 24928 H 2357.76 3.87381 -0.03793 0
M  V30 24929 H 2358.18 4.83546 -2.03182 0
M  V30 24930 H 2359.65 5.50109 -0.456485 0
M  V30 24931 H 2360.13 4.32476 0.765586 0
M  V30 24932 H 2360.73 4.15707 -0.898186 0
M  V30 24933 N 2359.05 0.638091 1.44105 0
M  V30 24934 C 2359.99 -0.0626605 2.30715 0
M  V30 24935 C 2360.96 -0.829858 1.43884 0
M  V30 24936 O 2362.15 -0.809502 1.72776 0
M  V30 24937 C 2359.29 -1.03352 3.2926 0
M  V30 24938 C 2358.4 -0.264015 4.31192 0
M  V30 24939 C 2357.54 -1.22732 5.16827 0
M  V30 24940 C 2356.58 -0.447368 6.10463 0
M  V30 24941 N 2355.71 -1.36149 6.88773 0
M  V30 24942 H 2360.55 0.681832 2.90095 0
M  V30 24943 H 2358.09 0.348013 1.42924 0
M  V30 24944 H 2360.05 -1.60986 3.84889 0
M  V30 24945 H 2358.68 -1.74506 2.71565 0
M  V30 24946 H 2357.73 0.428361 3.7798 0
M  V30 24947 H 2359.04 0.34314 4.97618 0
M  V30 24948 H 2358.2 -1.87477 5.77007 0
M  V30 24949 H 2356.94 -1.86839 4.50491 0
M  V30 24950 H 2355.94 0.213529 5.49385 0
M  V30 24951 H 2357.17 0.189087 6.78837 0
M  V30 24952 H 2355.11 -1.98964 6.25099 0
M  V30 24953 H 2355.03 -0.808524 7.51664 0
M  V30 24954 H 2356.3 -1.99756 7.53471 0
M  V30 24955 N 2360.53 -1.52973 0.379063 0
M  V30 24956 C 2361.94 -1.86447 -0.0972197 0
M  V30 24957 C 2362.29 -1.29916 -1.47025 0
M  V30 24958 O 2361.41 -0.626469 -2.07134 0
M  V30 24959 C 2362.01 -3.38304 -0.183189 0
M  V30 24960 C 2360.57 -3.71526 -0.603747 0
M  V30 24961 C 2359.71 -2.76254 0.240681 0
M  V30 24962 H 2362.66 -1.47029 0.597341 0
M  V30 24963 H 2362.69 -3.67008 -1.00426 0
M  V30 24964 H 2362.2 -3.79419 0.816257 0
M  V30 24965 H 2360.3 -3.35976 -1.61093 0
M  V30 24966 H 2360.41 -4.77677 -0.369002 0
M  V30 24967 H 2358.78 -2.53015 -0.292503 0
M  V30 24968 H 2359.56 -3.20204 1.23792 0
M  V30 24969 N 2362 -0.108595 -1.57225 0
M  V30 24970 C 2362.93 0.842282 -2.17779 0
M  V30 24971 C 2363.91 1.28469 -1.11489 0
M  V30 24972 O 2365.1 1.34916 -1.39683 0
M  V30 24973 C 2362.23 2.09639 -2.76891 0
M  V30 24974 C 2361.18 1.79214 -3.88673 0
M  V30 24975 C 2360.51 3.11567 -4.34546 0
M  V30 24976 C 2361.81 1.06855 -5.11253 0
M  V30 24977 H 2363.5 0.337721 -2.97489 0
M  V30 24978 H 2361.05 0.161 -1.43097 0
M  V30 24979 H 2363 2.76608 -3.17909 0
M  V30 24980 H 2361.73 2.62401 -1.94456 0
M  V30 24981 H 2360.39 1.14638 -3.48215 0
M  V30 24982 H 2360.03 3.62243 -3.48983 0
M  V30 24983 H 2359.73 2.91987 -5.09919 0
M  V30 24984 H 2361.26 3.79672 -4.78207 0
M  V30 24985 H 2362.67 1.63958 -5.49355 0
M  V30 24986 H 2361.07 0.974074 -5.92142 0
M  V30 24987 H 2362.14 0.0535316 -4.8487 0
M  V30 24988 N 2363.48 1.56732 0.16515 0
M  V30 24989 C 2364.71 1.86213 0.894886 0
M  V30 24990 C 2365.12 0.692658 1.76065 0
M  V30 24991 O 2364.46 -0.347272 1.80388 0
M  V30 24992 C 2364.52 3.10182 1.81734 0
M  V30 24993 C 2364.19 4.42795 1.13056 0
M  V30 24994 C 2365.19 5.17557 0.493078 0
M  V30 24995 C 2362.87 4.89529 1.12548 0
M  V30 24996 C 2364.86 6.37246 -0.140321 0
M  V30 24997 C 2362.55 6.09146 0.488259 0
M  V30 24998 C 2363.55 6.82849 -0.143531 0
M  V30 24999 O 2363.24 8.00197 -0.77069 0
M  V30 25000 H 2362.97 0.621849 0.265103 0
M  V30 25001 H 2365.52 2.0471 0.168206 0
M  V30 25002 H 2363.75 2.87647 2.5845 0
M  V30 25003 H 2365.44 3.26059 2.41745 0
M  V30 25004 H 2366.21 4.82529 0.488939 0
M  V30 25005 H 2362.09 4.32097 1.60664 0
M  V30 25006 H 2365.63 6.94713 -0.634054 0
M  V30 25007 H 2361.53 6.43637 0.490002 0
M  V30 25008 H 2362.3 8.15749 -0.670552 0
M  V30 25009 N 2364.96 -0.433911 1.51509 0
M  V30 25010 C 2366.18 -1.21 1.68445 0
M  V30 25011 C 2366.61 -1.84166 0.382669 0
M  V30 25012 O 2365.97 -1.68957 -0.65752 0
M  V30 25013 C 2366.02 -2.26722 2.80409 0
M  V30 25014 O 2365.12 -3.32288 2.44251 0
M  V30 25015 H 2364.46 -0.354353 0.561543 0
M  V30 25016 H 2366.99 -0.511989 1.9809 0
M  V30 25017 H 2367 -2.71452 3.04594 0
M  V30 25018 H 2365.68 -1.80126 3.7487 0
M  V30 25019 H 2364.25 -2.93011 2.30649 0
M  V30 25020 N 2366.44 -1.41713 -0.689577 0
M  V30 25021 C 2367.72 -1.3188 -1.44454 0
M  V30 25022 C 2368.1 0.0508166 -2.11039 0
M  V30 25023 O 2367.44 1.06544 -2.0214 0
M  V30 25024 C 2367.65 -2.47649 -2.45908 0
M  V30 25025 C 2369 -2.8909 -3.10986 0
M  V30 25026 O 2370.03 -2.47432 -2.56234 0
M  V30 25027 O 2368.88 -3.61144 -4.10167 0
M  V30 25028 H 2365.98 -0.51932 -0.643611 0
M  V30 25029 H 2368.52 -1.5369 -0.719549 0
M  V30 25030 H 2367.3 -3.39018 -1.95403 0
M  V30 25031 H 2366.92 -2.27748 -3.25909 0
M  V30 25032 N 2367.92 0.924431 -1.2764 0
M  V30 25033 C 2369.14 1.70647 -1.16992 0
M  V30 25034 C 2369.56 1.86818 0.272836 0
M  V30 25035 O 2368.92 1.38755 1.18546 0
M  V30 25036 C 2368.97 3.10436 -1.85234 0
M  V30 25037 O 2368.69 2.95022 -3.23873 0
M  V30 25038 C 2370.19 4.04776 -1.80753 0
M  V30 25039 H 2367.41 0.533773 -0.406604 0
M  V30 25040 H 2369.95 1.15775 -1.68571 0
M  V30 25041 H 2368.11 3.62158 -1.37551 0
M  V30 25042 H 2368.52 3.8342 -3.57896 0
M  V30 25043 H 2370 5.00364 -2.3311 0
M  V30 25044 H 2370.47 4.32262 -0.777575 0
M  V30 25045 H 2371.08 3.5898 -2.28065 0
M  V30 25046 N 2369.39 1.09715 1.13139 0
M  V30 25047 C 2370.64 0.83502 1.84482 0
M  V30 25048 C 2370.97 -0.639386 1.8369 0
M  V30 25049 O 2370.22 -1.48687 1.27242 0
M  V30 25050 C 2370.52 1.31916 3.32164 0
M  V30 25051 C 2370.19 2.80369 3.53134 0
M  V30 25052 C 2368.85 3.20911 3.58566 0
M  V30 25053 C 2371.2 3.76072 3.60859 0
M  V30 25054 C 2368.53 4.55922 3.69259 0
M  V30 25055 C 2370.88 5.10875 3.7308 0
M  V30 25056 C 2369.55 5.51003 3.76766 0
M  V30 25057 H 2368.82 0.305555 0.675068 0
M  V30 25058 H 2371.46 1.37245 1.33551 0
M  V30 25059 H 2369.77 0.701584 3.85467 0
M  V30 25060 H 2371.47 1.09291 3.85819 0
M  V30 25061 H 2368.06 2.47997 3.49564 0
M  V30 25062 H 2372.24 3.45862 3.5594 0
M  V30 25063 H 2367.5 4.86445 3.7038 0
M  V30 25064 H 2371.67 5.84883 3.78001 0
M  V30 25065 H 2369.3 6.55614 3.84804 0
M  V30 25066 N 2370.87 -1.30419 0.88479 0
M  V30 25067 C 2372.12 -1.9615 0.50314 0
M  V30 25068 C 2372.45 -1.69853 -0.947647 0
M  V30 25069 O 2371.7 -0.995891 -1.68465 0
M  V30 25070 C 2372 -3.49982 0.72438 0
M  V30 25071 C 2371.67 -3.96328 2.15022 0
M  V30 25072 C 2370.33 -4.08694 2.54013 0
M  V30 25073 C 2372.68 -4.205 3.07944 0
M  V30 25074 C 2370.01 -4.42592 3.85135 0
M  V30 25075 C 2372.36 -4.55867 4.38598 0
M  V30 25076 C 2371.03 -4.66441 4.77482 0
M  V30 25077 H 2370.3 -0.717763 0.184112 0
M  V30 25078 H 2372.94 -1.55289 1.12061 0
M  V30 25079 H 2371.25 -3.91793 0.0238775 0
M  V30 25080 H 2372.94 -3.98912 0.408687 0
M  V30 25081 H 2369.53 -3.8721 1.83757 0
M  V30 25082 H 2373.72 -4.10427 2.79041 0
M  V30 25083 H 2368.97 -4.48979 4.15004 0
M  V30 25084 H 2373.15 -4.73521 5.10638 0
M  V30 25085 H 2370.78 -4.92463 5.79124 0
M  V30 25086 N 2372.35 -0.645724 -1.43764 0
M  V30 25087 C 2373.58 -0.16192 -2.06767 0
M  V30 25088 C 2374 1.16047 -1.48037 0
M  V30 25089 O 2373.36 1.71521 -0.587399 0
M  V30 25090 C 2373.41 -0.0762636 -3.60519 0
M  V30 25091 O 2372.51 0.96365 -4.00983 0
M  V30 25092 H 2371.85 -0.0914405 -0.657674 0
M  V30 25093 H 2374.38 -0.886531 -1.84396 0
M  V30 25094 H 2374.39 0.109532 -4.07853 0
M  V30 25095 H 2373.07 -1.04164 -4.02644 0
M  V30 25096 H 2371.64 0.751248 -3.65254 0
M  V30 25097 N 2373.83 1.5277 -0.38717 0
M  V30 25098 C 2374.76 2.29307 0.440511 0
M  V30 25099 C 2375.74 1.32607 1.06533 0
M  V30 25100 O 2376.92 1.61499 1.0785 0
M  V30 25101 C 2374.05 3.09831 1.56914 0
M  V30 25102 C 2373.01 4.14397 1.07047 0
M  V30 25103 C 2372.33 4.83133 2.291 0
M  V30 25104 C 2373.63 5.22113 0.139923 0
M  V30 25105 H 2375.33 2.98744 -0.198079 0
M  V30 25106 H 2372.87 1.43675 -0.0967052 0
M  V30 25107 H 2374.83 3.62131 2.15497 0
M  V30 25108 H 2373.55 2.38123 2.23528 0
M  V30 25109 H 2372.21 3.63075 0.507183 0
M  V30 25110 H 2371.86 4.07975 2.94219 0
M  V30 25111 H 2371.56 5.53807 1.96396 0
M  V30 25112 H 2373.08 5.38236 2.8833 0
M  V30 25113 H 2374.5 5.69785 0.633878 0
M  V30 25114 H 2372.89 6.00021 -0.097254 0
M  V30 25115 H 2373.96 4.78056 -0.811795 0
M  V30 25116 N 2375.31 0.116931 1.57166 0
M  V30 25117 C 2376.72 -0.408777 1.8217 0
M  V30 25118 C 2377.07 -1.66744 1.03396 0
M  V30 25119 O 2376.19 -2.1471 0.269924 0
M  V30 25120 C 2376.79 -0.748408 3.3043 0
M  V30 25121 C 2375.35 -1.21876 3.56122 0
M  V30 25122 C 2374.49 -0.226403 2.76374 0
M  V30 25123 H 2377.45 0.342091 1.54969 0
M  V30 25124 H 2377.47 -1.60601 3.44946 0
M  V30 25125 H 2376.98 0.167853 3.87737 0
M  V30 25126 H 2375.08 -2.15199 3.04171 0
M  V30 25127 H 2375.19 -1.16551 4.64707 0
M  V30 25128 H 2373.56 -0.71302 2.44516 0
M  V30 25129 H 2374.34 0.682918 3.36439 0
M  V30 25130 N 2376.78 -1.56818 -0.156836 0
M  V30 25131 C 2378.03 -1.81997 -0.869472 0
M  V30 25132 C 2378.35 -0.696577 -1.82776 0
M  V30 25133 O 2379.55 -0.833703 -2.58383 0
M  V30 25134 C 2378.01 -3.2254 -1.59674 0
M  V30 25135 C 2377.62 -4.42788 -0.681354 0
M  V30 25136 C 2379.36 -3.57002 -2.29674 0
M  V30 25137 C 2377.27 -5.74354 -1.40968 0
M  V30 25138 H 2376.2 -0.678714 -0.328426 0
M  V30 25139 H 2378.85 -1.83092 -0.122268 0
M  V30 25140 H 2377.23 -3.15804 -2.38922 0
M  V30 25141 H 2378.4 -4.60739 0.0751976 0
M  V30 25142 H 2376.72 -4.16302 -0.0902699 0
M  V30 25143 H 2379.32 -4.52549 -2.84786 0
M  V30 25144 H 2379.66 -2.82581 -3.05702 0
M  V30 25145 H 2380.19 -3.65355 -1.57355 0
M  V30 25146 H 2376.93 -6.51843 -0.691446 0
M  V30 25147 H 2376.45 -5.60356 -2.13919 0
M  V30 25148 H 2378.13 -6.16812 -1.95326 0
M  V30 25149 N 2378.26 0.425871 -1.51737 0
M  V30 25150 C 2379.49 1.19647 -1.68796 0
M  V30 25151 C 2379.91 1.84724 -0.390197 0
M  V30 25152 O 2379.26 1.71195 0.632346 0
M  V30 25153 C 2379.31 2.27203 -2.81178 0
M  V30 25154 O 2379.03 1.64786 -4.05928 0
M  V30 25155 C 2380.54 3.17269 -3.09605 0
M  V30 25156 H 2377.76 0.360184 -0.566135 0
M  V30 25157 H 2380.3 0.503214 -1.98212 0
M  V30 25158 H 2378.45 2.92225 -2.54329 0
M  V30 25159 H 2378.87 2.35959 -4.68427 0
M  V30 25160 H 2380.34 3.88847 -3.91793 0
M  V30 25161 H 2380.82 3.78684 -2.22474 0
M  V30 25162 H 2381.43 2.57935 -3.38156 0
M  V30 25163 N 2379.74 1.42077 0.682052 0
M  V30 25164 C 2380.97 1.45542 1.47055 0
M  V30 25165 C 2381.38 0.064611 1.88689 0
M  V30 25166 O 2380.74 -0.919087 1.57668 0
M  V30 25167 C 2380.79 2.37613 2.72437 0
M  V30 25168 O 2380.51 3.71283 2.32552 0
M  V30 25169 C 2382.01 2.50024 3.66064 0
M  V30 25170 H 2379.23 0.495255 0.452728 0
M  V30 25171 H 2381.78 1.86512 0.838662 0
M  V30 25172 H 2379.93 1.99916 3.31832 0
M  V30 25173 H 2380.35 4.20521 3.13468 0
M  V30 25174 H 2381.82 3.18584 4.50786 0
M  V30 25175 H 2382.3 1.53579 4.11473 0
M  V30 25176 H 2382.9 2.88413 3.12567 0
M  V30 25177 N 2381.22 -0.917649 1.28129 0
M  V30 25178 C 2382.13 -2.05284 1.1356 0
M  V30 25179 C 2383.15 -1.73885 0.063122 0
M  V30 25180 O 2384.32 -1.9956 0.271634 0
M  V30 25181 C 2381.39 -3.37468 0.794735 0
M  V30 25182 C 2380.45 -3.825 1.94916 0
M  V30 25183 C 2379.68 -5.08377 1.62446 0
M  V30 25184 O 2379.9 -5.67867 0.537005 0
M  V30 25185 O 2378.84 -5.49026 2.46686 0
M  V30 25186 H 2382.66 -2.20491 2.08848 0
M  V30 25187 H 2380.25 -1.03843 1.07411 0
M  V30 25188 H 2382.13 -4.16838 0.618417 0
M  V30 25189 H 2380.81 -3.23445 -0.128524 0
M  V30 25190 H 2379.71 -3.03974 2.1806 0
M  V30 25191 H 2381.05 -4.01081 2.85298 0
M  V30 25192 N 2382.7 -1.10314 -1.12555 0
M  V30 25193 C 2383.92 -0.867118 -1.88403 0
M  V30 25194 C 2384.35 0.576786 -1.79039 0
M  V30 25195 O 2383.71 1.40616 -1.14442 0
M  V30 25196 C 2383.75 -1.31857 -3.35628 0
M  V30 25197 O 2382.86 -0.482806 -4.09564 0
M  V30 25198 H 2382.2 -0.313281 -0.585449 0
M  V30 25199 H 2384.73 -1.46962 -1.42349 0
M  V30 25200 H 2384.74 -1.30796 -3.86466 0
M  V30 25201 H 2383.41 -2.37007 -3.41761 0
M  V30 25202 H 2381.99 -0.558513 -3.68694 0
M  V30 25203 N 2384.18 1.29948 -0.891694 0
M  V30 25204 C 2385.09 2.317 -0.367732 0
M  V30 25205 C 2386.1 1.65621 0.533457 0
M  V30 25206 O 2387.28 1.96866 0.424963 0
M  V30 25207 C 2384.34 3.44346 0.403345 0
M  V30 25208 C 2383.4 4.26036 -0.528403 0
M  V30 25209 C 2382.64 5.33302 0.20597 0
M  V30 25210 O 2382.86 5.52156 1.43109 0
M  V30 25211 O 2381.79 6.00235 -0.447386 0
M  V30 25212 H 2385.62 2.78481 -1.21168 0
M  V30 25213 H 2383.2 1.3424 -0.655748 0
M  V30 25214 H 2385.09 4.1295 0.83968 0
M  V30 25215 H 2383.76 2.99687 1.22349 0
M  V30 25216 H 2382.67 3.60104 -1.01369 0
M  V30 25217 H 2384 4.74316 -1.31474 0
M  V30 25218 N 2385.65 0.653339 1.4342 0
M  V30 25219 C 2387.06 0.246569 1.85065 0
M  V30 25220 C 2387.42 -1.20688 1.5469 0
M  V30 25221 O 2386.54 -1.9212 0.99593 0
M  V30 25222 C 2387.14 0.440725 3.35921 0
M  V30 25223 C 2385.69 0.0882725 3.76296 0
M  V30 25224 C 2384.84 0.743531 2.67146 0
M  V30 25225 H 2387.79 0.857002 1.33571 0
M  V30 25226 H 2387.81 -0.313731 3.79204 0
M  V30 25227 H 2387.33 1.49865 3.57997 0
M  V30 25228 H 2385.43 -0.967047 3.59832 0
M  V30 25229 H 2385.54 0.513822 4.76337 0
M  V30 25230 H 2383.9 0.176757 2.54086 0
M  V30 25231 H 2384.69 1.80448 2.9205 0
M  V30 25232 N 2387.13 -1.52563 0.395266 0
M  V30 25233 C 2388.06 -2.29538 -0.428344 0
M  V30 25234 C 2389.04 -1.33171 -1.05828 0
M  V30 25235 O 2390.23 -1.62069 -1.06992 0
M  V30 25236 C 2387.36 -3.10659 -1.55268 0
M  V30 25237 C 2386.31 -4.14959 -1.04848 0
M  V30 25238 C 2385.64 -4.84341 -2.26535 0
M  V30 25239 C 2386.94 -5.22179 -0.112232 0
M  V30 25240 H 2388.63 -2.98635 0.213919 0
M  V30 25241 H 2386.18 -1.43622 0.104323 0
M  V30 25242 H 2388.13 -3.63269 -2.13573 0
M  V30 25243 H 2386.85 -2.39306 -2.22262 0
M  V30 25244 H 2385.51 -3.63339 -0.487921 0
M  V30 25245 H 2385.16 -4.0953 -2.92052 0
M  V30 25246 H 2384.86 -5.54841 -1.93457 0
M  V30 25247 H 2386.39 -5.39758 -2.85471 0
M  V30 25248 H 2387.8 -5.70113 -0.603652 0
M  V30 25249 H 2386.2 -5.99961 0.129073 0
M  V30 25250 H 2387.27 -4.77619 0.837136 0
M  V30 25251 N 2388.61 -0.125265 -1.57101 0
M  V30 25252 C 2389.86 0.531213 -1.95408 0
M  V30 25253 C 2390.18 1.66286 -1.00893 0
M  V30 25254 O 2389.44 1.95671 -0.0339775 0
M  V30 25255 C 2389.74 1.09856 -3.40098 0
M  V30 25256 C 2389.4 0.0876197 -4.50815 0
M  V30 25257 C 2388.07 -0.190345 -4.80823 0
M  V30 25258 C 2390.42 -0.600993 -5.17723 0
M  V30 25259 C 2387.75 -1.1631 -5.75056 0
M  V30 25260 C 2390.1 -1.56242 -6.13002 0
M  V30 25261 C 2388.76 -1.84831 -6.414 0
M  V30 25262 H 2388.03 0.194385 -0.715049 0
M  V30 25263 H 2390.68 -0.207497 -1.90373 0
M  V30 25264 H 2388.98 1.91416 -3.41858 0
M  V30 25265 H 2390.68 1.61471 -3.67053 0
M  V30 25266 H 2387.27 0.314453 -4.27445 0
M  V30 25267 H 2391.46 -0.39942 -4.9469 0
M  V30 25268 H 2386.71 -1.39127 -5.9536 0
M  V30 25269 H 2390.89 -2.10165 -6.63931 0
M  V30 25270 H 2388.51 -2.60361 -7.14224 0
M  V30 25271 N 2390.09 1.56899 0.148518 0
M  V30 25272 C 2391.34 1.82904 0.859684 0
M  V30 25273 C 2391.66 0.705912 1.81774 0
M  V30 25274 O 2390.93 -0.272552 1.93995 0
M  V30 25275 H 2389.51 0.674771 0.320457 0
M  V30 25276 H 2392.17 1.94376 0.142884 0
M  V30 25277 H 2391.26 2.7778 1.42285 0
M  V30 25278 N 2391.57 -0.417818 1.51961 0
M  V30 25279 C 2392.53 -1.49108 1.74067 0
M  V30 25280 C 2393.53 -1.48757 0.610563 0
M  V30 25281 O 2394.72 -1.50435 0.878347 0
M  V30 25282 C 2391.85 -2.88562 1.81507 0
M  V30 25283 H 2393.04 -1.30803 2.69872 0
M  V30 25284 H 2390.6 -0.64776 1.42245 0
M  V30 25285 H 2391.33 -3.12248 0.875868 0
M  V30 25286 H 2391.12 -2.9022 2.63656 0
M  V30 25287 H 2392.61 -3.66383 2.00382 0
M  V30 25288 N 2393.04 -1.42436 -0.674508 0
M  V30 25289 C 2394.29 -1.42214 -1.43032 0
M  V30 25290 C 2394.61 -0.0421131 -1.95555 0
M  V30 25291 O 2395.81 0.0827081 -2.71374 0
M  V30 25292 C 2394.27 -2.50159 -2.58744 0
M  V30 25293 C 2393.88 -3.9417 -2.12918 0
M  V30 25294 C 2395.62 -2.59104 -3.36252 0
M  V30 25295 C 2393.53 -4.93623 -3.25714 0
M  V30 25296 H 2392.46 -0.528948 -0.537336 0
M  V30 25297 H 2395.11 -1.68345 -0.73021 0
M  V30 25298 H 2393.49 -2.17194 -3.31124 0
M  V30 25299 H 2394.66 -4.36491 -1.4769 0
M  V30 25300 H 2392.98 -3.89078 -1.48348 0
M  V30 25301 H 2395.58 -3.30586 -4.20258 0
M  V30 25302 H 2395.92 -1.63468 -3.82863 0
M  V30 25303 H 2396.45 -2.91265 -2.70942 0
M  V30 25304 H 2393.19 -5.90737 -2.84095 0
M  V30 25305 H 2392.71 -4.55933 -3.89724 0
M  V30 25306 H 2394.39 -5.15354 -3.91177 0
M  V30 25307 N 2394.52 0.910841 -1.28614 0
M  V30 25308 C 2395.43 2.04678 -1.14647 0
M  V30 25309 C 2396.45 1.7385 -0.0723427 0
M  V30 25310 O 2397.62 1.99413 -0.282213 0
M  V30 25311 C 2394.69 3.37042 -0.812621 0
M  V30 25312 C 2393.75 3.81461 -1.96941 0
M  V30 25313 C 2392.98 5.07508 -1.6514 0
M  V30 25314 O 2393.21 5.67574 -0.567113 0
M  V30 25315 O 2392.14 5.4771 -2.49594 0
M  V30 25316 H 2395.97 2.19381 -2.10014 0
M  V30 25317 H 2393.55 1.03272 -1.0796 0
M  V30 25318 H 2395.43 4.16504 -0.640515 0
M  V30 25319 H 2394.11 3.23508 0.111369 0
M  V30 25320 H 2393.01 3.02814 -2.19669 0
M  V30 25321 H 2394.35 3.99562 -2.87421 0
M  V30 25322 N 2396 1.10909 1.11969 0
M  V30 25323 C 2397.25 0.852852 1.83224 0
M  V30 25324 C 2397.57 -0.623309 1.8477 0
M  V30 25325 O 2396.84 -1.45267 1.31432 0
M  V30 25326 H 2395.42 0.312519 0.678484 0
M  V30 25327 H 2398.08 1.40036 1.35558 0
M  V30 25328 H 2397.18 1.2201 2.87263 0
M  V30 25329 N 2397.48 -1.29474 0.898573 0
M  V30 25330 C 2398.72 -1.95895 0.524692 0
M  V30 25331 C 2399.06 -1.70677 -0.926438 0
M  V30 25332 O 2398.33 -1.01911 -1.65664 0
M  V30 25333 C 2398.62 -3.50724 0.816391 0
M  V30 25334 C 2398.47 -3.85403 2.31914 0
M  V30 25335 C 2399.79 -4.39062 0.302115 0
M  V30 25336 H 2396.91 -0.711523 0.192103 0
M  V30 25337 H 2399.55 -1.5311 1.12505 0
M  V30 25338 H 2397.7 -3.87297 0.305437 0
M  V30 25339 H 2399.37 -3.58781 2.89955 0
M  V30 25340 H 2397.61 -3.32987 2.78033 0
M  V30 25341 H 2398.28 -4.93464 2.47382 0
M  V30 25342 H 2400.76 -4.09474 0.739623 0
M  V30 25343 H 2399.64 -5.46282 0.535427 0
M  V30 25344 H 2399.9 -4.34854 -0.79714 0
M  V30 25345 N 2398.96 -0.660936 -1.43071 0
M  V30 25346 C 2400.18 -0.183841 -2.06584 0
M  V30 25347 C 2400.61 1.1447 -1.49259 0
M  V30 25348 O 2399.96 1.70888 -0.605558 0
M  V30 25349 C 2400.01 -0.114497 -3.60418 0
M  V30 25350 O 2399.12 0.921067 -4.01983 0
M  V30 25351 H 2398.46 -0.0984109 -0.656667 0
M  V30 25352 H 2400.99 -0.906039 -1.83445 0
M  V30 25353 H 2401 0.0662677 -4.07946 0
M  V30 25354 H 2399.67 -1.08429 -4.01517 0
M  V30 25355 H 2398.25 0.712466 -3.66031 0
M  V30 25356 N 2400.43 1.52351 -0.403352 0
M  V30 25357 C 2401.4 2.25448 0.413011 0
M  V30 25358 C 2402.4 1.27602 0.97849 0
M  V30 25359 O 2403.59 1.51589 0.858278 0
M  V30 25360 C 2400.72 3.02032 1.58081 0
M  V30 25361 H 2401.91 2.99039 -0.227147 0
M  V30 25362 H 2399.47 1.55522 -0.15575 0
M  V30 25363 H 2400.2 2.32776 2.258 0
M  V30 25364 H 2399.99 3.73863 1.18189 0
M  V30 25365 H 2401.48 3.57493 2.15843 0
M  V30 25366 N 2401.91 0.133594 1.57033 0
M  V30 25367 C 2403.16 -0.519814 1.95301 0
M  V30 25368 C 2403.48 -1.66276 1.01869 0
M  V30 25369 O 2402.75 -1.95746 0.0776857 0
M  V30 25370 H 2401.33 -0.195019 0.721094 0
M  V30 25371 H 2403.99 0.205955 1.93809 0
M  V30 25372 H 2403.09 -0.904801 2.98697 0
M  V30 25373 N 2403.39 -1.56975 -0.140195 0
M  V30 25374 C 2404.32 -2.0181 -1.17452 0
M  V30 25375 C 2405.3 -0.898819 -1.44413 0
M  V30 25376 O 2406.49 -1.1671 -1.55218 0
M  V30 25377 C 2403.62 -2.40449 -2.50603 0
M  V30 25378 C 2402.57 -3.55625 -2.38149 0
M  V30 25379 C 2401.9 -3.80098 -3.76072 0
M  V30 25380 C 2403.2 -4.88065 -1.85983 0
M  V30 25381 H 2404.89 -2.88467 -0.801692 0
M  V30 25382 H 2402.44 -1.3878 -0.384196 0
M  V30 25383 H 2404.39 -2.70416 -3.23193 0
M  V30 25384 H 2403.11 -1.50737 -2.89734 0
M  V30 25385 H 2401.77 -3.25834 -1.6801 0
M  V30 25386 H 2401.42 -2.87625 -4.12651 0
M  V30 25387 H 2401.12 -4.57613 -3.68598 0
M  V30 25388 H 2402.64 -4.12496 -4.50199 0
M  V30 25389 H 2404.06 -5.16706 -2.48371 0
M  V30 25390 H 2402.46 -5.69433 -1.89383 0
M  V30 25391 H 2403.53 -4.77986 -0.815938 0
M  V30 25392 N 2404.87 0.409753 -1.5218 0
M  V30 25393 C 2406.12 1.15676 -1.66208 0
M  V30 25394 C 2406.44 1.90515 -0.391707 0
M  V30 25395 O 2405.7 1.85441 0.625297 0
M  V30 25396 C 2406 2.17718 -2.83432 0
M  V30 25397 C 2405.66 1.59691 -4.21675 0
M  V30 25398 C 2404.33 1.43591 -4.59277 0
M  V30 25399 C 2406.68 1.17308 -5.07827 0
M  V30 25400 C 2404.01 0.836226 -5.8071 0
M  V30 25401 C 2406.36 0.58758 -6.29865 0
M  V30 25402 C 2405.02 0.413701 -6.66217 0
M  V30 25403 H 2404.29 0.42329 -0.6082 0
M  V30 25404 H 2406.94 0.444064 -1.8628 0
M  V30 25405 H 2405.24 2.95131 -2.57692 0
M  V30 25406 H 2406.94 2.75389 -2.91482 0
M  V30 25407 H 2403.53 1.73206 -3.92043 0
M  V30 25408 H 2407.71 1.28556 -4.79361 0
M  V30 25409 H 2402.97 0.689519 -6.07499 0
M  V30 25410 H 2407.14 0.250772 -6.95948 0
M  V30 25411 H 2404.77 -0.0530807 -7.60181 0
M  V30 25412 N 2406.35 1.42792 0.666944 0
M  V30 25413 C 2407.28 1.4968 1.79216 0
M  V30 25414 C 2408.26 0.352652 1.66404 0
M  V30 25415 O 2409.44 0.568026 1.85707 0
M  V30 25416 C 2406.57 1.40611 3.17562 0
M  V30 25417 C 2405.53 2.53133 3.45119 0
M  V30 25418 C 2404.85 2.2912 4.83123 0
M  V30 25419 C 2406.15 3.95424 3.41229 0
M  V30 25420 H 2407.85 2.43856 1.73709 0
M  V30 25421 H 2405.39 1.17369 0.834299 0
M  V30 25422 H 2407.35 1.44036 3.9602 0
M  V30 25423 H 2406.07 0.429327 3.23766 0
M  V30 25424 H 2404.73 2.49039 2.69027 0
M  V30 25425 H 2404.38 1.29717 4.85986 0
M  V30 25426 H 2404.08 3.0454 5.02523 0
M  V30 25427 H 2405.6 2.34307 5.63855 0
M  V30 25428 H 2407.01 4.0108 4.09644 0
M  V30 25429 H 2405.41 4.70758 3.72165 0
M  V30 25430 H 2406.48 4.21536 2.39657 0
M  V30 25431 N 2407.82 -0.904008 1.29095 0
M  V30 25432 C 2409.07 -1.64872 1.1619 0
M  V30 25433 C 2409.39 -1.93487 -0.286708 0
M  V30 25434 O 2410.59 -2.66136 -0.537015 0
M  V30 25435 C 2409.05 -2.9706 2.03183 0
M  V30 25436 C 2408.66 -2.76056 3.52841 0
M  V30 25437 C 2410.4 -3.74971 1.98991 0
M  V30 25438 C 2408.31 -4.03945 4.31952 0
M  V30 25439 H 2407.24 -0.618493 0.431257 0
M  V30 25440 H 2409.89 -1.00241 1.53701 0
M  V30 25441 H 2408.27 -3.62881 1.58536 0
M  V30 25442 H 2409.44 -2.18856 4.0551 0
M  V30 25443 H 2407.76 -2.11547 3.5866 0
M  V30 25444 H 2410.36 -4.69783 2.55359 0
M  V30 25445 H 2410.7 -4.04868 0.968886 0
M  V30 25446 H 2411.23 -3.15985 2.41658 0
M  V30 25447 H 2407.97 -3.79215 5.34674 0
M  V30 25448 H 2407.49 -4.6072 3.84053 0
M  V30 25449 H 2409.17 -4.72126 4.42387 0
M  V30 25450 N 2409.3 -1.11501 -1.11379 0
M  V30 25451 C 2410.55 -0.862556 -1.82769 0
M  V30 25452 C 2410.87 0.613501 -1.85098 0
M  V30 25453 O 2410.14 1.44568 -1.32201 0
M  V30 25454 H 2408.72 -0.316112 -0.676817 0
M  V30 25455 H 2411.38 -1.40753 -1.34813 0
M  V30 25456 H 2410.48 -1.23532 -2.86612 0
M  V30 25457 N 2410.78 1.28995 -0.905426 0
M  V30 25458 C 2411.71 2.25772 -0.331999 0
M  V30 25459 C 2412.69 1.52686 0.559073 0
M  V30 25460 O 2413.88 1.81621 0.504598 0
M  V30 25461 C 2411 3.34587 0.526218 0
M  V30 25462 C 2410.05 4.25455 -0.298324 0
M  V30 25463 S 2410.88 5.07807 -1.69977 0
M  V30 25464 C 2412.04 6.2012 -0.848628 0
M  V30 25465 H 2412.27 2.74062 -1.15227 0
M  V30 25466 H 2409.8 1.37307 -0.706136 0
M  V30 25467 H 2411.76 3.97739 1.01558 0
M  V30 25468 H 2410.42 2.84981 1.32079 0
M  V30 25469 H 2409.62 5.0273 0.357519 0
M  V30 25470 H 2409.22 3.66984 -0.721033 0
M  V30 25471 H 2411.51 6.77459 -0.0745516 0
M  V30 25472 H 2412.45 6.89934 -1.59365 0
M  V30 25473 H 2412.86 5.63078 -0.400482 0
M  V30 25474 N 2412.26 0.668514 1.42719 0
M  V30 25475 C 2413.19 0.000141219 2.335 0
M  V30 25476 C 2414.17 -0.795938 1.50329 0
M  V30 25477 O 2415.36 -0.754353 1.7895 0
M  V30 25478 C 2412.49 -0.956243 3.33876 0
M  V30 25479 C 2411.44 -0.269203 4.27153 0
M  V30 25480 C 2410.77 -1.33809 5.17686 0
M  V30 25481 C 2412.07 0.847896 5.15372 0
M  V30 25482 H 2413.76 0.758295 2.89638 0
M  V30 25483 H 2411.31 0.366104 1.39268 0
M  V30 25484 H 2413.26 -1.43285 3.96292 0
M  V30 25485 H 2411.98 -1.74574 2.76028 0
M  V30 25486 H 2410.64 0.187106 3.66122 0
M  V30 25487 H 2410.29 -2.11942 4.56168 0
M  V30 25488 H 2409.99 -0.883557 5.80919 0
M  V30 25489 H 2411.51 -1.81576 5.82977 0
M  V30 25490 H 2412.93 0.452782 5.71509 0
M  V30 25491 H 2411.32 1.22784 5.87405 0
M  V30 25492 H 2412.39 1.69937 4.54147 0
M  V30 25493 N 2413.74 -1.52135 0.411426 0
M  V30 25494 C 2414.98 -2.02137 -0.163852 0
M  V30 25495 C 2415.32 -1.29638 -1.44595 0
M  V30 25496 O 2414.59 -0.403387 -1.90271 0
M  V30 25497 C 2414.87 -3.57767 -0.409208 0
M  V30 25498 C 2414.73 -4.40913 0.889721 0
M  V30 25499 C 2416.05 -4.23697 -1.19035 0
M  V30 25500 H 2413.17 -0.734708 -0.0580766 0
M  V30 25501 H 2415.81 -1.82006 0.545342 0
M  V30 25502 H 2413.96 -3.75052 -1.01333 0
M  V30 25503 H 2415.63 -4.35334 1.52583 0
M  V30 25504 H 2413.87 -4.07034 1.50018 0
M  V30 25505 H 2414.54 -5.47889 0.672411 0
M  V30 25506 H 2417.02 -4.10525 -0.67887 0
M  V30 25507 H 2415.9 -5.32524 -1.33077 0
M  V30 25508 H 2416.16 -3.82807 -2.21159 0
M  V30 25509 N 2415.22 -0.14192 -1.5696 0
M  V30 25510 C 2416.18 0.785549 -2.15318 0
M  V30 25511 C 2417.18 1.17878 -1.09368 0
M  V30 25512 O 2418.37 1.10053 -1.35033 0
M  V30 25513 C 2415.5 2.06532 -2.71214 0
M  V30 25514 H 2416.69 0.277988 -2.98609 0
M  V30 25515 H 2414.25 0.107491 -1.5593 0
M  V30 25516 H 2414.98 2.61667 -1.91575 0
M  V30 25517 H 2414.77 1.79262 -3.48723 0
M  V30 25518 H 2416.26 2.72784 -3.16194 0
M  V30 25519 N 2416.69 1.57047 0.131868 0
M  V30 25520 C 2417.94 1.84442 0.843147 0
M  V30 25521 C 2418.27 0.725781 1.80128 0
M  V30 25522 O 2417.55 -0.269436 1.92625 0
M  V30 25523 C 2417.83 3.22385 1.60437 0
M  V30 25524 C 2417.68 4.44832 0.666704 0
M  V30 25525 C 2419 3.57735 2.56347 0
M  V30 25526 H 2416.12 0.670896 0.305069 0
M  V30 25527 H 2418.76 1.89694 0.107806 0
M  V30 25528 H 2416.91 3.18039 2.23122 0
M  V30 25529 H 2418.59 4.61273 0.0496835 0
M  V30 25530 H 2416.83 4.33794 -0.0226853 0
M  V30 25531 H 2417.5 5.37991 1.23569 0
M  V30 25532 H 2419.98 3.62789 2.03773 0
M  V30 25533 H 2418.85 4.55256 3.06649 0
M  V30 25534 H 2419.11 2.84479 3.38414 0
M  V30 25535 N 2418.17 -0.401677 1.52395 0
M  V30 25536 C 2419.42 -1.14963 1.67067 0
M  V30 25537 C 2419.75 -1.89971 0.403086 0
M  V30 25538 O 2419.03 -1.85055 -0.598741 0
M  V30 25539 C 2419.31 -2.1381 2.89754 0
M  V30 25540 C 2419.16 -1.4265 4.2658 0
M  V30 25541 C 2420.48 -3.14391 3.07971 0
M  V30 25542 H 2417.6 -0.416576 0.607975 0
M  V30 25543 H 2420.24 -0.434478 1.84966 0
M  V30 25544 H 2418.39 -2.74798 2.74624 0
M  V30 25545 H 2420.06 -0.847249 4.53453 0
M  V30 25546 H 2418.31 -0.728415 4.27641 0
M  V30 25547 H 2418.98 -2.14814 5.08487 0
M  V30 25548 H 2421.45 -2.63485 3.22048 0
M  V30 25549 H 2420.33 -3.80812 3.95315 0
M  V30 25550 H 2420.59 -3.82542 2.21618 0
M  V30 25551 N 2419.65 -1.43144 -0.659362 0
M  V30 25552 C 2420.61 -1.47504 -1.75429 0
M  V30 25553 C 2421.61 -0.360539 -1.56706 0
M  V30 25554 O 2422.8 -0.622031 -1.62716 0
M  V30 25555 C 2419.93 -1.32168 -3.14236 0
M  V30 25556 H 2421.13 -2.4501 -1.72946 0
M  V30 25557 H 2418.68 -1.29819 -0.870447 0
M  V30 25558 H 2419.42 -0.356457 -3.22335 0
M  V30 25559 H 2419.2 -2.12954 -3.29231 0
M  V30 25560 H 2420.69 -1.38137 -3.94091 0
M  V30 25561 N 2421.13 0.897149 -1.29572 0
M  V30 25562 C 2422.06 2.01796 -1.17476 0
M  V30 25563 C 2423.04 1.69963 -0.0683529 0
M  V30 25564 O 2424.22 1.92606 -0.248273 0
M  V30 25565 C 2421.35 3.36658 -0.853158 0
M  V30 25566 C 2420.31 3.8271 -1.91617 0
M  V30 25567 C 2419.63 5.14726 -1.44782 0
M  V30 25568 C 2420.93 4.02757 -3.32542 0
M  V30 25569 H 2422.63 2.12174 -2.11241 0
M  V30 25570 H 2420.17 1.01946 -1.01701 0
M  V30 25571 H 2422.13 4.14577 -0.755238 0
M  V30 25572 H 2420.85 3.26379 0.120179 0
M  V30 25573 H 2419.51 3.07009 -2.00352 0
M  V30 25574 H 2419.16 5.00864 -0.463083 0
M  V30 25575 H 2418.86 5.46509 -2.15875 0
M  V30 25576 H 2420.38 5.95183 -1.36345 0
M  V30 25577 H 2421.8 4.71151 -3.26634 0
M  V30 25578 H 2420.19 4.45898 -4.01615 0
M  V30 25579 H 2421.26 3.07009 -3.75331 0
M  V30 25580 N 2422.61 1.1209 1.10786 0
M  V30 25581 C 2423.54 0.807793 2.19082 0
M  V30 25582 C 2424.52 -0.226829 1.68581 0
M  V30 25583 O 2425.7 -0.0888134 1.93997 0
M  V30 25584 C 2422.83 0.257637 3.46343 0
M  V30 25585 C 2421.79 1.22491 4.10098 0
M  V30 25586 C 2421.11 0.535145 5.32015 0
M  V30 25587 C 2422.41 2.57819 4.54232 0
M  V30 25588 H 2424.11 1.71333 2.45531 0
M  V30 25589 H 2421.65 0.825225 1.18009 0
M  V30 25590 H 2423.6 0.0263419 4.21392 0
M  V30 25591 H 2422.33 -0.683222 3.19374 0
M  V30 25592 H 2420.99 1.44195 3.37051 0
M  V30 25593 H 2420.64 -0.410739 5.0132 0
M  V30 25594 H 2420.34 1.18034 5.75623 0
M  V30 25595 H 2421.86 0.312802 6.09798 0
M  V30 25596 H 2423.27 2.40164 5.20571 0
M  V30 25597 H 2421.67 3.18384 5.08676 0
M  V30 25598 H 2422.74 3.16534 3.67334 0
M  V30 25599 N 2424.08 -1.28513 0.912254 0
M  V30 25600 C 2425.33 -1.94322 0.540538 0
M  V30 25601 C 2425.65 -1.72613 -0.920014 0
M  V30 25602 O 2426.85 -2.32631 -1.39982 0
M  V30 25603 C 2425.31 -3.48052 0.915865 0
M  V30 25604 C 2424.92 -3.78542 2.39604 0
M  V30 25605 C 2426.66 -4.20026 0.614662 0
M  V30 25606 C 2424.57 -5.25574 2.71157 0
M  V30 25607 H 2423.5 -0.727421 0.198431 0
M  V30 25608 H 2426.15 -1.46047 1.11097 0
M  V30 25609 H 2424.53 -3.95049 0.274238 0
M  V30 25610 H 2425.7 -3.42358 3.08428 0
M  V30 25611 H 2424.02 -3.19736 2.66755 0
M  V30 25612 H 2426.62 -5.28264 0.827094 0
M  V30 25613 H 2426.96 -4.13888 -0.447458 0
M  V30 25614 H 2427.49 -3.78801 1.21469 0
M  V30 25615 H 2424.23 -5.36788 3.76217 0
M  V30 25616 H 2423.75 -5.6296 2.0697 0
M  V30 25617 H 2425.43 -5.93298 2.58083 0
M  V30 25618 N 2425.56 -0.676073 -1.42362 0
M  V30 25619 C 2426.8 -0.202765 -2.03392 0
M  V30 25620 C 2427.17 1.16903 -1.52308 0
M  V30 25621 O 2428.37 1.73707 -2.05132 0
M  V30 25622 C 2426.64 -0.23701 -3.56613 0
M  V30 25623 S 2428.2 0.165109 -4.38489 0
M  V30 25624 H 2425.02 -0.0832542 -0.706109 0
M  V30 25625 H 2427.62 -0.88951 -1.74092 0
M  V30 25626 H 2426.32 -1.23774 -3.9129 0
M  V30 25627 H 2425.85 0.469527 -3.90588 0
M  V30 25628 H 2427.87 1.39813 -4.76095 0
M  V30 25629 N 2427.04 1.51915 -0.419488 0
M  V30 25630 C 2428.46 1.59443 -0.0708711 0
M  V30 25631 C 2428.66 1.43167 1.41794 0
M  V30 25632 O 2427.71 1.26385 2.18593 0
M  V30 25633 C 2429.03 2.9515 -0.575043 0
M  V30 25634 C 2430.57 3.08413 -0.533921 0
M  V30 25635 C 2431.05 4.46617 -1.01477 0
M  V30 25636 N 2432.54 4.52886 -0.972019 0
M  V30 25637 C 2433.27 5.58114 -1.31515 0
M  V30 25638 N 2432.77 6.70846 -1.73025 0
M  V30 25639 N 2434.56 5.48377 -1.23446 0
M  V30 25640 H 2426.71 1.60741 -1.38839 0
M  V30 25641 H 2428.98 0.756736 -0.571011 0
M  V30 25642 H 2428.68 3.12374 -1.61602 0
M  V30 25643 H 2428.56 3.77199 0.00973147 0
M  V30 25644 H 2430.94 2.90867 0.498035 0
M  V30 25645 H 2431.03 2.28246 -1.15488 0
M  V30 25646 H 2430.67 4.64906 -2.04511 0
M  V30 25647 H 2430.6 5.25295 -0.370526 0
M  V30 25648 H 2433.09 3.71968 -0.666958 0
M  V30 25649 H 2433.4 7.47139 -1.97492 0
M  V30 25650 H 2431.75 6.721 -1.76938 0
M  V30 25651 H 2434.94 4.5919 -0.90895 0
M  V30 25652 H 2435.11 6.30277 -1.50517 0
M  V30 25653 N 2428.52 0.150242 1.56882 0
M  V30 25654 C 2429.45 -0.819249 2.14058 0
M  V30 25655 C 2430.46 -1.20849 1.09084 0
M  V30 25656 O 2431.65 -1.15201 1.36349 0
M  V30 25657 C 2428.75 -2.11122 2.65105 0
M  V30 25658 C 2427.93 -1.88884 3.94515 0
M  V30 25659 C 2426.98 -3.021 4.30839 0
M  V30 25660 O 2426.01 -2.7365 4.99104 0
M  V30 25661 N 2427.21 -4.29356 3.90683 0
M  V30 25662 H 2429.98 -0.330565 2.97871 0
M  V30 25663 H 2427.54 -0.0332254 1.61866 0
M  V30 25664 H 2429.53 -2.85916 2.86416 0
M  V30 25665 H 2428.1 -2.51243 1.85999 0
M  V30 25666 H 2427.32 -0.981085 3.81796 0
M  V30 25667 H 2428.61 -1.71367 4.79073 0
M  V30 25668 H 2428.01 -4.55338 3.35685 0
M  V30 25669 H 2426.56 -5.00921 4.17039 0
M  V30 25670 N 2430 -1.57115 -0.123538 0
M  V30 25671 C 2430.94 -2.00009 -1.15174 0
M  V30 25672 C 2431.91 -0.871479 -1.41402 0
M  V30 25673 O 2433.1 -1.13536 -1.53344 0
M  V30 25674 C 2430.24 -2.40565 -2.47431 0
M  V30 25675 C 2429.35 -3.66823 -2.28178 0
M  V30 25676 C 2428.49 -3.96379 -3.53634 0
M  V30 25677 C 2427.53 -5.15833 -3.29519 0
M  V30 25678 N 2426.66 -5.41283 -4.47166 0
M  V30 25679 H 2431.5 -2.87639 -0.778957 0
M  V30 25680 H 2429.04 -1.42289 -0.373141 0
M  V30 25681 H 2431 -2.62115 -3.24579 0
M  V30 25682 H 2429.63 -1.55983 -2.82611 0
M  V30 25683 H 2428.68 -3.52915 -1.41969 0
M  V30 25684 H 2429.99 -4.54124 -2.06332 0
M  V30 25685 H 2429.15 -4.18553 -4.39202 0
M  V30 25686 H 2427.88 -3.07545 -3.78507 0
M  V30 25687 H 2426.89 -4.93509 -2.42341 0
M  V30 25688 H 2428.11 -6.06241 -3.06021 0
M  V30 25689 H 2426.06 -4.55405 -4.72167 0
M  V30 25690 H 2425.98 -6.22899 -4.28408 0
M  V30 25691 H 2427.25 -5.67972 -5.3388 0
M  V30 25692 N 2431.47 0.393589 -1.52606 0
M  V30 25693 C 2432.72 1.14076 -1.67674 0
M  V30 25694 C 2433.05 1.89754 -0.413155 0
M  V30 25695 O 2432.33 1.8537 0.588919 0
M  V30 25696 C 2432.61 2.12271 -2.90883 0
M  V30 25697 C 2432.46 1.40386 -4.27331 0
M  V30 25698 C 2433.78 3.12754 -3.09634 0
M  V30 25699 H 2430.9 0.413346 -0.610176 0
M  V30 25700 H 2433.54 0.424663 -1.85193 0
M  V30 25701 H 2431.69 2.73338 -2.76078 0
M  V30 25702 H 2433.37 0.82319 -4.53896 0
M  V30 25703 H 2431.61 0.705726 -4.28021 0
M  V30 25704 H 2432.28 2.12114 -5.09619 0
M  V30 25705 H 2434.76 2.61774 -3.2344 0
M  V30 25706 H 2433.63 3.7871 -3.97329 0
M  V30 25707 H 2433.89 3.81361 -2.23643 0
M  V30 25708 N 2432.95 1.43492 0.651762 0
M  V30 25709 C 2434.18 1.48843 1.44431 0
M  V30 25710 C 2434.6 0.107988 1.8779 0
M  V30 25711 O 2433.96 -0.898574 1.57465 0
M  V30 25712 C 2434.01 2.44063 2.65453 0
M  V30 25713 O 2433.11 1.9279 3.64562 0
M  V30 25714 H 2432.45 0.503399 0.432996 0
M  V30 25715 H 2434.98 1.88421 0.797418 0
M  V30 25716 H 2434.99 2.61416 3.1325 0
M  V30 25717 H 2433.67 3.44344 2.33238 0
M  V30 25718 H 2432.25 1.85106 3.23713 0
M  V30 25719 N 2434.43 -0.890264 1.30046 0
M  V30 25720 C 2435.38 -1.98258 1.12595 0
M  V30 25721 C 2436.36 -1.60844 0.0426303 0
M  V30 25722 O 2437.56 -1.74999 0.265377 0
M  V30 25723 C 2434.69 -3.33501 0.814359 0
M  V30 25724 C 2433.77 -3.77246 1.93768 0
M  V30 25725 N 2434.16 -3.93138 3.18239 0
M  V30 25726 C 2432.46 -4.06599 1.83285 0
M  V30 25727 C 2433.16 -4.30156 3.91588 0
M  V30 25728 N 2432.14 -4.39724 3.19599 0
M  V30 25729 H 2435.94 -2.08628 2.07007 0
M  V30 25730 H 2433.45 -1.07972 1.21308 0
M  V30 25731 H 2435.45 -4.11475 0.670362 0
M  V30 25732 H 2434.11 -3.24472 -0.12174 0
M  V30 25733 H 2435.12 -3.78412 3.53588 0
M  V30 25734 H 2431.8 -4.06073 0.970081 0
M  V30 25735 H 2433.19 -4.50218 4.98752 0
M  V30 25736 N 2435.91 -1.12676 -1.1019 0
M  V30 25737 C 2437.16 -0.881893 -1.81844 0
M  V30 25738 C 2437.48 0.593835 -1.85738 0
M  V30 25739 O 2436.75 1.43157 -1.33727 0
M  V30 25740 H 2435.33 -0.323273 -0.673427 0
M  V30 25741 H 2437.99 -1.42175 -1.33313 0
M  V30 25742 H 2437.09 -1.26565 -2.85285 0
M  V30 25743 N 2437.39 1.28028 -0.919057 0
M  V30 25744 C 2438.8 1.47149 -0.617998 0
M  V30 25745 C 2439 1.83375 0.83521 0
M  V30 25746 O 2438.06 1.94194 1.61385 0
M  V30 25747 C 2439.37 2.57042 -1.56045 0
M  V30 25748 C 2440.92 2.70907 -1.56774 0
M  V30 25749 C 2441.39 3.83948 -2.49695 0
M  V30 25750 N 2442.89 3.9131 -2.47852 0
M  V30 25751 C 2443.62 4.78174 -3.16445 0
M  V30 25752 N 2443.12 5.69589 -3.94386 0
M  V30 25753 N 2444.91 4.71829 -3.05506 0
M  V30 25754 H 2437.06 1.02795 -1.85868 0
M  V30 25755 H 2439.32 0.512517 -0.797515 0
M  V30 25756 H 2439.03 2.37195 -2.59675 0
M  V30 25757 H 2438.9 3.54252 -1.29557 0
M  V30 25758 H 2441.29 2.9014 -0.538796 0
M  V30 25759 H 2441.37 1.74211 -1.87308 0
M  V30 25760 H 2441.02 3.65471 -3.52695 0
M  V30 25761 H 2440.95 4.80054 -2.16461 0
M  V30 25762 H 2443.44 3.25938 -1.9124 0
M  V30 25763 H 2443.75 6.3271 -4.43732 0
M  V30 25764 H 2442.09 5.69412 -3.98491 0
M  V30 25765 H 2445.29 3.99406 -2.44115 0
M  V30 25766 H 2445.46 5.39309 -3.59234 0
M  V30 25767 N 2438.86 0.683613 1.42002 0
M  V30 25768 C 2439.77 0.0109488 2.34597 0
M  V30 25769 C 2440.79 -0.779218 1.55577 0
M  V30 25770 O 2441.97 -0.719522 1.88109 0
M  V30 25771 C 2439.03 -0.922529 3.34201 0
M  V30 25772 C 2438.09 -0.125908 4.29115 0
M  V30 25773 C 2437.33 -1.01493 5.23961 0
M  V30 25774 O 2437.55 -2.25447 5.23956 0
M  V30 25775 O 2436.48 -0.471004 6.00054 0
M  V30 25776 H 2440.31 0.773904 2.93674 0
M  V30 25777 H 2437.89 0.443886 1.42653 0
M  V30 25778 H 2439.78 -1.45816 3.95368 0
M  V30 25779 H 2438.45 -1.66518 2.77585 0
M  V30 25780 H 2437.36 0.454034 3.71335 0
M  V30 25781 H 2438.69 0.577822 4.88797 0
M  V30 25782 N 2440.34 -1.5169 0.427538 0
M  V30 25783 C 2441.76 -1.59403 0.0793258 0
M  V30 25784 C 2441.96 -1.43917 -1.41033 0
M  V30 25785 O 2441.02 -1.27543 -2.1792 0
M  V30 25786 C 2442.33 -2.94841 0.590688 0
M  V30 25787 C 2443.88 -3.08125 0.550269 0
M  V30 25788 C 2444.35 -4.46072 1.03844 0
M  V30 25789 N 2445.84 -4.52364 0.996023 0
M  V30 25790 C 2446.58 -5.57409 1.34473 0
M  V30 25791 N 2446.07 -6.69919 1.76581 0
M  V30 25792 N 2447.87 -5.47715 1.26352 0
M  V30 25793 H 2440.02 -1.60002 1.39689 0
M  V30 25794 H 2442.28 -0.753698 0.575016 0
M  V30 25795 H 2441.99 -3.11513 1.63257 0
M  V30 25796 H 2441.86 -3.77199 0.0102724 0
M  V30 25797 H 2444.25 -2.91127 -0.482603 0
M  V30 25798 H 2444.33 -2.2763 1.16697 0
M  V30 25799 H 2443.97 -4.63815 2.06973 0
M  V30 25800 H 2443.9 -5.25091 0.398378 0
M  V30 25801 H 2446.39 -3.71609 0.686675 0
M  V30 25802 H 2446.71 -7.46081 2.01451 0
M  V30 25803 H 2445.05 -6.71152 1.80499 0
M  V30 25804 H 2448.24 -4.58702 0.933289 0
M  V30 25805 H 2448.42 -6.2947 1.53857 0
M  V30 25806 N 2441.82 -0.15856 -1.568 0
M  V30 25807 C 2443.23 0.360334 -1.8319 0
M  V30 25808 C 2443.58 1.63944 -1.07781 0
M  V30 25809 O 2442.71 2.13919 -0.326756 0
M  V30 25810 C 2443.3 0.660537 -3.32299 0
M  V30 25811 C 2441.86 1.12391 -3.59229 0
M  V30 25812 C 2441.01 0.153048 -2.76877 0
M  V30 25813 H 2443.96 -0.383058 -1.54008 0
M  V30 25814 H 2443.98 1.51399 -3.49083 0
M  V30 25815 H 2443.49 -0.270595 -3.87156 0
M  V30 25816 H 2441.59 2.07059 -3.0977 0
M  V30 25817 H 2441.71 1.04189 -4.67634 0
M  V30 25818 H 2440.07 0.64794 -2.46321 0
M  V30 25819 H 2440.85 -0.771879 -3.3451 0
M  V30 25820 N 2443.3 1.57178 0.115204 0
M  V30 25821 C 2444.52 1.89614 0.840321 0
M  V30 25822 C 2444.95 0.750875 1.72463 0
M  V30 25823 O 2444.31 -0.298447 1.78827 0
M  V30 25824 C 2444.36 3.20817 1.64648 0
M  V30 25825 O 2443.46 3.0699 2.75375 0
M  V30 25826 H 2442.8 0.622096 0.232147 0
M  V30 25827 H 2445.33 2.04372 0.0964618 0
M  V30 25828 H 2445.34 3.53631 2.03493 0
M  V30 25829 H 2444.02 4.03765 0.997345 0
M  V30 25830 H 2442.59 2.8565 2.39705 0
M  V30 25831 N 2444.78 -0.38549 1.52813 0
M  V30 25832 C 2445.74 -1.45382 1.77191 0
M  V30 25833 C 2446.74 -1.47429 0.641979 0
M  V30 25834 O 2447.93 -1.48538 0.910059 0
M  V30 25835 C 2445.06 -2.84647 1.87587 0
M  V30 25836 H 2446.26 -1.25049 2.72585 0
M  V30 25837 H 2443.81 -0.617442 1.43587 0
M  V30 25838 H 2444.54 -3.1032 0.941903 0
M  V30 25839 H 2444.33 -2.84562 2.69753 0
M  V30 25840 H 2445.82 -3.6205 2.08109 0
M  V30 25841 N 2446.26 -1.43835 -0.644143 0
M  V30 25842 C 2447.67 -1.27435 -0.960853 0
M  V30 25843 C 2447.87 -0.200653 -2.00498 0
M  V30 25844 O 2446.93 0.417863 -2.49018 0
M  V30 25845 C 2448.24 -2.64169 -1.43649 0
M  V30 25846 C 2449.79 -2.71775 -1.55266 0
M  V30 25847 C 2450.26 -4.08948 -2.06217 0
M  V30 25848 N 2451.75 -4.11059 -2.13506 0
M  V30 25849 C 2452.49 -5.14038 -2.54072 0
M  V30 25850 N 2451.99 -6.27386 -2.93869 0
M  V30 25851 N 2453.78 -5.01392 -2.54092 0
M  V30 25852 H 2445.93 -2.12349 0.0466152 0
M  V30 25853 H 2448.19 -0.94708 -0.0417472 0
M  V30 25854 H 2447.9 -3.43748 -0.743646 0
M  V30 25855 H 2447.77 -2.9018 -2.40988 0
M  V30 25856 H 2450.16 -1.92523 -2.23649 0
M  V30 25857 H 2450.24 -2.4952 -0.563351 0
M  V30 25858 H 2449.88 -4.8867 -1.38433 0
M  V30 25859 H 2449.81 -4.28573 -3.05995 0
M  V30 25860 H 2452.31 -3.29246 -1.85488 0
M  V30 25861 H 2452.62 -7.01786 -3.23598 0
M  V30 25862 H 2450.96 -6.30844 -2.91651 0
M  V30 25863 H 2454.15 -4.11902 -2.22383 0
M  V30 25864 H 2454.33 -5.81773 -2.85383 0
M  V30 25865 N 2447.73 0.883355 -1.30517 0
M  V30 25866 C 2448.66 2.00538 -1.1961 0
M  V30 25867 C 2449.64 1.69881 -0.0863759 0
M  V30 25868 O 2450.83 1.92332 -0.268687 0
M  V30 25869 C 2447.96 3.35734 -0.888817 0
M  V30 25870 C 2446.91 3.80656 -1.95665 0
M  V30 25871 C 2446.24 5.13161 -1.50233 0
M  V30 25872 C 2447.54 3.99207 -3.36795 0
M  V30 25873 H 2449.23 2.09921 -2.13479 0
M  V30 25874 H 2446.78 1.00861 -1.02776 0
M  V30 25875 H 2448.73 4.13753 -0.799167 0
M  V30 25876 H 2447.46 3.26488 0.0855552 0
M  V30 25877 H 2446.12 3.04867 -2.03597 0
M  V30 25878 H 2445.76 5.00344 -0.51618 0
M  V30 25879 H 2445.46 5.44188 -2.21659 0
M  V30 25880 H 2446.99 5.93703 -1.4265 0
M  V30 25881 H 2448.4 4.6766 -3.31613 0
M  V30 25882 H 2446.8 4.41614 -4.06322 0
M  V30 25883 H 2447.87 3.03011 -3.78566 0
M  V30 25884 N 2449.21 1.13259 1.09591 0
M  V30 25885 C 2450.44 0.916765 1.86038 0
M  V30 25886 C 2450.86 -0.529114 1.80505 0
M  V30 25887 O 2450.22 -1.37532 1.1813 0
M  V30 25888 C 2450.27 1.40709 3.32014 0
M  V30 25889 O 2449.37 0.591225 4.0814 0
M  V30 25890 H 2448.71 0.328693 0.576937 0
M  V30 25891 H 2451.24 1.50685 1.38403 0
M  V30 25892 H 2451.25 1.40997 3.82863 0
M  V30 25893 H 2449.93 2.45985 3.35357 0
M  V30 25894 H 2448.5 0.656069 3.67083 0
M  V30 25895 N 2450.69 -1.27539 0.925834 0
M  V30 25896 C 2451.94 -1.93738 0.561118 0
M  V30 25897 C 2452.25 -1.73579 -0.901654 0
M  V30 25898 O 2453.46 -2.34103 -1.37507 0
M  V30 25899 C 2451.91 -3.47061 0.952729 0
M  V30 25900 C 2451.52 -3.75979 2.43606 0
M  V30 25901 C 2453.27 -4.19351 0.659176 0
M  V30 25902 C 2451.17 -5.22668 2.76716 0
M  V30 25903 H 2450.1 -0.725275 0.206135 0
M  V30 25904 H 2452.75 -1.44861 1.12639 0
M  V30 25905 H 2451.14 -3.94736 0.316123 0
M  V30 25906 H 2452.31 -3.39068 3.12041 0
M  V30 25907 H 2450.62 -3.16888 2.70131 0
M  V30 25908 H 2453.22 -5.27357 0.883077 0
M  V30 25909 H 2453.56 -4.1434 -0.403535 0
M  V30 25910 H 2454.1 -3.77491 1.2548 0
M  V30 25911 H 2450.84 -5.32767 3.81889 0
M  V30 25912 H 2450.36 -5.60733 2.12929 0
M  V30 25913 H 2452.04 -5.90527 2.64361 0
M  V30 25914 N 2452.17 -0.691135 -1.41637 0
M  V30 25915 C 2453.58 -0.362252 -1.55435 0
M  V30 25916 C 2453.78 1.13114 -1.66756 0
M  V30 25917 O 2452.84 1.91689 -1.64352 0
M  V30 25918 C 2454.15 -1.10689 -2.79586 0
M  V30 25919 C 2455.7 -1.0908 -2.93378 0
M  V30 25920 C 2456.18 -1.8171 -4.20411 0
M  V30 25921 N 2457.67 -1.78658 -4.27359 0
M  V30 25922 C 2458.4 -2.31698 -5.24503 0
M  V30 25923 N 2457.9 -2.9319 -6.27703 0
M  V30 25924 N 2459.69 -2.21979 -5.16412 0
M  V30 25925 H 2451.84 -1.65978 -1.32533 0
M  V30 25926 H 2454.1 -0.700179 -0.639103 0
M  V30 25927 H 2453.81 -2.1618 -2.77415 0
M  V30 25928 H 2453.68 -0.68261 -3.70972 0
M  V30 25929 H 2456.07 -0.0441757 -2.95067 0
M  V30 25930 H 2456.15 -1.55411 -2.03178 0
M  V30 25931 H 2455.8 -2.8635 -4.19483 0
M  V30 25932 H 2455.73 -1.32817 -5.09575 0
M  V30 25933 H 2458.22 -1.33821 -3.53412 0
M  V30 25934 H 2458.53 -3.31241 -6.98211 0
M  V30 25935 H 2456.88 -2.97266 -6.28218 0
M  V30 25936 H 2460.07 -1.73615 -4.34713 0
M  V30 25937 H 2460.24 -2.63619 -5.91953 0
M  V30 25938 N 2453.65 1.51461 -0.435577 0
M  V30 25939 C 2455.06 1.59358 -0.0877782 0
M  V30 25940 C 2455.26 1.44663 1.40267 0
M  V30 25941 O 2454.32 1.28696 2.17241 0
M  V30 25942 C 2455.63 2.94524 -0.606316 0
M  V30 25943 C 2457.18 3.07829 -0.566602 0
M  V30 25944 C 2457.65 4.45515 -1.06208 0
M  V30 25945 N 2459.14 4.5183 -1.02 0
M  V30 25946 C 2459.88 5.56688 -1.37427 0
M  V30 25947 N 2459.38 6.68973 -1.80131 0
M  V30 25948 N 2461.17 5.47037 -1.29255 0
M  V30 25949 H 2453.32 1.59259 -1.40536 0
M  V30 25950 H 2455.58 0.750638 -0.579005 0
M  V30 25951 H 2455.29 3.10642 -1.64906 0
M  V30 25952 H 2455.16 3.77188 -0.030276 0
M  V30 25953 H 2457.55 2.91379 0.467157 0
M  V30 25954 H 2457.63 2.27008 -1.17902 0
M  V30 25955 H 2457.27 4.62711 -2.0943 0
M  V30 25956 H 2457.2 5.24872 -0.426219 0
M  V30 25957 H 2459.7 3.7124 -0.706373 0
M  V30 25958 H 2460.01 7.45002 -2.05405 0
M  V30 25959 H 2458.35 6.70185 -1.84056 0
M  V30 25960 H 2461.54 4.582 -0.957602 0
M  V30 25961 H 2461.72 6.28645 -1.57193 0
M  V30 25962 N 2455.12 0.166873 1.56714 0
M  V30 25963 C 2456.4 -0.52534 1.88413 0
M  V30 25964 C 2456.78 -1.81616 1.07606 0
M  V30 25965 O 2456.13 -2.27877 0.168661 0
M  V30 25966 C 2456.34 -0.771553 3.40365 0
M  V30 25967 C 2457.69 -1.10353 4.10009 0
M  V30 25968 O 2458.71 -0.860243 3.45656 0
M  V30 25969 O 2457.57 -1.56229 5.23693 0
M  V30 25970 H 2454.66 -0.270265 0.781592 0
M  V30 25971 H 2457.21 0.204976 1.68458 0
M  V30 25972 H 2455.98 0.141162 3.91045 0
M  V30 25973 H 2455.61 -1.55535 3.65916 0
M  V30 25974 N 2456.6 -1.57237 -0.106866 0
M  V30 25975 C 2458.02 -1.52805 -0.460753 0
M  V30 25976 C 2458.22 -0.881778 -1.81182 0
M  V30 25977 O 2457.27 -0.469268 -2.48101 0
M  V30 25978 C 2458.59 -2.9755 -0.434074 0
M  V30 25979 C 2460.14 -3.08705 -0.516767 0
M  V30 25980 C 2460.61 -4.55034 -0.520356 0
M  V30 25981 N 2462.1 -4.59536 -0.581449 0
M  V30 25982 C 2462.84 -5.7019 -0.605872 0
M  V30 25983 N 2462.33 -6.90307 -0.58721 0
M  V30 25984 N 2464.13 -5.58331 -0.649797 0
M  V30 25985 H 2456.28 -1.97629 0.778238 0
M  V30 25986 H 2458.54 -0.903061 0.288418 0
M  V30 25987 H 2458.25 -3.48252 0.491258 0
M  V30 25988 H 2458.12 -3.55625 -1.25742 0
M  V30 25989 H 2460.51 -2.57998 -1.43252 0
M  V30 25990 H 2460.59 -2.53604 0.334494 0
M  V30 25991 H 2460.23 -5.0639 0.391402 0
M  V30 25992 H 2460.16 -5.0796 -1.38867 0
M  V30 25993 H 2462.65 -3.73082 -0.601544 0
M  V30 25994 H 2462.97 -7.70398 -0.608804 0
M  V30 25995 H 2461.31 -6.92785 -0.554442 0
M  V30 25996 H 2464.5 -4.63398 -0.661825 0
M  V30 25997 H 2464.67 -6.44575 -0.665363 0
M  V30 25998 N 2458.08 0.377381 -1.53015 0
M  V30 25999 C 2459.49 0.95477 -1.6044 0
M  V30 26000 C 2459.84 1.90623 -0.464451 0
M  V30 26001 O 2458.97 2.12464 0.410833 0
M  V30 26002 C 2459.56 1.73842 -2.908 0
M  V30 26003 C 2458.12 2.26533 -3.00599 0
M  V30 26004 C 2457.27 1.07425 -2.55647 0
M  V30 26005 H 2460.22 0.156548 -1.57926 0
M  V30 26006 H 2460.24 2.59865 -2.77939 0
M  V30 26007 H 2459.75 1.04567 -3.73748 0
M  V30 26008 H 2457.85 2.99085 -2.22214 0
M  V30 26009 H 2457.97 2.55223 -4.0546 0
M  V30 26010 H 2456.33 1.43773 -2.10241 0
M  V30 26011 H 2457.11 0.396669 -3.41001 0
M  V30 26012 N 2459.56 1.44175 0.636506 0
M  V30 26013 C 2460.49 1.53447 1.76 0
M  V30 26014 C 2461.47 0.38787 1.65619 0
M  V30 26015 O 2462.65 0.607289 1.8446 0
M  V30 26016 C 2459.78 1.47315 3.14508 0
M  V30 26017 C 2458.74 2.60397 3.39673 0
M  V30 26018 C 2458.06 2.39317 4.78154 0
M  V30 26019 C 2459.36 4.02573 3.32765 0
M  V30 26020 H 2461.06 2.47486 1.68497 0
M  V30 26021 H 2458.6 1.19112 0.809216 0
M  V30 26022 H 2460.56 1.52404 3.92875 0
M  V30 26023 H 2459.28 0.497906 3.22782 0
M  V30 26024 H 2457.94 2.54689 2.63684 0
M  V30 26025 H 2457.59 1.39997 4.83125 0
M  V30 26026 H 2457.29 3.1513 4.9595 0
M  V30 26027 H 2458.81 2.46215 5.58758 0
M  V30 26028 H 2460.23 4.09679 4.01044 0
M  V30 26029 H 2458.62 4.78547 3.62096 0
M  V30 26030 H 2459.69 4.26524 2.30662 0
M  V30 26031 N 2461.04 -0.876421 1.30983 0
M  V30 26032 C 2462.26 -1.66713 1.23376 0
M  V30 26033 C 2462.69 -1.87046 -0.198817 0
M  V30 26034 O 2462.04 -1.40758 -1.14267 0
M  V30 26035 C 2462.09 -3.01608 1.97649 0
M  V30 26036 O 2461.2 -3.9106 1.30942 0
M  V30 26037 H 2460.54 -0.509092 0.426288 0
M  V30 26038 H 2463.07 -1.0932 1.72946 0
M  V30 26039 H 2463.08 -3.5159 2.06998 0
M  V30 26040 H 2461.75 -2.86128 3.01834 0
M  V30 26041 H 2460.33 -3.49505 1.30003 0
M  V30 26042 N 2462.51 -1.13839 -1.08989 0
M  V30 26043 C 2463.76 -0.904251 -1.81524 0
M  V30 26044 C 2464.09 0.568033 -1.85707 0
M  V30 26045 O 2463.37 1.42054 -1.32857 0
M  V30 26046 C 2463.65 -1.4984 -3.27444 0
M  V30 26047 C 2463.5 -3.04012 -3.31507 0
M  V30 26048 C 2464.82 -1.17033 -4.24254 0
M  V30 26049 H 2461.94 -0.329935 -0.659024 0
M  V30 26050 H 2464.58 -1.40739 -1.27642 0
M  V30 26051 H 2462.73 -1.07051 -3.7346 0
M  V30 26052 H 2464.41 -3.55589 -2.93861 0
M  V30 26053 H 2462.65 -3.38769 -2.70957 0
M  V30 26054 H 2463.32 -3.40687 -4.34323 0
M  V30 26055 H 2465.8 -1.54016 -3.86547 0
M  V30 26056 H 2464.67 -1.61246 -5.24682 0
M  V30 26057 H 2464.93 -0.0847051 -4.42019 0
M  V30 26058 N 2463.99 1.27046 -0.932584 0
M  V30 26059 C 2464.94 2.24348 -0.406431 0
M  V30 26060 C 2465.93 1.53192 0.492039 0
M  V30 26061 O 2467.12 1.73921 0.328687 0
M  V30 26062 C 2464.25 3.4166 0.335154 0
M  V30 26063 C 2463.33 4.20114 -0.580114 0
M  V30 26064 N 2463.72 4.763 -1.70211 0
M  V30 26065 C 2462.02 4.44343 -0.384053 0
M  V30 26066 C 2462.72 5.35505 -2.27177 0
M  V30 26067 N 2461.7 5.20712 -1.56078 0
M  V30 26068 H 2465.5 2.65376 -1.26304 0
M  V30 26069 H 2463.02 1.42033 -0.787433 0
M  V30 26070 H 2465.01 4.10476 0.72907 0
M  V30 26071 H 2463.67 3.02162 1.18863 0
M  V30 26072 H 2464.68 4.74102 -2.08441 0
M  V30 26073 H 2461.36 4.15297 0.428363 0
M  V30 26074 H 2462.75 5.899 -3.21664 0
M  V30 26075 N 2465.47 0.698636 1.41269 0
M  V30 26076 C 2466.4 0.04967 2.33447 0
M  V30 26077 C 2467.38 -0.763871 1.51984 0
M  V30 26078 O 2468.57 -0.716225 1.8051 0
M  V30 26079 C 2465.7 -0.885208 3.35829 0
M  V30 26080 C 2464.65 -0.178537 4.27627 0
M  V30 26081 C 2463.98 -1.22798 5.20408 0
M  V30 26082 C 2465.28 0.957023 5.13457 0
M  V30 26083 H 2466.97 0.819561 2.87965 0
M  V30 26084 H 2464.52 0.395562 1.3846 0
M  V30 26085 H 2466.47 -1.34847 3.99242 0
M  V30 26086 H 2465.19 -1.6868 2.79669 0
M  V30 26087 H 2463.85 0.264724 3.65643 0
M  V30 26088 H 2463.5 -2.02218 4.60561 0
M  V30 26089 H 2463.2 -0.760136 5.82663 0
M  V30 26090 H 2464.72 -1.69169 5.86698 0
M  V30 26091 H 2466.14 0.573905 5.7042 0
M  V30 26092 H 2464.54 1.35216 5.84668 0
M  V30 26093 H 2465.61 1.79532 4.5044 0
M  V30 26094 N 2466.95 -1.51228 0.443603 0
M  V30 26095 C 2467.9 -2.29492 -0.378999 0
M  V30 26096 C 2468.89 -1.35604 -1.01527 0
M  V30 26097 O 2470.1 -1.52918 -0.949523 0
M  V30 26098 H 2466.47 -0.738655 -0.14104 0
M  V30 26099 H 2468.44 -2.96869 0.301851 0
M  V30 26100 C 2467.19 -3.15367 -1.4642 0
M  V30 26101 H 2466.51 -3.87502 -0.983969 0
M  V30 26102 H 2467.95 -3.73173 -2.0129 0
M  V30 26103 C 2466.41 -2.3115 -2.45095 0
M  V30 26104 O 2466.94 -1.97546 -3.49769 0
M  V30 26105 N 2465.15 -1.94252 -2.16135 0
M  V30 26106 H 2464.7 -2.2178 -1.3104 0
M  V30 26107 H 2464.65 -1.38203 -2.82396 0
M  V30 26108 N 2468.43 -0.175182 -1.56623 0
M  V30 26109 C 2469.36 0.749156 -2.21156 0
M  V30 26110 C 2470.34 1.23624 -1.16838 0
M  V30 26111 O 2471.52 1.2887 -1.4528 0
M  V30 26112 C 2468.65 1.97706 -2.85534 0
M  V30 26113 C 2467.61 1.62568 -3.95924 0
M  V30 26114 C 2466.93 2.92856 -4.4737 0
M  V30 26115 C 2468.23 0.850747 -5.15325 0
M  V30 26116 H 2469.93 0.211242 -2.98654 0
M  V30 26117 H 2467.47 0.100163 -1.43651 0
M  V30 26118 H 2469.43 2.62875 -3.29355 0
M  V30 26119 H 2468.15 2.53918 -2.0541 0
M  V30 26120 H 2466.81 0.997657 -3.52764 0
M  V30 26121 H 2466.46 3.47115 -3.64033 0
M  V30 26122 H 2466.16 2.70097 -5.21844 0
M  V30 26123 H 2467.68 3.59048 -4.9388 0
M  V30 26124 H 2469.09 1.40511 -5.55814 0
M  V30 26125 H 2467.49 0.72205 -5.9574 0
M  V30 26126 H 2468.56 -0.152167 -4.84661 0
M  V30 26127 N 2469.91 1.57292 0.0985263 0
M  V30 26128 C 2471.15 1.85546 0.80106 0
M  V30 26129 C 2471.47 0.763385 1.79436 0
M  V30 26130 O 2470.74 -0.210696 1.94764 0
M  V30 26131 H 2469.32 0.684625 0.298828 0
M  V30 26132 H 2471.99 1.94732 0.0809722 0
M  V30 26133 H 2471.08 2.82166 1.33375 0
M  V30 26134 N 2471.38 -0.369261 1.53213 0
M  V30 26135 C 2472.32 -1.47216 1.7567 0
M  V30 26136 C 2473.33 -1.49803 0.637413 0
M  V30 26137 O 2474.52 -1.53349 0.913588 0
M  V30 26138 C 2471.62 -2.85996 1.81823 0
M  V30 26139 C 2470.79 -3.07148 3.11414 0
M  V30 26140 C 2469.85 -4.26021 3.08857 0
M  V30 26141 O 2468.88 -4.21373 3.82666 0
M  V30 26142 N 2470.08 -5.33242 2.29419 0
M  V30 26143 H 2472.84 -1.28332 2.70834 0
M  V30 26144 H 2470.4 -0.558954 1.51945 0
M  V30 26145 H 2472.4 -3.63651 1.77594 0
M  V30 26146 H 2470.97 -2.98145 0.939597 0
M  V30 26147 H 2470.19 -2.17184 3.28975 0
M  V30 26148 H 2471.47 -3.18147 3.97064 0
M  V30 26149 H 2470.87 -5.3988 1.68956 0
M  V30 26150 H 2469.43 -6.09489 2.31012 0
M  V30 26151 N 2472.86 -1.4451 -0.628851 0
M  V30 26152 C 2473.81 -1.51552 -1.74071 0
M  V30 26153 C 2474.78 -0.363049 -1.62084 0
M  V30 26154 O 2475.96 -0.573599 -1.81974 0
M  V30 26155 C 2473.1 -1.46789 -3.12325 0
M  V30 26156 C 2472.22 -2.72428 -3.35272 0
M  V30 26157 C 2471.35 -2.59483 -4.63511 0
M  V30 26158 C 2470.39 -3.80274 -4.79644 0
M  V30 26159 N 2469.53 -3.65991 -5.99162 0
M  V30 26160 H 2474.37 -2.46547 -1.67388 0
M  V30 26161 H 2471.9 -1.22359 -0.816505 0
M  V30 26162 H 2473.86 -1.42019 -3.92284 0
M  V30 26163 H 2472.49 -0.5536 -3.18017 0
M  V30 26164 H 2471.54 -2.87376 -2.49237 0
M  V30 26165 H 2472.86 -3.62082 -3.43071 0
M  V30 26166 H 2472.01 -2.52558 -5.51633 0
M  V30 26167 H 2470.75 -1.67392 -4.58073 0
M  V30 26168 H 2469.75 -3.87581 -3.8995 0
M  V30 26169 H 2470.98 -4.73404 -4.86894 0
M  V30 26170 H 2468.93 -2.76654 -5.9481 0
M  V30 26171 H 2468.84 -4.49264 -6.08028 0
M  V30 26172 H 2470.11 -3.62962 -6.8984 0
M  V30 26173 N 2474.34 0.869463 -1.31446 0
M  V30 26174 C 2475.59 1.61933 -1.20921 0
M  V30 26175 C 2475.91 1.93607 0.232649 0
M  V30 26176 O 2475.18 1.5834 1.15349 0
M  V30 26177 H 2473.76 0.60032 -0.44455 0
M  V30 26178 H 2476.42 1.04087 -1.64778 0
M  V30 26179 H 2475.52 2.56275 -1.78128 0
M  V30 26180 N 2475.82 1.14415 1.08383 0
M  V30 26181 C 2476.77 0.826926 2.17404 0
M  V30 26182 C 2477.76 -0.195283 1.68271 0
M  V30 26183 O 2478.97 -0.0513575 1.79927 0
M  V30 26184 H 2475.34 0.249693 0.709336 0
M  V30 26185 H 2477.31 1.7543 2.41385 0
M  V30 26186 C 2476.06 0.32104 3.46215 0
M  V30 26187 H 2475.38 1.09897 3.84399 0
M  V30 26188 H 2476.82 0.137624 4.23777 0
M  V30 26189 C 2475.28 -0.955415 3.23069 0
M  V30 26190 O 2475.81 -2.02912 3.46684 0
M  V30 26191 N 2474.02 -0.89075 2.76612 0
M  V30 26192 H 2473.57 -0.0168362 2.57594 0
M  V30 26193 H 2473.52 -1.74537 2.61504 0
M  V30 26194 N 2477.3 -1.26549 0.939309 0
M  V30 26195 C 2478.71 -1.46148 0.64133 0
M  V30 26196 C 2478.91 -1.84681 -0.805931 0
M  V30 26197 O 2477.97 -1.96737 -1.58275 0
M  V30 26198 C 2479.28 -2.54526 1.60115 0
M  V30 26199 C 2480.83 -2.68379 1.61064 0
M  V30 26200 C 2481.3 -3.79927 2.55772 0
M  V30 26201 N 2482.79 -3.87317 2.54046 0
M  V30 26202 C 2483.53 -4.73079 3.24012 0
M  V30 26203 N 2483.03 -5.63242 4.03398 0
M  V30 26204 N 2484.82 -4.66909 3.12974 0
M  V30 26205 H 2476.97 -0.998252 1.8748 0
M  V30 26206 H 2479.23 -0.499764 0.805568 0
M  V30 26207 H 2478.94 -2.33034 2.63416 0
M  V30 26208 H 2478.81 -3.52146 1.35177 0
M  V30 26209 H 2481.2 -2.89246 0.584886 0
M  V30 26210 H 2481.28 -1.71209 1.90056 0
M  V30 26211 H 2480.92 -3.59813 3.58465 0
M  V30 26212 H 2480.85 -4.7655 2.24071 0
M  V30 26213 H 2483.35 -3.22854 1.96401 0
M  V30 26214 H 2483.66 -6.25571 4.53741 0
M  V30 26215 H 2482 -5.63 4.07499 0
M  V30 26216 H 2485.19 -3.95472 2.50439 0
M  V30 26217 H 2485.37 -5.33526 3.67769 0
M  V30 26218 N 2478.77 -0.706118 -1.40896 0
M  V30 26219 C 2479.72 -0.0474879 -2.30751 0
M  V30 26220 C 2480.69 0.760264 -1.47679 0
M  V30 26221 O 2481.88 0.726146 -1.76442 0
M  V30 26222 C 2479.02 0.875251 -3.33816 0
M  V30 26223 C 2478.13 0.0579864 -4.31961 0
M  V30 26224 C 2477.26 0.979333 -5.22094 0
M  V30 26225 C 2476.3 0.155599 -6.11902 0
M  V30 26226 N 2475.44 1.03131 -6.94484 0
M  V30 26227 H 2480.28 -0.819463 -2.86511 0
M  V30 26228 H 2477.82 -0.415808 -1.41101 0
M  V30 26229 H 2479.77 1.42439 -3.92131 0
M  V30 26230 H 2478.4 1.61351 -2.79581 0
M  V30 26231 H 2477.46 -0.608213 -3.75506 0
M  V30 26232 H 2478.77 -0.580169 -4.95414 0
M  V30 26233 H 2477.92 1.59733 -5.85295 0
M  V30 26234 H 2476.66 1.65133 -4.58893 0
M  V30 26235 H 2475.67 -0.475405 -5.47741 0
M  V30 26236 H 2476.89 -0.512754 -6.77161 0
M  V30 26237 H 2474.84 1.68913 -6.3388 0
M  V30 26238 H 2474.75 0.448975 -7.54666 0
M  V30 26239 H 2476.02 1.63579 -7.62143 0
M  V30 26240 N 2480.25 1.50991 -0.451617 0
M  V30 26241 C 2481.48 2.06616 0.108298 0
M  V30 26242 C 2481.89 1.31759 1.35222 0
M  V30 26243 O 2481.25 0.381206 1.78474 0
M  V30 26244 C 2481.3 3.59097 0.416127 0
M  V30 26245 O 2481.02 4.31129 -0.778436 0
M  V30 26246 C 2482.52 4.31284 1.02515 0
M  V30 26247 H 2479.74 0.670998 0.00158816 0
M  V30 26248 H 2482.29 1.94398 -0.634806 0
M  V30 26249 H 2480.44 3.71183 1.10914 0
M  V30 26250 H 2480.86 5.22002 -0.511273 0
M  V30 26251 H 2482.33 5.39011 1.19044 0
M  V30 26252 H 2482.81 3.90504 2.01006 0
M  V30 26253 H 2483.41 4.23678 0.371099 0
M  V30 26254 N 2481.73 0.183486 1.56528 0
M  V30 26255 C 2482.95 -0.467393 2.02065 0
M  V30 26256 C 2483.38 -1.55194 1.06285 0
M  V30 26257 O 2482.74 -1.81246 0.0443883 0
M  V30 26258 C 2482.79 -1.01147 3.46124 0
M  V30 26259 O 2481.89 -2.12493 3.53441 0
M  V30 26260 H 2481.23 -0.110577 0.654728 0
M  V30 26261 H 2483.76 0.290953 2.02521 0
M  V30 26262 H 2483.77 -1.33101 3.85679 0
M  V30 26263 H 2482.45 -0.21746 4.15331 0
M  V30 26264 H 2481.02 -1.81491 3.25754 0
M  V30 26265 N 2483.21 -1.57342 -0.0901833 0
M  V30 26266 C 2484.45 -1.88165 -0.798332 0
M  V30 26267 C 2484.81 -0.775077 -1.7566 0
M  V30 26268 O 2486.01 -0.96586 -2.50848 0
M  V30 26269 C 2484.28 -3.24228 -1.5037 0
M  V30 26270 S 2485.84 -3.76756 -2.24945 0
M  V30 26271 H 2482.66 -0.659419 -0.265872 0
M  V30 26272 H 2485.26 -1.95422 -0.0552296 0
M  V30 26273 H 2483.97 -4.02681 -0.792215 0
M  V30 26274 H 2483.5 -3.20122 -2.28661 0
M  V30 26275 H 2485.51 -3.50566 -3.51167 0
M  V30 26276 N 2484.69 0.36113 -1.53407 0
M  V30 26277 C 2486.1 0.937699 -1.61444 0
M  V30 26278 C 2486.45 1.9012 -0.484643 0
M  V30 26279 O 2485.57 2.12888 0.388275 0
M  V30 26280 C 2486.17 1.70748 -2.92627 0
M  V30 26281 C 2484.73 2.23332 -3.02985 0
M  V30 26282 C 2483.87 1.04707 -2.56772 0
M  V30 26283 H 2486.83 0.139789 -1.58083 0
M  V30 26284 H 2486.85 2.56903 -2.8068 0
M  V30 26285 H 2486.36 1.00597 -3.74836 0
M  V30 26286 H 2484.46 2.96711 -2.25373 0
M  V30 26287 H 2484.57 2.50909 -4.08144 0
M  V30 26288 H 2482.94 1.41535 -2.11754 0
M  V30 26289 H 2483.72 0.360479 -3.41402 0
M  V30 26290 N 2486.16 1.44842 0.621179 0
M  V30 26291 C 2487.41 1.47425 1.37655 0
M  V30 26292 C 2487.73 0.114663 1.95264 0
M  V30 26293 O 2488.93 0.0180676 2.71494 0
M  V30 26294 C 2487.39 2.5959 2.49281 0
M  V30 26295 C 2487 4.018 1.98142 0
M  V30 26296 C 2488.74 2.71405 3.26404 0
M  V30 26297 C 2486.65 5.05372 3.0717 0
M  V30 26298 H 2485.58 0.548527 0.517334 0
M  V30 26299 H 2488.23 1.7094 0.667227 0
M  V30 26300 H 2486.61 2.29333 3.22835 0
M  V30 26301 H 2487.78 4.41672 1.31388 0
M  V30 26302 H 2486.1 3.94316 1.33805 0
M  V30 26303 H 2488.7 3.45956 4.07699 0
M  V30 26304 H 2489.04 1.77565 3.76532 0
M  V30 26305 H 2489.57 3.0112 2.59945 0
M  V30 26306 H 2486.31 6.00874 2.61975 0
M  V30 26307 H 2485.83 4.70084 3.72534 0
M  V30 26308 H 2487.51 5.29517 3.7178 0
M  V30 26309 N 2487.64 -0.862479 1.31905 0
M  V30 26310 C 2488.59 -1.97038 1.20186 0
M  V30 26311 C 2489.56 -1.65878 0.0858539 0
M  V30 26312 O 2490.74 -1.8902 0.260033 0
M  V30 26313 C 2487.88 -3.32532 0.922855 0
M  V30 26314 C 2487 -3.7624 2.1229 0
M  V30 26315 C 2486.13 -5.00487 1.78005 0
M  V30 26316 C 2485.17 -5.36665 2.94375 0
M  V30 26317 N 2484.31 -6.52091 2.60235 0
M  V30 26318 H 2489.15 -2.06394 2.14954 0
M  V30 26319 H 2486.69 -1.01029 1.06918 0
M  V30 26320 H 2488.64 -4.10556 0.74162 0
M  V30 26321 H 2487.27 -3.22798 0.0119794 0
M  V30 26322 H 2486.33 -2.93935 2.41467 0
M  V30 26323 H 2487.64 -3.98977 2.99364 0
M  V30 26324 H 2486.79 -5.86198 1.56388 0
M  V30 26325 H 2485.53 -4.7967 0.881336 0
M  V30 26326 H 2484.54 -4.49471 3.16633 0
M  V30 26327 H 2485.76 -5.59444 3.84967 0
M  V30 26328 H 2483.71 -6.32806 1.72896 0
M  V30 26329 H 2483.62 -6.74808 3.40838 0
M  V30 26330 H 2484.89 -7.40974 2.42029 0
M  V30 26331 N 2489.12 -1.14988 -1.07775 0
M  V30 26332 C 2490.37 -0.916649 -1.79668 0
M  V30 26333 C 2490.68 0.557884 -1.87475 0
M  V30 26334 O 2491.89 0.908572 -2.55846 0
M  V30 26335 C 2490.34 -1.59057 -3.22845 0
M  V30 26336 C 2489.95 -3.10181 -3.23251 0
M  V30 26337 C 2491.7 -1.43871 -3.99376 0
M  V30 26338 C 2489.6 -3.7038 -4.61056 0
M  V30 26339 H 2488.53 -0.339301 -0.673343 0
M  V30 26340 H 2491.18 -1.37953 -1.21001 0
M  V30 26341 H 2489.57 -1.05537 -3.81678 0
M  V30 26342 H 2490.74 -3.70422 -2.74088 0
M  V30 26343 H 2489.06 -3.25079 -2.60217 0
M  V30 26344 H 2491.65 -1.86241 -5.01217 0
M  V30 26345 H 2492 -0.385637 -4.1451 0
M  V30 26346 H 2492.53 -1.94463 -3.47029 0
M  V30 26347 H 2489.27 -4.75568 -4.51126 0
M  V30 26348 H 2488.79 -3.14922 -5.10475 0
M  V30 26349 H 2490.47 -3.71052 -5.30028 0
M  V30 26350 N 2490.6 1.26049 -0.946007 0
M  V30 26351 C 2491.55 2.282 -0.450299 0
M  V30 26352 C 2492.54 1.62606 0.474941 0
M  V30 26353 O 2493.75 1.76512 0.352622 0
M  V30 26354 H 2490.12 0.741182 -0.127095 0
M  V30 26355 H 2492.09 2.67405 -1.32427 0
M  V30 26356 C 2490.84 3.46692 0.264609 0
M  V30 26357 H 2490.16 3.97391 -0.438193 0
M  V30 26358 H 2491.6 4.20075 0.575604 0
M  V30 26359 C 2490.06 3.0245 1.48411 0
M  V30 26360 O 2490.59 3.07709 2.58221 0
M  V30 26361 N 2488.8 2.57737 1.34238 0
M  V30 26362 H 2488.35 2.53658 0.44895 0
M  V30 26363 H 2488.3 2.28499 2.15953 0
M  V30 26364 N 2492.08 0.71358 1.4052 0
M  V30 26365 C 2493.01 0.0203529 2.29191 0
M  V30 26366 C 2494.02 -0.725838 1.45724 0
M  V30 26367 O 2495.21 -0.573551 1.69034 0
M  V30 26368 C 2492.31 -0.995429 3.23951 0
M  V30 26369 C 2491.48 -0.315179 4.36263 0
M  V30 26370 C 2490.54 -1.23607 5.11476 0
M  V30 26371 O 2489.57 -0.721619 5.64607 0
M  V30 26372 N 2490.77 -2.56733 5.20642 0
M  V30 26373 H 2493.54 0.781702 2.89326 0
M  V30 26374 H 2491.1 0.561048 1.51868 0
M  V30 26375 H 2493.09 -1.61362 3.71139 0
M  V30 26376 H 2491.66 -1.65816 2.64998 0
M  V30 26377 H 2490.88 0.483175 3.91228 0
M  V30 26378 H 2492.17 0.157093 5.08557 0
M  V30 26379 H 2491.56 -3.01029 4.78955 0
M  V30 26380 H 2490.12 -3.13701 5.71345 0
M  V30 26381 N 2493.55 -1.50749 0.459618 0
M  V30 26382 C 2494.8 -2.02256 -0.0993139 0
M  V30 26383 C 2495.13 -1.34239 -1.40748 0
M  V30 26384 O 2494.38 -0.453261 -1.90379 0
M  V30 26385 C 2494.68 -3.55752 -0.342803 0
M  V30 26386 C 2494.35 -4.42184 0.882257 0
M  V30 26387 C 2493.01 -4.65526 1.21816 0
M  V30 26388 C 2495.36 -4.92749 1.69846 0
M  V30 26389 C 2492.69 -5.36677 2.37054 0
M  V30 26390 C 2495.04 -5.65166 2.84202 0
M  V30 26391 C 2493.71 -5.86764 3.1822 0
M  V30 26392 H 2492.98 -0.740108 -0.0363415 0
M  V30 26393 H 2495.62 -1.81479 0.611361 0
M  V30 26394 H 2493.93 -3.74982 -1.13561 0
M  V30 26395 H 2495.63 -3.9316 -0.789052 0
M  V30 26396 H 2492.22 -4.24229 0.610542 0
M  V30 26397 H 2496.4 -4.74581 1.45213 0
M  V30 26398 H 2491.66 -5.51609 2.63699 0
M  V30 26399 H 2495.83 -6.03331 3.478 0
M  V30 26400 H 2493.46 -6.41675 4.07624 0
M  V30 26401 N 2495.03 -0.191784 -1.56429 0
M  V30 26402 C 2495.94 0.742442 -2.22542 0
M  V30 26403 C 2496.96 1.23725 -1.22345 0
M  V30 26404 O 2498.13 1.2851 -1.55071 0
M  V30 26405 C 2495.2 1.94617 -2.86923 0
M  V30 26406 C 2494.26 1.49626 -4.02381 0
M  V30 26407 C 2493.49 2.64261 -4.63683 0
M  V30 26408 O 2493.72 3.81659 -4.23902 0
M  V30 26409 O 2492.65 2.37164 -5.53206 0
M  V30 26410 H 2496.48 0.209409 -3.02977 0
M  V30 26411 H 2494.06 0.037357 -1.49353 0
M  V30 26412 H 2495.94 2.64976 -3.27667 0
M  V30 26413 H 2494.62 2.46787 -2.0947 0
M  V30 26414 H 2493.53 0.761571 -3.66266 0
M  V30 26415 H 2494.86 1.02126 -4.81488 0
M  V30 26416 N 2496.51 1.57387 0.0818378 0
M  V30 26417 C 2497.76 1.86386 0.781335 0
M  V30 26418 C 2498.08 0.782374 1.78617 0
M  V30 26419 O 2497.35 -0.190027 1.94976 0
M  V30 26420 H 2495.93 0.687756 0.29155 0
M  V30 26421 H 2498.59 1.94807 0.0603137 0
M  V30 26422 H 2497.69 2.83564 1.30375 0
M  V30 26423 N 2497.99 -0.35299 1.53596 0
M  V30 26424 C 2498.94 -1.43346 1.77302 0
M  V30 26425 C 2499.92 -1.48142 0.62791 0
M  V30 26426 O 2501.11 -1.53171 0.886996 0
M  V30 26427 C 2498.24 -2.80616 1.97762 0
M  V30 26428 C 2497.33 -2.80249 3.1831 0
M  V30 26429 N 2497.72 -2.49518 4.39971 0
M  V30 26430 C 2496.02 -3.11402 3.19288 0
M  V30 26431 C 2496.72 -2.57147 5.21776 0
M  V30 26432 N 2495.7 -2.9238 4.58274 0
M  V30 26433 H 2499.5 -1.18469 2.68965 0
M  V30 26434 H 2497.01 -0.56128 1.52392 0
M  V30 26435 H 2499.01 -3.58454 2.12876 0
M  V30 26436 H 2497.67 -3.06446 1.07334 0
M  V30 26437 H 2498.68 -2.22885 4.67486 0
M  V30 26438 H 2495.36 -3.42466 2.38796 0
M  V30 26439 H 2496.75 -2.36627 6.28854 0
M  V30 26440 N 2499.47 -1.45169 -0.613489 0
M  V30 26441 C 2500.71 -1.48878 -1.37265 0
M  V30 26442 C 2501.04 -0.128195 -1.94077 0
M  V30 26443 O 2500.3 0.872385 -1.7518 0
M  V30 26444 C 2500.6 -2.51087 -2.54342 0
M  V30 26445 C 2500.26 -3.95953 -2.15713 0
M  V30 26446 C 2498.92 -4.354 -2.04892 0
M  V30 26447 C 2501.28 -4.87081 -1.85476 0
M  V30 26448 C 2498.6 -5.63877 -1.62047 0
M  V30 26449 C 2500.96 -6.15965 -1.44119 0
M  V30 26450 C 2499.62 -6.54348 -1.31852 0
M  V30 26451 H 2498.89 -0.544781 -0.502289 0
M  V30 26452 H 2501.54 -1.78483 -0.69399 0
M  V30 26453 H 2499.84 -2.1503 -3.2752 0
M  V30 26454 H 2501.54 -2.51196 -3.12572 0
M  V30 26455 H 2498.13 -3.64755 -2.2506 0
M  V30 26456 H 2502.31 -4.57347 -1.92737 0
M  V30 26457 H 2497.57 -5.92418 -1.51167 0
M  V30 26458 H 2501.74 -6.86024 -1.19766 0
M  V30 26459 H 2499.37 -7.53801 -0.98426 0
M  V30 26460 N 2500.95 0.855472 -1.32361 0
M  V30 26461 C 2501.88 1.96775 -1.15562 0
M  V30 26462 C 2502.86 1.62506 -0.0552967 0
M  V30 26463 O 2504.04 1.87276 -0.214452 0
M  V30 26464 C 2501.17 3.29857 -0.768909 0
M  V30 26465 C 2500.21 3.83106 -1.87436 0
M  V30 26466 S 2501.05 4.06795 -3.4825 0
M  V30 26467 C 2502.2 5.42852 -3.11548 0
M  V30 26468 H 2502.44 2.10723 -2.09721 0
M  V30 26469 H 2499.97 1.00735 -1.17012 0
M  V30 26470 H 2501.93 4.06764 -0.552552 0
M  V30 26471 H 2500.59 3.13723 0.153802 0
M  V30 26472 H 2499.78 4.79355 -1.55675 0
M  V30 26473 H 2499.38 3.13039 -2.04653 0
M  V30 26474 H 2501.67 6.25065 -2.61342 0
M  V30 26475 H 2502.62 5.79574 -4.06816 0
M  V30 26476 H 2503.03 5.06816 -2.48591 0
M  V30 26477 N 2502.42 1.15558 1.07164 0
M  V30 26478 C 2503.37 0.854092 2.14415 0
M  V30 26479 C 2504.34 -0.193777 1.64966 0
M  V30 26480 O 2505.53 -0.0609108 1.90703 0
M  V30 26481 C 2502.67 0.351635 3.43304 0
M  V30 26482 C 2501.78 1.4613 4.06534 0
M  V30 26483 C 2500.91 0.914769 5.23264 0
M  V30 26484 C 2499.95 2.00124 5.78461 0
M  V30 26485 N 2499.09 1.47095 6.86518 0
M  V30 26486 H 2503.93 1.77263 2.39545 0
M  V30 26487 H 2501.47 0.884446 1.17541 0
M  V30 26488 H 2503.42 0.0420143 4.17179 0
M  V30 26489 H 2502.05 -0.529981 3.1842 0
M  V30 26490 H 2501.11 1.88706 3.30294 0
M  V30 26491 H 2502.42 2.28152 4.43563 0
M  V30 26492 H 2501.57 0.557804 6.0413 0
M  V30 26493 H 2500.31 0.063744 4.87658 0
M  V30 26494 H 2499.32 2.36701 4.96239 0
M  V30 26495 H 2500.54 2.85607 6.16121 0
M  V30 26496 H 2498.49 0.642313 6.52848 0
M  V30 26497 H 2498.4 2.22742 7.22442 0
M  V30 26498 H 2499.67 1.14229 7.71085 0
M  V30 26499 N 2503.9 -1.25546 0.952678 0
M  V30 26500 C 2504.83 -2.28315 0.489327 0
M  V30 26501 C 2505.81 -1.63668 -0.46333 0
M  V30 26502 O 2507 -1.90783 -0.362707 0
M  V30 26503 C 2504.13 -3.465 -0.235542 0
M  V30 26504 C 2503.08 -4.23313 0.631668 0
M  V30 26505 C 2502.41 -5.34231 -0.223829 0
M  V30 26506 C 2503.71 -4.86171 1.9088 0
M  V30 26507 H 2505.4 -2.67324 1.34827 0
M  V30 26508 H 2502.95 -1.28508 0.64975 0
M  V30 26509 H 2504.9 -4.17516 -0.570809 0
M  V30 26510 H 2503.62 -3.06476 -1.12871 0
M  V30 26511 H 2502.28 -3.54077 0.949991 0
M  V30 26512 H 2501.93 -4.90448 -1.1167 0
M  V30 26513 H 2501.63 -5.86538 0.353094 0
M  V30 26514 H 2503.16 -6.08081 -0.554107 0
M  V30 26515 H 2504.57 -5.4934 1.64006 0
M  V30 26516 H 2502.97 -5.48645 2.43122 0
M  V30 26517 H 2504.04 -4.08466 2.61311 0
M  V30 26518 N 2505.38 -0.721022 -1.40139 0
M  V30 26519 C 2506.31 -0.0325072 -2.29177 0
M  V30 26520 C 2507.32 0.7181 -1.46107 0
M  V30 26521 O 2508.51 0.564578 -1.69336 0
M  V30 26522 C 2505.61 0.978235 -3.24475 0
M  V30 26523 C 2504.79 0.292039 -4.36424 0
M  V30 26524 C 2503.85 1.20892 -5.12124 0
M  V30 26525 O 2502.87 0.691667 -5.64982 0
M  V30 26526 N 2504.07 2.53969 -5.21996 0
M  V30 26527 H 2506.84 -0.797035 -2.88907 0
M  V30 26528 H 2504.4 -0.569094 -1.51568 0
M  V30 26529 H 2506.39 1.59391 -3.7199 0
M  V30 26530 H 2504.96 1.64408 -2.65874 0
M  V30 26531 H 2504.18 -0.503916 -3.90966 0
M  V30 26532 H 2505.47 -0.184061 -5.08467 0
M  V30 26533 H 2504.87 2.98484 -4.80545 0
M  V30 26534 H 2503.42 3.10667 -5.73 0
M  V30 26535 N 2506.86 1.50503 -0.467606 0
M  V30 26536 C 2507.82 2.26997 0.317019 0
M  V30 26537 C 2508.82 1.31637 0.92349 0
M  V30 26538 O 2510.01 1.55093 0.793212 0
M  V30 26539 C 2507.14 3.08465 1.45129 0
M  V30 26540 H 2508.34 2.97806 -0.353775 0
M  V30 26541 H 2505.89 1.54722 -0.221572 0
M  V30 26542 H 2506.62 2.42144 2.15724 0
M  V30 26543 H 2506.41 3.7854 1.02225 0
M  V30 26544 H 2507.9 3.66326 2.00487 0
M  V30 26545 N 2508.34 0.200077 1.56325 0
M  V30 26546 C 2509.61 -0.485256 1.89485 0
M  V30 26547 C 2509.99 -1.79292 1.11434 0
M  V30 26548 O 2509.34 -2.27468 0.216959 0
M  V30 26549 C 2509.55 -0.699183 3.41925 0
M  V30 26550 C 2510.9 -1.01631 4.12258 0
M  V30 26551 O 2511.92 -0.786731 3.47403 0
M  V30 26552 O 2510.78 -1.45086 5.26889 0
M  V30 26553 H 2507.88 -0.253625 0.787149 0
M  V30 26554 H 2510.42 0.240662 1.67985 0
M  V30 26555 H 2509.19 0.224077 3.90658 0
M  V30 26556 H 2508.82 -1.47738 3.69133 0
M  V30 26557 N 2509.81 -1.57429 -0.0734901 0
M  V30 26558 C 2511.04 -1.91775 -0.789753 0
M  V30 26559 C 2511.46 -0.796336 -1.70412 0
M  V30 26560 O 2510.82 0.250929 -1.79555 0
M  V30 26561 C 2510.87 -3.25069 -1.56084 0
M  V30 26562 O 2509.97 -3.14183 -2.67138 0
M  V30 26563 H 2509.31 -0.628033 -0.215571 0
M  V30 26564 H 2511.84 -2.04556 -0.0422421 0
M  V30 26565 H 2511.85 -3.58902 -1.94045 0
M  V30 26566 H 2510.53 -4.06267 -0.889943 0
M  V30 26567 H 2509.11 -2.91905 -2.32047 0
M  V30 26568 N 2511.29 0.344839 -1.53781 0
M  V30 26569 C 2512.24 1.44367 -1.82376 0
M  V30 26570 C 2513.23 1.54525 -0.694155 0
M  V30 26571 O 2514.44 1.57164 -0.87747 0
M  V30 26572 H 2510.81 0.481334 -0.577773 0
M  V30 26573 H 2512.79 1.17463 -2.74308 0
M  V30 26574 C 2511.53 2.80909 -2.04903 0
M  V30 26575 H 2510.86 2.73859 -2.91275 0
M  V30 26576 H 2512.3 3.56919 -2.28877 0
M  V30 26577 C 2510.76 3.2641 -0.834173 0
M  V30 26578 O 2511.29 4.01686 -0.0329591 0
M  V30 26579 N 2509.49 2.83197 -0.65176 0
M  V30 26580 H 2509.04 2.22102 -1.30493 0
M  V30 26581 H 2509 3.13994 0.159631 0
M  V30 26582 N 2512.77 1.45492 0.605781 0
M  V30 26583 C 2514 1.52911 1.38931 0
M  V30 26584 C 2514.41 0.161119 1.88513 0
M  V30 26585 O 2513.75 -0.847863 1.62963 0
M  V30 26586 C 2513.81 2.45381 2.62733 0
M  V30 26587 C 2513.48 3.92082 2.34778 0
M  V30 26588 C 2514.47 4.81933 1.95029 0
M  V30 26589 C 2512.16 4.37016 2.47634 0
M  V30 26590 C 2514.15 6.14725 1.685 0
M  V30 26591 C 2511.84 5.69848 2.20718 0
M  V30 26592 C 2512.84 6.58522 1.81213 0
M  V30 26593 O 2512.53 7.88892 1.54613 0
M  V30 26594 H 2512.26 0.52027 0.431619 0
M  V30 26595 H 2514.81 1.91386 0.745697 0
M  V30 26596 H 2513.04 2.0188 3.2982 0
M  V30 26597 H 2514.73 2.43462 3.24778 0
M  V30 26598 H 2515.5 4.48482 1.84631 0
M  V30 26599 H 2511.38 3.68237 2.7735 0
M  V30 26600 H 2514.92 6.83897 1.3759 0
M  V30 26601 H 2510.82 6.02854 2.30733 0
M  V30 26602 H 2511.58 8.00936 1.68651 0
M  V30 26603 N 2514.25 -0.848441 1.32813 0
M  V30 26604 C 2515.18 -1.97297 1.24885 0
M  V30 26605 C 2516.16 -1.69592 0.131386 0
M  V30 26606 O 2517.34 -1.91552 0.319586 0
M  V30 26607 C 2514.47 -3.33259 0.977518 0
M  V30 26608 C 2513.43 -3.75335 2.05689 0
M  V30 26609 C 2512.75 -5.08997 1.63786 0
M  V30 26610 C 2514.05 -3.90137 3.47261 0
M  V30 26611 H 2515.75 -2.04187 2.1897 0
M  V30 26612 H 2513.29 -0.98101 1.05414 0
M  V30 26613 H 2515.25 -4.11488 0.908585 0
M  V30 26614 H 2513.97 -3.266 0.00103742 0
M  V30 26615 H 2512.63 -2.99362 2.11608 0
M  V30 26616 H 2512.28 -4.988 0.648656 0
M  V30 26617 H 2511.98 -5.3812 2.36009 0
M  V30 26618 H 2513.5 -5.89712 1.58341 0
M  V30 26619 H 2514.92 -4.58703 3.43896 0
M  V30 26620 H 2513.31 -4.30685 4.17888 0
M  V30 26621 H 2514.38 -2.92867 3.86467 0
M  V30 26622 N 2515.73 -1.16125 -1.06549 0
M  V30 26623 C 2516.66 -0.888548 -2.15933 0
M  V30 26624 C 2517.64 0.164105 -1.69307 0
M  V30 26625 O 2518.82 0.0167515 -1.94193 0
M  V30 26626 C 2515.95 -0.386003 -3.45148 0
M  V30 26627 C 2514.91 -1.37627 -4.05269 0
M  V30 26628 C 2514.23 -0.73223 -5.29663 0
M  V30 26629 C 2515.53 -2.745 -4.4435 0
M  V30 26630 H 2517.23 -1.80327 -2.39003 0
M  V30 26631 H 2514.77 -0.868455 -1.14865 0
M  V30 26632 H 2516.73 -0.182721 -4.21004 0
M  V30 26633 H 2515.45 0.564218 -3.2169 0
M  V30 26634 H 2514.11 -1.56605 -3.31467 0
M  V30 26635 H 2513.76 0.224394 -5.02499 0
M  V30 26636 H 2513.46 -1.39317 -5.70846 0
M  V30 26637 H 2514.98 -0.538909 -6.08217 0
M  V30 26638 H 2516.39 -2.5932 -5.11299 0
M  V30 26639 H 2514.79 -3.37044 -4.96509 0
M  V30 26640 H 2515.86 -3.29949 -3.55333 0
M  V30 26641 N 2517.2 1.25039 -0.959323 0
M  V30 26642 C 2518.43 1.97487 -0.633541 0
M  V30 26643 C 2518.85 1.70774 0.788525 0
M  V30 26644 O 2518.21 0.966458 1.53393 0
M  V30 26645 C 2518.26 3.49082 -0.904119 0
M  V30 26646 O 2517.36 4.12397 0.0147214 0
M  V30 26647 H 2516.71 0.618962 -0.240379 0
M  V30 26648 H 2519.24 1.59036 -1.28719 0
M  V30 26649 H 2519.25 3.99421 -0.832273 0
M  V30 26650 H 2517.92 3.67853 -1.94054 0
M  V30 26651 H 2516.5 3.72739 -0.10973 0
M  V30 26652 N 2518.68 0.728444 1.39755 0
M  V30 26653 C 2519.63 0.0841924 2.30646 0
M  V30 26654 C 2520.6 -0.736673 1.4887 0
M  V30 26655 O 2521.78 -0.697984 1.77575 0
M  V30 26656 C 2518.92 -0.822033 3.35167 0
M  V30 26657 C 2518.04 0.0107422 4.31999 0
M  V30 26658 C 2517.17 -0.896149 5.23586 0
M  V30 26659 C 2516.21 -0.0582305 6.12072 0
M  V30 26660 N 2515.35 -0.920696 6.96037 0
M  V30 26661 H 2520.19 0.864941 2.85171 0
M  V30 26662 H 2517.73 0.438203 1.40421 0
M  V30 26663 H 2519.68 -1.36182 3.94348 0
M  V30 26664 H 2518.31 -1.56883 2.82113 0
M  V30 26665 H 2517.37 0.667875 3.74491 0
M  V30 26666 H 2518.68 0.658912 4.94429 0
M  V30 26667 H 2517.83 -1.50402 5.87762 0
M  V30 26668 H 2516.57 -1.57811 4.61462 0
M  V30 26669 H 2515.58 0.562486 5.46915 0
M  V30 26670 H 2516.8 0.620419 6.7626 0
M  V30 26671 H 2514.75 -1.58807 6.36487 0
M  V30 26672 H 2514.66 -0.328857 7.55284 0
M  V30 26673 H 2515.93 -1.51434 7.64649 0
M  V30 26674 N 2520.16 -1.50253 0.475581 0
M  V30 26675 C 2521.07 -2.32387 -0.32146 0
M  V30 26676 C 2522.09 -1.42971 -0.99173 0
M  V30 26677 O 2523.26 -1.7602 -0.978716 0
M  V30 26678 C 2520.33 -3.17764 -1.38661 0
M  V30 26679 C 2519.39 -4.23005 -0.732464 0
M  V30 26680 C 2518.62 -5.04302 -1.74686 0
M  V30 26681 O 2518.84 -4.86739 -2.9739 0
M  V30 26682 O 2517.78 -5.87333 -1.31621 0
M  V30 26683 H 2521.6 -3.01675 0.350124 0
M  V30 26684 H 2519.19 -1.47503 0.237347 0
M  V30 26685 H 2521.07 -3.70727 -2.00348 0
M  V30 26686 H 2519.75 -2.51199 -2.04158 0
M  V30 26687 H 2518.65 -3.74022 -0.0765245 0
M  V30 26688 H 2519.99 -4.92053 -0.120366 0
M  V30 26689 N 2521.64 -0.208365 -1.56217 0
M  V30 26690 C 2522.87 0.431488 -2.02044 0
M  V30 26691 C 2523.28 1.54817 -1.08758 0
M  V30 26692 O 2522.62 1.83494 -0.0870331 0
M  V30 26693 C 2522.68 1.03627 -3.44241 0
M  V30 26694 C 2522.35 0.0566699 -4.56965 0
M  V30 26695 C 2523.34 -0.738864 -5.14623 0
M  V30 26696 C 2521.03 -0.0582619 -5.02266 0
M  V30 26697 C 2523.02 -1.63616 -6.16043 0
M  V30 26698 C 2520.71 -0.959107 -6.03527 0
M  V30 26699 C 2521.71 -1.74661 -6.6029 0
M  V30 26700 O 2521.39 -2.63234 -7.59581 0
M  V30 26701 H 2521.13 0.111302 -0.666774 0
M  V30 26702 H 2523.68 -0.318313 -2.02919 0
M  V30 26703 H 2521.91 1.83491 -3.40394 0
M  V30 26704 H 2523.6 1.58215 -3.73795 0
M  V30 26705 H 2524.37 -0.660448 -4.80482 0
M  V30 26706 H 2520.24 0.544553 -4.57772 0
M  V30 26707 H 2523.79 -2.25128 -6.60275 0
M  V30 26708 H 2519.69 -1.03859 -6.3709 0
M  V30 26709 H 2520.45 -2.57161 -7.77052 0
M  V30 26710 N 2523.12 1.57465 0.0651402 0
M  V30 26711 C 2524.03 2.07507 1.09444 0
M  V30 26712 C 2525.04 1.00597 1.41973 0
M  V30 26713 O 2526.22 1.3211 1.52016 0
M  V30 26714 C 2523.28 2.51457 2.38684 0
M  V30 26715 C 2522.34 3.72695 2.13066 0
M  V30 26716 C 2521.58 4.14539 3.36144 0
M  V30 26717 O 2521.8 3.56197 4.45511 0
M  V30 26718 O 2520.73 5.07277 3.23965 0
M  V30 26719 H 2524.56 2.95539 0.699298 0
M  V30 26720 H 2522.15 1.46758 0.279726 0
M  V30 26721 H 2524.03 2.80218 3.14732 0
M  V30 26722 H 2522.7 1.66551 2.77565 0
M  V30 26723 H 2521.61 3.49007 1.34703 0
M  V30 26724 H 2522.94 4.58473 1.79062 0
M  V30 26725 N 2524.59 -0.336679 1.53962 0
M  V30 26726 C 2525.5 -1.43705 1.85435 0
M  V30 26727 C 2526.52 -1.5724 0.745081 0
M  V30 26728 O 2527.7 -1.72586 1.03807 0
M  V30 26729 C 2524.76 -2.78602 2.06354 0
M  V30 26730 C 2523.82 -2.74353 3.30196 0
M  V30 26731 C 2523.06 -4.02815 3.50108 0
M  V30 26732 O 2523.28 -5.00434 2.73719 0
M  V30 26733 O 2522.21 -4.0687 4.43554 0
M  V30 26734 H 2526.04 -1.20023 2.78977 0
M  V30 26735 H 2523.62 -0.529496 1.39702 0
M  V30 26736 H 2525.51 -3.58479 2.21519 0
M  V30 26737 H 2524.18 -3.02201 1.16 0
M  V30 26738 H 2523.09 -1.93072 3.20428 0
M  V30 26739 H 2524.42 -2.55707 4.20565 0
M  V30 26740 N 2526.07 -1.45812 -0.598057 0
M  V30 26741 C 2527 -1.5806 -1.7187 0
M  V30 26742 C 2527.98 -0.431644 -1.64532 0
M  V30 26743 O 2529.17 -0.655982 -1.82785 0
M  V30 26744 C 2526.3 -1.55602 -3.10492 0
M  V30 26745 C 2525.25 -2.69311 -3.32649 0
M  V30 26746 C 2524.58 -2.5191 -4.71641 0
M  V30 26747 C 2525.88 -4.11254 -3.21974 0
M  V30 26748 H 2527.57 -2.51866 -1.61876 0
M  V30 26749 H 2525.12 -1.21216 -0.777351 0
M  V30 26750 H 2527.07 -1.62767 -3.88697 0
M  V30 26751 H 2525.8 -0.583311 -3.21349 0
M  V30 26752 H 2524.45 -2.61591 -2.56838 0
M  V30 26753 H 2524.1 -1.52757 -4.79244 0
M  V30 26754 H 2523.8 -3.28169 -4.87421 0
M  V30 26755 H 2525.33 -2.60943 -5.52034 0
M  V30 26756 H 2526.74 -4.20168 -3.90041 0
M  V30 26757 H 2525.14 -4.87979 -3.49281 0
M  V30 26758 H 2526.21 -4.3249 -2.19272 0
M  V30 26759 N 2527.55 0.841385 -1.33261 0
M  V30 26760 C 2528.5 1.95101 -1.23305 0
M  V30 26761 C 2529.47 1.6572 -0.112233 0
M  V30 26762 O 2530.65 1.88582 -0.290072 0
M  V30 26763 C 2527.79 3.31022 -0.975641 0
M  V30 26764 C 2526.91 3.72815 -2.18249 0
M  V30 26765 C 2526.04 4.97592 -1.85945 0
M  V30 26766 C 2525.08 5.31914 -3.02876 0
M  V30 26767 N 2524.22 6.47868 -2.70576 0
M  V30 26768 H 2529.06 2.02948 -2.18211 0
M  V30 26769 H 2526.59 0.993154 -1.08512 0
M  V30 26770 H 2528.55 4.09324 -0.806842 0
M  V30 26771 H 2527.18 3.22738 -0.0633322 0
M  V30 26772 H 2526.23 2.90057 -2.46112 0
M  V30 26773 H 2527.55 3.94164 -3.05673 0
M  V30 26774 H 2526.7 5.83636 -1.65694 0
M  V30 26775 H 2525.44 4.78208 -0.957536 0
M  V30 26776 H 2524.44 4.44376 -3.23743 0
M  V30 26777 H 2525.67 5.53248 -3.93818 0
M  V30 26778 H 2523.61 6.29975 -1.82941 0
M  V30 26779 H 2523.53 6.693 -3.51531 0
M  V30 26780 H 2524.8 7.3703 -2.53787 0
M  V30 26781 N 2529.03 1.16688 1.05932 0
M  V30 26782 C 2530.31 0.860778 1.75642 0
M  V30 26783 C 2530.69 -0.640606 2.01145 0
M  V30 26784 O 2530.03 -1.58956 1.6415 0
M  V30 26785 C 2530.24 1.6875 3.0549 0
M  V30 26786 C 2531.59 1.90278 3.79578 0
M  V30 26787 O 2532.62 1.65646 3.15341 0
M  V30 26788 O 2531.48 2.31627 4.94986 0
M  V30 26789 H 2528.57 0.31799 0.763421 0
M  V30 26790 H 2531.12 1.27344 1.12168 0
M  V30 26791 H 2529.89 2.70616 2.82635 0
M  V30 26792 H 2529.51 1.27212 3.767 0
M  V30 26793 N 2530.51 -1.24529 0.96594 0
M  V30 26794 C 2531.75 -1.92838 0.627794 0
M  V30 26795 C 2532.09 -1.75348 -0.834663 0
M  V30 26796 O 2531.36 -1.10549 -1.60029 0
M  V30 26797 C 2531.64 -3.45903 1.00115 0
M  V30 26798 C 2531.5 -3.72568 2.52018 0
M  V30 26799 C 2532.82 -4.36843 0.534427 0
M  V30 26800 H 2529.94 -0.70034 0.229549 0
M  V30 26801 H 2532.58 -1.46931 1.20463 0
M  V30 26802 H 2530.73 -3.85134 0.510306 0
M  V30 26803 H 2532.4 -3.42907 3.08565 0
M  V30 26804 H 2530.64 -3.17781 2.95293 0
M  V30 26805 H 2531.31 -4.79657 2.73191 0
M  V30 26806 H 2533.79 -4.04978 0.955636 0
M  V30 26807 H 2532.67 -5.42676 0.824247 0
M  V30 26808 H 2532.93 -4.38468 -0.565512 0
M  V30 26809 N 2531.99 -0.735845 -1.39367 0
M  V30 26810 C 2533.23 -0.283597 -2.001 0
M  V30 26811 C 2533.55 1.13335 -1.58682 0
M  V30 26812 O 2532.82 1.77192 -0.835454 0
M  V30 26813 H 2531.4 -0.101864 -0.740022 0
M  V30 26814 H 2534.07 -0.945992 -1.70402 0
M  V30 26815 H 2533.16 -0.332658 -3.10322 0
M  V30 26816 N 2533.46 1.49999 -0.483543 0
M  V30 26817 C 2534.88 1.58999 -0.138432 0
M  V30 26818 C 2535.08 1.49052 1.35594 0
M  V30 26819 O 2534.14 1.35543 2.13036 0
M  V30 26820 C 2535.45 2.92446 -0.699709 0
M  V30 26821 C 2537 3.0587 -0.664249 0
M  V30 26822 C 2537.47 4.41911 -1.20328 0
M  V30 26823 N 2538.96 4.48356 -1.16323 0
M  V30 26824 C 2539.7 5.52034 -1.55068 0
M  V30 26825 N 2539.19 6.62903 -2.01323 0
M  V30 26826 N 2540.99 5.42648 -1.46593 0
M  V30 26827 H 2533.14 1.54707 -1.45532 0
M  V30 26828 H 2535.4 0.731837 -0.602593 0
M  V30 26829 H 2535.11 3.05239 -1.74706 0
M  V30 26830 H 2534.98 3.76901 -0.15026 0
M  V30 26831 H 2537.37 2.92718 0.374221 0
M  V30 26832 H 2537.45 2.23142 -1.25065 0
M  V30 26833 H 2537.09 4.55814 -2.24045 0
M  V30 26834 H 2537.02 5.23251 -0.592988 0
M  V30 26835 H 2539.51 3.68804 -0.824123 0
M  V30 26836 H 2539.83 7.38091 -2.29003 0
M  V30 26837 H 2538.17 6.6399 -2.05284 0
M  V30 26838 H 2541.36 4.54922 -1.10289 0
M  V30 26839 H 2541.54 6.23326 -1.77114 0
M  V30 26840 N 2534.94 0.216646 1.56104 0
M  V30 26841 C 2535.89 -0.711997 2.21435 0
M  V30 26842 C 2536.88 -1.20345 1.1922 0
M  V30 26843 O 2538.09 -1.16385 1.37312 0
M  V30 26844 H 2534.46 -0.248014 0.709925 0
M  V30 26845 H 2536.44 -0.137506 2.98083 0
M  V30 26846 C 2535.18 -1.91158 2.90438 0
M  V30 26847 H 2534.51 -1.54251 3.68845 0
M  V30 26848 H 2535.95 -2.53924 3.39557 0
M  V30 26849 C 2534.41 -2.7639 1.9264 0
M  V30 26850 O 2534.94 -3.74993 1.44024 0
M  V30 26851 N 2533.14 -2.42325 1.60396 0
M  V30 26852 H 2532.69 -1.62197 2.00125 0
M  V30 26853 H 2532.65 -2.99634 0.952212 0
M  V30 26854 N 2536.42 -1.57498 -0.0567885 0
M  V30 26855 C 2537.35 -2.01466 -1.09289 0
M  V30 26856 C 2538.36 -0.922936 -1.34111 0
M  V30 26857 O 2539.55 -1.20064 -1.32086 0
M  V30 26858 C 2536.65 -2.3513 -2.44064 0
M  V30 26859 C 2535.83 -3.66338 -2.38989 0
M  V30 26860 C 2534.89 -3.87501 -3.5599 0
M  V30 26861 O 2533.91 -4.58907 -3.36738 0
M  V30 26862 N 2535.11 -3.31004 -4.76882 0
M  V30 26863 H 2537.88 -2.90964 -0.718335 0
M  V30 26864 H 2535.44 -1.60032 -0.245207 0
M  V30 26865 H 2537.43 -2.46448 -3.21007 0
M  V30 26866 H 2536 -1.51445 -2.73465 0
M  V30 26867 H 2535.22 -3.65633 -1.47329 0
M  V30 26868 H 2536.51 -4.52463 -2.32712 0
M  V30 26869 H 2535.91 -2.73073 -4.95427 0
M  V30 26870 H 2534.46 -3.47747 -5.51285 0
M  V30 26871 N 2537.9 0.328509 -1.54138 0
M  V30 26872 C 2539.12 1.09109 -1.7638 0
M  V30 26873 C 2539.55 1.81093 -0.508628 0
M  V30 26874 O 2538.91 1.73085 0.539567 0
M  V30 26875 C 2538.95 2.06867 -2.95361 0
M  V30 26876 O 2538.06 3.14673 -2.66561 0
M  V30 26877 H 2537.4 0.314828 -0.584619 0
M  V30 26878 H 2539.93 0.374313 -2.01147 0
M  V30 26879 H 2539.94 2.49824 -3.22571 0
M  V30 26880 H 2538.61 1.53874 -3.86388 0
M  V30 26881 H 2537.19 2.76426 -2.50286 0
M  V30 26882 N 2539.38 1.46127 0.590316 0
M  V30 26883 C 2540.62 1.52596 1.35992 0
M  V30 26884 C 2540.98 0.170402 1.91242 0
M  V30 26885 O 2542.18 0.109822 2.68576 0
M  V30 26886 C 2540.45 2.58828 2.46461 0
M  V30 26887 S 2542.01 2.84647 3.33948 0
M  V30 26888 H 2538.83 0.539228 0.463415 0
M  V30 26889 H 2541.43 1.83315 0.679408 0
M  V30 26890 H 2540.13 3.55964 2.0425 0
M  V30 26891 H 2539.67 2.29816 3.19293 0
M  V30 26892 H 2541.68 2.19339 4.4509 0
M  V30 26893 N 2540.85 -0.834306 1.33705 0
M  V30 26894 C 2542.13 -1.57481 1.16014 0
M  V30 26895 C 2542.51 -2.09344 -0.271723 0
M  V30 26896 O 2541.86 -1.8986 -1.27143 0
M  V30 26897 C 2542.07 -2.7051 2.20512 0
M  V30 26898 C 2543.42 -3.39572 2.54904 0
M  V30 26899 O 2544.44 -2.80755 2.19214 0
M  V30 26900 O 2543.3 -4.45759 3.16166 0
M  V30 26901 H 2540.39 -0.694495 0.449004 0
M  V30 26902 H 2542.94 -0.876666 1.45302 0
M  V30 26903 H 2541.71 -2.29859 3.16671 0
M  V30 26904 H 2541.33 -3.47984 1.92335 0
M  V30 26905 N 2542.33 -1.17248 -1.05312 0
M  V30 26906 C 2543.58 -0.954552 -1.77683 0
M  V30 26907 C 2543.89 0.517992 -1.88617 0
M  V30 26908 O 2545.1 0.854098 -2.57716 0
M  V30 26909 C 2543.56 -1.65869 -3.19399 0
M  V30 26910 C 2543.16 -3.16968 -3.16599 0
M  V30 26911 C 2544.91 -1.5231 -3.96235 0
M  V30 26912 C 2542.81 -3.80076 -4.53096 0
M  V30 26913 H 2541.74 -0.353508 -0.665994 0
M  V30 26914 H 2544.4 -1.40488 -1.18048 0
M  V30 26915 H 2542.78 -1.13609 -3.79353 0
M  V30 26916 H 2543.95 -3.76152 -2.66169 0
M  V30 26917 H 2542.27 -3.30525 -2.53263 0
M  V30 26918 H 2544.86 -1.96831 -4.97154 0
M  V30 26919 H 2545.21 -0.473474 -4.13599 0
M  V30 26920 H 2545.74 -2.01781 -3.42826 0
M  V30 26921 H 2542.48 -4.8503 -4.40937 0
M  V30 26922 H 2542 -3.25679 -5.0368 0
M  V30 26923 H 2543.68 -3.82211 -5.22038 0
M  V30 26924 N 2543.81 1.24015 -0.972531 0
M  V30 26925 C 2544.77 2.23421 -0.511442 0
M  V30 26926 C 2545.77 1.55882 0.394651 0
M  V30 26927 O 2546.96 1.73167 0.189438 0
M  V30 26928 C 2544.1 3.39917 0.258709 0
M  V30 26929 H 2545.29 2.65727 -1.39029 0
M  V30 26930 H 2542.84 1.36711 -0.757609 0
M  V30 26931 H 2543.58 3.03056 1.15445 0
M  V30 26932 H 2543.36 3.9014 -0.391591 0
M  V30 26933 H 2544.85 4.13689 0.570172 0
M  V30 26934 N 2545.29 0.743226 1.38974 0
M  V30 26935 C 2546.22 0.123914 2.33171 0
M  V30 26936 C 2547.2 -0.715132 1.54337 0
M  V30 26937 O 2548.38 -0.658435 1.82697 0
M  V30 26938 C 2545.51 -0.777918 3.38476 0
M  V30 26939 C 2544.47 -0.0424006 4.27979 0
M  V30 26940 C 2543.79 -1.0618 5.24051 0
M  V30 26941 C 2545.09 1.11989 5.10153 0
M  V30 26942 H 2546.79 0.91076 2.85211 0
M  V30 26943 H 2544.33 0.439412 1.37132 0
M  V30 26944 H 2546.29 -1.22077 4.0333 0
M  V30 26945 H 2545.01 -1.59697 2.84894 0
M  V30 26946 H 2543.67 0.380917 3.64616 0
M  V30 26947 H 2543.32 -1.87463 4.66762 0
M  V30 26948 H 2543.02 -0.574382 5.84786 0
M  V30 26949 H 2544.54 -1.50418 5.91783 0
M  V30 26950 H 2545.96 0.75509 5.68306 0
M  V30 26951 H 2544.35 1.53748 5.8007 0
M  V30 26952 H 2545.42 1.93772 4.445 0
M  V30 26953 N 2546.77 -1.4974 0.491491 0
M  V30 26954 C 2547.7 -2.31797 -0.2815 0
M  V30 26955 C 2548.68 -1.39631 -0.971448 0
M  V30 26956 O 2549.86 -1.68545 -0.964689 0
M  V30 26957 C 2546.99 -3.19905 -1.35197 0
M  V30 26958 C 2545.95 -4.20787 -0.782455 0
M  V30 26959 C 2545.27 -4.97767 -1.95274 0
M  V30 26960 C 2546.57 -5.21836 0.220082 0
M  V30 26961 H 2548.27 -2.9667 0.403407 0
M  V30 26962 H 2545.81 -1.42667 0.19545 0
M  V30 26963 H 2547.77 -3.76116 -1.90038 0
M  V30 26964 H 2546.49 -2.52956 -2.06593 0
M  V30 26965 H 2545.15 -3.65706 -0.255864 0
M  V30 26966 H 2544.8 -4.27274 -2.65416 0
M  V30 26967 H 2544.5 -5.66021 -1.57779 0
M  V30 26968 H 2546.02 -5.5682 -2.50567 0
M  V30 26969 H 2547.43 -5.72798 -0.239859 0
M  V30 26970 H 2545.83 -5.97926 0.510365 0
M  V30 26971 H 2546.9 -4.71328 1.13919 0
M  V30 26972 N 2548.24 -0.224922 -1.55987 0
M  V30 26973 C 2549.66 0.282313 -1.84553 0
M  V30 26974 C 2550.01 1.59225 -1.14637 0
M  V30 26975 O 2549.13 2.1234 -0.417192 0
M  V30 26976 C 2549.73 0.519003 -3.34801 0
M  V30 26977 C 2548.29 0.97054 -3.63672 0
M  V30 26978 C 2547.43 0.0354773 -2.77277 0
M  V30 26979 H 2550.38 -0.448033 -1.52244 0
M  V30 26980 H 2550.4 1.36457 -3.5519 0
M  V30 26981 H 2549.92 -0.434558 -3.85659 0
M  V30 26982 H 2548.02 1.93734 -3.18273 0
M  V30 26983 H 2548.13 0.842615 -4.71632 0
M  V30 26984 H 2546.49 0.542884 -2.48847 0
M  V30 26985 H 2547.28 -0.913061 -3.30935 0
M  V30 26986 N 2549.72 1.57526 0.0484352 0
M  V30 26987 C 2550.63 2.08656 1.07237 0
M  V30 26988 C 2551.65 1.02097 1.40898 0
M  V30 26989 O 2552.82 1.33715 1.50606 0
M  V30 26990 C 2549.89 2.53975 2.36004 0
M  V30 26991 C 2548.95 3.74933 2.09101 0
M  V30 26992 C 2548.18 4.18081 3.31729 0
M  V30 26993 O 2548.41 3.60903 4.41708 0
M  V30 26994 O 2547.34 5.10685 3.18567 0
M  V30 26995 H 2551.17 2.96264 0.667913 0
M  V30 26996 H 2548.75 1.47046 0.264144 0
M  V30 26997 H 2550.63 2.8354 3.11742 0
M  V30 26998 H 2549.31 1.69486 2.75783 0
M  V30 26999 H 2548.22 3.50416 1.30993 0
M  V30 27000 H 2549.55 4.60346 1.7419 0
M  V30 27001 N 2551.2 -0.32033 1.5431 0
M  V30 27002 C 2552.15 -1.41447 1.8465 0
M  V30 27003 C 2553.14 -1.53401 0.718651 0
M  V30 27004 O 2554.35 -1.55748 0.902362 0
M  V30 27005 H 2550.72 -0.472081 0.585358 0
M  V30 27006 H 2552.69 -1.13084 2.76142 0
M  V30 27007 C 2551.44 -2.77614 2.09346 0
M  V30 27008 H 2550.77 -2.69191 2.95595 0
M  V30 27009 H 2552.21 -3.53233 2.34526 0
M  V30 27010 C 2550.67 -3.25041 0.885996 0
M  V30 27011 O 2551.2 -4.01583 0.0968597 0
M  V30 27012 N 2549.4 -2.82124 0.696732 0
M  V30 27013 H 2548.95 -2.19998 1.3401 0
M  V30 27014 H 2548.91 -3.14209 -0.109657 0
M  V30 27015 N 2552.68 -1.46438 -0.582558 0
M  V30 27016 C 2554.09 -1.31396 -0.905939 0
M  V30 27017 C 2554.29 -0.285511 -1.99467 0
M  V30 27018 O 2553.35 0.311869 -2.50567 0
M  V30 27019 C 2554.66 -2.70024 -1.32315 0
M  V30 27020 C 2556.21 -2.78116 -1.43599 0
M  V30 27021 C 2556.69 -4.17326 -1.88687 0
M  V30 27022 N 2558.18 -4.19744 -1.9588 0
M  V30 27023 C 2558.91 -5.24351 -2.32042 0
M  V30 27024 N 2558.41 -6.39285 -2.66995 0
M  V30 27025 N 2560.2 -5.11718 -2.32597 0
M  V30 27026 H 2552.35 -2.1196 0.136638 0
M  V30 27027 H 2554.62 -0.947999 -0.0015407 0
M  V30 27028 H 2554.32 -3.46593 -0.597181 0
M  V30 27029 H 2554.2 -3.0014 -2.28464 0
M  V30 27030 H 2556.58 -2.01835 -2.15282 0
M  V30 27031 H 2556.66 -2.51684 -0.457014 0
M  V30 27032 H 2556.31 -4.94102 -1.17582 0
M  V30 27033 H 2556.24 -4.41165 -2.87543 0
M  V30 27034 H 2558.73 -3.36817 -1.71356 0
M  V30 27035 H 2559.04 -7.1488 -2.93542 0
M  V30 27036 H 2557.39 -6.42646 -2.64633 0
M  V30 27037 H 2560.58 -4.20963 -2.04713 0
M  V30 27038 H 2560.75 -5.93354 -2.60452 0
M  V30 27039 N 2554.16 0.827204 -1.34146 0
M  V30 27040 C 2555.4 1.58004 -1.26012 0
M  V30 27041 C 2555.73 1.94249 0.170937 0
M  V30 27042 O 2555 1.61929 1.10253 0
M  V30 27043 H 2553.58 0.585873 -0.463424 0
M  V30 27044 H 2556.24 0.987922 -1.68006 0
M  V30 27045 H 2555.33 2.50478 -1.86191 0
M  V30 27046 N 2555.63 1.17805 1.04688 0
M  V30 27047 C 2556.58 0.899381 2.12555 0
M  V30 27048 C 2557.55 -0.158742 1.6534 0
M  V30 27049 O 2558.74 -0.0204462 1.90789 0
M  V30 27050 C 2555.88 0.424375 3.42481 0
M  V30 27051 C 2554.99 1.5472 4.03343 0
M  V30 27052 C 2554.12 1.02556 5.21206 0
M  V30 27053 C 2553.16 2.12349 5.74086 0
M  V30 27054 N 2552.3 1.61624 6.83244 0
M  V30 27055 H 2557.14 1.82305 2.35731 0
M  V30 27056 H 2554.68 0.909179 1.15639 0
M  V30 27057 H 2556.64 0.130495 4.16996 0
M  V30 27058 H 2555.27 -0.462321 3.19472 0
M  V30 27059 H 2554.32 1.9567 3.26217 0
M  V30 27060 H 2555.63 2.37509 4.38624 0
M  V30 27061 H 2554.78 0.685824 6.02811 0
M  V30 27062 H 2553.52 0.167169 4.87413 0
M  V30 27063 H 2552.53 2.47174 4.91106 0
M  V30 27064 H 2553.75 2.98612 6.09924 0
M  V30 27065 H 2551.7 0.780647 6.51339 0
M  V30 27066 H 2551.62 2.38016 7.17554 0
M  V30 27067 H 2552.88 1.30559 7.68489 0
M  V30 27068 N 2557.11 -1.23497 0.979094 0
M  V30 27069 C 2558.06 -2.26926 0.510644 0
M  V30 27070 C 2559.05 -1.63808 -0.431662 0
M  V30 27071 O 2560.26 -1.77385 -0.305699 0
M  V30 27072 H 2556.64 -0.737552 0.146701 0
M  V30 27073 H 2558.61 -2.638 1.3947 0
M  V30 27074 C 2557.36 -3.47271 -0.172597 0
M  V30 27075 H 2556.68 -3.9609 0.543401 0
M  V30 27076 H 2558.12 -4.21453 -0.464027 0
M  V30 27077 C 2556.58 -3.06278 -1.4034 0
M  V30 27078 O 2557.11 -3.14447 -2.49972 0
M  V30 27079 N 2555.31 -2.61206 -1.27358 0
M  V30 27080 H 2554.86 -2.54759 -0.381539 0
M  V30 27081 H 2554.82 -2.34144 -2.09818 0
M  V30 27082 N 2558.59 -0.750586 -1.38578 0
M  V30 27083 C 2560.01 -0.427851 -1.53758 0
M  V30 27084 C 2560.21 1.0594 -1.71403 0
M  V30 27085 O 2559.26 1.84546 -1.72334 0
M  V30 27086 C 2560.58 -1.22448 -2.7464 0
M  V30 27087 C 2562.12 -1.21425 -2.88487 0
M  V30 27088 C 2562.6 -1.99378 -4.12326 0
M  V30 27089 N 2564.09 -1.96623 -4.19397 0
M  V30 27090 C 2564.83 -2.53736 -5.14204 0
M  V30 27091 N 2564.32 -3.1955 -6.14703 0
M  V30 27092 N 2566.11 -2.43682 -5.06533 0
M  V30 27093 H 2558.27 -1.7145 -1.25374 0
M  V30 27094 H 2560.53 -0.726656 -0.608831 0
M  V30 27095 H 2560.23 -2.27752 -2.67996 0
M  V30 27096 H 2560.11 -0.839338 -3.67743 0
M  V30 27097 H 2562.5 -0.169284 -2.94614 0
M  V30 27098 H 2562.58 -1.63888 -1.96403 0
M  V30 27099 H 2562.22 -3.03884 -4.0696 0
M  V30 27100 H 2562.15 -1.54311 -5.03484 0
M  V30 27101 H 2564.64 -1.4869 -3.47419 0
M  V30 27102 H 2564.95 -3.60557 -6.83534 0
M  V30 27103 H 2563.3 -3.23644 -6.15045 0
M  V30 27104 H 2566.49 -1.91896 -4.26958 0
M  V30 27105 H 2566.66 -2.88489 -5.8024 0
M  V30 27106 N 2560.07 1.49477 -0.499425 0
M  V30 27107 C 2561.3 2.06556 0.0424476 0
M  V30 27108 C 2561.71 1.3602 1.31511 0
M  V30 27109 O 2561.05 0.431749 1.78554 0
M  V30 27110 C 2561.11 3.57611 0.368012 0
M  V30 27111 C 2560.78 4.49824 -0.80671 0
M  V30 27112 C 2561.77 4.91433 -1.69676 0
M  V30 27113 C 2559.46 4.92142 -1.00507 0
M  V30 27114 C 2561.45 5.74097 -2.76933 0
M  V30 27115 C 2559.14 5.74583 -2.08082 0
M  V30 27116 C 2560.14 6.15464 -2.9613 0
M  V30 27117 O 2559.83 6.96257 -4.01848 0
M  V30 27118 H 2559.56 0.675798 -0.0165284 0
M  V30 27119 H 2562.11 1.93265 -0.695531 0
M  V30 27120 H 2560.34 3.68905 1.15956 0
M  V30 27121 H 2562.03 3.96936 0.848311 0
M  V30 27122 H 2562.8 4.59385 -1.55532 0
M  V30 27123 H 2558.68 4.59824 -0.329117 0
M  V30 27124 H 2562.22 6.05926 -3.45686 0
M  V30 27125 H 2558.12 6.06043 -2.22221 0
M  V30 27126 H 2558.88 7.1456 -3.99182 0
M  V30 27127 N 2561.55 0.233191 1.55865 0
M  V30 27128 C 2562.5 -0.688471 2.22177 0
M  V30 27129 C 2563.49 -1.19074 1.20489 0
M  V30 27130 O 2564.7 -1.14922 1.38538 0
M  V30 27131 H 2561.07 -0.24047 0.712515 0
M  V30 27132 H 2563.04 -0.105883 2.98212 0
M  V30 27133 C 2561.79 -1.88066 2.92449 0
M  V30 27134 H 2561.11 -1.5033 3.7046 0
M  V30 27135 H 2562.55 -2.50308 3.42231 0
M  V30 27136 C 2561.01 -2.74332 1.9556 0
M  V30 27137 O 2561.54 -3.73445 1.47993 0
M  V30 27138 N 2559.75 -2.4061 1.62957 0
M  V30 27139 H 2559.3 -1.60065 2.01834 0
M  V30 27140 H 2559.25 -2.98607 0.983939 0
M  V30 27141 N 2563.03 -1.57549 -0.0400806 0
M  V30 27142 C 2563.97 -2.0691 -1.0626 0
M  V30 27143 C 2564.97 -0.980633 -1.3813 0
M  V30 27144 O 2566.17 -1.16559 -1.37165 0
M  V30 27145 H 2562.55 -0.660146 -0.360155 0
M  V30 27146 H 2564.52 -2.9188 -0.620394 0
M  V30 27147 C 2563.27 -2.55488 -2.35842 0
M  V30 27148 H 2562.59 -3.38853 -2.12177 0
M  V30 27149 H 2564.03 -2.93746 -3.0576 0
M  V30 27150 C 2562.49 -1.45131 -3.04037 0
M  V30 27151 O 2563.02 -0.811285 -3.93422 0
M  V30 27152 N 2561.23 -1.18856 -2.65182 0
M  V30 27153 H 2560.77 -1.71086 -1.92581 0
M  V30 27154 H 2560.73 -0.452298 -3.1113 0
M  V30 27155 N 2564.5 0.312142 -1.54478 0
M  V30 27156 C 2565.75 1.0463 -1.7244 0
M  V30 27157 C 2566.07 1.88802 -0.511196 0
M  V30 27158 O 2567.27 2.65398 -0.572388 0
M  V30 27159 C 2565.73 1.90984 -3.05046 0
M  V30 27160 C 2565.34 1.11869 -4.33808 0
M  V30 27161 C 2567.08 2.64067 -3.32369 0
M  V30 27162 C 2564.99 1.97435 -5.5747 0
M  V30 27163 H 2563.92 0.394349 -0.642654 0
M  V30 27164 H 2566.57 0.303898 -1.80966 0
M  V30 27165 H 2564.95 2.69168 -2.90455 0
M  V30 27166 H 2566.12 0.383762 -4.59199 0
M  V30 27167 H 2564.44 0.504179 -4.13336 0
M  V30 27168 H 2567.04 3.28415 -4.21957 0
M  V30 27169 H 2567.38 3.3231 -2.5075 0
M  V30 27170 H 2567.91 1.92938 -3.47879 0
M  V30 27171 H 2564.65 1.33681 -6.41724 0
M  V30 27172 H 2564.17 2.68631 -5.36281 0
M  V30 27173 H 2565.85 2.55749 -5.94307 0
M  V30 27174 N 2565.98 1.46745 0.574784 0
M  V30 27175 C 2566.91 1.60774 1.69334 0
M  V30 27176 C 2567.89 0.457765 1.63825 0
M  V30 27177 O 2569.08 0.684979 1.81719 0
M  V30 27178 C 2566.21 1.60522 3.07977 0
M  V30 27179 C 2565.16 2.74569 3.28323 0
M  V30 27180 C 2564.49 2.59382 4.67574 0
M  V30 27181 C 2565.79 4.16324 3.15391 0
M  V30 27182 H 2567.48 2.54409 1.57849 0
M  V30 27183 H 2565.03 1.22437 0.757968 0
M  V30 27184 H 2566.98 1.6893 3.86058 0
M  V30 27185 H 2565.7 0.634361 3.2038 0
M  V30 27186 H 2564.36 2.65644 2.52644 0
M  V30 27187 H 2564.01 1.60362 4.76753 0
M  V30 27188 H 2563.71 3.35882 4.82138 0
M  V30 27189 H 2565.24 2.69692 5.47813 0
M  V30 27190 H 2566.65 4.2632 3.83307 0
M  V30 27191 H 2565.05 4.93474 3.41473 0
M  V30 27192 H 2566.12 4.35924 2.12364 0
M  V30 27193 N 2567.46 -0.820078 1.34583 0
M  V30 27194 C 2568.87 -1.39307 1.243 0
M  V30 27195 C 2569.22 -1.95767 -0.130317 0
M  V30 27196 O 2568.35 -1.90274 -1.03077 0
M  V30 27197 C 2568.94 -2.53247 2.25058 0
M  V30 27198 C 2567.5 -3.06446 2.18558 0
M  V30 27199 C 2566.65 -1.79333 2.11506 0
M  V30 27200 H 2569.6 -0.624236 1.45907 0
M  V30 27201 H 2569.62 -3.31421 1.86923 0
M  V30 27202 H 2569.13 -2.12125 3.25 0
M  V30 27203 H 2567.23 -3.52067 1.21982 0
M  V30 27204 H 2567.35 -3.65344 3.09937 0
M  V30 27205 H 2565.71 -2.00344 1.57271 0
M  V30 27206 H 2566.49 -1.40381 3.13286 0
M  V30 27207 N 2568.94 -1.18359 -1.04062 0
M  V30 27208 C 2570.17 -1.00241 -1.80652 0
M  V30 27209 C 2570.58 0.45233 -1.83713 0
M  V30 27210 O 2569.92 1.32596 -1.27137 0
M  V30 27211 C 2569.98 -1.48094 -3.2758 0
M  V30 27212 C 2569.64 -2.96008 -3.48179 0
M  V30 27213 C 2570.64 -3.93862 -3.39365 0
M  V30 27214 C 2568.33 -3.34439 -3.74774 0
M  V30 27215 C 2570.32 -5.28144 -3.56851 0
M  V30 27216 C 2568.01 -4.68884 -3.91907 0
M  V30 27217 C 2569.01 -5.65545 -3.82946 0
M  V30 27218 O 2568.69 -6.97556 -3.99588 0
M  V30 27219 H 2568.43 -0.354251 -0.575745 0
M  V30 27220 H 2570.98 -1.57335 -1.32041 0
M  V30 27221 H 2569.21 -0.853654 -3.7716 0
M  V30 27222 H 2570.9 -1.26367 -3.85728 0
M  V30 27223 H 2571.66 -3.65517 -3.18783 0
M  V30 27224 H 2567.54 -2.59762 -3.80847 0
M  V30 27225 H 2571.09 -6.03577 -3.49773 0
M  V30 27226 H 2566.98 -4.9693 -4.11984 0
M  V30 27227 H 2567.75 -7.0446 -4.16748 0
M  V30 27228 N 2570.42 1.22976 -0.98563 0
M  V30 27229 C 2571.69 1.87 -0.573632 0
M  V30 27230 C 2572.07 1.88557 0.949179 0
M  V30 27231 O 2571.42 1.37089 1.82808 0
M  V30 27232 C 2571.63 3.28241 -1.1857 0
M  V30 27233 C 2572.98 4.04793 -1.2817 0
M  V30 27234 O 2574 3.3748 -1.13955 0
M  V30 27235 O 2572.86 5.25271 -1.50841 0
M  V30 27236 H 2569.96 0.803952 -0.193883 0
M  V30 27237 H 2572.5 1.30811 -1.08105 0
M  V30 27238 H 2571.27 3.21702 -2.22764 0
M  V30 27239 H 2570.9 3.92026 -0.663432 0
M  V30 27240 N 2571.89 0.757924 1.38178 0
M  V30 27241 C 2572.86 0.141326 2.28764 0
M  V30 27242 C 2573.86 -0.642881 1.4739 0
M  V30 27243 O 2575.05 -0.468507 1.67782 0
M  V30 27244 C 2572.18 -0.808011 3.31186 0
M  V30 27245 H 2573.37 0.939683 2.84798 0
M  V30 27246 H 2570.92 0.525216 1.47211 0
M  V30 27247 H 2571.66 -1.63188 2.8025 0
M  V30 27248 H 2571.44 -0.248035 3.91315 0
M  V30 27249 H 2572.93 -1.23529 3.98911 0
M  V30 27250 N 2573.37 -1.4921 0.507345 0
M  V30 27251 C 2574.6 -2.06876 -0.0315386 0
M  V30 27252 C 2575.02 -1.36687 -1.30239 0
M  V30 27253 O 2574.37 -0.447183 -1.76937 0
M  V30 27254 C 2574.42 -3.60394 -0.282563 0
M  V30 27255 O 2574.14 -4.27943 0.937911 0
M  V30 27256 C 2575.65 -4.34791 -0.864376 0
M  V30 27257 H 2572.87 -0.670595 0.0233166 0
M  V30 27258 H 2575.41 -1.91908 0.706518 0
M  V30 27259 H 2573.56 -3.75044 -0.970614 0
M  V30 27260 H 2573.98 -5.19745 0.704658 0
M  V30 27261 H 2575.45 -5.43058 -0.989568 0
M  V30 27262 H 2575.93 -3.97695 -1.86375 0
M  V30 27263 H 2576.54 -4.24763 -0.213598 0
M  V30 27264 N 2574.85 -0.241454 -1.55739 0
M  V30 27265 C 2576.27 0.11352 -1.59196 0
M  V30 27266 C 2576.47 1.57362 -1.25855 0
M  V30 27267 O 2575.52 2.31713 -1.00327 0
M  V30 27268 C 2576.84 -0.230748 -2.99813 0
M  V30 27269 C 2578.38 -0.174602 -3.12513 0
M  V30 27270 C 2578.86 -0.492825 -4.55341 0
M  V30 27271 N 2580.35 -0.443124 -4.61076 0
M  V30 27272 C 2581.08 -0.662585 -5.69559 0
M  V30 27273 N 2580.58 -0.944882 -6.86326 0
M  V30 27274 N 2582.37 -0.593662 -5.58956 0
M  V30 27275 H 2574.52 -1.19371 -1.75683 0
M  V30 27276 H 2576.79 -0.47991 -0.817552 0
M  V30 27277 H 2576.49 -1.24491 -3.2893 0
M  V30 27278 H 2576.37 0.444767 -3.74569 0
M  V30 27279 H 2578.75 0.830227 -2.83181 0
M  V30 27280 H 2578.84 -0.883887 -2.40044 0
M  V30 27281 H 2578.48 -1.49518 -4.85393 0
M  V30 27282 H 2578.41 0.237877 -5.26062 0
M  V30 27283 H 2580.9 -0.23344 -3.77178 0
M  V30 27284 H 2581.21 -1.09991 -7.64933 0
M  V30 27285 H 2579.56 -0.982296 -6.88023 0
M  V30 27286 H 2582.75 -0.373205 -4.6661 0
M  V30 27287 H 2582.92 -0.768094 -6.43432 0
M  V30 27288 N 2576.33 1.57568 0.0317248 0
M  V30 27289 C 2577.57 1.89431 0.724142 0
M  V30 27290 C 2577.91 0.838867 1.75148 0
M  V30 27291 O 2577.18 -0.146388 1.93948 0
M  V30 27292 C 2577.47 3.31936 1.3961 0
M  V30 27293 C 2577.32 4.48171 0.382458 0
M  V30 27294 C 2578.64 3.73313 2.33078 0
M  V30 27295 H 2575.76 0.68894 0.261785 0
M  V30 27296 H 2578.4 1.89996 -0.0130504 0
M  V30 27297 H 2576.55 3.31585 2.02445 0
M  V30 27298 H 2578.22 4.60655 -0.24377 0
M  V30 27299 H 2576.46 4.32772 -0.298516 0
M  V30 27300 H 2577.13 5.44761 0.891049 0
M  V30 27301 H 2579.61 3.75014 1.80289 0
M  V30 27302 H 2578.49 4.73836 2.77076 0
M  V30 27303 H 2578.75 3.05425 3.19637 0
M  V30 27304 N 2577.81 -0.303946 1.54641 0
M  V30 27305 C 2578.75 -1.37476 1.85389 0
M  V30 27306 C 2579.72 -1.5051 0.702554 0
M  V30 27307 O 2580.91 -1.65416 0.950896 0
M  V30 27308 C 2578.05 -2.73529 2.10418 0
M  V30 27309 C 2577.16 -2.68968 3.38054 0
M  V30 27310 C 2576.3 -3.96996 3.52941 0
M  V30 27311 C 2575.34 -3.86821 4.7438 0
M  V30 27312 N 2574.47 -5.06618 4.86089 0
M  V30 27313 H 2579.31 -1.10555 2.76734 0
M  V30 27314 H 2576.85 -0.534781 1.37035 0
M  V30 27315 H 2578.81 -3.52648 2.22925 0
M  V30 27316 H 2577.44 -2.98717 1.22343 0
M  V30 27317 H 2576.49 -1.81731 3.34183 0
M  V30 27318 H 2577.8 -2.57338 4.27292 0
M  V30 27319 H 2576.96 -4.84551 3.65097 0
M  V30 27320 H 2575.69 -4.11456 2.61831 0
M  V30 27321 H 2574.7 -2.9765 4.62261 0
M  V30 27322 H 2575.92 -3.73908 5.66895 0
M  V30 27323 H 2573.87 -5.21547 3.97901 0
M  V30 27324 H 2573.79 -4.974 5.69324 0
M  V30 27325 H 2575.06 -5.95832 5.02598 0
M  V30 27326 N 2579.28 -1.47047 -0.566994 0
M  V30 27327 C 2580.21 -1.6167 -1.68479 0
M  V30 27328 C 2581.2 -0.466447 -1.6358 0
M  V30 27329 O 2582.38 -0.694606 -1.81353 0
M  V30 27330 C 2579.51 -1.62153 -3.07122 0
M  V30 27331 C 2578.46 -2.76307 -3.26862 0
M  V30 27332 C 2577.79 -2.61858 -4.66192 0
M  V30 27333 C 2579.09 -4.17991 -3.13178 0
M  V30 27334 H 2580.78 -2.55243 -1.56497 0
M  V30 27335 H 2578.33 -1.22837 -0.751465 0
M  V30 27336 H 2580.28 -1.70975 -3.85157 0
M  V30 27337 H 2579.01 -0.651343 -3.20039 0
M  V30 27338 H 2577.67 -2.6698 -2.51232 0
M  V30 27339 H 2577.31 -1.62888 -4.75896 0
M  V30 27340 H 2577.01 -3.38434 -4.8035 0
M  V30 27341 H 2578.54 -2.72593 -5.46375 0
M  V30 27342 H 2579.95 -4.28346 -3.81041 0
M  V30 27343 H 2578.35 -4.95278 -3.38851 0
M  V30 27344 H 2579.42 -4.37044 -2.10049 0
M  V30 27345 N 2580.76 0.812929 -1.35016 0
M  V30 27346 C 2581.99 1.60636 -1.3119 0
M  V30 27347 C 2582.41 1.87782 0.109349 0
M  V30 27348 O 2581.77 1.46049 1.07421 0
M  V30 27349 C 2581.82 2.91834 -2.11814 0
M  V30 27350 O 2580.92 3.84367 -1.49451 0
M  V30 27351 H 2580.26 0.488173 -0.450092 0
M  V30 27352 H 2582.79 1.00944 -1.77965 0
M  V30 27353 H 2582.8 3.41314 -2.23537 0
M  V30 27354 H 2581.48 2.71401 -3.15142 0
M  V30 27355 H 2580.06 3.42904 -1.4653 0
M  V30 27356 N 2582.24 1.18909 1.03433 0
M  V30 27357 C 2583.19 0.918391 2.13702 0
M  V30 27358 C 2584.18 -0.123738 1.68947 0
M  V30 27359 O 2585.39 0.0250018 1.79983 0
M  V30 27360 H 2581.76 0.279554 0.698107 0
M  V30 27361 H 2583.73 1.8551 2.33727 0
M  V30 27362 C 2582.48 0.467593 3.44542 0
M  V30 27363 H 2581.81 1.26102 3.79392 0
M  V30 27364 H 2583.25 0.317238 4.22812 0
M  V30 27365 C 2581.71 -0.817531 3.2683 0
M  V30 27366 O 2582.24 -1.88025 3.54978 0
M  V30 27367 N 2580.44 -0.772628 2.80141 0
M  V30 27368 H 2579.99 0.0924336 2.57434 0
M  V30 27369 H 2579.95 -1.63289 2.68671 0
M  V30 27370 N 2583.72 -1.22452 0.992137 0
M  V30 27371 C 2584.96 -1.91463 0.668557 0
M  V30 27372 C 2585.3 -1.77079 -0.797281 0
M  V30 27373 O 2584.57 -1.13919 -1.57648 0
M  V30 27374 C 2584.86 -3.43702 1.0743 0
M  V30 27375 C 2584.71 -3.67139 2.59864 0
M  V30 27376 C 2586.03 -4.35611 0.626968 0
M  V30 27377 H 2583.15 -0.695313 0.244353 0
M  V30 27378 H 2585.79 -1.44343 1.23552 0
M  V30 27379 H 2583.94 -3.83965 0.591884 0
M  V30 27380 H 2585.61 -3.36284 3.1577 0
M  V30 27381 H 2583.85 -3.11446 3.01967 0
M  V30 27382 H 2584.52 -4.73754 2.83304 0
M  V30 27383 H 2587 -4.02859 1.04132 0
M  V30 27384 H 2585.88 -5.40806 0.939171 0
M  V30 27385 H 2586.14 -4.39569 -0.472379 0
M  V30 27386 N 2585.2 -0.765242 -1.37774 0
M  V30 27387 C 2586.47 -0.251631 -1.93975 0
M  V30 27388 C 2586.85 1.25219 -1.69951 0
M  V30 27389 O 2586.2 2.03224 -1.04461 0
M  V30 27390 C 2586.41 -0.617955 -3.43486 0
M  V30 27391 C 2587.76 -0.584102 -4.20563 0
M  V30 27392 O 2588.78 -0.55695 -3.51819 0
M  V30 27393 O 2587.64 -0.605386 -5.43137 0
M  V30 27394 H 2584.74 -0.0561951 -0.825089 0
M  V30 27395 H 2587.28 -0.846154 -1.471 0
M  V30 27396 H 2586.05 -1.65608 -3.54527 0
M  V30 27397 H 2585.68 0.00396422 -3.976 0
M  V30 27398 N 2586.67 1.48939 -0.515251 0
M  V30 27399 C 2587.95 1.95403 0.0878744 0
M  V30 27400 C 2588.33 1.45715 1.52743 0
M  V30 27401 O 2587.68 0.677131 2.18237 0
M  V30 27402 C 2587.89 3.48997 -0.0141669 0
M  V30 27403 C 2589.24 4.24326 0.152571 0
M  V30 27404 O 2590.26 3.56149 0.0603399 0
M  V30 27405 O 2589.12 5.45418 0.343744 0
M  V30 27406 H 2586.21 0.822363 0.0874492 0
M  V30 27407 H 2588.76 1.59524 -0.578803 0
M  V30 27408 H 2587.53 3.77839 -1.01752 0
M  V30 27409 H 2587.16 3.91531 0.692022 0
M  V30 27410 N 2588.15 0.249709 1.55609 0
M  V30 27411 C 2589.43 -0.424727 1.90933 0
M  V30 27412 C 2589.81 -1.75656 1.17081 0
M  V30 27413 O 2589.16 -2.26662 0.289216 0
M  V30 27414 C 2589.37 -0.590049 3.43976 0
M  V30 27415 C 2590.72 -0.884641 4.15282 0
M  V30 27416 O 2591.74 -0.675809 3.4973 0
M  V30 27417 O 2590.6 -1.2825 5.31238 0
M  V30 27418 H 2587.69 -0.228454 0.794819 0
M  V30 27419 H 2590.24 0.293984 1.67134 0
M  V30 27420 H 2589.01 0.348248 3.89747 0
M  V30 27421 H 2588.63 -1.35919 3.73646 0
M  V30 27422 N 2589.63 -1.57583 -0.0233682 0
M  V30 27423 C 2591.04 -1.7781 -0.569239 0
M  V30 27424 C 2591.39 -0.881503 -1.75283 0
M  V30 27425 O 2590.52 -0.0778186 -2.1626 0
M  V30 27426 C 2591.11 -3.22461 -1.03944 0
M  V30 27427 C 2589.67 -3.43866 -1.53078 0
M  V30 27428 C 2588.82 -2.73264 -0.471406 0
M  V30 27429 H 2591.77 -1.57398 0.202852 0
M  V30 27430 H 2591.79 -3.29289 -1.90655 0
M  V30 27431 H 2591.3 -3.87693 -0.177796 0
M  V30 27432 H 2589.4 -2.83818 -2.41409 0
M  V30 27433 H 2589.52 -4.52494 -1.57436 0
M  V30 27434 H 2587.88 -2.37202 -0.927746 0
M  V30 27435 H 2588.66 -3.41181 0.380868 0
M  V30 27436 N 2591.11 0.29574 -1.548 0
M  V30 27437 C 2592.35 1.03819 -1.76071 0
M  V30 27438 C 2592.71 1.84308 -0.538025 0
M  V30 27439 O 2593.91 2.61348 -0.62856 0
M  V30 27440 C 2592.19 1.91591 -3.01708 0
M  V30 27441 S 2593.74 2.7241 -3.44003 0
M  V30 27442 H 2590.56 0.350051 -0.618858 0
M  V30 27443 H 2593.16 0.311027 -1.9301 0
M  V30 27444 H 2591.87 1.31344 -3.88815 0
M  V30 27445 H 2591.4 2.68666 -2.87371 0
M  V30 27446 H 2593.41 3.94107 -3.01487 0
M  V30 27447 N 2592.59 1.47346 0.559187 0
M  V30 27448 C 2593.81 1.57727 1.34673 0
M  V30 27449 C 2594.24 0.227197 1.86723 0
M  V30 27450 O 2593.6 -0.796613 1.62861 0
M  V30 27451 C 2593.64 2.60451 2.49394 0
M  V30 27452 O 2592.75 2.15585 3.51564 0
M  V30 27453 H 2592.09 0.529917 0.400105 0
M  V30 27454 H 2594.62 1.93111 0.675975 0
M  V30 27455 H 2594.63 2.80808 2.95991 0
M  V30 27456 H 2593.3 3.5848 2.10867 0
M  V30 27457 H 2591.88 2.05318 3.11286 0
M  V30 27458 N 2594.07 -0.805758 1.35445 0
M  V30 27459 C 2595.34 -1.54985 1.19328 0
M  V30 27460 C 2595.72 -2.09873 -0.227257 0
M  V30 27461 O 2595.07 -1.92514 -1.23087 0
M  V30 27462 C 2595.28 -2.65771 2.262 0
M  V30 27463 C 2596.63 -3.34089 2.62049 0
M  V30 27464 O 2597.65 -2.76042 2.2512 0
M  V30 27465 O 2596.51 -4.38953 3.2555 0
M  V30 27466 H 2593.61 -0.684815 0.463635 0
M  V30 27467 H 2596.15 -0.845648 1.47129 0
M  V30 27468 H 2594.92 -2.2309 3.21475 0
M  V30 27469 H 2594.55 -3.43826 1.99673 0
M  V30 27470 N 2595.54 -1.19456 -1.02801 0
M  V30 27471 C 2596.77 -1.02152 -1.79579 0
M  V30 27472 C 2597.18 0.432819 -1.84183 0
M  V30 27473 O 2596.52 1.3124 -1.28537 0
M  V30 27474 C 2596.59 -1.5156 -3.2599 0
M  V30 27475 C 2596.25 -2.99684 -3.4502 0
M  V30 27476 C 2597.25 -3.9744 -3.35168 0
M  V30 27477 C 2594.93 -3.38396 -3.71206 0
M  V30 27478 C 2596.93 -5.31899 -3.51229 0
M  V30 27479 C 2594.61 -4.73014 -3.86912 0
M  V30 27480 C 2595.61 -5.69575 -3.76926 0
M  V30 27481 O 2595.3 -7.01755 -3.92167 0
M  V30 27482 H 2595.03 -0.360337 -0.571955 0
M  V30 27483 H 2597.59 -1.58727 -1.30365 0
M  V30 27484 H 2595.82 -0.893609 -3.76233 0
M  V30 27485 H 2597.5 -1.30451 -3.84366 0
M  V30 27486 H 2598.27 -3.68877 -3.14888 0
M  V30 27487 H 2594.15 -2.63787 -3.78071 0
M  V30 27488 H 2597.69 -6.07253 -3.43351 0
M  V30 27489 H 2593.59 -5.01272 -4.0669 0
M  V30 27490 H 2594.36 -7.0884 -4.09253 0
M  V30 27491 N 2597.02 1.21924 -0.998617 0
M  V30 27492 C 2598.27 1.90137 -0.673119 0
M  V30 27493 C 2598.58 1.7854 0.798919 0
M  V30 27494 O 2599.79 2.41722 1.23624 0
M  V30 27495 C 2598.25 3.40916 -1.15345 0
M  V30 27496 C 2597.85 3.61137 -2.65112 0
M  V30 27497 C 2599.6 4.14794 -0.902549 0
M  V30 27498 C 2597.5 5.05646 -3.06719 0
M  V30 27499 H 2596.43 0.712023 -0.24807 0
M  V30 27500 H 2599.09 1.38047 -1.20894 0
M  V30 27501 H 2597.47 3.92222 -0.545727 0
M  V30 27502 H 2598.64 3.20298 -3.31279 0
M  V30 27503 H 2596.96 3.006 -2.88147 0
M  V30 27504 H 2599.55 5.21312 -1.18904 0
M  V30 27505 H 2599.9 4.15987 0.161276 0
M  V30 27506 H 2600.43 3.69533 -1.47275 0
M  V30 27507 H 2597.17 5.09596 -4.12301 0
M  V30 27508 H 2596.69 5.47365 -2.45259 0
M  V30 27509 H 2598.37 5.7411 -2.98341 0
M  V30 27510 N 2598.5 0.772537 1.37367 0
M  V30 27511 C 2599.45 0.147152 2.32134 0
M  V30 27512 C 2600.44 -0.684079 1.54973 0
M  V30 27513 O 2601.65 -0.581053 1.70364 0
M  V30 27514 H 2598.02 0.0287992 0.751448 0
M  V30 27515 H 2599.99 0.962162 2.82462 0
M  V30 27516 C 2598.74 -0.716971 3.40228 0
M  V30 27517 H 2598.07 -0.0867249 3.99706 0
M  V30 27518 H 2599.51 -1.12151 4.08899 0
M  V30 27519 C 2597.96 -1.86792 2.80375 0
M  V30 27520 O 2598.49 -2.96344 2.71188 0
M  V30 27521 N 2596.7 -1.66878 2.37907 0
M  V30 27522 H 2596.25 -0.777716 2.4558 0
M  V30 27523 H 2596.21 -2.44053 1.98206 0
M  V30 27524 N 2599.98 -1.48664 0.523142 0
M  V30 27525 C 2600.94 -2.28017 -0.232552 0
M  V30 27526 C 2601.94 -1.34974 -0.873997 0
M  V30 27527 O 2603.13 -1.5793 -0.735104 0
M  V30 27528 C 2600.26 -3.13638 -1.3358 0
M  V30 27529 H 2601.46 -2.96288 0.46406 0
M  V30 27530 H 2599.01 -1.53793 0.278843 0
M  V30 27531 H 2599.74 -2.49983 -2.06588 0
M  V30 27532 H 2599.53 -3.82073 -0.881057 0
M  V30 27533 H 2601.02 -3.73515 -1.86753 0
M  V30 27534 N 2601.46 -0.257958 -1.55475 0
M  V30 27535 C 2602.68 0.370453 -2.04065 0
M  V30 27536 C 2603.11 1.49946 -1.13568 0
M  V30 27537 O 2602.46 1.80827 -0.130812 0
M  V30 27538 C 2602.51 0.845176 -3.50555 0
M  V30 27539 O 2601.62 1.95388 -3.63177 0
M  V30 27540 H 2600.96 0.0792128 -0.659258 0
M  V30 27541 H 2603.49 -0.387247 -2.00902 0
M  V30 27542 H 2603.5 1.14548 -3.9159 0
M  V30 27543 H 2602.17 0.0190528 -4.15896 0
M  V30 27544 H 2600.75 1.65742 -3.34042 0
M  V30 27545 N 2602.93 1.57593 0.0150108 0
M  V30 27546 C 2604.16 1.93895 0.713325 0
M  V30 27547 C 2604.57 0.857319 1.68661 0
M  V30 27548 O 2603.92 -0.173756 1.82876 0
M  V30 27549 C 2603.98 3.26092 1.51342 0
M  V30 27550 C 2603.64 4.51555 0.703371 0
M  V30 27551 C 2604.64 5.199 -0.00247062 0
M  V30 27552 C 2602.32 4.98027 0.653766 0
M  V30 27553 C 2604.32 6.33007 -0.747066 0
M  V30 27554 C 2602 6.11027 -0.0945652 0
M  V30 27555 C 2603 6.78372 -0.793728 0
M  V30 27556 O 2602.69 7.89208 -1.52988 0
M  V30 27557 H 2602.42 0.644286 0.204626 0
M  V30 27558 H 2604.98 2.05381 -0.0276772 0
M  V30 27559 H 2603.21 3.10971 2.29856 0
M  V30 27560 H 2604.9 3.47616 2.09566 0
M  V30 27561 H 2605.66 4.84993 0.0267951 0
M  V30 27562 H 2601.54 4.45444 1.18748 0
M  V30 27563 H 2605.08 6.85506 -1.29333 0
M  V30 27564 H 2600.98 6.45378 -0.125705 0
M  V30 27565 H 2601.75 8.05643 -1.44502 0
M  V30 27566 N 2604.41 -0.287527 1.54955 0
M  V30 27567 C 2605.66 -1.01874 1.74082 0
M  V30 27568 C 2605.97 -1.87965 0.541168 0
M  V30 27569 O 2607.18 -2.64454 0.614538 0
M  V30 27570 C 2605.64 -1.86107 3.08046 0
M  V30 27571 C 2605.24 -1.04953 4.35533 0
M  V30 27572 C 2606.99 -2.58746 3.36528 0
M  V30 27573 C 2604.9 -1.88541 5.60541 0
M  V30 27574 H 2603.83 -0.384075 0.648847 0
M  V30 27575 H 2606.48 -0.275069 1.81427 0
M  V30 27576 H 2604.86 -2.64513 2.94701 0
M  V30 27577 H 2606.03 -0.310659 4.59752 0
M  V30 27578 H 2604.35 -0.438357 4.14086 0
M  V30 27579 H 2606.94 -3.21661 4.27128 0
M  V30 27580 H 2607.29 -3.28279 2.56005 0
M  V30 27581 H 2607.82 -1.87379 3.50904 0
M  V30 27582 H 2604.56 -1.23455 6.43769 0
M  V30 27583 H 2604.08 -2.60065 5.40487 0
M  V30 27584 H 2605.76 -2.46262 5.98301 0
M  V30 27585 N 2605.89 -1.47641 -0.551365 0
M  V30 27586 C 2607.3 -1.48356 -1.13346 0
M  V30 27587 C 2607.65 -0.241466 -1.94708 0
M  V30 27588 O 2606.78 0.653169 -2.06307 0
M  V30 27589 C 2607.37 -2.68806 -2.06225 0
M  V30 27590 C 2605.93 -2.72462 -2.59695 0
M  V30 27591 C 2605.08 -2.41549 -1.36197 0
M  V30 27592 H 2608.03 -1.55066 -0.337671 0
M  V30 27593 H 2608.05 -2.46108 -2.90191 0
M  V30 27594 H 2607.56 -3.59191 -1.46981 0
M  V30 27595 H 2605.66 -1.86231 -3.22721 0
M  V30 27596 H 2605.78 -3.73313 -3.0029 0
M  V30 27597 H 2604.14 -1.92253 -1.67065 0
M  V30 27598 H 2604.92 -3.34149 -0.787366 0
M  V30 27599 N 2607.37 0.798563 -1.3587 0
M  V30 27600 C 2608.62 1.55296 -1.29335 0
M  V30 27601 C 2608.94 1.94568 0.129695 0
M  V30 27602 O 2608.21 1.64231 1.06793 0
M  V30 27603 H 2606.79 0.575911 -0.475747 0
M  V30 27604 H 2609.45 0.952063 -1.70064 0
M  V30 27605 H 2608.55 2.46472 -1.91462 0
M  V30 27606 N 2608.85 1.19999 1.02166 0
M  V30 27607 C 2609.79 0.941005 2.12715 0
M  V30 27608 C 2610.79 -0.105811 1.69069 0
M  V30 27609 O 2611.99 0.0440899 1.79946 0
M  V30 27610 H 2608.37 0.286942 0.695103 0
M  V30 27611 H 2610.34 1.87979 2.31747 0
M  V30 27612 C 2609.09 0.50411 3.44026 0
M  V30 27613 H 2608.41 1.30118 3.78033 0
M  V30 27614 H 2609.85 0.362065 4.22451 0
M  V30 27615 C 2608.31 -0.78282 3.27679 0
M  V30 27616 O 2608.84 -1.8425 3.56952 0
M  V30 27617 N 2607.05 -0.742872 2.80944 0
M  V30 27618 H 2606.59 0.119733 2.57322 0
M  V30 27619 H 2606.55 -1.6043 2.70388 0
M  V30 27620 N 2610.32 -1.21392 1.00507 0
M  V30 27621 C 2611.27 -2.25791 0.558663 0
M  V30 27622 C 2612.27 -1.64687 -0.396819 0
M  V30 27623 O 2613.47 -1.77994 -0.268004 0
M  V30 27624 H 2609.85 -0.734274 0.162313 0
M  V30 27625 H 2611.82 -2.60783 1.45034 0
M  V30 27626 C 2610.57 -3.47559 -0.0988963 0
M  V30 27627 H 2609.89 -3.94848 0.627295 0
M  V30 27628 H 2611.33 -4.22343 -0.374526 0
M  V30 27629 C 2609.79 -3.09186 -1.33811 0
M  V30 27630 O 2610.32 -3.19678 -2.43246 0
M  V30 27631 N 2608.53 -2.63848 -1.21789 0
M  V30 27632 H 2608.07 -2.55511 -0.327415 0
M  V30 27633 H 2608.03 -2.38542 -2.04805 0
M  V30 27634 N 2611.8 -0.779811 -1.36955 0
M  V30 27635 C 2613.05 -0.347801 -1.99491 0
M  V30 27636 C 2613.38 1.0779 -1.619 0
M  V30 27637 O 2612.63 1.75755 -0.860741 0
M  V30 27638 C 2612.93 -0.447749 -3.54584 0
M  V30 27639 C 2612.6 -1.83287 -4.11967 0
M  V30 27640 C 2611.26 -2.21187 -4.27352 0
M  V30 27641 C 2613.61 -2.74027 -4.4335 0
M  V30 27642 C 2610.94 -3.49249 -4.71426 0
M  V30 27643 C 2613.29 -4.01506 -4.88851 0
M  V30 27644 C 2611.96 -4.39441 -5.02442 0
M  V30 27645 H 2611.23 -0.127269 -0.729989 0
M  V30 27646 H 2613.87 -0.995405 -1.63597 0
M  V30 27647 H 2612.18 0.283378 -3.90774 0
M  V30 27648 H 2613.87 -0.0946653 -4.00888 0
M  V30 27649 H 2610.46 -1.52832 -4.00425 0
M  V30 27650 H 2614.65 -2.46002 -4.31041 0
M  V30 27651 H 2609.9 -3.78524 -4.80135 0
M  V30 27652 H 2614.08 -4.7194 -5.121 0
M  V30 27653 H 2611.71 -5.3873 -5.36353 0
M  V30 27654 N 2613.28 1.48384 -0.531019 0
M  V30 27655 C 2614.7 1.58478 -0.188946 0
M  V30 27656 C 2614.9 1.5329 1.30783 0
M  V30 27657 O 2613.95 1.42252 2.08616 0
M  V30 27658 C 2615.27 2.90072 -0.792394 0
M  V30 27659 C 2616.81 3.03602 -0.761223 0
M  V30 27660 C 2617.29 4.37859 -1.34327 0
M  V30 27661 N 2618.78 4.44428 -1.30528 0
M  V30 27662 C 2619.51 5.46821 -1.72552 0
M  V30 27663 N 2619.01 6.56163 -2.2231 0
M  V30 27664 N 2620.8 5.3771 -1.63783 0
M  V30 27665 H 2612.95 1.49999 -1.5038 0
M  V30 27666 H 2615.22 0.712295 -0.625571 0
M  V30 27667 H 2614.92 2.99526 -1.84328 0
M  V30 27668 H 2614.8 3.76232 -0.270092 0
M  V30 27669 H 2617.18 2.9376 0.280905 0
M  V30 27670 H 2617.27 2.19051 -1.321 0
M  V30 27671 H 2616.91 4.48455 -2.38433 0
M  V30 27672 H 2616.84 5.21099 -0.759156 0
M  V30 27673 H 2619.33 3.65996 -0.941038 0
M  V30 27674 H 2619.64 7.30431 -2.52369 0
M  V30 27675 H 2617.99 6.57123 -2.26305 0
M  V30 27676 H 2621.18 4.51183 -1.24706 0
M  V30 27677 H 2621.35 6.17375 -1.96854 0
M  V30 27678 N 2614.76 0.2662 1.55336 0
M  V30 27679 C 2616.17 -0.0881785 1.59356 0
M  V30 27680 C 2616.37 -1.5534 1.28343 0
M  V30 27681 O 2615.43 -2.30087 1.04 0
M  V30 27682 C 2616.74 0.278416 2.99408 0
M  V30 27683 C 2618.29 0.224298 3.12195 0
M  V30 27684 C 2618.77 0.565203 4.54499 0
M  V30 27685 N 2620.26 0.516421 4.60312 0
M  V30 27686 C 2620.99 0.753113 5.68433 0
M  V30 27687 N 2620.49 1.05395 6.84736 0
M  V30 27688 N 2622.28 0.682512 5.57941 0
M  V30 27689 H 2614.43 1.22151 1.73761 0
M  V30 27690 H 2616.7 0.492856 0.809813 0
M  V30 27691 H 2616.4 1.29708 3.26908 0
M  V30 27692 H 2616.28 -0.38512 3.75229 0
M  V30 27693 H 2618.66 -0.78507 2.84466 0
M  V30 27694 H 2618.74 0.921964 2.38607 0
M  V30 27695 H 2618.39 1.57222 4.82953 0
M  V30 27696 H 2618.32 -0.154155 5.26374 0
M  V30 27697 H 2620.81 0.293416 3.76759 0
M  V30 27698 H 2621.12 1.22146 7.63086 0
M  V30 27699 H 2619.47 1.09163 6.86373 0
M  V30 27700 H 2622.66 0.447391 4.65957 0
M  V30 27701 H 2622.83 0.870361 6.42128 0
M  V30 27702 N 2616.24 -1.57599 -0.0066531 0
M  V30 27703 C 2617.15 -2.11426 -1.01667 0
M  V30 27704 C 2618.16 -1.05797 -1.38141 0
M  V30 27705 O 2619.34 -1.37661 -1.47008 0
M  V30 27706 C 2616.4 -2.60143 -2.29187 0
M  V30 27707 C 2615.46 -3.80346 -1.99087 0
M  V30 27708 C 2614.7 -4.26729 -3.20528 0
M  V30 27709 O 2614.92 -3.72487 -4.31984 0
M  V30 27710 O 2613.85 -5.18952 -3.04915 0
M  V30 27711 H 2617.68 -2.97931 -0.589129 0
M  V30 27712 H 2615.27 -1.47695 -0.225065 0
M  V30 27713 H 2617.15 -2.91706 -3.04115 0
M  V30 27714 H 2615.82 -1.76738 -2.71192 0
M  V30 27715 H 2614.73 -3.53766 -1.21657 0
M  V30 27716 H 2616.06 -4.64803 -1.61923 0
M  V30 27717 N 2617.72 0.279305 -1.55105 0
M  V30 27718 C 2618.95 1.02864 -1.79172 0
M  V30 27719 C 2619.35 1.80658 -0.562072 0
M  V30 27720 O 2618.7 1.77366 0.478235 0
M  V30 27721 C 2618.76 2.03927 -2.96064 0
M  V30 27722 C 2618.42 1.45129 -4.33343 0
M  V30 27723 C 2619.42 0.870176 -5.12566 0
M  V30 27724 C 2617.1 1.48039 -4.79989 0
M  V30 27725 C 2619.1 0.325985 -6.36566 0
M  V30 27726 C 2616.79 0.932337 -6.03946 0
M  V30 27727 C 2617.78 0.356127 -6.82071 0
M  V30 27728 O 2617.47 -0.183553 -8.0369 0
M  V30 27729 H 2617.2 0.309861 -0.600801 0
M  V30 27730 H 2619.76 0.317432 -2.02932 0
M  V30 27731 H 2617.99 2.78789 -2.6798 0
M  V30 27732 H 2619.68 2.64938 -3.07511 0
M  V30 27733 H 2620.44 0.840437 -4.77663 0
M  V30 27734 H 2616.32 1.91828 -4.19193 0
M  V30 27735 H 2619.87 -0.124409 -6.97489 0
M  V30 27736 H 2615.76 0.959295 -6.38332 0
M  V30 27737 H 2616.53 -0.0723119 -8.18468 0
M  V30 27738 N 2619.19 1.47931 0.543528 0
M  V30 27739 C 2620.44 1.54514 1.29647 0
M  V30 27740 C 2620.76 0.218007 1.94381 0
M  V30 27741 O 2621.96 0.161955 2.71017 0
M  V30 27742 C 2620.42 2.72439 2.3517 0
M  V30 27743 C 2620.03 4.11739 1.76565 0
M  V30 27744 C 2621.77 2.88325 3.11559 0
M  V30 27745 C 2619.68 5.20944 2.79949 0
M  V30 27746 H 2618.61 0.575178 0.487531 0
M  V30 27747 H 2621.26 1.74236 0.575677 0
M  V30 27748 H 2619.64 2.46124 3.10224 0
M  V30 27749 H 2620.81 4.48015 1.07791 0
M  V30 27750 H 2619.13 4.00854 1.12715 0
M  V30 27751 H 2621.73 3.6708 3.88788 0
M  V30 27752 H 2622.07 1.97275 3.6659 0
M  V30 27753 H 2622.6 3.14476 2.43618 0
M  V30 27754 H 2619.34 6.13916 2.29755 0
M  V30 27755 H 2618.86 4.8917 3.47092 0
M  V30 27756 H 2620.54 5.4848 3.43189 0
M  V30 27757 N 2620.67 -0.791347 1.36292 0
M  V30 27758 C 2621.92 -1.55143 1.30608 0
M  V30 27759 C 2622.25 -1.93859 -0.115008 0
M  V30 27760 O 2621.53 -1.62558 -1.06795 0
M  V30 27761 C 2621.81 -2.82981 2.22697 0
M  V30 27762 C 2621.66 -2.50644 3.73494 0
M  V30 27763 C 2622.98 -3.84792 2.13595 0
M  V30 27764 H 2620.1 -0.56286 0.475771 0
M  V30 27765 H 2622.74 -0.909328 1.66827 0
M  V30 27766 H 2620.89 -3.37775 1.91939 0
M  V30 27767 H 2622.56 -2.01917 4.14762 0
M  V30 27768 H 2620.81 -1.83615 3.93024 0
M  V30 27769 H 2621.48 -3.41941 4.33336 0
M  V30 27770 H 2623.95 -3.3944 2.40665 0
M  V30 27771 H 2622.83 -4.71993 2.80203 0
M  V30 27772 H 2623.09 -4.27609 1.12264 0
M  V30 27773 N 2622.15 -1.2054 -1.01528 0
M  V30 27774 C 2623.38 -1.04202 -1.78744 0
M  V30 27775 C 2623.79 0.4087 -1.84323 0
M  V30 27776 O 2623.15 1.28374 -1.29716 0
M  V30 27777 C 2623.2 -1.6204 -3.23149 0
M  V30 27778 O 2622.92 -3.01435 -3.17913 0
M  V30 27779 C 2624.42 -1.50673 -4.16908 0
M  V30 27780 H 2621.64 -0.366488 -0.562074 0
M  V30 27781 H 2624.19 -1.59655 -1.27791 0
M  V30 27782 H 2622.34 -1.10704 -3.71246 0
M  V30 27783 H 2622.76 -3.28904 -4.08561 0
M  V30 27784 H 2624.23 -1.95901 -5.16069 0
M  V30 27785 H 2624.71 -0.45944 -4.3679 0
M  V30 27786 H 2625.31 -2.01207 -3.74694 0
M  V30 27787 N 2623.63 1.20858 -1.01149 0
M  V30 27788 C 2624.56 2.22854 -0.535585 0
M  V30 27789 C 2625.57 1.5832 0.379296 0
M  V30 27790 O 2626.76 1.77606 0.178458 0
M  V30 27791 C 2623.86 3.38043 0.240902 0
M  V30 27792 C 2623.03 4.32166 -0.674638 0
M  V30 27793 C 2622.09 5.26173 0.0533745 0
M  V30 27794 O 2621.12 5.66365 -0.567439 0
M  V30 27795 N 2622.32 5.65062 1.32987 0
M  V30 27796 H 2625.09 2.64314 -1.41273 0
M  V30 27797 H 2622.65 1.35347 -0.88841 0
M  V30 27798 H 2624.64 3.97932 0.737046 0
M  V30 27799 H 2623.21 2.95515 1.0193 0
M  V30 27800 H 2622.43 3.7032 -1.35117 0
M  V30 27801 H 2623.72 4.91978 -1.29748 0
M  V30 27802 H 2623.12 5.34412 1.85527 0
M  V30 27803 H 2621.67 6.27283 1.77084 0
M  V30 27804 N 2625.11 0.787064 1.3654 0
M  V30 27805 C 2626.35 0.357668 1.9891 0
M  V30 27806 C 2626.67 -1.07368 1.6278 0
M  V30 27807 O 2625.94 -1.73969 0.900642 0
M  V30 27808 H 2624.52 0.129259 0.735732 0
M  V30 27809 H 2627.19 1.00858 1.66774 0
M  V30 27810 H 2626.28 0.447603 3.08874 0
M  V30 27811 N 2626.58 -1.48101 0.53888 0
M  V30 27812 C 2627.99 -1.86428 0.100711 0
M  V30 27813 C 2628.35 -1.44751 -1.32445 0
M  V30 27814 O 2627.47 -0.842234 -1.99337 0
M  V30 27815 C 2628.07 -3.38343 0.175992 0
M  V30 27816 C 2626.62 -3.7583 -0.207032 0
M  V30 27817 C 2625.77 -2.72153 0.531789 0
M  V30 27818 H 2628.72 -1.39879 0.749639 0
M  V30 27819 H 2628.74 -3.75577 -0.610078 0
M  V30 27820 H 2628.26 -3.68645 1.21335 0
M  V30 27821 H 2626.36 -3.51142 -1.24619 0
M  V30 27822 H 2626.47 -4.78899 0.138772 0
M  V30 27823 H 2624.83 -2.5469 -0.0230014 0
M  V30 27824 H 2625.62 -3.05299 1.56995 0
M  V30 27825 N 2628.06 -0.274434 -1.55192 0
M  V30 27826 C 2628.99 0.606993 -2.25473 0
M  V30 27827 C 2629.97 1.15944 -1.24463 0
M  V30 27828 O 2631.16 1.1937 -1.53181 0
M  V30 27829 C 2628.29 1.79147 -2.97529 0
M  V30 27830 C 2627.24 1.37059 -4.05461 0
M  V30 27831 C 2626.57 2.63812 -4.65089 0
M  V30 27832 C 2627.87 0.521298 -5.19692 0
M  V30 27833 H 2629.56 0.0208817 -2.99393 0
M  V30 27834 H 2627.11 0.00860334 -1.43997 0
M  V30 27835 H 2629.06 2.41398 -3.45406 0
M  V30 27836 H 2627.78 2.4034 -2.21143 0
M  V30 27837 H 2626.44 0.771292 -3.58395 0
M  V30 27838 H 2626.09 3.23262 -3.85371 0
M  V30 27839 H 2625.79 2.36363 -5.37965 0
M  V30 27840 H 2627.32 3.26912 -5.15714 0
M  V30 27841 H 2628.73 1.04879 -5.63625 0
M  V30 27842 H 2627.13 0.34172 -5.99126 0
M  V30 27843 H 2628.2 -0.460085 -4.82712 0
M  V30 27844 N 2629.54 1.576 -0.00170483 0
M  V30 27845 C 2630.95 1.78694 0.540879 0
M  V30 27846 C 2631.3 0.909278 1.73858 0
M  V30 27847 O 2630.43 0.112214 2.16109 0
M  V30 27848 C 2631.02 3.24074 0.988003 0
M  V30 27849 C 2629.58 3.46258 1.47588 0
M  V30 27850 C 2628.73 2.73979 0.427872 0
M  V30 27851 H 2631.68 1.57056 -0.227867 0
M  V30 27852 H 2631.7 3.3228 1.85392 0
M  V30 27853 H 2631.21 3.87926 0.116095 0
M  V30 27854 H 2629.31 2.87623 2.36863 0
M  V30 27855 H 2629.43 4.54941 1.50217 0
M  V30 27856 H 2627.79 2.38648 0.889892 0
M  V30 27857 H 2628.57 3.40532 -0.435098 0
M  V30 27858 N 2631.02 -0.271076 1.55251 0
M  V30 27859 C 2632.27 -1.00044 1.75601 0
M  V30 27860 C 2632.59 -1.86749 0.56122 0
M  V30 27861 O 2631.86 -1.91261 -0.423813 0
M  V30 27862 H 2630.44 -0.372376 0.647569 0
M  V30 27863 H 2633.1 -0.294843 1.92657 0
M  V30 27864 H 2632.19 -1.63626 2.65769 0
M  V30 27865 N 2632.5 -1.48217 -0.535675 0
M  V30 27866 C 2633.72 -1.59596 -1.31669 0
M  V30 27867 C 2634.14 -0.254089 -1.87082 0
M  V30 27868 O 2633.5 0.755825 -1.66113 0
M  V30 27869 C 2633.55 -2.63813 -2.47154 0
M  V30 27870 O 2633.27 -3.92793 -1.94025 0
M  V30 27871 C 2634.77 -2.85579 -3.39057 0
M  V30 27872 H 2631.99 -0.538284 -0.400614 0
M  V30 27873 H 2634.53 -1.94002 -0.646793 0
M  V30 27874 H 2632.69 -2.32282 -3.10039 0
M  V30 27875 H 2633.1 -4.49921 -2.69577 0
M  V30 27876 H 2634.58 -3.62314 -4.16453 0
M  V30 27877 H 2635.05 -1.94191 -3.93937 0
M  V30 27878 H 2635.66 -3.18392 -2.8197 0
M  V30 27879 N 2633.97 0.784108 -1.3671 0
M  V30 27880 C 2634.92 1.89696 -1.31469 0
M  V30 27881 C 2635.89 1.65095 -0.182419 0
M  V30 27882 O 2637.08 1.87182 -0.369795 0
M  V30 27883 C 2634.22 3.26586 -1.11516 0
M  V30 27884 C 2633.33 3.63223 -2.33865 0
M  V30 27885 C 2632.46 4.89258 -2.06882 0
M  V30 27886 C 2631.5 5.1859 -3.25163 0
M  V30 27887 N 2630.64 6.35809 -2.97811 0
M  V30 27888 H 2635.48 1.93511 -2.26622 0
M  V30 27889 H 2633.02 0.946236 -1.12627 0
M  V30 27890 H 2634.98 4.05533 -0.979724 0
M  V30 27891 H 2633.61 3.22179 -0.200159 0
M  V30 27892 H 2632.66 2.79357 -2.58193 0
M  V30 27893 H 2633.97 3.80845 -3.22116 0
M  V30 27894 H 2633.12 5.76083 -1.90299 0
M  V30 27895 H 2631.86 4.73716 -1.1595 0
M  V30 27896 H 2630.87 4.30245 -3.423 0
M  V30 27897 H 2632.09 5.36047 -4.16929 0
M  V30 27898 H 2630.04 6.21649 -2.09496 0
M  V30 27899 H 2629.96 6.53788 -3.79602 0
M  V30 27900 H 2631.22 7.25602 -2.84818 0
M  V30 27901 N 2635.45 1.21076 1.00888 0
M  V30 27902 C 2636.73 0.934499 1.71833 0
M  V30 27903 C 2637.11 -0.554717 2.03681 0
M  V30 27904 O 2636.46 -1.51851 1.70744 0
M  V30 27905 C 2636.67 1.81555 2.98058 0
M  V30 27906 C 2638.02 2.06206 3.71166 0
M  V30 27907 O 2639.04 1.78872 3.08031 0
M  V30 27908 O 2637.9 2.52412 4.84717 0
M  V30 27909 H 2634.99 0.350083 0.749247 0
M  V30 27910 H 2637.54 1.31987 1.06666 0
M  V30 27911 H 2636.31 2.8236 2.70903 0
M  V30 27912 H 2635.93 1.43075 3.70965 0
M  V30 27913 N 2636.93 -1.2032 1.01789 0
M  V30 27914 C 2638.21 -1.85413 0.62301 0
M  V30 27915 C 2638.59 -1.91007 -0.898853 0
M  V30 27916 O 2637.94 -1.41887 -1.79109 0
M  V30 27917 C 2638.15 -3.24982 1.27231 0
M  V30 27918 C 2639.49 -4.01253 1.38857 0
M  V30 27919 O 2640.52 -3.3434 1.22863 0
M  V30 27920 O 2639.38 -5.21087 1.64715 0
M  V30 27921 H 2636.47 -0.798529 0.21513 0
M  V30 27922 H 2639.02 -1.27899 1.11535 0
M  V30 27923 H 2637.79 -3.15683 2.31215 0
M  V30 27924 H 2637.41 -3.90129 0.767138 0
M  V30 27925 N 2638.41 -0.794293 -1.3612 0
M  V30 27926 C 2639.66 -0.36894 -1.99111 0
M  V30 27927 C 2639.98 1.06067 -1.63034 0
M  V30 27928 O 2639.24 1.74832 -0.879334 0
M  V30 27929 C 2639.54 -0.485332 -3.54089 0
M  V30 27930 C 2639.2 -1.87646 -4.1 0
M  V30 27931 C 2637.87 -2.25707 -4.24982 0
M  V30 27932 C 2640.22 -2.78714 -4.40418 0
M  V30 27933 C 2637.55 -3.54229 -4.67695 0
M  V30 27934 C 2639.9 -4.06668 -4.84565 0
M  V30 27935 C 2638.56 -4.44745 -4.97753 0
M  V30 27936 H 2637.83 -0.135005 -0.728598 0
M  V30 27937 H 2640.48 -1.0127 -1.62532 0
M  V30 27938 H 2638.78 0.241916 -3.91052 0
M  V30 27939 H 2640.48 -0.13718 -4.00765 0
M  V30 27940 H 2637.07 -1.57071 -3.98782 0
M  V30 27941 H 2641.25 -2.5056 -4.28408 0
M  V30 27942 H 2636.51 -3.83595 -4.76093 0
M  V30 27943 H 2640.68 -4.77345 -5.07065 0
M  V30 27944 H 2638.31 -5.44388 -5.30608 0
M  V30 27945 N 2639.89 1.47813 -0.546727 0
M  V30 27946 C 2641.13 2.03382 -0.0269952 0
M  V30 27947 C 2641.49 1.41466 1.30403 0
M  V30 27948 O 2640.78 0.557183 1.83319 0
M  V30 27949 C 2640.97 3.57146 0.134807 0
M  V30 27950 C 2640.8 4.3397 -1.17899 0
M  V30 27951 C 2639.57 4.7427 -1.74344 0
M  V30 27952 C 2641.77 4.69754 -2.09369 0
M  V30 27953 N 2639.75 5.35696 -2.99838 0
M  V30 27954 C 2641.12 5.31373 -3.19441 0
M  V30 27955 C 2643.18 4.51683 -2.09492 0
M  V30 27956 C 2641.88 5.7683 -4.2972 0
M  V30 27957 C 2643.91 4.98132 -3.18776 0
M  V30 27958 C 2643.27 5.59791 -4.27566 0
M  V30 27959 H 2639.37 0.780283 -0.0517871 0
M  V30 27960 H 2641.95 1.80428 -0.731705 0
M  V30 27961 H 2640.12 3.79889 0.808624 0
M  V30 27962 H 2641.86 3.99354 0.655656 0
M  V30 27963 H 2638.61 4.55898 -1.28273 0
M  V30 27964 H 2639.04 5.70961 -3.63775 0
M  V30 27965 H 2643.68 4.03379 -1.2667 0
M  V30 27966 H 2641.4 6.24132 -5.13308 0
M  V30 27967 H 2644.98 4.85928 -3.19945 0
M  V30 27968 H 2643.86 5.95079 -5.10735 0
M  V30 27969 N 2641.36 0.28266 1.55044 0
M  V30 27970 C 2642.31 -0.601526 2.22823 0
M  V30 27971 C 2643.28 -1.1439 1.20433 0
M  V30 27972 O 2644.47 -1.19181 1.48998 0
M  V30 27973 C 2641.61 -1.77627 2.95876 0
M  V30 27974 C 2640.72 -1.26703 4.13002 0
M  V30 27975 C 2639.85 -2.40418 4.7368 0
M  V30 27976 C 2638.89 -1.86535 5.82985 0
M  V30 27977 N 2638.03 -2.93751 6.37695 0
M  V30 27978 H 2642.87 -0.0169004 2.97995 0
M  V30 27979 H 2640.41 0.0034255 1.471 0
M  V30 27980 H 2642.37 -2.46691 3.36451 0
M  V30 27981 H 2641 -2.33281 2.23114 0
M  V30 27982 H 2640.05 -0.469247 3.77495 0
M  V30 27983 H 2641.36 -0.832431 4.91805 0
M  V30 27984 H 2640.51 -3.17461 5.17014 0
M  V30 27985 H 2639.25 -2.87196 3.94169 0
M  V30 27986 H 2638.26 -1.07973 5.39094 0
M  V30 27987 H 2639.48 -1.40683 6.64368 0
M  V30 27988 H 2637.43 -3.39898 5.61075 0
M  V30 27989 H 2637.35 -2.54731 7.11792 0
M  V30 27990 H 2638.61 -3.70748 6.85687 0
M  V30 27991 N 2642.84 -1.57597 0.0100627 0
M  V30 27992 C 2643.78 -2.04518 -1.0123 0
M  V30 27993 C 2644.75 -0.937047 -1.32884 0
M  V30 27994 O 2645.94 -1.20594 -1.44877 0
M  V30 27995 C 2643.06 -2.45125 -2.33734 0
M  V30 27996 C 2642.11 -3.66771 -2.17673 0
M  V30 27997 S 2642.94 -5.14256 -1.49334 0
M  V30 27998 C 2644.1 -5.58142 -2.83247 0
M  V30 27999 H 2644.33 -2.90916 -0.612815 0
M  V30 28000 H 2641.87 -1.53085 -0.201097 0
M  V30 28001 H 2643.82 -2.69187 -3.09917 0
M  V30 28002 H 2642.48 -1.59108 -2.7082 0
M  V30 28003 H 2641.68 -3.92967 -3.15583 0
M  V30 28004 H 2641.28 -3.42762 -1.49634 0
M  V30 28005 H 2643.57 -5.61217 -3.79529 0
M  V30 28006 H 2644.51 -6.57951 -2.61738 0
M  V30 28007 H 2644.92 -4.85732 -2.87618 0
M  V30 28008 N 2644.32 0.262839 -1.55393 0
M  V30 28009 C 2645.57 0.994549 -1.76739 0
M  V30 28010 C 2645.9 1.8557 -0.572486 0
M  V30 28011 O 2645.17 1.89694 0.429698 0
M  V30 28012 C 2645.46 1.86854 -3.07827 0
M  V30 28013 C 2645.31 1.03665 -4.37691 0
M  V30 28014 C 2646.63 2.85387 -3.35026 0
M  V30 28015 H 2643.75 0.360146 -0.643012 0
M  V30 28016 H 2646.39 0.266183 -1.88126 0
M  V30 28017 H 2644.54 2.48956 -2.9825 0
M  V30 28018 H 2646.21 0.435549 -4.59239 0
M  V30 28019 H 2644.46 0.340437 -4.32462 0
M  V30 28020 H 2645.13 1.6816 -5.25762 0
M  V30 28021 H 2647.6 2.3342 -3.44462 0
M  V30 28022 H 2646.48 3.43674 -4.27995 0
M  V30 28023 H 2646.74 3.61035 -2.55159 0
M  V30 28024 N 2645.8 1.48499 0.527807 0
M  V30 28025 C 2647.04 1.57838 1.28292 0
M  V30 28026 C 2647.4 0.249977 1.90769 0
M  V30 28027 O 2646.69 -0.747371 1.76423 0
M  V30 28028 C 2646.89 2.65489 2.39271 0
M  V30 28029 C 2646.72 4.08668 1.87672 0
M  V30 28030 C 2645.49 4.75781 1.70178 0
M  V30 28031 C 2647.68 4.94765 1.404 0
M  V30 28032 N 2645.67 6.03368 1.13228 0
M  V30 28033 C 2647.04 6.12615 0.954108 0
M  V30 28034 C 2649.09 4.80973 1.28723 0
M  V30 28035 C 2647.79 7.18192 0.399023 0
M  V30 28036 C 2649.82 5.86674 0.746141 0
M  V30 28037 C 2649.18 7.03734 0.306334 0
M  V30 28038 H 2645.28 0.632107 0.460397 0
M  V30 28039 H 2647.87 1.85389 0.594881 0
M  V30 28040 H 2646.04 2.39756 3.05568 0
M  V30 28041 H 2647.77 2.645 3.06303 0
M  V30 28042 H 2644.52 4.32148 1.93765 0
M  V30 28043 H 2644.95 6.71418 0.867569 0
M  V30 28044 H 2649.59 3.9081 1.61331 0
M  V30 28045 H 2647.31 8.08077 0.0606258 0
M  V30 28046 H 2650.89 5.78056 0.65894 0
M  V30 28047 H 2649.77 7.84129 -0.105845 0
M  V30 28048 N 2647.28 -0.776847 1.37123 0
M  V30 28049 C 2648.19 -1.92108 1.34654 0
M  V30 28050 C 2649.2 -1.7224 0.246854 0
M  V30 28051 O 2650.38 -1.95563 0.481374 0
M  V30 28052 C 2647.44 -3.27158 1.14754 0
M  V30 28053 C 2646.51 -3.59716 2.34314 0
M  V30 28054 C 2645.74 -4.88322 2.15354 0
M  V30 28055 O 2645.96 -5.5899 1.13517 0
M  V30 28056 O 2644.9 -5.19825 3.03423 0
M  V30 28057 H 2648.72 -1.97142 2.31017 0
M  V30 28058 H 2646.31 -0.918881 1.178 0
M  V30 28059 H 2648.19 -4.07948 1.05623 0
M  V30 28060 H 2646.86 -3.22988 0.214618 0
M  V30 28061 H 2645.77 -2.79181 2.49016 0
M  V30 28062 H 2647.1 -3.68623 3.26156 0
M  V30 28063 N 2648.76 -1.2161 -1.00244 0
M  V30 28064 C 2649.69 -0.935438 -2.09242 0
M  V30 28065 C 2650.7 0.0823308 -1.62592 0
M  V30 28066 O 2651.89 -0.150487 -1.77865 0
M  V30 28067 C 2648.99 -0.383512 -3.36723 0
M  V30 28068 C 2648.16 -1.45623 -4.12447 0
M  V30 28069 C 2647.22 -0.913082 -5.18217 0
M  V30 28070 O 2646.25 -1.59711 -5.46334 0
M  V30 28071 N 2647.45 0.270377 -5.7987 0
M  V30 28072 H 2650.21 -1.87377 -2.33902 0
M  V30 28073 H 2647.78 -1.12169 -1.16746 0
M  V30 28074 H 2649.77 -0.0056927 -4.047 0
M  V30 28075 H 2648.34 0.459704 -3.09201 0
M  V30 28076 H 2647.56 -2.00778 -3.39237 0
M  V30 28077 H 2648.85 -2.17825 -4.59815 0
M  V30 28078 H 2648.24 0.843097 -5.59382 0
M  V30 28079 H 2646.8 0.58968 -6.49127 0
M  V30 28080 N 2650.23 1.19778 -1.02425 0
M  V30 28081 C 2651.18 2.24874 -0.594514 0
M  V30 28082 C 2652.18 1.65297 0.370569 0
M  V30 28083 O 2653.38 1.78397 0.239653 0
M  V30 28084 H 2649.76 0.731599 -0.173974 0
M  V30 28085 H 2651.73 2.58442 -1.49165 0
M  V30 28086 C 2650.48 3.47673 0.0435901 0
M  V30 28087 H 2649.8 3.938 -0.690032 0
M  V30 28088 H 2651.24 4.22885 0.307287 0
M  V30 28089 C 2649.7 3.11276 1.28876 0
M  V30 28090 O 2650.23 3.23508 2.3813 0
M  V30 28091 N 2648.43 2.65752 1.17576 0
M  V30 28092 H 2647.98 2.55999 0.286724 0
M  V30 28093 H 2647.94 2.4177 2.00984 0
M  V30 28094 N 2651.71 0.801501 1.35697 0
M  V30 28095 C 2652.96 0.380057 1.99207 0
M  V30 28096 C 2653.29 -1.04875 1.63447 0
M  V30 28097 O 2652.57 -1.72672 0.895253 0
M  V30 28098 C 2652.85 0.55777 3.55754 0
M  V30 28099 C 2652.7 2.03114 4.01329 0
M  V30 28100 C 2654.02 -0.0197195 4.40096 0
M  V30 28101 H 2651.14 0.139565 0.723665 0
M  V30 28102 H 2653.78 1.01009 1.60926 0
M  V30 28103 H 2651.93 0.0214424 3.88494 0
M  V30 28104 H 2653.6 2.62946 3.79021 0
M  V30 28105 H 2651.85 2.52942 3.52424 0
M  V30 28106 H 2652.52 2.10639 5.1023 0
M  V30 28107 H 2654.99 0.438251 4.13786 0
M  V30 28108 H 2653.87 0.134573 5.48735 0
M  V30 28109 H 2654.13 -1.11296 4.27862 0
M  V30 28110 N 2653.19 -1.47521 0.554558 0
M  V30 28111 C 2654.14 -2.26984 -0.214968 0
M  V30 28112 C 2655.12 -1.34195 -0.887716 0
M  V30 28113 O 2656.32 -1.58568 -0.786461 0
M  V30 28114 C 2653.44 -3.19891 -1.24598 0
M  V30 28115 C 2652.53 -4.2016 -0.576783 0
M  V30 28116 N 2652.92 -5.04576 0.35163 0
M  V30 28117 C 2651.22 -4.38189 -0.831027 0
M  V30 28118 C 2651.92 -5.76973 0.740096 0
M  V30 28119 N 2650.9 -5.43516 0.0955362 0
M  V30 28120 H 2654.7 -2.89635 0.498894 0
M  V30 28121 H 2652.21 -1.58028 0.374307 0
M  V30 28122 H 2654.21 -3.75501 -1.81121 0
M  V30 28123 H 2652.87 -2.58798 -1.96097 0
M  V30 28124 H 2653.88 -5.12791 0.725646 0
M  V30 28125 H 2650.56 -3.88269 -1.53472 0
M  V30 28126 H 2651.95 -6.54878 1.50282 0
M  V30 28127 N 2654.67 -0.290879 -1.54892 0
M  V30 28128 C 2655.62 0.605537 -2.2458 0
M  V30 28129 C 2656.61 1.1452 -1.24826 0
M  V30 28130 O 2657.82 1.09701 -1.42708 0
M  V30 28131 H 2654.19 0.21386 -0.720949 0
M  V30 28132 H 2656.16 -0.00486975 -2.984 0
M  V30 28133 C 2654.91 1.77083 -2.99227 0
M  V30 28134 H 2654.23 1.36477 -3.75784 0
M  V30 28135 H 2655.67 2.37434 -3.51285 0
M  V30 28136 C 2654.13 2.66884 -2.05607 0
M  V30 28137 O 2654.66 3.67695 -1.61751 0
M  V30 28138 N 2652.87 2.34396 -1.71775 0
M  V30 28139 H 2652.42 1.52464 -2.07636 0
M  V30 28140 H 2652.37 2.94749 -1.09409 0
M  V30 28141 N 2656.15 1.57589 -0.0184203 0
M  V30 28142 C 2657.39 1.90533 0.661816 0
M  V30 28143 C 2657.71 0.895397 1.73902 0
M  V30 28144 O 2658.91 1.1157 2.47516 0
M  V30 28145 C 2657.37 3.38288 1.22838 0
M  V30 28146 C 2656.98 4.47618 0.185024 0
M  V30 28147 C 2658.72 3.80316 1.88575 0
M  V30 28148 C 2656.63 5.86462 0.76262 0
M  V30 28149 H 2655.56 0.71101 0.25096 0
M  V30 28150 H 2658.21 1.83317 -0.0819757 0
M  V30 28151 H 2656.59 3.40401 2.02344 0
M  V30 28152 H 2657.77 4.57049 -0.58679 0
M  V30 28153 H 2656.08 4.14726 -0.372962 0
M  V30 28154 H 2658.68 4.81397 2.32726 0
M  V30 28155 H 2659.02 3.14806 2.72402 0
M  V30 28156 H 2659.55 3.8058 1.15775 0
M  V30 28157 H 2656.29 6.55489 -0.0372865 0
M  V30 28158 H 2655.81 5.80659 1.50317 0
M  V30 28159 H 2657.49 6.34699 1.25565 0
M  V30 28160 N 2657.62 -0.254594 1.5553 0
M  V30 28161 C 2658.87 -0.985162 1.77264 0
M  V30 28162 C 2659.2 -1.85264 0.582319 0
M  V30 28163 O 2658.48 -1.89919 -0.419632 0
M  V30 28164 C 2658.76 -1.85219 3.08814 0
M  V30 28165 C 2658.61 -1.01342 4.38235 0
M  V30 28166 C 2659.93 -2.83606 3.36535 0
M  V30 28167 H 2657.05 -0.356731 0.644913 0
M  V30 28168 H 2659.69 -0.256202 1.88265 0
M  V30 28169 H 2657.84 -2.47371 2.99566 0
M  V30 28170 H 2659.52 -0.411189 4.59464 0
M  V30 28171 H 2657.76 -0.317498 4.32637 0
M  V30 28172 H 2658.43 -1.6537 5.26647 0
M  V30 28173 H 2660.91 -2.3159 3.45695 0
M  V30 28174 H 2659.78 -3.41399 4.29811 0
M  V30 28175 H 2660.04 -3.59677 2.5707 0
M  V30 28176 N 2659.1 -1.48777 -0.519925 0
M  V30 28177 C 2660.03 -1.58628 -1.6405 0
M  V30 28178 C 2661.01 -0.436208 -1.5664 0
M  V30 28179 O 2662.2 -0.64919 -1.76968 0
M  V30 28180 C 2659.32 -1.52364 -3.02494 0
M  V30 28181 C 2658.37 -2.72337 -3.2823 0
M  V30 28182 S 2659.2 -4.34208 -3.13406 0
M  V30 28183 C 2660.36 -4.30559 -4.54279 0
M  V30 28184 H 2660.59 -2.53425 -1.55445 0
M  V30 28185 H 2658.12 -1.37434 -0.703657 0
M  V30 28186 H 2660.08 -1.49437 -3.82334 0
M  V30 28187 H 2658.74 -0.588878 -3.0853 0
M  V30 28188 H 2657.94 -2.6412 -4.29251 0
M  V30 28189 H 2657.54 -2.72579 -2.5608 0
M  V30 28190 H 2659.83 -4.01112 -5.45999 0
M  V30 28191 H 2660.77 -5.31793 -4.67548 0
M  V30 28192 H 2661.18 -3.60889 -4.34073 0
M  V30 28193 N 2660.58 0.769564 -1.37534 0
M  V30 28194 C 2661.83 1.53046 -1.33059 0
M  V30 28195 C 2662.16 1.94018 0.0841524 0
M  V30 28196 O 2661.43 1.64236 1.04195 0
M  V30 28197 C 2661.72 2.79402 -2.27171 0
M  V30 28198 C 2661.57 2.44671 -3.77434 0
M  V30 28199 C 2662.89 3.81346 -2.1969 0
M  V30 28200 H 2660.01 0.55522 -0.484665 0
M  V30 28201 H 2662.65 0.882673 -1.68252 0
M  V30 28202 H 2660.8 3.34678 -1.97288 0
M  V30 28203 H 2662.47 1.95293 -4.17922 0
M  V30 28204 H 2660.71 1.77339 -3.95896 0
M  V30 28205 H 2661.39 3.35004 -4.38721 0
M  V30 28206 H 2663.86 3.35569 -2.46034 0
M  V30 28207 H 2662.74 4.67476 -2.87676 0
M  V30 28208 H 2663 4.25769 -1.19052 0
M  V30 28209 N 2662.06 1.22139 0.995977 0
M  V30 28210 C 2663.29 1.07032 1.77064 0
M  V30 28211 C 2663.7 -0.379324 1.8495 0
M  V30 28212 O 2663.06 -1.26295 1.31742 0
M  V30 28213 C 2663.11 1.67161 3.2053 0
M  V30 28214 O 2662.83 3.06455 3.13077 0
M  V30 28215 C 2664.33 1.57287 4.14458 0
M  V30 28216 H 2661.55 0.375384 0.556172 0
M  V30 28217 H 2664.1 1.61668 1.25235 0
M  V30 28218 H 2662.25 1.16596 3.69438 0
M  V30 28219 H 2662.66 3.35362 4.03277 0
M  V30 28220 H 2664.14 2.04087 5.12887 0
M  V30 28221 H 2664.62 0.528871 4.36004 0
M  V30 28222 H 2665.22 2.07143 3.71446 0
M  V30 28223 N 2663.54 -1.19233 1.03059 0
M  V30 28224 C 2664.47 -2.21974 0.570971 0
M  V30 28225 C 2665.48 -1.58903 -0.35406 0
M  V30 28226 O 2666.67 -1.77867 -0.15018 0
M  V30 28227 C 2663.77 -3.38383 -0.187092 0
M  V30 28228 C 2662.94 -4.31038 0.743307 0
M  V30 28229 C 2662 -5.26191 0.0303418 0
M  V30 28230 O 2661.03 -5.6539 0.657471 0
M  V30 28231 N 2662.23 -5.67106 -1.23981 0
M  V30 28232 H 2665 -2.62033 1.4546 0
M  V30 28233 H 2662.56 -1.33917 0.90983 0
M  V30 28234 H 2664.55 -3.99054 -0.673645 0
M  V30 28235 H 2663.12 -2.97099 -0.972153 0
M  V30 28236 H 2662.34 -3.68124 1.40992 0
M  V30 28237 H 2663.63 -4.89852 1.37559 0
M  V30 28238 H 2663.02 -5.37296 -1.77002 0
M  V30 28239 H 2661.58 -6.30021 -1.67082 0
M  V30 28240 N 2665.01 -0.808686 -1.3527 0
M  V30 28241 C 2666.25 -0.395703 -2.00533 0
M  V30 28242 C 2666.62 1.01854 -1.62757 0
M  V30 28243 O 2667.82 1.53364 -2.20755 0
M  V30 28244 C 2666.09 -0.575833 -3.52731 0
M  V30 28245 S 2667.65 -0.253584 -4.38067 0
M  V30 28246 H 2664.47 -0.150177 -0.694959 0
M  V30 28247 H 2667.07 -1.05139 -1.64821 0
M  V30 28248 H 2665.77 -1.60506 -3.77712 0
M  V30 28249 H 2665.3 0.0951047 -3.93285 0
M  V30 28250 H 2667.32 0.937982 -4.87254 0
M  V30 28251 N 2666.49 1.47225 -0.562374 0
M  V30 28252 C 2667.74 2.0276 -0.0403117 0
M  V30 28253 C 2668.07 1.43526 1.30821 0
M  V30 28254 O 2667.35 0.592737 1.85248 0
M  V30 28255 C 2667.63 3.60069 0.0472477 0
M  V30 28256 C 2667.48 4.29726 -1.32873 0
M  V30 28257 C 2668.8 4.33521 0.758106 0
M  V30 28258 H 2665.92 0.736824 -0.0161235 0
M  V30 28259 H 2668.56 1.75597 -0.725659 0
M  V30 28260 H 2666.71 3.83343 0.630919 0
M  V30 28261 H 2668.38 4.17778 -1.956 0
M  V30 28262 H 2666.63 3.89879 -1.90202 0
M  V30 28263 H 2667.3 5.38346 -1.22013 0
M  V30 28264 H 2669.77 4.15271 0.262473 0
M  V30 28265 H 2668.65 5.43209 0.788345 0
M  V30 28266 H 2668.91 4.03112 1.8153 0
M  V30 28267 N 2667.97 0.299089 1.54736 0
M  V30 28268 C 2668.88 -0.587373 2.27128 0
M  V30 28269 C 2669.9 -1.15003 1.30577 0
M  V30 28270 O 2671.07 -1.17522 1.63556 0
M  V30 28271 C 2668.14 -1.7439 2.99648 0
M  V30 28272 C 2667.2 -1.21551 4.11733 0
M  V30 28273 C 2666.43 -2.31692 4.80786 0
M  V30 28274 O 2666.65 -3.51551 4.49186 0
M  V30 28275 O 2665.59 -1.98491 5.6823 0
M  V30 28276 H 2669.41 -0.000196726 3.037 0
M  V30 28277 H 2667 0.0656181 1.49256 0
M  V30 28278 H 2668.88 -2.41774 3.45142 0
M  V30 28279 H 2667.56 -2.31771 2.25973 0
M  V30 28280 H 2666.46 -0.507449 3.70642 0
M  V30 28281 H 2667.8 -0.687147 4.8738 0
M  V30 28282 N 2669.45 -1.57577 0.0267774 0
M  V30 28283 C 2670.4 -2.10076 -0.955858 0
M  V30 28284 C 2671.37 -1.00229 -1.32452 0
M  V30 28285 O 2672.55 -1.27635 -1.41824 0
M  V30 28286 C 2669.69 -2.63054 -2.23376 0
M  V30 28287 C 2668.8 -3.86901 -1.92176 0
M  V30 28288 C 2667.94 -4.28281 -3.14244 0
M  V30 28289 C 2666.98 -5.44893 -2.78852 0
M  V30 28290 N 2666.11 -5.8144 -3.93538 0
M  V30 28291 H 2670.95 -2.93754 -0.501251 0
M  V30 28292 H 2668.49 -1.45197 -0.235821 0
M  V30 28293 H 2670.45 -2.91858 -2.98118 0
M  V30 28294 H 2669.08 -1.8221 -2.66457 0
M  V30 28295 H 2668.13 -3.6484 -1.07685 0
M  V30 28296 H 2669.44 -4.71723 -1.62108 0
M  V30 28297 H 2668.6 -4.58509 -3.97309 0
M  V30 28298 H 2667.34 -3.42222 -3.4747 0
M  V30 28299 H 2666.34 -5.1436 -1.94199 0
M  V30 28300 H 2667.57 -6.32649 -2.46844 0
M  V30 28301 H 2665.51 -4.98336 -4.26611 0
M  V30 28302 H 2665.43 -6.60896 -3.67087 0
M  V30 28303 H 2666.7 -6.16273 -4.77314 0
M  V30 28304 N 2670.93 0.246342 -1.55663 0
M  V30 28305 C 2672.17 0.972379 -1.7717 0
M  V30 28306 C 2672.5 1.85833 -0.59086 0
M  V30 28307 O 2671.77 1.91911 0.393331 0
M  V30 28308 H 2670.35 0.362026 -0.653411 0
M  V30 28309 H 2673.01 0.264155 -1.93102 0
M  V30 28310 H 2672.1 1.59377 -2.68338 0
M  V30 28311 N 2672.4 1.4905 0.512027 0
M  V30 28312 C 2673.82 1.35569 0.842216 0
M  V30 28313 C 2674.02 0.380354 1.97878 0
M  V30 28314 O 2673.08 -0.191966 2.51769 0
M  V30 28315 C 2674.39 2.7603 1.19281 0
M  V30 28316 C 2675.94 2.8465 1.30166 0
M  V30 28317 C 2676.41 4.25854 1.6856 0
M  V30 28318 N 2677.9 4.28612 1.7563 0
M  V30 28319 C 2678.64 5.34825 2.0676 0
M  V30 28320 N 2678.13 6.51296 2.3619 0
M  V30 28321 N 2679.93 5.22232 2.07918 0
M  V30 28322 H 2672.08 2.11067 -0.237611 0
M  V30 28323 H 2674.34 0.946993 -0.0436913 0
M  V30 28324 H 2674.05 3.49047 0.431137 0
M  V30 28325 H 2673.92 3.10699 2.13884 0
M  V30 28326 H 2676.31 2.11877 2.05407 0
M  V30 28327 H 2676.39 2.53578 0.336412 0
M  V30 28328 H 2676.03 4.99149 0.938736 0
M  V30 28329 H 2675.96 4.54382 2.66167 0
M  V30 28330 H 2678.45 3.44609 1.55091 0
M  V30 28331 H 2678.77 7.28071 2.591 0
M  V30 28332 H 2677.11 6.54541 2.3367 0
M  V30 28333 H 2680.3 4.30251 1.84395 0
M  V30 28334 H 2680.48 6.05105 2.31845 0
M  V30 28335 N 2673.88 -0.762259 1.3794 0
M  V30 28336 C 2675.13 -1.52338 1.33869 0
M  V30 28337 C 2675.46 -1.94059 -0.073862 0
M  V30 28338 O 2674.74 -1.64787 -1.03323 0
M  V30 28339 C 2675.02 -2.78193 2.28649 0
M  V30 28340 C 2674.87 -2.42666 3.78726 0
M  V30 28341 C 2676.19 -3.80175 2.21709 0
M  V30 28342 H 2673.31 -0.552641 0.487603 0
M  V30 28343 H 2675.95 -0.873737 1.68718 0
M  V30 28344 H 2674.1 -3.33627 1.99061 0
M  V30 28345 H 2675.77 -1.93073 4.18951 0
M  V30 28346 H 2674.02 -1.75237 3.9683 0
M  V30 28347 H 2674.69 -3.32672 4.40492 0
M  V30 28348 H 2677.16 -3.34259 2.47811 0
M  V30 28349 H 2676.04 -4.65943 2.90152 0
M  V30 28350 H 2676.3 -4.25131 1.21308 0
M  V30 28351 N 2675.36 -1.22666 -0.989486 0
M  V30 28352 C 2676.31 -0.999769 -2.08022 0
M  V30 28353 C 2677.28 0.0796755 -1.65909 0
M  V30 28354 O 2678.46 -0.070605 -1.90669 0
M  V30 28355 C 2675.6 -0.587294 -3.40066 0
M  V30 28356 C 2674.72 -1.73788 -3.95502 0
M  V30 28357 C 2673.85 -1.27306 -5.15719 0
M  V30 28358 C 2672.89 -2.39497 -5.633 0
M  V30 28359 N 2672.03 -1.94038 -6.74754 0
M  V30 28360 H 2676.87 -1.93344 -2.26764 0
M  V30 28361 H 2674.4 -0.963317 -1.11169 0
M  V30 28362 H 2676.36 -0.3293 -4.15898 0
M  V30 28363 H 2674.99 0.30937 -3.21314 0
M  V30 28364 H 2674.04 -2.11011 -3.1651 0
M  V30 28365 H 2675.36 -2.58166 -4.26792 0
M  V30 28366 H 2674.51 -0.972652 -5.98853 0
M  V30 28367 H 2673.25 -0.39953 -4.86061 0
M  V30 28368 H 2672.25 -2.70323 -4.78754 0
M  V30 28369 H 2673.48 -3.27372 -5.94983 0
M  V30 28370 H 2671.42 -1.09052 -6.46872 0
M  V30 28371 H 2671.34 -2.7198 -7.05381 0
M  V30 28372 H 2672.61 -1.67076 -7.61384 0
M  V30 28373 N 2676.84 1.18685 -1.0369 0
M  V30 28374 C 2678.08 1.90265 -0.746891 0
M  V30 28375 C 2678.44 1.78309 0.712043 0
M  V30 28376 O 2679.64 2.44561 1.11549 0
M  V30 28377 C 2677.92 3.36813 -1.19549 0
M  V30 28378 S 2679.47 4.26527 -1.03054 0
M  V30 28379 H 2676.29 0.65705 -0.271674 0
M  V30 28380 H 2678.89 1.43435 -1.32841 0
M  V30 28381 H 2677.6 3.43044 -2.25276 0
M  V30 28382 H 2677.13 3.8868 -0.607601 0
M  V30 28383 H 2679.14 4.9617 0.054236 0
M  V30 28384 N 2678.32 0.815849 1.34839 0
M  V30 28385 C 2679.59 0.32345 1.92907 0
M  V30 28386 C 2679.97 -1.18825 1.74481 0
M  V30 28387 O 2679.32 -1.99207 1.11932 0
M  V30 28388 C 2679.53 0.745012 3.40955 0
M  V30 28389 C 2680.88 0.739789 4.18106 0
M  V30 28390 O 2681.9 0.687141 3.49509 0
M  V30 28391 O 2680.76 0.806551 5.40516 0
M  V30 28392 H 2677.86 0.086779 0.822434 0
M  V30 28393 H 2680.4 0.900166 1.43858 0
M  V30 28394 H 2679.18 1.78652 3.48137 0
M  V30 28395 H 2678.8 0.143605 3.97341 0
M  V30 28396 N 2679.8 -1.46924 0.570174 0
M  V30 28397 C 2680.75 -2.272 -0.190881 0
M  V30 28398 C 2681.73 -1.35129 -0.873433 0
M  V30 28399 O 2682.92 -1.59393 -0.769599 0
M  V30 28400 C 2680.05 -3.21194 -1.21198 0
M  V30 28401 C 2679.14 -4.20748 -0.532187 0
M  V30 28402 N 2679.53 -5.04175 0.405127 0
M  V30 28403 C 2677.83 -4.39046 -0.784505 0
M  V30 28404 C 2678.53 -5.76155 0.80125 0
M  V30 28405 N 2677.5 -5.43384 0.153178 0
M  V30 28406 H 2681.3 -2.89089 0.529586 0
M  V30 28407 H 2678.82 -1.57622 0.391047 0
M  V30 28408 H 2680.82 -3.77401 -1.77128 0
M  V30 28409 H 2679.48 -2.60863 -1.93341 0
M  V30 28410 H 2680.49 -5.11993 0.779993 0
M  V30 28411 H 2677.16 -3.89875 -1.49345 0
M  V30 28412 H 2678.55 -6.53247 1.5722 0
M  V30 28413 N 2681.27 -0.307291 -1.54575 0
M  V30 28414 C 2682.5 0.302122 -2.04379 0
M  V30 28415 C 2682.91 1.47587 -1.18383 0
M  V30 28416 O 2682.25 1.82569 -0.203552 0
M  V30 28417 C 2682.32 0.815243 -3.50134 0
M  V30 28418 C 2681.98 -0.234057 -4.564 0
M  V30 28419 C 2682.98 -1.06465 -5.08882 0
M  V30 28420 C 2680.66 -0.377566 -5.00879 0
M  V30 28421 C 2682.66 -2.02463 -6.0439 0
M  V30 28422 C 2680.34 -1.34099 -5.96205 0
M  V30 28423 C 2681.34 -2.163 -6.47845 0
M  V30 28424 O 2681.03 -3.11007 -7.41303 0
M  V30 28425 H 2680.76 0.0686721 -0.672503 0
M  V30 28426 H 2683.32 -0.446717 -2.00483 0
M  V30 28427 H 2681.55 1.61472 -3.51374 0
M  V30 28428 H 2683.23 1.34122 -3.831 0
M  V30 28429 H 2684 -0.96468 -4.75309 0
M  V30 28430 H 2679.88 0.252324 -4.60309 0
M  V30 28431 H 2683.42 -2.66663 -6.44621 0
M  V30 28432 H 2679.32 -1.44165 -6.29195 0
M  V30 28433 H 2680.09 -3.06058 -7.59125 0
M  V30 28434 N 2682.75 1.57561 -0.0351337 0
M  V30 28435 C 2684 1.93157 0.637328 0
M  V30 28436 C 2684.35 0.912422 1.69389 0
M  V30 28437 O 2683.65 -0.0707013 1.9147 0
M  V30 28438 C 2683.84 3.33252 1.29143 0
M  V30 28439 C 2683.67 4.487 0.299751 0
M  V30 28440 C 2682.44 5.05196 -0.102543 0
M  V30 28441 C 2684.64 5.12342 -0.448387 0
M  V30 28442 N 2682.62 6.04168 -1.08876 0
M  V30 28443 C 2683.99 6.0647 -1.28817 0
M  V30 28444 C 2686.04 4.95297 -0.508438 0
M  V30 28445 C 2684.75 6.85387 -2.1826 0
M  V30 28446 C 2686.77 5.74827 -1.39023 0
M  V30 28447 C 2686.14 6.68576 -2.21778 0
M  V30 28448 H 2682.23 0.754558 0.205345 0
M  V30 28449 H 2684.82 1.94424 -0.103716 0
M  V30 28450 H 2682.99 3.32793 2.00258 0
M  V30 28451 H 2684.72 3.5618 1.9214 0
M  V30 28452 H 2681.48 4.72812 0.27314 0
M  V30 28453 H 2681.9 6.58346 -1.57829 0
M  V30 28454 H 2686.54 4.22638 0.117123 0
M  V30 28455 H 2684.26 7.57348 -2.81869 0
M  V30 28456 H 2687.85 5.63671 -1.44106 0
M  V30 28457 H 2686.73 7.29043 -2.88905 0
M  V30 28458 N 2684.23 -0.238084 1.55791 0
M  V30 28459 C 2685.64 -0.806442 1.68385 0
M  V30 28460 C 2685.99 -1.85668 0.63419 0
M  V30 28461 O 2685.12 -2.153 -0.217875 0
M  V30 28462 C 2685.71 -1.46954 3.0527 0
M  V30 28463 C 2684.27 -1.98549 3.19774 0
M  V30 28464 C 2683.42 -0.839716 2.6428 0
M  V30 28465 H 2686.37 -0.0137256 1.58694 0
M  V30 28466 H 2686.39 -2.33786 3.00207 0
M  V30 28467 H 2685.9 -0.704925 3.81644 0
M  V30 28468 H 2684 -2.77864 2.48239 0
M  V30 28469 H 2684.12 -2.17682 4.26792 0
M  V30 28470 H 2682.48 -1.24261 2.22332 0
M  V30 28471 H 2683.26 -0.0880429 3.43187 0
M  V30 28472 N 2685.71 -1.4932 -0.504115 0
M  V30 28473 C 2686.67 -1.65247 -1.58827 0
M  V30 28474 C 2687.67 -0.524412 -1.52008 0
M  V30 28475 O 2688.86 -0.790797 -1.55216 0
M  V30 28476 C 2685.99 -1.64692 -2.98478 0
M  V30 28477 H 2687.19 -2.61942 -1.46036 0
M  V30 28478 H 2684.74 -1.38304 -0.72812 0
M  V30 28479 H 2685.47 -0.695699 -3.1675 0
M  V30 28480 H 2685.26 -2.46612 -3.04836 0
M  V30 28481 H 2686.75 -1.79082 -3.77252 0
M  V30 28482 N 2687.19 0.754933 -1.38342 0
M  V30 28483 C 2688.46 1.50449 -1.24998 0
M  V30 28484 C 2688.84 2.10572 0.149207 0
M  V30 28485 O 2688.19 1.9695 1.15857 0
M  V30 28486 C 2688.4 2.57193 -2.35908 0
M  V30 28487 C 2689.75 3.24133 -2.74268 0
M  V30 28488 O 2690.77 2.67497 -2.3521 0
M  V30 28489 O 2689.63 4.26567 -3.41617 0
M  V30 28490 H 2686.73 0.667136 -0.488732 0
M  V30 28491 H 2689.27 0.790459 -1.50166 0
M  V30 28492 H 2688.04 2.11005 -3.29534 0
M  V30 28493 H 2687.67 3.36178 -2.12297 0
M  V30 28494 N 2688.66 1.23189 0.982967 0
M  V30 28495 C 2689.6 0.968608 2.07727 0
M  V30 28496 C 2690.61 -0.0564535 1.62702 0
M  V30 28497 O 2691.8 0.178765 1.77603 0
M  V30 28498 C 2688.9 0.437033 3.3607 0
M  V30 28499 C 2688.07 1.52166 4.10078 0
M  V30 28500 C 2687.13 0.995411 5.16699 0
M  V30 28501 O 2686.16 1.68382 5.43724 0
M  V30 28502 N 2687.36 -0.17809 5.80227 0
M  V30 28503 H 2690.12 1.91074 2.30891 0
M  V30 28504 H 2687.68 1.14012 1.14947 0
M  V30 28505 H 2689.68 0.0700762 4.04639 0
M  V30 28506 H 2688.25 -0.410454 3.09894 0
M  V30 28507 H 2687.47 2.0615 3.36 0
M  V30 28508 H 2688.75 2.25113 4.56291 0
M  V30 28509 H 2688.15 -0.753997 5.60653 0
M  V30 28510 H 2686.71 -0.486335 6.49983 0
M  V30 28511 N 2690.14 -1.18133 1.04318 0
M  V30 28512 C 2691.42 -1.8405 0.662199 0
M  V30 28513 C 2691.8 -1.92871 -0.858135 0
M  V30 28514 O 2691.15 -1.45655 -1.7606 0
M  V30 28515 C 2691.36 -3.2221 1.34096 0
M  V30 28516 C 2692.7 -3.98217 1.47337 0
M  V30 28517 O 2693.73 -3.31659 1.29927 0
M  V30 28518 O 2692.59 -5.17476 1.75731 0
M  V30 28519 H 2689.68 -0.793786 0.232019 0
M  V30 28520 H 2692.23 -1.25504 1.14223 0
M  V30 28521 H 2691 -3.10707 2.37859 0
M  V30 28522 H 2690.62 -3.88414 0.849717 0
M  V30 28523 N 2691.62 -0.822988 -1.34405 0
M  V30 28524 C 2692.85 -0.42307 -2.03039 0
M  V30 28525 C 2693.27 0.963168 -1.61569 0
M  V30 28526 O 2692.63 1.62677 -0.800367 0
M  V30 28527 C 2692.68 -0.533272 -3.56635 0
M  V30 28528 O 2691.78 0.446867 -4.09972 0
M  V30 28529 H 2691.12 -0.174183 -0.640747 0
M  V30 28530 H 2693.65 -1.11342 -1.71651 0
M  V30 28531 H 2693.66 -0.409062 -4.05944 0
M  V30 28532 H 2692.34 -1.54432 -3.86165 0
M  V30 28533 H 2690.91 0.281536 -3.71836 0
M  V30 28534 N 2693.1 1.4662 -0.577957 0
M  V30 28535 C 2694.03 2.33044 0.145876 0
M  V30 28536 C 2695.01 1.45058 0.888387 0
M  V30 28537 O 2696.19 1.73883 0.864782 0
M  V30 28538 C 2693.32 3.27243 1.16316 0
M  V30 28539 C 2692.28 4.24633 0.535793 0
M  V30 28540 C 2691.6 5.08306 1.6592 0
M  V30 28541 C 2692.9 5.19665 -0.523953 0
M  V30 28542 H 2694.6 2.93813 -0.575688 0
M  V30 28543 H 2692.14 1.41285 -0.278297 0
M  V30 28544 H 2694.1 3.86556 1.67786 0
M  V30 28545 H 2692.82 2.64571 1.91494 0
M  V30 28546 H 2691.48 3.66576 0.0422115 0
M  V30 28547 H 2691.13 4.42022 2.40053 0
M  V30 28548 H 2690.83 5.74257 1.2451 0
M  V30 28549 H 2692.35 5.70482 2.17676 0
M  V30 28550 H 2693.77 5.73222 -0.0945067 0
M  V30 28551 H 2692.16 5.93933 -0.858105 0
M  V30 28552 H 2693.23 4.63885 -1.41205 0
M  V30 28553 N 2694.58 0.315484 1.5441 0
M  V30 28554 C 2695.81 -0.291279 2.04536 0
M  V30 28555 C 2696.21 -1.46957 1.19164 0
M  V30 28556 O 2695.56 -1.82458 0.213231 0
M  V30 28557 C 2695.62 -0.796664 3.50562 0
M  V30 28558 C 2695.28 0.258258 4.5627 0
M  V30 28559 C 2696.28 1.09162 5.08311 0
M  V30 28560 C 2693.97 0.404124 5.00672 0
M  V30 28561 C 2695.96 2.05665 6.03308 0
M  V30 28562 C 2693.65 1.37259 5.95486 0
M  V30 28563 C 2694.64 2.19732 6.46689 0
M  V30 28564 O 2694.33 3.14934 7.39643 0
M  V30 28565 H 2694.06 -0.0651047 0.672858 0
M  V30 28566 H 2696.62 0.457343 2.00244 0
M  V30 28567 H 2694.85 -1.59606 3.52226 0
M  V30 28568 H 2696.54 -1.32089 3.83806 0
M  V30 28569 H 2697.3 0.989873 4.74791 0
M  V30 28570 H 2693.18 -0.22791 4.60436 0
M  V30 28571 H 2696.73 2.70078 6.43198 0
M  V30 28572 H 2692.62 1.475 6.28422 0
M  V30 28573 H 2693.39 3.1008 7.57491 0
M  V30 28574 N 2696.05 -1.5754 0.0434891 0
M  V30 28575 C 2697.28 -1.96409 -0.64087 0
M  V30 28576 C 2697.69 -0.919326 -1.65363 0
M  V30 28577 O 2697.04 0.105763 -1.83395 0
M  V30 28578 C 2697.1 -3.31484 -1.39135 0
M  V30 28579 C 2696.76 -4.53854 -0.535295 0
M  V30 28580 C 2697.76 -5.19533 0.195426 0
M  V30 28581 C 2695.44 -5.00111 -0.468476 0
M  V30 28582 C 2697.44 -6.29798 0.981488 0
M  V30 28583 C 2695.12 -6.10255 0.321279 0
M  V30 28584 C 2696.12 -6.74959 1.04495 0
M  V30 28585 O 2695.81 -7.82987 1.82174 0
M  V30 28586 H 2695.54 -0.651437 -0.180572 0
M  V30 28587 H 2698.1 -2.05137 0.103884 0
M  V30 28588 H 2696.33 -3.19288 -2.18156 0
M  V30 28589 H 2698.02 -3.55154 -1.9652 0
M  V30 28590 H 2698.78 -4.84758 0.153225 0
M  V30 28591 H 2694.66 -4.49544 -1.02134 0
M  V30 28592 H 2698.2 -6.80234 1.54686 0
M  V30 28593 H 2694.1 -6.44466 0.365146 0
M  V30 28594 H 2694.87 -7.99725 1.74303 0
M  V30 28595 N 2697.53 0.229818 -1.55915 0
M  V30 28596 C 2698.78 0.953534 -1.78191 0
M  V30 28597 C 2699.1 1.85196 -0.610536 0
M  V30 28598 O 2698.37 1.92317 0.372955 0
M  V30 28599 H 2696.95 0.355076 -0.657214 0
M  V30 28600 H 2699.61 0.243659 -1.93371 0
M  V30 28601 H 2698.71 1.56522 -2.70014 0
M  V30 28602 N 2699.01 1.49585 0.49619 0
M  V30 28603 C 2700.29 1.49818 1.25753 0
M  V30 28604 C 2700.67 0.228609 2.09858 0
M  V30 28605 O 2700.02 -0.78887 2.14451 0
M  V30 28606 C 2700.23 2.77983 2.11013 0
M  V30 28607 C 2701.57 3.27663 2.70041 0
M  V30 28608 O 2702.6 2.79133 2.21276 0
M  V30 28609 O 2701.46 4.12196 3.58827 0
M  V30 28610 H 2698.55 0.599844 0.569312 0
M  V30 28611 H 2701.1 1.61853 0.510066 0
M  V30 28612 H 2699.87 3.61874 1.48872 0
M  V30 28613 H 2699.49 2.68832 2.92942 0
M  V30 28614 N 2700.49 -0.747586 1.3874 0
M  V30 28615 C 2701.42 -1.87489 1.39176 0
M  V30 28616 C 2702.4 -1.6815 0.256823 0
M  V30 28617 O 2703.58 -1.88654 0.460795 0
M  V30 28618 C 2700.71 -3.2509 1.22203 0
M  V30 28619 C 2699.67 -3.59043 2.32964 0
M  V30 28620 C 2698.99 -4.95446 2.01091 0
M  V30 28621 C 2700.29 -3.63304 3.75244 0
M  V30 28622 H 2701.99 -1.87382 2.33513 0
M  V30 28623 H 2699.53 -0.900114 1.12401 0
M  V30 28624 H 2701.49 -4.03615 1.21131 0
M  V30 28625 H 2700.21 -3.25693 0.243298 0
M  V30 28626 H 2698.87 -2.82841 2.33231 0
M  V30 28627 H 2698.52 -4.92614 1.01687 0
M  V30 28628 H 2698.22 -5.19131 2.75276 0
M  V30 28629 H 2699.74 -5.76342 2.01648 0
M  V30 28630 H 2701.16 -4.3193 3.76974 0
M  V30 28631 H 2699.55 -3.98501 4.48684 0
M  V30 28632 H 2700.62 -2.63393 4.07127 0
M  V30 28633 N 2701.97 -1.23709 -0.97642 0
M  V30 28634 C 2703.22 -1.06562 -1.71253 0
M  V30 28635 C 2703.53 0.39699 -1.91529 0
M  V30 28636 O 2704.73 0.688472 -2.62626 0
M  V30 28637 C 2703.19 -1.85846 -3.08204 0
M  V30 28638 C 2702.8 -3.36461 -2.958 0
M  V30 28639 C 2704.54 -1.77201 -3.85746 0
M  V30 28640 C 2702.45 -4.08122 -4.28008 0
M  V30 28641 H 2701.38 -0.395147 -0.642164 0
M  V30 28642 H 2704.03 -1.47711 -1.08874 0
M  V30 28643 H 2702.41 -1.37505 -3.7136 0
M  V30 28644 H 2703.59 -3.92318 -2.41709 0
M  V30 28645 H 2701.9 -3.45963 -2.3173 0
M  V30 28646 H 2704.5 -2.2805 -4.83629 0
M  V30 28647 H 2704.84 -0.735549 -4.0975 0
M  V30 28648 H 2705.37 -2.23174 -3.29299 0
M  V30 28649 H 2702.11 -5.12091 -4.09199 0
M  V30 28650 H 2701.63 -3.57052 -4.81948 0
M  V30 28651 H 2703.31 -4.14637 -4.96674 0
M  V30 28652 N 2703.44 1.17579 -1.04943 0
M  V30 28653 C 2704.37 2.23705 -0.669211 0
M  V30 28654 C 2705.36 1.66832 0.331806 0
M  V30 28655 O 2706.54 1.93062 0.209954 0
M  V30 28656 C 2703.67 3.47276 -0.04055 0
M  V30 28657 C 2702.62 4.16955 -0.966057 0
M  V30 28658 C 2701.95 5.34321 -0.201406 0
M  V30 28659 C 2703.25 4.69465 -2.2891 0
M  V30 28660 H 2704.94 2.55765 -1.55643 0
M  V30 28661 H 2702.49 1.22938 -0.749815 0
M  V30 28662 H 2704.44 4.20732 0.237224 0
M  V30 28663 H 2703.17 3.14476 0.881603 0
M  V30 28664 H 2701.83 3.45408 -1.22835 0
M  V30 28665 H 2701.47 4.9777 0.723432 0
M  V30 28666 H 2701.17 5.81877 -0.81807 0
M  V30 28667 H 2702.7 6.10561 0.0691426 0
M  V30 28668 H 2704.11 5.3457 -2.07141 0
M  V30 28669 H 2702.51 5.27591 -2.85951 0
M  V30 28670 H 2703.58 3.86409 -2.92944 0
M  V30 28671 N 2704.92 0.830104 1.33967 0
M  V30 28672 C 2705.85 0.21452 2.28194 0
M  V30 28673 C 2706.87 -0.599725 1.51351 0
M  V30 28674 O 2708.06 -0.42823 1.73287 0
M  V30 28675 C 2705.16 -0.717298 3.31222 0
M  V30 28676 C 2704.33 0.0556899 4.37365 0
M  V30 28677 C 2703.39 -0.79814 5.20112 0
M  V30 28678 O 2702.41 -0.240516 5.68692 0
M  V30 28679 N 2703.62 -2.11685 5.40527 0
M  V30 28680 H 2706.38 1.0241 2.8166 0
M  V30 28681 H 2703.94 0.687739 1.46567 0
M  V30 28682 H 2705.93 -1.29327 3.8348 0
M  V30 28683 H 2704.5 -1.4276 2.78098 0
M  V30 28684 H 2703.72 0.813004 3.85725 0
M  V30 28685 H 2705.01 0.587533 5.05396 0
M  V30 28686 H 2704.41 -2.59354 5.02745 0
M  V30 28687 H 2702.97 -2.64151 5.95875 0
M  V30 28688 N 2706.4 -1.46311 0.585725 0
M  V30 28689 C 2707.33 -2.27372 -0.194217 0
M  V30 28690 C 2708.31 -1.35811 -0.894092 0
M  V30 28691 O 2709.5 -1.65224 -0.907373 0
M  V30 28692 C 2706.62 -3.13625 -1.27896 0
M  V30 28693 C 2705.67 -4.2097 -0.684592 0
M  V30 28694 S 2706.5 -5.33246 0.490839 0
M  V30 28695 C 2707.66 -6.23065 -0.595028 0
M  V30 28696 H 2707.89 -2.93174 0.493567 0
M  V30 28697 H 2705.42 -1.49834 0.372692 0
M  V30 28698 H 2707.38 -3.63882 -1.90001 0
M  V30 28699 H 2706.04 -2.4713 -1.9387 0
M  V30 28700 H 2705.24 -4.81159 -1.50007 0
M  V30 28701 H 2704.84 -3.73741 -0.139138 0
M  V30 28702 H 2707.13 -6.61139 -1.4799 0
M  V30 28703 H 2708.07 -7.08094 -0.0298201 0
M  V30 28704 H 2708.48 -5.57271 -0.900529 0
M  V30 28705 N 2707.88 -0.323668 -1.54241 0
M  V30 28706 C 2708.81 0.534953 -2.27289 0
M  V30 28707 C 2709.79 1.11925 -1.28089 0
M  V30 28708 O 2710.98 1.14436 -1.56901 0
M  V30 28709 C 2708.11 1.69591 -3.03078 0
M  V30 28710 C 2707.06 1.24091 -4.09616 0
M  V30 28711 C 2706.39 2.48882 -4.73246 0
M  V30 28712 C 2707.69 0.355698 -5.21087 0
M  V30 28713 H 2709.38 -0.0743784 -2.99308 0
M  V30 28714 H 2706.93 -0.0372127 -1.43952 0
M  V30 28715 H 2708.88 2.30287 -3.52911 0
M  V30 28716 H 2707.6 2.33183 -2.28677 0
M  V30 28717 H 2706.26 0.656881 -3.60667 0
M  V30 28718 H 2705.91 3.10838 -3.9546 0
M  V30 28719 H 2705.61 2.19128 -5.45212 0
M  V30 28720 H 2707.13 3.10339 -5.25854 0
M  V30 28721 H 2708.55 0.868943 -5.66677 0
M  V30 28722 H 2706.94 0.150939 -5.9991 0
M  V30 28723 H 2708.01 -0.613423 -4.81004 0
M  V30 28724 N 2709.36 1.57515 -0.0518432 0
M  V30 28725 C 2710.58 1.97444 0.634861 0
M  V30 28726 C 2711.01 0.929236 1.63545 0
M  V30 28727 O 2710.37 -0.107452 1.80981 0
M  V30 28728 C 2710.41 3.36445 1.29759 0
M  V30 28729 O 2709.52 3.34417 2.41327 0
M  V30 28730 H 2708.86 0.643177 0.164983 0
M  V30 28731 H 2711.39 2.04245 -0.120442 0
M  V30 28732 H 2711.4 3.73187 1.64912 0
M  V30 28733 H 2710.07 4.12054 0.564288 0
M  V30 28734 H 2708.65 3.09422 2.08117 0
M  V30 28735 N 2710.84 -0.221546 1.56035 0
M  V30 28736 C 2711.75 -1.29554 1.95583 0
M  V30 28737 C 2712.76 -1.5128 0.859665 0
M  V30 28738 O 2713.94 -1.64411 1.16323 0
M  V30 28739 C 2711 -2.62527 2.26452 0
M  V30 28740 C 2710.06 -2.49104 3.49637 0
M  V30 28741 C 2709.3 -3.75735 3.79023 0
M  V30 28742 O 2709.52 -4.78752 3.10086 0
M  V30 28743 O 2708.45 -3.72847 4.72513 0
M  V30 28744 H 2712.28 -0.989984 2.87111 0
M  V30 28745 H 2709.86 -0.424409 1.43245 0
M  V30 28746 H 2711.75 -3.4106 2.475 0
M  V30 28747 H 2710.42 -2.92764 1.38097 0
M  V30 28748 H 2709.33 -1.68771 3.33867 0
M  V30 28749 H 2710.66 -2.23806 4.38374 0
M  V30 28750 N 2712.31 -1.49846 -0.48825 0
M  V30 28751 C 2713.54 -1.63973 -1.26994 0
M  V30 28752 C 2713.96 -0.316026 -1.85426 0
M  V30 28753 O 2713.32 0.718003 -1.66476 0
M  V30 28754 C 2713.37 -2.72053 -2.36684 0
M  V30 28755 O 2712.47 -2.32113 -3.40877 0
M  V30 28756 H 2711.81 -0.548403 -0.374367 0
M  V30 28757 H 2714.34 -1.96116 -0.58307 0
M  V30 28758 H 2714.35 -2.9461 -2.82257 0
M  V30 28759 H 2713.03 -3.68133 -1.93523 0
M  V30 28760 H 2711.61 -2.19936 -3.01135 0
M  V30 28761 N 2713.79 0.740218 -1.39135 0
M  V30 28762 C 2715.04 1.50189 -1.36276 0
M  V30 28763 C 2715.37 1.94152 0.0429794 0
M  V30 28764 O 2714.65 1.6641 1.00688 0
M  V30 28765 C 2714.93 2.74521 -2.33046 0
M  V30 28766 C 2714.78 2.3661 -3.82539 0
M  V30 28767 C 2716.1 3.766 -2.27729 0
M  V30 28768 H 2713.22 0.544814 -0.496333 0
M  V30 28769 H 2715.86 0.846785 -1.70087 0
M  V30 28770 H 2714.01 3.30418 -2.04343 0
M  V30 28771 H 2715.68 1.86384 -4.2197 0
M  V30 28772 H 2713.93 1.68902 -3.99568 0
M  V30 28773 H 2714.6 3.25622 -4.45729 0
M  V30 28774 H 2717.07 3.30274 -2.53097 0
M  V30 28775 H 2715.95 4.61268 -2.97528 0
M  V30 28776 H 2716.21 4.23148 -1.28057 0
M  V30 28777 N 2715.27 1.24225 0.969846 0
M  V30 28778 C 2716.2 1.05733 2.08189 0
M  V30 28779 C 2717.18 -0.0290466 1.70075 0
M  V30 28780 O 2718.37 0.137617 1.93712 0
M  V30 28781 C 2715.5 0.659055 3.40989 0
M  V30 28782 C 2714.45 1.69396 3.93051 0
M  V30 28783 C 2713.78 1.15081 5.22169 0
M  V30 28784 C 2715.08 3.08943 4.21132 0
M  V30 28785 H 2716.77 1.9875 2.23917 0
M  V30 28786 H 2714.32 0.956986 1.076 0
M  V30 28787 H 2716.27 0.516694 4.1822 0
M  V30 28788 H 2714.99 -0.306802 3.25156 0
M  V30 28789 H 2713.65 1.8245 3.17974 0
M  V30 28790 H 2713.3 0.175627 5.02693 0
M  V30 28791 H 2713 1.84238 5.57969 0
M  V30 28792 H 2714.52 1.02053 6.02011 0
M  V30 28793 H 2715.94 2.9913 4.89075 0
M  V30 28794 H 2714.33 3.75433 4.68156 0
M  V30 28795 H 2715.4 3.57142 3.2799 0
M  V30 28796 N 2716.75 -1.1702 1.05565 0
M  V30 28797 C 2718.16 -1.68998 0.793504 0
M  V30 28798 C 2718.51 -1.83897 -0.68385 0
M  V30 28799 O 2717.63 -1.52923 -1.53113 0
M  V30 28800 C 2718.23 -3.06964 1.43382 0
M  V30 28801 C 2716.79 -3.56093 1.21962 0
M  V30 28802 C 2715.94 -2.32258 1.51498 0
M  V30 28803 H 2718.89 -1.01485 1.2201 0
M  V30 28804 H 2718.91 -3.70996 0.845133 0
M  V30 28805 H 2718.42 -2.96089 2.50904 0
M  V30 28806 H 2716.52 -3.7224 0.163814 0
M  V30 28807 H 2716.63 -4.38629 1.92721 0
M  V30 28808 H 2715 -2.36909 0.935217 0
M  V30 28809 H 2715.78 -2.23987 2.60163 0
M  V30 28810 N 2718.23 -0.837197 -1.33524 0
M  V30 28811 C 2719.14 -0.271609 -2.33022 0
M  V30 28812 C 2720.15 0.601485 -1.63273 0
M  V30 28813 O 2721.33 0.506004 -1.9494 0
M  V30 28814 C 2718.39 0.545388 -3.42383 0
M  V30 28815 C 2717.45 -0.351784 -4.27856 0
M  V30 28816 C 2716.69 0.426315 -5.31995 0
M  V30 28817 O 2716.91 1.65819 -5.45766 0
M  V30 28818 O 2715.84 -0.198805 -6.01572 0
M  V30 28819 H 2719.67 -1.09549 -2.83254 0
M  V30 28820 H 2717.25 -0.599679 -1.36836 0
M  V30 28821 H 2719.14 1.00972 -4.09124 0
M  V30 28822 H 2717.81 1.34636 -2.94372 0
M  V30 28823 H 2716.72 -0.863917 -3.63988 0
M  V30 28824 H 2718.05 -1.11748 -4.79347 0
M  V30 28825 N 2719.7 1.45999 -0.593476 0
M  V30 28826 C 2720.95 2.03193 -0.091686 0
M  V30 28827 C 2721.3 1.45544 1.25837 0
M  V30 28828 O 2720.6 0.615223 1.81454 0
M  V30 28829 C 2720.79 3.57394 0.0211152 0
M  V30 28830 C 2720.62 4.29999 -1.31646 0
M  V30 28831 C 2719.39 4.68483 -1.89345 0
M  V30 28832 C 2721.59 4.62855 -2.24208 0
M  V30 28833 N 2719.57 5.25886 -3.16729 0
M  V30 28834 C 2720.94 5.20942 -3.36184 0
M  V30 28835 C 2723 4.4479 -2.23756 0
M  V30 28836 C 2721.7 5.62867 -4.47854 0
M  V30 28837 C 2723.73 4.87739 -3.34462 0
M  V30 28838 C 2723.09 5.45905 -4.45159 0
M  V30 28839 H 2719.19 0.778241 -0.076585 0
M  V30 28840 H 2721.77 1.78009 -0.788736 0
M  V30 28841 H 2719.94 3.8227 0.687355 0
M  V30 28842 H 2721.67 4.01237 0.528273 0
M  V30 28843 H 2718.43 4.51586 -1.42712 0
M  V30 28844 H 2718.85 5.59099 -3.81755 0
M  V30 28845 H 2723.49 3.99145 -1.3944 0
M  V30 28846 H 2721.21 6.07485 -5.32905 0
M  V30 28847 H 2724.8 4.75503 -3.35243 0
M  V30 28848 H 2723.68 5.78529 -5.29409 0
M  V30 28849 N 2721.18 0.331843 1.54067 0
M  V30 28850 C 2722.41 -0.26996 2.05131 0
M  V30 28851 C 2722.83 -1.45136 1.20752 0
M  V30 28852 O 2722.18 -1.80914 0.240101 0
M  V30 28853 C 2722.23 -0.696393 3.54729 0
M  V30 28854 O 2721.95 0.438017 4.35905 0
M  V30 28855 C 2723.46 -1.36014 4.21918 0
M  V30 28856 H 2720.68 -0.0541924 0.668808 0
M  V30 28857 H 2723.22 0.480435 1.98776 0
M  V30 28858 H 2721.37 -1.39675 3.61344 0
M  V30 28859 H 2721.79 0.100427 5.24404 0
M  V30 28860 H 2723.26 -1.60938 5.28018 0
M  V30 28861 H 2723.74 -2.31005 3.73542 0
M  V30 28862 H 2724.35 -0.702138 4.19464 0
M  V30 28863 N 2722.66 -1.57485 0.0601958 0
M  V30 28864 C 2723.91 -1.92221 -0.611067 0
M  V30 28865 C 2724.22 -0.941189 -1.71467 0
M  V30 28866 O 2725.43 -1.18093 -2.44471 0
M  V30 28867 C 2723.88 -3.41426 -1.13826 0
M  V30 28868 C 2723.49 -4.47951 -0.0662809 0
M  V30 28869 C 2725.24 -3.85182 -1.78425 0
M  V30 28870 C 2723.14 -5.88278 -0.606862 0
M  V30 28871 H 2722.07 -0.717414 -0.232021 0
M  V30 28872 H 2724.72 -1.83035 0.13055 0
M  V30 28873 H 2723.11 -3.45646 -1.93247 0
M  V30 28874 H 2724.28 -4.55332 0.707762 0
M  V30 28875 H 2722.6 -4.13592 0.482788 0
M  V30 28876 H 2725.19 -4.87398 -2.19881 0
M  V30 28877 H 2725.54 -3.21917 -2.6396 0
M  V30 28878 H 2726.07 -3.83516 -1.05644 0
M  V30 28879 H 2722.81 -6.5516 0.211065 0
M  V30 28880 H 2722.33 -5.8444 -1.34869 0
M  V30 28881 H 2724.01 -6.37805 -1.08693 0
M  V30 28882 N 2724.14 0.213268 -1.5615 0
M  V30 28883 C 2725.55 0.563333 -1.49328 0
M  V30 28884 C 2725.75 1.86746 -0.756859 0
M  V30 28885 O 2724.81 2.50713 -0.29991 0
M  V30 28886 C 2726.12 0.634892 -2.93921 0
M  V30 28887 C 2727.67 0.72496 -3.04489 0
M  V30 28888 C 2728.15 0.82779 -4.50457 0
M  V30 28889 N 2729.64 0.891796 -4.54534 0
M  V30 28890 C 2730.37 0.991215 -5.64768 0
M  V30 28891 N 2729.87 1.05407 -6.84734 0
M  V30 28892 N 2731.66 1.027 -5.52638 0
M  V30 28893 H 2723.81 -0.642402 -2.02452 0
M  V30 28894 H 2726.08 -0.226503 -0.920544 0
M  V30 28895 H 2725.78 -0.253921 -3.50782 0
M  V30 28896 H 2725.66 1.49573 -3.46277 0
M  V30 28897 H 2728.04 1.60421 -2.47688 0
M  V30 28898 H 2728.12 -0.161714 -2.55288 0
M  V30 28899 H 2727.77 -0.0470357 -5.07878 0
M  V30 28900 H 2727.7 1.73 -4.97372 0
M  V30 28901 H 2730.19 0.853206 -3.68142 0
M  V30 28902 H 2730.5 1.12993 -7.64495 0
M  V30 28903 H 2728.85 1.02306 -6.87429 0
M  V30 28904 H 2732.04 0.974606 -4.57842 0
M  V30 28905 H 2732.21 1.10102 -6.38578 0
M  V30 28906 N 2725.62 1.50103 0.480296 0
M  V30 28907 C 2726.53 1.71064 1.60544 0
M  V30 28908 C 2727.54 0.593558 1.63563 0
M  V30 28909 O 2728.72 0.870782 1.81602 0
M  V30 28910 C 2725.78 1.79176 2.96811 0
M  V30 28911 C 2724.84 3.02867 3.04254 0
M  V30 28912 C 2724.08 3.10582 4.34021 0
M  V30 28913 O 2724.3 2.25332 5.24005 0
M  V30 28914 O 2723.23 4.0323 4.46866 0
M  V30 28915 H 2727.06 2.66422 1.45783 0
M  V30 28916 H 2724.65 1.3409 0.658814 0
M  V30 28917 H 2726.53 1.86745 3.77762 0
M  V30 28918 H 2725.2 0.870002 3.11789 0
M  V30 28919 H 2724.11 3.00803 2.22414 0
M  V30 28920 H 2725.44 3.94591 2.94209 0
M  V30 28921 N 2727.09 -0.732829 1.39526 0
M  V30 28922 C 2728.34 -1.49243 1.36867 0
M  V30 28923 C 2728.67 -1.94469 -0.0346776 0
M  V30 28924 O 2727.92 -1.67264 -1.01593 0
M  V30 28925 C 2728.22 -2.74463 2.2892 0
M  V30 28926 C 2727.89 -2.48094 3.76511 0
M  V30 28927 C 2726.55 -2.40612 4.16725 0
M  V30 28928 C 2728.9 -2.25589 4.6985 0
M  V30 28929 C 2726.23 -2.08669 5.48338 0
M  V30 28930 C 2728.58 -1.95164 6.01742 0
M  V30 28931 C 2727.25 -1.86152 6.41018 0
M  V30 28932 H 2726.52 -0.54612 0.500834 0
M  V30 28933 H 2729.16 -0.840928 1.72048 0
M  V30 28934 H 2727.47 -3.44367 1.86865 0
M  V30 28935 H 2729.17 -3.32498 2.24156 0
M  V30 28936 H 2725.76 -2.54797 3.4464 0
M  V30 28937 H 2729.94 -2.30336 4.39612 0
M  V30 28938 H 2725.2 -2.00216 5.77688 0
M  V30 28939 H 2729.37 -1.76759 6.73594 0
M  V30 28940 H 2727 -1.61166 7.4292 0
M  V30 28941 N 2728.57 -1.24737 -0.963244 0
M  V30 28942 C 2729.52 -1.04367 -2.05855 0
M  V30 28943 C 2730.49 0.0444659 -1.6604 0
M  V30 28944 O 2731.67 -0.111033 -1.90477 0
M  V30 28945 C 2728.81 -0.659295 -3.38744 0
M  V30 28946 C 2727.93 -1.82138 -3.91727 0
M  V30 28947 C 2727.06 -1.38217 -5.12903 0
M  V30 28948 C 2726.1 -2.51392 -5.58094 0
M  V30 28949 N 2725.24 -2.08307 -6.70487 0
M  V30 28950 H 2730.08 -1.9811 -2.22612 0
M  V30 28951 H 2727.62 -0.986681 -1.09101 0
M  V30 28952 H 2729.57 -0.417444 -4.15106 0
M  V30 28953 H 2728.2 0.241145 -3.21898 0
M  V30 28954 H 2727.26 -2.17677 -3.11963 0
M  V30 28955 H 2728.57 -2.67161 -4.2122 0
M  V30 28956 H 2727.72 -1.09946 -5.96655 0
M  V30 28957 H 2726.46 -0.502541 -4.85104 0
M  V30 28958 H 2725.47 -2.80418 -4.72912 0
M  V30 28959 H 2726.69 -3.39919 -5.87905 0
M  V30 28960 H 2724.64 -1.22749 -6.44414 0
M  V30 28961 H 2724.55 -2.86881 -6.99453 0
M  V30 28962 H 2725.82 -1.83188 -7.57669 0
M  V30 28963 N 2730.05 1.16459 -1.06184 0
M  V30 28964 C 2731.3 1.86301 -0.77296 0
M  V30 28965 C 2731.61 1.82524 0.703155 0
M  V30 28966 O 2732.82 2.47935 1.10637 0
M  V30 28967 C 2731.27 3.34322 -1.33254 0
M  V30 28968 C 2730.88 3.46576 -2.83882 0
M  V30 28969 C 2732.63 4.09427 -1.12115 0
M  V30 28970 C 2730.53 4.88676 -3.33091 0
M  V30 28971 H 2729.46 0.697873 -0.285464 0
M  V30 28972 H 2732.11 1.31445 -1.28041 0
M  V30 28973 H 2730.5 3.88777 -0.752868 0
M  V30 28974 H 2731.67 3.02287 -3.47792 0
M  V30 28975 H 2729.99 2.84903 -3.03676 0
M  V30 28976 H 2732.58 5.14276 -1.4637 0
M  V30 28977 H 2732.93 4.16258 -0.0594564 0
M  V30 28978 H 2733.46 3.61207 -1.66656 0
M  V30 28979 H 2730.2 4.87024 -4.38734 0
M  V30 28980 H 2729.72 5.33594 -2.73929 0
M  V30 28981 H 2731.4 5.57488 -3.28353 0
M  V30 28982 N 2731.53 0.844266 1.33079 0
M  V30 28983 C 2732.77 0.448732 1.99414 0
M  V30 28984 C 2733.13 -0.975029 1.654 0
M  V30 28985 O 2734.33 -1.47457 2.24744 0
M  V30 28986 C 2732.6 0.669151 3.5108 0
M  V30 28987 S 2734.16 0.369641 4.3724 0
M  V30 28988 H 2730.98 0.16855 0.690733 0
M  V30 28989 H 2733.58 1.09472 1.61975 0
M  V30 28990 H 2732.29 1.70464 3.73323 0
M  V30 28991 H 2731.82 0.00920126 3.93399 0
M  V30 28992 H 2733.83 -0.808466 4.89569 0
M  V30 28993 N 2733.01 -1.45682 0.60121 0
M  V30 28994 C 2734.25 -2.01883 0.0937311 0
M  V30 28995 C 2734.58 -1.47294 -1.27787 0
M  V30 28996 O 2733.85 -0.664724 -1.84278 0
M  V30 28997 H 2732.43 -0.746329 0.0316598 0
M  V30 28998 H 2735.09 -1.7856 0.781169 0
M  V30 28999 H 2734.18 -3.12076 0.0386845 0
M  V30 29000 N 2734.48 -0.340009 -1.53889 0
M  V30 29001 C 2735.39 0.526948 -2.28605 0
M  V30 29002 C 2736.41 1.115 -1.3358 0
M  V30 29003 O 2737.59 1.13145 -1.66614 0
M  V30 29004 C 2734.65 1.66384 -3.04167 0
M  V30 29005 C 2733.71 1.10592 -4.14811 0
M  V30 29006 C 2732.95 2.18863 -4.86759 0
M  V30 29007 O 2733.17 3.39518 -4.58349 0
M  V30 29008 O 2732.1 1.83356 -5.73292 0
M  V30 29009 H 2735.93 -0.080324 -3.03594 0
M  V30 29010 H 2733.51 -0.105168 -1.49029 0
M  V30 29011 H 2735.4 2.32538 -3.51431 0
M  V30 29012 H 2734.07 2.25699 -2.32038 0
M  V30 29013 H 2732.98 0.409001 -3.71857 0
M  V30 29014 H 2734.31 0.557685 -4.8903 0
M  V30 29015 N 2735.96 1.57451 -0.0685468 0
M  V30 29016 C 2736.87 2.16036 0.914639 0
M  V30 29017 C 2737.89 1.12267 1.32936 0
M  V30 29018 O 2739.07 1.44518 1.40273 0
M  V30 29019 C 2736.13 2.70781 2.16514 0
M  V30 29020 C 2735.19 3.89411 1.80714 0
M  V30 29021 C 2734.42 4.41536 2.99803 0
M  V30 29022 O 2734.65 3.92673 4.1372 0
M  V30 29023 O 2733.58 5.32908 2.79808 0
M  V30 29024 H 2737.41 3.00403 0.446311 0
M  V30 29025 H 2734.99 1.48601 0.154341 0
M  V30 29026 H 2736.87 3.05883 2.89851 0
M  V30 29027 H 2735.55 1.89476 2.62451 0
M  V30 29028 H 2734.46 3.59168 1.0464 0
M  V30 29029 H 2735.79 4.71999 1.39562 0
M  V30 29030 N 2737.44 -0.204984 1.56261 0
M  V30 29031 C 2738.37 -1.27791 1.90268 0
M  V30 29032 C 2739.39 -1.42213 0.792422 0
M  V30 29033 O 2740.58 -1.42815 1.0708 0
M  V30 29034 C 2737.68 -2.6514 2.11079 0
M  V30 29035 C 2736.85 -2.72454 3.42181 0
M  V30 29036 C 2735.91 -3.90929 3.52223 0
M  V30 29037 O 2734.93 -3.78493 4.25125 0
M  V30 29038 N 2736.14 -5.05958 2.84582 0
M  V30 29039 H 2738.9 -0.989384 2.82898 0
M  V30 29040 H 2736.46 -0.394953 1.57009 0
M  V30 29041 H 2738.45 -3.42807 2.15095 0
M  V30 29042 H 2737.02 -2.86522 1.24995 0
M  V30 29043 H 2736.24 -1.81136 3.50119 0
M  V30 29044 H 2737.53 -2.74323 4.28514 0
M  V30 29045 H 2736.93 -5.18959 2.25161 0
M  V30 29046 H 2735.49 -5.81607 2.94238 0
M  V30 29047 N 2738.92 -1.50356 -0.472329 0
M  V30 29048 C 2739.85 -1.72057 -1.57856 0
M  V30 29049 C 2740.83 -0.569533 -1.60282 0
M  V30 29050 O 2742.02 -0.808534 -1.76568 0
M  V30 29051 C 2739.15 -1.81357 -2.96188 0
M  V30 29052 C 2738.1 -2.96535 -3.08628 0
M  V30 29053 C 2737.43 -2.90975 -4.48595 0
M  V30 29054 C 2738.73 -4.37062 -2.85962 0
M  V30 29055 H 2740.42 -2.64679 -1.39948 0
M  V30 29056 H 2737.97 -1.27368 -0.671823 0
M  V30 29057 H 2739.92 -1.95123 -3.73504 0
M  V30 29058 H 2738.64 -0.853558 -3.15249 0
M  V30 29059 H 2737.3 -2.82417 -2.33744 0
M  V30 29060 H 2736.95 -1.92823 -4.64573 0
M  V30 29061 H 2736.65 -3.68297 -4.57855 0
M  V30 29062 H 2738.17 -3.06789 -5.27933 0
M  V30 29063 H 2739.59 -4.51712 -3.53028 0
M  V30 29064 H 2737.98 -5.15825 -3.06667 0
M  V30 29065 H 2739.05 -4.49517 -1.8183 0
M  V30 29066 N 2740.4 0.725419 -1.39912 0
M  V30 29067 C 2741.67 1.47764 -1.28161 0
M  V30 29068 C 2742.05 2.10841 0.104508 0
M  V30 29069 O 2741.4 1.99363 1.11654 0
M  V30 29070 C 2741.61 2.52131 -2.41311 0
M  V30 29071 C 2742.96 3.18242 -2.81082 0
M  V30 29072 O 2743.98 2.62448 -2.40831 0
M  V30 29073 O 2742.84 4.19225 -3.50589 0
M  V30 29074 H 2739.94 0.656619 -0.502773 0
M  V30 29075 H 2742.48 0.758429 -1.51809 0
M  V30 29076 H 2741.26 2.03968 -3.33935 0
M  V30 29077 H 2740.88 3.316 -2.1938 0
M  V30 29078 N 2741.88 1.25246 0.956615 0
M  V30 29079 C 2742.84 1.05541 2.03455 0
M  V30 29080 C 2743.84 0.00889143 1.60798 0
M  V30 29081 O 2745.03 0.250895 1.72384 0
M  V30 29082 C 2742.16 0.602024 3.35542 0
M  V30 29083 H 2743.35 2.01227 2.22369 0
M  V30 29084 H 2740.91 1.07625 1.13343 0
M  V30 29085 H 2741.64 -0.357528 3.22323 0
M  V30 29086 H 2741.43 1.35749 3.67851 0
M  V30 29087 H 2742.92 0.485527 4.14768 0
M  V30 29088 N 2743.35 -1.15894 1.068 0
M  V30 29089 C 2744.3 -2.18441 0.653251 0
M  V30 29090 C 2745.29 -1.57711 -0.318735 0
M  V30 29091 O 2746.48 -1.76497 -0.133357 0
M  V30 29092 C 2743.61 -3.43268 0.0466388 0
M  V30 29093 C 2742.69 -4.11064 1.04343 0
M  V30 29094 N 2743.09 -4.54432 2.22092 0
M  V30 29095 C 2741.38 -4.37322 0.87551 0
M  V30 29096 C 2742.08 -5.06939 2.85285 0
M  V30 29097 N 2741.06 -5.0014 2.12982 0
M  V30 29098 H 2744.86 -2.49695 1.55015 0
M  V30 29099 H 2742.38 -1.32401 0.940407 0
M  V30 29100 H 2744.37 -4.16035 -0.268357 0
M  V30 29101 H 2743.03 -3.135 -0.845449 0
M  V30 29102 H 2744.04 -4.47999 2.59841 0
M  V30 29103 H 2740.72 -4.17485 0.0358455 0
M  V30 29104 H 2742.11 -5.50496 3.85232 0
M  V30 29105 N 2744.83 -0.851312 -1.32629 0
M  V30 29106 C 2746.25 -0.540726 -1.50161 0
M  V30 29107 C 2746.45 0.929337 -1.78789 0
M  V30 29108 O 2745.5 1.71254 -1.85548 0
M  V30 29109 C 2746.82 -1.42483 -2.648 0
M  V30 29110 C 2748.36 -1.4249 -2.78685 0
M  V30 29111 C 2748.84 -2.29414 -3.964 0
M  V30 29112 N 2750.33 -2.27191 -4.03656 0
M  V30 29113 C 2751.07 -2.91179 -4.93966 0
M  V30 29114 N 2750.56 -3.64266 -5.89306 0
M  V30 29115 N 2752.35 -2.80584 -4.87062 0
M  V30 29116 H 2744.51 -1.80277 -1.12311 0
M  V30 29117 H 2746.77 -0.769816 -0.553252 0
M  V30 29118 H 2746.47 -2.47004 -2.50364 0
M  V30 29119 H 2746.35 -1.10981 -3.60504 0
M  V30 29120 H 2748.74 -0.387355 -2.92547 0
M  V30 29121 H 2748.82 -1.78006 -1.83705 0
M  V30 29122 H 2748.46 -3.33234 -3.83298 0
M  V30 29123 H 2748.39 -1.91233 -4.9065 0
M  V30 29124 H 2750.88 -1.74051 -3.35432 0
M  V30 29125 H 2751.19 -4.10266 -6.54906 0
M  V30 29126 H 2749.54 -3.68375 -5.89343 0
M  V30 29127 H 2752.73 -2.23038 -4.11548 0
M  V30 29128 H 2752.9 -3.30735 -5.57242 0
M  V30 29129 N 2746.31 1.45361 -0.608928 0
M  V30 29130 C 2747.24 2.33301 0.0964116 0
M  V30 29131 C 2748.22 1.46909 0.857418 0
M  V30 29132 O 2749.41 1.75678 0.827704 0
M  V30 29133 C 2746.54 3.29637 1.09348 0
M  V30 29134 C 2745.49 4.25674 0.445601 0
M  V30 29135 C 2744.82 5.11711 1.55101 0
M  V30 29136 C 2746.12 5.18437 -0.634063 0
M  V30 29137 H 2747.81 2.92526 -0.63788 0
M  V30 29138 H 2745.36 1.40663 -0.308203 0
M  V30 29139 H 2747.31 3.90028 1.59549 0
M  V30 29140 H 2746.03 2.68573 1.85839 0
M  V30 29141 H 2744.69 3.66583 -0.0355542 0
M  V30 29142 H 2744.34 4.47014 2.30623 0
M  V30 29143 H 2744.04 5.76769 1.12301 0
M  V30 29144 H 2745.56 5.74971 2.05527 0
M  V30 29145 H 2746.98 5.72893 -0.216074 0
M  V30 29146 H 2745.37 5.91979 -0.983893 0
M  V30 29147 H 2746.44 4.60785 -1.51013 0
M  V30 29148 N 2747.79 0.348166 1.53706 0
M  V30 29149 C 2749.04 -0.247957 2.0017 0
M  V30 29150 C 2749.35 -1.51284 1.23986 0
M  V30 29151 O 2750.56 -2.18649 1.6095 0
M  V30 29152 C 2749.01 -0.492396 3.56516 0
M  V30 29153 C 2748.62 0.756854 4.41561 0
M  V30 29154 C 2750.36 -1.04712 4.11382 0
M  V30 29155 C 2748.27 0.48296 5.89425 0
M  V30 29156 H 2747.2 -0.096432 0.747808 0
M  V30 29157 H 2749.85 0.464211 1.77531 0
M  V30 29158 H 2748.23 -1.26538 3.75239 0
M  V30 29159 H 2749.41 1.5313 4.34612 0
M  V30 29160 H 2747.72 1.23355 3.97709 0
M  V30 29161 H 2750.32 -1.26708 5.1947 0
M  V30 29162 H 2750.66 -2.00405 3.64889 0
M  V30 29163 H 2751.2 -0.334731 3.96389 0
M  V30 29164 H 2747.93 1.40973 6.40162 0
M  V30 29165 H 2747.45 -0.253311 5.99265 0
M  V30 29166 H 2749.13 0.10193 6.4692 0
M  V30 29167 N 2749.27 -1.57412 0.0768958 0
M  V30 29168 C 2750.68 -1.57129 -0.279745 0
M  V30 29169 C 2750.88 -1.08669 -1.69686 0
M  V30 29170 O 2749.94 -0.754886 -2.40952 0
M  V30 29171 C 2751.25 -3.00581 -0.0847526 0
M  V30 29172 C 2752.8 -3.12621 -0.153899 0
M  V30 29173 C 2753.27 -4.57998 0.0128751 0
M  V30 29174 N 2754.76 -4.6318 -0.0425621 0
M  V30 29175 C 2755.5 -5.73366 0.06199 0
M  V30 29176 N 2755 -6.92449 0.220351 0
M  V30 29177 N 2756.79 -5.621 0.00455952 0
M  V30 29178 H 2748.94 -1.87226 1.003 0
M  V30 29179 H 2751.2 -0.863347 0.391581 0
M  V30 29180 H 2750.91 -3.40166 0.89331 0
M  V30 29181 H 2750.78 -3.67844 -0.834896 0
M  V30 29182 H 2753.17 -2.72919 -1.12245 0
M  V30 29183 H 2753.25 -2.47986 0.627433 0
M  V30 29184 H 2752.89 -4.98391 0.978216 0
M  V30 29185 H 2752.82 -5.20672 -0.787924 0
M  V30 29186 H 2755.32 -3.77548 -0.16316 0
M  V30 29187 H 2755.63 -7.72248 0.292135 0
M  V30 29188 H 2753.97 -6.94529 0.25578 0
M  V30 29189 H 2757.16 -4.67952 -0.117897 0
M  V30 29190 H 2757.34 -6.47938 0.0894935 0
M  V30 29191 N 2750.74 0.196695 -1.56368 0
M  V30 29192 C 2751.69 1.24784 -1.90822 0
M  V30 29193 C 2752.68 1.41074 -0.773744 0
M  V30 29194 O 2753.87 1.43472 -1.03657 0
M  V30 29195 C 2751 2.59299 -2.24986 0
M  V30 29196 C 2750.09 2.46808 -3.44887 0
M  V30 29197 N 2750.48 2.03995 -4.62839 0
M  V30 29198 C 2748.77 2.77705 -3.48993 0
M  V30 29199 C 2749.48 2.03356 -5.44997 0
M  V30 29200 N 2748.45 2.44798 -4.8536 0
M  V30 29201 H 2752.25 0.908126 -2.79518 0
M  V30 29202 H 2749.77 0.405139 -1.57265 0
M  V30 29203 H 2751.76 3.35222 -2.47854 0
M  V30 29204 H 2750.42 2.94095 -1.37616 0
M  V30 29205 H 2751.44 1.74729 -4.87535 0
M  V30 29206 H 2748.11 3.16708 -2.72034 0
M  V30 29207 H 2749.5 1.72169 -6.49467 0
M  V30 29208 N 2752.22 1.50604 0.464349 0
M  V30 29209 C 2753.47 1.6193 1.21593 0
M  V30 29210 C 2753.8 0.322771 1.91803 0
M  V30 29211 O 2753.05 -0.691744 1.83067 0
M  V30 29212 C 2753.35 2.75398 2.27795 0
M  V30 29213 C 2753.02 4.15643 1.74789 0
M  V30 29214 C 2751.68 4.53802 1.60055 0
M  V30 29215 C 2754.03 5.03268 1.35539 0
M  V30 29216 C 2751.36 5.77318 1.04503 0
M  V30 29217 C 2753.71 6.27338 0.814271 0
M  V30 29218 C 2752.38 6.64292 0.65361 0
M  V30 29219 H 2751.65 0.592544 0.444941 0
M  V30 29220 H 2754.29 1.84558 0.510931 0
M  V30 29221 H 2752.6 2.46885 3.04229 0
M  V30 29222 H 2754.29 2.81364 2.85719 0
M  V30 29223 H 2750.88 3.85544 1.87227 0
M  V30 29224 H 2755.07 4.74415 1.45754 0
M  V30 29225 H 2750.32 6.04619 0.90808 0
M  V30 29226 H 2754.5 6.94592 0.501504 0
M  V30 29227 H 2752.13 7.59879 0.221006 0
M  V30 29228 N 2753.7 -0.717989 1.40295 0
M  V30 29229 C 2754.65 -1.82362 1.3685 0
M  V30 29230 C 2755.63 -1.59001 0.246452 0
M  V30 29231 O 2756.83 -1.70215 0.485366 0
M  V30 29232 C 2753.96 -3.20466 1.2311 0
M  V30 29233 C 2753.04 -3.49599 2.40086 0
M  V30 29234 N 2753.43 -3.49562 3.65568 0
M  V30 29235 C 2751.73 -3.80045 2.33414 0
M  V30 29236 C 2752.43 -3.7697 4.43022 0
M  V30 29237 N 2751.41 -3.95599 3.7283 0
M  V30 29238 H 2755.21 -1.80664 2.31814 0
M  V30 29239 H 2752.72 -0.917006 1.34033 0
M  V30 29240 H 2754.72 -3.99637 1.18725 0
M  V30 29241 H 2753.38 -3.23392 0.291113 0
M  V30 29242 H 2754.39 -3.30469 3.98762 0
M  V30 29243 H 2751.07 -3.90475 1.47768 0
M  V30 29244 H 2752.46 -3.83267 5.51866 0
M  V30 29245 N 2755.18 -1.25752 -0.94996 0
M  V30 29246 C 2756.41 -1.13366 -1.72719 0
M  V30 29247 C 2756.82 0.314809 -1.86563 0
M  V30 29248 O 2756.16 1.228 -1.36623 0
M  V30 29249 C 2756.22 -1.71985 -3.15692 0
M  V30 29250 C 2755.89 -3.21019 -3.25262 0
M  V30 29251 C 2756.88 -4.1795 -3.09214 0
M  V30 29252 C 2754.57 -3.61318 -3.48934 0
M  V30 29253 C 2756.56 -5.53159 -3.16691 0
M  V30 29254 C 2754.25 -4.96663 -3.56046 0
M  V30 29255 C 2755.25 -5.92393 -3.3994 0
M  V30 29256 O 2754.93 -7.25275 -3.46744 0
M  V30 29257 H 2754.67 -0.395982 -0.547881 0
M  V30 29258 H 2757.22 -1.66696 -1.20006 0
M  V30 29259 H 2755.45 -1.13107 -3.69789 0
M  V30 29260 H 2757.14 -1.54631 -3.75292 0
M  V30 29261 H 2757.91 -3.88156 -2.90791 0
M  V30 29262 H 2753.78 -2.87297 -3.60529 0
M  V30 29263 H 2757.33 -6.27859 -3.04037 0
M  V30 29264 H 2753.23 -5.26121 -3.73988 0
M  V30 29265 H 2753.99 -7.33432 -3.63345 0
M  V30 29266 N 2756.66 1.15326 -1.07413 0
M  V30 29267 C 2757.88 1.90008 -0.818816 0
M  V30 29268 C 2758.3 1.78048 0.628041 0
M  V30 29269 O 2757.66 1.13285 1.43083 0
M  V30 29270 C 2757.71 3.40334 -1.2188 0
M  V30 29271 O 2757.43 3.5195 -2.60889 0
M  V30 29272 C 2758.93 4.32038 -0.992872 0
M  V30 29273 H 2756.15 0.602175 -0.296017 0
M  V30 29274 H 2758.69 1.46115 -1.43076 0
M  V30 29275 H 2756.85 3.81888 -0.651171 0
M  V30 29276 H 2757.26 4.4525 -2.77223 0
M  V30 29277 H 2758.74 5.3593 -1.32225 0
M  V30 29278 H 2759.21 4.39143 0.0707559 0
M  V30 29279 H 2759.82 3.96228 -1.54544 0
M  V30 29280 N 2758.13 0.858334 1.32176 0
M  V30 29281 C 2759.38 0.464205 1.97416 0
M  V30 29282 C 2759.71 -0.978484 1.67748 0
M  V30 29283 O 2758.99 -1.68719 0.967684 0
M  V30 29284 C 2759.27 0.708156 3.53068 0
M  V30 29285 C 2759.12 2.19953 3.92353 0
M  V30 29286 C 2760.44 0.166958 4.39783 0
M  V30 29287 H 2757.56 0.170132 0.717094 0
M  V30 29288 H 2760.2 1.07743 1.56497 0
M  V30 29289 H 2758.35 0.186197 3.88054 0
M  V30 29290 H 2760.03 2.78785 3.67528 0
M  V30 29291 H 2758.27 2.67662 3.41379 0
M  V30 29292 H 2758.94 2.32091 5.00837 0
M  V30 29293 H 2761.42 0.613358 4.11555 0
M  V30 29294 H 2760.29 0.367189 5.4767 0
M  V30 29295 H 2760.55 -0.930483 4.32197 0
M  V30 29296 N 2759.61 -1.45036 0.616628 0
M  V30 29297 C 2760.86 -2.03022 0.124001 0
M  V30 29298 C 2761.21 -1.47527 -1.23505 0
M  V30 29299 O 2760.51 -0.644013 -1.80452 0
M  V30 29300 C 2760.7 -3.57382 0.0357457 0
M  V30 29301 C 2760.53 -4.27851 1.3847 0
M  V30 29302 C 2759.3 -4.65412 1.96774 0
M  V30 29303 C 2761.5 -4.5923 2.31544 0
M  V30 29304 N 2759.48 -5.2078 3.25055 0
M  V30 29305 C 2760.85 -5.15527 3.44429 0
M  V30 29306 C 2762.91 -4.41174 2.30803 0
M  V30 29307 C 2761.61 -5.55671 4.56752 0
M  V30 29308 C 2763.63 -4.82356 3.4218 0
M  V30 29309 C 2763 -5.38754 4.53788 0
M  V30 29310 H 2759.1 -0.776924 0.0889564 0
M  V30 29311 H 2761.68 -1.76731 0.816956 0
M  V30 29312 H 2759.85 -3.83315 -0.626453 0
M  V30 29313 H 2761.58 -4.02027 -0.464373 0
M  V30 29314 H 2758.34 -4.49259 1.49878 0
M  V30 29315 H 2758.76 -5.52955 3.90602 0
M  V30 29316 H 2763.4 -3.96876 1.45772 0
M  V30 29317 H 2761.12 -5.9893 5.42502 0
M  V30 29318 H 2764.71 -4.7011 3.42765 0
M  V30 29319 H 2763.59 -5.70034 5.38546 0
M  V30 29320 N 2761.09 -0.356312 -1.53519 0
M  V30 29321 C 2762.5 0.124887 -1.86282 0
M  V30 29322 C 2762.85 1.48937 -1.27719 0
M  V30 29323 O 2761.98 2.08041 -0.595651 0
M  V30 29324 C 2762.57 0.23339 -3.37995 0
M  V30 29325 C 2761.13 0.658834 -3.70589 0
M  V30 29326 C 2760.28 -0.199644 -2.7658 0
M  V30 29327 H 2763.23 -0.575449 -1.479 0
M  V30 29328 H 2763.25 1.05863 -3.65477 0
M  V30 29329 H 2762.76 -0.759842 -3.80589 0
M  V30 29330 H 2760.86 1.66063 -3.33547 0
M  V30 29331 H 2760.98 0.439873 -4.77076 0
M  V30 29332 H 2759.34 0.330031 -2.52553 0
M  V30 29333 H 2760.12 -1.19025 -3.22006 0
M  V30 29334 N 2762.57 1.57369 -0.0852427 0
M  V30 29335 C 2763.85 1.8543 0.622502 0
M  V30 29336 C 2764.23 0.980262 1.8696 0
M  V30 29337 O 2763.57 0.0500621 2.28445 0
M  V30 29338 C 2763.78 3.35897 0.947314 0
M  V30 29339 C 2765.13 4.03723 1.31502 0
M  V30 29340 O 2766.16 3.40721 1.03863 0
M  V30 29341 O 2765.01 5.14871 1.83222 0
M  V30 29342 H 2762.11 0.766498 0.3105 0
M  V30 29343 H 2764.65 1.69295 -0.117194 0
M  V30 29344 H 2763.43 3.91251 0.0621576 0
M  V30 29345 H 2763.05 3.57343 1.74332 0
M  V30 29346 N 2764.05 -0.188399 1.5647 0
M  V30 29347 C 2765 -1.2377 1.91481 0
M  V30 29348 C 2765.98 -1.40662 0.781215 0
M  V30 29349 O 2767.17 -1.4292 1.04417 0
M  V30 29350 C 2764.3 -2.58102 2.26358 0
M  V30 29351 C 2763.39 -2.44975 3.46191 0
M  V30 29352 N 2763.78 -2.01537 4.63914 0
M  V30 29353 C 2762.08 -2.7585 3.50461 0
M  V30 29354 C 2762.78 -2.00463 5.46067 0
M  V30 29355 N 2761.75 -2.42221 4.86652 0
M  V30 29356 H 2765.56 -0.89329 2.79996 0
M  V30 29357 H 2763.07 -0.396793 1.57478 0
M  V30 29358 H 2765.07 -3.33903 2.49628 0
M  V30 29359 H 2763.73 -2.93361 1.39174 0
M  V30 29360 H 2764.74 -1.72141 4.88455 0
M  V30 29361 H 2761.41 -3.1526 2.7371 0
M  V30 29362 H 2762.8 -1.68722 6.50371 0
M  V30 29363 N 2765.53 -1.50848 -0.456355 0
M  V30 29364 C 2766.77 -1.62252 -1.20494 0
M  V30 29365 C 2767.09 -0.331872 -1.92155 0
M  V30 29366 O 2766.36 0.651411 -1.84752 0
M  V30 29367 H 2764.94 -0.597926 -0.447765 0
M  V30 29368 H 2767.61 -1.87694 -0.525066 0
M  V30 29369 H 2766.7 -2.44092 -1.94487 0
M  V30 29370 N 2767 0.710538 -1.40674 0
M  V30 29371 C 2768.25 1.47265 -1.39431 0
M  V30 29372 C 2768.58 1.942 0.00178716 0
M  V30 29373 O 2767.86 1.68508 0.971357 0
M  V30 29374 C 2768.14 2.69516 -2.38817 0
M  V30 29375 C 2767.99 2.28442 -3.87471 0
M  V30 29376 C 2769.31 3.71685 -2.35666 0
M  V30 29377 H 2766.43 0.534164 -0.507778 0
M  V30 29378 H 2769.07 0.810517 -1.71845 0
M  V30 29379 H 2767.22 3.26009 -2.11306 0
M  V30 29380 H 2768.9 1.77391 -4.25829 0
M  V30 29381 H 2767.14 1.60388 -4.03061 0
M  V30 29382 H 2767.81 3.16095 -4.52535 0
M  V30 29383 H 2770.29 3.24831 -2.60046 0
M  V30 29384 H 2769.16 4.54854 -3.07245 0
M  V30 29385 H 2769.42 4.20336 -1.37003 0
M  V30 29386 N 2768.48 1.26254 0.943277 0
M  V30 29387 C 2769.89 1.10616 1.50403 0
M  V30 29388 C 2770.24 -0.314256 1.93667 0
M  V30 29389 O 2769.37 -1.20552 1.79711 0
M  V30 29390 C 2769.96 2.00187 2.73333 0
M  V30 29391 C 2768.52 1.88701 3.25682 0
M  V30 29392 C 2767.67 1.93662 1.9847 0
M  V30 29393 H 2770.62 1.39374 0.758982 0
M  V30 29394 H 2770.64 1.54853 3.47564 0
M  V30 29395 H 2770.15 3.03559 2.41813 0
M  V30 29396 H 2768.25 0.882553 3.61997 0
M  V30 29397 H 2768.37 2.74121 3.9293 0
M  V30 29398 H 2766.73 1.37688 2.14276 0
M  V30 29399 H 2767.51 2.9866 1.69284 0
M  V30 29400 N 2769.96 -1.14755 1.08024 0
M  V30 29401 C 2770.87 -2.23332 0.718331 0
M  V30 29402 C 2771.89 -1.71838 -0.273447 0
M  V30 29403 O 2773.06 -2.01052 -0.11837 0
M  V30 29404 C 2770.13 -3.4646 0.128916 0
M  V30 29405 C 2769.19 -4.12913 1.17481 0
M  V30 29406 C 2768.42 -5.30163 0.613423 0
M  V30 29407 O 2768.64 -5.67561 -0.568358 0
M  V30 29408 O 2767.58 -5.86297 1.3616 0
M  V30 29409 H 2771.4 -2.56633 1.62399 0
M  V30 29410 H 2768.99 -1.2261 0.853649 0
M  V30 29411 H 2770.87 -4.20938 -0.197175 0
M  V30 29412 H 2769.55 -3.14893 -0.749959 0
M  V30 29413 H 2768.45 -3.40325 1.55336 0
M  V30 29414 H 2769.79 -4.48577 2.02582 0
M  V30 29415 N 2771.44 -0.865331 -1.31719 0
M  V30 29416 C 2772.67 -0.488286 -2.01056 0
M  V30 29417 C 2773.08 0.917971 -1.64981 0
M  V30 29418 O 2772.44 1.60067 -0.876625 0
M  V30 29419 C 2772.49 -0.630286 -3.55963 0
M  V30 29420 O 2772.21 -1.98116 -3.90745 0
M  V30 29421 C 2773.71 -0.253645 -4.42574 0
M  V30 29422 H 2770.93 -0.190748 -0.643317 0
M  V30 29423 H 2773.47 -1.16522 -1.68056 0
M  V30 29424 H 2771.63 -0.000963517 -3.874 0
M  V30 29425 H 2772.04 -1.98559 -4.85463 0
M  V30 29426 H 2773.52 -0.403971 -5.5052 0
M  V30 29427 H 2773.99 0.806819 -4.31726 0
M  V30 29428 H 2774.6 -0.858478 -4.16546 0
M  V30 29429 N 2772.92 1.44707 -0.624311 0
M  V30 29430 C 2774.14 2.06472 -0.132955 0
M  V30 29431 C 2774.56 1.46604 1.18965 0
M  V30 29432 O 2773.92 0.586371 1.72823 0
M  V30 29433 C 2773.97 3.615 -0.00471772 0
M  V30 29434 O 2773.69 4.19136 -1.27501 0
M  V30 29435 C 2775.19 4.40285 0.516135 0
M  V30 29436 H 2772.41 0.666621 -0.0765318 0
M  V30 29437 H 2774.95 1.85686 -0.856783 0
M  V30 29438 H 2773.11 3.81571 0.669516 0
M  V30 29439 H 2773.52 5.12502 -1.11545 0
M  V30 29440 H 2775 5.49204 0.554897 0
M  V30 29441 H 2775.47 4.11247 1.54182 0
M  V30 29442 H 2776.08 4.25117 -0.124616 0
M  V30 29443 N 2774.39 0.364449 1.53328 0
M  V30 29444 C 2775.33 -0.517253 2.23287 0
M  V30 29445 C 2776.34 -1.04709 1.24659 0
M  V30 29446 O 2777.53 -0.953664 1.50889 0
M  V30 29447 C 2774.63 -1.7268 2.91607 0
M  V30 29448 C 2773.8 -1.32865 4.16732 0
M  V30 29449 C 2772.86 -2.40014 4.68273 0
M  V30 29450 O 2771.89 -2.02452 5.31979 0
M  V30 29451 N 2773.09 -3.71583 4.45989 0
M  V30 29452 H 2775.85 0.0819918 2.99588 0
M  V30 29453 H 2773.41 0.189572 1.60786 0
M  V30 29454 H 2775.41 -2.43835 3.22997 0
M  V30 29455 H 2773.98 -2.23294 2.18766 0
M  V30 29456 H 2773.2 -0.447 3.91657 0
M  V30 29457 H 2774.48 -1.03893 4.9808 0
M  V30 29458 H 2773.88 -4.04877 3.95084 0
M  V30 29459 H 2772.44 -4.38845 4.81932 0
M  V30 29460 N 2775.87 -1.57322 0.0935872 0
M  V30 29461 C 2777.1 -1.99058 -0.582289 0
M  V30 29462 C 2777.52 -0.97227 -1.61023 0
M  V30 29463 O 2776.88 0.0594303 -1.81203 0
M  V30 29464 C 2776.93 -3.39767 -1.20793 0
M  V30 29465 O 2776.03 -3.40698 -2.32376 0
M  V30 29466 H 2775.37 -0.647325 -0.147872 0
M  V30 29467 H 2777.9 -2.03854 0.174552 0
M  V30 29468 H 2777.91 -3.77428 -1.54959 0
M  V30 29469 H 2776.59 -4.13405 -0.454841 0
M  V30 29470 H 2775.16 -3.14831 -1.9984 0
M  V30 29471 N 2777.35 0.180099 -1.56568 0
M  V30 29472 C 2778.28 1.2255 -1.98756 0
M  V30 29473 C 2779.26 1.46654 -0.861776 0
M  V30 29474 O 2780.45 1.58137 -1.12722 0
M  V30 29475 C 2777.58 2.56641 -2.33993 0
M  V30 29476 C 2776.53 2.47122 -3.49449 0
M  V30 29477 C 2775.86 3.85623 -3.70404 0
M  V30 29478 C 2777.16 1.98343 -4.83174 0
M  V30 29479 H 2778.85 0.874846 -2.86333 0
M  V30 29480 H 2776.4 0.41939 -1.37757 0
M  V30 29481 H 2778.35 3.2997 -2.62103 0
M  V30 29482 H 2777.07 2.93477 -1.43314 0
M  V30 29483 H 2775.73 1.76248 -3.21453 0
M  V30 29484 H 2775.38 4.19837 -2.77031 0
M  V30 29485 H 2775.08 3.80125 -4.48084 0
M  V30 29486 H 2776.6 4.60551 -4.00905 0
M  V30 29487 H 2778.02 2.6144 -5.10217 0
M  V30 29488 H 2776.41 2.03813 -5.64429 0
M  V30 29489 H 2777.48 0.937319 -4.75754 0
M  V30 29490 N 2778.83 1.51088 0.448349 0
M  V30 29491 C 2780.08 1.62446 1.19558 0
M  V30 29492 C 2780.39 0.341185 1.92601 0
M  V30 29493 O 2781.6 0.333984 2.69438 0
M  V30 29494 C 2780.05 2.86844 2.17368 0
M  V30 29495 C 2779.66 4.22134 1.50023 0
M  V30 29496 C 2781.4 3.07556 2.92592 0
M  V30 29497 C 2779.31 5.37693 2.46252 0
M  V30 29498 H 2778.24 0.605019 0.449965 0
M  V30 29499 H 2780.89 1.77544 0.463704 0
M  V30 29500 H 2779.27 2.65355 2.93944 0
M  V30 29501 H 2780.45 4.53964 0.790806 0
M  V30 29502 H 2778.76 4.07211 0.86994 0
M  V30 29503 H 2781.36 3.91063 3.64656 0
M  V30 29504 H 2781.7 2.20189 3.53302 0
M  V30 29505 H 2782.24 3.29333 2.23125 0
M  V30 29506 H 2778.97 6.27285 1.90247 0
M  V30 29507 H 2778.49 5.10253 3.1528 0
M  V30 29508 H 2780.17 5.69195 3.07613 0
M  V30 29509 N 2780.31 -0.703068 1.41049 0
M  V30 29510 C 2781.24 -1.82825 1.38231 0
M  V30 29511 C 2782.25 -1.60274 0.285665 0
M  V30 29512 O 2783.44 -1.69916 0.54688 0
M  V30 29513 C 2780.54 -3.19456 1.13141 0
M  V30 29514 C 2779.71 -3.69099 2.34702 0
M  V30 29515 C 2778.77 -4.84378 2.05582 0
M  V30 29516 O 2777.8 -4.96381 2.78557 0
M  V30 29517 N 2779 -5.71081 1.04145 0
M  V30 29518 H 2781.77 -1.85737 2.35206 0
M  V30 29519 H 2779.33 -0.885101 1.35564 0
M  V30 29520 H 2781.32 -3.94191 0.916252 0
M  V30 29521 H 2779.89 -3.11616 0.247891 0
M  V30 29522 H 2779.11 -2.85354 2.71968 0
M  V30 29523 H 2780.4 -3.99003 3.15712 0
M  V30 29524 H 2779.79 -5.64007 0.437319 0
M  V30 29525 H 2778.35 -6.45748 0.886191 0
M  V30 29526 N 2781.78 -1.26752 -0.936569 0
M  V30 29527 C 2783.03 -1.12569 -1.68329 0
M  V30 29528 C 2783.36 0.330134 -1.91678 0
M  V30 29529 O 2782.61 1.25858 -1.49861 0
M  V30 29530 C 2782.91 -1.84499 -3.06096 0
M  V30 29531 C 2782.58 -3.34384 -3.02487 0
M  V30 29532 C 2781.24 -3.75268 -3.0121 0
M  V30 29533 C 2783.59 -4.3006 -2.94445 0
M  V30 29534 C 2780.92 -5.10208 -2.89663 0
M  V30 29535 C 2783.27 -5.65046 -2.84439 0
M  V30 29536 C 2781.94 -6.05235 -2.81508 0
M  V30 29537 H 2781.21 -0.411918 -0.615958 0
M  V30 29538 H 2783.85 -1.57252 -1.09289 0
M  V30 29539 H 2782.16 -1.32299 -3.68788 0
M  V30 29540 H 2783.86 -1.70961 -3.6273 0
M  V30 29541 H 2780.45 -3.01864 -3.04263 0
M  V30 29542 H 2784.63 -3.99452 -2.94537 0
M  V30 29543 H 2779.89 -5.40503 -2.85774 0
M  V30 29544 H 2784.06 -6.38861 -2.77181 0
M  V30 29545 H 2781.69 -7.09752 -2.72316 0
M  V30 29546 N 2783.26 1.1418 -1.08631 0
M  V30 29547 C 2784.51 1.85545 -0.818589 0
M  V30 29548 C 2784.84 1.82855 0.654044 0
M  V30 29549 O 2784.12 1.26086 1.48097 0
M  V30 29550 C 2784.4 3.34078 -1.34403 0
M  V30 29551 C 2784.25 3.45328 -2.88217 0
M  V30 29552 C 2785.57 4.29251 -0.971144 0
M  V30 29553 H 2782.69 0.673697 -0.298833 0
M  V30 29554 H 2785.33 1.34068 -1.34632 0
M  V30 29555 H 2783.48 3.78047 -0.89513 0
M  V30 29556 H 2785.15 3.10128 -3.41494 0
M  V30 29557 H 2783.4 2.86465 -3.25761 0
M  V30 29558 H 2784.07 4.49743 -3.20055 0
M  V30 29559 H 2786.54 3.9331 -1.35816 0
M  V30 29560 H 2785.42 5.31632 -1.36595 0
M  V30 29561 H 2785.68 4.41933 0.121581 0
M  V30 29562 N 2784.74 0.872304 1.31258 0
M  V30 29563 C 2786.16 0.564547 1.49282 0
M  V30 29564 C 2786.36 -0.900776 1.80245 0
M  V30 29565 O 2785.41 -1.68281 1.88249 0
M  V30 29566 C 2786.73 1.46677 2.625 0
M  V30 29567 C 2788.27 1.46906 2.76383 0
M  V30 29568 C 2788.75 2.35691 3.92701 0
M  V30 29569 N 2790.24 2.33584 3.99991 0
M  V30 29570 C 2790.97 2.99001 4.89271 0
M  V30 29571 N 2790.47 3.73596 5.83436 0
M  V30 29572 N 2792.26 2.88297 4.82536 0
M  V30 29573 H 2784.41 1.82041 1.09429 0
M  V30 29574 H 2786.68 0.77852 0.540935 0
M  V30 29575 H 2786.38 2.50955 2.46403 0
M  V30 29576 H 2786.26 1.16702 3.58693 0
M  V30 29577 H 2788.64 0.433848 2.91893 0
M  V30 29578 H 2788.73 1.80906 1.8085 0
M  V30 29579 H 2788.37 3.3929 3.77948 0
M  V30 29580 H 2788.3 1.99014 4.87546 0
M  V30 29581 H 2790.79 1.79365 3.32621 0
M  V30 29582 H 2791.1 4.20633 6.48296 0
M  V30 29583 H 2789.45 3.77704 5.83408 0
M  V30 29584 H 2792.64 2.29558 4.07947 0
M  V30 29585 H 2792.81 3.39558 5.5191 0
M  V30 29586 N 2786.22 -1.44374 0.631976 0
M  V30 29587 C 2787.45 -2.06399 0.143903 0
M  V30 29588 C 2787.86 -1.47233 -1.18186 0
M  V30 29589 O 2787.22 -0.595528 -1.7251 0
M  V30 29590 C 2787.27 -3.61492 0.0238889 0
M  V30 29591 O 2786.99 -4.18454 1.29722 0
M  V30 29592 C 2788.49 -4.40553 -0.492779 0
M  V30 29593 H 2785.71 -0.666206 0.0800659 0
M  V30 29594 H 2788.26 -1.8523 0.866619 0
M  V30 29595 H 2786.41 -3.8192 -0.649271 0
M  V30 29596 H 2786.82 -5.11903 1.14261 0
M  V30 29597 H 2788.3 -5.4949 -0.525764 0
M  V30 29598 H 2788.78 -4.12059 -1.51999 0
M  V30 29599 H 2789.38 -4.25045 0.14716 0
M  V30 29600 N 2787.7 -0.372575 -1.53133 0
M  V30 29601 C 2788.94 0.215242 -2.01655 0
M  V30 29602 C 2789.28 1.47847 -1.25916 0
M  V30 29603 O 2788.55 1.91236 -0.354833 0
M  V30 29604 C 2788.83 0.500125 -3.5661 0
M  V30 29605 C 2788.69 -0.777223 -4.43034 0
M  V30 29606 C 2790.01 1.29779 -4.2053 0
M  V30 29607 H 2787.12 0.0767557 -0.732992 0
M  V30 29608 H 2789.77 -0.498846 -1.83334 0
M  V30 29609 H 2787.92 1.10845 -3.72351 0
M  V30 29610 H 2789.59 -1.41455 -4.39077 0
M  V30 29611 H 2787.83 -1.39611 -4.1072 0
M  V30 29612 H 2788.5 -0.532758 -5.49423 0
M  V30 29613 H 2790.98 0.783126 -4.08664 0
M  V30 29614 H 2789.85 1.46586 -5.28965 0
M  V30 29615 H 2790.12 2.30829 -3.77055 0
M  V30 29616 N 2789.17 1.5727 -0.101929 0
M  V30 29617 C 2790.59 1.57554 0.254712 0
M  V30 29618 C 2790.79 1.11355 1.67935 0
M  V30 29619 O 2789.85 0.793124 2.3972 0
M  V30 29620 C 2791.16 3.00677 0.0369221 0
M  V30 29621 C 2792.71 3.12827 0.104144 0
M  V30 29622 C 2793.18 4.5792 -0.085737 0
M  V30 29623 N 2794.67 4.6319 -0.0311313 0
M  V30 29624 C 2795.41 5.73195 -0.1532 0
M  V30 29625 N 2794.9 6.92011 -0.330485 0
M  V30 29626 N 2796.7 5.62021 -0.0939841 0
M  V30 29627 H 2788.85 1.85607 -1.03266 0
M  V30 29628 H 2791.11 0.857008 -0.405266 0
M  V30 29629 H 2790.82 3.38702 -0.947314 0
M  V30 29630 H 2790.69 3.69126 0.77627 0
M  V30 29631 H 2793.08 2.74671 1.07889 0
M  V30 29632 H 2793.16 2.46956 -0.666806 0
M  V30 29633 H 2792.8 4.96771 -1.05738 0
M  V30 29634 H 2792.73 5.2186 0.70499 0
M  V30 29635 H 2795.22 3.77759 0.103075 0
M  V30 29636 H 2795.54 7.71685 -0.414956 0
M  V30 29637 H 2793.88 6.94034 -0.366241 0
M  V30 29638 H 2797.07 4.6808 0.0434346 0
M  V30 29639 H 2797.25 6.47714 -0.192563 0
M  V30 29640 N 2790.65 -0.171793 1.56661 0
M  V30 29641 C 2791.93 -0.915748 1.72839 0
M  V30 29642 C 2792.31 -2.00412 0.663196 0
M  V30 29643 O 2791.66 -2.26219 -0.322083 0
M  V30 29644 C 2791.87 -1.48091 3.16022 0
M  V30 29645 C 2793.22 -1.95402 3.76966 0
M  V30 29646 O 2794.24 -1.57886 3.19297 0
M  V30 29647 O 2793.1 -2.64507 4.78224 0
M  V30 29648 H 2790.19 -0.431009 0.705805 0
M  V30 29649 H 2792.74 -0.159659 1.68947 0
M  V30 29650 H 2791.51 -0.69755 3.85032 0
M  V30 29651 H 2791.13 -2.3012 3.24238 0
M  V30 29652 N 2792.13 -1.51324 -0.44033 0
M  V30 29653 C 2793.36 -1.67404 -1.21076 0
M  V30 29654 C 2793.77 -0.369631 -1.85554 0
M  V30 29655 O 2793.11 0.661495 -1.71377 0
M  V30 29656 C 2793.17 -2.7306 -2.33834 0
M  V30 29657 C 2792.84 -4.15746 -1.89748 0
M  V30 29658 C 2793.83 -5.00623 -1.4026 0
M  V30 29659 C 2791.52 -4.6183 -1.97531 0
M  V30 29660 C 2793.51 -6.29643 -0.991363 0
M  V30 29661 C 2791.2 -5.90848 -1.56019 0
M  V30 29662 C 2792.2 -6.74582 -1.06903 0
M  V30 29663 O 2791.89 -8.01188 -0.659793 0
M  V30 29664 H 2791.62 -0.565016 -0.371123 0
M  V30 29665 H 2794.17 -1.98488 -0.528374 0
M  V30 29666 H 2792.4 -2.37285 -3.05341 0
M  V30 29667 H 2794.09 -2.78049 -2.95708 0
M  V30 29668 H 2794.86 -4.66223 -1.33644 0
M  V30 29669 H 2790.74 -3.9678 -2.34706 0
M  V30 29670 H 2794.28 -6.94952 -0.607303 0
M  V30 29671 H 2790.18 -6.24762 -1.62304 0
M  V30 29672 H 2790.95 -8.14718 -0.785909 0
M  V30 29673 N 2793.61 0.695578 -1.41419 0
M  V30 29674 C 2794.86 1.45127 -1.40075 0
M  V30 29675 C 2795.17 1.95596 -0.0130782 0
M  V30 29676 O 2796.38 2.71221 0.122985 0
M  V30 29677 C 2794.83 2.62429 -2.46291 0
M  V30 29678 C 2794.44 2.18746 -3.90965 0
M  V30 29679 C 2796.18 3.40062 -2.54083 0
M  V30 29680 C 2794.09 3.33006 -4.88734 0
M  V30 29681 H 2793.02 0.545129 -0.520913 0
M  V30 29682 H 2795.67 0.755121 -1.67243 0
M  V30 29683 H 2794.05 3.34312 -2.12254 0
M  V30 29684 H 2795.23 1.54153 -4.3425 0
M  V30 29685 H 2793.54 1.54107 -3.86833 0
M  V30 29686 H 2796.14 4.2512 -3.2431 0
M  V30 29687 H 2796.48 3.85247 -1.57766 0
M  V30 29688 H 2797.02 2.75236 -2.87211 0
M  V30 29689 H 2793.76 2.92833 -5.86455 0
M  V30 29690 H 2793.28 3.9645 -4.50098 0
M  V30 29691 H 2794.95 3.98784 -5.0949 0
M  V30 29692 N 2795.09 1.27247 0.929833 0
M  V30 29693 C 2796.04 1.0962 2.05149 0
M  V30 29694 C 2797.03 0.0198915 1.69388 0
M  V30 29695 O 2798.24 0.177448 1.79123 0
M  V30 29696 H 2794.61 0.337713 0.671903 0
M  V30 29697 H 2796.58 2.04651 2.17164 0
M  V30 29698 C 2795.33 0.757911 3.39339 0
M  V30 29699 H 2794.65 1.57802 3.6734 0
M  V30 29700 H 2796.09 0.674432 4.18602 0
M  V30 29701 C 2794.55 -0.537599 3.32583 0
M  V30 29702 O 2795.08 -1.57264 3.69636 0
M  V30 29703 N 2793.29 -0.532427 2.85681 0
M  V30 29704 H 2792.84 0.310278 2.55725 0
M  V30 29705 H 2792.79 -1.39931 2.81543 0
M  V30 29706 N 2796.57 -1.13603 1.09235 0
M  V30 29707 C 2797.98 -1.36825 0.821654 0
M  V30 29708 C 2798.18 -1.93417 -0.564987 0
M  V30 29709 O 2797.24 -2.15236 -1.32022 0
M  V30 29710 C 2798.55 -2.32143 1.91128 0
M  V30 29711 C 2800.1 -2.45763 1.93828 0
M  V30 29712 C 2800.57 -3.44388 3.01929 0
M  V30 29713 N 2802.06 -3.51937 3.01155 0
M  V30 29714 C 2802.8 -4.28124 3.81442 0
M  V30 29715 N 2802.3 -5.07481 4.7163 0
M  V30 29716 N 2804.09 -4.23405 3.69709 0
M  V30 29717 H 2796.24 -0.7522 1.98635 0
M  V30 29718 H 2798.5 -0.393467 0.862489 0
M  V30 29719 H 2798.21 -1.97712 2.90865 0
M  V30 29720 H 2798.08 -3.32139 1.78783 0
M  V30 29721 H 2800.47 -2.79482 0.947309 0
M  V30 29722 H 2800.55 -1.45699 2.10251 0
M  V30 29723 H 2800.19 -3.11401 4.01238 0
M  V30 29724 H 2800.12 -4.44252 2.8275 0
M  V30 29725 H 2802.62 -2.95313 2.35794 0
M  V30 29726 H 2802.93 -5.62915 5.29478 0
M  V30 29727 H 2801.27 -5.0672 4.75667 0
M  V30 29728 H 2804.46 -3.60484 2.98612 0
M  V30 29729 H 2804.64 -4.82528 4.32517 0
M  V30 29730 N 2798.04 -0.879253 -1.30793 0
M  V30 29731 C 2799.27 -0.508805 -2.01062 0
M  V30 29732 C 2799.69 0.893774 -1.65509 0
M  V30 29733 O 2799.05 1.59136 -0.868644 0
M  V30 29734 C 2799.1 -0.684053 -3.54052 0
M  V30 29735 O 2798.2 0.272582 -4.11498 0
M  V30 29736 H 2797.54 -0.201202 -0.632782 0
M  V30 29737 H 2800.07 -1.18522 -1.66774 0
M  V30 29738 H 2800.08 -0.580869 -4.03844 0
M  V30 29739 H 2798.76 -1.70671 -3.79268 0
M  V30 29740 H 2797.34 0.123574 -3.72695 0
M  V30 29741 N 2799.52 1.44037 -0.639624 0
M  V30 29742 C 2800.93 1.85292 -0.228899 0
M  V30 29743 C 2801.28 1.53531 1.22158 0
M  V30 29744 O 2800.41 0.977552 1.93062 0
M  V30 29745 C 2801 3.36326 -0.408651 0
M  V30 29746 C 2799.56 3.76364 -0.0523615 0
M  V30 29747 C 2798.71 2.67843 -0.718006 0
M  V30 29748 H 2801.66 1.34382 -0.844218 0
M  V30 29749 H 2801.68 3.78888 0.349901 0
M  V30 29750 H 2801.19 3.59411 -1.46442 0
M  V30 29751 H 2799.29 3.58893 1.00134 0
M  V30 29752 H 2799.41 4.76805 -0.468345 0
M  V30 29753 H 2797.77 2.54243 -0.152504 0
M  V30 29754 H 2798.55 2.93759 -1.77653 0
M  V30 29755 N 2801 0.380691 1.52933 0
M  V30 29756 C 2802.25 -0.203839 2.01069 0
M  V30 29757 C 2802.57 -1.48038 1.26925 0
M  V30 29758 O 2801.84 -1.92043 0.38682 0
M  V30 29759 H 2800.42 -0.0783148 0.742883 0
M  V30 29760 H 2803.08 0.510401 1.88098 0
M  V30 29761 H 2802.18 -0.420156 3.09259 0
M  V30 29762 N 2802.48 -1.57214 0.110268 0
M  V30 29763 C 2803.44 -2.13691 -0.828771 0
M  V30 29764 C 2804.44 -1.06971 -1.20057 0
M  V30 29765 O 2805.63 -1.32788 -1.12752 0
M  V30 29766 C 2802.76 -2.66998 -2.11955 0
M  V30 29767 H 2803.96 -2.97988 -0.338094 0
M  V30 29768 H 2801.51 -1.55682 -0.138886 0
M  V30 29769 H 2802.24 -1.86265 -2.65473 0
M  V30 29770 H 2802.03 -3.4504 -1.86252 0
M  V30 29771 H 2803.52 -3.10634 -2.79099 0
M  V30 29772 N 2803.96 0.163482 -1.5675 0
M  V30 29773 C 2805.2 0.877098 -1.82075 0
M  V30 29774 C 2805.52 1.8244 -0.688535 0
M  V30 29775 O 2804.79 1.93726 0.291051 0
M  V30 29776 H 2803.37 0.326882 -0.671683 0
M  V30 29777 H 2806.04 0.161425 -1.9423 0
M  V30 29778 H 2805.13 1.44929 -2.76409 0
M  V30 29779 N 2805.43 1.51555 0.432299 0
M  V30 29780 C 2806.84 1.56894 1.01199 0
M  V30 29781 C 2807.2 0.395428 1.92174 0
M  V30 29782 O 2806.32 -0.487161 2.10845 0
M  V30 29783 C 2806.92 2.84344 1.84212 0
M  V30 29784 C 2805.47 2.92237 2.37223 0
M  V30 29785 C 2804.62 2.51608 1.16571 0
M  V30 29786 H 2807.57 1.57259 0.21338 0
M  V30 29787 H 2807.59 2.6839 2.69717 0
M  V30 29788 H 2807.11 3.69735 1.17973 0
M  V30 29789 H 2805.21 2.11287 3.06902 0
M  V30 29790 H 2805.32 3.95995 2.69675 0
M  V30 29791 H 2803.68 2.04921 1.51259 0
M  V30 29792 H 2804.47 3.39349 0.519344 0
M  V30 29793 N 2806.91 -0.688069 1.41786 0
M  V30 29794 C 2808.14 -1.4767 1.44917 0
M  V30 29795 C 2808.55 -1.88715 0.0566118 0
M  V30 29796 O 2807.91 -1.57276 -0.925762 0
M  V30 29797 C 2807.96 -2.73442 2.36456 0
M  V30 29798 O 2807.68 -2.34124 3.70294 0
M  V30 29799 C 2809.18 -3.67121 2.4847 0
M  V30 29800 H 2806.4 -0.454824 0.493332 0
M  V30 29801 H 2808.95 -0.846561 1.86155 0
M  V30 29802 H 2807.1 -3.32676 1.98508 0
M  V30 29803 H 2807.52 -3.15248 4.19189 0
M  V30 29804 H 2808.99 -4.52133 3.1667 0
M  V30 29805 H 2809.47 -4.1212 1.51833 0
M  V30 29806 H 2810.07 -3.13787 2.87085 0
M  V30 29807 N 2808.39 -1.27739 -0.923072 0
M  V30 29808 C 2809.64 -1.14517 -1.67373 0
M  V30 29809 C 2809.97 0.307391 -1.91752 0
M  V30 29810 O 2809.24 1.22444 -1.51121 0
M  V30 29811 C 2809.53 -1.93425 -3.03741 0
M  V30 29812 C 2809.38 -3.46691 -2.86575 0
M  V30 29813 C 2810.7 -1.74235 -4.04141 0
M  V30 29814 H 2807.82 -0.417385 -0.60742 0
M  V30 29815 H 2810.46 -1.56948 -1.07086 0
M  V30 29816 H 2808.61 -1.57366 -3.55201 0
M  V30 29817 H 2810.28 -3.92605 -2.42196 0
M  V30 29818 H 2808.52 -3.72797 -2.21822 0
M  V30 29819 H 2809.2 -3.9715 -3.83374 0
M  V30 29820 H 2811.67 -2.05684 -3.61709 0
M  V30 29821 H 2810.55 -2.31833 -4.97539 0
M  V30 29822 H 2810.81 -0.691449 -4.36659 0
M  V30 29823 N 2809.87 1.13022 -1.09836 0
M  V30 29824 C 2811.11 1.84666 -0.838222 0
M  V30 29825 C 2811.45 1.83538 0.634613 0
M  V30 29826 O 2810.72 1.27649 1.46751 0
M  V30 29827 C 2811.01 3.32633 -1.37938 0
M  V30 29828 C 2810.86 3.42251 -2.91863 0
M  V30 29829 C 2812.18 4.28197 -1.01662 0
M  V30 29830 H 2809.3 0.67049 -0.305962 0
M  V30 29831 H 2811.94 1.32633 -1.36046 0
M  V30 29832 H 2810.09 3.77077 -0.935177 0
M  V30 29833 H 2811.76 3.06489 -3.44764 0
M  V30 29834 H 2810 2.82994 -3.28781 0
M  V30 29835 H 2810.67 4.46323 -3.24807 0
M  V30 29836 H 2813.15 3.91848 -1.3998 0
M  V30 29837 H 2812.03 5.30154 -1.42226 0
M  V30 29838 H 2812.29 4.42037 0.0747017 0
M  V30 29839 N 2811.35 0.886177 1.30325 0
M  V30 29840 C 2812.3 0.325288 2.25668 0
M  V30 29841 C 2813.28 -0.546946 1.51319 0
M  V30 29842 O 2814.47 -0.391173 1.72623 0
M  V30 29843 C 2811.6 -0.458107 3.4023 0
M  V30 29844 C 2810.69 0.428282 4.21932 0
M  V30 29845 N 2811.08 1.52929 4.82127 0
M  V30 29846 C 2809.38 0.223613 4.45439 0
M  V30 29847 C 2810.08 2.07724 5.43347 0
M  V30 29848 N 2809.05 1.37204 5.26 0
M  V30 29849 H 2812.86 1.16655 2.69757 0
M  V30 29850 H 2810.37 0.735717 1.44779 0
M  V30 29851 H 2812.37 -0.876576 4.0758 0
M  V30 29852 H 2811.03 -1.29679 2.9768 0
M  V30 29853 H 2812.04 1.91214 4.81308 0
M  V30 29854 H 2808.71 -0.577803 4.13482 0
M  V30 29855 H 2810.1 3.00189 6.01113 0
M  V30 29856 N 2812.82 -1.43695 0.647253 0
M  V30 29857 C 2814.06 -2.03759 0.161746 0
M  V30 29858 C 2814.43 -1.49922 -1.19948 0
M  V30 29859 O 2815.63 -2.01591 -1.77805 0
M  V30 29860 C 2813.9 -3.57018 0.165113 0
M  V30 29861 S 2815.46 -4.38068 -0.25342 0
M  V30 29862 H 2812.28 -0.707643 0.0690109 0
M  V30 29863 H 2814.88 -1.75849 0.854254 0
M  V30 29864 H 2813.58 -3.93705 1.15865 0
M  V30 29865 H 2813.11 -3.89563 -0.548126 0
M  V30 29866 H 2815.13 -4.73182 -1.49377 0
M  V30 29867 N 2814.3 -0.388796 -1.52729 0
M  V30 29868 C 2815.53 0.196174 -2.0647 0
M  V30 29869 C 2815.95 1.39782 -1.25868 0
M  V30 29870 O 2815.31 1.79068 -0.283594 0
M  V30 29871 C 2815.36 0.545037 -3.56457 0
M  V30 29872 O 2814.46 1.63906 -3.78429 0
M  V30 29873 H 2813.8 0.0230553 -0.6636 0
M  V30 29874 H 2816.33 -0.556119 -1.96897 0
M  V30 29875 H 2816.34 0.809487 -3.99889 0
M  V30 29876 H 2815.02 -0.333489 -4.14561 0
M  V30 29877 H 2813.6 1.36836 -3.46887 0
M  V30 29878 N 2815.78 1.57153 -0.118604 0
M  V30 29879 C 2816.74 2.14128 0.817427 0
M  V30 29880 C 2817.74 1.07606 1.19488 0
M  V30 29881 O 2818.93 1.33384 1.12046 0
M  V30 29882 C 2816.07 2.68118 2.10536 0
M  V30 29883 H 2817.26 2.98163 0.322286 0
M  V30 29884 H 2814.81 1.55753 0.130628 0
M  V30 29885 H 2815.55 1.8767 2.64482 0
M  V30 29886 H 2815.33 3.46023 1.84419 0
M  V30 29887 H 2816.82 3.1211 2.77448 0
M  V30 29888 N 2817.26 -0.155167 1.56834 0
M  V30 29889 C 2818.51 -0.86743 1.82538 0
M  V30 29890 C 2818.83 -1.82072 0.6982 0
M  V30 29891 O 2818.1 -1.93877 -0.280773 0
M  V30 29892 H 2816.68 -0.323315 0.673407 0
M  V30 29893 H 2819.34 -0.151122 1.94313 0
M  V30 29894 H 2818.44 -1.43461 2.77174 0
M  V30 29895 N 2818.74 -1.51782 -0.424256 0
M  V30 29896 C 2819.98 -1.65342 -1.17431 0
M  V30 29897 C 2820.32 -0.37484 -1.90548 0
M  V30 29898 O 2819.59 0.626147 -1.84146 0
M  V30 29899 C 2819.87 -2.86548 -2.18088 0
M  V30 29900 C 2819.73 -4.24416 -1.48967 0
M  V30 29901 C 2821.05 -3.0327 -3.18929 0
M  V30 29902 H 2818.16 -0.601724 -0.425555 0
M  V30 29903 H 2820.81 -1.843 -0.461889 0
M  V30 29904 H 2818.96 -2.70514 -2.78844 0
M  V30 29905 H 2820.63 -4.52145 -0.914472 0
M  V30 29906 H 2818.87 -4.26512 -0.791818 0
M  V30 29907 H 2819.54 -5.05242 -2.22338 0
M  V30 29908 H 2822.02 -3.18101 -2.68237 0
M  V30 29909 H 2820.89 -3.89618 -3.86638 0
M  V30 29910 H 2821.16 -2.15914 -3.85789 0
M  V30 29911 N 2820.21 0.68054 -1.42149 0
M  V30 29912 C 2821.46 1.43776 -1.42031 0
M  V30 29913 C 2821.78 1.94967 -0.035669 0
M  V30 29914 O 2821.05 1.72691 0.924906 0
M  V30 29915 H 2819.63 0.533519 -0.522844 0
M  V30 29916 H 2822.3 0.804507 -1.77521 0
M  V30 29917 H 2821.39 2.29359 -2.11662 0
M  V30 29918 N 2821.69 1.28226 0.916285 0
M  V30 29919 C 2823.11 1.05878 1.19424 0
M  V30 29920 C 2823.31 -0.200464 2.005 0
M  V30 29921 O 2822.36 -0.902832 2.35808 0
M  V30 29922 C 2823.68 2.30482 1.93129 0
M  V30 29923 C 2825.23 2.35635 2.06022 0
M  V30 29924 C 2825.7 3.59999 2.83134 0
M  V30 29925 N 2827.19 3.60624 2.90697 0
M  V30 29926 C 2827.93 4.53527 3.50857 0
M  V30 29927 N 2827.42 5.56746 4.12317 0
M  V30 29928 N 2829.22 4.41128 3.48372 0
M  V30 29929 H 2821.37 2.09065 0.374923 0
M  V30 29930 H 2823.63 0.920046 0.228515 0
M  V30 29931 H 2823.34 3.22207 1.4098 0
M  V30 29932 H 2823.21 2.36696 2.93692 0
M  V30 29933 H 2825.6 1.44408 2.57352 0
M  V30 29934 H 2825.68 2.33417 1.04643 0
M  V30 29935 H 2825.32 4.51568 2.32484 0
M  V30 29936 H 2825.25 3.5947 3.84823 0
M  V30 29937 H 2827.74 2.85981 2.47029 0
M  V30 29938 H 2828.06 6.23784 4.56194 0
M  V30 29939 H 2826.4 5.60575 4.10829 0
M  V30 29940 H 2829.59 3.59692 2.99566 0
M  V30 29941 H 2829.76 5.13718 3.94965 0
M  V30 29942 N 2823.17 -1.12438 1.10433 0
M  V30 29943 C 2824.4 -1.8777 0.868905 0
M  V30 29944 C 2824.81 -1.79651 -0.580614 0
M  V30 29945 O 2824.17 -1.17039 -1.40029 0
M  V30 29946 C 2824.22 -3.36983 1.30861 0
M  V30 29947 O 2823.94 -3.44909 2.70129 0
M  V30 29948 C 2825.44 -4.29254 1.10707 0
M  V30 29949 H 2822.66 -0.594115 0.311879 0
M  V30 29950 H 2825.21 -1.4227 1.46899 0
M  V30 29951 H 2823.36 -3.80027 0.752192 0
M  V30 29952 H 2823.78 -4.37743 2.88931 0
M  V30 29953 H 2825.25 -5.32236 1.46387 0
M  V30 29954 H 2825.73 -4.39176 0.0456999 0
M  V30 29955 H 2826.33 -3.91991 1.64995 0
M  V30 29956 N 2824.65 -0.893076 -1.29853 0
M  V30 29957 C 2825.9 -0.514601 -1.95439 0
M  V30 29958 C 2826.22 0.940929 -1.70797 0
M  V30 29959 O 2825.49 1.66262 -1.03604 0
M  V30 29960 H 2824.07 -0.187315 -0.723133 0
M  V30 29961 H 2826.73 -1.13792 -1.58232 0
M  V30 29962 H 2825.83 -0.691634 -3.0434 0
M  V30 29963 N 2826.13 1.4335 -0.654865 0
M  V30 29964 C 2827.36 2.06144 -0.176721 0
M  V30 29965 C 2827.77 1.49095 1.15828 0
M  V30 29966 O 2827.13 0.622898 1.71541 0
M  V30 29967 C 2827.18 3.61408 -0.0813961 0
M  V30 29968 O 2826.9 4.16337 -1.36363 0
M  V30 29969 C 2828.4 4.41281 0.422628 0
M  V30 29970 H 2825.62 0.664848 -0.0906546 0
M  V30 29971 H 2828.16 1.83827 -0.895977 0
M  V30 29972 H 2826.32 3.82905 0.588428 0
M  V30 29973 H 2826.73 5.1002 -1.2239 0
M  V30 29974 H 2828.21 5.50257 0.438278 0
M  V30 29975 H 2828.68 4.14425 1.45424 0
M  V30 29976 H 2829.29 4.24757 -0.214762 0
M  V30 29977 N 2827.61 0.39689 1.52521 0
M  V30 29978 C 2828.85 -0.182862 2.01673 0
M  V30 29979 C 2829.18 -1.46179 1.28305 0
M  V30 29980 O 2828.44 -1.9209 0.374152 0
M  V30 29981 C 2828.73 -0.489614 3.5403 0
M  V30 29982 C 2828.4 0.698659 4.45454 0
M  V30 29983 C 2827.06 1.02463 4.70165 0
M  V30 29984 C 2829.41 1.49325 4.99351 0
M  V30 29985 C 2826.74 2.1466 5.4602 0
M  V30 29986 C 2829.09 2.60589 5.76434 0
M  V30 29987 C 2827.76 2.93685 5.99421 0
M  V30 29988 H 2827.03 -0.0669141 0.737973 0
M  V30 29989 H 2829.68 0.535796 1.83852 0
M  V30 29990 H 2827.98 -1.28969 3.69965 0
M  V30 29991 H 2829.68 -0.95095 3.89561 0
M  V30 29992 H 2826.27 0.4346 4.26391 0
M  V30 29993 H 2830.45 1.25465 4.80179 0
M  V30 29994 H 2825.71 2.40664 5.62042 0
M  V30 29995 H 2829.88 3.22555 6.17196 0
M  V30 29996 H 2827.51 3.80742 6.57981 0
M  V30 29997 N 2829.08 -1.57088 0.126936 0
M  V30 29998 C 2830.33 -1.9464 -0.52899 0
M  V30 29999 C 2830.65 -1.01307 -1.67321 0
M  V30 30000 O 2831.85 -1.28356 -2.39243 0
M  V30 30001 C 2830.31 -3.45947 -0.992422 0
M  V30 30002 C 2829.92 -4.47829 0.12377 0
M  V30 30003 C 2831.66 -3.92403 -1.61927 0
M  V30 30004 C 2829.57 -5.90323 -0.356807 0
M  V30 30005 H 2828.5 -0.726609 -0.201384 0
M  V30 30006 H 2831.15 -1.82317 0.208064 0
M  V30 30007 H 2829.53 -3.53532 -1.78414 0
M  V30 30008 H 2830.7 -4.51921 0.900247 0
M  V30 30009 H 2829.02 -4.11172 0.657772 0
M  V30 30010 H 2831.62 -4.96285 -1.99011 0
M  V30 30011 H 2831.96 -3.32823 -2.50069 0
M  V30 30012 H 2832.49 -3.87651 -0.892826 0
M  V30 30013 H 2829.23 -6.53675 0.488751 0
M  V30 30014 H 2828.75 -5.89635 -1.09959 0
M  V30 30015 H 2830.43 -6.41841 -0.815435 0
M  V30 30016 N 2830.56 0.146848 -1.56914 0
M  V30 30017 C 2831.52 1.16523 -1.9737 0
M  V30 30018 C 2832.52 1.35854 -0.860247 0
M  V30 30019 O 2833.71 1.32844 -1.12686 0
M  V30 30020 C 2830.85 2.52551 -2.28978 0
M  V30 30021 H 2832.04 0.818158 -2.88524 0
M  V30 30022 H 2829.59 0.390194 -1.51351 0
M  V30 30023 H 2830.33 2.92229 -1.40616 0
M  V30 30024 H 2830.11 2.3988 -3.10161 0
M  V30 30025 H 2831.6 3.25897 -2.61115 0
M  V30 30026 N 2832.04 1.52005 0.4162 0
M  V30 30027 C 2832.97 1.77797 1.51362 0
M  V30 30028 C 2833.95 0.628628 1.58058 0
M  V30 30029 O 2835.14 0.873509 1.73446 0
M  V30 30030 C 2832.27 1.92224 2.89253 0
M  V30 30031 C 2831.22 3.07785 2.9741 0
M  V30 30032 C 2830.55 3.07424 4.37486 0
M  V30 30033 C 2831.85 4.47374 2.69543 0
M  V30 30034 H 2833.54 2.69691 1.30028 0
M  V30 30035 H 2831.09 1.29773 0.624089 0
M  V30 30036 H 2833.04 2.08851 3.66004 0
M  V30 30037 H 2831.76 0.969972 3.11864 0
M  V30 30038 H 2830.42 2.90897 2.23102 0
M  V30 30039 H 2830.07 2.09933 4.57097 0
M  V30 30040 H 2829.77 3.85037 4.4387 0
M  V30 30041 H 2831.29 3.26171 5.16183 0
M  V30 30042 H 2832.71 4.64503 3.3602 0
M  V30 30043 H 2831.1 5.26851 2.87312 0
M  V30 30044 H 2832.17 4.55956 1.65021 0
M  V30 30045 N 2833.52 -0.672992 1.42508 0
M  V30 30046 C 2834.79 -1.42905 1.33557 0
M  V30 30047 C 2835.17 -2.11084 -0.026184 0
M  V30 30048 O 2834.52 -2.0337 -1.04177 0
M  V30 30049 C 2834.73 -2.43001 2.50502 0
M  V30 30050 C 2836.08 -3.07591 2.92699 0
M  V30 30051 O 2837.1 -2.53329 2.50406 0
M  V30 30052 O 2835.96 -4.05925 3.65906 0
M  V30 30053 H 2833.06 -0.637507 0.526796 0
M  V30 30054 H 2835.6 -0.701563 1.54519 0
M  V30 30055 H 2834.38 -1.91434 3.41275 0
M  V30 30056 H 2834 -3.23229 2.31536 0
M  V30 30057 N 2835 -1.2871 -0.909472 0
M  V30 30058 C 2836.41 -1.0651 -1.1886 0
M  V30 30059 C 2836.61 0.189828 -2.00604 0
M  V30 30060 O 2835.67 0.890314 -2.36283 0
M  V30 30061 C 2836.98 -2.31503 -1.91903 0
M  V30 30062 C 2838.53 -2.36725 -2.04769 0
M  V30 30063 C 2839 -3.61495 -2.81221 0
M  V30 30064 N 2840.49 -3.6216 -2.88781 0
M  V30 30065 C 2841.23 -4.55381 -3.48447 0
M  V30 30066 N 2840.73 -5.58925 -4.09359 0
M  V30 30067 N 2842.52 -4.42969 -3.46027 0
M  V30 30068 H 2834.67 -2.09261 -0.363831 0
M  V30 30069 H 2836.93 -0.921245 -0.223633 0
M  V30 30070 H 2836.64 -3.2295 -1.39269 0
M  V30 30071 H 2836.51 -2.3825 -2.92432 0
M  V30 30072 H 2838.9 -1.45771 -2.56583 0
M  V30 30073 H 2838.98 -2.33969 -1.03404 0
M  V30 30074 H 2838.62 -4.52794 -2.30086 0
M  V30 30075 H 2838.55 -3.61506 -3.82911 0
M  V30 30076 H 2841.05 -2.87287 -2.45508 0
M  V30 30077 H 2841.36 -6.26195 -4.5288 0
M  V30 30078 H 2839.7 -5.62746 -4.0785 0
M  V30 30079 H 2842.89 -3.61275 -2.97654 0
M  V30 30080 H 2843.07 -5.15806 -3.92235 0
M  V30 30081 N 2836.47 1.1185 -1.11028 0
M  V30 30082 C 2837.72 1.82855 -0.851281 0
M  V30 30083 C 2838.04 1.85342 0.625108 0
M  V30 30084 O 2839.24 2.52404 1.00022 0
M  V30 30085 C 2837.7 3.28369 -1.47314 0
M  V30 30086 C 2837.31 3.34224 -2.98326 0
M  V30 30087 C 2839.05 4.04303 -1.2938 0
M  V30 30088 C 2836.96 4.74109 -3.53517 0
M  V30 30089 H 2835.89 0.685137 -0.314806 0
M  V30 30090 H 2838.54 1.25896 -1.33501 0
M  V30 30091 H 2836.92 3.85234 -0.917085 0
M  V30 30092 H 2838.09 2.87264 -3.603 0
M  V30 30093 H 2836.41 2.71767 -3.15486 0
M  V30 30094 H 2839.01 5.07605 -1.68051 0
M  V30 30095 H 2839.35 4.15631 -0.235952 0
M  V30 30096 H 2839.88 3.53814 -1.81826 0
M  V30 30097 H 2836.62 4.67978 -4.58996 0
M  V30 30098 H 2836.14 5.21496 -2.96314 0
M  V30 30099 H 2837.82 5.4306 -3.51703 0
M  V30 30100 N 2837.95 0.89995 1.29378 0
M  V30 30101 C 2838.88 0.3945 2.30143 0
M  V30 30102 C 2839.86 -0.530611 1.61612 0
M  V30 30103 O 2841.05 -0.441286 1.8912 0
M  V30 30104 C 2838.18 -0.378619 3.4523 0
M  V30 30105 C 2837.13 0.456087 4.25563 0
M  V30 30106 C 2836.46 -0.444544 5.32849 0
M  V30 30107 C 2837.76 1.70613 4.93648 0
M  V30 30108 H 2839.45 1.23657 2.7267 0
M  V30 30109 H 2837 0.596057 1.31085 0
M  V30 30110 H 2838.95 -0.742964 4.14799 0
M  V30 30111 H 2837.67 -1.25448 3.01547 0
M  V30 30112 H 2836.33 0.802767 3.57703 0
M  V30 30113 H 2835.98 -1.31854 4.85411 0
M  V30 30114 H 2835.68 0.110257 5.87497 0
M  V30 30115 H 2837.21 -0.805076 6.05269 0
M  V30 30116 H 2838.62 1.41151 5.55652 0
M  V30 30117 H 2837.02 2.20227 5.58229 0
M  V30 30118 H 2838.09 2.44197 4.18922 0
M  V30 30119 N 2839.43 -1.43001 0.662458 0
M  V30 30120 C 2840.36 -2.29115 -0.0622857 0
M  V30 30121 C 2841.38 -1.43012 -0.777901 0
M  V30 30122 O 2842.56 -1.66857 -0.634116 0
M  V30 30123 C 2839.66 -3.20152 -1.11157 0
M  V30 30124 C 2838.84 -4.34843 -0.472251 0
M  V30 30125 C 2837.9 -5.06688 -1.41965 0
M  V30 30126 O 2836.92 -5.61639 -0.924696 0
M  V30 30127 N 2838.12 -5.11048 -2.75336 0
M  V30 30128 H 2840.89 -2.91956 0.67689 0
M  V30 30129 H 2838.45 -1.53792 0.505934 0
M  V30 30130 H 2840.44 -3.65081 -1.74637 0
M  V30 30131 H 2839.01 -2.58848 -1.75261 0
M  V30 30132 H 2838.23 -3.92715 0.34182 0
M  V30 30133 H 2839.52 -5.08793 -0.0263487 0
M  V30 30134 H 2838.92 -4.67792 -3.181 0
M  V30 30135 H 2837.48 -5.59664 -3.34095 0
M  V30 30136 N 2840.91 -0.404973 -1.52308 0
M  V30 30137 C 2841.84 0.457871 -2.2458 0
M  V30 30138 C 2842.85 1.01367 -1.27391 0
M  V30 30139 O 2844.04 0.913323 -1.53364 0
M  V30 30140 C 2841.14 1.64888 -2.96083 0
M  V30 30141 C 2840.32 1.2177 -4.20108 0
M  V30 30142 C 2839.37 2.27514 -4.74472 0
M  V30 30143 O 2838.4 1.88276 -5.3716 0
M  V30 30144 N 2839.6 3.59627 -4.55685 0
M  V30 30145 H 2842.37 -0.161393 -2.99265 0
M  V30 30146 H 2839.93 -0.232135 -1.60227 0
M  V30 30147 H 2841.92 2.35185 -3.29348 0
M  V30 30148 H 2840.49 2.17415 -2.2461 0
M  V30 30149 H 2839.71 0.343002 -3.92705 0
M  V30 30150 H 2841 0.906508 -5.00659 0
M  V30 30151 H 2840.4 3.94259 -4.0568 0
M  V30 30152 H 2838.95 4.25913 -4.93397 0
M  V30 30153 N 2842.39 1.57018 -0.135265 0
M  V30 30154 C 2843.32 2.19178 0.805196 0
M  V30 30155 C 2844.3 1.13654 1.26558 0
M  V30 30156 O 2845.48 1.41953 1.32526 0
M  V30 30157 C 2842.61 2.8041 2.04909 0
M  V30 30158 C 2841.57 3.91658 1.72591 0
M  V30 30159 C 2840.89 4.39772 3.04146 0
M  V30 30160 C 2842.19 5.12993 0.981619 0
M  V30 30161 H 2843.89 2.9802 0.287179 0
M  V30 30162 H 2841.43 1.4335 0.136689 0
M  V30 30163 H 2843.39 3.22558 2.71172 0
M  V30 30164 H 2842.11 1.98882 2.59063 0
M  V30 30165 H 2840.77 3.50111 1.08711 0
M  V30 30166 H 2840.42 3.55081 3.56267 0
M  V30 30167 H 2840.12 5.14801 2.8329 0
M  V30 30168 H 2841.64 4.84582 3.715 0
M  V30 30169 H 2843.05 5.52058 1.5461 0
M  V30 30170 H 2841.45 5.9371 0.873428 0
M  V30 30171 H 2842.52 4.84891 -0.028774 0
M  V30 30172 N 2843.86 -0.138524 1.5699 0
M  V30 30173 C 2845.14 -0.87888 1.74743 0
M  V30 30174 C 2845.52 -1.9896 0.705557 0
M  V30 30175 O 2844.87 -2.26851 -0.274026 0
M  V30 30176 C 2845.08 -1.41355 3.19092 0
M  V30 30177 C 2846.43 -1.87362 3.81026 0
M  V30 30178 O 2847.45 -1.51078 3.22574 0
M  V30 30179 O 2846.31 -2.54304 4.83727 0
M  V30 30180 H 2843.4 -0.41594 0.714788 0
M  V30 30181 H 2845.95 -0.123787 1.69248 0
M  V30 30182 H 2844.72 -0.615722 3.86425 0
M  V30 30183 H 2844.35 -2.23191 3.29047 0
M  V30 30184 N 2845.34 -1.52224 -0.408133 0
M  V30 30185 C 2846.57 -1.70474 -1.18124 0
M  V30 30186 C 2846.99 -0.413872 -1.8349 0
M  V30 30187 O 2846.35 0.628748 -1.70048 0
M  V30 30188 C 2846.4 -2.84217 -2.2193 0
M  V30 30189 O 2845.5 -2.49856 -3.28094 0
M  V30 30190 H 2844.84 -0.567476 -0.344771 0
M  V30 30191 H 2847.37 -1.98931 -0.478293 0
M  V30 30192 H 2847.38 -3.09158 -2.66243 0
M  V30 30193 H 2846.06 -3.77873 -1.73737 0
M  V30 30194 H 2844.64 -2.35589 -2.89054 0
M  V30 30195 N 2846.82 0.665425 -1.42863 0
M  V30 30196 C 2847.77 1.77871 -1.47073 0
M  V30 30197 C 2848.74 1.62955 -0.321682 0
M  V30 30198 O 2849.92 1.83375 -0.527102 0
M  V30 30199 C 2847.06 3.1596 -1.38793 0
M  V30 30200 C 2846.18 3.42096 -2.63807 0
M  V30 30201 C 2845.31 4.69964 -2.47603 0
M  V30 30202 C 2844.35 4.89166 -3.67944 0
M  V30 30203 N 2843.49 6.08282 -3.50625 0
M  V30 30204 H 2848.33 1.73608 -2.42207 0
M  V30 30205 H 2845.86 0.84738 -1.20241 0
M  V30 30206 H 2847.82 3.95771 -1.31989 0
M  V30 30207 H 2846.45 3.19323 -0.472487 0
M  V30 30208 H 2845.5 2.5647 -2.8094 0
M  V30 30209 H 2846.82 3.52175 -3.53234 0
M  V30 30210 H 2845.97 5.57882 -2.38437 0
M  V30 30211 H 2844.71 4.62185 -1.5568 0
M  V30 30212 H 2843.71 3.99687 -3.77532 0
M  V30 30213 H 2844.94 4.98784 -4.60859 0
M  V30 30214 H 2842.88 6.01658 -2.61427 0
M  V30 30215 H 2842.8 6.19264 -4.33645 0
M  V30 30216 H 2844.07 6.98853 -3.45289 0
M  V30 30217 N 2848.3 1.29191 0.902633 0
M  V30 30218 C 2849.58 1.07677 1.63295 0
M  V30 30219 C 2849.96 -0.3801 2.0765 0
M  V30 30220 O 2849.3 -1.36834 1.83 0
M  V30 30221 C 2849.51 2.06163 2.81599 0
M  V30 30222 C 2850.86 2.3692 3.52355 0
M  V30 30223 O 2851.89 2.04334 2.91763 0
M  V30 30224 O 2850.74 2.92584 4.61581 0
M  V30 30225 H 2847.84 0.412323 0.716881 0
M  V30 30226 H 2850.38 1.40552 0.950959 0
M  V30 30227 H 2849.16 3.04303 2.45998 0
M  V30 30228 H 2848.78 1.74 3.57505 0
M  V30 30229 N 2849.78 -1.1126 1.1162 0
M  V30 30230 C 2851 -1.87379 0.889046 0
M  V30 30231 C 2851.43 -1.79699 -0.555852 0
M  V30 30232 O 2850.78 -1.16075 -1.3927 0
M  V30 30233 C 2850.83 -3.34066 1.35765 0
M  V30 30234 O 2849.94 -4.08973 0.530571 0
M  V30 30235 H 2849.28 -0.581753 0.320092 0
M  V30 30236 H 2851.81 -1.40624 1.48613 0
M  V30 30237 H 2851.82 -3.84914 1.35298 0
M  V30 30238 H 2850.49 -3.38972 2.40979 0
M  V30 30239 H 2849.07 -3.68017 0.601503 0
M  V30 30240 N 2851.25 -0.906798 -1.28899 0
M  V30 30241 C 2852.5 -0.537155 -1.95557 0
M  V30 30242 C 2852.83 0.915552 -1.71264 0
M  V30 30243 O 2852.11 1.65011 -1.02964 0
M  V30 30244 C 2852.39 -0.838707 -3.50197 0
M  V30 30245 C 2852.24 -2.34364 -3.83919 0
M  V30 30246 C 2853.56 -0.330065 -4.38861 0
M  V30 30247 H 2850.68 -0.19663 -0.710286 0
M  V30 30248 H 2853.32 -1.13478 -1.5239 0
M  V30 30249 H 2851.47 -0.330092 -3.87095 0
M  V30 30250 H 2853.15 -2.92234 -3.56928 0
M  V30 30251 H 2851.39 -2.80147 -3.3121 0
M  V30 30252 H 2852.06 -2.50519 -4.91878 0
M  V30 30253 H 2854.54 -0.765681 -4.08995 0
M  V30 30254 H 2853.41 -0.5702 -5.4593 0
M  V30 30255 H 2853.67 0.769435 -4.35353 0
M  V30 30256 N 2852.73 1.42648 -0.670032 0
M  V30 30257 C 2854.01 1.95235 -0.119485 0
M  V30 30258 C 2854.39 1.61066 1.36458 0
M  V30 30259 O 2853.74 0.904366 2.09842 0
M  V30 30260 C 2853.95 3.46886 -0.383559 0
M  V30 30261 C 2855.3 4.23556 -0.297505 0
M  V30 30262 O 2856.32 3.54786 -0.317042 0
M  V30 30263 O 2855.18 5.45992 -0.235603 0
M  V30 30264 H 2852.27 0.827 -0.000103084 0
M  V30 30265 H 2854.82 1.525 -0.744433 0
M  V30 30266 H 2853.59 3.64943 -1.41181 0
M  V30 30267 H 2853.21 3.96657 0.273632 0
M  V30 30268 N 2854.21 0.413044 1.52091 0
M  V30 30269 C 2855.46 -0.162835 2.01042 0
M  V30 30270 C 2855.77 -1.45889 1.30291 0
M  V30 30271 O 2856.98 -2.11626 1.70078 0
M  V30 30272 C 2855.44 -0.340743 3.58283 0
M  V30 30273 C 2855.04 0.943454 4.37953 0
M  V30 30274 C 2856.79 -0.871701 4.15454 0
M  V30 30275 C 2854.69 0.73252 5.86846 0
M  V30 30276 H 2853.62 -0.0646281 0.751225 0
M  V30 30277 H 2856.28 0.53909 1.75403 0
M  V30 30278 H 2854.66 -1.10509 3.80268 0
M  V30 30279 H 2855.83 1.71425 4.27727 0
M  V30 30280 H 2854.15 1.40112 3.92119 0
M  V30 30281 H 2856.74 -1.04561 5.24377 0
M  V30 30282 H 2857.09 -1.84748 3.7306 0
M  V30 30283 H 2857.62 -0.166308 3.97452 0
M  V30 30284 H 2854.36 1.67997 6.33606 0
M  V30 30285 H 2853.88 0.00108549 5.998 0
M  V30 30286 H 2855.56 0.376219 6.45905 0
M  V30 30287 N 2855.69 -1.56945 0.143591 0
M  V30 30288 C 2856.92 -2.00087 -0.514664 0
M  V30 30289 C 2857.33 -1.02263 -1.59182 0
M  V30 30290 O 2856.67 -0.0110837 -1.83697 0
M  V30 30291 C 2856.73 -3.39661 -1.17772 0
M  V30 30292 C 2856.4 -4.5634 -0.245577 0
M  V30 30293 C 2857.39 -5.17238 0.525434 0
M  V30 30294 C 2855.08 -5.02078 -0.149476 0
M  V30 30295 C 2857.07 -6.22281 1.38003 0
M  V30 30296 C 2854.76 -6.06976 0.708728 0
M  V30 30297 C 2855.76 -6.66947 1.47209 0
M  V30 30298 O 2855.45 -7.69816 2.316 0
M  V30 30299 H 2855.18 -0.661602 -0.138778 0
M  V30 30300 H 2857.73 -2.04061 0.234133 0
M  V30 30301 H 2855.96 -3.32515 -1.97409 0
M  V30 30302 H 2857.65 -3.66933 -1.73536 0
M  V30 30303 H 2858.42 -4.82802 0.461203 0
M  V30 30304 H 2854.3 -4.55129 -0.733377 0
M  V30 30305 H 2857.84 -6.69019 1.97633 0
M  V30 30306 H 2853.74 -6.4084 0.774263 0
M  V30 30307 H 2854.5 -7.87021 2.2481 0
M  V30 30308 N 2857.17 0.130197 -1.57061 0
M  V30 30309 C 2858.42 0.83828 -1.83895 0
M  V30 30310 C 2858.74 1.80938 -0.727078 0
M  V30 30311 O 2858.01 1.943 0.249893 0
M  V30 30312 H 2856.59 0.312561 -0.678465 0
M  V30 30313 H 2859.25 0.120189 -1.94529 0
M  V30 30314 H 2858.34 1.39033 -2.79421 0
M  V30 30315 N 2858.65 1.52438 0.400055 0
M  V30 30316 C 2859.61 1.75795 1.47067 0
M  V30 30317 C 2860.61 0.627882 1.48035 0
M  V30 30318 O 2861.8 0.895843 1.494 0
M  V30 30319 C 2858.93 1.84863 2.86424 0
M  V30 30320 H 2860.12 2.7138 1.27644 0
M  V30 30321 H 2857.68 1.42992 0.631116 0
M  V30 30322 H 2858.41 0.912249 3.11205 0
M  V30 30323 H 2858.2 2.67026 2.87123 0
M  V30 30324 H 2859.69 2.04645 3.6402 0
M  V30 30325 N 2860.12 -0.657839 1.43214 0
M  V30 30326 C 2861.37 -1.41988 1.448 0
M  V30 30327 C 2861.7 -1.94073 0.0702901 0
M  V30 30328 O 2860.98 -1.71997 -0.908147 0
M  V30 30329 C 2861.26 -2.60466 2.48655 0
M  V30 30330 C 2861.11 -2.13904 3.95683 0
M  V30 30331 C 2862.43 -3.62682 2.49299 0
M  V30 30332 H 2859.55 -0.51495 0.527253 0
M  V30 30333 H 2862.19 -0.746179 1.74735 0
M  V30 30334 H 2860.34 -3.17942 2.2326 0
M  V30 30335 H 2862.02 -1.61465 4.32119 0
M  V30 30336 H 2860.26 -1.45318 4.08736 0
M  V30 30337 H 2860.93 -2.99081 4.63955 0
M  V30 30338 H 2863.41 -3.14956 2.71922 0
M  V30 30339 H 2862.28 -4.43137 3.23915 0
M  V30 30340 H 2862.54 -4.14962 1.52509 0
M  V30 30341 N 2861.6 -1.29668 -0.895769 0
M  V30 30342 C 2862.55 -1.11754 -1.98734 0
M  V30 30343 C 2863.54 -0.0358117 -1.6086 0
M  V30 30344 O 2864.73 -0.257956 -1.7511 0
M  V30 30345 C 2861.86 -0.800214 -3.33843 0
M  V30 30346 C 2860.94 -1.92167 -3.78064 0
M  V30 30347 N 2861.33 -3.1657 -3.94483 0
M  V30 30348 C 2859.63 -1.81559 -4.07372 0
M  V30 30349 C 2860.33 -3.89761 -4.31812 0
M  V30 30350 N 2859.31 -3.17732 -4.41075 0
M  V30 30351 H 2863.11 -2.0612 -2.09503 0
M  V30 30352 H 2860.62 -1.2085 -1.08486 0
M  V30 30353 H 2862.62 -0.652914 -4.11756 0
M  V30 30354 H 2861.28 0.135494 -3.24417 0
M  V30 30355 H 2862.29 -3.51981 -3.79908 0
M  V30 30356 H 2858.97 -0.952859 -4.06481 0
M  V30 30357 H 2860.36 -4.96839 -4.52328 0
M  V30 30358 N 2863.08 1.10667 -1.12208 0
M  V30 30359 C 2864.36 1.79051 -0.787414 0
M  V30 30360 C 2864.74 1.98324 0.723232 0
M  V30 30361 O 2864.08 1.57437 1.65607 0
M  V30 30362 C 2864.29 3.12207 -1.55974 0
M  V30 30363 C 2865.64 3.87121 -1.74419 0
M  V30 30364 O 2866.67 3.2192 -1.52465 0
M  V30 30365 O 2865.53 5.04141 -2.10961 0
M  V30 30366 H 2862.62 0.775917 -0.28615 0
M  V30 30367 H 2865.17 1.17337 -1.22597 0
M  V30 30368 H 2863.94 2.93583 -2.58698 0
M  V30 30369 H 2863.56 3.81638 -1.11527 0
M  V30 30370 N 2864.56 0.913621 1.28416 0
M  V30 30371 C 2865.49 0.418888 2.29712 0
M  V30 30372 C 2866.47 -0.51344 1.62166 0
M  V30 30373 O 2867.65 -0.421202 1.89577 0
M  V30 30374 C 2864.78 -0.341981 3.45612 0
M  V30 30375 C 2863.74 0.501198 4.25055 0
M  V30 30376 C 2863.06 -0.388003 5.3329 0
M  V30 30377 C 2864.36 1.75839 4.91811 0
M  V30 30378 H 2866.06 1.26543 2.71344 0
M  V30 30379 H 2863.6 0.609926 1.30445 0
M  V30 30380 H 2865.56 -0.698927 4.15563 0
M  V30 30381 H 2864.28 -1.22242 3.0286 0
M  V30 30382 H 2862.94 0.840661 3.56831 0
M  V30 30383 H 2862.59 -1.26699 4.86782 0
M  V30 30384 H 2862.29 0.172563 5.87347 0
M  V30 30385 H 2863.81 -0.740833 6.06089 0
M  V30 30386 H 2865.23 1.47036 5.54124 0
M  V30 30387 H 2863.62 2.26136 5.55862 0
M  V30 30388 H 2864.69 2.48627 4.16308 0
M  V30 30389 N 2866.04 -1.4229 0.677588 0
M  V30 30390 C 2867.45 -1.55773 0.347403 0
M  V30 30391 C 2867.65 -1.65669 -1.147 0
M  V30 30392 O 2866.71 -1.62515 -1.93249 0
M  V30 30393 C 2868.02 -2.8063 1.08016 0
M  V30 30394 C 2869.57 -2.94405 1.06276 0
M  V30 30395 C 2870.04 -4.22126 1.7769 0
M  V30 30396 N 2871.53 -4.29044 1.74572 0
M  V30 30397 C 2872.27 -5.2669 2.26683 0
M  V30 30398 N 2871.77 -6.30472 2.87187 0
M  V30 30399 N 2873.56 -5.18507 2.17041 0
M  V30 30400 H 2865.71 -1.34111 1.64706 0
M  V30 30401 H 2867.97 -0.645755 0.694049 0
M  V30 30402 H 2867.68 -2.79465 2.13523 0
M  V30 30403 H 2867.55 -3.71607 0.64718 0
M  V30 30404 H 2869.94 -2.95096 0.0160177 0
M  V30 30405 H 2870.02 -2.04651 1.53465 0
M  V30 30406 H 2869.66 -4.22196 2.82334 0
M  V30 30407 H 2869.59 -5.1082 1.27949 0
M  V30 30408 H 2872.09 -3.54673 1.30443 0
M  V30 30409 H 2872.4 -7.0134 3.24564 0
M  V30 30410 H 2870.74 -6.31026 2.91258 0
M  V30 30411 H 2873.93 -4.3635 1.69459 0
M  V30 30412 H 2874.11 -5.94442 2.57959 0
M  V30 30413 N 2867.51 -0.421104 -1.5187 0
M  V30 30414 C 2868.44 0.389322 -2.30231 0
M  V30 30415 C 2869.42 1.03553 -1.34948 0
M  V30 30416 O 2870.61 1.04226 -1.63861 0
M  V30 30417 C 2867.74 1.49973 -3.1325 0
M  V30 30418 C 2866.69 0.977893 -4.16679 0
M  V30 30419 C 2866.02 2.18281 -4.88116 0
M  V30 30420 C 2867.32 0.0235857 -5.22295 0
M  V30 30421 H 2869.01 -0.264576 -2.98229 0
M  V30 30422 H 2866.56 -0.128685 -1.43424 0
M  V30 30423 H 2868.51 2.07377 -3.66842 0
M  V30 30424 H 2867.24 2.18168 -2.43044 0
M  V30 30425 H 2865.9 0.426181 -3.64114 0
M  V30 30426 H 2865.54 2.85059 -4.14428 0
M  V30 30427 H 2865.24 1.84011 -5.58044 0
M  V30 30428 H 2866.77 2.76269 -5.44525 0
M  V30 30429 H 2868.18 0.506798 -5.71056 0
M  V30 30430 H 2866.58 -0.230887 -5.99656 0
M  V30 30431 H 2867.65 -0.918083 -4.76129 0
M  V30 30432 N 2868.99 1.56866 -0.151912 0
M  V30 30433 C 2869.94 2.13588 0.797761 0
M  V30 30434 C 2870.93 1.06498 1.20611 0
M  V30 30435 O 2872.12 1.32665 1.17171 0
M  V30 30436 C 2869.25 2.76491 2.03488 0
M  V30 30437 C 2868.33 3.90711 1.64941 0
M  V30 30438 N 2868.72 4.96364 0.972425 0
M  V30 30439 C 2867.02 4.0151 1.94179 0
M  V30 30440 C 2867.72 5.76371 0.78556 0
M  V30 30441 N 2866.7 5.27306 1.32096 0
M  V30 30442 H 2870.5 2.92645 0.271351 0
M  V30 30443 H 2868.02 1.62325 0.0494585 0
M  V30 30444 H 2870.01 3.15492 2.72526 0
M  V30 30445 H 2868.67 1.98909 2.56642 0
M  V30 30446 H 2869.68 5.14022 0.632633 0
M  V30 30447 H 2866.36 3.3501 2.49148 0
M  V30 30448 H 2867.75 6.71429 0.251631 0
M  V30 30449 N 2870.47 -0.121866 1.57128 0
M  V30 30450 C 2871.89 -0.475313 1.52358 0
M  V30 30451 C 2872.09 -1.82015 0.864449 0
M  V30 30452 O 2871.14 -2.48538 0.445572 0
M  V30 30453 C 2872.46 -0.462448 2.97123 0
M  V30 30454 C 2874 -0.546201 3.08197 0
M  V30 30455 C 2874.48 -0.563753 4.54517 0
M  V30 30456 N 2875.97 -0.625272 4.5896 0
M  V30 30457 C 2876.7 -0.660254 5.69586 0
M  V30 30458 N 2876.2 -0.653054 6.89715 0
M  V30 30459 N 2877.99 -0.703045 5.57686 0
M  V30 30460 H 2870.14 0.759344 1.98363 0
M  V30 30461 H 2872.41 0.279788 0.905772 0
M  V30 30462 H 2872.11 0.458005 3.48705 0
M  V30 30463 H 2871.99 -1.2913 3.54409 0
M  V30 30464 H 2874.37 -1.45707 2.56619 0
M  V30 30465 H 2874.46 0.310279 2.53911 0
M  V30 30466 H 2874.1 0.343063 5.0674 0
M  V30 30467 H 2874.03 -1.43708 5.06612 0
M  V30 30468 H 2876.52 -0.637117 3.72491 0
M  V30 30469 H 2876.83 -0.68229 7.69782 0
M  V30 30470 H 2875.18 -0.620524 6.92224 0
M  V30 30471 H 2878.37 -0.706013 4.62745 0
M  V30 30472 H 2878.54 -0.726839 6.43911 0
M  V30 30473 N 2871.95 -1.52648 -0.391965 0
M  V30 30474 C 2873.19 -1.67795 -1.13897 0
M  V30 30475 C 2873.53 -0.415174 -1.8971 0
M  V30 30476 O 2872.8 0.586946 -1.85432 0
M  V30 30477 C 2873.09 -2.91109 -2.11961 0
M  V30 30478 C 2872.94 -4.2748 -1.39931 0
M  V30 30479 C 2874.26 -3.09966 -3.12424 0
M  V30 30480 H 2871.38 -0.610615 -0.412696 0
M  V30 30481 H 2874.02 -1.85239 -0.422692 0
M  V30 30482 H 2872.17 -2.76368 -2.73044 0
M  V30 30483 H 2873.84 -4.53983 -0.818359 0
M  V30 30484 H 2872.08 -4.28096 -0.701171 0
M  V30 30485 H 2872.75 -5.09845 -2.11572 0
M  V30 30486 H 2875.23 -3.23719 -2.61429 0
M  V30 30487 H 2874.11 -3.97731 -3.78287 0
M  V30 30488 H 2874.37 -2.24049 -3.81123 0
M  V30 30489 N 2873.43 0.650235 -1.43561 0
M  V30 30490 C 2874.38 1.75625 -1.45395 0
M  V30 30491 C 2875.36 1.57644 -0.322033 0
M  V30 30492 O 2876.55 1.67706 -0.566025 0
M  V30 30493 C 2873.68 3.14228 -1.3826 0
M  V30 30494 C 2872.77 3.37746 -2.56493 0
M  V30 30495 N 2873.16 3.31722 -3.8183 0
M  V30 30496 C 2871.46 3.68476 -2.5128 0
M  V30 30497 C 2872.16 3.55404 -4.60503 0
M  V30 30498 N 2871.13 3.7736 -3.9128 0
M  V30 30499 H 2874.94 1.69398 -2.4017 0
M  V30 30500 H 2872.45 0.852013 -1.38255 0
M  V30 30501 H 2874.45 3.93518 -1.37657 0
M  V30 30502 H 2873.11 3.21635 -0.445076 0
M  V30 30503 H 2874.12 3.11067 -4.14075 0
M  V30 30504 H 2870.79 3.8298 -1.6623 0
M  V30 30505 H 2872.18 3.565 -5.69524 0
M  V30 30506 N 2874.9 1.30141 0.88888 0
M  V30 30507 C 2875.84 1.10517 1.99653 0
M  V30 30508 C 2876.82 0.013922 1.62594 0
M  V30 30509 O 2878 0.166722 1.87761 0
M  V30 30510 C 2875.13 0.684713 3.31707 0
M  V30 30511 C 2874.17 1.77626 3.87752 0
M  V30 30512 S 2875.01 3.37784 4.15526 0
M  V30 30513 C 2876.16 2.97632 5.50605 0
M  V30 30514 H 2876.39 2.0429 2.15992 0
M  V30 30515 H 2873.93 1.14411 1.0368 0
M  V30 30516 H 2875.89 0.448854 4.08039 0
M  V30 30517 H 2874.55 -0.233593 3.1323 0
M  V30 30518 H 2873.74 1.43425 4.83162 0
M  V30 30519 H 2873.34 1.9662 3.18146 0
M  V30 30520 H 2875.63 2.4535 6.31514 0
M  V30 30521 H 2876.58 3.91934 5.8974 0
M  V30 30522 H 2876.98 2.35612 5.12979 0
M  V30 30523 N 2876.38 -1.1007 1.12794 0
M  V30 30524 C 2877.63 -1.82379 0.886889 0
M  V30 30525 C 2877.96 -1.85156 -0.585728 0
M  V30 30526 O 2877.24 -1.31495 -1.43315 0
M  V30 30527 C 2877.52 -3.28859 1.46709 0
M  V30 30528 C 2877.37 -3.34393 3.00835 0
M  V30 30529 C 2878.69 -4.25351 1.12979 0
M  V30 30530 H 2875.81 -0.662142 0.323631 0
M  V30 30531 H 2878.45 -1.28979 1.39515 0
M  V30 30532 H 2876.6 -3.74464 1.03482 0
M  V30 30533 H 2878.27 -2.9724 3.52769 0
M  V30 30534 H 2876.52 -2.74177 3.36169 0
M  V30 30535 H 2877.19 -4.37554 3.36527 0
M  V30 30536 H 2879.66 -3.87999 1.5032 0
M  V30 30537 H 2878.54 -5.26196 1.56232 0
M  V30 30538 H 2878.8 -4.4208 0.0425229 0
M  V30 30539 N 2877.86 -0.920419 -1.2793 0
M  V30 30540 C 2878.79 -0.371208 -2.26174 0
M  V30 30541 C 2879.81 0.494038 -1.55123 0
M  V30 30542 O 2880.99 0.307839 -1.75825 0
M  V30 30543 C 2878.09 0.487422 -3.35377 0
M  V30 30544 C 2877.27 -0.356849 -4.35942 0
M  V30 30545 C 2876.33 0.43795 -5.24374 0
M  V30 30546 O 2875.35 -0.151815 -5.68998 0
M  V30 30547 N 2876.55 1.73946 -5.53826 0
M  V30 30548 H 2879.32 -1.21569 -2.73936 0
M  V30 30549 H 2876.88 -0.787071 -1.41481 0
M  V30 30550 H 2878.87 1.02603 -3.91478 0
M  V30 30551 H 2877.44 1.23264 -2.87271 0
M  V30 30552 H 2876.66 -1.07679 -3.79208 0
M  V30 30553 H 2877.95 -0.934294 -5.00148 0
M  V30 30554 H 2877.35 2.24105 -5.19417 0
M  V30 30555 H 2875.91 2.22475 -6.12657 0
M  V30 30556 N 2879.34 1.41929 -0.685124 0
M  V30 30557 C 2880.57 2.05723 -0.220408 0
M  V30 30558 C 2880.98 1.51518 1.1264 0
M  V30 30559 O 2880.34 0.659144 1.70181 0
M  V30 30560 C 2880.39 3.61154 -0.158038 0
M  V30 30561 O 2880.11 4.13351 -1.45163 0
M  V30 30562 C 2881.61 4.42078 0.328931 0
M  V30 30563 H 2878.83 0.662775 -0.104737 0
M  V30 30564 H 2881.38 1.81885 -0.934768 0
M  V30 30565 H 2879.53 3.84067 0.507076 0
M  V30 30566 H 2879.94 5.0731 -1.33181 0
M  V30 30567 H 2881.42 5.51063 0.321462 0
M  V30 30568 H 2881.9 4.17417 1.36601 0
M  V30 30569 H 2882.5 4.24206 -0.304811 0
M  V30 30570 N 2880.82 0.429152 1.51644 0
M  V30 30571 C 2881.73 -0.392768 2.31289 0
M  V30 30572 C 2882.74 -1.03523 1.39854 0
M  V30 30573 O 2883.92 -1.03238 1.72927 0
M  V30 30574 C 2880.98 -1.48367 3.1335 0
M  V30 30575 C 2880.04 -0.862194 4.20553 0
M  V30 30576 C 2879.28 -1.90111 4.98692 0
M  V30 30577 O 2879.5 -3.12217 4.77364 0
M  V30 30578 O 2878.43 -1.49619 5.83007 0
M  V30 30579 H 2882.26 0.257191 3.02609 0
M  V30 30580 H 2879.85 0.191877 1.48163 0
M  V30 30581 H 2881.73 -2.11653 3.64391 0
M  V30 30582 H 2880.4 -2.11786 2.44803 0
M  V30 30583 H 2879.31 -0.191502 3.7361 0
M  V30 30584 H 2880.64 -0.271618 4.9145 0
M  V30 30585 N 2882.29 -1.56783 0.160229 0
M  V30 30586 C 2883.53 -1.98436 -0.490144 0
M  V30 30587 C 2883.9 -1.04358 -1.61162 0
M  V30 30588 O 2885.1 -1.35107 -2.32378 0
M  V30 30589 C 2883.37 -3.43956 -0.971046 0
M  V30 30590 S 2884.93 -4.07635 -1.62416 0
M  V30 30591 H 2881.75 -0.693212 -0.158044 0
M  V30 30592 H 2884.35 -1.93829 0.25507 0
M  V30 30593 H 2883.05 -4.10146 -0.144251 0
M  V30 30594 H 2882.58 -3.52305 -1.75057 0
M  V30 30595 H 2884.6 -4.01773 -2.91192 0
M  V30 30596 N 2883.77 0.113531 -1.57191 0
M  V30 30597 C 2884.71 1.16481 -1.97395 0
M  V30 30598 C 2885.72 1.37351 -0.873988 0
M  V30 30599 O 2886.91 1.36329 -1.15224 0
M  V30 30600 C 2884.01 2.52382 -2.26178 0
M  V30 30601 C 2883.18 2.5204 -3.57484 0
M  V30 30602 C 2882.24 3.69729 -3.74416 0
M  V30 30603 O 2881.27 3.53063 -4.46469 0
M  V30 30604 N 2882.47 4.88505 -3.13597 0
M  V30 30605 H 2885.23 0.822763 -2.88185 0
M  V30 30606 H 2882.79 0.302741 -1.59044 0
M  V30 30607 H 2884.79 3.29683 -2.34715 0
M  V30 30608 H 2883.36 2.78747 -1.41488 0
M  V30 30609 H 2882.58 1.60415 -3.60084 0
M  V30 30610 H 2883.86 2.48873 -4.43779 0
M  V30 30611 H 2883.26 5.04949 -2.55035 0
M  V30 30612 H 2881.82 5.63463 -3.27647 0
M  V30 30613 N 2885.25 1.52854 0.383864 0
M  V30 30614 C 2886.48 1.71782 1.1478 0
M  V30 30615 C 2886.89 0.438244 1.84055 0
M  V30 30616 O 2886.23 -0.597434 1.73714 0
M  V30 30617 C 2886.29 2.81551 2.23538 0
M  V30 30618 C 2885.96 4.22502 1.74187 0
M  V30 30619 C 2886.96 5.05484 1.21583 0
M  V30 30620 C 2884.64 4.68843 1.80254 0
M  V30 30621 C 2886.63 6.32889 0.756992 0
M  V30 30622 C 2884.32 5.96231 1.33982 0
M  V30 30623 C 2885.32 6.78085 0.817929 0
M  V30 30624 O 2885.01 8.03085 0.361982 0
M  V30 30625 H 2884.74 0.578401 0.349898 0
M  V30 30626 H 2887.29 2.00312 0.454342 0
M  V30 30627 H 2885.52 2.48454 2.96324 0
M  V30 30628 H 2887.21 2.88833 2.85185 0
M  V30 30629 H 2887.98 4.70862 1.16248 0
M  V30 30630 H 2883.86 4.05217 2.19818 0
M  V30 30631 H 2887.4 6.96727 0.348958 0
M  V30 30632 H 2883.3 6.30356 1.39004 0
M  V30 30633 H 2884.07 8.17074 0.48299 0
M  V30 30634 N 2886.73 -0.642612 1.43904 0
M  V30 30635 C 2887.98 -1.40445 1.46298 0
M  V30 30636 C 2888.31 -1.93987 0.0908702 0
M  V30 30637 O 2887.58 -1.7295 -0.889853 0
M  V30 30638 C 2887.87 -2.57814 2.51404 0
M  V30 30639 C 2887.72 -2.09695 3.97929 0
M  V30 30640 C 2889.04 -3.60017 2.53131 0
M  V30 30641 H 2886.16 -0.509329 0.532685 0
M  V30 30642 H 2888.8 -0.727604 1.75516 0
M  V30 30643 H 2886.95 -3.15556 2.26619 0
M  V30 30644 H 2888.62 -1.56872 4.33807 0
M  V30 30645 H 2886.86 -1.40975 4.10254 0
M  V30 30646 H 2887.54 -2.94144 4.67101 0
M  V30 30647 H 2890.01 -3.12054 2.75248 0
M  V30 30648 H 2888.89 -4.39677 3.28597 0
M  V30 30649 H 2889.15 -4.13321 1.56902 0
M  V30 30650 N 2888.21 -1.30611 -0.881966 0
M  V30 30651 C 2889.44 -1.22362 -1.66467 0
M  V30 30652 C 2889.85 0.215474 -1.87969 0
M  V30 30653 O 2889.19 1.15386 -1.4294 0
M  V30 30654 C 2889.25 -1.88477 -3.06131 0
M  V30 30655 C 2888.91 -3.37809 -3.07789 0
M  V30 30656 C 2889.91 -4.33754 -2.86625 0
M  V30 30657 C 2887.6 -3.79306 -3.2929 0
M  V30 30658 C 2889.59 -5.69169 -2.86924 0
M  V30 30659 C 2887.28 -5.14838 -3.29219 0
M  V30 30660 C 2888.28 -6.0958 -3.08061 0
M  V30 30661 O 2887.96 -7.42635 -3.07811 0
M  V30 30662 H 2887.7 -0.424467 -0.526121 0
M  V30 30663 H 2890.25 -1.72823 -1.11001 0
M  V30 30664 H 2888.48 -1.3255 -3.63273 0
M  V30 30665 H 2890.17 -1.74307 -3.66568 0
M  V30 30666 H 2890.93 -4.03025 -2.69807 0
M  V30 30667 H 2886.81 -3.06004 -3.44794 0
M  V30 30668 H 2890.36 -6.43093 -2.70328 0
M  V30 30669 H 2886.25 -5.45206 -3.45573 0
M  V30 30670 H 2887.02 -7.51661 -3.23956 0
M  V30 30671 N 2889.69 1.0947 -1.13376 0
M  V30 30672 C 2890.62 2.18124 -0.833306 0
M  V30 30673 C 2891.6 1.68834 0.20714 0
M  V30 30674 O 2892.78 1.94087 0.0661671 0
M  V30 30675 C 2889.91 3.46019 -0.298039 0
M  V30 30676 C 2888.87 4.0864 -1.27268 0
M  V30 30677 C 2888.19 5.31355 -0.597197 0
M  V30 30678 C 2889.49 4.51192 -2.63103 0
M  V30 30679 H 2891.19 2.43515 -1.74186 0
M  V30 30680 H 2888.73 1.17037 -0.838941 0
M  V30 30681 H 2890.68 4.21332 -0.0755184 0
M  V30 30682 H 2889.41 3.20149 0.645903 0
M  V30 30683 H 2888.07 3.35345 -1.48119 0
M  V30 30684 H 2887.72 5.01765 0.352205 0
M  V30 30685 H 2887.42 5.74206 -1.24744 0
M  V30 30686 H 2888.94 6.09392 -0.383947 0
M  V30 30687 H 2890.35 5.17732 -2.46223 0
M  V30 30688 H 2888.75 5.04926 -3.24299 0
M  V30 30689 H 2889.82 3.63615 -3.20799 0
M  V30 30690 N 2891.16 0.92719 1.2744 0
M  V30 30691 C 2892.11 0.396917 2.24519 0
M  V30 30692 C 2893.1 -0.498528 1.52982 0
M  V30 30693 O 2894.29 -0.336056 1.7378 0
M  V30 30694 C 2891.42 -0.349634 3.41515 0
M  V30 30695 C 2890.5 0.5623 4.20356 0
M  V30 30696 N 2890.9 1.6819 4.77017 0
M  V30 30697 C 2889.19 0.365213 4.44502 0
M  V30 30698 C 2889.89 2.24905 5.36463 0
M  V30 30699 N 2888.87 1.53869 5.21369 0
M  V30 30700 H 2892.67 1.25178 2.65909 0
M  V30 30701 H 2890.19 0.781405 1.42365 0
M  V30 30702 H 2892.18 -0.746464 4.10163 0
M  V30 30703 H 2890.84 -1.20143 3.01655 0
M  V30 30704 H 2891.85 2.06429 4.74981 0
M  V30 30705 H 2888.53 -0.445964 4.15111 0
M  V30 30706 H 2889.92 3.19161 5.91258 0
M  V30 30707 N 2892.64 -1.41564 0.692641 0
M  V30 30708 C 2893.57 -2.29196 -0.013673 0
M  V30 30709 C 2894.59 -1.4463 -0.747391 0
M  V30 30710 O 2895.78 -1.68164 -0.598581 0
M  V30 30711 C 2892.88 -3.22438 -1.04341 0
M  V30 30712 C 2892.05 -4.35747 -0.379908 0
M  V30 30713 C 2891.11 -5.09585 -1.31186 0
M  V30 30714 O 2890.13 -5.63474 -0.805356 0
M  V30 30715 N 2891.34 -5.16773 -2.64434 0
M  V30 30716 H 2894.1 -2.90455 0.738666 0
M  V30 30717 H 2891.66 -1.52684 0.538442 0
M  V30 30718 H 2893.65 -3.68703 -1.66854 0
M  V30 30719 H 2892.22 -2.62507 -1.69731 0
M  V30 30720 H 2891.44 -3.91902 0.425044 0
M  V30 30721 H 2892.73 -5.08735 0.0815798 0
M  V30 30722 H 2892.13 -4.74434 -3.08106 0
M  V30 30723 H 2890.69 -5.66625 -3.22149 0
M  V30 30724 N 2894.12 -0.437188 -1.51415 0
M  V30 30725 C 2895.36 0.128502 -2.03996 0
M  V30 30726 C 2895.72 1.39974 -1.3142 0
M  V30 30727 O 2896.92 2.04567 -1.74373 0
M  V30 30728 C 2895.2 0.342254 -3.55757 0
M  V30 30729 S 2896.75 0.871371 -4.30061 0
M  V30 30730 H 2893.57 0.0319197 -0.710283 0
M  V30 30731 H 2896.17 -0.596559 -1.86176 0
M  V30 30732 H 2894.88 -0.589304 -4.06147 0
M  V30 30733 H 2894.41 1.0944 -3.77871 0
M  V30 30734 H 2896.42 2.14895 -4.47252 0
M  V30 30735 N 2895.6 1.56696 -0.168541 0
M  V30 30736 C 2896.84 1.9709 0.47783 0
M  V30 30737 C 2897.18 1.0544 1.63083 0
M  V30 30738 O 2896.45 0.100985 1.94238 0
M  V30 30739 C 2896.73 3.46972 0.96346 0
M  V30 30740 C 2896.59 4.49401 -0.189522 0
M  V30 30741 C 2897.91 3.99879 1.83806 0
M  V30 30742 H 2895.03 0.716596 0.172217 0
M  V30 30743 H 2897.67 1.88293 -0.254116 0
M  V30 30744 H 2895.82 3.546 1.58717 0
M  V30 30745 H 2897.49 4.53835 -0.826531 0
M  V30 30746 H 2895.73 4.25482 -0.845441 0
M  V30 30747 H 2896.4 5.51665 0.192349 0
M  V30 30748 H 2898.88 3.94865 1.31228 0
M  V30 30749 H 2897.76 5.05173 2.14688 0
M  V30 30750 H 2898.02 3.43528 2.78282 0
M  V30 30751 N 2897.08 -0.105193 1.57249 0
M  V30 30752 C 2898.49 -0.459127 1.52853 0
M  V30 30753 C 2898.69 -1.81088 0.883706 0
M  V30 30754 O 2897.75 -2.48051 0.471908 0
M  V30 30755 C 2899.06 -0.430908 2.97596 0
M  V30 30756 C 2900.61 -0.513482 3.08759 0
M  V30 30757 C 2901.08 -0.515514 4.5509 0
M  V30 30758 N 2902.57 -0.576558 4.59598 0
M  V30 30759 C 2903.31 -0.599804 5.70254 0
M  V30 30760 N 2902.81 -0.579863 6.90369 0
M  V30 30761 N 2904.6 -0.643855 5.584 0
M  V30 30762 H 2896.75 0.780341 1.97546 0
M  V30 30763 H 2899.01 0.289379 0.902753 0
M  V30 30764 H 2898.72 0.494964 3.482 0
M  V30 30765 H 2898.59 -1.25363 3.55758 0
M  V30 30766 H 2900.98 -1.42977 2.5815 0
M  V30 30767 H 2901.06 0.337192 2.53568 0
M  V30 30768 H 2900.7 0.39679 5.06348 0
M  V30 30769 H 2900.63 -1.38326 5.08108 0
M  V30 30770 H 2903.13 -0.597573 3.73145 0
M  V30 30771 H 2903.44 -0.600606 7.70463 0
M  V30 30772 H 2901.78 -0.54707 6.92844 0
M  V30 30773 H 2904.97 -0.656893 4.63468 0
M  V30 30774 H 2905.15 -0.658503 6.44645 0
M  V30 30775 N 2898.55 -1.53055 -0.375752 0
M  V30 30776 C 2899.83 -1.59338 -1.1345 0
M  V30 30777 C 2900.21 -0.394651 -2.07378 0
M  V30 30778 O 2899.56 0.615962 -2.20041 0
M  V30 30779 C 2899.77 -2.93872 -1.88255 0
M  V30 30780 C 2901.12 -3.48086 -2.43149 0
M  V30 30781 O 2902.14 -2.95834 -1.98395 0
M  V30 30782 O 2901 -4.39407 -3.24937 0
M  V30 30783 H 2898.09 -0.643188 -0.519845 0
M  V30 30784 H 2900.64 -1.65394 -0.379836 0
M  V30 30785 H 2899.41 -3.7256 -1.19645 0
M  V30 30786 H 2899.04 -2.91261 -2.70653 0
M  V30 30787 N 2900.03 0.634971 -1.44242 0
M  V30 30788 C 2901.28 1.39667 -1.47041 0
M  V30 30789 C 2901.61 1.93936 -0.101157 0
M  V30 30790 O 2900.89 1.7342 0.880669 0
M  V30 30791 C 2901.17 2.56478 -2.52767 0
M  V30 30792 C 2901.02 2.07582 -3.99036 0
M  V30 30793 C 2902.34 3.5867 -2.55037 0
M  V30 30794 H 2899.46 0.506496 -0.535379 0
M  V30 30795 H 2902.1 0.718286 -1.759 0
M  V30 30796 H 2900.25 3.1435 -2.2829 0
M  V30 30797 H 2901.92 1.5457 -4.34633 0
M  V30 30798 H 2900.17 1.38797 -4.10996 0
M  V30 30799 H 2900.84 2.91662 -4.68655 0
M  V30 30800 H 2903.31 3.1059 -2.76899 0
M  V30 30801 H 2902.19 4.37928 -3.30924 0
M  V30 30802 H 2902.45 4.12483 -1.59092 0
M  V30 30803 N 2901.51 1.31076 0.875027 0
M  V30 30804 C 2902.44 1.20885 1.99773 0
M  V30 30805 C 2903.42 0.0971911 1.69822 0
M  V30 30806 O 2904.61 0.280929 1.92157 0
M  V30 30807 C 2901.74 0.910176 3.35161 0
M  V30 30808 C 2900.69 1.98085 3.79403 0
M  V30 30809 C 2900.02 1.53497 5.12194 0
M  V30 30810 C 2901.32 3.3933 3.97055 0
M  V30 30811 H 2903.01 2.14812 2.08558 0
M  V30 30812 H 2900.56 1.03416 1.00205 0
M  V30 30813 H 2902.51 0.825496 4.13235 0
M  V30 30814 H 2901.23 -0.0647647 3.26536 0
M  V30 30815 H 2899.89 2.05534 3.03565 0
M  V30 30816 H 2899.54 0.548029 5.00006 0
M  V30 30817 H 2899.24 2.2512 5.42766 0
M  V30 30818 H 2900.76 1.46427 5.92783 0
M  V30 30819 H 2902.18 3.34584 4.65539 0
M  V30 30820 H 2900.58 4.09126 4.39017 0
M  V30 30821 H 2901.65 3.80488 3.00594 0
M  V30 30822 N 2902.99 -1.08867 1.13955 0
M  V30 30823 C 2904.4 -1.33217 0.878947 0
M  V30 30824 C 2904.6 -1.95639 -0.482444 0
M  V30 30825 O 2903.66 -2.20642 -1.22774 0
M  V30 30826 C 2904.97 -2.23828 2.00802 0
M  V30 30827 C 2906.52 -2.37321 2.04077 0
M  V30 30828 C 2907 -3.31272 3.16264 0
M  V30 30829 N 2908.49 -3.38847 3.15811 0
M  V30 30830 C 2909.22 -4.1156 3.99257 0
M  V30 30831 N 2908.72 -4.87021 4.9273 0
M  V30 30832 N 2910.51 -4.07343 3.87334 0
M  V30 30833 H 2902.66 -0.667275 2.01646 0
M  V30 30834 H 2904.93 -0.356532 0.878401 0
M  V30 30835 H 2904.63 -1.85198 2.98989 0
M  V30 30836 H 2904.51 -3.24257 1.92709 0
M  V30 30837 H 2906.89 -2.75212 1.06499 0
M  V30 30838 H 2906.97 -1.36651 2.16241 0
M  V30 30839 H 2906.62 -2.94103 4.14084 0
M  V30 30840 H 2906.55 -4.3186 3.01337 0
M  V30 30841 H 2909.04 -2.85046 2.48107 0
M  V30 30842 H 2909.35 -5.39951 5.52877 0
M  V30 30843 H 2907.7 -4.8609 4.96731 0
M  V30 30844 H 2910.89 -3.47494 3.13633 0
M  V30 30845 H 2911.06 -4.63749 4.52594 0
M  V30 30846 N 2904.47 -0.933936 -1.26946 0
M  V30 30847 C 2905.43 -0.442497 -2.24888 0
M  V30 30848 C 2906.43 0.442399 -1.54595 0
M  V30 30849 O 2907.62 0.242599 -1.72502 0
M  V30 30850 C 2904.75 0.363114 -3.38961 0
M  V30 30851 H 2905.94 -1.30792 -2.69877 0
M  V30 30852 H 2903.5 -0.715211 -1.38976 0
M  V30 30853 H 2904.23 1.24709 -2.99363 0
M  V30 30854 H 2904.02 -0.271435 -3.91159 0
M  V30 30855 H 2905.51 0.697114 -4.1174 0
M  V30 30856 N 2905.94 1.41194 -0.700139 0
M  V30 30857 C 2907.36 1.55201 -0.372142 0
M  V30 30858 C 2907.56 1.67472 1.1205 0
M  V30 30859 O 2906.62 1.65569 1.90639 0
M  V30 30860 C 2907.93 2.78876 -1.12467 0
M  V30 30861 C 2909.48 2.92677 -1.10946 0
M  V30 30862 C 2909.95 4.19245 -1.84383 0
M  V30 30863 N 2911.44 4.26213 -1.81375 0
M  V30 30864 C 2912.18 5.23017 -2.35033 0
M  V30 30865 N 2911.67 6.25824 -2.97181 0
M  V30 30866 N 2913.47 5.14988 -2.25263 0
M  V30 30867 H 2905.62 1.31474 -1.66818 0
M  V30 30868 H 2907.88 0.634632 -0.704235 0
M  V30 30869 H 2907.59 2.76033 -2.17942 0
M  V30 30870 H 2907.46 3.7053 -0.706217 0
M  V30 30871 H 2909.85 2.95033 -0.0629628 0
M  V30 30872 H 2909.93 2.02184 -1.56701 0
M  V30 30873 H 2909.57 4.17651 -2.89015 0
M  V30 30874 H 2909.5 5.08719 -1.36059 0
M  V30 30875 H 2911.99 3.52553 -1.36069 0
M  V30 30876 H 2912.31 6.96088 -3.3568 0
M  V30 30877 H 2910.65 6.26312 -3.0126 0
M  V30 30878 H 2913.84 4.33599 -1.76379 0
M  V30 30879 H 2914.02 5.90263 -2.67383 0
M  V30 30880 N 2907.42 0.445212 1.51181 0
M  V30 30881 C 2908.37 -0.36225 2.27939 0
M  V30 30882 C 2909.34 -1.00998 1.31866 0
M  V30 30883 O 2910.52 -1.02738 1.60778 0
M  V30 30884 C 2907.66 -1.45305 3.13018 0
M  V30 30885 C 2906.78 -0.822682 4.24094 0
M  V30 30886 C 2905.91 -1.8892 4.9647 0
M  V30 30887 C 2904.95 -1.23768 5.99456 0
M  V30 30888 N 2904.09 -2.2459 6.6521 0
M  V30 30889 H 2908.93 0.298672 2.96499 0
M  V30 30890 H 2906.47 0.159136 1.46237 0
M  V30 30891 H 2908.42 -2.09686 3.60677 0
M  V30 30892 H 2907.05 -2.0835 2.46557 0
M  V30 30893 H 2906.11 -0.0669696 3.80341 0
M  V30 30894 H 2907.42 -0.307096 4.97854 0
M  V30 30895 H 2906.57 -2.60943 5.47717 0
M  V30 30896 H 2905.31 -2.43853 4.22359 0
M  V30 30897 H 2904.32 -0.502945 5.47495 0
M  V30 30898 H 2905.54 -0.695575 6.75528 0
M  V30 30899 H 2903.49 -2.78589 5.93906 0
M  V30 30900 H 2903.4 -1.77945 7.3476 0
M  V30 30901 H 2904.67 -2.96073 7.21083 0
M  V30 30902 N 2908.9 -1.56605 0.176849 0
M  V30 30903 C 2909.83 -2.21235 -0.746802 0
M  V30 30904 C 2910.81 -1.16969 -1.235 0
M  V30 30905 O 2912 -1.45417 -1.28715 0
M  V30 30906 C 2909.13 -2.85744 -1.97402 0
M  V30 30907 C 2908.08 -3.96097 -1.62146 0
M  V30 30908 C 2907.41 -4.47681 -2.92379 0
M  V30 30909 C 2908.71 -5.15415 -0.845263 0
M  V30 30910 H 2910.4 -2.98676 -0.208064 0
M  V30 30911 H 2907.95 -1.43662 -0.0986342 0
M  V30 30912 H 2909.9 -3.29634 -2.62525 0
M  V30 30913 H 2908.62 -2.0568 -2.53699 0
M  V30 30914 H 2907.28 -3.5287 -0.993902 0
M  V30 30915 H 2906.93 -3.64402 -3.46728 0
M  V30 30916 H 2906.63 -5.22131 -2.69542 0
M  V30 30917 H 2908.15 -4.94262 -3.58522 0
M  V30 30918 H 2909.57 -5.55964 -1.39919 0
M  V30 30919 H 2907.97 -5.95817 -0.71571 0
M  V30 30920 H 2909.04 -4.84645 0.157324 0
M  V30 30921 N 2910.38 0.0968524 -1.57302 0
M  V30 30922 C 2911.79 0.451014 -1.53095 0
M  V30 30923 C 2911.99 1.80617 -0.893297 0
M  V30 30924 O 2911.05 2.47797 -0.485056 0
M  V30 30925 C 2912.36 0.415119 -2.97821 0
M  V30 30926 C 2913.91 0.4971 -3.09027 0
M  V30 30927 C 2914.39 0.491372 -4.55356 0
M  V30 30928 N 2915.88 0.552177 -4.59897 0
M  V30 30929 C 2916.61 0.569554 -5.70564 0
M  V30 30930 N 2916.11 0.543243 -6.90667 0
M  V30 30931 N 2917.9 0.614233 -5.58734 0
M  V30 30932 H 2910.05 -0.790806 -1.97129 0
M  V30 30933 H 2912.32 -0.294163 -0.901206 0
M  V30 30934 H 2912.02 -0.513423 -3.47932 0
M  V30 30935 H 2911.9 1.23475 -3.56418 0
M  V30 30936 H 2914.28 1.41606 -2.58905 0
M  V30 30937 H 2914.36 -0.350635 -2.53385 0
M  V30 30938 H 2914.01 -0.423638 -5.0613 0
M  V30 30939 H 2913.94 1.3563 -5.08834 0
M  V30 30940 H 2916.43 0.577776 -3.73457 0
M  V30 30941 H 2916.74 0.559738 -7.7077 0
M  V30 30942 H 2915.09 0.510319 -6.93124 0
M  V30 30943 H 2918.28 0.632305 -4.6381 0
M  V30 30944 H 2918.45 0.624307 -6.44986 0
M  V30 30945 N 2911.86 1.53252 0.36763 0
M  V30 30946 C 2913.08 1.73546 1.13562 0
M  V30 30947 C 2913.51 0.462376 1.82329 0
M  V30 30948 O 2912.86 -0.583442 1.71656 0
M  V30 30949 C 2912.91 2.90001 2.14317 0
M  V30 30950 O 2912.02 2.58467 3.21355 0
M  V30 30951 H 2911.36 0.576418 0.329604 0
M  V30 30952 H 2913.89 2.00129 0.425382 0
M  V30 30953 H 2913.9 3.16108 2.57953 0
M  V30 30954 H 2912.57 3.82347 1.63657 0
M  V30 30955 H 2911.15 2.4317 2.82706 0
M  V30 30956 N 2913.34 -0.627313 1.44577 0
M  V30 30957 C 2914.25 -1.76773 1.54235 0
M  V30 30958 C 2915.26 -1.68659 0.427811 0
M  V30 30959 O 2916.44 -1.89368 0.685705 0
M  V30 30960 C 2913.5 -3.13171 1.48744 0
M  V30 30961 C 2912.56 -3.32888 2.71079 0
M  V30 30962 C 2911.8 -4.62779 2.6584 0
M  V30 30963 O 2912.02 -5.43831 1.72057 0
M  V30 30964 O 2910.95 -4.84781 3.5675 0
M  V30 30965 H 2914.78 -1.71577 2.50589 0
M  V30 30966 H 2912.36 -0.789006 1.26866 0
M  V30 30967 H 2914.25 -3.94474 1.48218 0
M  V30 30968 H 2912.92 -3.18901 0.555348 0
M  V30 30969 H 2911.83 -2.5125 2.77172 0
M  V30 30970 H 2913.16 -3.32023 3.63348 0
M  V30 30971 N 2914.81 -1.31539 -0.868063 0
M  V30 30972 C 2915.75 -1.1517 -1.98163 0
M  V30 30973 C 2916.76 -0.0902621 -1.6255 0
M  V30 30974 O 2917.95 -0.33794 -1.75272 0
M  V30 30975 C 2915.05 -0.737834 -3.30771 0
M  V30 30976 C 2914.22 -1.88469 -3.94713 0
M  V30 30977 C 2913.28 -1.45657 -5.05639 0
M  V30 30978 O 2912.31 -2.16652 -5.26356 0
M  V30 30979 N 2913.51 -0.345032 -5.79474 0
M  V30 30980 H 2916.27 -2.11086 -2.1275 0
M  V30 30981 H 2913.83 -1.23898 -1.04215 0
M  V30 30982 H 2915.83 -0.434102 -4.02365 0
M  V30 30983 H 2914.4 0.129779 -3.1233 0
M  V30 30984 H 2913.62 -2.35564 -3.16075 0
M  V30 30985 H 2914.9 -2.6528 -4.3417 0
M  V30 30986 H 2914.3 0.24616 -5.65164 0
M  V30 30987 H 2912.86 -0.100843 -6.51722 0
M  V30 30988 N 2916.29 1.08262 -1.1453 0
M  V30 30989 C 2917.2 2.18764 -0.847318 0
M  V30 30990 C 2918.22 1.7314 0.172795 0
M  V30 30991 O 2919.39 2.014 0.000949935 0
M  V30 30992 C 2916.46 3.45119 -0.330693 0
M  V30 30993 C 2915.52 4.05361 -1.41355 0
M  V30 30994 C 2914.75 5.25685 -0.92148 0
M  V30 30995 O 2914.98 5.6991 0.236487 0
M  V30 30996 O 2913.91 5.77361 -1.70111 0
M  V30 30997 H 2917.74 2.46728 -1.77085 0
M  V30 30998 H 2915.32 1.17424 -0.923682 0
M  V30 30999 H 2917.2 4.21372 -0.0485793 0
M  V30 31000 H 2915.88 3.18729 0.565091 0
M  V30 31001 H 2914.78 3.3069 -1.74914 0
M  V30 31002 H 2916.12 4.36003 -2.28391 0
M  V30 31003 N 2917.77 0.940655 1.26449 0
M  V30 31004 C 2918.72 0.440621 2.28388 0
M  V30 31005 C 2919.71 -0.48183 1.62403 0
M  V30 31006 O 2920.92 -0.360101 1.76361 0
M  V30 31007 H 2917.29 0.123951 0.741714 0
M  V30 31008 H 2919.26 1.31292 2.67964 0
M  V30 31009 C 2918.01 -0.279303 3.46576 0
M  V30 31010 H 2917.34 0.421344 3.97574 0
M  V30 31011 H 2918.78 -0.593407 4.19827 0
M  V30 31012 C 2917.23 -1.49691 3.01818 0
M  V30 31013 O 2917.76 -2.59524 3.06611 0
M  V30 31014 N 2915.97 -1.3533 2.57166 0
M  V30 31015 H 2915.52 -0.459698 2.53465 0
M  V30 31016 H 2915.48 -2.16919 2.27582 0
M  V30 31017 N 2919.25 -1.40821 0.707617 0
M  V30 31018 C 2920.66 -1.83988 0.317043 0
M  V30 31019 C 2921.01 -1.59185 -1.14694 0
M  V30 31020 O 2920.13 -1.06855 -1.88178 0
M  V30 31021 C 2920.73 -3.33994 0.568651 0
M  V30 31022 C 2919.29 -3.75685 0.23187 0
M  V30 31023 C 2918.44 -2.64112 0.844979 0
M  V30 31024 H 2921.39 -1.30202 0.907372 0
M  V30 31025 H 2921.41 -3.80126 -0.168731 0
M  V30 31026 H 2920.92 -3.52015 1.63423 0
M  V30 31027 H 2919.02 -3.63261 -0.828966 0
M  V30 31028 H 2919.13 -4.74028 0.695302 0
M  V30 31029 H 2917.5 -2.53226 0.273632 0
M  V30 31030 H 2918.28 -2.84948 1.91467 0
M  V30 31031 N 2920.73 -0.453223 -1.50943 0
M  V30 31032 C 2921.66 0.340399 -2.31005 0
M  V30 31033 C 2922.64 1.00667 -1.37114 0
M  V30 31034 O 2923.82 1.00727 -1.66035 0
M  V30 31035 C 2920.95 1.43295 -3.1636 0
M  V30 31036 C 2919.91 0.889289 -4.18659 0
M  V30 31037 C 2919.23 2.07879 -4.92636 0
M  V30 31038 C 2920.53 -0.087206 -5.22227 0
M  V30 31039 H 2922.23 -0.327775 -2.976 0
M  V30 31040 H 2919.77 -0.159079 -1.43119 0
M  V30 31041 H 2921.72 1.99549 -3.71158 0
M  V30 31042 H 2920.45 2.12964 -2.47617 0
M  V30 31043 H 2919.11 0.348851 -3.64936 0
M  V30 31044 H 2918.76 2.76204 -4.20381 0
M  V30 31045 H 2918.46 1.72133 -5.61822 0
M  V30 31046 H 2919.98 2.64656 -5.50263 0
M  V30 31047 H 2921.39 0.385555 -5.72002 0
M  V30 31048 H 2919.79 -0.358031 -5.99031 0
M  V30 31049 H 2920.86 -1.01887 -4.74075 0
M  V30 31050 N 2922.2 1.56509 -0.185151 0
M  V30 31051 C 2923.45 1.97294 0.456223 0
M  V30 31052 C 2923.78 1.07168 1.62313 0
M  V30 31053 O 2923.03 0.108655 1.95398 0
M  V30 31054 C 2923.33 3.44044 0.967916 0
M  V30 31055 C 2923 4.50821 -0.0845552 0
M  V30 31056 C 2921.66 4.79746 -0.373774 0
M  V30 31057 C 2924.01 5.15051 -0.79821 0
M  V30 31058 C 2921.34 5.70196 -1.3818 0
M  V30 31059 C 2923.69 6.0659 -1.79531 0
M  V30 31060 C 2922.36 6.33876 -2.09183 0
M  V30 31061 H 2921.63 0.721949 0.166944 0
M  V30 31062 H 2924.27 1.89442 -0.280026 0
M  V30 31063 H 2922.58 3.48917 1.78225 0
M  V30 31064 H 2924.28 3.7295 1.4734 0
M  V30 31065 H 2920.87 4.28334 0.151035 0
M  V30 31066 H 2925.05 4.92805 -0.58799 0
M  V30 31067 H 2920.31 5.89614 -1.61756 0
M  V30 31068 H 2924.48 6.55423 -2.35359 0
M  V30 31069 H 2922.11 7.03763 -2.87439 0
M  V30 31070 N 2923.68 -0.0885089 1.57351 0
M  V30 31071 C 2925.09 -0.642277 1.75305 0
M  V30 31072 C 2925.44 -1.78778 0.80827 0
M  V30 31073 O 2924.57 -2.16397 -0.0116719 0
M  V30 31074 C 2925.16 -1.17188 3.17887 0
M  V30 31075 C 2923.72 -1.67166 3.37242 0
M  V30 31076 C 2922.87 -0.583997 2.71081 0
M  V30 31077 H 2925.82 0.137594 1.58102 0
M  V30 31078 H 2925.84 -2.04108 3.21123 0
M  V30 31079 H 2925.35 -0.337956 3.86626 0
M  V30 31080 H 2923.45 -2.52938 2.73593 0
M  V30 31081 H 2923.57 -1.76012 4.45597 0
M  V30 31082 H 2921.93 -1.02504 2.33163 0
M  V30 31083 H 2922.71 0.239463 3.42464 0
M  V30 31084 N 2925.16 -1.53445 -0.359498 0
M  V30 31085 C 2926.41 -1.69141 -1.09883 0
M  V30 31086 C 2926.72 -0.452896 -1.90285 0
M  V30 31087 O 2927.93 -0.490506 -2.67032 0
M  V30 31088 C 2926.38 -2.99029 -2.00274 0
M  V30 31089 C 2925.99 -4.30163 -1.25156 0
M  V30 31090 C 2927.74 -3.24091 -2.74163 0
M  V30 31091 C 2925.64 -5.51136 -2.14484 0
M  V30 31092 H 2924.57 -0.630224 -0.413925 0
M  V30 31093 H 2927.22 -1.79946 -0.359402 0
M  V30 31094 H 2925.61 -2.82041 -2.77973 0
M  V30 31095 H 2926.78 -4.57802 -0.524787 0
M  V30 31096 H 2925.09 -4.11591 -0.631044 0
M  V30 31097 H 2927.69 -4.11658 -3.41236 0
M  V30 31098 H 2928.03 -2.40413 -3.39864 0
M  V30 31099 H 2928.57 -3.41781 -2.03544 0
M  V30 31100 H 2925.31 -6.3731 -1.53351 0
M  V30 31101 H 2924.83 -5.27767 -2.84995 0
M  V30 31102 H 2926.51 -5.86162 -2.73904 0
M  V30 31103 N 2926.64 0.619637 -1.44908 0
M  V30 31104 C 2927.87 1.40384 -1.51578 0
M  V30 31105 C 2928.28 1.88658 -0.143123 0
M  V30 31106 O 2927.62 1.62147 0.863374 0
M  V30 31107 C 2927.68 2.65062 -2.42862 0
M  V30 31108 C 2927.34 2.38509 -3.89824 0
M  V30 31109 C 2928.34 1.99619 -4.8005 0
M  V30 31110 C 2926.03 2.51793 -4.34633 0
M  V30 31111 C 2928.02 1.74358 -6.13089 0
M  V30 31112 C 2925.71 2.26146 -5.67716 0
M  V30 31113 C 2926.71 1.87489 -6.56763 0
M  V30 31114 O 2926.39 1.62134 -7.8738 0
M  V30 31115 H 2926.13 0.436564 -0.516128 0
M  V30 31116 H 2928.68 0.763925 -1.90666 0
M  V30 31117 H 2926.91 3.31732 -1.98723 0
M  V30 31118 H 2928.6 3.27087 -2.40352 0
M  V30 31119 H 2929.36 1.88902 -4.467 0
M  V30 31120 H 2925.24 2.80851 -3.65573 0
M  V30 31121 H 2928.79 1.4411 -6.82553 0
M  V30 31122 H 2924.68 2.36475 -6.00624 0
M  V30 31123 H 2925.45 1.76286 -7.99291 0
M  V30 31124 N 2928.12 1.31997 0.861075 0
M  V30 31125 C 2929.03 1.22377 2.00152 0
M  V30 31126 C 2930.04 0.138662 1.73447 0
M  V30 31127 O 2931.22 0.358139 1.9819 0
M  V30 31128 C 2928.28 0.940703 3.33694 0
M  V30 31129 C 2927.34 2.11361 3.73664 0
M  V30 31130 C 2926.58 1.84395 5.00833 0
M  V30 31131 O 2926.8 0.783386 5.64995 0
M  V30 31132 O 2925.73 2.70323 5.37782 0
M  V30 31133 H 2929.56 2.18236 2.11203 0
M  V30 31134 H 2927.15 1.11824 0.990748 0
M  V30 31135 H 2929.03 0.799059 4.13755 0
M  V30 31136 H 2927.7 0.0122205 3.23698 0
M  V30 31137 H 2926.61 2.3107 2.94207 0
M  V30 31138 H 2927.94 3.02466 3.88298 0
M  V30 31139 N 2929.59 -1.07653 1.15103 0
M  V30 31140 C 2930.54 -2.16874 0.840752 0
M  V30 31141 C 2931.54 -1.68392 -0.184564 0
M  V30 31142 O 2932.74 -1.79956 -0.0398998 0
M  V30 31143 H 2929.12 -0.707732 0.254205 0
M  V30 31144 H 2931.09 -2.40263 1.76964 0
M  V30 31145 C 2929.84 -3.46003 0.343078 0
M  V30 31146 H 2929.16 -3.83692 1.12342 0
M  V30 31147 H 2930.6 -4.2368 0.164605 0
M  V30 31148 C 2929.06 -3.23671 -0.934825 0
M  V30 31149 O 2929.59 -3.47969 -2.007 0
M  V30 31150 N 2927.8 -2.77173 -0.873119 0
M  V30 31151 H 2927.34 -2.576 -0.000433793 0
M  V30 31152 H 2927.3 -2.6261 -1.72869 0
M  V30 31153 N 2931.07 -0.947348 -1.25949 0
M  V30 31154 C 2932.32 -0.599098 -1.93749 0
M  V30 31155 C 2932.65 0.860602 -1.7409 0
M  V30 31156 O 2931.93 1.61652 -1.08161 0
M  V30 31157 C 2932.21 -0.949695 -3.47351 0
M  V30 31158 C 2932.06 -2.46459 -3.76269 0
M  V30 31159 C 2933.38 -0.469519 -4.37588 0
M  V30 31160 H 2930.5 -0.219127 -0.703671 0
M  V30 31161 H 2933.14 -1.18268 -1.48703 0
M  V30 31162 H 2931.29 -0.453076 -3.85849 0
M  V30 31163 H 2932.96 -3.03441 -3.4745 0
M  V30 31164 H 2931.21 -2.90543 -3.22129 0
M  V30 31165 H 2931.88 -2.66041 -4.83659 0
M  V30 31166 H 2934.35 -0.895412 -4.06352 0
M  V30 31167 H 2933.23 -0.743595 -5.4384 0
M  V30 31168 H 2933.49 0.630541 -4.3758 0
M  V30 31169 N 2932.55 1.40444 -0.715075 0
M  V30 31170 C 2933.5 2.32544 -0.0510382 0
M  V30 31171 C 2934.49 1.52012 0.747576 0
M  V30 31172 O 2935.7 1.67815 0.651001 0
M  V30 31173 H 2932.07 0.751996 0.00229792 0
M  V30 31174 H 2934.04 2.86199 -0.84454 0
M  V30 31175 C 2932.79 3.36972 0.857042 0
M  V30 31176 H 2932.12 3.99005 0.25193 0
M  V30 31177 H 2933.56 4.03911 1.28964 0
M  V30 31178 C 2932.02 2.72412 1.98226 0
M  V30 31179 O 2932.55 2.58703 3.07304 0
M  V30 31180 N 2930.75 2.30803 1.76573 0
M  V30 31181 H 2930.3 2.42154 0.878598 0
M  V30 31182 H 2930.26 1.87945 2.5204 0
M  V30 31183 N 2934.03 0.461222 1.507 0
M  V30 31184 C 2935.44 0.00373509 1.867 0
M  V30 31185 C 2935.79 -1.39785 1.37676 0
M  V30 31186 O 2934.92 -2.03443 0.737551 0
M  V30 31187 C 2935.51 1.97394e-06 3.388 0
M  V30 31188 C 2934.07 -0.401978 3.74247 0
M  V30 31189 C 2933.22 0.3897 2.74548 0
M  V30 31190 H 2936.17 0.675967 1.43584 0
M  V30 31191 H 2936.19 -0.804348 3.71901 0
M  V30 31192 H 2935.7 1.02022 3.74451 0
M  V30 31193 H 2933.8 -1.42691 3.44195 0
M  V30 31194 H 2933.91 -0.11018 4.78973 0
M  V30 31195 H 2932.28 -0.155269 2.54226 0
M  V30 31196 H 2933.06 1.40924 3.13042 0
M  V30 31197 N 2935.51 -1.56408 0.193449 0
M  V30 31198 C 2936.42 -2.22621 -0.740073 0
M  V30 31199 C 2937.43 -1.22476 -1.23594 0
M  V30 31200 O 2938.61 -1.55208 -1.28345 0
M  V30 31201 C 2935.67 -2.8713 -1.94312 0
M  V30 31202 C 2934.73 -4.0254 -1.49198 0
M  V30 31203 C 2933.97 -4.63964 -2.63768 0
M  V30 31204 O 2934.19 -4.24308 -3.81208 0
M  V30 31205 O 2933.12 -5.53458 -2.36575 0
M  V30 31206 H 2936.95 -3.02999 -0.206184 0
M  V30 31207 H 2934.54 -1.49357 -0.0357676 0
M  V30 31208 H 2936.42 -3.27949 -2.64627 0
M  V30 31209 H 2935.09 -2.09732 -2.46564 0
M  V30 31210 H 2934 -3.66347 -0.757673 0
M  V30 31211 H 2935.33 -4.81597 -1.01614 0
M  V30 31212 N 2936.98 0.0801629 -1.57396 0
M  V30 31213 C 2938.21 0.79289 -1.90779 0
M  V30 31214 C 2938.62 1.72062 -0.786844 0
M  V30 31215 O 2937.97 1.82002 0.249227 0
M  V30 31216 C 2938.03 1.64697 -3.19555 0
M  V30 31217 C 2937.69 0.889488 -4.4826 0
M  V30 31218 C 2938.69 0.212511 -5.19465 0
M  V30 31219 C 2936.37 0.859142 -4.94898 0
M  V30 31220 C 2938.37 -0.484677 -6.35555 0
M  V30 31221 C 2936.05 0.158176 -6.10895 0
M  V30 31222 C 2937.05 -0.512541 -6.81074 0
M  V30 31223 O 2936.74 -1.20223 -7.94859 0
M  V30 31224 H 2936.47 0.231092 -0.635274 0
M  V30 31225 H 2939.03 0.057272 -2.0532 0
M  V30 31226 H 2937.26 2.42518 -3.01201 0
M  V30 31227 H 2938.95 2.23761 -3.38653 0
M  V30 31228 H 2939.71 0.227317 -4.84467 0
M  V30 31229 H 2935.59 1.37066 -4.40152 0
M  V30 31230 H 2939.13 -1.00876 -6.90268 0
M  V30 31231 H 2935.03 0.141268 -6.45345 0
M  V30 31232 H 2935.8 -1.11065 -8.1093 0
M  V30 31233 N 2938.46 1.53634 0.351355 0
M  V30 31234 C 2939.41 1.77454 1.43157 0
M  V30 31235 C 2940.4 0.629486 1.48075 0
M  V30 31236 O 2941.59 0.888626 1.53077 0
M  V30 31237 C 2938.72 1.9806 2.80405 0
M  V30 31238 C 2937.8 3.18608 2.7991 0
M  V30 31239 N 2938.19 4.40236 2.49049 0
M  V30 31240 C 2936.49 3.19619 3.11062 0
M  V30 31241 C 2937.19 5.2205 2.56591 0
M  V30 31242 N 2936.17 4.58585 2.91892 0
M  V30 31243 H 2939.97 2.69091 1.18183 0
M  V30 31244 H 2937.49 1.52452 0.559658 0
M  V30 31245 H 2939.48 2.13257 3.58227 0
M  V30 31246 H 2938.14 1.0766 3.06332 0
M  V30 31247 H 2939.15 4.67722 2.22387 0
M  V30 31248 H 2935.83 2.3916 3.42211 0
M  V30 31249 H 2937.22 6.29105 2.35957 0
M  V30 31250 N 2939.94 -0.611943 1.45234 0
M  V30 31251 C 2941.36 -0.932228 1.29544 0
M  V30 31252 C 2941.56 -2.00002 0.245265 0
M  V30 31253 O 2940.61 -2.49887 -0.362289 0
M  V30 31254 C 2941.93 -1.37729 2.67304 0
M  V30 31255 C 2943.47 -1.49173 2.75166 0
M  V30 31256 C 2943.95 -1.97056 4.1344 0
M  V30 31257 N 2945.44 -2.04297 4.15713 0
M  V30 31258 C 2946.17 -2.42559 5.1957 0
M  V30 31259 N 2945.67 -2.79821 6.33776 0
M  V30 31260 N 2947.46 -2.4286 5.06927 0
M  V30 31261 H 2939.61 0.0939052 2.12192 0
M  V30 31262 H 2941.88 -0.0206402 0.947775 0
M  V30 31263 H 2941.58 -0.66689 3.45319 0
M  V30 31264 H 2941.46 -2.34465 2.95476 0
M  V30 31265 H 2943.84 -2.19305 1.97457 0
M  V30 31266 H 2943.93 -0.50763 2.50713 0
M  V30 31267 H 2943.57 -1.27513 4.91633 0
M  V30 31268 H 2943.5 -2.96373 4.35283 0
M  V30 31269 H 2945.99 -1.78108 3.33296 0
M  V30 31270 H 2946.3 -3.07885 7.08821 0
M  V30 31271 H 2944.65 -2.77527 6.37184 0
M  V30 31272 H 2947.84 -2.13153 4.16753 0
M  V30 31273 H 2948.01 -2.72353 5.87986 0
M  V30 31274 N 2941.42 -1.32452 -0.854063 0
M  V30 31275 C 2942.7 -1.13663 -1.59186 0
M  V30 31276 C 2943.08 0.30277 -2.08917 0
M  V30 31277 O 2942.42 1.29947 -1.87952 0
M  V30 31278 C 2942.63 -2.16472 -2.73753 0
M  V30 31279 C 2943.98 -2.49835 -3.43319 0
M  V30 31280 O 2945.01 -2.15022 -2.83979 0
M  V30 31281 O 2943.86 -3.09514 -4.50404 0
M  V30 31282 H 2940.96 -0.438645 -0.701084 0
M  V30 31283 H 2943.5 -1.43985 -0.898139 0
M  V30 31284 H 2942.28 -3.13224 -2.34535 0
M  V30 31285 H 2941.9 -1.87148 -3.50801 0
M  V30 31286 N 2942.9 1.07041 -1.15672 0
M  V30 31287 C 2944.31 1.61168 -0.942437 0
M  V30 31288 C 2944.66 1.89307 0.515504 0
M  V30 31289 O 2943.78 1.66087 1.38723 0
M  V30 31290 C 2944.38 2.92809 -1.70436 0
M  V30 31291 C 2942.94 3.43666 -1.53527 0
M  V30 31292 C 2942.09 2.17675 -1.71794 0
M  V30 31293 H 2945.04 0.900877 -1.30652 0
M  V30 31294 H 2945.06 3.6188 -1.17572 0
M  V30 31295 H 2944.57 2.72297 -2.76543 0
M  V30 31296 H 2942.67 3.69253 -0.498289 0
M  V30 31297 H 2942.78 4.19496 -2.31429 0
M  V30 31298 H 2941.15 2.27527 -1.14472 0
M  V30 31299 H 2941.93 1.99654 -2.79272 0
M  V30 31300 N 2944.38 0.954014 1.25445 0
M  V30 31301 C 2945.62 0.609364 1.93429 0
M  V30 31302 C 2945.95 -0.851357 1.74544 0
M  V30 31303 O 2945.23 -1.61076 1.09017 0
M  V30 31304 C 2945.51 0.968102 3.46843 0
M  V30 31305 C 2945.37 2.48451 3.74956 0
M  V30 31306 C 2946.68 0.492718 4.37333 0
M  V30 31307 H 2943.8 0.222856 0.702499 0
M  V30 31308 H 2946.45 1.19055 1.48074 0
M  V30 31309 H 2944.6 0.473532 3.85603 0
M  V30 31310 H 2946.27 3.05279 3.45836 0
M  V30 31311 H 2944.51 2.92247 3.20584 0
M  V30 31312 H 2945.18 2.68602 4.82242 0
M  V30 31313 H 2947.66 0.916949 4.05871 0
M  V30 31314 H 2946.53 0.772426 5.43438 0
M  V30 31315 H 2946.79 -0.607326 4.37909 0
M  V30 31316 N 2945.85 -1.40063 0.722513 0
M  V30 31317 C 2947.08 -2.04769 0.274475 0
M  V30 31318 C 2947.49 -1.54561 -1.09122 0
M  V30 31319 O 2946.83 -0.700179 -1.69833 0
M  V30 31320 C 2946.9 -3.59028 0.184154 0
M  V30 31321 C 2946.56 -4.32156 1.48627 0
M  V30 31322 C 2947.56 -4.5964 2.42955 0
M  V30 31323 C 2945.24 -4.70937 1.74711 0
M  V30 31324 C 2947.24 -5.24897 3.6161 0
M  V30 31325 C 2944.92 -5.35925 2.93646 0
M  V30 31326 C 2945.92 -5.62836 3.86917 0
M  V30 31327 O 2945.61 -6.2648 5.03764 0
M  V30 31328 H 2945.34 -0.665289 0.119858 0
M  V30 31329 H 2947.9 -1.8033 0.983383 0
M  V30 31330 H 2946.13 -3.82314 -0.580754 0
M  V30 31331 H 2947.81 -4.05247 -0.230235 0
M  V30 31332 H 2948.58 -4.30137 2.24069 0
M  V30 31333 H 2944.46 -4.49355 1.02963 0
M  V30 31334 H 2948 -5.45819 4.34428 0
M  V30 31335 H 2943.9 -5.64848 3.12438 0
M  V30 31336 H 2944.67 -6.44976 5.03933 0
M  V30 31337 N 2947.33 -0.469207 -1.50453 0
M  V30 31338 C 2948.56 0.0864528 -2.0722 0
M  V30 31339 C 2948.98 1.32913 -1.331 0
M  V30 31340 O 2948.34 1.77313 -0.378115 0
M  V30 31341 C 2948.39 0.355321 -3.58845 0
M  V30 31342 O 2947.49 1.43615 -3.86586 0
M  V30 31343 H 2946.83 -0.0121531 -0.663889 0
M  V30 31344 H 2949.36 -0.659708 -1.93672 0
M  V30 31345 H 2949.37 0.596376 -4.03618 0
M  V30 31346 H 2948.05 -0.55277 -4.1221 0
M  V30 31347 H 2946.62 1.18256 -3.53652 0
M  V30 31348 N 2948.81 1.56303 -0.201741 0
M  V30 31349 C 2950.23 1.58855 0.153997 0
M  V30 31350 C 2950.43 1.2181 1.60514 0
M  V30 31351 O 2949.48 0.943971 2.34191 0
M  V30 31352 C 2950.79 3.00303 -0.154372 0
M  V30 31353 C 2952.34 3.12856 -0.0950128 0
M  V30 31354 C 2952.82 4.56448 -0.376783 0
M  V30 31355 N 2954.31 4.62054 -0.32564 0
M  V30 31356 C 2955.04 5.71061 -0.51742 0
M  V30 31357 N 2954.54 6.88509 -0.76991 0
M  V30 31358 N 2956.33 5.60286 -0.451219 0
M  V30 31359 H 2948.48 1.78664 -1.14861 0
M  V30 31360 H 2950.75 0.8295 -0.458948 0
M  V30 31361 H 2950.45 3.31992 -1.1608 0
M  V30 31362 H 2950.33 3.73315 0.539948 0
M  V30 31363 H 2952.71 2.80976 0.902026 0
M  V30 31364 H 2952.79 2.42216 -0.822511 0
M  V30 31365 H 2952.44 4.89041 -1.37117 0
M  V30 31366 H 2952.37 5.25287 0.37168 0
M  V30 31367 H 2954.86 3.7765 -0.137375 0
M  V30 31368 H 2955.17 7.67484 -0.904879 0
M  V30 31369 H 2953.52 6.903 -0.80688 0
M  V30 31370 H 2956.71 4.67409 -0.254335 0
M  V30 31371 H 2956.88 6.45178 -0.604095 0
M  V30 31372 N 2950.29 -0.0718147 1.57436 0
M  V30 31373 C 2951.24 -1.09226 2.00134 0
M  V30 31374 C 2952.22 -1.3448 0.883402 0
M  V30 31375 O 2953.41 -1.34781 1.14731 0
M  V30 31376 C 2950.54 -2.40601 2.4488 0
M  V30 31377 C 2949.63 -2.18621 3.63409 0
M  V30 31378 N 2950.02 -1.6657 4.77586 0
M  V30 31379 C 2948.32 -2.49094 3.69957 0
M  V30 31380 C 2949.02 -1.59405 5.59433 0
M  V30 31381 N 2947.99 -2.05455 5.03279 0
M  V30 31382 H 2951.8 -0.683135 2.8585 0
M  V30 31383 H 2949.31 -0.278886 1.59987 0
M  V30 31384 H 2951.31 -3.14467 2.73708 0
M  V30 31385 H 2949.97 -2.82229 1.60551 0
M  V30 31386 H 2950.98 -1.35435 4.99878 0
M  V30 31387 H 2947.66 -2.94089 2.96341 0
M  V30 31388 H 2949.05 -1.20015 6.61095 0
M  V30 31389 O 2951.8 -1.60057 -0.215422 0
M  V30 31390 H 2952.5 -1.73755 -0.856085 0
M  V30 END ATOM
M  V30 BEGIN BOND
M  V30 END BOND
M  V30 END CTAB
M  END
$$$$
