446795
  -OEChem-10051719443D

 55 58  0     1  0  0  0  0  0999 V2000
    4.9139    1.8619    0.9446 P   0  0  2  0  0  0  0  0  0  0  0  0
    3.8094    3.9169   -0.8472 P   0  0  0  0  0  0  0  0  0  0  0  0
    2.6198   -1.7938    1.0670 O   0  0  0  0  0  0  0  0  0  0  0  0
    1.7341   -3.8004   -1.7807 O   0  0  0  0  0  0  0  0  0  0  0  0
    3.9392   -4.2091   -0.2459 O   0  0  0  0  0  0  0  0  0  0  0  0
    4.4661    0.3160    1.1151 O   0  0  0  0  0  0  0  0  0  0  0  0
    3.8654    2.4731   -0.1235 O   0  0  0  0  0  0  0  0  0  0  0  0
    6.2967    1.7912    0.1079 O   0  0  0  0  0  0  0  0  0  0  0  0
    5.0058    2.6353    2.2280 O   0  0  0  0  0  0  0  0  0  0  0  0
    2.4036    3.8808   -1.6439 O   0  0  0  0  0  0  0  0  0  0  0  0
    3.5234    4.9307    0.3787 O   0  0  0  0  0  0  0  0  0  0  0  0
    5.0116    4.2458   -1.6821 O   0  0  0  0  0  0  0  0  0  0  0  0
    0.3949   -1.7435    0.2439 N   0  0  0  0  0  0  0  0  0  0  0  0
   -0.9842    0.0081    0.2434 N   0  0  0  0  0  0  0  0  0  0  0  0
   -1.2251   -3.5495    0.1248 N   0  0  0  0  0  0  0  0  0  0  0  0
   -4.0009   -0.3482    0.1107 N   0  0  0  0  0  0  0  0  0  0  0  0
   -3.5081   -2.6895    0.0608 N   0  0  0  0  0  0  0  0  0  0  0  0
    2.2818   -2.6908   -1.0986 C   0  0  2  0  0  0  0  0  0  0  0  0
    3.7401   -2.8810   -0.7303 C   0  0  1  0  0  0  0  0  0  0  0  0
    1.6470   -2.4962    0.2699 C   0  0  1  0  0  0  0  0  0  0  0  0
    3.9129   -1.9039    0.4283 C   0  0  1  0  0  0  0  0  0  0  0  0
    4.3439   -0.5161   -0.0251 C   0  0  0  0  0  0  0  0  0  0  0  0
   -0.8689   -2.2573    0.1782 C   0  0  0  0  0  0  0  0  0  0  0  0
    0.2736   -0.3796    0.2817 C   0  0  0  0  0  0  0  0  0  0  0  0
   -1.7091   -1.1553    0.1786 C   0  0  0  0  0  0  0  0  0  0  0  0
   -3.0760   -1.4066    0.1166 C   0  0  0  0  0  0  0  0  0  0  0  0
   -2.5696   -3.6668    0.0682 C   0  0  0  0  0  0  0  0  0  0  0  0
   -5.4182   -0.5492    0.0482 C   0  0  0  0  0  0  0  0  0  0  0  0
   -6.1372    0.7711    0.0216 C   0  0  0  0  0  0  0  0  0  0  0  0
   -6.5228    1.3795    1.2162 C   0  0  0  0  0  0  0  0  0  0  0  0
   -6.4181    1.3880   -1.1976 C   0  0  0  0  0  0  0  0  0  0  0  0
   -7.1895    2.6044    1.1917 C   0  0  0  0  0  0  0  0  0  0  0  0
   -7.0849    2.6130   -1.2220 C   0  0  0  0  0  0  0  0  0  0  0  0
   -7.4705    3.2211   -0.0273 C   0  0  0  0  0  0  0  0  0  0  0  0
    2.1669   -1.7979   -1.7252 H   0  0  0  0  0  0  0  0  0  0  0  0
    4.4243   -2.7242   -1.5689 H   0  0  0  0  0  0  0  0  0  0  0  0
    1.4339   -3.4512    0.7659 H   0  0  0  0  0  0  0  0  0  0  0  0
    4.6069   -2.2786    1.1892 H   0  0  0  0  0  0  0  0  0  0  0  0
    5.3069   -0.5658   -0.5426 H   0  0  0  0  0  0  0  0  0  0  0  0
    3.6003   -0.0738   -0.6953 H   0  0  0  0  0  0  0  0  0  0  0  0
    0.7878   -3.6239   -1.9176 H   0  0  0  0  0  0  0  0  0  0  0  0
    4.8703   -4.2822    0.0247 H   0  0  0  0  0  0  0  0  0  0  0  0
    1.1276    0.2823    0.3312 H   0  0  0  0  0  0  0  0  0  0  0  0
   -2.9511   -4.6813    0.0222 H   0  0  0  0  0  0  0  0  0  0  0  0
   -3.6241    0.5926    0.1574 H   0  0  0  0  0  0  0  0  0  0  0  0
   -5.6867   -1.1267   -0.8457 H   0  0  0  0  0  0  0  0  0  0  0  0
   -5.7616   -1.1351    0.9103 H   0  0  0  0  0  0  0  0  0  0  0  0
    6.8226    2.6110   -0.0085 H   0  0  0  0  0  0  0  0  0  0  0  0
   -6.3079    0.9099    2.1724 H   0  0  0  0  0  0  0  0  0  0  0  0
   -6.1211    0.9253   -2.1349 H   0  0  0  0  0  0  0  0  0  0  0  0
   -7.4893    3.0782    2.1218 H   0  0  0  0  0  0  0  0  0  0  0  0
   -7.3032    3.0937   -2.1711 H   0  0  0  0  0  0  0  0  0  0  0  0
   -7.9893    4.1750   -0.0464 H   0  0  0  0  0  0  0  0  0  0  0  0
    2.1733    4.6291   -2.2350 H   0  0  0  0  0  0  0  0  0  0  0  0
    3.5297    5.8965    0.2076 H   0  0  0  0  0  0  0  0  0  0  0  0
  1  6  1  0  0  0  0
  1  7  1  0  0  0  0
  1  8  1  0  0  0  0
  1  9  2  0  0  0  0
  2  7  1  0  0  0  0
  2 10  1  0  0  0  0
  2 11  1  0  0  0  0
  2 12  2  0  0  0  0
  3 20  1  0  0  0  0
  3 21  1  0  0  0  0
  4 18  1  0  0  0  0
  4 41  1  0  0  0  0
  5 19  1  0  0  0  0
  5 42  1  0  0  0  0
  6 22  1  0  0  0  0
  8 48  1  0  0  0  0
 10 54  1  0  0  0  0
 11 55  1  0  0  0  0
 13 20  1  0  0  0  0
 13 23  1  0  0  0  0
 13 24  1  0  0  0  0
 14 24  2  0  0  0  0
 14 25  1  0  0  0  0
 15 23  2  0  0  0  0
 15 27  1  0  0  0  0
 16 26  1  0  0  0  0
 16 28  1  0  0  0  0
 16 45  1  0  0  0  0
 17 26  1  0  0  0  0
 17 27  2  0  0  0  0
 18 19  1  0  0  0  0
 18 20  1  0  0  0  0
 18 35  1  0  0  0  0
 19 21  1  0  0  0  0
 19 36  1  0  0  0  0
 20 37  1  0  0  0  0
 21 22  1  0  0  0  0
 21 38  1  0  0  0  0
 22 39  1  0  0  0  0
 22 40  1  0  0  0  0
 23 25  1  0  0  0  0
 24 43  1  0  0  0  0
 25 26  2  0  0  0  0
 27 44  1  0  0  0  0
 28 29  1  0  0  0  0
 28 46  1  0  0  0  0
 28 47  1  0  0  0  0
 29 30  2  0  0  0  0
 29 31  1  0  0  0  0
 30 32  1  0  0  0  0
 30 49  1  0  0  0  0
 31 33  2  0  0  0  0
 31 50  1  0  0  0  0
 32 34  2  0  0  0  0
 32 51  1  0  0  0  0
 33 34  1  0  0  0  0
 33 52  1  0  0  0  0
 34 53  1  0  0  0  0
M  END
> <DATABASE_ID>
DB01893

> <DATABASE_NAME>
drugbank

> <ORIGINAL_SOURCE>
PUBCHEM

> <ORIGINAL_SOURCE_URL>
https://pubchem.ncbi.nlm.nih.gov/rest/pug/compound/inchikey/MRHGMAGSDAQUFH-LSCFUAHRSA-N/SDF?record_type=3d

> <SMILES>
[H][C@]1(COP(O)(=O)OP(O)(O)=O)O[C@@]([H])(N2C=NC3=C(NCC4=CC=CC=C4)N=CN=C23)[C@]([H])(O)[C@]1([H])O

> <INCHI_IDENTIFIER>
InChI=1S/C17H21N5O10P2/c23-13-11(7-30-34(28,29)32-33(25,26)27)31-17(14(13)24)22-9-21-12-15(19-8-20-16(12)22)18-6-10-4-2-1-3-5-10/h1-5,8-9,11,13-14,17,23-24H,6-7H2,(H,28,29)(H,18,19,20)(H2,25,26,27)/t11-,13-,14-,17-/m1/s1

> <INCHI_KEY>
MRHGMAGSDAQUFH-LSCFUAHRSA-N

> <FORMULA>
C17H21N5O10P2

> <MOLECULAR_WEIGHT>
517.3237

> <EXACT_MASS>
517.076364941

> <JCHEM_ACCEPTOR_COUNT>
12

> <JCHEM_AVERAGE_POLARIZABILITY>
46.1789499532952

> <JCHEM_BIOAVAILABILITY>
0

> <JCHEM_DONOR_COUNT>
6

> <JCHEM_FORMAL_CHARGE>
0

> <JCHEM_GHOSE_FILTER>
0

> <JCHEM_IUPAC>
[({[(2R,3S,4R,5R)-5-[6-(benzylamino)-9H-purin-9-yl]-3,4-dihydroxyoxolan-2-yl]methoxy}(hydroxy)phosphoryl)oxy]phosphonic acid

> <ALOGPS_LOGP>
-0.15

> <JCHEM_LOGP>
-2.9423807904968347

> <ALOGPS_LOGS>
-2.37

> <JCHEM_MDDR_LIKE_RULE>
1

> <JCHEM_NUMBER_OF_RINGS>
4

> <JCHEM_PHYSIOLOGICAL_CHARGE>
-2

> <JCHEM_PKA>
3.200729108798636

> <JCHEM_PKA_STRONGEST_ACIDIC>
1.7713729244948926

> <JCHEM_PKA_STRONGEST_BASIC>
4.850402133422276

> <JCHEM_POLAR_SURFACE_AREA>
218.60999999999996

> <JCHEM_REFRACTIVITY>
115.04739999999998

> <JCHEM_ROTATABLE_BOND_COUNT>
9

> <JCHEM_RULE_OF_FIVE>
0

> <ALOGPS_SOLUBILITY>
2.23e+00 g/l

> <JCHEM_TRADITIONAL_IUPAC>
{[(2R,3S,4R,5R)-5-[6-(benzylamino)purin-9-yl]-3,4-dihydroxyoxolan-2-yl]methoxy(hydroxy)phosphoryl}oxyphosphonic acid

> <JCHEM_VEBER_RULE>
0

> <DRUGBANK_ID>
DB01893

> <SECONDARY_ACCESSION_NUMBERS>
EXPT02305

> <DRUG_GROUPS>
experimental

> <GENERIC_NAME>
N6-Benzyl Adenosine-5'-Diphosphate

$$$$