drugbank_target|P11168 Solute carrier family 2, facilitated glucose transporter member 2 (DB00428)
 OpenBabel12092119473D

  0  0  0     0  0            999 V3000
M  V30 BEGIN CTAB
M  V30 COUNTS 8196 8296 0 0 0
M  V30 BEGIN ATOM
M  V30 1 H -0.908 1.98254 -0.117106 0
M  V30 2 N 0 1.576 0 0
M  V30 3 C 0.933 2.03868 1.02534 0
M  V30 4 C 1.911 0.928543 1.3348 0
M  V30 5 O 3.095 1.19667 1.45644 0
M  V30 6 C 0.222 2.43627 2.35294 0
M  V30 7 C -0.732 3.65373 2.2001 0
M  V30 8 S 0.101 5.13292 1.52614 0
M  V30 9 C 1.257 5.56322 2.86805 0
M  V30 10 H 1.49 2.90518 0.631377 0
M  V30 11 H -0.977 1.52953 0.210867 0
M  V30 12 H 0.981 2.67203 3.11629 0
M  V30 13 H -0.358 1.57376 2.7183 0
M  V30 14 H -1.165 3.90944 3.18086 0
M  V30 15 H -1.563 3.418 1.51819 0
M  V30 16 H 0.729 5.58782 3.83104 0
M  V30 17 H 1.672 6.56266 2.65933 0
M  V30 18 H 2.08 4.83886 2.90714 0
M  V30 19 N 1.4781 -0.272755 1.55222 0
M  V30 20 C 2.7061 -1.02255 1.79865 0
M  V30 21 C 3.1211 -1.79924 0.572088 0
M  V30 22 O 2.4781 -1.76638 -0.458842 0
M  V30 23 C 2.5291 -1.98094 3.02392 0
M  V30 24 O 2.2501 -1.23572 4.20311 0
M  V30 25 C 3.7511 -2.84884 3.39641 0
M  V30 26 H 0.9711 -0.302057 0.599168 0
M  V30 27 H 3.5151 -0.303465 2.02236 0
M  V30 28 H 1.6701 -2.65465 2.82147 0
M  V30 29 H 2.0841 -1.88172 4.89583 0
M  V30 30 H 3.5581 -3.47927 4.28545 0
M  V30 31 H 4.0351 -3.54665 2.59055 0
M  V30 32 H 4.6411 -2.23003 3.62146 0
M  V30 33 N 2.9562 -1.48159 -0.537278 0
M  V30 34 C 3.8662 -1.64807 -1.6696 0
M  V30 35 C 4.8822 -0.530651 -1.65711 0
M  V30 36 O 6.0582 -0.800784 -1.84796 0
M  V30 37 C 3.1232 -1.67708 -3.03438 0
M  V30 38 C 2.1842 -2.91025 -3.156 0
M  V30 39 C 1.4172 -2.93778 -4.45567 0
M  V30 40 O 1.6402 -2.05153 -5.3223 0
M  V30 41 O 0.5742 -3.85868 -4.61941 0
M  V30 42 H 4.4002 -2.6066 -1.55853 0
M  V30 43 H 1.9852 -1.31475 -0.709549 0
M  V30 44 H 3.8672 -1.7218 -3.84619 0
M  V30 45 H 2.5422 -0.750278 -3.14885 0
M  V30 46 H 1.4492 -2.92089 -2.33741 0
M  V30 47 H 2.7822 -3.83065 -3.09066 0
M  V30 48 N 4.4343 0.785586 -1.36625 0
M  V30 49 C 5.7113 1.53198 -1.21613 0
M  V30 50 C 6.0913 2.10187 0.196113 0
M  V30 51 O 5.4393 1.94318 1.20219 0
M  V30 52 C 5.6493 2.62388 -2.30116 0
M  V30 53 C 6.9973 3.30167 -2.66974 0
M  V30 54 O 8.0213 2.72674 -2.29188 0
M  V30 55 O 6.8803 4.34077 -3.32023 0
M  V30 56 H 3.9743 0.677865 -0.473738 0
M  V30 57 H 6.5203 0.823739 -1.48367 0
M  V30 58 H 5.2923 2.18299 -3.24748 0
M  V30 59 H 4.9153 3.40827 -2.0475 0
M  V30 60 N 5.9124 1.20967 1.01018 0
M  V30 61 C 6.8594 0.964281 2.09691 0
M  V30 62 C 7.8294 -0.107853 1.65749 0
M  V30 63 O 9.0144 0.0381987 1.90762 0
M  V30 64 C 6.1544 0.52943 3.41015 0
M  V30 65 C 5.2674 1.67043 3.98398 0
M  V30 66 C 4.4024 1.18525 5.17808 0
M  V30 67 C 3.4414 2.29892 5.67288 0
M  V30 68 N 2.5784 1.82546 6.77954 0
M  V30 69 H 7.4184 1.89463 2.30017 0
M  V30 70 H 4.9554 0.944289 1.1279 0
M  V30 71 H 6.9134 0.258588 4.16398 0
M  V30 72 H 5.5434 -0.363919 3.20742 0
M  V30 73 H 4.5954 2.05603 3.20049 0
M  V30 74 H 5.9074 2.50877 4.31117 0
M  V30 75 H 5.0614 0.870762 6.00419 0
M  V30 76 H 3.8004 0.316887 4.86669 0
M  V30 77 H 2.8054 2.6215 4.83278 0
M  V30 78 H 4.0304 3.17216 6.00459 0
M  V30 79 H 1.9764 0.980454 6.48632 0
M  V30 80 H 1.8934 2.59956 7.09901 0
M  V30 81 H 3.1614 1.54115 7.64113 0
M  V30 82 N 7.3905 -1.2043 1.01659 0
M  V30 83 C 8.6365 -1.90079 0.706963 0
M  V30 84 C 8.9695 -1.78648 -0.761474 0
M  V30 85 O 8.2445 -1.17069 -1.55323 0
M  V30 86 C 8.5275 -3.41469 1.14327 0
M  V30 87 C 8.3805 -3.61833 2.67201 0
M  V30 88 C 9.6995 -4.34261 0.714529 0
M  V30 89 H 6.8185 -0.690254 0.2583 0
M  V30 90 H 9.4605 -1.41826 1.26433 0
M  V30 91 H 7.6105 -3.82696 0.669056 0
M  V30 92 H 9.2825 -3.2986 3.22475 0
M  V30 93 H 7.5255 -3.05304 3.08175 0
M  V30 94 H 8.1965 -4.67955 2.92783 0
M  V30 95 H 10.6725 -4.00682 1.12221 0
M  V30 96 H 9.5485 -5.38806 1.04784 0
M  V30 97 H 9.8095 -4.40431 -0.383799 0
M  V30 98 N 8.8686 -0.792821 -1.36206 0
M  V30 99 C 10.0966 -0.378825 -2.03402 0
M  V30 100 C 10.5116 1.00586 -1.59774 0
M  V30 101 O 9.8686 1.64574 -0.788764 0
M  V30 102 C 9.9196 -0.43683 -3.58851 0
M  V30 103 O 9.6406 -1.76691 -4.00889 0
M  V30 104 C 11.1416 -0.0138943 -4.43298 0
M  V30 105 H 8.3616 -0.155673 -0.652692 0
M  V30 106 H 10.9056 -1.07261 -1.74113 0
M  V30 107 H 9.0606 0.208575 -3.86838 0
M  V30 108 H 9.4746 -1.72011 -4.95492 0
M  V30 109 H 10.9486 -0.105615 -5.51899 0
M  V30 110 H 11.4256 1.03915 -4.2673 0
M  V30 111 H 12.0316 -0.63192 -4.20579 0
M  V30 112 N 10.3467 1.47872 -0.545128 0
M  V30 113 C 11.5947 2.02093 -0.016553 0
M  V30 114 C 11.9157 1.42305 1.3332 0
M  V30 115 O 11.1857 0.593853 1.86682 0
M  V30 116 H 9.7657 0.746993 -0.00313038 0
M  V30 117 H 12.4277 1.81414 -0.712397 0
M  V30 118 H 11.5237 3.11996 0.0805422 0
M  V30 119 N 11.8248 0.280983 1.55075 0
M  V30 120 C 13.0528 -0.337293 2.04132 0
M  V30 121 C 13.4678 -1.4903 1.15912 0
M  V30 122 O 12.8248 -1.81606 0.180459 0
M  V30 123 C 12.8758 -0.812706 3.52246 0
M  V30 124 O 12.5968 0.294387 4.3711 0
M  V30 125 C 14.0978 -1.4982 4.17216 0
M  V30 126 H 11.3178 -0.0761638 0.666663 0
M  V30 127 H 13.8618 0.414787 2.00249 0
M  V30 128 H 12.0168 -1.51486 3.56554 0
M  V30 129 H 12.4308 -0.0721325 5.2445 0
M  V30 130 H 13.9048 -1.7822 5.22438 0
M  V30 131 H 14.3818 -2.43168 3.65741 0
M  V30 132 H 14.9878 -0.839742 4.16927 0
M  V30 133 N 13.3029 -1.57598 0.00835791 0
M  V30 134 C 14.2329 -2.1198 -0.979113 0
M  V30 135 C 15.2139 -1.03091 -1.35301 0
M  V30 136 O 16.3989 -1.30818 -1.43528 0
M  V30 137 C 13.5289 -2.62995 -2.26828 0
M  V30 138 C 12.4829 -3.76485 -2.03576 0
M  V30 139 C 11.8089 -4.13846 -3.38579 0
M  V30 140 C 13.1089 -5.0342 -1.39161 0
M  V30 141 H 14.8029 -2.94738 -0.526281 0
M  V30 142 H 12.3489 -1.41783 -0.251704 0
M  V30 143 H 14.3019 -2.99669 -2.96271 0
M  V30 144 H 13.0259 -1.7737 -2.7424 0
M  V30 145 H 11.6849 -3.40217 -1.36557 0
M  V30 146 H 11.3329 -3.25232 -3.83709 0
M  V30 147 H 11.0329 -4.90312 -3.23834 0
M  V30 148 H 12.5569 -4.53086 -4.09323 0
M  V30 149 H 13.9709 -5.37812 -1.98573 0
M  V30 150 H 12.3679 -5.84746 -1.34878 0
M  V30 151 H 13.4379 -4.83548 -0.361868 0
M  V30 152 N 14.781 0.264519 -1.55364 0
M  V30 153 C 16.027 0.99646 -1.76631 0
M  V30 154 C 16.36 1.85632 -0.570478 0
M  V30 155 O 15.635 1.89647 0.43175 0
M  V30 156 C 15.918 1.87187 -3.07625 0
M  V30 157 C 15.771 1.04138 -4.37579 0
M  V30 158 C 17.09 2.85749 -3.34717 0
M  V30 159 H 14.209 0.360841 -0.642622 0
M  V30 160 H 16.851 0.268218 -1.88097 0
M  V30 161 H 15.001 2.49279 -2.9798 0
M  V30 162 H 16.673 0.440517 -4.59192 0
M  V30 163 H 14.916 0.345115 -4.32425 0
M  V30 164 H 15.587 1.68729 -5.2558 0
M  V30 165 H 18.063 2.33793 -3.4421 0
M  V30 166 H 16.939 3.44136 -4.27623 0
M  V30 167 H 17.2 3.61311 -2.54768 0
M  V30 168 N 16.2591 1.48442 0.529413 0
M  V30 169 C 17.5061 1.56488 1.28521 0
M  V30 170 C 17.8341 0.239042 1.93025 0
M  V30 171 O 17.0891 -0.770713 1.79885 0
M  V30 172 C 17.3881 2.6523 2.39558 0
M  V30 173 C 17.0541 4.07648 1.92702 0
M  V30 174 C 15.7161 4.46411 1.79641 0
M  V30 175 C 18.0681 4.96896 1.573 0
M  V30 176 C 15.3961 5.72226 1.29514 0
M  V30 177 C 17.7481 6.23202 1.08636 0
M  V30 178 C 16.4121 6.60821 0.941919 0
M  V30 179 H 15.6821 0.572631 0.470292 0
M  V30 180 H 18.3291 1.82161 0.59072 0
M  V30 181 H 16.6341 2.33419 3.14679 0
M  V30 182 H 18.3311 2.68671 2.97686 0
M  V30 183 H 14.9211 3.77036 2.03819 0
M  V30 184 H 19.1051 4.67626 1.66251 0
M  V30 185 H 14.3611 6.00097 1.17019 0
M  V30 186 H 18.5351 6.91753 0.803136 0
M  V30 187 H 16.1621 7.58198 0.5513 0
M  V30 188 N 17.7372 -0.778329 1.37039 0
M  V30 189 C 18.9652 -1.56734 1.35063 0
M  V30 190 C 19.3802 -1.88686 -0.0655597 0
M  V30 191 O 18.7372 -1.5096 -1.02554 0
M  V30 192 C 18.7882 -2.88163 2.18276 0
M  V30 193 O 18.5092 -2.57583 3.54376 0
M  V30 194 C 20.0102 -3.82422 2.24206 0
M  V30 195 H 17.2302 -0.485778 0.462883 0
M  V30 196 H 19.7742 -0.965185 1.8029 0
M  V30 197 H 17.9292 -3.44818 1.76576 0
M  V30 198 H 18.3432 -3.41699 3.97922 0
M  V30 199 H 19.8172 -4.71667 2.86765 0
M  V30 200 H 20.2942 -4.21078 1.24861 0
M  V30 201 H 20.9002 -3.31697 2.6619 0
M  V30 202 N 19.2153 -1.21501 -1.00376 0
M  V30 203 C 20.4613 -1.03452 -1.74429 0
M  V30 204 C 20.7943 0.430764 -1.89362 0
M  V30 205 O 20.0693 1.31962 -1.42886 0
M  V30 206 C 20.3523 -1.73375 -3.15615 0
M  V30 207 C 20.2053 -3.27431 -3.08397 0
M  V30 208 C 21.5243 -1.47732 -4.14564 0
M  V30 209 H 18.6433 -0.377226 -0.633143 0
M  V30 210 H 21.2853 -1.49693 -1.17013 0
M  V30 211 H 19.4353 -1.34064 -3.64636 0
M  V30 212 H 21.1073 -3.76119 -2.67081 0
M  V30 213 H 19.3503 -3.5767 -2.45468 0
M  V30 214 H 20.0213 -3.71524 -4.08258 0
M  V30 215 H 22.4973 -1.8186 -3.74254 0
M  V30 216 H 21.3733 -1.99169 -5.11491 0
M  V30 217 H 21.6343 -0.407589 -4.40217 0
M  V30 218 N 20.6934 1.19889 -1.02296 0
M  V30 219 C 21.9424 1.88743 -0.711257 0
M  V30 220 C 22.2554 1.80112 0.762817 0
M  V30 221 O 23.4614 2.44161 1.18733 0
M  V30 222 C 21.9174 3.38525 -1.22185 0
M  V30 223 C 21.5254 3.55727 -2.72328 0
M  V30 224 C 23.2694 4.12893 -0.985864 0
M  V30 225 C 21.1764 4.99369 -3.16835 0
M  V30 226 H 20.1064 0.706885 -0.262353 0
M  V30 227 H 22.7574 1.35586 -1.23648 0
M  V30 228 H 21.1394 3.91044 -0.624571 0
M  V30 229 H 22.3134 3.13564 -3.3766 0
M  V30 230 H 20.6284 2.94739 -2.9414 0
M  V30 231 H 23.2254 5.18813 -1.29374 0
M  V30 232 H 23.5684 4.16228 0.0775055 0
M  V30 233 H 24.1014 3.66494 -1.54684 0
M  V30 234 H 20.8404 5.01193 -4.22476 0
M  V30 235 H 20.3604 5.42317 -2.56228 0
M  V30 236 H 22.0394 5.67988 -3.09837 0
M  V30 237 N 22.1715 0.800033 1.35784 0
M  V30 238 C 23.3995 0.389606 2.03199 0
M  V30 239 C 23.8145 -0.997375 1.60306 0
M  V30 240 O 23.1715 -1.64154 0.797481 0
M  V30 241 C 23.2225 0.455855 3.58614 0
M  V30 242 O 22.9435 1.78815 3.99946 0
M  V30 243 C 24.4445 0.0374032 4.43284 0
M  V30 244 H 21.6645 0.159132 0.651857 0
M  V30 245 H 24.2085 1.08183 1.73541 0
M  V30 246 H 22.3635 -0.188057 3.86943 0
M  V30 247 H 22.7775 1.74636 4.94573 0
M  V30 248 H 24.2515 0.134882 5.51835 0
M  V30 249 H 24.7285 -1.01651 4.27275 0
M  V30 250 H 25.3345 0.654215 4.20238 0
M  V30 251 N 23.6496 -1.47581 0.552962 0
M  V30 252 C 24.6126 -2.28439 -0.186605 0
M  V30 253 C 25.6126 -1.36706 -0.84665 0
M  V30 254 O 26.8026 -1.59378 -0.703164 0
M  V30 255 C 23.9346 -3.16264 -1.2724 0
M  V30 256 H 25.1276 -2.95294 0.523609 0
M  V30 257 H 22.6806 -1.532 0.309745 0
M  V30 258 H 23.4156 -2.54091 -2.01514 0
M  V30 259 H 23.2006 -3.83769 -0.803968 0
M  V30 260 H 24.6906 -3.77198 -1.79196 0
M  V30 261 N 25.1277 -0.289203 -1.54924 0
M  V30 262 C 26.3737 0.323998 -2.00195 0
M  V30 263 C 26.7067 1.54441 -1.17735 0
M  V30 264 O 25.9817 1.92875 -0.250878 0
M  V30 265 C 26.2647 0.692276 -3.53383 0
M  V30 266 C 26.1177 -0.536457 -4.46589 0
M  V30 267 C 27.4367 1.52335 -4.12895 0
M  V30 268 H 24.5557 0.116289 -0.727768 0
M  V30 269 H 27.1977 -0.398954 -1.85764 0
M  V30 270 H 25.3477 1.30822 -3.65811 0
M  V30 271 H 27.0197 -1.17499 -4.46085 0
M  V30 272 H 25.2627 -1.17192 -4.1767 0
M  V30 273 H 25.9337 -0.234806 -5.515 0
M  V30 274 H 28.4097 1.00302 -4.0383 0
M  V30 275 H 27.2857 1.74982 -5.20262 0
M  V30 276 H 27.5467 2.50886 -3.64018 0
M  V30 277 N 26.6058 1.57591 -0.0167156 0
M  V30 278 C 27.5358 2.12496 0.967858 0
M  V30 279 C 28.5168 1.03807 1.34752 0
M  V30 280 O 29.7018 1.31577 1.42833 0
M  V30 281 C 26.8318 2.64194 2.25431 0
M  V30 282 C 25.7858 3.77559 2.01576 0
M  V30 283 C 25.1118 4.15636 3.36379 0
M  V30 284 C 26.4118 5.04151 1.36489 0
M  V30 285 H 28.1058 2.95013 0.510643 0
M  V30 286 H 25.6518 1.41915 0.244181 0
M  V30 287 H 27.6048 3.01236 2.94678 0
M  V30 288 H 26.3288 1.78821 2.73296 0
M  V30 289 H 24.9878 3.40937 1.34751 0
M  V30 290 H 24.6358 3.27263 3.81979 0
M  V30 291 H 24.3358 4.92022 3.21229 0
M  V30 292 H 25.8598 4.5525 4.06915 0
M  V30 293 H 27.2738 5.38857 1.95718 0
M  V30 294 H 25.6708 5.85453 1.31776 0
M  V30 295 H 26.7408 4.83733 0.336219 0
M  V30 296 N 28.0839 -0.256276 1.55502 0
M  V30 297 C 29.3319 -0.983672 1.76545 0
M  V30 298 C 29.6529 -1.86206 0.578982 0
M  V30 299 O 28.9229 -1.91656 -0.405577 0
M  V30 300 H 27.5029 -0.366191 0.651086 0
M  V30 301 H 30.1649 -0.276479 1.92929 0
M  V30 302 H 29.2609 -1.61087 2.67315 0
M  V30 303 N 29.562 -1.4872 -0.521534 0
M  V30 304 C 30.787 -1.61101 -1.30618 0
M  V30 305 C 31.212 -0.274611 -1.86085 0
M  V30 306 O 30.57 0.754937 -1.64834 0
M  V30 307 C 30.618 -2.66709 -2.4269 0
M  V30 308 O 29.722 -2.24456 -3.45967 0
M  V30 309 H 29.063 -0.539921 -0.386499 0
M  V30 310 H 31.593 -1.94767 -0.626645 0
M  V30 311 H 31.603 -2.88245 -2.88754 0
M  V30 312 H 30.278 -3.63727 -2.01682 0
M  V30 313 H 28.855 -2.13168 -3.05964 0
M  V30 314 N 31.0401 0.771051 -1.3745 0
M  V30 315 C 32.2871 1.52963 -1.32697 0
M  V30 316 C 32.6151 1.94299 0.0883274 0
M  V30 317 O 31.8701 1.64397 1.0617 0
M  V30 318 C 32.1691 2.80676 -2.2126 0
M  V30 319 C 31.8351 2.58389 -3.69521 0
M  V30 320 C 30.4971 2.52019 -4.09927 0
M  V30 321 C 32.8491 2.38469 -4.63446 0
M  V30 322 C 30.1771 2.23721 -5.42371 0
M  V30 323 C 32.5291 2.11694 -5.96128 0
M  V30 324 C 31.1931 2.03769 -6.35637 0
M  V30 325 H 30.4631 0.559732 -0.485573 0
M  V30 326 H 33.1101 0.888083 -1.69662 0
M  V30 327 H 31.4151 3.49392 -1.77291 0
M  V30 328 H 33.1121 3.38557 -2.14895 0
M  V30 329 H 29.7021 2.6421 -3.37478 0
M  V30 330 H 33.8861 2.4238 -4.33089 0
M  V30 331 H 29.1421 2.16081 -5.71943 0
M  V30 332 H 33.3161 1.9528 -6.6846 0
M  V30 333 H 30.9431 1.81606 -7.38189 0
M  V30 334 N 32.5182 1.22032 0.997298 0
M  V30 335 C 33.4502 0.944263 2.08845 0
M  V30 336 C 34.4632 -0.0754663 1.62625 0
M  V30 337 O 35.6522 0.157994 1.77799 0
M  V30 338 C 32.7522 0.397723 3.36558 0
M  V30 339 C 31.9252 1.47362 4.11829 0
M  V30 340 C 30.9842 0.934951 5.17827 0
M  V30 341 O 30.0102 1.62016 5.45655 0
M  V30 342 N 31.2122 -0.245895 5.79979 0
M  V30 343 H 33.9772 1.88363 2.33109 0
M  V30 344 H 31.5382 1.12661 1.16272 0
M  V30 345 H 33.5302 0.0227771 4.04694 0
M  V30 346 H 32.1002 -0.446646 3.09393 0
M  V30 347 H 31.3202 2.02208 3.38386 0
M  V30 348 H 32.6082 2.19764 4.58891 0
M  V30 349 H 32.0062 -0.819475 5.59733 0
M  V30 350 H 30.5632 -0.562272 6.4937 0
M  V30 351 N 33.9963 -1.19345 1.0293 0
M  V30 352 C 35.2433 -1.89038 0.726008 0
M  V30 353 C 35.5713 -1.79649 -0.745427 0
M  V30 354 O 34.8263 -1.18354 -1.55855 0
M  V30 355 C 35.1253 -3.39292 1.12319 0
M  V30 356 C 34.7913 -3.68885 2.59297 0
M  V30 357 C 33.4533 -3.76671 2.99453 0
M  V30 358 C 35.8053 -3.82178 3.54386 0
M  V30 359 C 33.1333 -3.9522 4.33611 0
M  V30 360 C 35.4853 -4.0224 4.88248 0
M  V30 361 C 34.1493 -4.08259 5.28092 0
M  V30 362 H 33.4193 -0.691739 0.265665 0
M  V30 363 H 36.0663 -1.41328 1.29223 0
M  V30 364 H 34.3713 -3.88903 0.475584 0
M  V30 365 H 36.0683 -3.91536 0.866037 0
M  V30 366 H 32.6583 -3.63433 2.27189 0
M  V30 367 H 36.8423 -3.75505 3.24514 0
M  V30 368 H 32.0983 -3.98119 4.64016 0
M  V30 369 H 36.2723 -4.11468 5.61843 0
M  V30 370 H 33.8993 -4.22384 6.32057 0
M  V30 371 N 35.4744 -0.807222 -1.35358 0
M  V30 372 C 36.7224 -0.387122 -1.98358 0
M  V30 373 C 37.0434 1.04942 -1.64354 0
M  V30 374 O 36.3134 1.72615 -0.926339 0
M  V30 375 H 34.8934 -0.140154 -0.733734 0
M  V30 376 H 37.5554 -1.0332 -1.6526 0
M  V30 377 H 36.6514 -0.493352 -3.08176 0
M  V30 378 N 36.9525 1.47285 -0.560781 0
M  V30 379 C 38.1825 2.06555 -0.0429638 0
M  V30 380 C 38.5905 1.41339 1.25777 0
M  V30 381 O 37.9335 0.505182 1.76617 0
M  V30 382 C 37.9955 3.58827 0.219887 0
M  V30 383 C 37.6595 4.46105 -0.991944 0
M  V30 384 C 38.6565 4.84 -1.89843 0
M  V30 385 C 36.3415 4.87567 -1.20762 0
M  V30 386 C 38.3355 5.6216 -3.00425 0
M  V30 387 C 36.0225 5.65491 -2.31653 0
M  V30 388 C 37.0205 6.02699 -3.21315 0
M  V30 389 O 36.7085 6.79052 -4.30283 0
M  V30 390 H 36.4405 0.674537 -0.0444468 0
M  V30 391 H 38.9945 1.90225 -0.774818 0
M  V30 392 H 37.2245 3.73383 1.00609 0
M  V30 393 H 38.9135 4.00103 0.683522 0
M  V30 394 H 39.6795 4.52564 -1.74387 0
M  V30 395 H 35.5585 4.5807 -0.518893 0
M  V30 396 H 39.1025 5.9112 -3.70436 0
M  V30 397 H 34.9995 5.9634 -2.47081 0
M  V30 398 H 35.7675 6.9745 -4.28376 0
M  V30 399 N 38.4306 0.297415 1.54768 0
M  V30 400 C 39.7076 -0.365847 1.92148 0
M  V30 401 C 40.0876 -1.71975 1.22424 0
M  V30 402 O 39.4356 -2.25666 0.358739 0
M  V30 403 C 39.6456 -0.484056 3.45627 0
M  V30 404 C 40.9936 -0.756594 4.17805 0
M  V30 405 O 42.0176 -0.568007 3.51642 0
M  V30 406 O 40.8766 -1.11863 5.34929 0
M  V30 407 H 37.9706 -0.203919 0.801465 0
M  V30 408 H 40.5166 0.34521 1.66152 0
M  V30 409 H 39.2886 0.467865 3.88493 0
M  V30 410 H 38.9116 -1.24372 3.77647 0
M  V30 411 N 39.9087 -1.5758 0.0250728 0
M  V30 412 C 41.1577 -1.90811 -0.653767 0
M  V30 413 C 41.4707 -0.90273 -1.73523 0
M  V30 414 O 42.6767 -1.12614 -2.47043 0
M  V30 415 C 41.1327 -3.38804 -1.21409 0
M  V30 416 C 40.7407 -4.47692 -0.166126 0
M  V30 417 C 42.4847 -3.81108 -1.86967 0
M  V30 418 C 40.3917 -5.86779 -0.737856 0
M  V30 419 H 39.3217 -0.712063 -0.247956 0
M  V30 420 H 41.9727 -1.83281 0.0897137 0
M  V30 421 H 40.3547 -3.41252 -2.00905 0
M  V30 422 H 41.5287 -4.56797 0.606079 0
M  V30 423 H 39.8437 -4.14565 0.390466 0
M  V30 424 H 42.4407 -4.82375 -2.30692 0
M  V30 425 H 42.7837 -3.15953 -2.71071 0
M  V30 426 H 43.3167 -3.81065 -1.14167 0
M  V30 427 H 40.0557 -6.55468 0.0649577 0
M  V30 428 H 39.5757 -5.81288 -1.47864 0
M  V30 429 H 41.2547 -6.35223 -1.22884 0
M  V30 430 N 41.3868 0.248026 -1.55636 0
M  V30 431 C 42.6348 0.974295 -1.77065 0
M  V30 432 C 42.9558 1.85897 -0.588849 0
M  V30 433 O 42.2258 1.91868 0.395407 0
M  V30 434 H 40.8058 0.362733 -0.653019 0
M  V30 435 H 43.4678 0.266244 -1.93073 0
M  V30 436 H 42.5638 1.59667 -2.68166 0
M  V30 437 N 42.8649 1.48995 0.513639 0
M  V30 438 C 44.1109 1.58076 1.27042 0
M  V30 439 C 44.4439 0.261026 1.92438 0
M  V30 440 O 43.7189 -0.734393 1.80103 0
M  V30 441 C 44.0019 2.73091 2.34719 0
M  V30 442 C 43.8549 4.14821 1.73907 0
M  V30 443 C 45.1739 2.83796 3.36375 0
M  V30 444 H 42.2929 0.575391 0.460536 0
M  V30 445 H 44.9349 1.81232 0.570516 0
M  V30 446 H 43.0849 2.53479 2.94416 0
M  V30 447 H 44.7569 4.45917 1.18135 0
M  V30 448 H 42.9999 4.21058 1.0437 0
M  V30 449 H 43.6709 4.91147 2.51949 0
M  V30 450 H 46.1469 3.01611 2.86653 0
M  V30 451 H 45.0229 3.65971 4.09093 0
M  V30 452 H 45.2839 1.92624 3.9793 0
M  V30 453 N 44.343 -0.763751 1.37857 0
M  V30 454 C 45.592 -1.51789 1.32827 0
M  V30 455 C 45.905 -1.95426 -0.0823719 0
M  V30 456 O 47.111 -2.70298 -0.255172 0
M  V30 457 C 45.567 -2.74133 2.33193 0
M  V30 458 C 45.175 -2.37562 3.79827 0
M  V30 459 C 46.919 -3.52054 2.37188 0
M  V30 460 C 44.826 -3.56456 4.71904 0
M  V30 461 H 43.756 -0.569896 0.493695 0
M  V30 462 H 46.407 -0.835822 1.63359 0
M  V30 463 H 44.789 -3.4427 1.9569 0
M  V30 464 H 45.963 -1.75157 4.26212 0
M  V30 465 H 44.278 -1.72798 3.78853 0
M  V30 466 H 46.875 -4.40437 3.03182 0
M  V30 467 H 47.218 -3.92486 1.38782 0
M  V30 468 H 47.751 -2.88921 2.7344 0
M  V30 469 H 44.49 -3.21099 5.71468 0
M  V30 470 H 44.01 -4.17938 4.30218 0
M  V30 471 H 45.689 -4.23168 4.89426 0
M  V30 472 N 45.8211 -1.22559 -0.990812 0
M  V30 473 C 46.7691 -0.994798 -2.10253 0
M  V30 474 C 47.7631 0.0627798 -1.69284 0
M  V30 475 O 48.9691 -0.0898392 -1.79776 0
M  V30 476 H 45.3441 -0.304527 -0.687581 0
M  V30 477 H 47.3151 -1.93812 -2.26891 0
M  V30 478 C 46.0641 -0.591439 -3.42633 0
M  V30 479 H 45.3871 -1.3969 -3.74602 0
M  V30 480 H 46.8271 -0.469385 -4.21394 0
M  V30 481 C 45.2861 0.699232 -3.29564 0
M  V30 482 O 45.8161 1.75112 -3.61523 0
M  V30 483 N 44.0221 0.671182 -2.82743 0
M  V30 484 H 43.5691 -0.185136 -2.56934 0
M  V30 485 H 43.5271 1.53502 -2.7438 0
M  V30 486 N 47.2992 1.18797 -1.03562 0
M  V30 487 C 48.2622 2.20464 -0.626769 0
M  V30 488 C 49.2622 1.57721 0.313173 0
M  V30 489 O 50.4522 1.73917 0.0992615 0
M  V30 490 C 47.5842 3.40802 0.0818498 0
M  V30 491 H 48.7772 2.58149 -1.5264 0
M  V30 492 H 46.3302 1.32593 -0.827578 0
M  V30 493 H 47.0652 3.08642 0.995518 0
M  V30 494 H 46.8502 3.8758 -0.593652 0
M  V30 495 H 48.3402 4.16092 0.354584 0
M  V30 496 N 48.7773 0.814389 1.34928 0
M  V30 497 C 50.1883 0.458364 1.80986 0
M  V30 498 C 50.5393 -1.02042 1.67577 0
M  V30 499 O 49.6643 -1.79352 1.21086 0
M  V30 500 C 50.2593 0.825212 3.28597 0
M  V30 501 C 48.8183 0.521677 3.72767 0
M  V30 502 C 47.9653 1.04668 2.56788 0
M  V30 503 H 50.9163 1.00533 1.22795 0
M  V30 504 H 50.9373 0.12571 3.80292 0
M  V30 505 H 50.4493 1.90154 3.38324 0
M  V30 506 H 48.5503 -0.545589 3.68584 0
M  V30 507 H 48.6633 1.05977 4.67232 0
M  V30 508 H 47.0273 0.468622 2.50352 0
M  V30 509 H 47.8103 2.12927 2.6929 0
M  V30 510 N 50.2554 -1.46986 0.568584 0
M  V30 511 C 51.1874 -2.28233 -0.210337 0
M  V30 512 C 52.2004 -1.37682 -0.868767 0
M  V30 513 O 53.3894 -1.62406 -0.740705 0
M  V30 514 C 50.4894 -3.12293 -1.3163 0
M  V30 515 C 49.6624 -4.30878 -0.7525 0
M  V30 516 C 48.7214 -4.96445 -1.74439 0
M  V30 517 O 47.7474 -5.54482 -1.286 0
M  V30 518 N 48.9494 -4.92171 -3.07812 0
M  V30 519 H 51.7144 -2.95723 0.486648 0
M  V30 520 H 49.2754 -1.56742 0.405409 0
M  V30 521 H 51.2674 -3.53022 -1.97883 0
M  V30 522 H 49.8374 -2.46971 -1.91636 0
M  V30 523 H 49.0574 -3.94104 0.0871128 0
M  V30 524 H 50.3454 -5.07558 -0.35536 0
M  V30 525 H 49.7434 -4.46239 -3.47688 0
M  V30 526 H 48.3004 -5.36884 -3.69592 0
M  V30 527 N 51.7335 -0.305618 -1.54608 0
M  V30 528 C 52.6655 0.602161 -2.21149 0
M  V30 529 C 53.6785 1.09394 -1.20569 0
M  V30 530 O 54.8675 1.0106 -1.47136 0
M  V30 531 C 51.9675 1.83692 -2.84799 0
M  V30 532 C 51.1405 1.48686 -4.11353 0
M  V30 533 C 50.1995 2.57725 -4.58764 0
M  V30 534 O 49.2255 2.22623 -5.23858 0
M  V30 535 N 50.4275 3.88346 -4.31471 0
M  V30 536 H 53.1925 0.0324966 -2.99682 0
M  V30 537 H 50.7535 -0.128021 -1.61393 0
M  V30 538 H 52.7455 2.55994 -3.13448 0
M  V30 539 H 51.3155 2.31486 -2.10078 0
M  V30 540 H 50.5355 0.596269 -3.89664 0
M  V30 541 H 51.8235 1.22842 -4.93748 0
M  V30 542 H 51.2215 4.19671 -3.79331 0
M  V30 543 H 49.7785 4.56932 -4.64818 0
M  V30 544 N 53.2116 1.57565 -0.0334293 0
M  V30 545 C 54.4576 1.92262 0.645226 0
M  V30 546 C 54.7906 0.910543 1.71531 0
M  V30 547 O 54.0656 -0.066099 1.94388 0
M  V30 548 C 54.3486 3.37422 1.2577 0
M  V30 549 C 54.2016 4.49369 0.196891 0
M  V30 550 C 55.5206 3.82628 2.17449 0
M  V30 551 H 52.6396 0.699171 0.233085 0
M  V30 552 H 55.2816 1.89779 -0.0915694 0
M  V30 553 H 53.4316 3.39669 1.88566 0
M  V30 554 H 55.1036 4.59254 -0.433962 0
M  V30 555 H 53.3466 4.31168 -0.477137 0
M  V30 556 H 54.0176 5.47978 0.665124 0
M  V30 557 H 56.4936 3.82145 1.64634 0
M  V30 558 H 55.3696 4.84883 2.57254 0
M  V30 559 H 55.6306 3.18376 3.0674 0
M  V30 560 N 54.6897 -0.239769 1.55765 0
M  V30 561 C 55.9387 -0.964754 1.77131 0
M  V30 562 C 56.2517 -1.86213 0.59868 0
M  V30 563 O 57.4577 -2.6244 0.695522 0
M  V30 564 C 55.9137 -1.76552 3.1362 0
M  V30 565 C 55.5217 -0.915185 4.38553 0
M  V30 566 C 57.2657 -2.48281 3.44321 0
M  V30 567 C 55.1727 -1.71225 5.66071 0
M  V30 568 H 54.1027 -0.363953 0.660344 0
M  V30 569 H 56.7537 -0.219181 1.82186 0
M  V30 570 H 55.1357 -2.55331 3.02691 0
M  V30 571 H 56.3097 -0.169217 4.60489 0
M  V30 572 H 54.6247 -0.310889 4.15238 0
M  V30 573 H 57.2217 -3.08382 4.36812 0
M  V30 574 H 57.5647 -3.20256 2.65973 0
M  V30 575 H 58.0977 -1.76507 3.56497 0
M  V30 576 H 54.8367 -1.03612 6.4726 0
M  V30 577 H 54.3567 -2.43331 5.48224 0
M  V30 578 H 56.0357 -2.27758 6.05587 0
M  V30 579 N 56.1678 -1.49265 -0.50573 0
M  V30 580 C 57.4168 -1.57761 -1.25675 0
M  V30 581 C 57.7298 -0.267371 -1.93764 0
M  V30 582 O 58.9358 -0.230827 -2.70517 0
M  V30 583 C 57.3918 -2.78332 -2.28165 0
M  V30 584 C 56.9998 -4.16096 -1.66037 0
M  V30 585 C 58.7438 -2.96155 -3.04125 0
M  V30 586 C 56.6508 -5.27895 -2.6661 0
M  V30 587 H 55.5808 -0.587391 -0.472745 0
M  V30 588 H 58.2318 -1.75644 -0.53118 0
M  V30 589 H 56.6138 -2.53934 -3.03865 0
M  V30 590 H 57.7878 -4.50612 -0.963622 0
M  V30 591 H 56.1028 -4.03591 -1.02484 0
M  V30 592 H 58.6998 -3.76849 -3.79327 0
M  V30 593 H 59.0428 -2.06534 -3.61455 0
M  V30 594 H 59.5758 -3.2057 -2.35541 0
M  V30 595 H 56.3148 -6.1956 -2.14068 0
M  V30 596 H 55.8348 -4.97839 -3.34539 0
M  V30 597 H 57.5138 -5.57031 -3.29129 0
M  V30 598 N 57.6459 0.756429 -1.3826 0
M  V30 599 C 58.8709 1.55077 -1.37717 0
M  V30 600 C 59.2959 1.88073 0.03164 0
M  V30 601 O 58.6539 1.50364 1.01293 0
M  V30 602 C 58.7019 2.8283 -2.23695 0
M  V30 603 O 57.8059 3.77862 -1.6521 0
M  V30 604 H 57.1469 0.469152 -0.469885 0
M  V30 605 H 59.6769 0.935019 -1.81985 0
M  V30 606 H 59.6869 3.31783 -2.37453 0
M  V30 607 H 58.3619 2.58144 -3.2609 0
M  V30 608 H 56.9389 3.36555 -1.60578 0
M  V30 609 N 59.124 1.23083 0.984299 0
M  V30 610 C 60.074 0.975749 2.06066 0
M  V30 611 C 61.058 -0.0768251 1.60716 0
M  V30 612 O 62.25 0.134805 1.76486 0
M  V30 613 C 59.379 0.564673 3.38624 0
M  V30 614 C 58.465 1.65244 3.90583 0
M  V30 615 N 58.856 2.88193 4.15666 0
M  V30 616 C 57.154 1.52612 4.19077 0
M  V30 617 C 57.855 3.58593 4.58024 0
M  V30 618 N 56.831 2.86093 4.62225 0
M  V30 619 H 60.633 1.90957 2.23411 0
M  V30 620 H 58.147 1.12963 1.16675 0
M  V30 621 H 60.144 0.36322 4.15315 0
M  V30 622 H 58.804 -0.362147 3.22674 0
M  V30 623 H 59.815 3.24537 4.03604 0
M  V30 624 H 56.492 0.666121 4.12152 0
M  V30 625 H 57.882 4.63974 4.85982 0
M  V30 626 N 60.6021 -1.18246 1.0419 0
M  V30 627 C 61.8321 -1.91916 0.764961 0
M  V30 628 C 62.2401 -1.76485 -0.681898 0
M  V30 629 O 61.5831 -1.09275 -1.47664 0
M  V30 630 C 61.6451 -3.4373 1.05309 0
M  V30 631 C 61.3091 -3.8294 2.4941 0
M  V30 632 C 62.3061 -3.86621 3.47592 0
M  V30 633 C 59.9911 -4.142 2.84155 0
M  V30 634 C 61.9851 -4.21013 4.78568 0
M  V30 635 C 59.6721 -4.48262 4.15337 0
M  V30 636 C 60.6701 -4.51645 5.12353 0
M  V30 637 O 60.3581 -4.84911 6.41183 0
M  V30 638 H 60.0901 -0.61606 0.278292 0
M  V30 639 H 62.6441 -1.50947 1.39299 0
M  V30 640 H 60.8741 -3.84946 0.367933 0
M  V30 641 H 62.5631 -3.9865 0.763752 0
M  V30 642 H 63.3291 -3.62607 3.22089 0
M  V30 643 H 59.2081 -4.10743 2.09311 0
M  V30 644 H 62.7521 -4.23568 5.54289 0
M  V30 645 H 58.6491 -4.71737 4.40607 0
M  V30 646 H 59.4171 -5.02809 6.45852 0
M  V30 647 N 62.0802 -0.821533 -1.34494 0
M  V30 648 C 63.4962 -0.507117 -1.51329 0
M  V30 649 C 63.6962 0.968964 -1.76673 0
M  V30 650 O 62.7522 1.75348 -1.81685 0
M  V30 651 C 64.0652 -1.36544 -2.67911 0
M  V30 652 C 65.6132 -1.36242 -2.81793 0
M  V30 653 C 66.0882 -2.2052 -4.01416 0
M  V30 654 N 67.5792 -2.18136 -4.08621 0
M  V30 655 C 68.3142 -2.80095 -5.00334 0
M  V30 656 N 67.8102 -3.51039 -5.9728 0
M  V30 657 N 69.6032 -2.69656 -4.93196 0
M  V30 658 H 61.7542 -1.77729 -1.16302 0
M  V30 659 H 64.0172 -0.757291 -0.570276 0
M  V30 660 H 63.7232 -2.41361 -2.55808 0
M  V30 661 H 63.5972 -1.02917 -3.62888 0
M  V30 662 H 65.9842 -0.322041 -2.93338 0
M  V30 663 H 66.0652 -1.73866 -1.87628 0
M  V30 664 H 65.7092 -3.24607 -3.90631 0
M  V30 665 H 65.6392 -1.80247 -4.94791 0
M  V30 666 H 68.1302 -1.6653 -3.39229 0
M  V30 667 H 68.4432 -3.95565 -6.63889 0
M  V30 668 H 66.7882 -3.55145 -5.97409 0
M  V30 669 H 69.9792 -2.13808 -4.16418 0
M  V30 670 H 70.1522 -3.1823 -5.64476 0
M  V30 671 N 63.5583 1.46682 -0.576371 0
M  V30 672 C 64.5083 2.27278 0.181288 0
M  V30 673 C 65.4923 1.35497 0.867721 0
M  V30 674 O 66.6843 1.59717 0.762863 0
M  V30 675 C 63.8133 3.21703 1.19841 0
M  V30 676 C 62.8993 4.20969 0.51442 0
M  V30 677 N 63.2903 5.03999 -0.426407 0
M  V30 678 C 61.5883 4.39373 0.765963 0
M  V30 679 C 62.2893 5.75812 -0.825565 0
M  V30 680 N 61.2653 5.43315 -0.176116 0
M  V30 681 H 65.0673 2.88863 -0.541785 0
M  V30 682 H 62.5813 1.57455 -0.397697 0
M  V30 683 H 64.5783 3.78145 1.75533 0
M  V30 684 H 63.2383 2.61677 1.92238 0
M  V30 685 H 64.2493 5.11659 -0.8016 0
M  V30 686 H 60.9263 3.90502 1.47698 0
M  V30 687 H 62.3163 6.52577 -1.59976 0
M  V30 688 N 65.0364 0.313813 1.54444 0
M  V30 689 C 66.2824 -0.292108 2.00685 0
M  V30 690 C 66.6154 -1.52548 1.20177 0
M  V30 691 O 65.8904 -1.92452 0.281531 0
M  V30 692 C 66.1734 -0.635968 3.5444 0
M  V30 693 C 66.0264 0.607437 4.4568 0
M  V30 694 C 67.3454 -1.45747 4.15266 0
M  V30 695 H 64.4644 -0.104697 0.729526 0
M  V30 696 H 67.1064 0.428457 1.85106 0
M  V30 697 H 65.2564 -1.24986 3.67846 0
M  V30 698 H 66.9284 1.24581 4.44159 0
M  V30 699 H 65.1714 1.23822 4.15753 0
M  V30 700 H 65.8424 0.322515 5.51057 0
M  V30 701 H 68.3184 -0.938645 4.05375 0
M  V30 702 H 67.1944 -1.66683 5.2298 0
M  V30 703 H 67.4554 -2.45063 3.67963 0
M  V30 704 N 66.5145 -1.57545 0.0417849 0
M  V30 705 C 67.4445 -2.14009 -0.933929 0
M  V30 706 C 68.4255 -1.05938 -1.33083 0
M  V30 707 O 69.6105 -1.33833 -1.40721 0
M  V30 708 C 66.7405 -2.67747 -2.21199 0
M  V30 709 C 65.6945 -3.80718 -1.95544 0
M  V30 710 C 65.0205 -4.20935 -3.29724 0
M  V30 711 C 66.3205 -5.06258 -1.28452 0
M  V30 712 H 68.0145 -2.95788 -0.463645 0
M  V30 713 H 65.5605 -1.42285 -0.221573 0
M  V30 714 H 67.5135 -3.05886 -2.89848 0
M  V30 715 H 66.2375 -1.83147 -2.70416 0
M  V30 716 H 64.8965 -3.43037 -1.2931 0
M  V30 717 H 64.5445 -3.33298 -3.76724 0
M  V30 718 H 64.2445 -4.9707 -3.13361 0
M  V30 719 H 65.7685 -4.61666 -3.9962 0
M  V30 720 H 67.1825 -5.41903 -1.8712 0
M  V30 721 H 65.5795 -5.87475 -1.22445 0
M  V30 722 H 66.6495 -4.84207 -0.259219 0
M  V30 723 N 67.9926 0.231505 -1.5589 0
M  V30 724 C 69.2406 0.955461 -1.78088 0
M  V30 725 C 69.5616 1.85262 -0.608533 0
M  V30 726 O 68.8316 1.92277 0.375035 0
M  V30 727 H 67.4116 0.355787 -0.656829 0
M  V30 728 H 70.0736 0.245751 -1.93344 0
M  V30 729 H 69.1696 1.56814 -2.69844 0
M  V30 730 N 69.4707 1.49531 0.497807 0
M  V30 731 C 70.7167 1.59415 1.25358 0
M  V30 732 C 71.0497 0.281422 1.9215 0
M  V30 733 O 70.3247 -0.715249 1.80871 0
M  V30 734 C 70.6077 2.75566 2.3181 0
M  V30 735 C 70.4607 4.16642 1.69498 0
M  V30 736 C 71.7797 2.87347 3.33346 0
M  V30 737 H 68.8987 0.580244 0.454408 0
M  V30 738 H 71.5407 1.81827 0.551262 0
M  V30 739 H 69.6907 2.56587 2.91711 0
M  V30 740 H 71.3627 4.47145 1.13399 0
M  V30 741 H 69.6057 4.22141 0.998978 0
M  V30 742 H 70.2767 4.93792 2.46725 0
M  V30 743 H 72.7527 3.04634 2.83438 0
M  V30 744 H 71.6287 3.70289 4.05188 0
M  V30 745 H 71.8897 1.96834 3.95865 0
M  V30 746 N 70.9488 -0.749086 1.3866 0
M  V30 747 C 72.3598 -1.32664 1.31366 0
M  V30 748 C 72.7108 -1.96179 -0.028484 0
M  V30 749 O 71.8358 -1.9537 -0.93057 0
M  V30 750 C 72.4308 -2.41219 2.37905 0
M  V30 751 C 70.9898 -2.94684 2.34176 0
M  V30 752 C 70.1368 -1.68108 2.20533 0
M  V30 753 H 73.0878 -0.547628 1.48952 0
M  V30 754 H 73.1088 -3.21268 2.0388 0
M  V30 755 H 72.6208 -1.94962 3.35576 0
M  V30 756 H 70.7218 -3.45258 1.401 0
M  V30 757 H 70.8348 -3.48757 3.2849 0
M  V30 758 H 69.1988 -1.91907 1.67463 0
M  V30 759 H 69.9818 -1.23923 3.20153 0
M  V30 760 N 72.4269 -1.23603 -0.977757 0
M  V30 761 C 73.3569 -1.04401 -2.0886 0
M  V30 762 C 74.3379 0.0399052 -1.70053 0
M  V30 763 O 75.5229 -0.125246 -1.93796 0
M  V30 764 C 72.6529 -0.637269 -3.41403 0
M  V30 765 C 71.6069 -1.66883 -3.94124 0
M  V30 766 C 70.9329 -1.11745 -5.22893 0
M  V30 767 C 72.2329 -3.06247 -4.23096 0
M  V30 768 H 73.9269 -1.97316 -2.25182 0
M  V30 769 H 71.4729 -0.950096 -1.08209 0
M  V30 770 H 73.4259 -0.48998 -4.18542 0
M  V30 771 H 72.1499 0.327557 -3.24953 0
M  V30 772 H 70.8089 -1.80416 -3.19133 0
M  V30 773 H 70.4569 -0.143527 -5.02795 0
M  V30 774 H 70.1569 -1.80672 -5.59134 0
M  V30 775 H 71.6809 -0.982067 -6.02651 0
M  V30 776 H 73.0949 -2.96001 -4.90975 0
M  V30 777 H 71.4919 -3.72436 -4.70544 0
M  V30 778 H 72.5619 -3.55041 -3.30263 0
M  V30 779 N 73.905 1.17692 -1.04816 0
M  V30 780 C 75.182 1.83768 -0.669963 0
M  V30 781 C 75.562 1.93232 0.849986 0
M  V30 782 O 74.91 1.46397 1.75443 0
M  V30 783 C 75.12 3.21641 -1.35455 0
M  V30 784 C 76.468 3.97592 -1.49017 0
M  V30 785 O 77.492 3.31107 -1.31326 0
M  V30 786 O 76.351 5.16729 -1.77914 0
M  V30 787 H 73.445 0.792799 -0.235368 0
M  V30 788 H 75.991 1.25021 -1.14751 0
M  V30 789 H 74.763 3.097 -2.39168 0
M  V30 790 H 74.386 3.88052 -0.866107 0
M  V30 791 N 75.3831 0.828654 1.34056 0
M  V30 792 C 76.6601 0.341809 1.9259 0
M  V30 793 C 77.0401 -1.17158 1.75605 0
M  V30 794 O 76.3881 -1.98132 1.13824 0
M  V30 795 C 76.5981 0.777453 3.4023 0
M  V30 796 C 77.9461 0.779579 4.17382 0
M  V30 797 O 78.9701 0.7204 3.48839 0
M  V30 798 O 77.8291 0.857996 5.39723 0
M  V30 799 H 74.9231 0.0946085 0.821571 0
M  V30 800 H 77.4691 0.913827 1.42994 0
M  V30 801 H 76.2411 1.8196 3.46419 0
M  V30 802 H 75.8641 0.181444 3.97186 0
M  V30 803 N 76.8612 -1.46375 0.584142 0
M  V30 804 C 78.2772 -1.57694 0.245929 0
M  V30 805 C 78.4772 -1.57903 -1.25175 0
M  V30 806 O 77.5332 -1.49676 -2.03355 0
M  V30 807 C 78.8462 -2.87028 0.896402 0
M  V30 808 C 80.3942 -3.00662 0.870127 0
M  V30 809 C 80.8692 -4.32734 1.50017 0
M  V30 810 N 82.3602 -4.39436 1.46458 0
M  V30 811 C 83.0952 -5.40248 1.92144 0
M  V30 812 N 82.5912 -6.47726 2.4581 0
M  V30 813 N 84.3842 -5.31459 1.83052 0
M  V30 814 H 76.5352 -1.44483 1.55687 0
M  V30 815 H 78.7982 -0.689291 0.650831 0
M  V30 816 H 78.5042 -2.9269 1.95002 0
M  V30 817 H 78.3782 -3.75014 0.405486 0
M  V30 818 H 80.7652 -2.94581 -0.174871 0
M  V30 819 H 80.8462 -2.14148 1.39908 0
M  V30 820 H 80.4902 -4.39573 2.54437 0
M  V30 821 H 80.4202 -5.18025 0.946432 0
M  V30 822 H 82.9112 -3.62367 1.07231 0
M  V30 823 H 83.2242 -7.20863 2.78525 0
M  V30 824 H 81.5692 -6.48542 2.49836 0
M  V30 825 H 84.7602 -4.46396 1.40883 0
M  V30 826 H 84.9332 -6.09881 2.18973 0
M  V30 827 N 78.3393 -0.321999 -1.54275 0
M  V30 828 C 79.2863 0.544664 -2.24281 0
M  V30 829 C 80.2563 1.1129 -1.23303 0
M  V30 830 O 81.4413 1.15354 -1.51981 0
M  V30 831 C 78.5813 1.70045 -3.00298 0
M  V30 832 C 77.6943 1.16159 -4.1609 0
M  V30 833 C 76.8293 2.28293 -4.79641 0
M  V30 834 C 75.8683 1.71648 -5.8754 0
M  V30 835 N 75.0053 2.77438 -6.44959 0
M  V30 836 H 79.8453 -0.0588907 -2.97942 0
M  V30 837 H 77.3823 -0.0408345 -1.47043 0
M  V30 838 H 79.3403 2.38054 -3.42616 0
M  V30 839 H 77.9703 2.27531 -2.28975 0
M  V30 840 H 77.0223 0.373092 -3.78566 0
M  V30 841 H 78.3343 0.707087 -4.93763 0
M  V30 842 H 77.4883 3.0421 -5.2492 0
M  V30 843 H 76.2273 2.77079 -4.01346 0
M  V30 844 H 75.2323 0.942282 -5.41665 0
M  V30 845 H 76.4573 1.23741 -6.67731 0
M  V30 846 H 74.4033 3.25519 -5.69538 0
M  V30 847 H 74.3203 2.36547 -7.1804 0
M  V30 848 H 75.5883 3.53189 -6.94894 0
M  V30 849 N 79.8174 1.5752 -0.0501392 0
M  V30 850 C 80.7804 2.1037 0.909786 0
M  V30 851 C 81.7804 1.02308 1.24056 0
M  V30 852 O 82.9704 1.28385 1.17741 0
M  V30 853 C 80.1024 2.58708 2.21998 0
M  V30 854 H 81.2954 2.96479 0.451665 0
M  V30 855 H 78.8484 1.55038 0.198248 0
M  V30 856 H 79.5834 1.75989 2.72394 0
M  V30 857 H 79.3684 3.37675 1.99295 0
M  V30 858 H 80.8584 2.99747 2.9076 0
M  V30 859 N 81.2955 -0.223234 1.56011 0
M  V30 860 C 82.5445 -0.945912 1.78144 0
M  V30 861 C 82.8575 -1.85567 0.618396 0
M  V30 862 O 84.0635 -2.61688 0.723318 0
M  V30 863 C 82.5195 -1.73216 3.15475 0
M  V30 864 C 82.1275 -0.868619 4.39499 0
M  V30 865 C 83.8715 -2.44615 3.46935 0
M  V30 866 C 81.7785 -1.65212 5.67855 0
M  V30 867 H 80.7085 -0.356929 0.664167 0
M  V30 868 H 83.3595 -0.199845 1.82409 0
M  V30 869 H 81.7415 -2.52107 3.05382 0
M  V30 870 H 82.9155 -0.120366 4.60643 0
M  V30 871 H 81.2305 -0.26683 4.15544 0
M  V30 872 H 83.8275 -3.03732 4.40058 0
M  V30 873 H 84.1705 -3.17417 2.69355 0
M  V30 874 H 84.7035 -1.72715 3.58349 0
M  V30 875 H 81.4425 -0.967407 6.48322 0
M  V30 876 H 80.9625 -2.37503 5.50774 0
M  V30 877 H 82.6415 -2.21322 6.07968 0
M  V30 878 N 82.7736 -1.49793 -0.48987 0
M  V30 879 C 83.7216 -1.67783 -1.61095 0
M  V30 880 C 84.7156 -0.543683 -1.60438 0
M  V30 881 O 85.9216 -0.723647 -1.64813 0
M  V30 882 H 82.2966 -0.529255 -0.534222 0
M  V30 883 H 84.2676 -2.61861 -1.43078 0
M  V30 884 C 83.0166 -1.77191 -2.99164 0
M  V30 885 H 82.3396 -2.63841 -3.0038 0
M  V30 886 H 83.7796 -1.93809 -3.77113 0
M  V30 887 C 82.2386 -0.519203 -3.32875 0
M  V30 888 O 82.7686 0.350124 -4.00171 0
M  V30 889 N 80.9746 -0.378816 -2.8812 0
M  V30 890 H 80.5216 -1.08725 -2.33531 0
M  V30 891 H 80.4796 0.458239 -3.11043 0
M  V30 892 N 84.2517 0.741722 -1.39055 0
M  V30 893 C 85.1997 1.87702 -1.3737 0
M  V30 894 C 86.1937 1.67427 -0.257812 0
M  V30 895 O 87.3997 1.7485 -0.427489 0
M  V30 896 H 83.7747 0.617757 -0.428812 0
M  V30 897 H 85.7457 1.86239 -2.33147 0
M  V30 898 C 84.4947 3.25315 -1.22741 0
M  V30 899 H 83.8177 3.41509 -2.07873 0
M  V30 900 H 85.2577 4.04964 -1.25618 0
M  V30 901 C 83.7167 3.36838 0.0647316 0
M  V30 902 O 84.2467 3.88073 1.03741 0
M  V30 903 N 82.4527 2.90329 0.125544 0
M  V30 904 H 81.9997 2.48823 -0.666682 0
M  V30 905 H 81.9577 2.98418 0.989639 0
M  V30 906 N 85.7298 1.2412 0.971189 0
M  V30 907 C 86.9598 1.10415 1.7462 0
M  V30 908 C 87.3678 -0.346462 1.86001 0
M  V30 909 O 86.7108 -1.25104 1.34517 0
M  V30 910 C 86.7728 1.66596 3.18568 0
M  V30 911 C 86.4368 3.15446 3.3067 0
M  V30 912 C 87.4338 4.12636 3.16271 0
M  V30 913 C 85.1188 3.55337 3.55022 0
M  V30 914 C 87.1128 5.47699 3.26044 0
M  V30 915 C 84.7998 4.90542 3.64434 0
M  V30 916 C 85.7978 5.86532 3.49956 0
M  V30 917 O 85.4858 7.19279 3.59017 0
M  V30 918 H 85.2178 0.386616 0.55453 0
M  V30 919 H 87.7718 1.64633 1.22821 0
M  V30 920 H 86.0018 1.06808 3.71657 0
M  V30 921 H 87.6908 1.48232 3.77865 0
M  V30 922 H 88.4568 3.8316 2.97344 0
M  V30 923 H 84.3358 2.8113 3.65359 0
M  V30 924 H 87.8798 6.22603 3.14661 0
M  V30 925 H 83.7768 5.19691 3.82873 0
M  V30 926 H 84.5448 7.27153 3.75754 0
M  V30 927 N 87.2079 -1.17134 1.05439 0
M  V30 928 C 88.4539 -1.87733 0.767077 0
M  V30 929 C 88.7869 -1.8098 -0.704253 0
M  V30 930 O 88.0619 -1.21951 -1.5152 0
M  V30 931 C 88.3449 -3.37659 1.25133 0
M  V30 932 C 88.1979 -3.53149 2.78578 0
M  V30 933 C 89.5169 -4.31768 0.852324 0
M  V30 934 H 86.6359 -0.681687 0.280129 0
M  V30 935 H 89.2779 -1.37732 1.30881 0
M  V30 936 H 87.4279 -3.80373 0.790469 0
M  V30 937 H 89.0999 -3.19434 3.32806 0
M  V30 938 H 87.3429 -2.95345 3.17732 0
M  V30 939 H 88.0139 -4.58403 3.07523 0
M  V30 940 H 90.4899 -3.96909 1.24911 0
M  V30 941 H 89.3659 -5.35199 1.21873 0
M  V30 942 H 89.6269 -4.41429 -0.243485 0
M  V30 943 N 88.686 -0.835752 -1.33615 0
M  V30 944 C 89.935 -0.426289 -1.97144 0
M  V30 945 C 90.248 1.01912 -1.66953 0
M  V30 946 O 91.454 1.53311 -2.24072 0
M  V30 947 C 89.91 -0.711321 -3.52801 0
M  V30 948 C 89.518 -2.1712 -3.91871 0
M  V30 949 C 91.262 -0.368654 -4.22896 0
M  V30 950 C 89.169 -2.40044 -5.40493 0
M  V30 951 H 88.099 -0.15567 -0.737755 0
M  V30 952 H 90.75 -1.0239 -1.52278 0
M  V30 953 H 89.132 -0.0433766 -3.95976 0
M  V30 954 H 90.306 -2.87936 -3.59763 0
M  V30 955 H 88.621 -2.47654 -3.34749 0
M  V30 956 H 91.218 -0.517601 -5.32189 0
M  V30 957 H 91.561 0.688078 -4.10574 0
M  V30 958 H 92.094 -0.991702 -3.8524 0
M  V30 959 H 88.833 -3.44271 -5.57815 0
M  V30 960 H 88.353 -1.73785 -5.74072 0
M  V30 961 H 90.032 -2.23042 -6.0734 0
M  V30 962 N 90.1641 1.46063 -0.591896 0
M  V30 963 C 91.1121 2.32124 0.148739 0
M  V30 964 C 92.1061 1.45035 0.875286 0
M  V30 965 O 93.3121 1.61609 0.792632 0
M  V30 966 H 89.6871 0.749024 0.066832 0
M  V30 967 H 91.6581 2.92392 -0.595783 0
M  V30 968 C 90.4071 3.28373 1.1431 0
M  V30 969 H 89.7301 3.95371 0.59346 0
M  V30 970 H 91.1701 3.91352 1.63155 0
M  V30 971 C 89.6291 2.54393 2.20875 0
M  V30 972 O 90.1591 2.31373 3.28374 0
M  V30 973 N 88.3651 2.14797 1.95731 0
M  V30 974 H 87.9121 2.33719 1.08319 0
M  V30 975 H 87.8701 1.65619 2.67241 0
M  V30 976 N 91.6422 0.330177 1.54103 0
M  V30 977 C 92.8672 -0.274893 2.0557 0
M  V30 978 C 93.2922 -1.44487 1.20437 0
M  V30 979 O 92.6502 -1.80021 0.214991 0
M  V30 980 C 92.6982 -0.68079 3.54115 0
M  V30 981 O 91.8022 -1.7824 3.71893 0
M  V30 982 H 91.1432 -0.0483849 0.662235 0
M  V30 983 H 93.6732 0.480508 1.98878 0
M  V30 984 H 93.6832 -0.961635 3.96505 0
M  V30 985 H 92.3582 0.174903 4.15532 0
M  V30 986 H 90.9352 -1.49985 3.41407 0
M  V30 987 N 93.1203 -1.57491 0.0584922 0
M  V30 988 C 94.3483 -1.97296 -0.623037 0
M  V30 989 C 94.7633 -0.936338 -1.63946 0
M  V30 990 O 94.1203 0.0785981 -1.82331 0
M  V30 991 C 94.1713 -3.37183 -1.30345 0
M  V30 992 O 93.8923 -4.36872 -0.32773 0
M  V30 993 C 95.3933 -3.91788 -2.07406 0
M  V30 994 H 92.6133 -0.649153 -0.169826 0
M  V30 995 H 95.1573 -2.04106 0.12696 0
M  V30 996 H 93.3123 -3.31502 -2.00463 0
M  V30 997 H 93.7263 -5.18141 -0.814269 0
M  V30 998 H 95.2003 -4.91926 -2.50425 0
M  V30 999 H 95.6773 -3.27609 -2.92521 0
M  V30 1000 H 96.2833 -4.00829 -1.42184 0
M  V30 1001 N 94.5984 0.214957 -1.56127 0
M  V30 1002 C 95.8754 0.963093 -1.70247 0
M  V30 1003 C 96.2554 2.02166 -0.60764 0
M  V30 1004 O 95.6034 2.25244 0.384385 0
M  V30 1005 C 95.8134 1.56756 -3.11815 0
M  V30 1006 C 97.1614 2.0573 -3.7143 0
M  V30 1007 O 98.1854 1.66637 -3.14818 0
M  V30 1008 O 97.0444 2.77603 -4.70743 0
M  V30 1009 H 94.1384 0.450321 -0.693643 0
M  V30 1010 H 96.6844 0.206219 -1.68442 0
M  V30 1011 H 95.4564 0.803533 -3.82961 0
M  V30 1012 H 95.0794 2.3898 -3.17765 0
M  V30 1013 N 96.0765 1.50051 0.48192 0
M  V30 1014 C 96.9865 1.7089 1.60728 0
M  V30 1015 C 98.0025 0.591788 1.63627 0
M  V30 1016 O 99.1785 0.868817 1.81696 0
M  V30 1017 C 96.2435 1.78855 2.97005 0
M  V30 1018 C 95.3045 3.02537 3.04581 0
M  V30 1019 C 94.5375 3.10112 4.34357 0
M  V30 1020 O 94.7605 2.24765 5.24249 0
M  V30 1021 O 93.6945 4.02747 4.47301 0
M  V30 1022 H 97.5205 2.66264 1.46072 0
M  V30 1023 H 95.1055 1.34018 0.660264 0
M  V30 1024 H 96.9875 1.86336 3.77964 0
M  V30 1025 H 95.6625 0.866628 3.11883 0
M  V30 1026 H 94.5695 3.00563 2.22739 0
M  V30 1027 H 95.9025 3.94272 2.94636 0
M  V30 1028 N 97.5546 -0.734337 1.39446 0
M  V30 1029 C 98.4846 -1.86155 1.40955 0
M  V30 1030 C 99.4656 -1.67898 0.272827 0
M  V30 1031 O 100.651 -1.88207 0.478743 0
M  V30 1032 C 97.7806 -3.23912 1.25294 0
M  V30 1033 C 96.7346 -3.56808 2.36373 0
M  V30 1034 C 96.0606 -4.93508 2.058 0
M  V30 1035 C 97.3606 -3.59713 3.78687 0
M  V30 1036 H 99.0546 -1.8515 2.35287 0
M  V30 1037 H 96.6006 -0.889367 1.13253 0
M  V30 1038 H 98.5536 -4.02443 1.2497 0
M  V30 1039 H 97.2776 -3.25446 0.274308 0
M  V30 1040 H 95.9366 -2.80606 2.35914 0
M  V30 1041 H 95.5846 -4.91623 1.06374 0
M  V30 1042 H 95.2846 -5.16486 2.80208 0
M  V30 1043 H 96.8086 -5.74396 2.07128 0
M  V30 1044 H 98.2226 -4.2832 3.81071 0
M  V30 1045 H 96.6196 -3.94209 4.52459 0
M  V30 1046 H 97.6896 -2.59504 4.09617 0
M  V30 1047 N 99.0327 -1.24633 -0.964593 0
M  V30 1048 C 100.444 -1.08045 -1.5226 0
M  V30 1049 C 100.795 0.347116 -1.93105 0
M  V30 1050 O 99.9197 1.23588 -1.77637 0
M  V30 1051 C 100.515 -1.95514 -2.76695 0
M  V30 1052 C 99.0737 -1.8314 -3.28841 0
M  V30 1053 C 98.2207 -1.90262 -2.01732 0
M  V30 1054 H 101.172 -1.38064 -0.782553 0
M  V30 1055 H 101.193 -1.48925 -3.50145 0
M  V30 1056 H 100.705 -2.99407 -2.46936 0
M  V30 1057 H 98.8057 -0.82092 -3.63444 0
M  V30 1058 H 98.9187 -2.67406 -3.97531 0
M  V30 1059 H 97.2827 -1.34027 -2.16584 0
M  V30 1060 H 98.0657 -2.9574 -1.74334 0
M  V30 1061 N 100.511 1.16574 -1.06058 0
M  V30 1062 C 101.739 1.90952 -0.796552 0
M  V30 1063 C 102.154 1.77302 0.648808 0
M  V30 1064 O 101.511 1.11605 1.44397 0
M  V30 1065 C 101.562 3.41736 -1.17894 0
M  V30 1066 O 101.283 3.54975 -2.56758 0
M  V30 1067 C 102.784 4.33169 -0.942308 0
M  V30 1068 H 100.004 0.605594 -0.288959 0
M  V30 1069 H 102.548 1.47777 -1.41358 0
M  V30 1070 H 100.703 3.82623 -0.606491 0
M  V30 1071 H 101.117 4.4846 -2.72 0
M  V30 1072 H 102.591 5.37439 -1.25952 0
M  V30 1073 H 103.068 4.3903 0.122078 0
M  V30 1074 H 103.674 3.98007 -1.49902 0
M  V30 1075 N 101.989 0.842826 1.3317 0
M  V30 1076 C 103.238 0.436738 1.96915 0
M  V30 1077 C 103.551 -1.01025 1.67491 0
M  V30 1078 O 104.757 -1.5212 2.24881 0
M  V30 1079 C 103.213 0.730021 3.52418 0
M  V30 1080 C 102.821 2.19195 3.90714 0
M  V30 1081 C 104.565 0.391076 4.22695 0
M  V30 1082 C 102.472 2.42907 5.39212 0
M  V30 1083 H 101.402 0.15958 0.736919 0
M  V30 1084 H 104.053 1.03196 1.51733 0
M  V30 1085 H 102.435 0.0643755 3.95948 0
M  V30 1086 H 103.609 2.8984 3.58231 0
M  V30 1087 H 101.924 2.49425 3.33431 0
M  V30 1088 H 104.521 0.545817 5.31907 0
M  V30 1089 H 104.864 -0.666294 4.10933 0
M  V30 1090 H 105.397 1.01212 3.84709 0
M  V30 1091 H 102.136 3.47224 5.55982 0
M  V30 1092 H 101.656 1.76827 5.73142 0
M  V30 1093 H 103.335 2.2626 6.06148 0
M  V30 1094 N 103.467 -1.45747 0.599634 0
M  V30 1095 C 104.692 -2.07178 0.0960198 0
M  V30 1096 C 105.117 -1.44268 -1.207 0
M  V30 1097 O 104.475 -0.532503 -1.73303 0
M  V30 1098 C 104.523 -3.60579 -0.0385348 0
M  V30 1099 O 103.627 -3.97713 -1.0908 0
M  V30 1100 H 102.968 -0.660251 0.0704593 0
M  V30 1101 H 105.498 -1.87124 0.827385 0
M  V30 1102 H 105.508 -4.07298 -0.239304 0
M  V30 1103 H 104.183 -4.05756 0.912947 0
M  V30 1104 H 102.76 -3.62678 -0.867135 0
M  V30 1105 N 104.945 -0.338344 -1.53925 0
M  V30 1106 C 106.175 0.260919 -2.04946 0
M  V30 1107 C 106.583 1.45174 -1.2133 0
M  V30 1108 O 105.926 1.82122 -0.240262 0
M  V30 1109 C 105.988 0.744596 -3.51704 0
M  V30 1110 C 105.652 -0.325883 -4.55837 0
M  V30 1111 C 106.649 -1.16687 -5.06636 0
M  V30 1112 C 104.334 -0.478317 -5.00017 0
M  V30 1113 C 106.328 -2.14588 -6.00192 0
M  V30 1114 C 104.015 -1.46073 -5.93385 0
M  V30 1115 C 105.013 -2.29297 -6.4336 0
M  V30 1116 O 104.701 -3.25867 -7.34892 0
M  V30 1117 H 104.433 0.0551207 -0.673749 0
M  V30 1118 H 106.987 -0.486984 -1.99544 0
M  V30 1119 H 105.217 1.54366 -3.54553 0
M  V30 1120 H 106.906 1.26383 -3.85723 0
M  V30 1121 H 107.672 -1.06016 -4.73271 0
M  V30 1122 H 103.551 0.159613 -4.60724 0
M  V30 1123 H 107.095 -2.79585 -6.39123 0
M  V30 1124 H 102.992 -1.56802 -6.26166 0
M  V30 1125 H 103.76 -3.21278 -7.5281 0
M  V30 1126 N 106.423 1.57458 -0.0668435 0
M  V30 1127 C 107.648 1.9804 0.616027 0
M  V30 1128 C 108.073 0.944771 1.62652 0
M  V30 1129 O 107.431 -0.0902094 1.81075 0
M  V30 1130 C 107.479 3.37665 1.26549 0
M  V30 1131 O 106.583 3.36701 2.38131 0
M  V30 1132 H 105.924 0.644719 0.158849 0
M  V30 1133 H 108.454 2.04121 -0.139891 0
M  V30 1134 H 108.464 3.7474 1.6135 0
M  V30 1135 H 107.139 4.12573 0.525016 0
M  V30 1136 H 105.716 3.1139 2.0516 0
M  V30 1137 N 107.901 -0.206675 1.56239 0
M  V30 1138 C 108.834 -1.28383 1.88661 0
M  V30 1139 C 109.812 -1.44504 0.745481 0
M  V30 1140 O 110.996 -1.60079 0.995336 0
M  V30 1141 C 108.123 -2.65211 2.10667 0
M  V30 1142 C 107.169 -2.66025 3.33366 0
M  V30 1143 S 108.002 -2.18609 4.88846 0
M  V30 1144 C 109.158 -3.57283 5.13906 0
M  V30 1145 H 109.391 -1.00691 2.7973 0
M  V30 1146 H 106.924 -0.409627 1.48867 0
M  V30 1147 H 108.882 -3.43979 2.24029 0
M  V30 1148 H 107.543 -2.90121 1.20369 0
M  V30 1149 H 106.736 -3.66607 3.45855 0
M  V30 1150 H 106.338 -1.95331 3.18938 0
M  V30 1151 H 108.63 -4.53074 5.03717 0
M  V30 1152 H 109.573 -3.49699 6.15724 0
M  V30 1153 H 109.981 -3.51659 4.41583 0
M  V30 1154 N 109.379 -1.50304 -0.473955 0
M  V30 1155 C 110.327 -1.69482 -1.59307 0
M  V30 1156 C 111.321 -0.560669 -1.59853 0
M  V30 1157 O 112.527 -0.741087 -1.64036 0
M  V30 1158 H 108.902 -0.534892 -0.528578 0
M  V30 1159 H 110.873 -2.63364 -1.40293 0
M  V30 1160 C 109.622 -1.80354 -2.97267 0
M  V30 1161 H 108.945 -2.67012 -2.97564 0
M  V30 1162 H 110.385 -1.97798 -3.75036 0
M  V30 1163 C 108.844 -0.55448 -3.32306 0
M  V30 1164 O 109.374 0.307661 -4.0052 0
M  V30 1165 N 107.58 -0.409354 -2.87702 0
M  V30 1166 H 107.127 -1.11196 -2.32364 0
M  V30 1167 H 107.085 0.425223 -3.11511 0
M  V30 1168 N 110.857 0.726932 -1.39834 0
M  V30 1169 C 112.268 1.30558 -1.3346 0
M  V30 1170 C 112.619 1.962 -0.00273003 0
M  V30 1171 O 111.744 1.96826 0.899371 0
M  V30 1172 C 112.339 2.37404 -2.41713 0
M  V30 1173 C 110.898 2.90921 -2.38835 0
M  V30 1174 C 110.045 1.64578 -2.2318 0
M  V30 1175 H 112.996 0.523862 -1.49804 0
M  V30 1176 H 113.017 3.17984 -2.08966 0
M  V30 1177 H 112.529 1.89599 -3.38635 0
M  V30 1178 H 110.63 3.42985 -1.45575 0
M  V30 1179 H 110.743 3.43487 -3.33997 0
M  V30 1180 H 109.107 1.89219 -1.70494 0
M  V30 1181 H 109.89 1.18814 -3.22084 0
M  V30 1182 N 112.336 1.25143 0.95797 0
M  V30 1183 C 113.283 1.05235 2.05412 0
M  V30 1184 C 114.253 -0.0374561 1.66058 0
M  V30 1185 O 115.438 0.119073 1.90428 0
M  V30 1186 C 112.578 0.673589 3.38462 0
M  V30 1187 C 111.691 1.8379 3.90954 0
M  V30 1188 C 110.826 1.40381 5.12315 0
M  V30 1189 C 109.865 2.53746 5.57027 0
M  V30 1190 N 109.002 2.11136 6.69601 0
M  V30 1191 H 113.842 1.99048 2.21774 0
M  V30 1192 H 111.379 0.991277 1.08683 0
M  V30 1193 H 113.337 0.434964 4.14926 0
M  V30 1194 H 111.967 -0.227554 3.21997 0
M  V30 1195 H 111.019 2.18992 3.11041 0
M  V30 1196 H 112.331 2.68937 4.20089 0
M  V30 1197 H 111.485 1.12464 5.96185 0
M  V30 1198 H 110.224 0.523015 4.84887 0
M  V30 1199 H 109.229 2.82412 4.71724 0
M  V30 1200 H 110.454 3.42398 5.86464 0
M  V30 1201 H 108.4 1.25468 6.4389 0
M  V30 1202 H 108.317 2.89832 6.98236 0
M  V30 1203 H 109.585 1.86385 7.56889 0
M  V30 1204 N 113.814 -1.1601 1.06675 0
M  V30 1205 C 115.225 -1.68235 0.809565 0
M  V30 1206 C 115.576 -1.8454 -0.666303 0
M  V30 1207 O 114.701 -1.54374 -1.5165 0
M  V30 1208 C 115.296 -3.05585 1.46299 0
M  V30 1209 C 113.855 -3.54915 1.25349 0
M  V30 1210 C 113.002 -2.30804 1.53703 0
M  V30 1211 H 115.953 -1.00318 1.22971 0
M  V30 1212 H 115.974 -3.70174 0.880431 0
M  V30 1213 H 115.486 -2.93686 2.53713 0
M  V30 1214 H 113.587 -3.72067 0.199261 0
M  V30 1215 H 113.7 -4.36774 1.9689 0
M  V30 1216 H 112.064 -2.36007 0.957739 0
M  V30 1217 H 112.847 -2.21499 2.62284 0
M  V30 1218 N 115.292 -0.849877 -1.32721 0
M  V30 1219 C 116.52 -0.464754 -2.01613 0
M  V30 1220 C 116.935 0.937191 -1.63897 0
M  V30 1221 O 116.292 1.61081 -0.857856 0
M  V30 1222 C 116.343 -0.588638 -3.56675 0
M  V30 1223 O 116.064 -1.93535 -3.93034 0
M  V30 1224 C 117.565 -0.2019 -4.4284 0
M  V30 1225 H 114.785 -0.183215 -0.645502 0
M  V30 1226 H 117.329 -1.1455 -1.69407 0
M  V30 1227 H 115.484 0.0443159 -3.87375 0
M  V30 1228 H 115.898 -1.92871 -4.87751 0
M  V30 1229 H 117.372 -0.339599 -5.50954 0
M  V30 1230 H 117.849 0.857224 -4.30753 0
M  V30 1231 H 118.455 -0.809733 -4.17521 0
M  V30 1232 N 116.77 1.45427 -0.607355 0
M  V30 1233 C 118.181 1.85756 -0.187535 0
M  V30 1234 C 118.532 1.5077 1.25551 0
M  V30 1235 O 117.657 0.93427 1.95193 0
M  V30 1236 C 118.252 3.37154 -0.333572 0
M  V30 1237 C 116.811 3.76387 0.0315542 0
M  V30 1238 C 115.958 2.69377 -0.658117 0
M  V30 1239 H 118.909 1.36231 -0.81405 0
M  V30 1240 H 118.93 3.78014 0.43428 0
M  V30 1241 H 118.442 3.62586 -1.38393 0
M  V30 1242 H 116.543 3.56571 1.0811 0
M  V30 1243 H 116.656 4.77731 -0.361935 0
M  V30 1244 H 115.02 2.5452 -0.0957873 0
M  V30 1245 H 115.803 2.97646 -1.7106 0
M  V30 1246 N 118.248 0.346503 1.53744 0
M  V30 1247 C 119.494 -0.242135 2.01954 0
M  V30 1248 C 119.849 -1.47962 1.22984 0
M  V30 1249 O 119.142 -1.89077 0.309924 0
M  V30 1250 C 119.336 -0.605809 3.52228 0
M  V30 1251 C 119.165 0.594882 4.45748 0
M  V30 1252 C 117.935 1.1011 4.93157 0
M  V30 1253 C 120.133 1.45425 4.93311 0
M  V30 1254 N 118.115 2.26381 5.70636 0
M  V30 1255 C 119.486 2.46383 5.68942 0
M  V30 1256 C 121.541 1.47935 4.75415 0
M  V30 1257 C 120.244 3.49684 6.28581 0
M  V30 1258 C 122.27 2.50119 5.35905 0
M  V30 1259 C 121.632 3.49803 6.11406 0
M  V30 1260 H 117.731 -0.0518296 0.780281 0
M  V30 1261 H 120.315 0.486736 1.88518 0
M  V30 1262 H 118.486 -1.30378 3.65864 0
M  V30 1263 H 120.218 -1.17789 3.87179 0
M  V30 1264 H 116.973 0.668721 4.68855 0
M  V30 1265 H 117.397 2.85094 6.14044 0
M  V30 1266 H 122.039 0.722274 4.16585 0
M  V30 1267 H 119.757 4.26285 6.86518 0
M  V30 1268 H 123.343 2.52892 5.23963 0
M  V30 1269 H 122.223 4.27576 6.5738 0
M  V30 1270 N 119.726 -1.57421 0.075193 0
M  V30 1271 C 120.689 -2.11791 -0.876203 0
M  V30 1272 C 121.689 -1.04268 -1.22412 0
M  V30 1273 O 122.879 -1.30242 -1.15684 0
M  V30 1274 C 120.011 -2.62207 -2.17854 0
M  V30 1275 H 121.204 -2.9716 -0.40444 0
M  V30 1276 H 118.757 -1.55333 -0.173557 0
M  V30 1277 H 119.492 -1.803 -2.6956 0
M  V30 1278 H 119.277 -3.40802 -1.93897 0
M  V30 1279 H 120.767 -3.04335 -2.85955 0
M  V30 1280 N 121.204 0.198386 -1.56346 0
M  V30 1281 C 122.114 1.2664 -1.97483 0
M  V30 1282 C 123.13 1.49989 -0.882002 0
M  V30 1283 O 124.306 1.62668 -1.18748 0
M  V30 1284 C 121.371 2.59141 -2.30319 0
M  V30 1285 C 120.432 2.43892 -3.53292 0
M  V30 1286 C 119.665 3.70074 -3.84553 0
M  V30 1287 O 119.888 4.74101 -3.1715 0
M  V30 1288 O 118.822 3.658 -4.7799 0
M  V30 1289 H 122.648 0.947304 -2.88548 0
M  V30 1290 H 120.233 0.403123 -1.43859 0
M  V30 1291 H 122.115 3.37352 -2.5253 0
M  V30 1292 H 120.79 2.90684 -1.42423 0
M  V30 1293 H 119.697 1.63803 -3.36332 0
M  V30 1294 H 121.03 2.17282 -4.41644 0
M  V30 1295 N 122.682 1.50554 0.465978 0
M  V30 1296 C 123.592 1.72585 1.58907 0
M  V30 1297 C 124.608 0.60911 1.6299 0
M  V30 1298 O 125.784 0.88804 1.80765 0
M  V30 1299 C 122.849 1.81995 2.95091 0
M  V30 1300 C 121.91 3.05751 3.01355 0
M  V30 1301 C 121.143 3.14702 4.31043 0
M  V30 1302 O 121.366 2.30313 5.21835 0
M  V30 1303 O 120.3 4.07468 4.43005 0
M  V30 1304 H 124.126 2.67799 1.43239 0
M  V30 1305 H 121.711 1.34711 0.646013 0
M  V30 1306 H 123.593 1.90335 3.75966 0
M  V30 1307 H 122.268 0.899659 3.10947 0
M  V30 1308 H 121.175 3.02908 2.19539 0
M  V30 1309 H 122.508 3.97375 2.90437 0
M  V30 1310 N 124.16 -0.719506 1.40217 0
M  V30 1311 C 125.07 -1.86378 1.42479 0
M  V30 1312 C 126.086 -1.71073 0.317834 0
M  V30 1313 O 127.262 -1.93406 0.561794 0
M  V30 1314 C 124.327 -3.22136 1.28178 0
M  V30 1315 C 123.388 -3.49723 2.48982 0
M  V30 1316 C 122.621 -4.79004 2.35353 0
M  V30 1317 O 122.844 -5.53821 1.36524 0
M  V30 1318 O 121.778 -5.06839 3.2465 0
M  V30 1319 H 125.604 -1.87425 2.38968 0
M  V30 1320 H 123.189 -0.869405 1.21498 0
M  V30 1321 H 125.071 -4.03234 1.22395 0
M  V30 1322 H 123.746 -3.21825 0.347934 0
M  V30 1323 H 122.653 -2.6865 2.60342 0
M  V30 1324 H 123.986 -3.54828 3.41113 0
M  V30 1325 N 125.638 -1.25649 -0.95132 0
M  V30 1326 C 126.866 -1.13343 -1.73092 0
M  V30 1327 C 127.281 0.312434 -1.86197 0
M  V30 1328 O 126.638 1.21465 -1.36207 0
M  V30 1329 C 126.689 -1.78602 -3.14299 0
M  V30 1330 O 126.41 -3.17537 -3.01831 0
M  V30 1331 C 127.911 -1.72119 -4.08522 0
M  V30 1332 H 125.131 -0.395181 -0.542285 0
M  V30 1333 H 127.675 -1.66076 -1.19328 0
M  V30 1334 H 125.83 -1.29832 -3.64996 0
M  V30 1335 H 126.244 -3.49676 -3.90931 0
M  V30 1336 H 127.718 -2.22435 -5.052 0
M  V30 1337 H 128.195 -0.685635 -4.33815 0
M  V30 1338 H 128.801 -2.20393 -3.63741 0
M  V30 1339 N 127.117 1.15442 -1.07289 0
M  V30 1340 C 128.363 1.86489 -0.796846 0
M  V30 1341 C 128.696 1.82078 0.675371 0
M  V30 1342 O 127.971 1.24346 1.4956 0
M  V30 1343 C 128.254 3.35626 -1.30489 0
M  V30 1344 C 128.107 3.48673 -2.84161 0
M  V30 1345 C 129.426 4.30357 -0.920907 0
M  V30 1346 H 126.545 0.677144 -0.290939 0
M  V30 1347 H 129.187 1.35633 -1.33056 0
M  V30 1348 H 127.337 3.79068 -0.850883 0
M  V30 1349 H 129.009 3.14099 -3.37846 0
M  V30 1350 H 127.252 2.90253 -3.22391 0
M  V30 1351 H 127.923 4.53453 -3.14777 0
M  V30 1352 H 130.399 3.94871 -1.3121 0
M  V30 1353 H 129.275 5.33193 -1.30372 0
M  V30 1354 H 129.536 4.4176 0.173226 0
M  V30 1355 N 128.595 0.856903 1.32268 0
M  V30 1356 C 129.558 0.308171 2.27119 0
M  V30 1357 C 130.558 -0.533421 1.51695 0
M  V30 1358 O 131.748 -0.344607 1.70757 0
M  V30 1359 C 128.88 -0.563757 3.36206 0
M  V30 1360 H 130.073 1.14535 2.77167 0
M  V30 1361 H 127.626 0.631421 1.42978 0
M  V30 1362 H 128.361 -1.42266 2.91429 0
M  V30 1363 H 128.146 0.0386749 3.92081 0
M  V30 1364 H 129.636 -0.940386 4.06874 0
M  V30 1365 N 130.073 -1.45103 0.615059 0
M  V30 1366 C 131.036 -2.29025 -0.0895485 0
M  V30 1367 C 132.036 -1.40174 -0.787906 0
M  V30 1368 O 133.226 -1.62217 -0.634933 0
M  V30 1369 C 130.358 -3.21376 -1.13711 0
M  V30 1370 H 131.551 -2.92807 0.648382 0
M  V30 1371 H 129.104 -1.51749 0.374444 0
M  V30 1372 H 129.839 -2.6241 -1.90556 0
M  V30 1373 H 129.624 -3.86834 -0.640475 0
M  V30 1374 H 131.114 -3.84459 -1.63036 0
M  V30 1375 N 131.551 -0.354651 -1.53558 0
M  V30 1376 C 132.514 0.484566 -2.24019 0
M  V30 1377 C 133.514 1.01861 -1.24422 0
M  V30 1378 O 134.704 0.906097 -1.4878 0
M  V30 1379 C 131.836 1.67615 -2.96847 0
M  V30 1380 H 133.029 -0.131843 -2.9961 0
M  V30 1381 H 130.582 -0.106165 -1.55939 0
M  V30 1382 H 131.317 2.33095 -2.25471 0
M  V30 1383 H 131.102 1.30029 -3.69912 0
M  V30 1384 H 132.592 2.27114 -3.50441 0
M  V30 1385 N 133.029 1.57378 -0.0835403 0
M  V30 1386 C 133.961 2.10389 0.909338 0
M  V30 1387 C 134.974 1.03858 1.25369 0
M  V30 1388 O 136.163 1.31338 1.20882 0
M  V30 1389 C 133.263 2.55908 2.2218 0
M  V30 1390 C 132.436 3.86145 2.05453 0
M  V30 1391 C 131.495 4.17633 3.20108 0
M  V30 1392 O 130.521 4.87043 2.94581 0
M  V30 1393 N 131.723 3.72113 4.45547 0
M  V30 1394 H 134.488 2.962 0.456657 0
M  V30 1395 H 132.049 1.61579 0.101877 0
M  V30 1396 H 134.041 2.74027 2.97811 0
M  V30 1397 H 132.611 1.75171 2.58909 0
M  V30 1398 H 131.831 3.7729 1.1422 0
M  V30 1399 H 133.119 4.7137 1.91541 0
M  V30 1400 H 132.517 3.16062 4.69171 0
M  V30 1401 H 131.074 3.95409 5.18165 0
M  V30 1402 N 134.507 -0.190092 1.56449 0
M  V30 1403 C 135.437 -1.23816 1.97969 0
M  V30 1404 C 136.418 -1.47201 0.852395 0
M  V30 1405 O 137.603 -1.58854 1.1171 0
M  V30 1406 C 134.733 -2.5813 2.3235 0
M  V30 1407 C 133.687 -2.49348 3.47864 0
M  V30 1408 C 133.013 -3.8798 3.67934 0
M  V30 1409 C 134.313 -2.01424 4.81898 0
M  V30 1410 H 136.007 -0.89311 2.85769 0
M  V30 1411 H 133.553 -0.428177 1.37487 0
M  V30 1412 H 135.506 -3.31637 2.59991 0
M  V30 1413 H 134.23 -2.94386 1.41438 0
M  V30 1414 H 132.889 -1.78297 3.20321 0
M  V30 1415 H 132.537 -4.21597 2.74344 0
M  V30 1416 H 132.237 -3.82978 4.45648 0
M  V30 1417 H 133.761 -4.63101 3.97957 0
M  V30 1418 H 135.175 -2.64693 5.08538 0
M  V30 1419 H 133.572 -2.07413 5.63116 0
M  V30 1420 H 134.642 -0.967677 4.75146 0
M  V30 1421 N 135.985 -1.50799 -0.457987 0
M  V30 1422 C 137.234 -1.6168 -1.20593 0
M  V30 1423 C 137.547 -0.32888 -1.92815 0
M  V30 1424 O 138.753 -0.316773 -2.69646 0
M  V30 1425 C 137.209 -2.8545 -2.19195 0
M  V30 1426 C 136.817 -4.21168 -1.52715 0
M  V30 1427 C 138.561 -3.05681 -2.94549 0
M  V30 1428 C 136.468 -5.3611 -2.4968 0
M  V30 1429 H 135.398 -0.602134 -0.453818 0
M  V30 1430 H 138.049 -1.77245 -0.475031 0
M  V30 1431 H 136.431 -2.63472 -2.95632 0
M  V30 1432 H 137.605 -4.53449 -0.819775 0
M  V30 1433 H 135.92 -4.06648 -0.895922 0
M  V30 1434 H 138.517 -3.88727 -3.67145 0
M  V30 1435 H 138.86 -2.17929 -3.54701 0
M  V30 1436 H 139.393 -3.27901 -2.25223 0
M  V30 1437 H 136.132 -6.26057 -1.94249 0
M  V30 1438 H 135.652 -5.0823 -3.18532 0
M  V30 1439 H 137.331 -5.6722 -3.11241 0
M  V30 1440 N 137.463 0.71206 -1.40597 0
M  V30 1441 C 138.691 1.50111 -1.42388 0
M  V30 1442 C 139.106 1.88784 -0.0245395 0
M  V30 1443 O 138.463 1.55681 0.952351 0
M  V30 1444 C 138.514 2.7742 -2.31776 0
M  V30 1445 O 138.235 2.40382 -3.66262 0
M  V30 1446 C 139.736 3.7129 -2.42196 0
M  V30 1447 H 136.956 0.46314 -0.485533 0
M  V30 1448 H 139.5 0.878068 -1.8469 0
M  V30 1449 H 137.655 3.36001 -1.92827 0
M  V30 1450 H 138.069 3.22324 -4.13772 0
M  V30 1451 H 139.543 4.57448 -3.08943 0
M  V30 1452 H 140.02 4.14641 -1.44809 0
M  V30 1453 H 140.626 3.18619 -2.81712 0
M  V30 1454 N 138.941 1.26152 0.944643 0
M  V30 1455 C 139.874 1.01729 2.04271 0
M  V30 1456 C 140.852 -0.0568101 1.62501 0
M  V30 1457 O 142.036 0.0848987 1.88309 0
M  V30 1458 C 139.163 0.539792 3.34371 0
M  V30 1459 C 138.209 1.60593 3.9511 0
M  V30 1460 S 139.042 3.19392 4.29825 0
M  V30 1461 C 140.198 2.73402 5.63029 0
M  V30 1462 H 140.431 1.94703 2.24673 0
M  V30 1463 H 137.964 1.09793 1.08558 0
M  V30 1464 H 139.922 0.270956 4.09605 0
M  V30 1465 H 138.583 -0.369609 3.11918 0
M  V30 1466 H 137.776 1.22275 4.88943 0
M  V30 1467 H 137.378 1.82596 3.26397 0
M  V30 1468 H 139.67 2.1765 6.41588 0
M  V30 1469 H 140.613 3.65913 6.06229 0
M  V30 1470 H 141.021 2.13077 5.22741 0
M  V30 1471 N 140.419 -1.14872 1.07899 0
M  V30 1472 C 141.349 -2.2193 0.725887 0
M  V30 1473 C 142.33 -1.67622 -0.28927 0
M  V30 1474 O 143.515 -1.93533 -0.160787 0
M  V30 1475 C 140.645 -3.47061 0.128856 0
M  V30 1476 C 139.599 -4.14363 1.07178 0
M  V30 1477 C 138.925 -5.33636 0.337229 0
M  V30 1478 C 140.225 -4.63492 2.40775 0
M  V30 1479 H 141.919 -2.51724 1.62097 0
M  V30 1480 H 139.465 -1.20991 0.780838 0
M  V30 1481 H 141.418 -4.21199 -0.130147 0
M  V30 1482 H 140.142 -3.16617 -0.80134 0
M  V30 1483 H 138.801 -3.42173 1.3158 0
M  V30 1484 H 138.449 -4.99449 -0.596606 0
M  V30 1485 H 138.149 -5.79609 0.965788 0
M  V30 1486 H 139.673 -6.10539 0.0861567 0
M  V30 1487 H 141.087 -5.2913 2.20669 0
M  V30 1488 H 139.484 -5.20148 2.99276 0
M  V30 1489 H 140.554 -3.78834 3.02676 0
M  V30 1490 N 141.898 -0.863906 -1.31812 0
M  V30 1491 C 143.144 -0.481841 -1.9761 0
M  V30 1492 C 143.499 0.954048 -1.6708 0
M  V30 1493 O 142.792 1.66182 -0.953624 0
M  V30 1494 C 142.986 -0.668547 -3.51091 0
M  V30 1495 C 142.815 -2.12103 -3.96538 0
M  V30 1496 C 141.585 -2.76141 -4.23171 0
M  V30 1497 C 143.783 -3.09265 -4.10925 0
M  V30 1498 N 141.765 -4.12205 -4.54929 0
M  V30 1499 C 143.136 -4.30341 -4.46326 0
M  V30 1500 C 145.191 -3.05337 -3.93286 0
M  V30 1501 C 143.894 -5.48 -4.65928 0
M  V30 1502 C 145.92 -4.22248 -4.14078 0
M  V30 1503 C 145.282 -5.42085 -4.49804 0
M  V30 1504 H 141.381 -0.225238 -0.74886 0
M  V30 1505 H 143.965 -1.11723 -1.59455 0
M  V30 1506 H 142.136 -0.0627898 -3.88349 0
M  V30 1507 H 143.868 -0.255467 -4.03893 0
M  V30 1508 H 140.623 -2.27125 -4.15585 0
M  V30 1509 H 141.047 -4.82416 -4.74978 0
M  V30 1510 H 145.689 -2.138 -3.64759 0
M  V30 1511 H 143.407 -6.40059 -4.93305 0
M  V30 1512 H 146.993 -4.20654 -4.01922 0
M  V30 1513 H 145.873 -6.31044 -4.65567 0
M  V30 1514 N 143.376 1.44774 -0.622745 0
M  V30 1515 C 144.601 2.06999 -0.128968 0
M  V30 1516 C 145.026 1.4617 1.1839 0
M  V30 1517 O 144.384 0.560007 1.72434 0
M  V30 1518 C 144.432 3.60595 -0.0188351 0
M  V30 1519 O 143.536 3.99398 1.02739 0
M  V30 1520 H 142.877 0.659047 -0.0809544 0
M  V30 1521 H 145.407 1.85784 -0.85705 0
M  V30 1522 H 145.417 4.07627 0.174476 0
M  V30 1523 H 144.092 4.04252 -0.977384 0
M  V30 1524 H 142.669 3.64011 0.809326 0
M  V30 1525 N 144.854 0.36279 1.53368 0
M  V30 1526 C 145.784 -0.476976 2.28576 0
M  V30 1527 C 146.765 -1.08631 1.30894 0
M  V30 1528 O 147.95 -1.10409 1.59761 0
M  V30 1529 C 145.08 -1.61828 3.07293 0
M  V30 1530 C 144.034 -1.13633 4.1264 0
M  V30 1531 C 143.36 -2.36766 4.79423 0
M  V30 1532 C 144.66 -0.223061 5.21823 0
M  V30 1533 H 146.354 0.150474 2.99022 0
M  V30 1534 H 143.9 0.0738103 1.43811 0
M  V30 1535 H 145.853 -2.21237 3.58653 0
M  V30 1536 H 144.577 -2.27292 2.34533 0
M  V30 1537 H 143.236 -0.564945 3.62221 0
M  V30 1538 H 142.884 -3.0068 4.03238 0
M  V30 1539 H 142.584 -2.05192 5.50609 0
M  V30 1540 H 144.108 -2.96865 5.33576 0
M  V30 1541 H 145.522 -0.724545 5.68703 0
M  V30 1542 H 143.919 0.001678 6.001 0
M  V30 1543 H 144.989 0.735553 4.79289 0
M  V30 1544 N 146.332 -1.57332 0.0918853 0
M  V30 1545 C 147.557 -1.98995 -0.584442 0
M  V30 1546 C 147.982 -0.970528 -1.61128 0
M  V30 1547 O 147.34 0.0613904 -1.81196 0
M  V30 1548 C 147.388 -3.39636 -1.21161 0
M  V30 1549 O 146.492 -3.40447 -2.32744 0
M  V30 1550 H 145.833 -0.647165 -0.148572 0
M  V30 1551 H 148.363 -2.03873 0.172347 0
M  V30 1552 H 148.373 -3.7726 -1.55367 0
M  V30 1553 H 147.048 -4.13356 -0.459313 0
M  V30 1554 H 145.625 -3.14614 -2.0018 0
M  V30 1555 N 147.81 0.181792 -1.56548 0
M  V30 1556 C 149.056 0.901431 -1.81665 0
M  V30 1557 C 149.389 1.82347 -0.668075 0
M  V30 1558 O 148.664 1.91669 0.330615 0
M  V30 1559 C 148.947 1.70618 -3.17115 0
M  V30 1560 C 148.8 0.807964 -4.42484 0
M  V30 1561 C 150.119 2.67605 -3.49393 0
M  V30 1562 H 147.238 0.32627 -0.660846 0
M  V30 1563 H 149.88 0.168134 -1.89255 0
M  V30 1564 H 148.03 2.33133 -3.10775 0
M  V30 1565 H 149.702 0.19649 -4.60881 0
M  V30 1566 H 147.945 0.115411 -4.33646 0
M  V30 1567 H 148.616 1.40632 -5.33785 0
M  V30 1568 H 151.092 2.15218 -3.56118 0
M  V30 1569 H 149.968 3.20985 -4.45264 0
M  V30 1570 H 150.229 3.47298 -2.73563 0
M  V30 1571 N 149.288 1.51039 0.449983 0
M  V30 1572 C 150.513 1.6715 1.22783 0
M  V30 1573 C 150.938 0.363081 1.84563 0
M  V30 1574 O 150.296 -0.675433 1.68249 0
M  V30 1575 C 150.344 2.77985 2.29689 0
M  V30 1576 O 149.448 2.40707 3.34864 0
M  V30 1577 H 148.789 0.557746 0.360299 0
M  V30 1578 H 151.319 1.97535 0.533005 0
M  V30 1579 H 151.329 3.01693 2.74673 0
M  V30 1580 H 150.004 3.72935 1.84098 0
M  V30 1581 H 148.581 2.27523 2.95445 0
M  V30 1582 N 150.766 -0.704594 1.40972 0
M  V30 1583 C 151.991 -1.49858 1.43378 0
M  V30 1584 C 152.416 -1.88061 0.038184 0
M  V30 1585 O 151.774 -1.5402 -0.956425 0
M  V30 1586 C 151.822 -2.74333 2.34038 0
M  V30 1587 O 150.926 -3.7147 1.7912 0
M  V30 1588 H 150.267 -0.45139 0.486974 0
M  V30 1589 H 152.797 -0.866832 1.8533 0
M  V30 1590 H 152.807 -3.22741 2.49604 0
M  V30 1591 H 151.482 -2.45863 3.35446 0
M  V30 1592 H 150.059 -3.30363 1.72958 0
M  V30 1593 N 152.244 -1.26651 -0.937939 0
M  V30 1594 C 153.491 -1.12387 -1.6845 0
M  V30 1595 C 153.819 0.332208 -1.91642 0
M  V30 1596 O 153.074 1.2602 -1.49725 0
M  V30 1597 C 153.373 -1.84168 -3.06295 0
M  V30 1598 C 153.039 -3.34056 -3.02849 0
M  V30 1599 C 151.701 -3.74942 -3.01616 0
M  V30 1600 C 154.053 -4.29741 -2.9491 0
M  V30 1601 C 151.381 -5.09894 -2.90215 0
M  V30 1602 C 153.733 -5.64738 -2.8505 0
M  V30 1603 C 152.397 -6.0493 -2.82162 0
M  V30 1604 H 151.667 -0.411252 -0.616403 0
M  V30 1605 H 154.314 -1.57134 -1.09459 0
M  V30 1606 H 152.619 -1.319 -3.6893 0
M  V30 1607 H 154.316 -1.70569 -3.62915 0
M  V30 1608 H 150.906 -3.01534 -3.0459 0
M  V30 1609 H 155.09 -3.99133 -2.94969 0
M  V30 1610 H 150.346 -5.40194 -2.86358 0
M  V30 1611 H 154.52 -6.38561 -2.77872 0
M  V30 1612 H 152.147 -7.09457 -2.73084 0
M  V30 1613 N 153.722 1.14298 -1.08507 0
M  V30 1614 C 154.685 2.17607 -0.719711 0
M  V30 1615 C 155.685 1.58907 0.245997 0
M  V30 1616 O 156.875 1.74181 0.0254081 0
M  V30 1617 C 154.007 3.40842 -0.0627695 0
M  V30 1618 H 155.2 2.51443 -1.63452 0
M  V30 1619 H 152.753 1.28963 -0.88307 0
M  V30 1620 H 153.488 3.12587 0.863716 0
M  V30 1621 H 153.273 3.84713 -0.757504 0
M  V30 1622 H 154.763 4.17221 0.177786 0
M  V30 1623 N 155.201 0.870884 1.31352 0
M  V30 1624 C 156.447 0.482987 1.96965 0
M  V30 1625 C 156.78 -0.962462 1.68672 0
M  V30 1626 O 156.055 -1.6779 0.98371 0
M  V30 1627 C 156.338 0.741752 3.52378 0
M  V30 1628 C 156.191 2.2368 3.9024 0
M  V30 1629 C 157.51 0.208838 4.39604 0
M  V30 1630 H 154.629 0.176955 0.715441 0
M  V30 1631 H 157.271 1.09229 1.55464 0
M  V30 1632 H 155.421 0.223149 3.87859 0
M  V30 1633 H 157.093 2.82273 3.64856 0
M  V30 1634 H 155.336 2.70901 3.38814 0
M  V30 1635 H 156.007 2.3685 4.98604 0
M  V30 1636 H 158.483 0.652529 4.10952 0
M  V30 1637 H 157.359 0.419336 5.47296 0
M  V30 1638 H 157.62 -0.889275 4.33064 0
M  V30 1639 N 156.679 -1.44442 0.630414 0
M  V30 1640 C 157.927 -2.01653 0.134351 0
M  V30 1641 C 158.248 -1.49836 -1.24796 0
M  V30 1642 O 157.518 -0.701684 -1.82902 0
M  V30 1643 H 156.098 -0.74554 0.0466769 0
M  V30 1644 H 158.76 -1.76952 0.816955 0
M  V30 1645 H 157.856 -3.11935 0.101498 0
M  V30 1646 N 158.157 -0.370918 -1.53173 0
M  V30 1647 C 159.405 0.216673 -2.00935 0
M  V30 1648 C 159.726 1.48845 -1.25977 0
M  V30 1649 O 158.996 1.92286 -0.374551 0
M  V30 1650 H 157.576 0.0830565 -0.742368 0
M  V30 1651 H 160.238 -0.49838 -1.8842 0
M  V30 1652 H 159.334 0.439893 -3.08984 0
M  V30 1653 N 159.635 1.57281 -0.100228 0
M  V30 1654 C 160.568 2.09976 0.893612 0
M  V30 1655 C 161.546 1.01155 1.27304 0
M  V30 1656 O 162.73 1.28687 1.37739 0
M  V30 1657 C 159.857 2.58098 2.19324 0
M  V30 1658 C 158.903 3.78626 1.96328 0
M  V30 1659 S 159.736 5.21959 1.19662 0
M  V30 1660 C 160.892 5.73435 2.50844 0
M  V30 1661 H 161.125 2.93946 0.44534 0
M  V30 1662 H 158.658 1.53985 0.113167 0
M  V30 1663 H 160.616 2.8648 2.94005 0
M  V30 1664 H 159.277 1.74344 2.61272 0
M  V30 1665 H 158.47 4.10382 2.92579 0
M  V30 1666 H 158.072 3.50763 1.29775 0
M  V30 1667 H 160.364 5.82015 3.46792 0
M  V30 1668 H 161.307 6.7185 2.23659 0
M  V30 1669 H 161.715 5.01395 2.59352 0
M  V30 1670 N 161.113 -0.173488 1.56642 0
M  V30 1671 C 162.341 -0.906095 1.86004 0
M  V30 1672 C 162.756 -1.75921 0.685355 0
M  V30 1673 O 162.113 -1.79198 -0.345578 0
M  V30 1674 C 162.164 -1.78462 3.14378 0
M  V30 1675 O 161.885 -0.965914 4.27319 0
M  V30 1676 C 163.386 -2.62707 3.57071 0
M  V30 1677 H 160.606 -0.263341 0.617165 0
M  V30 1678 H 163.15 -0.174236 2.03756 0
M  V30 1679 H 161.305 -2.46984 2.98459 0
M  V30 1680 H 161.719 -1.56655 5.00559 0
M  V30 1681 H 163.193 -3.19969 4.49804 0
M  V30 1682 H 163.67 -3.37472 2.81086 0
M  V30 1683 H 164.276 -1.99521 3.75595 0
M  V30 1684 N 162.591 -1.51276 -0.441967 0
M  V30 1685 C 163.554 -1.7167 -1.51862 0
M  V30 1686 C 164.554 -0.586793 -1.49711 0
M  V30 1687 O 165.744 -0.854276 -1.51815 0
M  V30 1688 C 162.876 -1.76889 -2.91416 0
M  V30 1689 H 164.069 -2.67754 -1.35084 0
M  V30 1690 H 161.622 -1.41196 -0.670333 0
M  V30 1691 H 162.357 -0.826026 -3.13604 0
M  V30 1692 H 162.142 -2.59001 -2.94382 0
M  V30 1693 H 163.632 -1.94522 -3.69528 0
M  V30 1694 N 164.069 0.697108 -1.41344 0
M  V30 1695 C 165.294 1.49096 -1.44171 0
M  V30 1696 C 165.719 1.88038 -0.0481568 0
M  V30 1697 O 165.077 1.54525 0.948243 0
M  V30 1698 C 165.125 2.73088 -2.3549 0
M  V30 1699 O 164.229 3.70514 -1.81088 0
M  V30 1700 H 163.57 0.448801 -0.489361 0
M  V30 1701 H 166.1 0.856992 -1.85787 0
M  V30 1702 H 166.11 3.21413 -2.51312 0
M  V30 1703 H 164.785 2.44081 -3.36745 0
M  V30 1704 H 163.362 3.29441 -1.74708 0
M  V30 1705 N 165.547 1.27147 0.931209 0
M  V30 1706 C 166.794 1.13278 1.67852 0
M  V30 1707 C 167.122 -0.32204 1.91815 0
M  V30 1708 O 166.377 -1.25224 1.50391 0
M  V30 1709 C 166.676 1.8579 3.05314 0
M  V30 1710 C 166.342 3.35657 3.01073 0
M  V30 1711 C 165.004 3.76536 2.99623 0
M  V30 1712 C 167.356 4.31299 2.92627 0
M  V30 1713 C 164.684 5.11426 2.87506 0
M  V30 1714 C 167.036 5.66242 2.82051 0
M  V30 1715 C 165.7 6.06418 2.7895 0
M  V30 1716 H 164.97 0.414515 0.614214 0
M  V30 1717 H 167.617 1.57712 1.08624 0
M  V30 1718 H 165.922 1.33854 3.68226 0
M  V30 1719 H 167.619 1.72491 3.62005 0
M  V30 1720 H 164.209 3.03146 3.02986 0
M  V30 1721 H 168.393 4.00692 2.92848 0
M  V30 1722 H 163.649 5.41705 2.83489 0
M  V30 1723 H 167.823 6.40026 2.74481 0
M  V30 1724 H 165.45 7.10895 2.69318 0
M  V30 1725 N 167.025 -1.13721 1.09112 0
M  V30 1726 C 168.272 -1.84924 0.825192 0
M  V30 1727 C 168.6 -1.83347 -0.649151 0
M  V30 1728 O 167.855 -1.26449 -1.49362 0
M  V30 1729 C 168.154 -3.32861 1.30146 0
M  V30 1730 C 167.82 -3.54621 2.78486 0
M  V30 1731 C 166.482 -3.60268 3.18999 0
M  V30 1732 C 168.834 -3.62855 3.74146 0
M  V30 1733 C 166.162 -3.71679 4.53951 0
M  V30 1734 C 168.514 -3.75793 5.08883 0
M  V30 1735 C 167.178 -3.79692 5.4899 0
M  V30 1736 H 166.448 -0.676684 0.301959 0
M  V30 1737 H 169.095 -1.3428 1.36533 0
M  V30 1738 H 167.4 -3.85835 0.681064 0
M  V30 1739 H 169.097 -3.86395 1.07236 0
M  V30 1740 H 165.687 -3.50879 2.46134 0
M  V30 1741 H 169.871 -3.57775 3.43963 0
M  V30 1742 H 165.127 -3.72963 4.84467 0
M  V30 1743 H 169.301 -3.81107 5.82864 0
M  V30 1744 H 166.928 -3.88287 6.53558 0
M  V30 1745 N 168.503 -0.877838 -1.30888 0
M  V30 1746 C 169.751 -0.491723 -1.96027 0
M  V30 1747 C 170.072 0.960827 -1.69685 0
M  V30 1748 O 169.342 1.67462 -1.01654 0
M  V30 1749 H 167.922 -0.17885 -0.725273 0
M  V30 1750 H 170.584 -1.11935 -1.59551 0
M  V30 1751 H 169.68 -0.656016 -3.05128 0
M  V30 1752 N 169.982 1.44106 -0.638065 0
M  V30 1753 C 171.23 2.01579 -0.145043 0
M  V30 1754 C 171.551 1.50496 1.24 0
M  V30 1755 O 170.821 0.711374 1.82527 0
M  V30 1756 H 169.401 0.745282 -0.05063 0
M  V30 1757 H 172.063 1.76516 -0.826327 0
M  V30 1758 H 171.159 3.11877 -0.118039 0
M  V30 1759 N 171.46 0.379036 1.52974 0
M  V30 1760 C 172.706 -0.199244 2.02422 0
M  V30 1761 C 173.061 -1.4532 1.26095 0
M  V30 1762 O 172.354 -1.88377 0.34996 0
M  V30 1763 C 172.548 -0.53096 3.53434 0
M  V30 1764 C 172.377 0.689298 4.44386 0
M  V30 1765 C 171.147 1.20546 4.9071 0
M  V30 1766 C 173.345 1.55856 4.90116 0
M  V30 1767 N 171.327 2.38434 5.65705 0
M  V30 1768 C 172.698 2.58396 5.63588 0
M  V30 1769 C 174.753 1.57986 4.7217 0
M  V30 1770 C 173.456 3.62939 6.21022 0
M  V30 1771 C 175.482 2.6143 5.30479 0
M  V30 1772 C 174.844 3.62693 6.03849 0
M  V30 1773 H 170.943 -0.0352671 0.781204 0
M  V30 1774 H 173.527 0.526614 1.87443 0
M  V30 1775 H 171.698 -1.22588 3.68547 0
M  V30 1776 H 173.43 -1.0955 3.89591 0
M  V30 1777 H 170.185 0.768022 4.67331 0
M  V30 1778 H 170.609 2.98055 6.07859 0
M  V30 1779 H 175.251 0.810475 4.14959 0
M  V30 1780 H 172.969 4.40751 6.77321 0
M  V30 1781 H 176.555 2.63949 5.18481 0
M  V30 1782 H 175.435 4.41424 6.48163 0
M  V30 1783 N 172.938 -1.57226 0.108567 0
M  V30 1784 C 173.868 -2.17778 -0.84232 0
M  V30 1785 C 174.849 -1.11487 -1.2847 0
M  V30 1786 O 176.034 -1.39681 -1.34918 0
M  V30 1787 C 173.164 -2.76888 -2.09644 0
M  V30 1788 C 172.118 -3.88669 -1.79221 0
M  V30 1789 C 171.444 -4.34541 -3.11574 0
M  V30 1790 C 172.744 -5.11251 -1.06864 0
M  V30 1791 H 174.438 -2.97489 -0.337774 0
M  V30 1792 H 171.984 -1.43097 -0.161025 0
M  V30 1793 H 173.937 -3.17904 -2.76614 0
M  V30 1794 H 172.661 -1.94451 -2.62405 0
M  V30 1795 H 171.32 -3.48213 -1.14644 0
M  V30 1796 H 170.968 -3.48977 -3.62249 0
M  V30 1797 H 170.668 -5.09914 -2.91996 0
M  V30 1798 H 172.192 -4.782 -3.7968 0
M  V30 1799 H 173.606 -5.49352 -1.63968 0
M  V30 1800 H 172.003 -5.9214 -0.974178 0
M  V30 1801 H 173.073 -4.8487 -0.0536168 0
M  V30 1802 N 174.416 0.165178 -1.56732 0
M  V30 1803 C 175.664 0.879068 -1.8198 0
M  V30 1804 C 175.985 1.82514 -0.686561 0
M  V30 1805 O 175.255 1.93694 0.293146 0
M  V30 1806 H 173.835 0.327608 -0.671329 0
M  V30 1807 H 176.497 0.163526 -1.94213 0
M  V30 1808 H 175.593 1.45228 -2.76252 0
M  V30 1809 N 175.894 1.51508 0.433938 0
M  V30 1810 C 177.171 1.54888 1.19453 0
M  V30 1811 C 177.551 0.315154 2.08734 0
M  V30 1812 O 176.899 -0.699558 2.17528 0
M  V30 1813 C 177.109 2.86467 1.99342 0
M  V30 1814 C 178.457 3.38545 2.56267 0
M  V30 1815 O 179.481 2.88041 2.0955 0
M  V30 1816 O 178.34 4.26675 3.41483 0
M  V30 1817 H 175.434 0.622863 0.544032 0
M  V30 1818 H 177.98 1.63823 0.442732 0
M  V30 1819 H 176.752 3.67718 1.33788 0
M  V30 1820 H 176.375 2.8071 2.8158 0
M  V30 1821 N 177.372 -0.689602 1.41712 0
M  V30 1822 C 178.6 -1.47827 1.44758 0
M  V30 1823 C 179.015 -1.88721 0.0545703 0
M  V30 1824 O 178.372 -1.57176 -0.927463 0
M  V30 1825 C 178.423 -2.73698 2.3616 0
M  V30 1826 O 178.144 -2.34524 3.7004 0
M  V30 1827 C 179.645 -3.67389 2.48072 0
M  V30 1828 H 176.865 -0.455357 0.49284 0
M  V30 1829 H 179.409 -0.848574 1.86063 0
M  V30 1830 H 177.564 -3.32891 1.98148 0
M  V30 1831 H 177.978 -3.15701 4.18847 0
M  V30 1832 H 179.452 -4.52475 3.16181 0
M  V30 1833 H 179.929 -4.12284 1.51388 0
M  V30 1834 H 180.535 -3.14097 2.86746 0
M  V30 1835 N 178.85 -1.27639 -0.924453 0
M  V30 1836 C 179.78 -1.13166 -2.04244 0
M  V30 1837 C 180.761 -0.032256 -1.70069 0
M  V30 1838 O 181.946 -0.207328 -1.9309 0
M  V30 1839 C 179.076 -0.781496 -3.38393 0
M  V30 1840 C 178.03 -1.83449 -3.86692 0
M  V30 1841 C 177.356 -1.33822 -5.17683 0
M  V30 1842 C 178.656 -3.23917 -4.09726 0
M  V30 1843 H 180.35 -2.06689 -2.1661 0
M  V30 1844 H 177.896 -0.995136 -1.04082 0
M  V30 1845 H 179.849 -0.667057 -4.16087 0
M  V30 1846 H 178.573 0.189439 -3.2605 0
M  V30 1847 H 177.232 -1.93789 -3.11193 0
M  V30 1848 H 176.88 -0.35665 -5.01734 0
M  V30 1849 H 176.58 -2.04224 -5.50968 0
M  V30 1850 H 178.104 -1.23679 -5.97943 0
M  V30 1851 H 179.518 -3.16559 -4.77978 0
M  V30 1852 H 177.915 -3.92059 -4.54324 0
M  V30 1853 H 178.985 -3.68729 -3.14908 0
M  V30 1854 N 180.328 1.1314 -1.09713 0
M  V30 1855 C 181.576 1.84119 -0.833338 0
M  V30 1856 C 181.897 1.84097 0.642904 0
M  V30 1857 O 181.167 1.29881 1.46655 0
M  V30 1858 H 179.747 0.681766 -0.305293 0
M  V30 1859 H 182.409 1.37038 -1.38588 0
M  V30 1860 H 181.505 2.88543 -1.18951 0
M  V30 1861 N 181.806 0.884767 1.30421 0
M  V30 1862 C 183.222 0.57874 1.48737 0
M  V30 1863 C 183.422 -0.883567 1.81095 0
M  V30 1864 O 182.478 -1.6648 1.89844 0
M  V30 1865 C 183.791 1.49171 2.61091 0
M  V30 1866 C 185.339 1.49532 2.74971 0
M  V30 1867 C 185.814 2.39421 3.90438 0
M  V30 1868 N 187.305 2.37383 3.97748 0
M  V30 1869 C 188.04 3.03647 4.86401 0
M  V30 1870 N 187.536 3.79136 5.79852 0
M  V30 1871 N 189.329 2.9288 4.79768 0
M  V30 1872 H 181.48 1.83075 1.0769 0
M  V30 1873 H 183.743 0.783637 0.533495 0
M  V30 1874 H 183.449 2.53291 2.44001 0
M  V30 1875 H 183.323 1.20113 3.57565 0
M  V30 1876 H 185.71 0.46163 2.91467 0
M  V30 1877 H 185.791 1.8262 1.79119 0
M  V30 1878 H 185.435 3.42874 3.74699 0
M  V30 1879 H 185.365 2.03649 4.85628 0
M  V30 1880 H 187.856 1.82525 3.30897 0
M  V30 1881 H 188.169 4.26789 6.4426 0
M  V30 1882 H 186.514 3.83243 5.79784 0
M  V30 1883 H 189.705 2.33433 4.05742 0
M  V30 1884 H 189.878 3.448 5.4865 0
M  V30 1885 N 183.284 -1.43765 0.645699 0
M  V30 1886 C 184.533 -2.01116 0.153412 0
M  V30 1887 C 184.846 -1.51493 -1.23731 0
M  V30 1888 O 186.052 -2.01067 -1.8244 0
M  V30 1889 C 184.508 -3.59206 0.223473 0
M  V30 1890 C 184.116 -4.17823 1.61642 0
M  V30 1891 C 185.86 -4.23972 -0.211597 0
M  V30 1892 C 183.767 -5.68183 1.64081 0
M  V30 1893 H 182.697 -0.752093 0.0535891 0
M  V30 1894 H 185.348 -1.6482 0.806633 0
M  V30 1895 H 183.73 -3.92867 -0.497118 0
M  V30 1896 H 184.904 -3.95674 2.36176 0
M  V30 1897 H 183.219 -3.65399 1.99681 0
M  V30 1898 H 185.816 -5.34275 -0.213112 0
M  V30 1899 H 186.159 -3.97352 -1.24165 0
M  V30 1900 H 186.692 -3.95166 0.456988 0
M  V30 1901 H 183.431 -5.99559 2.64971 0
M  V30 1902 H 182.951 -5.9241 0.938611 0
M  V30 1903 H 184.63 -6.32085 1.3812 0
M  V30 1904 N 184.763 -0.387143 -1.52771 0
M  V30 1905 C 185.71 0.449048 -2.26389 0
M  V30 1906 C 186.68 1.05961 -1.27912 0
M  V30 1907 O 187.865 1.08804 -1.56737 0
M  V30 1908 C 185.005 1.57155 -3.0724 0
M  V30 1909 C 184.118 0.984066 -4.20643 0
M  V30 1910 C 183.253 2.07745 -4.88892 0
M  V30 1911 C 182.292 1.46574 -5.94292 0
M  V30 1912 N 181.429 2.49834 -6.56146 0
M  V30 1913 H 186.269 -0.185205 -2.97424 0
M  V30 1914 H 183.806 -0.103164 -1.46738 0
M  V30 1915 H 185.764 2.23309 -3.52405 0
M  V30 1916 H 184.394 2.17615 -2.38419 0
M  V30 1917 H 183.446 0.212193 -3.79808 0
M  V30 1918 H 184.758 0.497029 -4.96318 0
M  V30 1919 H 183.912 2.81673 -5.3735 0
M  V30 1920 H 182.651 2.59807 -4.12737 0
M  V30 1921 H 181.656 0.711696 -5.45174 0
M  V30 1922 H 182.881 0.953088 -6.72379 0
M  V30 1923 H 180.827 3.0107 -5.82832 0
M  V30 1924 H 180.744 2.05879 -7.27427 0
M  V30 1925 H 182.012 3.23399 -7.09249 0
M  V30 1926 N 186.241 1.57166 -0.116904 0
M  V30 1927 C 187.204 2.14039 0.819742 0
M  V30 1928 C 188.204 1.07477 1.19605 0
M  V30 1929 O 189.394 1.33263 1.1219 0
M  V30 1930 C 186.526 2.67891 2.10826 0
M  V30 1931 H 187.719 2.98128 0.325511 0
M  V30 1932 H 185.272 1.55739 0.132312 0
M  V30 1933 H 186.007 1.87384 2.64685 0
M  V30 1934 H 185.792 3.45823 1.84793 0
M  V30 1935 H 187.282 3.11809 2.77785 0
M  V30 1936 N 187.719 -0.156864 1.56817 0
M  V30 1937 C 188.652 -1.22316 1.9265 0
M  V30 1938 C 189.63 -1.42059 0.791076 0
M  V30 1939 O 190.814 -1.56831 1.04576 0
M  V30 1940 C 187.941 -2.58375 2.18998 0
M  V30 1941 C 186.987 -2.55284 3.41661 0
M  V30 1942 S 187.82 -2.02946 4.95553 0
M  V30 1943 C 188.976 -3.40753 5.25013 0
M  V30 1944 H 189.209 -0.917403 2.82791 0
M  V30 1945 H 186.742 -0.362059 1.50095 0
M  V30 1946 H 188.7 -3.36677 2.34859 0
M  V30 1947 H 187.361 -2.86145 1.29538 0
M  V30 1948 H 186.554 -3.55418 3.57343 0
M  V30 1949 H 186.156 -1.85086 3.24991 0
M  V30 1950 H 188.448 -4.36819 5.17876 0
M  V30 1951 H 189.391 -3.29933 6.26538 0
M  V30 1952 H 189.799 -3.37433 4.52548 0
M  V30 1953 N 189.197 -1.51736 -0.425897 0
M  V30 1954 C 190.127 -1.76827 -1.52494 0
M  V30 1955 C 191.108 -0.618524 -1.58456 0
M  V30 1956 O 192.293 -0.862416 -1.74 0
M  V30 1957 C 189.423 -1.90374 -2.90474 0
M  V30 1958 C 188.377 -3.0588 -2.99369 0
M  V30 1959 C 187.703 -3.04625 -4.3944 0
M  V30 1960 C 189.003 -4.45644 -2.72394 0
M  V30 1961 H 190.697 -2.68855 -1.31748 0
M  V30 1962 H 188.243 -1.29372 -0.632362 0
M  V30 1963 H 190.196 -2.0651 -3.6733 0
M  V30 1964 H 188.92 -0.95004 -3.12477 0
M  V30 1965 H 187.579 -2.89467 -2.24954 0
M  V30 1966 H 187.227 -2.0701 -4.58428 0
M  V30 1967 H 186.927 -3.82195 -4.46319 0
M  V30 1968 H 188.451 -3.22869 -5.18255 0
M  V30 1969 H 189.865 -4.62348 -3.38979 0
M  V30 1970 H 188.262 -5.25006 -2.9067 0
M  V30 1971 H 189.332 -4.54893 -1.67929 0
M  V30 1972 N 190.675 0.682077 -1.42076 0
M  V30 1973 C 191.921 1.44428 -1.42367 0
M  V30 1974 C 192.254 1.94164 -0.0373056 0
M  V30 1975 O 191.529 1.70429 0.937239 0
M  V30 1976 C 191.812 2.64654 -2.44194 0
M  V30 1977 C 191.665 2.20596 -3.91991 0
M  V30 1978 C 192.984 3.66865 -2.431 0
M  V30 1979 H 190.103 0.523834 -0.518428 0
M  V30 1980 H 192.745 0.77576 -1.73442 0
M  V30 1981 H 190.895 3.2169 -2.17826 0
M  V30 1982 H 192.567 1.68783 -4.29313 0
M  V30 1983 H 190.81 1.52242 -4.06208 0
M  V30 1984 H 191.481 3.06921 -4.58807 0
M  V30 1985 H 193.957 3.19531 -2.66532 0
M  V30 1986 H 192.833 4.48577 -3.16339 0
M  V30 1987 H 193.094 4.17493 -1.45437 0
M  V30 1988 N 192.153 1.28127 0.917671 0
M  V30 1989 C 193.116 1.11744 2.00115 0
M  V30 1990 C 194.116 0.0583052 1.60694 0
M  V30 1991 O 195.306 0.303755 1.71531 0
M  V30 1992 C 192.438 0.704862 3.33533 0
M  V30 1993 H 193.631 2.07966 2.16079 0
M  V30 1994 H 191.184 1.11058 1.09981 0
M  V30 1995 H 191.919 -0.258299 3.2327 0
M  V30 1996 H 191.704 1.4699 3.63505 0
M  V30 1997 H 193.194 0.612768 4.1308 0
M  V30 1998 N 193.631 -1.12557 1.10312 0
M  V30 1999 C 194.579 -2.20325 0.745629 0
M  V30 2000 C 195.573 -1.67429 -0.25763 0
M  V30 2001 O 196.779 -1.79612 -0.118132 0
M  V30 2002 H 193.154 -0.718118 0.223182 0
M  V30 2003 H 195.125 -2.47733 1.66346 0
M  V30 2004 C 193.874 -3.47168 0.192262 0
M  V30 2005 H 193.197 -3.88215 0.955475 0
M  V30 2006 H 194.637 -4.23995 -0.0198274 0
M  V30 2007 C 193.096 -3.19298 -1.07472 0
M  V30 2008 O 193.626 -3.3891 -2.15645 0
M  V30 2009 N 191.832 -2.73113 -0.992847 0
M  V30 2010 H 191.379 -2.57354 -0.112474 0
M  V30 2011 H 191.337 -2.54842 -1.84127 0
M  V30 2012 N 195.109 -0.891671 -1.2995 0
M  V30 2013 C 196.358 -0.509521 -1.95158 0
M  V30 2014 C 196.671 0.947388 -1.71125 0
M  V30 2015 O 197.877 1.43669 -2.30372 0
M  V30 2016 C 196.333 -0.860315 -3.49466 0
M  V30 2017 C 195.941 -2.33545 -3.8231 0
M  V30 2018 C 197.685 -0.547687 -4.20952 0
M  V30 2019 C 195.592 -2.62752 -5.29826 0
M  V30 2020 H 194.522 -0.18682 -0.730489 0
M  V30 2021 H 197.173 -1.08756 -1.47798 0
M  V30 2022 H 195.555 -0.211285 -3.95436 0
M  V30 2023 H 196.729 -3.02936 -3.47227 0
M  V30 2024 H 195.044 -2.61629 -3.23944 0
M  V30 2025 H 197.641 -0.742854 -5.29515 0
M  V30 2026 H 197.984 0.51332 -4.13123 0
M  V30 2027 H 198.517 -1.1542 -3.80688 0
M  V30 2028 H 195.256 -3.6762 -5.42712 0
M  V30 2029 H 194.776 -1.97977 -5.66185 0
M  V30 2030 H 196.455 -2.48601 -5.97333 0
M  V30 2031 N 196.587 1.43421 -0.653314 0
M  V30 2032 C 197.517 2.33487 0.0246656 0
M  V30 2033 C 198.498 1.49475 0.811863 0
M  V30 2034 O 199.683 1.78139 0.773322 0
M  V30 2035 C 196.813 3.32841 0.99166 0
M  V30 2036 C 195.767 4.26842 0.314568 0
M  V30 2037 C 195.093 5.16236 1.39302 0
M  V30 2038 C 196.393 5.16243 -0.793095 0
M  V30 2039 H 198.087 2.90427 -0.727481 0
M  V30 2040 H 195.633 1.39649 -0.351287 0
M  V30 2041 H 197.586 3.94747 1.47487 0
M  V30 2042 H 196.31 2.74158 1.77497 0
M  V30 2043 H 194.969 3.663 -0.148199 0
M  V30 2044 H 194.617 4.53891 2.16776 0
M  V30 2045 H 194.317 5.79948 0.945223 0
M  V30 2046 H 195.841 5.81015 1.87759 0
M  V30 2047 H 197.255 5.71958 -0.392039 0
M  V30 2048 H 195.652 5.88676 -1.16536 0
M  V30 2049 H 196.722 4.55927 -1.65103 0
M  V30 2050 N 198.065 0.39524 1.52563 0
M  V30 2051 C 199.29 -0.187456 2.06551 0
M  V30 2052 C 199.715 -1.39249 1.26457 0
M  V30 2053 O 199.073 -1.78947 0.291151 0
M  V30 2054 C 199.121 -0.529985 3.56684 0
M  V30 2055 O 198.225 -1.62307 3.79118 0
M  V30 2056 H 197.566 -0.0202537 0.663691 0
M  V30 2057 H 200.096 0.564426 1.96661 0
M  V30 2058 H 200.106 -0.792598 4.00227 0
M  V30 2059 H 198.781 0.350987 4.14416 0
M  V30 2060 H 197.358 -1.3537 3.47461 0
M  V30 2061 N 199.544 -1.57102 0.125237 0
M  V30 2062 C 200.474 -2.18659 -0.819174 0
M  V30 2063 C 201.455 -1.12843 -1.27281 0
M  V30 2064 O 202.64 -1.41104 -1.33429 0
M  V30 2065 C 199.77 -2.79096 -2.06695 0
M  V30 2066 C 198.724 -3.90548 -1.75088 0
M  V30 2067 C 198.05 -4.37821 -3.06948 0
M  V30 2068 C 199.35 -5.12356 -1.01435 0
M  V30 2069 H 201.044 -2.9783 -0.306202 0
M  V30 2070 H 198.59 -1.4326 -0.145839 0
M  V30 2071 H 200.543 -3.2082 -2.73226 0
M  V30 2072 H 199.267 -1.97223 -2.60328 0
M  V30 2073 H 197.926 -3.49409 -1.10944 0
M  V30 2074 H 197.574 -3.52799 -3.58527 0
M  V30 2075 H 197.274 -5.12982 -2.86571 0
M  V30 2076 H 198.798 -4.822 -3.74587 0
M  V30 2077 H 200.212 -5.5106 -1.58132 0
M  V30 2078 H 198.609 -5.9314 -0.911319 0
M  V30 2079 H 199.679 -4.849 -0.00218681 0
M  V30 2080 N 201.022 0.148545 -1.56898 0
M  V30 2081 C 202.268 0.862694 -1.83536 0
M  V30 2082 C 202.601 1.80889 -0.706604 0
M  V30 2083 O 201.876 1.92328 0.289885 0
M  V30 2084 C 202.159 1.63853 -3.20662 0
M  V30 2085 C 202.012 0.713925 -4.44098 0
M  V30 2086 C 203.331 2.60133 -3.54991 0
M  V30 2087 H 200.45 0.312179 -0.667618 0
M  V30 2088 H 203.092 0.127953 -1.89569 0
M  V30 2089 H 201.242 2.26489 -3.1565 0
M  V30 2090 H 202.914 0.098686 -4.61194 0
M  V30 2091 H 201.157 0.0234019 -4.33794 0
M  V30 2092 H 201.828 1.29278 -5.36648 0
M  V30 2093 H 204.304 2.07616 -3.60603 0
M  V30 2094 H 203.18 3.11468 -4.51972 0
M  V30 2095 H 203.441 3.41417 -2.80868 0
M  V30 2096 N 202.5 1.5196 0.417844 0
M  V30 2097 C 203.748 1.65263 1.16329 0
M  V30 2098 C 204.069 0.380634 1.91249 0
M  V30 2099 O 203.339 -0.604214 1.86349 0
M  V30 2100 H 201.919 0.60912 0.432414 0
M  V30 2101 H 204.581 1.88969 0.477162 0
M  V30 2102 H 203.677 2.4896 1.88217 0
M  V30 2103 N 203.978 -0.674533 1.42435 0
M  V30 2104 C 204.941 -1.76986 1.45632 0
M  V30 2105 C 205.941 -1.5708 0.343871 0
M  V30 2106 O 207.131 -1.63367 0.604709 0
M  V30 2107 C 204.263 -3.15623 1.28822 0
M  V30 2108 H 205.456 -1.75539 2.43158 0
M  V30 2109 H 203.009 -0.884189 1.28887 0
M  V30 2110 H 203.744 -3.22696 0.322193 0
M  V30 2111 H 203.529 -3.31475 2.09444 0
M  V30 2112 H 205.019 -3.95537 1.33942 0
M  V30 2113 N 205.456 -1.28612 -0.910864 0
M  V30 2114 C 206.386 -1.15326 -2.03032 0
M  V30 2115 C 207.367 -0.0502924 -1.70026 0
M  V30 2116 O 208.552 -0.227797 -1.92859 0
M  V30 2117 C 205.682 -0.817343 -3.37545 0
M  V30 2118 C 204.636 -1.8754 -3.84724 0
M  V30 2119 C 203.962 -1.39305 -5.16235 0
M  V30 2120 C 205.262 -3.28244 -4.06267 0
M  V30 2121 H 206.956 -2.08975 -2.14406 0
M  V30 2122 H 204.502 -1.00612 -1.03021 0
M  V30 2123 H 206.455 -0.711151 -4.15356 0
M  V30 2124 H 205.179 0.154846 -3.26233 0
M  V30 2125 H 203.838 -1.97079 -3.09121 0
M  V30 2126 H 203.486 -0.409846 -5.01328 0
M  V30 2127 H 203.186 -2.10057 -5.48771 0
M  V30 2128 H 204.71 -1.30014 -5.96598 0
M  V30 2129 H 206.124 -3.21611 -4.74594 0
M  V30 2130 H 204.521 -3.96855 -4.5014 0
M  V30 2131 H 205.591 -3.72048 -3.10979 0
M  V30 2132 N 206.934 1.1197 -1.10907 0
M  V30 2133 C 207.864 2.19928 -0.784473 0
M  V30 2134 C 208.845 1.6833 0.244726 0
M  V30 2135 O 210.03 1.93892 0.109418 0
M  V30 2136 C 207.16 3.46597 -0.220827 0
M  V30 2137 C 206.114 4.11376 -1.18127 0
M  V30 2138 C 205.44 5.32554 -0.478594 0
M  V30 2139 C 206.74 4.56945 -2.52979 0
M  V30 2140 H 208.434 2.47337 -1.68715 0
M  V30 2141 H 205.98 1.18879 -0.812642 0
M  V30 2142 H 207.933 4.21396 0.0184278 0
M  V30 2143 H 206.657 3.1863 0.717113 0
M  V30 2144 H 205.316 3.38564 -1.40606 0
M  V30 2145 H 204.964 5.00856 0.463976 0
M  V30 2146 H 204.664 5.76844 -1.11912 0
M  V30 2147 H 206.188 6.10096 -0.248 0
M  V30 2148 H 207.602 5.23093 -2.3462 0
M  V30 2149 H 205.999 5.1203 -3.12962 0
M  V30 2150 H 207.069 3.70676 -3.12614 0
M  V30 2151 N 208.412 0.89855 1.29475 0
M  V30 2152 C 209.345 0.319981 2.25945 0
M  V30 2153 C 210.323 -0.567189 1.52387 0
M  V30 2154 O 211.507 -0.514254 1.8135 0
M  V30 2155 C 208.634 -0.544013 3.34303 0
M  V30 2156 C 207.68 0.275682 4.25608 0
M  V30 2157 S 208.513 1.67272 5.08704 0
M  V30 2158 C 209.669 0.815621 6.20563 0
M  V30 2159 H 209.902 1.13767 2.74671 0
M  V30 2160 H 207.435 0.69882 1.3768 0
M  V30 2161 H 209.393 -1.03673 3.97193 0
M  V30 2162 H 208.054 -1.33593 2.84274 0
M  V30 2163 H 207.247 -0.384263 5.02533 0
M  V30 2164 H 206.849 0.701496 3.67362 0
M  V30 2165 H 209.141 0.0385042 6.77489 0
M  V30 2166 H 210.084 1.55691 6.90772 0
M  V30 2167 H 210.492 0.370516 5.63283 0
M  V30 2168 N 209.89 -1.43072 0.660911 0
M  V30 2169 C 211.138 -2.01323 0.177094 0
M  V30 2170 C 211.459 -1.5245 -1.2159 0
M  V30 2171 O 210.729 -0.740322 -1.81373 0
M  V30 2172 H 209.309 -0.744382 0.0624804 0
M  V30 2173 H 211.971 -1.75179 0.854305 0
M  V30 2174 H 211.067 -3.11649 0.167641 0
M  V30 2175 N 211.368 -0.403325 -1.52352 0
M  V30 2176 C 212.615 0.174347 -2.01748 0
M  V30 2177 C 212.943 1.45636 -1.2892 0
M  V30 2178 O 212.198 1.9193 -0.382258 0
M  V30 2179 C 212.497 0.474665 -3.54234 0
M  V30 2180 C 212.163 -0.717458 -4.45155 0
M  V30 2181 C 210.825 -1.04447 -4.69728 0
M  V30 2182 C 213.177 -1.51432 -4.98716 0
M  V30 2183 C 210.505 -2.16963 -5.45109 0
M  V30 2184 C 212.857 -2.6302 -5.75329 0
M  V30 2185 C 211.521 -2.96213 -5.98175 0
M  V30 2186 H 210.791 0.0637981 -0.738248 0
M  V30 2187 H 213.438 -0.543553 -1.83624 0
M  V30 2188 H 211.743 1.27406 -3.70506 0
M  V30 2189 H 213.44 0.934496 -3.89959 0
M  V30 2190 H 210.03 -0.452596 -4.26204 0
M  V30 2191 H 214.214 -1.27491 -4.79645 0
M  V30 2192 H 209.47 -2.43034 -5.61021 0
M  V30 2193 H 213.644 -3.25158 -6.15829 0
M  V30 2194 H 211.271 -3.83516 -6.56368 0
M  V30 2195 N 212.846 1.57033 -0.133567 0
M  V30 2196 C 214.071 2.00475 0.531477 0
M  V30 2197 C 214.496 1.01291 1.58499 0
M  V30 2198 O 213.854 -0.0133279 1.81295 0
M  V30 2199 C 213.902 3.42729 1.12113 0
M  V30 2200 O 213.006 3.46498 2.23636 0
M  V30 2201 H 212.347 0.650876 0.131362 0
M  V30 2202 H 214.877 2.03344 -0.22634 0
M  V30 2203 H 214.887 3.81246 1.4531 0
M  V30 2204 H 213.562 4.14428 0.349557 0
M  V30 2205 H 212.139 3.19811 1.91769 0
M  V30 2206 N 214.325 -0.140222 1.56975 0
M  V30 2207 C 215.272 -1.17292 1.98774 0
M  V30 2208 C 216.242 -1.4232 0.856408 0
M  V30 2209 O 217.427 -1.54541 1.119 0
M  V30 2210 C 214.567 -2.49973 2.37923 0
M  V30 2211 C 213.68 -2.32062 3.64378 0
M  V30 2212 C 212.815 -3.57825 3.926 0
M  V30 2213 C 211.854 -3.3498 5.12303 0
M  V30 2214 N 210.991 -4.52891 5.36502 0
M  V30 2215 H 215.831 -0.809472 2.86795 0
M  V30 2216 H 213.368 -0.388237 1.41884 0
M  V30 2217 H 215.326 -3.27346 2.58652 0
M  V30 2218 H 213.956 -2.84252 1.52972 0
M  V30 2219 H 213.008 -1.45711 3.51387 0
M  V30 2220 H 214.32 -2.11145 4.51906 0
M  V30 2221 H 213.474 -4.43624 4.13863 0
M  V30 2222 H 212.213 -3.81753 3.03506 0
M  V30 2223 H 211.218 -2.4757 4.90906 0
M  V30 2224 H 212.443 -3.12444 6.02956 0
M  V30 2225 H 210.389 -4.76979 4.50363 0
M  V30 2226 H 210.306 -4.35001 6.18312 0
M  V30 2227 H 211.574 -5.39884 5.62268 0
M  V30 2228 N 215.803 -1.52179 -0.40978 0
M  V30 2229 C 216.733 -1.78435 -1.5061 0
M  V30 2230 C 217.714 -0.635295 -1.57791 0
M  V30 2231 O 218.899 -0.880823 -1.73076 0
M  V30 2232 C 216.029 -1.93444 -2.88439 0
M  V30 2233 C 214.983 -3.09038 -2.96108 0
M  V30 2234 C 214.309 -3.09268 -4.36185 0
M  V30 2235 C 215.609 -4.48508 -2.67652 0
M  V30 2236 H 217.303 -2.70237 -1.28889 0
M  V30 2237 H 214.849 -1.30036 -0.618605 0
M  V30 2238 H 216.802 -2.10394 -3.65119 0
M  V30 2239 H 215.526 -0.983129 -3.11452 0
M  V30 2240 H 214.185 -2.91837 -2.21872 0
M  V30 2241 H 213.833 -2.11861 -4.56206 0
M  V30 2242 H 213.533 -3.86907 -4.42241 0
M  V30 2243 H 215.057 -3.28348 -5.14801 0
M  V30 2244 H 216.471 -4.65918 -3.34056 0
M  V30 2245 H 214.868 -5.28059 -2.85085 0
M  V30 2246 H 215.938 -4.56649 -1.63095 0
M  V30 2247 N 217.281 0.66697 -1.42791 0
M  V30 2248 C 218.529 1.42417 -1.43394 0
M  V30 2249 C 218.85 1.94925 -0.0542373 0
M  V30 2250 O 218.12 1.73564 0.908415 0
M  V30 2251 H 216.7 0.528515 -0.527902 0
M  V30 2252 H 219.362 0.787562 -1.78279 0
M  V30 2253 H 218.458 2.27333 -2.13837 0
M  V30 2254 N 218.759 1.29093 0.90403 0
M  V30 2255 C 220.17 1.15186 1.46932 0
M  V30 2256 C 220.521 -0.254587 1.94541 0
M  V30 2257 O 219.646 -1.14972 1.83332 0
M  V30 2258 C 220.241 2.08492 2.67051 0
M  V30 2259 C 218.8 1.98621 3.19729 0
M  V30 2260 C 217.947 1.9967 1.92425 0
M  V30 2261 H 220.898 1.41641 0.715789 0
M  V30 2262 H 220.919 1.65461 3.42641 0
M  V30 2263 H 220.431 3.10847 2.3237 0
M  V30 2264 H 218.532 0.993389 3.59114 0
M  V30 2265 H 218.645 2.86068 3.8432 0
M  V30 2266 H 217.009 1.44208 2.09943 0
M  V30 2267 H 217.792 3.03721 1.60026 0
M  V30 2268 N 220.237 -1.11381 1.11499 0
M  V30 2269 C 221.462 -1.87475 0.887019 0
M  V30 2270 C 221.887 -1.79639 -0.557796 0
M  V30 2271 O 221.245 -1.15924 -1.39396 0
M  V30 2272 C 221.293 -3.34213 1.35403 0
M  V30 2273 O 220.397 -4.0903 0.526146 0
M  V30 2274 H 219.738 -0.582099 0.319463 0
M  V30 2275 H 222.268 -1.40785 1.48461 0
M  V30 2276 H 222.278 -3.8506 1.34881 0
M  V30 2277 H 220.953 -3.39232 2.40612 0
M  V30 2278 H 219.53 -3.68082 0.597522 0
M  V30 2279 N 221.715 -0.905404 -1.28997 0
M  V30 2280 C 222.665 -0.358713 -2.25161 0
M  V30 2281 C 223.649 0.524449 -1.52113 0
M  V30 2282 O 224.841 0.365534 -1.73184 0
M  V30 2283 C 221.97 0.407609 -3.40872 0
M  V30 2284 C 221.056 -0.490797 -4.21251 0
M  V30 2285 N 221.447 -1.60061 -4.79806 0
M  V30 2286 C 219.745 -0.289636 -4.45059 0
M  V30 2287 C 220.446 -2.15757 -5.40207 0
M  V30 2288 N 219.422 -1.44988 -5.23908 0
M  V30 2289 H 223.224 -1.20642 -2.67998 0
M  V30 2290 H 220.738 -0.757103 -1.43672 0
M  V30 2291 H 222.735 0.816046 -4.08835 0
M  V30 2292 H 221.395 1.25251 -2.9957 0
M  V30 2293 H 222.406 -1.98329 -4.7842 0
M  V30 2294 H 219.083 0.51643 -4.14294 0
M  V30 2295 H 220.473 -3.09069 -5.96595 0
M  V30 2296 N 223.193 1.4272 -0.668489 0
M  V30 2297 C 224.442 2.00846 -0.185389 0
M  V30 2298 C 224.755 1.53442 1.21305 0
M  V30 2299 O 225.961 2.03944 1.79218 0
M  V30 2300 C 224.417 3.58805 -0.280591 0
M  V30 2301 C 224.025 4.15198 -1.68268 0
M  V30 2302 C 225.769 4.24255 0.14412 0
M  V30 2303 C 223.676 5.655 -1.73099 0
M  V30 2304 H 222.606 0.751145 -0.0655475 0
M  V30 2305 H 225.257 1.63516 -0.832752 0
M  V30 2306 H 223.639 3.93608 0.434553 0
M  V30 2307 H 224.813 3.91866 -2.42441 0
M  V30 2308 H 223.128 3.62176 -2.05469 0
M  V30 2309 H 225.725 5.34547 0.128086 0
M  V30 2310 H 226.068 3.99277 1.17827 0
M  V30 2311 H 226.601 3.94389 -0.519798 0
M  V30 2312 H 223.34 5.95268 -2.74475 0
M  V30 2313 H 222.86 5.90842 -1.03274 0
M  V30 2314 H 224.539 6.29808 -1.48158 0
M  V30 2315 N 224.671 0.411399 1.52136 0
M  V30 2316 C 225.601 -0.404015 2.29978 0
M  V30 2317 C 226.582 -1.04412 1.34284 0
M  V30 2318 O 227.767 -1.0527 1.63192 0
M  V30 2319 C 224.897 -1.5197 3.12286 0
M  V30 2320 C 223.851 -1.00448 4.16046 0
M  V30 2321 C 223.177 -2.21393 4.86712 0
M  V30 2322 C 224.477 -0.0569336 5.22269 0
M  V30 2323 H 226.171 0.245529 2.98392 0
M  V30 2324 H 223.717 0.119525 1.43503 0
M  V30 2325 H 225.67 -2.09715 3.6551 0
M  V30 2326 H 224.394 -2.19716 2.41646 0
M  V30 2327 H 223.053 -0.449421 3.63835 0
M  V30 2328 H 222.701 -2.87699 4.12599 0
M  V30 2329 H 222.401 -1.87571 5.56858 0
M  V30 2330 H 223.925 -2.7974 5.4275 0
M  V30 2331 H 225.339 -0.54325 5.7072 0
M  V30 2332 H 223.736 0.192594 5.99791 0
M  V30 2333 H 224.806 0.887663 4.76706 0
M  V30 2334 N 226.149 -1.5696 0.141893 0
M  V30 2335 C 227.398 -1.95135 -0.510427 0
M  V30 2336 C 227.711 -1.02896 -1.66348 0
M  V30 2337 O 228.917 -1.30629 -2.38009 0
M  V30 2338 C 227.373 -3.46876 -0.959427 0
M  V30 2339 C 226.981 -4.47691 0.166419 0
M  V30 2340 C 228.725 -3.93927 -1.58183 0
M  V30 2341 C 226.632 -5.90636 -0.300565 0
M  V30 2342 H 225.562 -0.728494 -0.194454 0
M  V30 2343 H 228.213 -1.8211 0.22542 0
M  V30 2344 H 226.595 -3.55215 -1.75038 0
M  V30 2345 H 227.769 -4.51043 0.94325 0
M  V30 2346 H 226.084 -4.10527 0.696905 0
M  V30 2347 H 228.681 -4.98158 -1.94275 0
M  V30 2348 H 229.024 -3.3519 -2.46888 0
M  V30 2349 H 229.557 -3.88484 -0.855863 0
M  V30 2350 H 226.296 -6.5318 0.550989 0
M  V30 2351 H 225.816 -5.90655 -1.04338 0
M  V30 2352 H 227.495 -6.42588 -0.754265 0
M  V30 2353 N 227.627 0.131896 -1.57047 0
M  V30 2354 C 228.876 0.84044 -1.83356 0
M  V30 2355 C 229.189 1.81646 -0.725535 0
M  V30 2356 O 230.395 2.57025 -0.874659 0
M  V30 2357 C 228.851 1.54528 -3.25037 0
M  V30 2358 C 228.459 0.610902 -4.43815 0
M  V30 2359 C 230.203 2.23972 -3.60606 0
M  V30 2360 C 228.11 1.31823 -5.76521 0
M  V30 2361 H 227.04 0.317599 -0.683847 0
M  V30 2362 H 229.691 0.0931561 -1.83263 0
M  V30 2363 H 228.073 2.33873 -3.19561 0
M  V30 2364 H 229.247 -0.148407 -4.60561 0
M  V30 2365 H 227.562 0.0241016 -4.16393 0
M  V30 2366 H 230.159 2.77558 -4.57018 0
M  V30 2367 H 230.502 3.01173 -2.87403 0
M  V30 2368 H 231.035 1.51529 -3.6781 0
M  V30 2369 H 227.774 0.587771 -6.52859 0
M  V30 2370 H 227.294 2.04987 -5.63685 0
M  V30 2371 H 228.973 1.855 -6.19838 0
M  V30 2372 N 229.106 1.52395 0.401703 0
M  V30 2373 C 230.069 1.75636 1.47257 0
M  V30 2374 C 231.069 0.62628 1.48103 0
M  V30 2375 O 232.259 0.894227 1.49497 0
M  V30 2376 C 229.391 1.84553 2.86624 0
M  V30 2377 H 230.584 2.71241 1.27938 0
M  V30 2378 H 228.137 1.42923 0.632662 0
M  V30 2379 H 228.872 0.908882 3.11303 0
M  V30 2380 H 228.657 2.66715 2.87412 0
M  V30 2381 H 230.147 2.04251 3.64241 0
M  V30 2382 N 230.584 -0.659388 1.43143 0
M  V30 2383 C 231.832 -1.41654 1.44147 0
M  V30 2384 C 232.153 -1.94893 0.0645739 0
M  V30 2385 O 231.423 -1.74044 -0.899198 0
M  V30 2386 H 230.003 -0.525708 0.530697 0
M  V30 2387 H 232.665 -0.778097 1.78694 0
M  V30 2388 H 231.761 -2.26195 2.1504 0
M  V30 2389 N 232.062 -1.29571 -0.897171 0
M  V30 2390 C 233.478 -1.07637 -1.17841 0
M  V30 2391 C 233.678 0.170713 -2.00776 0
M  V30 2392 O 232.734 0.867768 -2.3712 0
M  V30 2393 C 234.047 -2.3332 -1.8969 0
M  V30 2394 C 235.595 -2.38664 -2.02505 0
M  V30 2395 C 236.07 -3.64157 -2.77765 0
M  V30 2396 N 237.561 -3.64894 -2.85318 0
M  V30 2397 C 238.296 -4.58679 -3.44094 0
M  V30 2398 N 237.792 -5.62799 -4.04017 0
M  V30 2399 N 239.585 -4.46245 -3.41793 0
M  V30 2400 H 231.736 -2.09598 -0.343883 0
M  V30 2401 H 233.999 -0.923333 -0.214848 0
M  V30 2402 H 233.705 -3.24262 -1.36187 0
M  V30 2403 H 233.579 -2.41025 -2.9015 0
M  V30 2404 H 235.966 -1.48208 -2.55183 0
M  V30 2405 H 236.047 -2.34943 -1.01171 0
M  V30 2406 H 235.691 -4.54965 -2.25763 0
M  V30 2407 H 235.621 -3.65137 -3.7945 0
M  V30 2408 H 238.112 -2.89613 -2.42761 0
M  V30 2409 H 238.425 -6.3048 -4.46895 0
M  V30 2410 H 236.77 -5.66605 -4.02472 0
M  V30 2411 H 239.961 -3.64094 -2.94199 0
M  V30 2412 H 240.134 -5.19518 -3.87304 0
M  V30 2413 N 233.54 1.10788 -1.12088 0
M  V30 2414 C 234.765 1.87002 -0.896949 0
M  V30 2415 C 235.19 1.79933 0.548261 0
M  V30 2416 O 234.548 1.16662 1.38779 0
M  V30 2417 C 234.596 3.3349 -1.37174 0
M  V30 2418 O 233.7 4.08745 -0.547831 0
M  V30 2419 H 233.041 0.580397 -0.322545 0
M  V30 2420 H 235.571 1.39996 -1.49206 0
M  V30 2421 H 235.581 3.84339 -1.36922 0
M  V30 2422 H 234.256 3.37951 -2.42408 0
M  V30 2423 H 232.833 3.6776 -0.617034 0
M  V30 2424 N 235.018 0.912232 1.28515 0
M  V30 2425 C 236.267 0.540504 1.94323 0
M  V30 2426 C 236.58 -0.920044 1.72611 0
M  V30 2427 O 237.786 -1.39986 2.32629 0
M  V30 2428 C 236.242 0.915803 3.48053 0
M  V30 2429 C 235.85 2.39598 3.78546 0
M  V30 2430 C 237.594 0.614588 4.20027 0
M  V30 2431 C 235.501 2.71148 5.25578 0
M  V30 2432 H 234.431 0.198418 0.727424 0
M  V30 2433 H 237.082 1.11094 1.46049 0
M  V30 2434 H 235.464 0.274168 3.9505 0
M  V30 2435 H 236.638 3.08422 3.42364 0
M  V30 2436 H 234.953 2.66749 3.1974 0
M  V30 2437 H 237.55 0.827002 5.28266 0
M  V30 2438 H 237.893 -0.447531 4.13887 0
M  V30 2439 H 238.426 1.21462 3.78803 0
M  V30 2440 H 235.165 3.76207 5.36794 0
M  V30 2441 H 234.685 2.0696 5.62963 0
M  V30 2442 H 236.364 2.58072 5.93302 0
M  V30 2443 N 236.496 -1.42363 0.676048 0
M  V30 2444 C 237.721 -2.06377 0.205705 0
M  V30 2445 C 238.146 -1.50463 -1.12883 0
M  V30 2446 O 237.504 -0.623619 -1.70237 0
M  V30 2447 C 237.552 -3.60277 0.152655 0
M  V30 2448 O 236.656 -4.02935 -0.87845 0
M  V30 2449 H 235.997 -0.655588 0.105359 0
M  V30 2450 H 238.527 -1.82475 0.925412 0
M  V30 2451 H 238.537 -4.07993 -0.0230675 0
M  V30 2452 H 237.212 -4.00346 1.12675 0
M  V30 2453 H 235.789 -3.66764 -0.673668 0
M  V30 2454 N 237.974 -0.419461 -1.51915 0
M  V30 2455 C 239.222 0.152637 -2.01523 0
M  V30 2456 C 239.543 1.44762 -1.30649 0
M  V30 2457 O 238.813 1.90997 -0.435535 0
M  V30 2458 H 237.393 0.0593966 -0.744635 0
M  V30 2459 H 240.055 -0.558073 -1.86739 0
M  V30 2460 H 239.151 0.341369 -3.10227 0
M  V30 2461 N 239.452 1.56882 -0.150215 0
M  V30 2462 C 240.382 2.19935 0.784284 0
M  V30 2463 C 241.363 1.14854 1.25469 0
M  V30 2464 O 242.548 1.43209 1.31168 0
M  V30 2465 C 239.678 2.82349 2.02229 0
M  V30 2466 C 238.632 3.93285 1.68853 0
M  V30 2467 C 237.958 4.42649 2.99944 0
M  V30 2468 C 239.258 5.13904 0.932714 0
M  V30 2469 H 240.952 2.9828 0.258781 0
M  V30 2470 H 238.498 1.43473 0.123029 0
M  V30 2471 H 240.451 3.25126 2.68088 0
M  V30 2472 H 239.175 2.0134 2.57157 0
M  V30 2473 H 237.834 3.5113 1.05371 0
M  V30 2474 H 237.482 3.58458 3.52869 0
M  V30 2475 H 237.182 5.17476 2.78374 0
M  V30 2476 H 238.706 4.88099 3.66868 0
M  V30 2477 H 240.12 5.53506 1.49345 0
M  V30 2478 H 238.517 5.94515 0.81684 0
M  V30 2479 H 239.587 4.84842 -0.0749568 0
M  V30 2480 N 240.93 -0.123565 1.57115 0
M  V30 2481 C 242.16 -0.845233 1.88519 0
M  V30 2482 C 242.568 -1.74168 0.739064 0
M  V30 2483 O 241.911 -1.81244 -0.299355 0
M  V30 2484 C 241.973 -1.73452 3.14888 0
M  V30 2485 C 241.637 -1.01285 4.45635 0
M  V30 2486 C 242.634 -0.355774 5.18681 0
M  V30 2487 C 240.319 -0.99538 4.92339 0
M  V30 2488 C 242.313 0.309114 6.3665 0
M  V30 2489 C 240 -0.32669 6.10226 0
M  V30 2490 C 240.998 0.324406 6.82229 0
M  V30 2491 O 240.686 0.982437 7.97874 0
M  V30 2492 H 240.418 -0.248534 0.628655 0
M  V30 2493 H 242.972 -0.113907 2.05084 0
M  V30 2494 H 241.202 -2.50737 2.94394 0
M  V30 2495 H 242.891 -2.33021 3.32349 0
M  V30 2496 H 243.657 -0.360918 4.83655 0
M  V30 2497 H 239.536 -1.49159 4.36202 0
M  V30 2498 H 243.08 0.8179 6.92789 0
M  V30 2499 H 238.977 -0.319294 6.4471 0
M  V30 2500 H 239.745 0.886454 8.13686 0
M  V30 2501 N 242.408 -1.52605 -0.393616 0
M  V30 2502 C 243.648 -1.6911 -1.1481 0
M  V30 2503 C 244.012 -0.41969 -1.87357 0
M  V30 2504 O 245.213 -0.461034 -2.64817 0
M  V30 2505 C 243.484 -2.88909 -2.10395 0
M  V30 2506 S 245.043 -3.25977 -2.93742 0
M  V30 2507 H 241.861 -0.595337 -0.38871 0
M  V30 2508 H 244.463 -1.90641 -0.433178 0
M  V30 2509 H 243.167 -3.79672 -1.55812 0
M  V30 2510 H 242.698 -2.69698 -2.86403 0
M  V30 2511 H 244.713 -2.75806 -4.12487 0
M  V30 2512 N 243.887 0.651787 -1.4349 0
M  V30 2513 C 245.135 1.40888 -1.44897 0
M  V30 2514 C 245.456 1.94856 -0.0749086 0
M  V30 2515 O 244.726 1.74518 0.889956 0
M  V30 2516 H 243.306 0.522887 -0.533478 0
M  V30 2517 H 245.968 0.768609 -1.79104 0
M  V30 2518 H 245.064 2.25052 -2.16236 0
M  V30 2519 N 245.365 1.30045 0.890287 0
M  V30 2520 C 246.295 1.18541 2.01172 0
M  V30 2521 C 247.276 0.0773356 1.69924 0
M  V30 2522 O 248.461 0.25845 1.92473 0
M  V30 2523 C 245.591 0.870941 3.36202 0
M  V30 2524 C 244.545 1.93637 3.81692 0
M  V30 2525 C 243.871 1.475 5.13953 0
M  V30 2526 C 245.171 3.34666 4.00994 0
M  V30 2527 H 246.865 2.12359 2.11054 0
M  V30 2528 H 244.411 1.02238 1.01407 0
M  V30 2529 H 246.364 0.777141 4.14172 0
M  V30 2530 H 245.088 -0.102926 3.26438 0
M  V30 2531 H 243.747 2.01972 3.05946 0
M  V30 2532 H 243.395 0.489551 5.00612 0
M  V30 2533 H 243.095 2.1876 5.4536 0
M  V30 2534 H 244.619 1.39489 5.94454 0
M  V30 2535 H 246.033 3.2912 4.69417 0
M  V30 2536 H 244.43 4.03966 4.43769 0
M  V30 2537 H 245.5 3.76949 3.05021 0
M  V30 2538 N 246.843 -1.10192 1.12674 0
M  V30 2539 C 248.092 -1.81573 0.8783 0
M  V30 2540 C 248.405 -1.86249 -0.597557 0
M  V30 2541 O 249.611 -2.5386 -0.962681 0
M  V30 2542 C 248.067 -3.26149 1.52167 0
M  V30 2543 C 247.675 -3.29763 3.03249 0
M  V30 2544 C 249.419 -4.0234 1.3536 0
M  V30 2545 C 247.326 -4.68815 3.60508 0
M  V30 2546 H 246.256 -0.680394 0.324931 0
M  V30 2547 H 248.907 -1.23902 1.35353 0
M  V30 2548 H 247.289 -3.83832 0.974104 0
M  V30 2549 H 248.463 -2.8189 3.6452 0
M  V30 2550 H 246.778 -2.67059 3.19481 0
M  V30 2551 H 249.375 -5.05058 1.75559 0
M  V30 2552 H 249.718 -4.15235 0.297554 0
M  V30 2553 H 250.251 -3.51079 1.87052 0
M  V30 2554 H 246.99 -4.61121 4.65884 0
M  V30 2555 H 246.51 -5.17045 3.04014 0
M  V30 2556 H 248.189 -5.37785 3.59717 0
M  V30 2557 N 248.321 -0.919034 -1.28029 0
M  V30 2558 C 249.546 -0.570357 -1.99403 0
M  V30 2559 C 249.971 0.842486 -1.68178 0
M  V30 2560 O 249.329 1.56391 -0.917141 0
M  V30 2561 C 249.377 -0.792541 -3.51783 0
M  V30 2562 O 248.481 0.145988 -4.12142 0
M  V30 2563 H 247.822 -0.220555 -0.6263 0
M  V30 2564 H 250.352 -1.23592 -1.63053 0
M  V30 2565 H 250.362 -0.704708 -4.01868 0
M  V30 2566 H 249.037 -1.82247 -3.73844 0
M  V30 2567 H 247.614 0.00897528 -3.72899 0
M  V30 2568 N 249.799 1.42003 -0.683588 0
M  V30 2569 C 251.047 2.01015 -0.209101 0
M  V30 2570 C 251.368 1.54365 1.19149 0
M  V30 2571 O 250.638 0.769083 1.80172 0
M  V30 2572 H 249.218 0.743294 -0.074315 0
M  V30 2573 H 251.88 1.73798 -0.882066 0
M  V30 2574 H 250.976 3.11343 -0.2172 0
M  V30 2575 N 251.277 0.427512 1.51691 0
M  V30 2576 C 252.207 -0.3796 2.30394 0
M  V30 2577 C 253.188 -1.02982 1.35384 0
M  V30 2578 O 254.373 -1.03534 1.643 0
M  V30 2579 C 251.503 -1.48649 3.1388 0
M  V30 2580 C 250.457 -0.960294 4.17088 0
M  V30 2581 C 249.783 -2.16219 4.89033 0
M  V30 2582 C 251.083 -0.00153679 5.223 0
M  V30 2583 H 252.777 0.277164 2.98114 0
M  V30 2584 H 250.323 0.134739 1.43368 0
M  V30 2585 H 252.276 -2.05826 3.67714 0
M  V30 2586 H 251 -2.1714 2.43962 0
M  V30 2587 H 249.659 -0.410806 3.64291 0
M  V30 2588 H 249.307 -2.83307 4.15628 0
M  V30 2589 H 249.007 -1.81654 5.58816 0
M  V30 2590 H 250.531 -2.73968 5.45687 0
M  V30 2591 H 251.945 -0.482687 5.71264 0
M  V30 2592 H 250.342 0.256199 5.99553 0
M  V30 2593 H 251.412 0.938174 4.75738 0
M  V30 2594 N 252.755 -1.56801 0.158532 0
M  V30 2595 C 254.001 -1.96781 -0.490405 0
M  V30 2596 C 254.334 -1.04397 -1.63753 0
M  V30 2597 O 253.609 -0.0885805 -1.94298 0
M  V30 2598 C 253.892 -3.4635 -0.985594 0
M  V30 2599 C 253.745 -4.49512 0.160824 0
M  V30 2600 C 255.064 -3.98697 -1.86355 0
M  V30 2601 H 252.183 -0.715482 -0.176788 0
M  V30 2602 H 254.825 -1.88451 0.242088 0
M  V30 2603 H 252.975 -3.53579 -1.60978 0
M  V30 2604 H 254.647 -4.54353 0.797537 0
M  V30 2605 H 252.89 -4.26013 0.818256 0
M  V30 2606 H 253.561 -5.51531 -0.227569 0
M  V30 2607 H 256.037 -3.94019 -1.33746 0
M  V30 2608 H 254.913 -5.03792 -2.17909 0
M  V30 2609 H 255.174 -3.41744 -2.8047 0
M  V30 2610 N 254.233 0.115231 -1.57178 0
M  V30 2611 C 255.644 0.67197 -1.74188 0
M  V30 2612 C 255.995 1.80125 -0.777777 0
M  V30 2613 O 255.12 2.16346 0.0484376 0
M  V30 2614 C 255.715 1.22573 -3.1585 0
M  V30 2615 C 254.274 1.72872 -3.34353 0
M  V30 2616 C 253.421 0.629972 -2.70049 0
M  V30 2617 H 256.372 -0.110712 -1.58313 0
M  V30 2618 H 256.393 2.09535 -3.17609 0
M  V30 2619 H 255.905 0.403598 -3.85996 0
M  V30 2620 H 254.006 2.5755 -2.69256 0
M  V30 2621 H 254.119 1.83557 -4.42542 0
M  V30 2622 H 252.483 1.0645 -2.31388 0
M  V30 2623 H 253.266 -0.181241 -3.42821 0
M  V30 2624 N 255.711 1.52812 0.385517 0
M  V30 2625 C 256.644 1.72592 1.49289 0
M  V30 2626 C 257.622 0.573819 1.52138 0
M  V30 2627 O 258.806 0.80404 1.70492 0
M  V30 2628 C 255.933 1.78669 2.87741 0
M  V30 2629 C 254.979 3.00455 3.02703 0
M  V30 2630 S 255.812 4.60366 2.73538 0
M  V30 2631 C 256.968 4.69263 4.14177 0
M  V30 2632 H 257.201 2.66248 1.32285 0
M  V30 2633 H 254.734 1.43148 0.578611 0
M  V30 2634 H 256.692 1.82855 3.67524 0
M  V30 2635 H 255.353 0.861 3.02069 0
M  V30 2636 H 254.546 3.01258 4.04054 0
M  V30 2637 H 254.148 2.94278 2.30817 0
M  V30 2638 H 256.44 4.48092 5.08153 0
M  V30 2639 H 257.383 5.71276 4.18388 0
M  V30 2640 H 257.791 3.98072 4.00249 0
M  V30 2641 N 257.189 -0.644168 1.43834 0
M  V30 2642 C 258.419 -1.42939 1.49171 0
M  V30 2643 C 258.827 -1.88874 0.111048 0
M  V30 2644 O 258.17 -1.60656 -0.8908 0
M  V30 2645 C 258.232 -2.69151 2.38324 0
M  V30 2646 C 257.896 -2.45097 3.85715 0
M  V30 2647 C 258.893 -2.07747 4.76589 0
M  V30 2648 C 256.578 -2.59141 4.30292 0
M  V30 2649 C 258.572 -1.8475 6.10038 0
M  V30 2650 C 256.259 -2.35759 5.63792 0
M  V30 2651 C 257.257 -1.9862 6.53482 0
M  V30 2652 O 256.945 -1.75489 7.84512 0
M  V30 2653 H 256.677 -0.445271 0.508635 0
M  V30 2654 H 259.231 -0.79621 1.8934 0
M  V30 2655 H 257.461 -3.3506 1.93058 0
M  V30 2656 H 259.15 -3.31123 2.3476 0
M  V30 2657 H 259.916 -1.96465 4.43426 0
M  V30 2658 H 255.795 -2.87022 3.60749 0
M  V30 2659 H 259.339 -1.55686 6.80006 0
M  V30 2660 H 255.236 -2.46646 5.9652 0
M  V30 2661 H 256.004 -1.89841 7.9618 0
M  V30 2662 N 258.668 -1.30515 -0.883378 0
M  V30 2663 C 259.917 -1.18795 -1.63005 0
M  V30 2664 C 260.23 0.255923 -1.93919 0
M  V30 2665 O 261.436 0.494654 -2.66956 0
M  V30 2666 C 259.892 -2.07878 -2.93794 0
M  V30 2667 C 259.5 -3.57184 -2.70414 0
M  V30 2668 C 261.244 -2.04924 -3.71761 0
M  V30 2669 C 259.151 -4.38317 -3.97029 0
M  V30 2670 H 258.081 -0.441031 -0.611562 0
M  V30 2671 H 260.732 -1.55275 -0.977854 0
M  V30 2672 H 259.114 -1.64283 -3.60315 0
M  V30 2673 H 260.288 -4.08937 -2.12384 0
M  V30 2674 H 258.603 -3.61976 -2.0582 0
M  V30 2675 H 261.2 -2.62792 -4.65665 0
M  V30 2676 H 261.543 -1.0331 -4.03277 0
M  V30 2677 H 262.076 -2.46649 -3.12104 0
M  V30 2678 H 258.815 -5.40632 -3.70671 0
M  V30 2679 H 258.335 -3.91326 -4.54559 0
M  V30 2680 H 260.014 -4.49834 -4.65036 0
M  V30 2681 N 260.146 1.09593 -1.13257 0
M  V30 2682 C 261.394 1.81375 -0.891492 0
M  V30 2683 C 261.715 1.86049 0.584009 0
M  V30 2684 O 260.985 1.34481 1.42449 0
M  V30 2685 H 259.565 0.671708 -0.326828 0
M  V30 2686 H 262.227 1.3256 -1.42877 0
M  V30 2687 H 261.323 2.84612 -1.28071 0
M  V30 2688 N 261.624 0.925811 1.2754 0
M  V30 2689 C 262.534 0.428993 2.30644 0
M  V30 2690 C 263.55 -0.489387 1.66976 0
M  V30 2691 O 264.726 -0.372653 1.97922 0
M  V30 2692 C 261.791 -0.311967 3.45294 0
M  V30 2693 C 260.852 0.641098 4.24486 0
M  V30 2694 C 260.085 -0.0645955 5.33661 0
M  V30 2695 O 260.308 -1.28429 5.55754 0
M  V30 2696 O 259.242 0.606265 5.98839 0
M  V30 2697 H 263.068 1.28504 2.75173 0
M  V30 2698 H 260.653 0.691086 1.32455 0
M  V30 2699 H 262.535 -0.729972 4.15029 0
M  V30 2700 H 261.21 -1.14365 3.02824 0
M  V30 2701 H 260.117 1.10874 3.57292 0
M  V30 2702 H 261.45 1.43995 4.70666 0
M  V30 2703 N 263.102 -1.41638 0.69111 0
M  V30 2704 C 264.351 -2.00526 0.217318 0
M  V30 2705 C 264.664 -1.55353 -1.18848 0
M  V30 2706 O 265.87 -2.06769 -1.75951 0
M  V30 2707 C 264.326 -3.58313 0.337639 0
M  V30 2708 C 263.934 -4.12469 1.74852 0
M  V30 2709 C 265.678 -4.24431 -0.0766066 0
M  V30 2710 C 263.585 -5.62675 1.82074 0
M  V30 2711 H 262.515 -0.750008 0.0774893 0
M  V30 2712 H 265.166 -1.6217 0.858661 0
M  V30 2713 H 263.548 -3.9425 -0.371879 0
M  V30 2714 H 264.722 -3.8796 2.48644 0
M  V30 2715 H 263.037 -3.58861 2.11205 0
M  V30 2716 H 265.634 -5.34683 -0.0430284 0
M  V30 2717 H 265.977 -4.01101 -1.1146 0
M  V30 2718 H 266.51 -3.93512 0.582476 0
M  V30 2719 H 263.249 -5.90826 2.83911 0
M  V30 2720 H 262.769 -5.89124 1.12661 0
M  V30 2721 H 264.448 -6.27371 1.58159 0
M  V30 2722 N 264.58 -0.43555 -1.51462 0
M  V30 2723 C 265.543 0.365137 -2.26273 0
M  V30 2724 C 266.543 0.951227 -1.29647 0
M  V30 2725 O 267.733 0.825958 -1.53374 0
M  V30 2726 C 264.865 1.51645 -3.05314 0
M  V30 2727 H 266.058 -0.290474 -2.9849 0
M  V30 2728 H 263.611 -0.188676 -1.55157 0
M  V30 2729 H 264.346 2.20816 -2.3751 0
M  V30 2730 H 264.131 1.10238 -3.76284 0
M  V30 2731 H 265.621 2.08218 -3.61987 0
M  V30 2732 N 266.058 1.56714 -0.166846 0
M  V30 2733 C 267.469 1.83378 0.350646 0
M  V30 2734 C 267.82 1.08646 1.63372 0
M  V30 2735 O 266.945 0.338058 2.13743 0
M  V30 2736 C 267.54 3.32643 0.642963 0
M  V30 2737 C 266.099 3.59818 1.10491 0
M  V30 2738 C 265.246 2.76954 0.138411 0
M  V30 2739 H 268.197 1.53803 -0.391193 0
M  V30 2740 H 268.218 3.49878 1.49551 0
M  V30 2741 H 267.73 3.87007 -0.291055 0
M  V30 2742 H 265.831 3.1086 2.05418 0
M  V30 2743 H 265.944 4.68178 1.01716 0
M  V30 2744 H 264.308 2.4666 0.634911 0
M  V30 2745 H 265.091 3.34097 -0.789549 0
M  V30 2746 N 267.536 -0.106894 1.57237 0
M  V30 2747 C 268.764 -0.826389 1.8968 0
M  V30 2748 C 269.179 -1.72856 0.759353 0
M  V30 2749 O 268.536 -1.80503 -0.269263 0
M  V30 2750 C 268.587 -1.64967 3.21665 0
M  V30 2751 O 268.308 -0.783804 4.31031 0
M  V30 2752 C 269.809 -2.47326 3.67892 0
M  V30 2753 H 267.029 -0.236927 0.627779 0
M  V30 2754 H 269.573 -0.0876593 2.04312 0
M  V30 2755 H 267.728 -2.34103 3.08666 0
M  V30 2756 H 268.142 -1.35284 5.06753 0
M  V30 2757 H 269.616 -3.00604 4.6297 0
M  V30 2758 H 270.093 -3.25247 2.95146 0
M  V30 2759 H 270.699 -1.83411 3.83719 0
M  V30 2760 N 269.014 -1.53014 -0.377408 0
M  V30 2761 C 269.977 -1.77957 -1.44444 0
M  V30 2762 C 270.977 -0.649763 -1.47087 0
M  V30 2763 O 272.167 -0.917897 -1.48055 0
M  V30 2764 C 269.299 -1.89089 -2.83651 0
M  V30 2765 H 270.492 -2.73243 -1.23606 0
M  V30 2766 H 268.045 -1.43912 -0.609844 0
M  V30 2767 H 268.78 -0.958293 -3.09818 0
M  V30 2768 H 268.565 -2.71254 -2.83132 0
M  V30 2769 H 270.055 -2.1002 -3.60945 0
M  V30 2770 N 270.492 0.636531 -1.44174 0
M  V30 2771 C 271.422 1.76003 -1.53444 0
M  V30 2772 C 272.403 1.65619 -0.387841 0
M  V30 2773 O 273.588 1.84461 -0.607257 0
M  V30 2774 C 270.718 3.14511 -1.4731 0
M  V30 2775 C 269.672 3.39677 -2.60391 0
M  V30 2776 C 268.998 4.78159 -2.39308 0
M  V30 2777 C 270.298 3.32772 -4.02567 0
M  V30 2778 H 271.992 1.68501 -2.47483 0
M  V30 2779 H 269.538 0.809237 -1.19111 0
M  V30 2780 H 271.491 3.92878 -1.52397 0
M  V30 2781 H 270.215 3.22783 -0.49785 0
M  V30 2782 H 268.874 2.63688 -2.54684 0
M  V30 2783 H 268.522 4.83128 -1.39988 0
M  V30 2784 H 268.222 4.95956 -3.15122 0
M  V30 2785 H 269.746 5.58762 -2.46205 0
M  V30 2786 H 271.16 4.01051 -4.09672 0
M  V30 2787 H 269.557 3.62104 -4.7854 0
M  V30 2788 H 270.627 2.30669 -4.2652 0
M  V30 2789 N 271.97 1.30982 0.876444 0
M  V30 2790 C 273.386 1.09498 1.16113 0
M  V30 2791 C 273.586 -0.13875 2.01022 0
M  V30 2792 O 272.642 -0.829935 2.38471 0
M  V30 2793 C 273.955 2.36308 1.85954 0
M  V30 2794 C 275.503 2.41856 1.98683 0
M  V30 2795 C 275.978 3.6853 2.71937 0
M  V30 2796 N 277.469 3.69387 2.79477 0
M  V30 2797 C 278.204 4.64096 3.36753 0
M  V30 2798 N 277.7 5.69155 3.95012 0
M  V30 2799 N 279.493 4.51626 3.3465 0
M  V30 2800 H 271.644 2.10118 0.310494 0
M  V30 2801 H 273.907 0.926634 0.200131 0
M  V30 2802 H 273.613 3.26388 1.31011 0
M  V30 2803 H 273.487 2.4561 2.86278 0
M  V30 2804 H 275.874 1.52249 2.52793 0
M  V30 2805 H 275.955 2.36523 0.9742 0
M  V30 2806 H 275.599 4.58499 2.18496 0
M  V30 2807 H 275.529 3.71127 3.73593 0
M  V30 2808 H 278.02 2.93438 2.38123 0
M  V30 2809 H 278.333 6.3751 4.36808 0
M  V30 2810 H 276.678 5.72937 3.93406 0
M  V30 2811 H 279.869 3.68728 2.8837 0
M  V30 2812 H 280.042 5.25614 3.7899 0
M  V30 2813 N 273.449 -1.08991 1.13837 0
M  V30 2814 C 274.697 -1.80899 0.901098 0
M  V30 2815 C 275.018 -1.86356 -0.574134 0
M  V30 2816 O 274.288 -1.35235 -1.41733 0
M  V30 2817 H 272.868 -0.669966 0.330386 0
M  V30 2818 H 275.53 -1.318 1.43578 0
M  V30 2819 H 274.626 -2.83929 1.29578 0
M  V30 2820 N 274.927 -0.932562 -1.27047 0
M  V30 2821 C 275.89 -0.440064 -2.24936 0
M  V30 2822 C 276.89 0.444071 -1.54547 0
M  V30 2823 O 278.08 0.244465 -1.72476 0
M  V30 2824 C 275.212 0.36678 -3.38921 0
M  V30 2825 H 276.405 -1.305 -2.70018 0
M  V30 2826 H 273.958 -0.713707 -1.39054 0
M  V30 2827 H 274.693 1.25033 -2.99228 0
M  V30 2828 H 274.478 -0.267204 -3.91188 0
M  V30 2829 H 275.968 0.701567 -4.11665 0
M  V30 2830 N 276.405 1.4127 -0.698611 0
M  V30 2831 C 277.335 2.33447 -0.049629 0
M  V30 2832 C 278.316 1.51982 0.763898 0
M  V30 2833 O 279.501 1.80509 0.716257 0
M  V30 2834 C 276.631 3.35828 0.885267 0
M  V30 2835 C 275.585 4.27627 0.178613 0
M  V30 2836 C 274.911 5.20406 1.22807 0
M  V30 2837 C 276.211 5.13459 -0.956933 0
M  V30 2838 H 277.905 2.87966 -0.81951 0
M  V30 2839 H 275.451 1.38461 -0.395538 0
M  V30 2840 H 277.404 3.9924 1.34854 0
M  V30 2841 H 276.128 2.79666 1.68685 0
M  V30 2842 H 274.787 3.65643 -0.26466 0
M  V30 2843 H 274.435 4.60558 2.02226 0
M  V30 2844 H 274.135 5.82661 0.760239 0
M  V30 2845 H 275.659 5.86695 1.69179 0
M  V30 2846 H 277.073 5.70421 -0.573805 0
M  V30 2847 H 275.47 5.8467 -1.35205 0
M  V30 2848 H 276.54 4.50443 -1.79524 0
M  V30 2849 N 277.883 0.443576 1.51229 0
M  V30 2850 C 279.131 -0.120557 2.0174 0
M  V30 2851 C 279.452 -1.42665 1.32935 0
M  V30 2852 O 278.722 -1.9028 0.465866 0
M  V30 2853 H 277.302 -0.0475426 0.745486 0
M  V30 2854 H 279.964 0.587711 1.85828 0
M  V30 2855 H 279.06 -0.291972 3.10731 0
M  V30 2856 N 279.361 -1.56624 0.175154 0
M  V30 2857 C 280.589 -2.01374 -0.474971 0
M  V30 2858 C 281.004 -1.05537 -1.56548 0
M  V30 2859 O 280.361 -0.0568668 -1.82411 0
M  V30 2860 C 280.412 -3.45923 -1.04975 0
M  V30 2861 O 280.133 -4.381 -0.00276605 0
M  V30 2862 C 281.634 -4.06093 -1.77773 0
M  V30 2863 H 278.854 -0.659962 -0.121206 0
M  V30 2864 H 281.398 -2.02601 0.27801 0
M  V30 2865 H 279.553 -3.45458 -1.75321 0
M  V30 2866 H 279.967 -5.22753 -0.427681 0
M  V30 2867 H 281.441 -5.09147 -2.13245 0
M  V30 2868 H 281.918 -3.48405 -2.67414 0
M  V30 2869 H 282.524 -4.10272 -1.12059 0
M  V30 2870 N 280.839 0.0985539 -1.57292 0
M  V30 2871 C 282.086 0.802678 -1.85912 0
M  V30 2872 C 282.414 1.78901 -0.763186 0
M  V30 2873 O 281.669 1.94178 0.243559 0
M  V30 2874 C 281.968 1.56927 -3.21105 0
M  V30 2875 C 281.634 0.725376 -4.45027 0
M  V30 2876 C 280.296 0.492726 -4.78671 0
M  V30 2877 C 282.648 0.138493 -5.21016 0
M  V30 2878 C 279.976 -0.336727 -5.85733 0
M  V30 2879 C 282.328 -0.678264 -6.28953 0
M  V30 2880 C 280.992 -0.921039 -6.61115 0
M  V30 2881 H 280.262 0.293721 -0.680301 0
M  V30 2882 H 282.909 0.0642841 -1.91392 0
M  V30 2883 H 281.214 2.37914 -3.11294 0
M  V30 2884 H 282.911 2.11841 -3.40477 0
M  V30 2885 H 279.501 0.916815 -4.18679 0
M  V30 2886 H 283.685 0.305404 -4.95359 0
M  V30 2887 H 278.941 -0.533836 -6.09065 0
M  V30 2888 H 283.115 -1.1399 -6.87007 0
M  V30 2889 H 280.742 -1.56556 -7.43905 0
M  V30 2890 N 282.317 1.53212 0.369288 0
M  V30 2891 C 283.267 1.75769 1.45222 0
M  V30 2892 C 284.251 0.612136 1.48801 0
M  V30 2893 O 285.443 0.870674 1.54105 0
M  V30 2894 C 282.572 1.94769 2.82701 0
M  V30 2895 C 281.658 3.15315 2.83615 0
M  V30 2896 N 282.049 4.37295 2.54178 0
M  V30 2897 C 280.347 3.15962 3.14776 0
M  V30 2898 C 281.048 5.19015 2.62675 0
M  V30 2899 N 280.024 4.55142 2.97232 0
M  V30 2900 H 283.826 2.67691 1.2132 0
M  V30 2901 H 281.34 1.51787 0.577438 0
M  V30 2902 H 283.337 2.09056 3.60696 0
M  V30 2903 H 281.997 1.04073 3.07569 0
M  V30 2904 H 283.008 4.65091 2.27839 0
M  V30 2905 H 279.685 2.35144 3.44983 0
M  V30 2906 H 281.075 6.26305 2.43294 0
M  V30 2907 N 283.795 -0.628877 1.44509 0
M  V30 2908 C 284.727 -1.754 1.47538 0
M  V30 2909 C 285.74 -1.58575 0.368506 0
M  V30 2910 O 286.929 -1.66847 0.634376 0
M  V30 2911 C 284.029 -3.1315 1.29577 0
M  V30 2912 C 283.202 -3.56413 2.53551 0
M  V30 2913 C 282.261 -4.7305 2.30457 0
M  V30 2914 O 281.287 -4.81247 3.03957 0
M  V30 2915 N 282.489 -5.64903 1.3366 0
M  V30 2916 H 285.254 -1.73272 2.44534 0
M  V30 2917 H 282.815 -0.813512 1.39977 0
M  V30 2918 H 284.807 -3.88902 1.11971 0
M  V30 2919 H 283.377 -3.09908 0.409371 0
M  V30 2920 H 282.597 -2.70847 2.86419 0
M  V30 2921 H 283.885 -3.82071 3.36005 0
M  V30 2922 H 283.283 -5.60975 0.729604 0
M  V30 2923 H 281.84 -6.40275 1.22032 0
M  V30 2924 N 285.273 -1.31445 -0.869486 0
M  V30 2925 C 286.203 -1.21727 -1.99261 0
M  V30 2926 C 287.184 -0.104359 -1.6978 0
M  V30 2927 O 288.369 -0.289038 -1.92037 0
M  V30 2928 C 285.499 -0.924317 -3.34774 0
M  V30 2929 C 284.453 -1.99685 -3.78563 0
M  V30 2930 C 283.779 -1.55658 -5.11541 0
M  V30 2931 C 285.079 -3.41003 -3.95619 0
M  V30 2932 H 286.773 -2.1569 -2.07649 0
M  V30 2933 H 284.319 -1.03839 -0.997675 0
M  V30 2934 H 286.272 -0.842934 -4.12883 0
M  V30 2935 H 284.996 0.0509793 -3.2656 0
M  V30 2936 H 283.655 -2.06813 -3.02694 0
M  V30 2937 H 283.303 -0.569132 -4.9977 0
M  V30 2938 H 283.003 -2.27409 -5.41811 0
M  V30 2939 H 284.527 -1.48928 -5.92159 0
M  V30 2940 H 285.941 -3.36547 -4.64122 0
M  V30 2941 H 284.338 -4.10975 -4.37286 0
M  V30 2942 H 285.408 -3.81754 -2.98985 0
M  V30 2943 N 286.751 1.08385 -1.14413 0
M  V30 2944 C 287.714 2.13486 -0.834048 0
M  V30 2945 C 288.714 1.59988 0.161418 0
M  V30 2946 O 289.904 1.74071 -0.0669575 0
M  V30 2947 C 287.036 3.4003 -0.243354 0
M  V30 2948 H 288.229 2.42425 -1.7655 0
M  V30 2949 H 285.782 1.24101 -0.950189 0
M  V30 2950 H 286.517 3.16726 0.696807 0
M  V30 2951 H 286.302 3.80157 -0.960367 0
M  V30 2952 H 287.792 4.17577 -0.0436242 0
M  V30 2953 N 288.23 0.939286 1.26551 0
M  V30 2954 C 289.479 0.581601 1.93133 0
M  V30 2955 C 289.792 -0.883224 1.74524 0
M  V30 2956 O 290.998 -1.3502 2.35546 0
M  V30 2957 C 289.454 0.989425 3.46032 0
M  V30 2958 C 289.062 2.47573 3.73379 0
M  V30 2959 C 290.806 0.703544 4.18629 0
M  V30 2960 C 288.713 2.82235 5.19709 0
M  V30 2961 H 287.643 0.213803 0.723052 0
M  V30 2962 H 290.294 1.14167 1.4366 0
M  V30 2963 H 288.676 0.357902 3.94379 0
M  V30 2964 H 289.85 3.15614 3.35744 0
M  V30 2965 H 288.165 2.73471 3.1401 0
M  V30 2966 H 290.762 0.938869 5.26393 0
M  V30 2967 H 291.105 -0.359639 4.14744 0
M  V30 2968 H 291.638 1.2947 3.76141 0
M  V30 2969 H 288.377 3.87509 5.28694 0
M  V30 2970 H 287.897 2.18854 5.58447 0
M  V30 2971 H 289.576 2.70599 5.87695 0
M  V30 2972 N 289.708 -1.40897 0.706093 0
M  V30 2973 C 290.954 -2.01352 0.241889 0
M  V30 2974 C 291.287 -1.55832 -1.15888 0
M  V30 2975 O 290.562 -0.774145 -1.7843 0
M  V30 2976 C 290.845 -3.58752 0.311311 0
M  V30 2977 C 290.698 -4.1437 1.74978 0
M  V30 2978 C 292.017 -4.38914 -0.322922 0
M  V30 2979 H 289.136 -0.731562 0.0893687 0
M  V30 2980 H 291.778 -1.67504 0.896802 0
M  V30 2981 H 289.928 -3.87718 -0.246302 0
M  V30 2982 H 291.6 -3.96239 2.36205 0
M  V30 2983 H 289.843 -3.69016 2.28057 0
M  V30 2984 H 290.514 -5.23532 1.74981 0
M  V30 2985 H 292.99 -4.15822 0.152089 0
M  V30 2986 H 291.866 -5.48358 -0.243855 0
M  V30 2987 H 292.127 -4.19176 -1.40513 0
M  V30 2988 N 291.186 -0.45159 -1.50991 0
M  V30 2989 C 292.414 0.108334 -2.06616 0
M  V30 2990 C 292.829 1.35224 -1.31757 0
M  V30 2991 O 292.186 1.78475 -0.381174 0
M  V30 2992 C 292.237 0.41619 -3.59096 0
M  V30 2993 O 291.958 -0.778361 -4.3113 0
M  V30 2994 C 293.459 1.02523 -4.31282 0
M  V30 2995 H 290.679 0.00159995 -0.670998 0
M  V30 2996 H 293.223 -0.634771 -1.94399 0
M  V30 2997 H 291.378 1.10921 -3.71181 0
M  V30 2998 H 291.792 -0.511181 -5.22003 0
M  V30 2999 H 293.266 1.19053 -5.39009 0
M  V30 3000 H 293.743 2.01013 -3.905 0
M  V30 3001 H 294.349 0.371173 -4.23677 0
M  V30 3002 N 292.664 1.56529 -0.183458 0
M  V30 3003 C 293.912 1.96855 0.457452 0
M  V30 3004 C 294.233 1.07104 1.62953 0
M  V30 3005 O 293.503 0.139887 1.954 0
M  V30 3006 H 292.083 0.72693 0.171992 0
M  V30 3007 H 294.745 1.93056 -0.267476 0
M  V30 3008 H 293.841 3.01423 0.809368 0
M  V30 3009 N 294.142 -0.090211 1.57342 0
M  V30 3010 C 295.391 -0.791531 1.8552 0
M  V30 3011 C 295.704 -1.79659 0.773441 0
M  V30 3012 O 296.91 -2.54616 0.942497 0
M  V30 3013 C 295.366 -1.45856 3.2902 0
M  V30 3014 C 294.974 -0.493017 4.45279 0
M  V30 3015 C 296.718 -2.14332 3.66418 0
M  V30 3016 C 294.625 -1.16491 5.79814 0
M  V30 3017 H 293.555 -0.299356 0.692027 0
M  V30 3018 H 296.206 -0.0445343 1.83446 0
M  V30 3019 H 294.588 -2.25318 3.2565 0
M  V30 3020 H 295.762 0.270464 4.60006 0
M  V30 3021 H 294.077 0.0863061 4.16311 0
M  V30 3022 H 296.674 -2.65344 4.64216 0
M  V30 3023 H 297.017 -2.93447 2.95287 0
M  V30 3024 H 297.55 -1.41724 3.71698 0
M  V30 3025 H 294.289 -0.41447 6.54188 0
M  V30 3026 H 293.809 -1.8997 5.68921 0
M  V30 3027 H 295.488 -1.69001 6.24538 0
M  V30 3028 N 295.62 -1.53406 -0.361157 0
M  V30 3029 C 296.55 -1.83136 -1.44857 0
M  V30 3030 C 297.531 -0.685174 -1.5569 0
M  V30 3031 O 298.716 -0.93544 -1.70186 0
M  V30 3032 C 295.846 -2.02522 -2.82138 0
M  V30 3033 C 294.8 -3.18302 -2.86126 0
M  V30 3034 C 294.126 -3.22989 -4.26125 0
M  V30 3035 C 295.426 -4.56796 -2.53248 0
M  V30 3036 H 297.12 -2.74201 -1.20226 0
M  V30 3037 H 294.666 -1.31938 -0.576922 0
M  V30 3038 H 296.619 -2.21904 -3.58241 0
M  V30 3039 H 295.343 -1.08172 -3.08166 0
M  V30 3040 H 294.002 -2.98747 -2.12475 0
M  V30 3041 H 293.65 -2.26267 -4.49235 0
M  V30 3042 H 293.35 -4.00781 -4.29708 0
M  V30 3043 H 294.874 -3.44559 -5.04094 0
M  V30 3044 H 296.288 -4.7631 -3.19064 0
M  V30 3045 H 294.685 -5.36862 -2.68141 0
M  V30 3046 H 295.755 -4.61606 -1.48484 0
M  V30 3047 N 297.098 0.621204 -1.44841 0
M  V30 3048 C 298.347 1.37658 -1.47422 0
M  V30 3049 C 298.66 1.95264 -0.114629 0
M  V30 3050 O 299.866 2.71494 -0.0180199 0
M  V30 3051 C 298.322 2.49285 -2.59586 0
M  V30 3052 C 297.93 1.98149 -4.01797 0
M  V30 3053 C 299.674 3.26409 -2.71399 0
M  V30 3054 C 297.581 3.07178 -5.05367 0
M  V30 3055 H 296.511 0.517344 -0.548517 0
M  V30 3056 H 299.162 0.667257 -1.70938 0
M  V30 3057 H 297.544 3.22839 -2.29328 0
M  V30 3058 H 298.718 1.31395 -4.41669 0
M  V30 3059 H 297.033 1.33812 -3.94314 0
M  V30 3060 H 299.63 4.07706 -3.45948 0
M  V30 3061 H 299.973 3.76535 -1.77559 0
M  V30 3062 H 300.506 2.5995 -3.01116 0
M  V30 3063 H 297.245 2.61985 -6.00869 0
M  V30 3064 H 296.765 3.72542 -4.70077 0
M  V30 3065 H 298.444 3.71789 -5.29511 0
M  V30 3066 N 298.576 1.31904 0.862503 0
M  V30 3067 C 299.801 1.25135 1.65397 0
M  V30 3068 C 300.226 -0.179 1.87246 0
M  V30 3069 O 299.584 -1.1277 1.4196 0
M  V30 3070 C 299.632 2.00832 2.99498 0
M  V30 3071 O 298.736 1.35075 3.89652 0
M  V30 3072 H 298.077 0.431655 0.504549 0
M  V30 3073 H 300.607 1.74094 1.07483 0
M  V30 3074 H 300.617 2.10709 3.49379 0
M  V30 3075 H 299.292 3.04847 2.82916 0
M  V30 3076 H 297.869 1.33696 3.48109 0
M  V30 3077 N 300.054 -1.07777 1.14986 0
M  V30 3078 C 300.986 -2.14769 0.800436 0
M  V30 3079 C 301.999 -1.61739 -0.185595 0
M  V30 3080 O 303.188 -1.78462 0.0370358 0
M  V30 3081 C 300.288 -3.38481 0.168533 0
M  V30 3082 C 299.461 -4.20876 1.1909 0
M  V30 3083 C 298.52 -5.22976 0.581575 0
M  V30 3084 O 297.546 -5.55388 1.24633 0
M  V30 3085 N 298.748 -5.76976 -0.638706 0
M  V30 3086 H 301.513 -2.45348 1.72118 0
M  V30 3087 H 299.074 -1.23645 1.04515 0
M  V30 3088 H 301.066 -4.03916 -0.251764 0
M  V30 3089 H 299.636 -3.05651 -0.655467 0
M  V30 3090 H 298.856 -3.51322 1.78791 0
M  V30 3091 H 300.144 -4.7274 1.88133 0
M  V30 3092 H 299.542 -5.52886 -1.19723 0
M  V30 3093 H 298.099 -6.44061 -1.00142 0
M  V30 3094 N 301.532 -0.945985 -1.26051 0
M  V30 3095 C 302.781 -0.591836 -1.92822 0
M  V30 3096 C 303.094 0.873956 -1.7499 0
M  V30 3097 O 304.3 1.33769 -2.36259 0
M  V30 3098 C 302.756 -1.00776 -3.45503 0
M  V30 3099 C 302.364 -2.4955 -3.7206 0
M  V30 3100 C 304.108 -0.725735 -4.1825 0
M  V30 3101 C 302.015 -2.84988 -5.18205 0
M  V30 3102 H 300.945 -0.217635 -0.721908 0
M  V30 3103 H 303.596 -1.14927 -1.43052 0
M  V30 3104 H 301.978 -0.378812 -3.94184 0
M  V30 3105 H 303.152 -3.1739 -3.34066 0
M  V30 3106 H 301.467 -2.75133 -3.12555 0
M  V30 3107 H 304.064 -0.966771 -5.25887 0
M  V30 3108 H 304.407 0.337639 -4.14929 0
M  V30 3109 H 304.94 -1.31463 -3.7545 0
M  V30 3110 H 301.679 -3.90307 -5.26631 0
M  V30 3111 H 301.199 -2.21813 -5.57278 0
M  V30 3112 H 302.878 -2.73712 -5.86252 0
M  V30 3113 N 303.011 1.40521 -0.713556 0
M  V30 3114 C 304.26 2.00155 -0.249192 0
M  V30 3115 C 304.573 1.57224 1.16362 0
M  V30 3116 O 305.779 2.09542 1.72639 0
M  V30 3117 C 304.235 3.5773 -0.3946 0
M  V30 3118 C 303.843 4.09635 -1.81392 0
M  V30 3119 C 305.587 4.24499 0.00907364 0
M  V30 3120 C 303.494 5.59707 -1.91003 0
M  V30 3121 H 302.424 0.74868 -0.0894114 0
M  V30 3122 H 305.075 1.60784 -0.884352 0
M  V30 3123 H 303.457 3.94792 0.30911 0
M  V30 3124 H 304.631 3.83955 -2.54785 0
M  V30 3125 H 302.946 3.55456 -2.16888 0
M  V30 3126 H 305.543 5.34683 -0.0420404 0
M  V30 3127 H 305.886 4.02824 1.05065 0
M  V30 3128 H 306.419 3.92536 -0.645007 0
M  V30 3129 H 303.158 5.86234 -2.93275 0
M  V30 3130 H 302.678 5.87258 -1.22019 0
M  V30 3131 H 304.357 6.24776 -1.6812 0
M  V30 3132 N 304.489 0.459591 1.5075 0
M  V30 3133 C 305.737 -0.0991532 2.01857 0
M  V30 3134 C 306.058 -1.41247 1.34441 0
M  V30 3135 O 305.328 -1.89775 0.486022 0
M  V30 3136 H 303.908 -0.039633 0.745948 0
M  V30 3137 H 306.57 0.607387 1.85194 0
M  V30 3138 H 305.666 -0.258998 3.11023 0
M  V30 3139 N 305.967 -1.56429 0.191757 0
M  V30 3140 C 306.897 -2.21937 -0.725696 0
M  V30 3141 C 307.878 -1.1814 -1.2238 0
M  V30 3142 O 309.063 -1.46636 -1.27325 0
M  V30 3143 C 306.193 -2.87611 -1.94672 0
M  V30 3144 C 305.147 -3.97623 -1.58366 0
M  V30 3145 C 304.473 -4.50446 -2.88102 0
M  V30 3146 C 305.773 -5.16197 -0.796133 0
M  V30 3147 H 307.467 -2.98861 -0.179606 0
M  V30 3148 H 305.013 -1.43749 -0.0849464 0
M  V30 3149 H 306.966 -3.3212 -2.59373 0
M  V30 3150 H 305.69 -2.08087 -2.51728 0
M  V30 3151 H 304.349 -3.53801 -0.960247 0
M  V30 3152 H 303.997 -3.67688 -3.43241 0
M  V30 3153 H 303.697 -5.24675 -2.64556 0
M  V30 3154 H 305.221 -4.97654 -3.53798 0
M  V30 3155 H 306.635 -5.57271 -1.34618 0
M  V30 3156 H 305.032 -5.96471 -0.658928 0
M  V30 3157 H 306.102 -4.84473 0.203478 0
M  V30 3158 N 307.445 0.0818655 -1.57387 0
M  V30 3159 C 308.355 1.11642 -2.06333 0
M  V30 3160 C 309.371 1.43033 -0.99083 0
M  V30 3161 O 310.547 1.53411 -1.30488 0
M  V30 3162 C 307.612 2.41342 -2.48907 0
M  V30 3163 C 306.673 2.17014 -3.7041 0
M  V30 3164 C 305.906 3.4053 -4.10944 0
M  V30 3165 O 306.129 4.4927 -3.51444 0
M  V30 3166 O 305.063 3.29336 -5.03807 0
M  V30 3167 H 308.889 0.730657 -2.9478 0
M  V30 3168 H 306.474 0.295301 -1.46452 0
M  V30 3169 H 308.356 3.17691 -2.76858 0
M  V30 3170 H 307.031 2.79319 -1.63593 0
M  V30 3171 H 305.938 1.38403 -3.47556 0
M  V30 3172 H 307.271 1.83923 -4.56545 0
M  V30 3173 N 308.923 1.53595 0.353017 0
M  V30 3174 C 310.17 1.70385 1.09431 0
M  V30 3175 C 310.498 0.462113 1.88931 0
M  V30 3176 O 309.753 -0.556074 1.87633 0
M  V30 3177 C 310.052 2.91313 2.07054 0
M  V30 3178 C 309.718 4.27308 1.43939 0
M  V30 3179 C 308.38 4.64287 1.26454 0
M  V30 3180 C 310.732 5.11829 0.983883 0
M  V30 3181 C 308.06 5.83412 0.620226 0
M  V30 3182 C 310.412 6.31611 0.353516 0
M  V30 3183 C 309.076 6.67293 0.166272 0
M  V30 3184 H 308.346 0.623484 0.400436 0
M  V30 3185 H 310.993 1.87799 0.374655 0
M  V30 3186 H 309.298 2.68463 2.85368 0
M  V30 3187 H 310.995 3.01497 2.64387 0
M  V30 3188 H 307.585 3.98198 1.58543 0
M  V30 3189 H 311.769 4.838 1.10685 0
M  V30 3190 H 307.025 6.09639 0.463681 0
M  V30 3191 H 311.199 6.964 -0.00757555 0
M  V30 3192 H 308.826 7.59461 -0.335047 0
M  V30 3193 N 310.401 -0.613514 1.45168 0
M  V30 3194 C 311.65 -1.36874 1.4815 0
M  V30 3195 C 311.963 -1.952 0.124982 0
M  V30 3196 O 313.169 -2.71481 0.0324176 0
M  V30 3197 C 311.625 -2.47905 2.60904 0
M  V30 3198 C 311.233 -1.96016 4.02842 0
M  V30 3199 C 312.977 -3.24965 2.73126 0
M  V30 3200 C 310.884 -3.04494 5.06988 0
M  V30 3201 H 309.814 -0.514428 0.551253 0
M  V30 3202 H 312.465 -0.658182 1.7129 0
M  V30 3203 H 310.847 -3.21618 2.31037 0
M  V30 3204 H 312.021 -1.29051 4.4236 0
M  V30 3205 H 310.336 -1.31719 3.95018 0
M  V30 3206 H 312.933 -4.05865 3.48106 0
M  V30 3207 H 313.276 -3.75588 1.79553 0
M  V30 3208 H 313.809 -2.5835 3.0249 0
M  V30 3209 H 310.548 -2.58795 6.0225 0
M  V30 3210 H 310.068 -3.70044 4.72046 0
M  V30 3211 H 311.747 -3.68976 5.31475 0
M  V30 3212 N 311.879 -1.3236 -0.855495 0
M  V30 3213 C 312.809 -1.23833 -1.97958 0
M  V30 3214 C 313.79 -0.122361 -1.69659 0
M  V30 3215 O 314.975 -0.30939 -1.9172 0
M  V30 3216 C 312.105 -0.959772 -3.33775 0
M  V30 3217 C 311.059 -2.03689 -3.76424 0
M  V30 3218 C 310.385 -1.61075 -5.09862 0
M  V30 3219 C 311.685 -3.4518 -3.9198 0
M  V30 3220 H 313.379 -2.1788 -2.0535 0
M  V30 3221 H 310.925 -1.04891 -0.986605 0
M  V30 3222 H 312.878 -0.886678 -4.11966 0
M  V30 3223 H 311.602 0.0163404 -3.26596 0
M  V30 3224 H 310.261 -2.10012 -3.00484 0
M  V30 3225 H 309.909 -0.622107 -4.99138 0
M  V30 3226 H 309.609 -2.33143 -5.39368 0
M  V30 3227 H 311.133 -1.55201 -5.90546 0
M  V30 3228 H 312.547 -3.4145 -4.60526 0
M  V30 3229 H 310.944 -4.1559 -4.32903 0
M  V30 3230 H 312.014 -3.84903 -2.94919 0
M  V30 3231 N 313.357 1.07166 -1.15556 0
M  V30 3232 C 314.605 1.79443 -0.929764 0
M  V30 3233 C 314.926 1.87246 0.544414 0
M  V30 3234 O 314.196 1.37473 1.39564 0
M  V30 3235 H 312.776 0.664625 -0.341003 0
M  V30 3236 H 315.438 1.29499 -1.45657 0
M  V30 3237 H 314.534 2.81832 -1.34079 0
M  V30 3238 N 314.835 0.952656 1.25548 0
M  V30 3239 C 315.783 0.462354 2.27958 0
M  V30 3240 C 316.777 -0.46634 1.62855 0
M  V30 3241 O 317.983 -0.343287 1.76696 0
M  V30 3242 H 314.358 0.13101 0.7405 0
M  V30 3243 H 316.329 1.33839 2.66702 0
M  V30 3244 C 315.078 -0.24628 3.46827 0
M  V30 3245 H 314.401 0.459192 3.97154 0
M  V30 3246 H 315.841 -0.553393 4.20373 0
M  V30 3247 C 314.3 -1.4681 3.0323 0
M  V30 3248 O 314.83 -2.56591 3.09069 0
M  V30 3249 N 313.036 -1.32874 2.58443 0
M  V30 3250 H 312.583 -0.435536 2.53891 0
M  V30 3251 H 312.541 -2.14742 2.29637 0
M  V30 3252 N 316.313 -1.40141 0.720998 0
M  V30 3253 C 317.543 -2.04798 0.27226 0
M  V30 3254 C 317.951 -1.54442 -1.09289 0
M  V30 3255 O 317.294 -0.698342 -1.69908 0
M  V30 3256 C 317.356 -3.59048 0.18027 0
M  V30 3257 C 317.02 -4.32317 1.48159 0
M  V30 3258 C 318.017 -4.59902 2.42458 0
M  V30 3259 C 315.702 -4.71125 1.74202 0
M  V30 3260 C 317.696 -5.25288 3.61042 0
M  V30 3261 C 315.383 -5.36242 2.93066 0
M  V30 3262 C 316.381 -5.63254 3.86308 0
M  V30 3263 O 316.069 -6.27024 5.03086 0
M  V30 3264 H 315.801 -0.665419 0.119139 0
M  V30 3265 H 318.355 -1.80436 0.981432 0
M  V30 3266 H 316.585 -3.82251 -0.58489 0
M  V30 3267 H 318.274 -4.05221 -0.234618 0
M  V30 3268 H 319.04 -4.30379 2.23604 0
M  V30 3269 H 314.919 -4.49466 1.02477 0
M  V30 3270 H 318.463 -5.46289 4.33837 0
M  V30 3271 H 314.36 -5.65185 3.11826 0
M  V30 3272 H 315.128 -6.4552 5.03235 0
M  V30 3273 N 317.792 -0.46758 -1.50504 0
M  V30 3274 C 319.069 0.15003 -1.95024 0
M  V30 3275 C 319.449 1.57304 -1.40779 0
M  V30 3276 O 318.797 2.20281 -0.607319 0
M  V30 3277 C 319.007 0.0969324 -3.48865 0
M  V30 3278 C 320.355 0.287565 -4.23625 0
M  V30 3279 O 321.379 0.173678 -3.55776 0
M  V30 3280 O 320.238 0.517186 -5.44047 0
M  V30 3281 H 317.332 0.113582 -0.819163 0
M  V30 3282 H 319.878 -0.52773 -1.61286 0
M  V30 3283 H 318.65 -0.896732 -3.80886 0
M  V30 3284 H 318.273 0.816303 -3.8913 0
M  V30 3285 N 319.27 1.56325 -0.20005 0
M  V30 3286 C 320.2 2.22318 0.713916 0
M  V30 3287 C 321.181 1.18788 1.21752 0
M  V30 3288 O 322.366 1.47309 1.26545 0
M  V30 3289 C 319.496 2.88639 1.93144 0
M  V30 3290 C 318.45 3.98457 1.56255 0
M  V30 3291 C 317.776 4.51967 2.85709 0
M  V30 3292 C 319.076 5.16612 0.768747 0
M  V30 3293 H 320.77 2.98952 0.163755 0
M  V30 3294 H 318.316 1.43792 0.0773219 0
M  V30 3295 H 320.269 3.33491 2.57608 0
M  V30 3296 H 318.993 2.09419 2.50621 0
M  V30 3297 H 317.652 3.54305 0.941471 0
M  V30 3298 H 317.3 3.69503 3.41287 0
M  V30 3299 H 317 5.26071 2.6177 0
M  V30 3300 H 318.524 4.99523 3.51154 0
M  V30 3301 H 319.938 5.57977 1.3166 0
M  V30 3302 H 318.335 5.96812 0.627286 0
M  V30 3303 H 319.405 4.84358 -0.229168 0
M  V30 3304 N 320.748 -0.0735177 1.57428 0
M  V30 3305 C 321.994 -0.768909 1.88307 0
M  V30 3306 C 322.349 -1.75273 0.793535 0
M  V30 3307 O 321.642 -1.90527 -0.202466 0
M  V30 3308 C 321.836 -1.51799 3.23561 0
M  V30 3309 C 321.665 -0.608217 4.45568 0
M  V30 3310 C 320.435 -0.245808 5.04702 0
M  V30 3311 C 322.633 0.0942904 5.14214 0
M  V30 3312 N 320.615 0.66987 6.10234 0
M  V30 3313 C 321.986 0.867222 6.13905 0
M  V30 3314 C 324.041 0.165943 4.97623 0
M  V30 3315 C 322.744 1.70515 6.98797 0
M  V30 3316 C 324.77 0.990837 5.83041 0
M  V30 3317 C 324.132 1.75182 6.82269 0
M  V30 3318 H 320.231 -0.25685 0.738615 0
M  V30 3319 H 322.815 -0.030499 1.94676 0
M  V30 3320 H 320.986 -2.22713 3.18203 0
M  V30 3321 H 322.718 -2.16226 3.42094 0
M  V30 3322 H 319.473 -0.598284 4.69806 0
M  V30 3323 H 319.897 1.1209 6.67656 0
M  V30 3324 H 324.539 -0.408064 4.20826 0
M  V30 3325 H 322.257 2.29013 7.7497 0
M  V30 3326 H 325.843 1.04923 5.72261 0
M  V30 3327 H 324.723 2.37983 7.47217 0
M  V30 3328 N 322.226 -1.5378 -0.344866 0
M  V30 3329 C 323.176 -1.78057 -1.42407 0
M  V30 3330 C 324.16 -0.635732 -1.47808 0
M  V30 3331 O 325.352 -0.89508 -1.527 0
M  V30 3332 C 322.481 -1.99242 -2.79566 0
M  V30 3333 C 321.567 -3.19787 -2.78562 0
M  V30 3334 N 321.958 -4.41284 -2.47189 0
M  V30 3335 C 320.256 -3.2093 -3.0971 0
M  V30 3336 C 320.957 -5.23128 -2.54385 0
M  V30 3337 N 319.933 -4.59813 -2.89953 0
M  V30 3338 H 323.735 -2.69588 -1.17046 0
M  V30 3339 H 321.249 -1.52687 -0.553217 0
M  V30 3340 H 323.246 -2.14768 -3.57324 0
M  V30 3341 H 321.906 -1.08953 -3.05875 0
M  V30 3342 H 322.917 -4.68657 -2.20411 0
M  V30 3343 H 319.594 -2.40603 -3.41199 0
M  V30 3344 H 320.984 -6.30096 -2.333 0
M  V30 3345 N 323.704 0.605807 -1.45491 0
M  V30 3346 C 324.953 1.36086 -1.48874 0
M  V30 3347 C 325.266 1.95131 -0.135333 0
M  V30 3348 O 326.472 2.7146 -0.0468144 0
M  V30 3349 C 324.928 2.46518 -2.62215 0
M  V30 3350 C 324.536 1.93877 -4.03876 0
M  V30 3351 C 326.28 3.23512 -2.74846 0
M  V30 3352 C 324.187 3.01801 -5.08596 0
M  V30 3353 H 323.117 0.511497 -0.553974 0
M  V30 3354 H 325.768 0.649089 -1.71636 0
M  V30 3355 H 324.15 3.20388 -2.32739 0
M  V30 3356 H 325.324 1.26704 -4.43038 0
M  V30 3357 H 323.639 1.29622 -3.95711 0
M  V30 3358 H 326.236 4.04013 -3.50253 0
M  V30 3359 H 326.579 3.74631 -1.81542 0
M  V30 3360 H 327.112 2.56742 -3.03856 0
M  V30 3361 H 323.851 2.55597 -6.03614 0
M  V30 3362 H 323.371 3.67535 -4.74002 0
M  V30 3363 H 325.05 3.66152 -5.33424 0
M  V30 3364 N 325.182 1.32811 0.848464 0
M  V30 3365 C 326.112 1.24882 1.97299 0
M  V30 3366 C 327.093 0.131357 1.69592 0
M  V30 3367 O 328.278 0.319553 1.91553 0
M  V30 3368 C 325.408 0.97746 3.33261 0
M  V30 3369 C 324.362 2.05682 3.75338 0
M  V30 3370 C 323.688 1.63777 5.09 0
M  V30 3371 C 324.988 3.47254 3.90144 0
M  V30 3372 H 326.682 2.18966 2.04191 0
M  V30 3373 H 324.228 1.05413 0.981029 0
M  V30 3374 H 326.181 0.908513 4.1149 0
M  V30 3375 H 324.905 0.000980011 3.266 0
M  V30 3376 H 323.564 2.11603 2.99366 0
M  V30 3377 H 323.212 0.648569 4.98801 0
M  V30 3378 H 322.912 2.36 5.38124 0
M  V30 3379 H 324.436 1.5833 5.89715 0
M  V30 3380 H 325.85 3.43888 4.58709 0
M  V30 3381 H 324.247 4.1788 4.30693 0
M  V30 3382 H 325.317 3.86462 2.92874 0
M  V30 3383 N 326.66 -1.06551 1.16123 0
M  V30 3384 C 327.59 -2.15935 0.88851 0
M  V30 3385 C 328.571 -1.69306 -0.164135 0
M  V30 3386 O 329.756 -1.94193 -0.0167857 0
M  V30 3387 C 326.886 -3.45149 0.385942 0
M  V30 3388 C 325.84 -4.05271 1.3762 0
M  V30 3389 C 325.166 -5.29664 0.732137 0
M  V30 3390 C 326.466 -4.44355 2.74493 0
M  V30 3391 H 328.16 -2.39006 1.80323 0
M  V30 3392 H 325.706 -1.14866 0.868435 0
M  V30 3393 H 327.659 -4.21004 0.182647 0
M  V30 3394 H 326.383 -3.21689 -0.564274 0
M  V30 3395 H 325.042 -3.3147 1.56599 0
M  V30 3396 H 324.69 -5.02499 -0.224483 0
M  V30 3397 H 324.39 -5.70848 1.39307 0
M  V30 3398 H 325.914 -6.08218 0.538802 0
M  V30 3399 H 327.328 -5.11303 2.59311 0
M  V30 3400 H 325.725 -4.96515 3.37035 0
M  V30 3401 H 326.795 -3.55339 3.29943 0
M  V30 3402 N 328.138 -0.959301 -1.25041 0
M  V30 3403 C 329.386 -0.615393 -1.92503 0
M  V30 3404 C 329.707 0.850969 -1.75452 0
M  V30 3405 O 328.977 1.60658 -1.12098 0
M  V30 3406 H 327.557 -0.224613 -0.712431 0
M  V30 3407 H 330.219 -1.21855 -1.5211 0
M  V30 3408 H 329.315 -0.848738 -3.00338 0
M  V30 3409 N 329.616 1.39756 -0.72842 0
M  V30 3410 C 330.546 2.33289 -0.0991354 0
M  V30 3411 C 331.527 1.53568 0.731489 0
M  V30 3412 O 332.712 1.81987 0.677807 0
M  V30 3413 C 329.842 3.3763 0.813834 0
M  V30 3414 C 328.796 4.2791 0.0878663 0
M  V30 3415 C 328.122 5.22894 1.11741 0
M  V30 3416 C 329.422 5.11314 -1.06563 0
M  V30 3417 H 331.116 2.86163 -0.880408 0
M  V30 3418 H 328.662 1.37591 -0.424819 0
M  V30 3419 H 330.615 4.0201 1.26355 0
M  V30 3420 H 329.339 2.83181 1.62715 0
M  V30 3421 H 327.998 3.65 -0.342159 0
M  V30 3422 H 327.646 4.64744 1.92412 0
M  V30 3423 H 327.346 5.84143 0.636477 0
M  V30 3424 H 328.87 5.90151 1.56697 0
M  V30 3425 H 330.284 5.69076 -0.694671 0
M  V30 3426 H 328.681 5.81671 -1.47577 0
M  V30 3427 H 329.751 4.46534 -1.89038 0
M  V30 3428 N 331.094 0.475555 1.50254 0
M  V30 3429 C 332.319 -0.0777042 2.07254 0
M  V30 3430 C 332.744 -1.3235 1.3366 0
M  V30 3431 O 332.102 -1.77152 0.385597 0
M  V30 3432 C 332.15 -0.340169 3.58992 0
M  V30 3433 O 331.254 -1.41982 3.87188 0
M  V30 3434 H 330.595 0.0149556 0.663832 0
M  V30 3435 H 333.125 0.667878 1.93392 0
M  V30 3436 H 333.135 -0.579332 4.03866 0
M  V30 3437 H 331.81 0.570167 4.11973 0
M  V30 3438 H 330.387 -1.16762 3.54148 0
M  V30 3439 N 332.573 -1.56217 0.208337 0
M  V30 3440 C 333.821 -1.97558 -0.426076 0
M  V30 3441 C 334.142 -1.09683 -1.61229 0
M  V30 3442 O 333.412 -0.170956 -1.95153 0
M  V30 3443 H 331.992 -0.729575 -0.160405 0
M  V30 3444 H 334.654 -1.92606 0.298155 0
M  V30 3445 H 333.75 -3.02672 -0.761312 0
M  V30 3446 N 334.051 0.0651679 -1.57465 0
M  V30 3447 C 335.297 0.764193 -1.87851 0
M  V30 3448 C 335.63 1.76889 -0.801495 0
M  V30 3449 O 334.905 1.93594 0.187528 0
M  V30 3450 C 335.188 1.46625 -3.28897 0
M  V30 3451 C 335.041 0.477515 -4.47258 0
M  V30 3452 C 336.36 2.4095 -3.68281 0
M  V30 3453 H 333.479 0.276351 -0.683227 0
M  V30 3454 H 336.121 0.0272868 -1.8998 0
M  V30 3455 H 334.271 2.09438 -3.27212 0
M  V30 3456 H 335.943 -0.145922 -4.61069 0
M  V30 3457 H 334.186 -0.206576 -4.33308 0
M  V30 3458 H 334.857 1.0065 -5.42746 0
M  V30 3459 H 337.333 1.88209 -3.71102 0
M  V30 3460 H 336.209 2.87072 -4.67847 0
M  V30 3461 H 336.47 3.26049 -2.98571 0
M  V30 3462 N 335.529 1.53961 0.336706 0
M  V30 3463 C 336.945 1.44378 0.680241 0
M  V30 3464 C 337.145 0.606034 1.9217 0
M  V30 3465 O 336.201 0.099688 2.52303 0
M  V30 3466 C 337.514 2.87945 0.8665 0
M  V30 3467 C 339.062 2.97763 0.964682 0
M  V30 3468 C 339.537 4.42453 1.18321 0
M  V30 3469 N 341.028 4.46008 1.25025 0
M  V30 3470 C 341.763 5.55102 1.43697 0
M  V30 3471 N 341.259 6.7419 1.59498 0
M  V30 3472 N 343.052 5.42727 1.463 0
M  V30 3473 H 335.203 2.06918 -0.479455 0
M  V30 3474 H 337.466 0.935634 -0.152619 0
M  V30 3475 H 337.172 3.51691 0.0256937 0
M  V30 3476 H 337.046 3.33293 1.76623 0
M  V30 3477 H 339.433 2.34153 1.796 0
M  V30 3478 H 339.514 2.55766 0.041708 0
M  V30 3479 H 339.158 5.06645 0.356788 0
M  V30 3480 H 339.088 4.82048 2.11985 0
M  V30 3481 H 341.579 3.60196 1.14312 0
M  V30 3482 H 341.892 7.53095 1.734 0
M  V30 3483 H 340.237 6.77123 1.56621 0
M  V30 3484 H 343.428 4.48647 1.33543 0
M  V30 3485 H 343.601 6.27806 1.6051 0
M  V30 3486 N 337.007 -0.598083 1.45811 0
M  V30 3487 C 337.97 -1.69018 1.54808 0
M  V30 3488 C 338.97 -1.55037 0.426652 0
M  V30 3489 O 340.16 -1.59932 0.690456 0
M  V30 3490 C 337.292 -3.0835 1.45371 0
M  V30 3491 H 338.485 -1.62403 2.52121 0
M  V30 3492 H 336.038 -0.814626 1.33392 0
M  V30 3493 H 336.773 -3.20534 0.492793 0
M  V30 3494 H 336.558 -3.19907 2.26721 0
M  V30 3495 H 338.048 -3.8788 1.54721 0
M  V30 3496 N 338.485 -1.33259 -0.841409 0
M  V30 3497 C 339.734 -1.23921 -1.59143 0
M  V30 3498 C 340.047 0.1941 -1.94635 0
M  V30 3499 O 341.253 0.409474 -2.68394 0
M  V30 3500 C 339.709 -2.17119 -2.87032 0
M  V30 3501 C 339.317 -3.65606 -2.58914 0
M  V30 3502 C 341.061 -2.16648 -3.65053 0
M  V30 3503 C 338.968 -4.50726 -3.82884 0
M  V30 3504 H 337.898 -0.460264 -0.597221 0
M  V30 3505 H 340.549 -1.58307 -0.927959 0
M  V30 3506 H 338.931 -1.75663 -3.54906 0
M  V30 3507 H 340.105 -4.15487 -1.99267 0
M  V30 3508 H 338.42 -3.68341 -1.942 0
M  V30 3509 H 341.017 -2.77474 -4.57069 0
M  V30 3510 H 341.36 -1.16088 -3.99787 0
M  V30 3511 H 341.893 -2.56453 -3.041 0
M  V30 3512 H 338.632 -5.52151 -3.53283 0
M  V30 3513 H 338.152 -4.0559 -4.41879 0
M  V30 3514 H 339.831 -4.64401 -4.50489 0
M  V30 3515 N 339.963 1.05934 -1.16686 0
M  V30 3516 C 340.893 2.1546 -0.899949 0
M  V30 3517 C 341.874 1.69391 0.155154 0
M  V30 3518 O 343.059 1.94199 0.00648693 0
M  V30 3519 C 340.189 3.44939 -0.404241 0
M  V30 3520 C 339.143 4.04536 -1.39767 0
M  V30 3521 C 338.469 5.29268 -0.760216 0
M  V30 3522 C 339.769 4.42893 -2.76845 0
M  V30 3523 H 341.463 2.38046 -1.81588 0
M  V30 3524 H 339.009 1.14404 -0.874514 0
M  V30 3525 H 340.962 4.20901 -0.204971 0
M  V30 3526 H 339.686 3.21983 0.547206 0
M  V30 3527 H 338.345 3.30635 -1.58355 0
M  V30 3528 H 337.993 5.02611 0.197831 0
M  V30 3529 H 337.693 5.70101 -1.42332 0
M  V30 3530 H 339.217 6.07924 -0.57105 0
M  V30 3531 H 340.631 5.09921 -2.62019 0
M  V30 3532 H 339.028 4.94721 -3.39663 0
M  V30 3533 H 340.098 3.53584 -3.31823 0
M  V30 3534 N 341.441 0.965919 1.2453 0
M  V30 3535 C 342.373 0.452465 2.2469 0
M  V30 3536 C 343.386 -0.437821 1.56802 0
M  V30 3537 O 344.575 -0.244283 1.76821 0
M  V30 3538 C 341.675 -0.366258 3.36915 0
M  V30 3539 C 340.848 0.513701 4.34373 0
M  V30 3540 C 339.907 -0.248716 5.25612 0
M  V30 3541 O 338.933 0.356745 5.68081 0
M  V30 3542 N 340.135 -1.53877 5.59734 0
M  V30 3543 H 342.9 1.31361 2.69378 0
M  V30 3544 H 340.461 0.837541 1.38553 0
M  V30 3545 H 342.453 -0.884297 3.94921 0
M  V30 3546 H 341.023 -1.12832 2.91526 0
M  V30 3547 H 340.243 1.21273 3.75082 0
M  V30 3548 H 341.531 1.11391 4.96457 0
M  V30 3549 H 340.929 -2.05243 5.27154 0
M  V30 3550 H 339.486 -2.00254 6.20275 0
M  V30 3551 N 342.919 -1.39368 0.735821 0
M  V30 3552 C 344.144 -2.05319 0.293052 0
M  V30 3553 C 344.569 -1.55115 -1.064 0
M  V30 3554 O 343.927 -0.695261 -1.67439 0
M  V30 3555 C 343.975 -3.59305 0.305323 0
M  V30 3556 O 343.079 -4.06299 -0.706761 0
M  V30 3557 H 342.42 -0.650529 0.13307 0
M  V30 3558 H 344.95 -1.78386 1.00197 0
M  V30 3559 H 344.96 -4.07724 0.149997 0
M  V30 3560 H 343.635 -3.95207 1.29553 0
M  V30 3561 H 342.212 -3.69292 -0.517504 0
M  V30 3562 N 344.397 -0.483516 -1.5 0
M  V30 3563 C 345.327 0.293829 -2.31644 0
M  V30 3564 C 346.308 0.978864 -1.39112 0
M  V30 3565 O 347.493 0.973644 -1.68029 0
M  V30 3566 C 344.623 1.36897 -3.19181 0
M  V30 3567 C 343.577 0.804833 -4.20365 0
M  V30 3568 C 342.903 1.9792 -4.96721 0
M  V30 3569 C 344.203 -0.192313 -5.21946 0
M  V30 3570 H 345.897 -0.387616 -2.9688 0
M  V30 3571 H 343.443 -0.187856 -1.42769 0
M  V30 3572 H 345.396 1.92037 -3.751 0
M  V30 3573 H 344.12 2.07936 -2.51853 0
M  V30 3574 H 342.779 0.275319 -3.65565 0
M  V30 3575 H 342.427 2.67686 -4.25856 0
M  V30 3576 H 342.127 1.60789 -5.65173 0
M  V30 3577 H 343.651 2.53526 -5.55479 0
M  V30 3578 H 345.065 0.270333 -5.72662 0
M  V30 3579 H 343.462 -0.478543 -5.98189 0
M  V30 3580 H 344.532 -1.11409 -4.71928 0
M  V30 3581 N 345.875 1.56104 -0.216619 0
M  V30 3582 C 346.805 2.23063 0.690296 0
M  V30 3583 C 347.786 1.20072 1.20485 0
M  V30 3584 O 348.971 1.48643 1.24976 0
M  V30 3585 C 346.101 2.90672 1.90072 0
M  V30 3586 C 345.055 4.00092 1.5202 0
M  V30 3587 C 344.381 4.54972 2.80899 0
M  V30 3588 C 345.681 5.17398 0.71391 0
M  V30 3589 H 347.375 2.99109 0.132038 0
M  V30 3590 H 344.921 1.43866 0.0620664 0
M  V30 3591 H 346.874 3.36204 2.54057 0
M  V30 3592 H 345.598 2.12066 2.48386 0
M  V30 3593 H 344.257 3.55283 0.903839 0
M  V30 3594 H 343.905 3.73102 3.37348 0
M  V30 3595 H 343.605 5.28817 2.56176 0
M  V30 3596 H 345.129 5.0322 3.45836 0
M  V30 3597 H 346.543 5.59342 1.25735 0
M  V30 3598 H 344.94 5.97444 0.563951 0
M  V30 3599 H 346.01 4.84088 -0.280527 0
M  V30 3600 N 347.353 -0.0568162 1.57498 0
M  V30 3601 C 348.283 -1.06593 2.0775 0
M  V30 3602 C 349.264 -1.39448 0.974082 0
M  V30 3603 O 350.449 -1.48815 1.24771 0
M  V30 3604 C 347.579 -2.37509 2.5339 0
M  V30 3605 C 346.533 -2.1897 3.67745 0
M  V30 3606 C 345.859 -3.55402 3.99492 0
M  V30 3607 C 347.159 -1.59859 4.97235 0
M  V30 3608 H 348.853 -0.647706 2.9231 0
M  V30 3609 H 346.399 -0.310116 1.40621 0
M  V30 3610 H 348.352 -3.08409 2.87162 0
M  V30 3611 H 347.076 -2.8134 1.65878 0
M  V30 3612 H 345.735 -1.50508 3.3428 0
M  V30 3613 H 345.383 -3.9683 3.09088 0
M  V30 3614 H 345.083 -3.43831 4.76502 0
M  V30 3615 H 346.607 -4.27708 4.35773 0
M  V30 3616 H 348.021 -2.20642 5.29141 0
M  V30 3617 H 346.418 -1.58942 5.78669 0
M  V30 3618 H 347.488 -0.561506 4.81638 0
M  V30 3619 N 348.832 -1.54138 -0.328536 0
M  V30 3620 C 350.079 -1.72105 -1.06706 0
M  V30 3621 C 350.407 -0.492111 -1.88171 0
M  V30 3622 O 349.662 0.526153 -1.88494 0
M  V30 3623 C 349.961 -2.9457 -2.02393 0
M  V30 3624 C 349.627 -4.29544 -1.37122 0
M  V30 3625 C 348.289 -4.6624 -1.19052 0
M  V30 3626 C 350.641 -5.1333 -0.902331 0
M  V30 3627 C 347.969 -5.84325 -0.527331 0
M  V30 3628 C 350.321 -6.32094 -0.252988 0
M  V30 3629 C 348.985 -6.67473 -0.0600901 0
M  V30 3630 H 348.255 -0.629775 -0.390466 0
M  V30 3631 H 350.902 -1.88372 -0.34473 0
M  V30 3632 H 349.207 -2.72969 -2.81061 0
M  V30 3633 H 350.904 -3.05665 -2.59557 0
M  V30 3634 H 347.494 -4.0067 -1.52188 0
M  V30 3635 H 351.678 -4.855 -1.02974 0
M  V30 3636 H 346.934 -6.103 -0.366634 0
M  V30 3637 H 351.108 -6.96299 0.118366 0
M  V30 3638 H 348.735 -7.58832 0.455828 0
M  V30 3639 N 350.31 0.590341 -1.46126 0
M  V30 3640 C 351.557 1.34882 -1.5104 0
M  V30 3641 C 351.885 1.93849 -0.159021 0
M  V30 3642 O 351.14 1.76544 0.844436 0
M  V30 3643 C 351.439 2.5032 -2.55097 0
M  V30 3644 C 351.105 2.09394 -3.99331 0
M  V30 3645 C 349.767 1.97947 -4.38601 0
M  V30 3646 C 352.119 1.77712 -4.89967 0
M  V30 3647 C 349.447 1.53065 -5.66381 0
M  V30 3648 C 351.799 1.34312 -6.18177 0
M  V30 3649 C 350.463 1.21436 -6.56361 0
M  V30 3650 H 349.733 0.493568 -0.552695 0
M  V30 3651 H 352.38 0.665539 -1.79563 0
M  V30 3652 H 350.685 3.24062 -2.20207 0
M  V30 3653 H 352.382 3.08541 -2.56132 0
M  V30 3654 H 348.972 2.19235 -3.68285 0
M  V30 3655 H 353.156 1.85445 -4.60352 0
M  V30 3656 H 348.412 1.41733 -5.94745 0
M  V30 3657 H 352.586 1.08849 -6.87841 0
M  V30 3658 H 350.213 0.864345 -7.5527 0
M  V30 3659 N 351.788 1.33704 0.83433 0
M  V30 3660 C 353.028 1.26754 1.60352 0
M  V30 3661 C 353.392 -0.163182 1.91305 0
M  V30 3662 O 354.593 -0.3567 2.66423 0
M  V30 3663 C 352.864 2.12262 2.8754 0
M  V30 3664 S 354.423 2.22549 3.78176 0
M  V30 3665 H 351.241 0.450879 0.549753 0
M  V30 3666 H 353.843 1.68788 0.986444 0
M  V30 3667 H 352.547 3.15238 2.62779 0
M  V30 3668 H 352.078 1.71082 3.54252 0
M  V30 3669 H 354.093 1.3899 4.76336 0
M  V30 3670 N 353.266 -1.05314 1.17247 0
M  V30 3671 C 354.677 -1.59753 0.96623 0
M  V30 3672 C 355.028 -1.9005 -0.487378 0
M  V30 3673 O 354.153 -1.68126 -1.36245 0
M  V30 3674 C 354.748 -2.90249 1.74759 0
M  V30 3675 C 353.307 -3.41352 1.58606 0
M  V30 3676 C 352.454 -2.15103 1.75002 0
M  V30 3677 H 355.405 -0.881406 1.31973 0
M  V30 3678 H 355.426 -3.60097 1.22925 0
M  V30 3679 H 354.938 -2.68166 2.8055 0
M  V30 3680 H 353.039 -3.68474 0.552985 0
M  V30 3681 H 353.152 -4.16019 2.37624 0
M  V30 3682 H 351.516 -2.25804 1.17833 0
M  V30 3683 H 352.299 -1.95491 2.82202 0
M  V30 3684 N 354.744 -0.972509 -1.24016 0
M  V30 3685 C 355.654 -0.5143 -2.28893 0
M  V30 3686 C 356.67 0.427078 -1.68677 0
M  V30 3687 O 357.846 0.298939 -1.99169 0
M  V30 3688 C 354.911 0.183598 -3.46214 0
M  V30 3689 C 353.972 -0.798202 -4.21814 0
M  V30 3690 C 353.205 -0.133514 -5.33533 0
M  V30 3691 O 353.428 1.07714 -5.60137 0
M  V30 3692 O 352.362 -0.828103 -5.96176 0
M  V30 3693 H 356.188 -1.38629 -2.70214 0
M  V30 3694 H 353.773 -0.739769 -1.29799 0
M  V30 3695 H 355.655 0.575433 -4.17453 0
M  V30 3696 H 354.33 1.03048 -3.0686 0
M  V30 3697 H 353.237 -1.24059 -3.52931 0
M  V30 3698 H 354.57 -1.61364 -4.64997 0
M  V30 3699 N 356.222 1.38976 -0.743202 0
M  V30 3700 C 357.447 2.05161 -0.303936 0
M  V30 3701 C 357.872 1.55677 1.05576 0
M  V30 3702 O 357.23 0.704131 1.67068 0
M  V30 3703 C 357.278 3.59138 -0.324373 0
M  V30 3704 O 356.382 4.06668 0.685204 0
M  V30 3705 H 355.723 0.649815 -0.136518 0
M  V30 3706 H 358.253 1.77852 -1.01142 0
M  V30 3707 H 358.263 4.07639 -0.171618 0
M  V30 3708 H 356.938 3.94515 -1.31647 0
M  V30 3709 H 355.515 3.69561 0.497913 0
M  V30 3710 N 357.7 0.491464 1.49741 0
M  V30 3711 C 359.111 0.0413169 1.86654 0
M  V30 3712 C 359.462 -1.36985 1.40462 0
M  V30 3713 O 358.587 -2.01917 0.778354 0
M  V30 3714 C 359.182 0.0682023 3.38731 0
M  V30 3715 C 357.741 -0.32656 3.74981 0
M  V30 3716 C 356.888 0.444888 2.73708 0
M  V30 3717 H 359.839 0.704733 1.42194 0
M  V30 3718 H 359.86 -0.729322 3.73445 0
M  V30 3719 H 359.372 1.09539 3.72321 0
M  V30 3720 H 357.473 -1.35734 3.46997 0
M  V30 3721 H 357.586 -0.013741 4.79098 0
M  V30 3722 H 355.95 -0.104062 2.54487 0
M  V30 3723 H 356.733 1.47197 3.10142 0
M  V30 3724 N 359.178 -1.55987 0.224894 0
M  V30 3725 C 360.594 -1.59066 -0.130426 0
M  V30 3726 C 360.794 -1.24176 -1.5869 0
M  V30 3727 O 359.85 -0.978592 -2.32766 0
M  V30 3728 C 361.163 -3.00042 0.198883 0
M  V30 3729 C 362.711 -3.1268 0.141391 0
M  V30 3730 C 363.186 -4.55839 0.444422 0
M  V30 3731 N 364.677 -4.6152 0.394115 0
M  V30 3732 C 365.412 -5.70231 0.602038 0
M  V30 3733 N 364.908 -6.87291 0.871914 0
M  V30 3734 N 366.701 -5.59555 0.534245 0
M  V30 3735 H 358.852 -1.76941 1.17497 0
M  V30 3736 H 361.115 -0.822604 0.471197 0
M  V30 3737 H 360.821 -3.30234 1.2099 0
M  V30 3738 H 360.695 -3.74075 -0.484535 0
M  V30 3739 H 363.082 -2.82283 -0.860265 0
M  V30 3740 H 363.163 -2.40969 0.858335 0
M  V30 3741 H 362.807 -4.86954 1.44353 0
M  V30 3742 H 362.737 -5.2578 -0.293752 0
M  V30 3743 H 365.228 -3.77405 0.193356 0
M  V30 3744 H 365.541 -7.66058 1.01858 0
M  V30 3745 H 363.886 -6.89028 0.909145 0
M  V30 3746 H 367.077 -4.6698 0.323612 0
M  V30 3747 H 367.25 -6.44211 0.699693 0
M  V30 3748 N 360.656 0.0484629 -1.57525 0
M  V30 3749 C 361.886 0.754326 -1.92337 0
M  V30 3750 C 362.294 1.70443 -0.82132 0
M  V30 3751 O 361.637 1.82466 0.21254 0
M  V30 3752 C 361.699 1.58231 -3.22805 0
M  V30 3753 C 361.363 0.799074 -4.4996 0
M  V30 3754 C 362.36 0.1079 -5.19788 0
M  V30 3755 C 360.045 0.759345 -4.96527 0
M  V30 3756 C 362.039 -0.612516 -6.3445 0
M  V30 3757 C 359.726 0.0351713 -6.1109 0
M  V30 3758 C 360.724 -0.649537 -6.79904 0
M  V30 3759 O 360.412 -1.36199 -7.92278 0
M  V30 3760 H 360.144 0.218257 -0.639797 0
M  V30 3761 H 362.698 0.0159295 -2.05394 0
M  V30 3762 H 360.928 2.36406 -3.06021 0
M  V30 3763 H 362.617 2.16898 -3.43089 0
M  V30 3764 H 363.383 0.129748 -4.84826 0
M  V30 3765 H 359.262 1.28177 -4.42822 0
M  V30 3766 H 362.806 -1.14751 -6.88097 0
M  V30 3767 H 358.703 0.0113314 -6.45499 0
M  V30 3768 H 359.471 -1.27366 -8.0853 0
M  V30 3769 N 362.134 1.5431 0.320358 0
M  V30 3770 C 363.064 1.86912 1.3995 0
M  V30 3771 C 364.045 0.726211 1.53819 0
M  V30 3772 O 365.23 0.980233 1.67646 0
M  V30 3773 C 362.36 2.09932 2.7667 0
M  V30 3774 C 361.314 3.25776 2.77586 0
M  V30 3775 C 360.64 3.34173 4.17412 0
M  V30 3776 C 361.94 4.6335 2.41048 0
M  V30 3777 H 363.634 2.77292 1.12914 0
M  V30 3778 H 361.18 1.33421 0.541738 0
M  V30 3779 H 363.133 2.31324 3.52232 0
M  V30 3780 H 361.857 1.16304 3.0519 0
M  V30 3781 H 360.516 3.04276 2.04479 0
M  V30 3782 H 360.164 2.38098 4.43078 0
M  V30 3783 H 359.864 4.12033 4.18931 0
M  V30 3784 H 361.388 3.57803 4.94782 0
M  V30 3785 H 362.802 4.84602 3.06324 0
M  V30 3786 H 361.199 5.43782 2.53813 0
M  V30 3787 H 362.269 4.65381 1.36193 0
M  V30 3788 N 363.613 -0.582584 1.46437 0
M  V30 3789 C 364.843 -1.36484 1.55099 0
M  V30 3790 C 365.251 -1.88233 0.191056 0
M  V30 3791 O 364.594 -1.6429 -0.821858 0
M  V30 3792 C 364.656 -2.588 2.49525 0
M  V30 3793 C 364.32 -2.28517 3.95764 0
M  V30 3794 C 365.317 -1.87346 4.84972 0
M  V30 3795 C 363.002 -2.40658 4.40896 0
M  V30 3796 C 364.996 -1.5871 6.17325 0
M  V30 3797 C 362.683 -2.11635 5.73284 0
M  V30 3798 C 363.681 -1.70725 6.61318 0
M  V30 3799 O 363.369 -1.42057 7.91249 0
M  V30 3800 H 363.101 -0.423297 0.527063 0
M  V30 3801 H 365.655 -0.715188 1.92547 0
M  V30 3802 H 363.885 -3.26571 2.07095 0
M  V30 3803 H 365.574 -3.20868 2.48593 0
M  V30 3804 H 366.34 -1.77481 4.5136 0
M  V30 3805 H 362.219 -2.71463 3.72598 0
M  V30 3806 H 365.763 -1.26704 6.85997 0
M  V30 3807 H 361.66 -2.21124 6.06444 0
M  V30 3808 H 362.428 -1.55901 8.03515 0
M  V30 3809 N 365.091 -1.34144 -0.827227 0
M  V30 3810 C 366.34 -1.25602 -1.5782 0
M  V30 3811 C 366.653 0.173445 -1.94829 0
M  V30 3812 O 367.859 0.380984 -2.68814 0
M  V30 3813 C 366.315 -2.20151 -2.84713 0
M  V30 3814 C 365.923 -3.68331 -2.55021 0
M  V30 3815 C 367.667 -2.20508 -3.62735 0
M  V30 3816 C 365.574 -4.54762 -3.78082 0
M  V30 3817 H 364.504 -0.466573 -0.592306 0
M  V30 3818 H 367.155 -1.59283 -0.911116 0
M  V30 3819 H 365.537 -1.79417 -3.53023 0
M  V30 3820 H 366.711 -4.17577 -1.94849 0
M  V30 3821 H 365.026 -3.7038 -1.90283 0
M  V30 3822 H 367.623 -2.82306 -4.54101 0
M  V30 3823 H 367.966 -1.20322 -3.98533 0
M  V30 3824 H 368.499 -2.59664 -3.01362 0
M  V30 3825 H 365.238 -5.55867 -3.47407 0
M  V30 3826 H 364.758 -4.10254 -4.37552 0
M  V30 3827 H 366.437 -4.69153 -4.45538 0
M  V30 3828 N 366.569 1.04691 -1.17803 0
M  V30 3829 C 367.516 2.12557 -0.899343 0
M  V30 3830 C 368.486 1.65339 0.158771 0
M  V30 3831 O 369.671 1.90789 0.0204797 0
M  V30 3832 C 366.811 3.42481 -0.424315 0
M  V30 3833 C 365.924 4.03346 -1.54713 0
M  V30 3834 C 365.059 5.21208 -1.02546 0
M  V30 3835 C 364.098 5.74089 -2.12339 0
M  V30 3836 N 363.235 6.83247 -1.61612 0
M  V30 3837 H 368.075 2.35734 -1.823 0
M  V30 3838 H 365.612 1.1564 -0.909159 0
M  V30 3839 H 367.57 4.16996 -0.130421 0
M  V30 3840 H 366.2 3.19471 0.462377 0
M  V30 3841 H 365.252 3.2622 -1.95664 0
M  V30 3842 H 366.564 4.38628 -2.37501 0
M  V30 3843 H 365.718 6.02812 -0.685718 0
M  V30 3844 H 364.457 4.87414 -0.167084 0
M  V30 3845 H 363.462 4.91111 -2.47165 0
M  V30 3846 H 364.687 6.0993 -2.98601 0
M  V30 3847 H 362.633 6.5134 -0.780533 0
M  V30 3848 H 362.55 7.17559 -2.38003 0
M  V30 3849 H 363.818 7.68491 -1.30545 0
M  V30 3850 N 368.047 0.979072 1.23499 0
M  V30 3851 C 368.977 0.537606 2.27227 0
M  V30 3852 C 369.958 -0.428539 1.64613 0
M  V30 3853 O 371.143 -0.322191 1.91509 0
M  V30 3854 C 368.273 -0.162052 3.46922 0
M  V30 3855 C 367.227 0.721242 4.21879 0
M  V30 3856 C 366.553 -0.110555 5.34586 0
M  V30 3857 C 367.853 2.01141 4.82016 0
M  V30 3858 H 369.547 1.40462 2.64406 0
M  V30 3859 H 367.093 0.67684 1.27102 0
M  V30 3860 H 369.046 -0.482192 4.18632 0
M  V30 3861 H 367.77 -1.06351 3.08799 0
M  V30 3862 H 366.429 1.02482 3.51984 0
M  V30 3863 H 366.077 -1.0125 4.92704 0
M  V30 3864 H 365.777 0.477325 5.85658 0
M  V30 3865 H 367.301 -0.425107 6.09118 0
M  V30 3866 H 368.715 1.75612 5.45741 0
M  V30 3867 H 367.112 2.54695 5.43369 0
M  V30 3868 H 368.182 2.69909 4.02836 0
M  V30 3869 N 369.525 -1.3858 0.750561 0
M  V30 3870 C 370.802 -1.94231 0.231009 0
M  V30 3871 C 371.182 -1.68611 -1.27018 0
M  V30 3872 O 370.53 -1.02296 -2.04323 0
M  V30 3873 C 370.74 -3.44123 0.581428 0
M  V30 3874 C 372.088 -4.2116 0.539389 0
M  V30 3875 O 373.112 -3.52391 0.519541 0
M  V30 3876 O 371.971 -5.43749 0.54765 0
M  V30 3877 H 369.065 -0.825639 0.0474263 0
M  V30 3878 H 371.611 -1.4799 0.830478 0
M  V30 3879 H 370.383 -3.56267 1.61833 0
M  V30 3880 H 370.006 -3.97573 -0.0462047 0
M  V30 3881 N 371.003 -0.499398 -1.49478 0
M  V30 3882 C 371.913 0.284489 -2.32869 0
M  V30 3883 C 372.929 0.968885 -1.44529 0
M  V30 3884 O 374.105 0.95062 -1.77553 0
M  V30 3885 C 371.17 1.33594 -3.19928 0
M  V30 3886 C 370.231 0.665149 -4.24116 0
M  V30 3887 C 369.464 1.6665 -5.07014 0
M  V30 3888 O 369.687 2.89618 -4.91404 0
M  V30 3889 O 368.621 1.22271 -5.8935 0
M  V30 3890 H 372.447 -0.39802 -3.01081 0
M  V30 3891 H 370.032 -0.260758 -1.47107 0
M  V30 3892 H 371.914 1.94431 -3.73864 0
M  V30 3893 H 370.589 2.0014 -2.54412 0
M  V30 3894 H 369.496 0.0170769 -3.74096 0
M  V30 3895 H 370.829 0.0421555 -4.92182 0
M  V30 3896 N 372.481 1.55866 -0.233164 0
M  V30 3897 C 373.391 2.24431 0.683217 0
M  V30 3898 C 374.407 1.2558 1.2044 0
M  V30 3899 O 375.583 1.58422 1.24356 0
M  V30 3900 C 372.648 2.91979 1.86947 0
M  V30 3901 C 371.709 4.06204 1.38912 0
M  V30 3902 C 370.942 4.70522 2.51883 0
M  V30 3903 O 371.165 4.33865 3.70293 0
M  V30 3904 O 370.099 5.59296 2.22423 0
M  V30 3905 H 373.925 3.03426 0.129059 0
M  V30 3906 H 371.51 1.494 -0.0022283 0
M  V30 3907 H 373.392 3.34573 2.56201 0
M  V30 3908 H 372.067 2.15935 2.41151 0
M  V30 3909 H 370.974 3.68155 0.664259 0
M  V30 3910 H 372.307 4.84025 0.893328 0
M  V30 3911 N 373.959 -0.0401083 1.57549 0
M  V30 3912 C 375.205 -0.734211 1.89043 0
M  V30 3913 C 375.538 -1.75591 0.829535 0
M  V30 3914 O 374.813 -1.93868 -0.156706 0
M  V30 3915 C 375.096 -1.41374 3.31188 0
M  V30 3916 C 374.949 -0.406299 4.47961 0
M  V30 3917 C 376.268 -2.35061 3.72068 0
M  V30 3918 H 373.387 -0.265447 0.687537 0
M  V30 3919 H 376.029 0.00294087 1.9 0
M  V30 3920 H 374.179 -2.04206 3.30503 0
M  V30 3921 H 375.851 0.219255 4.60779 0
M  V30 3922 H 374.094 0.275485 4.32924 0
M  V30 3923 H 374.765 -0.920022 5.44279 0
M  V30 3924 H 377.241 -1.82282 3.74049 0
M  V30 3925 H 376.117 -2.79593 4.72355 0
M  V30 3926 H 376.378 -3.21258 3.0372 0
M  V30 3927 N 375.437 -1.54477 -0.31217 0
M  V30 3928 C 376.384 -1.84655 -1.38461 0
M  V30 3929 C 377.354 -0.694536 -1.50882 0
M  V30 3930 O 378.539 -0.942081 -1.6592 0
M  V30 3931 C 375.679 -2.0896 -2.74645 0
M  V30 3932 C 374.792 -3.36618 -2.70763 0
M  V30 3933 C 373.927 -3.50824 -3.98868 0
M  V30 3934 C 372.966 -4.72315 -3.89339 0
M  V30 3935 N 372.103 -4.83387 -5.09197 0
M  V30 3936 H 376.943 -2.76142 -1.12026 0
M  V30 3937 H 374.48 -1.36748 -0.542065 0
M  V30 3938 H 376.438 -2.21045 -3.53829 0
M  V30 3939 H 375.068 -1.20752 -2.99364 0
M  V30 3940 H 374.12 -3.33211 -1.83506 0
M  V30 3941 H 375.432 -4.25917 -2.59608 0
M  V30 3942 H 374.586 -3.62513 -4.86486 0
M  V30 3943 H 373.325 -2.59638 -4.12843 0
M  V30 3944 H 372.33 -4.6067 -3.00105 0
M  V30 3945 H 373.555 -5.64897 -3.76919 0
M  V30 3946 H 371.501 -3.9512 -5.23657 0
M  V30 3947 H 371.418 -5.66669 -5.00422 0
M  V30 3948 H 372.686 -4.9942 -5.98498 0
M  V30 3949 N 376.915 0.57481 -1.46744 0
M  V30 3950 C 377.878 1.66533 -1.57478 0
M  V30 3951 C 378.878 1.54338 -0.451263 0
M  V30 3952 O 380.068 1.58814 -0.715813 0
M  V30 3953 C 377.2 3.05999 -1.50259 0
M  V30 3954 H 378.393 1.58372 -2.54673 0
M  V30 3955 H 375.946 0.793301 -1.34672 0
M  V30 3956 H 376.681 3.19709 -0.543725 0
M  V30 3957 H 376.466 3.16259 -2.31781 0
M  V30 3958 H 377.956 3.8537 -1.60872 0
M  V30 3959 N 378.394 1.34581 0.820102 0
M  V30 3960 C 379.341 1.2639 1.93117 0
M  V30 3961 C 380.311 0.138554 1.65521 0
M  V30 3962 O 381.496 0.320004 1.88097 0
M  V30 3963 C 378.636 1.02812 3.29429 0
M  V30 3964 C 377.749 2.24146 3.693 0
M  V30 3965 C 376.884 1.93829 4.94574 0
M  V30 3966 C 375.923 3.1129 5.27034 0
M  V30 3967 N 375.06 2.80838 6.43486 0
M  V30 3968 H 379.9 2.21408 1.99455 0
M  V30 3969 H 377.437 1.10077 0.975784 0
M  V30 3970 H 379.395 0.871788 4.0799 0
M  V30 3971 H 378.025 0.114612 3.22596 0
M  V30 3972 H 377.077 2.50691 2.86109 0
M  V30 3973 H 378.389 3.11899 3.89257 0
M  V30 3974 H 377.543 1.74948 5.80929 0
M  V30 3975 H 376.282 1.03341 4.76626 0
M  V30 3976 H 375.287 3.30764 4.39175 0
M  V30 3977 H 376.512 4.02561 5.4692 0
M  V30 3978 H 374.458 1.92929 6.26988 0
M  V30 3979 H 374.375 3.62123 6.63629 0
M  V30 3980 H 375.643 2.65467 7.32903 0
M  V30 3981 N 379.872 -1.04064 1.18357 0
M  V30 3982 C 380.804 -2.12114 0.868358 0
M  V30 3983 C 381.817 -1.62247 -0.134045 0
M  V30 3984 O 383.006 -1.78253 0.0937933 0
M  V30 3985 C 380.106 -3.37773 0.276132 0
M  V30 3986 C 379.279 -4.16874 1.3242 0
M  V30 3987 C 378.338 -5.20861 0.747662 0
M  V30 3988 O 377.364 -5.51141 1.42239 0
M  V30 3989 N 378.566 -5.78715 -0.454823 0
M  V30 3990 H 381.331 -2.39748 1.79836 0
M  V30 3991 H 378.892 -1.20258 1.08396 0
M  V30 3992 H 380.884 -4.04513 -0.123133 0
M  V30 3993 H 379.454 -3.07581 -0.557895 0
M  V30 3994 H 378.674 -3.45456 1.89878 0
M  V30 3995 H 379.962 -4.66516 2.03078 0
M  V30 3996 H 379.36 -5.56415 -1.02073 0
M  V30 3997 H 377.917 -6.46921 -0.79601 0
M  V30 3998 N 381.35 -0.985608 -1.22978 0
M  V30 3999 C 382.575 -0.675254 -1.961 0
M  V30 4000 C 383 0.752154 -1.72407 0
M  V30 4001 O 382.358 1.5131 -0.998751 0
M  V30 4002 C 382.406 -0.977899 -3.47087 0
M  V30 4003 O 381.51 -0.072685 -4.12336 0
M  V30 4004 H 380.851 -0.253443 -0.613728 0
M  V30 4005 H 383.381 -1.32061 -1.56272 0
M  V30 4006 H 383.391 -0.916739 -3.97567 0
M  V30 4007 H 382.066 -2.01807 -3.63657 0
M  V30 4008 H 380.643 -0.188703 -3.72422 0
M  V30 4009 N 382.828 1.3818 -0.7579 0
M  V30 4010 C 383.758 2.33027 -0.148597 0
M  V30 4011 C 384.739 1.55085 0.69875 0
M  V30 4012 O 385.924 1.83384 0.639053 0
M  V30 4013 C 383.054 3.3928 0.742034 0
M  V30 4014 C 382.008 4.28 -0.00291946 0
M  V30 4015 C 381.334 5.25146 1.00625 0
M  V30 4016 C 382.634 5.08938 -1.17385 0
M  V30 4017 H 384.328 2.84231 -0.940909 0
M  V30 4018 H 381.874 1.36659 -0.453908 0
M  V30 4019 H 383.827 4.046 1.17799 0
M  V30 4020 H 382.551 2.86569 1.56671 0
M  V30 4021 H 381.21 3.64192 -0.419504 0
M  V30 4022 H 380.858 4.68721 1.8251 0
M  V30 4023 H 380.558 5.85361 0.512428 0
M  V30 4024 H 382.082 5.93342 1.44143 0
M  V30 4025 H 383.496 5.67474 -0.815224 0
M  V30 4026 H 381.893 5.7841 -1.59882 0
M  V30 4027 H 382.963 4.42424 -1.98468 0
M  V30 4028 N 384.306 0.507319 1.49211 0
M  V30 4029 C 385.253 -0.267728 2.29242 0
M  V30 4030 C 386.223 -0.954609 1.35928 0
M  V30 4031 O 387.408 -0.960046 1.64887 0
M  V30 4032 C 384.548 -1.32243 3.18756 0
M  V30 4033 C 383.661 -0.64669 4.27132 0
M  V30 4034 C 382.796 -1.68238 5.03855 0
M  V30 4035 C 381.835 -0.98885 6.0406 0
M  V30 4036 N 380.972 -1.96903 6.73924 0
M  V30 4037 H 385.812 0.420968 2.95012 0
M  V30 4038 H 383.349 0.219443 1.45454 0
M  V30 4039 H 385.307 -1.94599 3.69036 0
M  V30 4040 H 383.937 -1.97981 2.54958 0
M  V30 4041 H 382.989 0.0902926 3.80293 0
M  V30 4042 H 384.301 -0.101058 4.98698 0
M  V30 4043 H 383.455 -2.38081 5.58034 0
M  V30 4044 H 382.194 -2.26187 4.32077 0
M  V30 4045 H 381.199 -0.276222 5.49106 0
M  V30 4046 H 382.424 -0.415767 6.77826 0
M  V30 4047 H 380.37 -2.53803 6.04913 0
M  V30 4048 H 380.287 -1.47423 7.41487 0
M  V30 4049 H 381.555 -2.66015 7.32705 0
M  V30 4050 N 385.784 -1.5574 0.241426 0
M  V30 4051 C 387.2 -1.59196 -0.113548 0
M  V30 4052 C 387.4 -1.25852 -1.57364 0
M  V30 4053 O 386.456 -1.00322 -2.31715 0
M  V30 4054 C 387.769 -2.99814 0.230695 0
M  V30 4055 C 389.317 -3.12513 0.174547 0
M  V30 4056 C 389.792 -4.55342 0.492744 0
M  V30 4057 N 391.283 -4.61076 0.443043 0
M  V30 4058 C 392.018 -5.6956 0.662484 0
M  V30 4059 N 391.514 -6.86328 0.944761 0
M  V30 4060 N 393.307 -5.58957 0.593564 0
M  V30 4061 H 385.458 -1.75685 1.19368 0
M  V30 4062 H 387.721 -0.81756 0.479896 0
M  V30 4063 H 387.427 -3.28932 1.24485 0
M  V30 4064 H 387.301 -3.74568 -0.444833 0
M  V30 4065 H 389.688 -2.83179 -0.830277 0
M  V30 4066 H 389.769 -2.40045 0.883845 0
M  V30 4067 H 389.413 -4.85396 1.4951 0
M  V30 4068 H 389.343 -5.26062 -0.23797 0
M  V30 4069 H 391.834 -3.77179 0.233374 0
M  V30 4070 H 392.147 -7.64935 1.09977 0
M  V30 4071 H 390.492 -6.88025 0.982175 0
M  V30 4072 H 393.683 -4.66611 0.373123 0
M  V30 4073 H 393.856 -6.43433 0.767981 0
M  V30 4074 N 387.262 0.0317525 -1.57568 0
M  V30 4075 C 388.192 1.03274 -2.0942 0
M  V30 4076 C 389.173 1.3788 -0.996143 0
M  V30 4077 O 390.358 1.46811 -1.27122 0
M  V30 4078 C 387.488 2.33448 -2.57137 0
M  V30 4079 C 386.442 2.13091 -3.71182 0
M  V30 4080 C 385.768 3.49001 -4.05095 0
M  V30 4081 C 387.068 1.51928 -4.99715 0
M  V30 4082 H 388.762 0.60112 -2.93303 0
M  V30 4083 H 386.308 0.287705 -1.41097 0
M  V30 4084 H 388.261 3.03802 -2.92032 0
M  V30 4085 H 386.985 2.78665 -1.70333 0
M  V30 4086 H 385.644 1.45171 -3.36632 0
M  V30 4087 H 385.292 3.91862 -3.15362 0
M  V30 4088 H 384.992 3.36207 -4.81911 0
M  V30 4089 H 386.516 4.20721 -4.42522 0
M  V30 4090 H 387.93 2.12196 -5.32584 0
M  V30 4091 H 386.327 1.49716 -5.81124 0
M  V30 4092 H 387.397 0.484811 -4.8247 0
M  V30 4093 N 388.74 1.54641 0.303973 0
M  V30 4094 C 390.156 1.45788 0.649463 0
M  V30 4095 C 390.356 0.64666 1.90842 0
M  V30 4096 O 389.412 0.153183 2.52035 0
M  V30 4097 C 390.725 2.89718 0.805227 0
M  V30 4098 C 392.273 2.99742 0.901305 0
M  V30 4099 C 392.748 4.44863 1.08909 0
M  V30 4100 N 394.239 4.48559 1.15536 0
M  V30 4101 C 394.974 5.58026 1.3189 0
M  V30 4102 N 394.47 6.77422 1.45161 0
M  V30 4103 N 396.263 5.45708 1.34755 0
M  V30 4104 H 388.414 2.05854 -0.523237 0
M  V30 4105 H 390.677 0.932186 -0.172431 0
M  V30 4106 H 390.383 3.51666 -0.0489108 0
M  V30 4107 H 390.257 3.36964 1.69513 0
M  V30 4108 H 392.644 2.3791 1.74593 0
M  V30 4109 H 392.725 2.55797 -0.0125531 0
M  V30 4110 H 392.369 5.07288 0.249241 0
M  V30 4111 H 392.299 4.86436 2.01713 0
M  V30 4112 H 394.79 3.6254 1.06646 0
M  V30 4113 H 395.103 7.56604 1.57387 0
M  V30 4114 H 393.448 6.80292 1.42223 0
M  V30 4115 H 396.639 4.51378 1.23996 0
M  V30 4116 H 396.812 6.3107 1.47157 0
M  V30 4117 N 390.218 -0.567019 1.47046 0
M  V30 4118 C 391.466 -1.322 1.52864 0
M  V30 4119 C 391.787 -1.94088 0.188388 0
M  V30 4120 O 391.057 -1.7941 -0.786693 0
M  V30 4121 H 389.637 -0.490894 0.563056 0
M  V30 4122 H 392.299 -0.662879 1.83281 0
M  V30 4123 H 391.395 -2.12062 2.2899 0
M  V30 4124 N 391.696 -1.35014 -0.812953 0
M  V30 4125 C 392.926 -1.30841 -1.59888 0
M  V30 4126 C 393.334 0.117576 -1.88834 0
M  V30 4127 O 392.677 1.07807 -1.48739 0
M  V30 4128 C 392.739 -2.0412 -2.95931 0
M  V30 4129 C 392.403 -3.53336 -2.89832 0
M  V30 4130 C 393.4 -4.48052 -2.63714 0
M  V30 4131 C 391.085 -3.95894 -3.0915 0
M  V30 4132 C 393.079 -5.833 -2.56982 0
M  V30 4133 C 390.766 -5.31239 -3.0204 0
M  V30 4134 C 391.764 -6.24754 -2.75991 0
M  V30 4135 O 391.452 -7.57617 -2.68833 0
M  V30 4136 H 391.184 -0.451215 -0.50337 0
M  V30 4137 H 393.738 -1.78354 -1.01877 0
M  V30 4138 H 391.968 -1.51235 -3.559 0
M  V30 4139 H 393.657 -1.93107 -3.57022 0
M  V30 4140 H 394.423 -4.16492 -2.48515 0
M  V30 4141 H 390.302 -3.23495 -3.28438 0
M  V30 4142 H 393.846 -6.56263 -2.36569 0
M  V30 4143 H 389.743 -5.62415 -3.16796 0
M  V30 4144 H 390.511 -7.67469 -2.84487 0
M  V30 4145 N 393.175 1.03435 -1.18907 0
M  V30 4146 C 394.452 1.73778 -0.89781 0
M  V30 4147 C 394.832 2.02458 0.597832 0
M  V30 4148 O 394.18 1.67482 1.55441 0
M  V30 4149 C 394.39 3.01845 -1.75187 0
M  V30 4150 C 395.738 3.7546 -1.9828 0
M  V30 4151 O 396.762 3.11759 -1.72293 0
M  V30 4152 O 395.621 4.89966 -2.42065 0
M  V30 4153 H 392.715 0.75651 -0.334098 0
M  V30 4154 H 395.261 1.09444 -1.29693 0
M  V30 4155 H 394.033 2.76836 -2.76545 0
M  V30 4156 H 393.656 3.73919 -1.35167 0
M  V30 4157 N 394.653 0.992116 1.22453 0
M  V30 4158 C 395.93 0.583508 1.86694 0
M  V30 4159 C 396.31 -0.9392 1.89056 0
M  V30 4160 O 395.658 -1.82081 1.38053 0
M  V30 4161 C 395.868 1.20304 3.2761 0
M  V30 4162 C 397.216 1.30308 4.0411 0
M  V30 4163 O 398.24 1.15737 3.36873 0
M  V30 4164 O 397.099 1.53615 5.24466 0
M  V30 4165 H 394.193 0.198129 0.802916 0
M  V30 4166 H 396.739 1.08794 1.30238 0
M  V30 4167 H 395.511 2.24461 3.2052 0
M  V30 4168 H 395.134 0.684144 3.9167 0
M  V30 4169 N 396.131 -1.37776 0.765217 0
M  V30 4170 C 397.377 -2.00145 0.327072 0
M  V30 4171 C 397.71 -1.60607 -1.09175 0
M  V30 4172 O 396.985 -0.849127 -1.74986 0
M  V30 4173 C 397.268 -3.57109 0.46319 0
M  V30 4174 C 397.121 -4.06576 1.92395 0
M  V30 4175 C 398.44 -4.39888 -0.136473 0
M  V30 4176 H 395.559 -0.727113 0.120316 0
M  V30 4177 H 398.201 -1.63549 0.967039 0
M  V30 4178 H 396.351 -3.88414 -0.0816358 0
M  V30 4179 H 398.023 -3.85864 2.52798 0
M  V30 4180 H 396.266 -3.59011 2.43503 0
M  V30 4181 H 396.937 -5.15639 1.97028 0
M  V30 4182 H 399.413 -4.14803 0.328317 0
M  V30 4183 H 398.289 -5.48899 -0.0110582 0
M  V30 4184 H 398.55 -4.24758 -1.22608 0
M  V30 4185 N 397.609 -0.515225 -1.4894 0
M  V30 4186 C 398.837 0.0206034 -2.0689 0
M  V30 4187 C 399.252 1.29514 -1.37374 0
M  V30 4188 O 398.609 1.76698 -0.456529 0
M  V30 4189 C 398.66 0.26351 -3.60538 0
M  V30 4190 O 398.381 -0.960517 -4.27441 0
M  V30 4191 C 399.882 0.841383 -4.35242 0
M  V30 4192 H 397.102 -0.0268608 -0.670462 0
M  V30 4193 H 399.646 -0.716651 -1.91532 0
M  V30 4194 H 397.801 0.950777 -3.75552 0
M  V30 4195 H 398.215 -0.73212 -5.19365 0
M  V30 4196 H 399.689 0.96085 -5.43573 0
M  V30 4197 H 400.166 1.8427 -3.98674 0
M  V30 4198 H 400.772 0.191143 -4.2487 0
M  V30 4199 N 399.087 1.5561 -0.249682 0
M  V30 4200 C 400.034 2.21496 0.648694 0
M  V30 4201 C 401.004 1.17977 1.16921 0
M  V30 4202 O 402.189 1.46434 1.22318 0
M  V30 4203 C 399.329 2.92039 1.83868 0
M  V30 4204 C 398.442 4.10219 1.35442 0
M  V30 4205 C 397.577 4.6847 2.50419 0
M  V30 4206 C 396.616 5.78893 1.98869 0
M  V30 4207 N 395.753 6.31315 3.07223 0
M  V30 4208 H 400.593 2.97892 0.0801582 0
M  V30 4209 H 398.13 1.47074 0.0278031 0
M  V30 4210 H 400.088 3.31138 2.53778 0
M  V30 4211 H 398.718 2.18111 2.37965 0
M  V30 4212 H 397.77 3.76413 0.54928 0
M  V30 4213 H 399.082 4.89927 0.936649 0
M  V30 4214 H 398.236 5.10158 3.28366 0
M  V30 4215 H 396.975 3.87984 2.95499 0
M  V30 4216 H 395.98 5.3668 1.19393 0
M  V30 4217 H 397.205 6.61232 1.54755 0
M  V30 4218 H 395.151 5.53733 3.51732 0
M  V30 4219 H 395.068 7.06224 2.69784 0
M  V30 4220 H 396.336 6.77662 3.8522 0
M  V30 4221 N 400.565 -0.0233959 1.57583 0
M  V30 4222 C 401.842 -0.748794 1.807 0
M  V30 4223 C 402.222 -1.9327 0.849106 0
M  V30 4224 O 401.57 -2.28247 -0.107468 0
M  V30 4225 C 401.78 -1.17651 3.28571 0
M  V30 4226 C 403.128 -1.59008 3.93702 0
M  V30 4227 O 404.152 -1.27094 3.32755 0
M  V30 4228 O 403.011 -2.18264 5.01022 0
M  V30 4229 H 400.105 -0.362578 0.743281 0
M  V30 4230 H 402.651 0.000261958 1.697 0
M  V30 4231 H 401.423 -0.331603 3.89892 0
M  V30 4232 H 401.046 -1.98541 3.44481 0
M  V30 4233 N 402.043 -1.548 -0.295768 0
M  V30 4234 C 403.292 -1.73538 -1.02798 0
M  V30 4235 C 403.605 -0.531159 -1.8825 0
M  V30 4236 O 404.811 -0.600458 -2.64777 0
M  V30 4237 C 403.267 -3.07051 -1.87744 0
M  V30 4238 C 402.875 -4.34968 -1.07269 0
M  V30 4239 C 404.619 -3.35146 -2.60533 0
M  V30 4240 C 402.526 -5.5953 -1.91521 0
M  V30 4241 H 401.456 -0.646794 -0.387522 0
M  V30 4242 H 404.107 -1.81278 -0.284718 0
M  V30 4243 H 402.489 -2.93289 -2.66078 0
M  V30 4244 H 403.663 -4.5958 -0.335117 0
M  V30 4245 H 401.978 -4.13847 -0.460384 0
M  V30 4246 H 404.575 -4.2541 -3.23929 0
M  V30 4247 H 404.918 -2.54255 -3.29636 0
M  V30 4248 H 405.451 -3.49902 -1.89244 0
M  V30 4249 H 402.19 -6.43103 -1.26878 0
M  V30 4250 H 401.71 -5.39096 -2.62937 0
M  V30 4251 H 403.389 -5.96982 -2.49442 0
M  V30 4252 N 403.521 0.559213 -1.47345 0
M  V30 4253 C 404.469 1.68747 -1.60085 0
M  V30 4254 C 405.463 1.628 -0.46825 0
M  V30 4255 O 406.669 1.68009 -0.645977 0
M  V30 4256 H 403.044 0.558329 -0.503759 0
M  V30 4257 H 405.015 1.55138 -2.54902 0
M  V30 4258 C 403.764 3.07103 -1.63042 0
M  V30 4259 H 403.087 3.12361 -2.49541 0
M  V30 4260 H 404.527 3.85743 -1.76006 0
M  V30 4261 C 402.986 3.34935 -0.363357 0
M  V30 4262 O 403.516 3.98102 0.536416 0
M  V30 4263 N 401.722 2.89574 -0.244 0
M  V30 4264 H 401.269 2.38348 -0.977133 0
M  V30 4265 H 401.227 3.08566 0.602836 0
M  V30 4266 N 404.999 1.35443 0.805782 0
M  V30 4267 C 405.909 1.30546 1.94923 0
M  V30 4268 C 406.925 0.210233 1.72725 0
M  V30 4269 O 408.101 0.43975 1.9654 0
M  V30 4270 C 405.166 1.07782 3.29521 0
M  V30 4271 C 404.227 2.26625 3.64609 0
M  V30 4272 C 403.46 2.04938 4.92784 0
M  V30 4273 O 403.683 1.01624 5.61274 0
M  V30 4274 O 402.617 2.9232 5.26149 0
M  V30 4275 H 406.443 2.26779 2.02002 0
M  V30 4276 H 404.028 1.15823 0.943682 0
M  V30 4277 H 405.91 0.969392 4.10098 0
M  V30 4278 H 404.585 0.146003 3.23371 0
M  V30 4279 H 403.492 2.43033 2.84404 0
M  V30 4280 H 404.825 3.18257 3.75464 0
M  V30 4281 N 406.477 -1.02803 1.19454 0
M  V30 4282 C 407.41 -2.107 0.876396 0
M  V30 4283 C 408.388 -1.61741 -0.166897 0
M  V30 4284 O 409.572 -1.88451 -0.0430195 0
M  V30 4285 C 406.699 -3.37262 0.311758 0
M  V30 4286 C 405.745 -4.05093 1.33424 0
M  V30 4287 S 406.578 -4.50498 2.89503 0
M  V30 4288 C 407.734 -5.80277 2.34584 0
M  V30 4289 H 407.967 -2.37362 1.79016 0
M  V30 4290 H 405.5 -1.15755 1.02177 0
M  V30 4291 H 407.458 -4.10499 -0.00748752 0
M  V30 4292 H 406.119 -3.08693 -0.58032 0
M  V30 4293 H 405.312 -4.9611 0.888302 0
M  V30 4294 H 404.914 -3.3803 1.60037 0
M  V30 4295 H 407.206 -6.54873 1.73633 0
M  V30 4296 H 408.149 -6.29651 3.23952 0
M  V30 4297 H 408.557 -5.3599 1.77131 0
M  V30 4298 N 407.956 -0.998596 -1.21925 0
M  V30 4299 C 409.372 -0.710303 -1.42923 0
M  V30 4300 C 409.572 0.716933 -1.88314 0
M  V30 4301 O 408.628 1.48712 -2.04062 0
M  V30 4302 C 409.941 -1.72072 -2.466 0
M  V30 4303 C 411.489 -1.73681 -2.60392 0
M  V30 4304 C 411.964 -2.73601 -3.67296 0
M  V30 4305 N 413.455 -2.7223 -3.7476 0
M  V30 4306 C 414.19 -3.46206 -4.57087 0
M  V30 4307 N 413.686 -4.29802 -5.43362 0
M  V30 4308 N 415.479 -3.34886 -4.51451 0
M  V30 4309 H 407.63 -1.92028 -0.9077 0
M  V30 4310 H 409.893 -0.828487 -0.460775 0
M  V30 4311 H 409.599 -2.74231 -2.20206 0
M  V30 4312 H 409.473 -1.51818 -3.45299 0
M  V30 4313 H 411.86 -0.722173 -2.86127 0
M  V30 4314 H 411.941 -1.98005 -1.61949 0
M  V30 4315 H 411.585 -3.75217 -3.42307 0
M  V30 4316 H 411.515 -2.46545 -4.65321 0
M  V30 4317 H 414.006 -2.11576 -3.1312 0
M  V30 4318 H 414.319 -4.83061 -6.03218 0
M  V30 4319 H 412.664 -4.33887 -5.42925 0
M  V30 4320 H 415.855 -2.69015 -3.83078 0
M  V30 4321 H 416.028 -3.92796 -5.15379 0
M  V30 4322 N 409.434 1.37368 -0.772513 0
M  V30 4323 C 410.381 2.30262 -0.157488 0
M  V30 4324 C 411.351 1.51137 0.688965 0
M  V30 4325 O 412.536 1.79704 0.641168 0
M  V30 4326 C 409.676 3.37611 0.715045 0
M  V30 4327 C 408.789 4.31746 -0.148098 0
M  V30 4328 C 407.924 5.26171 0.729213 0
M  V30 4329 C 406.963 6.11948 -0.136418 0
M  V30 4330 N 406.1 6.98613 0.698914 0
M  V30 4331 H 410.94 2.82277 -0.955179 0
M  V30 4332 H 408.477 1.38957 -0.482631 0
M  V30 4333 H 410.435 3.98479 1.23575 0
M  V30 4334 H 409.065 2.86959 1.47833 0
M  V30 4335 H 408.117 3.72178 -0.786613 0
M  V30 4336 H 409.429 4.92084 -0.81579 0
M  V30 4337 H 408.583 5.92247 1.31637 0
M  V30 4338 H 407.322 4.66246 1.43059 0
M  V30 4339 H 406.327 5.4485 -0.736102 0
M  V30 4340 H 407.552 6.73945 -0.835134 0
M  V30 4341 H 405.498 6.41215 1.38489 0
M  V30 4342 H 405.415 7.55948 0.0885358 0
M  V30 4343 H 406.683 7.69077 1.27044 0
M  V30 4344 N 410.912 0.523116 1.48665 0
M  V30 4345 C 411.822 -0.247406 2.33292 0
M  V30 4346 C 412.838 -0.945769 1.46052 0
M  V30 4347 O 414.014 -0.922253 1.79043 0
M  V30 4348 C 411.079 -1.28487 3.22012 0
M  V30 4349 C 410.14 -0.597592 4.2512 0
M  V30 4350 C 409.373 -1.58563 5.09601 0
M  V30 4351 O 409.596 -2.81763 4.95949 0
M  V30 4352 O 408.53 -1.12879 5.91221 0
M  V30 4353 H 412.356 0.445869 3.00409 0
M  V30 4354 H 409.941 0.284128 1.46673 0
M  V30 4355 H 411.823 -1.88459 3.7691 0
M  V30 4356 H 410.498 -1.96068 2.57564 0
M  V30 4357 H 409.405 0.0424407 3.74076 0
M  V30 4358 H 410.738 0.0361517 4.92187 0
M  V30 4359 N 412.39 -1.55475 0.257931 0
M  V30 4360 C 413.806 -1.59307 -0.0966563 0
M  V30 4361 C 414.006 -1.27514 -1.5602 0
M  V30 4362 O 413.062 -1.02774 -2.30637 0
M  V30 4363 C 414.375 -2.99552 0.262481 0
M  V30 4364 C 415.923 -3.1231 0.207683 0
M  V30 4365 C 416.398 -4.54793 0.541012 0
M  V30 4366 N 417.889 -4.6058 0.491921 0
M  V30 4367 C 418.624 -5.68825 0.722857 0
M  V30 4368 N 418.12 -6.85287 1.0175 0
M  V30 4369 N 419.913 -5.58296 0.652815 0
M  V30 4370 H 412.064 -1.74409 1.21224 0
M  V30 4371 H 414.327 -0.812424 0.48854 0
M  V30 4372 H 414.033 -3.27593 1.27967 0
M  V30 4373 H 413.907 -3.75019 -0.40508 0
M  V30 4374 H 416.294 -2.84044 -0.800195 0
M  V30 4375 H 416.375 -2.39095 0.909255 0
M  V30 4376 H 416.019 -4.83783 1.5465 0
M  V30 4377 H 415.949 -5.26285 -0.18216 0
M  V30 4378 H 418.44 -3.7691 0.273366 0
M  V30 4379 H 418.753 -7.63725 1.18084 0
M  V30 4380 H 417.098 -6.86945 1.05509 0
M  V30 4381 H 420.289 -4.66189 0.422592 0
M  V30 4382 H 420.462 -6.42582 0.836182 0
M  V30 4383 N 413.868 0.0150385 -1.57593 0
M  V30 4384 C 414.778 1.02791 -2.10882 0
M  V30 4385 C 415.794 1.38702 -1.0506 0
M  V30 4386 O 416.97 1.47739 -1.36877 0
M  V30 4387 C 414.035 2.30568 -2.58919 0
M  V30 4388 C 413.096 2.01108 -3.79281 0
M  V30 4389 C 412.329 3.22794 -4.25018 0
M  V30 4390 O 412.552 4.33959 -3.70183 0
M  V30 4391 O 411.486 3.07672 -5.17322 0
M  V30 4392 H 415.312 0.604973 -2.97613 0
M  V30 4393 H 412.897 0.23292 -1.47573 0
M  V30 4394 H 414.779 3.05662 -2.90084 0
M  V30 4395 H 413.454 2.72129 -1.75293 0
M  V30 4396 H 412.361 1.23537 -3.53114 0
M  V30 4397 H 413.694 1.64394 -4.63935 0
M  V30 4398 N 415.346 1.54954 0.287554 0
M  V30 4399 C 416.256 1.8991 1.37736 0
M  V30 4400 C 417.272 0.794701 1.54792 0
M  V30 4401 O 418.448 1.09243 1.69198 0
M  V30 4402 C 415.513 2.15108 2.71899 0
M  V30 4403 C 414.574 3.38752 2.63715 0
M  V30 4404 C 413.807 3.62739 3.91479 0
M  V30 4405 O 414.03 2.89492 4.91478 0
M  V30 4406 O 412.964 4.56267 3.92561 0
M  V30 4407 H 416.79 2.82652 1.11092 0
M  V30 4408 H 414.375 1.41315 0.484807 0
M  V30 4409 H 416.257 2.32806 3.51254 0
M  V30 4410 H 414.932 1.25551 2.9836 0
M  V30 4411 H 413.839 3.26405 1.82786 0
M  V30 4412 H 415.172 4.28483 2.42205 0
M  V30 4413 N 416.824 -0.551391 1.4764 0
M  V30 4414 C 417.787 -1.64007 1.60107 0
M  V30 4415 C 418.787 -1.53601 0.47576 0
M  V30 4416 O 419.977 -1.57655 0.740988 0
M  V30 4417 C 417.109 -3.03569 1.55108 0
M  V30 4418 H 418.302 -1.543 2.57161 0
M  V30 4419 H 415.855 -0.771776 1.35917 0
M  V30 4420 H 416.59 -3.18804 0.594519 0
M  V30 4421 H 416.375 -3.12532 2.36783 0
M  V30 4422 H 417.865 -3.82762 1.66982 0
M  V30 4423 N 418.302 -1.35869 -0.798587 0
M  V30 4424 C 419.527 -1.32883 -1.59238 0
M  V30 4425 C 419.952 0.0894587 -1.87887 0
M  V30 4426 O 419.31 1.05869 -1.47178 0
M  V30 4427 C 419.358 -2.14892 -2.89575 0
M  V30 4428 O 418.462 -1.53512 -3.82763 0
M  V30 4429 H 417.803 -0.455236 -0.48338 0
M  V30 4430 H 420.333 -1.79024 -0.990539 0
M  V30 4431 H 420.343 -2.27139 -3.38928 0
M  V30 4432 H 419.018 -3.17998 -2.68049 0
M  V30 4433 H 417.595 -1.50153 -3.41334 0
M  V30 4434 N 419.78 1.02168 -1.19998 0
M  V30 4435 C 421.005 1.79833 -1.03319 0
M  V30 4436 C 421.43 1.83504 0.413281 0
M  V30 4437 O 420.788 1.26635 1.29743 0
M  V30 4438 C 420.836 3.22396 -1.61533 0
M  V30 4439 O 419.94 4.03555 -0.849519 0
M  V30 4440 H 419.281 0.554872 -0.364709 0
M  V30 4441 H 421.811 1.28542 -1.59179 0
M  V30 4442 H 421.821 3.73124 -1.65054 0
M  V30 4443 H 420.496 3.19039 -2.66809 0
M  V30 4444 H 419.073 3.62169 -0.888129 0
M  V30 4445 N 421.258 1.00505 1.21394 0
M  V30 4446 C 422.168 0.574806 2.27449 0
M  V30 4447 C 423.184 -0.382206 1.6975 0
M  V30 4448 O 424.36 -0.246027 1.99892 0
M  V30 4449 C 421.425 -0.0917414 3.46579 0
M  V30 4450 C 420.486 0.909758 4.1955 0
M  V30 4451 C 419.719 0.274924 5.32991 0
M  V30 4452 O 419.942 -0.928254 5.62796 0
M  V30 4453 O 418.876 0.985877 5.93771 0
M  V30 4454 H 422.702 1.45744 2.66444 0
M  V30 4455 H 420.287 0.773923 1.27792 0
M  V30 4456 H 422.169 -0.464551 4.18832 0
M  V30 4457 H 420.844 -0.948755 3.09484 0
M  V30 4458 H 419.751 1.33372 3.49518 0
M  V30 4459 H 421.084 1.73636 4.60555 0
M  V30 4460 N 422.737 -1.36956 0.779787 0
M  V30 4461 C 423.669 -2.28833 0.129639 0
M  V30 4462 C 424.682 -1.4902 -0.655511 0
M  V30 4463 O 425.871 -1.71578 -0.492279 0
M  V30 4464 C 422.971 -3.2833 -0.839792 0
M  V30 4465 C 422.144 -4.3727 -0.10675 0
M  V30 4466 C 421.203 -5.16789 -0.990717 0
M  V30 4467 O 420.229 -5.67406 -0.451516 0
M  V30 4468 N 421.431 -5.32294 -2.3161 0
M  V30 4469 H 424.196 -2.85268 0.918803 0
M  V30 4470 H 421.757 -1.49019 0.632841 0
M  V30 4471 H 423.749 -3.78413 -1.43477 0
M  V30 4472 H 422.319 -2.72605 -1.52988 0
M  V30 4473 H 421.539 -3.88478 0.669216 0
M  V30 4474 H 422.827 -5.07229 0.399464 0
M  V30 4475 H 422.225 -4.92768 -2.77843 0
M  V30 4476 H 420.782 -5.85656 -2.86095 0
M  V30 4477 N 424.215 -0.530993 -1.48385 0
M  V30 4478 C 425.162 0.231223 -2.29639 0
M  V30 4479 C 426.132 0.932864 -1.37429 0
M  V30 4480 O 427.317 0.933692 -1.66394 0
M  V30 4481 C 424.457 1.27155 -3.2082 0
M  V30 4482 C 423.57 0.578655 -4.28107 0
M  V30 4483 C 422.705 1.602 -5.06467 0
M  V30 4484 C 421.744 0.892625 -6.05556 0
M  V30 4485 N 420.881 1.86157 -6.76971 0
M  V30 4486 H 425.721 -0.467848 -2.94305 0
M  V30 4487 H 423.258 -0.242556 -1.45086 0
M  V30 4488 H 425.216 1.88703 -3.72085 0
M  V30 4489 H 423.846 1.939 -2.58075 0
M  V30 4490 H 422.898 -0.150782 -3.80101 0
M  V30 4491 H 424.21 0.0217065 -4.98795 0
M  V30 4492 H 423.364 2.29173 -5.61751 0
M  V30 4493 H 422.103 2.19285 -4.35621 0
M  V30 4494 H 421.108 0.188829 -5.49476 0
M  V30 4495 H 422.333 0.307878 -6.78402 0
M  V30 4496 H 420.279 2.44147 -6.08875 0
M  V30 4497 H 420.196 1.35608 -7.43738 0
M  V30 4498 H 421.464 2.54325 -7.36844 0
M  V30 4499 N 425.693 1.55336 -0.266172 0
M  V30 4500 C 426.939 1.99692 0.353681 0
M  V30 4501 C 427.272 1.1543 1.56172 0
M  V30 4502 O 426.547 0.222218 1.93226 0
M  V30 4503 C 426.83 3.52316 0.74466 0
M  V30 4504 C 426.683 4.47337 -0.470101 0
M  V30 4505 C 428.002 4.10588 1.58447 0
M  V30 4506 H 425.121 0.725961 0.12708 0
M  V30 4507 H 427.763 1.86336 -0.371333 0
M  V30 4508 H 425.913 3.63829 1.36239 0
M  V30 4509 H 427.585 4.4778 -1.10864 0
M  V30 4510 H 425.828 4.19364 -1.10978 0
M  V30 4511 H 426.499 5.51788 -0.15291 0
M  V30 4512 H 428.975 4.02297 1.06286 0
M  V30 4513 H 427.851 5.17607 1.82686 0
M  V30 4514 H 428.112 3.60253 2.56262 0
M  V30 4515 N 427.171 -0.0066808 1.57599 0
M  V30 4516 C 428.396 -0.707738 1.94951 0
M  V30 4517 C 428.821 -1.66882 0.867868 0
M  V30 4518 O 428.179 -1.80457 -0.17458 0
M  V30 4519 C 428.227 -1.42162 3.31394 0
M  V30 4520 O 427.331 -2.53578 3.25226 0
M  V30 4521 H 426.672 -0.188752 0.636607 0
M  V30 4522 H 429.202 0.0445193 2.04552 0
M  V30 4523 H 429.212 -1.78655 3.66806 0
M  V30 4524 H 427.887 -0.716903 4.09675 0
M  V30 4525 H 426.464 -2.19463 3.01481 0
M  V30 4526 N 428.649 -1.55105 -0.279332 0
M  V30 4527 C 429.898 -1.74618 -1.00952 0
M  V30 4528 C 430.211 -0.551096 -1.87676 0
M  V30 4529 O 431.417 -0.628507 -2.64125 0
M  V30 4530 C 429.873 -3.09025 -1.84476 0
M  V30 4531 C 429.481 -4.36081 -1.0265 0
M  V30 4532 C 431.225 -3.37891 -2.56963 0
M  V30 4533 C 429.132 -5.6153 -1.85576 0
M  V30 4534 H 428.062 -0.650868 -0.38064 0
M  V30 4535 H 430.713 -1.81569 -0.265475 0
M  V30 4536 H 429.095 -2.96095 -2.62952 0
M  V30 4537 H 430.269 -4.59909 -0.286354 0
M  V30 4538 H 428.584 -4.14312 -0.416464 0
M  V30 4539 H 431.181 -4.28822 -3.19399 0
M  V30 4540 H 431.524 -2.57737 -3.26921 0
M  V30 4541 H 432.057 -3.5189 -1.85522 0
M  V30 4542 H 428.796 -6.44413 -1.2005 0
M  V30 4543 H 428.316 -5.41854 -2.57204 0
M  V30 4544 H 429.995 -5.99594 -2.43096 0
M  V30 4545 N 430.127 0.543554 -1.4793 0
M  V30 4546 C 431.376 1.29649 -1.54512 0
M  V30 4547 C 431.689 1.94382 -0.217973 0
M  V30 4548 O 432.895 2.71017 -0.161908 0
M  V30 4549 C 431.351 2.35175 -2.72435 0
M  V30 4550 C 430.959 1.76572 -4.11736 0
M  V30 4551 C 432.703 3.11564 -2.8832 0
M  V30 4552 C 430.61 2.79958 -5.20939 0
M  V30 4553 H 429.54 0.487541 -0.57517 0
M  V30 4554 H 432.191 0.575708 -1.74235 0
M  V30 4555 H 430.573 3.10229 -2.46118 0
M  V30 4556 H 431.747 1.07799 -4.48013 0
M  V30 4557 H 430.062 1.12722 -4.00852 0
M  V30 4558 H 432.659 3.88794 -3.67074 0
M  V30 4559 H 433.002 3.66594 -1.97268 0
M  V30 4560 H 433.535 2.43623 -3.14472 0
M  V30 4561 H 430.274 2.29766 -6.13912 0
M  V30 4562 H 429.794 3.47101 -4.89164 0
M  V30 4563 H 431.473 3.43198 -5.48474 0
M  V30 4564 N 431.605 1.3629 0.791371 0
M  V30 4565 C 432.537 1.26321 1.91248 0
M  V30 4566 C 433.55 0.18313 1.61767 0
M  V30 4567 O 434.739 0.437682 1.73051 0
M  V30 4568 C 431.839 0.925901 3.26007 0
M  V30 4569 C 431.012 2.10746 3.83281 0
M  V30 4570 C 430.071 1.74352 4.96475 0
M  V30 4571 O 429.097 2.46416 5.13096 0
M  V30 4572 N 430.299 0.676058 5.7655 0
M  V30 4573 H 433.064 2.22915 2.00323 0
M  V30 4574 H 430.625 1.29659 0.969546 0
M  V30 4575 H 432.617 0.663636 3.99222 0
M  V30 4576 H 431.187 0.0491581 3.12561 0
M  V30 4577 H 430.407 2.53264 3.02077 0
M  V30 4578 H 431.695 2.8969 4.18279 0
M  V30 4579 H 431.093 0.0776467 5.65647 0
M  V30 4580 H 429.65 0.473612 6.50077 0
M  V30 4581 N 433.083 -1.0153 1.20538 0
M  V30 4582 C 434.013 -2.11972 0.979295 0
M  V30 4583 C 434.994 -1.6985 -0.0921787 0
M  V30 4584 O 436.179 -1.94089 0.0655932 0
M  V30 4585 C 433.309 -3.43201 0.531984 0
M  V30 4586 C 432.263 -3.9907 1.54685 0
M  V30 4587 C 431.589 -5.26082 0.956127 0
M  V30 4588 C 432.889 -4.32313 2.93092 0
M  V30 4589 H 434.583 -2.31143 1.90298 0
M  V30 4590 H 432.129 -1.11079 0.916372 0
M  V30 4591 H 434.082 -4.1985 0.361044 0
M  V30 4592 H 432.806 -3.23792 -0.427327 0
M  V30 4593 H 431.465 -3.2453 1.70517 0
M  V30 4594 H 431.113 -5.02999 -0.0111538 0
M  V30 4595 H 430.813 -5.64426 1.63393 0
M  V30 4596 H 432.337 -6.05386 0.796284 0
M  V30 4597 H 433.751 -4.99845 2.80763 0
M  V30 4598 H 432.148 -4.81774 3.57791 0
M  V30 4599 H 433.218 -3.41025 3.44717 0
M  V30 4600 N 434.561 -1.01147 -1.20859 0
M  V30 4601 C 435.808 -0.697865 -1.90095 0
M  V30 4602 C 436.136 0.772014 -1.78522 0
M  V30 4603 O 435.391 1.57595 -1.16027 0
M  V30 4604 C 435.69 -1.0727 -3.40922 0
M  V30 4605 C 435.356 -2.53792 -3.72693 0
M  V30 4606 C 434.018 -2.93829 -3.81075 0
M  V30 4607 C 436.37 -3.48674 -3.87397 0
M  V30 4608 C 433.698 -4.27696 -4.01613 0
M  V30 4609 C 436.05 -4.82223 -4.09444 0
M  V30 4610 C 434.714 -5.21973 -4.16054 0
M  V30 4611 H 433.984 -0.255367 -0.695607 0
M  V30 4612 H 436.631 -1.27111 -1.43231 0
M  V30 4613 H 434.936 -0.417799 -3.89566 0
M  V30 4614 H 436.633 -0.807818 -3.92779 0
M  V30 4615 H 433.223 -2.21768 -3.66765 0
M  V30 4616 H 437.407 -3.18904 -3.80281 0
M  V30 4617 H 432.663 -4.58055 -4.04964 0
M  V30 4618 H 436.837 -5.55672 -4.19763 0
M  V30 4619 H 434.464 -6.25717 -4.31721 0
M  V30 4620 N 436.039 1.36541 -0.78704 0
M  V30 4621 C 437.267 2.03561 -0.370199 0
M  V30 4622 C 437.682 1.59347 1.01263 0
M  V30 4623 O 437.039 0.781781 1.64907 0
M  V30 4624 C 437.09 3.59033 -0.421614 0
M  V30 4625 O 436.811 4.01634 -1.7499 0
M  V30 4626 C 438.312 4.433 0.00489763 0
M  V30 4627 H 435.532 0.653346 -0.152904 0
M  V30 4628 H 438.076 1.74566 -1.06522 0
M  V30 4629 H 436.231 3.86746 0.224971 0
M  V30 4630 H 436.645 4.96217 -1.69909 0
M  V30 4631 H 438.119 5.51939 -0.0822184 0
M  V30 4632 H 438.596 4.26285 1.05723 0
M  V30 4633 H 439.202 4.20843 -0.614085 0
M  V30 4634 N 437.518 0.538854 1.48102 0
M  V30 4635 C 438.466 -0.232325 2.31437 0
M  V30 4636 C 439.46 -0.927004 1.41785 0
M  V30 4637 O 440.666 -0.850378 1.58646 0
M  V30 4638 H 437.041 -0.0937916 0.746128 0
M  V30 4639 H 439.012 0.489986 2.9435 0
M  V30 4640 C 437.761 -1.26074 3.24038 0
M  V30 4641 H 437.084 -0.735609 3.92974 0
M  V30 4642 H 438.524 -1.77157 3.85216 0
M  V30 4643 C 436.983 -2.29902 2.46265 0
M  V30 4644 O 437.513 -3.36502 2.19384 0
M  V30 4645 N 435.719 -2.03348 2.07601 0
M  V30 4646 H 435.266 -1.16675 2.29662 0
M  V30 4647 H 435.224 -2.73038 1.55877 0
M  V30 4648 N 438.996 -1.55193 0.274407 0
M  V30 4649 C 440.221 -2.04446 -0.348824 0
M  V30 4650 C 440.646 -1.15149 -1.48735 0
M  V30 4651 O 440.004 -0.149952 -1.80679 0
M  V30 4652 C 440.052 -3.51431 -0.808009 0
M  V30 4653 O 439.156 -3.65225 -1.91531 0
M  V30 4654 H 438.497 -0.66006 -0.0722276 0
M  V30 4655 H 441.027 -2.00481 0.408498 0
M  V30 4656 H 441.037 -3.92781 -1.10395 0
M  V30 4657 H 439.712 -4.15892 0.0249865 0
M  V30 4658 H 438.289 -3.35778 -1.62196 0
M  V30 4659 N 440.474 -0.00167713 -1.576 0
M  V30 4660 C 441.699 0.69739 -1.95323 0
M  V30 4661 C 442.124 1.6642 -0.876706 0
M  V30 4662 O 441.482 1.80548 0.165007 0
M  V30 4663 C 441.53 1.40403 -3.32144 0
M  V30 4664 O 440.634 2.5185 -3.26566 0
M  V30 4665 H 439.975 0.185373 -0.637599 0
M  V30 4666 H 442.505 -0.0553665 -2.04525 0
M  V30 4667 H 442.515 1.76707 -3.67748 0
M  V30 4668 H 441.19 0.695167 -4.10049 0
M  V30 4669 H 439.767 2.17861 -3.0264 0
M  V30 4670 N 441.952 1.55251 0.271103 0
M  V30 4671 C 443.182 1.79713 1.01916 0
M  V30 4672 C 443.59 0.571613 1.80359 0
M  V30 4673 O 442.933 -0.468853 1.77616 0
M  V30 4674 C 442.995 2.97138 2.02359 0
M  V30 4675 C 442.659 4.34104 1.42837 0
M  V30 4676 C 443.656 5.13019 0.843071 0
M  V30 4677 C 441.341 4.80765 1.455 0
M  V30 4678 C 443.335 6.36729 0.292333 0
M  V30 4679 C 441.022 6.0443 0.900402 0
M  V30 4680 C 442.02 6.8225 0.32007 0
M  V30 4681 O 441.708 8.03582 -0.226031 0
M  V30 4682 H 441.44 0.602431 0.306681 0
M  V30 4683 H 443.994 2.03097 0.306701 0
M  V30 4684 H 442.224 2.6945 2.77369 0
M  V30 4685 H 443.913 3.08907 2.63309 0
M  V30 4686 H 444.679 4.781 0.815178 0
M  V30 4687 H 440.558 4.20202 1.89609 0
M  V30 4688 H 444.102 6.97414 -0.161274 0
M  V30 4689 H 439.999 6.3883 0.925541 0
M  V30 4690 H 440.767 8.18418 -0.115572 0
M  V30 4691 N 443.43 -0.535701 1.48216 0
M  V30 4692 C 444.846 -0.863701 1.3421 0
M  V30 4693 C 445.046 -1.98458 0.34879 0
M  V30 4694 O 444.102 -2.51432 -0.23204 0
M  V30 4695 C 445.415 -1.23662 2.74095 0
M  V30 4696 C 446.963 -1.34683 2.82541 0
M  V30 4697 C 447.438 -1.75322 4.23115 0
M  V30 4698 N 448.929 -1.82434 4.2576 0
M  V30 4699 C 449.664 -2.15252 5.31464 0
M  V30 4700 N 449.16 -2.46533 6.47452 0
M  V30 4701 N 450.953 -2.16209 5.18855 0
M  V30 4702 H 443.104 0.203965 2.11418 0
M  V30 4703 H 445.367 0.0286033 0.947568 0
M  V30 4704 H 445.073 -0.486674 3.48316 0
M  V30 4705 H 444.947 -2.18805 3.07253 0
M  V30 4706 H 447.334 -2.08756 2.08579 0
M  V30 4707 H 447.415 -0.376756 2.5301 0
M  V30 4708 H 447.059 -1.01812 4.97591 0
M  V30 4709 H 446.989 -2.7337 4.50085 0
M  V30 4710 H 449.48 -1.6056 3.42095 0
M  V30 4711 H 449.793 -2.70662 7.23852 0
M  V30 4712 H 448.138 -2.44065 6.50736 0
M  V30 4713 H 451.329 -1.91224 4.2726 0
M  V30 4714 H 451.502 -2.41453 6.01335 0
M  V30 4715 N 444.908 -1.36708 -0.784132 0
M  V30 4716 C 445.84 -1.27333 -1.90575 0
M  V30 4717 C 446.853 -0.191706 -1.61667 0
M  V30 4718 O 448.042 -0.446854 -1.72816 0
M  V30 4719 C 445.142 -0.943177 -3.25511 0
M  V30 4720 C 444.315 -2.12776 -3.82158 0
M  V30 4721 C 443.374 -1.76983 -4.95544 0
M  V30 4722 O 442.4 -2.49134 -5.11782 0
M  V30 4723 N 443.602 -0.706624 -5.76183 0
M  V30 4724 H 446.367 -2.23974 -1.99138 0
M  V30 4725 H 443.928 -1.30171 -0.962656 0
M  V30 4726 H 445.92 -0.684799 -3.98864 0
M  V30 4727 H 444.49 -0.0657333 -3.12531 0
M  V30 4728 H 443.71 -2.54863 -3.0073 0
M  V30 4729 H 444.998 -2.91904 -4.16737 0
M  V30 4730 H 444.396 -0.107643 -5.65598 0
M  V30 4731 H 442.953 -0.50808 -6.49817 0
M  V30 4732 N 446.386 1.0089 -1.21074 0
M  V30 4733 C 447.797 1.56056 -1.02486 0
M  V30 4734 C 448.148 1.91728 0.416506 0
M  V30 4735 O 447.273 1.73066 1.29912 0
M  V30 4736 C 447.868 2.83563 -1.85411 0
M  V30 4737 C 446.427 3.3523 -1.71166 0
M  V30 4738 C 445.574 2.0846 -1.82865 0
M  V30 4739 H 448.525 0.831818 -1.35154 0
M  V30 4740 H 448.546 3.55286 -1.36205 0
M  V30 4741 H 448.058 2.57569 -2.9031 0
M  V30 4742 H 446.159 3.66167 -0.689361 0
M  V30 4743 H 446.272 4.06913 -2.52901 0
M  V30 4744 H 444.636 2.21275 -1.26132 0
M  V30 4745 H 445.419 1.84883 -2.89263 0
M  V30 4746 N 447.864 1.01787 1.20321 0
M  V30 4747 C 449.113 0.703249 1.89043 0
M  V30 4748 C 449.426 -0.770445 1.79787 0
M  V30 4749 O 450.632 -1.19767 2.43656 0
M  V30 4750 C 449.088 1.20749 3.3904 0
M  V30 4751 C 448.696 2.70817 3.56878 0
M  V30 4752 C 450.44 0.968352 4.13308 0
M  V30 4753 C 448.347 3.14716 5.00708 0
M  V30 4754 H 447.277 0.259354 0.707991 0
M  V30 4755 H 449.928 1.23072 1.36108 0
M  V30 4756 H 448.31 0.607989 3.91305 0
M  V30 4757 H 449.484 3.36327 3.14993 0
M  V30 4758 H 447.799 2.92888 2.95983 0
M  V30 4759 H 450.396 1.27173 5.19356 0
M  V30 4760 H 450.739 -0.095149 4.16191 0
M  V30 4761 H 451.272 1.53129 3.67146 0
M  V30 4762 H 448.011 4.20347 5.02979 0
M  V30 4763 H 447.531 2.53927 5.43398 0
M  V30 4764 H 449.21 3.07426 5.69296 0
M  V30 4765 N 449.342 -1.36122 0.79427 0
M  V30 4766 C 450.272 -2.32551 0.210328 0
M  V30 4767 C 451.253 -1.56884 -0.657386 0
M  V30 4768 O 452.438 -1.85014 -0.590207 0
M  V30 4769 C 449.568 -3.41128 -0.651819 0
M  V30 4770 C 448.522 -4.27842 0.116395 0
M  V30 4771 C 447.848 -5.2763 -0.86666 0
M  V30 4772 C 449.148 -5.05647 1.30837 0
M  V30 4773 H 450.842 -2.81636 1.01594 0
M  V30 4774 H 448.388 -1.35407 0.489981 0
M  V30 4775 H 450.341 -4.07581 -1.07031 0
M  V30 4776 H 449.065 -2.90622 -1.49019 0
M  V30 4777 H 447.724 -3.62952 0.515915 0
M  V30 4778 H 447.372 -4.73395 -1.70019 0
M  V30 4779 H 447.072 -5.86514 -0.35705 0
M  V30 4780 H 448.596 -5.96955 -1.28361 0
M  V30 4781 H 450.01 -5.65113 0.965393 0
M  V30 4782 H 448.407 -5.73967 1.75161 0
M  V30 4783 H 449.477 -4.37006 2.10128 0
M  V30 4784 N 450.82 -0.546701 -1.47814 0
M  V30 4785 C 452.066 -0.0187684 -2.02791 0
M  V30 4786 C 452.399 1.32338 -1.42128 0
M  V30 4787 O 451.674 1.85867 -0.573023 0
M  V30 4788 C 451.957 0.0854985 -3.59998 0
M  V30 4789 C 451.81 -1.283 -4.31114 0
M  V30 4790 C 453.129 0.80412 -4.32691 0
M  V30 4791 H 450.248 -0.0082946 -0.736953 0
M  V30 4792 H 452.89 -0.706962 -1.76358 0
M  V30 4793 H 451.04 0.671609 -3.82651 0
M  V30 4794 H 452.712 -1.91151 -4.19832 0
M  V30 4795 H 450.955 -1.86049 -3.91878 0
M  V30 4796 H 451.626 -1.16287 -5.39612 0
M  V30 4797 H 454.102 0.306576 -4.14969 0
M  V30 4798 H 452.978 0.846011 -5.42341 0
M  V30 4799 H 453.239 1.85802 -4.01161 0
M  V30 4800 N 452.299 1.55045 -0.282633 0
M  V30 4801 C 453.262 2.21515 0.588539 0
M  V30 4802 C 454.262 1.19535 1.07554 0
M  V30 4803 O 455.452 1.44391 0.974514 0
M  V30 4804 C 452.584 2.88704 1.8128 0
M  V30 4805 H 453.777 2.99899 0.00806397 0
M  V30 4806 H 451.33 1.56265 -0.0333067 0
M  V30 4807 H 452.065 2.14352 2.43359 0
M  V30 4808 H 451.85 3.63443 1.47144 0
M  V30 4809 H 453.34 3.39465 2.43214 0
M  V30 4810 N 453.777 0.010035 1.57597 0
M  V30 4811 C 454.707 -0.976857 2.12084 0
M  V30 4812 C 455.688 -1.35191 1.03235 0
M  V30 4813 O 456.873 -1.43389 1.3097 0
M  V30 4814 C 454.003 -2.26548 2.63236 0
M  V30 4815 C 452.957 -2.03175 3.76701 0
M  V30 4816 C 452.283 -3.38138 4.14206 0
M  V30 4817 C 453.583 -1.38625 5.03568 0
M  V30 4818 H 455.277 -0.523145 2.94794 0
M  V30 4819 H 452.823 -0.250195 1.4181 0
M  V30 4820 H 454.776 -2.95952 2.99984 0
M  V30 4821 H 453.5 -2.74051 1.77661 0
M  V30 4822 H 452.159 -1.36195 3.40362 0
M  V30 4823 H 451.807 -3.83363 3.25641 0
M  V30 4824 H 451.507 -3.23312 4.90656 0
M  V30 4825 H 453.031 -4.08841 4.53521 0
M  V30 4826 H 454.445 -1.98 5.38023 0
M  V30 4827 H 452.842 -1.34256 5.84889 0
M  V30 4828 H 453.912 -0.356722 4.83586 0
M  V30 4829 N 455.255 -1.55392 -0.262866 0
M  V30 4830 C 456.188 -1.8391 -1.35101 0
M  V30 4831 C 457.166 -0.692901 -1.47097 0
M  V30 4832 O 458.35 -0.936979 -1.63563 0
M  V30 4833 C 455.477 -2.00969 -2.72634 0
M  V30 4834 C 454.523 -3.23559 -2.7787 0
M  V30 4835 S 455.356 -4.80647 -2.3609 0
M  V30 4836 C 456.512 -5.00692 -3.75578 0
M  V30 4837 H 456.745 -2.75918 -1.1071 0
M  V30 4838 H 454.278 -1.47294 -0.463029 0
M  V30 4839 H 456.236 -2.11482 -3.51832 0
M  V30 4840 H 454.897 -1.09832 -2.94272 0
M  V30 4841 H 454.09 -3.32413 -3.78837 0
M  V30 4842 H 453.692 -3.11689 -2.06702 0
M  V30 4843 H 455.984 -4.87055 -4.70939 0
M  V30 4844 H 456.927 -6.02717 -3.71669 0
M  V30 4845 H 457.335 -4.28619 -3.6735 0
M  V30 4846 N 456.733 0.527833 -1.48498 0
M  V30 4847 C 457.663 1.64136 -1.66077 0
M  V30 4848 C 458.644 1.62286 -0.509625 0
M  V30 4849 O 459.829 1.79449 -0.742413 0
M  V30 4850 C 456.959 3.02717 -1.70234 0
M  V30 4851 C 455.913 3.19426 -2.8487 0
M  V30 4852 C 455.239 4.5909 -2.74118 0
M  V30 4853 C 456.539 3.01993 -4.26142 0
M  V30 4854 H 458.233 1.4968 -2.593 0
M  V30 4855 H 455.779 0.718654 -1.24785 0
M  V30 4856 H 457.732 3.80491 -1.8112 0
M  V30 4857 H 456.456 3.18201 -0.735911 0
M  V30 4858 H 455.115 2.4407 -2.73542 0
M  V30 4859 H 454.763 4.71413 -1.7544 0
M  V30 4860 H 454.463 4.71214 -3.51042 0
M  V30 4861 H 455.987 5.3896 -2.86974 0
M  V30 4862 H 457.401 3.69558 -4.38292 0
M  V30 4863 H 455.798 3.2561 -5.04082 0
M  V30 4864 H 456.868 1.98396 -4.42456 0
M  V30 4865 N 458.211 1.37122 0.776871 0
M  V30 4866 C 459.161 1.28989 1.88005 0
M  V30 4867 C 460.145 0.178765 1.59904 0
M  V30 4868 O 461.337 0.412705 1.72121 0
M  V30 4869 C 458.466 1.09402 3.25402 0
M  V30 4870 C 457.552 2.25036 3.59471 0
M  V30 4871 N 457.943 3.50407 3.64759 0
M  V30 4872 C 456.241 2.17078 3.89607 0
M  V30 4873 C 456.942 4.26628 3.95428 0
M  V30 4874 N 455.918 3.55709 4.11062 0
M  V30 4875 H 459.72 2.2394 1.90337 0
M  V30 4876 H 457.234 1.30021 0.973052 0
M  V30 4877 H 459.231 1.01661 4.04315 0
M  V30 4878 H 457.891 0.153632 3.24336 0
M  V30 4879 H 458.902 3.8438 3.47091 0
M  V30 4880 H 455.579 1.31067 3.96393 0
M  V30 4881 H 456.969 5.35107 4.06338 0
M  V30 4882 N 459.689 -1.00246 1.21608 0
M  V30 4883 C 460.935 -1.74319 1.03638 0
M  V30 4884 C 461.268 -1.89408 -0.428749 0
M  V30 4885 O 460.543 -1.43026 -1.3181 0
M  V30 4886 C 460.826 -3.15431 1.73711 0
M  V30 4887 C 460.679 -3.08049 3.27759 0
M  V30 4888 C 461.998 -4.14407 1.48173 0
M  V30 4889 H 459.117 -0.632741 0.377899 0
M  V30 4890 H 461.759 -1.16853 1.49818 0
M  V30 4891 H 459.909 -3.64493 1.34452 0
M  V30 4892 H 461.581 -2.66681 3.76403 0
M  V30 4893 H 459.824 -2.45088 3.57931 0
M  V30 4894 H 460.495 -4.07862 3.71958 0
M  V30 4895 H 462.971 -3.74061 1.82258 0
M  V30 4896 H 461.847 -5.11279 1.99713 0
M  V30 4897 H 462.108 -4.40174 0.412273 0
M  V30 4898 N 461.167 -1.02423 -1.1978 0
M  V30 4899 C 462.13 -0.605703 -2.21052 0
M  V30 4900 C 463.13 0.328209 -1.57415 0
M  V30 4901 O 464.32 0.115853 -1.73814 0
M  V30 4902 C 461.452 0.114366 -3.40708 0
M  V30 4903 H 462.645 -1.5017 -2.59594 0
M  V30 4904 H 460.198 -0.814888 -1.33376 0
M  V30 4905 H 460.933 1.02492 -3.07678 0
M  V30 4906 H 460.718 -0.556641 -3.88129 0
M  V30 4907 H 462.208 0.394272 -4.15735 0
M  V30 4908 N 462.645 1.35699 -0.801477 0
M  V30 4909 C 463.577 2.28598 -0.166028 0
M  V30 4910 C 464.59 1.50044 0.631721 0
M  V30 4911 O 465.779 1.72339 0.464921 0
M  V30 4912 C 462.879 3.29625 0.787451 0
M  V30 4913 C 462.052 4.37384 0.037171 0
M  V30 4914 C 461.111 5.183 0.908375 0
M  V30 4915 O 460.137 5.68053 0.361189 0
M  V30 4916 N 461.339 5.35912 2.23112 0
M  V30 4917 H 464.104 2.83771 -0.964071 0
M  V30 4918 H 461.665 1.47994 -0.656469 0
M  V30 4919 H 463.657 3.80648 1.37439 0
M  V30 4920 H 462.227 2.75004 1.48632 0
M  V30 4921 H 461.447 3.87364 -0.730935 0
M  V30 4922 H 462.735 5.0653 -0.480109 0
M  V30 4923 H 462.133 4.97125 2.69968 0
M  V30 4924 H 460.69 5.90133 2.76741 0
M  V30 4925 N 464.123 0.554532 1.47522 0
M  V30 4926 C 465.055 -0.232106 2.28022 0
M  V30 4927 C 466.068 -0.881865 1.36847 0
M  V30 4928 O 467.257 -0.756168 1.61692 0
M  V30 4929 C 464.357 -1.34604 3.11022 0
M  V30 4930 C 463.53 -0.793582 4.30141 0
M  V30 4931 C 462.589 -1.79168 4.94758 0
M  V30 4932 O 461.615 -1.33886 5.5323 0
M  V30 4933 N 462.817 -3.12495 4.89211 0
M  V30 4934 H 465.582 0.458407 2.96173 0
M  V30 4935 H 463.143 0.390433 1.57122 0
M  V30 4936 H 465.135 -2.01243 3.51118 0
M  V30 4937 H 463.705 -1.93983 2.45131 0
M  V30 4938 H 462.925 0.0495025 3.94169 0
M  V30 4939 H 464.213 -0.403776 5.07195 0
M  V30 4940 H 463.611 -3.51931 4.42901 0
M  V30 4941 H 462.168 -3.74698 5.33333 0
M  V30 4942 N 465.601 -1.54893 0.290851 0
M  V30 4943 C 466.848 -1.99933 -0.321391 0
M  V30 4944 C 467.176 -1.17927 -1.54672 0
M  V30 4945 O 466.431 -0.240902 -1.94212 0
M  V30 4946 C 466.73 -3.49815 -0.732397 0
M  V30 4947 C 466.396 -4.4921 0.390056 0
M  V30 4948 C 465.058 -4.76107 0.698223 0
M  V30 4949 C 467.41 -5.08453 1.14562 0
M  V30 4950 C 464.738 -5.59514 1.76526 0
M  V30 4951 C 467.09 -5.9302 2.2025 0
M  V30 4952 C 465.754 -6.18232 2.51684 0
M  V30 4953 H 465.024 -0.731608 -0.117605 0
M  V30 4954 H 467.671 -1.87107 0.407839 0
M  V30 4955 H 465.976 -3.60199 -1.54155 0
M  V30 4956 H 467.673 -3.82083 -1.21712 0
M  V30 4957 H 464.263 -4.28372 0.13976 0
M  V30 4958 H 468.447 -4.87683 0.920801 0
M  V30 4959 H 463.703 -5.77289 2.01364 0
M  V30 4960 H 467.877 -6.37955 2.7926 0
M  V30 4961 H 465.504 -6.82653 3.34499 0
M  V30 4962 N 467.08 -0.0183926 -1.57589 0
M  V30 4963 C 468.305 0.676634 -1.96052 0
M  V30 4964 C 468.73 1.6548 -0.894307 0
M  V30 4965 O 468.088 1.80712 0.145849 0
M  V30 4966 C 468.136 1.36872 -3.33614 0
M  V30 4967 O 467.24 2.48372 -3.29219 0
M  V30 4968 H 466.581 0.1786 -0.63953 0
M  V30 4969 H 469.111 -0.077056 -2.04455 0
M  V30 4970 H 469.121 1.72797 -3.69601 0
M  V30 4971 H 467.796 0.651636 -4.10763 0
M  V30 4972 H 466.373 2.14639 -3.04934 0
M  V30 4973 N 468.558 1.5553 0.254621 0
M  V30 4974 C 469.806 1.7665 0.981793 0
M  V30 4975 C 470.127 0.580963 1.86145 0
M  V30 4976 O 469.397 -0.403537 1.91699 0
M  V30 4977 H 467.977 0.651475 0.365498 0
M  V30 4978 H 470.639 1.92958 0.274426 0
M  V30 4979 H 469.735 2.67486 1.60802 0
M  V30 4980 N 470.036 -0.519951 1.48776 0
M  V30 4981 C 471.285 -1.27175 1.56555 0
M  V30 4982 C 471.598 -1.9401 0.248869 0
M  V30 4983 O 472.804 -2.70725 0.205004 0
M  V30 4984 C 471.26 -2.30811 2.76142 0
M  V30 4985 C 470.868 -1.7 4.14493 0
M  V30 4986 C 472.612 -3.06937 2.9324 0
M  V30 4987 C 470.519 -2.71635 5.25327 0
M  V30 4988 H 469.449 -0.478329 0.582853 0
M  V30 4989 H 472.1 -0.547916 1.75129 0
M  V30 4990 H 470.482 -3.06274 2.51023 0
M  V30 4991 H 471.656 -1.00658 4.49672 0
M  V30 4992 H 469.971 -1.06331 4.02595 0
M  V30 4993 H 472.568 -3.82905 3.73213 0
M  V30 4994 H 472.911 -3.63409 2.03075 0
M  V30 4995 H 473.444 -2.38589 3.18308 0
M  V30 4996 H 470.183 -2.1997 6.1749 0
M  V30 4997 H 469.703 -3.39275 4.94624 0
M  V30 4998 H 471.382 -3.34429 5.53865 0
M  V30 4999 N 471.514 -1.37532 -0.769588 0
M  V30 5000 C 472.462 -1.33561 -1.90432 0
M  V30 5001 C 473.456 -0.224027 -1.67912 0
M  V30 5002 O 474.662 -0.392174 -1.75676 0
M  V30 5003 H 471.037 -0.416279 -0.626271 0
M  V30 5004 H 473.008 -2.29348 -1.90899 0
M  V30 5005 C 471.757 -1.16162 -3.27722 0
M  V30 5006 H 471.08 -2.00951 -3.45628 0
M  V30 5007 H 472.52 -1.17434 -4.07413 0
M  V30 5008 C 470.979 0.132583 -3.36639 0
M  V30 5009 O 471.509 1.11539 -3.85904 0
M  V30 5010 N 469.715 0.184013 -2.90017 0
M  V30 5011 H 469.262 -0.616415 -2.50116 0
M  V30 5012 H 469.22 1.04956 -2.96364 0
M  V30 5013 N 472.992 0.995999 -1.22138 0
M  V30 5014 C 474.24 1.73167 -1.042 0
M  V30 5015 C 474.561 1.90329 0.42423 0
M  V30 5016 O 473.831 1.4607 1.30539 0
M  V30 5017 H 472.411 0.641593 -0.38258 0
M  V30 5018 H 475.073 1.19974 -1.53598 0
M  V30 5019 H 474.169 2.72734 -1.51731 0
M  V30 5020 N 474.47 1.03057 1.19235 0
M  V30 5021 C 475.719 0.72326 1.88287 0
M  V30 5022 C 476.032 -0.751333 1.80594 0
M  V30 5023 O 477.238 -1.17176 2.44912 0
M  V30 5024 C 475.694 1.24338 3.3774 0
M  V30 5025 C 475.302 2.74587 3.53986 0
M  V30 5026 C 477.046 1.01213 4.12257 0
M  V30 5027 C 474.953 3.20009 4.97341 0
M  V30 5028 H 473.883 0.266848 0.705201 0
M  V30 5029 H 476.534 1.24509 1.34795 0
M  V30 5030 H 474.916 0.649457 3.90638 0
M  V30 5031 H 476.09 3.39649 3.11408 0
M  V30 5032 H 474.405 2.9601 2.9286 0
M  V30 5033 H 477.002 1.32675 5.17978 0
M  V30 5034 H 477.345 -0.051001 4.16269 0
M  V30 5035 H 477.878 1.57014 3.65501 0
M  V30 5036 H 474.617 4.25659 4.98493 0
M  V30 5037 H 474.137 2.59676 5.40674 0
M  V30 5038 H 475.816 3.13447 5.66003 0
M  V30 5039 N 475.948 -1.35272 0.808662 0
M  V30 5040 C 477.195 -1.98709 0.390003 0
M  V30 5041 C 477.523 -1.64148 -1.04335 0
M  V30 5042 O 476.778 -0.897797 -1.73891 0
M  V30 5043 C 477.077 -3.53556 0.522798 0
M  V30 5044 C 476.743 -4.0799 1.91977 0
M  V30 5045 C 475.405 -4.22568 2.30195 0
M  V30 5046 C 477.757 -4.37442 2.83361 0
M  V30 5047 C 475.085 -4.63918 3.59162 0
M  V30 5048 C 477.437 -4.80232 4.11776 0
M  V30 5049 C 476.101 -4.93016 4.49991 0
M  V30 5050 H 475.371 -0.727127 0.142712 0
M  V30 5051 H 478.018 -1.6145 1.02985 0
M  V30 5052 H 476.323 -3.91287 -0.200494 0
M  V30 5053 H 478.02 -4.00598 0.179608 0
M  V30 5054 H 474.61 -3.97096 1.61284 0
M  V30 5055 H 478.794 -4.25731 2.55083 0
M  V30 5056 H 474.05 -4.72005 3.88615 0
M  V30 5057 H 478.224 -5.01982 4.82687 0
M  V30 5058 H 475.851 -5.24814 5.49976 0
M  V30 5059 N 477.426 -0.562348 -1.47226 0
M  V30 5060 C 478.656 -0.0451619 -2.06551 0
M  V30 5061 C 479.064 1.25626 -1.41473 0
M  V30 5062 O 478.407 1.76563 -0.507061 0
M  V30 5063 C 478.469 0.216068 -3.5885 0
M  V30 5064 C 478.133 -0.996691 -4.45999 0
M  V30 5065 C 479.13 -1.90358 -4.83797 0
M  V30 5066 C 476.815 -1.21281 -4.87438 0
M  V30 5067 C 478.809 -3.01023 -5.6184 0
M  V30 5068 C 476.496 -2.32255 -5.65244 0
M  V30 5069 C 477.494 -3.21956 -6.02356 0
M  V30 5070 O 477.182 -4.31005 -6.78594 0
M  V30 5071 H 476.914 -0.0451646 -0.67449 0
M  V30 5072 H 479.468 -0.776842 -1.90143 0
M  V30 5073 H 477.698 1.00212 -3.7349 0
M  V30 5074 H 479.387 0.679264 -4.00176 0
M  V30 5075 H 480.153 -1.74868 -4.52378 0
M  V30 5076 H 476.032 -0.523767 -4.58015 0
M  V30 5077 H 479.576 -3.71064 -5.90726 0
M  V30 5078 H 475.473 -2.47715 -5.96077 0
M  V30 5079 H 476.241 -4.29118 -6.96994 0
M  V30 5080 N 478.904 1.54736 -0.299062 0
M  V30 5081 C 480.134 2.04215 0.312992 0
M  V30 5082 C 480.542 1.17596 1.48215 0
M  V30 5083 O 479.885 0.193835 1.82674 0
M  V30 5084 C 479.947 3.49696 0.833862 0
M  V30 5085 C 479.611 4.56518 -0.20977 0
M  V30 5086 C 480.608 5.09442 -1.03756 0
M  V30 5087 C 478.293 5.01073 -0.35091 0
M  V30 5088 C 480.287 6.05459 -1.99244 0
M  V30 5089 C 477.974 5.9691 -1.30924 0
M  V30 5090 C 478.972 6.48987 -2.1285 0
M  V30 5091 O 478.66 7.42947 -3.07059 0
M  V30 5092 H 478.392 0.672128 0.0722494 0
M  V30 5093 H 480.946 2.00718 -0.436043 0
M  V30 5094 H 479.176 3.5051 1.63339 0
M  V30 5095 H 480.865 3.82381 1.36159 0
M  V30 5096 H 481.631 4.75816 -0.939376 0
M  V30 5097 H 477.51 4.60168 0.276813 0
M  V30 5098 H 481.054 6.46031 -2.63229 0
M  V30 5099 H 476.951 6.29953 -1.40815 0
M  V30 5100 H 477.719 7.60743 -3.02015 0
M  V30 5101 N 480.382 0.0267497 1.57577 0
M  V30 5102 C 481.607 -0.666227 1.96408 0
M  V30 5103 C 482.032 -1.65004 0.903071 0
M  V30 5104 O 481.39 -1.80787 -0.136263 0
M  V30 5105 C 481.438 -1.35101 3.34335 0
M  V30 5106 O 480.542 -2.46623 3.30531 0
M  V30 5107 H 479.883 -0.175206 0.640468 0
M  V30 5108 H 482.413 0.0878977 2.04411 0
M  V30 5109 H 482.423 -1.70834 3.70513 0
M  V30 5110 H 481.098 -0.629844 4.11103 0
M  V30 5111 H 479.675 -2.13019 3.06068 0
M  V30 5112 N 481.861 -1.55662 -0.24637 0
M  V30 5113 C 483.089 -1.81575 -0.991876 0
M  V30 5114 C 483.504 -0.602545 -1.78927 0
M  V30 5115 O 482.861 0.428795 -1.77391 0
M  V30 5116 C 482.912 -3.05711 -1.92933 0
M  V30 5117 O 482.633 -4.22348 -1.1642 0
M  V30 5118 C 484.134 -3.44428 -2.79078 0
M  V30 5119 H 481.354 -0.604209 -0.291844 0
M  V30 5120 H 483.898 -2.02722 -0.269095 0
M  V30 5121 H 482.053 -2.86612 -2.60638 0
M  V30 5122 H 482.467 -4.92706 -1.79835 0
M  V30 5123 H 483.941 -4.34388 -3.40603 0
M  V30 5124 H 484.418 -2.65037 -3.50217 0
M  V30 5125 H 485.024 -3.65879 -2.16824 0
M  V30 5126 N 483.339 0.512053 -1.4905 0
M  V30 5127 C 484.564 1.2959 -1.6193 0
M  V30 5128 C 484.989 1.85906 -0.286454 0
M  V30 5129 O 484.347 1.65312 0.744426 0
M  V30 5130 C 484.395 2.40987 -2.68249 0
M  V30 5131 O 483.499 3.44531 -2.26654 0
M  V30 5132 H 482.84 0.383053 -0.542371 0
M  V30 5133 H 485.37 0.614231 -1.95162 0
M  V30 5134 H 485.38 2.86913 -2.90078 0
M  V30 5135 H 484.055 1.99361 -3.65004 0
M  V30 5136 H 482.632 3.046 -2.15112 0
M  V30 5137 N 484.817 1.37938 0.762283 0
M  V30 5138 C 486.066 1.32989 1.51647 0
M  V30 5139 C 486.379 -0.0802922 1.95435 0
M  V30 5140 O 487.585 -0.252295 2.70325 0
M  V30 5141 C 486.041 2.33485 2.73885 0
M  V30 5142 C 485.649 3.80079 2.37157 0
M  V30 5143 C 487.393 2.37563 3.51801 0
M  V30 5144 C 485.3 4.72283 3.55954 0
M  V30 5145 H 484.23 0.494301 0.56937 0
M  V30 5146 H 486.881 1.63448 0.834083 0
M  V30 5147 H 485.263 1.96056 3.44061 0
M  V30 5148 H 486.437 4.26398 1.74704 0
M  V30 5149 H 484.752 3.79037 1.72395 0
M  V30 5150 H 487.349 3.0365 4.40114 0
M  V30 5151 H 487.692 1.39199 3.92338 0
M  V30 5152 H 488.225 2.73747 2.8863 0
M  V30 5153 H 484.964 5.7181 3.2049 0
M  V30 5154 H 484.484 4.30663 4.1748 0
M  V30 5155 H 486.163 4.89876 4.22647 0
M  V30 5156 N 486.295 -0.989507 1.22664 0
M  V30 5157 C 487.542 -1.72953 1.05325 0
M  V30 5158 C 487.87 -1.90104 -0.411168 0
M  V30 5159 O 487.125 -1.44386 -1.32103 0
M  V30 5160 C 487.424 -3.13649 1.71345 0
M  V30 5161 C 487.09 -3.16403 3.21248 0
M  V30 5162 C 485.752 -3.16862 3.62149 0
M  V30 5163 C 488.104 -3.12428 4.17179 0
M  V30 5164 C 485.432 -3.11051 4.97458 0
M  V30 5165 C 487.784 -3.08159 5.52468 0
M  V30 5166 C 486.448 -3.06935 5.92746 0
M  V30 5167 H 485.718 -0.632881 0.385412 0
M  V30 5168 H 488.365 -1.15863 1.52473 0
M  V30 5169 H 486.67 -3.74069 1.16532 0
M  V30 5170 H 488.367 -3.69658 1.55416 0
M  V30 5171 H 484.957 -3.16798 2.88682 0
M  V30 5172 H 489.141 -3.11221 3.86595 0
M  V30 5173 H 484.397 -3.0845 5.27891 0
M  V30 5174 H 488.571 -3.04039 6.26525 0
M  V30 5175 H 486.198 -3.02186 6.97558 0
M  V30 5176 N 487.773 -1.03688 -1.18687 0
M  V30 5177 C 488.705 -0.582696 -2.21669 0
M  V30 5178 C 489.718 0.345656 -1.59088 0
M  V30 5179 O 490.907 0.140776 -1.77944 0
M  V30 5180 C 488.007 0.169204 -3.38477 0
M  V30 5181 C 487.18 -0.766079 -4.30639 0
M  V30 5182 C 486.239 -0.0581541 -5.26168 0
M  V30 5183 O 485.265 -0.687346 -5.65035 0
M  V30 5184 N 486.467 1.20981 -5.67753 0
M  V30 5185 H 489.232 -1.46843 -2.61261 0
M  V30 5186 H 486.793 -0.916896 -1.33434 0
M  V30 5187 H 488.785 0.652543 -3.99405 0
M  V30 5188 H 487.355 0.956435 -2.97609 0
M  V30 5189 H 486.575 -1.42935 -3.67373 0
M  V30 5190 H 487.863 -1.40146 -4.89118 0
M  V30 5191 H 487.261 1.74159 -5.38224 0
M  V30 5192 H 485.818 1.6375 -6.30896 0
M  V30 5193 N 489.251 1.34841 -0.815825 0
M  V30 5194 C 490.479 2.0273 -0.413294 0
M  V30 5195 C 490.894 1.61459 0.978599 0
M  V30 5196 O 490.251 0.816584 1.63212 0
M  V30 5197 C 490.302 3.58058 -0.497676 0
M  V30 5198 O 490.023 3.97832 -1.8347 0
M  V30 5199 C 491.524 4.4321 -0.0891339 0
M  V30 5200 H 488.744 0.649956 -0.166728 0
M  V30 5201 H 491.288 1.72267 -1.10201 0
M  V30 5202 H 489.443 3.87136 0.142886 0
M  V30 5203 H 489.857 4.92501 -1.80396 0
M  V30 5204 H 491.331 5.5164 -0.199274 0
M  V30 5205 H 491.808 4.28432 0.966571 0
M  V30 5206 H 492.414 4.19446 -0.703214 0
M  V30 5207 N 490.729 0.570148 1.46925 0
M  V30 5208 C 491.692 -0.159933 2.28641 0
M  V30 5209 C 492.692 -0.830638 1.37685 0
M  V30 5210 O 493.882 -0.684516 1.60187 0
M  V30 5211 C 491.014 -1.2354 3.17727 0
M  V30 5212 H 492.207 0.558035 2.94662 0
M  V30 5213 H 489.76 0.327603 1.52828 0
M  V30 5214 H 490.495 -1.98535 2.56426 0
M  V30 5215 H 490.28 -0.759125 3.84681 0
M  V30 5216 H 491.77 -1.74782 3.79264 0
M  V30 5217 N 492.207 -1.54576 0.307264 0
M  V30 5218 C 493.455 -1.99867 -0.299574 0
M  V30 5219 C 493.776 -1.19714 -1.53927 0
M  V30 5220 O 493.046 -0.29472 -1.9367 0
M  V30 5221 H 491.626 -0.738299 -0.113683 0
M  V30 5222 H 494.288 -1.9032 0.420042 0
M  V30 5223 H 493.384 -3.06901 -0.567283 0
M  V30 5224 N 493.685 -0.035106 -1.57561 0
M  V30 5225 C 494.934 0.641604 -1.91223 0
M  V30 5226 C 495.247 1.72944 -0.913761 0
M  V30 5227 O 496.453 2.46321 -1.14185 0
M  V30 5228 C 494.909 1.19249 -3.3957 0
M  V30 5229 C 494.517 0.137616 -4.47789 0
M  V30 5230 C 496.261 1.84537 -3.82291 0
M  V30 5231 C 494.168 0.700478 -5.87237 0
M  V30 5232 H 493.098 0.243417 -0.713627 0
M  V30 5233 H 495.749 -0.101382 -1.8322 0
M  V30 5234 H 494.131 1.98728 -3.42525 0
M  V30 5235 H 495.305 -0.635153 -4.56402 0
M  V30 5236 H 493.62 -0.416855 -4.14308 0
M  V30 5237 H 496.217 2.27616 -4.83834 0
M  V30 5238 H 496.56 2.69054 -3.17672 0
M  V30 5239 H 497.093 1.11739 -3.81784 0
M  V30 5240 H 493.832 -0.106693 -6.55413 0
M  V30 5241 H 493.352 1.4416 -5.82218 0
M  V30 5242 H 495.031 1.18837 -6.35993 0
M  V30 5243 N 495.163 1.55791 0.238111 0
M  V30 5244 C 496.388 1.8244 0.986432 0
M  V30 5245 C 496.813 0.613314 1.7782 0
M  V30 5246 O 496.171 -0.437767 1.75935 0
M  V30 5247 C 496.219 3.06917 1.893 0
M  V30 5248 O 495.323 2.84449 2.98601 0
M  V30 5249 H 494.664 0.601975 0.280218 0
M  V30 5250 H 497.194 2.02987 0.256437 0
M  V30 5251 H 497.204 3.36583 2.30598 0
M  V30 5252 H 495.879 3.947 1.31091 0
M  V30 5253 H 494.456 2.65972 2.61368 0
M  V30 5254 N 496.642 -0.504142 1.49319 0
M  V30 5255 C 497.589 -1.60603 1.65756 0
M  V30 5256 C 498.559 -1.58425 0.499082 0
M  V30 5257 O 499.744 -1.76459 0.725728 0
M  V30 5258 C 496.884 -2.98764 1.72726 0
M  V30 5259 C 495.997 -3.10982 2.99857 0
M  V30 5260 C 495.132 -4.39857 2.97824 0
M  V30 5261 C 494.171 -4.45697 4.19548 0
M  V30 5262 N 493.308 -5.65995 4.15444 0
M  V30 5263 H 498.148 -1.45895 2.59843 0
M  V30 5264 H 495.685 -0.709891 1.28837 0
M  V30 5265 H 497.643 -3.78839 1.74747 0
M  V30 5266 H 496.273 -3.12183 0.821075 0
M  V30 5267 H 495.325 -2.23991 3.07461 0
M  V30 5268 H 496.637 -3.11157 3.89849 0
M  V30 5269 H 495.791 -5.2825 2.98391 0
M  V30 5270 H 494.53 -4.42242 2.05604 0
M  V30 5271 H 493.535 -3.55707 4.19229 0
M  V30 5272 H 494.76 -4.4503 5.12957 0
M  V30 5273 H 492.706 -5.69229 3.26059 0
M  V30 5274 H 492.623 -5.67773 4.99169 0
M  V30 5275 H 493.891 -6.56604 4.20109 0
M  V30 5276 N 498.12 -1.38341 -0.754957 0
M  V30 5277 C 499.531 -1.30803 -1.3322 0
M  V30 5278 C 499.882 0.0368 -1.96165 0
M  V30 5279 O 499.007 0.938844 -1.94974 0
M  V30 5280 C 499.602 -2.3688 -2.42225 0
M  V30 5281 C 498.161 -2.32925 -2.95674 0
M  V30 5282 C 497.308 -2.19819 -1.69042 0
M  V30 5283 H 500.259 -1.48719 -0.553937 0
M  V30 5284 H 500.28 -2.02517 -3.22129 0
M  V30 5285 H 499.792 -3.34747 -1.96383 0
M  V30 5286 H 497.893 -1.38635 -3.45848 0
M  V30 5287 H 498.006 -3.27008 -3.50146 0
M  V30 5288 H 496.37 -1.66648 -1.92615 0
M  V30 5289 H 497.153 -3.19625 -1.25279 0
M  V30 5290 N 499.598 0.982988 -1.23187 0
M  V30 5291 C 500.844 1.72648 -1.06398 0
M  V30 5292 C 501.177 1.90066 0.398561 0
M  V30 5293 O 500.452 1.45105 1.29518 0
M  V30 5294 C 500.735 3.12627 -1.78707 0
M  V30 5295 C 500.588 3.02795 -3.32618 0
M  V30 5296 C 501.907 4.11997 -1.54747 0
M  V30 5297 H 499.026 0.626649 -0.387918 0
M  V30 5298 H 501.668 1.14455 -1.51658 0
M  V30 5299 H 499.818 3.62308 -1.40234 0
M  V30 5300 H 501.49 2.60659 -3.80598 0
M  V30 5301 H 499.733 2.39362 -3.61785 0
M  V30 5302 H 500.404 4.01893 -3.78399 0
M  V30 5303 H 502.88 3.71114 -1.88186 0
M  V30 5304 H 501.756 5.08037 -2.07821 0
M  V30 5305 H 502.017 4.39462 -0.482249 0
M  V30 5306 N 501.076 1.04316 1.18135 0
M  V30 5307 C 502.306 0.767003 1.91835 0
M  V30 5308 C 502.714 -0.68002 1.76557 0
M  V30 5309 O 502.057 -1.47548 1.09432 0
M  V30 5310 C 502.119 1.05674 3.43618 0
M  V30 5311 C 501.783 2.49818 3.82675 0
M  V30 5312 C 502.78 3.48003 3.86251 0
M  V30 5313 C 500.465 2.84596 4.13897 0
M  V30 5314 C 502.459 4.79016 4.20503 0
M  V30 5315 C 500.146 4.15813 4.4782 0
M  V30 5316 C 501.144 5.12834 4.51099 0
M  V30 5317 O 500.832 6.41699 4.84229 0
M  V30 5318 H 500.564 0.278948 0.615763 0
M  V30 5319 H 503.118 1.3946 1.50798 0
M  V30 5320 H 501.348 0.372029 3.84906 0
M  V30 5321 H 503.037 0.767994 3.98568 0
M  V30 5322 H 503.803 3.22475 3.62264 0
M  V30 5323 H 499.682 2.09748 4.1052 0
M  V30 5324 H 503.226 5.54739 4.22978 0
M  V30 5325 H 499.123 4.41109 4.71268 0
M  V30 5326 H 499.891 6.46387 5.02121 0
M  V30 5327 N 502.554 -1.34406 0.822964 0
M  V30 5328 C 503.517 -2.2783 0.250271 0
M  V30 5329 C 504.517 -1.50288 -0.571854 0
M  V30 5330 O 505.707 -1.69825 -0.387952 0
M  V30 5331 C 502.839 -3.34663 -0.649137 0
M  V30 5332 H 504.032 -2.79992 1.07444 0
M  V30 5333 H 501.585 -1.44539 0.594829 0
M  V30 5334 H 502.32 -2.87714 -1.49637 0
M  V30 5335 H 502.105 -3.92052 -0.0611199 0
M  V30 5336 H 503.595 -4.04349 -1.04363 0
M  V30 5337 N 504.032 -0.577932 -1.46621 0
M  V30 5338 C 505.26 -0.0671642 -2.06791 0
M  V30 5339 C 505.675 1.23571 -1.42743 0
M  V30 5340 O 505.032 1.74602 -0.531062 0
M  V30 5341 C 505.083 0.110357 -3.61332 0
M  V30 5342 O 504.804 -1.14095 -4.22982 0
M  V30 5343 C 506.305 0.656025 -4.38419 0
M  V30 5344 H 503.525 -0.0552732 -0.66872 0
M  V30 5345 H 506.069 -0.797242 -1.8832 0
M  V30 5346 H 504.224 0.790637 -3.79246 0
M  V30 5347 H 504.638 -0.951742 -5.15793 0
M  V30 5348 H 506.112 0.729438 -5.47159 0
M  V30 5349 H 506.589 1.67195 -4.06131 0
M  V30 5350 H 507.195 0.0107692 -4.25299 0
M  V30 5351 N 505.51 1.54411 -0.315457 0
M  V30 5352 C 506.759 1.99599 0.290395 0
M  V30 5353 C 507.072 1.20746 1.53882 0
M  V30 5354 O 508.278 1.56272 2.22017 0
M  V30 5355 C 506.734 3.5539 0.56797 0
M  V30 5356 C 506.342 4.43068 -0.662945 0
M  V30 5357 C 508.086 4.09067 1.13422 0
M  V30 5358 C 505.993 5.90317 -0.357722 0
M  V30 5359 H 504.923 0.745592 0.112286 0
M  V30 5360 H 507.574 1.78477 -0.426418 0
M  V30 5361 H 505.956 3.72468 1.34476 0
M  V30 5362 H 507.13 4.37765 -1.43869 0
M  V30 5363 H 505.445 4.00238 -1.14884 0
M  V30 5364 H 508.042 5.16663 1.37707 0
M  V30 5365 H 508.385 3.60552 2.08106 0
M  V30 5366 H 508.918 3.95589 0.418805 0
M  V30 5367 H 505.657 6.4301 -1.27351 0
M  V30 5368 H 505.177 5.98592 0.380472 0
M  V30 5369 H 506.856 6.4699 0.0354284 0
M  V30 5370 N 506.988 0.0434614 1.5754 0
M  V30 5371 C 508.236 -0.630786 1.92004 0
M  V30 5372 C 508.557 -1.71836 0.921807 0
M  V30 5373 O 507.827 -1.9587 -0.034522 0
M  V30 5374 H 506.407 -0.235988 0.708745 0
M  V30 5375 H 509.069 0.0946462 1.9467 0
M  V30 5376 H 508.165 -1.07434 2.93026 0
M  V30 5377 N 508.466 -1.55915 -0.229846 0
M  V30 5378 C 509.712 -1.78807 -0.956868 0
M  V30 5379 C 510.045 -0.611687 -1.84315 0
M  V30 5380 O 509.32 0.389398 -1.90562 0
M  V30 5381 C 509.603 -3.11718 -1.80288 0
M  V30 5382 C 509.456 -4.3979 -0.943649 0
M  V30 5383 C 510.775 -3.40999 -2.78222 0
M  V30 5384 H 507.894 -0.6505 -0.346437 0
M  V30 5385 H 510.536 -1.88648 -0.226252 0
M  V30 5386 H 508.686 -3.03459 -2.42579 0
M  V30 5387 H 510.358 -4.60059 -0.338121 0
M  V30 5388 H 508.601 -4.33086 -0.248705 0
M  V30 5389 H 509.272 -5.29208 -1.5698 0
M  V30 5390 H 511.748 -3.49332 -2.26067 0
M  V30 5391 H 510.624 -4.35183 -3.34526 0
M  V30 5392 H 510.885 -2.62754 -3.55546 0
M  V30 5393 N 509.944 0.496216 -1.49584 0
M  V30 5394 C 511.192 1.24756 -1.58998 0
M  V30 5395 C 511.513 1.92968 -0.280775 0
M  V30 5396 O 510.783 1.82959 0.700198 0
M  V30 5397 H 509.363 0.463471 -0.585836 0
M  V30 5398 H 512.025 0.574678 -1.86235 0
M  V30 5399 H 511.121 2.00895 -2.38847 0
M  V30 5400 N 511.423 1.38739 0.74761 0
M  V30 5401 C 512.386 1.36241 1.84312 0
M  V30 5402 C 513.386 0.261811 1.58654 0
M  V30 5403 O 514.576 0.519031 1.66288 0
M  V30 5404 C 511.708 1.12253 3.21888 0
M  V30 5405 H 512.901 2.33712 1.87933 0
M  V30 5406 H 510.454 1.2412 0.949946 0
M  V30 5407 H 511.189 0.154133 3.23934 0
M  V30 5408 H 510.974 1.91943 3.41907 0
M  V30 5409 H 512.464 1.13215 4.0196 0
M  V30 5410 N 512.901 -0.976442 1.23707 0
M  V30 5411 C 514.147 -1.72081 1.07312 0
M  V30 5412 C 514.48 -1.90275 -0.388476 0
M  V30 5413 O 513.755 -1.4579 -1.28746 0
M  V30 5414 C 514.038 -3.11675 1.80363 0
M  V30 5415 C 513.891 -3.01027 3.3422 0
M  V30 5416 C 515.21 -4.1117 1.5693 0
M  V30 5417 H 512.329 -0.624583 0.391236 0
M  V30 5418 H 514.971 -1.13649 1.52263 0
M  V30 5419 H 513.121 -3.61559 1.42153 0
M  V30 5420 H 514.793 -2.58637 3.81975 0
M  V30 5421 H 513.036 -2.3744 3.63049 0
M  V30 5422 H 513.707 -3.9988 3.80525 0
M  V30 5423 H 516.183 -3.7011 1.90151 0
M  V30 5424 H 515.059 -5.06928 2.10513 0
M  V30 5425 H 515.32 -4.392 0.505548 0
M  V30 5426 N 514.379 -1.04941 -1.1758 0
M  V30 5427 C 515.327 -0.64204 -2.23563 0
M  V30 5428 C 516.321 0.335453 -1.66045 0
M  V30 5429 O 517.527 0.20179 -1.78865 0
M  V30 5430 H 513.902 -0.18944 -0.727748 0
M  V30 5431 H 515.873 -1.54609 -2.55223 0
M  V30 5432 C 514.622 -0.0301051 -3.47687 0
M  V30 5433 H 513.945 -0.773339 -3.92249 0
M  V30 5434 H 515.385 0.217592 -4.23441 0
M  V30 5435 C 513.844 1.2225 -3.13937 0
M  V30 5436 O 514.374 2.3122 -3.28482 0
M  V30 5437 N 512.58 1.11917 -2.68185 0
M  V30 5438 H 512.127 0.232403 -2.5655 0
M  V30 5439 H 512.085 1.95814 -2.45976 0
M  V30 5440 N 515.857 1.33968 -0.830081 0
M  V30 5441 C 516.79 2.27303 -0.202182 0
M  V30 5442 C 517.768 1.49235 0.645581 0
M  V30 5443 O 518.952 1.78433 0.607762 0
M  V30 5444 C 516.079 3.31025 0.716932 0
M  V30 5445 C 515.125 4.26466 -0.0542271 0
M  V30 5446 S 515.958 5.16707 -1.40622 0
M  V30 5447 C 517.114 6.23962 -0.492167 0
M  V30 5448 H 517.347 2.8021 -0.99346 0
M  V30 5449 H 514.88 1.41124 -0.626359 0
M  V30 5450 H 516.838 3.91271 1.24165 0
M  V30 5451 H 515.499 2.76951 1.4818 0
M  V30 5452 H 514.692 4.99858 0.644785 0
M  V30 5453 H 514.294 3.7051 -0.509722 0
M  V30 5454 H 516.586 6.76774 0.31347 0
M  V30 5455 H 517.529 6.97927 -1.19599 0
M  V30 5456 H 517.937 5.64447 -0.0774176 0
M  V30 5457 N 517.335 0.585699 1.46312 0
M  V30 5458 C 518.581 0.0725284 2.0267 0
M  V30 5459 C 518.914 -1.28523 1.45586 0
M  V30 5460 O 518.189 -1.84283 0.622101 0
M  V30 5461 C 518.472 0.0099788 3.60099 0
M  V30 5462 C 518.325 1.39685 4.27561 0
M  V30 5463 C 519.644 -0.689117 4.34671 0
M  V30 5464 H 516.763 0.0278307 0.736474 0
M  V30 5465 H 519.405 0.753472 1.74421 0
M  V30 5466 H 517.555 -0.56992 3.84297 0
M  V30 5467 H 519.227 2.02215 4.14617 0
M  V30 5468 H 517.47 1.96374 3.86807 0
M  V30 5469 H 518.141 1.30553 5.36339 0
M  V30 5470 H 520.617 -0.196446 4.15636 0
M  V30 5471 H 519.493 -0.701921 5.44393 0
M  V30 5472 H 519.754 -1.75101 4.05946 0
M  V30 5473 N 518.813 -1.54241 0.323641 0
M  V30 5474 C 520.06 -2.0057 -0.27891 0
M  V30 5475 C 520.388 -1.21181 -1.52136 0
M  V30 5476 O 519.643 -0.282043 -1.93657 0
M  V30 5477 C 519.942 -3.5129 -0.658031 0
M  V30 5478 C 519.608 -4.48281 0.485252 0
M  V30 5479 C 518.27 -4.74519 0.799055 0
M  V30 5480 C 520.622 -5.05909 1.25322 0
M  V30 5481 C 517.95 -5.55643 1.88354 0
M  V30 5482 C 520.302 -5.88215 2.32779 0
M  V30 5483 C 518.966 -6.12755 2.64741 0
M  V30 5484 H 518.236 -0.733938 -0.10206 0
M  V30 5485 H 520.883 -1.862 0.447435 0
M  V30 5486 H 519.188 -3.63388 -1.4648 0
M  V30 5487 H 520.885 -3.84578 -1.1358 0
M  V30 5488 H 517.475 -4.27979 0.230593 0
M  V30 5489 H 521.659 -4.8562 1.02404 0
M  V30 5490 H 516.915 -5.72888 2.13564 0
M  V30 5491 H 521.089 -6.31888 2.92729 0
M  V30 5492 H 518.716 -6.75404 3.48904 0
M  V30 5493 N 520.291 -0.0518155 -1.57515 0
M  V30 5494 C 521.519 0.631395 -1.9703 0
M  V30 5495 C 521.934 1.64341 -0.92938 0
M  V30 5496 O 521.291 1.82296 0.0863266 0
M  V30 5497 C 521.342 1.31774 -3.36627 0
M  V30 5498 O 521.063 0.346247 -4.3673 0
M  V30 5499 C 522.564 2.09065 -3.90905 0
M  V30 5500 H 519.784 0.172576 -0.648428 0
M  V30 5501 H 522.328 -0.118306 -2.04158 0
M  V30 5502 H 520.483 2.01867 -3.30649 0
M  V30 5503 H 520.897 0.836226 -5.17791 0
M  V30 5504 H 522.371 2.52508 -4.9086 0
M  V30 5505 H 522.848 2.93908 -3.26366 0
M  V30 5506 H 523.454 1.43882 -4.00223 0
M  V30 5507 N 521.769 1.56035 0.221574 0
M  V30 5508 C 522.732 1.91584 1.2581 0
M  V30 5509 C 523.732 0.794425 1.39805 0
M  V30 5510 O 524.922 1.06217 1.38071 0
M  V30 5511 C 522.054 2.16663 2.63192 0
M  V30 5512 H 523.247 2.8429 0.954935 0
M  V30 5513 H 520.8 1.49316 0.461988 0
M  V30 5514 H 521.535 1.26508 2.98607 0
M  V30 5515 H 521.32 2.98358 2.5441 0
M  V30 5516 H 522.81 2.45262 3.37988 0
M  V30 5517 N 523.247 -0.488276 1.49845 0
M  V30 5518 C 524.493 -1.24341 1.6021 0
M  V30 5519 C 524.826 -1.91967 0.293651 0
M  V30 5520 O 524.101 -1.81323 -0.703718 0
M  V30 5521 C 524.384 -2.3005 2.77036 0
M  V30 5522 C 524.237 -1.66842 4.17713 0
M  V30 5523 C 525.556 -3.31509 2.89464 0
M  V30 5524 H 522.675 -0.450704 0.583125 0
M  V30 5525 H 525.317 -0.539673 1.82174 0
M  V30 5526 H 523.467 -2.90071 2.58439 0
M  V30 5527 H 525.139 -1.1055 4.47858 0
M  V30 5528 H 523.382 -0.972079 4.22768 0
M  V30 5529 H 524.053 -2.43576 4.95353 0
M  V30 5530 H 526.529 -2.81493 3.06433 0
M  V30 5531 H 525.405 -4.02822 3.72861 0
M  V30 5532 H 525.666 -3.94603 1.99351 0
M  V30 5533 N 524.725 -1.39134 -0.740242 0
M  V30 5534 C 525.95 -1.39518 -1.53459 0
M  V30 5535 C 526.375 0.00968883 -1.88098 0
M  V30 5536 O 525.733 0.995312 -1.51536 0
M  V30 5537 C 525.781 -2.26981 -2.802 0
M  V30 5538 O 524.885 -1.69609 -3.75908 0
M  V30 5539 H 524.226 -0.475328 -0.463637 0
M  V30 5540 H 526.756 -1.83064 -0.913717 0
M  V30 5541 H 526.766 -2.41309 -3.28989 0
M  V30 5542 H 525.441 -3.29081 -2.5432 0
M  V30 5543 H 524.018 -1.64495 -3.34658 0
M  V30 5544 N 526.204 0.969867 -1.24223 0
M  V30 5545 C 527.45 1.7151 -1.08223 0
M  V30 5546 C 527.783 1.90478 0.37838 0
M  V30 5547 O 527.058 1.4647 1.27971 0
M  V30 5548 C 527.341 3.10714 -1.82013 0
M  V30 5549 C 527.194 2.9925 -3.35811 0
M  V30 5550 C 528.513 4.10332 -1.59108 0
M  V30 5551 H 525.632 0.622499 -0.394543 0
M  V30 5552 H 528.274 1.1284 -1.52863 0
M  V30 5553 H 526.424 3.608 -1.44068 0
M  V30 5554 H 528.096 2.56608 -3.83341 0
M  V30 5555 H 526.339 2.35512 -3.64303 0
M  V30 5556 H 527.01 3.97857 -3.82641 0
M  V30 5557 H 529.486 3.69097 -1.92111 0
M  V30 5558 H 528.362 5.05804 -2.13198 0
M  V30 5559 H 528.623 4.38926 -0.528832 0
M  V30 5560 N 527.682 1.05563 1.17022 0
M  V30 5561 C 528.929 0.767937 1.87374 0
M  V30 5562 C 529.257 -0.705224 1.81265 0
M  V30 5563 O 528.512 -1.5318 1.21796 0
M  V30 5564 C 528.811 1.19849 3.36706 0
M  V30 5565 C 528.477 2.6745 3.63017 0
M  V30 5566 C 527.139 3.0777 3.69907 0
M  V30 5567 C 529.491 3.62811 3.74189 0
M  V30 5568 C 526.819 4.42307 3.85463 0
M  V30 5569 C 529.171 4.97087 3.91264 0
M  V30 5570 C 527.835 5.37055 3.96394 0
M  V30 5571 H 527.105 0.281008 0.68565 0
M  V30 5572 H 529.752 1.32339 1.38415 0
M  V30 5573 H 528.057 0.562096 3.87747 0
M  V30 5574 H 529.754 0.953038 3.8951 0
M  V30 5575 H 526.344 2.35228 3.58282 0
M  V30 5576 H 530.528 3.32798 3.68183 0
M  V30 5577 H 525.784 4.72769 3.87684 0
M  V30 5578 H 529.958 5.70869 3.9885 0
M  V30 5579 H 527.585 6.41308 4.082 0
M  V30 5580 N 529.16 -1.33526 0.837174 0
M  V30 5581 C 530.09 -2.31764 0.284206 0
M  V30 5582 C 531.071 -1.58896 -0.607142 0
M  V30 5583 O 532.256 -1.86798 -0.531047 0
M  V30 5584 C 529.386 -3.43029 -0.542962 0
M  V30 5585 C 528.34 -4.27255 0.252451 0
M  V30 5586 C 527.666 -5.3012 -0.69836 0
M  V30 5587 C 528.966 -5.01229 1.46858 0
M  V30 5588 H 530.66 -2.78262 1.10502 0
M  V30 5589 H 528.206 -1.3378 0.532812 0
M  V30 5590 H 530.159 -4.1078 -0.940096 0
M  V30 5591 H 528.883 -2.95216 -1.39697 0
M  V30 5592 H 527.542 -3.61127 0.631124 0
M  V30 5593 H 527.19 -4.78564 -1.54872 0
M  V30 5594 H 526.89 -5.87353 -0.170274 0
M  V30 5595 H 528.414 -6.00737 -1.09305 0
M  V30 5596 H 529.828 -5.61756 1.14469 0
M  V30 5597 H 528.225 -5.68104 1.93333 0
M  V30 5598 H 529.295 -4.301 2.23924 0
M  V30 5599 N 530.638 -0.59345 -1.46 0
M  V30 5600 C 531.884 -0.0832754 -2.02629 0
M  V30 5601 C 532.217 1.27749 -1.46266 0
M  V30 5602 O 531.492 1.8395 -0.631866 0
M  V30 5603 C 531.775 -0.0290756 -3.60088 0
M  V30 5604 C 531.628 -1.41951 -4.26814 0
M  V30 5605 C 532.947 0.666055 -4.35031 0
M  V30 5606 H 530.066 -0.031736 -0.736316 0
M  V30 5607 H 532.708 -0.762711 -1.74019 0
M  V30 5608 H 530.858 0.549532 -3.84594 0
M  V30 5609 H 532.53 -2.04411 -4.13538 0
M  V30 5610 H 530.773 -1.98422 -3.8576 0
M  V30 5611 H 531.444 -1.33395 -5.3564 0
M  V30 5612 H 533.92 0.174401 -4.15734 0
M  V30 5613 H 532.796 0.673041 -5.44758 0
M  V30 5614 H 533.057 1.72946 -4.06869 0
M  V30 5615 N 532.116 1.54067 -0.331816 0
M  V30 5616 C 533.026 2.28322 0.539104 0
M  V30 5617 C 534.042 1.32985 1.1221 0
M  V30 5618 O 535.218 1.6601 1.1403 0
M  V30 5619 C 532.283 3.03277 1.68 0
M  V30 5620 C 531.344 4.14216 1.12798 0
M  V30 5621 C 530.577 4.85588 2.2145 0
M  V30 5622 O 530.8 4.56536 3.41952 0
M  V30 5623 O 529.734 5.72309 1.86404 0
M  V30 5624 H 533.56 3.03632 -0.0641692 0
M  V30 5625 H 531.145 1.49083 -0.0972365 0
M  V30 5626 H 533.027 3.50189 2.34405 0
M  V30 5627 H 531.702 2.30834 2.2693 0
M  V30 5628 H 530.609 3.71635 0.428782 0
M  V30 5629 H 531.942 4.88727 0.583698 0
M  V30 5630 N 533.594 0.0601682 1.57485 0
M  V30 5631 C 534.541 -0.91112 2.12055 0
M  V30 5632 C 535.511 -1.30298 1.03013 0
M  V30 5633 O 536.696 -1.39087 1.30612 0
M  V30 5634 C 533.836 -2.1775 2.67729 0
M  V30 5635 C 532.949 -1.83933 3.90887 0
M  V30 5636 C 532.084 -3.05096 4.34845 0
M  V30 5637 C 531.123 -2.67241 5.5068 0
M  V30 5638 N 530.26 -3.81127 5.8965 0
M  V30 5639 H 535.1 -0.43888 2.9475 0
M  V30 5640 H 532.637 -0.204995 1.45665 0
M  V30 5641 H 534.595 -2.91866 2.98111 0
M  V30 5642 H 533.225 -2.62535 1.87816 0
M  V30 5643 H 532.277 -0.999287 3.6704 0
M  V30 5644 H 533.589 -1.52074 4.75052 0
M  V30 5645 H 532.743 -3.87502 4.66827 0
M  V30 5646 H 531.482 -3.40139 3.49509 0
M  V30 5647 H 530.487 -1.83254 5.18361 0
M  V30 5648 H 531.712 -2.3338 6.37738 0
M  V30 5649 H 529.658 -4.15954 5.07266 0
M  V30 5650 H 529.575 -3.52997 6.68528 0
M  V30 5651 H 530.843 -4.64145 6.2625 0
M  V30 5652 N 535.072 -1.5615 -0.213296 0
M  V30 5653 C 536.035 -1.92249 -1.24792 0
M  V30 5654 C 537.035 -0.801828 -1.39382 0
M  V30 5655 O 538.225 -1.06948 -1.37506 0
M  V30 5656 C 535.357 -2.18056 -2.62039 0
M  V30 5657 H 536.55 -2.84793 -0.939845 0
M  V30 5658 H 534.103 -1.49559 -0.454062 0
M  V30 5659 H 534.838 -1.2809 -2.97932 0
M  V30 5660 H 534.623 -2.99703 -2.52825 0
M  V30 5661 H 536.113 -2.47051 -3.36683 0
M  V30 5662 N 536.55 0.480323 -1.50102 0
M  V30 5663 C 537.798 1.23063 -1.60312 0
M  V30 5664 C 538.119 1.92659 -0.301226 0
M  V30 5665 O 537.389 1.83691 0.680753 0
M  V30 5666 H 535.969 0.457231 -0.590719 0
M  V30 5667 H 538.631 0.554893 -1.86834 0
M  V30 5668 H 537.727 1.9835 -2.40964 0
M  V30 5669 N 538.028 1.39524 0.732853 0
M  V30 5670 C 539.444 1.21176 1.03868 0
M  V30 5671 C 539.644 0.0748448 2.01361 0
M  V30 5672 O 538.7 -0.57281 2.45917 0
M  V30 5673 C 540.013 2.54667 1.59892 0
M  V30 5674 C 541.561 2.6153 1.71962 0
M  V30 5675 C 542.036 3.95248 2.31394 0
M  V30 5676 N 543.527 3.96899 2.38801 0
M  V30 5677 C 544.262 4.97138 2.85729 0
M  V30 5678 N 543.758 6.07775 3.32537 0
M  V30 5679 N 545.551 4.84516 2.84957 0
M  V30 5680 H 537.702 2.12225 0.086304 0
M  V30 5681 H 539.965 0.942614 0.100907 0
M  V30 5682 H 539.671 3.38423 0.95721 0
M  V30 5683 H 539.545 2.74538 2.58668 0
M  V30 5684 H 541.932 1.78156 2.35254 0
M  V30 5685 H 542.013 2.45507 0.718327 0
M  V30 5686 H 541.657 4.79054 1.68729 0
M  V30 5687 H 541.587 4.08593 3.32204 0
M  V30 5688 H 544.078 3.16998 2.05719 0
M  V30 5689 H 544.391 6.8017 3.66862 0
M  V30 5690 H 542.736 6.11366 3.30541 0
M  V30 5691 H 545.927 3.97185 2.47713 0
M  V30 5692 H 546.1 5.62783 3.21215 0
M  V30 5693 N 539.506 -0.963266 1.24736 0
M  V30 5694 C 540.922 -1.23273 1.01371 0
M  V30 5695 C 541.122 -1.99618 -0.274776 0
M  V30 5696 O 540.178 -2.32293 -0.989769 0
M  V30 5697 C 541.491 -2.01554 2.23152 0
M  V30 5698 C 543.039 -2.14629 2.27823 0
M  V30 5699 C 543.514 -2.96307 3.49237 0
M  V30 5700 N 545.005 -3.03887 3.49581 0
M  V30 5701 C 545.74 -3.67456 4.40186 0
M  V30 5702 N 545.236 -4.32706 5.41052 0
M  V30 5703 N 547.029 -3.64511 4.27888 0
M  V30 5704 H 539.18 -0.452294 2.07528 0
M  V30 5705 H 541.443 -0.262521 0.910926 0
M  V30 5706 H 541.149 -1.52847 3.1675 0
M  V30 5707 H 541.023 -3.02278 2.25628 0
M  V30 5708 H 543.41 -2.62537 1.34753 0
M  V30 5709 H 543.491 -1.13238 2.2937 0
M  V30 5710 H 543.135 -2.49091 4.42624 0
M  V30 5711 H 543.065 -3.97905 3.44933 0
M  V30 5712 H 545.556 -2.57477 2.76611 0
M  V30 5713 H 545.869 -4.79042 6.06415 0
M  V30 5714 H 544.214 -4.31361 5.44934 0
M  V30 5715 H 547.405 -3.12715 3.4832 0
M  V30 5716 H 547.578 -4.13768 4.98698 0
M  V30 5717 N 540.985 -1.06182 -1.16461 0
M  V30 5718 C 542.21 -0.798599 -1.91408 0
M  V30 5719 C 542.635 0.640987 -1.76842 0
M  V30 5720 O 541.993 1.44652 -1.09296 0
M  V30 5721 C 542.041 -1.19665 -3.40165 0
M  V30 5722 O 541.145 -0.334768 -4.11039 0
M  V30 5723 H 540.486 -0.291961 -0.596368 0
M  V30 5724 H 543.016 -1.41732 -1.47557 0
M  V30 5725 H 543.026 -1.16772 -3.90933 0
M  V30 5726 H 541.701 -2.24526 -3.50087 0
M  V30 5727 H 540.278 -0.425168 -3.70468 0
M  V30 5728 N 542.463 1.3308 -0.844243 0
M  V30 5729 C 543.393 2.3161 -0.296493 0
M  V30 5730 C 544.374 1.59215 0.598707 0
M  V30 5731 O 545.559 1.87077 0.521134 0
M  V30 5732 C 542.689 3.43313 0.524762 0
M  V30 5733 C 541.643 4.27115 -0.275106 0
M  V30 5734 C 540.969 5.30483 0.670236 0
M  V30 5735 C 542.269 5.00443 -1.49514 0
M  V30 5736 H 543.963 2.77672 -1.11976 0
M  V30 5737 H 541.509 1.33496 -0.539899 0
M  V30 5738 H 543.462 4.11273 0.918298 0
M  V30 5739 H 542.186 2.95952 1.3813 0
M  V30 5740 H 540.845 3.60787 -0.650267 0
M  V30 5741 H 540.493 4.79379 1.52332 0
M  V30 5742 H 540.193 5.87435 0.139123 0
M  V30 5743 H 541.717 6.01308 1.06117 0
M  V30 5744 H 543.131 5.61141 -1.17447 0
M  V30 5745 H 541.528 5.67071 -1.96343 0
M  V30 5746 H 542.598 4.28906 -2.26202 0
M  V30 5747 N 543.941 0.601185 1.45683 0
M  V30 5748 C 545.188 0.0938811 2.02282 0
M  V30 5749 C 545.516 -1.27315 1.47041 0
M  V30 5750 O 544.771 -1.85193 0.632623 0
M  V30 5751 C 545.07 -0.00222425 3.574 0
M  V30 5752 C 544.736 1.29963 4.31764 0
M  V30 5753 C 543.398 1.65625 4.51798 0
M  V30 5754 C 545.75 2.1603 4.74321 0
M  V30 5755 C 543.078 2.87119 5.11644 0
M  V30 5756 C 545.43 3.36766 5.3551 0
M  V30 5757 C 544.094 3.72689 5.53768 0
M  V30 5758 H 543.364 0.0343535 0.740203 0
M  V30 5759 H 546.011 0.781522 1.74827 0
M  V30 5760 H 544.316 -0.773096 3.84097 0
M  V30 5761 H 546.013 -0.410794 3.9889 0
M  V30 5762 H 542.603 1.01204 4.1648 0
M  V30 5763 H 546.787 1.89778 4.58582 0
M  V30 5764 H 542.043 3.15065 5.2397 0
M  V30 5765 H 546.217 4.03713 5.67441 0
M  V30 5766 H 543.844 4.66918 5.99909 0
M  V30 5767 N 545.419 -1.53889 0.339982 0
M  V30 5768 C 546.349 -2.27843 -0.510856 0
M  V30 5769 C 547.33 -1.29267 -1.10563 0
M  V30 5770 O 548.515 -1.58104 -1.12768 0
M  V30 5771 C 545.645 -3.04857 -1.66372 0
M  V30 5772 C 544.599 -4.10907 -1.19746 0
M  V30 5773 C 543.925 -4.75855 -2.43857 0
M  V30 5774 C 545.225 -5.21435 -0.300501 0
M  V30 5775 H 546.919 -2.99212 0.106067 0
M  V30 5776 H 544.465 -1.43904 0.0524533 0
M  V30 5777 H 546.418 -3.5533 -2.26537 0
M  V30 5778 H 545.142 -2.31133 -2.30749 0
M  V30 5779 H 543.801 -3.61342 -0.618654 0
M  V30 5780 H 543.449 -3.9873 -3.06633 0
M  V30 5781 H 543.149 -5.47502 -2.13343 0
M  V30 5782 H 544.673 -5.2911 -3.04754 0
M  V30 5783 H 546.087 -5.67565 -0.80889 0
M  V30 5784 H 544.484 -6.00036 -0.0874076 0
M  V30 5785 H 545.554 -4.80328 0.664321 0
M  V30 5786 N 546.897 -0.0685191 -1.57451 0
M  V30 5787 C 548.146 0.600898 -1.92541 0
M  V30 5788 C 548.459 1.70967 -0.950239 0
M  V30 5789 O 549.665 2.43844 -1.19384 0
M  V30 5790 C 548.121 1.12019 -3.42023 0
M  V30 5791 C 547.729 0.0426028 -4.4798 0
M  V30 5792 C 549.473 1.76386 -3.86119 0
M  V30 5793 C 547.38 0.575759 -5.88591 0
M  V30 5794 H 546.31 0.228225 -0.71863 0
M  V30 5795 H 548.961 -0.140223 -1.82963 0
M  V30 5796 H 547.343 1.91418 -3.46663 0
M  V30 5797 H 548.517 -0.73182 -4.54952 0
M  V30 5798 H 546.832 -0.504642 -4.13331 0
M  V30 5799 H 549.429 2.17302 -4.88553 0
M  V30 5800 H 549.772 2.62255 -3.23308 0
M  V30 5801 H 550.305 1.03615 -3.84069 0
M  V30 5802 H 547.044 -0.245691 -6.55039 0
M  V30 5803 H 546.564 1.31778 -5.85145 0
M  V30 5804 H 548.243 1.0532 -6.3837 0
M  V30 5805 N 548.375 1.56261 0.205012 0
M  V30 5806 C 549.623 1.79684 0.925096 0
M  V30 5807 C 549.944 0.63989 1.84202 0
M  V30 5808 O 549.214 -0.342345 1.92885 0
M  V30 5809 H 547.794 0.662774 0.344587 0
M  V30 5810 H 550.456 1.93734 0.212899 0
M  V30 5811 H 549.552 2.72467 1.52211 0
M  V30 5812 N 549.853 -0.472356 1.50355 0
M  V30 5813 C 550.786 -1.58923 1.63764 0
M  V30 5814 C 551.764 -1.55173 0.485793 0
M  V30 5815 O 552.948 -1.74815 0.705132 0
M  V30 5816 C 550.075 -2.97497 1.61905 0
M  V30 5817 C 549.121 -3.19405 2.82635 0
M  V30 5818 S 549.954 -2.99441 4.43954 0
M  V30 5819 C 551.11 -4.40359 4.44786 0
M  V30 5820 H 551.343 -1.47309 2.58239 0
M  V30 5821 H 548.876 -0.659601 1.39602 0
M  V30 5822 H 550.834 -3.77389 1.61518 0
M  V30 5823 H 549.495 -3.06502 0.686683 0
M  V30 5824 H 548.688 -4.20636 2.77636 0
M  V30 5825 H 548.29 -2.47283 2.80583 0
M  V30 5826 H 550.582 -5.32969 4.1827 0
M  V30 5827 H 551.525 -4.50403 5.46391 0
M  V30 5828 H 551.933 -4.22378 3.74509 0
M  V30 5829 N 551.331 -1.39911 -0.725443 0
M  V30 5830 C 552.556 -1.41137 -1.5197 0
M  V30 5831 C 552.981 -0.010262 -1.88097 0
M  V30 5832 O 552.339 0.979184 -1.52583 0
M  V30 5833 C 552.387 -2.2994 -2.77777 0
M  V30 5834 O 551.491 -1.73586 -3.74088 0
M  V30 5835 H 550.832 -0.480219 -0.458569 0
M  V30 5836 H 553.362 -1.84023 -0.894249 0
M  V30 5837 H 553.372 -2.44785 -3.26411 0
M  V30 5838 H 552.047 -3.31759 -2.50816 0
M  V30 5839 H 550.624 -1.68035 -3.32894 0
M  V30 5840 N 552.809 0.956637 -1.25245 0
M  V30 5841 C 554.057 1.69764 -1.09657 0
M  V30 5842 C 554.378 1.91583 0.363464 0
M  V30 5843 O 553.648 1.50149 1.25825 0
M  V30 5844 H 552.228 0.629097 -0.402798 0
M  V30 5845 H 554.89 1.15026 -1.57337 0
M  V30 5846 H 553.986 2.67769 -1.60331 0
M  V30 5847 N 554.287 1.06798 1.15896 0
M  V30 5848 C 555.22 0.627503 2.19403 0
M  V30 5849 C 556.198 -0.352352 1.58736 0
M  V30 5850 O 557.382 -0.260111 1.86697 0
M  V30 5851 C 554.509 -0.079356 3.38607 0
M  V30 5852 C 553.555 0.858057 4.17779 0
M  V30 5853 S 554.388 2.35605 4.80885 0
M  V30 5854 C 555.544 1.66083 6.03463 0
M  V30 5855 H 555.777 1.50441 2.56427 0
M  V30 5856 H 553.31 0.881427 1.26768 0
M  V30 5857 H 555.268 -0.48095 4.07673 0
M  V30 5858 H 553.929 -0.932524 2.99938 0
M  V30 5859 H 553.122 0.310108 5.03045 0
M  V30 5860 H 552.724 1.19977 3.54234 0
M  V30 5861 H 555.016 0.969337 6.7053 0
M  V30 5862 H 555.959 2.49159 6.62816 0
M  V30 5863 H 556.367 1.14122 5.52844 0
M  V30 5864 N 555.766 -1.3263 0.851289 0
M  V30 5865 C 557.013 -1.97368 0.453023 0
M  V30 5866 C 557.341 -1.67384 -0.990596 0
M  V30 5867 O 556.596 -0.952665 -1.70947 0
M  V30 5868 C 556.895 -3.51713 0.635015 0
M  V30 5869 C 556.561 -4.01676 2.04859 0
M  V30 5870 C 555.223 -4.15031 2.43522 0
M  V30 5871 C 557.575 -4.28206 2.97135 0
M  V30 5872 C 554.903 -4.52257 3.73739 0
M  V30 5873 C 557.255 -4.66889 4.26846 0
M  V30 5874 C 555.919 -4.7845 4.65448 0
M  V30 5875 H 555.189 -0.722219 0.165773 0
M  V30 5876 H 557.836 -1.58092 1.0807 0
M  V30 5877 H 556.141 -3.91726 -0.0759081 0
M  V30 5878 H 557.838 -3.99823 0.306964 0
M  V30 5879 H 554.428 -3.91764 1.73836 0
M  V30 5880 H 558.612 -4.174 2.68498 0
M  V30 5881 H 553.868 -4.59402 4.03435 0
M  V30 5882 H 558.042 -4.86372 4.98413 0
M  V30 5883 H 555.669 -5.07052 5.66395 0
M  V30 5884 N 557.244 -0.608902 -1.45362 0
M  V30 5885 C 558.49 -0.104762 -2.02529 0
M  V30 5886 C 558.823 1.26191 -1.47613 0
M  V30 5887 O 558.098 1.8327 -0.65134 0
M  V30 5888 C 558.381 -0.0672661 -3.60037 0
M  V30 5889 C 558.234 -1.4647 -4.25284 0
M  V30 5890 C 559.553 0.619877 -4.35713 0
M  V30 5891 H 556.672 -0.0395438 -0.735938 0
M  V30 5892 H 559.314 -0.781126 -1.73201 0
M  V30 5893 H 557.464 0.50871 -3.85155 0
M  V30 5894 H 559.136 -2.08785 -4.11347 0
M  V30 5895 H 557.379 -2.02502 -3.83634 0
M  V30 5896 H 558.05 -1.39069 -5.34195 0
M  V30 5897 H 560.526 0.130297 -4.15896 0
M  V30 5898 H 559.402 0.615224 -5.45441 0
M  V30 5899 H 559.663 1.68621 -4.0868 0
M  V30 5900 N 558.722 1.53707 -0.348139 0
M  V30 5901 C 559.962 2.02899 0.247254 0
M  V30 5902 C 560.326 1.23033 1.47401 0
M  V30 5903 O 561.527 1.62146 2.14388 0
M  V30 5904 C 559.798 3.53156 0.549151 0
M  V30 5905 S 561.357 4.24247 1.1207 0
M  V30 5906 H 558.175 0.707213 0.0732894 0
M  V30 5907 H 560.777 1.89338 -0.486965 0
M  V30 5908 H 559.481 4.08893 -0.351435 0
M  V30 5909 H 559.012 3.70845 1.31291 0
M  V30 5910 H 561.027 4.33958 2.40613 0
M  V30 5911 N 560.2 0.0768682 1.57412 0
M  V30 5912 C 561.163 -0.873949 2.11884 0
M  V30 5913 C 562.163 -1.22301 1.04398 0
M  V30 5914 O 563.353 -1.15545 1.30365 0
M  V30 5915 C 560.485 -2.17575 2.62438 0
M  V30 5916 H 561.678 -0.401278 2.97203 0
M  V30 5917 H 559.231 -0.171904 1.55352 0
M  V30 5918 H 559.966 -2.69368 1.80587 0
M  V30 5919 H 559.751 -1.93534 3.41009 0
M  V30 5920 H 561.241 -2.85631 3.04639 0
M  V30 5921 N 561.678 -1.56367 -0.196722 0
M  V30 5922 C 562.927 -1.79724 -0.915539 0
M  V30 5923 C 563.24 -0.649804 -1.84491 0
M  V30 5924 O 564.446 -0.767631 -2.60422 0
M  V30 5925 C 562.902 -3.18369 -1.67836 0
M  V30 5926 C 562.51 -4.4091 -0.793897 0
M  V30 5927 C 564.254 -3.51037 -2.38691 0
M  V30 5928 C 562.161 -5.70577 -1.55549 0
M  V30 5929 H 561.091 -0.67013 -0.345604 0
M  V30 5930 H 563.742 -1.82721 -0.168856 0
M  V30 5931 H 562.124 -3.09617 -2.46887 0
M  V30 5932 H 563.298 -4.60781 -0.042163 0
M  V30 5933 H 561.613 -4.15937 -0.19626 0
M  V30 5934 H 564.21 -4.4515 -2.96219 0
M  V30 5935 H 564.553 -2.74704 -3.12799 0
M  V30 5936 H 565.086 -3.61229 -1.66608 0
M  V30 5937 H 561.825 -6.49871 -0.857226 0
M  V30 5938 H 561.345 -5.54726 -2.2812 0
M  V30 5939 H 563.024 -6.11637 -2.10971 0
M  V30 5940 N 563.156 0.464375 -1.50603 0
M  V30 5941 C 564.403 1.21596 -1.61928 0
M  V30 5942 C 564.731 1.91804 -0.322737 0
M  V30 5943 O 563.986 1.83065 0.691776 0
M  V30 5944 C 564.285 2.278 -2.75394 0
M  V30 5945 C 563.951 1.74797 -4.1564 0
M  V30 5946 C 562.613 1.60063 -4.53799 0
M  V30 5947 C 564.965 1.35548 -5.03266 0
M  V30 5948 C 562.293 1.04514 -5.77316 0
M  V30 5949 C 564.645 0.814381 -6.27336 0
M  V30 5950 C 563.309 0.653726 -6.64291 0
M  V30 5951 H 562.579 0.444951 -0.592536 0
M  V30 5952 H 565.226 0.510964 -1.84557 0
M  V30 5953 H 563.531 3.04233 -2.46879 0
M  V30 5954 H 565.228 2.85723 -2.81359 0
M  V30 5955 H 561.818 1.87234 -3.8554 0
M  V30 5956 H 566.002 1.45763 -4.74412 0
M  V30 5957 H 561.258 0.908186 -6.04617 0
M  V30 5958 H 565.432 0.501626 -6.94591 0
M  V30 5959 H 563.059 0.22114 -7.59878 0
M  V30 5960 N 564.634 1.40294 0.718013 0
M  V30 5961 C 565.567 1.34767 1.84155 0
M  V30 5962 C 566.545 0.218455 1.61126 0
M  V30 5963 O 567.729 0.401716 1.8417 0
M  V30 5964 C 564.856 1.09676 3.20451 0
M  V30 5965 C 563.902 2.25016 3.62312 0
M  V30 5966 S 564.735 3.87397 3.69707 0
M  V30 5967 C 565.891 3.64565 5.08766 0
M  V30 5968 H 566.124 2.29851 1.88562 0
M  V30 5969 H 563.657 1.2655 0.884555 0
M  V30 5970 H 565.615 0.95885 3.99144 0
M  V30 5971 H 564.276 0.162502 3.13679 0
M  V30 5972 H 563.469 2.03097 4.61268 0
M  V30 5973 H 563.071 2.35098 2.90869 0
M  V30 5974 H 565.363 3.22882 5.95612 0
M  V30 5975 H 566.306 4.63043 5.35721 0
M  V30 5976 H 566.714 2.98303 4.79245 0
M  V30 5977 N 566.112 -0.949982 1.2575 0
M  V30 5978 C 567.337 -1.73503 1.13628 0
M  V30 5979 C 567.762 -1.85601 -0.30559 0
M  V30 5980 O 567.12 -1.33984 -1.22139 0
M  V30 5981 C 567.168 -3.1243 1.80055 0
M  V30 5982 O 566.272 -3.97916 1.08336 0
M  V30 5983 H 565.613 -0.532665 0.396439 0
M  V30 5984 H 568.143 -1.19043 1.66403 0
M  V30 5985 H 568.153 -3.62866 1.86527 0
M  V30 5986 H 566.828 -3.02941 2.84956 0
M  V30 5987 H 565.405 -3.56375 1.09777 0
M  V30 5988 N 567.59 -1.07411 -1.15328 0
M  V30 5989 C 568.836 -0.798831 -1.86404 0
M  V30 5990 C 569.169 0.673433 -1.8215 0
M  V30 5991 O 568.444 1.49428 -1.24505 0
M  V30 5992 C 568.727 -1.30846 -3.35487 0
M  V30 5993 C 568.58 -2.84532 -3.4837 0
M  V30 5994 C 569.899 -0.925486 -4.30259 0
M  V30 5995 H 567.018 -0.291659 -0.676834 0
M  V30 5996 H 569.66 -1.332 -1.35491 0
M  V30 5997 H 567.81 -0.854916 -3.78977 0
M  V30 5998 H 569.482 -3.3818 -3.13739 0
M  V30 5999 H 567.725 -3.22699 -2.8991 0
M  V30 6000 H 568.396 -3.15259 -4.53118 0
M  V30 6001 H 570.872 -1.3163 -3.94731 0
M  V30 6002 H 569.748 -1.3094 -5.33053 0
M  V30 6003 H 570.009 0.168525 -4.41779 0
M  V30 6004 N 569.068 1.32177 -0.85831 0
M  V30 6005 C 570.316 1.96735 -0.462568 0
M  V30 6006 C 570.637 1.6824 0.985911 0
M  V30 6007 O 569.907 0.991564 1.68952 0
M  V30 6008 H 568.487 0.727849 -0.168064 0
M  V30 6009 H 571.149 1.61195 -1.09554 0
M  V30 6010 H 570.245 3.06068 -0.610647 0
M  V30 6011 N 570.547 0.616602 1.45037 0
M  V30 6012 C 571.477 -0.0840787 2.33349 0
M  V30 6013 C 572.458 -0.849641 1.4736 0
M  V30 6014 O 573.643 -0.818407 1.76113 0
M  V30 6015 C 570.773 -1.07604 3.3021 0
M  V30 6016 C 569.727 -0.423096 4.25904 0
M  V30 6017 C 569.053 -1.52394 5.12523 0
M  V30 6018 C 570.353 0.661457 5.18095 0
M  V30 6019 H 572.047 0.653333 2.92185 0
M  V30 6020 H 569.593 0.315634 1.40498 0
M  V30 6021 H 571.546 -1.57485 3.90866 0
M  V30 6022 H 570.27 -1.84416 2.69552 0
M  V30 6023 H 568.929 0.05493 3.66559 0
M  V30 6024 H 568.577 -2.28257 4.48227 0
M  V30 6025 H 568.277 -1.09251 5.77354 0
M  V30 6026 H 569.801 -2.02485 5.76049 0
M  V30 6027 H 571.215 0.246353 5.7277 0
M  V30 6028 H 569.612 1.01517 5.91451 0
M  V30 6029 H 570.682 1.53446 4.59981 0
M  V30 6030 N 572.025 -1.5352 0.356285 0
M  V30 6031 C 573.271 -2.01414 -0.236653 0
M  V30 6032 C 573.604 -1.24339 -1.49176 0
M  V30 6033 O 572.879 -0.334496 -1.91602 0
M  V30 6034 C 573.162 -3.56059 -0.537982 0
M  V30 6035 C 573.015 -4.43835 0.730112 0
M  V30 6036 C 574.334 -4.19127 -1.34239 0
M  V30 6037 H 571.453 -0.732135 -0.0845386 0
M  V30 6038 H 574.095 -1.83854 0.479341 0
M  V30 6039 H 572.245 -3.71153 -1.14795 0
M  V30 6040 H 573.917 -4.40555 1.36782 0
M  V30 6041 H 572.16 -4.1218 1.3524 0
M  V30 6042 H 572.831 -5.49958 0.474358 0
M  V30 6043 H 575.307 -4.07809 -0.826498 0
M  V30 6044 H 574.183 -5.27378 -1.52198 0
M  V30 6045 H 574.444 -3.74581 -2.34822 0
M  V30 6046 N 573.503 -0.0852151 -1.57369 0
M  V30 6047 C 574.433 0.874556 -2.16503 0
M  V30 6048 C 575.414 1.30111 -1.09568 0
M  V30 6049 O 576.599 1.36977 -1.37662 0
M  V30 6050 C 573.729 2.13731 -2.73745 0
M  V30 6051 C 572.683 1.84971 -3.85966 0
M  V30 6052 C 572.009 3.17991 -4.29867 0
M  V30 6053 C 573.309 1.14442 -5.09608 0
M  V30 6054 H 575.003 0.381899 -2.96954 0
M  V30 6055 H 572.549 0.18225 -1.42842 0
M  V30 6056 H 574.502 2.81302 -3.13763 0
M  V30 6057 H 573.226 2.65263 -1.90534 0
M  V30 6058 H 571.885 1.19801 -3.46473 0
M  V30 6059 H 571.533 3.6739 -3.4356 0
M  V30 6060 H 571.233 2.99534 -5.05523 0
M  V30 6061 H 572.757 3.86737 -4.72511 0
M  V30 6062 H 574.171 1.72105 -5.46857 0
M  V30 6063 H 572.568 1.06197 -5.90629 0
M  V30 6064 H 573.638 0.12559 -4.84737 0
M  V30 6065 N 574.981 1.5647 0.188427 0
M  V30 6066 C 575.911 1.98101 1.23606 0
M  V30 6067 C 576.892 0.853961 1.47111 0
M  V30 6068 O 578.077 1.11879 1.58735 0
M  V30 6069 C 575.207 2.32624 2.57882 0
M  V30 6070 C 574.161 3.48129 2.48978 0
M  V30 6071 C 573.487 3.68347 3.87588 0
M  V30 6072 C 574.787 4.82112 2.00911 0
M  V30 6073 H 576.481 2.85864 0.890068 0
M  V30 6074 H 574.027 1.37532 0.426714 0
M  V30 6075 H 575.98 2.60343 3.3136 0
M  V30 6076 H 574.704 1.41751 2.94235 0
M  V30 6077 H 573.363 3.20511 1.77956 0
M  V30 6078 H 573.011 2.74793 4.21305 0
M  V30 6079 H 572.711 4.46055 3.82503 0
M  V30 6080 H 574.235 3.98449 4.62678 0
M  V30 6081 H 575.649 5.08819 2.64151 0
M  V30 6082 H 574.046 5.63337 2.06814 0
M  V30 6083 H 575.116 4.75249 0.96262 0
M  V30 6084 N 576.459 -0.456382 1.50847 0
M  V30 6085 C 577.407 -1.57318 1.71329 0
M  V30 6086 C 578.401 -1.59187 0.579287 0
M  V30 6087 O 579.607 -1.6316 0.76018 0
M  V30 6088 H 575.982 -0.5223 0.541024 0
M  V30 6089 H 577.953 -1.3721 2.64983 0
M  V30 6090 C 576.702 -2.95142 1.83811 0
M  V30 6091 H 576.025 -2.94428 2.70467 0
M  V30 6092 H 577.465 -3.72702 2.02161 0
M  V30 6093 C 575.924 -3.31636 0.593224 0
M  V30 6094 O 576.454 -4.00852 -0.260898 0
M  V30 6095 N 574.66 -2.87205 0.442902 0
M  V30 6096 H 574.207 -2.31051 1.13901 0
M  V30 6097 H 574.165 -3.11986 -0.38884 0
M  V30 6098 N 577.937 -1.40673 -0.710563 0
M  V30 6099 C 578.884 -1.41336 -1.82463 0
M  V30 6100 C 579.854 -0.269648 -1.63897 0
M  V30 6101 O 581.039 -0.468463 -1.8496 0
M  V30 6102 C 578.179 -1.28665 -3.20218 0
M  V30 6103 C 577.292 -2.52784 -3.5032 0
M  V30 6104 C 576.427 -2.32517 -4.77608 0
M  V30 6105 C 575.466 -3.52187 -5.0063 0
M  V30 6106 N 574.603 -3.31084 -6.19135 0
M  V30 6107 H 579.443 -2.36558 -1.8123 0
M  V30 6108 H 576.98 -1.17483 -0.885226 0
M  V30 6109 H 578.938 -1.19324 -3.99772 0
M  V30 6110 H 577.568 -0.370602 -3.20666 0
M  V30 6111 H 576.62 -2.72634 -2.65283 0
M  V30 6112 H 577.932 -3.41845 -3.63241 0
M  V30 6113 H 577.086 -2.20558 -5.65189 0
M  V30 6114 H 575.825 -1.40889 -4.66906 0
M  V30 6115 H 574.83 -3.64617 -4.11502 0
M  V30 6116 H 576.055 -4.44749 -5.13201 0
M  V30 6117 H 574.001 -2.42143 -6.09674 0
M  V30 6118 H 573.918 -4.13713 -6.32754 0
M  V30 6119 H 575.186 -3.22868 -7.0949 0
M  V30 6120 N 579.415 0.9433 -1.26252 0
M  V30 6121 C 580.662 1.68925 -1.11672 0
M  V30 6122 C 580.99 1.91499 0.340329 0
M  V30 6123 O 580.245 1.49189 1.26653 0
M  V30 6124 C 580.544 3.07073 -1.82868 0
M  V30 6125 C 580.21 3.04262 -3.32769 0
M  V30 6126 C 578.872 3.03203 -3.7366 0
M  V30 6127 C 581.224 2.96729 -4.28487 0
M  V30 6128 C 578.552 2.92373 -5.0866 0
M  V30 6129 C 580.904 2.87442 -5.63525 0
M  V30 6130 C 579.568 2.84724 -6.03729 0
M  V30 6131 H 578.838 0.618141 -0.408635 0
M  V30 6132 H 581.485 1.10124 -1.56668 0
M  V30 6133 H 579.79 3.69486 -1.30335 0
M  V30 6134 H 581.487 3.63635 -1.69029 0
M  V30 6135 H 578.077 3.05865 -3.00241 0
M  V30 6136 H 582.261 2.96658 -3.97879 0
M  V30 6137 H 577.517 2.88645 -5.38975 0
M  V30 6138 H 581.691 2.80576 -6.37377 0
M  V30 6139 H 579.318 2.76089 -7.08293 0
M  V30 6140 N 580.893 1.08022 1.14757 0
M  V30 6141 C 582.118 0.82895 1.90114 0
M  V30 6142 C 582.543 -0.612772 1.77839 0
M  V30 6143 O 581.901 -1.42895 1.11583 0
M  V30 6144 C 581.949 1.25062 3.38219 0
M  V30 6145 O 581.053 0.400119 4.10454 0
M  V30 6146 H 580.394 0.301412 0.591648 0
M  V30 6147 H 582.924 1.44062 1.45284 0
M  V30 6148 H 582.934 1.22977 3.89025 0
M  V30 6149 H 581.609 2.30067 3.46471 0
M  V30 6150 H 580.186 0.484052 3.69745 0
M  V30 6151 N 582.371 -1.3172 0.865308 0
M  V30 6152 C 583.617 -1.97559 0.483944 0
M  V30 6153 C 583.972 -1.67181 -0.95227 0
M  V30 6154 O 583.265 -0.955392 -1.66081 0
M  V30 6155 C 583.459 -3.5102 0.672283 0
M  V30 6156 C 583.288 -3.96312 2.12525 0
M  V30 6157 C 582.058 -4.22877 2.76591 0
M  V30 6158 C 584.256 -4.10596 3.09702 0
M  V30 6159 N 582.238 -4.5449 4.12689 0
M  V30 6160 C 583.609 -4.45867 4.30816 0
M  V30 6161 C 585.664 -3.92961 3.05755 0
M  V30 6162 C 584.367 -4.65344 5.48495 0
M  V30 6163 C 586.393 -4.13628 4.22688 0
M  V30 6164 C 585.755 -4.49227 5.42563 0
M  V30 6165 H 581.854 -0.74862 0.226035 0
M  V30 6166 H 584.438 -1.59336 1.11893 0
M  V30 6167 H 582.609 -3.88342 0.0669224 0
M  V30 6168 H 584.341 -4.03865 0.259765 0
M  V30 6169 H 581.096 -4.15343 2.27567 0
M  V30 6170 H 581.52 -4.74464 4.82921 0
M  V30 6171 H 586.162 -3.64531 2.14188 0
M  V30 6172 H 583.88 -4.92624 6.40584 0
M  V30 6173 H 587.466 -4.01474 4.21082 0
M  V30 6174 H 586.346 -4.64895 6.31539 0
M  V30 6175 N 583.85 -0.624285 -1.44708 0
M  V30 6176 C 584.783 0.133905 -2.27807 0
M  V30 6177 C 585.76 0.857794 -1.38133 0
M  V30 6178 O 586.945 0.863277 -1.6757 0
M  V30 6179 C 584.072 1.19541 -3.16903 0
M  V30 6180 C 583.118 0.572813 -4.22636 0
M  V30 6181 S 583.951 -0.631953 -5.31758 0
M  V30 6182 C 585.106 0.429733 -6.24423 0
M  V30 6183 H 585.34 -0.571072 -2.91764 0
M  V30 6184 H 582.873 -0.412261 -1.48794 0
M  V30 6185 H 584.831 1.80293 -3.68788 0
M  V30 6186 H 583.492 1.87255 -2.5218 0
M  V30 6187 H 582.685 1.37205 -4.84965 0
M  V30 6188 H 582.287 0.0400641 -3.73979 0
M  V30 6189 H 584.579 1.30421 -6.64828 0
M  V30 6190 H 585.522 -0.157804 -7.07924 0
M  V30 6191 H 585.93 0.75256 -5.59461 0
M  V30 6192 N 585.328 1.53329 -0.364422 0
M  V30 6193 C 586.553 2.06132 0.229033 0
M  V30 6194 C 586.978 1.23625 1.41769 0
M  V30 6195 O 586.336 0.255038 1.79497 0
M  V30 6196 C 586.384 3.55544 0.60174 0
M  V30 6197 O 585.488 3.75771 1.69912 0
M  V30 6198 H 584.829 0.663148 0.0336213 0
M  V30 6199 H 587.359 1.97758 -0.524689 0
M  V30 6200 H 587.369 3.98549 0.873073 0
M  V30 6201 H 586.044 4.15039 -0.267421 0
M  V30 6202 H 584.621 3.44663 1.42343 0
M  V30 6203 N 586.806 0.0935595 1.57322 0
M  V30 6204 C 588.036 -0.578095 1.98347 0
M  V30 6205 C 588.444 -1.62357 0.971441 0
M  V30 6206 O 587.787 -1.83639 -0.0473959 0
M  V30 6207 C 587.849 -1.28525 3.3574 0
M  V30 6208 C 587.513 -0.390714 4.55327 0
M  V30 6209 C 588.51 0.360522 5.18648 0
M  V30 6210 C 586.195 -0.309221 5.01347 0
M  V30 6211 C 588.189 1.18125 6.26359 0
M  V30 6212 C 585.876 0.515157 6.08925 0
M  V30 6213 C 586.874 1.25904 6.71295 0
M  V30 6214 O 586.562 2.06978 7.76798 0
M  V30 6215 H 586.294 -0.159767 0.656849 0
M  V30 6216 H 588.848 0.169058 2.04703 0
M  V30 6217 H 587.078 -2.07894 3.26063 0
M  V30 6218 H 588.767 -1.85128 3.61223 0
M  V30 6219 H 589.533 0.307285 4.84026 0
M  V30 6220 H 585.412 -0.877881 4.52564 0
M  V30 6221 H 588.956 1.76236 6.74971 0
M  V30 6222 H 584.853 0.56988 6.42979 0
M  V30 6223 H 585.621 1.99644 7.93779 0
M  V30 6224 N 588.284 -1.56567 -0.180126 0
M  V30 6225 C 589.53 -1.81761 -0.899497 0
M  V30 6226 C 589.863 -0.670015 -1.82276 0
M  V30 6227 O 589.138 0.328575 -1.91705 0
M  V30 6228 C 589.421 -3.17296 -1.7028 0
M  V30 6229 C 589.274 -4.4257 -0.803255 0
M  V30 6230 C 590.593 -3.49678 -2.67233 0
M  V30 6231 H 587.712 -0.661192 -0.325567 0
M  V30 6232 H 590.354 -1.89272 -0.16612 0
M  V30 6233 H 588.504 -3.11023 -2.32802 0
M  V30 6234 H 590.176 -4.60902 -0.191585 0
M  V30 6235 H 588.419 -4.33658 -0.110796 0
M  V30 6236 H 589.09 -5.33935 -1.40064 0
M  V30 6237 H 591.566 -3.56347 -2.14839 0
M  V30 6238 H 590.442 -4.45605 -3.20511 0
M  V30 6239 H 590.703 -2.73932 -3.47007 0
M  V30 6240 N 589.762 0.448376 -1.51087 0
M  V30 6241 C 590.987 1.22605 -1.6728 0
M  V30 6242 C 591.412 1.84524 -0.365045 0
M  V30 6243 O 590.77 1.6832 0.673642 0
M  V30 6244 C 590.818 2.29393 -2.78229 0
M  V30 6245 O 589.922 3.34608 -2.41063 0
M  V30 6246 H 589.263 0.359705 -0.558129 0
M  V30 6247 H 591.793 0.530903 -1.97592 0
M  V30 6248 H 591.803 2.74352 -3.01986 0
M  V30 6249 H 590.478 1.83701 -3.73131 0
M  V30 6250 H 589.055 2.95202 -2.27838 0
M  V30 6251 N 591.24 1.41047 0.703093 0
M  V30 6252 C 592.173 1.36713 1.82715 0
M  V30 6253 C 593.151 0.235533 1.60885 0
M  V30 6254 O 594.335 0.421227 1.83733 0
M  V30 6255 C 591.462 1.13069 3.1927 0
M  V30 6256 C 590.508 2.28846 3.59905 0
M  V30 6257 S 591.341 3.91297 3.65578 0
M  V30 6258 C 592.497 3.69941 5.04871 0
M  V30 6259 H 592.73 2.31838 1.86114 0
M  V30 6260 H 590.263 1.27481 0.871083 0
M  V30 6261 H 592.221 1.00113 3.98105 0
M  V30 6262 H 590.882 0.195763 3.13489 0
M  V30 6263 H 590.075 2.07977 4.59088 0
M  V30 6264 H 589.677 2.3817 2.88359 0
M  V30 6265 H 591.969 3.29181 5.92154 0
M  V30 6266 H 592.912 4.68699 5.30779 0
M  V30 6267 H 593.32 3.03369 4.76054 0
M  V30 6268 N 592.718 -0.936591 1.26751 0
M  V30 6269 C 593.967 -1.67778 1.11953 0
M  V30 6270 C 594.28 -1.92694 -0.33589 0
M  V30 6271 O 595.486 -2.64682 -0.604618 0
M  V30 6272 C 593.942 -3.02138 1.95551 0
M  V30 6273 C 593.55 -2.84953 3.45696 0
M  V30 6274 C 595.294 -3.79917 1.89377 0
M  V30 6275 C 593.201 -4.14814 4.21525 0
M  V30 6276 H 592.131 -0.629275 0.415366 0
M  V30 6277 H 594.782 -1.04122 1.51099 0
M  V30 6278 H 593.164 -3.668 1.49243 0
M  V30 6279 H 594.338 -2.29112 3.99805 0
M  V30 6280 H 592.653 -2.20612 3.53156 0
M  V30 6281 H 595.25 -4.76134 2.43312 0
M  V30 6282 H 595.593 -4.07204 0.865464 0
M  V30 6283 H 596.126 -3.22037 2.33532 0
M  V30 6284 H 592.865 -3.92709 5.24843 0
M  V30 6285 H 592.385 -4.70352 3.72195 0
M  V30 6286 H 594.064 -4.83239 4.3022 0
M  V30 6287 N 594.196 -1.08629 -1.14182 0
M  V30 6288 C 595.159 -0.722027 -2.1753 0
M  V30 6289 C 596.159 0.244305 -1.58933 0
M  V30 6290 O 597.349 0.0235545 -1.74184 0
M  V30 6291 C 594.481 -0.0663966 -3.40835 0
M  V30 6292 H 595.674 -1.63719 -2.51269 0
M  V30 6293 H 593.227 -0.884442 -1.28869 0
M  V30 6294 H 593.962 0.860389 -3.12678 0
M  V30 6295 H 593.747 -0.761598 -3.84632 0
M  V30 6296 H 595.237 0.173346 -4.1724 0
M  V30 6297 N 595.674 1.31259 -0.872281 0
M  V30 6298 C 596.923 1.95893 -0.480493 0
M  V30 6299 C 597.236 1.697 0.972688 0
M  V30 6300 O 598.442 2.28214 1.47073 0
M  V30 6301 C 596.898 3.50705 -0.808342 0
M  V30 6302 C 596.506 3.85735 -2.27844 0
M  V30 6303 C 598.25 4.21719 -0.485136 0
M  V30 6304 C 596.157 5.33668 -2.54858 0
M  V30 6305 H 595.087 0.733182 -0.175955 0
M  V30 6306 H 597.738 1.49396 -1.0655 0
M  V30 6307 H 596.12 3.95706 -0.152558 0
M  V30 6308 H 597.294 3.51686 -2.97748 0
M  V30 6309 H 595.609 3.27792 -2.56791 0
M  V30 6310 H 598.206 5.30559 -0.664166 0
M  V30 6311 H 598.549 4.12316 0.574592 0
M  V30 6312 H 599.082 3.82359 -1.09756 0
M  V30 6313 H 595.821 5.48109 -3.59523 0
M  V30 6314 H 595.341 5.69061 -1.8955 0
M  V30 6315 H 597.02 6.00958 -2.39706 0
M  V30 6316 N 597.152 0.631951 1.44375 0
M  V30 6317 C 598.399 0.136767 2.02038 0
M  V30 6318 C 598.727 -1.24168 1.49709 0
M  V30 6319 O 597.982 -1.83809 0.671763 0
M  V30 6320 C 598.281 0.0735861 3.57324 0
M  V30 6321 C 597.947 1.39092 4.28911 0
M  V30 6322 C 596.609 1.75171 4.48184 0
M  V30 6323 C 598.961 2.26042 4.69632 0
M  V30 6324 C 596.289 2.97907 5.05439 0
M  V30 6325 C 598.641 3.4805 5.28246 0
M  V30 6326 C 597.305 3.84351 5.45738 0
M  V30 6327 H 596.575 0.0500466 0.739308 0
M  V30 6328 H 599.222 0.818429 1.7313 0
M  V30 6329 H 597.527 -0.691449 3.8565 0
M  V30 6330 H 599.224 -0.326091 3.99672 0
M  V30 6331 H 595.814 1.10015 4.1424 0
M  V30 6332 H 599.998 1.99463 4.54454 0
M  V30 6333 H 595.254 3.26108 5.17169 0
M  V30 6334 H 599.428 4.15658 5.5875 0
M  V30 6335 H 597.055 4.79538 5.8987 0
M  V30 6336 N 598.631 -1.53133 0.372548 0
M  V30 6337 C 599.561 -2.28876 -0.462412 0
M  V30 6338 C 600.542 -1.31583 -1.07796 0
M  V30 6339 O 601.727 -1.60461 -1.09389 0
M  V30 6340 C 598.857 -3.08317 -1.59868 0
M  V30 6341 C 597.811 -4.13355 -1.11003 0
M  V30 6342 C 597.137 -4.8092 -2.33708 0
M  V30 6343 C 598.437 -5.21955 -0.18983 0
M  V30 6344 H 600.131 -2.9892 0.169511 0
M  V30 6345 H 597.677 -1.43761 0.0829658 0
M  V30 6346 H 599.63 -3.60055 -2.18949 0
M  V30 6347 H 598.354 -2.35976 -2.25794 0
M  V30 6348 H 597.013 -3.62573 -0.541869 0
M  V30 6349 H 596.661 -4.05144 -2.98106 0
M  V30 6350 H 596.361 -5.51904 -2.01682 0
M  V30 6351 H 597.885 -5.35455 -2.93462 0
M  V30 6352 H 599.299 -5.69153 -0.688319 0
M  V30 6353 H 597.696 -6.00087 0.0398887 0
M  V30 6354 H 598.766 -4.78811 0.766057 0
M  V30 6355 N 600.109 -0.101901 -1.5727 0
M  V30 6356 C 601.356 0.560197 -1.94597 0
M  V30 6357 C 601.684 1.67767 -0.984101 0
M  V30 6358 O 600.939 1.95699 -0.00489193 0
M  V30 6359 C 601.238 1.14898 -3.38427 0
M  V30 6360 C 600.904 0.154613 -4.50635 0
M  V30 6361 C 599.566 -0.118861 -4.81053 0
M  V30 6362 C 601.918 -0.523979 -5.18559 0
M  V30 6363 C 599.246 -1.0775 -5.76721 0
M  V30 6364 C 601.598 -1.47114 -6.15256 0
M  V30 6365 C 600.262 -1.75278 -6.44076 0
M  V30 6366 H 599.532 0.204991 -0.712081 0
M  V30 6367 H 602.179 -0.17918 -1.9066 0
M  V30 6368 H 600.484 1.96476 -3.38976 0
M  V30 6369 H 602.181 1.66909 -3.64613 0
M  V30 6370 H 598.771 0.377948 -4.2693 0
M  V30 6371 H 602.955 -0.325851 -4.95229 0
M  V30 6372 H 598.211 -1.30263 -5.97362 0
M  V30 6373 H 602.385 -2.00274 -6.66981 0
M  V30 6374 H 600.012 -2.49717 -7.18015 0
M  V30 6375 N 601.587 1.56661 0.17182 0
M  V30 6376 C 602.833 1.82235 0.889845 0
M  V30 6377 C 603.166 0.679673 1.81918 0
M  V30 6378 O 602.441 -0.318404 1.91876 0
M  V30 6379 C 602.724 3.18195 1.68595 0
M  V30 6380 C 602.577 4.42989 0.779773 0
M  V30 6381 C 603.896 3.5109 2.65375 0
M  V30 6382 H 601.015 0.66291 0.322056 0
M  V30 6383 H 603.657 1.89358 0.15608 0
M  V30 6384 H 601.807 3.12253 2.3115 0
M  V30 6385 H 603.479 4.60997 0.16714 0
M  V30 6386 H 601.722 4.33711 0.0877964 0
M  V30 6387 H 602.393 5.3467 1.3723 0
M  V30 6388 H 604.869 3.57482 2.12946 0
M  V30 6389 H 603.745 4.47298 3.18144 0
M  V30 6390 H 604.006 2.75768 3.45549 0
M  V30 6391 N 603.065 -0.440357 1.51323 0
M  V30 6392 C 604.29 -1.21716 1.67928 0
M  V30 6393 C 604.715 -1.84328 0.374826 0
M  V30 6394 O 604.073 -1.68675 -0.664706 0
M  V30 6395 C 604.121 -2.27914 2.79442 0
M  V30 6396 O 603.225 -3.33325 2.42834 0
M  V30 6397 H 602.566 -0.35674 0.560029 0
M  V30 6398 H 605.096 -0.520417 1.97871 0
M  V30 6399 H 605.106 -2.72746 3.03436 0
M  V30 6400 H 603.781 -1.8172 3.741 0
M  V30 6401 H 602.358 -2.9399 2.294 0
M  V30 6402 N 604.543 -1.41418 -0.695603 0
M  V30 6403 C 605.79 -1.40774 -1.45564 0
M  V30 6404 C 606.118 -0.0168604 -1.94493 0
M  V30 6405 O 605.373 0.971259 -1.69897 0
M  V30 6406 C 605.672 -2.36112 -2.68302 0
M  V30 6407 C 605.338 -3.82952 -2.38031 0
M  V30 6408 C 604 -4.22954 -2.29486 0
M  V30 6409 C 606.352 -4.75662 -2.13061 0
M  V30 6410 C 603.68 -5.53674 -1.94067 0
M  V30 6411 C 606.032 -6.06702 -1.79151 0
M  V30 6412 C 604.696 -6.45725 -1.69102 0
M  V30 6413 H 603.966 -0.515128 -0.532658 0
M  V30 6414 H 606.613 -1.74216 -0.795047 0
M  V30 6415 H 604.918 -1.95924 -3.39295 0
M  V30 6416 H 606.615 -2.32887 -3.26442 0
M  V30 6417 H 603.205 -3.5127 -2.45576 0
M  V30 6418 H 607.389 -4.45561 -2.18608 0
M  V30 6419 H 602.645 -5.8279 -1.8484 0
M  V30 6420 H 606.819 -6.78041 -1.5885 0
M  V30 6421 H 604.446 -7.46929 -1.41426 0
M  V30 6422 N 606.021 0.929856 -1.27246 0
M  V30 6423 C 607.268 1.67731 -1.13457 0
M  V30 6424 C 607.596 1.9185 0.319998 0
M  V30 6425 O 606.851 1.50524 1.25064 0
M  V30 6426 C 607.15 3.05116 -1.86115 0
M  V30 6427 C 606.816 3.00715 -3.35978 0
M  V30 6428 C 605.478 2.99222 -3.76855 0
M  V30 6429 C 607.83 2.92168 -4.3161 0
M  V30 6430 C 605.158 2.86962 -5.11732 0
M  V30 6431 C 607.51 2.81449 -5.66542 0
M  V30 6432 C 606.174 2.78305 -6.06715 0
M  V30 6433 H 605.444 0.613772 -0.415168 0
M  V30 6434 H 608.091 1.08456 -1.57827 0
M  V30 6435 H 606.396 3.68083 -1.34246 0
M  V30 6436 H 608.093 3.61822 -1.72876 0
M  V30 6437 H 604.683 3.02664 -3.03468 0
M  V30 6438 H 608.867 2.92421 -4.01003 0
M  V30 6439 H 604.123 2.82913 -5.42006 0
M  V30 6440 H 608.297 2.738 -6.40317 0
M  V30 6441 H 605.924 2.68561 -7.11181 0
M  V30 6442 N 607.499 1.09233 1.13605 0
M  V30 6443 C 608.409 0.741939 2.22559 0
M  V30 6444 C 609.425 -0.255236 1.72118 0
M  V30 6445 O 610.601 -0.0970747 2.01166 0
M  V30 6446 C 607.666 0.165595 3.46304 0
M  V30 6447 C 606.727 1.21846 4.11645 0
M  V30 6448 C 605.96 0.669526 5.29484 0
M  V30 6449 O 606.183 -0.508228 5.68131 0
M  V30 6450 O 605.117 1.42361 5.84822 0
M  V30 6451 H 608.943 1.65107 2.54899 0
M  V30 6452 H 606.528 0.866584 1.21699 0
M  V30 6453 H 608.41 -0.152592 4.21124 0
M  V30 6454 H 607.085 -0.716573 3.15669 0
M  V30 6455 H 605.992 1.58931 3.38662 0
M  V30 6456 H 607.325 2.07321 4.46407 0
M  V30 6457 N 608.977 -1.30795 0.87923 0
M  V30 6458 C 610.226 -1.95636 0.490875 0
M  V30 6459 C 610.539 -1.70214 -0.963674 0
M  V30 6460 O 611.745 -2.28991 -1.45861 0
M  V30 6461 C 610.201 -3.50271 0.826929 0
M  V30 6462 C 609.809 -3.84521 2.29886 0
M  V30 6463 C 611.553 -4.21456 0.507494 0
M  V30 6464 C 609.46 -5.32309 2.57685 0
M  V30 6465 H 608.39 -0.732238 0.179841 0
M  V30 6466 H 611.041 -1.48829 1.07341 0
M  V30 6467 H 609.423 -3.9562 0.173542 0
M  V30 6468 H 610.597 -3.50102 2.99609 0
M  V30 6469 H 608.912 -3.26425 2.58526 0
M  V30 6470 H 611.509 -5.30199 0.692293 0
M  V30 6471 H 611.852 -4.12614 -0.552718 0
M  V30 6472 H 612.385 -3.81772 1.11782 0
M  V30 6473 H 609.124 -5.46195 3.62424 0
M  V30 6474 H 608.644 -5.68048 1.92566 0
M  V30 6475 H 610.323 -5.99678 2.42889 0
M  V30 6476 N 610.455 -0.639598 -1.44038 0
M  V30 6477 C 611.703 -0.147188 -2.01563 0
M  V30 6478 C 612.024 1.2384 -1.50628 0
M  V30 6479 O 611.294 1.82452 -0.713316 0
M  V30 6480 H 609.874 -0.0514231 -0.745228 0
M  V30 6481 H 612.536 -0.828205 -1.76428 0
M  V30 6482 H 611.632 -0.121358 -3.11864 0
M  V30 6483 N 611.933 1.52934 -0.380664 0
M  V30 6484 C 613.344 1.86457 0.0952684 0
M  V30 6485 C 613.695 1.3007 1.46889 0
M  V30 6486 O 612.82 0.628636 2.07068 0
M  V30 6487 C 613.415 3.38323 0.179648 0
M  V30 6488 C 611.974 3.71589 0.599858 0
M  V30 6489 C 611.121 2.76228 -0.243572 0
M  V30 6490 H 614.072 1.46966 -0.59888 0
M  V30 6491 H 614.093 3.67113 1.00042 0
M  V30 6492 H 613.605 3.79333 -0.820228 0
M  V30 6493 H 611.706 3.36144 1.60742 0
M  V30 6494 H 611.819 4.77715 0.364003 0
M  V30 6495 H 610.183 2.53045 0.289855 0
M  V30 6496 H 610.966 3.20074 -1.24127 0
M  V30 6497 N 613.412 0.11024 1.57214 0
M  V30 6498 C 614.66 -0.548783 1.94506 0
M  V30 6499 C 614.981 -1.67772 0.99386 0
M  V30 6500 O 614.251 -1.9584 0.0485841 0
M  V30 6501 H 612.831 -0.205715 0.718116 0
M  V30 6502 H 615.493 0.177127 1.94093 0
M  V30 6503 H 614.589 -0.949096 2.97319 0
M  V30 6504 N 614.89 -1.56749 -0.16351 0
M  V30 6505 C 616.301 -1.72039 -0.725216 0
M  V30 6506 C 616.652 -0.72202 -1.82432 0
M  V30 6507 O 615.777 0.114942 -2.16095 0
M  V30 6508 C 616.372 -3.11932 -1.32227 0
M  V30 6509 C 614.931 -3.28879 -1.83072 0
M  V30 6510 C 614.078 -2.67984 -0.712716 0
M  V30 6511 H 617.029 -1.58579 0.0619772 0
M  V30 6512 H 617.05 -3.11015 -2.19202 0
M  V30 6513 H 616.562 -3.84572 -0.522103 0
M  V30 6514 H 614.663 -2.61209 -2.65708 0
M  V30 6515 H 614.776 -4.36688 -1.97079 0
M  V30 6516 H 613.14 -2.28005 -1.13515 0
M  V30 6517 H 613.923 -3.43216 0.0757361 0
M  V30 6518 N 616.368 0.432326 -1.51554 0
M  V30 6519 C 617.617 1.17831 -1.63703 0
M  V30 6520 C 617.93 1.92229 -0.36156 0
M  V30 6521 O 619.136 2.69069 -0.362495 0
M  V30 6522 C 617.592 2.14318 -2.89129 0
M  V30 6523 C 617.2 1.45544 -4.23699 0
M  V30 6524 C 618.944 2.89319 -3.10636 0
M  V30 6525 C 616.851 2.40545 -5.4027 0
M  V30 6526 H 615.781 0.443533 -0.60975 0
M  V30 6527 H 618.432 0.444878 -1.78026 0
M  V30 6528 H 616.814 2.91117 -2.68452 0
M  V30 6529 H 617.988 0.742693 -4.54775 0
M  V30 6530 H 616.303 0.826772 -4.0811 0
M  V30 6531 H 618.9 3.60495 -3.94902 0
M  V30 6532 H 619.243 3.50951 -2.23918 0
M  V30 6533 H 619.776 2.19625 -3.31677 0
M  V30 6534 H 616.515 1.83594 -6.29264 0
M  V30 6535 H 616.035 3.09859 -5.13563 0
M  V30 6536 H 617.714 3.01569 -5.72421 0
M  V30 6537 N 617.846 1.41785 0.688094 0
M  V30 6538 C 619.257 1.3701 1.26828 0
M  V30 6539 C 619.608 0.056835 1.96118 0
M  V30 6540 O 618.733 -0.84475 1.99231 0
M  V30 6541 C 619.328 2.48168 2.30648 0
M  V30 6542 C 617.887 2.46766 2.84224 0
M  V30 6543 C 617.034 2.27633 1.58361 0
M  V30 6544 H 619.985 1.51192 0.482351 0
M  V30 6545 H 620.006 2.17655 3.121 0
M  V30 6546 H 619.518 3.43735 1.80188 0
M  V30 6547 H 617.619 1.54978 3.3884 0
M  V30 6548 H 617.732 3.43342 3.34145 0
M  V30 6549 H 616.096 1.75648 1.84445 0
M  V30 6550 H 616.879 3.25238 1.09887 0
M  V30 6551 N 619.324 -0.923095 1.27737 0
M  V30 6552 C 620.57 -1.67409 1.15524 0
M  V30 6553 C 620.925 -1.90124 -0.295072 0
M  V30 6554 O 620.218 -1.48382 -1.21216 0
M  V30 6555 C 620.412 -3.04125 1.8773 0
M  V30 6556 C 620.241 -2.94752 3.39634 0
M  V30 6557 C 619.011 -2.96783 4.0896 0
M  V30 6558 C 621.209 -2.73524 4.35533 0
M  V30 6559 N 619.191 -2.779 5.47398 0
M  V30 6560 C 620.562 -2.63391 5.61271 0
M  V30 6561 C 622.617 -2.58447 4.2557 0
M  V30 6562 C 621.32 -2.3972 6.78179 0
M  V30 6563 C 623.346 -2.36154 5.42204 0
M  V30 6564 C 622.708 -2.26768 6.669 0
M  V30 6565 H 618.807 -0.619196 0.477619 0
M  V30 6566 H 621.391 -1.09094 1.61266 0
M  V30 6567 H 619.562 -3.60545 1.44436 0
M  V30 6568 H 621.294 -3.6819 1.67982 0
M  V30 6569 H 618.049 -3.07186 3.60463 0
M  V30 6570 H 618.473 -2.71576 6.20141 0
M  V30 6571 H 623.115 -2.6446 3.2988 0
M  V30 6572 H 620.833 -2.32447 7.73947 0
M  V30 6573 H 624.419 -2.25367 5.36378 0
M  V30 6574 H 623.299 -2.09751 7.55628 0
M  V30 6575 N 620.802 -1.09834 -1.13024 0
M  V30 6576 C 622.049 -0.83695 -1.84395 0
M  V30 6577 C 622.377 0.637463 -1.83757 0
M  V30 6578 O 621.632 1.48554 -1.27398 0
M  V30 6579 C 621.931 -1.32263 -3.32026 0
M  V30 6580 C 621.597 -2.80739 -3.52841 0
M  V30 6581 C 620.259 -3.21286 -3.5823 0
M  V30 6582 C 622.611 -3.76449 -3.60466 0
M  V30 6583 C 619.939 -4.56308 -3.68781 0
M  V30 6584 C 622.291 -5.11266 -3.72546 0
M  V30 6585 C 620.955 -5.51397 -3.76189 0
M  V30 6586 H 620.225 -0.306262 -0.674748 0
M  V30 6587 H 622.872 -1.37385 -1.33408 0
M  V30 6588 H 621.177 -0.705618 -3.85394 0
M  V30 6589 H 622.874 -1.09695 -3.85705 0
M  V30 6590 H 619.464 -2.48363 -3.49305 0
M  V30 6591 H 623.648 -3.46234 -3.55578 0
M  V30 6592 H 618.904 -4.86832 -3.69871 0
M  V30 6593 H 623.078 -5.85279 -3.77388 0
M  V30 6594 H 620.705 -6.56017 -3.84117 0
M  V30 6595 N 622.28 1.30327 -0.886154 0
M  V30 6596 C 623.213 2.26241 -0.298407 0
M  V30 6597 C 624.191 1.51839 0.581704 0
M  V30 6598 O 625.375 1.80851 0.531536 0
M  V30 6599 C 622.502 3.33768 0.575888 0
M  V30 6600 C 621.548 4.25852 -0.235057 0
M  V30 6601 S 622.381 5.10277 -1.62411 0
M  V30 6602 C 623.537 6.21313 -0.756368 0
M  V30 6603 H 623.77 2.75744 -1.11141 0
M  V30 6604 H 621.303 1.38341 -0.685651 0
M  V30 6605 H 623.261 3.96186 1.07458 0
M  V30 6606 H 621.922 2.82986 1.363 0
M  V30 6607 H 621.115 5.02143 0.432198 0
M  V30 6608 H 620.717 3.68015 -0.666409 0
M  V30 6609 H 623.009 6.77495 0.0261451 0
M  V30 6610 H 623.952 6.92226 -1.49093 0
M  V30 6611 H 624.36 5.63611 -0.316749 0
M  V30 6612 N 623.758 0.647228 1.43697 0
M  V30 6613 C 625.004 0.158422 2.0218 0
M  V30 6614 C 625.337 -1.22233 1.50907 0
M  V30 6615 O 624.612 -1.81478 0.699702 0
M  V30 6616 C 624.895 0.1627 3.59732 0
M  V30 6617 C 624.748 1.57694 4.21251 0
M  V30 6618 C 626.067 -0.504138 4.37203 0
M  V30 6619 H 623.186 0.059042 0.734631 0
M  V30 6620 H 625.828 0.826772 1.71069 0
M  V30 6621 H 623.978 -0.406414 3.86368 0
M  V30 6622 H 625.65 2.19618 4.05667 0
M  V30 6623 H 623.893 2.12603 3.7813 0
M  V30 6624 H 624.564 1.53183 5.3032 0
M  V30 6625 H 627.04 -0.0199841 4.16095 0
M  V30 6626 H 625.916 -0.470394 5.46881 0
M  V30 6627 H 626.177 -1.57726 4.13007 0
M  V30 6628 N 625.236 -1.5273 0.388769 0
M  V30 6629 C 626.199 -2.25043 -0.434544 0
M  V30 6630 C 627.199 -1.26661 -0.990644 0
M  V30 6631 O 628.389 -1.50762 -0.872731 0
M  V30 6632 C 625.521 -3.00507 -1.60961 0
M  V30 6633 H 626.714 -2.99242 0.198549 0
M  V30 6634 H 624.267 -1.55664 0.140875 0
M  V30 6635 H 625.002 -2.30607 -2.28015 0
M  V30 6636 H 624.787 -3.72716 -1.21757 0
M  V30 6637 H 626.277 -3.55413 -2.19251 0
M  V30 6638 N 626.714 -0.118576 -1.57153 0
M  V30 6639 C 627.624 0.845484 -2.18835 0
M  V30 6640 C 628.64 1.29299 -1.16438 0
M  V30 6641 O 629.816 1.35607 -1.48905 0
M  V30 6642 C 626.881 2.07795 -2.77529 0
M  V30 6643 C 625.942 1.6824 -3.9496 0
M  V30 6644 C 625.175 2.85612 -4.50845 0
M  V30 6645 O 625.398 4.01025 -4.05629 0
M  V30 6646 O 624.332 2.62721 -5.41536 0
M  V30 6647 H 628.158 0.350568 -3.0167 0
M  V30 6648 H 625.743 0.107013 -1.49016 0
M  V30 6649 H 627.625 2.79978 -3.14945 0
M  V30 6650 H 626.3 2.56294 -1.97725 0
M  V30 6651 H 625.207 0.931663 -3.62313 0
M  V30 6652 H 626.54 1.24484 -4.76198 0
M  V30 6653 N 628.193 1.56834 0.155195 0
M  V30 6654 C 629.44 1.82898 0.869179 0
M  V30 6655 C 629.768 0.698194 1.81537 0
M  V30 6656 O 629.023 -0.313404 1.93174 0
M  V30 6657 C 629.322 3.15239 1.68402 0
M  V30 6658 C 628.988 4.42123 0.885341 0
M  V30 6659 C 627.65 4.76583 0.664971 0
M  V30 6660 C 630.002 5.20178 0.326234 0
M  V30 6661 C 627.33 5.86566 -0.125346 0
M  V30 6662 C 629.682 6.3099 -0.45108 0
M  V30 6663 C 628.346 6.64006 -0.682102 0
M  V30 6664 H 627.616 0.66927 0.318055 0
M  V30 6665 H 630.263 1.91036 0.133241 0
M  V30 6666 H 628.568 3.02515 2.48982 0
M  V30 6667 H 630.265 3.32618 2.23978 0
M  V30 6668 H 626.855 4.15102 1.06716 0
M  V30 6669 H 631.039 4.93936 0.483787 0
M  V30 6670 H 626.295 6.10594 -0.313915 0
M  V30 6671 H 630.469 6.9067 -0.89149 0
M  V30 6672 H 628.096 7.49065 -1.29636 0
M  V30 6673 N 629.671 -0.424282 1.51781 0
M  V30 6674 C 630.918 -1.1726 1.65095 0
M  V30 6675 C 631.246 -1.90881 0.373477 0
M  V30 6676 O 630.501 -1.84835 -0.642997 0
M  V30 6677 C 630.8 -2.20418 2.81337 0
M  V30 6678 C 630.466 -1.63715 4.20129 0
M  V30 6679 C 629.128 -1.47975 4.57883 0
M  V30 6680 C 631.48 -1.22157 5.06682 0
M  V30 6681 C 628.808 -0.891703 5.79884 0
M  V30 6682 C 631.16 -0.647767 6.29275 0
M  V30 6683 C 629.824 -0.477371 6.65791 0
M  V30 6684 H 629.094 -0.429085 0.604125 0
M  V30 6685 H 631.741 -0.461852 1.85847 0
M  V30 6686 H 630.046 -2.97581 2.54859 0
M  V30 6687 H 631.743 -2.78163 2.88836 0
M  V30 6688 H 628.333 -1.76946 3.90369 0
M  V30 6689 H 632.517 -1.33133 4.7811 0
M  V30 6690 H 627.773 -0.747563 6.06813 0
M  V30 6691 H 631.947 -0.317291 6.95677 0
M  V30 6692 H 629.574 -0.0195936 7.60197 0
M  V30 6693 N 631.149 -1.42148 -0.680565 0
M  V30 6694 C 632.374 -1.45901 -1.47403 0
M  V30 6695 C 632.799 -0.0700985 -1.87969 0
M  V30 6696 O 632.157 0.930145 -1.55621 0
M  V30 6697 C 632.205 -2.38661 -2.70321 0
M  V30 6698 O 631.309 -1.85399 -3.68376 0
M  V30 6699 H 630.65 -0.494565 -0.443059 0
M  V30 6700 H 633.18 -1.86774 -0.835251 0
M  V30 6701 H 633.19 -2.55046 -3.18458 0
M  V30 6702 H 631.865 -3.39571 -2.40134 0
M  V30 6703 H 630.442 -1.78541 -3.2738 0
M  V30 6704 N 632.627 0.916307 -1.28225 0
M  V30 6705 C 633.559 2.02303 -1.07732 0
M  V30 6706 C 634.572 1.62773 -0.0298421 0
M  V30 6707 O 635.761 1.76406 -0.272626 0
M  V30 6708 C 632.861 3.33282 -0.614504 0
M  V30 6709 C 632.034 4.01439 -1.73682 0
M  V30 6710 C 631.093 5.10698 -1.26781 0
M  V30 6711 O 630.119 5.34038 -1.96958 0
M  V30 6712 N 631.321 5.80355 -0.129624 0
M  V30 6713 H 634.086 2.20442 -2.03041 0
M  V30 6714 H 631.647 1.08744 -1.19943 0
M  V30 6715 H 633.639 4.03699 -0.284397 0
M  V30 6716 H 632.209 3.11633 0.245664 0
M  V30 6717 H 631.429 3.24604 -2.23665 0
M  V30 6718 H 632.717 4.43721 -2.48976 0
M  V30 6719 H 632.115 5.6386 0.455847 0
M  V30 6720 H 630.672 6.51647 0.141224 0
M  V30 6721 N 634.105 1.10431 1.1244 0
M  V30 6722 C 635.353 0.845045 1.83585 0
M  V30 6723 C 635.674 -0.631168 1.84503 0
M  V30 6724 O 634.944 -1.45825 1.30813 0
M  V30 6725 H 633.524 0.309628 0.679809 0
M  V30 6726 H 636.186 1.39458 1.36153 0
M  V30 6727 H 635.282 1.20786 2.8778 0
M  V30 6728 N 635.583 -1.29855 0.893053 0
M  V30 6729 C 636.994 -1.77946 0.564998 0
M  V30 6730 C 637.345 -1.73339 -0.919134 0
M  V30 6731 O 636.47 -1.3152 -1.71847 0
M  V30 6732 C 637.065 -3.23118 1.01883 0
M  V30 6733 C 635.624 -3.69013 0.742051 0
M  V30 6734 C 634.771 -2.50121 1.19727 0
M  V30 6735 H 637.722 -1.16611 1.07646 0
M  V30 6736 H 637.743 -3.78875 0.351249 0
M  V30 6737 H 637.255 -3.26439 2.09903 0
M  V30 6738 H 635.356 -3.71173 -0.325816 0
M  V30 6739 H 635.469 -4.60117 1.33527 0
M  V30 6740 H 633.833 -2.47128 0.616418 0
M  V30 6741 H 634.616 -2.56174 2.28538 0
M  V30 6742 N 637.061 -0.65484 -1.43351 0
M  V30 6743 C 638.477 -0.32255 -1.56307 0
M  V30 6744 C 638.677 1.17324 -1.63821 0
M  V30 6745 O 637.733 1.95813 -1.59417 0
M  V30 6746 C 639.046 -1.03533 -2.82314 0
M  V30 6747 C 640.594 -1.01574 -2.9606 0
M  V30 6748 C 641.069 -1.70945 -4.24902 0
M  V30 6749 N 642.56 -1.67716 -4.3177 0
M  V30 6750 C 643.295 -2.18265 -5.30234 0
M  V30 6751 N 642.791 -2.7711 -6.34966 0
M  V30 6752 N 644.584 -2.08756 -5.21898 0
M  V30 6753 H 636.735 -1.62549 -1.36717 0
M  V30 6754 H 638.998 -0.683676 -0.656727 0
M  V30 6755 H 638.704 -2.09045 -2.8283 0
M  V30 6756 H 638.578 -0.587913 -3.7259 0
M  V30 6757 H 640.965 0.0309834 -2.95084 0
M  V30 6758 H 641.046 -1.50186 -2.07069 0
M  V30 6759 H 640.69 -2.75574 -4.26639 0
M  V30 6760 H 640.62 -1.19797 -5.12793 0
M  V30 6761 H 643.111 -1.24777 -3.56706 0
M  V30 6762 H 643.424 -3.13353 -7.06421 0
M  V30 6763 H 641.769 -2.81171 -6.35585 0
M  V30 6764 H 644.96 -1.62488 -4.38994 0
M  V30 6765 H 645.133 -2.48459 -5.98475 0
M  V30 6766 N 638.539 1.52521 -0.396863 0
M  V30 6767 C 639.95 1.86547 0.0754868 0
M  V30 6768 C 640.301 1.31621 1.45501 0
M  V30 6769 O 639.426 0.650563 2.0639 0
M  V30 6770 C 640.021 3.38495 0.143754 0
M  V30 6771 C 638.58 3.72205 0.560413 0
M  V30 6772 C 637.727 2.75954 -0.272856 0
M  V30 6773 H 640.678 1.46323 -0.614434 0
M  V30 6774 H 640.699 3.68153 0.961425 0
M  V30 6775 H 640.211 3.78442 -0.860415 0
M  V30 6776 H 638.312 3.3783 1.57167 0
M  V30 6777 H 638.425 4.78074 0.313314 0
M  V30 6778 H 636.789 2.53339 0.263 0
M  V30 6779 H 637.572 3.1874 -1.27515 0
M  V30 6780 N 640.017 0.126909 1.57088 0
M  V30 6781 C 640.98 -0.806097 2.14557 0
M  V30 6782 C 641.98 -1.18918 1.08236 0
M  V30 6783 O 643.17 -1.11339 1.33975 0
M  V30 6784 C 640.302 -2.09116 2.69227 0
M  V30 6785 H 641.495 -0.306522 2.98329 0
M  V30 6786 H 639.048 -0.122393 1.5582 0
M  V30 6787 H 639.783 -2.63486 1.89065 0
M  V30 6788 H 639.568 -1.82588 3.46993 0
M  V30 6789 H 641.058 -2.75794 3.13572 0
M  V30 6790 N 641.495 -1.56914 -0.146875 0
M  V30 6791 C 642.458 -1.97368 -1.16526 0
M  V30 6792 C 643.458 -0.860223 -1.35856 0
M  V30 6793 O 644.648 -1.12684 -1.32846 0
M  V30 6794 C 641.78 -2.28974 -2.52555 0
M  V30 6795 H 642.973 -2.88523 -0.818209 0
M  V30 6796 H 640.526 -1.5135 -0.390221 0
M  V30 6797 H 641.261 -1.40611 -2.92231 0
M  V30 6798 H 641.046 -3.10157 -2.39886 0
M  V30 6799 H 642.536 -2.61109 -3.25902 0
M  V30 6800 N 642.974 0.416227 -1.52004 0
M  V30 6801 C 643.904 1.51365 -1.77795 0
M  V30 6802 C 644.885 1.58059 -0.628601 0
M  V30 6803 O 646.07 1.73447 -0.873478 0
M  V30 6804 C 643.2 2.89256 -1.92219 0
M  V30 6805 C 642.154 2.97415 -3.0778 0
M  V30 6806 C 641.48 4.37492 -3.07417 0
M  V30 6807 C 642.78 2.69551 -4.47369 0
M  V30 6808 H 644.474 1.30033 -2.69688 0
M  V30 6809 H 642.02 0.624112 -1.29772 0
M  V30 6810 H 643.973 3.66008 -2.08845 0
M  V30 6811 H 642.697 3.11866 -0.969917 0
M  V30 6812 H 641.356 2.23107 -2.90893 0
M  V30 6813 H 641.004 4.571 -2.09925 0
M  V30 6814 H 640.704 4.43877 -3.85029 0
M  V30 6815 H 642.228 5.16188 -3.26162 0
M  V30 6816 H 643.642 3.36028 -4.64497 0
M  V30 6817 H 642.039 2.87321 -5.26846 0
M  V30 6818 H 643.109 1.65029 -4.55953 0
M  V30 6819 N 644.452 1.42507 0.673017 0
M  V30 6820 C 645.415 1.4582 1.76831 0
M  V30 6821 C 646.415 0.345542 1.57043 0
M  V30 6822 O 647.605 0.606447 1.63303 0
M  V30 6823 C 644.737 1.29158 3.15485 0
M  V30 6824 H 645.93 2.43345 1.7528 0
M  V30 6825 H 643.483 1.28981 0.882817 0
M  V30 6826 H 644.218 0.325626 3.22661 0
M  V30 6827 H 644.003 2.09797 3.31252 0
M  V30 6828 H 645.493 1.34363 3.95394 0
M  V30 6829 N 645.93 -0.909495 1.28709 0
M  V30 6830 C 647.179 -1.65365 1.15487 0
M  V30 6831 C 647.492 -1.93364 -0.294941 0
M  V30 6832 O 648.698 -2.65905 -0.548338 0
M  V30 6833 C 647.154 -2.97923 2.01916 0
M  V30 6834 C 646.762 -2.77556 3.51663 0
M  V30 6835 C 648.506 -3.75814 1.97393 0
M  V30 6836 C 646.413 -4.0578 4.30229 0
M  V30 6837 H 645.343 -0.620323 0.42862 0
M  V30 6838 H 647.994 -1.00894 1.53273 0
M  V30 6839 H 646.376 -3.63552 1.5699 0
M  V30 6840 H 647.55 -2.2058 4.04575 0
M  V30 6841 H 645.865 -2.13072 3.57756 0
M  V30 6842 H 648.462 -4.70866 2.53357 0
M  V30 6843 H 648.805 -4.05277 0.951643 0
M  V30 6844 H 649.338 -3.1701 2.40311 0
M  V30 6845 H 646.077 -3.81488 5.33055 0
M  V30 6846 H 645.597 -4.62351 3.82089 0
M  V30 6847 H 647.276 -4.74004 4.40374 0
M  V30 6848 N 647.408 -1.11026 -1.11852 0
M  V30 6849 C 648.371 -0.768006 -2.1595 0
M  V30 6850 C 649.371 0.210538 -1.59416 0
M  V30 6851 O 650.561 -0.0133978 -1.74195 0
M  V30 6852 C 647.693 -0.138678 -3.40618 0
M  V30 6853 H 648.886 -1.69012 -2.4774 0
M  V30 6854 H 646.439 -0.911578 -1.26964 0
M  V30 6855 H 647.174 0.793872 -3.14433 0
M  V30 6856 H 646.959 -0.843012 -3.8293 0
M  V30 6857 H 648.449 0.0848039 -4.17514 0
M  V30 6858 N 648.886 1.2938 -0.899927 0
M  V30 6859 C 649.849 2.25983 -0.382677 0
M  V30 6860 C 650.849 1.53366 0.483259 0
M  V30 6861 O 652.039 1.71798 0.28828 0
M  V30 6862 C 649.171 3.37878 0.452915 0
M  V30 6863 H 650.364 2.73252 -1.23586 0
M  V30 6864 H 647.917 1.40825 -0.678088 0
M  V30 6865 H 648.652 2.95949 1.32608 0
M  V30 6866 H 648.437 3.91742 -0.167562 0
M  V30 6867 H 649.927 4.09746 0.806107 0
M  V30 6868 N 650.364 0.662433 1.43002 0
M  V30 6869 C 651.611 0.179591 2.01702 0
M  V30 6870 C 651.939 -1.20964 1.52309 0
M  V30 6871 O 651.194 -1.82343 0.7106 0
M  V30 6872 C 651.493 0.149363 3.57088 0
M  V30 6873 C 651.159 1.48158 4.25864 0
M  V30 6874 C 649.821 1.84638 4.44367 0
M  V30 6875 C 652.173 2.35953 4.64732 0
M  V30 6876 C 649.501 3.08561 4.99006 0
M  V30 6877 C 651.853 3.59176 5.20745 0
M  V30 6878 C 650.517 3.95841 5.37463 0
M  V30 6879 H 649.787 0.0657172 0.73808 0
M  V30 6880 H 652.434 0.854968 1.71355 0
M  V30 6881 H 650.739 -0.609491 3.8703 0
M  V30 6882 H 652.436 -0.241241 4.00274 0
M  V30 6883 H 649.026 1.18777 4.11813 0
M  V30 6884 H 653.21 2.09058 4.50121 0
M  V30 6885 H 648.466 3.37005 5.10135 0
M  V30 6886 H 652.64 4.27417 5.49807 0
M  V30 6887 H 650.267 4.91942 5.79566 0
M  V30 6888 N 651.842 -1.52309 0.404946 0
M  V30 6889 C 653.067 -2.06666 -0.1743 0
M  V30 6890 C 653.492 -1.27341 -1.38441 0
M  V30 6891 O 652.85 -0.302539 -1.78758 0
M  V30 6892 C 652.898 -3.57014 -0.507262 0
M  V30 6893 O 652.002 -3.80144 -1.59889 0
M  V30 6894 H 651.343 -0.663807 -0.0160273 0
M  V30 6895 H 653.873 -1.96297 0.576937 0
M  V30 6896 H 653.883 -4.00724 -0.767098 0
M  V30 6897 H 652.558 -4.14184 0.377368 0
M  V30 6898 H 651.135 -3.48316 -1.33155 0
M  V30 6899 N 653.32 -0.135238 -1.57019 0
M  V30 6900 C 654.268 0.826099 -2.17436 0
M  V30 6901 C 655.262 1.26378 -1.12805 0
M  V30 6902 O 656.468 1.23363 -1.31079 0
M  V30 6903 H 652.843 0.284568 -0.696078 0
M  V30 6904 H 654.814 0.292212 -2.96966 0
M  V30 6905 C 653.563 2.05991 -2.80112 0
M  V30 6906 H 652.886 1.73209 -3.60331 0
M  V30 6907 H 654.326 2.71225 -3.25903 0
M  V30 6908 C 652.785 2.86027 -1.78017 0
M  V30 6909 O 653.315 3.81971 -1.24344 0
M  V30 6910 N 651.521 2.50332 -1.47588 0
M  V30 6911 H 651.068 1.72377 -1.91426 0
M  V30 6912 H 651.026 3.04177 -0.795228 0
M  V30 6913 N 654.798 1.5699 0.138552 0
M  V30 6914 C 656.044 1.84966 0.846116 0
M  V30 6915 C 656.399 0.72038 1.78405 0
M  V30 6916 O 655.692 -0.281076 1.89527 0
M  V30 6917 C 655.886 3.17007 1.65049 0
M  V30 6918 C 655.715 4.42672 0.79194 0
M  V30 6919 C 654.485 5.03254 0.454293 0
M  V30 6920 C 656.683 5.14164 0.118419 0
M  V30 6921 N 654.665 6.12482 -0.416964 0
M  V30 6922 C 656.036 6.16966 -0.61263 0
M  V30 6923 C 658.091 4.97884 0.0399671 0
M  V30 6924 C 656.794 7.0525 -1.41473 0
M  V30 6925 C 658.82 5.86639 -0.748901 0
M  V30 6926 C 658.182 6.88929 -1.4682 0
M  V30 6927 H 654.281 0.727362 0.287172 0
M  V30 6928 H 656.865 1.94383 0.110972 0
M  V30 6929 H 655.036 3.08722 2.35681 0
M  V30 6930 H 656.768 3.3286 2.30187 0
M  V30 6931 H 653.523 4.6693 0.792038 0
M  V30 6932 H 653.947 6.7172 -0.843865 0
M  V30 6933 H 658.589 4.18779 0.581728 0
M  V30 6934 H 656.307 7.83777 -1.96772 0
M  V30 6935 H 659.893 5.7611 -0.811705 0
M  V30 6936 H 658.773 7.56419 -2.06882 0
M  V30 6937 N 656.276 -0.40816 1.52223 0
M  V30 6938 C 657.504 -1.17672 1.70179 0
M  V30 6939 C 657.919 -1.84257 0.411696 0
M  V30 6940 O 657.276 -1.7192 -0.612354 0
M  V30 6941 C 657.327 -2.23911 2.83806 0
M  V30 6942 O 657.048 -1.60044 4.0782 0
M  V30 6943 C 658.549 -3.1364 3.13281 0
M  V30 6944 H 655.769 -0.353562 0.570293 0
M  V30 6945 H 658.313 -0.480083 1.98785 0
M  V30 6946 H 656.468 -2.89242 2.57717 0
M  V30 6947 H 656.882 -2.30484 4.71145 0
M  V30 6948 H 658.356 -3.84255 3.96298 0
M  V30 6949 H 658.833 -3.76066 2.26872 0
M  V30 6950 H 659.439 -2.53977 3.41139 0
M  V30 6951 N 657.755 -1.42862 -0.66545 0
M  V30 6952 C 658.995 -1.45323 -1.43738 0
M  V30 6953 C 659.359 -0.0707969 -1.91869 0
M  V30 6954 O 660.56 0.0298852 -2.68783 0
M  V30 6955 C 658.831 -2.45671 -2.59577 0
M  V30 6956 S 660.39 -2.6691 -3.48288 0
M  V30 6957 H 657.208 -0.51442 -0.490809 0
M  V30 6958 H 659.81 -1.79537 -0.773745 0
M  V30 6959 H 658.514 -3.44869 -2.22471 0
M  V30 6960 H 658.045 -2.12914 -3.30804 0
M  V30 6961 H 660.06 -1.95914 -4.55886 0
M  V30 6962 N 659.233 0.902656 -1.29189 0
M  V30 6963 C 660.181 2.0278 -1.13943 0
M  V30 6964 C 661.175 1.69308 -0.055787 0
M  V30 6965 O 662.381 1.78707 -0.215371 0
M  V30 6966 H 658.756 0.664595 -0.351877 0
M  V30 6967 H 660.727 2.12778 -2.09208 0
M  V30 6968 C 659.476 3.37657 -0.82966 0
M  V30 6969 H 658.799 3.63913 -1.65551 0
M  V30 6970 H 660.239 4.17078 -0.762998 0
M  V30 6971 C 658.698 3.33648 0.466991 0
M  V30 6972 O 659.228 3.72886 1.49395 0
M  V30 6973 N 657.434 2.86745 0.471761 0
M  V30 6974 H 656.981 2.55009 -0.364406 0
M  V30 6975 H 656.939 2.84446 1.33933 0
M  V30 6976 N 660.711 1.11618 1.11262 0
M  V30 6977 C 661.958 0.86618 1.8304 0
M  V30 6978 C 662.286 -0.608149 1.84748 0
M  V30 6979 O 661.541 -1.46508 1.29745 0
M  V30 6980 C 661.84 1.37529 3.2988 0
M  V30 6981 C 661.506 2.86317 3.4833 0
M  V30 6982 C 660.168 3.26945 3.53073 0
M  V30 6983 C 662.52 3.82136 3.54431 0
M  V30 6984 C 659.848 4.62117 3.61475 0
M  V30 6985 C 662.2 5.17128 3.64365 0
M  V30 6986 C 660.864 5.57312 3.67369 0
M  V30 6987 H 660.134 0.316958 0.66979 0
M  V30 6988 H 662.781 1.3949 1.31205 0
M  V30 6989 H 661.086 0.766842 3.84222 0
M  V30 6990 H 662.783 1.15817 3.83911 0
M  V30 6991 H 659.373 2.53889 3.45309 0
M  V30 6992 H 663.557 3.51847 3.50025 0
M  V30 6993 H 658.813 4.92655 3.62079 0
M  V30 6994 H 662.987 5.91208 3.68029 0
M  V30 6995 H 660.614 6.62045 3.73632 0
M  V30 6996 N 662.189 -1.289 0.906776 0
M  V30 6997 C 663.438 -1.9455 0.532262 0
M  V30 6998 C 663.751 -1.72219 -0.927353 0
M  V30 6999 O 664.957 -2.32033 -1.40971 0
M  V30 7000 C 663.413 -3.48438 0.901041 0
M  V30 7001 C 663.021 -3.79558 2.37991 0
M  V30 7002 C 664.765 -4.20284 0.596777 0
M  V30 7003 C 662.672 -5.26723 2.68918 0
M  V30 7004 H 661.602 -0.728259 0.195333 0
M  V30 7005 H 664.253 -1.46519 1.10474 0
M  V30 7006 H 662.635 -3.95162 0.257419 0
M  V30 7007 H 663.809 -3.43668 3.06967 0
M  V30 7008 H 662.124 -3.20868 2.65391 0
M  V30 7009 H 664.721 -5.28612 0.8046 0
M  V30 7010 H 665.064 -4.13694 -0.465072 0
M  V30 7011 H 665.597 -3.79315 1.19855 0
M  V30 7012 H 662.336 -5.38384 3.73928 0
M  V30 7013 H 661.856 -5.63836 2.04571 0
M  V30 7014 H 663.535 -5.94391 2.55555 0
M  V30 7015 N 663.667 -0.670007 -1.42649 0
M  V30 7016 C 664.913 -0.190568 -2.01903 0
M  V30 7017 C 665.246 1.19817 -1.52832 0
M  V30 7018 O 664.521 1.80342 -0.728485 0
M  V30 7019 C 664.804 -0.21991 -3.59428 0
M  V30 7020 C 664.657 -1.64376 -4.18689 0
M  V30 7021 C 665.976 0.434519 -4.3795 0
M  V30 7022 H 663.095 -0.0707219 -0.733599 0
M  V30 7023 H 665.737 -0.853883 -1.69732 0
M  V30 7024 H 663.887 0.344894 -3.86966 0
M  V30 7025 H 665.559 -2.26044 -4.02122 0
M  V30 7026 H 663.802 -2.18591 -3.747 0
M  V30 7027 H 664.473 -1.61601 -5.27815 0
M  V30 7028 H 666.949 -0.0462156 -4.16074 0
M  V30 7029 H 665.825 0.38333 -5.4756 0
M  V30 7030 H 666.086 1.51135 -4.15464 0
M  V30 7031 N 665.145 1.52092 -0.413018 0
M  V30 7032 C 666.108 2.25706 0.398687 0
M  V30 7033 C 667.108 1.28221 0.970368 0
M  V30 7034 O 668.298 1.52131 0.848635 0
M  V30 7035 C 665.43 3.03029 1.5616 0
M  V30 7036 H 666.623 2.98888 -0.246131 0
M  V30 7037 H 664.176 1.5542 -0.165622 0
M  V30 7038 H 664.911 2.34205 2.24317 0
M  V30 7039 H 664.696 3.74606 1.15812 0
M  V30 7040 H 666.186 3.58857 2.13569 0
M  V30 7041 N 666.623 0.143563 1.56945 0
M  V30 7042 C 667.553 -0.7936 2.196 0
M  V30 7043 C 668.534 -1.25955 1.14321 0
M  V30 7044 O 669.719 -1.31773 1.42651 0
M  V30 7045 C 666.849 -2.03424 2.81489 0
M  V30 7046 C 665.803 -1.70519 3.92565 0
M  V30 7047 C 665.129 -3.01817 4.41373 0
M  V30 7048 C 666.429 -0.95449 5.13504 0
M  V30 7049 H 668.123 -0.271423 2.98167 0
M  V30 7050 H 665.669 -0.12911 1.4342 0
M  V30 7051 H 667.622 -2.69463 3.23987 0
M  V30 7052 H 666.346 -2.58008 2.00248 0
M  V30 7053 H 665.005 -1.06859 3.5068 0
M  V30 7054 H 664.653 -3.54386 3.56959 0
M  V30 7055 H 664.353 -2.80565 5.16292 0
M  V30 7056 H 665.877 -3.68934 4.86539 0
M  V30 7057 H 667.291 -1.5169 5.52868 0
M  V30 7058 H 665.688 -0.842035 5.94163 0
M  V30 7059 H 666.758 0.0544033 4.84869 0
M  V30 7060 N 668.101 -1.57061 -0.130224 0
M  V30 7061 C 669.341 -1.86071 -0.845993 0
M  V30 7062 C 669.705 -0.73009 -1.77577 0
M  V30 7063 O 670.906 -0.901663 -2.53226 0
M  V30 7064 C 669.177 -3.20293 -1.58579 0
M  V30 7065 S 670.736 -3.70905 -2.34467 0
M  V30 7066 H 667.554 -0.652434 -0.282579 0
M  V30 7067 H 670.156 -1.95218 -0.10498 0
M  V30 7068 H 668.86 -4.00533 -0.894509 0
M  V30 7069 H 668.391 -3.14195 -2.36739 0
M  V30 7070 H 670.406 -3.41509 -3.59981 0
M  V30 7071 N 669.579 0.400081 -1.52437 0
M  V30 7072 C 670.826 1.14619 -1.6694 0
M  V30 7073 C 671.154 1.90262 -0.403797 0
M  V30 7074 O 670.409 1.85835 0.61351 0
M  V30 7075 C 670.708 2.15914 -2.84808 0
M  V30 7076 C 670.374 1.57011 -4.2268 0
M  V30 7077 C 669.036 1.40672 -4.60179 0
M  V30 7078 C 671.388 1.14081 -5.08562 0
M  V30 7079 C 668.716 0.799335 -5.81229 0
M  V30 7080 C 671.068 0.547573 -6.30226 0
M  V30 7081 C 669.732 0.371389 -6.66466 0
M  V30 7082 H 669.002 0.419419 -0.610875 0
M  V30 7083 H 671.649 0.432227 -1.86558 0
M  V30 7084 H 669.954 2.93488 -2.59561 0
M  V30 7085 H 671.651 2.73533 -2.93225 0
M  V30 7086 H 668.241 1.70713 -3.93135 0
M  V30 7087 H 672.425 1.2551 -4.80168 0
M  V30 7088 H 667.681 0.65093 -6.07925 0
M  V30 7089 H 671.855 0.206575 -6.96094 0
M  V30 7090 H 669.482 -0.10135 -7.60132 0
M  V30 7091 N 671.057 1.43213 0.657864 0
M  V30 7092 C 671.989 1.43974 1.78337 0
M  V30 7093 C 673.002 0.336482 1.59285 0
M  V30 7094 O 674.191 0.600631 1.68091 0
M  V30 7095 C 671.291 1.23242 3.15697 0
M  V30 7096 C 670.464 2.46319 3.61449 0
M  V30 7097 C 669.523 2.2088 4.77597 0
M  V30 7098 O 668.549 2.942 4.87273 0
M  V30 7099 N 669.751 1.22251 5.67481 0
M  V30 7100 H 672.516 2.40993 1.78164 0
M  V30 7101 H 670.077 1.3831 0.841549 0
M  V30 7102 H 672.069 1.04113 3.91079 0
M  V30 7103 H 670.639 0.346849 3.1067 0
M  V30 7104 H 669.859 2.80904 2.76563 0
M  V30 7105 H 671.147 3.28239 3.88763 0
M  V30 7106 H 670.545 0.616433 5.62331 0
M  V30 7107 H 669.102 1.09107 6.42603 0
M  V30 7108 N 672.536 -0.895792 1.29666 0
M  V30 7109 C 673.766 -1.67757 1.20586 0
M  V30 7110 C 674.174 -1.87729 -0.235432 0
M  V30 7111 O 673.517 -1.41706 -1.16898 0
M  V30 7112 C 673.579 -3.08117 1.85215 0
M  V30 7113 C 673.243 -3.1136 3.3452 0
M  V30 7114 C 674.24 -2.91217 4.30684 0
M  V30 7115 C 671.925 -3.33302 3.75786 0
M  V30 7116 C 673.919 -2.92955 5.66089 0
M  V30 7117 C 671.606 -3.3467 5.11311 0
M  V30 7118 C 672.604 -3.14519 6.06273 0
M  V30 7119 O 672.292 -3.15684 7.39323 0
M  V30 7120 H 672.024 -0.530601 0.418854 0
M  V30 7121 H 674.578 -1.12831 1.71634 0
M  V30 7122 H 672.808 -3.64661 1.28683 0
M  V30 7123 H 674.497 -3.68399 1.70403 0
M  V30 7124 H 675.263 -2.74074 4.00136 0
M  V30 7125 H 671.142 -3.48025 3.02324 0
M  V30 7126 H 674.686 -2.77145 6.40185 0
M  V30 7127 H 670.583 -3.51346 5.41504 0
M  V30 7128 H 671.351 -3.31924 7.48177 0
M  V30 7129 N 674.014 -1.12206 -1.10668 0
M  V30 7130 C 675.263 -0.870595 -1.81944 0
M  V30 7131 C 675.576 0.605447 -1.85994 0
M  V30 7132 O 676.782 0.973433 -2.53449 0
M  V30 7133 C 675.238 -1.50783 -3.26791 0
M  V30 7134 C 674.846 -3.01849 -3.31046 0
M  V30 7135 C 676.59 -1.33653 -4.02911 0
M  V30 7136 C 674.497 -3.58518 -4.70339 0
M  V30 7137 H 673.427 -0.322043 -0.681765 0
M  V30 7138 H 676.078 -1.34827 -1.24475 0
M  V30 7139 H 674.46 -0.957825 -3.84242 0
M  V30 7140 H 675.634 -3.63321 -2.83433 0
M  V30 7141 H 673.949 -3.18346 -2.68411 0
M  V30 7142 H 676.546 -1.73416 -5.05797 0
M  V30 7143 H 676.889 -0.279949 -4.15358 0
M  V30 7144 H 677.422 -1.85562 -3.51868 0
M  V30 7145 H 674.161 -4.63925 -4.63091 0
M  V30 7146 H 673.681 -3.01819 -5.18329 0
M  V30 7147 H 675.36 -3.57434 -5.39305 0
M  V30 7148 N 675.492 1.28418 -0.913599 0
M  V30 7149 C 676.455 2.25564 -0.406624 0
M  V30 7150 C 677.455 1.5387 0.466965 0
M  V30 7151 O 678.645 1.72094 0.270042 0
M  V30 7152 C 675.777 3.38339 0.417053 0
M  V30 7153 H 676.97 2.71926 -1.26477 0
M  V30 7154 H 674.523 1.40098 -0.692986 0
M  V30 7155 H 675.258 2.97339 1.29461 0
M  V30 7156 H 675.043 3.91542 -0.209102 0
M  V30 7157 H 676.533 4.10578 0.762602 0
M  V30 7158 N 676.97 0.677563 1.42291 0
M  V30 7159 C 678.247 0.129803 1.95169 0
M  V30 7160 C 678.627 -1.35605 1.61786 0
M  V30 7161 O 677.975 -2.09361 0.915444 0
M  V30 7162 C 678.185 0.401889 3.46678 0
M  V30 7163 C 679.533 0.319889 4.23393 0
M  V30 7164 O 680.557 0.33579 3.54614 0
M  V30 7165 O 679.416 0.264459 5.4586 0
M  V30 7166 H 676.51 0.00447433 0.826988 0
M  V30 7167 H 679.056 0.752483 1.52105 0
M  V30 7168 H 677.828 1.43108 3.64192 0
M  V30 7169 H 677.451 -0.252662 3.96796 0
M  V30 7170 N 678.448 -1.51871 0.421078 0
M  V30 7171 C 679.695 -2.01938 -0.15079 0
M  V30 7172 C 680.023 -1.30611 -1.44121 0
M  V30 7173 O 679.278 -0.404631 -1.91471 0
M  V30 7174 C 679.577 -3.54764 -0.433292 0
M  V30 7175 C 679.243 -4.44288 0.76936 0
M  V30 7176 C 677.905 -4.68477 1.09921 0
M  V30 7177 C 680.257 -4.96915 1.57242 0
M  V30 7178 C 677.585 -5.4254 2.2331 0
M  V30 7179 C 679.937 -5.7222 2.69716 0
M  V30 7180 C 678.601 -5.94678 3.03174 0
M  V30 7181 H 677.871 -0.738943 -0.0551781 0
M  V30 7182 H 680.518 -1.82977 0.564945 0
M  V30 7183 H 678.823 -3.71968 -1.23074 0
M  V30 7184 H 680.52 -3.91023 -0.888922 0
M  V30 7185 H 677.11 -4.25646 0.502305 0
M  V30 7186 H 681.294 -4.78125 1.3308 0
M  V30 7187 H 676.55 -5.58146 2.49565 0
M  V30 7188 H 680.724 -6.11992 3.32323 0
M  V30 7189 H 678.351 -6.51848 3.9115 0
M  V30 7190 N 679.926 -0.151884 -1.56866 0
M  V30 7191 C 681.166 0.500695 -1.98173 0
M  V30 7192 C 681.53 1.61715 -1.03499 0
M  V30 7193 O 682.731 2.33093 -1.33869 0
M  V30 7194 C 681.002 0.989333 -3.43434 0
M  V30 7195 S 682.561 1.64583 -4.06765 0
M  V30 7196 H 679.379 0.16173 -0.692361 0
M  V30 7197 H 681.981 -0.244754 -1.93962 0
M  V30 7198 H 680.685 0.166072 -4.10064 0
M  V30 7199 H 680.216 1.76929 -3.51368 0
M  V30 7200 H 682.231 2.93326 -4.00218 0
M  V30 7201 N 681.404 1.57128 0.121893 0
M  V30 7202 C 682.652 1.84335 0.828548 0
M  V30 7203 C 682.973 0.736632 1.80551 0
M  V30 7204 O 682.243 -0.23962 1.94429 0
M  V30 7205 H 680.823 0.680108 0.30897 0
M  V30 7206 H 683.485 1.9459 0.109906 0
M  V30 7207 H 682.581 2.80152 1.37554 0
M  V30 7208 N 682.882 -0.391992 1.52647 0
M  V30 7209 C 684.293 -0.970064 1.5952 0
M  V30 7210 C 684.644 -1.91059 0.446207 0
M  V30 7211 O 683.769 -2.12062 -0.431125 0
M  V30 7212 C 684.364 -1.76614 2.89125 0
M  V30 7213 C 682.923 -2.29396 2.9842 0
M  V30 7214 C 682.07 -1.09864 2.54608 0
M  V30 7215 H 685.021 -0.171638 1.57769 0
M  V30 7216 H 685.042 -2.62511 2.75442 0
M  V30 7217 H 684.554 -1.08135 3.72731 0
M  V30 7218 H 682.655 -3.01196 2.19344 0
M  V30 7219 H 682.768 -2.59088 4.03002 0
M  V30 7220 H 681.132 -1.45777 2.08857 0
M  V30 7221 H 681.915 -0.429249 3.40606 0
M  V30 7222 N 684.36 -1.4356 -0.65026 0
M  V30 7223 C 685.59 -1.48563 -1.4357 0
M  V30 7224 C 685.998 -0.103041 -1.88919 0
M  V30 7225 O 685.341 0.897602 -1.60277 0
M  V30 7226 C 685.403 -2.37181 -2.70158 0
M  V30 7227 C 685.067 -3.84673 -2.4673 0
M  V30 7228 C 686.064 -4.75704 -2.09765 0
M  V30 7229 C 683.749 -4.29189 -2.60963 0
M  V30 7230 C 685.743 -6.09249 -1.87334 0
M  V30 7231 C 683.43 -5.62787 -2.38147 0
M  V30 7232 C 684.428 -6.52634 -2.01389 0
M  V30 7233 O 684.116 -7.83761 -1.78813 0
M  V30 7234 H 683.848 -0.506743 -0.447423 0
M  V30 7235 H 686.402 -1.89001 -0.80423 0
M  V30 7236 H 684.632 -1.91636 -3.35876 0
M  V30 7237 H 686.321 -2.33354 -3.32116 0
M  V30 7238 H 687.087 -4.42589 -1.98343 0
M  V30 7239 H 682.966 -3.59529 -2.88548 0
M  V30 7240 H 686.51 -6.7934 -1.58567 0
M  V30 7241 H 682.407 -5.95469 -2.49173 0
M  V30 7242 H 683.175 -7.95368 -1.93214 0
M  V30 7243 N 685.838 0.888903 -1.30139 0
M  V30 7244 C 687.084 1.6428 -1.18912 0
M  V30 7245 C 687.417 1.92499 0.256477 0
M  V30 7246 O 686.692 1.54312 1.18397 0
M  V30 7247 C 686.975 2.9851 -2.01405 0
M  V30 7248 C 686.828 2.77288 -3.54163 0
M  V30 7249 C 688.147 3.99383 -1.84882 0
M  V30 7250 H 685.266 0.596148 -0.433333 0
M  V30 7251 H 687.908 1.0289 -1.5973 0
M  V30 7252 H 686.058 3.50907 -1.66722 0
M  V30 7253 H 687.73 2.31709 -3.98884 0
M  V30 7254 H 685.973 2.11867 -3.78543 0
M  V30 7255 H 686.644 3.72717 -4.07168 0
M  V30 7256 H 689.12 3.56132 -2.15196 0
M  V30 7257 H 687.996 4.91222 -2.44934 0
M  V30 7258 H 688.257 4.34674 -0.806902 0
M  V30 7259 N 687.317 1.12792 1.10072 0
M  V30 7260 C 688.564 0.885545 1.82111 0
M  V30 7261 C 688.892 -0.588519 1.85383 0
M  V30 7262 O 688.147 -1.45124 1.31292 0
M  V30 7263 C 688.446 1.4102 3.28403 0
M  V30 7264 C 688.112 2.89995 3.45273 0
M  V30 7265 C 686.774 3.30671 3.49585 0
M  V30 7266 C 689.126 3.85874 3.50358 0
M  V30 7267 C 686.454 4.65925 3.56553 0
M  V30 7268 C 688.806 5.20963 3.58859 0
M  V30 7269 C 687.47 5.61177 3.61437 0
M  V30 7270 H 686.74 0.324044 0.666391 0
M  V30 7271 H 689.387 1.40874 1.29718 0
M  V30 7272 H 687.692 0.807551 3.83387 0
M  V30 7273 H 689.389 1.19882 3.82661 0
M  V30 7274 H 685.979 2.57537 3.42597 0
M  V30 7275 H 690.163 3.5554 3.46273 0
M  V30 7276 H 685.419 4.96468 3.56833 0
M  V30 7277 H 689.593 5.95079 3.61738 0
M  V30 7278 H 687.22 6.6597 3.66589 0
M  V30 7279 N 688.795 -1.27931 0.920396 0
M  V30 7280 C 690.042 -1.94689 0.557007 0
M  V30 7281 C 690.37 -1.724 -0.900476 0
M  V30 7282 O 689.625 -1.04194 -1.65657 0
M  V30 7283 C 689.924 -3.47853 0.820558 0
M  V30 7284 C 689.59 -3.90252 2.25863 0
M  V30 7285 C 688.252 -4.01539 2.65179 0
M  V30 7286 C 690.604 -4.11853 3.19415 0
M  V30 7287 C 687.932 -4.3181 3.97187 0
M  V30 7288 C 690.284 -4.43606 4.50995 0
M  V30 7289 C 688.948 -4.53105 4.90155 0
M  V30 7290 H 688.218 -0.712416 0.203823 0
M  V30 7291 H 690.865 -1.52142 1.16298 0
M  V30 7292 H 689.17 -3.91578 0.131844 0
M  V30 7293 H 690.867 -3.97634 0.51847 0
M  V30 7294 H 687.457 -3.81999 1.94358 0
M  V30 7295 H 691.641 -4.0258 2.90246 0
M  V30 7296 H 686.897 -4.37371 4.2722 0
M  V30 7297 H 691.071 -4.59268 5.23494 0
M  V30 7298 H 688.698 -4.76315 5.92476 0
M  V30 7299 N 690.273 -0.685099 -1.4193 0
M  V30 7300 C 691.203 -0.0273506 -2.33484 0
M  V30 7301 C 692.184 0.778366 -1.51246 0
M  V30 7302 O 693.369 0.733449 -1.79817 0
M  V30 7303 C 690.499 0.917272 -3.34968 0
M  V30 7304 C 689.453 0.21941 -4.27437 0
M  V30 7305 C 688.779 1.27768 -5.1921 0
M  V30 7306 C 690.079 -0.907894 -5.14349 0
M  V30 7307 H 691.773 -0.791994 -2.88735 0
M  V30 7308 H 689.319 -0.382308 -1.38832 0
M  V30 7309 H 691.272 1.38657 -3.97935 0
M  V30 7310 H 689.996 1.71346 -2.78043 0
M  V30 7311 H 688.655 -0.229757 -3.65879 0
M  V30 7312 H 688.303 2.06612 -4.58607 0
M  V30 7313 H 688.003 0.815803 -5.81909 0
M  V30 7314 H 689.527 1.7477 -5.85054 0
M  V30 7315 H 690.941 -0.519348 -5.70943 0
M  V30 7316 H 689.338 -1.2962 -5.85934 0
M  V30 7317 H 690.408 -1.75218 -4.52136 0
M  V30 7318 N 691.751 1.51645 -0.429126 0
M  V30 7319 C 692.998 2.02015 0.140079 0
M  V30 7320 C 693.326 1.31374 1.43427 0
M  V30 7321 O 692.581 0.414779 1.91254 0
M  V30 7322 C 692.88 3.54989 0.414472 0
M  V30 7323 C 692.546 4.43874 -0.792911 0
M  V30 7324 C 691.208 4.67887 -1.12404 0
M  V30 7325 C 693.56 4.96074 -1.59875 0
M  V30 7326 C 690.888 5.41348 -2.26184 0
M  V30 7327 C 693.24 5.70782 -2.72747 0
M  V30 7328 C 691.904 5.93062 -3.06324 0
M  V30 7329 H 691.174 0.739225 0.0512585 0
M  V30 7330 H 693.821 1.82675 -0.574641 0
M  V30 7331 H 692.126 3.72615 1.21099 0
M  V30 7332 H 693.823 3.91489 0.868173 0
M  V30 7333 H 690.413 4.25374 -0.524871 0
M  V30 7334 H 694.597 4.77412 -1.35614 0
M  V30 7335 H 689.853 5.56815 -2.52522 0
M  V30 7336 H 694.027 6.10221 -3.35564 0
M  V30 7337 H 691.654 6.49764 -3.94602 0
M  V30 7338 N 693.229 0.160201 1.56784 0
M  V30 7339 C 694.192 -0.760405 2.16219 0
M  V30 7340 C 695.192 -1.16595 1.10735 0
M  V30 7341 O 696.382 -1.08472 1.36306 0
M  V30 7342 C 693.514 -2.03358 2.73603 0
M  V30 7343 H 694.707 -0.243173 2.98912 0
M  V30 7344 H 692.26 -0.0893139 1.56045 0
M  V30 7345 H 692.995 -2.59416 1.94612 0
M  V30 7346 H 692.78 -1.75186 3.50788 0
M  V30 7347 H 694.27 -2.69081 3.19351 0
M  V30 7348 N 694.707 -1.5719 -0.113559 0
M  V30 7349 C 695.955 -1.84772 -0.818761 0
M  V30 7350 C 696.276 -0.746196 -1.80158 0
M  V30 7351 O 695.546 0.229305 -1.94553 0
M  V30 7352 H 694.126 -0.681737 -0.305359 0
M  V30 7353 H 696.788 -1.94645 -0.0995845 0
M  V30 7354 H 695.884 -2.80878 -1.36067 0
M  V30 7355 N 696.185 0.383891 -1.52853 0
M  V30 7356 C 697.431 1.13009 -1.68395 0
M  V30 7357 C 697.764 1.89488 -0.425195 0
M  V30 7358 O 697.039 1.8574 0.577136 0
M  V30 7359 C 697.322 2.10419 -2.92226 0
M  V30 7360 C 697.175 1.3767 -4.28214 0
M  V30 7361 C 698.494 3.10781 -3.11614 0
M  V30 7362 H 695.613 0.409463 -0.612788 0
M  V30 7363 H 698.255 0.412895 -1.85459 0
M  V30 7364 H 696.405 2.71579 -2.77808 0
M  V30 7365 H 698.077 0.794352 -4.54409 0
M  V30 7366 H 696.32 0.678533 -4.2846 0
M  V30 7367 H 696.991 2.08874 -5.10956 0
M  V30 7368 H 699.467 2.59715 -3.25096 0
M  V30 7369 H 698.343 3.76179 -3.99725 0
M  V30 7370 H 698.604 3.79933 -2.2606 0
M  V30 7371 N 697.663 1.43903 0.642637 0
M  V30 7372 C 698.593 1.52697 1.76652 0
M  V30 7373 C 699.574 0.380816 1.65782 0
M  V30 7374 O 700.759 0.599432 1.84717 0
M  V30 7375 C 697.889 1.45975 3.15133 0
M  V30 7376 C 696.843 2.58949 3.40778 0
M  V30 7377 C 696.169 2.37279 4.79169 0
M  V30 7378 C 697.469 4.01153 3.34475 0
M  V30 7379 H 699.163 2.46766 1.69549 0
M  V30 7380 H 696.709 1.18767 0.814279 0
M  V30 7381 H 698.662 1.5073 3.93521 0
M  V30 7382 H 697.386 0.484162 3.22991 0
M  V30 7383 H 696.045 2.53564 2.64765 0
M  V30 7384 H 695.693 1.37939 4.83717 0
M  V30 7385 H 695.393 3.13016 4.97287 0
M  V30 7386 H 696.917 2.43834 5.59801 0
M  V30 7387 H 698.331 4.07968 4.02784 0
M  V30 7388 H 696.728 4.77001 3.64129 0
M  V30 7389 H 697.798 4.25539 2.32475 0
M  V30 7390 N 699.141 -0.881989 1.30609 0
M  V30 7391 C 700.071 -2.00413 1.1982 0
M  V30 7392 C 701.052 -1.69871 0.0881538 0
M  V30 7393 O 702.237 -1.92304 0.2707 0
M  V30 7394 C 699.367 -3.35641 0.89233 0
M  V30 7395 C 698.321 -3.80451 1.96064 0
M  V30 7396 C 697.647 -5.13003 1.5077 0
M  V30 7397 C 698.947 -3.98855 3.37213 0
M  V30 7398 H 700.641 -2.09698 2.13699 0
M  V30 7399 H 698.187 -1.00754 1.02882 0
M  V30 7400 H 700.14 -4.13669 0.803497 0
M  V30 7401 H 698.864 -3.26497 -0.0821381 0
M  V30 7402 H 697.523 -3.04654 2.03916 0
M  V30 7403 H 697.171 -5.0029 0.521417 0
M  V30 7404 H 696.871 -5.43956 2.22229 0
M  V30 7405 H 698.395 -5.93554 1.43271 0
M  V30 7406 H 699.809 -4.67312 3.32103 0
M  V30 7407 H 698.206 -4.41188 4.06784 0
M  V30 7408 H 699.276 -3.02614 3.78883 0
M  V30 7409 N 700.619 -1.13374 -1.09472 0
M  V30 7410 C 701.582 -0.813639 -2.14272 0
M  V30 7411 C 702.582 0.176677 -1.59826 0
M  V30 7412 O 703.772 -0.0503441 -1.74127 0
M  V30 7413 C 700.904 -0.210897 -3.40247 0
M  V30 7414 H 702.097 -1.74229 -2.44099 0
M  V30 7415 H 699.65 -0.938304 -1.25002 0
M  V30 7416 H 700.385 0.726998 -3.16046 0
M  V30 7417 H 700.17 -0.924048 -3.81056 0
M  V30 7418 H 701.66 -0.00377603 -4.176 0
M  V30 7419 N 702.098 1.27442 -0.927168 0
M  V30 7420 C 703.345 1.94391 -0.567324 0
M  V30 7421 C 703.673 1.72875 0.891321 0
M  V30 7422 O 702.928 1.05071 1.65102 0
M  V30 7423 C 703.227 3.47413 -0.838994 0
M  V30 7424 C 702.893 3.89049 -2.2793 0
M  V30 7425 C 701.555 4.00127 -2.67305 0
M  V30 7426 C 703.907 4.10154 -3.21595 0
M  V30 7427 C 701.235 4.29697 -3.99471 0
M  V30 7428 C 703.587 4.41208 -4.53341 0
M  V30 7429 C 702.251 4.50499 -4.92551 0
M  V30 7430 H 701.521 0.711325 -0.207598 0
M  V30 7431 H 704.168 1.51523 -1.17103 0
M  V30 7432 H 702.473 3.91503 -0.152609 0
M  V30 7433 H 704.17 3.97354 -0.53955 0
M  V30 7434 H 700.76 3.80962 -1.96381 0
M  V30 7435 H 704.944 4.01036 -2.92377 0
M  V30 7436 H 700.2 4.35099 -4.29533 0
M  V30 7437 H 704.374 4.56486 -5.25922 0
M  V30 7438 H 702.001 4.73167 -5.94994 0
M  V30 7439 N 703.576 0.692616 1.41565 0
M  V30 7440 C 704.804 0.231279 2.05603 0
M  V30 7441 C 705.219 -1.11837 1.52111 0
M  V30 7442 O 704.576 -1.6983 0.66813 0
M  V30 7443 C 704.627 0.177125 3.61066 0
M  V30 7444 O 704.348 1.47346 4.12578 0
M  V30 7445 C 705.849 -0.30556 4.42246 0
M  V30 7446 H 703.069 0.108238 0.662213 0
M  V30 7447 H 705.613 0.944369 1.81389 0
M  V30 7448 H 703.768 -0.486769 3.8433 0
M  V30 7449 H 704.182 1.35861 5.06599 0
M  V30 7450 H 705.656 -0.29233 5.51225 0
M  V30 7451 H 706.133 -1.34393 4.18133 0
M  V30 7452 H 706.739 0.327229 4.24039 0
M  V30 7453 N 705.054 -1.51416 0.437162 0
M  V30 7454 C 705.984 -2.30631 -0.364922 0
M  V30 7455 C 706.965 -1.36037 -1.02118 0
M  V30 7456 O 708.15 -1.64956 -1.02485 0
M  V30 7457 C 705.28 -3.1482 -1.46648 0
M  V30 7458 C 704.234 -4.17691 -0.933717 0
M  V30 7459 C 703.56 -4.904 -2.13101 0
M  V30 7460 C 704.86 -5.2229 0.0317201 0
M  V30 7461 H 706.554 -2.97932 0.29614 0
M  V30 7462 H 704.1 -1.4328 0.143865 0
M  V30 7463 H 706.053 -3.69017 -2.03481 0
M  V30 7464 H 704.777 -2.4534 -2.15583 0
M  V30 7465 H 703.436 -3.64545 -0.387602 0
M  V30 7466 H 703.084 -4.17423 -2.80654 0
M  V30 7467 H 702.784 -5.59962 -1.78092 0
M  V30 7468 H 704.308 -5.4742 -2.70487 0
M  V30 7469 H 705.722 -5.7156 -0.446302 0
M  V30 7470 H 704.119 -5.99378 0.29437 0
M  V30 7471 H 705.189 -4.75131 0.968447 0
M  V30 7472 N 706.532 -0.168513 -1.56696 0
M  V30 7473 C 707.779 0.477158 -1.96798 0
M  V30 7474 C 708.107 1.63442 -1.05437 0
M  V30 7475 O 707.362 1.95503 -0.0878903 0
M  V30 7476 C 707.661 1.00441 -3.42996 0
M  V30 7477 C 707.327 -0.0366556 -4.50885 0
M  V30 7478 C 705.989 -0.322785 -4.80116 0
M  V30 7479 C 708.341 -0.743447 -5.1587 0
M  V30 7480 C 705.669 -1.32114 -5.71632 0
M  V30 7481 C 708.021 -1.73077 -6.08463 0
M  V30 7482 C 706.685 -2.02437 -6.36062 0
M  V30 7483 H 705.955 0.174604 -0.720135 0
M  V30 7484 H 708.602 -0.259884 -1.89728 0
M  V30 7485 H 706.907 1.81922 -3.47004 0
M  V30 7486 H 708.604 1.51294 -3.71364 0
M  V30 7487 H 705.194 0.196532 -4.28149 0
M  V30 7488 H 709.378 -0.535602 -4.93401 0
M  V30 7489 H 704.634 -1.55482 -5.913 0
M  V30 7490 H 708.808 -2.28382 -6.57886 0
M  V30 7491 H 706.435 -2.79946 -7.06777 0
M  V30 7492 N 708.01 1.57248 0.105221 0
M  V30 7493 C 709.238 1.89768 0.82437 0
M  V30 7494 C 709.653 0.761192 1.72775 0
M  V30 7495 O 709.01 -0.267342 1.80531 0
M  V30 7496 C 709.061 3.2184 1.64625 0
M  V30 7497 O 708.782 4.31115 0.779217 0
M  V30 7498 C 710.283 3.68155 2.46935 0
M  V30 7499 H 707.503 0.628031 0.236259 0
M  V30 7500 H 710.047 2.04321 0.085485 0
M  V30 7501 H 708.202 3.08915 2.33775 0
M  V30 7502 H 708.616 5.06897 1.34745 0
M  V30 7503 H 710.09 4.6329 3.00111 0
M  V30 7504 H 710.567 2.95492 3.24932 0
M  V30 7505 H 711.173 3.83914 1.83002 0
M  V30 7506 N 709.488 -0.375779 1.53054 0
M  V30 7507 C 710.735 -1.11948 1.68742 0
M  V30 7508 C 711.063 -1.89596 0.434015 0
M  V30 7509 O 710.318 -1.86787 -0.583867 0
M  V30 7510 C 710.617 -2.11356 2.88207 0
M  V30 7511 C 710.283 -1.50266 4.25124 0
M  V30 7512 C 708.945 -1.33333 4.62359 0
M  V30 7513 C 711.297 -1.05976 5.10312 0
M  V30 7514 C 708.625 -0.706765 5.82427 0
M  V30 7515 C 710.977 -0.447241 6.31017 0
M  V30 7516 C 709.641 -0.265314 6.66973 0
M  V30 7517 H 708.911 -0.409648 0.61747 0
M  V30 7518 H 711.558 -0.402492 1.87222 0
M  V30 7519 H 709.863 -2.89322 2.64197 0
M  V30 7520 H 711.56 -2.68833 2.97539 0
M  V30 7521 H 708.15 -1.64437 3.95801 0
M  V30 7522 H 712.334 -1.17855 4.82104 0
M  V30 7523 H 707.59 -0.554132 6.08884 0
M  V30 7524 H 711.764 -0.0958064 6.96334 0
M  V30 7525 H 709.391 0.222267 7.59875 0
M  V30 7526 N 710.966 -1.44241 -0.634997 0
M  V30 7527 C 712.213 -1.46821 -1.39463 0
M  V30 7528 C 712.541 -0.0993362 -1.94246 0
M  V30 7529 O 711.796 0.898325 -1.73864 0
M  V30 7530 C 712.095 -2.47279 -2.58046 0
M  V30 7531 C 711.761 -3.92703 -2.21574 0
M  V30 7532 C 710.423 -4.32306 -2.1134 0
M  V30 7533 C 712.775 -4.84271 -1.92695 0
M  V30 7534 C 710.103 -5.61407 -1.70409 0
M  V30 7535 C 712.455 -6.13755 -1.53258 0
M  V30 7536 C 711.119 -6.52316 -1.41562 0
M  V30 7537 H 710.389 -0.537256 -0.51033 0
M  V30 7538 H 713.036 -1.77431 -0.720441 0
M  V30 7539 H 711.341 -2.10138 -3.3068 0
M  V30 7540 H 713.038 -2.46523 -3.16271 0
M  V30 7541 H 709.628 -3.61369 -2.30456 0
M  V30 7542 H 713.812 -4.54432 -1.99513 0
M  V30 7543 H 709.068 -5.90105 -1.59955 0
M  V30 7544 H 713.242 -6.84168 -1.29949 0
M  V30 7545 H 710.869 -7.52255 -1.09619 0
M  V30 7546 N 712.444 0.87505 -1.31075 0
M  V30 7547 C 713.391 1.98178 -1.18296 0
M  V30 7548 C 714.361 1.65952 -0.0699923 0
M  V30 7549 O 715.546 1.8926 -0.241951 0
M  V30 7550 C 712.686 3.33399 -0.891024 0
M  V30 7551 C 711.799 3.78253 -2.08684 0
M  V30 7552 C 710.934 5.02166 -1.73212 0
M  V30 7553 C 709.973 5.39455 -2.89231 0
M  V30 7554 N 709.11 6.54549 -2.53989 0
M  V30 7555 H 713.95 2.0844 -2.12971 0
M  V30 7556 H 711.487 1.02047 -1.05948 0
M  V30 7557 H 713.445 4.11246 -0.702338 0
M  V30 7558 H 712.075 3.22794 0.0188799 0
M  V30 7559 H 711.127 2.9623 -2.38646 0
M  V30 7560 H 712.439 4.01821 -2.95536 0
M  V30 7561 H 711.593 5.87666 -1.50777 0
M  V30 7562 H 710.332 4.80491 -0.83544 0
M  V30 7563 H 709.337 4.52477 -3.12321 0
M  V30 7564 H 710.562 5.63098 -3.79601 0
M  V30 7565 H 708.508 6.3443 -1.66838 0
M  V30 7566 H 708.425 6.78035 -3.34372 0
M  V30 7567 H 709.693 7.43254 -2.34934 0
M  V30 7568 N 713.922 1.13953 1.08869 0
M  V30 7569 C 715.168 0.906151 1.8143 0
M  V30 7570 C 715.501 -0.566089 1.85766 0
M  V30 7571 O 714.776 -1.41915 1.33006 0
M  V30 7572 C 715.059 1.50183 3.27287 0
M  V30 7573 C 714.912 3.04359 3.31189 0
M  V30 7574 C 716.231 1.17477 4.24131 0
M  V30 7575 H 713.35 0.330624 0.658678 0
M  V30 7576 H 715.992 1.40873 1.27495 0
M  V30 7577 H 714.142 1.07442 3.73348 0
M  V30 7578 H 715.814 3.55896 2.93488 0
M  V30 7579 H 714.057 3.39053 2.70602 0
M  V30 7580 H 714.728 3.41141 4.33966 0
M  V30 7581 H 717.204 1.5442 3.86385 0
M  V30 7582 H 716.08 1.61795 5.24513 0
M  V30 7583 H 716.341 0.0893312 4.4201 0
M  V30 7584 N 715.4 -1.26948 0.933913 0
M  V30 7585 C 716.811 -1.76058 0.621324 0
M  V30 7586 C 717.162 -1.76175 -0.863522 0
M  V30 7587 O 716.287 -1.36921 -1.67576 0
M  V30 7588 C 716.882 -3.19713 1.12111 0
M  V30 7589 C 715.441 -3.66465 0.859074 0
M  V30 7590 C 714.588 -2.46186 1.27624 0
M  V30 7591 H 717.539 -1.13127 1.11301 0
M  V30 7592 H 717.56 -3.77566 0.471608 0
M  V30 7593 H 717.072 -3.19596 2.20182 0
M  V30 7594 H 715.173 -3.72021 -0.207566 0
M  V30 7595 H 715.286 -4.55636 1.48098 0
M  V30 7596 H 713.65 -2.45042 0.694727 0
M  V30 7597 H 714.433 -2.48774 2.36572 0
M  V30 7598 N 716.879 -0.700114 -1.41195 0
M  V30 7599 C 717.789 -0.0382854 -2.34569 0
M  V30 7600 C 718.805 0.761036 -1.56474 0
M  V30 7601 O 719.981 0.697553 -1.88934 0
M  V30 7602 C 717.046 0.883522 -3.35253 0
M  V30 7603 C 716.107 0.0758957 -4.29233 0
M  V30 7604 C 715.34 0.9538 -5.25108 0
M  V30 7605 O 715.563 2.19326 -5.26547 0
M  V30 7606 O 714.497 0.401049 -6.00562 0
M  V30 7607 H 718.323 -0.808073 -2.92752 0
M  V30 7608 H 715.908 -0.460479 -1.42127 0
M  V30 7609 H 717.79 1.41199 -3.9704 0
M  V30 7610 H 716.465 1.63272 -2.79506 0
M  V30 7611 H 715.372 -0.497274 -3.7078 0
M  V30 7612 H 716.705 -0.634741 -4.8809 0
M  V30 7613 N 718.357 1.51182 -0.445186 0
M  V30 7614 C 719.585 2.06568 0.117091 0
M  V30 7615 C 720 1.31182 1.35781 0
M  V30 7616 O 719.357 0.373605 1.78635 0
M  V30 7617 C 719.408 3.58917 0.431408 0
M  V30 7618 O 719.129 4.31456 -0.760078 0
M  V30 7619 C 720.63 4.30843 1.0435 0
M  V30 7620 H 717.85 0.670985 0.00444436 0
M  V30 7621 H 720.394 1.94666 -0.626525 0
M  V30 7622 H 718.549 3.70708 1.12493 0
M  V30 7623 H 718.963 5.22215 -0.489048 0
M  V30 7624 H 720.437 5.38499 1.21337 0
M  V30 7625 H 720.914 3.89644 2.02667 0
M  V30 7626 H 721.52 4.23516 0.38913 0
M  V30 7627 N 719.835 0.176821 1.56605 0
M  V30 7628 C 720.782 -0.751312 2.18229 0
M  V30 7629 C 721.752 -1.22297 1.12395 0
M  V30 7630 O 722.937 -1.29015 1.40569 0
M  V30 7631 C 720.077 -1.97291 2.83143 0
M  V30 7632 C 719.19 -1.54431 4.03454 0
M  V30 7633 C 718.325 -2.72 4.56278 0
M  V30 7634 C 717.364 -2.25657 5.68986 0
M  V30 7635 N 716.501 -3.36338 6.16296 0
M  V30 7636 H 721.341 -0.219033 2.97194 0
M  V30 7637 H 718.878 -0.0963803 1.46784 0
M  V30 7638 H 720.836 -2.68949 3.1894 0
M  V30 7639 H 719.466 -2.4788 2.06773 0
M  V30 7640 H 718.518 -0.724273 3.73441 0
M  V30 7641 H 719.83 -1.16417 4.85024 0
M  V30 7642 H 718.984 -3.51806 4.94285 0
M  V30 7643 H 717.723 -3.13277 3.73777 0
M  V30 7644 H 716.728 -1.44299 5.30526 0
M  V30 7645 H 717.953 -1.85432 6.53293 0
M  V30 7646 H 715.899 -3.7718 5.36723 0
M  V30 7647 H 715.816 -3.02435 6.9287 0
M  V30 7648 H 717.084 -4.16413 6.58954 0
M  V30 7649 N 721.313 -1.57302 -0.09688 0
M  V30 7650 C 722.561 -1.8563 -0.799117 0
M  V30 7651 C 722.882 -0.765263 -1.79356 0
M  V30 7652 O 722.152 0.208657 -1.94786 0
M  V30 7653 H 720.732 -0.684937 -0.298111 0
M  V30 7654 H 723.394 -1.9474 -0.0789341 0
M  V30 7655 H 722.49 -2.82305 -1.3308 0
M  V30 7656 N 722.791 0.367657 -1.53252 0
M  V30 7657 C 723.738 1.45028 -1.79543 0
M  V30 7658 C 724.708 1.53288 -0.63969 0
M  V30 7659 O 725.893 1.69209 -0.881653 0
M  V30 7660 C 723.033 2.82 -1.98923 0
M  V30 7661 C 722.146 2.82722 -3.26638 0
M  V30 7662 C 721.281 4.11257 -3.36216 0
M  V30 7663 C 720.32 4.06113 -4.57972 0
M  V30 7664 N 719.457 5.26293 -4.64715 0
M  V30 7665 H 724.297 1.21908 -2.71923 0
M  V30 7666 H 721.834 0.591011 -1.34705 0
M  V30 7667 H 723.792 3.61568 -2.08146 0
M  V30 7668 H 722.422 3.03523 -1.09881 0
M  V30 7669 H 721.474 1.95399 -3.26379 0
M  V30 7670 H 722.786 2.74794 -4.16281 0
M  V30 7671 H 721.94 4.99239 -3.44739 0
M  V30 7672 H 720.679 4.21935 -2.44586 0
M  V30 7673 H 719.684 3.16517 -4.49552 0
M  V30 7674 H 720.909 3.97039 -5.50942 0
M  V30 7675 H 718.855 5.37561 -3.75985 0
M  V30 7676 H 718.772 5.20526 -5.4826 0
M  V30 7677 H 720.04 6.16113 -4.77519 0
M  V30 7678 N 724.269 1.44576 0.627338 0
M  V30 7679 C 725.494 1.51271 1.41887 0
M  V30 7680 C 725.919 0.139814 1.8758 0
M  V30 7681 O 725.277 -0.871746 1.58966 0
M  V30 7682 C 725.325 2.48529 2.61277 0
M  V30 7683 O 724.429 1.98944 3.61241 0
M  V30 7684 H 723.77 0.510668 0.424399 0
M  V30 7685 H 726.3 1.89746 0.765356 0
M  V30 7686 H 726.31 2.66689 3.08773 0
M  V30 7687 H 724.985 3.48249 2.27366 0
M  V30 7688 H 723.562 1.90568 3.20528 0
M  V30 7689 N 725.747 -0.868086 1.31537 0
M  V30 7690 C 726.994 -1.62127 1.2133 0
M  V30 7691 C 727.322 -1.93158 -0.2281 0
M  V30 7692 O 726.577 -1.5632 -1.1774 0
M  V30 7693 C 726.876 -2.95889 2.0046 0
M  V30 7694 C 726.542 -2.84343 3.49943 0
M  V30 7695 C 725.204 -2.80901 3.90702 0
M  V30 7696 C 727.556 -2.71243 4.45058 0
M  V30 7697 C 724.884 -2.6222 5.24841 0
M  V30 7698 C 727.236 -2.54098 5.79325 0
M  V30 7699 C 725.9 -2.4904 6.19302 0
M  V30 7700 H 725.17 -0.593265 0.443979 0
M  V30 7701 H 727.817 -1.00803 1.62822 0
M  V30 7702 H 726.122 -3.61259 1.51655 0
M  V30 7703 H 727.819 -3.53161 1.89942 0
M  V30 7704 H 724.409 -2.8784 3.17563 0
M  V30 7705 H 728.593 -2.72956 4.14498 0
M  V30 7706 H 723.849 -2.56731 5.54887 0
M  V30 7707 H 728.023 -2.42938 6.52652 0
M  V30 7708 H 725.65 -2.34324 7.23185 0
M  V30 7709 N 727.225 -1.14528 -1.08264 0
M  V30 7710 C 728.135 -0.84728 -2.18765 0
M  V30 7711 C 729.151 0.172826 -1.7314 0
M  V30 7712 O 730.327 0.000985336 -2.014 0
M  V30 7713 C 727.392 -0.330633 -3.4512 0
M  V30 7714 C 726.453 -1.41348 -4.05363 0
M  V30 7715 C 725.686 -0.921387 -5.25686 0
M  V30 7716 O 725.909 0.236587 -5.69909 0
M  V30 7717 O 724.843 -1.70101 -5.77364 0
M  V30 7718 H 728.669 -1.7708 -2.46731 0
M  V30 7719 H 726.254 -0.923661 -1.17426 0
M  V30 7720 H 728.136 -0.0485053 -4.21372 0
M  V30 7721 H 726.811 0.565147 -3.18728 0
M  V30 7722 H 725.718 -1.74908 -3.30693 0
M  V30 7723 H 727.051 -2.28383 -4.36007 0
M  V30 7724 N 728.703 1.26451 -0.940633 0
M  V30 7725 C 729.613 2.30128 -0.455881 0
M  V30 7726 C 730.629 1.67536 0.469867 0
M  V30 7727 O 731.805 1.98344 0.349529 0
M  V30 7728 C 728.87 3.45634 0.271648 0
M  V30 7729 C 727.931 4.23709 -0.690594 0
M  V30 7730 C 727.164 5.337 0.00231047 0
M  V30 7731 O 727.387 5.57215 1.21935 0
M  V30 7732 O 726.321 5.98091 -0.676111 0
M  V30 7733 H 730.147 2.73655 -1.31707 0
M  V30 7734 H 727.732 1.3164 -0.706497 0
M  V30 7735 H 729.614 4.15853 0.681486 0
M  V30 7736 H 728.289 3.04138 1.10824 0
M  V30 7737 H 727.196 3.55974 -1.15037 0
M  V30 7738 H 728.529 4.68953 -1.49478 0
M  V30 7739 N 730.181 0.707592 1.40822 0
M  V30 7740 C 731.43 0.240705 2.00259 0
M  V30 7741 C 731.743 -1.17027 1.56729 0
M  V30 7742 O 732.949 -1.73526 2.08809 0
M  V30 7743 C 731.405 0.379432 3.57894 0
M  V30 7744 C 731.013 1.79654 4.104 0
M  V30 7745 C 732.757 -0.0270684 4.24491 0
M  V30 7746 C 730.664 1.88628 5.60512 0
M  V30 7747 H 729.594 0.0862369 0.749052 0
M  V30 7748 H 732.245 0.877528 1.61157 0
M  V30 7749 H 730.627 -0.325842 3.94657 0
M  V30 7750 H 731.801 2.53155 3.85032 0
M  V30 7751 H 730.116 2.15379 3.56372 0
M  V30 7752 H 732.713 0.0193743 5.34696 0
M  V30 7753 H 733.056 -1.06772 4.02375 0
M  V30 7754 H 733.589 0.628361 3.92806 0
M  V30 7755 H 730.328 2.90787 5.87472 0
M  V30 7756 H 729.848 1.19528 5.8777 0
M  V30 7757 H 731.527 1.6547 6.25483 0
M  V30 7758 N 731.66 -1.50943 0.453197 0
M  V30 7759 C 732.623 -2.26684 -0.338705 0
M  V30 7760 C 733.623 -1.30748 -0.936032 0
M  V30 7761 O 734.813 -1.54327 -0.808002 0
M  V30 7762 C 731.945 -3.07063 -1.48071 0
M  V30 7763 H 733.138 -2.98131 0.325289 0
M  V30 7764 H 730.691 -1.54926 0.206771 0
M  V30 7765 H 731.426 -2.4007 -2.18029 0
M  V30 7766 H 731.211 -3.77545 -1.0584 0
M  V30 7767 H 732.701 -3.64393 -2.0398 0
M  V30 7768 N 733.138 -0.185124 -1.56509 0
M  V30 7769 C 734.101 0.72591 -2.17401 0
M  V30 7770 C 735.101 1.14819 -1.12575 0
M  V30 7771 O 736.291 1.0629 -1.38015 0
M  V30 7772 C 733.423 1.98979 -2.76803 0
M  V30 7773 H 734.616 0.195588 -2.99262 0
M  V30 7774 H 732.169 0.0644772 -1.56167 0
M  V30 7775 H 732.904 2.56287 -1.98714 0
M  V30 7776 H 732.689 1.69583 -3.53531 0
M  V30 7777 H 734.179 2.63966 -3.23592 0
M  V30 7778 N 734.616 1.57351 0.0885366 0
M  V30 7779 C 735.526 2.05858 1.12516 0
M  V30 7780 C 736.542 0.984758 1.43452 0
M  V30 7781 O 737.718 1.29836 1.53963 0
M  V30 7782 C 734.783 2.47882 2.42395 0
M  V30 7783 C 733.844 3.69487 2.18582 0
M  V30 7784 C 733.077 4.09497 3.42268 0
M  V30 7785 O 733.3 3.49536 4.50755 0
M  V30 7786 O 732.234 5.02406 3.31469 0
M  V30 7787 H 736.06 2.94467 0.743146 0
M  V30 7788 H 733.645 1.46326 0.301507 0
M  V30 7789 H 735.527 2.75509 3.18862 0
M  V30 7790 H 734.202 1.62408 2.8001 0
M  V30 7791 H 733.109 3.46967 1.39875 0
M  V30 7792 H 734.442 4.55761 1.85857 0
M  V30 7793 N 736.094 -0.359525 1.53444 0
M  V30 7794 C 737.341 -1.10152 1.6992 0
M  V30 7795 C 737.669 -1.89125 0.4541 0
M  V30 7796 O 736.924 -1.87396 -0.564023 0
M  V30 7797 C 737.223 -2.08287 2.90433 0
M  V30 7798 C 736.889 -1.45749 4.26694 0
M  V30 7799 C 735.551 -1.28421 4.63747 0
M  V30 7800 C 737.903 -1.00557 5.11408 0
M  V30 7801 C 735.231 -0.644951 5.83144 0
M  V30 7802 C 737.583 -0.380288 6.31456 0
M  V30 7803 C 736.247 -0.194557 6.67216 0
M  V30 7804 H 735.517 -0.403076 0.621781 0
M  V30 7805 H 738.164 -0.382612 1.87639 0
M  V30 7806 H 736.469 -2.86503 2.67251 0
M  V30 7807 H 738.166 -2.65662 3.00374 0
M  V30 7808 H 734.756 -1.6023 3.97523 0
M  V30 7809 H 738.94 -1.12735 4.83326 0
M  V30 7810 H 734.196 -0.48952 6.09437 0
M  V30 7811 H 738.37 -0.0219455 6.96397 0
M  V30 7812 H 735.997 0.30285 7.59597 0
M  V30 7813 N 737.572 -1.44907 -0.619662 0
M  V30 7814 C 738.504 -1.48652 -1.74457 0
M  V30 7815 C 739.517 -0.378596 -1.58337 0
M  V30 7816 O 740.706 -0.644987 -1.6644 0
M  V30 7817 C 737.806 -1.31568 -3.12319 0
M  V30 7818 C 736.979 -2.55816 -3.54792 0
M  V30 7819 C 736.038 -2.33465 -4.71573 0
M  V30 7820 O 735.064 -3.07015 -4.79302 0
M  V30 7821 N 736.266 -1.37254 -5.6404 0
M  V30 7822 H 739.031 -2.45632 -1.71712 0
M  V30 7823 H 736.592 -1.40492 -0.804582 0
M  V30 7824 H 738.584 -1.14445 -3.88181 0
M  V30 7825 H 737.154 -0.429095 -3.09641 0
M  V30 7826 H 736.374 -2.88137 -2.69018 0
M  V30 7827 H 737.662 -3.38431 -3.79924 0
M  V30 7828 H 737.06 -0.765309 -5.60499 0
M  V30 7829 H 735.617 -1.26106 -6.39485 0
M  V30 7830 N 739.05 0.861098 -1.31996 0
M  V30 7831 C 739.997 1.96912 -1.20392 0
M  V30 7832 C 740.967 1.65869 -0.0875899 0
M  V30 7833 O 742.152 1.88992 -0.262011 0
M  V30 7834 C 739.292 3.32435 -0.926335 0
M  V30 7835 C 738.405 3.76018 -2.12684 0
M  V30 7836 C 737.54 5.00301 -1.78529 0
M  V30 7837 C 736.579 5.36357 -2.94937 0
M  V30 7838 N 735.716 6.51818 -2.60917 0
M  V30 7839 H 740.556 2.06169 -2.1517 0
M  V30 7840 H 738.093 1.00917 -1.07024 0
M  V30 7841 H 740.051 4.10478 -0.745917 0
M  V30 7842 H 738.681 3.22796 -0.0153578 0
M  V30 7843 H 737.733 2.93683 -2.41774 0
M  V30 7844 H 739.045 3.98664 -2.99781 0
M  V30 7845 H 738.199 5.86034 -1.57001 0
M  V30 7846 H 736.938 4.79578 -0.886356 0
M  V30 7847 H 735.943 4.49139 -3.17103 0
M  V30 7848 H 737.168 5.59041 -3.85552 0
M  V30 7849 H 735.114 6.32624 -1.73558 0
M  V30 7850 H 735.031 6.7445 -3.41544 0
M  V30 7851 H 736.299 7.4072 -2.42804 0
M  V30 7852 N 740.528 1.15101 1.07655 0
M  V30 7853 C 741.475 0.844958 2.14777 0
M  V30 7854 C 742.445 -0.200798 1.64882 0
M  V30 7855 O 743.63 -0.0690278 1.90675 0
M  V30 7856 C 740.77 0.337018 3.4345 0
M  V30 7857 C 739.883 1.44398 4.07153 0
M  V30 7858 C 739.018 0.892487 5.23649 0
M  V30 7859 C 738.057 1.9766 5.79307 0
M  V30 7860 N 737.194 1.44171 6.87138 0
M  V30 7861 H 742.034 1.76242 2.40297 0
M  V30 7862 H 739.571 0.879435 1.17917 0
M  V30 7863 H 741.529 0.024256 4.17193 0
M  V30 7864 H 740.159 -0.543531 3.18191 0
M  V30 7865 H 739.211 1.87299 3.31094 0
M  V30 7866 H 740.523 2.26262 4.4453 0
M  V30 7867 H 739.677 0.532083 6.04362 0
M  V30 7868 H 738.416 0.0429854 4.87681 0
M  V30 7869 H 737.421 2.34586 4.97242 0
M  V30 7870 H 738.646 2.82982 6.17331 0
M  V30 7871 H 736.592 0.614518 6.53115 0
M  V30 7872 H 736.509 2.19665 7.23383 0
M  V30 7873 H 737.777 1.10945 7.71564 0
M  V30 7874 N 742.006 -1.2595 0.947325 0
M  V30 7875 C 743.231 -1.98083 0.614633 0
M  V30 7876 C 743.656 -1.70013 -0.804815 0
M  V30 7877 O 743.014 -0.95175 -1.54309 0
M  V30 7878 C 743.062 -3.4993 0.870706 0
M  V30 7879 O 742.166 -4.12364 -0.0541451 0
M  V30 7880 H 741.507 -0.621232 0.234451 0
M  V30 7881 H 744.037 -1.60259 1.27193 0
M  V30 7882 H 744.047 -4.00198 0.794051 0
M  V30 7883 H 742.722 -3.69691 1.90529 0
M  V30 7884 H 741.299 -3.72826 0.0740917 0
M  V30 7885 N 743.484 -0.715051 -1.40445 0
M  V30 7886 C 744.732 -0.253826 -2.005 0
M  V30 7887 C 745.053 1.15681 -1.5698 0
M  V30 7888 O 744.323 1.78414 -0.809027 0
M  V30 7889 H 742.903 -0.0908537 -0.741454 0
M  V30 7890 H 745.565 -0.920561 -1.7179 0
M  V30 7891 H 744.661 -0.286499 -3.10782 0
M  V30 7892 N 744.962 1.50701 -0.461195 0
M  V30 7893 C 746.187 2.07171 0.0974773 0
M  V30 7894 C 746.612 1.32391 1.3362 0
M  V30 7895 O 745.97 0.368676 1.77512 0
M  V30 7896 C 746.018 3.58651 0.374409 0
M  V30 7897 O 745.122 3.85816 1.4567 0
M  V30 7898 H 744.463 0.663944 -0.00862047 0
M  V30 7899 H 746.993 1.94021 -0.649394 0
M  V30 7900 H 747.003 4.03295 0.617843 0
M  V30 7901 H 745.678 4.12498 -0.530829 0
M  V30 7902 H 744.255 3.53018 1.20136 0
M  V30 7903 N 746.441 0.193421 1.56409 0
M  V30 7904 C 747.404 -0.714371 2.17783 0
M  V30 7905 C 748.404 -1.1422 1.13183 0
M  V30 7906 O 749.594 -1.05557 1.38576 0
M  V30 7907 C 746.726 -1.97509 2.77855 0
M  V30 7908 H 747.919 -0.179714 2.99361 0
M  V30 7909 H 745.472 -0.0561944 1.56199 0
M  V30 7910 H 746.207 -2.5523 2.0007 0
M  V30 7911 H 745.992 -1.67706 3.54425 0
M  V30 7912 H 747.482 -2.62246 3.24987 0
M  V30 7913 N 747.919 -1.57396 -0.0801906 0
M  V30 7914 C 748.869 -1.9955 -1.10289 0
M  V30 7915 C 749.853 -0.876234 -1.34948 0
M  V30 7916 O 751.045 -1.14012 -1.35389 0
M  V30 7917 C 748.174 -2.43596 -2.419 0
M  V30 7918 C 747.26 -3.6224 -2.20551 0
M  V30 7919 N 747.651 -4.76693 -1.69109 0
M  V30 7920 C 745.949 -3.68627 -2.51059 0
M  V30 7921 C 746.65 -5.58577 -1.62379 0
M  V30 7922 N 745.626 -5.02178 -2.0813 0
M  V30 7923 H 749.428 -2.85483 -0.698335 0
M  V30 7924 H 746.942 -1.59837 -0.287395 0
M  V30 7925 H 748.939 -2.72031 -3.15919 0
M  V30 7926 H 747.599 -1.59047 -2.8308 0
M  V30 7927 H 748.61 -4.9915 -1.38092 0
M  V30 7928 H 745.287 -2.94772 -2.95661 0
M  V30 7929 H 746.677 -6.60447 -1.2353 0
M  V30 7930 N 749.397 0.351382 -1.53633 0
M  V30 7931 C 750.813 0.693987 -1.43722 0
M  V30 7932 C 751.013 1.9274 -0.587669 0
M  V30 7933 O 750.069 2.52387 -0.0756082 0
M  V30 7934 C 751.382 0.893937 -2.87105 0
M  V30 7935 C 752.93 0.993051 -2.96829 0
M  V30 7936 C 753.405 1.22537 -4.41303 0
M  V30 7937 N 754.896 1.29275 -4.44795 0
M  V30 7938 C 755.631 1.48988 -5.53706 0
M  V30 7939 N 755.127 1.65924 -6.72637 0
M  V30 7940 N 756.92 1.51472 -5.41306 0
M  V30 7941 H 749.071 -0.459688 -2.07366 0
M  V30 7942 H 751.334 -0.143684 -0.937048 0
M  V30 7943 H 751.04 0.0592517 -3.5165 0
M  V30 7944 H 750.914 1.79795 -3.31592 0
M  V30 7945 H 753.301 1.81827 -2.32429 0
M  V30 7946 H 753.382 0.0661119 -2.55715 0
M  V30 7947 H 753.026 0.405117 -5.06282 0
M  V30 7948 H 752.956 2.16575 -4.80003 0
M  V30 7949 H 755.447 1.17743 -3.59089 0
M  V30 7950 H 755.76 1.80578 -7.51406 0
M  V30 7951 H 754.105 1.63075 -6.75597 0
M  V30 7952 H 757.296 1.37818 -4.47352 0
M  V30 7953 H 757.469 1.66493 -6.26246 0
M  V30 7954 N 750.875 1.45233 0.611969 0
M  V30 7955 C 752.286 1.4354 1.19387 0
M  V30 7956 C 752.637 0.160713 1.95541 0
M  V30 7957 O 751.762 -0.737954 2.03429 0
M  V30 7958 C 752.357 2.60045 2.17169 0
M  V30 7959 C 750.916 2.61486 2.70744 0
M  V30 7960 C 750.063 2.35708 1.46072 0
M  V30 7961 H 753.014 1.53536 0.401529 0
M  V30 7962 H 753.035 2.33893 3.00124 0
M  V30 7963 H 752.547 3.52803 1.61714 0
M  V30 7964 H 750.648 1.72721 3.30149 0
M  V30 7965 H 750.761 3.60572 3.15476 0
M  V30 7966 H 749.125 1.85178 1.74875 0
M  V30 7967 H 749.908 3.30606 0.924922 0
M  V30 7968 N 752.353 -0.854086 1.3245 0
M  V30 7969 C 753.3 -1.96271 1.21434 0
M  V30 7970 C 754.27 -1.6582 0.0963851 0
M  V30 7971 O 755.455 -1.88851 0.27203 0
M  V30 7972 C 752.595 -3.31939 0.943952 0
M  V30 7973 C 751.708 -3.74885 2.14675 0
M  V30 7974 C 750.843 -4.99347 1.81179 0
M  V30 7975 C 749.882 -5.34785 2.97777 0
M  V30 7976 N 749.019 -6.50425 2.6437 0
M  V30 7977 H 753.859 -2.05025 2.16261 0
M  V30 7978 H 751.396 -1.00348 1.07558 0
M  V30 7979 H 753.354 -4.10076 0.767675 0
M  V30 7980 H 751.984 -3.22784 0.0324763 0
M  V30 7981 H 751.036 -2.92396 2.43328 0
M  V30 7982 H 752.348 -3.97068 3.01891 0
M  V30 7983 H 751.502 -5.85193 1.60107 0
M  V30 7984 H 750.241 -4.79101 0.911777 0
M  V30 7985 H 749.246 -4.47451 3.1948 0
M  V30 7986 H 750.471 -5.56988 3.88511 0
M  V30 7987 H 748.417 -6.31695 1.7691 0
M  V30 7988 H 748.334 -6.7263 3.45116 0
M  V30 7989 H 749.602 -7.39422 2.46729 0
M  V30 7990 N 753.831 -1.1567 -1.07043 0
M  V30 7991 C 754.794 -0.858906 -2.12498 0
M  V30 7992 C 755.794 0.142735 -1.60165 0
M  V30 7993 O 756.984 -0.0872678 -1.73981 0
M  V30 7994 C 754.116 -0.283021 -3.39723 0
M  V30 7995 H 755.309 -1.79368 -2.40348 0
M  V30 7996 H 752.862 -0.964608 -1.22984 0
M  V30 7997 H 753.597 0.659796 -3.17517 0
M  V30 7998 H 753.382 -1.00467 -3.7901 0
M  V30 7999 H 754.872 -0.0923543 -4.17498 0
M  V30 8000 N 755.309 1.25446 -0.953992 0
M  V30 8001 C 756.272 2.24156 -0.478179 0
M  V30 8002 C 757.272 1.55278 0.417776 0
M  V30 8003 O 758.462 1.72866 0.215155 0
M  V30 8004 C 755.594 3.39495 0.309202 0
M  V30 8005 H 756.787 2.67764 -1.35064 0
M  V30 8006 H 754.34 1.37822 -0.737206 0
M  V30 8007 H 755.075 3.01307 1.19936 0
M  V30 8008 H 754.86 3.90679 -0.333562 0
M  V30 8009 H 756.35 4.12796 0.631594 0
M  V30 8010 N 756.787 0.722489 1.40064 0
M  V30 8011 C 758.033 0.265371 2.01056 0
M  V30 8012 C 758.366 -1.14062 1.57174 0
M  V30 8013 O 757.641 -1.77514 0.794916 0
M  V30 8014 C 757.924 0.353157 3.58364 0
M  V30 8015 C 757.777 1.79802 4.123 0
M  V30 8016 C 759.096 -0.271677 4.39261 0
M  V30 8017 H 756.215 0.0979002 0.730469 0
M  V30 8018 H 758.857 0.916289 1.66446 0
M  V30 8019 H 757.007 -0.201037 3.87979 0
M  V30 8020 H 758.679 2.40813 3.93455 0
M  V30 8021 H 756.922 2.32348 3.66329 0
M  V30 8022 H 757.593 1.81079 5.21454 0
M  V30 8023 H 760.069 0.200607 4.15616 0
M  V30 8024 H 758.945 -0.179843 5.48605 0
M  V30 8025 H 759.206 -1.35611 4.20787 0
M  V30 8026 N 758.265 -1.50454 0.469181 0
M  V30 8027 C 759.175 -2.32248 -0.331349 0
M  V30 8028 C 760.191 -1.42548 -0.997807 0
M  V30 8029 O 761.367 -1.75602 -0.9862 0
M  V30 8030 C 758.432 -3.17171 -1.40012 0
M  V30 8031 C 757.493 -4.2269 -0.750463 0
M  V30 8032 C 756.726 -5.03554 -1.76831 0
M  V30 8033 O 756.949 -4.85469 -2.99459 0
M  V30 8034 O 755.883 -5.86767 -1.3412 0
M  V30 8035 H 759.709 -3.01821 0.337279 0
M  V30 8036 H 757.294 -1.47602 0.231066 0
M  V30 8037 H 759.176 -3.69871 -2.01924 0
M  V30 8038 H 757.851 -2.50328 -2.05226 0
M  V30 8039 H 756.758 -3.73986 -0.0924446 0
M  V30 8040 H 758.091 -4.91997 -0.14131 0
M  V30 8041 N 759.743 -0.201713 -1.56304 0
M  V30 8042 C 760.676 0.755976 -2.15314 0
M  V30 8043 C 761.654 1.20497 -1.09175 0
M  V30 8044 O 762.838 1.2913 -1.37323 0
M  V30 8045 C 759.965 2.02177 -2.71739 0
M  V30 8046 C 759.011 1.71436 -3.90528 0
M  V30 8047 S 759.844 0.856624 -5.28604 0
M  V30 8048 C 761 2.13242 -5.88455 0
M  V30 8049 H 761.233 0.254348 -2.9621 0
M  V30 8050 H 758.766 0.0133669 -1.54394 0
M  V30 8051 H 760.724 2.74867 -3.04891 0
M  V30 8052 H 759.385 2.49452 -1.90873 0
M  V30 8053 H 758.578 2.65433 -4.28441 0
M  V30 8054 H 758.18 1.06823 -3.5842 0
M  V30 8055 H 760.472 3.08435 -6.0322 0
M  V30 8056 H 761.415 1.7975 -6.84905 0
M  V30 8057 H 761.823 2.2639 -5.17115 0
M  V30 8058 N 761.222 1.57436 0.0718424 0
M  V30 8059 C 762.169 2.03686 1.08539 0
M  V30 8060 C 763.139 0.917474 1.38462 0
M  V30 8061 O 764.324 1.18513 1.4953 0
M  V30 8062 C 761.464 2.48566 2.39393 0
M  V30 8063 C 760.577 3.74122 2.16001 0
M  V30 8064 C 759.712 4.07786 3.40418 0
M  V30 8065 C 758.751 5.26383 3.1239 0
M  V30 8066 N 757.888 5.55685 4.29138 0
M  V30 8067 H 762.728 2.90043 0.684018 0
M  V30 8068 H 760.265 1.43438 0.326183 0
M  V30 8069 H 762.223 2.72639 3.15791 0
M  V30 8070 H 760.853 1.65186 2.77333 0
M  V30 8071 H 759.905 3.57389 1.30296 0
M  V30 8072 H 761.217 4.60659 1.91298 0
M  V30 8073 H 760.371 4.32759 4.25211 0
M  V30 8074 H 759.11 3.19817 3.68197 0
M  V30 8075 H 758.115 5.01206 2.25993 0
M  V30 8076 H 759.34 6.1597 2.85934 0
M  V30 8077 H 757.286 4.70675 4.56948 0
M  V30 8078 H 757.203 6.3664 4.07708 0
M  V30 8079 H 758.471 5.85209 5.14928 0
M  V30 8080 N 762.7 -0.34323 1.53817 0
M  V30 8081 C 763.947 -1.08344 1.71079 0
M  V30 8082 C 764.275 -1.88633 0.474133 0
M  V30 8083 O 763.53 -1.87984 -0.544116 0
M  V30 8084 C 763.829 -2.05195 2.92626 0
M  V30 8085 C 763.495 -1.41215 4.28216 0
M  V30 8086 C 762.157 -1.23495 4.65083 0
M  V30 8087 C 764.509 -0.951273 5.12445 0
M  V30 8088 C 761.837 -0.583065 5.83796 0
M  V30 8089 C 764.189 -0.313292 6.31824 0
M  V30 8090 C 762.853 -0.123779 6.67385 0
M  V30 8091 H 762.123 -0.396458 0.626021 0
M  V30 8092 H 764.77 -0.362689 1.88034 0
M  V30 8093 H 763.075 -2.83653 2.70275 0
M  V30 8094 H 764.772 -2.62462 3.03175 0
M  V30 8095 H 761.362 -1.56005 3.992 0
M  V30 8096 H 765.546 -1.07602 4.84495 0
M  V30 8097 H 760.802 -0.424854 6.09922 0
M  V30 8098 H 764.976 0.0519179 6.96381 0
M  V30 8099 H 762.603 0.383398 7.59233 0
M  V30 8100 N 764.178 -1.45556 -0.604258 0
M  V30 8101 C 765.108 -1.57327 -1.72541 0
M  V30 8102 C 766.089 -0.424637 -1.64714 0
M  V30 8103 O 767.274 -0.648196 -1.83063 0
M  V30 8104 C 764.404 -1.54279 -3.11152 0
M  V30 8105 C 763.358 -2.67893 -3.33792 0
M  V30 8106 C 762.684 -2.499 -4.72709 0
M  V30 8107 C 763.984 -4.0988 -3.23722 0
M  V30 8108 H 765.678 -2.51175 -1.62947 0
M  V30 8109 H 763.224 -1.20884 -0.782504 0
M  V30 8110 H 765.177 -1.6111 -3.89386 0
M  V30 8111 H 763.901 -0.569627 -3.21594 0
M  V30 8112 H 762.56 -2.60495 -2.57949 0
M  V30 8113 H 762.208 -1.50715 -4.79889 0
M  V30 8114 H 761.908 -3.26091 -4.88813 0
M  V30 8115 H 763.432 -2.5859 -5.5314 0
M  V30 8116 H 764.846 -4.18503 -3.91826 0
M  V30 8117 H 763.243 -4.86487 -3.51355 0
M  V30 8118 H 764.313 -4.31553 -2.21111 0
M  V30 8119 N 765.656 0.84705 -1.32902 0
M  V30 8120 C 766.904 1.5986 -1.2365 0
M  V30 8121 C 767.225 1.93974 0.199789 0
M  V30 8122 O 766.495 1.60273 1.12648 0
M  V30 8123 H 765.075 0.592696 -0.454665 0
M  V30 8124 H 767.737 1.01278 -1.66519 0
M  V30 8125 H 766.833 2.53218 -1.82448 0
M  V30 8126 N 767.134 1.16236 1.06428 0
M  V30 8127 C 768.097 0.870163 2.1204 0
M  V30 8128 C 769.097 -0.134239 1.60239 0
M  V30 8129 O 770.287 0.0964932 1.73933 0
M  V30 8130 C 767.419 0.301033 3.39568 0
M  V30 8131 H 768.612 1.8064 2.39394 0
M  V30 8132 H 766.165 0.971116 1.2247 0
M  V30 8133 H 766.9 -0.642948 3.17863 0
M  V30 8134 H 766.685 1.02475 3.78472 0
M  V30 8135 H 768.175 0.114494 4.17443 0
M  V30 8136 N 768.612 -1.24939 0.960631 0
M  V30 8137 C 769.84 -1.96881 0.636045 0
M  V30 8138 C 770.255 -1.71334 -0.793093 0
M  V30 8139 O 769.612 -0.992917 -1.53125 0
M  V30 8140 C 769.663 -3.50309 0.892533 0
M  V30 8141 O 769.384 -3.74977 2.26548 0
M  V30 8142 C 770.885 -4.39474 0.581159 0
M  V30 8143 H 768.105 -0.627399 0.237931 0
M  V30 8144 H 770.649 -1.58952 1.28664 0
M  V30 8145 H 768.804 -3.86326 0.288257 0
M  V30 8146 H 769.218 -4.69401 2.34014 0
M  V30 8147 H 770.692 -5.46008 0.811125 0
M  V30 8148 H 771.169 -4.3652 -0.48443 0
M  V30 8149 H 771.775 -4.09032 1.16502 0
M  V30 8150 N 770.09 -0.729906 -1.39679 0
M  V30 8151 C 771 -0.0880322 -2.34435 0
M  V30 8152 C 772.016 0.727674 -1.58053 0
M  V30 8153 O 773.192 0.657321 -1.90371 0
M  V30 8154 C 770.257 0.812211 -3.37052 0
M  V30 8155 C 769.318 -0.0151681 -4.29297 0
M  V30 8156 C 768.551 0.842202 -5.27013 0
M  V30 8157 O 768.774 2.08108 -5.31081 0
M  V30 8158 O 767.708 0.27357 -6.01278 0
M  V30 8159 H 771.534 -0.869989 -2.90972 0
M  V30 8160 H 769.119 -0.490522 -1.41118 0
M  V30 8161 H 771.001 1.32745 -3.99946 0
M  V30 8162 H 769.676 1.57307 -2.82907 0
M  V30 8163 H 768.583 -0.575811 -3.69642 0
M  V30 8164 H 769.916 -0.738129 -4.86634 0
M  V30 8165 N 771.568 1.50203 -0.477153 0
M  V30 8166 C 772.796 2.0677 0.0732489 0
M  V30 8167 C 773.211 1.34033 1.32968 0
M  V30 8168 O 772.568 0.411412 1.77802 0
M  V30 8169 C 772.619 3.59751 0.35518 0
M  V30 8170 O 772.34 4.29747 -0.851425 0
M  V30 8171 C 773.841 4.3296 0.951877 0
M  V30 8172 H 771.061 0.670929 -0.00978923 0
M  V30 8173 H 773.605 1.93293 -0.667676 0
M  V30 8174 H 771.76 3.7301 1.04605 0
M  V30 8175 H 772.174 5.2106 -0.599708 0
M  V30 8176 H 773.648 5.40952 1.09888 0
M  V30 8177 H 774.125 3.93856 1.94356 0
M  V30 8178 H 774.731 4.24246 0.299208 0
M  V30 8179 N 773.046 0.209999 1.56195 0
M  V30 8180 C 774.292 -0.425442 1.98287 0
M  V30 8181 C 774.625 -1.60232 1.09724 0
M  V30 8182 O 773.9 -1.93902 0.152414 0
M  V30 8183 C 774.183 -0.871189 3.49403 0
M  V30 8184 C 774.036 0.308527 4.48741 0
M  V30 8185 C 775.355 -1.73146 4.04609 0
M  V30 8186 H 772.474 -0.153169 0.720908 0
M  V30 8187 H 775.116 0.303916 1.87554 0
M  V30 8188 H 773.266 -1.49266 3.58681 0
M  V30 8189 H 774.938 0.946487 4.51486 0
M  V30 8190 H 773.181 0.957878 4.23092 0
M  V30 8191 H 773.852 -0.0461143 5.51981 0
M  V30 8192 H 776.328 -1.2072 3.98203 0
M  V30 8193 H 775.204 -2.01228 5.10684 0
M  V30 8194 H 775.465 -2.69083 3.5078 0
M  V30 8195 O 774.563 -1.61333 0.0733639 0
M  V30 8196 H 775.254 -1.86233 -0.532616 0
M  V30 END ATOM
M  V30 BEGIN BOND
M  V30 END BOND
M  V30 END CTAB
M  END
$$$$
