drugbank_target|Q9NR28 Diablo homolog, mitochondrial (DB12695)
 OpenBabel12092121073D

  0  0  0     0  0            999 V3000
M  V30 BEGIN CTAB
M  V30 COUNTS 3803 3834 0 0 0
M  V30 BEGIN ATOM
M  V30 1 H -0.908 1.98254 -0.117106 0
M  V30 2 N 0 1.576 0 0
M  V30 3 C 0.933 2.03868 1.02534 0
M  V30 4 C 1.911 0.928543 1.3348 0
M  V30 5 O 3.095 1.19667 1.45644 0
M  V30 6 C 0.222 2.43627 2.35294 0
M  V30 7 C -0.732 3.65373 2.2001 0
M  V30 8 S 0.101 5.13292 1.52614 0
M  V30 9 C 1.257 5.56322 2.86805 0
M  V30 10 H 1.49 2.90518 0.631377 0
M  V30 11 H -0.977 1.52953 0.210867 0
M  V30 12 H 0.981 2.67203 3.11629 0
M  V30 13 H -0.358 1.57376 2.7183 0
M  V30 14 H -1.165 3.90944 3.18086 0
M  V30 15 H -1.563 3.418 1.51819 0
M  V30 16 H 0.729 5.58782 3.83104 0
M  V30 17 H 1.672 6.56266 2.65933 0
M  V30 18 H 2.08 4.83886 2.90714 0
M  V30 19 N 1.4781 -0.272755 1.55222 0
M  V30 20 C 2.4411 -1.32041 1.87344 0
M  V30 21 C 3.4411 -1.42342 0.74803 0
M  V30 22 O 4.6311 -1.41488 1.0162 0
M  V30 23 C 1.7631 -2.70173 2.07893 0
M  V30 24 H 2.9561 -1.04789 2.80997 0
M  V30 25 H 0.5091 -0.51083 1.47717 0
M  V30 26 H 1.2441 -3.02605 1.16622 0
M  V30 27 H 1.0291 -2.64082 2.89833 0
M  V30 28 H 2.5191 -3.45869 2.34017 0
M  V30 29 N 2.9562 -1.48159 -0.537278 0
M  V30 30 C 3.9192 -1.61665 -1.62472 0
M  V30 31 C 4.9192 -0.490395 -1.5314 0
M  V30 32 O 6.1092 -0.755998 -1.5694 0
M  V30 33 C 3.2412 -1.57997 -3.02076 0
M  V30 34 H 4.4342 -2.58621 -1.51839 0
M  V30 35 H 1.9872 -1.36647 -0.758771 0
M  V30 36 H 2.7222 -0.624913 -3.18222 0
M  V30 37 H 2.5072 -2.39755 -3.10258 0
M  V30 38 H 3.9972 -1.70627 -3.81151 0
M  V30 39 N 4.4343 0.785586 -1.36625 0
M  V30 40 C 5.3643 1.91259 -1.33949 0
M  V30 41 C 6.3453 1.68795 -0.210325 0
M  V30 42 O 7.5303 1.89854 -0.408561 0
M  V30 43 C 4.6603 3.28339 -1.13186 0
M  V30 44 C 3.6143 3.65335 -2.22967 0
M  V30 45 C 2.9403 5.00806 -1.87342 0
M  V30 46 C 4.2403 3.7352 -3.65075 0
M  V30 47 H 5.9343 1.93755 -2.28253 0
M  V30 48 H 3.4803 0.930788 -1.09874 0
M  V30 49 H 5.4333 4.06804 -1.09948 0
M  V30 50 H 4.1573 3.2624 -0.153332 0
M  V30 51 H 2.8163 2.89169 -2.25337 0
M  V30 52 H 2.4643 4.95233 -0.880545 0
M  V30 53 H 2.1643 5.26529 -2.60846 0
M  V30 54 H 3.6883 5.81687 -1.85667 0
M  V30 55 H 5.1023 4.42168 -3.64911 0
M  V30 56 H 3.4993 4.10731 -4.37516 0
M  V30 57 H 4.5693 2.74527 -3.99703 0
M  V30 58 N 5.9124 1.20967 1.01018 0
M  V30 59 C 6.8594 0.964281 2.09691 0
M  V30 60 C 7.8294 -0.107853 1.65749 0
M  V30 61 O 9.0144 0.0381987 1.90762 0
M  V30 62 C 6.1544 0.52943 3.41015 0
M  V30 63 C 5.2674 1.67043 3.98398 0
M  V30 64 C 4.4024 1.18525 5.17808 0
M  V30 65 C 3.4414 2.29892 5.67288 0
M  V30 66 N 2.5784 1.82546 6.77954 0
M  V30 67 H 7.4184 1.89463 2.30017 0
M  V30 68 H 4.9554 0.944289 1.1279 0
M  V30 69 H 6.9134 0.258588 4.16398 0
M  V30 70 H 5.5434 -0.363919 3.20742 0
M  V30 71 H 4.5954 2.05603 3.20049 0
M  V30 72 H 5.9074 2.50877 4.31117 0
M  V30 73 H 5.0614 0.870762 6.00419 0
M  V30 74 H 3.8004 0.316887 4.86669 0
M  V30 75 H 2.8054 2.6215 4.83278 0
M  V30 76 H 4.0304 3.17216 6.00459 0
M  V30 77 H 1.9764 0.980454 6.48632 0
M  V30 78 H 1.8934 2.59956 7.09901 0
M  V30 79 H 3.1614 1.54115 7.64113 0
M  V30 80 N 7.3905 -1.2043 1.01659 0
M  V30 81 C 8.6155 -1.94318 0.724942 0
M  V30 82 C 9.0405 -1.74266 -0.708034 0
M  V30 83 O 8.3985 -1.03694 -1.48719 0
M  V30 84 C 8.4465 -3.44486 1.06591 0
M  V30 85 O 7.5505 -4.12017 0.177599 0
M  V30 86 H 6.8915 -0.60708 0.26898 0
M  V30 87 H 9.4215 -1.52861 1.35995 0
M  V30 88 H 9.4315 -3.95106 1.01762 0
M  V30 89 H 8.1065 -3.58404 2.10997 0
M  V30 90 H 6.6835 -3.71821 0.283421 0
M  V30 91 N 8.8686 -0.792821 -1.36206 0
M  V30 92 C 10.1146 -0.376415 -1.99887 0
M  V30 93 C 10.4696 1.04127 -1.61788 0
M  V30 94 O 9.7626 1.71004 -0.864193 0
M  V30 95 C 9.9566 -0.481501 -3.54142 0
M  V30 96 C 9.7856 -1.90786 -4.07223 0
M  V30 97 C 8.5556 -2.53322 -4.37214 0
M  V30 98 C 10.7536 -2.87048 -4.26741 0
M  V30 99 N 8.7356 -3.8751 -4.7614 0
M  V30 100 C 10.1066 -4.06077 -4.6851 0
M  V30 101 C 12.1616 -2.8406 -4.08918 0
M  V30 102 C 10.8646 -5.22532 -4.94321 0
M  V30 103 C 12.8906 -3.99705 -4.35878 0
M  V30 104 C 12.2526 -5.1748 -4.77906 0
M  V30 105 H 8.3516 -0.185226 -0.759747 0
M  V30 106 H 10.9356 -1.03114 -1.65153 0
M  V30 107 H 9.1066 0.143154 -3.88136 0
M  V30 108 H 10.8386 -0.0410128 -4.04679 0
M  V30 109 H 7.5936 -2.04777 -4.2704 0
M  V30 110 H 8.0176 -4.5656 -4.99882 0
M  V30 111 H 12.6596 -1.94165 -3.75579 0
M  V30 112 H 10.3776 -6.1301 -5.2654 0
M  V30 113 H 13.9636 -3.98758 -4.23655 0
M  V30 114 H 12.8436 -6.05478 -4.98363 0
M  V30 115 N 10.3467 1.47872 -0.545128 0
M  V30 116 C 11.2767 2.32661 0.197793 0
M  V30 117 C 12.2577 1.43041 0.920504 0
M  V30 118 O 13.4427 1.71912 0.90333 0
M  V30 119 C 10.5727 3.24569 1.23582 0
M  V30 120 C 9.5267 4.23333 0.630323 0
M  V30 121 C 8.8527 5.0448 1.77211 0
M  V30 122 C 10.1527 5.20704 -0.407974 0
M  V30 123 H 11.8467 2.95024 -0.510045 0
M  V30 124 H 9.3927 1.4187 -0.246731 0
M  V30 125 H 11.3457 3.8272 1.76362 0
M  V30 126 H 10.0697 2.60236 1.97344 0
M  V30 127 H 8.7287 3.6639 0.123922 0
M  V30 128 H 8.3767 4.36561 2.49847 0
M  V30 129 H 8.0767 5.71339 1.37281 0
M  V30 130 H 9.6007 5.65487 2.3034 0
M  V30 131 H 11.0147 5.7329 0.033305 0
M  V30 132 H 9.4117 5.95699 -0.725486 0
M  V30 133 H 10.4817 4.66917 -1.30828 0
M  V30 134 N 11.8248 0.280983 1.55075 0
M  V30 135 C 13.0498 -0.340154 2.04592 0
M  V30 136 C 13.4748 -1.48246 1.15779 0
M  V30 137 O 12.8328 -1.80614 0.15761 0
M  V30 138 C 12.8808 -0.793104 3.5177 0
M  V30 139 O 11.9848 -1.89981 3.66034 0
M  V30 140 H 11.3258 -0.0694289 0.66036 0
M  V30 141 H 13.8558 0.416993 2.00306 0
M  V30 142 H 13.8658 -1.08729 3.93245 0
M  V30 143 H 12.5408 0.0426163 4.15878 0
M  V30 144 H 11.1178 -1.60771 3.36463 0
M  V30 145 N 13.3029 -1.57598 0.00835791 0
M  V30 146 C 14.7189 -1.55764 -0.347822 0
M  V30 147 C 14.9189 -1.01186 -1.74252 0
M  V30 148 O 13.9749 -0.649371 -2.44007 0
M  V30 149 C 15.2879 -2.99927 -0.215407 0
M  V30 150 C 16.8359 -3.11656 -0.289725 0
M  V30 151 C 17.3109 -4.57621 -0.18634 0
M  V30 152 N 18.8019 -4.62557 -0.243978 0
M  V30 153 C 19.5369 -5.73094 -0.18745 0
M  V30 154 N 19.0329 -6.92753 -0.0810331 0
M  V30 155 N 20.8259 -5.61588 -0.239925 0
M  V30 156 H 12.9769 -1.91411 0.92062 0
M  V30 157 H 15.2399 -0.879562 0.353659 0
M  V30 158 H 14.9459 -3.43729 0.744512 0
M  V30 159 H 14.8199 -3.63865 -0.994097 0
M  V30 160 H 17.2069 -2.67779 -1.24009 0
M  V30 161 H 17.2879 -2.5048 0.51898 0
M  V30 162 H 16.9319 -5.02174 0.760519 0
M  V30 163 H 16.8619 -5.16752 -1.01364 0
M  V30 164 H 19.3529 -3.76481 -0.327217 0
M  V30 165 H 19.6659 -7.72787 -0.0440241 0
M  V30 166 H 18.0109 -6.94984 -0.0465419 0
M  V30 167 H 21.2019 -4.66996 -0.321317 0
M  V30 168 H 21.3749 -6.47714 -0.192407 0
M  V30 169 N 14.781 0.264519 -1.55364 0
M  V30 170 C 16.006 1.01726 -1.80739 0
M  V30 171 C 16.431 1.78836 -0.583044 0
M  V30 172 O 15.789 1.75167 0.467566 0
M  V30 173 C 15.837 1.94482 -3.03659 0
M  V30 174 O 14.941 3.03386 -2.7934 0
M  V30 175 H 14.282 0.290395 -0.597132 0
M  V30 176 H 16.812 0.290854 -2.02522 0
M  V30 177 H 16.822 2.36278 -3.32621 0
M  V30 178 H 15.497 1.37772 -3.92418 0
M  V30 179 H 14.074 2.65844 -2.61498 0
M  V30 180 N 16.2591 1.48442 0.529413 0
M  V30 181 C 17.5051 1.5672 1.28711 0
M  V30 182 C 17.8381 0.2406 1.92704 0
M  V30 183 O 17.1131 -0.753454 1.79313 0
M  V30 184 C 17.3961 2.70587 2.37603 0
M  V30 185 C 17.2491 4.12953 1.78297 0
M  V30 186 C 18.5681 2.80212 3.39366 0
M  V30 187 H 15.6871 0.570474 0.466613 0
M  V30 188 H 18.3291 1.80617 0.589706 0
M  V30 189 H 16.4791 2.50342 2.97088 0
M  V30 190 H 18.1511 4.44639 1.22858 0
M  V30 191 H 16.3941 4.19927 1.0883 0
M  V30 192 H 17.0651 4.88448 2.57144 0
M  V30 193 H 19.5411 2.98553 2.89836 0
M  V30 194 H 18.4171 3.61611 4.12951 0
M  V30 195 H 18.6781 1.88393 3.99951 0
M  V30 196 N 17.7372 -0.778329 1.37039 0
M  V30 197 C 18.9652 -1.56734 1.35063 0
M  V30 198 C 19.3802 -1.88686 -0.0655597 0
M  V30 199 O 18.7372 -1.5096 -1.02554 0
M  V30 200 C 18.7882 -2.88163 2.18276 0
M  V30 201 O 18.5092 -2.57583 3.54376 0
M  V30 202 C 20.0102 -3.82422 2.24206 0
M  V30 203 H 17.2302 -0.485778 0.462883 0
M  V30 204 H 19.7742 -0.965185 1.8029 0
M  V30 205 H 17.9292 -3.44818 1.76576 0
M  V30 206 H 18.3432 -3.41699 3.97922 0
M  V30 207 H 19.8172 -4.71667 2.86765 0
M  V30 208 H 20.2942 -4.21078 1.24861 0
M  V30 209 H 20.9002 -3.31697 2.6619 0
M  V30 210 N 19.2153 -1.21501 -1.00376 0
M  V30 211 C 20.4403 -1.05977 -1.78279 0
M  V30 212 C 20.8653 0.385994 -1.84097 0
M  V30 213 O 20.2233 1.27849 -1.28547 0
M  V30 214 C 20.2713 -1.66302 -3.19963 0
M  V30 215 O 19.3753 -0.909333 -4.0225 0
M  V30 216 H 18.7163 -0.372906 -0.549397 0
M  V30 217 H 21.2463 -1.6107 -1.26165 0
M  V30 218 H 21.2563 -1.70574 -3.70632 0
M  V30 219 H 19.9313 -2.71515 -3.15043 0
M  V30 220 H 18.5083 -0.941795 -3.60811 0
M  V30 221 N 20.6934 1.19889 -1.02296 0
M  V30 222 C 21.9404 1.8942 -0.715972 0
M  V30 223 C 22.2684 1.79251 0.754944 0
M  V30 224 O 21.5234 1.17526 1.56481 0
M  V30 225 C 21.8224 3.39883 -1.10518 0
M  V30 226 C 21.4884 3.70254 -2.57337 0
M  V30 227 C 20.1504 3.78254 -2.97452 0
M  V30 228 C 22.5024 3.84052 -3.52354 0
M  V30 229 C 19.8304 3.97514 -4.31509 0
M  V30 230 C 22.1824 4.04824 -4.86108 0
M  V30 231 C 20.8464 4.11054 -5.25919 0
M  V30 232 H 20.1164 0.693138 -0.261993 0
M  V30 233 H 22.7634 1.42012 -1.28472 0
M  V30 234 H 21.0684 3.8915 -0.454953 0
M  V30 235 H 22.7654 3.9199 -0.845261 0
M  V30 236 H 19.3554 3.64632 -2.25258 0
M  V30 237 H 23.5394 3.77221 -3.22518 0
M  V30 238 H 18.7954 4.00574 -4.61898 0
M  V30 239 H 22.9694 4.14442 -5.59653 0
M  V30 240 H 20.5964 4.2573 -6.29808 0
M  V30 241 N 22.1715 0.800033 1.35784 0
M  V30 242 C 23.4185 0.377342 1.98953 0
M  V30 243 C 23.7465 -1.05378 1.6348 0
M  V30 244 O 23.0015 -1.74459 0.886707 0
M  V30 245 C 23.3005 0.500276 3.53881 0
M  V30 246 C 22.9665 1.89375 4.09204 0
M  V30 247 C 21.6285 2.27499 4.24025 0
M  V30 248 C 23.9805 2.8057 4.39238 0
M  V30 249 C 21.3085 3.562 4.66195 0
M  V30 250 C 23.6605 4.0871 4.82844 0
M  V30 251 C 22.3245 4.46843 4.95871 0
M  V30 252 H 21.5945 0.138079 0.728021 0
M  V30 253 H 24.2415 1.01955 1.62103 0
M  V30 254 H 22.5465 -0.225405 3.91151 0
M  V30 255 H 24.2435 0.154097 4.00704 0
M  V30 256 H 20.8335 1.58753 3.98115 0
M  V30 257 H 25.0175 2.52367 4.27346 0
M  V30 258 H 20.2735 3.85602 4.74469 0
M  V30 259 H 24.4475 4.79481 5.05046 0
M  V30 260 H 22.0745 5.46623 5.28306 0
M  V30 261 N 23.6496 -1.47581 0.552962 0
M  V30 262 C 25.0656 -1.5818 0.212424 0
M  V30 263 C 25.2656 -1.55213 -1.28496 0
M  V30 264 O 24.3216 -1.45329 -2.06484 0
M  V30 265 C 25.6346 -2.88865 0.835318 0
M  V30 266 C 27.1826 -3.0244 0.806156 0
M  V30 267 C 27.6576 -4.35819 1.40804 0
M  V30 268 N 29.1486 -4.42444 1.37103 0
M  V30 269 C 29.8836 -5.44202 1.80641 0
M  V30 270 N 29.3796 -6.52795 2.32015 0
M  V30 271 N 31.1726 -5.35222 1.71738 0
M  V30 272 H 23.3236 -1.47753 1.52587 0
M  V30 273 H 25.5866 -0.702941 0.636064 0
M  V30 274 H 25.2926 -2.9676 1.88749 0
M  V30 275 H 25.1666 -3.7579 0.325848 0
M  V30 276 H 27.5536 -2.94144 -0.237317 0
M  V30 277 H 27.6346 -2.17068 1.35334 0
M  V30 278 H 27.2786 -4.44871 2.45056 0
M  V30 279 H 27.2086 -5.19916 0.836338 0
M  V30 280 H 29.6996 -3.6456 0.995202 0
M  V30 281 H 30.0126 -7.26609 2.63171 0
M  V30 282 H 28.3576 -6.53696 2.36023 0
M  V30 283 H 31.5486 -4.49284 1.31382 0
M  V30 284 H 31.7216 -6.14389 2.05987 0
M  V30 285 N 25.1277 -0.289203 -1.54924 0
M  V30 286 C 26.3577 0.325989 -2.04012 0
M  V30 287 C 26.7657 1.48961 -1.1665 0
M  V30 288 O 26.1087 1.82794 -0.1822 0
M  V30 289 C 26.1707 0.856112 -3.49158 0
M  V30 290 C 25.8347 -0.180697 -4.56643 0
M  V30 291 C 26.8317 -1.0051 -5.10092 0
M  V30 292 C 24.5167 -0.318998 -5.01286 0
M  V30 293 C 26.5107 -1.95385 -6.06715 0
M  V30 294 C 24.1977 -1.27121 -5.97732 0
M  V30 295 C 25.1957 -2.08713 -6.50329 0
M  V30 296 O 24.8837 -3.02322 -7.44887 0
M  V30 297 H 24.6157 0.0765276 -0.671654 0
M  V30 298 H 27.1697 -0.423254 -2.00992 0
M  V30 299 H 25.3997 1.65567 -3.49463 0
M  V30 300 H 27.0887 1.38591 -3.81507 0
M  V30 301 H 27.8547 -0.90906 -4.76404 0
M  V30 302 H 23.7337 0.306108 -4.59983 0
M  V30 303 H 27.2777 -2.59111 -6.47694 0
M  V30 304 H 23.1747 -1.36801 -6.30837 0
M  V30 305 H 23.9427 -2.97165 -7.6265 0
M  V30 306 N 26.6058 1.57591 -0.0167156 0
M  V30 307 C 28.0218 1.55946 0.339557 0
M  V30 308 C 28.2218 1.02109 1.73713 0
M  V30 309 O 27.2778 0.662303 2.43659 0
M  V30 310 C 28.5908 3.00037 0.199499 0
M  V30 311 C 30.1388 3.11805 0.273193 0
M  V30 312 C 30.6138 4.57713 0.162068 0
M  V30 313 N 32.1048 4.6268 0.219444 0
M  V30 314 C 32.8398 5.73185 0.157054 0
M  V30 315 N 32.3358 6.92786 0.0442936 0
M  V30 316 N 34.1288 5.61707 0.21014 0
M  V30 317 H 26.2798 1.90921 -0.930758 0
M  V30 318 H 28.5428 0.877674 -0.358319 0
M  V30 319 H 28.2488 3.4333 -0.76273 0
M  V30 320 H 28.1228 3.64387 0.974786 0
M  V30 321 H 30.5098 2.68433 1.22587 0
M  V30 322 H 30.5908 2.50201 -0.532256 0
M  V30 323 H 30.2348 5.01763 -0.78714 0
M  V30 324 H 30.1648 5.17283 0.986222 0
M  V30 325 H 32.6558 3.76649 0.307246 0
M  V30 326 H 32.9688 7.728 0.00304069 0
M  V30 327 H 31.3138 6.94999 0.00968457 0
M  V30 328 H 34.5048 4.6716 0.296546 0
M  V30 329 H 34.6778 6.47807 0.158054 0
M  V30 330 N 28.0839 -0.256276 1.55502 0
M  V30 331 C 29.0159 -1.33981 1.85962 0
M  V30 332 C 30.0289 -1.44743 0.745212 0
M  V30 333 O 31.2179 -1.4626 1.02324 0
M  V30 334 C 28.3179 -2.7194 2.02242 0
M  V30 335 C 27.4909 -2.83562 3.33033 0
M  V30 336 C 26.5499 -4.02304 3.39172 0
M  V30 337 O 25.5759 -3.92273 4.12444 0
M  V30 338 N 26.7779 -5.15045 2.67784 0
M  V30 339 H 29.5429 -1.08191 2.7949 0
M  V30 340 H 27.1039 -0.446388 1.55624 0
M  V30 341 H 29.0959 -3.49697 2.03701 0
M  V30 342 H 27.6659 -2.90479 1.15502 0
M  V30 343 H 26.8859 -1.92555 3.43971 0
M  V30 344 H 28.1739 -2.88271 4.19258 0
M  V30 345 H 27.5719 -5.26085 2.07968 0
M  V30 346 H 26.1289 -5.90972 2.74947 0
M  V30 347 N 29.562 -1.4872 -0.521534 0
M  V30 348 C 30.802 -1.58771 -1.28729 0
M  V30 349 C 31.166 -0.259394 -1.9024 0
M  V30 350 O 32.367 -0.234942 -2.67771 0
M  V30 351 C 30.638 -2.70039 -2.34124 0
M  V30 352 S 32.197 -2.9991 -3.20312 0
M  V30 353 H 29.015 -0.560251 -0.437767 0
M  V30 354 H 31.617 -1.86283 -0.593188 0
M  V30 355 H 30.321 -3.65101 -1.87429 0
M  V30 356 H 29.852 -2.44455 -3.08229 0
M  V30 357 H 31.867 -2.39855 -4.34378 0
M  V30 358 N 31.0401 0.771051 -1.3745 0
M  V30 359 C 31.9701 1.89827 -1.3597 0
M  V30 360 C 32.9511 1.68562 -0.228216 0
M  V30 361 O 34.1361 1.8941 -0.428675 0
M  V30 362 C 31.2661 3.2712 -1.16662 0
M  V30 363 C 30.2201 3.6295 -2.2683 0
M  V30 364 C 29.5461 4.98791 -1.92644 0
M  V30 365 C 30.8461 3.69627 -3.69017 0
M  V30 366 H 32.5401 1.91323 -2.30295 0
M  V30 367 H 30.0861 0.919082 -1.10855 0
M  V30 368 H 32.0391 4.05615 -1.14256 0
M  V30 369 H 30.7631 3.26059 -0.187926 0
M  V30 370 H 29.4221 2.86763 -2.28392 0
M  V30 371 H 29.0701 4.94271 -0.933021 0
M  V30 372 H 28.7701 5.23733 -2.66416 0
M  V30 373 H 30.2941 5.79685 -1.91826 0
M  V30 374 H 31.7081 4.38273 -3.69581 0
M  V30 375 H 30.1051 4.06067 -4.41848 0
M  V30 376 H 31.1751 2.70273 -4.02592 0
M  V30 377 N 32.5182 1.22032 0.997298 0
M  V30 378 C 33.7582 1.05375 1.75144 0
M  V30 379 C 34.1222 -0.404696 1.87686 0
M  V30 380 O 35.3232 -0.691998 2.5974 0
M  V30 381 C 33.5942 1.74046 3.12158 0
M  V30 382 S 35.1532 1.72745 4.03366 0
M  V30 383 H 31.9712 0.377449 0.602539 0
M  V30 384 H 34.5732 1.54902 1.19272 0
M  V30 385 H 33.2772 2.79332 3.00669 0
M  V30 386 H 32.8082 1.24731 3.73103 0
M  V30 387 H 34.8232 0.774015 4.90126 0
M  V30 388 N 33.9963 -1.19345 1.0293 0
M  V30 389 C 35.2423 -1.89318 0.727083 0
M  V30 390 C 35.5753 -1.79446 -0.742483 0
M  V30 391 O 34.8503 -1.1871 -1.54072 0
M  V30 392 C 35.1333 -3.40238 1.17942 0
M  V30 393 C 34.9863 -3.58979 2.71024 0
M  V30 394 C 36.3053 -4.33479 0.760548 0
M  V30 395 H 33.4243 -0.687475 0.265606 0
M  V30 396 H 36.0663 -1.40477 1.2793 0
M  V30 397 H 34.2163 -3.81964 0.709608 0
M  V30 398 H 35.8883 -3.26421 3.25955 0
M  V30 399 H 34.1313 -3.02018 3.11396 0
M  V30 400 H 34.8023 -4.64823 2.9773 0
M  V30 401 H 37.2783 -3.99469 1.16464 0
M  V30 402 H 36.1543 -5.37664 1.10493 0
M  V30 403 H 36.4153 -4.40813 -0.337063 0
M  V30 404 N 35.4744 -0.807222 -1.35358 0
M  V30 405 C 36.8854 -0.44876 -1.81226 0
M  V30 406 C 37.2364 1.02929 -1.67033 0
M  V30 407 O 36.3614 1.79991 -1.20133 0
M  V30 408 C 36.9564 -0.807774 -3.2903 0
M  V30 409 C 35.5154 -0.501901 -3.73039 0
M  V30 410 C 34.6624 -1.03304 -2.57339 0
M  V30 411 H 37.6134 -0.998808 -1.23327 0
M  V30 412 H 37.6344 -0.10554 -3.80354 0
M  V30 413 H 37.1464 -1.88357 -3.39328 0
M  V30 414 H 35.2474 0.565128 -3.68289 0
M  V30 415 H 35.3604 -1.03497 -4.67787 0
M  V30 416 H 33.7244 -0.455339 -2.50597 0
M  V30 417 H 34.5074 -2.11496 -2.70415 0
M  V30 418 N 36.9525 1.47285 -0.560781 0
M  V30 419 C 38.1985 2.02764 -0.0381184 0
M  V30 420 C 38.5315 1.43384 1.30976 0
M  V30 421 O 37.8065 0.590733 1.85312 0
M  V30 422 C 38.0895 3.60064 0.0511427 0
M  V30 423 C 37.9425 4.2987 -1.32408 0
M  V30 424 C 39.2615 4.33439 0.762795 0
M  V30 425 H 36.3805 0.736841 -0.0153264 0
M  V30 426 H 39.0225 1.75675 -0.723759 0
M  V30 427 H 37.1725 3.83274 0.635065 0
M  V30 428 H 38.8445 4.17989 -1.95148 0
M  V30 429 H 37.0875 3.90085 -1.8978 0
M  V30 430 H 37.7585 5.38478 -1.21431 0
M  V30 431 H 40.2345 4.15243 0.266965 0
M  V30 432 H 39.1105 5.43124 0.794221 0
M  V30 433 H 39.3715 4.02915 1.81966 0
M  V30 434 N 38.4306 0.297415 1.54768 0
M  V30 435 C 39.6766 -0.313376 2.00364 0
M  V30 436 C 40.0096 -1.53815 1.18553 0
M  V30 437 O 39.2846 -1.92739 0.261103 0
M  V30 438 C 39.5676 -0.673525 3.53745 0
M  V30 439 C 39.4206 0.560133 4.46299 0
M  V30 440 C 40.7396 -1.50143 4.13697 0
M  V30 441 H 37.8586 -0.112428 0.728374 0
M  V30 442 H 40.5006 0.4088 1.8555 0
M  V30 443 H 38.6506 -1.28881 3.665 0
M  V30 444 H 40.3226 1.19863 4.45455 0
M  V30 445 H 38.5656 1.19405 4.17043 0
M  V30 446 H 39.2366 0.26405 5.51368 0
M  V30 447 H 41.7126 -0.981588 4.04356 0
M  V30 448 H 40.5886 -1.72221 5.21182 0
M  V30 449 H 40.8496 -2.48952 3.65343 0
M  V30 450 N 39.9087 -1.5758 0.0250728 0
M  V30 451 C 40.8717 -2.08896 -0.943139 0
M  V30 452 C 41.8717 -1.00321 -1.25668 0
M  V30 453 O 43.0617 -1.26495 -1.19769 0
M  V30 454 C 40.1937 -2.55143 -2.26086 0
M  V30 455 H 41.3867 -2.95723 -0.498775 0
M  V30 456 H 38.9397 -1.54703 -0.222888 0
M  V30 457 H 39.6747 -1.71633 -2.75159 0
M  V30 458 H 39.4597 -3.34461 -2.04641 0
M  V30 459 H 40.9497 -2.95083 -2.95492 0
M  V30 460 N 41.3868 0.248026 -1.55636 0
M  V30 461 C 42.3348 1.32683 -1.91045 0
M  V30 462 C 43.3288 1.49883 -0.789401 0
M  V30 463 O 44.5348 1.51371 -0.974007 0
M  V30 464 H 40.9098 0.444272 -0.606734 0
M  V30 465 H 42.8808 1.00085 -2.81115 0
M  V30 466 C 41.6298 2.6755 -2.22064 0
M  V30 467 H 40.9528 2.55114 -3.07826 0
M  V30 468 H 42.3928 3.41912 -2.50743 0
M  V30 469 C 40.8518 3.20556 -1.0366 0
M  V30 470 O 41.3818 4.00695 -0.284016 0
M  V30 471 N 39.5878 2.78568 -0.82753 0
M  V30 472 H 39.1348 2.1351 -1.44123 0
M  V30 473 H 39.0928 3.14378 -0.0369803 0
M  V30 474 N 42.8649 1.48995 0.513639 0
M  V30 475 C 44.1119 1.57843 1.26854 0
M  V30 476 C 44.4399 0.259501 1.92761 0
M  V30 477 O 43.6949 -0.75159 1.80692 0
M  V30 478 C 43.9939 2.67756 2.36731 0
M  V30 479 C 43.6599 4.09669 1.88368 0
M  V30 480 C 42.3219 4.48291 1.74896 0
M  V30 481 C 44.6739 4.98537 1.52021 0
M  V30 482 C 42.0019 5.73568 1.23438 0
M  V30 483 C 44.3539 6.24319 1.0202 0
M  V30 484 C 43.0179 6.61783 0.871778 0
M  V30 485 H 42.2879 0.577587 0.464192 0
M  V30 486 H 44.9349 1.82778 0.571366 0
M  V30 487 H 43.2399 2.36743 3.12185 0
M  V30 488 H 44.9369 2.71813 2.9482 0
M  V30 489 H 41.5269 3.79176 1.99808 0
M  V30 490 H 45.7109 4.69363 1.61281 0
M  V30 491 H 40.9669 6.01304 1.10648 0
M  V30 492 H 45.1409 6.92566 0.729722 0
M  V30 493 H 42.7679 7.5874 0.470852 0
M  V30 494 N 44.343 -0.763751 1.37857 0
M  V30 495 C 45.29 -1.87726 1.34267 0
M  V30 496 C 46.26 -1.64807 0.206879 0
M  V30 497 O 47.445 -1.86613 0.397508 0
M  V30 498 C 44.585 -3.24896 1.16346 0
M  V30 499 C 43.698 -3.59716 2.39225 0
M  V30 500 C 42.833 -4.86137 2.14114 0
M  V30 501 C 41.872 -5.13711 3.32817 0
M  V30 502 N 41.009 -6.31323 3.07206 0
M  V30 503 H 45.849 -1.90129 2.29466 0
M  V30 504 H 43.386 -0.929433 1.14017 0
M  V30 505 H 45.344 -4.04036 1.03975 0
M  V30 506 H 43.974 -3.21847 0.247909 0
M  V30 507 H 43.026 -2.75498 2.62307 0
M  V30 508 H 44.338 -3.76027 3.27728 0
M  V30 509 H 43.492 -5.73198 1.9882 0
M  V30 510 H 42.231 -4.71945 1.22961 0
M  V30 511 H 41.236 -4.25123 3.48641 0
M  V30 512 H 42.461 -5.29807 4.24832 0
M  V30 513 H 40.407 -6.18474 2.1869 0
M  V30 514 H 40.324 -6.48087 3.89254 0
M  V30 515 H 41.592 -7.213 2.95546 0
M  V30 516 N 45.8211 -1.22559 -0.990812 0
M  V30 517 C 46.7681 -0.997519 -2.0813 0
M  V30 518 C 47.7381 0.0814702 -1.659 0
M  V30 519 O 48.9231 -0.0685424 -1.90677 0
M  V30 520 C 46.0631 -0.583615 -3.40129 0
M  V30 521 C 45.1761 -1.7336 -3.9569 0
M  V30 522 C 44.3111 -1.26748 -5.15857 0
M  V30 523 C 43.3501 -2.38888 -5.63559 0
M  V30 524 N 42.4871 -1.93308 -6.74964 0
M  V30 525 H 47.3271 -1.93099 -2.26973 0
M  V30 526 H 44.8641 -0.962114 -1.11273 0
M  V30 527 H 46.8221 -0.324801 -4.15934 0
M  V30 528 H 45.4521 0.312845 -3.2128 0
M  V30 529 H 44.5041 -2.10669 -3.16738 0
M  V30 530 H 45.8161 -2.57704 -4.27071 0
M  V30 531 H 44.9701 -0.966173 -5.98957 0
M  V30 532 H 43.7091 -0.394272 -4.86104 0
M  V30 533 H 42.7141 -2.69805 -4.79046 0
M  V30 534 H 43.9391 -3.26728 -5.95336 0
M  V30 535 H 41.8851 -1.08352 -6.4699 0
M  V30 536 H 41.8021 -2.71217 -7.05675 0
M  V30 537 H 43.0701 -1.66252 -7.61564 0
M  V30 538 N 47.2992 1.18797 -1.03562 0
M  V30 539 C 48.7152 1.40671 -0.753917 0
M  V30 540 C 48.9152 1.9043 0.658686 0
M  V30 541 O 47.9712 2.08538 1.42366 0
M  V30 542 C 49.2842 2.41192 -1.79574 0
M  V30 543 C 50.8322 2.54928 -1.81606 0
M  V30 544 C 51.3072 3.58709 -2.84766 0
M  V30 545 N 52.7982 3.66212 -2.83625 0
M  V30 546 C 53.5332 4.46225 -3.60098 0
M  V30 547 N 53.0292 5.29888 -4.46308 0
M  V30 548 N 54.8222 4.40939 -3.4861 0
M  V30 549 H 46.9732 0.848221 -1.94728 0
M  V30 550 H 49.2362 0.435081 -0.842264 0
M  V30 551 H 48.9422 2.11669 -2.80872 0
M  V30 552 H 48.8162 3.40467 -1.62365 0
M  V30 553 H 51.2032 2.83771 -0.809817 0
M  V30 554 H 51.2842 1.55784 -2.02891 0
M  V30 555 H 50.9282 3.30607 -3.85566 0
M  V30 556 H 50.8582 4.57519 -2.60737 0
M  V30 557 H 53.3492 3.06466 -2.21105 0
M  V30 558 H 53.6622 5.88078 -5.01382 0
M  V30 559 H 52.0072 5.29326 -4.50377 0
M  V30 560 H 55.1982 3.74624 -2.80668 0
M  V30 561 H 55.3712 5.03056 -4.08459 0
M  V30 562 N 48.7773 0.814389 1.34928 0
M  V30 563 C 50.0173 0.404165 2.00364 0
M  V30 564 C 50.3813 -1.01166 1.63185 0
M  V30 565 O 51.5823 -1.52431 2.21401 0
M  V30 566 C 49.8533 0.590718 3.52484 0
M  V30 567 S 51.4123 0.272075 4.37956 0
M  V30 568 H 48.2303 0.15311 0.694319 0
M  V30 569 H 50.8323 1.05834 1.64376 0
M  V30 570 H 49.5363 1.62099 3.77031 0
M  V30 571 H 49.0673 -0.0785013 3.93322 0
M  V30 572 H 51.0823 -0.917405 4.87645 0
M  V30 573 N 50.2554 -1.46986 0.568584 0
M  V30 574 C 51.5024 -2.02441 0.0487986 0
M  V30 575 C 51.8304 -1.44169 -1.30559 0
M  V30 576 O 51.0854 -0.591213 -1.86556 0
M  V30 577 C 51.3844 -3.57306 -0.081836 0
M  V30 578 C 51.0504 -4.34552 1.20313 0
M  V30 579 C 49.7124 -4.55376 1.5552 0
M  V30 580 C 52.0644 -4.79016 2.05411 0
M  V30 581 C 49.3924 -5.17913 2.7565 0
M  V30 582 C 51.7444 -5.42879 3.24754 0
M  V30 583 C 50.4084 -5.61933 3.60261 0
M  V30 584 H 49.6784 -0.740785 0.0178567 0
M  V30 585 H 52.3254 -1.76525 0.742384 0
M  V30 586 H 50.6304 -3.8228 -0.858463 0
M  V30 587 H 52.3274 -3.97876 -0.499546 0
M  V30 588 H 48.9174 -4.18631 0.919014 0
M  V30 589 H 53.1014 -4.62696 1.79516 0
M  V30 590 H 48.3574 -5.30858 3.03315 0
M  V30 591 H 52.5314 -5.76293 3.90973 0
M  V30 592 H 50.1584 -6.10161 4.53439 0
M  V30 593 N 51.7335 -0.305618 -1.54608 0
M  V30 594 C 52.9585 0.307562 -2.05107 0
M  V30 595 C 53.3835 1.46385 -1.18123 0
M  V30 596 O 52.7415 1.8034 -0.186324 0
M  V30 597 C 52.7895 0.73704 -3.52987 0
M  V30 598 O 51.8935 1.84134 -3.6901 0
M  V30 599 H 51.2345 0.0589143 -0.661381 0
M  V30 600 H 53.7645 -0.448807 -1.99617 0
M  V30 601 H 53.7745 1.02459 -3.94925 0
M  V30 602 H 52.4495 -0.108773 -4.15758 0
M  V30 603 H 51.0265 1.55398 -3.38978 0
M  V30 604 N 53.2116 1.57565 -0.0334293 0
M  V30 605 C 54.1216 2.13943 0.962572 0
M  V30 606 C 55.1376 1.09276 1.35406 0
M  V30 607 O 56.3136 1.41355 1.4346 0
M  V30 608 C 53.3786 2.65887 2.22497 0
M  V30 609 C 52.4396 3.85286 1.8935 0
M  V30 610 C 51.6726 4.34743 3.09571 0
M  V30 611 O 51.8956 3.83352 4.22371 0
M  V30 612 O 50.8296 5.26538 2.91618 0
M  V30 613 H 54.6556 2.99333 0.513169 0
M  V30 614 H 52.2406 1.4822 0.18743 0
M  V30 615 H 54.1226 2.99346 2.96598 0
M  V30 616 H 52.7976 1.83578 2.6661 0
M  V30 617 H 51.7046 3.56746 1.1262 0
M  V30 618 H 53.0376 4.68771 1.5005 0
M  V30 619 N 54.6897 -0.239769 1.55765 0
M  V30 620 C 55.6197 -1.30052 1.9393 0
M  V30 621 C 56.6007 -1.49839 0.805132 0
M  V30 622 O 57.7857 -1.62328 1.06599 0
M  V30 623 C 54.9157 -2.65391 2.2402 0
M  V30 624 C 53.8697 -2.60289 3.39755 0
M  V30 625 C 53.1957 -3.99489 3.55405 0
M  V30 626 C 54.4957 -2.16654 4.75246 0
M  V30 627 H 56.1897 -0.983573 2.82783 0
M  V30 628 H 53.7357 -0.471701 1.36055 0
M  V30 629 H 55.6887 -3.3974 2.49308 0
M  V30 630 H 54.4127 -2.98736 1.32 0
M  V30 631 H 53.0717 -1.88398 3.14487 0
M  V30 632 H 52.7197 -4.30112 2.60793 0
M  V30 633 H 52.4197 -3.96962 4.33238 0
M  V30 634 H 53.9437 -4.75528 3.83022 0
M  V30 635 H 55.3577 -2.80737 4.99859 0
M  V30 636 H 53.7547 -2.25223 5.56232 0
M  V30 637 H 54.8247 -1.11835 4.71827 0
M  V30 638 N 56.1678 -1.49265 -0.50573 0
M  V30 639 C 57.4168 -1.57761 -1.25675 0
M  V30 640 C 57.7298 -0.267371 -1.93764 0
M  V30 641 O 58.9358 -0.230827 -2.70517 0
M  V30 642 C 57.3918 -2.78332 -2.28165 0
M  V30 643 C 56.9998 -4.16096 -1.66037 0
M  V30 644 C 58.7438 -2.96155 -3.04125 0
M  V30 645 C 56.6508 -5.27895 -2.6661 0
M  V30 646 H 55.5808 -0.587391 -0.472745 0
M  V30 647 H 58.2318 -1.75644 -0.53118 0
M  V30 648 H 56.6138 -2.53934 -3.03865 0
M  V30 649 H 57.7878 -4.50612 -0.963622 0
M  V30 650 H 56.1028 -4.03591 -1.02484 0
M  V30 651 H 58.6998 -3.76849 -3.79327 0
M  V30 652 H 59.0428 -2.06534 -3.61455 0
M  V30 653 H 59.5758 -3.2057 -2.35541 0
M  V30 654 H 56.3148 -6.1956 -2.14068 0
M  V30 655 H 55.8348 -4.97839 -3.34539 0
M  V30 656 H 57.5138 -5.57031 -3.29129 0
M  V30 657 N 57.6459 0.756429 -1.3826 0
M  V30 658 C 59.0619 1.0591 -1.19395 0
M  V30 659 C 59.2619 2.01459 -0.0406567 0
M  V30 660 O 58.3179 2.44909 0.614467 0
M  V30 661 C 59.6309 1.64191 -2.51916 0
M  V30 662 C 61.1789 1.76376 -2.58574 0
M  V30 663 C 61.6539 2.38069 -3.91264 0
M  V30 664 N 63.1449 2.45503 -3.92788 0
M  V30 665 C 63.8799 2.94126 -4.92217 0
M  V30 666 N 63.3759 3.42805 -6.02043 0
M  V30 667 N 65.1689 2.9314 -4.7961 0
M  V30 668 H 57.3199 0.122313 -2.12048 0
M  V30 669 H 59.5829 0.116892 -0.940766 0
M  V30 670 H 59.2889 1.01451 -3.3675 0
M  V30 671 H 59.1629 2.6329 -2.70108 0
M  V30 672 H 61.5499 2.38244 -1.74137 0
M  V30 673 H 61.6309 0.759894 -2.44252 0
M  V30 674 H 61.2749 1.76835 -4.76121 0
M  V30 675 H 61.2049 3.39091 -4.02895 0
M  V30 676 H 63.6959 2.1107 -3.13461 0
M  V30 677 H 64.0089 3.78354 -6.73846 0
M  V30 678 H 62.3539 3.4087 -6.05667 0
M  V30 679 H 65.5449 2.54419 -3.92923 0
M  V30 680 H 65.7179 3.30721 -5.5725 0
M  V30 681 N 59.124 1.23083 0.984299 0
M  V30 682 C 60.535 1.05609 1.5396 0
M  V30 683 C 60.886 -0.377793 1.92528 0
M  V30 684 O 60.011 -1.26398 1.75649 0
M  V30 685 C 60.606 1.91087 2.7977 0
M  V30 686 C 59.165 1.77885 3.31713 0
M  V30 687 C 58.312 1.87028 2.04733 0
M  V30 688 H 61.263 1.36802 0.804419 0
M  V30 689 H 61.284 1.43336 3.5247 0
M  V30 690 H 60.796 2.9544 2.51668 0
M  V30 691 H 58.897 0.762995 3.64704 0
M  V30 692 H 59.01 2.61047 4.01735 0
M  V30 693 H 57.374 1.30565 2.18689 0
M  V30 694 H 58.157 2.92929 1.79017 0
M  V30 695 N 60.6021 -1.18246 1.0419 0
M  V30 696 C 61.8481 -1.88793 0.75689 0
M  V30 697 C 62.2031 -1.78909 -0.707767 0
M  V30 698 O 61.4961 -1.1794 -1.50999 0
M  V30 699 C 61.6901 -3.38082 1.15911 0
M  V30 700 C 61.5191 -3.62496 2.66133 0
M  V30 701 C 60.2891 -3.7979 3.33298 0
M  V30 702 C 62.4871 -3.62976 3.64353 0
M  V30 703 N 60.4691 -3.91955 4.72487 0
M  V30 704 C 61.8401 -3.80869 4.89222 0
M  V30 705 C 63.8951 -3.46071 3.57965 0
M  V30 706 C 62.5981 -3.83608 6.08471 0
M  V30 707 C 64.6241 -3.50093 4.76643 0
M  V30 708 C 63.9861 -3.68484 6.00332 0
M  V30 709 H 60.0851 -0.709406 0.32904 0
M  V30 710 H 62.6691 -1.42022 1.33183 0
M  V30 711 H 60.8401 -3.83544 0.612238 0
M  V30 712 H 62.5721 -3.96202 0.824989 0
M  V30 713 H 59.3271 -3.79224 2.83701 0
M  V30 714 H 59.7511 -4.01857 5.44831 0
M  V30 715 H 64.3931 -3.30797 2.63311 0
M  V30 716 H 62.1111 -3.97669 7.0348 0
M  V30 717 H 65.6971 -3.38285 4.73344 0
M  V30 718 H 64.5771 -3.71488 6.90627 0
M  V30 719 N 62.0802 -0.821533 -1.34494 0
M  V30 720 C 63.0302 -0.214793 -2.26986 0
M  V30 721 C 64.0142 0.620125 -1.4847 0
M  V30 722 O 65.2062 0.474933 -1.70509 0
M  V30 723 C 62.3352 0.623566 -3.37589 0
M  V30 724 C 61.4212 -0.221904 -4.23519 0
M  V30 725 N 61.8122 -1.29223 -4.89014 0
M  V30 726 C 60.1102 -0.00600922 -4.46 0
M  V30 727 C 60.8112 -1.80965 -5.52835 0
M  V30 728 N 59.7872 -1.11376 -5.32068 0
M  V30 729 H 63.5892 -1.03354 -2.75128 0
M  V30 730 H 61.1032 -0.6642 -1.48196 0
M  V30 731 H 63.1002 1.0744 -4.02818 0
M  V30 732 H 61.7602 1.44049 -2.90998 0
M  V30 733 H 62.7712 -1.67502 -4.90065 0
M  V30 734 H 59.4482 0.77886 -4.10171 0
M  V30 735 H 60.8382 -2.70502 -6.15043 0
M  V30 736 N 63.5583 1.46682 -0.576371 0
M  V30 737 C 64.5053 2.30241 0.160499 0
M  V30 738 C 65.4753 1.40233 0.890162 0
M  V30 739 O 66.6603 1.69186 0.882084 0
M  V30 740 C 63.8003 3.24578 1.1723 0
M  V30 741 C 62.9133 4.29684 0.446736 0
M  V30 742 C 62.0483 5.11154 1.44551 0
M  V30 743 C 61.0873 6.08015 0.70599 0
M  V30 744 N 60.2243 6.82376 1.65251 0
M  V30 745 H 65.0643 2.92727 -0.558127 0
M  V30 746 H 62.6013 1.44272 -0.287056 0
M  V30 747 H 64.5593 3.77711 1.77172 0
M  V30 748 H 63.1893 2.63916 1.85872 0
M  V30 749 H 62.2413 3.79458 -0.267594 0
M  V30 750 H 63.5533 4.98626 -0.131686 0
M  V30 751 H 62.7073 5.68533 2.11791 0
M  V30 752 H 61.4463 4.42158 2.05786 0
M  V30 753 H 60.4513 5.49796 0.0197725 0
M  V30 754 H 61.6763 6.79028 0.09912 0
M  V30 755 H 59.6223 6.16094 2.25308 0
M  V30 756 H 59.5393 7.47556 1.12673 0
M  V30 757 H 60.8073 7.44316 2.31546 0
M  V30 758 N 65.0364 0.313813 1.54444 0
M  V30 759 C 66.2644 -0.293918 2.04802 0
M  V30 760 C 66.6794 -1.46537 1.19047 0
M  V30 761 O 66.0364 -1.81182 0.218939 0
M  V30 762 C 66.0874 -0.737806 3.53891 0
M  V30 763 O 65.8084 0.387038 4.36387 0
M  V30 764 C 67.3094 -1.40936 4.203 0
M  V30 765 H 64.5294 -0.0620057 0.668129 0
M  V30 766 H 67.0734 0.457169 1.99324 0
M  V30 767 H 65.2284 -1.43889 3.59687 0
M  V30 768 H 65.6424 0.0391274 5.24485 0
M  V30 769 H 67.1164 -1.67099 5.26101 0
M  V30 770 H 67.5934 -2.35355 3.70816 0
M  V30 771 H 68.1994 -0.751117 4.18615 0
M  V30 772 N 66.5145 -1.57545 0.0417849 0
M  V30 773 C 67.7605 -1.92601 -0.635021 0
M  V30 774 C 68.0935 -0.919627 -1.71045 0
M  V30 775 O 67.3685 0.0557892 -1.9442 0
M  V30 776 C 67.6515 -3.38085 -1.23979 0
M  V30 777 C 67.5045 -4.49467 -0.173057 0
M  V30 778 C 68.8235 -3.83776 -2.15416 0
M  V30 779 H 65.9425 -0.700397 -0.229374 0
M  V30 780 H 68.5845 -1.89728 0.101633 0
M  V30 781 H 66.7345 -3.40664 -1.86762 0
M  V30 782 H 68.4065 -4.59018 0.458312 0
M  V30 783 H 66.6495 -4.30909 0.499996 0
M  V30 784 H 67.3205 -5.48323 -0.636054 0
M  V30 785 H 69.7965 -3.83013 -1.62605 0
M  V30 786 H 68.6725 -4.8624 -2.54679 0
M  V30 787 H 68.9335 -3.19998 -3.05047 0
M  V30 788 N 67.9926 0.231505 -1.5589 0
M  V30 789 C 69.2206 0.974505 -1.82513 0
M  V30 790 C 69.6356 1.78344 -0.619591 0
M  V30 791 O 68.9926 1.77792 0.411848 0
M  V30 792 C 69.0436 1.90007 -3.07538 0
M  V30 793 O 68.7646 1.12385 -4.2344 0
M  V30 794 C 70.2656 2.75779 -3.47075 0
M  V30 795 H 67.4856 0.286065 -0.606966 0
M  V30 796 H 70.0296 0.249739 -2.02969 0
M  V30 797 H 68.1846 2.57891 -2.89086 0
M  V30 798 H 68.5986 1.75125 -4.944 0
M  V30 799 H 70.0726 3.36443 -4.37619 0
M  V30 800 H 70.5496 3.47672 -2.68367 0
M  V30 801 H 71.1556 2.13323 -3.67931 0
M  V30 802 N 69.4707 1.49531 0.497807 0
M  V30 803 C 70.7197 1.58426 1.24837 0
M  V30 804 C 71.0327 0.277643 1.93619 0
M  V30 805 O 72.2387 0.24517 2.70391 0
M  V30 806 C 70.6947 2.79538 2.26686 0
M  V30 807 C 70.3027 4.16971 1.63828 0
M  V30 808 C 72.0467 2.97764 3.0255 0
M  V30 809 C 69.9537 5.29301 2.63807 0
M  V30 810 H 68.8837 0.58989 0.469623 0
M  V30 811 H 71.5347 1.75923 0.521857 0
M  V30 812 H 69.9167 2.55542 3.02514 0
M  V30 813 H 71.0907 4.51116 0.939711 0
M  V30 814 H 69.4057 4.04129 1.00342 0
M  V30 815 H 72.0027 3.78856 3.77323 0
M  V30 816 H 72.3457 2.08448 3.60354 0
M  V30 817 H 72.8787 3.21815 2.33838 0
M  V30 818 H 69.6177 6.20687 2.10779 0
M  V30 819 H 69.1377 4.99606 3.31894 0
M  V30 820 H 70.8167 5.58768 3.2617 0
M  V30 821 N 70.9488 -0.749086 1.3866 0
M  V30 822 C 72.1968 -1.50535 1.34847 0
M  V30 823 C 72.5178 -1.94909 -0.0595016 0
M  V30 824 O 71.7878 -1.67973 -1.00806 0
M  V30 825 H 70.3678 -0.558395 0.49619 0
M  V30 826 H 73.0298 -0.890165 1.73384 0
M  V30 827 H 72.1258 -2.39413 2.00219 0
M  V30 828 N 72.4269 -1.23603 -0.977757 0
M  V30 829 C 73.6739 -1.06971 -1.71941 0
M  V30 830 C 74.0019 0.393009 -1.90488 0
M  V30 831 O 73.2569 1.30719 -1.4564 0
M  V30 832 C 73.5559 -1.7433 -3.11999 0
M  V30 833 C 73.2219 -3.24252 -3.13323 0
M  V30 834 C 71.8839 -3.65156 -3.13392 0
M  V30 835 C 74.2359 -4.20141 -3.08433 0
M  V30 836 C 71.5639 -5.00403 -3.0629 0
M  V30 837 C 73.9159 -5.55384 -3.02873 0
M  V30 838 C 72.5799 -5.95647 -3.01265 0
M  V30 839 H 71.8499 -0.391433 -0.629175 0
M  V30 840 H 74.4969 -1.53572 -1.14403 0
M  V30 841 H 72.8019 -1.20096 -3.7294 0
M  V30 842 H 74.4989 -1.58936 -3.68158 0
M  V30 843 H 71.0889 -2.91692 -3.14029 0
M  V30 844 H 75.2729 -3.89547 -3.07517 0
M  V30 845 H 70.5289 -5.3081 -3.03399 0
M  V30 846 H 74.7029 -6.29398 -2.98046 0
M  V30 847 H 72.3299 -7.0041 -2.95516 0
M  V30 848 N 73.905 1.17692 -1.04816 0
M  V30 849 C 75.153 1.87488 -0.754497 0
M  V30 850 C 75.474 1.81205 0.720407 0
M  V30 851 O 74.744 1.23544 1.52032 0
M  V30 852 H 73.324 0.694101 -0.276102 0
M  V30 853 H 75.986 1.42793 -1.32651 0
M  V30 854 H 75.082 2.93328 -1.06606 0
M  V30 855 N 75.3831 0.828654 1.34056 0
M  V30 856 C 76.6291 0.42008 1.98402 0
M  V30 857 C 76.9621 -1.01564 1.65525 0
M  V30 858 O 76.2371 -1.70834 0.929831 0
M  V30 859 C 76.5201 0.62927 3.54559 0
M  V30 860 C 76.3731 2.11152 3.97159 0
M  V30 861 C 77.6921 0.0688756 4.40046 0
M  V30 862 H 74.8111 0.154104 0.720709 0
M  V30 863 H 77.4531 1.04228 1.5886 0
M  V30 864 H 75.6031 0.0996418 3.88372 0
M  V30 865 H 77.2751 2.70522 3.73651 0
M  V30 866 H 75.5181 2.59985 3.47261 0
M  V30 867 H 76.1891 2.20868 5.05887 0
M  V30 868 H 78.6651 0.521458 4.1282 0
M  V30 869 H 77.5411 0.245006 5.48353 0
M  V30 870 H 77.8021 -1.0266 4.30015 0
M  V30 871 N 76.8612 -1.46375 0.584142 0
M  V30 872 C 78.0892 -2.06761 0.0759296 0
M  V30 873 C 78.5042 -1.43266 -1.22965 0
M  V30 874 O 77.8612 -0.538458 -1.74376 0
M  V30 875 C 77.9122 -3.61375 -0.0950384 0
M  V30 876 O 77.6332 -4.22495 1.15887 0
M  V30 877 C 79.1342 -4.38693 -0.637434 0
M  V30 878 H 76.3542 -0.668479 0.0581075 0
M  V30 879 H 78.8982 -1.8798 0.805218 0
M  V30 880 H 77.0532 -3.79578 -0.774554 0
M  V30 881 H 77.4672 -5.15385 0.973598 0
M  V30 882 H 78.9412 -5.47464 -0.706237 0
M  V30 883 H 79.4182 -4.06836 -1.65472 0
M  V30 884 H 80.0242 -4.25299 0.00725967 0
M  V30 885 N 78.3393 -0.321999 -1.54275 0
M  V30 886 C 79.2693 0.537411 -2.27231 0
M  V30 887 C 80.2503 1.12064 -1.27968 0
M  V30 888 O 81.4353 1.14606 -1.56777 0
M  V30 889 C 78.5653 1.69919 -3.02894 0
M  V30 890 C 77.5193 1.24534 -4.09482 0
M  V30 891 C 76.8453 2.49394 -4.72977 0
M  V30 892 C 78.1453 0.361335 -5.21049 0
M  V30 893 H 79.8393 -0.0711406 -2.99315 0
M  V30 894 H 77.3853 -0.0356555 -1.43956 0
M  V30 895 H 79.3383 2.30668 -3.52662 0
M  V30 896 H 78.0623 2.33431 -2.28424 0
M  V30 897 H 76.7213 0.660782 -3.60596 0
M  V30 898 H 76.3693 3.11265 -3.95124 0
M  V30 899 H 76.0693 2.19718 -5.44975 0
M  V30 900 H 77.5933 3.10908 -5.25517 0
M  V30 901 H 79.0073 0.875072 -5.66582 0
M  V30 902 H 77.4043 0.157428 -5.99893 0
M  V30 903 H 78.4743 -0.60822 -4.8107 0
M  V30 904 N 79.8174 1.5752 -0.0501392 0
M  V30 905 C 81.0574 1.94521 0.627783 0
M  V30 906 C 81.4214 0.928265 1.68069 0
M  V30 907 O 82.6224 1.18517 2.41261 0
M  V30 908 C 80.8934 3.36319 1.20932 0
M  V30 909 S 82.4524 3.95272 1.90539 0
M  V30 910 H 79.2704 0.680456 0.206158 0
M  V30 911 H 81.8724 1.95139 -0.118829 0
M  V30 912 H 80.5764 4.08132 0.430865 0
M  V30 913 H 80.1074 3.39193 1.99277 0
M  V30 914 H 82.1224 3.80415 3.18589 0
M  V30 915 N 81.2955 -0.223234 1.56011 0
M  V30 916 C 82.2585 -1.26014 1.9145 0
M  V30 917 C 83.2585 -1.3989 0.792937 0
M  V30 918 O 84.4485 -1.38184 1.0607 0
M  V30 919 C 81.5805 -2.63422 2.16383 0
M  V30 920 H 82.7735 -0.95796 2.84189 0
M  V30 921 H 80.3265 -0.463576 1.49267 0
M  V30 922 H 81.0615 -2.98741 1.2619 0
M  V30 923 H 80.8465 -2.54728 2.98088 0
M  V30 924 H 82.3365 -3.38249 2.44903 0
M  V30 925 N 82.7736 -1.49793 -0.48987 0
M  V30 926 C 84.0196 -1.60078 -1.24511 0
M  V30 927 C 84.3526 -0.291608 -1.91998 0
M  V30 928 O 83.6276 0.705647 -1.81248 0
M  V30 929 C 83.9106 -2.76791 -2.30345 0
M  V30 930 C 83.7636 -4.17535 -1.67286 0
M  V30 931 C 85.0826 -2.89111 -3.31817 0
M  V30 932 H 82.2016 -0.582645 -0.451324 0
M  V30 933 H 84.8436 -1.82117 -0.541612 0
M  V30 934 H 82.9936 -2.5813 -2.90346 0
M  V30 935 H 84.6656 -4.4774 -1.11026 0
M  V30 936 H 82.9086 -4.22665 -0.976577 0
M  V30 937 H 83.5796 -4.95094 -2.44103 0
M  V30 938 H 86.0556 -3.06133 -2.81819 0
M  V30 939 H 84.9316 -3.72433 -4.03219 0
M  V30 940 H 85.1926 -1.9893 -3.94815 0
M  V30 941 N 84.2517 0.741722 -1.39055 0
M  V30 942 C 85.6627 1.31966 -1.32068 0
M  V30 943 C 86.0137 1.96192 0.0180797 0
M  V30 944 O 85.1387 1.95861 0.920196 0
M  V30 945 C 85.7337 2.39954 -2.39181 0
M  V30 946 C 84.2927 2.93438 -2.35735 0
M  V30 947 C 83.4397 1.66936 -2.21422 0
M  V30 948 H 86.3907 0.539721 -1.4924 0
M  V30 949 H 86.4117 3.20182 -2.05581 0
M  V30 950 H 85.9237 1.9318 -3.36605 0
M  V30 951 H 84.0247 3.4451 -1.41929 0
M  V30 952 H 84.1377 3.4701 -3.30335 0
M  V30 953 H 82.5017 1.91016 -1.68478 0
M  V30 954 H 83.2847 1.22224 -3.20806 0
M  V30 955 N 85.7298 1.2412 0.971189 0
M  V30 956 C 86.9788 1.07284 1.70801 0
M  V30 957 C 87.2918 -0.388902 1.91695 0
M  V30 958 O 88.4978 -0.677379 2.62914 0
M  V30 959 C 86.9538 1.87145 3.07416 0
M  V30 960 C 86.5618 3.37707 2.94377 0
M  V30 961 C 88.3058 1.78828 3.84995 0
M  V30 962 C 86.2128 4.09925 4.26281 0
M  V30 963 H 85.1428 0.397854 0.64049 0
M  V30 964 H 87.7938 1.4817 1.0825 0
M  V30 965 H 86.1758 1.39071 3.70777 0
M  V30 966 H 87.3498 3.93335 2.4005 0
M  V30 967 H 85.6648 3.46938 2.30267 0
M  V30 968 H 88.2618 2.30089 4.82662 0
M  V30 969 H 88.6048 0.75284 4.09436 0
M  V30 970 H 89.1378 2.24563 3.28354 0
M  V30 971 H 85.8768 5.13813 4.07033 0
M  V30 972 H 85.3968 3.59083 4.80437 0
M  V30 973 H 87.0758 4.1673 4.94919 0
M  V30 974 N 87.2079 -1.17134 1.05439 0
M  V30 975 C 88.1709 -2.19439 0.661764 0
M  V30 976 C 89.1709 -1.58199 -0.288042 0
M  V30 977 O 90.3609 -1.74053 -0.0715803 0
M  V30 978 C 87.4929 -3.40889 -0.0276209 0
M  V30 979 H 88.6859 -2.55688 1.56728 0
M  V30 980 H 86.2389 -1.31259 0.848567 0
M  V30 981 H 86.9739 -3.10187 -0.94629 0
M  V30 982 H 86.7589 -3.86586 0.655238 0
M  V30 983 H 88.2489 -4.16603 -0.288342 0
M  V30 984 N 88.686 -0.835752 -1.33615 0
M  V30 985 C 89.618 -0.224151 -2.28101 0
M  V30 986 C 90.631 0.593331 -1.51603 0
M  V30 987 O 91.82 0.420911 -1.73466 0
M  V30 988 C 88.92 0.703309 -3.31522 0
M  V30 989 C 88.093 -0.0741528 -4.37337 0
M  V30 990 C 87.152 0.776176 -5.20444 0
M  V30 991 O 86.178 0.216506 -5.68788 0
M  V30 992 N 87.38 2.09401 -5.41416 0
M  V30 993 H 90.145 -1.03598 -2.81225 0
M  V30 994 H 87.706 -0.69392 -1.46275 0
M  V30 995 H 89.698 1.27707 -3.84022 0
M  V30 996 H 88.268 1.41585 -2.78698 0
M  V30 997 H 87.488 -0.82928 -3.85378 0
M  V30 998 H 88.776 -0.608863 -5.05144 0
M  V30 999 H 88.174 2.57229 -5.03835 0
M  V30 1000 H 86.731 2.61633 -5.96985 0
M  V30 1001 N 90.1641 1.46063 -0.591896 0
M  V30 1002 C 91.1111 2.30399 0.136069 0
M  V30 1003 C 92.0811 1.41169 0.875238 0
M  V30 1004 O 93.2661 1.70112 0.86409 0
M  V30 1005 C 90.4061 3.25804 1.13781 0
M  V30 1006 C 89.5191 4.30134 0.401137 0
M  V30 1007 C 88.6541 5.12659 1.39121 0
M  V30 1008 C 87.6931 6.0873 0.641462 0
M  V30 1009 N 86.8301 6.8409 1.58004 0
M  V30 1010 H 91.6701 2.92118 -0.589144 0
M  V30 1011 H 89.2071 1.43959 -0.302342 0
M  V30 1012 H 91.1651 3.79569 1.73156 0
M  V30 1013 H 89.7951 2.65872 1.83062 0
M  V30 1014 H 88.8471 3.79152 -0.307826 0
M  V30 1015 H 90.1591 4.98458 -0.184565 0
M  V30 1016 H 89.3131 5.70747 2.05749 0
M  V30 1017 H 88.0521 4.44316 2.01084 0
M  V30 1018 H 87.0571 5.49786 -0.0385419 0
M  V30 1019 H 88.2821 6.79095 0.0270945 0
M  V30 1020 H 86.2281 6.18449 2.18761 0
M  V30 1021 H 86.1451 7.48709 1.04738 0
M  V30 1022 H 87.4131 7.4673 2.23639 0
M  V30 1023 N 91.6422 0.330177 1.54103 0
M  V30 1024 C 92.8672 -0.274893 2.0557 0
M  V30 1025 C 93.2922 -1.44487 1.20437 0
M  V30 1026 O 92.6502 -1.80021 0.214991 0
M  V30 1027 C 92.6982 -0.68079 3.54115 0
M  V30 1028 O 91.8022 -1.7824 3.71893 0
M  V30 1029 H 91.1432 -0.0483849 0.662235 0
M  V30 1030 H 93.6732 0.480508 1.98878 0
M  V30 1031 H 93.6832 -0.961635 3.96505 0
M  V30 1032 H 92.3582 0.174903 4.15532 0
M  V30 1033 H 90.9352 -1.49985 3.41407 0
M  V30 1034 N 93.1203 -1.57491 0.0584922 0
M  V30 1035 C 94.0303 -2.15448 -0.928414 0
M  V30 1036 C 95.0463 -1.11416 -1.3365 0
M  V30 1037 O 96.2223 -1.4362 -1.41193 0
M  V30 1038 C 93.2873 -2.69393 -2.18239 0
M  V30 1039 C 92.3483 -3.88249 -1.83196 0
M  V30 1040 C 91.5813 -4.39613 -3.02616 0
M  V30 1041 O 91.8043 -3.90023 -4.16219 0
M  V30 1042 O 90.7383 -5.31111 -2.83204 0
M  V30 1043 H 94.5643 -3.00112 -0.465483 0
M  V30 1044 H 92.1493 -1.48499 -0.163826 0
M  V30 1045 H 94.0313 -3.04026 -2.91798 0
M  V30 1046 H 92.7063 -1.87796 -2.63656 0
M  V30 1047 H 91.6133 -3.58492 -1.06931 0
M  V30 1048 H 92.9463 -4.71098 -1.42573 0
M  V30 1049 N 94.5984 0.214957 -1.56127 0
M  V30 1050 C 96.0094 0.781386 -1.69562 0
M  V30 1051 C 96.3604 1.84707 -0.66165 0
M  V30 1052 O 95.4854 2.156 0.185927 0
M  V30 1053 C 96.0804 1.42411 -3.07416 0
M  V30 1054 C 94.6394 1.93786 -3.22683 0
M  V30 1055 C 93.7864 0.800438 -2.65496 0
M  V30 1056 H 96.7374 -0.00980633 -1.58697 0
M  V30 1057 H 96.7584 2.29309 -3.0364 0
M  V30 1058 H 96.2704 0.64826 -3.82648 0
M  V30 1059 H 94.3714 2.74152 -2.52332 0
M  V30 1060 H 94.4844 2.1133 -4.29973 0
M  V30 1061 H 92.8484 1.2095 -2.2415 0
M  V30 1062 H 93.6314 0.0371471 -3.4328 0
M  V30 1063 N 96.0765 1.50051 0.48192 0
M  V30 1064 C 97.0265 1.64512 1.5786 0
M  V30 1065 C 98.0105 0.500073 1.52932 0
M  V30 1066 O 99.2025 0.753964 1.60139 0
M  V30 1067 C 96.3315 1.73263 2.9637 0
M  V30 1068 C 95.4175 2.93409 3.06222 0
M  V30 1069 N 95.8085 4.17236 2.85915 0
M  V30 1070 C 94.1065 2.91742 3.37346 0
M  V30 1071 C 94.8075 4.981 3.00451 0
M  V30 1072 N 93.7835 4.3184 3.30174 0
M  V30 1073 H 97.5855 2.57955 1.40842 0
M  V30 1074 H 95.0995 1.47086 0.688439 0
M  V30 1075 H 97.0965 1.81724 3.75209 0
M  V30 1076 H 95.7565 0.809711 3.14442 0
M  V30 1077 H 96.7675 4.46909 2.6171 0
M  V30 1078 H 93.4445 2.08907 3.61475 0
M  V30 1079 H 94.8345 6.06532 2.89082 0
M  V30 1080 N 97.5546 -0.734337 1.39446 0
M  V30 1081 C 98.7796 -1.52866 1.40167 0
M  V30 1082 C 99.2046 -1.881 -0.00171513 0
M  V30 1083 O 98.5626 -1.51957 -0.988879 0
M  V30 1084 C 98.6106 -2.79235 2.28167 0
M  V30 1085 O 97.7146 -3.75185 1.71201 0
M  V30 1086 H 97.0556 -0.461618 0.477289 0
M  V30 1087 H 99.5856 -0.905949 1.8345 0
M  V30 1088 H 99.5956 -3.27963 2.42702 0
M  V30 1089 H 98.2706 -2.52923 3.30156 0
M  V30 1090 H 96.8476 -3.33958 1.65912 0
M  V30 1091 N 99.0327 -1.24633 -0.964593 0
M  V30 1092 C 99.9627 -1.06611 -2.07741 0
M  V30 1093 C 100.944 0.0218666 -1.70086 0
M  V30 1094 O 102.129 -0.145793 -1.93652 0
M  V30 1095 C 99.2587 -0.673444 -3.40708 0
M  V30 1096 C 98.2127 -1.71054 -3.92332 0
M  V30 1097 C 97.5387 -1.17285 -5.21678 0
M  V30 1098 C 98.8387 -3.10718 -4.19824 0
M  V30 1099 H 100.533 -1.99693 -2.23076 0
M  V30 1100 H 98.0787 -0.96152 -1.07195 0
M  V30 1101 H 100.032 -0.534345 -4.17998 0
M  V30 1102 H 98.7557 0.293073 -3.25282 0
M  V30 1103 H 97.4147 -1.83791 -3.17201 0
M  V30 1104 H 97.0627 -0.196847 -5.02615 0
M  V30 1105 H 96.7627 -1.86592 -5.57187 0
M  V30 1106 H 98.2867 -1.04593 -6.01575 0
M  V30 1107 H 99.7007 -3.01192 -4.87808 0
M  V30 1108 H 98.0977 -3.77406 -4.66567 0
M  V30 1109 H 99.1677 -3.58524 -3.26479 0
M  V30 1110 N 100.511 1.16574 -1.06058 0
M  V30 1111 C 101.736 1.91493 -0.796562 0
M  V30 1112 C 102.161 1.76773 0.642868 0
M  V30 1113 O 101.519 1.09142 1.44768 0
M  V30 1114 C 101.567 3.40293 -1.19303 0
M  V30 1115 O 100.671 4.11074 -0.330394 0
M  V30 1116 H 100.012 0.596678 -0.291326 0
M  V30 1117 H 102.542 1.47708 -1.41575 0
M  V30 1118 H 102.552 3.91057 -1.16356 0
M  V30 1119 H 101.227 3.50326 -2.24153 0
M  V30 1120 H 99.8038 3.70513 -0.421225 0
M  V30 1121 N 101.989 0.842826 1.3317 0
M  V30 1122 C 103.214 0.453129 2.02389 0
M  V30 1123 C 103.639 -0.939105 1.6298 0
M  V30 1124 O 102.997 -1.61472 0.8244 0
M  V30 1125 C 103.045 0.586094 3.55805 0
M  V30 1126 O 102.149 -0.386029 4.10589 0
M  V30 1127 H 101.49 0.183664 0.638094 0
M  V30 1128 H 104.02 1.13875 1.69981 0
M  V30 1129 H 104.03 0.469209 4.05293 0
M  V30 1130 H 102.705 1.6014 3.83833 0
M  V30 1131 H 101.282 -0.226371 3.72212 0
M  V30 1132 N 103.467 -1.45747 0.599634 0
M  V30 1133 C 104.377 -2.34262 -0.125888 0
M  V30 1134 C 105.393 -1.50768 -0.868625 0
M  V30 1135 O 106.569 -1.83592 -0.828003 0
M  V30 1136 C 103.634 -3.28252 -1.11587 0
M  V30 1137 C 102.695 -4.27651 -0.375956 0
M  V30 1138 C 101.928 -5.1715 -1.31877 0
M  V30 1139 O 102.151 -5.09916 -2.55621 0
M  V30 1140 O 101.085 -5.96286 -0.820157 0
M  V30 1141 H 104.911 -2.97688 0.601315 0
M  V30 1142 H 102.496 -1.44999 0.359934 0
M  V30 1143 H 104.378 -3.86191 -1.68626 0
M  V30 1144 H 103.053 -2.67401 -1.82424 0
M  V30 1145 H 101.96 -3.7335 0.236698 0
M  V30 1146 H 103.293 -4.91334 0.29177 0
M  V30 1147 N 104.945 -0.338344 -1.53925 0
M  V30 1148 C 105.908 0.508299 -2.23493 0
M  V30 1149 C 106.908 1.03175 -1.23335 0
M  V30 1150 O 108.098 0.921826 -1.47811 0
M  V30 1151 C 105.23 1.70754 -2.95052 0
M  V30 1152 H 106.423 -0.100058 -2.99733 0
M  V30 1153 H 103.976 -0.0896198 -1.56043 0
M  V30 1154 H 104.711 2.35474 -2.22986 0
M  V30 1155 H 104.496 1.33946 -3.68512 0
M  V30 1156 H 105.986 2.30818 -3.48013 0
M  V30 1157 N 106.423 1.57458 -0.0668435 0
M  V30 1158 C 107.353 2.15468 0.899764 0
M  V30 1159 C 108.334 1.08042 1.31381 0
M  V30 1160 O 109.519 1.36054 1.38574 0
M  V30 1161 C 106.649 2.71232 2.16911 0
M  V30 1162 C 105.603 3.83781 1.89463 0
M  V30 1163 C 104.929 4.26127 3.22986 0
M  V30 1164 C 106.229 5.08238 1.20381 0
M  V30 1165 H 107.923 2.96488 0.416529 0
M  V30 1166 H 105.469 1.4262 0.198908 0
M  V30 1167 H 107.422 3.10458 2.84945 0
M  V30 1168 H 106.146 1.87426 2.67468 0
M  V30 1169 H 104.805 3.45051 1.23836 0
M  V30 1170 H 104.453 3.39249 3.71374 0
M  V30 1171 H 104.153 5.01993 3.05413 0
M  V30 1172 H 105.677 4.67966 3.92225 0
M  V30 1173 H 107.091 5.44811 1.78475 0
M  V30 1174 H 105.488 5.89349 1.13083 0
M  V30 1175 H 106.558 4.84558 0.182153 0
M  V30 1176 N 107.901 -0.206675 1.56239 0
M  V30 1177 C 108.834 -1.28383 1.88661 0
M  V30 1178 C 109.812 -1.44504 0.745481 0
M  V30 1179 O 110.996 -1.60079 0.995336 0
M  V30 1180 C 108.123 -2.65211 2.10667 0
M  V30 1181 C 107.169 -2.66025 3.33366 0
M  V30 1182 S 108.002 -2.18609 4.88846 0
M  V30 1183 C 109.158 -3.57283 5.13906 0
M  V30 1184 H 109.391 -1.00691 2.7973 0
M  V30 1185 H 106.924 -0.409627 1.48867 0
M  V30 1186 H 108.882 -3.43979 2.24029 0
M  V30 1187 H 107.543 -2.90121 1.20369 0
M  V30 1188 H 106.736 -3.66607 3.45855 0
M  V30 1189 H 106.338 -1.95331 3.18938 0
M  V30 1190 H 108.63 -4.53074 5.03717 0
M  V30 1191 H 109.573 -3.49699 6.15724 0
M  V30 1192 H 109.981 -3.51659 4.41583 0
M  V30 1193 N 109.379 -1.50304 -0.473955 0
M  V30 1194 C 110.795 -1.37667 -0.807466 0
M  V30 1195 C 110.995 -0.430555 -1.96846 0
M  V30 1196 O 110.051 0.127874 -2.52176 0
M  V30 1197 C 111.364 -2.78974 -1.12223 0
M  V30 1198 C 112.912 -2.87868 -1.22885 0
M  V30 1199 C 113.387 -4.30003 -1.57676 0
M  V30 1200 N 114.878 -4.3294 -1.64673 0
M  V30 1201 C 115.613 -5.3991 -1.93091 0
M  V30 1202 N 115.109 -6.57092 -2.1955 0
M  V30 1203 N 116.902 -5.27351 -1.94569 0
M  V30 1204 H 109.053 -2.10394 0.291212 0
M  V30 1205 H 111.316 -0.945575 0.0677609 0
M  V30 1206 H 111.022 -3.50031 -0.342229 0
M  V30 1207 H 110.896 -3.16038 -2.05913 0
M  V30 1208 H 113.283 -2.17032 -1.99953 0
M  V30 1209 H 113.364 -2.54352 -0.271814 0
M  V30 1210 H 113.008 -5.01375 -0.81149 0
M  V30 1211 H 112.938 -4.61004 -2.54525 0
M  V30 1212 H 115.429 -3.48441 -1.46277 0
M  V30 1213 H 115.742 -7.34425 -2.405 0
M  V30 1214 H 114.087 -6.60272 -2.16948 0
M  V30 1215 H 117.278 -4.34801 -1.73394 0
M  V30 1216 H 117.451 -6.10805 -2.16381 0
M  V30 1217 N 110.857 0.726932 -1.39834 0
M  V30 1218 C 112.273 1.03354 -1.21615 0
M  V30 1219 C 112.473 2.01327 -0.08338 0
M  V30 1220 O 111.529 2.46158 0.56238 0
M  V30 1221 C 112.842 1.58811 -2.55342 0
M  V30 1222 C 114.39 1.70851 -2.62257 0
M  V30 1223 C 114.865 2.29716 -3.96225 0
M  V30 1224 N 116.356 2.37116 -3.97907 0
M  V30 1225 C 117.091 2.83619 -4.98345 0
M  V30 1226 N 116.587 3.29958 -6.09179 0
M  V30 1227 N 118.38 2.82901 -4.8572 0
M  V30 1228 H 110.531 0.0773069 -2.12259 0
M  V30 1229 H 112.794 0.0969102 -0.943034 0
M  V30 1230 H 112.5 0.942855 -3.38826 0
M  V30 1231 H 112.374 2.57502 -2.75632 0
M  V30 1232 H 114.761 2.34497 -1.79152 0
M  V30 1233 H 114.842 0.707913 -2.45809 0
M  V30 1234 H 114.486 1.66696 -4.79765 0
M  V30 1235 H 114.416 3.30469 -4.09997 0
M  V30 1236 H 116.907 2.04374 -3.17868 0
M  V30 1237 H 117.22 3.63976 -6.8172 0
M  V30 1238 H 115.565 3.27946 -6.12761 0
M  V30 1239 H 118.756 2.46027 -3.98231 0
M  V30 1240 H 118.929 3.18827 -5.6414 0
M  V30 1241 N 112.336 1.25143 0.95797 0
M  V30 1242 C 113.299 1.05321 2.03569 0
M  V30 1243 C 114.299 0.007152 1.60798 0
M  V30 1244 O 115.489 0.24903 1.72411 0
M  V30 1245 C 112.621 0.598394 3.35607 0
M  V30 1246 H 113.814 2.00986 2.22586 0
M  V30 1247 H 111.367 1.07502 1.13459 0
M  V30 1248 H 112.102 -0.361014 3.22284 0
M  V30 1249 H 111.887 1.35351 3.67998 0
M  V30 1250 H 113.377 0.48104 4.1482 0
M  V30 1251 N 113.814 -1.1601 1.06675 0
M  V30 1252 C 115.06 -1.86909 0.786945 0
M  V30 1253 C 115.393 -1.81717 -0.685018 0
M  V30 1254 O 114.668 -1.23551 -1.50218 0
M  V30 1255 C 114.951 -3.36313 1.28707 0
M  V30 1256 C 114.804 -3.50175 2.82308 0
M  V30 1257 C 116.123 -4.3084 0.898071 0
M  V30 1258 H 113.242 -0.678677 0.287343 0
M  V30 1259 H 115.884 -1.36336 1.32334 0
M  V30 1260 H 114.034 -3.79513 0.830768 0
M  V30 1261 H 115.706 -3.15886 3.36175 0
M  V30 1262 H 113.949 -2.91959 3.20847 0
M  V30 1263 H 114.62 -4.55116 3.12368 0
M  V30 1264 H 117.096 -3.95561 1.29114 0
M  V30 1265 H 115.972 -5.33876 1.27543 0
M  V30 1266 H 116.233 -4.41662 -0.196651 0
M  V30 1267 N 115.292 -0.849877 -1.32721 0
M  V30 1268 C 116.517 -0.463856 -2.02146 0
M  V30 1269 C 116.942 0.930449 -1.63476 0
M  V30 1270 O 116.3 1.61033 -0.832952 0
M  V30 1271 C 116.348 -0.604955 -3.55489 0
M  V30 1272 O 115.452 0.36425 -4.10788 0
M  V30 1273 H 114.793 -0.187046 -0.637111 0
M  V30 1274 H 117.323 -1.14775 -1.69375 0
M  V30 1275 H 117.333 -0.490696 -4.05038 0
M  V30 1276 H 116.008 -1.62174 -3.82978 0
M  V30 1277 H 114.585 0.206628 -3.72327 0
M  V30 1278 N 116.77 1.45427 -0.607355 0
M  V30 1279 C 117.7 2.3329 0.0989352 0
M  V30 1280 C 118.681 1.46816 0.859007 0
M  V30 1281 O 119.866 1.75588 0.829604 0
M  V30 1282 C 116.996 3.29518 1.09705 0
M  V30 1283 C 115.95 4.25626 0.450206 0
M  V30 1284 C 115.276 5.11542 1.55655 0
M  V30 1285 C 116.576 5.18505 -0.628455 0
M  V30 1286 H 118.27 2.92595 -0.634716 0
M  V30 1287 H 115.816 1.40696 -0.306681 0
M  V30 1288 H 117.769 3.89855 1.59971 0
M  V30 1289 H 116.493 2.68372 1.86129 0
M  V30 1290 H 115.152 3.66586 -0.0315886 0
M  V30 1291 H 114.8 4.46765 2.31107 0
M  V30 1292 H 114.5 5.76647 1.12925 0
M  V30 1293 H 116.024 5.74748 2.06148 0
M  V30 1294 H 117.438 5.72916 -0.209877 0
M  V30 1295 H 115.835 5.92085 -0.977489 0
M  V30 1296 H 116.905 4.60948 -1.50514 0
M  V30 1297 N 118.248 0.346503 1.53744 0
M  V30 1298 C 119.494 -0.249473 2.0126 0
M  V30 1299 C 119.827 -1.49965 1.23386 0
M  V30 1300 O 119.102 -1.91811 0.32229 0
M  V30 1301 C 119.385 -0.560643 3.55709 0
M  V30 1302 C 119.238 0.701836 4.44291 0
M  V30 1303 C 120.557 -1.36905 4.18264 0
M  V30 1304 H 117.676 -0.0891987 0.731582 0
M  V30 1305 H 120.318 0.467624 1.84156 0
M  V30 1306 H 118.468 -1.17156 3.70414 0
M  V30 1307 H 120.14 1.33974 4.41417 0
M  V30 1308 H 118.383 1.32612 4.13033 0
M  V30 1309 H 119.054 0.43933 5.50249 0
M  V30 1310 H 121.53 -0.852448 4.07275 0
M  V30 1311 H 120.406 -1.55553 5.26398 0
M  V30 1312 H 120.667 -2.37203 3.73078 0
M  V30 1313 N 119.726 -1.57421 0.075193 0
M  V30 1314 C 120.954 -1.97946 -0.602076 0
M  V30 1315 C 121.369 -0.953674 -1.62943 0
M  V30 1316 O 120.726 0.0592551 -1.82404 0
M  V30 1317 C 120.777 -3.38546 -1.26762 0
M  V30 1318 O 120.498 -4.37195 -0.281376 0
M  V30 1319 C 121.999 -3.93966 -2.03239 0
M  V30 1320 H 119.219 -0.650918 -0.162931 0
M  V30 1321 H 121.763 -2.03959 0.148601 0
M  V30 1322 H 119.918 -3.33609 -1.96936 0
M  V30 1323 H 120.332 -5.18975 -0.759267 0
M  V30 1324 H 121.806 -4.94555 -2.45193 0
M  V30 1325 H 122.283 -3.30693 -2.8903 0
M  V30 1326 H 122.889 -4.02315 -1.37924 0
M  V30 1327 N 121.204 0.198386 -1.56346 0
M  V30 1328 C 122.481 0.944982 -1.71258 0
M  V30 1329 C 122.861 2.0151 -0.629048 0
M  V30 1330 O 122.209 2.25639 0.360473 0
M  V30 1331 C 122.419 1.5344 -3.1346 0
M  V30 1332 C 123.767 2.01778 -3.73591 0
M  V30 1333 O 124.791 1.63288 -3.16568 0
M  V30 1334 O 123.65 2.72594 -4.73661 0
M  V30 1335 H 120.744 0.442939 -0.69838 0
M  V30 1336 H 123.29 0.188342 -1.68652 0
M  V30 1337 H 122.062 0.762869 -3.83792 0
M  V30 1338 H 121.685 2.35596 -3.20282 0
M  V30 1339 N 122.682 1.50554 0.465978 0
M  V30 1340 C 123.907 1.65838 1.24549 0
M  V30 1341 C 124.332 0.343486 1.84937 0
M  V30 1342 O 123.69 -0.69324 1.67523 0
M  V30 1343 C 123.738 2.75533 2.32624 0
M  V30 1344 O 122.842 2.37142 3.37398 0
M  V30 1345 H 122.183 0.553893 0.366194 0
M  V30 1346 H 124.713 1.96959 0.553927 0
M  V30 1347 H 124.723 2.98763 2.77857 0
M  V30 1348 H 123.398 3.70962 1.88043 0
M  V30 1349 H 121.975 2.24377 2.97841 0
M  V30 1350 N 124.16 -0.719506 1.40217 0
M  V30 1351 C 125.388 -1.50864 1.41589 0
M  V30 1352 C 125.803 -1.88794 0.0145275 0
M  V30 1353 O 125.16 -1.55174 -0.960594 0
M  V30 1354 C 125.211 -2.78646 2.30302 0
M  V30 1355 O 124.932 -2.42321 3.64983 0
M  V30 1356 C 126.433 -3.72569 2.40224 0
M  V30 1357 H 123.653 -0.465709 0.48307 0
M  V30 1358 H 126.197 -0.88785 1.84221 0
M  V30 1359 H 124.352 -3.37019 1.91042 0
M  V30 1360 H 124.766 -3.24514 4.12057 0
M  V30 1361 H 126.24 -4.5908 3.06512 0
M  V30 1362 H 126.717 -4.15403 1.42608 0
M  V30 1363 H 127.323 -3.20109 2.80019 0
M  V30 1364 N 125.638 -1.25649 -0.95132 0
M  V30 1365 C 126.863 -1.13443 -1.73624 0
M  V30 1366 C 127.288 0.307565 -1.85568 0
M  V30 1367 O 126.646 1.22282 -1.33854 0
M  V30 1368 C 126.694 -1.79723 -3.12621 0
M  V30 1369 O 125.798 -1.07912 -3.98031 0
M  V30 1370 H 125.139 -0.395872 -0.533086 0
M  V30 1371 H 127.669 -1.66276 -1.1922 0
M  V30 1372 H 127.679 -1.86141 -3.63064 0
M  V30 1373 H 126.354 -2.84633 -3.03244 0
M  V30 1374 H 124.931 -1.09398 -3.56492 0
M  V30 1375 N 127.117 1.15442 -1.07289 0
M  V30 1376 C 128.345 1.90096 -0.81676 0
M  V30 1377 C 128.76 1.7798 0.629966 0
M  V30 1378 O 128.117 1.1313 1.43206 0
M  V30 1379 C 128.168 3.40466 -1.21512 0
M  V30 1380 O 127.889 3.52232 -2.60508 0
M  V30 1381 C 129.39 4.32145 -0.988198 0
M  V30 1382 H 126.61 0.602495 -0.295366 0
M  V30 1383 H 129.154 1.4627 -1.42918 0
M  V30 1384 H 127.309 3.81958 -0.647039 0
M  V30 1385 H 127.723 4.45549 -2.76742 0
M  V30 1386 H 129.197 5.36072 -1.31645 0
M  V30 1387 H 129.674 4.39135 0.0755063 0
M  V30 1388 H 130.28 3.96395 -1.54115 0
M  V30 1389 N 128.595 0.856903 1.32268 0
M  V30 1390 C 129.842 0.461386 1.97174 0
M  V30 1391 C 130.17 -0.983491 1.67803 0
M  V30 1392 O 129.425 -1.70541 0.959903 0
M  V30 1393 C 129.724 0.649919 3.51441 0
M  V30 1394 C 129.39 2.0656 4.00804 0
M  V30 1395 C 128.052 2.45279 4.13995 0
M  V30 1396 C 130.404 2.98947 4.26943 0
M  V30 1397 C 127.732 3.75653 4.50668 0
M  V30 1398 C 130.084 4.28822 4.65075 0
M  V30 1399 C 128.748 4.67472 4.76472 0
M  V30 1400 H 128.018 0.168833 0.72151 0
M  V30 1401 H 130.665 1.08739 1.57633 0
M  V30 1402 H 128.97 -0.0593018 3.91755 0
M  V30 1403 H 130.667 0.32391 3.9969 0
M  V30 1404 H 127.257 1.75495 3.91024 0
M  V30 1405 H 131.441 2.70265 4.16258 0
M  V30 1406 H 126.697 4.05379 4.57688 0
M  V30 1407 H 130.871 5.0047 4.84255 0
M  V30 1408 H 128.498 5.68539 5.04646 0
M  V30 1409 N 130.073 -1.45103 0.615059 0
M  V30 1410 C 131.003 -2.33339 -0.0865619 0
M  V30 1411 C 131.984 -1.4727 -0.851209 0
M  V30 1412 O 133.169 -1.76026 -0.820281 0
M  V30 1413 C 130.299 -3.30095 -1.07956 0
M  V30 1414 C 129.253 -4.25858 -0.427628 0
M  V30 1415 C 128.579 -5.12361 -1.5294 0
M  V30 1416 C 129.879 -5.18165 0.655944 0
M  V30 1417 H 131.573 -2.92254 0.650224 0
M  V30 1418 H 129.119 -1.40532 0.314138 0
M  V30 1419 H 131.072 -3.90698 -1.57901 0
M  V30 1420 H 129.796 -2.69355 -1.84703 0
M  V30 1421 H 128.455 -3.66564 0.0510292 0
M  V30 1422 H 128.103 -4.47984 -2.28734 0
M  V30 1423 H 127.803 -5.77238 -1.09865 0
M  V30 1424 H 129.327 -5.75833 -2.03098 0
M  V30 1425 H 130.741 -5.72796 0.240257 0
M  V30 1426 H 129.138 -5.91559 1.00888 0
M  V30 1427 H 130.208 -4.60144 1.52957 0
M  V30 1428 N 131.551 -0.354651 -1.53558 0
M  V30 1429 C 132.776 0.242153 -2.05981 0
M  V30 1430 C 133.201 1.42553 -1.2272 0
M  V30 1431 O 132.559 1.79656 -0.243604 0
M  V30 1432 C 132.607 0.624367 -3.55154 0
M  V30 1433 O 131.711 1.72301 -3.74681 0
M  V30 1434 H 131.052 0.0378432 -0.662921 0
M  V30 1435 H 133.582 -0.512087 -1.98088 0
M  V30 1436 H 133.592 0.898433 -3.97985 0
M  V30 1437 H 132.267 -0.240989 -4.15201 0
M  V30 1438 H 130.844 1.44535 -3.4375 0
M  V30 1439 N 133.029 1.57378 -0.0835403 0
M  V30 1440 C 133.961 2.10389 0.909338 0
M  V30 1441 C 134.974 1.03858 1.25369 0
M  V30 1442 O 136.163 1.31338 1.20882 0
M  V30 1443 C 133.263 2.55908 2.2218 0
M  V30 1444 C 132.436 3.86145 2.05453 0
M  V30 1445 C 131.495 4.17633 3.20108 0
M  V30 1446 O 130.521 4.87043 2.94581 0
M  V30 1447 N 131.723 3.72113 4.45547 0
M  V30 1448 H 134.488 2.962 0.456657 0
M  V30 1449 H 132.049 1.61579 0.101877 0
M  V30 1450 H 134.041 2.74027 2.97811 0
M  V30 1451 H 132.611 1.75171 2.58909 0
M  V30 1452 H 131.831 3.7729 1.1422 0
M  V30 1453 H 133.119 4.7137 1.91541 0
M  V30 1454 H 132.517 3.16062 4.69171 0
M  V30 1455 H 131.074 3.95409 5.18165 0
M  V30 1456 N 134.507 -0.190092 1.56449 0
M  V30 1457 C 135.735 -0.925772 1.85033 0
M  V30 1458 C 136.15 -1.76638 0.666658 0
M  V30 1459 O 135.507 -1.78822 -0.364565 0
M  V30 1460 C 135.558 -1.81786 3.12468 0
M  V30 1461 O 135.279 -1.01118 4.26271 0
M  V30 1462 C 136.78 -2.6648 3.54265 0
M  V30 1463 H 134 -0.269872 0.614337 0
M  V30 1464 H 136.544 -0.195837 2.0356 0
M  V30 1465 H 134.699 -2.50136 2.95822 0
M  V30 1466 H 135.113 -1.61956 4.98869 0
M  V30 1467 H 136.587 -3.24722 4.46385 0
M  V30 1468 H 137.064 -3.40434 2.77491 0
M  V30 1469 H 137.67 -2.03493 3.73458 0
M  V30 1470 N 135.985 -1.50799 -0.457987 0
M  V30 1471 C 137.213 -1.66218 -1.23203 0
M  V30 1472 C 137.628 -0.350894 -1.85511 0
M  V30 1473 O 136.985 0.668546 -1.69814 0
M  V30 1474 C 137.036 -2.76291 -2.33121 0
M  V30 1475 O 136.757 -4.02338 -1.73366 0
M  V30 1476 C 138.258 -3.028 -3.2377 0
M  V30 1477 H 135.478 -0.558361 -0.372121 0
M  V30 1478 H 138.022 -1.97099 -0.545179 0
M  V30 1479 H 136.177 -2.48068 -2.97558 0
M  V30 1480 H 136.591 -4.63312 -2.4585 0
M  V30 1481 H 138.065 -3.8345 -3.97077 0
M  V30 1482 H 138.542 -2.14385 -3.83322 0
M  V30 1483 H 139.148 -3.32604 -2.65056 0
M  V30 1484 N 137.463 0.71206 -1.40597 0
M  V30 1485 C 138.693 1.49894 -1.42181 0
M  V30 1486 C 139.101 1.89189 -0.0208078 0
M  V30 1487 O 138.444 1.56223 0.966436 0
M  V30 1488 C 138.506 2.80215 -2.25211 0
M  V30 1489 C 138.17 2.63221 -3.73582 0
M  V30 1490 C 139.167 2.30249 -4.66135 0
M  V30 1491 C 136.852 2.79376 -4.17438 0
M  V30 1492 C 138.846 2.13645 -6.00529 0
M  V30 1493 C 136.533 2.6239 -5.51901 0
M  V30 1494 C 137.531 2.29573 -6.43262 0
M  V30 1495 O 137.219 2.12719 -7.75246 0
M  V30 1496 H 136.951 0.469031 -0.486812 0
M  V30 1497 H 139.505 0.88564 -1.85326 0
M  V30 1498 H 137.735 3.4389 -1.76852 0
M  V30 1499 H 139.424 3.41947 -2.18694 0
M  V30 1500 H 140.19 2.17398 -4.33547 0
M  V30 1501 H 136.069 3.03906 -3.46644 0
M  V30 1502 H 139.613 1.87953 -6.71803 0
M  V30 1503 H 135.51 2.74826 -5.84073 0
M  V30 1504 H 136.278 2.27611 -7.86216 0
M  V30 1505 N 138.941 1.26152 0.944643 0
M  V30 1506 C 139.904 1.07474 2.0244 0
M  V30 1507 C 140.904 0.0242064 1.60782 0
M  V30 1508 O 142.094 0.267302 1.72137 0
M  V30 1509 C 139.226 0.633956 3.34953 0
M  V30 1510 H 140.419 2.03336 2.20442 0
M  V30 1511 H 137.972 1.087 1.12312 0
M  V30 1512 H 138.707 -0.326811 3.22649 0
M  V30 1513 H 138.492 1.39247 3.66542 0
M  V30 1514 H 139.982 0.52501 4.14287 0
M  V30 1515 N 140.419 -1.14872 1.07899 0
M  V30 1516 C 141.349 -2.2193 0.725887 0
M  V30 1517 C 142.33 -1.67622 -0.28927 0
M  V30 1518 O 143.515 -1.93533 -0.160787 0
M  V30 1519 C 140.645 -3.47061 0.128856 0
M  V30 1520 C 139.599 -4.14363 1.07178 0
M  V30 1521 C 138.925 -5.33636 0.337229 0
M  V30 1522 C 140.225 -4.63492 2.40775 0
M  V30 1523 H 141.919 -2.51724 1.62097 0
M  V30 1524 H 139.465 -1.20991 0.780838 0
M  V30 1525 H 141.418 -4.21199 -0.130147 0
M  V30 1526 H 140.142 -3.16617 -0.80134 0
M  V30 1527 H 138.801 -3.42173 1.3158 0
M  V30 1528 H 138.449 -4.99449 -0.596606 0
M  V30 1529 H 138.149 -5.79609 0.965788 0
M  V30 1530 H 139.673 -6.10539 0.0861567 0
M  V30 1531 H 141.087 -5.2913 2.20669 0
M  V30 1532 H 139.484 -5.20148 2.99276 0
M  V30 1533 H 140.554 -3.78834 3.02676 0
M  V30 1534 N 141.898 -0.863906 -1.31812 0
M  V30 1535 C 143.147 -0.46801 -1.96195 0
M  V30 1536 C 143.46 0.983474 -1.69077 0
M  V30 1537 O 144.666 1.48523 -2.27273 0
M  V30 1538 C 143.122 -0.785995 -3.51212 0
M  V30 1539 C 142.73 -2.25383 -3.87178 0
M  V30 1540 C 144.474 -0.458274 -4.22019 0
M  V30 1541 C 142.381 -2.51455 -5.3528 0
M  V30 1542 H 141.311 -0.171283 -0.734287 0
M  V30 1543 H 143.962 -1.05597 -1.50072 0
M  V30 1544 H 142.344 -0.127359 -3.95795 0
M  V30 1545 H 143.518 -2.95502 -3.53575 0
M  V30 1546 H 141.833 -2.54698 -3.2942 0
M  V30 1547 H 144.43 -0.630369 -5.30971 0
M  V30 1548 H 144.773 0.600834 -4.11941 0
M  V30 1549 H 145.306 -1.07319 -3.8305 0
M  V30 1550 H 142.045 -3.56025 -5.50387 0
M  V30 1551 H 141.565 -1.85923 -5.70257 0
M  V30 1552 H 143.244 -2.35874 -6.02472 0
M  V30 1553 N 143.376 1.44774 -0.622745 0
M  V30 1554 C 144.286 2.34433 0.0886031 0
M  V30 1555 C 145.302 1.52131 0.844529 0
M  V30 1556 O 146.478 1.84886 0.798691 0
M  V30 1557 C 143.543 3.29986 1.0635 0
M  V30 1558 C 142.604 4.28195 0.307873 0
M  V30 1559 C 141.837 5.19183 1.23633 0
M  V30 1560 O 142.06 5.13918 2.47476 0
M  V30 1561 O 140.994 5.97515 0.725189 0
M  V30 1562 H 144.82 2.96693 -0.648599 0
M  V30 1563 H 142.405 1.44408 -0.382957 0
M  V30 1564 H 144.287 3.88825 1.6246 0
M  V30 1565 H 142.962 2.70269 1.78146 0
M  V30 1566 H 141.869 3.72927 -0.296064 0
M  V30 1567 H 143.202 4.90808 -0.3699 0
M  V30 1568 N 144.854 0.36279 1.53368 0
M  V30 1569 C 145.817 -0.472679 2.24273 0
M  V30 1570 C 146.817 -1.012 1.24961 0
M  V30 1571 O 148.007 -0.898194 1.49259 0
M  V30 1572 C 145.139 -1.66039 2.97731 0
M  V30 1573 H 146.332 0.14773 2.99536 0
M  V30 1574 H 143.885 0.114434 1.55881 0
M  V30 1575 H 144.62 -2.31896 2.26704 0
M  V30 1576 H 144.405 -1.28066 3.70596 0
M  V30 1577 H 145.895 -2.25252 3.51641 0
M  V30 1578 N 146.332 -1.57332 0.0918853 0
M  V30 1579 C 147.581 -1.93412 -0.572249 0
M  V30 1580 C 147.894 -0.975515 -1.69538 0
M  V30 1581 O 149.1 -1.22991 -2.42045 0
M  V30 1582 C 147.556 -3.43648 -1.0693 0
M  V30 1583 C 147.164 -4.47994 0.0239049 0
M  V30 1584 C 148.908 -3.88695 -1.70635 0
M  V30 1585 C 146.815 -5.89381 -0.488319 0
M  V30 1586 H 145.745 -0.721939 -0.217532 0
M  V30 1587 H 148.396 -1.82735 0.167369 0
M  V30 1588 H 146.778 -3.49466 -1.8625 0
M  V30 1589 H 147.952 -4.53815 0.799277 0
M  V30 1590 H 146.267 -4.12536 0.565946 0
M  V30 1591 H 148.864 -4.91725 -2.10025 0
M  V30 1592 H 149.207 -3.27166 -2.57426 0
M  V30 1593 H 149.74 -3.85564 -0.979023 0
M  V30 1594 H 146.479 -6.54602 0.342906 0
M  V30 1595 H 145.999 -5.87037 -1.23077 0
M  V30 1596 H 147.678 -6.39863 -0.958317 0
M  V30 1597 N 147.81 0.181792 -1.56548 0
M  V30 1598 C 149.038 0.915947 -1.85521 0
M  V30 1599 C 149.453 1.76282 -0.676016 0
M  V30 1600 O 148.81 1.79012 0.355077 0
M  V30 1601 C 148.861 1.80126 -3.13427 0
M  V30 1602 O 148.582 0.988562 -4.26801 0
M  V30 1603 C 150.083 2.64597 -3.55673 0
M  V30 1604 H 147.303 0.26661 -0.61576 0
M  V30 1605 H 149.847 0.185039 -2.03661 0
M  V30 1606 H 148.002 2.48563 -2.97145 0
M  V30 1607 H 148.416 1.59308 -4.99721 0
M  V30 1608 H 149.89 3.2235 -4.48101 0
M  V30 1609 H 150.367 3.38958 -2.79292 0
M  V30 1610 H 150.973 2.0151 -3.74532 0
M  V30 1611 N 149.288 1.51039 0.449983 0
M  V30 1612 C 150.198 1.74261 1.57067 0
M  V30 1613 C 151.214 0.626363 1.62335 0
M  V30 1614 O 152.39 0.907162 1.79812 0
M  V30 1615 C 149.455 1.85114 2.93144 0
M  V30 1616 C 148.516 3.0893 2.98095 0
M  V30 1617 C 147.749 3.19256 4.27681 0
M  V30 1618 O 147.972 2.35835 5.19363 0
M  V30 1619 O 146.906 4.12144 4.38658 0
M  V30 1620 H 150.732 2.69303 1.40391 0
M  V30 1621 H 148.317 1.35389 0.631688 0
M  V30 1622 H 150.199 1.94311 3.73926 0
M  V30 1623 H 148.874 0.932588 3.09975 0
M  V30 1624 H 147.781 3.0522 2.16314 0
M  V30 1625 H 149.114 4.00433 2.86206 0
M  V30 1626 N 150.766 -0.704594 1.40972 0
M  V30 1627 C 151.996 -1.49138 1.42974 0
M  V30 1628 C 152.404 -1.89175 0.0308406 0
M  V30 1629 O 151.747 -1.56734 -0.958138 0
M  V30 1630 C 151.809 -2.79016 2.26694 0
M  V30 1631 C 151.473 -2.61236 3.74973 0
M  V30 1632 C 152.47 -2.27773 4.67349 0
M  V30 1633 C 150.155 -2.77158 4.18914 0
M  V30 1634 C 152.149 -2.10457 6.01653 0
M  V30 1635 C 149.836 -2.59459 5.53285 0
M  V30 1636 C 150.834 -2.26158 6.4447 0
M  V30 1637 O 150.522 -2.08605 7.76363 0
M  V30 1638 H 150.254 -0.466443 0.489292 0
M  V30 1639 H 152.808 -0.8758 1.85793 0
M  V30 1640 H 151.038 -3.42947 1.78673 0
M  V30 1641 H 152.727 -3.40782 2.20504 0
M  V30 1642 H 153.493 -2.15095 4.34694 0
M  V30 1643 H 149.372 -3.02064 3.48251 0
M  V30 1644 H 152.916 -1.84387 6.72791 0
M  V30 1645 H 148.813 -2.71725 5.85522 0
M  V30 1646 H 149.581 -2.23439 7.87412 0
M  V30 1647 N 152.244 -1.26651 -0.937939 0
M  V30 1648 C 153.472 -1.15173 -1.7188 0
M  V30 1649 C 153.887 0.292668 -1.86518 0
M  V30 1650 O 153.244 1.20014 -1.37488 0
M  V30 1651 C 153.295 -1.81925 -3.12387 0
M  V30 1652 O 153.016 -3.2072 -2.98446 0
M  V30 1653 C 154.517 -1.76442 -4.06673 0
M  V30 1654 H 151.737 -0.400911 -0.538063 0
M  V30 1655 H 154.281 -1.67332 -1.1756 0
M  V30 1656 H 152.436 -1.33696 -3.63599 0
M  V30 1657 H 152.85 -3.53802 -3.872 0
M  V30 1658 H 154.324 -2.27781 -5.02812 0
M  V30 1659 H 154.801 -0.731608 -4.33064 0
M  V30 1660 H 155.407 -2.24238 -3.61382 0
M  V30 1661 N 153.722 1.14298 -1.08507 0
M  V30 1662 C 154.669 2.19414 -0.715965 0
M  V30 1663 C 155.639 1.63399 0.298326 0
M  V30 1664 O 156.824 1.89929 0.182101 0
M  V30 1665 C 153.964 3.44845 -0.132534 0
M  V30 1666 C 153.077 4.15007 -1.19973 0
M  V30 1667 C 152.212 5.28024 -0.580048 0
M  V30 1668 C 151.251 5.9002 -1.62921 0
M  V30 1669 N 150.388 6.94485 -1.03125 0
M  V30 1670 H 155.228 2.50336 -1.61666 0
M  V30 1671 H 152.765 1.2293 -0.807882 0
M  V30 1672 H 154.723 4.16601 0.223454 0
M  V30 1673 H 153.353 3.14403 0.731467 0
M  V30 1674 H 152.405 3.41629 -1.67313 0
M  V30 1675 H 153.717 4.57178 -1.99473 0
M  V30 1676 H 152.871 6.06455 -0.172364 0
M  V30 1677 H 151.61 4.87076 0.246603 0
M  V30 1678 H 150.615 5.10291 -2.04654 0
M  V30 1679 H 151.84 6.33042 -2.45835 0
M  V30 1680 H 149.786 6.55612 -0.225711 0
M  V30 1681 H 149.703 7.35148 -1.76334 0
M  V30 1682 H 150.971 7.7679 -0.649458 0
M  V30 1683 N 155.201 0.870884 1.31352 0
M  V30 1684 C 156.164 0.332243 2.26779 0
M  V30 1685 C 157.164 -0.517302 1.52252 0
M  V30 1686 O 158.354 -0.326477 1.71113 0
M  V30 1687 C 155.486 -0.528066 3.36785 0
M  V30 1688 H 156.679 1.17469 2.75937 0
M  V30 1689 H 154.232 0.64655 1.423 0
M  V30 1690 H 154.967 -1.39167 2.92922 0
M  V30 1691 H 154.752 0.0802582 3.92018 0
M  V30 1692 H 156.242 -0.897179 4.07849 0
M  V30 1693 N 156.679 -1.44442 0.630414 0
M  V30 1694 C 157.925 -2.02351 0.134816 0
M  V30 1695 C 158.258 -1.4947 -1.23986 0
M  V30 1696 O 157.533 -0.678475 -1.82283 0
M  V30 1697 C 157.816 -3.59898 0.120707 0
M  V30 1698 C 157.669 -4.23063 1.52767 0
M  V30 1699 C 158.988 -4.36585 -0.555127 0
M  V30 1700 H 156.107 -0.73527 0.0504646 0
M  V30 1701 H 158.749 -1.72022 0.806751 0
M  V30 1702 H 156.899 -3.85868 -0.451477 0
M  V30 1703 H 158.571 -4.08202 2.14869 0
M  V30 1704 H 156.814 -3.80586 2.08175 0
M  V30 1705 H 157.485 -5.32071 1.46984 0
M  V30 1706 H 159.961 -4.16044 -0.0685429 0
M  V30 1707 H 158.837 -5.46294 -0.534185 0
M  V30 1708 H 159.098 -4.11138 -1.62535 0
M  V30 1709 N 158.157 -0.370918 -1.53173 0
M  V30 1710 C 159.387 0.217389 -2.05453 0
M  V30 1711 C 159.795 1.42568 -1.24382 0
M  V30 1712 O 159.138 1.81571 -0.278839 0
M  V30 1713 C 159.2 0.669827 -3.53205 0
M  V30 1714 C 158.864 -0.4225 -4.55043 0
M  V30 1715 C 159.861 -1.27407 -5.04047 0
M  V30 1716 C 157.546 -0.58427 -4.9889 0
M  V30 1717 C 159.54 -2.27271 -5.95505 0
M  V30 1718 C 157.227 -1.58627 -5.90153 0
M  V30 1719 C 158.225 -2.42892 -6.38351 0
M  V30 1720 O 157.913 -3.41382 -7.27814 0
M  V30 1721 H 157.645 0.0408171 -0.674767 0
M  V30 1722 H 160.199 -0.5292 -1.98466 0
M  V30 1723 H 158.429 1.4681 -3.57748 0
M  V30 1724 H 160.118 1.18173 -3.88317 0
M  V30 1725 H 160.884 -1.16031 -4.70916 0
M  V30 1726 H 156.763 0.061851 -4.60959 0
M  V30 1727 H 160.307 -2.93079 -6.33049 0
M  V30 1728 H 156.204 -1.70048 -6.22699 0
M  V30 1729 H 156.972 -3.37173 -7.45826 0
M  V30 1730 N 159.635 1.57281 -0.100228 0
M  V30 1731 C 160.863 1.98879 0.570509 0
M  V30 1732 C 161.278 0.979476 1.61405 0
M  V30 1733 O 160.635 -0.0302288 1.82475 0
M  V30 1734 C 160.686 3.4052 1.2136 0
M  V30 1735 O 160.407 4.37588 0.211786 0
M  V30 1736 C 161.908 3.97149 1.96945 0
M  V30 1737 H 159.128 0.653428 0.152555 0
M  V30 1738 H 161.672 2.03697 -0.18103 0
M  V30 1739 H 159.827 3.367 1.91603 0
M  V30 1740 H 160.241 5.20118 0.676607 0
M  V30 1741 H 161.715 4.98393 2.37294 0
M  V30 1742 H 162.192 3.3525 2.83733 0
M  V30 1743 H 162.798 4.04458 1.31506 0
M  V30 1744 N 161.113 -0.173488 1.56642 0
M  V30 1745 C 162.043 -1.2171 1.99271 0
M  V30 1746 C 163.024 -1.46289 0.867959 0
M  V30 1747 O 164.209 -1.5766 1.13388 0
M  V30 1748 C 161.339 -2.55651 2.35074 0
M  V30 1749 C 160.293 -2.45645 3.50489 0
M  V30 1750 C 159.619 -3.84056 3.72028 0
M  V30 1751 C 160.919 -1.96302 4.84007 0
M  V30 1752 H 162.613 -0.86275 2.867 0
M  V30 1753 H 160.159 -0.413571 1.37933 0
M  V30 1754 H 162.112 -3.2886 2.63494 0
M  V30 1755 H 160.836 -2.92869 1.44552 0
M  V30 1756 H 159.495 -1.7489 3.22194 0
M  V30 1757 H 159.143 -4.18664 2.788 0
M  V30 1758 H 158.843 -3.7823 4.49684 0
M  V30 1759 H 160.367 -4.58854 4.02846 0
M  V30 1760 H 161.781 -2.59284 5.11317 0
M  V30 1761 H 160.178 -2.01429 5.65284 0
M  V30 1762 H 161.248 -0.917226 4.76146 0
M  V30 1763 N 162.591 -1.51276 -0.441967 0
M  V30 1764 C 163.819 -1.67516 -1.21434 0
M  V30 1765 C 164.234 -0.37055 -1.85128 0
M  V30 1766 O 163.591 0.650498 -1.70513 0
M  V30 1767 C 163.642 -2.78748 -2.30177 0
M  V30 1768 O 163.363 -4.04154 -1.69089 0
M  V30 1769 C 164.864 -3.06217 -3.20541 0
M  V30 1770 H 162.084 -0.562276 -0.366178 0
M  V30 1771 H 164.628 -1.97666 -0.524244 0
M  V30 1772 H 162.783 -2.5121 -2.94911 0
M  V30 1773 H 163.197 -4.65894 -2.40922 0
M  V30 1774 H 164.671 -3.8764 -3.92987 0
M  V30 1775 H 165.148 -2.18439 -3.81026 0
M  V30 1776 H 165.754 -3.35397 -2.61513 0
M  V30 1777 N 164.069 0.697108 -1.41344 0
M  V30 1778 C 165.294 1.49096 -1.44171 0
M  V30 1779 C 165.719 1.88038 -0.0481568 0
M  V30 1780 O 165.077 1.54525 0.948243 0
M  V30 1781 C 165.125 2.73088 -2.3549 0
M  V30 1782 O 164.229 3.70514 -1.81088 0
M  V30 1783 H 163.57 0.448801 -0.489361 0
M  V30 1784 H 166.1 0.856992 -1.85787 0
M  V30 1785 H 166.11 3.21413 -2.51312 0
M  V30 1786 H 164.785 2.44081 -3.36745 0
M  V30 1787 H 163.362 3.29441 -1.74708 0
M  V30 1788 N 165.547 1.27147 0.931209 0
M  V30 1789 C 166.477 1.12081 2.04842 0
M  V30 1790 C 167.458 0.0232364 1.70084 0
M  V30 1791 O 168.643 0.197085 1.93197 0
M  V30 1792 C 165.773 0.76354 3.38803 0
M  V30 1793 C 164.727 1.81396 3.87659 0
M  V30 1794 C 164.053 1.31075 5.18385 0
M  V30 1795 C 165.353 3.21739 4.11438 0
M  V30 1796 H 167.047 2.05537 2.17703 0
M  V30 1797 H 164.593 0.989603 1.04608 0
M  V30 1798 H 166.546 0.644982 4.16435 0
M  V30 1799 H 165.27 -0.206727 3.25945 0
M  V30 1800 H 163.929 1.92136 3.12217 0
M  V30 1801 H 163.577 0.330037 5.01916 0
M  V30 1802 H 163.277 2.013 5.52044 0
M  V30 1803 H 164.801 1.20506 5.98591 0
M  V30 1804 H 166.215 3.14019 4.79651 0
M  V30 1805 H 164.612 3.89644 4.56397 0
M  V30 1806 H 165.682 3.67054 3.16859 0
M  V30 1807 N 167.025 -1.13721 1.09112 0
M  V30 1808 C 168.255 -1.88499 0.845671 0
M  V30 1809 C 168.663 -1.79218 -0.606432 0
M  V30 1810 O 168.006 -1.1544 -1.42896 0
M  V30 1811 C 168.068 -3.38954 1.19793 0
M  V30 1812 C 167.732 -3.72018 2.65428 0
M  V30 1813 C 168.729 -3.7153 3.63677 0
M  V30 1814 C 166.414 -4.01775 3.01467 0
M  V30 1815 C 168.408 -4.00336 4.95994 0
M  V30 1816 C 166.095 -4.30243 4.33975 0
M  V30 1817 C 167.093 -4.29508 5.31048 0
M  V30 1818 O 166.781 -4.5728 6.61173 0
M  V30 1819 H 166.513 -0.603702 0.304171 0
M  V30 1820 H 169.067 -1.44903 1.45576 0
M  V30 1821 H 167.297 -3.83039 0.530871 0
M  V30 1822 H 168.986 -3.95052 0.932146 0
M  V30 1823 H 169.752 -3.4862 3.37179 0
M  V30 1824 H 165.631 -4.01496 2.26544 0
M  V30 1825 H 169.175 -3.99678 5.71755 0
M  V30 1826 H 165.072 -4.52625 4.60219 0
M  V30 1827 H 165.84 -4.74964 6.66597 0
M  V30 1828 N 168.503 -0.877838 -1.30888 0
M  V30 1829 C 169.919 -0.570844 -1.49042 0
M  V30 1830 C 170.119 0.893159 -1.80624 0
M  V30 1831 O 169.175 1.67485 -1.88958 0
M  V30 1832 C 170.488 -1.47784 -2.61878 0
M  V30 1833 C 172.036 -1.48071 -2.75761 0
M  V30 1834 C 172.511 -2.37347 -3.91702 0
M  V30 1835 N 174.002 -2.35271 -3.99001 0
M  V30 1836 C 174.737 -3.01063 -4.88004 0
M  V30 1837 N 174.233 -3.76055 -5.81854 0
M  V30 1838 N 176.026 -2.90332 -4.81315 0
M  V30 1839 H 168.177 -1.82502 -1.0866 0
M  V30 1840 H 170.44 -0.780797 -0.537644 0
M  V30 1841 H 170.146 -2.51993 -2.45341 0
M  V30 1842 H 170.02 -1.18215 -3.58197 0
M  V30 1843 H 172.407 -0.446166 -2.91708 0
M  V30 1844 H 172.488 -1.81668 -1.80085 0
M  V30 1845 H 172.132 -3.40883 -3.76512 0
M  V30 1846 H 172.062 -2.01071 -4.86701 0
M  V30 1847 H 174.553 -1.80768 -3.3186 0
M  V30 1848 H 174.866 -4.23366 -6.46514 0
M  V30 1849 H 173.211 -3.80163 -5.81808 0
M  V30 1850 H 176.402 -2.31278 -4.06974 0
M  V30 1851 H 176.575 -3.41885 -5.50471 0
M  V30 1852 N 169.982 1.44106 -0.638065 0
M  V30 1853 C 170.914 2.28976 0.101205 0
M  V30 1854 C 171.927 1.4167 0.802088 0
M  V30 1855 O 173.116 1.65755 0.662375 0
M  V30 1856 C 170.216 3.18217 1.16581 0
M  V30 1857 C 169.389 4.33978 0.546066 0
M  V30 1858 C 168.448 5.04202 1.50554 0
M  V30 1859 O 167.474 5.59986 1.01999 0
M  V30 1860 N 168.676 5.06296 2.8398 0
M  V30 1861 H 171.441 2.93064 -0.627186 0
M  V30 1862 H 169.002 1.54629 -0.479731 0
M  V30 1863 H 170.994 3.62061 1.80815 0
M  V30 1864 H 169.564 2.55833 1.79634 0
M  V30 1865 H 168.784 3.93239 -0.275046 0
M  V30 1866 H 170.072 5.08675 0.112793 0
M  V30 1867 H 169.47 4.62319 3.26002 0
M  V30 1868 H 168.027 5.53907 3.43556 0
M  V30 1869 N 171.46 0.379036 1.52974 0
M  V30 1870 C 172.69 -0.20649 2.05566 0
M  V30 1871 C 173.098 -1.41906 1.25137 0
M  V30 1872 O 172.441 -1.81421 0.288464 0
M  V30 1873 C 172.503 -0.651086 3.53555 0
M  V30 1874 C 172.167 0.446626 4.54812 0
M  V30 1875 C 173.164 1.30079 5.03364 0
M  V30 1876 C 170.849 0.610719 4.98573 0
M  V30 1877 C 172.843 2.30426 5.94292 0
M  V30 1878 C 170.53 1.61754 5.89304 0
M  V30 1879 C 171.528 2.46274 6.37054 0
M  V30 1880 O 171.216 3.45237 7.25994 0
M  V30 1881 H 170.948 -0.0372381 0.674974 0
M  V30 1882 H 173.502 0.539718 1.98182 0
M  V30 1883 H 171.732 -1.44911 3.58522 0
M  V30 1884 H 173.421 -1.16112 3.88938 0
M  V30 1885 H 174.187 1.18527 4.70294 0
M  V30 1886 H 170.066 -0.0374044 4.60985 0
M  V30 1887 H 173.61 2.96432 6.31485 0
M  V30 1888 H 169.507 1.73348 6.21788 0
M  V30 1889 H 170.275 3.41124 7.44027 0
M  V30 1890 N 172.938 -1.57226 0.108567 0
M  V30 1891 C 174.166 -1.99179 -0.559954 0
M  V30 1892 C 174.581 -0.988022 -1.60884 0
M  V30 1893 O 173.938 0.0205512 -1.82488 0
M  V30 1894 C 173.989 -3.41159 -1.19552 0
M  V30 1895 O 173.71 -4.37694 -0.188577 0
M  V30 1896 C 175.211 -3.98188 -1.94837 0
M  V30 1897 H 172.431 -0.654228 -0.149088 0
M  V30 1898 H 174.975 -2.03598 0.19183 0
M  V30 1899 H 173.13 -3.37711 -1.89815 0
M  V30 1900 H 173.544 -5.20469 -0.649014 0
M  V30 1901 H 175.018 -4.99644 -2.34648 0
M  V30 1902 H 175.495 -3.3675 -2.81951 0
M  V30 1903 H 176.101 -4.0515 -1.2936 0
M  V30 1904 N 174.416 0.165178 -1.56732 0
M  V30 1905 C 175.641 0.900253 -1.86843 0
M  V30 1906 C 176.066 1.74766 -0.695596 0
M  V30 1907 O 175.424 1.77786 0.35522 0
M  V30 1908 C 175.472 1.74777 -3.15413 0
M  V30 1909 O 174.576 2.85007 -2.98068 0
M  V30 1910 H 173.917 0.251832 -0.614391 0
M  V30 1911 H 176.447 0.161468 -2.03962 0
M  V30 1912 H 176.457 2.14646 -3.46974 0
M  V30 1913 H 175.132 1.12537 -4.00385 0
M  V30 1914 H 173.709 2.48676 -2.77875 0
M  V30 1915 N 175.894 1.51508 0.433938 0
M  V30 1916 C 176.824 1.76016 1.53429 0
M  V30 1917 C 177.805 0.610112 1.58782 0
M  V30 1918 O 178.99 0.853177 1.74455 0
M  V30 1919 C 176.12 1.88831 2.9148 0
M  V30 1920 C 175.074 3.04288 3.00987 0
M  V30 1921 C 174.4 3.0229 4.4105 0
M  V30 1922 C 175.7 4.44193 2.74754 0
M  V30 1923 H 177.394 2.68152 1.33171 0
M  V30 1924 H 174.94 1.29035 0.639214 0
M  V30 1925 H 176.893 2.04559 3.6842 0
M  V30 1926 H 175.617 0.933455 3.12976 0
M  V30 1927 H 174.276 2.8827 2.26486 0
M  V30 1928 H 173.924 2.04576 4.59519 0
M  V30 1929 H 173.624 3.79822 4.4834 0
M  V30 1930 H 175.148 3.20116 5.1996 0
M  V30 1931 H 176.562 4.60544 3.41426 0
M  V30 1932 H 174.959 5.23457 2.9345 0
M  V30 1933 H 176.029 4.53996 1.70339 0
M  V30 1934 N 177.372 -0.689602 1.41712 0
M  V30 1935 C 178.302 -1.81577 1.46806 0
M  V30 1936 C 179.283 -1.66945 0.326105 0
M  V30 1937 O 180.468 -1.86588 0.538377 0
M  V30 1938 C 177.598 -3.19762 1.35535 0
M  V30 1939 C 176.552 -3.49107 2.47605 0
M  V30 1940 C 175.878 -4.86711 2.21397 0
M  V30 1941 C 177.178 -3.47483 3.89939 0
M  V30 1942 H 178.872 -1.7757 2.41058 0
M  V30 1943 H 176.418 -0.852887 1.16025 0
M  V30 1944 H 178.371 -3.98263 1.3771 0
M  V30 1945 H 177.095 -3.24409 0.377708 0
M  V30 1946 H 175.754 -2.72959 2.44722 0
M  V30 1947 H 175.402 -4.8799 1.21961 0
M  V30 1948 H 175.102 -5.0731 2.96497 0
M  V30 1949 H 176.626 -5.67515 2.25297 0
M  V30 1950 H 178.04 -4.1598 3.94505 0
M  V30 1951 H 176.437 -3.79615 4.64771 0
M  V30 1952 H 177.507 -2.46341 4.17665 0
M  V30 1953 N 178.85 -1.27639 -0.924453 0
M  V30 1954 C 180.098 -1.13941 -1.66918 0
M  V30 1955 C 180.419 0.314589 -1.92446 0
M  V30 1956 O 179.689 1.21964 -1.53303 0
M  V30 1957 H 178.269 -0.418678 -0.618642 0
M  V30 1958 H 180.931 -1.60213 -1.10985 0
M  V30 1959 H 180.027 -1.67094 -2.63602 0
M  V30 1960 N 180.328 1.1314 -1.09713 0
M  V30 1961 C 181.275 2.18642 -0.739196 0
M  V30 1962 C 182.245 1.63706 0.280978 0
M  V30 1963 O 183.43 1.90111 0.161946 0
M  V30 1964 C 180.57 3.44685 -0.169102 0
M  V30 1965 C 179.683 4.13711 -1.24367 0
M  V30 1966 C 178.818 5.27379 -0.636019 0
M  V30 1967 C 177.857 5.88259 -1.69169 0
M  V30 1968 N 176.994 6.93352 -1.10485 0
M  V30 1969 H 181.834 2.48607 -1.64312 0
M  V30 1970 H 179.371 1.22066 -0.820875 0
M  V30 1971 H 181.329 4.16815 0.179256 0
M  V30 1972 H 179.959 3.15161 0.698079 0
M  V30 1973 H 179.011 3.39835 -1.70927 0
M  V30 1974 H 180.323 4.55037 -2.04311 0
M  V30 1975 H 179.477 6.06238 -0.236677 0
M  V30 1976 H 178.216 4.8731 0.194928 0
M  V30 1977 H 177.221 5.08092 -2.10055 0
M  V30 1978 H 178.446 6.30399 -2.52536 0
M  V30 1979 H 176.392 6.55335 -0.295234 0
M  V30 1980 H 176.309 7.33236 -1.84121 0
M  V30 1981 H 177.577 7.76057 -0.73181 0
M  V30 1982 N 181.806 0.884767 1.30421 0
M  V30 1983 C 182.739 0.295999 2.26272 0
M  V30 1984 C 183.717 -0.58332 1.51777 0
M  V30 1985 O 184.901 -0.53346 1.80794 0
M  V30 1986 C 182.028 -0.57944 3.33707 0
M  V30 1987 C 181.074 0.230525 4.25877 0
M  V30 1988 S 181.907 1.61867 5.1045 0
M  V30 1989 C 183.063 0.749756 6.21393 0
M  V30 1990 H 183.296 1.10848 2.75862 0
M  V30 1991 H 180.829 0.684178 1.38414 0
M  V30 1992 H 182.787 -1.07879 3.96071 0
M  V30 1993 H 181.448 -1.36601 2.82841 0
M  V30 1994 H 180.641 -0.437542 5.02097 0
M  V30 1995 H 180.243 0.662493 3.68086 0
M  V30 1996 H 182.535 -0.0333547 6.77492 0
M  V30 1997 H 183.478 1.48356 6.92384 0
M  V30 1998 H 183.886 0.310751 5.63644 0
M  V30 1999 N 183.284 -1.43765 0.645699 0
M  V30 2000 C 184.232 -2.32516 -0.0624849 0
M  V30 2001 C 185.226 -1.48183 -0.820855 0
M  V30 2002 O 186.432 -1.64439 -0.732106 0
M  V30 2003 H 182.807 -0.750989 -0.0389864 0
M  V30 2004 H 184.778 -2.89979 0.703892 0
M  V30 2005 C 183.527 -3.32389 -1.02044 0
M  V30 2006 H 182.85 -3.97301 -0.446312 0
M  V30 2007 H 184.29 -3.97138 -1.48517 0
M  V30 2008 C 182.749 -2.62416 -2.11281 0
M  V30 2009 O 183.279 -2.434 -3.19561 0
M  V30 2010 N 181.485 -2.21913 -1.87624 0
M  V30 2011 H 181.032 -2.37578 -0.995703 0
M  V30 2012 H 180.99 -1.75424 -2.6091 0
M  V30 2013 N 184.763 -0.387143 -1.52771 0
M  V30 2014 C 185.988 0.198407 -2.06449 0
M  V30 2015 C 186.413 1.39918 -1.25716 0
M  V30 2016 O 185.771 1.79099 -0.281657 0
M  V30 2017 C 185.819 0.548893 -3.56398 0
M  V30 2018 O 184.923 1.64315 -3.78252 0
M  V30 2019 H 184.264 0.0237731 -0.663574 0
M  V30 2020 H 186.794 -0.553989 -1.96957 0
M  V30 2021 H 186.804 0.813812 -3.99801 0
M  V30 2022 H 185.479 -0.329005 -4.14597 0
M  V30 2023 H 184.056 1.37211 -3.46738 0
M  V30 2024 N 186.241 1.57166 -0.116904 0
M  V30 2025 C 187.151 2.18745 0.847812 0
M  V30 2026 C 188.167 1.163 1.29423 0
M  V30 2027 O 189.343 1.48761 1.35765 0
M  V30 2028 C 186.408 2.77307 2.0809 0
M  V30 2029 C 185.469 3.94781 1.68661 0
M  V30 2030 C 184.702 4.50541 2.86091 0
M  V30 2031 O 184.925 4.05202 4.01456 0
M  V30 2032 O 183.859 5.41256 2.63298 0
M  V30 2033 H 187.685 3.01632 0.353778 0
M  V30 2034 H 185.27 1.49005 0.108599 0
M  V30 2035 H 187.152 3.14647 2.80313 0
M  V30 2036 H 185.827 1.97452 2.56504 0
M  V30 2037 H 184.734 3.62214 0.935518 0
M  V30 2038 H 186.067 4.76065 1.24991 0
M  V30 2039 N 187.719 -0.156864 1.56817 0
M  V30 2040 C 188.629 -1.2136 2.00771 0
M  V30 2041 C 189.645 -1.47598 0.921459 0
M  V30 2042 O 190.821 -1.59462 1.2302 0
M  V30 2043 C 187.886 -2.52943 2.37109 0
M  V30 2044 C 186.947 -2.34439 3.59634 0
M  V30 2045 C 186.18 -3.59748 3.94229 0
M  V30 2046 O 186.403 -4.65526 3.29609 0
M  V30 2047 O 185.337 -3.52998 4.8752 0
M  V30 2048 H 189.163 -0.870468 2.90958 0
M  V30 2049 H 186.748 -0.36484 1.44877 0
M  V30 2050 H 188.63 -3.30538 2.61386 0
M  V30 2051 H 187.305 -2.86806 1.5008 0
M  V30 2052 H 186.212 -1.54828 3.40557 0
M  V30 2053 H 187.545 -2.05496 4.4725 0
M  V30 2054 N 189.197 -1.51736 -0.425897 0
M  V30 2055 C 190.107 -1.76738 -1.54275 0
M  V30 2056 C 191.123 -0.65211 -1.61318 0
M  V30 2057 O 192.299 -0.935654 -1.78346 0
M  V30 2058 C 189.364 -1.89755 -2.90162 0
M  V30 2059 C 188.425 -3.13633 -2.93143 0
M  V30 2060 C 187.658 -3.2602 -4.22548 0
M  V30 2061 O 187.881 -2.44067 -5.15546 0
M  V30 2062 O 186.815 -4.19071 -4.32046 0
M  V30 2063 H 190.641 -2.71502 -1.36089 0
M  V30 2064 H 188.226 -1.36376 -0.610069 0
M  V30 2065 H 190.108 -2.00236 -3.70788 0
M  V30 2066 H 188.783 -0.981785 -3.08452 0
M  V30 2067 H 187.69 -3.08622 -2.11431 0
M  V30 2068 H 189.023 -4.04936 -2.798 0
M  V30 2069 N 190.675 0.682077 -1.42076 0
M  V30 2070 C 191.952 1.43755 -1.32642 0
M  V30 2071 C 192.332 2.11063 0.0396611 0
M  V30 2072 O 191.68 2.02701 1.05474 0
M  V30 2073 C 191.89 2.44596 -2.48946 0
M  V30 2074 C 193.238 3.09454 -2.9073 0
M  V30 2075 O 194.262 2.54922 -2.48783 0
M  V30 2076 O 193.121 4.08253 -3.63307 0
M  V30 2077 H 190.215 0.640857 -0.522715 0
M  V30 2078 H 192.761 0.711415 -1.54068 0
M  V30 2079 H 191.533 1.93609 -3.40046 0
M  V30 2080 H 191.156 3.24701 -2.29467 0
M  V30 2081 N 192.153 1.28127 0.917671 0
M  V30 2082 C 193.063 1.13556 2.05286 0
M  V30 2083 C 194.079 0.0630914 1.73886 0
M  V30 2084 O 195.255 0.271598 1.9956 0
M  V30 2085 C 192.32 0.794676 3.3747 0
M  V30 2086 C 191.381 1.94909 3.82504 0
M  V30 2087 C 190.614 1.62437 5.0838 0
M  V30 2088 O 190.837 0.536905 5.67867 0
M  V30 2089 O 189.771 2.46677 5.4903 0
M  V30 2090 H 193.597 2.08844 2.20495 0
M  V30 2091 H 191.182 1.07409 1.03845 0
M  V30 2092 H 193.064 0.618344 4.16839 0
M  V30 2093 H 191.739 -0.128581 3.23445 0
M  V30 2094 H 190.646 2.18055 3.03978 0
M  V30 2095 H 191.979 2.85291 4.01086 0
M  V30 2096 N 193.631 -1.12557 1.10312 0
M  V30 2097 C 194.877 -1.84311 0.846011 0
M  V30 2098 C 195.21 -1.83805 -0.626859 0
M  V30 2099 O 194.485 -1.28268 -1.46211 0
M  V30 2100 C 194.768 -3.32048 1.39341 0
M  V30 2101 C 194.621 -3.41016 2.93305 0
M  V30 2102 C 195.94 -4.27764 1.03468 0
M  V30 2103 H 193.059 -0.669192 0.30879 0
M  V30 2104 H 195.701 -1.32057 1.36605 0
M  V30 2105 H 193.851 -3.76678 0.951087 0
M  V30 2106 H 195.523 -3.05031 3.46055 0
M  V30 2107 H 193.766 -2.81603 3.29973 0
M  V30 2108 H 194.437 -4.44948 3.26689 0
M  V30 2109 H 196.913 -3.91253 1.41633 0
M  V30 2110 H 195.789 -5.29549 1.44463 0
M  V30 2111 H 196.05 -4.42064 -0.0560404 0
M  V30 2112 N 195.109 -0.891671 -1.2995 0
M  V30 2113 C 196.355 -0.523649 -1.96544 0
M  V30 2114 C 196.71 0.918394 -1.69066 0
M  V30 2115 O 196.003 1.64122 -0.988659 0
M  V30 2116 C 196.197 -0.742868 -3.49594 0
M  V30 2117 C 196.026 -2.20467 -3.9195 0
M  V30 2118 C 194.796 -2.85055 -4.17219 0
M  V30 2119 C 196.994 -3.17912 -4.04273 0
M  V30 2120 N 194.976 -4.21762 -4.46083 0
M  V30 2121 C 196.347 -4.39712 -4.37097 0
M  V30 2122 C 198.402 -3.1361 -3.86721 0
M  V30 2123 C 197.105 -5.5776 -4.54199 0
M  V30 2124 C 199.131 -4.30936 -4.05028 0
M  V30 2125 C 198.493 -5.51504 -4.38204 0
M  V30 2126 H 194.592 -0.241072 -0.743914 0
M  V30 2127 H 197.176 -1.15081 -1.5705 0
M  V30 2128 H 195.347 -0.14515 -3.88129 0
M  V30 2129 H 197.079 -0.341081 -4.0326 0
M  V30 2130 H 193.834 -2.35889 -4.10674 0
M  V30 2131 H 194.258 -4.92382 -4.64638 0
M  V30 2132 H 198.9 -2.21489 -3.60142 0
M  V30 2133 H 196.618 -6.50379 -4.79618 0
M  V30 2134 H 200.204 -4.29085 -3.92909 0
M  V30 2135 H 199.084 -6.40778 -4.52077 0
M  V30 2136 N 196.587 1.43421 -0.653314 0
M  V30 2137 C 197.519 2.29071 0.0769134 0
M  V30 2138 C 198.532 1.42513 0.787017 0
M  V30 2139 O 199.721 1.66449 0.644757 0
M  V30 2140 C 196.821 3.19436 1.13199 0
M  V30 2141 C 195.994 4.34533 0.500006 0
M  V30 2142 C 195.053 5.05771 1.45198 0
M  V30 2143 O 194.079 5.61037 0.960538 0
M  V30 2144 N 195.281 5.0928 2.78594 0
M  V30 2145 H 198.046 2.92382 -0.658235 0
M  V30 2146 H 195.607 1.54112 -0.496104 0
M  V30 2147 H 197.599 3.63958 1.76964 0
M  V30 2148 H 196.169 2.57724 1.7691 0
M  V30 2149 H 195.389 3.92925 -0.316738 0
M  V30 2150 H 196.677 5.08766 0.0588345 0
M  V30 2151 H 196.075 4.65751 3.2108 0
M  V30 2152 H 194.632 5.57519 3.37662 0
M  V30 2153 N 198.065 0.39524 1.52563 0
M  V30 2154 C 199.311 -0.185318 2.01952 0
M  V30 2155 C 199.644 -1.45964 1.28095 0
M  V30 2156 O 198.919 -1.90689 0.38315 0
M  V30 2157 C 199.202 -0.447193 3.57312 0
M  V30 2158 C 199.055 0.842828 4.41833 0
M  V30 2159 C 200.374 -1.23529 4.22408 0
M  V30 2160 H 197.493 -0.0658788 0.73405 0
M  V30 2161 H 200.135 0.525975 1.82575 0
M  V30 2162 H 198.285 -1.05312 3.73954 0
M  V30 2163 H 199.957 1.4795 4.36931 0
M  V30 2164 H 198.2 1.45686 4.08605 0
M  V30 2165 H 198.871 0.614165 5.48573 0
M  V30 2166 H 201.347 -0.722445 4.0978 0
M  V30 2167 H 200.223 -1.38727 5.3108 0
M  V30 2168 H 200.484 -2.25213 3.80436 0
M  V30 2169 N 199.544 -1.57102 0.125237 0
M  V30 2170 C 200.793 -1.94582 -0.531095 0
M  V30 2171 C 201.106 -1.01126 -1.6743 0
M  V30 2172 O 202.312 -1.28097 -2.39381 0
M  V30 2173 C 200.768 -3.45839 -0.996164 0
M  V30 2174 C 200.376 -4.47842 0.118926 0
M  V30 2175 C 202.12 -3.92227 -1.62352 0
M  V30 2176 C 200.027 -5.90284 -0.363192 0
M  V30 2177 H 198.957 -0.726391 -0.20217 0
M  V30 2178 H 201.608 -1.82339 0.206092 0
M  V30 2179 H 199.99 -3.53338 -1.78796 0
M  V30 2180 H 201.164 -4.52018 0.895358 0
M  V30 2181 H 199.479 -4.11243 0.653324 0
M  V30 2182 H 202.076 -4.96069 -1.99548 0
M  V30 2183 H 202.419 -3.32552 -2.50429 0
M  V30 2184 H 202.952 -3.87554 -0.897019 0
M  V30 2185 H 199.691 -6.53728 0.481679 0
M  V30 2186 H 199.211 -5.89515 -1.10597 0
M  V30 2187 H 200.89 -6.41752 -0.822377 0
M  V30 2188 N 201.022 0.148545 -1.56898 0
M  V30 2189 C 202.271 0.85984 -1.82454 0
M  V30 2190 C 202.584 1.82406 -0.706229 0
M  V30 2191 O 203.79 2.57938 -0.847349 0
M  V30 2192 C 202.246 1.57967 -3.2338 0
M  V30 2193 C 201.854 0.65794 -4.43142 0
M  V30 2194 C 203.598 2.27784 -3.58211 0
M  V30 2195 C 201.505 1.3793 -5.75091 0
M  V30 2196 H 200.435 0.324834 -0.68044 0
M  V30 2197 H 203.086 0.112588 -1.83154 0
M  V30 2198 H 201.468 2.37249 -3.17063 0
M  V30 2199 H 202.642 -0.0995497 -4.60692 0
M  V30 2200 H 200.957 0.0682643 -4.16344 0
M  V30 2201 H 203.554 2.8239 -4.54048 0
M  V30 2202 H 203.897 3.04204 -2.84193 0
M  V30 2203 H 204.43 1.55421 -3.66182 0
M  V30 2204 H 201.169 0.656982 -6.52199 0
M  V30 2205 H 200.689 2.10954 -5.61479 0
M  V30 2206 H 202.368 1.92063 -6.17835 0
M  V30 2207 N 202.5 1.5196 0.417844 0
M  V30 2208 C 203.748 1.65263 1.16329 0
M  V30 2209 C 204.069 0.380634 1.91249 0
M  V30 2210 O 203.339 -0.604214 1.86349 0
M  V30 2211 H 201.919 0.60912 0.432414 0
M  V30 2212 H 204.581 1.88969 0.477162 0
M  V30 2213 H 203.677 2.4896 1.88217 0
M  V30 2214 N 203.978 -0.674533 1.42435 0
M  V30 2215 C 204.941 -1.76986 1.45632 0
M  V30 2216 C 205.941 -1.5708 0.343871 0
M  V30 2217 O 207.131 -1.63367 0.604709 0
M  V30 2218 C 204.263 -3.15623 1.28822 0
M  V30 2219 H 205.456 -1.75539 2.43158 0
M  V30 2220 H 203.009 -0.884189 1.28887 0
M  V30 2221 H 203.744 -3.22696 0.322193 0
M  V30 2222 H 203.529 -3.31475 2.09444 0
M  V30 2223 H 205.019 -3.95537 1.33942 0
M  V30 2224 N 205.456 -1.28612 -0.910864 0
M  V30 2225 C 206.872 -1.06381 -1.18976 0
M  V30 2226 C 207.072 0.191998 -2.00583 0
M  V30 2227 O 206.128 0.892869 -2.36187 0
M  V30 2228 C 207.441 -2.31295 -1.92154 0
M  V30 2229 C 208.989 -2.36503 -2.05025 0
M  V30 2230 C 209.464 -3.61191 -2.81612 0
M  V30 2231 N 210.955 -3.61847 -2.89172 0
M  V30 2232 C 211.69 -4.55004 -3.4894 0
M  V30 2233 N 211.186 -5.58482 -4.09963 0
M  V30 2234 N 212.979 -4.42594 -3.46506 0
M  V30 2235 H 205.13 -2.09221 -0.366094 0
M  V30 2236 H 207.393 -0.921003 -0.224629 0
M  V30 2237 H 207.099 -3.228 -1.39618 0
M  V30 2238 H 206.973 -2.37934 -2.9269 0
M  V30 2239 H 209.36 -1.45494 -2.5674 0
M  V30 2240 H 209.441 -2.33857 -1.03657 0
M  V30 2241 H 209.085 -4.52545 -2.30576 0
M  V30 2242 H 209.015 -3.61092 -3.83302 0
M  V30 2243 H 211.506 -2.87022 -2.45819 0
M  V30 2244 H 211.819 -6.25704 -4.53557 0
M  V30 2245 H 210.164 -5.62305 -4.08459 0
M  V30 2246 H 213.355 -3.60953 -2.98045 0
M  V30 2247 H 213.528 -5.15381 -3.92793 0
M  V30 2248 N 206.934 1.1197 -1.10907 0
M  V30 2249 C 207.897 2.16031 -0.765707 0
M  V30 2250 C 208.897 1.59393 0.212235 0
M  V30 2251 O 210.087 1.74196 -0.0115441 0
M  V30 2252 C 207.219 3.40632 -0.135053 0
M  V30 2253 H 208.412 2.47919 -1.68748 0
M  V30 2254 H 205.965 1.27061 -0.910226 0
M  V30 2255 H 206.7 3.14348 0.797218 0
M  V30 2256 H 206.485 3.8302 -0.838937 0
M  V30 2257 H 207.975 4.17505 0.0892469 0
M  V30 2258 N 208.412 0.89855 1.29475 0
M  V30 2259 C 209.322 0.379974 2.31502 0
M  V30 2260 C 210.338 -0.524695 1.659 0
M  V30 2261 O 211.514 -0.414551 1.97087 0
M  V30 2262 C 208.579 -0.385138 3.44554 0
M  V30 2263 C 207.64 0.550914 4.2575 0
M  V30 2264 C 206.873 -0.177778 5.33404 0
M  V30 2265 O 207.096 -1.40189 5.52904 0
M  V30 2266 O 206.03 0.479106 5.9999 0
M  V30 2267 H 209.856 1.22639 2.77837 0
M  V30 2268 H 207.441 0.662834 1.33891 0
M  V30 2269 H 209.323 -0.817841 4.13388 0
M  V30 2270 H 207.998 -1.20763 3.0033 0
M  V30 2271 H 206.905 1.03271 3.59564 0
M  V30 2272 H 208.238 1.33979 4.73614 0
M  V30 2273 N 209.89 -1.43072 0.660911 0
M  V30 2274 C 210.823 -2.28074 -0.0758862 0
M  V30 2275 C 211.801 -1.40271 -0.822362 0
M  V30 2276 O 212.985 -1.69713 -0.820352 0
M  V30 2277 C 210.112 -3.19843 -1.11437 0
M  V30 2278 C 209.158 -4.23957 -0.465069 0
M  V30 2279 S 209.991 -5.29978 0.767078 0
M  V30 2280 C 211.147 -6.25314 -0.270682 0
M  V30 2281 H 211.38 -2.90216 0.645139 0
M  V30 2282 H 208.913 -1.47697 0.449995 0
M  V30 2283 H 210.871 -3.73257 -1.70849 0
M  V30 2284 H 209.532 -2.56863 -1.80776 0
M  V30 2285 H 208.725 -4.88299 -1.24819 0
M  V30 2286 H 208.327 -3.73959 0.0551242 0
M  V30 2287 H 210.619 -6.67932 -1.13459 0
M  V30 2288 H 211.562 -7.07293 0.337916 0
M  V30 2289 H 211.97 -5.61195 -0.609937 0
M  V30 2290 N 211.368 -0.403325 -1.52352 0
M  V30 2291 C 212.596 0.174012 -2.06167 0
M  V30 2292 C 213.011 1.39347 -1.27388 0
M  V30 2293 O 212.368 1.79597 -0.324201 0
M  V30 2294 C 212.419 0.530223 -3.5759 0
M  V30 2295 O 212.14 -0.640806 -4.33388 0
M  V30 2296 C 213.641 1.16192 -4.27802 0
M  V30 2297 H 210.861 0.0229464 -0.670608 0
M  V30 2298 H 213.405 -0.572604 -1.9632 0
M  V30 2299 H 211.56 1.22673 -3.67464 0
M  V30 2300 H 211.974 -0.344851 -5.23365 0
M  V30 2301 H 213.448 1.36141 -5.34948 0
M  V30 2302 H 213.925 2.13335 -3.83907 0
M  V30 2303 H 214.531 0.505775 -4.22282 0
M  V30 2304 N 212.846 1.57033 -0.133567 0
M  V30 2305 C 214.071 2.00475 0.531477 0
M  V30 2306 C 214.496 1.01291 1.58499 0
M  V30 2307 O 213.854 -0.0133279 1.81295 0
M  V30 2308 C 213.902 3.42729 1.12113 0
M  V30 2309 O 213.006 3.46498 2.23636 0
M  V30 2310 H 212.347 0.650876 0.131362 0
M  V30 2311 H 214.877 2.03344 -0.22634 0
M  V30 2312 H 214.887 3.81246 1.4531 0
M  V30 2313 H 213.562 4.14428 0.349557 0
M  V30 2314 H 212.139 3.19811 1.91769 0
M  V30 2315 N 214.325 -0.140222 1.56975 0
M  V30 2316 C 215.272 -1.17292 1.98774 0
M  V30 2317 C 216.242 -1.4232 0.856408 0
M  V30 2318 O 217.427 -1.54541 1.119 0
M  V30 2319 C 214.567 -2.49973 2.37923 0
M  V30 2320 C 213.68 -2.32062 3.64378 0
M  V30 2321 C 212.815 -3.57825 3.926 0
M  V30 2322 C 211.854 -3.3498 5.12303 0
M  V30 2323 N 210.991 -4.52891 5.36502 0
M  V30 2324 H 215.831 -0.809472 2.86795 0
M  V30 2325 H 213.368 -0.388237 1.41884 0
M  V30 2326 H 215.326 -3.27346 2.58652 0
M  V30 2327 H 213.956 -2.84252 1.52972 0
M  V30 2328 H 213.008 -1.45711 3.51387 0
M  V30 2329 H 214.32 -2.11145 4.51906 0
M  V30 2330 H 213.474 -4.43624 4.13863 0
M  V30 2331 H 212.213 -3.81753 3.03506 0
M  V30 2332 H 211.218 -2.4757 4.90906 0
M  V30 2333 H 212.443 -3.12444 6.02956 0
M  V30 2334 H 210.389 -4.76979 4.50363 0
M  V30 2335 H 210.306 -4.35001 6.18312 0
M  V30 2336 H 211.574 -5.39884 5.62268 0
M  V30 2337 N 215.803 -1.52179 -0.40978 0
M  V30 2338 C 216.753 -1.71857 -1.49831 0
M  V30 2339 C 217.737 -0.572469 -1.50372 0
M  V30 2340 O 218.929 -0.829509 -1.56359 0
M  V30 2341 C 216.058 -1.87206 -2.87765 0
M  V30 2342 C 215.144 -3.07685 -2.91875 0
M  V30 2343 N 215.535 -4.30403 -2.65683 0
M  V30 2344 C 213.833 -3.07505 -3.23043 0
M  V30 2345 C 214.534 -5.11868 -2.76344 0
M  V30 2346 N 213.51 -4.47101 -3.09195 0
M  V30 2347 H 217.312 -2.64381 -1.28375 0
M  V30 2348 H 214.826 -1.50203 -0.617479 0
M  V30 2349 H 216.823 -1.99419 -3.66111 0
M  V30 2350 H 215.483 -0.958814 -3.10221 0
M  V30 2351 H 216.494 -4.58887 -2.4009 0
M  V30 2352 H 213.171 -2.25915 -3.51096 0
M  V30 2353 H 214.561 -6.19634 -2.59814 0
M  V30 2354 N 217.281 0.66697 -1.42791 0
M  V30 2355 C 218.213 1.7925 -1.42836 0
M  V30 2356 C 219.226 1.59496 -0.326333 0
M  V30 2357 O 220.415 1.6847 -0.589916 0
M  V30 2358 C 217.515 3.16476 -1.21229 0
M  V30 2359 C 216.688 3.63011 -2.44013 0
M  V30 2360 C 215.747 4.78993 -2.17834 0
M  V30 2361 O 214.773 4.89137 -2.91091 0
M  V30 2362 N 215.975 5.68248 -1.18635 0
M  V30 2363 H 218.74 1.79695 -2.39854 0
M  V30 2364 H 216.301 0.850338 -1.37771 0
M  V30 2365 H 218.293 3.91734 -1.01621 0
M  V30 2366 H 216.863 3.10884 -0.32706 0
M  V30 2367 H 216.083 2.78346 -2.79137 0
M  V30 2368 H 217.371 3.90845 -3.25757 0
M  V30 2369 H 216.769 5.62712 -0.580615 0
M  V30 2370 H 215.326 6.43285 -1.05013 0
M  V30 2371 N 218.759 1.29093 0.90403 0
M  V30 2372 C 219.669 1.15727 2.0407 0
M  V30 2373 C 220.685 0.0815308 1.73809 0
M  V30 2374 O 221.861 0.292749 1.99261 0
M  V30 2375 C 218.926 0.830424 3.36608 0
M  V30 2376 C 217.987 1.98955 3.80415 0
M  V30 2377 C 217.22 1.6782 5.06628 0
M  V30 2378 O 217.443 0.597105 5.67266 0
M  V30 2379 O 216.377 2.52486 5.46383 0
M  V30 2380 H 220.203 2.11171 2.18267 0
M  V30 2381 H 217.788 1.08504 1.027 0
M  V30 2382 H 219.67 0.662521 4.16159 0
M  V30 2383 H 218.345 -0.0942678 3.23563 0
M  V30 2384 H 217.252 2.21267 3.01648 0
M  V30 2385 H 218.585 2.89529 3.98037 0
M  V30 2386 N 220.237 -1.11381 1.11499 0
M  V30 2387 C 221.467 -1.86663 0.885464 0
M  V30 2388 C 221.875 -1.80464 -0.568281 0
M  V30 2389 O 221.218 -1.18445 -1.40415 0
M  V30 2390 C 221.28 -3.36337 1.26956 0
M  V30 2391 C 220.944 -3.66304 2.73259 0
M  V30 2392 C 221.941 -3.63733 3.71476 0
M  V30 2393 C 219.626 -3.9529 3.09921 0
M  V30 2394 C 221.62 -3.89725 5.04374 0
M  V30 2395 C 219.307 -4.20941 4.43004 0
M  V30 2396 C 220.305 -4.18147 5.40039 0
M  V30 2397 O 219.993 -4.43153 6.70724 0
M  V30 2398 H 219.725 -0.597114 0.316908 0
M  V30 2399 H 222.279 -1.41782 1.48617 0
M  V30 2400 H 220.509 -3.81826 0.611999 0
M  V30 2401 H 222.198 -3.92986 1.01573 0
M  V30 2402 H 222.964 -3.41389 3.44498 0
M  V30 2403 H 218.843 -3.966 2.35009 0
M  V30 2404 H 222.387 -3.8746 5.80104 0
M  V30 2405 H 218.284 -4.42761 4.69716 0
M  V30 2406 H 219.052 -4.60717 6.76522 0
M  V30 2407 N 221.715 -0.905404 -1.28997 0
M  V30 2408 C 222.645 -0.404212 -2.29975 0
M  V30 2409 C 223.626 0.523784 -1.61835 0
M  V30 2410 O 224.811 0.433298 -1.89304 0
M  V30 2411 C 221.941 0.364042 -3.45387 0
M  V30 2412 C 220.895 -0.474048 -4.25367 0
M  V30 2413 C 220.221 0.422045 -5.33032 0
M  V30 2414 C 221.521 -1.72696 -4.92923 0
M  V30 2415 H 223.215 -1.24807 -2.72146 0
M  V30 2416 H 220.761 -0.601585 -1.30832 0
M  V30 2417 H 222.714 0.725447 -4.15109 0
M  V30 2418 H 221.438 1.24174 -3.02074 0
M  V30 2419 H 220.097 -0.81786 -3.57361 0
M  V30 2420 H 219.745 1.29804 -4.85963 0
M  V30 2421 H 219.445 -0.135057 -5.87445 0
M  V30 2422 H 220.969 0.779517 -6.05604 0
M  V30 2423 H 222.383 -1.43495 -5.55051 0
M  V30 2424 H 220.78 -2.22582 -5.57295 0
M  V30 2425 H 221.85 -2.45964 -4.17887 0
M  V30 2426 N 223.193 1.4272 -0.668489 0
M  V30 2427 C 224.14 2.30796 0.0137489 0
M  V30 2428 C 225.11 1.4561 0.799177 0
M  V30 2429 O 226.295 1.74453 0.772702 0
M  V30 2430 C 223.435 3.31377 0.963507 0
M  V30 2431 C 222.548 4.31655 0.172569 0
M  V30 2432 C 221.683 5.19312 1.1175 0
M  V30 2433 C 220.722 6.11274 0.317886 0
M  V30 2434 N 219.859 6.91504 1.2152 0
M  V30 2435 H 224.699 2.88585 -0.743161 0
M  V30 2436 H 222.236 1.42154 -0.378226 0
M  V30 2437 H 224.194 3.88214 1.52792 0
M  V30 2438 H 222.824 2.75202 1.68712 0
M  V30 2439 H 221.876 3.76988 -0.508374 0
M  V30 2440 H 223.188 4.96779 -0.448527 0
M  V30 2441 H 222.342 5.80851 1.75206 0
M  V30 2442 H 221.081 4.5435 1.77249 0
M  V30 2443 H 220.086 5.48809 -0.329918 0
M  V30 2444 H 221.311 6.78283 -0.332917 0
M  V30 2445 H 219.257 6.29176 1.85671 0
M  V30 2446 H 219.174 7.53209 0.649036 0
M  V30 2447 H 220.442 7.57535 1.83742 0
M  V30 2448 N 224.671 0.411399 1.52136 0
M  V30 2449 C 225.601 -0.404015 2.29978 0
M  V30 2450 C 226.582 -1.04412 1.34284 0
M  V30 2451 O 227.767 -1.0527 1.63192 0
M  V30 2452 C 224.897 -1.5197 3.12286 0
M  V30 2453 C 223.851 -1.00448 4.16046 0
M  V30 2454 C 223.177 -2.21393 4.86712 0
M  V30 2455 C 224.477 -0.0569336 5.22269 0
M  V30 2456 H 226.171 0.245529 2.98392 0
M  V30 2457 H 223.717 0.119525 1.43503 0
M  V30 2458 H 225.67 -2.09715 3.6551 0
M  V30 2459 H 224.394 -2.19716 2.41646 0
M  V30 2460 H 223.053 -0.449421 3.63835 0
M  V30 2461 H 222.701 -2.87699 4.12599 0
M  V30 2462 H 222.401 -1.87571 5.56858 0
M  V30 2463 H 223.925 -2.7974 5.4275 0
M  V30 2464 H 225.339 -0.54325 5.7072 0
M  V30 2465 H 223.736 0.192594 5.99791 0
M  V30 2466 H 224.806 0.887663 4.76706 0
M  V30 2467 N 226.149 -1.5696 0.141893 0
M  V30 2468 C 227.059 -2.20066 -0.812905 0
M  V30 2469 C 228.075 -1.18344 -1.27557 0
M  V30 2470 O 229.251 -1.50902 -1.33381 0
M  V30 2471 C 226.316 -2.80583 -2.03652 0
M  V30 2472 C 225.377 -3.97414 -1.62359 0
M  V30 2473 C 224.61 -4.55036 -2.78887 0
M  V30 2474 O 224.833 -4.11538 -3.94959 0
M  V30 2475 O 223.767 -5.45376 -2.54653 0
M  V30 2476 H 227.593 -3.02157 -0.305746 0
M  V30 2477 H 225.178 -1.49159 -0.0848799 0
M  V30 2478 H 227.06 -3.19067 -2.75272 0
M  V30 2479 H 225.735 -2.01508 -2.5333 0
M  V30 2480 H 224.642 -3.63656 -0.877775 0
M  V30 2481 H 225.975 -4.77994 -1.17401 0
M  V30 2482 N 227.627 0.131896 -1.57047 0
M  V30 2483 C 228.855 0.856461 -1.88341 0
M  V30 2484 C 229.27 1.74042 -0.731757 0
M  V30 2485 O 228.627 1.80051 0.297945 0
M  V30 2486 C 228.678 1.70064 -3.18999 0
M  V30 2487 O 228.399 0.852278 -4.2973 0
M  V30 2488 C 229.9 2.53148 -3.63911 0
M  V30 2489 H 227.12 0.246885 -0.62393 0
M  V30 2490 H 229.664 0.120152 -2.04147 0
M  V30 2491 H 227.819 2.38984 -3.04902 0
M  V30 2492 H 228.233 1.43329 -5.04537 0
M  V30 2493 H 229.707 3.07931 -4.58129 0
M  V30 2494 H 230.184 3.29901 -2.89935 0
M  V30 2495 H 230.79 1.89492 -3.80753 0
M  V30 2496 N 229.106 1.52395 0.401703 0
M  V30 2497 C 230.334 1.70676 1.16949 0
M  V30 2498 C 230.749 0.419503 1.8408 0
M  V30 2499 O 230.106 -0.605061 1.72178 0
M  V30 2500 C 230.157 2.84753 2.22706 0
M  V30 2501 O 229.878 4.08495 1.58314 0
M  V30 2502 C 231.379 3.14608 3.12309 0
M  V30 2503 H 228.599 0.571787 0.351142 0
M  V30 2504 H 231.143 1.98987 0.471652 0
M  V30 2505 H 229.298 2.58941 2.88147 0
M  V30 2506 H 229.712 4.72117 2.28485 0
M  V30 2507 H 231.186 3.97923 3.82572 0
M  V30 2508 H 231.663 2.28464 3.75101 0
M  V30 2509 H 232.269 3.42212 2.52529 0
M  V30 2510 N 230.584 -0.659388 1.43143 0
M  V30 2511 C 231.83 -1.41984 1.45644 0
M  V30 2512 C 232.185 -1.92245 0.0771718 0
M  V30 2513 O 231.478 -1.68976 -0.903205 0
M  V30 2514 C 231.672 -2.62206 2.42864 0
M  V30 2515 C 231.501 -2.23711 3.90107 0
M  V30 2516 C 230.271 -2.12332 4.58523 0
M  V30 2517 C 232.469 -1.84384 4.80112 0
M  V30 2518 N 230.451 -1.67102 5.9072 0
M  V30 2519 C 231.822 -1.5019 6.01534 0
M  V30 2520 C 233.877 -1.71512 4.67427 0
M  V30 2521 C 232.58 -1.04414 7.11681 0
M  V30 2522 C 234.606 -1.27142 5.77572 0
M  V30 2523 C 233.968 -0.938808 6.98116 0
M  V30 2524 H 230.067 -0.515448 0.588079 0
M  V30 2525 H 232.651 -0.759409 1.79279 0
M  V30 2526 H 230.822 -3.25917 2.11265 0
M  V30 2527 H 232.554 -3.28877 2.35843 0
M  V30 2528 H 229.309 -2.31893 4.12944 0
M  V30 2529 H 229.733 -1.46866 6.60878 0
M  V30 2530 H 234.375 -1.95868 3.74694 0
M  V30 2531 H 232.093 -0.788061 8.04248 0
M  V30 2532 H 235.679 -1.17681 5.69774 0
M  V30 2533 H 234.559 -0.6007 7.81896 0
M  V30 2534 N 232.062 -1.29571 -0.897171 0
M  V30 2535 C 232.995 -1.0924 -2.00354 0
M  V30 2536 C 233.973 -0.00354011 -1.626 0
M  V30 2537 O 235.157 -0.15473 -1.87864 0
M  V30 2538 C 232.284 -0.66352 -3.32137 0
M  V30 2539 C 231.33 -1.75146 -3.88878 0
M  V30 2540 S 232.163 -3.35124 -4.17674 0
M  V30 2541 C 233.319 -2.9411 -5.52494 0
M  V30 2542 H 233.552 -2.02907 -2.17292 0
M  V30 2543 H 231.085 -1.13746 -1.04408 0
M  V30 2544 H 233.043 -0.422791 -4.08317 0
M  V30 2545 H 231.704 0.253588 -3.13075 0
M  V30 2546 H 230.897 -1.40337 -4.84068 0
M  V30 2547 H 230.499 -1.94584 -3.19395 0
M  V30 2548 H 232.791 -2.41312 -6.33068 0
M  V30 2549 H 233.734 -3.88161 -5.9223 0
M  V30 2550 H 234.142 -2.32332 -5.14473 0
M  V30 2551 N 233.54 1.10788 -1.12088 0
M  V30 2552 C 234.768 1.86461 -0.896651 0
M  V30 2553 C 235.183 1.80492 0.553912 0
M  V30 2554 O 234.54 1.19102 1.38278 0
M  V30 2555 C 234.591 3.35006 -1.35843 0
M  V30 2556 O 234.312 3.40866 -2.75213 0
M  V30 2557 C 235.813 4.27565 -1.1706 0
M  V30 2558 H 233.033 0.589425 -0.320654 0
M  V30 2559 H 235.577 1.40076 -1.48993 0
M  V30 2560 H 233.732 3.7887 -0.808458 0
M  V30 2561 H 234.146 4.33411 -2.9539 0
M  V30 2562 H 235.62 5.30007 -1.54263 0
M  V30 2563 H 236.097 4.3906 -0.110814 0
M  V30 2564 H 236.703 3.89501 -1.70789 0
M  V30 2565 N 235.018 0.912232 1.28515 0
M  V30 2566 C 235.981 0.404223 2.25607 0
M  V30 2567 C 236.981 -0.468602 1.53821 0
M  V30 2568 O 238.171 -0.271873 1.72065 0
M  V30 2569 C 235.303 -0.420653 3.38295 0
M  V30 2570 H 236.496 1.26188 2.7206 0
M  V30 2571 H 234.049 0.691495 1.40171 0
M  V30 2572 H 234.784 -1.29777 2.97201 0
M  V30 2573 H 234.569 0.204935 3.91564 0
M  V30 2574 H 236.059 -0.766971 4.10496 0
M  V30 2575 N 236.496 -1.42363 0.676048 0
M  V30 2576 C 237.742 -2.0182 0.199125 0
M  V30 2577 C 238.075 -1.53339 -1.19168 0
M  V30 2578 O 237.35 -0.736124 -1.80032 0
M  V30 2579 C 237.633 -3.59331 0.235144 0
M  V30 2580 C 237.486 -4.17989 1.66149 0
M  V30 2581 C 238.805 -4.3813 -0.41595 0
M  V30 2582 H 235.924 -0.733293 0.0738311 0
M  V30 2583 H 238.566 -1.69368 0.86107 0
M  V30 2584 H 236.716 -3.87109 -0.328487 0
M  V30 2585 H 238.388 -4.0116 2.27747 0
M  V30 2586 H 236.631 -3.7377 2.20178 0
M  V30 2587 H 237.302 -5.27126 1.63837 0
M  V30 2588 H 239.778 -4.16051 0.0638529 0
M  V30 2589 H 238.654 -5.47717 -0.360115 0
M  V30 2590 H 238.915 -4.16101 -1.49373 0
M  V30 2591 N 237.974 -0.419461 -1.51915 0
M  V30 2592 C 239.222 0.152637 -2.01523 0
M  V30 2593 C 239.543 1.44762 -1.30649 0
M  V30 2594 O 238.813 1.90997 -0.435535 0
M  V30 2595 H 237.393 0.0593966 -0.744635 0
M  V30 2596 H 240.055 -0.558073 -1.86739 0
M  V30 2597 H 239.151 0.341369 -3.10227 0
M  V30 2598 N 239.452 1.56882 -0.150215 0
M  V30 2599 C 240.382 2.19935 0.784284 0
M  V30 2600 C 241.363 1.14854 1.25469 0
M  V30 2601 O 242.548 1.43209 1.31168 0
M  V30 2602 C 239.678 2.82349 2.02229 0
M  V30 2603 C 238.632 3.93285 1.68853 0
M  V30 2604 C 237.958 4.42649 2.99944 0
M  V30 2605 C 239.258 5.13904 0.932714 0
M  V30 2606 H 240.952 2.9828 0.258781 0
M  V30 2607 H 238.498 1.43473 0.123029 0
M  V30 2608 H 240.451 3.25126 2.68088 0
M  V30 2609 H 239.175 2.0134 2.57157 0
M  V30 2610 H 237.834 3.5113 1.05371 0
M  V30 2611 H 237.482 3.58458 3.52869 0
M  V30 2612 H 237.182 5.17476 2.78374 0
M  V30 2613 H 238.706 4.88099 3.66868 0
M  V30 2614 H 240.12 5.53506 1.49345 0
M  V30 2615 H 238.517 5.94515 0.81684 0
M  V30 2616 H 239.587 4.84842 -0.0749568 0
M  V30 2617 N 240.93 -0.123565 1.57115 0
M  V30 2618 C 242.155 -0.850398 1.89164 0
M  V30 2619 C 242.58 -1.7286 0.741688 0
M  V30 2620 O 241.938 -1.78665 -0.307958 0
M  V30 2621 C 241.986 -1.66353 3.19936 0
M  V30 2622 O 241.09 -2.77004 3.0552 0
M  V30 2623 H 240.431 -0.235454 0.620852 0
M  V30 2624 H 242.961 -0.107335 2.04318 0
M  V30 2625 H 242.971 -2.05372 3.52543 0
M  V30 2626 H 241.646 -1.01881 4.03228 0
M  V30 2627 H 240.223 -2.41221 2.84371 0
M  V30 2628 N 242.408 -1.52605 -0.393616 0
M  V30 2629 C 243.318 -1.79971 -1.50492 0
M  V30 2630 C 244.334 -0.686181 -1.59899 0
M  V30 2631 O 245.51 -0.973274 -1.76322 0
M  V30 2632 C 242.575 -1.95867 -2.86072 0
M  V30 2633 C 241.636 -3.19781 -2.86424 0
M  V30 2634 C 240.869 -3.34909 -4.15538 0
M  V30 2635 O 241.092 -2.54948 -5.10253 0
M  V30 2636 O 240.026 -4.28141 -4.23059 0
M  V30 2637 H 243.852 -2.74328 -1.30299 0
M  V30 2638 H 241.437 -1.3764 -0.581005 0
M  V30 2639 H 243.319 -2.08056 -3.66457 0
M  V30 2640 H 241.994 -1.04699 -3.063 0
M  V30 2641 H 240.901 -3.13038 -2.04837 0
M  V30 2642 H 242.234 -4.1078 -2.71147 0
M  V30 2643 N 243.887 0.651787 -1.4349 0
M  V30 2644 C 244.82 1.77668 -1.43211 0
M  V30 2645 C 245.798 1.59931 -0.29338 0
M  V30 2646 O 246.982 1.82095 -0.487191 0
M  V30 2647 C 244.109 3.14986 -1.24505 0
M  V30 2648 C 243.155 3.51421 -2.41673 0
M  V30 2649 S 243.988 3.51234 -4.04222 0
M  V30 2650 C 245.144 4.91206 -3.87902 0
M  V30 2651 H 245.377 1.77635 -2.38397 0
M  V30 2652 H 242.91 0.824558 -1.30539 0
M  V30 2653 H 244.868 3.94237 -1.144 0
M  V30 2654 H 243.529 3.1258 -0.308651 0
M  V30 2655 H 242.722 4.51291 -2.24393 0
M  V30 2656 H 242.324 2.79585 -2.48411 0
M  V30 2657 H 244.616 5.79902 -3.50315 0
M  V30 2658 H 245.559 5.13537 -4.8753 0
M  V30 2659 H 245.967 4.64808 -3.20334 0
M  V30 2660 N 245.365 1.30045 0.890287 0
M  V30 2661 C 246.328 1.15963 1.977 0
M  V30 2662 C 247.328 0.0923777 1.60534 0
M  V30 2663 O 248.518 0.340071 1.70848 0
M  V30 2664 C 245.65 0.775451 3.31963 0
M  V30 2665 H 246.843 2.12502 2.11619 0
M  V30 2666 H 244.396 1.13366 1.07601 0
M  V30 2667 H 245.131 -0.189671 3.23745 0
M  V30 2668 H 244.916 1.54668 3.60306 0
M  V30 2669 H 246.406 0.700251 4.11687 0
M  V30 2670 N 246.843 -1.10192 1.12674 0
M  V30 2671 C 247.806 -2.14786 0.799979 0
M  V30 2672 C 248.806 -1.59711 -0.18685 0
M  V30 2673 O 249.996 -1.74156 0.0392558 0
M  V30 2674 C 247.128 -3.40374 0.189228 0
M  V30 2675 H 248.321 -2.45203 1.72671 0
M  V30 2676 H 245.874 -1.25597 0.930326 0
M  V30 2677 H 246.609 -3.15577 -0.747107 0
M  V30 2678 H 246.394 -3.81637 0.899766 0
M  V30 2679 H 247.884 -4.17594 -0.0228143 0
M  V30 2680 N 248.321 -0.919034 -1.28029 0
M  V30 2681 C 249.231 -0.416756 -2.30869 0
M  V30 2682 C 250.247 0.498235 -1.66714 0
M  V30 2683 O 251.423 0.383144 -1.97722 0
M  V30 2684 C 248.488 0.330274 -3.45123 0
M  V30 2685 C 247.549 -0.618578 -4.2482 0
M  V30 2686 C 246.782 0.0928959 -5.33619 0
M  V30 2687 O 247.005 1.31375 -5.55065 0
M  V30 2688 O 245.939 -0.574499 -5.99152 0
M  V30 2689 H 249.765 -1.27043 -2.75851 0
M  V30 2690 H 247.35 -0.684052 -1.3282 0
M  V30 2691 H 249.232 0.751972 -4.14636 0
M  V30 2692 H 247.907 1.1597 -3.02213 0
M  V30 2693 H 246.814 -1.08978 -3.57875 0
M  V30 2694 H 248.147 -1.41497 -4.71423 0
M  V30 2695 N 249.799 1.42003 -0.683588 0
M  V30 2696 C 250.762 2.29191 -0.0198243 0
M  V30 2697 C 251.762 1.43773 0.72013 0
M  V30 2698 O 252.952 1.65061 0.556815 0
M  V30 2699 C 250.084 3.26435 0.982487 0
M  V30 2700 H 251.277 2.8938 -0.787345 0
M  V30 2701 H 248.83 1.49789 -0.446418 0
M  V30 2702 H 249.565 2.71203 1.77819 0
M  V30 2703 H 249.35 3.89449 0.455182 0
M  V30 2704 H 250.84 3.918 1.44508 0
M  V30 2705 N 251.277 0.427512 1.51691 0
M  V30 2706 C 252.24 -0.377132 2.26076 0
M  V30 2707 C 253.24 -0.958089 1.29141 0
M  V30 2708 O 254.43 -0.83408 1.52934 0
M  V30 2709 C 251.562 -1.53262 3.04506 0
M  V30 2710 H 252.755 0.27464 2.9864 0
M  V30 2711 H 250.308 0.180445 1.55255 0
M  V30 2712 H 251.043 -2.22072 2.36335 0
M  V30 2713 H 250.828 -1.12232 3.75694 0
M  V30 2714 H 252.318 -2.10135 3.60878 0
M  V30 2715 N 252.755 -1.56801 0.158532 0
M  V30 2716 C 253.985 -2.00568 -0.495583 0
M  V30 2717 C 254.393 -1.03774 -1.58201 0
M  V30 2718 O 253.736 -0.0285797 -1.83678 0
M  V30 2719 C 253.798 -3.40768 -1.14532 0
M  V30 2720 C 253.462 -4.56553 -0.202101 0
M  V30 2721 C 254.459 -5.16714 0.574675 0
M  V30 2722 C 252.144 -5.02197 -0.101648 0
M  V30 2723 C 254.138 -6.20939 1.43924 0
M  V30 2724 C 251.825 -6.06274 0.766508 0
M  V30 2725 C 252.823 -6.65515 1.53555 0
M  V30 2726 O 252.511 -7.67575 2.38922 0
M  V30 2727 H 252.243 -0.662893 -0.13247 0
M  V30 2728 H 254.797 -2.03829 0.253559 0
M  V30 2729 H 253.027 -3.34381 -1.94233 0
M  V30 2730 H 254.716 -3.6857 -1.70033 0
M  V30 2731 H 255.482 -4.82341 0.507167 0
M  V30 2732 H 251.361 -4.55807 -0.689994 0
M  V30 2733 H 254.905 -6.67107 2.03996 0
M  V30 2734 H 250.802 -6.40073 0.835266 0
M  V30 2735 H 251.57 -7.84844 2.32296 0
M  V30 2736 N 254.233 0.115231 -1.57178 0
M  V30 2737 C 255.165 1.16694 -1.97269 0
M  V30 2738 C 256.178 1.37445 -0.872502 0
M  V30 2739 O 257.367 1.36454 -1.15077 0
M  V30 2740 C 254.467 2.52627 -2.25905 0
M  V30 2741 C 253.64 2.52427 -3.57211 0
M  V30 2742 C 252.699 3.70134 -3.74016 0
M  V30 2743 O 251.725 3.53546 -4.46087 0
M  V30 2744 N 252.927 4.88844 -3.13068 0
M  V30 2745 H 255.692 0.82588 -2.88096 0
M  V30 2746 H 253.253 0.304461 -1.59011 0
M  V30 2747 H 255.245 3.29937 -2.34359 0
M  V30 2748 H 253.815 2.789 -1.41186 0
M  V30 2749 H 253.035 1.60805 -3.5991 0
M  V30 2750 H 254.323 2.49353 -4.43509 0
M  V30 2751 H 253.721 5.05225 -2.54489 0
M  V30 2752 H 252.278 5.63817 -3.27037 0
M  V30 2753 N 255.711 1.52812 0.385517 0
M  V30 2754 C 256.939 1.71907 1.15133 0
M  V30 2755 C 257.354 0.439004 1.83625 0
M  V30 2756 O 256.711 -0.586765 1.7281 0
M  V30 2757 C 256.762 2.87099 2.19673 0
M  V30 2758 O 256.483 4.10151 1.53973 0
M  V30 2759 C 257.984 3.17902 3.08955 0
M  V30 2760 H 255.204 0.575479 0.345057 0
M  V30 2761 H 257.748 1.99476 0.45052 0
M  V30 2762 H 255.903 2.61982 2.85384 0
M  V30 2763 H 256.317 4.74514 2.23465 0
M  V30 2764 H 257.791 4.01959 3.7833 0
M  V30 2765 H 258.268 2.3243 3.72657 0
M  V30 2766 H 258.874 3.44871 2.48885 0
M  V30 2767 N 257.189 -0.644168 1.43834 0
M  V30 2768 C 258.437 -1.40117 1.45642 0
M  V30 2769 C 258.758 -1.94814 0.0852413 0
M  V30 2770 O 258.028 -1.74988 -0.880688 0
M  V30 2771 H 256.608 -0.52005 0.536243 0
M  V30 2772 H 259.27 -0.7591 1.7951 0
M  V30 2773 H 258.366 -2.23902 2.17427 0
M  V30 2774 N 258.668 -1.30515 -0.883378 0
M  V30 2775 C 259.631 -1.1701 -1.97082 0
M  V30 2776 C 260.631 -0.10089 -1.60483 0
M  V30 2777 O 261.821 -0.349127 -1.70666 0
M  V30 2778 C 258.953 -0.793045 -3.31547 0
M  V30 2779 H 260.146 -2.13622 -2.10489 0
M  V30 2780 H 257.699 -1.13935 -1.06998 0
M  V30 2781 H 258.434 0.172499 -3.23841 0
M  V30 2782 H 258.219 -1.56576 -3.5948 0
M  V30 2783 H 259.709 -0.722073 -4.1131 0
M  V30 2784 N 260.146 1.09593 -1.13257 0
M  V30 2785 C 261.423 1.78293 -0.804432 0
M  V30 2786 C 261.803 1.99004 0.70431 0
M  V30 2787 O 261.151 1.59007 1.641 0
M  V30 2788 C 261.361 3.10707 -1.5894 0
M  V30 2789 C 262.709 3.85443 -1.78099 0
M  V30 2790 O 263.733 3.20454 -1.55525 0
M  V30 2791 O 262.592 5.02108 -2.15753 0
M  V30 2792 H 259.686 0.773156 -0.293528 0
M  V30 2793 H 262.232 1.16164 -1.23709 0
M  V30 2794 H 261.004 2.91106 -2.61482 0
M  V30 2795 H 260.627 3.80558 -1.15157 0
M  V30 2796 N 261.624 0.925811 1.2754 0
M  V30 2797 C 262.556 0.380753 2.26015 0
M  V30 2798 C 263.569 -0.487485 1.5533 0
M  V30 2799 O 264.758 -0.300413 1.75954 0
M  V30 2800 C 261.858 -0.473259 3.35579 0
M  V30 2801 C 261.031 0.375249 4.35787 0
M  V30 2802 C 260.09 -0.415809 5.24555 0
M  V30 2803 O 259.116 0.175834 5.68928 0
M  V30 2804 N 260.318 -1.71607 5.54555 0
M  V30 2805 H 263.083 1.22725 2.73421 0
M  V30 2806 H 260.644 0.793037 1.41147 0
M  V30 2807 H 262.636 -1.00949 3.91907 0
M  V30 2808 H 261.206 -1.2205 2.87789 0
M  V30 2809 H 260.426 1.09279 3.7875 0
M  V30 2810 H 261.714 0.955399 4.99749 0
M  V30 2811 H 261.112 -2.2191 5.20358 0
M  V30 2812 H 259.669 -2.19887 6.1359 0
M  V30 2813 N 263.102 -1.41638 0.69111 0
M  V30 2814 C 264.065 -2.29178 0.0319786 0
M  V30 2815 C 265.065 -1.44153 -0.712496 0
M  V30 2816 O 266.255 -1.65354 -0.548053 0
M  V30 2817 C 263.387 -3.26952 -0.965161 0
M  V30 2818 H 264.58 -2.88959 0.802681 0
M  V30 2819 H 262.133 -1.4955 0.454356 0
M  V30 2820 H 262.868 -2.72142 -1.76378 0
M  V30 2821 H 262.653 -3.89685 -0.434522 0
M  V30 2822 H 264.143 -3.92561 -1.42428 0
M  V30 2823 N 264.58 -0.43555 -1.51462 0
M  V30 2824 C 265.805 0.132627 -2.06976 0
M  V30 2825 C 266.23 1.35848 -1.30104 0
M  V30 2826 O 265.588 1.78112 -0.338493 0
M  V30 2827 C 265.636 0.43523 -3.57964 0
M  V30 2828 O 264.74 1.52198 -3.83288 0
M  V30 2829 H 264.081 0.00265 -0.663995 0
M  V30 2830 H 266.611 -0.616369 -1.95095 0
M  V30 2831 H 266.621 0.686206 -4.02188 0
M  V30 2832 H 265.296 -0.460739 -4.1334 0
M  V30 2833 H 263.873 1.2611 -3.50928 0
M  V30 2834 N 266.058 1.56714 -0.166846 0
M  V30 2835 C 267.307 1.95922 0.479318 0
M  V30 2836 C 267.62 1.05529 1.6469 0
M  V30 2837 O 268.826 1.34399 2.35901 0
M  V30 2838 C 267.282 3.48359 0.90412 0
M  V30 2839 C 266.89 4.47369 -0.237621 0
M  V30 2840 C 268.634 3.96394 1.51896 0
M  V30 2841 C 266.541 5.91039 0.206561 0
M  V30 2842 H 265.471 0.731495 0.18284 0
M  V30 2843 H 268.122 1.81728 -0.254363 0
M  V30 2844 H 266.504 3.57955 1.69365 0
M  V30 2845 H 267.678 4.49485 -1.01489 0
M  V30 2846 H 265.993 4.09366 -0.762128 0
M  V30 2847 H 268.59 5.01186 1.86325 0
M  V30 2848 H 268.933 3.39075 2.41524 0
M  V30 2849 H 269.466 3.89796 0.79395 0
M  V30 2850 H 266.205 6.52221 -0.654834 0
M  V30 2851 H 265.725 5.9224 0.949282 0
M  V30 2852 H 267.404 6.43707 0.651939 0
M  V30 2853 N 267.536 -0.106894 1.57237 0
M  V30 2854 C 268.764 -0.826389 1.8968 0
M  V30 2855 C 269.179 -1.72856 0.759353 0
M  V30 2856 O 268.536 -1.80503 -0.269263 0
M  V30 2857 C 268.587 -1.64967 3.21665 0
M  V30 2858 O 268.308 -0.783804 4.31031 0
M  V30 2859 C 269.809 -2.47326 3.67892 0
M  V30 2860 H 267.029 -0.236927 0.627779 0
M  V30 2861 H 269.573 -0.0876593 2.04312 0
M  V30 2862 H 267.728 -2.34103 3.08666 0
M  V30 2863 H 268.142 -1.35284 5.06753 0
M  V30 2864 H 269.616 -3.00604 4.6297 0
M  V30 2865 H 270.093 -3.25247 2.95146 0
M  V30 2866 H 270.699 -1.83411 3.83719 0
M  V30 2867 N 269.014 -1.53014 -0.377408 0
M  V30 2868 C 269.977 -1.77957 -1.44444 0
M  V30 2869 C 270.977 -0.649763 -1.47087 0
M  V30 2870 O 272.167 -0.917897 -1.48055 0
M  V30 2871 C 269.299 -1.89089 -2.83651 0
M  V30 2872 H 270.492 -2.73243 -1.23606 0
M  V30 2873 H 268.045 -1.43912 -0.609844 0
M  V30 2874 H 268.78 -0.958293 -3.09818 0
M  V30 2875 H 268.565 -2.71254 -2.83132 0
M  V30 2876 H 270.055 -2.1002 -3.60945 0
M  V30 2877 N 270.492 0.636531 -1.44174 0
M  V30 2878 C 271.908 0.954104 -1.27941 0
M  V30 2879 C 272.108 2.0039 -0.211248 0
M  V30 2880 O 271.164 2.49236 0.404695 0
M  V30 2881 C 272.477 1.4225 -2.64925 0
M  V30 2882 C 274.025 1.53827 -2.72592 0
M  V30 2883 C 274.5 2.04053 -4.10032 0
M  V30 2884 N 275.991 2.11331 -4.12182 0
M  V30 2885 C 276.726 2.51352 -5.15374 0
M  V30 2886 N 276.222 2.90549 -6.2893 0
M  V30 2887 N 278.015 2.51438 -5.02728 0
M  V30 2888 H 270.166 -0.0578386 -2.12321 0
M  V30 2889 H 272.429 0.0367406 -0.947288 0
M  V30 2890 H 272.135 0.725466 -3.44136 0
M  V30 2891 H 272.009 2.39451 -2.9145 0
M  V30 2892 H 274.396 2.22628 -1.93702 0
M  V30 2893 H 274.477 0.550154 -2.49814 0
M  V30 2894 H 274.121 1.35848 -4.89395 0
M  V30 2895 H 274.051 3.03726 -4.30184 0
M  V30 2896 H 276.542 1.83745 -3.30222 0
M  V30 2897 H 276.855 3.19884 -7.03487 0
M  V30 2898 H 275.2 2.88313 -6.32377 0
M  V30 2899 H 278.391 2.20203 -4.13072 0
M  V30 2900 H 278.564 2.82304 -5.83274 0
M  V30 2901 N 271.97 1.30982 0.876444 0
M  V30 2902 C 272.918 1.18006 2.00443 0
M  V30 2903 C 273.912 0.0898871 1.69161 0
M  V30 2904 O 275.118 0.251333 1.78237 0
M  V30 2905 H 271.493 0.365196 0.65737 0
M  V30 2906 H 273.464 2.13453 2.0852 0
M  V30 2907 C 272.213 0.897521 3.35916 0
M  V30 2908 H 271.536 1.7285 3.60504 0
M  V30 2909 H 272.976 0.846874 4.15456 0
M  V30 2910 C 271.435 -0.399674 3.34521 0
M  V30 2911 O 271.965 -1.41852 3.7582 0
M  V30 2912 N 270.171 -0.413893 2.87637 0
M  V30 2913 H 269.718 0.41571 2.54224 0
M  V30 2914 H 269.676 -1.28175 2.87086 0
M  V30 2915 N 273.449 -1.08991 1.13837 0
M  V30 2916 C 274.399 -2.1393 0.788535 0
M  V30 2917 C 275.383 -1.59396 -0.219516 0
M  V30 2918 O 276.575 -1.76985 -0.0227557 0
M  V30 2919 C 273.704 -3.42305 0.261147 0
M  V30 2920 C 272.79 -4.03736 1.29837 0
M  V30 2921 N 273.181 -4.39659 2.50067 0
M  V30 2922 C 271.479 -4.30993 1.1472 0
M  V30 2923 C 272.18 -4.88113 3.16419 0
M  V30 2924 N 271.156 -4.85846 2.43832 0
M  V30 2925 H 274.958 -2.39516 1.70322 0
M  V30 2926 H 272.472 -1.26263 1.02134 0
M  V30 2927 H 274.469 -4.16899 -0.0077405 0
M  V30 2928 H 273.129 -3.18172 -0.647805 0
M  V30 2929 H 274.14 -4.30878 2.8734 0
M  V30 2930 H 270.817 -4.16444 0.296773 0
M  V30 2931 H 272.207 -5.25336 4.18894 0
M  V30 2932 N 274.927 -0.932562 -1.27047 0
M  V30 2933 C 276.176 -0.571351 -1.93439 0
M  V30 2934 C 276.489 0.892467 -1.74053 0
M  V30 2935 O 277.695 1.36267 -2.34826 0
M  V30 2936 C 276.151 -0.97106 -3.46552 0
M  V30 2937 C 275.759 -2.4559 -3.74686 0
M  V30 2938 C 277.503 -0.681333 -4.18997 0
M  V30 2939 C 275.41 -2.79475 -5.21198 0
M  V30 2940 H 274.34 -0.209966 -0.724176 0
M  V30 2941 H 276.991 -1.13403 -1.44263 0
M  V30 2942 H 275.373 -0.336983 -3.94564 0
M  V30 2943 H 276.547 -3.13829 -3.37414 0
M  V30 2944 H 274.862 -2.71802 -3.15456 0
M  V30 2945 H 277.459 -0.910939 -5.26883 0
M  V30 2946 H 277.802 0.381628 -4.14547 0
M  V30 2947 H 278.335 -1.27473 -3.76823 0
M  V30 2948 H 275.074 -3.847 -5.30741 0
M  V30 2949 H 274.594 -2.1589 -5.596 0
M  V30 2950 H 276.273 -2.67478 -5.89122 0
M  V30 2951 N 276.405 1.4127 -0.698611 0
M  V30 2952 C 277.337 2.292 0.00399731 0
M  V30 2953 C 278.35 1.44944 0.741279 0
M  V30 2954 O 279.539 1.68416 0.591477 0
M  V30 2955 C 276.639 3.22875 1.02979 0
M  V30 2956 C 275.812 4.35904 0.36151 0
M  V30 2957 C 274.871 5.10134 1.29033 0
M  V30 2958 O 273.897 5.63809 0.781562 0
M  V30 2959 N 275.099 5.17885 2.6225 0
M  V30 2960 H 277.864 2.9014 -0.750921 0
M  V30 2961 H 275.425 1.52455 -0.544882 0
M  V30 2962 H 277.417 3.69404 1.65296 0
M  V30 2963 H 275.987 2.63221 1.68622 0
M  V30 2964 H 275.207 3.91719 -0.441584 0
M  V30 2965 H 276.495 5.08696 -0.103055 0
M  V30 2966 H 275.893 4.7573 3.061 0
M  V30 2967 H 274.45 5.6798 3.19754 0
M  V30 2968 N 277.883 0.443576 1.51229 0
M  V30 2969 C 278.813 -0.355142 2.30783 0
M  V30 2970 C 279.794 -1.0154 1.36468 0
M  V30 2971 O 280.979 -1.01785 1.65389 0
M  V30 2972 C 278.109 -1.45312 3.15439 0
M  V30 2973 C 277.063 -0.916002 4.18083 0
M  V30 2974 C 276.389 -2.1102 4.91299 0
M  V30 2975 C 277.689 0.0538602 5.22272 0
M  V30 2976 H 279.383 0.308767 2.97804 0
M  V30 2977 H 276.929 0.149937 1.43217 0
M  V30 2978 H 278.882 -2.01914 3.69876 0
M  V30 2979 H 277.606 -2.14541 2.46252 0
M  V30 2980 H 276.265 -0.372145 3.64706 0
M  V30 2981 H 275.913 -2.78882 4.18609 0
M  V30 2982 H 275.613 -1.75717 5.60712 0
M  V30 2983 H 277.137 -2.68164 5.48562 0
M  V30 2984 H 278.551 -0.422069 5.71744 0
M  V30 2985 H 276.948 0.319776 5.99247 0
M  V30 2986 H 278.018 0.98858 4.74716 0
M  V30 2987 N 279.361 -1.56624 0.175154 0
M  V30 2988 C 280.607 -1.9729 -0.469506 0
M  V30 2989 C 280.94 -1.06128 -1.62636 0
M  V30 2990 O 280.215 -0.109183 -1.94193 0
M  V30 2991 C 280.498 -3.47375 -0.948804 0
M  V30 2992 C 280.351 -4.49317 0.208491 0
M  V30 2993 C 281.67 -4.00652 -1.82116 0
M  V30 2994 H 278.789 -0.717317 -0.16919 0
M  V30 2995 H 281.431 -1.88184 0.262062 0
M  V30 2996 H 279.581 -3.55267 -1.57219 0
M  V30 2997 H 281.253 -4.53482 0.845682 0
M  V30 2998 H 279.496 -4.25121 0.863395 0
M  V30 2999 H 280.167 -5.51741 -0.169059 0
M  V30 3000 H 282.643 -3.95416 -1.2956 0
M  V30 3001 H 281.519 -5.06075 -2.12554 0
M  V30 3002 H 281.78 -3.44699 -2.7683 0
M  V30 3003 N 280.839 0.0985539 -1.57292 0
M  V30 3004 C 281.786 1.11981 -2.01814 0
M  V30 3005 C 282.756 1.39999 -0.89384 0
M  V30 3006 O 283.941 1.5152 -1.15958 0
M  V30 3007 C 281.081 2.43577 -2.44467 0
M  V30 3008 C 280.194 2.2232 -3.70402 0
M  V30 3009 C 279.329 3.4729 -4.01949 0
M  V30 3010 C 278.368 3.2128 -5.21005 0
M  V30 3011 N 277.505 4.38507 -5.48321 0
M  V30 3012 H 282.345 0.733149 -2.88841 0
M  V30 3013 H 279.882 0.350482 -1.42864 0
M  V30 3014 H 281.84 3.20373 -2.6724 0
M  V30 3015 H 280.47 2.80097 -1.60455 0
M  V30 3016 H 279.522 1.36343 -3.55126 0
M  V30 3017 H 280.834 1.99089 -4.57345 0
M  V30 3018 H 279.988 4.32495 -4.25479 0
M  V30 3019 H 278.727 3.73572 -3.13521 0
M  V30 3020 H 277.732 2.34468 -4.97298 0
M  V30 3021 H 278.957 2.96348 -6.11028 0
M  V30 3022 H 276.903 4.64871 -4.62851 0
M  V30 3023 H 276.82 4.18455 -6.29628 0
M  V30 3024 H 278.088 5.24787 -5.76385 0
M  V30 3025 N 282.317 1.53212 0.369288 0
M  V30 3026 C 283.247 1.82365 1.45826 0
M  V30 3027 C 284.228 0.676907 1.56051 0
M  V30 3028 O 285.413 0.926401 1.70679 0
M  V30 3029 C 282.543 2.01023 2.83208 0
M  V30 3030 C 281.497 3.1678 2.8781 0
M  V30 3031 C 280.823 3.20724 4.27832 0
M  V30 3032 C 282.123 4.55447 2.55667 0
M  V30 3033 H 283.817 2.73559 1.21678 0
M  V30 3034 H 281.363 1.3163 0.583911 0
M  V30 3035 H 283.316 2.20001 3.59413 0
M  V30 3036 H 282.04 1.06536 3.08736 0
M  V30 3037 H 280.699 2.97616 2.14056 0
M  V30 3038 H 280.347 2.23882 4.50429 0
M  V30 3039 H 280.047 3.98496 4.31827 0
M  V30 3040 H 281.571 3.41881 5.05915 0
M  V30 3041 H 282.985 4.74611 3.21586 0
M  V30 3042 H 281.382 5.35432 2.70984 0
M  V30 3043 H 282.452 4.60812 1.5093 0
M  V30 3044 N 283.795 -0.628877 1.44509 0
M  V30 3045 C 284.727 -1.754 1.47538 0
M  V30 3046 C 285.74 -1.58575 0.368506 0
M  V30 3047 O 286.929 -1.66847 0.634376 0
M  V30 3048 C 284.029 -3.1315 1.29577 0
M  V30 3049 C 283.202 -3.56413 2.53551 0
M  V30 3050 C 282.261 -4.7305 2.30457 0
M  V30 3051 O 281.287 -4.81247 3.03957 0
M  V30 3052 N 282.489 -5.64903 1.3366 0
M  V30 3053 H 285.254 -1.73272 2.44534 0
M  V30 3054 H 282.815 -0.813512 1.39977 0
M  V30 3055 H 284.807 -3.88902 1.11971 0
M  V30 3056 H 283.377 -3.09908 0.409371 0
M  V30 3057 H 282.597 -2.70847 2.86419 0
M  V30 3058 H 283.885 -3.82071 3.36005 0
M  V30 3059 H 283.283 -5.60975 0.729604 0
M  V30 3060 H 281.84 -6.40275 1.22032 0
M  V30 3061 N 285.273 -1.31445 -0.869486 0
M  V30 3062 C 286.519 -1.21337 -1.62496 0
M  V30 3063 C 286.852 0.227872 -1.92858 0
M  V30 3064 O 286.127 1.16094 -1.56053 0
M  V30 3065 C 286.41 -2.05814 -2.95487 0
M  V30 3066 C 286.263 -3.5824 -2.72 0
M  V30 3067 C 287.582 -1.9079 -3.96594 0
M  V30 3068 H 284.701 -0.442135 -0.589649 0
M  V30 3069 H 287.343 -1.6124 -1.00507 0
M  V30 3070 H 285.493 -1.71913 -3.48394 0
M  V30 3071 H 287.165 -4.0228 -2.25762 0
M  V30 3072 H 285.408 -3.81647 -2.06224 0
M  V30 3073 H 286.079 -4.12657 -3.66631 0
M  V30 3074 H 288.555 -2.20459 -3.52898 0
M  V30 3075 H 287.431 -2.52199 -4.87531 0
M  V30 3076 H 287.692 -0.871341 -4.33428 0
M  V30 3077 N 286.751 1.08385 -1.14413 0
M  V30 3078 C 287.661 2.18856 -0.844951 0
M  V30 3079 C 288.677 1.73121 0.174668 0
M  V30 3080 O 289.853 2.014 0.00312857 0
M  V30 3081 C 286.918 3.45155 -0.32696 0
M  V30 3082 C 285.979 4.05513 -1.40916 0
M  V30 3083 C 285.212 5.25784 -0.915793 0
M  V30 3084 O 285.435 5.69884 0.242651 0
M  V30 3085 O 284.369 5.77545 -1.69487 0
M  V30 3086 H 288.195 2.46919 -1.76818 0
M  V30 3087 H 285.78 1.17524 -0.922411 0
M  V30 3088 H 287.662 4.21377 -0.0440211 0
M  V30 3089 H 286.337 3.18668 0.568539 0
M  V30 3090 H 285.244 3.30879 -1.74556 0
M  V30 3091 H 286.577 4.3625 -2.27919 0
M  V30 3092 N 288.23 0.939286 1.26551 0
M  V30 3093 C 289.14 0.453432 2.30176 0
M  V30 3094 C 290.156 -0.471649 1.67486 0
M  V30 3095 O 291.332 -0.35164 1.98306 0
M  V30 3096 C 288.397 -0.275326 3.45605 0
M  V30 3097 C 287.458 0.686084 4.23782 0
M  V30 3098 C 286.691 -0.00798994 5.33699 0
M  V30 3099 O 286.914 -1.22528 5.57085 0
M  V30 3100 O 285.848 0.669746 5.98162 0
M  V30 3101 H 289.674 1.31416 2.73795 0
M  V30 3102 H 287.259 0.705095 1.31715 0
M  V30 3103 H 289.141 -0.685911 4.1578 0
M  V30 3104 H 287.816 -1.11147 3.0402 0
M  V30 3105 H 286.723 1.14658 3.56096 0
M  V30 3106 H 288.056 1.48979 4.69112 0
M  V30 3107 N 289.708 -1.40897 0.706093 0
M  V30 3108 C 290.954 -2.01352 0.241889 0
M  V30 3109 C 291.287 -1.55832 -1.15888 0
M  V30 3110 O 290.562 -0.774145 -1.7843 0
M  V30 3111 C 290.845 -3.58752 0.311311 0
M  V30 3112 C 290.698 -4.1437 1.74978 0
M  V30 3113 C 292.017 -4.38914 -0.322922 0
M  V30 3114 H 289.136 -0.731562 0.0893687 0
M  V30 3115 H 291.778 -1.67504 0.896802 0
M  V30 3116 H 289.928 -3.87718 -0.246302 0
M  V30 3117 H 291.6 -3.96239 2.36205 0
M  V30 3118 H 289.843 -3.69016 2.28057 0
M  V30 3119 H 290.514 -5.23532 1.74981 0
M  V30 3120 H 292.99 -4.15822 0.152089 0
M  V30 3121 H 291.866 -5.48358 -0.243855 0
M  V30 3122 H 292.127 -4.19176 -1.40513 0
M  V30 3123 N 291.186 -0.45159 -1.50991 0
M  V30 3124 C 292.136 0.370861 -2.24964 0
M  V30 3125 C 293.12 0.978074 -1.2776 0
M  V30 3126 O 294.312 0.893854 -1.52772 0
M  V30 3127 C 291.441 1.46344 -3.10545 0
M  V30 3128 C 290.527 0.864924 -4.15187 0
M  V30 3129 N 290.918 -0.00311354 -5.058 0
M  V30 3130 C 289.216 1.13099 -4.31422 0
M  V30 3131 C 289.917 -0.340772 -5.80701 0
M  V30 3132 N 288.893 0.279203 -5.42883 0
M  V30 3133 H 292.695 -0.298134 -2.92384 0
M  V30 3134 H 290.209 -0.264528 -1.60231 0
M  V30 3135 H 292.206 2.06565 -3.62128 0
M  V30 3136 H 290.866 2.13463 -2.4467 0
M  V30 3137 H 291.877 -0.37058 -5.16572 0
M  V30 3138 H 288.554 1.79861 -3.76771 0
M  V30 3139 H 289.944 -1.048 -6.63677 0
M  V30 3140 N 292.664 1.56529 -0.183458 0
M  V30 3141 C 293.596 2.15747 0.773697 0
M  V30 3142 C 294.609 1.1162 1.1851 0
M  V30 3143 O 295.798 1.3876 1.12285 0
M  V30 3144 C 292.898 2.6952 2.05456 0
M  V30 3145 C 292.071 3.98429 1.8048 0
M  V30 3146 C 291.13 4.37145 2.92901 0
M  V30 3147 O 290.156 5.04791 2.6301 0
M  V30 3148 N 291.358 3.99695 4.2098 0
M  V30 3149 H 294.123 2.98505 0.26736 0
M  V30 3150 H 291.684 1.619 -0.0010878 0
M  V30 3151 H 293.676 2.92412 2.79781 0
M  V30 3152 H 292.246 1.91282 2.47245 0
M  V30 3153 H 291.466 3.8379 0.899947 0
M  V30 3154 H 292.754 4.82597 1.61175 0
M  V30 3155 H 292.152 3.4526 4.48121 0
M  V30 3156 H 290.709 4.27562 4.9197 0
M  V30 3157 N 294.142 -0.090211 1.57342 0
M  V30 3158 C 295.072 -1.10976 2.05443 0
M  V30 3159 C 296.053 -1.41482 0.944284 0
M  V30 3160 O 297.238 -1.51428 1.21586 0
M  V30 3161 C 294.368 -2.42831 2.48295 0
M  V30 3162 C 293.322 -2.26721 3.63018 0
M  V30 3163 C 292.648 -3.63796 3.91863 0
M  V30 3164 C 293.948 -1.7037 4.93732 0
M  V30 3165 H 295.642 -0.709564 2.9087 0
M  V30 3166 H 293.188 -0.339874 1.39932 0
M  V30 3167 H 295.141 -3.14431 2.80555 0
M  V30 3168 H 293.865 -2.84795 1.59873 0
M  V30 3169 H 292.524 -1.57565 3.31012 0
M  V30 3170 H 292.172 -4.03297 3.00601 0
M  V30 3171 H 291.872 -3.53861 4.69101 0
M  V30 3172 H 293.396 -4.36855 4.26603 0
M  V30 3173 H 294.81 -2.31816 5.24342 0
M  V30 3174 H 293.207 -1.71181 5.75167 0
M  V30 3175 H 294.277 -0.663542 4.80339 0
M  V30 3176 N 295.62 -1.53406 -0.361157 0
M  V30 3177 C 296.845 -1.74024 -1.12829 0
M  V30 3178 C 297.27 -0.470069 -1.82132 0
M  V30 3179 O 296.628 0.57619 -1.719 0
M  V30 3180 C 296.676 -2.90903 -2.13091 0
M  V30 3181 O 295.78 -2.59821 -3.20261 0
M  V30 3182 H 295.121 -0.577804 -0.327168 0
M  V30 3183 H 297.651 -2.00307 -0.41693 0
M  V30 3184 H 297.661 -3.17194 -2.56616 0
M  V30 3185 H 296.336 -3.83034 -1.62042 0
M  V30 3186 H 294.913 -2.44362 -2.81677 0
M  V30 3187 N 297.098 0.621204 -1.44841 0
M  V30 3188 C 298.514 0.94048 -1.28946 0
M  V30 3189 C 298.714 2.00154 -0.23249 0
M  V30 3190 O 297.77 2.49651 0.378237 0
M  V30 3191 C 299.083 1.39433 -2.66419 0
M  V30 3192 C 300.631 1.50927 -2.74208 0
M  V30 3193 C 301.106 1.99692 -4.12174 0
M  V30 3194 N 302.597 2.06947 -4.144 0
M  V30 3195 C 303.332 2.45871 -5.1801 0
M  V30 3196 N 302.828 2.83862 -6.31977 0
M  V30 3197 N 304.621 2.46092 -5.05366 0
M  V30 3198 H 296.772 -0.0803548 -2.12248 0
M  V30 3199 H 299.035 0.0266913 -0.947624 0
M  V30 3200 H 298.741 0.688925 -3.44887 0
M  V30 3201 H 298.615 2.36347 -2.93973 0
M  V30 3202 H 301.002 2.20561 -1.96053 0
M  V30 3203 H 301.083 0.523627 -2.50383 0
M  V30 3204 H 300.727 1.30649 -4.90809 0
M  V30 3205 H 300.657 2.99146 -4.33381 0
M  V30 3206 H 303.148 1.80232 -3.32152 0
M  V30 3207 H 303.461 3.12405 -7.0684 0
M  V30 3208 H 301.806 2.8159 -6.35399 0
M  V30 3209 H 304.997 2.1581 -4.15384 0
M  V30 3210 H 305.17 2.76102 -5.86235 0
M  V30 3211 N 298.576 1.31904 0.862503 0
M  V30 3212 C 299.523 1.20182 1.9704 0
M  V30 3213 C 300.493 0.0858247 1.65878 0
M  V30 3214 O 301.678 0.26 1.8902 0
M  V30 3215 C 298.818 0.922797 3.32533 0
M  V30 3216 C 297.931 2.12284 3.76244 0
M  V30 3217 C 297.066 1.77996 5.00491 0
M  V30 3218 C 296.105 2.94366 5.36671 0
M  V30 3219 N 295.242 2.60223 6.52095 0
M  V30 3220 H 300.082 2.14951 2.06398 0
M  V30 3221 H 297.619 1.06917 1.01031 0
M  V30 3222 H 299.577 0.741548 4.10557 0
M  V30 3223 H 298.207 0.0119227 3.22798 0
M  V30 3224 H 297.259 2.41461 2.9394 0
M  V30 3225 H 298.571 2.99357 3.98982 0
M  V30 3226 H 297.725 1.56377 5.862 0
M  V30 3227 H 296.464 0.881252 4.79672 0
M  V30 3228 H 295.469 3.16625 4.49476 0
M  V30 3229 H 296.694 3.84957 5.59451 0
M  V30 3230 H 294.64 1.72884 6.32809 0
M  V30 3231 H 294.557 3.40827 6.74814 0
M  V30 3232 H 295.825 2.42016 7.40978 0
M  V30 3233 N 300.054 -1.07777 1.14986 0
M  V30 3234 C 301.017 -2.13041 0.845358 0
M  V30 3235 C 302.017 -1.60071 -0.152931 0
M  V30 3236 O 303.207 -1.74033 0.0761879 0
M  V30 3237 C 300.339 -3.39896 0.261383 0
M  V30 3238 H 301.532 -2.41485 1.77834 0
M  V30 3239 H 299.085 -1.23595 0.956757 0
M  V30 3240 H 299.82 -3.17091 -0.68 0
M  V30 3241 H 299.605 -3.79642 0.980514 0
M  V30 3242 H 301.095 -4.17548 0.0657687 0
M  V30 3243 N 301.532 -0.945985 -1.26051 0
M  V30 3244 C 302.442 -0.465633 -2.29933 0
M  V30 3245 C 303.458 0.462761 -1.67733 0
M  V30 3246 O 304.634 0.341118 -1.9849 0
M  V30 3247 C 301.699 0.256994 -3.45746 0
M  V30 3248 C 300.76 -0.708549 -4.23412 0
M  V30 3249 C 299.993 -0.0203135 -5.33696 0
M  V30 3250 O 300.216 1.19571 -5.57726 0
M  V30 3251 O 299.15 -0.701459 -5.97799 0
M  V30 3252 H 302.976 -1.32866 -2.73094 0
M  V30 3253 H 300.561 -0.712071 -1.31339 0
M  V30 3254 H 302.443 0.663852 -4.16138 0
M  V30 3255 H 301.118 1.09533 -3.04605 0
M  V30 3256 H 300.025 -1.16545 -3.55483 0
M  V30 3257 H 301.358 -1.51465 -4.68315 0
M  V30 3258 N 303.011 1.40521 -0.713556 0
M  V30 3259 C 304.239 2.05237 -0.261775 0
M  V30 3260 C 304.654 1.53755 1.09567 0
M  V30 3261 O 304.011 0.693268 1.6882 0
M  V30 3262 C 304.062 3.60763 -0.230706 0
M  V30 3263 O 303.783 4.10345 -1.53455 0
M  V30 3264 C 305.284 4.42651 0.239874 0
M  V30 3265 H 302.504 0.660533 -0.118057 0
M  V30 3266 H 305.048 1.79967 -0.971192 0
M  V30 3267 H 303.203 3.8501 0.429661 0
M  V30 3268 H 303.617 5.04526 -1.43366 0
M  V30 3269 H 305.091 5.51599 0.210468 0
M  V30 3270 H 305.568 4.20082 1.28171 0
M  V30 3271 H 306.174 4.23507 -0.390142 0
M  V30 3272 N 304.489 0.459591 1.5075 0
M  V30 3273 C 305.436 -0.340524 2.28274 0
M  V30 3274 C 306.406 -0.997371 1.32822 0
M  V30 3275 O 307.591 -1.01202 1.61749 0
M  V30 3276 C 304.731 -1.42317 3.14388 0
M  V30 3277 C 303.844 -0.782251 4.24859 0
M  V30 3278 C 302.979 -1.84182 4.98247 0
M  V30 3279 C 302.018 -1.18053 6.00608 0
M  V30 3280 N 301.155 -2.18244 6.67319 0
M  V30 3281 H 305.995 0.326899 2.96202 0
M  V30 3282 H 303.532 0.173057 1.46078 0
M  V30 3283 H 305.49 -2.06241 3.62658 0
M  V30 3284 H 304.12 -2.05992 2.4853 0
M  V30 3285 H 303.172 -0.0307404 3.80388 0
M  V30 3286 H 304.484 -0.259663 4.98124 0
M  V30 3287 H 303.638 -2.55714 5.50177 0
M  V30 3288 H 302.377 -2.39819 4.24662 0
M  V30 3289 H 301.382 -0.450776 5.47949 0
M  V30 3290 H 302.607 -0.631202 6.7616 0
M  V30 3291 H 300.553 -2.72919 5.96533 0
M  V30 3292 H 300.47 -1.70938 7.36421 0
M  V30 3293 H 301.738 -2.89191 7.23871 0
M  V30 3294 N 305.967 -1.56429 0.191757 0
M  V30 3295 C 306.897 -2.21937 -0.725696 0
M  V30 3296 C 307.878 -1.1814 -1.2238 0
M  V30 3297 O 309.063 -1.46636 -1.27325 0
M  V30 3298 C 306.193 -2.87611 -1.94672 0
M  V30 3299 C 305.147 -3.97623 -1.58366 0
M  V30 3300 C 304.473 -4.50446 -2.88102 0
M  V30 3301 C 305.773 -5.16197 -0.796133 0
M  V30 3302 H 307.467 -2.98861 -0.179606 0
M  V30 3303 H 305.013 -1.43749 -0.0849464 0
M  V30 3304 H 306.966 -3.3212 -2.59373 0
M  V30 3305 H 305.69 -2.08087 -2.51728 0
M  V30 3306 H 304.349 -3.53801 -0.960247 0
M  V30 3307 H 303.997 -3.67688 -3.43241 0
M  V30 3308 H 303.697 -5.24675 -2.64556 0
M  V30 3309 H 305.221 -4.97654 -3.53798 0
M  V30 3310 H 306.635 -5.57271 -1.34618 0
M  V30 3311 H 305.032 -5.96471 -0.658928 0
M  V30 3312 H 306.102 -4.84473 0.203478 0
M  V30 3313 N 307.445 0.0818655 -1.57387 0
M  V30 3314 C 308.408 1.08265 -2.02018 0
M  V30 3315 C 309.408 1.32183 -0.915664 0
M  V30 3316 O 310.598 1.28073 -1.18081 0
M  V30 3317 C 307.73 2.42871 -2.39221 0
M  V30 3318 H 308.923 0.698204 -2.91659 0
M  V30 3319 H 306.476 0.327303 -1.52835 0
M  V30 3320 H 307.211 2.86167 -1.52575 0
M  V30 3321 H 306.996 2.26855 -3.19811 0
M  V30 3322 H 308.486 3.14826 -2.74362 0
M  V30 3323 N 308.923 1.53595 0.353017 0
M  V30 3324 C 309.833 1.83897 1.45667 0
M  V30 3325 C 310.849 0.728334 1.58023 0
M  V30 3326 O 312.025 1.01968 1.73679 0
M  V30 3327 C 309.09 2.03383 2.80778 0
M  V30 3328 C 308.151 3.27262 2.77845 0
M  V30 3329 C 307.384 3.45809 4.06512 0
M  V30 3330 O 307.607 2.68387 5.03314 0
M  V30 3331 O 306.541 4.39207 4.11559 0
M  V30 3332 H 310.367 2.77686 1.2298 0
M  V30 3333 H 307.952 1.39132 0.544308 0
M  V30 3334 H 309.834 2.17698 3.60812 0
M  V30 3335 H 308.509 1.12783 3.03417 0
M  V30 3336 H 307.416 3.18359 1.96465 0
M  V30 3337 H 308.749 4.17824 2.60161 0
M  V30 3338 N 310.401 -0.613514 1.45168 0
M  V30 3339 C 311.364 -1.7065 1.53007 0
M  V30 3340 C 312.364 -1.5548 0.410184 0
M  V30 3341 O 313.554 -1.60656 0.673455 0
M  V30 3342 C 310.686 -3.09875 1.42093 0
M  V30 3343 H 311.879 -1.65068 2.50385 0
M  V30 3344 H 309.432 -0.828728 1.32521 0
M  V30 3345 H 310.167 -3.21039 0.458769 0
M  V30 3346 H 309.952 -3.22293 2.23315 0
M  V30 3347 H 311.442 -3.895 1.50598 0
M  V30 3348 N 311.879 -1.3236 -0.855495 0
M  V30 3349 C 312.811 -1.17052 -1.97057 0
M  V30 3350 C 313.824 -0.10574 -1.62456 0
M  V30 3351 O 315.013 -0.354619 -1.74942 0
M  V30 3352 C 312.113 -0.769305 -3.30053 0
M  V30 3353 C 311.286 -1.9222 -3.929 0
M  V30 3354 C 310.345 -1.50466 -5.04228 0
M  V30 3355 O 309.371 -2.21655 -5.24269 0
M  V30 3356 N 310.573 -0.400209 -5.79119 0
M  V30 3357 H 313.338 -2.13103 -2.1073 0
M  V30 3358 H 310.899 -1.24885 -1.0303 0
M  V30 3359 H 312.891 -0.472407 -4.01933 0
M  V30 3360 H 311.461 0.100025 -3.1244 0
M  V30 3361 H 310.681 -2.38563 -3.13817 0
M  V30 3362 H 311.969 -2.69403 -4.31624 0
M  V30 3363 H 311.367 0.192319 -5.65373 0
M  V30 3364 H 309.924 -0.162912 -6.51596 0
M  V30 3365 N 313.357 1.07166 -1.15556 0
M  V30 3366 C 314.606 1.79181 -0.926132 0
M  V30 3367 C 314.919 1.87768 0.547967 0
M  V30 3368 O 316.125 2.56323 0.895036 0
M  V30 3369 C 314.581 3.22 -1.60761 0
M  V30 3370 C 314.189 3.21607 -3.11886 0
M  V30 3371 C 315.933 3.9861 -1.4598 0
M  V30 3372 C 313.84 4.59092 -3.72812 0
M  V30 3373 H 312.77 0.67154 -0.342856 0
M  V30 3374 H 315.421 1.2027 -1.3859 0
M  V30 3375 H 313.803 3.81115 -1.07553 0
M  V30 3376 H 314.977 2.72127 -3.71865 0
M  V30 3377 H 313.292 2.58495 -3.2645 0
M  V30 3378 H 315.889 5.00225 -1.88888 0
M  V30 3379 H 316.232 4.143 -0.407541 0
M  V30 3380 H 316.765 3.45996 -1.96295 0
M  V30 3381 H 313.504 4.48606 -4.77946 0
M  V30 3382 H 313.024 5.08803 -3.17616 0
M  V30 3383 H 314.703 5.28059 -3.73848 0
M  V30 3384 N 314.835 0.952656 1.25548 0
M  V30 3385 C 315.745 0.47782 2.29682 0
M  V30 3386 C 316.761 -0.453859 1.67977 0
M  V30 3387 O 317.937 -0.330587 1.98668 0
M  V30 3388 C 315.002 -0.238655 3.45878 0
M  V30 3389 C 314.063 0.730994 4.23031 0
M  V30 3390 C 313.296 0.0486165 5.33678 0
M  V30 3391 O 313.519 -1.16612 5.58353 0
M  V30 3392 O 312.453 0.733152 5.97418 0
M  V30 3393 H 316.279 1.34312 2.72386 0
M  V30 3394 H 313.864 0.719026 1.30959 0
M  V30 3395 H 315.746 -0.641774 4.16484 0
M  V30 3396 H 314.421 -1.07916 3.05181 0
M  V30 3397 H 313.328 1.18428 3.5486 0
M  V30 3398 H 314.661 1.53946 4.67506 0
M  V30 3399 N 316.313 -1.40141 0.720998 0
M  V30 3400 C 317.223 -2.34486 0.0731031 0
M  V30 3401 C 318.239 -1.57587 -0.737723 0
M  V30 3402 O 319.415 -1.89949 -0.669429 0
M  V30 3403 C 316.48 -3.36528 -0.833656 0
M  V30 3404 C 315.541 -4.29298 -0.0121673 0
M  V30 3405 C 314.774 -5.26466 -0.875742 0
M  V30 3406 O 314.997 -5.29745 -2.11485 0
M  V30 3407 O 313.931 -6.01092 -0.31185 0
M  V30 3408 H 317.757 -2.9152 0.851444 0
M  V30 3409 H 315.342 -1.41427 0.481527 0
M  V30 3410 H 317.224 -3.99093 -1.35289 0
M  V30 3411 H 315.899 -2.81899 -1.59105 0
M  V30 3412 H 314.806 -3.70001 0.552262 0
M  V30 3413 H 316.139 -4.87094 0.707129 0
M  V30 3414 N 317.792 -0.46758 -1.50504 0
M  V30 3415 C 318.722 0.318381 -2.31319 0
M  V30 3416 C 319.703 0.993564 -1.38066 0
M  V30 3417 O 320.888 0.991411 -1.66987 0
M  V30 3418 C 318.018 1.40275 -3.17711 0
M  V30 3419 C 316.972 0.849373 -4.19487 0
M  V30 3420 C 316.298 2.03177 -4.94594 0
M  V30 3421 C 317.598 -0.136942 -5.2212 0
M  V30 3422 H 319.292 -0.356106 -2.97275 0
M  V30 3423 H 316.838 -0.172703 -1.42961 0
M  V30 3424 H 318.791 1.96004 -3.73042 0
M  V30 3425 H 317.515 2.10596 -2.49634 0
M  V30 3426 H 316.174 0.314076 -3.65252 0
M  V30 3427 H 315.822 2.72187 -4.22993 0
M  V30 3428 H 315.522 1.66774 -5.63436 0
M  V30 3429 H 317.046 2.59403 -5.52759 0
M  V30 3430 H 318.46 0.331056 -5.72343 0
M  V30 3431 H 316.857 -0.41507 -5.98663 0
M  V30 3432 H 317.927 -1.06398 -4.73083 0
M  V30 3433 N 319.27 1.56325 -0.20005 0
M  V30 3434 C 320.686 1.58839 0.155716 0
M  V30 3435 C 320.886 1.21636 1.60645 0
M  V30 3436 O 319.942 0.941437 2.34293 0
M  V30 3437 C 321.255 3.0032 -0.151124 0
M  V30 3438 C 322.803 3.12866 -0.0916284 0
M  V30 3439 C 323.278 4.56488 -0.371845 0
M  V30 3440 N 324.769 4.62089 -0.320641 0
M  V30 3441 C 325.504 5.71116 -0.511243 0
M  V30 3442 N 325 6.88592 -0.762461 0
M  V30 3443 N 326.793 5.60335 -0.445157 0
M  V30 3444 H 318.944 1.78788 -1.14668 0
M  V30 3445 H 321.207 0.829996 -0.458051 0
M  V30 3446 H 320.913 3.32117 -1.15721 0
M  V30 3447 H 320.787 3.73257 0.543986 0
M  V30 3448 H 323.174 2.80878 0.905065 0
M  V30 3449 H 323.255 2.42304 -0.81989 0
M  V30 3450 H 322.899 4.89189 -1.36588 0
M  V30 3451 H 322.829 5.25246 0.377362 0
M  V30 3452 H 325.32 3.77665 -0.13329 0
M  V30 3453 H 325.633 7.67581 -0.896576 0
M  V30 3454 H 323.978 6.90387 -0.799412 0
M  V30 3455 H 327.169 4.67436 -0.249278 0
M  V30 3456 H 327.342 6.45243 -0.597116 0
M  V30 3457 N 320.748 -0.0735177 1.57428 0
M  V30 3458 C 321.68 -1.11423 2.00294 0
M  V30 3459 C 322.693 -1.35084 0.908637 0
M  V30 3460 O 323.882 -1.33355 1.18654 0
M  V30 3461 C 320.982 -2.46548 2.32523 0
M  V30 3462 C 320.155 -2.42867 3.63778 0
M  V30 3463 C 319.214 -3.60087 3.83697 0
M  V30 3464 O 318.24 -3.41595 4.55304 0
M  V30 3465 N 319.442 -4.80372 3.25919 0
M  V30 3466 H 322.207 -0.749206 2.90184 0
M  V30 3467 H 319.768 -0.262195 1.59763 0
M  V30 3468 H 321.76 -3.23607 2.43024 0
M  V30 3469 H 320.33 -2.75059 1.48531 0
M  V30 3470 H 319.55 -1.51206 3.64047 0
M  V30 3471 H 320.838 -2.37506 4.49965 0
M  V30 3472 H 320.236 -4.983 2.67795 0
M  V30 3473 H 318.793 -5.54948 3.41871 0
M  V30 3474 N 322.226 -1.5378 -0.344866 0
M  V30 3475 C 323.173 -1.81676 -1.42346 0
M  V30 3476 C 324.143 -0.662376 -1.52321 0
M  V30 3477 O 325.328 -0.906675 -1.67881 0
M  V30 3478 C 322.468 -2.03087 -2.79015 0
M  V30 3479 C 321.581 -3.30799 -2.77842 0
M  V30 3480 C 320.716 -3.42285 -4.0622 0
M  V30 3481 C 319.755 -4.6395 -3.9927 0
M  V30 3482 N 318.892 -4.72477 -5.19336 0
M  V30 3483 H 323.732 -2.73703 -1.17858 0
M  V30 3484 H 321.269 -1.35568 -0.570949 0
M  V30 3485 H 323.227 -2.1349 -3.58438 0
M  V30 3486 H 321.857 -1.14375 -3.01858 0
M  V30 3487 H 320.909 -3.29244 -1.90533 0
M  V30 3488 H 322.221 -4.20314 -2.68584 0
M  V30 3489 H 321.375 -3.52113 -4.94066 0
M  V30 3490 H 320.114 -2.50823 -4.18258 0
M  V30 3491 H 319.119 -4.54201 -3.09809 0
M  V30 3492 H 320.344 -5.56775 -3.88817 0
M  V30 3493 H 318.29 -3.83924 -5.3192 0
M  V30 3494 H 318.207 -5.55927 -5.12329 0
M  V30 3495 H 319.475 -4.86613 -6.08957 0
M  V30 3496 N 323.704 0.605807 -1.45491 0
M  V30 3497 C 324.932 1.39136 -1.5313 0
M  V30 3498 C 325.347 1.88082 -0.164507 0
M  V30 3499 O 324.704 1.62316 0.834247 0
M  V30 3500 C 324.755 2.59463 -2.51716 0
M  V30 3501 O 324.476 2.12551 -3.83084 0
M  V30 3502 C 325.977 3.52301 -2.6907 0
M  V30 3503 H 323.197 0.425849 -0.51855 0
M  V30 3504 H 325.741 0.73865 -1.90694 0
M  V30 3505 H 323.896 3.20772 -2.17219 0
M  V30 3506 H 324.31 2.90744 -4.36541 0
M  V30 3507 H 325.784 4.33271 -3.42024 0
M  V30 3508 H 326.261 4.02757 -1.75167 0
M  V30 3509 H 326.867 2.96845 -3.04571 0
M  V30 3510 N 325.182 1.32811 0.848464 0
M  V30 3511 C 326.114 1.18095 1.96433 0
M  V30 3512 C 327.127 0.114354 1.62398 0
M  V30 3513 O 328.316 0.363892 1.74751 0
M  V30 3514 C 325.416 0.786798 3.2964 0
M  V30 3515 C 324.589 1.943 3.91875 0
M  V30 3516 C 323.648 1.53138 5.03423 0
M  V30 3517 O 322.674 2.24432 5.23086 0
M  V30 3518 N 323.876 0.430915 5.78898 0
M  V30 3519 H 326.641 2.14218 2.09597 0
M  V30 3520 H 324.202 1.2543 1.02367 0
M  V30 3521 H 326.194 0.493715 4.01677 0
M  V30 3522 H 324.764 -0.0834541 3.12489 0
M  V30 3523 H 323.984 2.40224 3.12547 0
M  V30 3524 H 325.272 2.71689 4.30189 0
M  V30 3525 H 324.67 -0.162333 5.65467 0
M  V30 3526 H 323.227 0.197466 6.51501 0
M  V30 3527 N 326.66 -1.06551 1.16123 0
M  V30 3528 C 327.57 -2.17484 0.879662 0
M  V30 3529 C 328.586 -1.73377 -0.147104 0
M  V30 3530 O 329.762 -2.01379 0.0289128 0
M  V30 3531 C 326.827 -3.44591 0.381829 0
M  V30 3532 C 325.888 -4.0322 1.4735 0
M  V30 3533 C 325.121 -5.24261 0.999324 0
M  V30 3534 O 325.344 -5.70198 -0.151957 0
M  V30 3535 O 324.278 -5.74775 1.78653 0
M  V30 3536 H 328.104 -2.44075 1.80724 0
M  V30 3537 H 325.689 -1.16042 0.940992 0
M  V30 3538 H 327.571 -4.21254 0.111053 0
M  V30 3539 H 326.246 -3.19532 -0.51777 0
M  V30 3540 H 325.153 -3.2806 1.79798 0
M  V30 3541 H 326.486 -4.32568 2.34831 0
M  V30 3542 N 328.138 -0.959301 -1.25041 0
M  V30 3543 C 329.048 -0.489994 -2.29426 0
M  V30 3544 C 330.064 0.444944 -1.68215 0
M  V30 3545 O 331.24 0.320046 -1.98841 0
M  V30 3546 C 328.305 0.220309 -3.45999 0
M  V30 3547 C 327.366 -0.753418 -4.22637 0
M  V30 3548 C 326.599 -0.076918 -5.33645 0
M  V30 3549 O 326.822 1.13649 -5.58963 0
M  V30 3550 O 325.756 -0.764824 -5.97021 0
M  V30 3551 H 329.582 -1.35755 -2.71669 0
M  V30 3552 H 327.167 -0.725961 -1.30576 0
M  V30 3553 H 329.049 0.619677 -4.16819 0
M  V30 3554 H 327.724 1.06296 -3.0575 0
M  V30 3555 H 326.631 -1.20308 -3.54227 0
M  V30 3556 H 327.964 -1.56423 -4.66683 0
M  V30 3557 N 329.616 1.39756 -0.72842 0
M  V30 3558 C 330.864 2.00248 -0.272946 0
M  V30 3559 C 331.185 1.58077 1.14178 0
M  V30 3560 O 330.455 0.826014 1.77634 0
M  V30 3561 H 329.035 0.740554 -0.0979247 0
M  V30 3562 H 331.697 1.70903 -0.936912 0
M  V30 3563 H 330.793 3.10495 -0.316142 0
M  V30 3564 N 331.094 0.475555 1.50254 0
M  V30 3565 C 332.004 -0.321501 2.32387 0
M  V30 3566 C 333.02 -0.991755 1.42969 0
M  V30 3567 O 334.196 -0.978747 1.76018 0
M  V30 3568 C 331.261 -1.38667 3.17762 0
M  V30 3569 C 330.322 -0.732538 4.23004 0
M  V30 3570 C 329.555 -1.74695 5.04299 0
M  V30 3571 O 329.778 -2.97399 4.86734 0
M  V30 3572 O 328.712 -1.31631 5.8733 0
M  V30 3573 H 332.538 0.350071 3.01676 0
M  V30 3574 H 330.123 0.237321 1.47503 0
M  V30 3575 H 332.005 -2.00354 3.70724 0
M  V30 3576 H 330.68 -2.04163 2.51196 0
M  V30 3577 H 329.587 -0.0765902 3.74022 0
M  V30 3578 H 330.92 -0.120452 4.92053 0
M  V30 3579 N 332.573 -1.56217 0.208337 0
M  V30 3580 C 333.483 -2.23316 -0.718836 0
M  V30 3581 C 334.499 -1.23648 -1.22422 0
M  V30 3582 O 335.675 -1.56423 -1.26861 0
M  V30 3583 C 332.74 -2.88968 -1.91568 0
M  V30 3584 C 331.801 -4.03943 -1.45357 0
M  V30 3585 C 331.034 -4.66455 -2.59337 0
M  V30 3586 O 331.257 -4.27919 -3.77149 0
M  V30 3587 O 330.191 -5.55686 -2.31293 0
M  V30 3588 H 334.017 -3.03182 -0.177315 0
M  V30 3589 H 331.602 -1.49384 -0.0215402 0
M  V30 3590 H 333.484 -3.30455 -2.61491 0
M  V30 3591 H 332.159 -2.12071 -2.44556 0
M  V30 3592 H 331.066 -3.67052 -0.722746 0
M  V30 3593 H 332.399 -4.82543 -0.970219 0
M  V30 3594 N 334.051 0.0651679 -1.57465 0
M  V30 3595 C 335.467 0.420105 -1.53972 0
M  V30 3596 C 335.667 1.78782 -0.929474 0
M  V30 3597 O 334.723 2.46771 -0.534839 0
M  V30 3598 C 336.036 0.355084 -2.98596 0
M  V30 3599 C 337.584 0.434792 -3.09965 0
M  V30 3600 C 338.059 0.399609 -4.56253 0
M  V30 3601 N 339.55 0.459488 -4.60915 0
M  V30 3602 C 340.285 0.454584 -5.71595 0
M  V30 3603 N 339.781 0.404102 -6.9162 0
M  V30 3604 N 341.574 0.501635 -5.59857 0
M  V30 3605 H 333.725 -0.830328 -1.95498 0
M  V30 3606 H 335.988 -0.312244 -0.895102 0
M  V30 3607 H 335.694 -0.583357 -3.46828 0
M  V30 3608 H 335.568 1.16275 -3.58831 0
M  V30 3609 H 337.955 1.36366 -2.61703 0
M  V30 3610 H 338.036 -0.40157 -2.52628 0
M  V30 3611 H 337.68 -0.525436 -5.05175 0
M  V30 3612 H 337.61 1.25359 -5.11461 0
M  V30 3613 H 340.101 0.502482 -3.74544 0
M  V30 3614 H 340.414 0.404468 -7.71741 0
M  V30 3615 H 338.759 0.37069 -6.94011 0
M  V30 3616 H 341.95 0.538812 -4.64989 0
M  V30 3617 H 342.123 0.494345 -6.46112 0
M  V30 3618 N 335.529 1.53961 0.336706 0
M  V30 3619 C 336.492 1.81724 1.39675 0
M  V30 3620 C 337.492 0.688532 1.45313 0
M  V30 3621 O 338.682 0.956829 1.45569 0
M  V30 3622 C 335.814 1.96543 2.78538 0
M  V30 3623 H 337.007 2.76424 1.16318 0
M  V30 3624 H 334.56 1.45478 0.571474 0
M  V30 3625 H 335.295 1.0401 3.07168 0
M  V30 3626 H 335.08 2.78665 2.75841 0
M  V30 3627 H 336.57 2.19516 3.5525 0
M  V30 3628 N 337.007 -0.598083 1.45811 0
M  V30 3629 C 337.917 -1.73632 1.57763 0
M  V30 3630 C 338.933 -1.67763 0.461676 0
M  V30 3631 O 340.109 -1.87949 0.723685 0
M  V30 3632 C 337.174 -3.10114 1.55018 0
M  V30 3633 C 336.235 -3.27364 2.77726 0
M  V30 3634 C 335.468 -4.57334 2.75102 0
M  V30 3635 O 335.691 -5.40258 1.8297 0
M  V30 3636 O 334.625 -4.77502 3.66437 0
M  V30 3637 H 338.451 -1.66498 2.53992 0
M  V30 3638 H 336.036 -0.763308 1.28429 0
M  V30 3639 H 337.918 -3.9141 1.56129 0
M  V30 3640 H 336.593 -3.17718 0.619431 0
M  V30 3641 H 335.5 -2.45619 2.82174 0
M  V30 3642 H 336.833 -3.24641 3.69958 0
M  V30 3643 N 338.485 -1.33259 -0.841409 0
M  V30 3644 C 339.71 -1.2775 -1.63385 0
M  V30 3645 C 340.135 0.149188 -1.87507 0
M  V30 3646 O 339.493 1.10498 -1.43736 0
M  V30 3647 C 339.541 -2.05571 -2.96265 0
M  V30 3648 O 338.645 -1.41257 -3.87453 0
M  V30 3649 H 337.986 -0.439627 -0.497618 0
M  V30 3650 H 340.516 -1.75782 -1.04699 0
M  V30 3651 H 340.526 -2.16241 -3.45982 0
M  V30 3652 H 339.201 -3.09309 -2.7803 0
M  V30 3653 H 337.778 -1.39217 -3.45938 0
M  V30 3654 N 339.963 1.05934 -1.16686 0
M  V30 3655 C 340.873 2.17014 -0.891183 0
M  V30 3656 C 341.889 1.73453 0.137907 0
M  V30 3657 O 343.065 2.01361 -0.039592 0
M  V30 3658 C 340.13 3.44384 -0.400099 0
M  V30 3659 C 339.191 4.02433 -1.49486 0
M  V30 3660 C 338.424 5.23723 -1.02711 0
M  V30 3661 O 338.647 5.7027 0.121716 0
M  V30 3662 O 337.581 5.7382 -1.81699 0
M  V30 3663 H 341.407 2.43113 -1.82015 0
M  V30 3664 H 338.992 1.15541 -0.947132 0
M  V30 3665 H 340.874 4.21189 -0.133392 0
M  V30 3666 H 339.549 3.19802 0.500817 0
M  V30 3667 H 338.456 3.27102 -1.81535 0
M  V30 3668 H 339.789 4.31317 -2.37121 0
M  V30 3669 N 341.441 0.965919 1.2453 0
M  V30 3670 C 342.373 0.452465 2.2469 0
M  V30 3671 C 343.386 -0.437821 1.56802 0
M  V30 3672 O 344.575 -0.244283 1.76821 0
M  V30 3673 C 341.675 -0.366258 3.36915 0
M  V30 3674 C 340.848 0.513701 4.34373 0
M  V30 3675 C 339.907 -0.248716 5.25612 0
M  V30 3676 O 338.933 0.356745 5.68081 0
M  V30 3677 N 340.135 -1.53877 5.59734 0
M  V30 3678 H 342.9 1.31361 2.69378 0
M  V30 3679 H 340.461 0.837541 1.38553 0
M  V30 3680 H 342.453 -0.884297 3.94921 0
M  V30 3681 H 341.023 -1.12832 2.91526 0
M  V30 3682 H 340.243 1.21273 3.75082 0
M  V30 3683 H 341.531 1.11391 4.96457 0
M  V30 3684 H 340.929 -2.05243 5.27154 0
M  V30 3685 H 339.486 -2.00254 6.20275 0
M  V30 3686 N 342.919 -1.39368 0.735821 0
M  V30 3687 C 343.829 -2.34395 0.0979693 0
M  V30 3688 C 344.845 -1.58361 -0.720968 0
M  V30 3689 O 346.021 -1.90648 -0.649245 0
M  V30 3690 C 343.086 -3.37393 -0.797916 0
M  V30 3691 C 342.147 -4.29287 0.0333662 0
M  V30 3692 C 341.38 -5.27365 -0.819854 0
M  V30 3693 O 341.603 -5.31959 -2.05855 0
M  V30 3694 O 340.537 -6.01389 -0.248079 0
M  V30 3695 H 344.363 -2.90601 0.882315 0
M  V30 3696 H 341.948 -1.40909 0.4965 0
M  V30 3697 H 343.83 -4.00505 -1.31048 0
M  V30 3698 H 342.505 -2.83571 -1.56106 0
M  V30 3699 H 341.412 -3.69395 0.591475 0
M  V30 3700 H 342.745 -4.86317 0.758752 0
M  V30 3701 N 344.397 -0.483516 -1.5 0
M  V30 3702 C 345.36 0.292965 -2.2732 0
M  V30 3703 C 346.36 0.909499 -1.32608 0
M  V30 3704 O 347.55 0.776745 -1.55924 0
M  V30 3705 C 344.682 1.41854 -3.09984 0
M  V30 3706 H 345.875 -0.385289 -2.97415 0
M  V30 3707 H 343.428 -0.237942 -1.54478 0
M  V30 3708 H 344.163 2.13148 -2.44414 0
M  V30 3709 H 343.948 0.982114 -3.79601 0
M  V30 3710 H 345.438 1.96597 -3.68429 0
M  V30 3711 N 345.875 1.56104 -0.216619 0
M  V30 3712 C 347.105 2.02269 0.420802 0
M  V30 3713 C 347.513 1.09575 1.5424 0
M  V30 3714 O 346.856 0.0967308 1.83445 0
M  V30 3715 C 346.918 3.44784 1.01806 0
M  V30 3716 C 346.582 4.56988 0.0325154 0
M  V30 3717 C 347.579 5.14225 -0.766055 0
M  V30 3718 C 345.264 5.02228 -0.0848092 0
M  V30 3719 C 347.258 6.15169 -1.6687 0
M  V30 3720 C 344.945 6.03011 -0.990994 0
M  V30 3721 C 345.943 6.59357 -1.78149 0
M  V30 3722 O 345.631 7.58179 -2.67245 0
M  V30 3723 H 345.363 0.667353 0.107776 0
M  V30 3724 H 347.917 2.02747 -0.329034 0
M  V30 3725 H 346.147 3.41359 1.81689 0
M  V30 3726 H 347.836 3.74626 1.56237 0
M  V30 3727 H 348.602 4.80126 -0.685836 0
M  V30 3728 H 344.481 4.58054 0.520349 0
M  V30 3729 H 348.025 6.59076 -2.28615 0
M  V30 3730 H 343.922 6.36532 -1.07225 0
M  V30 3731 H 344.69 7.75682 -2.61265 0
M  V30 3732 N 347.353 -0.0568162 1.57498 0
M  V30 3733 C 348.283 -1.06593 2.0775 0
M  V30 3734 C 349.264 -1.39448 0.974082 0
M  V30 3735 O 350.449 -1.48815 1.24771 0
M  V30 3736 C 347.579 -2.37509 2.5339 0
M  V30 3737 C 346.533 -2.1897 3.67745 0
M  V30 3738 C 345.859 -3.55402 3.99492 0
M  V30 3739 C 347.159 -1.59859 4.97235 0
M  V30 3740 H 348.853 -0.647706 2.9231 0
M  V30 3741 H 346.399 -0.310116 1.40621 0
M  V30 3742 H 348.352 -3.08409 2.87162 0
M  V30 3743 H 347.076 -2.8134 1.65878 0
M  V30 3744 H 345.735 -1.50508 3.3428 0
M  V30 3745 H 345.383 -3.9683 3.09088 0
M  V30 3746 H 345.083 -3.43831 4.76502 0
M  V30 3747 H 346.607 -4.27708 4.35773 0
M  V30 3748 H 348.021 -2.20642 5.29141 0
M  V30 3749 H 346.418 -1.58942 5.78669 0
M  V30 3750 H 347.488 -0.561506 4.81638 0
M  V30 3751 N 348.832 -1.54138 -0.328536 0
M  V30 3752 C 350.248 -1.44736 -0.672574 0
M  V30 3753 C 350.448 -0.616217 -1.91846 0
M  V30 3754 O 349.504 -0.113067 -2.52247 0
M  V30 3755 C 350.817 -2.884 -0.851217 0
M  V30 3756 C 352.365 -2.98271 -0.948877 0
M  V30 3757 C 352.84 -4.43074 -1.15973 0
M  V30 3758 N 354.331 -4.46665 -1.22658 0
M  V30 3759 C 355.066 -5.55857 -1.40751 0
M  V30 3760 N 354.562 -6.75026 -1.5592 0
M  V30 3761 N 356.355 -5.43495 -1.4342 0
M  V30 3762 H 348.506 -2.06661 0.490421 0
M  V30 3763 H 350.769 -0.934812 0.157579 0
M  V30 3764 H 350.475 -3.51699 -0.00704236 0
M  V30 3765 H 350.349 -3.34225 -1.74853 0
M  V30 3766 H 352.736 -2.35102 -1.78356 0
M  V30 3767 H 352.817 -2.55785 -0.0281435 0
M  V30 3768 H 352.461 -5.06827 -0.329915 0
M  V30 3769 H 352.391 -4.83165 -2.09426 0
M  V30 3770 H 354.882 -3.60797 -1.124 0
M  V30 3771 H 355.195 -7.54004 -1.69404 0
M  V30 3772 H 353.54 -6.77944 -1.53027 0
M  V30 3773 H 356.731 -4.49349 -1.31162 0
M  V30 3774 H 356.904 -6.28649 -1.57178 0
M  V30 3775 N 350.31 0.590341 -1.46126 0
M  V30 3776 C 351.22 1.72793 -1.58681 0
M  V30 3777 C 352.236 1.67516 -0.470566 0
M  V30 3778 O 353.412 1.87562 -0.733642 0
M  V30 3779 C 350.477 3.09287 -1.5666 0
M  V30 3780 C 349.538 3.25886 -2.79458 0
M  V30 3781 C 348.771 4.55869 -2.77524 0
M  V30 3782 O 348.994 5.3928 -1.85832 0
M  V30 3783 O 347.928 4.75552 -3.68964 0
M  V30 3784 H 351.754 1.65149 -2.54872 0
M  V30 3785 H 349.339 0.756486 -1.28832 0
M  V30 3786 H 351.221 3.90577 -1.58202 0
M  V30 3787 H 349.896 3.17385 -0.636271 0
M  V30 3788 H 348.803 2.44119 -2.83472 0
M  V30 3789 H 350.136 3.22675 -3.71674 0
M  V30 3790 N 351.788 1.33704 0.83433 0
M  V30 3791 C 353.065 1.16011 1.57483 0
M  V30 3792 C 353.445 -0.27176 2.09343 0
M  V30 3793 O 352.793 -1.27146 1.89858 0
M  V30 3794 C 353.003 2.20507 2.70514 0
M  V30 3795 C 354.351 2.54898 3.39577 0
M  V30 3796 O 355.375 2.19209 2.80759 0
M  V30 3797 O 354.234 3.16158 4.45765 0
M  V30 3798 H 351.328 0.448992 0.694503 0
M  V30 3799 H 353.874 1.453 0.876691 0
M  V30 3800 H 352.646 3.16667 2.29865 0
M  V30 3801 H 352.269 1.92329 3.47987 0
M  V30 3802 O 353.305 -0.972346 1.28948 0
M  V30 3803 H 353.996 -1.59791 1.09484 0
M  V30 END ATOM
M  V30 BEGIN BOND
M  V30 END BOND
M  V30 END CTAB
M  END
$$$$
