drugbank_target|Q96L21 60S ribosomal protein L10-like (DB02494; DB07374; DB08437)
 OpenBabel12092120423D

  0  0  0     0  0            999 V3000
M  V30 BEGIN CTAB
M  V30 COUNTS 3480 3520 0 0 0
M  V30 BEGIN ATOM
M  V30 1 H -0.908 1.98254 -0.117106 0
M  V30 2 N 0 1.576 0 0
M  V30 3 C 0.933 2.03868 1.02534 0
M  V30 4 C 1.911 0.928543 1.3348 0
M  V30 5 O 3.095 1.19667 1.45644 0
M  V30 6 C 0.222 2.43627 2.35294 0
M  V30 7 C -0.732 3.65373 2.2001 0
M  V30 8 S 0.101 5.13292 1.52614 0
M  V30 9 C 1.257 5.56322 2.86805 0
M  V30 10 H 1.49 2.90518 0.631377 0
M  V30 11 H -0.977 1.52953 0.210867 0
M  V30 12 H 0.981 2.67203 3.11629 0
M  V30 13 H -0.358 1.57376 2.7183 0
M  V30 14 H -1.165 3.90944 3.18086 0
M  V30 15 H -1.563 3.418 1.51819 0
M  V30 16 H 0.729 5.58782 3.83104 0
M  V30 17 H 1.672 6.56266 2.65933 0
M  V30 18 H 2.08 4.83886 2.90714 0
M  V30 19 N 1.4781 -0.272755 1.55222 0
M  V30 20 C 2.7261 -1.00234 1.75492 0
M  V30 21 C 3.0471 -1.8681 0.5592 0
M  V30 22 O 2.3171 -1.91215 -0.425882 0
M  V30 23 H 0.8971 -0.373076 0.647166 0
M  V30 24 H 3.5591 -0.296926 1.92625 0
M  V30 25 H 2.6551 -1.63913 2.65592 0
M  V30 26 N 2.9562 -1.48159 -0.537278 0
M  V30 27 C 4.3722 -1.34118 -0.865129 0
M  V30 28 C 4.5722 -0.346678 -1.98495 0
M  V30 29 O 3.6282 0.234715 -2.51407 0
M  V30 30 C 4.9412 -2.73963 -1.23954 0
M  V30 31 C 6.4892 -2.82397 -1.34984 0
M  V30 32 C 6.9642 -4.22928 -1.75772 0
M  V30 33 N 8.4552 -4.25566 -1.82887 0
M  V30 34 C 9.1902 -5.31235 -2.15817 0
M  V30 35 N 8.6862 -6.47189 -2.47222 0
M  V30 36 N 10.4792 -5.18624 -2.16761 0
M  V30 37 H 2.6302 -2.1144 0.201715 0
M  V30 38 H 4.8932 -0.947598 0.0275949 0
M  V30 39 H 4.5992 -3.48264 -0.490381 0
M  V30 40 H 4.4732 -3.0702 -2.19132 0
M  V30 41 H 6.8602 -2.08356 -2.08978 0
M  V30 42 H 6.9412 -2.5297 -0.379448 0
M  V30 43 H 6.5852 -4.97482 -1.02341 0
M  V30 44 H 6.5152 -4.49794 -2.73848 0
M  V30 45 H 9.0062 -3.41924 -1.60924 0
M  V30 46 H 9.3192 -7.23564 -2.71433 0
M  V30 47 H 7.6642 -6.50476 -2.44757 0
M  V30 48 H 10.8552 -4.27056 -1.91679 0
M  V30 49 H 11.0282 -6.01078 -2.42093 0
M  V30 50 N 4.4343 0.785586 -1.36625 0
M  V30 51 C 5.8503 1.08419 -1.17122 0
M  V30 52 C 6.0503 2.015 0.00208491 0
M  V30 53 O 5.1063 2.43551 0.666278 0
M  V30 54 C 6.4193 1.69498 -2.48377 0
M  V30 55 C 7.9673 1.81821 -2.54775 0
M  V30 56 C 8.4423 2.46315 -3.86126 0
M  V30 57 N 9.9333 2.53779 -3.87492 0
M  V30 58 C 10.6683 3.045 -4.85868 0
M  V30 59 N 10.1643 3.55499 -5.94637 0
M  V30 60 N 11.9573 3.03247 -4.73284 0
M  V30 61 H 4.1083 0.167264 -2.1174 0
M  V30 62 H 6.3713 0.13682 -0.938075 0
M  V30 63 H 6.0773 1.08571 -3.34522 0
M  V30 64 H 5.9513 2.6896 -2.64462 0
M  V30 65 H 8.3383 2.41884 -1.69045 0
M  V30 66 H 8.4193 0.811532 -2.42586 0
M  V30 67 H 8.0633 1.86895 -4.72263 0
M  V30 68 H 7.9933 3.47561 -3.95612 0
M  V30 69 H 10.4843 2.17672 -3.08913 0
M  V30 70 H 10.7973 3.92562 -6.65669 0
M  V30 71 H 9.1423 3.5364 -5.98301 0
M  V30 72 H 12.3333 2.62696 -3.87438 0
M  V30 73 H 12.5063 3.42467 -5.50109 0
M  V30 74 N 5.9124 1.20967 1.01018 0
M  V30 75 C 7.3234 1.02319 1.56165 0
M  V30 76 C 7.6744 -0.418546 1.91684 0
M  V30 77 O 6.7994 -1.30096 1.72928 0
M  V30 78 C 7.3944 1.85109 2.8376 0
M  V30 79 C 5.9534 1.70809 3.35412 0
M  V30 80 C 5.1004 1.82643 2.08655 0
M  V30 81 H 8.0514 1.35065 0.833255 0
M  V30 82 H 8.0724 1.35827 3.55431 0
M  V30 83 H 7.5844 2.90035 2.57878 0
M  V30 84 H 5.6854 0.685464 3.66241 0
M  V30 85 H 5.7984 2.52467 4.07182 0
M  V30 86 H 4.1624 1.25896 2.21409 0
M  V30 87 H 4.9454 2.89066 1.85191 0
M  V30 88 N 7.3905 -1.2043 1.01659 0
M  V30 89 C 8.3535 -2.21433 0.591616 0
M  V30 90 C 9.3535 -1.57203 -0.338226 0
M  V30 91 O 10.5435 -1.73737 -0.126918 0
M  V30 92 C 7.6755 -3.40628 -0.136058 0
M  V30 93 H 8.8685 -2.60545 1.48514 0
M  V30 94 H 6.4215 -1.33893 0.806379 0
M  V30 95 H 7.1565 -3.07019 -1.04449 0
M  V30 96 H 6.9415 -3.88475 0.531917 0
M  V30 97 H 8.4315 -4.15475 -0.420735 0
M  V30 98 N 8.8686 -0.792821 -1.36206 0
M  V30 99 C 10.2846 -0.474903 -1.52371 0
M  V30 100 C 10.4846 1.00622 -1.74578 0
M  V30 101 O 9.5406 1.79162 -1.77924 0
M  V30 102 C 10.8536 -1.3083 -2.70747 0
M  V30 103 C 12.4016 -1.30234 -2.84619 0
M  V30 104 C 12.8766 -2.11956 -4.06004 0
M  V30 105 N 14.3676 -2.09419 -4.13156 0
M  V30 106 C 15.1026 -2.69419 -5.06163 0
M  V30 107 N 14.5986 -3.3829 -6.04592 0
M  V30 108 N 16.3916 -2.59134 -4.98804 0
M  V30 109 H 8.5426 -1.75222 -1.20046 0
M  V30 110 H 10.8056 -0.745024 -0.586211 0
M  V30 111 H 10.5116 -2.35881 -2.6087 0
M  V30 112 H 10.3856 -0.95196 -3.6499 0
M  V30 113 H 12.7726 -0.259748 -2.93955 0
M  V30 114 H 12.8536 -1.69847 -1.91274 0
M  V30 115 H 12.4976 -3.16248 -3.97429 0
M  V30 116 H 12.4276 -1.69711 -4.98503 0
M  V30 117 H 14.9186 -1.59297 -3.42685 0
M  V30 118 H 15.2316 -3.81394 -6.7213 0
M  V30 119 H 13.5766 -3.42393 -6.04807 0
M  V30 120 H 16.7676 -2.04927 -4.20859 0
M  V30 121 H 16.9406 -3.06185 -5.711 0
M  V30 122 N 10.3467 1.47872 -0.545128 0
M  V30 123 C 11.5867 2.04391 -0.0187854 0
M  V30 124 C 11.9507 1.41162 1.30144 0
M  V30 125 O 13.1517 1.88656 1.91474 0
M  V30 126 C 11.4227 3.57299 0.0850867 0
M  V30 127 S 12.9817 4.35221 0.559302 0
M  V30 128 H 9.7997 0.710737 -0.0193301 0
M  V30 129 H 12.4017 1.81395 -0.729125 0
M  V30 130 H 11.1057 4.00847 -0.880351 0
M  V30 131 H 10.6367 3.84773 0.819348 0
M  V30 132 H 12.6517 4.61571 1.82118 0
M  V30 133 N 11.8248 0.280983 1.55075 0
M  V30 134 C 13.0548 -0.336804 2.03836 0
M  V30 135 C 13.4628 -1.49577 1.15859 0
M  V30 136 O 12.8058 -1.82888 0.172503 0
M  V30 137 C 12.8678 -0.874616 3.48699 0
M  V30 138 C 12.5318 0.156478 4.56732 0
M  V30 139 C 13.5288 0.978032 5.10618 0
M  V30 140 C 11.2138 0.292409 5.01448 0
M  V30 141 C 13.2078 1.92165 6.07743 0
M  V30 142 C 10.8948 1.23949 5.98398 0
M  V30 143 C 11.8928 2.05261 6.51427 0
M  V30 144 O 11.5808 2.98367 7.4648 0
M  V30 145 H 11.3128 -0.0800885 0.671239 0
M  V30 146 H 13.8668 0.412589 2.01213 0
M  V30 147 H 12.0968 -1.67418 3.4858 0
M  V30 148 H 13.7858 -1.40612 3.80766 0
M  V30 149 H 14.5518 0.883782 4.7688 0
M  V30 150 H 10.4308 -0.330498 4.59814 0
M  V30 151 H 13.9748 2.55672 6.49059 0
M  V30 152 H 9.8718 1.33454 6.31554 0
M  V30 153 H 10.6398 2.93116 7.64215 0
M  V30 154 N 13.3029 -1.57598 0.00835791 0
M  V30 155 C 14.7189 -1.55764 -0.347822 0
M  V30 156 C 14.9189 -1.01186 -1.74252 0
M  V30 157 O 13.9749 -0.649371 -2.44007 0
M  V30 158 C 15.2879 -2.99927 -0.215407 0
M  V30 159 C 16.8359 -3.11656 -0.289725 0
M  V30 160 C 17.3109 -4.57621 -0.18634 0
M  V30 161 N 18.8019 -4.62557 -0.243978 0
M  V30 162 C 19.5369 -5.73094 -0.18745 0
M  V30 163 N 19.0329 -6.92753 -0.0810331 0
M  V30 164 N 20.8259 -5.61588 -0.239925 0
M  V30 165 H 12.9769 -1.91411 0.92062 0
M  V30 166 H 15.2399 -0.879562 0.353659 0
M  V30 167 H 14.9459 -3.43729 0.744512 0
M  V30 168 H 14.8199 -3.63865 -0.994097 0
M  V30 169 H 17.2069 -2.67779 -1.24009 0
M  V30 170 H 17.2879 -2.5048 0.51898 0
M  V30 171 H 16.9319 -5.02174 0.760519 0
M  V30 172 H 16.8619 -5.16752 -1.01364 0
M  V30 173 H 19.3529 -3.76481 -0.327217 0
M  V30 174 H 19.6659 -7.72787 -0.0440241 0
M  V30 175 H 18.0109 -6.94984 -0.0465419 0
M  V30 176 H 21.2019 -4.66996 -0.321317 0
M  V30 177 H 21.3749 -6.47714 -0.192407 0
M  V30 178 N 14.781 0.264519 -1.55364 0
M  V30 179 C 16.011 1.01153 -1.80143 0
M  V30 180 C 16.419 1.80115 -0.579253 0
M  V30 181 O 15.762 1.77813 0.46132 0
M  V30 182 C 15.824 2.01098 -2.97993 0
M  V30 183 C 15.488 1.40995 -4.34706 0
M  V30 184 C 16.485 0.821316 -5.13372 0
M  V30 185 C 14.17 1.43461 -4.81378 0
M  V30 186 C 16.164 0.265339 -6.36847 0
M  V30 187 C 13.851 0.874771 -6.04807 0
M  V30 188 C 14.849 0.291146 -6.82379 0
M  V30 189 O 14.537 -0.260093 -8.03479 0
M  V30 190 H 14.269 0.304125 -0.603725 0
M  V30 191 H 16.823 0.298089 -2.03225 0
M  V30 192 H 15.053 2.76224 -2.70623 0
M  V30 193 H 16.742 2.61997 -3.1002 0
M  V30 194 H 17.508 0.794903 -4.78442 0
M  V30 195 H 13.387 1.87826 -4.21002 0
M  V30 196 H 16.931 -0.190837 -6.97339 0
M  V30 197 H 12.828 0.898452 -6.39217 0
M  V30 198 H 13.596 -0.150265 -8.18362 0
M  V30 199 N 16.2591 1.48442 0.529413 0
M  V30 200 C 17.4991 1.58086 1.29569 0
M  V30 201 C 17.8631 0.249302 1.90375 0
M  V30 202 O 19.0641 0.220738 2.67892 0
M  V30 203 C 17.3351 2.68793 2.35552 0
M  V30 204 S 18.8941 2.98207 3.21898 0
M  V30 205 H 15.7121 0.557922 0.440732 0
M  V30 206 H 18.3141 1.85966 0.603059 0
M  V30 207 H 17.0181 3.64102 1.89363 0
M  V30 208 H 16.5491 2.42817 3.09522 0
M  V30 209 H 18.5641 2.37548 4.35644 0
M  V30 210 N 17.7372 -0.778329 1.37039 0
M  V30 211 C 18.6842 -1.89139 1.32269 0
M  V30 212 C 19.6542 -1.65017 0.189387 0
M  V30 213 O 20.8392 -1.87024 0.377693 0
M  V30 214 C 17.9792 -3.26112 1.12894 0
M  V30 215 C 17.0922 -3.62233 2.35396 0
M  V30 216 C 16.2272 -4.8838 2.08946 0
M  V30 217 C 15.2662 -5.17212 3.2735 0
M  V30 218 N 14.4032 -6.34546 3.00492 0
M  V30 219 H 19.2432 -1.92552 2.27437 0
M  V30 220 H 16.7802 -0.941473 1.13025 0
M  V30 221 H 18.7382 -4.05116 0.996835 0
M  V30 222 H 17.3682 -3.22091 0.213758 0
M  V30 223 H 16.4202 -2.78265 2.5937 0
M  V30 224 H 17.7322 -3.79481 3.23721 0
M  V30 225 H 16.8862 -5.75274 1.92729 0
M  V30 226 H 15.6252 -4.73222 1.17949 0
M  V30 227 H 14.6302 -4.28796 3.44113 0
M  V30 228 H 15.8552 -5.34283 4.19188 0
M  V30 229 H 13.8012 -6.20759 2.12118 0
M  V30 230 H 13.7182 -6.52179 3.82358 0
M  V30 231 H 14.9862 -7.24394 2.87879 0
M  V30 232 N 19.2153 -1.21501 -1.00376 0
M  V30 233 C 20.1633 -0.972442 -2.11297 0
M  V30 234 C 21.1573 0.080731 -1.69208 0
M  V30 235 O 22.3633 -0.0707666 -1.79861 0
M  V30 236 H 18.7383 -0.297218 -0.690772 0
M  V30 237 H 20.7093 -1.91394 -2.28934 0
M  V30 238 C 19.4583 -0.555065 -3.43241 0
M  V30 239 H 18.7813 -1.35709 -3.76062 0
M  V30 240 H 20.2213 -0.424664 -4.21868 0
M  V30 241 C 18.6803 0.734147 -3.28804 0
M  V30 242 O 19.2103 1.78937 -3.59645 0
M  V30 243 N 17.4163 0.701133 -2.82015 0
M  V30 244 H 16.9633 -0.157874 -2.57116 0
M  V30 245 H 16.9213 1.56403 -2.72737 0
M  V30 246 N 20.6934 1.19889 -1.02296 0
M  V30 247 C 21.6404 2.22901 -0.598651 0
M  V30 248 C 22.6104 1.61588 0.384521 0
M  V30 249 O 23.7954 1.88697 0.282522 0
M  V30 250 C 20.9354 3.45063 0.0504476 0
M  V30 251 C 20.0484 4.20783 -0.978053 0
M  V30 252 C 19.1834 5.30356 -0.299338 0
M  V30 253 C 18.2224 5.97826 -1.31416 0
M  V30 254 N 17.3594 6.98975 -0.661667 0
M  V30 255 H 22.1994 2.58554 -1.48169 0
M  V30 256 H 19.7364 1.27039 -0.741584 0
M  V30 257 H 21.6944 4.14831 0.443971 0
M  V30 258 H 20.3244 3.10084 0.897097 0
M  V30 259 H 19.3764 3.50018 -1.48969 0
M  V30 260 H 20.6884 4.67109 -1.74958 0
M  V30 261 H 19.8424 6.06516 0.149347 0
M  V30 262 H 18.5814 4.85084 0.504445 0
M  V30 263 H 17.5864 5.20422 -1.77317 0
M  V30 264 H 18.8114 6.45183 -2.11933 0
M  V30 265 H 16.7574 6.55886 0.122132 0
M  V30 266 H 16.6744 7.43461 -1.37117 0
M  V30 267 H 17.9424 7.7914 -0.236785 0
M  V30 268 N 22.1715 0.800033 1.35784 0
M  V30 269 C 23.5825 0.439142 1.81462 0
M  V30 270 C 23.9335 -1.03813 1.66485 0
M  V30 271 O 23.0585 -1.80626 1.19177 0
M  V30 272 C 23.6535 0.790314 3.29453 0
M  V30 273 C 22.2125 0.482111 3.733 0
M  V30 274 C 21.3595 1.01938 2.57883 0
M  V30 275 H 24.3105 0.992254 1.23855 0
M  V30 276 H 24.3315 0.0853677 3.80404 0
M  V30 277 H 23.8435 1.86554 3.40322 0
M  V30 278 H 21.9445 -0.584652 3.67984 0
M  V30 279 H 22.0575 1.01015 4.6833 0
M  V30 280 H 20.4215 0.442043 2.50835 0
M  V30 281 H 21.2045 2.10059 2.71533 0
M  V30 282 N 23.6496 -1.47581 0.552962 0
M  V30 283 C 24.8796 -2.06575 0.0320091 0
M  V30 284 C 25.2876 -1.4067 -1.26525 0
M  V30 285 O 24.6306 -0.495808 -1.76883 0
M  V30 286 C 24.6926 -3.58705 -0.238913 0
M  V30 287 C 24.3566 -4.46625 0.968272 0
M  V30 288 C 25.3536 -4.85 1.87274 0
M  V30 289 C 23.0386 -4.88201 1.18175 0
M  V30 290 C 25.0326 -5.63745 2.9744 0
M  V30 291 C 22.7196 -5.66712 2.28651 0
M  V30 292 C 23.7176 -6.04394 3.18114 0
M  V30 293 O 23.4056 -6.81324 4.26676 0
M  V30 294 H 23.1376 -0.674763 0.0408689 0
M  V30 295 H 25.6916 -1.90634 0.764719 0
M  V30 296 H 23.9216 -3.72844 -1.02588 0
M  V30 297 H 25.6106 -3.99735 -0.704731 0
M  V30 298 H 26.3766 -4.53482 1.71984 0
M  V30 299 H 22.2556 -4.58339 0.494593 0
M  V30 300 H 25.7996 -5.93077 3.67296 0
M  V30 301 H 21.6966 -5.97642 2.43915 0
M  V30 302 H 22.4646 -6.99712 4.24671 0
M  V30 303 N 25.1277 -0.289203 -1.54924 0
M  V30 304 C 26.5387 0.205791 -1.85562 0
M  V30 305 C 26.8897 1.54351 -1.2112 0
M  V30 306 O 26.0147 2.10435 -0.504601 0
M  V30 307 C 26.6097 0.380177 -3.3666 0
M  V30 308 C 25.1687 0.819395 -3.67373 0
M  V30 309 C 24.3157 -0.079159 -2.77187 0
M  V30 310 H 27.2667 -0.510577 -1.50262 0
M  V30 311 H 27.2877 1.21659 -3.60526 0
M  V30 312 H 26.7997 -0.593589 -3.83534 0
M  V30 313 H 24.9007 1.80413 -3.26009 0
M  V30 314 H 25.0137 0.646957 -4.74712 0
M  V30 315 H 23.3777 0.439565 -2.50878 0
M  V30 316 H 24.1607 -1.04906 -3.26878 0
M  V30 317 N 26.6058 1.57591 -0.0167156 0
M  V30 318 C 27.5528 2.09462 0.969251 0
M  V30 319 C 28.5228 0.99381 1.33089 0
M  V30 320 O 29.7078 1.26726 1.42636 0
M  V30 321 C 26.8478 2.61622 2.25051 0
M  V30 322 C 25.9608 3.85666 1.94642 0
M  V30 323 C 25.0958 4.26266 3.16972 0
M  V30 324 C 24.1348 5.43101 2.82326 0
M  V30 325 N 23.2718 5.78915 3.97243 0
M  V30 326 H 28.1118 2.93428 0.519997 0
M  V30 327 H 25.6488 1.45044 0.245087 0
M  V30 328 H 27.6068 2.89949 2.99976 0
M  V30 329 H 26.2368 1.80505 2.67615 0
M  V30 330 H 25.2888 3.64145 1.10013 0
M  V30 331 H 26.6008 4.70678 1.65117 0
M  V30 332 H 25.7548 4.55963 4.00228 0
M  V30 333 H 24.4938 3.39996 3.49648 0
M  V30 334 H 23.4988 5.1311 1.97479 0
M  V30 335 H 24.7238 6.3106 2.50879 0
M  V30 336 H 22.6698 4.95602 4.29785 0
M  V30 337 H 22.5868 6.58539 3.71299 0
M  V30 338 H 23.8548 6.13212 4.81239 0
M  V30 339 N 28.0839 -0.256276 1.55502 0
M  V30 340 C 29.3089 -1.00766 1.81276 0
M  V30 341 C 29.7339 -1.78524 0.59252 0
M  V30 342 O 29.0919 -1.75413 -0.45827 0
M  V30 343 C 29.1399 -1.92869 3.04687 0
M  V30 344 O 28.2439 -3.019 2.80945 0
M  V30 345 H 27.5849 -0.287224 0.598664 0
M  V30 346 H 30.1149 -0.280109 2.02674 0
M  V30 347 H 30.1249 -2.34511 3.33869 0
M  V30 348 H 28.7999 -1.35689 3.93143 0
M  V30 349 H 27.3769 -2.64454 2.62904 0
M  V30 350 N 29.562 -1.4872 -0.521534 0
M  V30 351 C 30.978 -1.35028 -0.850855 0
M  V30 352 C 31.178 -0.367712 -1.98116 0
M  V30 353 O 30.234 0.208037 -2.51642 0
M  V30 354 C 31.547 -2.75263 -1.21041 0
M  V30 355 C 33.095 -2.83813 -1.31981 0
M  V30 356 C 33.57 -4.24769 -1.71276 0
M  V30 357 N 35.061 -4.27482 -1.78363 0
M  V30 358 C 35.796 -5.33494 -2.1017 0
M  V30 359 N 35.292 -6.49775 -2.40343 0
M  V30 360 N 37.085 -5.20894 -2.11248 0
M  V30 361 H 29.236 -2.11214 0.22413 0
M  V30 362 H 31.499 -0.947252 0.0376439 0
M  V30 363 H 31.205 -3.48765 -0.453415 0
M  V30 364 H 31.079 -3.09327 -2.15863 0
M  V30 365 H 33.466 -2.10561 -2.06756 0
M  V30 366 H 33.547 -2.53358 -0.352596 0
M  V30 367 H 33.191 -4.9854 -0.970588 0
M  V30 368 H 33.121 -4.52673 -2.69062 0
M  V30 369 H 35.612 -3.43611 -1.57288 0
M  V30 370 H 35.925 -7.26402 -2.63743 0
M  V30 371 H 34.27 -6.53035 -2.37844 0
M  V30 372 H 37.461 -4.29065 -1.87139 0
M  V30 373 H 37.634 -6.03612 -2.35704 0
M  V30 374 N 31.0401 0.771051 -1.3745 0
M  V30 375 C 32.2871 1.52963 -1.32697 0
M  V30 376 C 32.6151 1.94299 0.0883274 0
M  V30 377 O 31.8701 1.64397 1.0617 0
M  V30 378 C 32.1691 2.80676 -2.2126 0
M  V30 379 C 31.8351 2.58389 -3.69521 0
M  V30 380 C 30.4971 2.52019 -4.09927 0
M  V30 381 C 32.8491 2.38469 -4.63446 0
M  V30 382 C 30.1771 2.23721 -5.42371 0
M  V30 383 C 32.5291 2.11694 -5.96128 0
M  V30 384 C 31.1931 2.03769 -6.35637 0
M  V30 385 H 30.4631 0.559732 -0.485573 0
M  V30 386 H 33.1101 0.888083 -1.69662 0
M  V30 387 H 31.4151 3.49392 -1.77291 0
M  V30 388 H 33.1121 3.38557 -2.14895 0
M  V30 389 H 29.7021 2.6421 -3.37478 0
M  V30 390 H 33.8861 2.4238 -4.33089 0
M  V30 391 H 29.1421 2.16081 -5.71943 0
M  V30 392 H 33.3161 1.9528 -6.6846 0
M  V30 393 H 30.9431 1.81606 -7.38189 0
M  V30 394 N 32.5182 1.22032 0.997298 0
M  V30 395 C 33.7582 1.05375 1.75144 0
M  V30 396 C 34.1222 -0.404696 1.87686 0
M  V30 397 O 35.3232 -0.691998 2.5974 0
M  V30 398 C 33.5942 1.74046 3.12158 0
M  V30 399 S 35.1532 1.72745 4.03366 0
M  V30 400 H 31.9712 0.377449 0.602539 0
M  V30 401 H 34.5732 1.54902 1.19272 0
M  V30 402 H 33.2772 2.79332 3.00669 0
M  V30 403 H 32.8082 1.24731 3.73103 0
M  V30 404 H 34.8232 0.774015 4.90126 0
M  V30 405 N 33.9963 -1.19345 1.0293 0
M  V30 406 C 35.4123 -1.41069 0.746446 0
M  V30 407 C 35.6123 -1.90078 -0.668776 0
M  V30 408 O 34.6683 -2.0778 -1.4347 0
M  V30 409 C 35.9813 -2.42141 1.78292 0
M  V30 410 C 37.5293 -2.55887 1.80252 0
M  V30 411 C 38.0043 -3.60214 2.8286 0
M  V30 412 N 39.4953 -3.67711 2.81679 0
M  V30 413 C 40.2303 -4.48128 3.57727 0
M  V30 414 N 39.7263 -5.32248 4.43491 0
M  V30 415 N 41.5193 -4.42782 3.46267 0
M  V30 416 H 33.6703 -0.858536 1.94275 0
M  V30 417 H 35.9333 -0.439541 0.839945 0
M  V30 418 H 35.6393 -2.13155 2.79746 0
M  V30 419 H 35.5133 -3.41323 1.60557 0
M  V30 420 H 37.9003 -2.84196 0.794757 0
M  V30 421 H 37.9813 -1.56858 2.02062 0
M  V30 422 H 37.6253 -3.32647 3.83807 0
M  V30 423 H 37.5553 -4.58895 2.58307 0
M  V30 424 H 40.0463 -3.07634 2.19476 0
M  V30 425 H 40.3593 -5.90729 4.98256 0
M  V30 426 H 38.7043 -5.31707 4.47564 0
M  V30 427 H 41.8953 -3.76107 2.78677 0
M  V30 428 H 42.0683 -5.05215 4.05785 0
M  V30 429 N 35.4744 -0.807222 -1.35358 0
M  V30 430 C 36.7224 -0.387122 -1.98358 0
M  V30 431 C 37.0434 1.04942 -1.64354 0
M  V30 432 O 36.3134 1.72615 -0.926339 0
M  V30 433 H 34.8934 -0.140154 -0.733734 0
M  V30 434 H 37.5554 -1.0332 -1.6526 0
M  V30 435 H 36.6514 -0.493352 -3.08176 0
M  V30 436 N 36.9525 1.47285 -0.560781 0
M  V30 437 C 38.1985 2.02764 -0.0381184 0
M  V30 438 C 38.5315 1.43384 1.30976 0
M  V30 439 O 37.8065 0.590733 1.85312 0
M  V30 440 C 38.0895 3.60064 0.0511427 0
M  V30 441 C 37.9425 4.2987 -1.32408 0
M  V30 442 C 39.2615 4.33439 0.762795 0
M  V30 443 H 36.3805 0.736841 -0.0153264 0
M  V30 444 H 39.0225 1.75675 -0.723759 0
M  V30 445 H 37.1725 3.83274 0.635065 0
M  V30 446 H 38.8445 4.17989 -1.95148 0
M  V30 447 H 37.0875 3.90085 -1.8978 0
M  V30 448 H 37.7585 5.38478 -1.21431 0
M  V30 449 H 40.2345 4.15243 0.266965 0
M  V30 450 H 39.1105 5.43124 0.794221 0
M  V30 451 H 39.3715 4.02915 1.81966 0
M  V30 452 N 38.4306 0.297415 1.54768 0
M  V30 453 C 39.8416 -0.195947 1.85669 0
M  V30 454 C 40.1926 -1.53707 1.21937 0
M  V30 455 O 39.3176 -2.10164 0.515754 0
M  V30 456 C 39.9126 -0.362318 3.36857 0
M  V30 457 C 38.4716 -0.799901 3.67802 0
M  V30 458 C 37.6186 0.0938578 2.77141 0
M  V30 459 H 40.5696 0.518538 1.4999 0
M  V30 460 H 40.5906 -1.19745 3.61167 0
M  V30 461 H 40.1026 0.613921 3.83214 0
M  V30 462 H 38.2036 -1.78682 3.26961 0
M  V30 463 H 38.3166 -0.621773 4.75048 0
M  V30 464 H 36.6806 -0.426254 2.51108 0
M  V30 465 H 37.4636 1.06639 3.26318 0
M  V30 466 N 39.9087 -1.5758 0.0250728 0
M  V30 467 C 41.1857 -1.82917 -0.692873 0
M  V30 468 C 41.5657 -0.908137 -1.90568 0
M  V30 469 O 40.9137 0.0372298 -2.2847 0
M  V30 470 C 41.1237 -3.32034 -1.07492 0
M  V30 471 C 42.4717 -3.98406 -1.46826 0
M  V30 472 O 43.4957 -3.36505 -1.16801 0
M  V30 473 O 42.3547 -5.07497 -2.02754 0
M  V30 474 H 39.4487 -0.754079 -0.33955 0
M  V30 475 H 41.9947 -1.69619 0.0524456 0
M  V30 476 H 40.7667 -3.90728 -0.211552 0
M  V30 477 H 40.3897 -3.50424 -1.87854 0
M  V30 478 N 41.3868 0.248026 -1.55636 0
M  V30 479 C 42.3498 1.29044 -1.89421 0
M  V30 480 C 43.3498 1.41134 -0.770581 0
M  V30 481 O 44.5398 1.39854 -1.03858 0
M  V30 482 C 41.6718 2.66831 -2.12165 0
M  V30 483 H 42.8648 1.00305 -2.82629 0
M  V30 484 H 40.4178 0.487265 -1.48511 0
M  V30 485 H 41.1528 3.00711 -1.21422 0
M  V30 486 H 40.9378 2.59438 -2.93997 0
M  V30 487 H 42.4278 3.42103 -2.3949 0
M  V30 488 N 42.8649 1.48995 0.513639 0
M  V30 489 C 43.8119 1.6473 1.61656 0
M  V30 490 C 44.7819 0.488984 1.58739 0
M  V30 491 O 45.9669 0.714478 1.76918 0
M  V30 492 C 43.1069 1.7082 2.99858 0
M  V30 493 C 42.2199 2.9787 3.12885 0
M  V30 494 C 41.3549 2.95017 4.41744 0
M  V30 495 C 40.3939 4.16702 4.48359 0
M  V30 496 N 39.5309 4.11832 5.68629 0
M  V30 497 H 44.3709 2.58909 1.47547 0
M  V30 498 H 41.9079 1.28382 0.71808 0
M  V30 499 H 43.8659 1.72331 3.79944 0
M  V30 500 H 42.4959 0.801181 3.12699 0
M  V30 501 H 41.5479 3.06029 2.25944 0
M  V30 502 H 42.8599 3.8786 3.13633 0
M  V30 503 H 42.0139 2.95021 5.30139 0
M  V30 504 H 40.7529 2.02784 4.43542 0
M  V30 505 H 39.7579 4.16955 3.58369 0
M  V30 506 H 40.9829 5.10113 4.48287 0
M  V30 507 H 38.9289 3.22428 5.71293 0
M  V30 508 H 38.8459 4.95543 5.7094 0
M  V30 509 H 40.1139 4.1592 6.59266 0
M  V30 510 N 44.343 -0.763751 1.37857 0
M  V30 511 C 45.592 -1.51789 1.32827 0
M  V30 512 C 45.905 -1.95426 -0.0823719 0
M  V30 513 O 47.111 -2.70298 -0.255172 0
M  V30 514 C 45.567 -2.74133 2.33193 0
M  V30 515 C 45.175 -2.37562 3.79827 0
M  V30 516 C 46.919 -3.52054 2.37188 0
M  V30 517 C 44.826 -3.56456 4.71904 0
M  V30 518 H 43.756 -0.569896 0.493695 0
M  V30 519 H 46.407 -0.835822 1.63359 0
M  V30 520 H 44.789 -3.4427 1.9569 0
M  V30 521 H 45.963 -1.75157 4.26212 0
M  V30 522 H 44.278 -1.72798 3.78853 0
M  V30 523 H 46.875 -4.40437 3.03182 0
M  V30 524 H 47.218 -3.92486 1.38782 0
M  V30 525 H 47.751 -2.88921 2.7344 0
M  V30 526 H 44.49 -3.21099 5.71468 0
M  V30 527 H 44.01 -4.17938 4.30218 0
M  V30 528 H 45.689 -4.23168 4.89426 0
M  V30 529 N 45.8211 -1.22559 -0.990812 0
M  V30 530 C 47.2371 -0.985996 -1.255 0
M  V30 531 C 47.4371 0.319173 -1.98956 0
M  V30 532 O 46.4931 1.04127 -2.3003 0
M  V30 533 C 47.8061 -2.18607 -2.06474 0
M  V30 534 C 49.3541 -2.22985 -2.19651 0
M  V30 535 C 49.8291 -3.4255 -3.04012 0
M  V30 536 N 51.3201 -3.42725 -3.11599 0
M  V30 537 C 52.0551 -4.31892 -3.7717 0
M  V30 538 N 51.5511 -5.31279 -4.44651 0
M  V30 539 N 53.3441 -4.19662 -3.73952 0
M  V30 540 H 45.4951 -2.06469 -0.49841 0
M  V30 541 H 47.7581 -0.904853 -0.282747 0
M  V30 542 H 47.4641 -3.13267 -1.59865 0
M  V30 543 H 47.3381 -2.18838 -3.07229 0
M  V30 544 H 49.7251 -1.28871 -2.65474 0
M  V30 545 H 49.8061 -2.26791 -1.18319 0
M  V30 546 H 49.4501 -4.36965 -2.58889 0
M  V30 547 H 49.3801 -3.35984 -4.0549 0
M  V30 548 H 51.8711 -2.70807 -2.63575 0
M  V30 549 H 52.1841 -5.95593 -4.92431 0
M  V30 550 H 50.5291 -5.3519 -4.43392 0
M  V30 551 H 53.7201 -3.41268 -3.20396 0
M  V30 552 H 53.8931 -4.89358 -4.24774 0
M  V30 553 N 47.2992 1.18797 -1.03562 0
M  V30 554 C 48.5482 1.87978 -0.731235 0
M  V30 555 C 48.8612 1.80911 0.743671 0
M  V30 556 O 50.0672 2.45407 1.16137 0
M  V30 557 C 48.5232 3.3721 -1.25768 0
M  V30 558 C 48.1312 3.52818 -2.76085 0
M  V30 559 C 49.8752 4.11825 -1.0296 0
M  V30 560 C 47.7822 4.9598 -3.22114 0
M  V30 561 H 46.7122 0.704063 -0.269835 0
M  V30 562 H 49.3632 1.34266 -1.25079 0
M  V30 563 H 47.7452 3.90359 -0.666011 0
M  V30 564 H 48.9192 3.09965 -3.40966 0
M  V30 565 H 47.2342 2.91602 -2.97249 0
M  V30 566 H 49.8312 5.17411 -1.34869 0
M  V30 567 H 50.1742 4.16287 0.0333546 0
M  V30 568 H 50.7072 3.64833 -1.58562 0
M  V30 569 H 47.4462 4.96684 -4.27768 0
M  V30 570 H 46.9662 5.39569 -2.61965 0
M  V30 571 H 48.6452 5.6467 -3.15844 0
M  V30 572 N 48.7773 0.814389 1.34928 0
M  V30 573 C 50.0243 0.398423 1.98542 0
M  V30 574 C 50.3523 -1.03638 1.64589 0
M  V30 575 O 49.6073 -1.73509 0.90516 0
M  V30 576 C 49.9063 0.537781 3.53331 0
M  V30 577 C 49.5723 1.93704 4.07172 0
M  V30 578 C 48.2343 2.31984 4.21589 0
M  V30 579 C 50.5863 2.85213 4.36237 0
M  V30 580 C 47.9143 3.61125 4.62391 0
M  V30 581 C 50.2663 4.13809 4.78482 0
M  V30 582 C 48.9303 4.52077 4.91104 0
M  V30 583 H 48.2003 0.145793 0.726516 0
M  V30 584 H 50.8473 1.03669 1.61012 0
M  V30 585 H 49.1523 -0.183906 3.91368 0
M  V30 586 H 50.8493 0.196588 4.00518 0
M  V30 587 H 47.4393 1.62966 3.96409 0
M  V30 588 H 51.6233 2.56885 4.24645 0
M  V30 589 H 46.8793 3.90612 4.70353 0
M  V30 590 H 51.0533 4.84811 4.99932 0
M  V30 591 H 48.6803 5.52196 5.22478 0
M  V30 592 N 50.2554 -1.46986 0.568584 0
M  V30 593 C 51.5324 -1.95592 -0.0174074 0
M  V30 594 C 51.9124 -1.51124 -1.47393 0
M  V30 595 O 51.2604 -0.755329 -2.15655 0
M  V30 596 C 51.4704 -3.48719 0.139913 0
M  V30 597 C 52.8184 -4.246 0.000426376 0
M  V30 598 O 53.8424 -3.56135 0.0680316 0
M  V30 599 O 52.7014 -5.46302 -0.146988 0
M  V30 600 H 49.7954 -0.82498 -0.0577599 0
M  V30 601 H 52.3414 -1.57335 0.635909 0
M  V30 602 H 51.1134 -3.73927 1.15301 0
M  V30 603 H 50.7364 -3.93771 -0.550491 0
M  V30 604 N 51.7335 -0.305618 -1.54608 0
M  V30 605 C 52.6635 0.561482 -2.26649 0
M  V30 606 C 53.6445 1.13415 -1.26772 0
M  V30 607 O 54.8295 1.16262 -1.55553 0
M  V30 608 C 51.9595 1.73122 -3.01075 0
M  V30 609 C 50.9135 1.2887 -4.08138 0
M  V30 610 C 50.2395 2.54396 -4.70305 0
M  V30 611 C 51.5395 0.416578 -5.20636 0
M  V30 612 H 53.2335 -0.0393902 -2.99374 0
M  V30 613 H 50.7795 -0.020385 -1.43986 0
M  V30 614 H 52.7325 2.34396 -3.50195 0
M  V30 615 H 51.4565 2.3584 -2.25936 0
M  V30 616 H 50.1155 0.698991 -3.59875 0
M  V30 617 H 49.7635 3.15439 -3.918 0
M  V30 618 H 49.4635 2.25486 -5.42614 0
M  V30 619 H 50.9875 3.16464 -5.2219 0
M  V30 620 H 52.4015 0.935116 -5.65622 0
M  V30 621 H 50.7985 0.221046 -5.99693 0
M  V30 622 H 51.8685 -0.557162 -4.81688 0
M  V30 623 N 53.2116 1.57565 -0.0334293 0
M  V30 624 C 54.4596 1.91598 0.642999 0
M  V30 625 C 54.7806 0.910847 1.7242 0
M  V30 626 O 54.0506 -0.0469931 1.95844 0
M  V30 627 H 52.6306 0.707228 0.240496 0
M  V30 628 H 55.2926 1.94726 -0.0822488 0
M  V30 629 H 54.3886 2.92336 1.09298 0
M  V30 630 N 54.6897 -0.239769 1.55765 0
M  V30 631 C 56.1057 -0.588624 1.48349 0
M  V30 632 C 56.3057 -1.88005 0.72502 0
M  V30 633 O 55.3617 -2.51186 0.257269 0
M  V30 634 C 56.6747 -0.68474 2.928 0
M  V30 635 C 58.2227 -0.77659 3.03213 0
M  V30 636 C 58.6977 -0.904207 4.48986 0
M  V30 637 N 60.1887 -0.968896 4.52953 0
M  V30 638 C 60.9237 -1.08703 5.63002 0
M  V30 639 N 60.4197 -1.17026 6.82845 0
M  V30 640 N 62.2127 -1.12074 5.50814 0
M  V30 641 H 54.3637 0.607911 2.03515 0
M  V30 642 H 56.6267 0.21083 0.924259 0
M  V30 643 H 56.3327 0.194284 3.51163 0
M  V30 644 H 56.2067 -1.55435 3.43686 0
M  V30 645 H 58.5937 -1.64606 2.44926 0
M  V30 646 H 58.6747 0.118315 2.55526 0
M  V30 647 H 58.3187 -0.0392633 5.07885 0
M  V30 648 H 58.2487 -1.81426 4.9436 0
M  V30 649 H 60.7397 -0.915633 3.6664 0
M  V30 650 H 61.0527 -1.25966 7.62465 0
M  V30 651 H 59.3977 -1.13971 6.85591 0
M  V30 652 H 62.5887 -1.05226 4.5612 0
M  V30 653 H 62.7617 -1.20936 6.36615 0
M  V30 654 N 56.1678 -1.49265 -0.50573 0
M  V30 655 C 57.1148 -1.65585 -1.6078 0
M  V30 656 C 58.0848 -0.497396 -1.58478 0
M  V30 657 O 59.2698 -0.72385 -1.76536 0
M  V30 658 C 56.4098 -1.72408 -2.98948 0
M  V30 659 C 55.5228 -2.99525 -3.11301 0
M  V30 660 C 54.6578 -2.97356 -4.40174 0
M  V30 661 C 53.6968 -4.19074 -4.46143 0
M  V30 662 N 52.8338 -4.14841 -5.66437 0
M  V30 663 H 57.6738 -2.59688 -1.46172 0
M  V30 664 H 55.2108 -1.28761 -0.711261 0
M  V30 665 H 57.1688 -1.74344 -3.79025 0
M  V30 666 H 55.7988 -0.817753 -3.1227 0
M  V30 667 H 54.8508 -3.07222 -2.24318 0
M  V30 668 H 56.1628 -3.89518 -3.11572 0
M  V30 669 H 55.3168 -2.97829 -5.28567 0
M  V30 670 H 54.0558 -2.05133 -4.42461 0
M  V30 671 H 53.0608 -4.1885 -3.56153 0
M  V30 672 H 54.2858 -5.12483 -4.45575 0
M  V30 673 H 52.2318 -3.25453 -5.69575 0
M  V30 674 H 52.1488 -4.98564 -5.68304 0
M  V30 675 H 53.4168 -4.1941 -6.57051 0
M  V30 676 N 57.6459 0.756429 -1.3826 0
M  V30 677 C 58.5929 1.87011 -1.35261 0
M  V30 678 C 59.5629 1.64695 -0.215616 0
M  V30 679 O 60.7479 1.864 -0.407399 0
M  V30 680 C 57.8879 3.24275 -1.18068 0
M  V30 681 C 57.0009 3.58442 -2.41129 0
M  V30 682 C 56.1359 4.84994 -2.16689 0
M  V30 683 C 55.1749 5.11939 -3.35537 0
M  V30 684 N 54.3119 6.29685 -3.10549 0
M  V30 685 H 59.1519 1.8891 -2.30472 0
M  V30 686 H 56.6889 0.923373 -1.14509 0
M  V30 687 H 58.6469 4.03479 -1.06116 0
M  V30 688 H 57.2769 3.21711 -0.264973 0
M  V30 689 H 56.3289 2.74103 -2.63764 0
M  V30 690 H 57.6409 3.74283 -3.29717 0
M  V30 691 H 56.7949 5.72135 -2.01857 0
M  V30 692 H 55.5339 4.71286 -1.25462 0
M  V30 693 H 54.5389 4.23268 -3.50891 0
M  V30 694 H 55.7639 5.27546 -4.27635 0
M  V30 695 H 53.7099 6.17306 -2.21967 0
M  V30 696 H 53.6269 6.46014 -3.92686 0
M  V30 697 H 54.8949 7.19722 -2.99367 0
M  V30 698 N 59.124 1.23083 0.984299 0
M  V30 699 C 60.087 1.00979 2.05757 0
M  V30 700 C 61.087 -0.0269573 1.60777 0
M  V30 701 O 62.277 0.212403 1.729 0
M  V30 702 C 59.409 0.527072 3.36801 0
M  V30 703 H 60.602 1.9622 2.26799 0
M  V30 704 H 58.155 1.05072 1.15714 0
M  V30 705 H 58.89 -0.429294 3.21446 0
M  V30 706 H 58.675 1.27515 3.70786 0
M  V30 707 H 60.165 0.392942 4.15747 0
M  V30 708 N 60.6021 -1.18246 1.0419 0
M  V30 709 C 61.5491 -2.2192 0.634037 0
M  V30 710 C 62.5191 -1.62179 -0.358765 0
M  V30 711 O 63.7041 -1.89122 -0.252466 0
M  V30 712 C 60.8441 -3.451 0.00445535 0
M  V30 713 C 59.9571 -4.19174 1.04487 0
M  V30 714 C 59.0921 -5.29813 0.383676 0
M  V30 715 C 58.1311 -5.9566 1.4091 0
M  V30 716 N 57.2681 -6.97834 0.772784 0
M  V30 717 H 62.1081 -2.56164 1.52263 0
M  V30 718 H 59.6451 -1.25843 0.761701 0
M  V30 719 H 61.6031 -4.15485 -0.377919 0
M  V30 720 H 60.2331 -3.11472 -0.847652 0
M  V30 721 H 59.2851 -3.47604 1.54518 0
M  V30 722 H 60.5971 -4.64267 1.82368 0
M  V30 723 H 59.7511 -6.06677 -0.0528366 0
M  V30 724 H 58.4901 -4.85825 -0.427208 0
M  V30 725 H 57.4951 -5.17535 1.85574 0
M  V30 726 H 58.7201 -6.4173 2.22171 0
M  V30 727 H 56.6661 -6.55998 -0.0177708 0
M  V30 728 H 56.5831 -7.41186 1.48928 0
M  V30 729 H 57.8511 -7.78665 0.36071 0
M  V30 730 N 62.0802 -0.821533 -1.34494 0
M  V30 731 C 63.3262 -0.409552 -1.98622 0
M  V30 732 C 63.6592 1.0244 -1.64984 0
M  V30 733 O 62.9342 1.71325 -0.920758 0
M  V30 734 C 63.2172 -0.610458 -3.54888 0
M  V30 735 C 63.0702 -2.09043 -3.98273 0
M  V30 736 C 64.3892 -0.0455379 -4.40076 0
M  V30 737 H 61.5082 -0.15028 -0.721516 0
M  V30 738 H 64.1502 -1.03384 -1.59411 0
M  V30 739 H 62.3002 -0.079044 -3.8842 0
M  V30 740 H 63.9722 -2.68537 -3.75081 0
M  V30 741 H 62.2152 -2.58139 -3.48635 0
M  V30 742 H 62.8862 -2.18182 -5.07051 0
M  V30 743 H 65.3622 -0.499557 -4.1309 0
M  V30 744 H 64.2382 -0.215922 -5.48475 0
M  V30 745 H 64.4992 1.04939 -4.29465 0
M  V30 746 N 63.5583 1.46682 -0.576371 0
M  V30 747 C 64.8353 1.95599 0.00703437 0
M  V30 748 C 65.2153 1.51904 1.46589 0
M  V30 749 O 64.5633 0.766755 2.15251 0
M  V30 750 C 64.7733 3.4864 -0.158404 0
M  V30 751 C 66.1213 4.24594 -0.0229439 0
M  V30 752 O 67.1453 3.56094 -0.0869173 0
M  V30 753 O 66.0043 5.46373 0.118015 0
M  V30 754 H 63.0983 0.825275 0.053384 0
M  V30 755 H 65.6443 1.56996 -0.644244 0
M  V30 756 H 64.4163 3.7331 -1.17282 0
M  V30 757 H 64.0393 3.94057 0.5296 0
M  V30 758 N 65.0364 0.313813 1.54444 0
M  V30 759 C 65.9464 -0.565714 2.27677 0
M  V30 760 C 66.9624 -1.13754 1.31666 0
M  V30 761 O 68.1384 -1.15959 1.64668 0
M  V30 762 C 65.2034 -1.71528 3.01296 0
M  V30 763 C 64.2644 -1.17624 4.12872 0
M  V30 764 C 63.4974 -2.27102 4.8297 0
M  V30 765 O 63.7204 -3.47256 4.52514 0
M  V30 766 O 62.6544 -1.9307 5.70094 0
M  V30 767 H 66.4804 0.0287296 3.03686 0
M  V30 768 H 64.0654 0.0798312 1.49187 0
M  V30 769 H 65.9474 -2.38476 3.4743 0
M  V30 770 H 64.6224 -2.29608 2.2817 0
M  V30 771 H 63.5294 -0.472124 3.71109 0
M  V30 772 H 64.8624 -0.640695 4.88012 0
M  V30 773 N 66.5145 -1.57545 0.0417849 0
M  V30 774 C 67.7615 -1.92317 -0.634082 0
M  V30 775 C 68.0895 -0.919334 -1.71402 0
M  V30 776 O 67.3445 0.0698253 -1.95575 0
M  V30 777 C 67.6435 -3.33794 -1.27735 0
M  V30 778 C 67.3095 -4.49716 -0.326543 0
M  V30 779 C 65.9715 -4.81156 -0.0648814 0
M  V30 780 C 68.3235 -5.20182 0.325623 0
M  V30 781 C 65.6515 -5.80414 0.856539 0
M  V30 782 C 68.0035 -6.20424 1.23518 0
M  V30 783 C 66.6675 -6.50298 1.5056 0
M  V30 784 H 65.9375 -0.703736 -0.232027 0
M  V30 785 H 68.5845 -1.91205 0.106259 0
M  V30 786 H 66.8895 -3.31228 -2.09274 0
M  V30 787 H 68.5865 -3.57975 -1.80707 0
M  V30 788 H 65.1765 -4.25176 -0.540665 0
M  V30 789 H 69.3605 -4.96112 0.136546 0
M  V30 790 H 64.6165 -6.019 1.07363 0
M  V30 791 H 68.7905 -6.74141 1.74664 0
M  V30 792 H 66.4175 -7.27025 2.22123 0
M  V30 793 N 67.9926 0.231505 -1.5589 0
M  V30 794 C 69.4036 0.799327 -1.68724 0
M  V30 795 C 69.7546 1.85398 -0.642022 0
M  V30 796 O 68.8796 2.1539 0.208784 0
M  V30 797 C 69.4746 1.45664 -3.05888 0
M  V30 798 C 68.0336 1.97197 -3.20609 0
M  V30 799 C 67.1806 0.828552 -2.64632 0
M  V30 800 H 70.1316 0.00702616 -1.58698 0
M  V30 801 H 70.1526 2.32517 -3.01191 0
M  V30 802 H 69.6646 0.688808 -3.81939 0
M  V30 803 H 67.7656 2.76813 -2.4941 0
M  V30 804 H 67.8786 2.15878 -4.27707 0
M  V30 805 H 66.2426 1.23321 -2.22854 0
M  V30 806 H 67.0256 0.0735544 -3.43221 0
M  V30 807 N 69.4707 1.49531 0.497807 0
M  V30 808 C 70.4007 1.6935 1.60757 0
M  V30 809 C 71.3817 0.542218 1.61227 0
M  V30 810 O 72.5667 0.778417 1.77917 0
M  V30 811 C 69.6967 1.76298 2.99226 0
M  V30 812 C 68.6507 2.91248 3.13622 0
M  V30 813 C 67.9767 2.83312 4.53474 0
M  V30 814 C 69.2767 4.3214 2.93346 0
M  V30 815 H 70.9707 2.62263 1.44425 0
M  V30 816 H 68.5167 1.26208 0.693367 0
M  V30 817 H 70.4697 1.88749 3.76765 0
M  V30 818 H 69.1937 0.799871 3.16654 0
M  V30 819 H 67.8527 2.78404 2.38509 0
M  V30 820 H 67.5007 1.84902 4.67782 0
M  V30 821 H 67.2007 3.60465 4.64046 0
M  V30 822 H 68.7247 2.97775 5.33069 0
M  V30 823 H 70.1387 4.45649 3.60652 0
M  V30 824 H 68.5357 5.1054 3.15387 0
M  V30 825 H 69.6057 4.46363 1.89441 0
M  V30 826 N 70.9488 -0.749086 1.3866 0
M  V30 827 C 72.1968 -1.50535 1.34847 0
M  V30 828 C 72.5178 -1.94909 -0.0595016 0
M  V30 829 O 71.7878 -1.67973 -1.00806 0
M  V30 830 H 70.3678 -0.558395 0.49619 0
M  V30 831 H 73.0298 -0.890165 1.73384 0
M  V30 832 H 72.1258 -2.39413 2.00219 0
M  V30 833 N 72.4269 -1.23603 -0.977757 0
M  V30 834 C 73.6749 -1.06759 -1.71601 0
M  V30 835 C 73.9959 0.395929 -1.90938 0
M  V30 836 O 73.2659 1.28356 -1.47992 0
M  V30 837 H 71.8459 -0.392062 -0.635843 0
M  V30 838 H 74.5079 -1.55362 -1.1768 0
M  V30 839 H 73.6039 -1.55763 -2.70452 0
M  V30 840 N 73.905 1.17692 -1.04816 0
M  V30 841 C 74.855 2.1952 -0.616042 0
M  V30 842 C 75.839 1.57147 0.345485 0
M  V30 843 O 77.031 1.76245 0.163325 0
M  V30 844 C 74.16 3.43298 0.0116917 0
M  V30 845 C 73.246 4.12777 -0.973435 0
M  V30 846 N 73.637 4.5814 -2.14339 0
M  V30 847 C 71.935 4.38747 -0.80108 0
M  V30 848 C 72.636 5.11713 -2.7663 0
M  V30 849 N 71.612 5.03686 -2.04453 0
M  V30 850 H 75.414 2.52293 -1.5075 0
M  V30 851 H 72.928 1.3398 -0.917776 0
M  V30 852 H 74.925 4.15519 0.339006 0
M  V30 853 H 73.585 3.12018 0.898593 0
M  V30 854 H 74.596 4.52349 -2.52191 0
M  V30 855 H 71.273 4.17485 0.0350934 0
M  V30 856 H 72.663 5.56962 -3.75823 0
M  V30 857 N 75.3831 0.828654 1.34056 0
M  V30 858 C 76.3161 0.199763 2.27324 0
M  V30 859 C 77.2941 -0.647168 1.49166 0
M  V30 860 O 78.4781 -0.609661 1.78369 0
M  V30 861 C 75.6051 -0.720455 3.30949 0
M  V30 862 C 74.6511 0.0496888 4.26471 0
M  V30 863 S 75.4841 1.40072 5.16856 0
M  V30 864 C 76.6401 0.485527 6.24014 0
M  V30 865 H 76.8731 0.990478 2.80316 0
M  V30 866 H 74.4061 0.624857 1.41191 0
M  V30 867 H 76.3641 -1.24581 3.91139 0
M  V30 868 H 75.0251 -1.48474 2.76793 0
M  V30 869 H 74.2181 -0.650104 4.9979 0
M  V30 870 H 73.8201 0.505779 3.70564 0
M  V30 871 H 76.1121 -0.320672 6.76741 0
M  V30 872 H 77.0551 1.18856 6.98054 0
M  V30 873 H 77.4631 0.0714109 5.64455 0
M  V30 874 N 76.8612 -1.46375 0.584142 0
M  V30 875 C 78.1072 -2.02678 0.0703716 0
M  V30 876 C 78.4402 -1.4545 -1.28678 0
M  V30 877 O 77.7152 -0.62014 -1.84349 0
M  V30 878 C 77.9982 -3.60099 0.00614674 0
M  V30 879 C 77.8512 -4.27709 1.3923 0
M  V30 880 C 79.1702 -4.34598 -0.693742 0
M  V30 881 H 76.2892 -0.736504 0.027047 0
M  V30 882 H 78.9312 -1.74501 0.751615 0
M  V30 883 H 77.0812 -3.84236 -0.574009 0
M  V30 884 H 78.7532 -4.14832 2.01773 0
M  V30 885 H 76.9962 -3.87016 1.95962 0
M  V30 886 H 77.6672 -5.36478 1.29982 0
M  V30 887 H 80.1432 -4.15615 -0.200869 0
M  V30 888 H 79.0192 -5.44318 -0.707714 0
M  V30 889 H 79.2802 -4.05759 -1.75533 0
M  V30 890 N 78.3393 -0.321999 -1.54275 0
M  V30 891 C 79.5643 0.285791 -2.05422 0
M  V30 892 C 79.9893 1.45124 -1.19669 0
M  V30 893 O 79.3473 1.80132 -0.205441 0
M  V30 894 C 79.3953 0.69956 -3.53749 0
M  V30 895 O 78.4993 1.8021 -3.70942 0
M  V30 896 H 77.8403 0.0518962 -0.661969 0
M  V30 897 H 80.3703 -0.469954 -1.9913 0
M  V30 898 H 80.3803 0.982649 -3.9599 0
M  V30 899 H 79.0553 -0.152864 -4.15619 0
M  V30 900 H 77.6323 1.51794 -3.40607 0
M  V30 901 N 79.8174 1.5752 -0.0501392 0
M  V30 902 C 81.0944 1.83996 0.663685 0
M  V30 903 C 81.4744 0.938339 1.89099 0
M  V30 904 O 80.8224 -0.00087759 2.285 0
M  V30 905 C 81.0324 3.33702 1.02196 0
M  V30 906 C 82.3804 4.00691 1.40469 0
M  V30 907 O 83.4044 3.38321 1.11433 0
M  V30 908 O 82.2634 5.10658 1.94654 0
M  V30 909 H 79.3574 0.759385 0.32751 0
M  V30 910 H 81.9034 1.69514 -0.0794238 0
M  V30 911 H 80.6754 3.91015 0.149364 0
M  V30 912 H 80.2984 3.53368 1.82255 0
M  V30 913 N 81.2955 -0.223234 1.56011 0
M  V30 914 C 82.2055 -1.29766 1.95443 0
M  V30 915 C 83.2215 -1.51373 0.858028 0
M  V30 916 O 84.3975 -1.64536 1.16146 0
M  V30 917 C 81.4625 -2.62772 2.26167 0
M  V30 918 C 80.5235 -2.49482 3.49367 0
M  V30 919 C 79.7565 -3.76145 3.78616 0
M  V30 920 O 79.9795 -4.79087 3.09568 0
M  V30 921 O 78.9135 -3.73358 4.72109 0
M  V30 922 H 82.7395 -0.99309 2.87004 0
M  V30 923 H 80.3245 -0.425958 1.43199 0
M  V30 924 H 82.2065 -3.41327 2.47131 0
M  V30 925 H 80.8815 -2.92913 1.37781 0
M  V30 926 H 79.7885 -1.69133 3.33684 0
M  V30 927 H 81.1215 -2.2428 4.38131 0
M  V30 928 N 82.7736 -1.49793 -0.48987 0
M  V30 929 C 84.0036 -1.6333 -1.26518 0
M  V30 930 C 84.4116 -0.308392 -1.8667 0
M  V30 931 O 83.7546 0.717512 -1.69108 0
M  V30 932 C 83.8166 -2.6522 -2.4269 0
M  V30 933 C 83.4806 -4.09279 -2.03321 0
M  V30 934 C 84.4776 -4.95738 -1.56652 0
M  V30 935 C 82.1626 -4.55082 -2.12616 0
M  V30 936 C 84.1566 -6.26041 -1.19795 0
M  V30 937 C 81.8436 -5.85396 -1.75371 0
M  V30 938 C 82.8416 -6.707 -1.29036 0
M  V30 939 O 82.5296 -7.98584 -0.92299 0
M  V30 940 H 82.2616 -0.552502 -0.389509 0
M  V30 941 H 84.8156 -1.96642 -0.593381 0
M  V30 942 H 83.0456 -2.27112 -3.12981 0
M  V30 943 H 84.7346 -2.68171 -3.04695 0
M  V30 944 H 85.5006 -4.61575 -1.48908 0
M  V30 945 H 81.3796 -3.88844 -2.47631 0
M  V30 946 H 84.9236 -6.92578 -0.835582 0
M  V30 947 H 80.8206 -6.19085 -1.82768 0
M  V30 948 H 81.5886 -8.11692 -1.05349 0
M  V30 949 N 84.2517 0.741722 -1.39055 0
M  V30 950 C 85.1617 1.88621 -1.39496 0
M  V30 951 C 86.1777 1.71557 -0.290578 0
M  V30 952 O 87.3537 1.94275 -0.530954 0
M  V30 953 C 84.4187 3.24134 -1.23037 0
M  V30 954 C 83.4797 3.5364 -2.43387 0
M  V30 955 C 82.7127 4.82687 -2.27703 0
M  V30 956 O 82.9357 5.55922 -1.27696 0
M  V30 957 O 81.8697 5.1194 -3.16545 0
M  V30 958 H 85.6957 1.91203 -2.35956 0
M  V30 959 H 83.2807 0.888625 -1.20099 0
M  V30 960 H 85.1627 4.0513 -1.15964 0
M  V30 961 H 83.8377 3.22337 -0.296691 0
M  V30 962 H 82.7447 2.72758 -2.56035 0
M  V30 963 H 84.0777 3.60209 -3.35425 0
M  V30 964 N 85.7298 1.2412 0.971189 0
M  V30 965 C 86.6618 0.988349 2.06795 0
M  V30 966 C 87.6748 -0.0409541 1.62748 0
M  V30 967 O 88.8638 0.195673 1.77424 0
M  V30 968 C 85.9638 0.469023 3.35639 0
M  V30 969 C 85.1368 1.56065 4.08611 0
M  V30 970 C 84.1958 1.04458 5.15728 0
M  V30 971 O 83.2218 1.73553 5.42096 0
M  V30 972 N 84.4238 -0.122817 5.8037 0
M  V30 973 H 87.1888 1.93265 2.29061 0
M  V30 974 H 84.7498 1.15102 1.13856 0
M  V30 975 H 86.7418 0.108613 4.04554 0
M  V30 976 H 85.3118 -0.380919 3.1027 0
M  V30 977 H 84.5318 2.09341 3.34021 0
M  V30 978 H 85.8198 2.29449 4.54126 0
M  V30 979 H 85.2178 -0.700563 5.61345 0
M  V30 980 H 83.7748 -0.424404 6.50417 0
M  V30 981 N 87.2079 -1.17134 1.05439 0
M  V30 982 C 88.1379 -2.2342 0.678649 0
M  V30 983 C 89.1189 -1.66971 -0.32476 0
M  V30 984 O 90.3039 -1.93149 -0.201802 0
M  V30 985 C 87.4339 -3.47256 0.0552099 0
M  V30 986 C 86.3879 -4.16543 0.98365 0
M  V30 987 C 85.7139 -5.34231 0.223961 0
M  V30 988 C 87.0139 -4.68495 2.3089 0
M  V30 989 H 88.7079 -2.55105 1.56722 0
M  V30 990 H 86.2539 -1.2262 0.754998 0
M  V30 991 H 88.2069 -4.20828 -0.21946 0
M  V30 992 H 86.9309 -3.14846 -0.868319 0
M  V30 993 H 85.5899 -3.44887 1.24293 0
M  V30 994 H 85.2379 -4.98071 -0.702412 0
M  V30 995 H 84.9379 -5.81527 0.842627 0
M  V30 996 H 86.4619 -6.10585 -0.0433671 0
M  V30 997 H 87.8759 -5.33691 2.09396 0
M  V30 998 H 86.2729 -5.26379 2.88176 0
M  V30 999 H 87.3429 -3.85169 2.94572 0
M  V30 1000 N 88.686 -0.835752 -1.33615 0
M  V30 1001 C 89.911 -0.442389 -2.02627 0
M  V30 1002 C 90.336 0.947735 -1.62479 0
M  V30 1003 O 89.694 1.61907 -0.815826 0
M  V30 1004 C 89.742 -0.567216 -3.56111 0
M  V30 1005 O 88.846 0.407799 -4.10379 0
M  V30 1006 H 88.187 -0.180278 -0.639059 0
M  V30 1007 H 90.717 -1.12972 -1.70583 0
M  V30 1008 H 90.727 -0.447708 -4.05536 0
M  V30 1009 H 89.402 -1.58103 -3.84677 0
M  V30 1010 H 87.979 0.246107 -3.72087 0
M  V30 1011 N 90.1641 1.46063 -0.591896 0
M  V30 1012 C 91.3891 2.07226 -0.0850314 0
M  V30 1013 C 91.8141 1.43625 1.21463 0
M  V30 1014 O 91.1721 0.523305 1.73583 0
M  V30 1015 C 91.2201 3.60554 0.0576567 0
M  V30 1016 O 90.3241 3.97128 1.11188 0
M  V30 1017 H 89.6651 0.660615 -0.0669568 0
M  V30 1018 H 92.1951 1.8756 -0.81745 0
M  V30 1019 H 92.2051 4.07165 0.2609 0
M  V30 1020 H 90.8801 4.06235 -0.891416 0
M  V30 1021 H 89.4571 3.62213 0.886356 0
M  V30 1022 N 91.6422 0.330177 1.54103 0
M  V30 1023 C 92.5522 -0.541534 2.28264 0
M  V30 1024 C 93.5682 -1.12351 1.32866 0
M  V30 1025 O 94.7442 -1.14206 1.65888 0
M  V30 1026 C 91.8092 -1.68322 3.03098 0
M  V30 1027 C 90.8702 -1.13238 4.14096 0
M  V30 1028 C 90.1032 -2.21966 4.85352 0
M  V30 1029 O 90.3262 -3.42437 4.56172 0
M  V30 1030 O 89.2602 -1.87013 5.7211 0
M  V30 1031 H 93.0862 0.060938 3.03639 0
M  V30 1032 H 90.6712 0.09565 1.49093 0
M  V30 1033 H 92.5532 -2.34777 3.49939 0
M  V30 1034 H 91.2282 -2.27176 2.30593 0
M  V30 1035 H 90.1352 -0.432736 3.71589 0
M  V30 1036 H 91.4682 -0.588898 4.88664 0
M  V30 1037 N 93.1203 -1.57491 0.0584922 0
M  V30 1038 C 94.0833 -2.1085 -0.898617 0
M  V30 1039 C 95.0833 -1.02964 -1.23511 0
M  V30 1040 O 96.2733 -1.29007 -1.17059 0
M  V30 1041 C 93.4053 -2.59881 -2.20623 0
M  V30 1042 H 94.5983 -2.96715 -0.435936 0
M  V30 1043 H 92.1513 -1.55141 -0.190023 0
M  V30 1044 H 92.8863 -1.77431 -2.71457 0
M  V30 1045 H 92.6713 -3.38727 -1.97501 0
M  V30 1046 H 94.1613 -3.01285 -2.89166 0
M  V30 1047 N 94.5984 0.214957 -1.56127 0
M  V30 1048 C 95.5284 1.2695 -1.95974 0
M  V30 1049 C 96.5094 1.48539 -0.828868 0
M  V30 1050 O 97.6944 1.60611 -1.09168 0
M  V30 1051 C 94.8244 2.61794 -2.28214 0
M  V30 1052 C 93.7784 2.54851 -3.43853 0
M  V30 1053 C 93.1044 3.93785 -3.61715 0
M  V30 1054 C 94.4044 2.09065 -4.78632 0
M  V30 1055 H 96.0984 0.93846 -2.84312 0
M  V30 1056 H 93.6444 0.449996 -1.36788 0
M  V30 1057 H 95.5974 3.35731 -2.54682 0
M  V30 1058 H 94.3214 2.96599 -1.36736 0
M  V30 1059 H 92.9804 1.8337 -3.17444 0
M  V30 1060 H 92.6284 4.25908 -2.67602 0
M  V30 1061 H 92.3284 3.90019 -4.39498 0
M  V30 1062 H 93.8524 4.69374 -3.90539 0
M  V30 1063 H 95.2664 2.7275 -5.04262 0
M  V30 1064 H 93.6634 2.16346 -5.59745 0
M  V30 1065 H 94.7334 1.04315 -4.73547 0
M  V30 1066 N 96.0765 1.50051 0.48192 0
M  V30 1067 C 96.9865 1.7089 1.60728 0
M  V30 1068 C 98.0025 0.591788 1.63627 0
M  V30 1069 O 99.1785 0.868817 1.81696 0
M  V30 1070 C 96.2435 1.78855 2.97005 0
M  V30 1071 C 95.3045 3.02537 3.04581 0
M  V30 1072 C 94.5375 3.10112 4.34357 0
M  V30 1073 O 94.7605 2.24765 5.24249 0
M  V30 1074 O 93.6945 4.02747 4.47301 0
M  V30 1075 H 97.5205 2.66264 1.46072 0
M  V30 1076 H 95.1055 1.34018 0.660264 0
M  V30 1077 H 96.9875 1.86336 3.77964 0
M  V30 1078 H 95.6625 0.866628 3.11883 0
M  V30 1079 H 94.5695 3.00563 2.22739 0
M  V30 1080 H 95.9025 3.94272 2.94636 0
M  V30 1081 N 97.5546 -0.734337 1.39446 0
M  V30 1082 C 98.5176 -1.83004 1.37994 0
M  V30 1083 C 99.5176 -1.58397 0.276938 0
M  V30 1084 O 100.708 -1.65785 0.534875 0
M  V30 1085 C 97.8396 -3.20802 1.1532 0
M  V30 1086 H 99.0326 -1.85694 2.35494 0
M  V30 1087 H 96.5856 -0.938059 1.25021 0
M  V30 1088 H 97.3206 -3.23772 0.185036 0
M  V30 1089 H 97.1056 -3.4006 1.95197 0
M  V30 1090 H 98.5956 -4.00862 1.17046 0
M  V30 1091 N 99.0327 -1.24633 -0.964593 0
M  V30 1092 C 99.9957 -1.0424 -2.04124 0
M  V30 1093 C 100.996 0.00137563 -1.608 0
M  V30 1094 O 102.186 -0.239883 -1.7254 0
M  V30 1095 C 99.3177 -0.580588 -3.3592 0
M  V30 1096 H 100.511 -1.99803 -2.23649 0
M  V30 1097 H 98.0637 -1.06899 -1.14027 0
M  V30 1098 H 98.7987 0.3781 -3.22088 0
M  V30 1099 H 98.5837 -1.33398 -3.6871 0
M  V30 1100 H 100.074 -0.459034 -4.15069 0
M  V30 1101 N 100.511 1.16574 -1.06058 0
M  V30 1102 C 101.927 1.3904 -0.783585 0
M  V30 1103 C 102.127 1.91784 0.618145 0
M  V30 1104 O 101.183 2.11511 1.37911 0
M  V30 1105 C 102.496 2.37329 -1.84649 0
M  V30 1106 C 104.044 2.51018 -1.86973 0
M  V30 1107 C 104.519 3.52588 -2.92311 0
M  V30 1108 N 106.01 3.60113 -2.91329 0
M  V30 1109 C 106.745 4.38486 -3.69482 0
M  V30 1110 N 106.241 5.20302 -4.57447 0
M  V30 1111 N 108.034 4.33446 -3.57885 0
M  V30 1112 H 100.185 0.806725 -1.96483 0
M  V30 1113 H 102.448 0.417117 -0.851303 0
M  V30 1114 H 102.154 2.05663 -2.85299 0
M  V30 1115 H 102.028 3.36946 -1.6955 0
M  V30 1116 H 104.415 2.81989 -0.869827 0
M  V30 1117 H 104.496 1.51445 -2.0615 0
M  V30 1118 H 104.14 3.22354 -3.92492 0
M  V30 1119 H 104.07 4.51886 -2.70383 0
M  V30 1120 H 106.561 3.01707 -2.27555 0
M  V30 1121 H 106.874 5.77311 -5.13743 0
M  V30 1122 H 105.219 5.19653 -4.61503 0
M  V30 1123 H 108.41 3.68586 -2.88551 0
M  V30 1124 H 108.583 4.94279 -4.19037 0
M  V30 1125 N 101.989 0.842826 1.3317 0
M  V30 1126 C 103.238 0.436738 1.96915 0
M  V30 1127 C 103.551 -1.01025 1.67491 0
M  V30 1128 O 104.757 -1.5212 2.24881 0
M  V30 1129 C 103.213 0.730021 3.52418 0
M  V30 1130 C 102.821 2.19195 3.90714 0
M  V30 1131 C 104.565 0.391076 4.22695 0
M  V30 1132 C 102.472 2.42907 5.39212 0
M  V30 1133 H 101.402 0.15958 0.736919 0
M  V30 1134 H 104.053 1.03196 1.51733 0
M  V30 1135 H 102.435 0.0643755 3.95948 0
M  V30 1136 H 103.609 2.8984 3.58231 0
M  V30 1137 H 101.924 2.49425 3.33431 0
M  V30 1138 H 104.521 0.545817 5.31907 0
M  V30 1139 H 104.864 -0.666294 4.10933 0
M  V30 1140 H 105.397 1.01212 3.84709 0
M  V30 1141 H 102.136 3.47224 5.55982 0
M  V30 1142 H 101.656 1.76827 5.73142 0
M  V30 1143 H 103.335 2.2626 6.06148 0
M  V30 1144 N 103.467 -1.45747 0.599634 0
M  V30 1145 C 104.707 -2.04181 0.0946309 0
M  V30 1146 C 105.071 -1.45895 -1.24815 0
M  V30 1147 O 106.272 -1.95633 -1.8434 0
M  V30 1148 C 104.543 -3.57368 0.047581 0
M  V30 1149 S 106.102 -4.36997 -0.397387 0
M  V30 1150 H 102.92 -0.70953 0.0456954 0
M  V30 1151 H 105.522 -1.78564 0.795946 0
M  V30 1152 H 104.226 -3.97303 1.02852 0
M  V30 1153 H 103.757 -3.87549 -0.675977 0
M  V30 1154 H 105.772 -4.68012 -1.64862 0
M  V30 1155 N 104.945 -0.338344 -1.53925 0
M  V30 1156 C 105.908 0.508299 -2.23493 0
M  V30 1157 C 106.908 1.03175 -1.23335 0
M  V30 1158 O 108.098 0.921826 -1.47811 0
M  V30 1159 C 105.23 1.70754 -2.95052 0
M  V30 1160 H 106.423 -0.100058 -2.99733 0
M  V30 1161 H 103.976 -0.0896198 -1.56043 0
M  V30 1162 H 104.711 2.35474 -2.22986 0
M  V30 1163 H 104.496 1.33946 -3.68512 0
M  V30 1164 H 105.986 2.30818 -3.48013 0
M  V30 1165 N 106.423 1.57458 -0.0668435 0
M  V30 1166 C 107.371 2.13639 0.919851 0
M  V30 1167 C 108.365 1.07204 1.31163 0
M  V30 1168 O 109.571 1.25591 1.28945 0
M  V30 1169 H 105.946 0.683048 0.314562 0
M  V30 1170 H 107.917 2.95415 0.421047 0
M  V30 1171 C 106.666 2.70892 2.17975 0
M  V30 1172 H 105.989 3.5246 1.88711 0
M  V30 1173 H 107.429 3.13803 2.85138 0
M  V30 1174 C 105.888 1.65414 2.93496 0
M  V30 1175 O 106.418 1.07619 3.87015 0
M  V30 1176 N 104.624 1.36564 2.56512 0
M  V30 1177 H 104.171 1.83751 1.80536 0
M  V30 1178 H 104.129 0.66223 3.07347 0
M  V30 1179 N 107.901 -0.206675 1.56239 0
M  V30 1180 C 108.848 -1.25617 1.93621 0
M  V30 1181 C 109.818 -1.45824 0.795274 0
M  V30 1182 O 111.003 -1.59148 1.05245 0
M  V30 1183 C 108.143 -2.59839 2.27107 0
M  V30 1184 C 107.256 -2.47308 3.54207 0
M  V30 1185 C 106.391 -3.74155 3.7707 0
M  V30 1186 C 105.43 -3.56407 4.97635 0
M  V30 1187 N 104.567 -4.75238 5.1681 0
M  V30 1188 H 109.407 -0.930383 2.83104 0
M  V30 1189 H 106.944 -0.448065 1.4011 0
M  V30 1190 H 108.902 -3.38021 2.44535 0
M  V30 1191 H 107.532 -2.90485 1.40778 0
M  V30 1192 H 106.584 -1.60483 3.4489 0
M  V30 1193 H 107.896 -2.30122 4.42544 0
M  V30 1194 H 107.05 -4.60778 3.94675 0
M  V30 1195 H 105.789 -3.94282 2.87042 0
M  V30 1196 H 104.794 -2.68168 4.79964 0
M  V30 1197 H 106.019 -3.37736 5.89161 0
M  V30 1198 H 103.965 -4.95651 4.29728 0
M  V30 1199 H 103.882 -4.60835 5.99306 0
M  V30 1200 H 105.15 -5.63246 5.38864 0
M  V30 1201 N 109.379 -1.50304 -0.473955 0
M  V30 1202 C 110.609 -1.64663 -1.24778 0
M  V30 1203 C 111.017 -0.328174 -1.86332 0
M  V30 1204 O 110.36 0.699536 -1.69859 0
M  V30 1205 C 110.422 -2.6778 -2.39863 0
M  V30 1206 C 110.086 -4.11413 -1.98969 0
M  V30 1207 C 111.083 -4.97372 -1.51385 0
M  V30 1208 C 108.768 -4.57312 -2.07777 0
M  V30 1209 C 110.762 -6.27277 -1.13148 0
M  V30 1210 C 108.449 -5.87223 -1.69152 0
M  V30 1211 C 109.447 -6.72031 -1.21915 0
M  V30 1212 O 109.135 -7.99518 -0.838237 0
M  V30 1213 H 108.867 -0.556602 -0.383627 0
M  V30 1214 H 111.421 -1.9726 -0.572491 0
M  V30 1215 H 109.651 -2.30419 -3.10554 0
M  V30 1216 H 111.34 -2.71388 -3.01833 0
M  V30 1217 H 112.106 -4.63128 -1.44004 0
M  V30 1218 H 107.985 -3.91449 -2.43493 0
M  V30 1219 H 111.529 -6.93425 -0.762077 0
M  V30 1220 H 107.426 -6.20989 -1.76191 0
M  V30 1221 H 108.194 -8.12764 -0.967339 0
M  V30 1222 N 110.857 0.726932 -1.39834 0
M  V30 1223 C 111.79 1.8501 -1.33592 0
M  V30 1224 C 112.768 1.61262 -0.208191 0
M  V30 1225 O 113.952 1.84422 -0.389981 0
M  V30 1226 C 111.079 3.21143 -1.07633 0
M  V30 1227 C 110.125 3.63737 -2.22705 0
M  V30 1228 S 110.958 3.72167 -3.85035 0
M  V30 1229 C 112.114 5.11077 -3.61318 0
M  V30 1230 H 112.347 1.90022 -2.28646 0
M  V30 1231 H 109.88 0.892595 -1.25985 0
M  V30 1232 H 111.838 3.99747 -0.933415 0
M  V30 1233 H 110.499 3.13776 -0.142526 0
M  V30 1234 H 109.692 4.62551 -2.00155 0
M  V30 1235 H 109.294 2.9236 -2.33242 0
M  V30 1236 H 111.586 5.97656 -3.19083 0
M  V30 1237 H 112.529 5.38658 -4.59623 0
M  V30 1238 H 112.937 4.81135 -2.95245 0
M  V30 1239 N 112.336 1.25143 0.95797 0
M  V30 1240 C 113.582 1.09855 1.70469 0
M  V30 1241 C 113.915 -0.360187 1.90831 0
M  V30 1242 O 113.19 -1.26568 1.47685 0
M  V30 1243 C 113.473 1.8497 3.08963 0
M  V30 1244 C 113.326 3.38652 2.96032 0
M  V30 1245 C 114.645 1.63016 4.08795 0
M  V30 1246 H 111.764 0.400465 0.618706 0
M  V30 1247 H 114.406 1.53933 1.11376 0
M  V30 1248 H 112.556 1.47505 3.59409 0
M  V30 1249 H 114.228 3.85772 2.52938 0
M  V30 1250 H 112.471 3.66534 2.32025 0
M  V30 1251 H 113.142 3.8642 3.94187 0
M  V30 1252 H 115.618 1.95625 3.67247 0
M  V30 1253 H 114.494 2.18015 5.03747 0
M  V30 1254 H 114.755 0.570692 4.38401 0
M  V30 1255 N 113.814 -1.1601 1.06675 0
M  V30 1256 C 114.761 -2.20525 0.680967 0
M  V30 1257 C 115.731 -1.62904 -0.324283 0
M  V30 1258 O 116.916 -1.89615 -0.212294 0
M  V30 1259 C 114.056 -3.45013 0.0776551 0
M  V30 1260 C 113.169 -4.16863 1.13355 0
M  V30 1261 C 112.304 -5.2888 0.49597 0
M  V30 1262 C 111.343 -5.92537 1.53513 0
M  V30 1263 N 110.48 -6.96038 0.920631 0
M  V30 1264 H 115.32 -2.52876 1.57663 0
M  V30 1265 H 112.857 -1.24199 0.788223 0
M  V30 1266 H 114.815 -4.16193 -0.289704 0
M  V30 1267 H 113.445 -3.132 -0.781393 0
M  V30 1268 H 112.497 -3.44248 1.61857 0
M  V30 1269 H 113.809 -4.60294 1.92174 0
M  V30 1270 H 112.963 -6.06653 0.0758604 0
M  V30 1271 H 111.702 -4.86622 -0.324062 0
M  V30 1272 H 110.707 -5.13482 1.9651 0
M  V30 1273 H 111.932 -6.36873 2.35733 0
M  V30 1274 H 109.878 -6.55888 0.12138 0
M  V30 1275 H 109.795 -7.3786 1.64616 0
M  V30 1276 H 111.063 -7.77725 0.525795 0
M  V30 1277 N 115.292 -0.849877 -1.32721 0
M  V30 1278 C 116.517 -0.463856 -2.02146 0
M  V30 1279 C 116.942 0.930449 -1.63476 0
M  V30 1280 O 116.3 1.61033 -0.832952 0
M  V30 1281 C 116.348 -0.604955 -3.55489 0
M  V30 1282 O 115.452 0.36425 -4.10788 0
M  V30 1283 H 114.793 -0.187046 -0.637111 0
M  V30 1284 H 117.323 -1.14775 -1.69375 0
M  V30 1285 H 117.333 -0.490696 -4.05038 0
M  V30 1286 H 116.008 -1.62174 -3.82978 0
M  V30 1287 H 114.585 0.206628 -3.72327 0
M  V30 1288 N 116.77 1.45427 -0.607355 0
M  V30 1289 C 118.01 2.04128 -0.105458 0
M  V30 1290 C 118.374 1.46555 1.24039 0
M  V30 1291 O 119.575 1.96608 1.833 0
M  V30 1292 C 117.846 3.57338 -0.0665324 0
M  V30 1293 S 119.405 4.37201 0.374207 0
M  V30 1294 H 116.223 0.709278 -0.0494575 0
M  V30 1295 H 118.825 1.78139 -0.805404 0
M  V30 1296 H 117.529 3.96752 -1.04957 0
M  V30 1297 H 117.06 3.87902 0.655415 0
M  V30 1298 H 119.075 4.6888 1.62377 0
M  V30 1299 N 118.248 0.346503 1.53744 0
M  V30 1300 C 119.496 -0.248612 2.00565 0
M  V30 1301 C 119.817 -1.5083 1.23593 0
M  V30 1302 O 119.087 -1.92858 0.343912 0
M  V30 1303 H 117.667 -0.0948564 0.740953 0
M  V30 1304 H 120.329 0.468341 1.89189 0
M  V30 1305 H 119.425 -0.488994 3.08245 0
M  V30 1306 N 119.726 -1.57421 0.075193 0
M  V30 1307 C 121.142 -1.57099 -0.281444 0
M  V30 1308 C 121.342 -1.08486 -1.69803 0
M  V30 1309 O 120.398 -0.752279 -2.41033 0
M  V30 1310 C 121.711 -3.00571 -0.0880041 0
M  V30 1311 C 123.259 -3.12605 -0.157281 0
M  V30 1312 C 123.734 -4.57999 0.0079207 0
M  V30 1313 N 125.225 -4.63176 -0.0475725 0
M  V30 1314 C 125.96 -5.73373 0.0557876 0
M  V30 1315 N 125.456 -6.92473 0.21286 0
M  V30 1316 N 127.249 -5.621 -0.00152098 0
M  V30 1317 H 119.4 -1.87335 1.00098 0
M  V30 1318 H 121.663 -0.86377 0.390646 0
M  V30 1319 H 121.369 -3.40262 0.889629 0
M  V30 1320 H 121.243 -3.67754 -0.838875 0
M  V30 1321 H 123.63 -2.72798 -1.1254 0
M  V30 1322 H 123.711 -2.48053 0.62475 0
M  V30 1323 H 123.355 -4.98496 0.972824 0
M  V30 1324 H 123.285 -5.20586 -0.793556 0
M  V30 1325 H 125.776 -3.7753 -0.167244 0
M  V30 1326 H 126.089 -7.72279 0.283781 0
M  V30 1327 H 124.434 -6.94556 0.248267 0
M  V30 1328 H 127.625 -4.67938 -0.122958 0
M  V30 1329 H 127.798 -6.47948 0.0824844 0
M  V30 1330 N 121.204 0.198386 -1.56346 0
M  V30 1331 C 122.481 0.944982 -1.71258 0
M  V30 1332 C 122.861 2.0151 -0.629048 0
M  V30 1333 O 122.209 2.25639 0.360473 0
M  V30 1334 C 122.419 1.5344 -3.1346 0
M  V30 1335 C 123.767 2.01778 -3.73591 0
M  V30 1336 O 124.791 1.63288 -3.16568 0
M  V30 1337 O 123.65 2.72594 -4.73661 0
M  V30 1338 H 120.744 0.442939 -0.69838 0
M  V30 1339 H 123.29 0.188342 -1.68652 0
M  V30 1340 H 122.062 0.762869 -3.83792 0
M  V30 1341 H 121.685 2.35596 -3.20282 0
M  V30 1342 N 122.682 1.50554 0.465978 0
M  V30 1343 C 123.93 1.61479 1.21528 0
M  V30 1344 C 124.251 0.319596 1.92363 0
M  V30 1345 O 123.521 -0.663194 1.84333 0
M  V30 1346 H 122.101 0.595055 0.451573 0
M  V30 1347 H 124.763 1.87355 0.53704 0
M  V30 1348 H 123.859 2.42846 1.96042 0
M  V30 1349 N 124.16 -0.719506 1.40217 0
M  V30 1350 C 125.407 -1.47933 1.38283 0
M  V30 1351 C 125.735 -1.94493 -0.0161536 0
M  V30 1352 O 124.99 -1.68224 -0.999956 0
M  V30 1353 C 125.289 -2.72271 2.31524 0
M  V30 1354 C 124.955 -2.44496 3.78857 0
M  V30 1355 C 123.617 -2.36631 4.18998 0
M  V30 1356 C 125.969 -2.21104 4.71977 0
M  V30 1357 C 123.297 -2.03437 5.503 0
M  V30 1358 C 125.649 -1.89423 6.03574 0
M  V30 1359 C 124.313 -1.80038 6.42762 0
M  V30 1360 H 123.583 -0.541325 0.506012 0
M  V30 1361 H 126.23 -0.824502 1.72842 0
M  V30 1362 H 124.535 -3.42572 1.90137 0
M  V30 1363 H 126.232 -3.30348 2.27313 0
M  V30 1364 H 122.822 -2.51503 3.47051 0
M  V30 1365 H 127.006 -2.26139 4.41786 0
M  V30 1366 H 122.262 -1.94705 5.79569 0
M  V30 1367 H 126.436 -1.70336 6.75247 0
M  V30 1368 H 124.063 -1.54083 7.44421 0
M  V30 1369 N 125.638 -1.25649 -0.95132 0
M  V30 1370 C 126.588 -1.03004 -2.03406 0
M  V30 1371 C 127.572 0.034187 -1.60864 0
M  V30 1372 O 128.764 -0.181549 -1.76066 0
M  V30 1373 C 125.893 -0.654255 -3.37008 0
M  V30 1374 C 124.979 -1.75542 -3.86065 0
M  V30 1375 N 125.37 -2.99113 -4.07879 0
M  V30 1376 C 123.668 -1.63669 -4.14884 0
M  V30 1377 C 124.369 -3.70611 -4.48356 0
M  V30 1378 N 123.345 -2.98247 -4.54477 0
M  V30 1379 H 127.147 -1.96813 -2.1827 0
M  V30 1380 H 124.661 -1.16017 -1.13639 0
M  V30 1381 H 126.658 -0.473206 -4.14206 0
M  V30 1382 H 125.318 0.276468 -3.23521 0
M  V30 1383 H 126.329 -3.35124 -3.94857 0
M  V30 1384 H 123.006 -0.775161 -4.10241 0
M  V30 1385 H 124.396 -4.76695 -4.73509 0
M  V30 1386 N 127.117 1.15442 -1.07289 0
M  V30 1387 C 128.05 2.19135 -0.636798 0
M  V30 1388 C 129.028 1.58884 0.34562 0
M  V30 1389 O 130.212 1.86805 0.252195 0
M  V30 1390 C 127.339 3.38638 0.0650014 0
M  V30 1391 C 126.385 4.17412 -0.87576 0
M  V30 1392 S 127.218 4.79882 -2.37642 0
M  V30 1393 C 128.374 6.02753 -1.6864 0
M  V30 1394 H 128.607 2.55787 -1.51526 0
M  V30 1395 H 126.14 1.26394 -0.886793 0
M  V30 1396 H 128.098 4.07873 0.463664 0
M  V30 1397 H 126.759 3.00331 0.919801 0
M  V30 1398 H 125.952 5.02909 -0.33143 0
M  V30 1399 H 125.554 3.53722 -1.21478 0
M  V30 1400 H 127.846 6.70113 -0.997753 0
M  V30 1401 H 128.789 6.61754 -2.51967 0
M  V30 1402 H 129.197 5.52355 -1.16465 0
M  V30 1403 N 128.595 0.856903 1.32268 0
M  V30 1404 C 130.011 0.547061 1.49931 0
M  V30 1405 C 130.211 -0.921781 1.7918 0
M  V30 1406 O 129.267 -1.70469 1.8627 0
M  V30 1407 C 130.58 1.43599 2.64196 0
M  V30 1408 C 132.128 1.43665 2.78081 0
M  V30 1409 C 132.603 2.31085 3.95428 0
M  V30 1410 N 134.094 2.28893 4.02694 0
M  V30 1411 C 134.829 2.93262 4.92732 0
M  V30 1412 N 134.325 3.66751 5.87763 0
M  V30 1413 N 136.118 2.82638 4.85873 0
M  V30 1414 H 128.269 1.8075 1.11549 0
M  V30 1415 H 130.532 0.772144 0.549997 0
M  V30 1416 H 130.238 2.48058 2.49319 0
M  V30 1417 H 130.112 1.12502 3.60032 0
M  V30 1418 H 132.499 0.399701 2.92381 0
M  V30 1419 H 132.58 1.7878 1.82952 0
M  V30 1420 H 132.224 3.34849 3.81888 0
M  V30 1421 H 132.154 1.93302 4.89839 0
M  V30 1422 H 134.645 1.75466 3.34694 0
M  V30 1423 H 134.958 4.13027 6.53168 0
M  V30 1424 H 133.303 3.70859 5.87783 0
M  V30 1425 H 136.494 2.24774 4.10602 0
M  V30 1426 H 136.667 3.33084 5.55841 0
M  V30 1427 N 130.073 -1.45103 0.615059 0
M  V30 1428 C 131.319 -2.02483 0.113347 0
M  V30 1429 C 131.652 -1.48146 -1.25564 0
M  V30 1430 O 130.927 -0.659104 -1.82992 0
M  V30 1431 C 131.21 -3.60005 0.0825278 0
M  V30 1432 C 131.063 -4.2466 1.48271 0
M  V30 1433 C 132.382 -4.35972 -0.601401 0
M  V30 1434 H 129.501 -0.735764 0.0426632 0
M  V30 1435 H 132.143 -1.72868 0.788461 0
M  V30 1436 H 130.293 -3.85367 -0.492378 0
M  V30 1437 H 131.965 -4.10458 2.10527 0
M  V30 1438 H 130.208 -3.82772 2.04127 0
M  V30 1439 H 130.879 -5.336 1.41332 0
M  V30 1440 H 133.355 -4.15947 -0.112666 0
M  V30 1441 H 132.231 -5.45697 -0.592097 0
M  V30 1442 H 132.492 -4.09391 -1.66887 0
M  V30 1443 N 131.551 -0.354651 -1.53558 0
M  V30 1444 C 132.967 -0.00315426 -1.596 0
M  V30 1445 C 133.167 1.47741 -1.37021 0
M  V30 1446 O 132.223 2.23759 -1.16996 0
M  V30 1447 C 133.536 -0.44929 -2.97325 0
M  V30 1448 C 135.084 -0.402578 -3.104 0
M  V30 1449 C 135.559 -0.824355 -4.5052 0
M  V30 1450 N 137.05 -0.778979 -4.56603 0
M  V30 1451 C 137.785 -1.07715 -5.63192 0
M  V30 1452 N 137.281 -1.44405 -6.77583 0
M  V30 1453 N 139.074 -1.00066 -5.53121 0
M  V30 1454 H 131.225 -1.31893 -1.66487 0
M  V30 1455 H 133.488 -0.538388 -0.780284 0
M  V30 1456 H 133.194 -1.48202 -3.1895 0
M  V30 1457 H 133.068 0.169772 -3.76818 0
M  V30 1458 H 135.455 0.621004 -2.88492 0
M  V30 1459 H 135.536 -1.05699 -2.32941 0
M  V30 1460 H 135.18 -1.846 -4.73165 0
M  V30 1461 H 135.11 -0.147304 -5.26394 0
M  V30 1462 H 137.601 -0.508528 -3.74463 0
M  V30 1463 H 137.914 -1.65612 -7.54846 0
M  V30 1464 H 136.259 -1.4826 -6.79002 0
M  V30 1465 H 139.45 -0.713293 -4.62633 0
M  V30 1466 H 139.623 -1.23638 -6.36096 0
M  V30 1467 N 133.029 1.57378 -0.0835403 0
M  V30 1468 C 133.959 2.1641 0.87686 0
M  V30 1469 C 134.94 1.09429 1.30228 0
M  V30 1470 O 136.125 1.37516 1.37124 0
M  V30 1471 C 133.255 2.73517 2.14022 0
M  V30 1472 C 132.209 3.85769 1.85381 0
M  V30 1473 C 131.535 4.29529 3.18448 0
M  V30 1474 C 132.835 5.09486 1.14984 0
M  V30 1475 H 134.529 2.96914 0.385059 0
M  V30 1476 H 132.075 1.42823 0.18377 0
M  V30 1477 H 134.028 3.13463 2.81636 0
M  V30 1478 H 132.752 1.90252 2.65465 0
M  V30 1479 H 131.411 3.46345 1.20169 0
M  V30 1480 H 131.059 3.43169 3.67755 0
M  V30 1481 H 130.759 5.05204 3.00071 0
M  V30 1482 H 132.283 4.72099 3.8724 0
M  V30 1483 H 133.697 5.46674 1.72687 0
M  V30 1484 H 132.094 5.90515 1.06826 0
M  V30 1485 H 133.164 4.84724 0.130749 0
M  V30 1486 N 134.507 -0.190092 1.56449 0
M  V30 1487 C 135.457 -1.23977 1.91347 0
M  V30 1488 C 136.441 -1.40747 0.779693 0
M  V30 1489 O 137.633 -1.43033 1.04262 0
M  V30 1490 C 134.762 -2.58347 2.26079 0
M  V30 1491 C 133.848 -2.4535 3.45925 0
M  V30 1492 N 134.239 -2.02039 4.63696 0
M  V30 1493 C 132.537 -2.76229 3.50162 0
M  V30 1494 C 133.238 -2.01053 5.4585 0
M  V30 1495 N 132.214 -2.42747 4.8639 0
M  V30 1496 H 136.016 -0.896318 2.79899 0
M  V30 1497 H 133.53 -0.398496 1.57435 0
M  V30 1498 H 135.527 -3.34173 2.49267 0
M  V30 1499 H 134.187 -2.93512 1.38856 0
M  V30 1500 H 135.198 -1.7267 4.88268 0
M  V30 1501 H 131.875 -3.15556 2.73369 0
M  V30 1502 H 133.265 -1.69426 6.50188 0
M  V30 1503 N 135.985 -1.50799 -0.457987 0
M  V30 1504 C 137.396 -1.55152 -1.0385 0
M  V30 1505 C 137.747 -0.362719 -1.92818 0
M  V30 1506 O 136.872 0.522915 -2.09987 0
M  V30 1507 C 137.467 -2.81173 -1.89017 0
M  V30 1508 C 136.026 -2.88164 -2.42154 0
M  V30 1509 C 135.173 -2.49591 -1.20829 0
M  V30 1510 H 138.124 -1.56874 -0.240068 0
M  V30 1511 H 138.145 -2.63769 -2.74238 0
M  V30 1512 H 137.657 -3.67677 -1.24238 0
M  V30 1513 H 135.758 -2.06042 -3.10447 0
M  V30 1514 H 135.871 -3.91356 -2.76364 0
M  V30 1515 H 134.235 -2.02322 -1.54719 0
M  V30 1516 H 135.018 -3.38418 -0.576927 0
M  V30 1517 N 137.463 0.71206 -1.40597 0
M  V30 1518 C 138.71 1.47197 -1.39065 0
M  V30 1519 C 139.038 1.94499 0.00583891 0
M  V30 1520 O 138.293 1.68752 0.99102 0
M  V30 1521 C 138.592 2.71039 -2.32965 0
M  V30 1522 C 138.258 2.42484 -3.80148 0
M  V30 1523 C 136.92 2.34406 -4.20247 0
M  V30 1524 C 139.272 2.18598 -4.73143 0
M  V30 1525 C 136.6 2.00516 -5.51371 0
M  V30 1526 C 138.952 1.8622 -6.0457 0
M  V30 1527 C 137.616 1.76626 -6.43708 0
M  V30 1528 H 136.886 0.538634 -0.508876 0
M  V30 1529 H 139.533 0.815325 -1.73276 0
M  V30 1530 H 137.838 3.41558 -1.91951 0
M  V30 1531 H 139.535 3.29138 -2.29061 0
M  V30 1532 H 136.125 2.49659 -3.4838 0
M  V30 1533 H 140.309 2.23793 -4.42979 0
M  V30 1534 H 135.565 1.91628 -5.80593 0
M  V30 1535 H 139.739 1.66752 -6.76141 0
M  V30 1536 H 137.366 1.50133 -7.45228 0
M  V30 1537 N 138.941 1.26152 0.944643 0
M  V30 1538 C 139.891 1.04081 2.02857 0
M  V30 1539 C 140.875 -0.0256555 1.6088 0
M  V30 1540 O 142.067 0.190884 1.75968 0
M  V30 1541 C 139.196 0.672118 3.36656 0
M  V30 1542 C 138.282 1.77586 3.85128 0
M  V30 1543 N 138.673 3.01272 4.06287 0
M  V30 1544 C 136.971 1.65867 4.1401 0
M  V30 1545 C 137.672 3.72983 4.46384 0
M  V30 1546 N 136.648 3.00653 4.52889 0
M  V30 1547 H 140.45 1.97968 2.17223 0
M  V30 1548 H 137.964 1.16618 1.13022 0
M  V30 1549 H 139.961 0.495166 4.13949 0
M  V30 1550 H 138.621 -0.259307 3.23663 0
M  V30 1551 H 139.632 3.37213 3.93075 0
M  V30 1552 H 136.309 0.796907 4.09824 0
M  V30 1553 H 137.699 4.792 4.70975 0
M  V30 1554 N 140.419 -1.14872 1.07899 0
M  V30 1555 C 141.665 -1.86064 0.806725 0
M  V30 1556 C 141.998 -1.82434 -0.665706 0
M  V30 1557 O 141.273 -1.25138 -1.48899 0
M  V30 1558 C 141.556 -3.34929 1.32267 0
M  V30 1559 C 141.409 -3.47161 2.86006 0
M  V30 1560 C 142.728 -4.29863 0.943717 0
M  V30 1561 H 139.847 -0.675591 0.294526 0
M  V30 1562 H 142.489 -1.34925 1.33773 0
M  V30 1563 H 140.639 -3.78611 0.870974 0
M  V30 1564 H 142.311 -3.12302 3.39507 0
M  V30 1565 H 140.554 -2.88539 3.23925 0
M  V30 1566 H 141.225 -4.51777 3.17177 0
M  V30 1567 H 143.701 -3.9417 1.33302 0
M  V30 1568 H 142.577 -5.32494 1.33198 0
M  V30 1569 H 142.838 -4.41846 -0.149796 0
M  V30 1570 N 141.898 -0.863906 -1.31812 0
M  V30 1571 C 143.147 -0.46801 -1.96195 0
M  V30 1572 C 143.46 0.983474 -1.69077 0
M  V30 1573 O 144.666 1.48523 -2.27273 0
M  V30 1574 C 143.122 -0.785995 -3.51212 0
M  V30 1575 C 142.73 -2.25383 -3.87178 0
M  V30 1576 C 144.474 -0.458274 -4.22019 0
M  V30 1577 C 142.381 -2.51455 -5.3528 0
M  V30 1578 H 141.311 -0.171283 -0.734287 0
M  V30 1579 H 143.962 -1.05597 -1.50072 0
M  V30 1580 H 142.344 -0.127359 -3.95795 0
M  V30 1581 H 143.518 -2.95502 -3.53575 0
M  V30 1582 H 141.833 -2.54698 -3.2942 0
M  V30 1583 H 144.43 -0.630369 -5.30971 0
M  V30 1584 H 144.773 0.600834 -4.11941 0
M  V30 1585 H 145.306 -1.07319 -3.8305 0
M  V30 1586 H 142.045 -3.56025 -5.50387 0
M  V30 1587 H 141.565 -1.85923 -5.70257 0
M  V30 1588 H 143.244 -2.35874 -6.02472 0
M  V30 1589 N 143.376 1.44774 -0.622745 0
M  V30 1590 C 144.792 1.56986 -0.287652 0
M  V30 1591 C 144.992 1.61167 1.20944 0
M  V30 1592 O 144.048 1.55015 1.99315 0
M  V30 1593 C 145.361 2.84551 -0.972188 0
M  V30 1594 C 146.909 2.9825 -0.949536 0
M  V30 1595 C 147.384 4.28605 -1.61437 0
M  V30 1596 N 148.875 4.35399 -1.58057 0
M  V30 1597 C 149.61 5.34964 -2.064 0
M  V30 1598 N 149.106 6.40981 -2.62897 0
M  V30 1599 N 150.899 5.26419 -1.97078 0
M  V30 1600 H 143.05 1.40304 -1.59463 0
M  V30 1601 H 145.313 0.671794 -0.668878 0
M  V30 1602 H 145.019 2.87417 -2.02693 0
M  V30 1603 H 144.893 3.73807 -0.504771 0
M  V30 1604 H 147.28 2.94941 0.0967067 0
M  V30 1605 H 147.361 2.10364 -1.45536 0
M  V30 1606 H 147.005 4.32672 -2.66002 0
M  V30 1607 H 146.935 5.15334 -1.08344 0
M  V30 1608 H 149.426 3.59397 -1.16801 0
M  V30 1609 H 149.739 7.13225 -2.97539 0
M  V30 1610 H 148.084 6.4169 -2.66943 0
M  V30 1611 H 151.275 4.42504 -1.52669 0
M  V30 1612 H 151.448 6.03861 -2.35066 0
M  V30 1613 N 144.854 0.36279 1.53368 0
M  V30 1614 C 146.103 -0.22888 2.00397 0
M  V30 1615 C 146.416 -1.50096 1.25421 0
M  V30 1616 O 147.622 -2.17106 1.63025 0
M  V30 1617 C 146.078 -0.458417 3.56969 0
M  V30 1618 C 145.686 0.798877 4.4082 0
M  V30 1619 C 147.43 -1.00789 4.12361 0
M  V30 1620 C 145.337 0.539078 5.88938 0
M  V30 1621 H 144.267 -0.089305 0.748693 0
M  V30 1622 H 146.918 0.481099 1.77081 0
M  V30 1623 H 145.3 -1.22959 3.76427 0
M  V30 1624 H 146.474 1.57262 4.33134 0
M  V30 1625 H 144.789 1.27137 3.96516 0
M  V30 1626 H 147.386 -1.21754 5.20653 0
M  V30 1627 H 147.729 -1.9692 3.66781 0
M  V30 1628 H 148.262 -0.296961 3.9669 0
M  V30 1629 H 145.001 1.47064 6.3879 0
M  V30 1630 H 144.521 -0.196222 5.99479 0
M  V30 1631 H 146.2 0.163542 6.46793 0
M  V30 1632 N 146.332 -1.57332 0.0918853 0
M  V30 1633 C 147.28 -2.15075 -0.885747 0
M  V30 1634 C 148.274 -1.09277 -1.29441 0
M  V30 1635 O 149.48 -1.27627 -1.26931 0
M  V30 1636 H 145.855 -0.687966 -0.303656 0
M  V30 1637 H 147.826 -2.96047 -0.373995 0
M  V30 1638 C 146.575 -2.74325 -2.13638 0
M  V30 1639 H 145.898 -3.55418 -1.8308 0
M  V30 1640 H 147.338 -3.183 -2.80109 0
M  V30 1641 C 145.797 -1.70062 -2.90827 0
M  V30 1642 O 146.327 -1.13763 -3.85254 0
M  V30 1643 N 144.533 -1.40628 -2.54307 0
M  V30 1644 H 144.08 -1.866 -1.7759 0
M  V30 1645 H 144.038 -0.711043 -3.06254 0
M  V30 1646 N 147.81 0.181792 -1.56548 0
M  V30 1647 C 148.757 1.22521 -1.95595 0
M  V30 1648 C 149.727 1.4454 -0.818373 0
M  V30 1649 O 150.912 1.57454 -1.07763 0
M  V30 1650 C 148.052 2.56193 -2.31212 0
M  V30 1651 C 147.165 2.41641 -3.58097 0
M  V30 1652 C 146.3 3.68108 -3.82975 0
M  V30 1653 C 145.339 3.48445 -5.03242 0
M  V30 1654 N 144.476 4.66956 -5.24306 0
M  V30 1655 H 149.316 0.885226 -2.84548 0
M  V30 1656 H 146.853 0.425718 -1.40805 0
M  V30 1657 H 148.811 3.34088 -2.49882 0
M  V30 1658 H 147.441 2.88208 -1.45382 0
M  V30 1659 H 146.493 1.54976 -3.474 0
M  V30 1660 H 147.805 2.23052 -4.46149 0
M  V30 1661 H 146.959 4.54441 -4.01956 0
M  V30 1662 H 145.698 3.89666 -2.93278 0
M  V30 1663 H 144.703 2.60499 -4.8417 0
M  V30 1664 H 145.928 3.2832 -5.9446 0
M  V30 1665 H 143.874 4.88752 -4.37559 0
M  V30 1666 H 143.791 4.51242 -6.06561 0
M  V30 1667 H 145.059 5.54602 -5.47756 0
M  V30 1668 N 149.288 1.51039 0.449983 0
M  V30 1669 C 150.221 1.66105 1.56474 0
M  V30 1670 C 151.199 0.508776 1.54435 0
M  V30 1671 O 152.383 0.731005 1.73749 0
M  V30 1672 C 149.51 1.66304 2.9506 0
M  V30 1673 C 148.556 2.87346 3.15174 0
M  V30 1674 S 149.389 4.4835 2.92818 0
M  V30 1675 C 150.545 4.51274 4.33708 0
M  V30 1676 H 150.778 2.60397 1.43459 0
M  V30 1677 H 148.311 1.40565 0.638805 0
M  V30 1678 H 150.269 1.67103 3.74949 0
M  V30 1679 H 148.93 0.732108 3.05449 0
M  V30 1680 H 148.123 2.83849 4.16468 0
M  V30 1681 H 147.725 2.84223 2.43091 0
M  V30 1682 H 150.017 4.26136 5.26701 0
M  V30 1683 H 150.96 5.53017 4.42242 0
M  V30 1684 H 151.368 3.80738 4.16772 0
M  V30 1685 N 150.766 -0.704594 1.40972 0
M  V30 1686 C 151.696 -1.83124 1.44872 0
M  V30 1687 C 152.677 -1.67281 0.30838 0
M  V30 1688 O 153.862 -1.87149 0.518556 0
M  V30 1689 C 150.992 -3.21181 1.32136 0
M  V30 1690 C 149.946 -3.51714 2.43888 0
M  V30 1691 C 149.272 -4.89032 2.16222 0
M  V30 1692 C 150.572 -3.516 3.86232 0
M  V30 1693 H 152.266 -1.80117 2.39161 0
M  V30 1694 H 149.812 -0.865145 1.15114 0
M  V30 1695 H 151.765 -3.99702 1.33479 0
M  V30 1696 H 150.489 -3.24791 0.343279 0
M  V30 1697 H 149.148 -2.75539 2.41813 0
M  V30 1698 H 148.796 -4.89256 1.16778 0
M  V30 1699 H 148.496 -5.10426 2.911 0
M  V30 1700 H 150.02 -5.69873 2.19265 0
M  V30 1701 H 151.434 -4.2014 3.9007 0
M  V30 1702 H 149.831 -3.84523 4.60719 0
M  V30 1703 H 150.901 -2.50757 4.15029 0
M  V30 1704 N 152.244 -1.26651 -0.937939 0
M  V30 1705 C 153.469 -1.15279 -1.72411 0
M  V30 1706 C 153.894 0.287866 -1.85884 0
M  V30 1707 O 153.252 1.20855 -1.35143 0
M  V30 1708 C 153.3 -1.83028 -3.10698 0
M  V30 1709 O 152.404 -1.12128 -3.96864 0
M  V30 1710 H 151.745 -0.401504 -0.528858 0
M  V30 1711 H 154.275 -1.67531 -1.1745 0
M  V30 1712 H 154.285 -1.89981 -3.6107 0
M  V30 1713 H 152.96 -2.87833 -3.00208 0
M  V30 1714 H 151.537 -1.13173 -3.55312 0
M  V30 1715 N 153.722 1.14298 -1.08507 0
M  V30 1716 C 154.962 1.87016 -0.824894 0
M  V30 1717 C 155.326 1.81099 0.637735 0
M  V30 1718 O 156.527 2.48963 1.01345 0
M  V30 1719 C 154.798 3.31584 -1.33368 0
M  V30 1720 S 156.357 4.21903 -1.20596 0
M  V30 1721 H 153.175 0.645259 -0.2986 0
M  V30 1722 H 155.777 1.37822 -1.38656 0
M  V30 1723 H 154.481 3.33439 -2.39262 0
M  V30 1724 H 154.012 3.85836 -0.767734 0
M  V30 1725 H 156.027 4.95971 -0.150891 0
M  V30 1726 N 155.201 0.870884 1.31352 0
M  V30 1727 C 156.164 0.332243 2.26779 0
M  V30 1728 C 157.164 -0.517302 1.52252 0
M  V30 1729 O 158.354 -0.326477 1.71113 0
M  V30 1730 C 155.486 -0.528066 3.36785 0
M  V30 1731 H 156.679 1.17469 2.75937 0
M  V30 1732 H 154.232 0.64655 1.423 0
M  V30 1733 H 154.967 -1.39167 2.92922 0
M  V30 1734 H 154.752 0.0802582 3.92018 0
M  V30 1735 H 156.242 -0.897179 4.07849 0
M  V30 1736 N 156.679 -1.44442 0.630414 0
M  V30 1737 C 157.927 -2.01653 0.134351 0
M  V30 1738 C 158.248 -1.49836 -1.24796 0
M  V30 1739 O 157.518 -0.701684 -1.82902 0
M  V30 1740 H 156.098 -0.74554 0.0466769 0
M  V30 1741 H 158.76 -1.76952 0.816955 0
M  V30 1742 H 157.856 -3.11935 0.101498 0
M  V30 1743 N 158.157 -0.370918 -1.53173 0
M  V30 1744 C 159.12 0.460778 -2.24521 0
M  V30 1745 C 160.12 1.00536 -1.25496 0
M  V30 1746 O 161.31 0.890266 -1.49733 0
M  V30 1747 C 158.442 1.64457 -2.98608 0
M  V30 1748 H 159.635 -0.163613 -2.99453 0
M  V30 1749 H 157.188 -0.122699 -1.55818 0
M  V30 1750 H 157.923 2.30691 -2.2793 0
M  V30 1751 H 157.708 1.26099 -3.7127 0
M  V30 1752 H 159.198 2.23384 -3.5283 0
M  V30 1753 N 159.635 1.57281 -0.100228 0
M  V30 1754 C 160.912 1.86014 0.604812 0
M  V30 1755 C 161.292 0.998025 1.86018 0
M  V30 1756 O 160.64 0.0718184 2.28387 0
M  V30 1757 C 160.85 3.36784 0.915278 0
M  V30 1758 C 162.198 4.04957 1.27651 0
M  V30 1759 O 163.222 3.41695 1.00613 0
M  V30 1760 O 162.081 5.16593 1.7831 0
M  V30 1761 H 159.175 0.76942 0.303185 0
M  V30 1762 H 161.721 1.69176 -0.133313 0
M  V30 1763 H 160.493 3.91292 0.0248896 0
M  V30 1764 H 160.116 3.58987 1.70921 0
M  V30 1765 N 161.113 -0.173488 1.56642 0
M  V30 1766 C 162.529 -0.525174 1.50712 0
M  V30 1767 C 162.729 -1.8476 0.804107 0
M  V30 1768 O 161.785 -2.49869 0.363574 0
M  V30 1769 C 163.098 -0.559937 2.95441 0
M  V30 1770 C 164.646 -0.647288 3.06234 0
M  V30 1771 C 165.121 -0.712963 4.52417 0
M  V30 1772 N 166.612 -0.775911 4.56655 0
M  V30 1773 C 167.347 -0.847264 5.67106 0
M  V30 1774 N 166.843 -0.879585 6.87194 0
M  V30 1775 N 168.636 -0.886117 5.55071 0
M  V30 1776 H 160.787 0.693681 2.00753 0
M  V30 1777 H 163.05 0.249841 0.914485 0
M  V30 1778 H 162.756 0.343049 3.50023 0
M  V30 1779 H 162.63 -1.40718 3.49969 0
M  V30 1780 H 165.017 -1.5407 2.51687 0
M  V30 1781 H 165.098 0.226586 2.54794 0
M  V30 1782 H 164.742 0.176183 5.07594 0
M  V30 1783 H 164.672 -1.60295 5.0161 0
M  V30 1784 H 167.163 -0.759304 3.70193 0
M  V30 1785 H 167.476 -0.935144 7.67121 0
M  V30 1786 H 165.821 -0.847898 6.89808 0
M  V30 1787 H 169.012 -0.857853 4.60172 0
M  V30 1788 H 169.185 -0.938263 6.41171 0
M  V30 1789 N 162.591 -1.51276 -0.441967 0
M  V30 1790 C 163.521 -1.752 -1.54361 0
M  V30 1791 C 164.502 -0.601682 -1.59103 0
M  V30 1792 O 165.687 -0.843913 -1.74905 0
M  V30 1793 C 162.817 -1.87282 -2.92477 0
M  V30 1794 C 161.771 -3.02687 -3.02596 0
M  V30 1795 C 161.097 -2.99947 -4.42647 0
M  V30 1796 C 162.397 -4.4273 -2.77106 0
M  V30 1797 H 164.091 -2.67442 -1.34592 0
M  V30 1798 H 161.637 -1.28694 -0.646048 0
M  V30 1799 H 163.59 -2.02602 -3.695 0
M  V30 1800 H 162.314 -0.916844 -3.13467 0
M  V30 1801 H 160.973 -2.87065 -2.28012 0
M  V30 1802 H 160.621 -2.02136 -4.60597 0
M  V30 1803 H 160.321 -3.77439 -4.50348 0
M  V30 1804 H 161.845 -3.17354 -5.2165 0
M  V30 1805 H 163.259 -4.58727 -3.43864 0
M  V30 1806 H 161.656 -5.21893 -2.96222 0
M  V30 1807 H 162.726 -4.53087 -1.72744 0
M  V30 1808 N 164.069 0.697108 -1.41344 0
M  V30 1809 C 165.001 1.8224 -1.39001 0
M  V30 1810 C 166.014 1.60152 -0.292428 0
M  V30 1811 O 167.203 1.69684 -0.554048 0
M  V30 1812 C 164.303 3.18976 -1.14489 0
M  V30 1813 C 163.476 3.68105 -2.36258 0
M  V30 1814 C 162.535 4.83506 -2.07625 0
M  V30 1815 O 161.561 4.95201 -2.8065 0
M  V30 1816 N 162.763 5.70637 -1.06555 0
M  V30 1817 H 165.528 1.84742 -2.35988 0
M  V30 1818 H 163.089 0.87937 -1.35936 0
M  V30 1819 H 165.081 3.93801 -0.932885 0
M  V30 1820 H 163.651 3.11508 -0.261043 0
M  V30 1821 H 162.871 2.84204 -2.7317 0
M  V30 1822 H 164.159 3.97667 -3.17393 0
M  V30 1823 H 163.557 5.63817 -0.461125 0
M  V30 1824 H 162.114 6.45368 -0.913444 0
M  V30 1825 N 165.547 1.27147 0.931209 0
M  V30 1826 C 166.775 1.16082 1.71267 0
M  V30 1827 C 167.19 -0.282772 1.8667 0
M  V30 1828 O 166.547 -1.19283 1.38122 0
M  V30 1829 C 166.598 1.8358 3.11417 0
M  V30 1830 O 166.319 3.22299 2.96741 0
M  V30 1831 C 167.82 1.78597 4.05732 0
M  V30 1832 H 165.04 0.403758 0.535929 0
M  V30 1833 H 167.584 1.67953 1.16671 0
M  V30 1834 H 165.739 1.35623 3.62885 0
M  V30 1835 H 166.153 3.55851 3.85319 0
M  V30 1836 H 167.627 2.30444 5.01597 0
M  V30 1837 H 168.104 0.754564 4.3267 0
M  V30 1838 H 168.71 2.26152 3.60188 0
M  V30 1839 N 167.025 -1.13721 1.09112 0
M  V30 1840 C 168.273 -1.84559 0.823562 0
M  V30 1841 C 168.594 -1.83754 -0.652658 0
M  V30 1842 O 167.864 -1.29102 -1.47342 0
M  V30 1843 H 166.444 -0.683376 0.301673 0
M  V30 1844 H 169.106 -1.37771 1.37859 0
M  V30 1845 H 168.202 -2.8917 1.17419 0
M  V30 1846 N 168.503 -0.877838 -1.30888 0
M  V30 1847 C 169.436 -0.283995 -2.26426 0
M  V30 1848 C 170.414 0.591361 -1.51465 0
M  V30 1849 O 171.598 0.54304 -1.80509 0
M  V30 1850 C 168.725 0.597129 -3.33395 0
M  V30 1851 C 167.771 -0.207937 -4.25993 0
M  V30 1852 S 168.604 -1.59158 -5.11301 0
M  V30 1853 C 169.76 -0.716791 -6.21782 0
M  V30 1854 H 169.993 -1.09383 -2.76446 0
M  V30 1855 H 167.526 -0.676828 -1.38775 0
M  V30 1856 H 169.484 1.09978 -3.95493 0
M  V30 1857 H 168.145 1.38099 -2.82113 0
M  V30 1858 H 167.338 0.464163 -5.01858 0
M  V30 1859 H 166.94 -0.642963 -3.68432 0
M  V30 1860 H 169.232 0.0692833 -6.77465 0
M  V30 1861 H 170.175 -1.44682 -6.93161 0
M  V30 1862 H 170.583 -0.280855 -5.63801 0
M  V30 1863 N 169.982 1.44106 -0.638065 0
M  V30 1864 C 171.398 1.56672 -0.304286 0
M  V30 1865 C 171.598 1.6244 1.19228 0
M  V30 1866 O 170.654 1.57121 1.9766 0
M  V30 1867 C 171.967 2.83503 -1.00231 0
M  V30 1868 C 173.515 2.97226 -0.981116 0
M  V30 1869 C 173.99 4.26868 -1.65974 0
M  V30 1870 N 175.481 4.33698 -1.62666 0
M  V30 1871 C 176.216 5.32745 -2.12063 0
M  V30 1872 N 175.712 6.38157 -2.6968 0
M  V30 1873 N 177.505 5.24299 -2.02651 0
M  V30 1874 H 169.656 1.38605 -1.60942 0
M  V30 1875 H 171.919 0.664661 -0.675965 0
M  V30 1876 H 171.625 2.85251 -2.0573 0
M  V30 1877 H 171.499 3.73251 -0.54439 0
M  V30 1878 H 173.886 2.95027 0.0654188 0
M  V30 1879 H 173.967 2.08808 -1.47759 0
M  V30 1880 H 173.611 4.29826 -2.70576 0
M  V30 1881 H 173.541 5.14156 -1.13804 0
M  V30 1882 H 176.032 3.58138 -1.20606 0
M  V30 1883 H 176.345 7.10029 -3.05087 0
M  V30 1884 H 174.69 6.38823 -2.73734 0
M  V30 1885 H 177.881 4.4086 -1.57353 0
M  V30 1886 H 178.054 6.01334 -2.41457 0
M  V30 1887 N 171.46 0.379036 1.52974 0
M  V30 1888 C 172.708 -0.206014 2.01047 0
M  V30 1889 C 173.029 -1.48175 1.26765 0
M  V30 1890 O 172.299 -1.92085 0.384743 0
M  V30 1891 H 170.879 -0.0791184 0.742798 0
M  V30 1892 H 173.541 0.508366 1.88153 0
M  V30 1893 H 172.637 -0.423501 3.09213 0
M  V30 1894 N 172.938 -1.57226 0.108567 0
M  V30 1895 C 173.901 -2.13602 -0.831082 0
M  V30 1896 C 174.901 -1.06841 -1.20173 0
M  V30 1897 O 176.091 -1.32666 -1.12895 0
M  V30 1898 C 173.223 -2.66769 -2.12243 0
M  V30 1899 H 174.416 -2.97951 -0.341317 0
M  V30 1900 H 171.969 -1.55667 -0.14057 0
M  V30 1901 H 172.704 -1.85977 -2.65675 0
M  V30 1902 H 172.489 -3.44839 -1.86625 0
M  V30 1903 H 173.979 -3.10332 -2.79435 0
M  V30 1904 N 174.416 0.165178 -1.56732 0
M  V30 1905 C 175.663 0.880807 -1.8234 0
M  V30 1906 C 175.991 1.81977 -0.686621 0
M  V30 1907 O 175.246 1.92971 0.325697 0
M  V30 1908 C 175.545 1.70405 -3.1416 0
M  V30 1909 C 175.211 0.913475 -4.4155 0
M  V30 1910 C 173.873 0.695303 -4.7615 0
M  V30 1911 C 176.225 0.359349 -5.1996 0
M  V30 1912 C 173.553 -0.0879947 -5.86634 0
M  V30 1913 C 175.905 -0.410893 -6.31264 0
M  V30 1914 C 174.569 -0.639808 -6.64427 0
M  V30 1915 H 173.839 0.32231 -0.667231 0
M  V30 1916 H 176.486 0.145402 -1.90947 0
M  V30 1917 H 174.791 2.50903 -3.00923 0
M  V30 1918 H 176.488 2.26091 -3.31186 0
M  V30 1919 H 173.078 1.09357 -4.14414 0
M  V30 1920 H 177.262 0.515228 -4.93618 0
M  V30 1921 H 172.518 -0.27503 -6.10781 0
M  V30 1922 H 176.692 -0.847494 -6.91224 0
M  V30 1923 H 174.319 -1.24864 -7.49875 0
M  V30 1924 N 175.894 1.51508 0.433938 0
M  V30 1925 C 177.142 1.6402 1.18075 0
M  V30 1926 C 177.463 0.360328 1.91642 0
M  V30 1927 O 176.733 -0.623945 1.85698 0
M  V30 1928 H 175.313 0.6045 0.43885 0
M  V30 1929 H 177.975 1.88452 0.497178 0
M  V30 1930 H 177.071 2.46949 1.90847 0
M  V30 1931 N 177.372 -0.689602 1.41712 0
M  V30 1932 C 178.319 -1.80345 1.44029 0
M  V30 1933 C 179.289 -1.63478 0.293948 0
M  V30 1934 O 180.474 -1.84244 0.495869 0
M  V30 1935 C 177.614 -3.18272 1.33405 0
M  V30 1936 C 176.727 -3.46529 2.57956 0
M  V30 1937 C 175.862 -4.74103 2.39582 0
M  V30 1938 C 174.901 -4.95347 3.5958 0
M  V30 1939 N 174.038 -6.14151 3.40239 0
M  V30 1940 H 178.878 -1.77698 2.39222 0
M  V30 1941 H 176.415 -0.867688 1.18784 0
M  V30 1942 H 178.373 -3.97956 1.25246 0
M  V30 1943 H 177.003 -3.2008 0.418164 0
M  V30 1944 H 176.055 -2.61207 2.76542 0
M  V30 1945 H 177.367 -3.58126 3.47199 0
M  V30 1946 H 176.521 -5.61853 2.28924 0
M  V30 1947 H 175.26 -4.64763 1.47805 0
M  V30 1948 H 174.265 -4.06044 3.70686 0
M  V30 1949 H 175.49 -5.06542 4.52318 0
M  V30 1950 H 173.436 -6.06013 2.51167 0
M  V30 1951 H 173.353 -6.26543 4.23061 0
M  V30 1952 H 174.621 -7.04619 3.33365 0
M  V30 1953 N 178.85 -1.27639 -0.924453 0
M  V30 1954 C 180.261 -1.12834 -1.48746 0
M  V30 1955 C 180.612 0.285505 -1.94112 0
M  V30 1956 O 179.737 1.17874 -1.81479 0
M  V30 1957 C 180.332 -2.04217 -2.70334 0
M  V30 1958 C 178.891 -1.93509 -3.22848 0
M  V30 1959 C 178.038 -1.96583 -1.95577 0
M  V30 1960 H 180.989 -1.40484 -0.738233 0
M  V30 1961 H 181.01 -1.59989 -3.4523 0
M  V30 1962 H 180.522 -3.07111 -2.37285 0
M  V30 1963 H 178.623 -0.936131 -3.60649 0
M  V30 1964 H 178.736 -2.79917 -3.88823 0
M  V30 1965 H 177.1 -1.4085 -2.12211 0
M  V30 1966 H 177.883 -3.01137 -1.64837 0
M  V30 1967 N 180.328 1.1314 -1.09713 0
M  V30 1968 C 181.26 2.18343 -0.697056 0
M  V30 1969 C 182.273 1.60669 0.262551 0
M  V30 1970 O 183.462 1.78435 0.0481527 0
M  V30 1971 C 180.562 3.38899 -0.00684728 0
M  V30 1972 C 179.735 4.26078 -0.988741 0
M  V30 1973 C 178.794 5.25155 -0.331394 0
M  V30 1974 O 177.82 5.60701 -0.979926 0
M  V30 1975 N 179.022 5.73271 0.913261 0
M  V30 1976 H 181.787 2.5328 -1.60216 0
M  V30 1977 H 179.348 1.28491 -0.984971 0
M  V30 1978 H 181.34 4.02255 0.444191 0
M  V30 1979 H 179.91 3.02175 0.800551 0
M  V30 1980 H 179.13 3.59453 -1.61826 0
M  V30 1981 H 180.418 4.81178 -1.65364 0
M  V30 1982 H 179.816 5.46544 1.45966 0
M  V30 1983 H 178.373 6.3855 1.30757 0
M  V30 1984 N 181.806 0.884767 1.30421 0
M  V30 1985 C 183.054 0.502112 1.95763 0
M  V30 1986 C 183.375 -0.951815 1.70192 0
M  V30 1987 O 182.645 -1.6692 1.0254 0
M  V30 1988 H 181.225 0.182694 0.724315 0
M  V30 1989 H 183.887 1.1278 1.58955 0
M  V30 1990 H 182.983 0.672188 3.04775 0
M  V30 1991 N 183.284 -1.43765 0.645699 0
M  V30 1992 C 184.512 -2.06253 0.163556 0
M  V30 1993 C 184.927 -1.48352 -1.16778 0
M  V30 1994 O 184.284 -0.611932 -1.71935 0
M  V30 1995 C 184.335 -3.61453 0.0583186 0
M  V30 1996 O 184.056 -4.172 1.33702 0
M  V30 1997 C 185.557 -4.41002 -0.450795 0
M  V30 1998 H 182.777 -0.665413 0.0864077 0
M  V30 1999 H 185.321 -1.84396 0.884222 0
M  V30 2000 H 183.476 -3.82522 -0.612865 0
M  V30 2001 H 183.89 -5.10791 1.19131 0
M  V30 2002 H 185.364 -5.49966 -0.473403 0
M  V30 2003 H 185.841 -4.13488 -1.48068 0
M  V30 2004 H 186.447 -4.24886 0.187637 0
M  V30 2005 N 184.763 -0.387143 -1.52771 0
M  V30 2006 C 186.009 0.196025 -2.0185 0
M  V30 2007 C 186.342 1.46641 -1.27319 0
M  V30 2008 O 185.617 1.90889 -0.373032 0
M  V30 2009 C 185.9 0.466136 -3.5707 0
M  V30 2010 C 185.753 -0.819385 -4.42274 0
M  V30 2011 C 187.072 1.25768 -4.21747 0
M  V30 2012 H 184.191 0.0697708 -0.73369 0
M  V30 2013 H 186.833 -0.516286 -1.82851 0
M  V30 2014 H 184.983 1.07293 -3.7339 0
M  V30 2015 H 186.655 -1.4563 -4.37709 0
M  V30 2016 H 184.898 -1.43517 -4.09372 0
M  V30 2017 H 185.569 -0.585065 -5.48891 0
M  V30 2018 H 188.045 0.744167 -4.09391 0
M  V30 2019 H 186.921 1.41541 -5.30337 0
M  V30 2020 H 187.182 2.27228 -3.79236 0
M  V30 2021 N 186.241 1.57166 -0.116904 0
M  V30 2022 C 187.204 2.14039 0.819742 0
M  V30 2023 C 188.204 1.07477 1.19605 0
M  V30 2024 O 189.394 1.33263 1.1219 0
M  V30 2025 C 186.526 2.67891 2.10826 0
M  V30 2026 H 187.719 2.98128 0.325511 0
M  V30 2027 H 185.272 1.55739 0.132312 0
M  V30 2028 H 186.007 1.87384 2.64685 0
M  V30 2029 H 185.792 3.45823 1.84793 0
M  V30 2030 H 187.282 3.11809 2.77785 0
M  V30 2031 N 187.719 -0.156864 1.56817 0
M  V30 2032 C 189.135 -0.50916 1.5126 0
M  V30 2033 C 189.335 -1.83897 0.823658 0
M  V30 2034 O 188.391 -2.49469 0.390055 0
M  V30 2035 C 189.704 -0.52857 2.96018 0
M  V30 2036 C 191.252 -0.614771 3.06903 0
M  V30 2037 C 191.727 -0.664938 4.53147 0
M  V30 2038 N 193.218 -0.727433 4.57452 0
M  V30 2039 C 193.953 -0.787067 5.67973 0
M  V30 2040 N 193.449 -0.806649 6.88088 0
M  V30 2041 N 195.242 -0.827195 5.5598 0
M  V30 2042 H 187.393 0.714935 2.00006 0
M  V30 2043 H 189.656 0.259526 0.911784 0
M  V30 2044 H 189.362 0.380154 3.49639 0
M  V30 2045 H 189.236 -1.36998 3.51442 0
M  V30 2046 H 191.623 -1.51392 2.53307 0
M  V30 2047 H 191.704 0.253597 2.5454 0
M  V30 2048 H 191.348 0.230011 5.07379 0
M  V30 2049 H 191.278 -1.54966 5.03282 0
M  V30 2050 H 193.769 -0.719998 3.70978 0
M  V30 2051 H 194.082 -0.853727 7.6807 0
M  V30 2052 H 192.427 -0.774687 6.90669 0
M  V30 2053 H 195.618 -0.808998 4.61056 0
M  V30 2054 H 195.791 -0.870206 6.4213 0
M  V30 2055 N 189.197 -1.51736 -0.425897 0
M  V30 2056 C 190.443 -1.65214 -1.1761 0
M  V30 2057 C 190.776 -0.372778 -1.90589 0
M  V30 2058 O 190.051 0.628139 -1.84078 0
M  V30 2059 C 190.334 -2.86312 -2.18398 0
M  V30 2060 C 190.187 -4.24254 -1.49426 0
M  V30 2061 C 191.506 -3.02925 -3.19256 0
M  V30 2062 H 188.625 -0.601263 -0.426206 0
M  V30 2063 H 191.267 -1.8425 -0.463882 0
M  V30 2064 H 189.417 -2.70213 -2.79137 0
M  V30 2065 H 191.089 -4.52046 -0.919362 0
M  V30 2066 H 189.332 -4.26426 -0.796432 0
M  V30 2067 H 190.003 -5.05001 -2.22885 0
M  V30 2068 H 192.479 -3.1781 -2.68581 0
M  V30 2069 H 191.355 -3.89199 -3.8706 0
M  V30 2070 H 191.616 -2.15497 -3.86023 0
M  V30 2071 N 190.675 0.682077 -1.42076 0
M  V30 2072 C 191.625 1.78823 -1.41444 0
M  V30 2073 C 192.609 1.58323 -0.28681 0
M  V30 2074 O 193.801 1.68926 -0.528498 0
M  V30 2075 C 190.93 3.17232 -1.3122 0
M  V30 2076 C 190.016 3.4338 -2.489 0
M  V30 2077 N 190.407 3.40152 -3.7434 0
M  V30 2078 C 188.705 3.73986 -2.43003 0
M  V30 2079 C 189.406 3.65581 -4.52466 0
M  V30 2080 N 188.382 3.85989 -3.8277 0
M  V30 2081 H 192.184 1.7471 -2.36334 0
M  V30 2082 H 189.698 0.882622 -1.36321 0
M  V30 2083 H 191.695 3.96489 -1.2885 0
M  V30 2084 H 190.355 3.22547 -0.373263 0
M  V30 2085 H 191.366 3.20221 -4.07037 0
M  V30 2086 H 188.043 3.86591 -1.57651 0
M  V30 2087 H 189.433 3.69108 -5.61435 0
M  V30 2088 N 192.153 1.28127 0.917671 0
M  V30 2089 C 193.402 1.14432 1.66097 0
M  V30 2090 C 193.715 -0.307247 1.93172 0
M  V30 2091 O 194.921 -0.565259 2.65551 0
M  V30 2092 C 193.377 2.00015 2.99202 0
M  V30 2093 C 192.985 3.49889 2.79789 0
M  V30 2094 C 194.729 1.94996 3.77064 0
M  V30 2095 C 192.636 4.27636 4.08511 0
M  V30 2096 H 191.566 0.424662 0.62304 0
M  V30 2097 H 194.217 1.52628 1.01868 0
M  V30 2098 H 192.599 1.54672 3.64544 0
M  V30 2099 H 193.773 4.03162 2.23152 0
M  V30 2100 H 192.088 3.56392 2.15345 0
M  V30 2101 H 194.685 2.50354 4.72469 0
M  V30 2102 H 195.028 0.925819 4.05875 0
M  V30 2103 H 195.561 2.38287 3.18534 0
M  V30 2104 H 192.3 5.30615 3.84874 0
M  V30 2105 H 191.82 3.79137 4.64774 0
M  V30 2106 H 193.499 4.37346 4.76799 0
M  V30 2107 N 193.631 -1.12557 1.10312 0
M  V30 2108 C 194.879 -1.83675 0.843091 0
M  V30 2109 C 195.2 -1.84435 -0.633131 0
M  V30 2110 O 194.47 -1.30657 -1.45964 0
M  V30 2111 H 193.05 -0.680138 0.308904 0
M  V30 2112 H 195.712 -1.36301 1.39313 0
M  V30 2113 H 194.808 -2.87908 1.2048 0
M  V30 2114 N 195.109 -0.891671 -1.2995 0
M  V30 2115 C 196.041 -0.320695 -2.26945 0
M  V30 2116 C 197.054 0.528497 -1.53983 0
M  V30 2117 O 198.243 0.346959 -1.75096 0
M  V30 2118 C 195.343 0.562066 -3.34207 0
M  V30 2119 C 194.516 -0.259576 -4.36629 0
M  V30 2120 C 193.575 0.554739 -5.23268 0
M  V30 2121 O 192.601 -0.0249311 -5.69195 0
M  V30 2122 N 193.803 1.8625 -5.4981 0
M  V30 2123 H 196.568 -1.15432 -2.76578 0
M  V30 2124 H 194.129 -0.755336 -1.432 0
M  V30 2125 H 196.121 1.11304 -3.89093 0
M  V30 2126 H 194.691 1.29637 -2.84452 0
M  V30 2127 H 193.911 -0.991986 -3.81514 0
M  V30 2128 H 195.199 -0.822564 -5.02107 0
M  V30 2129 H 194.597 2.35628 -5.14292 0
M  V30 2130 H 193.154 2.36078 -6.07545 0
M  V30 2131 N 196.587 1.43421 -0.653314 0
M  V30 2132 C 197.833 2.02111 -0.166992 0
M  V30 2133 C 198.166 1.51423 1.21592 0
M  V30 2134 O 197.441 0.707389 1.8118 0
M  V30 2135 C 197.724 3.5966 -0.177948 0
M  V30 2136 C 197.577 4.20579 -1.59478 0
M  V30 2137 C 198.896 4.37413 0.4856 0
M  V30 2138 H 196.015 0.734374 -0.0621557 0
M  V30 2139 H 198.657 1.70717 -0.834016 0
M  V30 2140 H 196.807 3.86537 0.390032 0
M  V30 2141 H 198.479 4.04732 -2.21336 0
M  V30 2142 H 196.722 3.77226 -2.14204 0
M  V30 2143 H 197.393 5.29665 -1.5543 0
M  V30 2144 H 199.869 4.161 0.00234528 0
M  V30 2145 H 198.745 5.47075 0.447207 0
M  V30 2146 H 199.006 4.13672 1.55974 0
M  V30 2147 N 198.065 0.39524 1.52563 0
M  V30 2148 C 199.314 -0.186321 2.00838 0
M  V30 2149 C 199.627 -1.47402 1.28577 0
M  V30 2150 O 200.833 -2.13599 1.67593 0
M  V30 2151 C 199.289 -0.382595 3.57861 0
M  V30 2152 C 198.897 0.892202 4.39026 0
M  V30 2153 C 200.641 -0.9202 4.14406 0
M  V30 2154 C 198.548 0.66388 5.87662 0
M  V30 2155 H 197.478 -0.0734041 0.750418 0
M  V30 2156 H 200.129 0.518552 1.76021 0
M  V30 2157 H 198.511 -1.14946 3.7895 0
M  V30 2158 H 199.685 1.66414 4.29701 0
M  V30 2159 H 198 1.35519 3.9373 0
M  V30 2160 H 200.597 -1.10683 5.23119 0
M  V30 2161 H 200.94 -1.89096 3.70875 0
M  V30 2162 H 201.473 -0.212751 3.97231 0
M  V30 2163 H 198.212 1.6058 6.35527 0
M  V30 2164 H 197.732 -0.0690193 5.9976 0
M  V30 2165 H 199.411 0.300699 6.46301 0
M  V30 2166 N 199.544 -1.57102 0.125237 0
M  V30 2167 C 200.477 -2.11371 -0.860094 0
M  V30 2168 C 201.455 -1.03168 -1.25679 0
M  V30 2169 O 202.639 -1.30862 -1.35674 0
M  V30 2170 C 199.766 -2.61555 -2.1519 0
M  V30 2171 C 198.812 -3.81701 -1.9028 0
M  V30 2172 S 199.645 -5.23797 -1.11343 0
M  V30 2173 C 200.801 -5.77353 -2.41689 0
M  V30 2174 H 201.034 -2.94617 -0.39852 0
M  V30 2175 H 198.567 -1.54145 -0.0886555 0
M  V30 2176 H 200.525 -2.91122 -2.89411 0
M  V30 2177 H 199.186 -1.78479 -2.58465 0
M  V30 2178 H 198.379 -4.14985 -2.86014 0
M  V30 2179 H 197.981 -3.52783 -1.24178 0
M  V30 2180 H 200.273 -5.87458 -3.37489 0
M  V30 2181 H 201.216 -6.75323 -2.12942 0
M  V30 2182 H 201.624 -5.05457 -2.51342 0
M  V30 2183 N 201.022 0.148545 -1.56898 0
M  V30 2184 C 202.247 0.880385 -1.87787 0
M  V30 2185 C 202.672 1.74018 -0.714093 0
M  V30 2186 O 202.03 1.78153 0.336343 0
M  V30 2187 C 202.078 1.71422 -3.17249 0
M  V30 2188 O 201.182 2.8183 -3.01074 0
M  V30 2189 H 200.523 0.245301 -0.617028 0
M  V30 2190 H 203.053 0.139826 -2.04122 0
M  V30 2191 H 203.063 2.10954 -3.49231 0
M  V30 2192 H 201.738 1.08284 -4.01556 0
M  V30 2193 H 200.315 2.45715 -2.80497 0
M  V30 2194 N 202.5 1.5196 0.417844 0
M  V30 2195 C 203.749 1.6482 1.16264 0
M  V30 2196 C 204.062 0.379886 1.91876 0
M  V30 2197 O 205.268 0.388154 2.68711 0
M  V30 2198 C 203.724 2.91161 2.1155 0
M  V30 2199 C 203.332 4.25068 1.41495 0
M  V30 2200 C 205.076 3.13383 2.86341 0
M  V30 2201 C 202.983 5.42541 2.35379 0
M  V30 2202 H 201.913 0.613954 0.437694 0
M  V30 2203 H 204.564 1.78442 0.427871 0
M  V30 2204 H 202.946 2.71218 2.88543 0
M  V30 2205 H 204.12 4.55463 0.699263 0
M  V30 2206 H 202.435 4.0888 0.787792 0
M  V30 2207 H 205.032 3.98324 3.5671 0
M  V30 2208 H 205.375 2.27256 3.48798 0
M  V30 2209 H 205.908 3.33757 2.1645 0
M  V30 2210 H 202.647 6.30987 1.77582 0
M  V30 2211 H 202.167 5.16497 3.04945 0
M  V30 2212 H 203.846 5.75272 2.96093 0
M  V30 2213 N 203.978 -0.674533 1.42435 0
M  V30 2214 C 205.394 -0.98769 1.25367 0
M  V30 2215 C 205.594 -2.00879 0.158044 0
M  V30 2216 O 204.65 -2.48075 -0.470633 0
M  V30 2217 C 205.963 -1.49224 2.6106 0
M  V30 2218 C 207.511 -1.61 2.68417 0
M  V30 2219 C 207.986 -2.14852 4.04478 0
M  V30 2220 N 209.477 -2.22185 4.06434 0
M  V30 2221 C 210.212 -2.64928 5.08528 0
M  V30 2222 N 209.708 -3.07121 6.21006 0
M  V30 2223 N 211.501 -2.64679 4.95885 0
M  V30 2224 H 203.652 0.00152503 2.124 0
M  V30 2225 H 205.915 -0.0618434 0.945981 0
M  V30 2226 H 205.621 -0.816453 3.42092 0
M  V30 2227 H 205.495 -2.47094 2.84999 0
M  V30 2228 H 207.882 -2.27686 1.87732 0
M  V30 2229 H 207.963 -0.616195 2.48267 0
M  V30 2230 H 207.607 -1.48775 4.85622 0
M  V30 2231 H 207.537 -3.15024 4.2198 0
M  V30 2232 H 210.028 -1.92435 3.25234 0
M  V30 2233 H 210.341 -3.38423 6.94759 0
M  V30 2234 H 208.686 -3.04978 6.24511 0
M  V30 2235 H 211.877 -2.31078 4.07088 0
M  V30 2236 H 212.05 -2.9767 5.75584 0
M  V30 2237 N 205.456 -1.28612 -0.910864 0
M  V30 2238 C 206.684 -1.18792 -1.69399 0
M  V30 2239 C 207.099 0.253039 -1.87097 0
M  V30 2240 O 206.456 1.17071 -1.40003 0
M  V30 2241 C 206.507 -1.88511 -3.08457 0
M  V30 2242 O 206.228 -3.26979 -2.91576 0
M  V30 2243 C 207.729 -1.85029 -4.02839 0
M  V30 2244 H 204.949 -0.412233 -0.529438 0
M  V30 2245 H 207.493 -1.69788 -1.13984 0
M  V30 2246 H 205.648 -1.41379 -3.60681 0
M  V30 2247 H 206.062 -3.61936 -3.79608 0
M  V30 2248 H 207.536 -2.38395 -4.97867 0
M  V30 2249 H 208.013 -0.823303 -4.31414 0
M  V30 2250 H 208.619 -2.31853 -3.56545 0
M  V30 2251 N 206.934 1.1197 -1.10907 0
M  V30 2252 C 207.881 2.17846 -0.762345 0
M  V30 2253 C 208.851 1.63995 0.263599 0
M  V30 2254 O 210.036 1.90273 0.141773 0
M  V30 2255 C 207.176 3.44487 -0.205651 0
M  V30 2256 C 206.289 4.12369 -1.28748 0
M  V30 2257 C 205.424 5.26674 -0.691919 0
M  V30 2258 C 204.463 5.86431 -1.75399 0
M  V30 2259 N 203.6 6.92142 -1.17833 0
M  V30 2260 H 208.44 2.46851 -1.6694 0
M  V30 2261 H 205.977 1.21188 -0.833776 0
M  V30 2262 H 207.935 4.16981 0.135037 0
M  V30 2263 H 206.565 3.15884 0.664613 0
M  V30 2264 H 205.617 3.38003 -1.74522 0
M  V30 2265 H 206.929 4.52844 -2.09125 0
M  V30 2266 H 206.083 6.05953 -0.300963 0
M  V30 2267 H 204.822 4.8749 0.143232 0
M  V30 2268 H 203.827 5.05835 -2.15432 0
M  V30 2269 H 205.052 6.27685 -2.59208 0
M  V30 2270 H 202.998 6.54985 -0.364725 0
M  V30 2271 H 202.915 7.31242 -1.91887 0
M  V30 2272 H 204.183 7.75237 -0.81408 0
M  V30 2273 N 208.412 0.89855 1.29475 0
M  V30 2274 C 209.342 0.39201 2.30186 0
M  V30 2275 C 210.323 -0.532359 1.61555 0
M  V30 2276 O 211.508 -0.443331 1.89072 0
M  V30 2277 C 208.638 -0.382353 3.45189 0
M  V30 2278 C 207.592 0.451483 4.25612 0
M  V30 2279 C 206.918 -0.450307 5.328 0
M  V30 2280 C 208.218 1.70079 4.93832 0
M  V30 2281 H 209.912 1.23362 2.72804 0
M  V30 2282 H 207.458 0.594638 1.31149 0
M  V30 2283 H 209.411 -0.747451 4.14718 0
M  V30 2284 H 208.135 -1.25774 3.01411 0
M  V30 2285 H 206.794 0.798897 3.57789 0
M  V30 2286 H 206.442 -1.32379 4.85268 0
M  V30 2287 H 206.142 0.103902 5.87508 0
M  V30 2288 H 207.666 -0.811623 6.05182 0
M  V30 2289 H 209.08 1.40549 5.55805 0
M  V30 2290 H 207.477 2.19623 5.58467 0
M  V30 2291 H 208.547 2.43744 4.19186 0
M  V30 2292 N 209.89 -1.43072 0.660911 0
M  V30 2293 C 210.822 -2.29108 -0.0647641 0
M  V30 2294 C 211.835 -1.42928 -0.779448 0
M  V30 2295 O 213.024 -1.66788 -0.635921 0
M  V30 2296 C 210.124 -3.20032 -1.11503 0
M  V30 2297 C 209.297 -4.34792 -0.476955 0
M  V30 2298 C 208.356 -5.06534 -1.42513 0
M  V30 2299 O 207.382 -5.61538 -0.930771 0
M  V30 2300 N 208.584 -5.1075 -2.75889 0
M  V30 2301 H 211.349 -2.92029 0.673731 0
M  V30 2302 H 208.91 -1.53846 0.50427 0
M  V30 2303 H 210.902 -3.64892 -1.75032 0
M  V30 2304 H 209.472 -2.58658 -1.75541 0
M  V30 2305 H 208.692 -3.92752 0.337572 0
M  V30 2306 H 209.98 -5.0879 -0.0318525 0
M  V30 2307 H 209.378 -4.67447 -3.18606 0
M  V30 2308 H 207.935 -5.59302 -3.347 0
M  V30 2309 N 211.368 -0.403325 -1.52352 0
M  V30 2310 C 212.316 0.439752 -2.28405 0
M  V30 2311 C 213.31 1.05089 -1.32863 0
M  V30 2312 O 214.516 0.989759 -1.50345 0
M  V30 2313 H 210.891 0.160587 -0.734653 0
M  V30 2314 H 212.862 -0.222983 -2.97566 0
M  V30 2315 C 211.611 1.54736 -3.11371 0
M  V30 2316 H 210.934 1.08643 -3.84755 0
M  V30 2317 H 212.374 2.1112 -3.67701 0
M  V30 2318 C 210.833 2.51141 -2.24566 0
M  V30 2319 O 211.363 3.54887 -1.88196 0
M  V30 2320 N 209.569 2.21213 -1.8845 0
M  V30 2321 H 209.116 1.36878 -2.18225 0
M  V30 2322 H 209.074 2.85963 -1.30662 0
M  V30 2323 N 212.846 1.57033 -0.133567 0
M  V30 2324 C 213.756 2.19632 0.824564 0
M  V30 2325 C 214.772 1.17666 1.28182 0
M  V30 2326 O 215.948 1.50193 1.3418 0
M  V30 2327 C 213.013 2.79499 2.05137 0
M  V30 2328 C 212.074 3.96548 1.64464 0
M  V30 2329 C 211.307 4.5355 2.81297 0
M  V30 2330 O 211.53 4.09438 3.97136 0
M  V30 2331 O 210.464 5.44018 2.57542 0
M  V30 2332 H 214.29 3.01991 0.321766 0
M  V30 2333 H 211.875 1.49112 0.0927889 0
M  V30 2334 H 213.757 3.17602 2.7696 0
M  V30 2335 H 212.432 2.00162 2.54395 0
M  V30 2336 H 211.339 3.63186 0.897048 0
M  V30 2337 H 212.672 4.77364 1.19934 0
M  V30 2338 N 214.325 -0.140222 1.56975 0
M  V30 2339 C 215.235 -1.19223 2.02047 0
M  V30 2340 C 216.251 -1.46612 0.937062 0
M  V30 2341 O 217.427 -1.58148 1.24704 0
M  V30 2342 C 214.492 -2.50414 2.39778 0
M  V30 2343 C 213.553 -2.30612 3.621 0
M  V30 2344 C 212.786 -3.55547 3.98023 0
M  V30 2345 O 213.009 -4.62004 3.34528 0
M  V30 2346 O 211.943 -3.47808 4.91237 0
M  V30 2347 H 215.769 -0.839559 2.91865 0
M  V30 2348 H 213.354 -0.349453 1.45256 0
M  V30 2349 H 215.236 -3.27747 2.64877 0
M  V30 2350 H 213.911 -2.85198 1.53114 0
M  V30 2351 H 212.818 -1.51207 3.4218 0
M  V30 2352 H 214.151 -2.00741 4.49404 0
M  V30 2353 N 215.803 -1.52179 -0.40978 0
M  V30 2354 C 216.753 -1.71857 -1.49831 0
M  V30 2355 C 217.737 -0.572469 -1.50372 0
M  V30 2356 O 218.929 -0.829509 -1.56359 0
M  V30 2357 C 216.058 -1.87206 -2.87765 0
M  V30 2358 C 215.144 -3.07685 -2.91875 0
M  V30 2359 N 215.535 -4.30403 -2.65683 0
M  V30 2360 C 213.833 -3.07505 -3.23043 0
M  V30 2361 C 214.534 -5.11868 -2.76344 0
M  V30 2362 N 213.51 -4.47101 -3.09195 0
M  V30 2363 H 217.312 -2.64381 -1.28375 0
M  V30 2364 H 214.826 -1.50203 -0.617479 0
M  V30 2365 H 216.823 -1.99419 -3.66111 0
M  V30 2366 H 215.483 -0.958814 -3.10221 0
M  V30 2367 H 216.494 -4.58887 -2.4009 0
M  V30 2368 H 213.171 -2.25915 -3.51096 0
M  V30 2369 H 214.561 -6.19634 -2.59814 0
M  V30 2370 N 217.281 0.66697 -1.42791 0
M  V30 2371 C 218.527 1.4291 -1.43891 0
M  V30 2372 C 218.86 1.94114 -0.0578972 0
M  V30 2373 O 218.135 1.71414 0.91911 0
M  V30 2374 C 218.418 2.62049 -2.46987 0
M  V30 2375 C 218.271 2.16426 -3.94309 0
M  V30 2376 C 219.59 3.64266 -2.46978 0
M  V30 2377 H 216.709 0.518306 -0.523954 0
M  V30 2378 H 219.351 0.757321 -1.74255 0
M  V30 2379 H 217.501 3.19361 -2.21225 0
M  V30 2380 H 219.173 1.64221 -4.31079 0
M  V30 2381 H 217.416 1.47925 -4.078 0
M  V30 2382 H 218.087 3.02038 -4.62036 0
M  V30 2383 H 220.563 3.16686 -2.69906 0
M  V30 2384 H 219.439 4.45196 -3.21079 0
M  V30 2385 H 219.7 4.15927 -1.49857 0
M  V30 2386 N 218.759 1.29093 0.90403 0
M  V30 2387 C 220.008 1.16187 1.64874 0
M  V30 2388 C 220.321 -0.286742 1.93487 0
M  V30 2389 O 221.527 -0.537062 2.66135 0
M  V30 2390 C 219.983 2.03177 2.97064 0
M  V30 2391 C 219.591 3.52836 2.76062 0
M  V30 2392 C 221.335 1.98984 3.74974 0
M  V30 2393 C 219.242 4.31945 4.03952 0
M  V30 2394 H 218.172 0.431246 0.618501 0
M  V30 2395 H 220.823 1.53699 1.00243 0
M  V30 2396 H 219.205 1.5853 3.62883 0
M  V30 2397 H 220.379 4.05507 2.18863 0
M  V30 2398 H 218.694 3.58656 2.11553 0
M  V30 2399 H 221.291 2.55351 4.69787 0
M  V30 2400 H 221.634 0.968815 4.0487 0
M  V30 2401 H 222.167 2.41652 3.15989 0
M  V30 2402 H 218.906 5.34667 3.79225 0
M  V30 2403 H 218.426 3.84045 4.60727 0
M  V30 2404 H 220.105 4.42379 4.72133 0
M  V30 2405 N 220.237 -1.11381 1.11499 0
M  V30 2406 C 221.147 -2.21019 0.786628 0
M  V30 2407 C 222.163 -1.72597 -0.220507 0
M  V30 2408 O 223.339 -2.01321 -0.0565251 0
M  V30 2409 C 220.404 -3.459 0.235333 0
M  V30 2410 C 219.465 -4.09107 1.30115 0
M  V30 2411 C 218.698 -5.28027 0.776068 0
M  V30 2412 O 218.921 -5.6904 -0.393661 0
M  V30 2413 O 217.855 -5.81835 1.54114 0
M  V30 2414 H 221.681 -2.51521 1.70209 0
M  V30 2415 H 219.266 -1.19928 0.890928 0
M  V30 2416 H 221.148 -4.21346 -0.067715 0
M  V30 2417 H 219.823 -3.17049 -0.652828 0
M  V30 2418 H 218.73 -3.35391 1.65722 0
M  V30 2419 H 220.063 -4.42139 2.16273 0
M  V30 2420 N 221.715 -0.905404 -1.28997 0
M  V30 2421 C 222.678 -0.392253 -2.25819 0
M  V30 2422 C 223.678 0.476753 -1.5357 0
M  V30 2423 O 224.868 0.280994 -1.71919 0
M  V30 2424 C 222 0.438588 -3.38067 0
M  V30 2425 H 223.193 -1.24743 -2.72725 0
M  V30 2426 H 220.746 -0.684051 -1.40536 0
M  V30 2427 H 221.481 1.31352 -2.96508 0
M  V30 2428 H 221.266 -0.184167 -3.91667 0
M  V30 2429 H 222.756 0.78873 -4.10084 0
M  V30 2430 N 223.193 1.4272 -0.668489 0
M  V30 2431 C 224.123 2.335 -0.000100175 0
M  V30 2432 C 225.104 1.50328 0.795964 0
M  V30 2433 O 226.289 1.78949 0.754385 0
M  V30 2434 C 223.419 3.33874 0.956302 0
M  V30 2435 C 222.373 4.27152 0.269278 0
M  V30 2436 C 221.699 5.17684 1.33818 0
M  V30 2437 C 222.999 5.15373 -0.847805 0
M  V30 2438 H 224.693 2.89639 -0.758244 0
M  V30 2439 H 222.239 1.39269 -0.366079 0
M  V30 2440 H 224.192 3.9629 1.43292 0
M  V30 2441 H 222.916 2.76025 1.74579 0
M  V30 2442 H 221.575 3.66123 -0.187042 0
M  V30 2443 H 221.223 4.56165 2.1195 0
M  V30 2444 H 220.923 5.80918 0.883659 0
M  V30 2445 H 222.447 5.82974 1.81586 0
M  V30 2446 H 223.861 5.7151 -0.452681 0
M  V30 2447 H 222.258 5.87407 -1.22773 0
M  V30 2448 H 223.328 4.5415 -1.69929 0
M  V30 2449 N 224.671 0.411399 1.52136 0
M  V30 2450 C 226.087 0.0623865 1.59478 0
M  V30 2451 C 226.287 -1.42554 1.4241 0
M  V30 2452 O 225.343 -2.19263 1.2522 0
M  V30 2453 C 226.656 0.559331 2.95452 0
M  V30 2454 C 228.204 0.517503 3.08692 0
M  V30 2455 C 228.679 0.990994 4.4715 0
M  V30 2456 N 230.17 0.947908 4.53397 0
M  V30 2457 C 230.905 1.28544 5.58806 0
M  V30 2458 N 230.401 1.69454 6.71757 0
M  V30 2459 N 232.194 1.20526 5.49026 0
M  V30 2460 H 224.345 1.37982 1.61477 0
M  V30 2461 H 226.608 0.566977 0.759764 0
M  V30 2462 H 226.314 1.59938 3.1323 0
M  V30 2463 H 226.188 -0.0298014 3.77188 0
M  V30 2464 H 228.575 -0.513505 2.90598 0
M  V30 2465 H 228.656 1.14272 2.28857 0
M  V30 2466 H 228.3 2.02034 4.65988 0
M  V30 2467 H 228.23 0.34257 5.25485 0
M  V30 2468 H 230.721 0.647157 3.72317 0
M  V30 2469 H 231.034 1.93513 7.48179 0
M  V30 2470 H 229.379 1.73359 6.73032 0
M  V30 2471 H 232.57 0.884505 4.59667 0
M  V30 2472 H 232.743 1.47161 6.31069 0
M  V30 2473 N 226.149 -1.5696 0.141893 0
M  V30 2474 C 227.565 -1.58151 -0.21456 0
M  V30 2475 C 227.765 -1.1559 -1.65049 0
M  V30 2476 O 226.821 -0.853832 -2.37626 0
M  V30 2477 C 228.134 -3.00674 0.0395576 0
M  V30 2478 C 229.682 -3.1299 -0.0245529 0
M  V30 2479 C 230.157 -4.57554 0.202167 0
M  V30 2480 N 231.648 -4.62961 0.148919 0
M  V30 2481 C 232.383 -5.7262 0.298924 0
M  V30 2482 N 231.879 -6.90947 0.50637 0
M  V30 2483 N 233.672 -5.61601 0.236886 0
M  V30 2484 H 225.823 -1.8292 1.07953 0
M  V30 2485 H 228.086 -0.846425 0.42693 0
M  V30 2486 H 227.792 -3.36183 1.03315 0
M  V30 2487 H 227.666 -3.70981 -0.682143 0
M  V30 2488 H 230.053 -2.77326 -1.00869 0
M  V30 2489 H 230.134 -2.4518 0.729396 0
M  V30 2490 H 229.778 -4.93922 1.18338 0
M  V30 2491 H 229.708 -5.23484 -0.572044 0
M  V30 2492 H 232.199 -3.77899 -0.00697015 0
M  V30 2493 H 232.512 -7.7038 0.611076 0
M  V30 2494 H 230.857 -6.92878 0.542628 0
M  V30 2495 H 234.048 -4.68039 0.0756209 0
M  V30 2496 H 234.221 -6.47015 0.357227 0
M  V30 2497 N 227.627 0.131896 -1.57047 0
M  V30 2498 C 228.59 1.14638 -1.98471 0
M  V30 2499 C 229.59 1.35029 -0.873148 0
M  V30 2500 O 230.78 1.31764 -1.13946 0
M  V30 2501 C 227.912 2.50358 -2.31373 0
M  V30 2502 H 229.105 0.79064 -2.8929 0
M  V30 2503 H 226.658 0.375761 -1.51716 0
M  V30 2504 H 227.393 2.90876 -1.43393 0
M  V30 2505 H 227.178 2.36915 -3.12432 0
M  V30 2506 H 228.668 3.23395 -2.64207 0
M  V30 2507 N 229.106 1.52395 0.401703 0
M  V30 2508 C 230.053 1.76268 1.48991 0
M  V30 2509 C 231.023 0.605386 1.54675 0
M  V30 2510 O 232.208 0.843742 1.7113 0
M  V30 2511 C 229.348 1.92592 2.86361 0
M  V30 2512 C 228.461 3.20259 2.89928 0
M  V30 2513 C 227.596 3.26972 4.18644 0
M  V30 2514 C 226.635 4.48812 4.16214 0
M  V30 2515 N 225.772 4.52877 5.36514 0
M  V30 2516 H 230.612 2.6914 1.27935 0
M  V30 2517 H 228.149 1.33355 0.620871 0
M  V30 2518 H 230.107 2.0004 3.66115 0
M  V30 2519 H 228.737 1.03093 3.05895 0
M  V30 2520 H 227.789 3.21945 2.02621 0
M  V30 2521 H 229.101 4.10056 2.83999 0
M  V30 2522 H 228.255 3.33533 5.06794 0
M  V30 2523 H 226.994 2.35126 4.27278 0
M  V30 2524 H 225.999 4.4239 3.26453 0
M  V30 2525 H 227.224 5.41961 4.09213 0
M  V30 2526 H 225.17 3.63917 5.45802 0
M  V30 2527 H 225.087 5.36529 5.32609 0
M  V30 2528 H 226.355 4.63676 6.26597 0
M  V30 2529 N 230.584 -0.659388 1.43143 0
M  V30 2530 C 231.831 -1.41935 1.44433 0
M  V30 2531 C 232.159 -1.94387 0.0663522 0
M  V30 2532 O 231.414 -1.72314 -0.927706 0
M  V30 2533 C 231.713 -2.62206 2.42864 0
M  V30 2534 C 231.379 -2.28208 3.88886 0
M  V30 2535 C 230.041 -2.18647 4.28657 0
M  V30 2536 C 232.393 -2.00887 4.8093 0
M  V30 2537 C 229.721 -1.79914 5.58433 0
M  V30 2538 C 232.073 -1.63653 6.11065 0
M  V30 2539 C 230.737 -1.52614 6.49819 0
M  V30 2540 H 230.007 -0.519376 0.528517 0
M  V30 2541 H 232.654 -0.750453 1.76183 0
M  V30 2542 H 230.959 -3.34199 2.04495 0
M  V30 2543 H 232.656 -3.2041 2.41119 0
M  V30 2544 H 229.246 -2.36557 3.57406 0
M  V30 2545 H 233.43 -2.07198 4.5098 0
M  V30 2546 H 228.686 -1.69948 5.87305 0
M  V30 2547 H 232.86 -1.41543 6.81864 0
M  V30 2548 H 230.487 -1.22371 7.50286 0
M  V30 2549 N 232.062 -1.29571 -0.897171 0
M  V30 2550 C 233.009 -1.14916 -2.00158 0
M  V30 2551 C 233.979 -0.0418149 -1.66047 0
M  V30 2552 O 235.164 -0.209793 -1.89643 0
M  V30 2553 C 232.304 -0.834307 -3.34863 0
M  V30 2554 C 231.417 -2.02234 -3.8174 0
M  V30 2555 C 230.552 -1.64664 -5.05034 0
M  V30 2556 C 229.591 -2.80033 -5.44286 0
M  V30 2557 N 228.728 -2.42843 -6.58765 0
M  V30 2558 H 233.568 -2.09403 -2.12025 0
M  V30 2559 H 231.105 -1.042 -1.0383 0
M  V30 2560 H 233.063 -0.632436 -4.12379 0
M  V30 2561 H 231.693 0.0736656 -3.22716 0
M  V30 2562 H 230.745 -2.33583 -3.00238 0
M  V30 2563 H 232.057 -2.88673 -4.06779 0
M  V30 2564 H 231.211 -1.4078 -5.9014 0
M  V30 2565 H 229.95 -0.753766 -4.8184 0
M  V30 2566 H 228.955 -3.04596 -4.57713 0
M  V30 2567 H 230.18 -3.69989 -5.6946 0
M  V30 2568 H 228.126 -1.56046 -6.3717 0
M  V30 2569 H 228.043 -3.22815 -6.83613 0
M  V30 2570 H 229.311 -2.22285 -7.47134 0
M  V30 2571 N 233.54 1.10788 -1.12088 0
M  V30 2572 C 234.787 1.82671 -0.873931 0
M  V30 2573 C 235.115 1.85004 0.600311 0
M  V30 2574 O 234.37 1.30365 1.45957 0
M  V30 2575 C 234.669 3.29294 -1.38926 0
M  V30 2576 C 234.335 3.47113 -2.87791 0
M  V30 2577 C 232.997 3.51684 -3.28439 0
M  V30 2578 C 235.349 3.52808 -3.83635 0
M  V30 2579 C 232.677 3.59513 -4.63646 0
M  V30 2580 C 235.029 3.62169 -5.18668 0
M  V30 2581 C 233.693 3.65003 -5.58864 0
M  V30 2582 H 232.963 0.668441 -0.319794 0
M  V30 2583 H 235.61 1.30613 -1.40045 0
M  V30 2584 H 233.915 3.83894 -0.783122 0
M  V30 2585 H 235.612 3.83416 -1.17443 0
M  V30 2586 H 232.202 3.4423 -2.5535 0
M  V30 2587 H 236.386 3.4853 -3.53328 0
M  V30 2588 H 231.642 3.59987 -4.94185 0
M  V30 2589 H 235.816 3.6552 -5.92763 0
M  V30 2590 H 233.443 3.70822 -6.63623 0
M  V30 2591 N 235.018 0.912232 1.28515 0
M  V30 2592 C 236.429 0.591352 1.77087 0
M  V30 2593 C 236.78 -0.8933 1.74684 0
M  V30 2594 O 235.905 -1.69876 1.34056 0
M  V30 2595 C 236.5 1.06668 3.2157 0
M  V30 2596 C 235.059 0.79675 3.67871 0
M  V30 2597 C 234.206 1.23427 2.48316 0
M  V30 2598 H 237.157 1.09365 1.15 0
M  V30 2599 H 237.178 0.407455 3.78312 0
M  V30 2600 H 236.69 2.14726 3.23287 0
M  V30 2601 H 234.791 -0.270679 3.71616 0
M  V30 2602 H 234.904 1.40343 4.58084 0
M  V30 2603 H 233.268 0.653036 2.46186 0
M  V30 2604 H 234.051 2.32316 2.52753 0
M  V30 2605 N 236.496 -1.42363 0.676048 0
M  V30 2606 C 237.744 -2.01123 0.198437 0
M  V30 2607 C 238.065 -1.53731 -1.19966 0
M  V30 2608 O 237.335 -0.759518 -1.80577 0
M  V30 2609 H 235.915 -0.743678 0.0703721 0
M  V30 2610 H 238.577 -1.74263 0.872837 0
M  V30 2611 H 237.673 -3.11454 0.200686 0
M  V30 2612 N 237.974 -0.419461 -1.51915 0
M  V30 2613 C 239.39 -0.0708431 -1.59443 0
M  V30 2614 C 239.59 1.41796 -1.43164 0
M  V30 2615 O 238.646 2.18596 -1.26381 0
M  V30 2616 C 239.959 -0.574991 -2.95151 0
M  V30 2617 C 241.507 -0.533867 -3.08413 0
M  V30 2618 C 241.982 -1.01469 -4.46618 0
M  V30 2619 N 243.473 -0.971939 -4.52888 0
M  V30 2620 C 244.208 -1.31505 -5.58116 0
M  V30 2621 N 243.704 -1.73014 -6.70849 0
M  V30 2622 N 245.497 -1.23436 -5.48379 0
M  V30 2623 H 237.648 -1.38836 -1.60743 0
M  V30 2624 H 239.911 -0.570998 -0.756747 0
M  V30 2625 H 239.617 -1.61597 -3.12377 0
M  V30 2626 H 239.491 0.00979777 -3.77199 0
M  V30 2627 H 241.878 0.498086 -2.90866 0
M  V30 2628 H 241.959 -1.15484 -2.28248 0
M  V30 2629 H 241.603 -2.04502 -4.6491 0
M  V30 2630 H 241.533 -0.370433 -5.25295 0
M  V30 2631 H 244.024 -0.666893 -3.71969 0
M  V30 2632 H 244.337 -1.97479 -7.47143 0
M  V30 2633 H 242.682 -1.76926 -6.72103 0
M  V30 2634 H 245.873 -0.908869 -4.59192 0
M  V30 2635 H 246.046 -1.50506 -6.30279 0
M  V30 2636 N 239.452 1.56882 -0.150215 0
M  V30 2637 C 240.384 2.14057 0.819286 0
M  V30 2638 C 241.397 1.09082 1.20851 0
M  V30 2639 O 242.586 1.36347 1.15203 0
M  V30 2640 C 239.686 2.65102 2.11127 0
M  V30 2641 C 238.859 3.94511 1.88891 0
M  V30 2642 C 237.918 4.30834 3.02107 0
M  V30 2643 O 236.944 4.99099 2.73659 0
M  V30 2644 N 238.146 3.90676 4.29363 0
M  V30 2645 H 240.911 2.97871 0.330618 0
M  V30 2646 H 238.472 1.61866 0.0332538 0
M  V30 2647 H 240.464 2.86411 2.85921 0
M  V30 2648 H 239.034 1.85994 2.51247 0
M  V30 2649 H 238.254 3.81795 0.981152 0
M  V30 2650 H 239.542 4.7907 1.71376 0
M  V30 2651 H 238.94 3.35677 4.55343 0
M  V30 2652 H 237.497 4.1703 5.00928 0
M  V30 2653 N 240.93 -0.123565 1.57115 0
M  V30 2654 C 241.877 -1.15177 2.00007 0
M  V30 2655 C 242.847 -1.41403 0.871454 0
M  V30 2656 O 244.032 -1.53346 1.13533 0
M  V30 2657 C 241.172 -2.47436 2.40561 0
M  V30 2658 C 240.285 -2.28184 3.66819 0
M  V30 2659 C 239.42 -3.53641 3.96373 0
M  V30 2660 C 238.459 -3.29528 5.15827 0
M  V30 2661 N 237.596 -4.47175 5.41275 0
M  V30 2662 H 242.436 -0.779008 2.87638 0
M  V30 2663 H 239.973 -0.373166 1.42288 0
M  V30 2664 H 241.931 -3.24584 2.62109 0
M  V30 2665 H 240.561 -2.82614 1.55978 0
M  V30 2666 H 239.613 -1.41976 3.52912 0
M  V30 2667 H 240.925 -2.0634 4.5412 0
M  V30 2668 H 240.079 -4.39209 4.18545 0
M  V30 2669 H 238.818 -3.78512 3.07538 0
M  V30 2670 H 237.823 -2.42349 4.93505 0
M  V30 2671 H 239.048 -3.06031 6.06236 0
M  V30 2672 H 236.994 -4.72175 4.55397 0
M  V30 2673 H 236.911 -4.28419 6.22891 0
M  V30 2674 H 238.179 -5.3389 5.67963 0
M  V30 2675 N 242.408 -1.52605 -0.393616 0
M  V30 2676 C 243.657 -1.66649 -1.13627 0
M  V30 2677 C 243.97 -0.410364 -1.91247 0
M  V30 2678 O 245.176 -0.430854 -2.68059 0
M  V30 2679 C 243.632 -2.9449 -2.06891 0
M  V30 2680 C 243.24 -4.27266 -1.34714 0
M  V30 2681 C 244.984 -3.17899 -2.81319 0
M  V30 2682 C 242.891 -5.46217 -2.26717 0
M  V30 2683 H 241.821 -0.62084 -0.427871 0
M  V30 2684 H 244.472 -1.791 -0.399428 0
M  V30 2685 H 242.854 -2.75774 -2.84191 0
M  V30 2686 H 244.028 -4.56518 -0.626714 0
M  V30 2687 H 242.343 -4.10081 -0.722643 0
M  V30 2688 H 244.94 -4.03949 -3.50328 0
M  V30 2689 H 245.283 -2.32777 -3.45139 0
M  V30 2690 H 245.816 -3.37159 -2.11113 0
M  V30 2691 H 242.555 -6.33733 -1.67521 0
M  V30 2692 H 242.075 -5.21283 -2.96689 0
M  V30 2693 H 243.754 -5.7991 -2.86903 0
M  V30 2694 N 243.887 0.651787 -1.4349 0
M  V30 2695 C 244.837 1.75783 -1.45205 0
M  V30 2696 C 245.821 1.57679 -0.320328 0
M  V30 2697 O 247.013 1.67767 -0.564211 0
M  V30 2698 C 244.142 3.14377 -1.3792 0
M  V30 2699 C 243.228 3.38023 -2.56127 0
M  V30 2700 N 243.619 3.32135 -3.81471 0
M  V30 2701 C 241.917 3.68747 -2.50882 0
M  V30 2702 C 242.618 3.55902 -4.60118 0
M  V30 2703 N 241.594 3.77783 -3.90872 0
M  V30 2704 H 245.396 1.69657 -2.39987 0
M  V30 2705 H 242.91 0.853508 -1.38163 0
M  V30 2706 H 244.907 3.93666 -1.37231 0
M  V30 2707 H 243.567 3.21683 -0.441596 0
M  V30 2708 H 244.578 3.11515 -4.13738 0
M  V30 2709 H 241.255 3.8316 -1.65816 0
M  V30 2710 H 242.645 3.57116 -5.69138 0
M  V30 2711 N 245.365 1.30045 0.890287 0
M  V30 2712 C 246.614 1.17929 1.63633 0
M  V30 2713 C 246.927 -0.266204 1.9378 0
M  V30 2714 O 248.133 -0.508804 2.6669 0
M  V30 2715 C 246.589 2.06317 2.94892 0
M  V30 2716 C 246.197 3.55745 2.72305 0
M  V30 2717 C 247.941 2.0295 3.72843 0
M  V30 2718 C 245.848 4.36205 3.99348 0
M  V30 2719 H 244.778 0.437782 0.613892 0
M  V30 2720 H 247.429 1.54754 0.986075 0
M  V30 2721 H 245.811 1.6237 3.61182 0
M  V30 2722 H 246.985 4.07805 2.1455 0
M  V30 2723 H 245.3 3.6088 2.07737 0
M  V30 2724 H 247.897 2.60319 4.67053 0
M  V30 2725 H 248.24 1.0117 4.0382 0
M  V30 2726 H 248.773 2.4499 3.13408 0
M  V30 2727 H 245.512 5.38659 3.73533 0
M  V30 2728 H 245.032 3.8891 4.56628 0
M  V30 2729 H 246.711 4.47362 4.67415 0
M  V30 2730 N 246.843 -1.10192 1.12674 0
M  V30 2731 C 248.068 -1.86523 0.906853 0
M  V30 2732 C 248.493 -1.80221 -0.538711 0
M  V30 2733 O 247.851 -1.17396 -1.38158 0
M  V30 2734 C 247.899 -3.32758 1.3894 0
M  V30 2735 O 247.003 -4.08449 0.5695 0
M  V30 2736 H 246.344 -0.578678 0.325619 0
M  V30 2737 H 248.874 -1.39203 1.49946 0
M  V30 2738 H 248.884 -3.83608 1.38958 0
M  V30 2739 H 247.559 -3.36661 2.44197 0
M  V30 2740 H 246.136 -3.67427 0.636528 0
M  V30 2741 N 248.321 -0.919034 -1.28029 0
M  V30 2742 C 249.268 -0.410005 -2.27129 0
M  V30 2743 C 250.238 0.518405 -1.57803 0
M  V30 2744 O 251.423 0.439451 -1.8567 0
M  V30 2745 C 248.563 0.339054 -3.4343 0
M  V30 2746 C 247.676 -0.622468 -4.27492 0
M  V30 2747 C 246.811 0.145567 -5.31001 0
M  V30 2748 C 245.85 -0.809226 -6.06727 0
M  V30 2749 N 244.987 -0.0743728 -7.02061 0
M  V30 2750 H 249.827 -1.26011 -2.70047 0
M  V30 2751 H 247.364 -0.632663 -1.328 0
M  V30 2752 H 249.322 0.789586 -4.0966 0
M  V30 2753 H 247.952 1.15346 -3.01488 0
M  V30 2754 H 247.004 -1.19153 -3.61257 0
M  V30 2755 H 248.316 -1.35252 -4.80113 0
M  V30 2756 H 247.47 0.656417 -6.03139 0
M  V30 2757 H 246.209 0.908643 -4.79161 0
M  V30 2758 H 245.214 -1.3314 -5.33436 0
M  V30 2759 H 246.439 -1.57194 -6.60656 0
M  V30 2760 H 244.385 0.670616 -6.52563 0
M  V30 2761 H 244.302 -0.744157 -7.52329 0
M  V30 2762 H 245.57 0.416109 -7.78389 0
M  V30 2763 N 249.799 1.42003 -0.683588 0
M  V30 2764 C 250.746 2.30798 -0.0107309 0
M  V30 2765 C 251.716 1.4645 0.783688 0
M  V30 2766 O 252.901 1.75263 0.754156 0
M  V30 2767 C 250.041 3.3238 0.928306 0
M  V30 2768 C 249.154 4.31814 0.126776 0
M  V30 2769 C 248.289 5.20468 1.06236 0
M  V30 2770 C 247.328 6.11577 0.253035 0
M  V30 2771 N 246.465 6.92754 1.14179 0
M  V30 2772 H 251.305 2.8778 -0.773727 0
M  V30 2773 H 248.842 1.41745 -0.393283 0
M  V30 2774 H 250.8 3.89813 1.48666 0
M  V30 2775 H 249.43 2.76976 1.65783 0
M  V30 2776 H 248.482 3.76427 -0.54833 0
M  V30 2777 H 249.794 4.96276 -0.501192 0
M  V30 2778 H 248.948 5.82677 1.69035 0
M  V30 2779 H 247.687 4.56204 1.7242 0
M  V30 2780 H 246.692 5.48428 -0.388108 0
M  V30 2781 H 247.917 6.77892 -0.404839 0
M  V30 2782 H 245.863 6.3111 1.78987 0
M  V30 2783 H 245.78 7.53855 0.569111 0
M  V30 2784 H 247.048 7.59441 1.75697 0
M  V30 2785 N 251.277 0.427512 1.51691 0
M  V30 2786 C 252.523 -0.134744 2.02953 0
M  V30 2787 C 252.878 -1.41235 1.30654 0
M  V30 2788 O 252.171 -1.87168 0.409713 0
M  V30 2789 C 252.365 -0.418249 3.54944 0
M  V30 2790 C 252.194 0.830327 4.41968 0
M  V30 2791 C 250.964 1.36097 4.86627 0
M  V30 2792 C 253.162 1.7137 4.84909 0
M  V30 2793 N 251.144 2.56311 5.57833 0
M  V30 2794 C 252.515 2.76195 5.55082 0
M  V30 2795 C 254.57 1.72928 4.66905 0
M  V30 2796 C 253.273 3.82512 6.09161 0
M  V30 2797 C 255.299 2.78175 5.21894 0
M  V30 2798 C 254.661 3.8172 5.92004 0
M  V30 2799 H 250.76 -0.0103958 0.781931 0
M  V30 2800 H 253.344 0.585981 1.85673 0
M  V30 2801 H 251.515 -1.10801 3.7226 0
M  V30 2802 H 253.247 -0.970999 3.92879 0
M  V30 2803 H 250.002 0.916311 4.64651 0
M  V30 2804 H 250.426 3.17242 5.98069 0
M  V30 2805 H 255.068 0.942081 4.12171 0
M  V30 2806 H 252.786 4.62077 6.62956 0
M  V30 2807 H 256.372 2.8031 5.09821 0
M  V30 2808 H 255.252 4.61821 6.33791 0
M  V30 2809 N 252.755 -1.56801 0.158532 0
M  V30 2810 C 254.003 -1.96102 -0.488712 0
M  V30 2811 C 254.324 -1.04498 -1.64636 0
M  V30 2812 O 253.594 -0.108783 -1.95598 0
M  V30 2813 H 252.174 -0.724102 -0.183535 0
M  V30 2814 H 254.836 -1.93457 0.236728 0
M  V30 2815 H 253.932 -3.00097 -0.857219 0
M  V30 2816 N 254.233 0.115231 -1.57178 0
M  V30 2817 C 255.48 0.822351 -1.8505 0
M  V30 2818 C 255.808 1.79701 -0.744168 0
M  V30 2819 O 255.063 1.93909 0.26414 0
M  V30 2820 C 255.362 1.60324 -3.19423 0
M  V30 2821 C 255.028 0.772536 -4.44233 0
M  V30 2822 C 253.69 0.543468 -4.78121 0
M  V30 2823 C 256.042 0.193746 -5.2084 0
M  V30 2824 C 253.37 -0.274583 -5.86057 0
M  V30 2825 C 255.722 -0.611517 -6.29637 0
M  V30 2826 C 254.386 -0.850867 -6.62055 0
M  V30 2827 H 253.656 0.30092 -0.677147 0
M  V30 2828 H 256.303 0.0845802 -1.91313 0
M  V30 2829 H 254.608 2.41203 -3.08753 0
M  V30 2830 H 256.305 2.1544 -3.38211 0
M  V30 2831 H 252.895 0.96117 -4.17683 0
M  V30 2832 H 257.079 0.357926 -4.95008 0
M  V30 2833 H 252.335 -0.469206 -6.09597 0
M  V30 2834 H 256.509 -1.06697 -6.88178 0
M  V30 2835 H 254.136 -1.48657 -7.45523 0
M  V30 2836 N 255.711 1.52812 0.385517 0
M  V30 2837 C 256.939 1.71907 1.15133 0
M  V30 2838 C 257.354 0.439004 1.83625 0
M  V30 2839 O 256.711 -0.586765 1.7281 0
M  V30 2840 C 256.762 2.87099 2.19673 0
M  V30 2841 O 256.483 4.10151 1.53973 0
M  V30 2842 C 257.984 3.17902 3.08955 0
M  V30 2843 H 255.204 0.575479 0.345057 0
M  V30 2844 H 257.748 1.99476 0.45052 0
M  V30 2845 H 255.903 2.61982 2.85384 0
M  V30 2846 H 256.317 4.74514 2.23465 0
M  V30 2847 H 257.791 4.01959 3.7833 0
M  V30 2848 H 258.268 2.3243 3.72657 0
M  V30 2849 H 258.874 3.44871 2.48885 0
M  V30 2850 N 257.189 -0.644168 1.43834 0
M  V30 2851 C 258.136 -1.75671 1.49694 0
M  V30 2852 C 259.106 -1.6246 0.345809 0
M  V30 2853 O 260.291 -1.82573 0.554234 0
M  V30 2854 C 257.431 -3.13867 1.43463 0
M  V30 2855 C 256.544 -3.38147 2.6885 0
M  V30 2856 C 255.679 -4.66241 2.54544 0
M  V30 2857 C 254.718 -4.83657 3.75157 0
M  V30 2858 N 253.855 -6.03016 3.59605 0
M  V30 2859 H 258.695 -1.69998 2.44754 0
M  V30 2860 H 256.232 -0.829458 1.21484 0
M  V30 2861 H 258.19 -3.9377 1.37843 0
M  V30 2862 H 256.82 -3.18588 0.519783 0
M  V30 2863 H 255.872 -2.52276 2.84712 0
M  V30 2864 H 257.184 -3.46899 3.58417 0
M  V30 2865 H 256.338 -5.54285 2.46683 0
M  V30 2866 H 255.077 -4.59826 1.62516 0
M  V30 2867 H 254.082 -3.94046 3.83416 0
M  V30 2868 H 255.307 -4.91896 4.68204 0
M  V30 2869 H 253.253 -5.97715 2.7032 0
M  V30 2870 H 253.17 -6.12766 4.42779 0
M  V30 2871 H 254.438 -6.93657 3.55613 0
M  V30 2872 N 258.668 -1.30515 -0.883378 0
M  V30 2873 C 259.915 -1.1943 -1.63532 0
M  V30 2874 C 260.243 0.250627 -1.92878 0
M  V30 2875 O 259.498 1.19556 -1.54935 0
M  V30 2876 C 259.797 -1.96994 -2.98209 0
M  V30 2877 C 259.463 -3.466 -2.88408 0
M  V30 2878 C 258.125 -3.87397 -2.85442 0
M  V30 2879 C 260.477 -4.41863 -2.76418 0
M  V30 2880 C 257.805 -5.21745 -2.68327 0
M  V30 2881 C 260.157 -5.7632 -2.60841 0
M  V30 2882 C 258.821 -6.16354 -2.56251 0
M  V30 2883 H 258.091 -0.437025 -0.598406 0
M  V30 2884 H 260.738 -1.61635 -1.02696 0
M  V30 2885 H 259.043 -1.47429 -3.63004 0
M  V30 2886 H 260.74 -1.85808 -3.55354 0
M  V30 2887 H 257.33 -3.14182 -2.91527 0
M  V30 2888 H 261.514 -4.11285 -2.77775 0
M  V30 2889 H 256.77 -5.51853 -2.63189 0
M  V30 2890 H 260.944 -6.49772 -2.50538 0
M  V30 2891 H 258.571 -7.20401 -2.42748 0
M  V30 2892 N 260.146 1.09593 -1.13257 0
M  V30 2893 C 261.094 2.18271 -0.803783 0
M  V30 2894 C 262.088 1.68054 0.213148 0
M  V30 2895 O 263.294 1.79862 0.0704699 0
M  V30 2896 H 259.669 0.711949 -0.242143 0
M  V30 2897 H 261.64 2.43235 -1.72856 0
M  V30 2898 C 260.389 3.46536 -0.28424 0
M  V30 2899 H 259.712 3.85545 -1.05807 0
M  V30 2900 H 261.152 4.23899 -0.0925945 0
M  V30 2901 C 259.611 3.22036 0.989684 0
M  V30 2902 O 260.141 3.44509 2.06584 0
M  V30 2903 N 258.347 2.7565 0.920086 0
M  V30 2904 H 257.894 2.57562 0.0442019 0
M  V30 2905 H 257.852 2.59635 1.77306 0
M  V30 2906 N 261.624 0.925811 1.2754 0
M  V30 2907 C 262.587 0.428129 2.25166 0
M  V30 2908 C 263.587 -0.452261 1.54309 0
M  V30 2909 O 264.777 -0.253608 1.72344 0
M  V30 2910 C 261.909 -0.384749 3.38722 0
M  V30 2911 H 263.102 1.29066 2.70706 0
M  V30 2912 H 260.655 0.706323 1.3943 0
M  V30 2913 H 261.39 -1.26618 2.98561 0
M  V30 2914 H 261.175 0.246454 3.91325 0
M  V30 2915 H 262.665 -0.723389 4.11287 0
M  V30 2916 N 263.102 -1.41638 0.69111 0
M  V30 2917 C 264.379 -1.95036 0.148421 0
M  V30 2918 C 264.759 -1.63072 -1.34055 0
M  V30 2919 O 264.107 -0.93538 -2.08478 0
M  V30 2920 C 264.317 -3.46279 0.434951 0
M  V30 2921 C 265.665 -4.23069 0.360275 0
M  V30 2922 O 266.689 -3.54277 0.369613 0
M  V30 2923 O 265.548 -5.45583 0.316534 0
M  V30 2924 H 262.642 -0.826908 0.0123654 0
M  V30 2925 H 265.188 -1.5138 0.766963 0
M  V30 2926 H 263.96 -3.6281 1.46576 0
M  V30 2927 H 263.583 -3.97019 -0.214787 0
M  V30 2928 N 264.58 -0.43555 -1.51462 0
M  V30 2929 C 265.49 0.383001 -2.31453 0
M  V30 2930 C 266.506 1.02931 -1.4029 0
M  V30 2931 O 267.682 1.02507 -1.73362 0
M  V30 2932 C 264.747 1.47043 -3.13973 0
M  V30 2933 C 263.808 0.844433 -4.20913 0
M  V30 2934 C 263.041 1.88004 -4.9949 0
M  V30 2935 O 263.264 3.10199 -4.78678 0
M  V30 2936 O 262.198 1.47157 -5.83634 0
M  V30 2937 H 266.024 -0.269964 -3.02498 0
M  V30 2938 H 263.609 -0.19813 -1.4808 0
M  V30 2939 H 265.491 2.10113 -3.65281 0
M  V30 2940 H 264.166 2.10751 -2.45695 0
M  V30 2941 H 263.073 0.175729 -3.73687 0
M  V30 2942 H 264.406 0.250869 -4.9156 0
M  V30 2943 N 266.058 1.56714 -0.166846 0
M  V30 2944 C 267.305 1.96747 0.479252 0
M  V30 2945 C 267.633 1.05263 1.63554 0
M  V30 2946 O 266.888 0.0858098 1.95512 0
M  V30 2947 C 267.187 3.42889 1.00806 0
M  V30 2948 C 266.853 4.50889 -0.0318574 0
M  V30 2949 C 265.515 4.8015 -0.317675 0
M  V30 2950 C 267.867 5.15949 -0.737956 0
M  V30 2951 C 265.195 5.71772 -1.31506 0
M  V30 2952 C 267.547 6.08647 -1.72429 0
M  V30 2953 C 266.211 6.36277 -2.0176 0
M  V30 2954 H 265.481 0.719949 0.175371 0
M  V30 2955 H 268.128 1.89756 -0.257864 0
M  V30 2956 H 266.433 3.4681 1.82291 0
M  V30 2957 H 268.13 3.71203 1.51689 0
M  V30 2958 H 264.72 4.28128 0.201088 0
M  V30 2959 H 268.904 4.93458 -0.530351 0
M  V30 2960 H 264.16 5.91465 -1.54853 0
M  V30 2961 H 268.334 6.58129 -2.27682 0
M  V30 2962 H 265.961 7.07075 -2.79194 0
M  V30 2963 N 267.536 -0.106894 1.57237 0
M  V30 2964 C 268.446 -1.14911 2.0453 0
M  V30 2965 C 269.462 -1.44592 0.96795 0
M  V30 2966 O 270.638 -1.55468 1.2803 0
M  V30 2967 C 267.703 -2.45272 2.45036 0
M  V30 2968 C 266.764 -2.22879 3.66911 0
M  V30 2969 C 265.997 -3.47024 4.05475 0
M  V30 2970 O 266.22 -4.54804 3.44252 0
M  V30 2971 O 265.154 -3.3731 4.98504 0
M  V30 2972 H 268.98 -0.777461 2.9358 0
M  V30 2973 H 266.565 -0.318563 1.45964 0
M  V30 2974 H 268.447 -3.22055 2.71769 0
M  V30 2975 H 267.122 -2.81886 1.59129 0
M  V30 2976 H 266.029 -1.43915 3.45311 0
M  V30 2977 H 267.362 -1.91163 4.53561 0
M  V30 2978 N 269.014 -1.53014 -0.377408 0
M  V30 2979 C 270.291 -1.59215 -1.13622 0
M  V30 2980 C 270.671 -0.392407 -2.07421 0
M  V30 2981 O 270.019 0.618342 -2.19975 0
M  V30 2982 C 270.229 -2.93669 -1.88573 0
M  V30 2983 C 271.577 -3.47822 -2.43526 0
M  V30 2984 O 272.601 -2.9562 -1.98715 0
M  V30 2985 O 271.46 -4.39055 -3.25412 0
M  V30 2986 H 268.554 -0.642625 -0.52054 0
M  V30 2987 H 271.1 -1.65353 -0.381625 0
M  V30 2988 H 269.872 -3.7243 -1.20048 0
M  V30 2989 H 269.495 -2.90968 -2.70968 0
M  V30 2990 N 270.492 0.636531 -1.44174 0
M  V30 2991 C 271.425 1.76139 -1.45087 0
M  V30 2992 C 272.403 1.59611 -0.310326 0
M  V30 2993 O 273.587 1.81568 -0.506477 0
M  V30 2994 C 270.714 3.13648 -1.27839 0
M  V30 2995 C 269.76 3.48838 -2.45386 0
M  V30 2996 S 270.593 3.46927 -4.07924 0
M  V30 2997 C 271.749 4.87064 -3.9309 0
M  V30 2998 H 271.982 1.75096 -2.40268 0
M  V30 2999 H 269.515 0.810666 -1.31406 0
M  V30 3000 H 271.473 3.93002 -1.18575 0
M  V30 3001 H 270.134 3.12235 -0.341787 0
M  V30 3002 H 269.327 4.48886 -2.29167 0
M  V30 3003 H 268.929 2.76935 -2.51362 0
M  V30 3004 H 271.221 5.76153 -3.56446 0
M  V30 3005 H 272.164 5.08337 -4.92949 0
M  V30 3006 H 272.572 4.61384 -3.25246 0
M  V30 3007 N 271.97 1.30982 0.876444 0
M  V30 3008 C 273.216 1.20474 1.63138 0
M  V30 3009 C 273.549 -0.238096 1.92735 0
M  V30 3010 O 272.824 -1.1692 1.55435 0
M  V30 3011 C 273.107 2.04244 2.96574 0
M  V30 3012 C 272.96 3.56793 2.73896 0
M  V30 3013 C 274.279 1.88684 3.97601 0
M  V30 3014 H 271.398 0.439001 0.591985 0
M  V30 3015 H 274.04 1.60704 1.01361 0
M  V30 3016 H 272.19 1.70063 3.493 0
M  V30 3017 H 273.862 4.01077 2.27892 0
M  V30 3018 H 272.105 3.80548 2.08245 0
M  V30 3019 H 272.776 4.10706 3.68815 0
M  V30 3020 H 275.252 2.18584 3.54062 0
M  V30 3021 H 274.128 2.4961 4.88862 0
M  V30 3022 H 274.389 0.848343 4.33884 0
M  V30 3023 N 273.449 -1.08991 1.13837 0
M  V30 3024 C 274.412 -2.13925 0.822715 0
M  V30 3025 C 275.412 -1.599 -0.1699 0
M  V30 3026 O 276.602 -1.74104 0.0577251 0
M  V30 3027 C 273.734 -3.40155 0.225318 0
M  V30 3028 H 274.927 -2.43358 1.75262 0
M  V30 3029 H 272.48 -1.24603 0.943594 0
M  V30 3030 H 273.215 -3.16352 -0.713594 0
M  V30 3031 H 273 -3.80661 0.940193 0
M  V30 3032 H 274.49 -4.17594 0.0214784 0
M  V30 3033 N 274.927 -0.932562 -1.27047 0
M  V30 3034 C 275.874 -0.434072 -2.26681 0
M  V30 3035 C 276.844 0.501639 -1.58344 0
M  V30 3036 O 278.029 0.419734 -1.86126 0
M  V30 3037 C 275.169 0.30261 -3.43771 0
M  V30 3038 C 274.282 -0.667774 -4.26808 0
M  V30 3039 C 273.417 0.0892393 -5.31125 0
M  V30 3040 C 272.456 -0.873532 -6.05835 0
M  V30 3041 N 271.593 -0.148832 -7.01942 0
M  V30 3042 H 276.433 -1.28868 -2.68695 0
M  V30 3043 H 273.97 -0.646713 -1.32121 0
M  V30 3044 H 275.928 0.746092 -4.10474 0
M  V30 3045 H 274.558 1.12142 -3.02695 0
M  V30 3046 H 273.61 -1.22978 -3.59973 0
M  V30 3047 H 274.922 -1.40337 -4.78651 0
M  V30 3048 H 274.076 0.592409 -6.03801 0
M  V30 3049 H 272.815 0.85777 -4.80097 0
M  V30 3050 H 271.82 -1.38791 -5.31994 0
M  V30 3051 H 273.045 -1.64193 -6.58952 0
M  V30 3052 H 270.991 0.601365 -6.53238 0
M  V30 3053 H 270.908 -0.82391 -7.51497 0
M  V30 3054 H 272.176 0.333527 -7.78786 0
M  V30 3055 N 276.405 1.4127 -0.698611 0
M  V30 3056 C 277.352 2.30773 -0.0352094 0
M  V30 3057 C 278.322 1.47273 0.768111 0
M  V30 3058 O 279.507 1.76053 0.735524 0
M  V30 3059 C 276.647 3.33346 0.893 0
M  V30 3060 C 275.76 4.31924 0.0809695 0
M  V30 3061 C 274.895 5.21566 1.0071 0
M  V30 3062 C 273.934 6.11811 0.188155 0
M  V30 3063 N 273.071 6.93926 1.06825 0
M  V30 3064 H 277.911 2.86943 -0.804207 0
M  V30 3065 H 275.448 1.4132 -0.408294 0
M  V30 3066 H 277.406 3.91368 1.44523 0
M  V30 3067 H 276.036 2.78719 1.62836 0
M  V30 3068 H 275.088 3.75825 -0.588224 0
M  V30 3069 H 276.4 4.95716 -0.553801 0
M  V30 3070 H 275.554 5.84437 1.62845 0
M  V30 3071 H 274.293 4.58008 1.67572 0
M  V30 3072 H 273.298 5.47986 -0.446254 0
M  V30 3073 H 274.523 6.77425 -0.476716 0
M  V30 3074 H 272.469 6.32973 1.72283 0
M  V30 3075 H 272.386 7.54416 0.489123 0
M  V30 3076 H 273.654 7.61262 1.67632 0
M  V30 3077 N 277.883 0.443576 1.51229 0
M  V30 3078 C 279.123 -0.119889 2.04048 0
M  V30 3079 C 279.487 -1.39418 1.32009 0
M  V30 3080 O 280.688 -2.03829 1.75235 0
M  V30 3081 C 278.959 -0.327233 3.55899 0
M  V30 3082 S 280.518 -0.853208 4.30425 0
M  V30 3083 H 277.336 -0.028921 0.710412 0
M  V30 3084 H 279.938 0.604413 1.85922 0
M  V30 3085 H 278.642 0.606445 4.05895 0
M  V30 3086 H 278.173 -1.07844 3.7833 0
M  V30 3087 H 280.188 -2.13005 4.48155 0
M  V30 3088 N 279.361 -1.56624 0.175154 0
M  V30 3089 C 280.291 -2.21155 -0.749195 0
M  V30 3090 C 281.272 -1.16836 -1.23626 0
M  V30 3091 O 282.457 -1.45277 -1.28873 0
M  V30 3092 C 279.587 -2.8553 -1.97711 0
M  V30 3093 C 278.541 -3.95921 -1.62575 0
M  V30 3094 C 277.867 -4.47365 -2.92864 0
M  V30 3095 C 279.167 -5.15323 -0.850838 0
M  V30 3096 H 280.861 -2.98653 -0.211295 0
M  V30 3097 H 278.407 -1.43651 -0.100188 0
M  V30 3098 H 280.36 -3.2935 -2.62881 0
M  V30 3099 H 279.084 -2.05406 -2.53921 0
M  V30 3100 H 277.743 -3.52762 -0.997719 0
M  V30 3101 H 277.391 -3.64027 -3.47122 0
M  V30 3102 H 277.091 -5.21839 -2.70106 0
M  V30 3103 H 278.615 -4.93873 -3.59056 0
M  V30 3104 H 280.029 -5.55812 -1.40521 0
M  V30 3105 H 278.426 -5.95739 -0.722154 0
M  V30 3106 H 279.496 -4.84661 0.152082 0
M  V30 3107 N 280.839 0.0985539 -1.57292 0
M  V30 3108 C 282.088 0.801358 -1.85098 0
M  V30 3109 C 282.401 1.80066 -0.763902 0
M  V30 3110 O 283.607 2.55112 -0.928981 0
M  V30 3111 C 282.063 1.47599 -3.28242 0
M  V30 3112 C 281.671 0.516624 -4.45011 0
M  V30 3113 C 283.415 2.16272 -3.65276 0
M  V30 3114 C 281.322 1.19564 -5.79188 0
M  V30 3115 H 280.252 0.303022 -0.69043 0
M  V30 3116 H 282.903 0.0542623 -1.8342 0
M  V30 3117 H 281.285 2.27042 -3.2445 0
M  V30 3118 H 282.459 -0.246065 -4.60143 0
M  V30 3119 H 280.774 -0.064227 -4.1635 0
M  V30 3120 H 283.371 2.67802 -4.62803 0
M  V30 3121 H 283.714 2.95009 -2.93727 0
M  V30 3122 H 284.247 1.43693 -3.70941 0
M  V30 3123 H 280.986 0.449157 -6.53959 0
M  V30 3124 H 280.506 1.92984 -5.67906 0
M  V30 3125 H 282.185 1.7231 -6.23633 0
M  V30 3126 N 282.317 1.53212 0.369288 0
M  V30 3127 C 283.728 1.60943 0.946276 0
M  V30 3128 C 284.079 0.47452 1.90375 0
M  V30 3129 O 283.204 -0.399597 2.12679 0
M  V30 3130 C 283.799 2.91715 1.72302 0
M  V30 3131 C 282.358 3.01792 2.24941 0
M  V30 3132 C 281.505 2.56211 1.06072 0
M  V30 3133 H 284.456 1.58007 0.148198 0
M  V30 3134 H 284.477 2.79309 2.58393 0
M  V30 3135 H 283.989 3.74295 1.0259 0
M  V30 3136 H 282.09 2.23791 2.97906 0
M  V30 3137 H 282.203 4.06803 2.53077 0
M  V30 3138 H 280.567 2.10998 1.4266 0
M  V30 3139 H 281.35 3.41206 0.378639 0
M  V30 3140 N 283.795 -0.628877 1.44509 0
M  V30 3141 C 285.072 -1.38733 1.37886 0
M  V30 3142 C 285.452 -2.11065 0.0387008 0
M  V30 3143 O 284.8 -2.06476 -0.97878 0
M  V30 3144 C 285.01 -2.35188 2.57852 0
M  V30 3145 C 286.358 -2.9845 3.02014 0
M  V30 3146 O 287.382 -2.45513 2.58073 0
M  V30 3147 O 286.241 -3.94487 3.78209 0
M  V30 3148 H 283.335 -0.621015 0.54614 0
M  V30 3149 H 285.881 -0.653744 1.56602 0
M  V30 3150 H 284.653 -1.80855 3.46998 0
M  V30 3151 H 284.276 -3.1596 2.4136 0
M  V30 3152 N 285.273 -1.31445 -0.869486 0
M  V30 3153 C 286.521 -1.20918 -1.61936 0
M  V30 3154 C 286.842 0.232683 -1.93607 0
M  V30 3155 O 286.112 1.15352 -1.58338 0
M  V30 3156 H 284.692 -0.44454 -0.600328 0
M  V30 3157 H 287.354 -1.64776 -1.0409 0
M  V30 3158 H 286.45 -1.78124 -2.56278 0
M  V30 3159 N 286.751 1.08385 -1.14413 0
M  V30 3160 C 287.991 1.8238 -0.922868 0
M  V30 3161 C 288.355 1.84225 0.540842 0
M  V30 3162 O 289.556 2.53985 0.880058 0
M  V30 3163 C 287.827 3.24048 -1.50757 0
M  V30 3164 S 289.386 4.14917 -1.4279 0
M  V30 3165 H 286.204 0.628524 -0.332384 0
M  V30 3166 H 288.806 1.30278 -1.45766 0
M  V30 3167 H 287.51 3.20288 -2.56601 0
M  V30 3168 H 287.041 3.81224 -0.971178 0
M  V30 3169 H 289.056 4.94473 -0.413582 0
M  V30 3170 N 288.23 0.939286 1.26551 0
M  V30 3171 C 289.478 0.58469 1.93457 0
M  V30 3172 C 289.799 -0.878774 1.74076 0
M  V30 3173 O 289.069 -1.62421 1.09528 0
M  V30 3174 H 287.649 0.21325 0.715914 0
M  V30 3175 H 290.311 1.1942 1.54029 0
M  V30 3176 H 289.407 0.800849 3.0165 0
M  V30 3177 N 289.708 -1.40897 0.706093 0
M  V30 3178 C 290.954 -2.01352 0.241889 0
M  V30 3179 C 291.287 -1.55832 -1.15888 0
M  V30 3180 O 290.562 -0.774145 -1.7843 0
M  V30 3181 C 290.845 -3.58752 0.311311 0
M  V30 3182 C 290.698 -4.1437 1.74978 0
M  V30 3183 C 292.017 -4.38914 -0.322922 0
M  V30 3184 H 289.136 -0.731562 0.0893687 0
M  V30 3185 H 291.778 -1.67504 0.896802 0
M  V30 3186 H 289.928 -3.87718 -0.246302 0
M  V30 3187 H 291.6 -3.96239 2.36205 0
M  V30 3188 H 289.843 -3.69016 2.28057 0
M  V30 3189 H 290.514 -5.23532 1.74981 0
M  V30 3190 H 292.99 -4.15822 0.152089 0
M  V30 3191 H 291.866 -5.48358 -0.243855 0
M  V30 3192 H 292.127 -4.19176 -1.40513 0
M  V30 3193 N 291.186 -0.45159 -1.50991 0
M  V30 3194 C 292.133 0.352625 -2.2809 0
M  V30 3195 C 293.103 1.0044 -1.32291 0
M  V30 3196 O 294.288 1.02058 -1.6121 0
M  V30 3197 C 291.428 1.43983 -3.13629 0
M  V30 3198 C 290.541 0.804772 -4.24438 0
M  V30 3199 C 289.676 1.86822 -4.97263 0
M  V30 3200 C 288.715 1.21236 -5.99973 0
M  V30 3201 N 287.852 2.2178 -6.66152 0
M  V30 3202 H 292.692 -0.311186 -2.96371 0
M  V30 3203 H 290.229 -0.165308 -1.46168 0
M  V30 3204 H 292.187 2.08161 -3.61559 0
M  V30 3205 H 290.817 2.07307 -2.47434 0
M  V30 3206 H 289.869 0.0509129 -3.80366 0
M  V30 3207 H 291.181 0.286076 -4.97979 0
M  V30 3208 H 290.335 2.58628 -5.48813 0
M  V30 3209 H 289.074 2.42068 -4.23385 0
M  V30 3210 H 288.079 0.479828 -5.47702 0
M  V30 3211 H 289.304 0.667051 -6.75816 0
M  V30 3212 H 287.25 2.76079 -5.95077 0
M  V30 3213 H 287.167 1.74841 -7.35504 0
M  V30 3214 H 288.435 2.93026 -7.22327 0
M  V30 3215 N 292.664 1.56529 -0.183458 0
M  V30 3216 C 293.894 2.01331 0.463612 0
M  V30 3217 C 294.302 1.06278 1.5653 0
M  V30 3218 O 293.645 0.0577976 1.83609 0
M  V30 3219 C 293.707 3.42547 1.09096 0
M  V30 3220 C 293.371 4.56817 0.129442 0
M  V30 3221 C 294.368 5.15734 -0.656807 0
M  V30 3222 C 292.053 5.02295 0.02174 0
M  V30 3223 C 294.047 6.1857 -1.53784 0
M  V30 3224 C 291.734 6.04978 -0.862864 0
M  V30 3225 C 292.732 6.62988 -1.64123 0
M  V30 3226 O 292.42 7.63677 -2.51103 0
M  V30 3227 H 292.152 0.664917 0.121907 0
M  V30 3228 H 294.706 2.034 -0.285954 0
M  V30 3229 H 292.936 3.37428 1.88889 0
M  V30 3230 H 294.625 3.71228 1.64148 0
M  V30 3231 H 295.391 4.81473 -0.583839 0
M  V30 3232 H 291.27 4.56847 0.617392 0
M  V30 3233 H 294.814 6.63777 -2.14583 0
M  V30 3234 H 290.711 6.38663 -0.93699 0
M  V30 3235 H 291.479 7.81049 -2.44753 0
M  V30 3236 N 294.142 -0.090211 1.57342 0
M  V30 3237 C 295.388 -0.793982 1.86611 0
M  V30 3238 C 295.721 -1.78142 0.773252 0
M  V30 3239 O 294.996 -1.93271 -0.218304 0
M  V30 3240 C 295.279 -1.51839 3.26523 0
M  V30 3241 C 295.132 -0.548609 4.46442 0
M  V30 3242 C 296.451 -2.46779 3.64401 0
M  V30 3243 H 293.57 -0.287186 0.678744 0
M  V30 3244 H 296.212 -0.0575076 1.89913 0
M  V30 3245 H 294.362 -2.14617 3.23839 0
M  V30 3246 H 296.034 0.0725513 4.61243 0
M  V30 3247 H 294.277 0.137614 4.33582 0
M  V30 3248 H 294.948 -1.09271 5.41076 0
M  V30 3249 H 297.424 -1.94089 3.68061 0
M  V30 3250 H 296.3 -2.94479 4.63221 0
M  V30 3251 H 296.561 -3.30758 2.93346 0
M  V30 3252 N 295.62 -1.53406 -0.361157 0
M  V30 3253 C 297.031 -1.61442 -0.937728 0
M  V30 3254 C 297.382 -0.48461 -1.90121 0
M  V30 3255 O 296.507 0.388312 -2.12888 0
M  V30 3256 C 297.102 -2.92624 -1.70753 0
M  V30 3257 C 295.661 -3.02981 -2.23337 0
M  V30 3258 C 294.808 -2.5677 -1.04712 0
M  V30 3259 H 297.759 -1.58083 -0.139816 0
M  V30 3260 H 297.78 -2.80675 -2.56908 0
M  V30 3261 H 297.292 -3.74834 -1.00604 0
M  V30 3262 H 295.393 -2.25368 -2.96715 0
M  V30 3263 H 295.506 -4.0814 -2.50916 0
M  V30 3264 H 293.87 -2.11752 -1.41539 0
M  V30 3265 H 294.653 -3.41402 -0.360539 0
M  V30 3266 N 297.098 0.621204 -1.44841 0
M  V30 3267 C 298.323 1.41244 -1.51871 0
M  V30 3268 C 298.748 1.87519 -0.147764 0
M  V30 3269 O 298.106 1.59334 0.865 0
M  V30 3270 C 298.154 2.60221 -2.49634 0
M  V30 3271 O 297.258 3.60395 -2.00473 0
M  V30 3272 H 296.599 0.42223 -0.512463 0
M  V30 3273 H 299.129 0.757305 -1.90069 0
M  V30 3274 H 299.139 3.0764 -2.67996 0
M  V30 3275 H 297.814 2.25887 -3.4921 0
M  V30 3276 H 296.391 3.19717 -1.91925 0
M  V30 3277 N 298.576 1.31904 0.862503 0
M  V30 3278 C 299.526 1.16772 1.95827 0
M  V30 3279 C 300.51 0.0767098 1.60717 0
M  V30 3280 O 301.702 0.302407 1.74398 0
M  V30 3281 C 298.831 0.884858 3.317 0
M  V30 3282 C 297.917 2.0172 3.73055 0
M  V30 3283 N 298.308 3.265 3.86305 0
M  V30 3284 C 296.606 1.91861 4.02623 0
M  V30 3285 C 297.307 4.00616 4.2176 0
M  V30 3286 N 296.283 3.28847 4.32852 0
M  V30 3287 H 300.085 2.11382 2.04193 0
M  V30 3288 H 297.599 1.2357 1.05377 0
M  V30 3289 H 299.596 0.757419 4.09962 0
M  V30 3290 H 298.256 -0.0529448 3.24657 0
M  V30 3291 H 299.267 3.61529 3.70833 0
M  V30 3292 H 295.944 1.05593 4.03926 0
M  V30 3293 H 297.334 5.08182 4.39546 0
M  V30 3294 N 300.054 -1.07777 1.14986 0
M  V30 3295 C 301.302 -1.79934 0.920235 0
M  V30 3296 C 301.623 -1.86955 -0.554336 0
M  V30 3297 O 300.893 -1.36731 -1.40291 0
M  V30 3298 H 299.473 -0.666424 0.337473 0
M  V30 3299 H 302.135 -1.3027 1.44968 0
M  V30 3300 H 301.231 -2.82539 1.32583 0
M  V30 3301 N 301.532 -0.945985 -1.26051 0
M  V30 3302 C 302.943 -0.638096 -1.75457 0
M  V30 3303 C 303.294 0.846672 -1.76991 0
M  V30 3304 O 302.419 1.66262 -1.38513 0
M  V30 3305 C 303.014 -1.15157 -3.18629 0
M  V30 3306 C 301.573 -0.894004 -3.65629 0
M  V30 3307 C 300.72 -1.29967 -2.44957 0
M  V30 3308 H 303.671 -1.12376 -1.1206 0
M  V30 3309 H 303.692 -0.507615 -3.77099 0
M  V30 3310 H 303.204 -2.23222 -3.1748 0
M  V30 3311 H 301.305 0.172057 -3.72203 0
M  V30 3312 H 301.418 -1.52439 -4.54202 0
M  V30 3313 H 299.782 -0.718078 -2.44368 0
M  V30 3314 H 300.565 -2.38935 -2.46505 0
M  V30 3315 N 303.011 1.40521 -0.713556 0
M  V30 3316 C 303.941 2.33381 -0.0743864 0
M  V30 3317 C 304.922 1.52784 0.747735 0
M  V30 3318 O 306.107 1.81258 0.697071 0
M  V30 3319 C 303.237 3.36748 0.849598 0
M  V30 3320 C 302.191 4.27793 0.133247 0
M  V30 3321 C 301.517 5.21679 1.17281 0
M  V30 3322 C 302.817 5.12415 -1.01134 0
M  V30 3323 H 304.511 2.87081 -0.850007 0
M  V30 3324 H 302.057 1.38034 -0.410201 0
M  V30 3325 H 304.01 4.00648 1.30612 0
M  V30 3326 H 302.734 2.81439 1.65709 0
M  V30 3327 H 301.393 3.65342 -0.303426 0
M  V30 3328 H 301.041 4.62677 1.9733 0
M  V30 3329 H 300.741 5.83435 0.698397 0
M  V30 3330 H 302.265 5.88456 1.62947 0
M  V30 3331 H 303.679 5.69781 -0.634274 0
M  V30 3332 H 302.076 5.83203 -1.41399 0
M  V30 3333 H 303.146 4.48514 -1.84292 0
M  V30 3334 N 304.489 0.459591 1.5075 0
M  V30 3335 C 305.766 -0.160371 1.94941 0
M  V30 3336 C 306.146 -1.58048 1.39943 0
M  V30 3337 O 305.494 -2.206 0.595629 0
M  V30 3338 C 305.704 -0.115432 3.48809 0
M  V30 3339 C 307.052 -0.310026 4.23467 0
M  V30 3340 O 308.076 -0.192543 3.55679 0
M  V30 3341 O 306.935 -0.546031 5.43765 0
M  V30 3342 H 304.029 -0.117925 0.818549 0
M  V30 3343 H 306.575 0.519169 1.61563 0
M  V30 3344 H 305.347 0.87652 3.81357 0
M  V30 3345 H 304.97 -0.836928 3.88692 0
M  V30 3346 N 305.967 -1.56429 0.191757 0
M  V30 3347 C 306.914 -2.18936 -0.730454 0
M  V30 3348 C 307.884 -1.13557 -1.21219 0
M  V30 3349 O 309.069 -1.41794 -1.27668 0
M  V30 3350 C 306.209 -2.85013 -1.9458 0
M  V30 3351 C 305.322 -4.04909 -1.50574 0
M  V30 3352 C 304.457 -4.58853 -2.67634 0
M  V30 3353 C 303.496 -5.71114 -2.20217 0
M  V30 3354 N 302.633 -6.19478 -3.30442 0
M  V30 3355 H 307.473 -2.97389 -0.190664 0
M  V30 3356 H 305.01 -1.46869 -0.0823694 0
M  V30 3357 H 306.968 -3.21492 -2.65893 0
M  V30 3358 H 305.598 -2.09129 -2.45896 0
M  V30 3359 H 304.65 -3.74115 -0.688605 0
M  V30 3360 H 305.962 -4.86113 -1.11784 0
M  V30 3361 H 305.116 -4.97619 -3.47074 0
M  V30 3362 H 303.855 -3.76749 -3.09696 0
M  V30 3363 H 302.86 -5.31879 -1.3923 0
M  V30 3364 H 304.085 -6.55033 -1.79189 0
M  V30 3365 H 302.031 -5.40297 -3.72041 0
M  V30 3366 H 301.948 -6.95725 -2.9581 0
M  V30 3367 H 303.216 -6.62898 -4.10106 0
M  V30 3368 N 307.445 0.0818655 -1.57387 0
M  V30 3369 C 308.691 0.778884 -1.87896 0
M  V30 3370 C 309.046 1.75692 -0.784229 0
M  V30 3371 O 308.339 1.90417 0.212567 0
M  V30 3372 C 308.533 1.53513 -3.22752 0
M  V30 3373 C 308.362 0.631838 -4.45239 0
M  V30 3374 C 307.132 0.272571 -5.04564 0
M  V30 3375 C 309.33 -0.0670191 -5.14256 0
M  V30 3376 N 307.312 -0.637498 -6.10581 0
M  V30 3377 C 308.683 -0.834653 -6.14356 0
M  V30 3378 C 310.738 -0.139551 -4.97704 0
M  V30 3379 C 309.441 -1.66806 -6.99691 0
M  V30 3380 C 311.467 -0.959903 -5.83558 0
M  V30 3381 C 310.829 -1.71561 -6.83188 0
M  V30 3382 H 306.928 0.260764 -0.737242 0
M  V30 3383 H 309.512 0.0408227 -1.94657 0
M  V30 3384 H 307.683 2.24398 -3.17018 0
M  V30 3385 H 309.415 2.18038 -3.40942 0
M  V30 3386 H 306.17 0.62319 -4.69482 0
M  V30 3387 H 306.594 -1.08548 -6.68241 0
M  V30 3388 H 311.236 0.430376 -4.20604 0
M  V30 3389 H 308.954 -2.249 -7.76174 0
M  V30 3390 H 312.54 -1.01887 -5.72809 0
M  V30 3391 H 311.42 -2.34017 -7.48469 0
M  V30 3392 N 308.923 1.53595 0.353017 0
M  V30 3393 C 310.339 1.43648 0.695516 0
M  V30 3394 C 310.539 0.585617 1.92802 0
M  V30 3395 O 309.595 0.0729223 2.52395 0
M  V30 3396 C 310.908 2.8701 0.896991 0
M  V30 3397 C 312.456 2.96723 0.996209 0
M  V30 3398 C 312.931 4.41173 1.23007 0
M  V30 3399 N 314.422 4.44657 1.29749 0
M  V30 3400 C 315.157 5.53547 1.49577 0
M  V30 3401 N 314.653 6.72461 1.66639 0
M  V30 3402 N 316.446 5.41145 1.52048 0
M  V30 3403 H 308.597 2.07415 -0.457481 0
M  V30 3404 H 310.86 0.9372 -0.142687 0
M  V30 3405 H 310.566 3.51644 0.0629938 0
M  V30 3406 H 310.44 3.31401 1.80148 0
M  V30 3407 H 312.827 2.32235 1.82074 0
M  V30 3408 H 312.908 2.55707 0.0688331 0
M  V30 3409 H 312.552 5.06238 0.410505 0
M  V30 3410 H 312.482 4.79772 2.17086 0
M  V30 3411 H 314.973 3.58963 1.18126 0
M  V30 3412 H 315.286 7.51214 1.81378 0
M  V30 3413 H 313.631 6.75423 1.63794 0
M  V30 3414 H 316.822 4.47205 1.38294 0
M  V30 3415 H 316.995 6.26068 1.67159 0
M  V30 3416 N 310.401 -0.613514 1.45168 0
M  V30 3417 C 311.647 -1.37471 1.49096 0
M  V30 3418 C 311.98 -1.93765 0.129901 0
M  V30 3419 O 311.255 -1.74707 -0.854858 0
M  V30 3420 C 311.538 -2.52701 2.56542 0
M  V30 3421 C 311.391 -2.01643 4.0207 0
M  V30 3422 C 312.71 -3.54849 2.60327 0
M  V30 3423 H 309.829 -0.498502 0.54283 0
M  V30 3424 H 312.471 -0.692125 1.76945 0
M  V30 3425 H 310.621 -3.10931 2.32926 0
M  V30 3426 H 312.293 -1.48108 4.36877 0
M  V30 3427 H 310.536 -1.32688 4.13009 0
M  V30 3428 H 311.207 -2.84681 4.72928 0
M  V30 3429 H 313.683 -3.0645 2.81474 0
M  V30 3430 H 312.559 -4.32973 3.37381 0
M  V30 3431 H 312.82 -4.10079 1.6519 0
M  V30 3432 N 311.879 -1.3236 -0.855495 0
M  V30 3433 C 312.809 -1.23833 -1.97958 0
M  V30 3434 C 313.79 -0.122361 -1.69659 0
M  V30 3435 O 314.975 -0.30939 -1.9172 0
M  V30 3436 C 312.105 -0.959772 -3.33775 0
M  V30 3437 C 311.059 -2.03689 -3.76424 0
M  V30 3438 C 310.385 -1.61075 -5.09862 0
M  V30 3439 C 311.685 -3.4518 -3.9198 0
M  V30 3440 H 313.379 -2.1788 -2.0535 0
M  V30 3441 H 310.925 -1.04891 -0.986605 0
M  V30 3442 H 312.878 -0.886678 -4.11966 0
M  V30 3443 H 311.602 0.0163404 -3.26596 0
M  V30 3444 H 310.261 -2.10012 -3.00484 0
M  V30 3445 H 309.909 -0.622107 -4.99138 0
M  V30 3446 H 309.609 -2.33143 -5.39368 0
M  V30 3447 H 311.133 -1.55201 -5.90546 0
M  V30 3448 H 312.547 -3.4145 -4.60526 0
M  V30 3449 H 310.944 -4.1559 -4.32903 0
M  V30 3450 H 312.014 -3.84903 -2.94919 0
M  V30 3451 N 313.357 1.07166 -1.15556 0
M  V30 3452 C 314.307 2.12649 -0.82247 0
M  V30 3453 C 315.291 1.59725 0.194129 0
M  V30 3454 O 316.483 1.76999 -0.00540402 0
M  V30 3455 C 313.612 3.41847 -0.315572 0
M  V30 3456 C 312.698 4.0162 -1.36244 0
M  V30 3457 N 313.089 4.35625 -2.5703 0
M  V30 3458 C 311.387 4.29114 -1.21562 0
M  V30 3459 C 312.088 4.83017 -3.24144 0
M  V30 3460 N 311.064 4.81906 -2.51531 0
M  V30 3461 H 314.866 2.36776 -1.74111 0
M  V30 3462 H 312.38 1.24622 -1.0413 0
M  V30 3463 H 314.377 4.16859 -0.0585855 0
M  V30 3464 H 313.037 3.19163 0.597105 0
M  V30 3465 H 314.048 4.26253 -2.94158 0
M  V30 3466 H 310.725 4.15919 -0.362988 0
M  V30 3467 H 312.115 5.18605 -4.27198 0
M  V30 3468 N 314.835 0.952656 1.25548 0
M  V30 3469 C 316.06 0.623025 1.97821 0
M  V30 3470 C 316.485 -0.7976 1.70352 0
M  V30 3471 O 315.843 -1.53905 0.958283 0
M  V30 3472 C 315.891 0.885532 3.49558 0
M  V30 3473 O 314.995 -0.0366641 4.12384 0
M  V30 3474 H 314.336 0.237082 0.620232 0
M  V30 3475 H 316.866 1.27871 1.59719 0
M  V30 3476 H 316.876 0.811009 3.99858 0
M  V30 3477 H 315.551 1.92094 3.6888 0
M  V30 3478 H 314.128 0.0898954 3.72792 0
M  V30 3479 O 316.352 -1.36754 0.859105 0
M  V30 3480 H 317.043 -1.8829 0.454606 0
M  V30 END ATOM
M  V30 BEGIN BOND
M  V30 END BOND
M  V30 END CTAB
M  END
$$$$
