drugbank_target|Q96LB4 V-type proton ATPase subunit G 3 (DB01133)
 OpenBabel12092121233D

  0  0  0     0  0            999 V3000
M  V30 BEGIN CTAB
M  V30 COUNTS 1956 1964 0 0 0
M  V30 BEGIN ATOM
M  V30 1 H -0.908 1.98254 -0.117106 0
M  V30 2 N 0 1.576 0 0
M  V30 3 C 0.933 2.03868 1.02534 0
M  V30 4 C 1.911 0.928543 1.3348 0
M  V30 5 O 3.095 1.19667 1.45644 0
M  V30 6 C 0.222 2.43627 2.35294 0
M  V30 7 C -0.732 3.65373 2.2001 0
M  V30 8 S 0.101 5.13292 1.52614 0
M  V30 9 C 1.257 5.56322 2.86805 0
M  V30 10 H 1.49 2.90518 0.631377 0
M  V30 11 H -0.977 1.52953 0.210867 0
M  V30 12 H 0.981 2.67203 3.11629 0
M  V30 13 H -0.358 1.57376 2.7183 0
M  V30 14 H -1.165 3.90944 3.18086 0
M  V30 15 H -1.563 3.418 1.51819 0
M  V30 16 H 0.729 5.58782 3.83104 0
M  V30 17 H 1.672 6.56266 2.65933 0
M  V30 18 H 2.08 4.83886 2.90714 0
M  V30 19 N 1.4781 -0.272755 1.55222 0
M  V30 20 C 2.7061 -1.02255 1.79865 0
M  V30 21 C 3.1211 -1.79924 0.572088 0
M  V30 22 O 2.4781 -1.76638 -0.458842 0
M  V30 23 C 2.5291 -1.98094 3.02392 0
M  V30 24 O 2.2501 -1.23572 4.20311 0
M  V30 25 C 3.7511 -2.84884 3.39641 0
M  V30 26 H 0.9711 -0.302057 0.599168 0
M  V30 27 H 3.5151 -0.303465 2.02236 0
M  V30 28 H 1.6701 -2.65465 2.82147 0
M  V30 29 H 2.0841 -1.88172 4.89583 0
M  V30 30 H 3.5581 -3.47927 4.28545 0
M  V30 31 H 4.0351 -3.54665 2.59055 0
M  V30 32 H 4.6411 -2.23003 3.62146 0
M  V30 33 N 2.9562 -1.48159 -0.537278 0
M  V30 34 C 4.1812 -1.59707 -1.32319 0
M  V30 35 C 4.6062 -0.254859 -1.86365 0
M  V30 36 O 3.9642 0.772378 -1.64024 0
M  V30 37 C 4.0122 -2.6412 -2.45505 0
M  V30 38 O 3.1162 -2.20774 -3.48328 0
M  V30 39 H 2.4572 -0.535791 -0.392204 0
M  V30 40 H 4.9872 -1.94092 -0.647268 0
M  V30 41 H 4.9972 -2.85166 -2.91795 0
M  V30 42 H 3.6722 -3.61567 -2.05528 0
M  V30 43 H 2.2492 -2.09911 -3.08207 0
M  V30 44 N 4.4343 0.785586 -1.36625 0
M  V30 45 C 5.3663 1.90711 -1.2713 0
M  V30 46 C 6.3793 1.61688 -0.189986 0
M  V30 47 O 7.5683 1.72864 -0.445014 0
M  V30 48 C 4.6683 3.25611 -0.939713 0
M  V30 49 C 3.8413 3.82385 -2.12369 0
M  V30 50 C 2.9003 4.95732 -1.76456 0
M  V30 51 O 1.9263 5.12047 -2.48589 0
M  V30 52 N 3.1283 5.76258 -0.700492 0
M  V30 53 H 5.8933 1.99376 -2.23762 0
M  V30 54 H 3.4543 0.964041 -1.30069 0
M  V30 55 H 5.4463 3.98937 -0.680554 0
M  V30 56 H 4.0163 3.12538 -0.0624074 0
M  V30 57 H 3.2363 3.01001 -2.54543 0
M  V30 58 H 4.5243 4.17047 -2.9146 0
M  V30 59 H 3.9223 5.65609 -0.101624 0
M  V30 60 H 2.4793 6.4987 -0.501165 0
M  V30 61 N 5.9124 1.20967 1.01018 0
M  V30 62 C 7.1374 1.0503 1.78839 0
M  V30 63 C 7.5624 -0.395752 1.8389 0
M  V30 64 O 6.9204 -1.28529 1.27867 0
M  V30 65 C 6.9684 1.64602 3.2084 0
M  V30 66 O 6.0724 0.887988 4.02726 0
M  V30 67 H 5.4134 0.369987 0.551367 0
M  V30 68 H 7.9434 1.60399 1.27018 0
M  V30 69 H 7.9534 1.68607 3.71532 0
M  V30 70 H 6.6284 2.69841 3.16479 0
M  V30 71 H 5.2054 0.922648 3.61305 0
M  V30 72 N 7.3905 -1.2043 1.01659 0
M  V30 73 C 8.3225 -2.22626 0.544988 0
M  V30 74 C 9.3355 -1.58479 -0.372609 0
M  V30 75 O 10.5245 -1.77679 -0.170958 0
M  V30 76 C 7.6245 -3.38141 -0.22663 0
M  V30 77 C 6.7975 -4.31877 0.692876 0
M  V30 78 C 5.8565 -5.26191 -0.0311616 0
M  V30 79 O 4.8825 -5.6612 0.591343 0
M  V30 80 N 6.0845 -5.65618 -1.30601 0
M  V30 81 H 8.8495 -2.63716 1.42388 0
M  V30 82 H 6.4105 -1.34971 0.894116 0
M  V30 83 H 8.4025 -3.98239 -0.72024 0
M  V30 84 H 6.9725 -2.95943 -1.00681 0
M  V30 85 H 6.1925 -3.69746 1.36679 0
M  V30 86 H 7.4805 -4.91426 1.31824 0
M  V30 87 H 6.8785 -5.3519 -1.83269 0
M  V30 88 H 5.4355 -6.28025 -1.74435 0
M  V30 89 N 8.8686 -0.792821 -1.36206 0
M  V30 90 C 10.1166 -0.366062 -1.98757 0
M  V30 91 C 10.4376 1.0668 -1.63231 0
M  V30 92 O 9.7076 1.73587 -0.907978 0
M  V30 93 H 8.2876 -0.132364 -0.735179 0
M  V30 94 H 10.9496 -1.01562 -1.66347 0
M  V30 95 H 10.0456 -0.460638 -3.08682 0
M  V30 96 N 10.3467 1.47872 -0.545128 0
M  V30 97 C 11.5957 2.01695 -0.0145033 0
M  V30 98 C 11.9087 1.42609 1.33873 0
M  V30 99 O 13.1147 1.88021 1.95858 0
M  V30 100 C 11.5707 3.59892 0.0245068 0
M  V30 101 C 11.1787 4.27966 -1.32475 0
M  V30 102 C 12.9227 4.21507 0.50316 0
M  V30 103 C 10.8297 5.78136 -1.2455 0
M  V30 104 H 9.7597 0.753998 -0.00165172 0
M  V30 105 H 12.4107 1.69985 -0.691175 0
M  V30 106 H 10.7927 3.88509 0.766575 0
M  V30 107 H 11.9667 4.11003 -2.08357 0
M  V30 108 H 10.2817 3.78286 -1.74036 0
M  V30 109 H 12.8787 5.31538 0.580656 0
M  V30 110 H 13.2217 3.87855 1.51243 0
M  V30 111 H 13.7547 3.97376 -0.183681 0
M  V30 112 H 10.4937 6.16388 -2.23039 0
M  V30 113 H 10.0137 5.97469 -0.528282 0
M  V30 114 H 11.6927 6.40099 -0.942488 0
M  V30 115 N 11.8248 0.280983 1.55075 0
M  V30 116 C 12.7748 -0.618585 2.19448 0
M  V30 117 C 13.7588 -1.11401 1.16098 0
M  V30 118 O 14.9508 -1.0581 1.41891 0
M  V30 119 C 12.0798 -1.79951 2.92357 0
M  V30 120 C 11.1658 -1.321 4.03002 0
M  V30 121 N 11.5568 -0.559044 5.02701 0
M  V30 122 C 9.8548 -1.60346 4.16179 0
M  V30 123 C 10.5558 -0.306722 5.80891 0
M  V30 124 N 9.5318 -0.880825 5.36416 0
M  V30 125 H 13.3338 -0.0286638 2.93886 0
M  V30 126 H 10.8478 0.0848104 1.62178 0
M  V30 127 H 12.8448 -2.45531 3.36927 0
M  V30 128 H 11.5048 -2.39333 2.19431 0
M  V30 129 H 12.5158 -0.205827 5.17491 0
M  V30 130 H 9.1928 -2.20621 3.54447 0
M  V30 131 H 10.5828 0.30391 6.71212 0
M  V30 132 N 13.3029 -1.57598 0.00835791 0
M  V30 133 C 14.2349 -2.05811 -1.00868 0
M  V30 134 C 15.2479 -0.977579 -1.30182 0
M  V30 135 O 16.4369 -1.25421 -1.27011 0
M  V30 136 C 13.5369 -2.45016 -2.34137 0
M  V30 137 C 12.7099 -3.75903 -2.23643 0
M  V30 138 C 11.7689 -4.01884 -3.3967 0
M  V30 139 O 10.7949 -4.72433 -3.17483 0
M  V30 140 N 11.9969 -3.50432 -4.62793 0
M  V30 141 H 14.7619 -2.93684 -0.597458 0
M  V30 142 H 12.3229 -1.60909 -0.178852 0
M  V30 143 H 14.3149 -2.59506 -3.10546 0
M  V30 144 H 12.8849 -1.62618 -2.66972 0
M  V30 145 H 12.1049 -3.7141 -1.32091 0
M  V30 146 H 13.3929 -4.61695 -2.13812 0
M  V30 147 H 12.7909 -2.93317 -4.83716 0
M  V30 148 H 11.3479 -3.70236 -5.3644 0
M  V30 149 N 14.781 0.264519 -1.55364 0
M  V30 150 C 15.711 1.33121 -1.91836 0
M  V30 151 C 16.692 1.51101 -0.781192 0
M  V30 152 O 17.877 1.64003 -1.04003 0
M  V30 153 C 15.007 2.68921 -2.19769 0
M  V30 154 C 13.961 2.65661 -3.35571 0
M  V30 155 C 13.287 4.05093 -3.49004 0
M  V30 156 C 14.587 2.24187 -4.71739 0
M  V30 157 H 16.281 1.02844 -2.81182 0
M  V30 158 H 13.827 0.493286 -1.35287 0
M  V30 159 H 15.78 3.43663 -2.43872 0
M  V30 160 H 14.504 3.00799 -1.27231 0
M  V30 161 H 13.163 1.93377 -3.1145 0
M  V30 162 H 12.811 4.34206 -2.53917 0
M  V30 163 H 12.511 4.03804 -4.26868 0
M  V30 164 H 14.035 4.81561 -3.75408 0
M  V30 165 H 15.449 2.88654 -4.9533 0
M  V30 166 H 13.846 2.34044 -5.52579 0
M  V30 167 H 14.916 1.19327 -4.69988 0
M  V30 168 N 16.2591 1.48442 0.529413 0
M  V30 169 C 17.1891 1.65902 1.64313 0
M  V30 170 C 18.1701 0.507897 1.6234 0
M  V30 171 O 19.3551 0.740503 1.79528 0
M  V30 172 C 16.4851 1.69911 3.02898 0
M  V30 173 C 15.4391 2.8453 3.19729 0
M  V30 174 C 14.7651 2.73629 4.59381 0
M  V30 175 C 16.0651 4.25821 3.02447 0
M  V30 176 H 17.7591 2.5914 1.49955 0
M  V30 177 H 15.3051 1.24709 0.719982 0
M  V30 178 H 17.2581 1.80715 3.80684 0
M  V30 179 H 15.9821 0.732524 3.18279 0
M  V30 180 H 14.6411 2.73283 2.44361 0
M  V30 181 H 14.2891 1.74938 4.71599 0
M  V30 182 H 13.9891 3.50541 4.71588 0
M  V30 183 H 15.5131 2.86401 5.39265 0
M  V30 184 H 16.9271 4.37898 3.70024 0
M  V30 185 H 15.3241 5.03735 3.26146 0
M  V30 186 H 16.3941 4.42244 1.98867 0
M  V30 187 N 17.7372 -0.778329 1.37039 0
M  V30 188 C 18.6692 -1.90034 1.2814 0
M  V30 189 C 19.6822 -1.61585 0.198558 0
M  V30 190 O 20.8712 -1.72625 0.454175 0
M  V30 191 C 17.9712 -3.25108 0.956968 0
M  V30 192 C 17.1442 -3.81253 2.14394 0
M  V30 193 C 16.2032 -4.94789 1.79082 0
M  V30 194 O 15.2292 -5.10721 2.51301 0
M  V30 195 N 16.4312 -5.75878 0.731043 0
M  V30 196 H 19.1962 -1.98186 2.24816 0
M  V30 197 H 16.7572 -0.957129 1.30578 0
M  V30 198 H 18.7492 -3.9857 0.701701 0
M  V30 199 H 17.3192 -3.125 0.0789812 0
M  V30 200 H 16.5392 -2.99647 2.56135 0
M  V30 201 H 17.8272 -4.15495 2.93668 0
M  V30 202 H 17.2252 -5.65547 0.131618 0
M  V30 203 H 15.7822 -6.49596 0.535622 0
M  V30 204 N 19.2153 -1.21501 -1.00376 0
M  V30 205 C 20.1783 -0.976927 -2.07337 0
M  V30 206 C 21.1783 0.0525322 -1.60714 0
M  V30 207 O 22.3683 -0.184869 -1.73216 0
M  V30 208 C 19.5003 -0.473423 -3.37597 0
M  V30 209 H 20.6933 -1.92587 -2.29892 0
M  V30 210 H 18.2463 -1.03217 -1.17371 0
M  V30 211 H 18.9813 0.480379 -3.20722 0
M  V30 212 H 18.7663 -1.216 -3.72768 0
M  V30 213 H 20.2563 -0.32675 -4.1632 0
M  V30 214 N 20.6934 1.19889 -1.02296 0
M  V30 215 C 21.6034 2.26571 -0.608508 0
M  V30 216 C 22.6194 1.70299 0.356964 0
M  V30 217 O 23.7954 2.00235 0.216326 0
M  V30 218 C 20.8604 3.46677 0.0402814 0
M  V30 219 C 19.9214 4.18153 -0.97194 0
M  V30 220 C 19.1544 5.32525 -0.354016 0
M  V30 221 O 19.3774 5.64112 0.844604 0
M  V30 222 O 18.3114 5.92242 -1.07391 0
M  V30 223 H 22.1374 2.64251 -1.49684 0
M  V30 224 H 19.7224 1.26629 -0.792809 0
M  V30 225 H 21.6044 4.19475 0.402324 0
M  V30 226 H 20.2794 3.10858 0.902707 0
M  V30 227 H 19.1864 3.47499 -1.38546 0
M  V30 228 H 20.5194 4.57927 -1.80454 0
M  V30 229 N 22.1715 0.800033 1.35784 0
M  V30 230 C 23.1185 0.203848 2.29898 0
M  V30 231 C 24.0885 -0.658375 1.52495 0
M  V30 232 O 25.2735 -0.604832 1.8096 0
M  V30 233 C 22.4135 -0.64688 3.38983 0
M  V30 234 C 21.5265 0.235054 4.3136 0
M  V30 235 C 20.6615 -0.623054 5.27533 0
M  V30 236 C 19.7005 0.259682 6.11549 0
M  V30 237 N 18.8375 -0.558019 6.99879 0
M  V30 238 H 23.6775 1.01186 2.80295 0
M  V30 239 H 21.2145 0.51053 1.37957 0
M  V30 240 H 23.1725 -1.15521 4.00887 0
M  V30 241 H 21.8025 -1.42021 2.89879 0
M  V30 242 H 20.8545 0.861438 3.70518 0
M  V30 243 H 22.1665 0.914768 4.9034 0
M  V30 244 H 21.3205 -1.19678 5.94779 0
M  V30 245 H 20.0595 -1.33636 4.69034 0
M  V30 246 H 19.0645 0.845726 5.43256 0
M  V30 247 H 20.2895 0.970748 6.72126 0
M  V30 248 H 18.2355 -1.25542 6.43875 0
M  V30 249 H 18.1525 0.0637872 7.55973 0
M  V30 250 H 19.4205 -1.11523 7.71481 0
M  V30 251 N 23.6496 -1.47581 0.552962 0
M  V30 252 C 25.0656 -1.5818 0.212424 0
M  V30 253 C 25.2656 -1.55213 -1.28496 0
M  V30 254 O 24.3216 -1.45329 -2.06484 0
M  V30 255 C 25.6346 -2.88865 0.835318 0
M  V30 256 C 27.1826 -3.0244 0.806156 0
M  V30 257 C 27.6576 -4.35819 1.40804 0
M  V30 258 N 29.1486 -4.42444 1.37103 0
M  V30 259 C 29.8836 -5.44202 1.80641 0
M  V30 260 N 29.3796 -6.52795 2.32015 0
M  V30 261 N 31.1726 -5.35222 1.71738 0
M  V30 262 H 23.3236 -1.47753 1.52587 0
M  V30 263 H 25.5866 -0.702941 0.636064 0
M  V30 264 H 25.2926 -2.9676 1.88749 0
M  V30 265 H 25.1666 -3.7579 0.325848 0
M  V30 266 H 27.5536 -2.94144 -0.237317 0
M  V30 267 H 27.6346 -2.17068 1.35334 0
M  V30 268 H 27.2786 -4.44871 2.45056 0
M  V30 269 H 27.2086 -5.19916 0.836338 0
M  V30 270 H 29.6996 -3.6456 0.995202 0
M  V30 271 H 30.0126 -7.26609 2.63171 0
M  V30 272 H 28.3576 -6.53696 2.36023 0
M  V30 273 H 31.5486 -4.49284 1.31382 0
M  V30 274 H 31.7216 -6.14389 2.05987 0
M  V30 275 N 25.1277 -0.289203 -1.54924 0
M  V30 276 C 26.0907 0.579144 -2.21762 0
M  V30 277 C 27.0907 1.07047 -1.1999 0
M  V30 278 O 28.2807 0.968384 -1.44803 0
M  V30 279 C 25.4127 1.80055 -2.8947 0
M  V30 280 H 26.6057 -0.00464908 -2.999 0
M  V30 281 H 24.1587 -0.0399306 -1.56249 0
M  V30 282 H 24.8937 2.42449 -2.15381 0
M  V30 283 H 24.6787 1.45602 -3.64064 0
M  V30 284 H 26.1687 2.41773 -3.40493 0
M  V30 285 N 26.6058 1.57591 -0.0167156 0
M  V30 286 C 27.5528 2.09462 0.969251 0
M  V30 287 C 28.5228 0.99381 1.33089 0
M  V30 288 O 29.7078 1.26726 1.42636 0
M  V30 289 C 26.8478 2.61622 2.25051 0
M  V30 290 C 25.9608 3.85666 1.94642 0
M  V30 291 C 25.0958 4.26266 3.16972 0
M  V30 292 C 24.1348 5.43101 2.82326 0
M  V30 293 N 23.2718 5.78915 3.97243 0
M  V30 294 H 28.1118 2.93428 0.519997 0
M  V30 295 H 25.6488 1.45044 0.245087 0
M  V30 296 H 27.6068 2.89949 2.99976 0
M  V30 297 H 26.2368 1.80505 2.67615 0
M  V30 298 H 25.2888 3.64145 1.10013 0
M  V30 299 H 26.6008 4.70678 1.65117 0
M  V30 300 H 25.7548 4.55963 4.00228 0
M  V30 301 H 24.4938 3.39996 3.49648 0
M  V30 302 H 23.4988 5.1311 1.97479 0
M  V30 303 H 24.7238 6.3106 2.50879 0
M  V30 304 H 22.6698 4.95602 4.29785 0
M  V30 305 H 22.5868 6.58539 3.71299 0
M  V30 306 H 23.8548 6.13212 4.81239 0
M  V30 307 N 28.0839 -0.256276 1.55502 0
M  V30 308 C 29.3609 -1.00789 1.67633 0
M  V30 309 C 29.7409 -2.03706 0.553826 0
M  V30 310 O 29.0889 -2.24145 -0.443969 0
M  V30 311 C 29.2989 -1.64968 3.07549 0
M  V30 312 C 30.6469 -2.15505 3.65845 0
M  V30 313 O 31.6709 -1.74925 3.1029 0
M  V30 314 O 30.5299 -2.89986 4.63217 0
M  V30 315 H 27.6239 -0.468553 0.681459 0
M  V30 316 H 30.1699 -0.250806 1.67836 0
M  V30 317 H 28.9419 -0.904785 3.80696 0
M  V30 318 H 28.5649 -2.47321 3.11317 0
M  V30 319 N 29.562 -1.4872 -0.521534 0
M  V30 320 C 30.509 -1.63871 -1.62527 0
M  V30 321 C 31.479 -0.480559 -1.58996 0
M  V30 322 O 32.664 -0.705085 -1.77294 0
M  V30 323 C 29.804 -1.69227 -3.00759 0
M  V30 324 C 28.917 -2.96207 -3.14461 0
M  V30 325 C 28.052 -2.92671 -4.43303 0
M  V30 326 C 27.091 -4.14318 -4.50563 0
M  V30 327 N 26.228 -4.0881 -5.70805 0
M  V30 328 H 31.068 -2.58123 -1.48918 0
M  V30 329 H 28.605 -1.28 -0.724878 0
M  V30 330 H 30.563 -1.70314 -3.80853 0
M  V30 331 H 29.193 -0.784586 -3.1312 0
M  V30 332 H 28.245 -3.04826 -2.27564 0
M  V30 333 H 29.557 -3.86192 -3.15686 0
M  V30 334 H 28.711 -2.92206 -5.31696 0
M  V30 335 H 27.45 -2.00429 -4.44612 0
M  V30 336 H 26.455 -4.15049 -3.60575 0
M  V30 337 H 27.68 -5.07729 -4.50986 0
M  V30 338 H 25.626 -3.19394 -5.72995 0
M  V30 339 H 25.543 -4.92509 -5.7356 0
M  V30 340 H 26.811 -4.12418 -6.61462 0
M  V30 341 N 31.0401 0.771051 -1.3745 0
M  V30 342 C 31.9701 1.89827 -1.3597 0
M  V30 343 C 32.9511 1.68562 -0.228216 0
M  V30 344 O 34.1361 1.8941 -0.428675 0
M  V30 345 C 31.2661 3.2712 -1.16662 0
M  V30 346 C 30.2201 3.6295 -2.2683 0
M  V30 347 C 29.5461 4.98791 -1.92644 0
M  V30 348 C 30.8461 3.69627 -3.69017 0
M  V30 349 H 32.5401 1.91323 -2.30295 0
M  V30 350 H 30.0861 0.919082 -1.10855 0
M  V30 351 H 32.0391 4.05615 -1.14256 0
M  V30 352 H 30.7631 3.26059 -0.187926 0
M  V30 353 H 29.4221 2.86763 -2.28392 0
M  V30 354 H 29.0701 4.94271 -0.933021 0
M  V30 355 H 28.7701 5.23733 -2.66416 0
M  V30 356 H 30.2941 5.79685 -1.91826 0
M  V30 357 H 31.7081 4.38273 -3.69581 0
M  V30 358 H 30.1051 4.06067 -4.41848 0
M  V30 359 H 31.1751 2.70273 -4.02592 0
M  V30 360 N 32.5182 1.22032 0.997298 0
M  V30 361 C 33.4282 1.00271 2.12092 0
M  V30 362 C 34.4442 -0.047621 1.73935 0
M  V30 363 O 35.6202 0.144136 2.00884 0
M  V30 364 C 32.6852 0.578449 3.4184 0
M  V30 365 C 31.7462 1.70189 3.94125 0
M  V30 366 C 30.9792 1.29778 5.17681 0
M  V30 367 O 31.2022 0.174676 5.70132 0
M  V30 368 O 30.1362 2.11261 5.63607 0
M  V30 369 H 33.9622 1.94398 2.3333 0
M  V30 370 H 31.5472 1.00587 1.10465 0
M  V30 371 H 33.4292 0.351998 4.19927 0
M  V30 372 H 32.1042 -0.334019 3.21972 0
M  V30 373 H 31.0112 1.98282 3.1723 0
M  V30 374 H 32.3442 2.59206 4.18417 0
M  V30 375 N 33.9963 -1.19345 1.0293 0
M  V30 376 C 34.9063 -2.26245 0.620515 0
M  V30 377 C 35.9223 -1.70486 -0.347928 0
M  V30 378 O 37.0983 -2.00347 -0.205704 0
M  V30 379 C 34.1633 -3.46693 -0.0218957 0
M  V30 380 C 33.2243 -4.17632 0.994102 0
M  V30 381 C 32.4573 -5.32329 0.382253 0
M  V30 382 O 32.6803 -5.64552 -0.814676 0
M  V30 383 O 31.6143 -5.91664 1.10531 0
M  V30 384 H 35.4403 -2.63453 1.51083 0
M  V30 385 H 33.0253 -1.26207 0.799513 0
M  V30 386 H 34.9073 -4.19683 -0.380072 0
M  V30 387 H 33.5823 -3.11333 -0.886209 0
M  V30 388 H 32.4893 -3.4676 1.40387 0
M  V30 389 H 33.8223 -4.56964 1.8288 0
M  V30 390 N 35.4744 -0.807222 -1.35358 0
M  V30 391 C 36.4374 -0.223665 -2.28106 0
M  V30 392 C 37.4374 0.589354 -1.4961 0
M  V30 393 O 38.6274 0.407745 -1.69361 0
M  V30 394 C 35.7594 0.688149 -3.33882 0
M  V30 395 H 36.9524 -1.04169 -2.81227 0
M  V30 396 H 34.5054 -0.577921 -1.45223 0
M  V30 397 H 35.2404 1.52984 -2.85948 0
M  V30 398 H 35.0254 0.10687 -3.91954 0
M  V30 399 H 36.5154 1.09075 -4.03104 0
M  V30 400 N 36.9525 1.47285 -0.560781 0
M  V30 401 C 37.8995 2.30058 0.18491 0
M  V30 402 C 38.8695 1.39281 0.904986 0
M  V30 403 O 40.0545 1.68241 0.899979 0
M  V30 404 C 37.1945 3.23317 1.20666 0
M  V30 405 C 36.3075 4.29186 0.492285 0
M  V30 406 C 35.4425 5.09592 1.49964 0
M  V30 407 C 34.4815 6.07232 0.770439 0
M  V30 408 N 33.6185 6.80584 1.72479 0
M  V30 409 H 38.4585 2.93302 -0.527048 0
M  V30 410 H 35.9955 1.44568 -0.271738 0
M  V30 411 H 37.9535 3.75811 1.81168 0
M  V30 412 H 36.5835 2.61929 1.88661 0
M  V30 413 H 35.6355 3.7972 -0.227333 0
M  V30 414 H 36.9475 4.98738 -0.0787929 0
M  V30 415 H 36.1015 5.66254 2.17809 0
M  V30 416 H 34.8405 4.3995 2.10464 0
M  V30 417 H 33.8455 5.49745 0.0780846 0
M  V30 418 H 35.0705 6.78884 0.171134 0
M  V30 419 H 33.0165 6.1367 2.3183 0
M  V30 420 H 32.9335 7.46319 1.20596 0
M  V30 421 H 34.2015 7.41818 2.39428 0
M  V30 422 N 38.4306 0.297415 1.54768 0
M  V30 423 C 39.3776 -0.580276 2.23386 0
M  V30 424 C 40.3476 -1.13238 1.21517 0
M  V30 425 O 41.5326 -1.17757 1.50126 0
M  V30 426 C 38.6726 -1.74801 2.97555 0
M  V30 427 C 37.7856 -1.22764 4.1419 0
M  V30 428 C 36.9206 -2.35895 4.75949 0
M  V30 429 C 35.9596 -1.80974 5.84735 0
M  V30 430 N 35.0966 -2.87664 6.40464 0
M  V30 431 H 39.9366 0.0114833 2.97998 0
M  V30 432 H 37.4736 0.0174361 1.4709 0
M  V30 433 H 39.4316 -2.43475 3.38786 0
M  V30 434 H 38.0616 -2.31145 2.25326 0
M  V30 435 H 37.1136 -0.433271 3.77924 0
M  V30 436 H 38.4256 -0.785551 4.92575 0
M  V30 437 H 37.5796 -3.12523 5.20014 0
M  V30 438 H 36.3186 -2.83429 3.96887 0
M  V30 439 H 35.3236 -1.02834 5.40097 0
M  V30 440 H 36.5486 -1.34348 6.65678 0
M  V30 441 H 34.4946 -3.34538 5.64287 0
M  V30 442 H 34.4116 -2.4794 7.14186 0
M  V30 443 H 35.6796 -3.642 6.89187 0
M  V30 444 N 39.9087 -1.5758 0.0250728 0
M  V30 445 C 41.3247 -1.56124 -0.331282 0
M  V30 446 C 41.5247 -1.03029 -1.73169 0
M  V30 447 O 40.5807 -0.675215 -2.43305 0
M  V30 448 C 41.8937 -3.00139 -0.183584 0
M  V30 449 C 43.4417 -3.11946 -0.256654 0
M  V30 450 C 43.9167 -4.57793 -0.137792 0
M  V30 451 N 45.4077 -4.6279 -0.194904 0
M  V30 452 C 46.1427 -5.7326 -0.126655 0
M  V30 453 N 45.6387 -6.928 -0.00755288 0
M  V30 454 N 47.4317 -5.61811 -0.180348 0
M  V30 455 H 39.5827 -1.90424 0.94087 0
M  V30 456 H 41.8457 -0.875761 0.362968 0
M  V30 457 H 41.5517 -3.4292 0.780927 0
M  V30 458 H 41.4257 -3.64899 -0.955448 0
M  V30 459 H 43.8127 -2.69079 -1.21162 0
M  V30 460 H 43.8937 -2.49915 0.545517 0
M  V30 461 H 43.5377 -5.01339 0.813739 0
M  V30 462 H 43.4677 -5.17798 -0.958775 0
M  V30 463 H 45.9587 -3.76807 -0.287267 0
M  V30 464 H 46.2717 -7.72791 0.0379428 0
M  V30 465 H 44.6167 -6.94995 0.0271731 0
M  V30 466 H 47.8077 -4.6731 -0.271767 0
M  V30 467 H 47.9807 -6.47882 -0.123697 0
M  V30 468 N 41.3868 0.248026 -1.55636 0
M  V30 469 C 42.3338 1.30707 -1.90222 0
M  V30 470 C 43.3038 1.47881 -0.756332 0
M  V30 471 O 44.4888 1.61883 -1.00988 0
M  V30 472 C 41.6288 2.65769 -2.20138 0
M  V30 473 C 40.7418 2.56612 -3.47526 0
M  V30 474 C 39.8768 3.8402 -3.67017 0
M  V30 475 C 38.9158 3.69476 -4.8801 0
M  V30 476 N 38.0528 4.88774 -5.04029 0
M  V30 477 H 42.8928 1.00512 -2.80538 0
M  V30 478 H 40.4298 0.485055 -1.38873 0
M  V30 479 H 42.3878 3.44386 -2.35487 0
M  V30 480 H 41.0178 2.94115 -1.33027 0
M  V30 481 H 40.0698 1.69571 -3.40514 0
M  V30 482 H 41.3818 2.41774 -4.36287 0
M  V30 483 H 40.5358 4.7108 -3.8232 0
M  V30 484 H 39.2748 4.01754 -2.76487 0
M  V30 485 H 38.2798 2.80799 -4.72686 0
M  V30 486 H 39.5048 3.53238 -5.8 0
M  V30 487 H 37.4508 5.0687 -4.16435 0
M  V30 488 H 37.3678 4.76562 -5.86877 0
M  V30 489 H 38.6358 5.77335 -5.23741 0
M  V30 490 N 42.8649 1.48995 0.513639 0
M  V30 491 C 44.1129 1.57531 1.26604 0
M  V30 492 C 44.4339 0.258236 1.93283 0
M  V30 493 O 43.7039 -0.721502 1.8213 0
M  V30 494 H 42.2839 0.580387 0.470276 0
M  V30 495 H 44.9459 1.85552 0.596373 0
M  V30 496 H 44.0419 2.36486 2.03669 0
M  V30 497 N 44.343 -0.763751 1.37857 0
M  V30 498 C 45.29 -1.87726 1.34267 0
M  V30 499 C 46.26 -1.64807 0.206879 0
M  V30 500 O 47.445 -1.86613 0.397508 0
M  V30 501 C 44.585 -3.24896 1.16346 0
M  V30 502 C 43.698 -3.59716 2.39225 0
M  V30 503 C 42.833 -4.86137 2.14114 0
M  V30 504 C 41.872 -5.13711 3.32817 0
M  V30 505 N 41.009 -6.31323 3.07206 0
M  V30 506 H 45.849 -1.90129 2.29466 0
M  V30 507 H 43.386 -0.929433 1.14017 0
M  V30 508 H 45.344 -4.04036 1.03975 0
M  V30 509 H 43.974 -3.21847 0.247909 0
M  V30 510 H 43.026 -2.75498 2.62307 0
M  V30 511 H 44.338 -3.76027 3.27728 0
M  V30 512 H 43.492 -5.73198 1.9882 0
M  V30 513 H 42.231 -4.71945 1.22961 0
M  V30 514 H 41.236 -4.25123 3.48641 0
M  V30 515 H 42.461 -5.29807 4.24832 0
M  V30 516 H 40.407 -6.18474 2.1869 0
M  V30 517 H 40.324 -6.48087 3.89254 0
M  V30 518 H 41.592 -7.213 2.95546 0
M  V30 519 N 45.8211 -1.22559 -0.990812 0
M  V30 520 C 47.2371 -0.985996 -1.255 0
M  V30 521 C 47.4371 0.319173 -1.98956 0
M  V30 522 O 46.4931 1.04127 -2.3003 0
M  V30 523 C 47.8061 -2.18607 -2.06474 0
M  V30 524 C 49.3541 -2.22985 -2.19651 0
M  V30 525 C 49.8291 -3.4255 -3.04012 0
M  V30 526 N 51.3201 -3.42725 -3.11599 0
M  V30 527 C 52.0551 -4.31892 -3.7717 0
M  V30 528 N 51.5511 -5.31279 -4.44651 0
M  V30 529 N 53.3441 -4.19662 -3.73952 0
M  V30 530 H 45.4951 -2.06469 -0.49841 0
M  V30 531 H 47.7581 -0.904853 -0.282747 0
M  V30 532 H 47.4641 -3.13267 -1.59865 0
M  V30 533 H 47.3381 -2.18838 -3.07229 0
M  V30 534 H 49.7251 -1.28871 -2.65474 0
M  V30 535 H 49.8061 -2.26791 -1.18319 0
M  V30 536 H 49.4501 -4.36965 -2.58889 0
M  V30 537 H 49.3801 -3.35984 -4.0549 0
M  V30 538 H 51.8711 -2.70807 -2.63575 0
M  V30 539 H 52.1841 -5.95593 -4.92431 0
M  V30 540 H 50.5291 -5.3519 -4.43392 0
M  V30 541 H 53.7201 -3.41268 -3.20396 0
M  V30 542 H 53.8931 -4.89358 -4.24774 0
M  V30 543 N 47.2992 1.18797 -1.03562 0
M  V30 544 C 48.2292 2.24472 -0.643019 0
M  V30 545 C 49.2102 1.66433 0.351283 0
M  V30 546 O 50.3952 1.92803 0.232505 0
M  V30 547 C 47.5252 3.473 4.24935e-05 0
M  V30 548 C 46.4792 4.18055 -0.917257 0
M  V30 549 C 45.8052 5.34519 -0.138941 0
M  V30 550 C 47.1052 4.72109 -2.23407 0
M  V30 551 H 48.7992 2.57566 -1.52643 0
M  V30 552 H 46.3452 1.23806 -0.735394 0
M  V30 553 H 48.2982 4.20426 0.286383 0
M  V30 554 H 47.0222 3.13424 0.918299 0
M  V30 555 H 45.6812 3.46821 -1.1879 0
M  V30 556 H 45.3292 4.96891 0.781562 0
M  V30 557 H 45.0292 5.82794 -0.750005 0
M  V30 558 H 46.5532 6.10438 0.1405 0
M  V30 559 H 47.9672 5.36955 -2.00879 0
M  V30 560 H 46.3642 5.30897 -2.79765 0
M  V30 561 H 47.4342 3.89807 -2.88407 0
M  V30 562 N 48.7773 0.814389 1.34928 0
M  V30 563 C 49.7243 0.22822 2.29669 0
M  V30 564 C 50.6943 -0.642164 1.53184 0
M  V30 565 O 51.8793 -0.585605 1.81591 0
M  V30 566 C 49.0193 -0.61089 3.3965 0
M  V30 567 C 48.1323 0.280792 4.31086 0
M  V30 568 C 47.2673 -0.567067 5.28165 0
M  V30 569 C 46.3063 0.324531 6.11239 0
M  V30 570 N 45.4433 -0.483756 7.00431 0
M  V30 571 H 50.2833 1.04153 2.79206 0
M  V30 572 H 47.8203 0.525133 1.37407 0
M  V30 573 H 49.7783 -1.11263 4.0209 0
M  V30 574 H 48.4083 -1.38939 2.91369 0
M  V30 575 H 47.4603 0.900688 3.69583 0
M  V30 576 H 48.7723 0.966723 4.89342 0
M  V30 577 H 47.9263 -1.13363 5.96015 0
M  V30 578 H 46.6653 -1.28654 4.70425 0
M  V30 579 H 45.6703 0.903298 5.42329 0
M  V30 580 H 46.8953 1.04198 6.71059 0
M  V30 581 H 44.8413 -1.18706 6.45171 0
M  V30 582 H 44.7583 0.143965 7.55863 0
M  V30 583 H 46.0263 -1.03334 7.7262 0
M  V30 584 N 50.2554 -1.46986 0.568584 0
M  V30 585 C 51.1874 -2.28233 -0.210337 0
M  V30 586 C 52.2004 -1.37682 -0.868767 0
M  V30 587 O 53.3894 -1.62406 -0.740705 0
M  V30 588 C 50.4894 -3.12293 -1.3163 0
M  V30 589 C 49.6624 -4.30878 -0.7525 0
M  V30 590 C 48.7214 -4.96445 -1.74439 0
M  V30 591 O 47.7474 -5.54482 -1.286 0
M  V30 592 N 48.9494 -4.92171 -3.07812 0
M  V30 593 H 51.7144 -2.95723 0.486648 0
M  V30 594 H 49.2754 -1.56742 0.405409 0
M  V30 595 H 51.2674 -3.53022 -1.97883 0
M  V30 596 H 49.8374 -2.46971 -1.91636 0
M  V30 597 H 49.0574 -3.94104 0.0871128 0
M  V30 598 H 50.3454 -5.07558 -0.35536 0
M  V30 599 H 49.7434 -4.46239 -3.47688 0
M  V30 600 H 48.3004 -5.36884 -3.69592 0
M  V30 601 N 51.7335 -0.305618 -1.54608 0
M  V30 602 C 52.6965 0.555591 -2.22364 0
M  V30 603 C 53.6965 1.05768 -1.21119 0
M  V30 604 O 54.8865 0.952972 -1.45822 0
M  V30 605 C 52.0185 1.76974 -2.91364 0
M  V30 606 H 53.2115 -0.0364572 -2.99878 0
M  V30 607 H 50.7645 -0.0565007 -1.56198 0
M  V30 608 H 51.4995 2.40151 -2.17941 0
M  V30 609 H 51.2845 1.41732 -3.65588 0
M  V30 610 H 52.7745 2.38148 -3.43038 0
M  V30 611 N 53.2116 1.57565 -0.0334293 0
M  V30 612 C 54.1586 2.10478 0.946981 0
M  V30 613 C 55.1286 1.00787 1.32027 0
M  V30 614 O 56.3136 1.28232 1.41284 0
M  V30 615 C 53.4536 2.63994 2.22263 0
M  V30 616 C 52.5666 3.87709 1.90541 0
M  V30 617 C 51.7016 4.29604 3.12433 0
M  V30 618 C 50.7406 5.46065 2.76549 0
M  V30 619 N 49.8776 5.83096 3.9108 0
M  V30 620 H 54.7176 2.93963 0.488846 0
M  V30 621 H 52.2546 1.45296 0.22969 0
M  V30 622 H 54.2126 2.93114 2.96884 0
M  V30 623 H 52.8426 1.83333 2.65685 0
M  V30 624 H 51.8946 3.65291 1.06144 0
M  V30 625 H 53.2066 4.72403 1.60116 0
M  V30 626 H 52.3606 4.60182 3.9537 0
M  V30 627 H 51.0996 3.43685 3.46023 0
M  V30 628 H 50.1046 5.15176 1.92026 0
M  V30 629 H 51.3296 6.33685 2.44171 0
M  V30 630 H 49.2756 5.00132 4.24504 0
M  V30 631 H 49.1926 6.6244 3.64293 0
M  V30 632 H 50.4606 6.18282 4.74708 0
M  V30 633 N 54.6897 -0.239769 1.55765 0
M  V30 634 C 55.5997 -1.31831 1.94056 0
M  V30 635 C 56.6157 -1.52275 0.841925 0
M  V30 636 O 57.7917 -1.65759 1.14394 0
M  V30 637 C 54.8567 -2.65156 2.23368 0
M  V30 638 C 53.9177 -2.53173 3.46701 0
M  V30 639 C 53.1507 -3.8014 3.74606 0
M  V30 640 O 53.3737 -4.82343 3.04469 0
M  V30 641 O 52.3077 -3.78344 4.68123 0
M  V30 642 H 56.1337 -1.02347 2.85935 0
M  V30 643 H 53.7187 -0.441123 1.42739 0
M  V30 644 H 55.6007 -3.43929 2.43497 0
M  V30 645 H 54.2757 -2.94358 1.34666 0
M  V30 646 H 53.1827 -1.72662 3.31871 0
M  V30 647 H 54.5157 -2.28915 4.35728 0
M  V30 648 N 56.1678 -1.49265 -0.50573 0
M  V30 649 C 57.0778 -1.68312 -1.63427 0
M  V30 650 C 58.0938 -0.565682 -1.64548 0
M  V30 651 O 59.2698 -0.839801 -1.83055 0
M  V30 652 C 56.3348 -1.74107 -2.99813 0
M  V30 653 C 55.3958 -2.97653 -3.09356 0
M  V30 654 C 54.6288 -3.03163 -4.39236 0
M  V30 655 O 54.8518 -2.16396 -5.27758 0
M  V30 656 O 53.7858 -3.9558 -4.53652 0
M  V30 657 H 57.6118 -2.63907 -1.50289 0
M  V30 658 H 55.1968 -1.32951 -0.681502 0
M  V30 659 H 57.0788 -1.803 -3.80881 0
M  V30 660 H 55.7538 -0.816901 -3.13223 0
M  V30 661 H 54.6608 -2.96981 -2.27493 0
M  V30 662 H 55.9938 -3.89535 -3.00871 0
M  V30 663 N 57.6459 0.756429 -1.3826 0
M  V30 664 C 58.6089 1.85176 -1.35065 0
M  V30 665 C 59.6089 1.58818 -0.251703 0
M  V30 666 O 60.7989 1.66615 -0.508433 0
M  V30 667 C 57.9309 3.22596 -1.10201 0
M  V30 668 H 59.1239 1.89417 -2.3251 0
M  V30 669 H 56.6769 0.95783 -1.23512 0
M  V30 670 H 57.4119 3.24025 -0.133504 0
M  V30 671 H 57.1969 3.43122 -1.89762 0
M  V30 672 H 58.6869 4.02673 -1.10654 0
M  V30 673 N 59.124 1.23083 0.984299 0
M  V30 674 C 60.057 0.951786 2.07404 0
M  V30 675 C 61.035 -0.10848 1.62238 0
M  V30 676 O 62.219 0.0249467 1.88483 0
M  V30 677 C 59.346 0.433142 3.35919 0
M  V30 678 C 58.392 1.47941 4.0002 0
M  V30 679 S 59.225 3.05556 4.39768 0
M  V30 680 C 60.381 2.55351 5.71442 0
M  V30 681 H 60.614 1.87456 2.30754 0
M  V30 682 H 58.147 1.06284 1.11996 0
M  V30 683 H 60.105 0.140506 4.10259 0
M  V30 684 H 58.766 -0.468656 3.10584 0
M  V30 685 H 57.959 1.06658 4.92585 0
M  V30 686 H 57.561 1.7212 3.3204 0
M  V30 687 H 59.853 1.97128 6.48187 0
M  V30 688 H 60.796 3.46441 6.17563 0
M  V30 689 H 61.204 1.96339 5.29255 0
M  V30 690 N 60.6021 -1.18246 1.0419 0
M  V30 691 C 61.8481 -1.88536 0.747122 0
M  V30 692 C 62.1811 -1.80223 -0.723409 0
M  V30 693 O 61.4561 -1.20337 -1.52804 0
M  V30 694 C 61.7391 -3.38968 1.21544 0
M  V30 695 C 61.5921 -3.56084 2.74816 0
M  V30 696 C 62.9111 -4.32648 0.806482 0
M  V30 697 H 60.0301 -0.684619 0.272883 0
M  V30 698 H 62.6721 -1.39113 1.29413 0
M  V30 699 H 60.8221 -3.8119 0.750081 0
M  V30 700 H 62.4941 -3.22946 3.29399 0
M  V30 701 H 60.7371 -2.98699 3.14582 0
M  V30 702 H 61.4081 -4.61639 3.02644 0
M  V30 703 H 63.8841 -3.98211 1.20695 0
M  V30 704 H 62.7601 -5.36462 1.1619 0
M  V30 705 H 63.0211 -4.41146 -0.29029 0
M  V30 706 N 62.0802 -0.821533 -1.34494 0
M  V30 707 C 62.9902 -0.244355 -2.33324 0
M  V30 708 C 64.0062 0.620527 -1.62559 0
M  V30 709 O 65.1822 0.528754 -1.94335 0
M  V30 710 C 62.2472 0.585368 -3.41723 0
M  V30 711 C 61.3082 -0.301752 -4.28238 0
M  V30 712 C 60.5412 0.488466 -5.3146 0
M  V30 713 O 60.7642 1.72186 -5.4379 0
M  V30 714 O 59.6982 -0.12848 -6.01763 0
M  V30 715 H 63.5242 -1.06231 -2.84515 0
M  V30 716 H 61.1092 -0.583645 -1.37528 0
M  V30 717 H 62.9912 1.05747 -4.07916 0
M  V30 718 H 61.6662 1.38068 -2.92778 0
M  V30 719 H 60.5732 -0.821315 -3.64973 0
M  V30 720 H 61.9062 -1.06138 -4.8062 0
M  V30 721 N 63.5583 1.46682 -0.576371 0
M  V30 722 C 64.8073 2.01619 -0.0572825 0
M  V30 723 C 65.1203 1.45417 1.30818 0
M  V30 724 O 66.3263 1.92133 1.91825 0
M  V30 725 C 64.7823 3.59863 -0.0518371 0
M  V30 726 C 64.3903 4.25059 -1.41523 0
M  V30 727 C 66.1343 4.2248 0.413639 0
M  V30 728 C 64.0413 5.75364 -1.36785 0
M  V30 729 H 62.9713 0.753794 -0.0176448 0
M  V30 730 H 65.6223 1.68481 -0.727076 0
M  V30 731 H 64.0043 3.90048 0.683994 0
M  V30 732 H 65.1783 4.06491 -2.17029 0
M  V30 733 H 63.4933 3.7451 -1.8202 0
M  V30 734 H 66.0903 5.3265 0.467779 0
M  V30 735 H 66.4333 3.90976 1.42982 0
M  V30 736 H 66.9663 3.96897 -0.267929 0
M  V30 737 H 63.7053 6.11518 -2.36063 0
M  V30 738 H 63.2253 5.96214 -0.654895 0
M  V30 739 H 64.9043 6.37955 -1.07805 0
M  V30 740 N 65.0364 0.313813 1.54444 0
M  V30 741 C 66.3134 -0.345447 1.92525 0
M  V30 742 C 66.6934 -1.70667 1.24242 0
M  V30 743 O 66.0414 -2.25273 0.382654 0
M  V30 744 C 66.2514 -0.44737 3.46121 0
M  V30 745 C 67.5994 -0.712238 4.18584 0
M  V30 746 O 68.6234 -0.530678 3.52225 0
M  V30 747 O 67.4824 -1.06183 5.36085 0
M  V30 748 H 64.5764 -0.195407 0.803583 0
M  V30 749 H 67.1224 0.362813 1.65776 0
M  V30 750 H 65.8944 0.509043 3.87975 0
M  V30 751 H 65.5174 -1.20359 3.78945 0
M  V30 752 N 66.5145 -1.57545 0.0417849 0
M  V30 753 C 67.4465 -2.07904 -0.964799 0
M  V30 754 C 68.4595 -1.00497 -1.28079 0
M  V30 755 O 69.6485 -1.28087 -1.24322 0
M  V30 756 C 66.7485 -2.49928 -2.28887 0
M  V30 757 C 65.9215 -3.80562 -2.15619 0
M  V30 758 C 64.9805 -4.08999 -3.31069 0
M  V30 759 O 64.0065 -4.79061 -3.0739 0
M  V30 760 N 65.2085 -3.6017 -4.55256 0
M  V30 761 H 67.9735 -2.94886 -0.535029 0
M  V30 762 H 65.5345 -1.61252 -0.144681 0
M  V30 763 H 67.5265 -2.66034 -3.04972 0
M  V30 764 H 66.0965 -1.68245 -2.63463 0
M  V30 765 H 65.3165 -3.74129 -1.24183 0
M  V30 766 H 66.6045 -4.66126 -2.03971 0
M  V30 767 H 66.0025 -3.03512 -4.77386 0
M  V30 768 H 64.5595 -3.81532 -5.28466 0
M  V30 769 N 67.9926 0.231505 -1.5589 0
M  V30 770 C 69.2226 0.973092 -1.82248 0
M  V30 771 C 69.6306 1.78845 -0.617328 0
M  V30 772 O 68.9736 1.78752 0.423499 0
M  V30 773 C 69.0356 1.94732 -3.02192 0
M  V30 774 C 68.6996 1.31743 -4.37599 0
M  V30 775 C 69.6966 0.712238 -5.14998 0
M  V30 776 C 67.3816 1.33218 -4.84312 0
M  V30 777 C 69.3756 0.130195 -6.37267 0
M  V30 778 C 67.0626 0.746286 -6.06526 0
M  V30 779 C 68.0606 0.146337 -6.82843 0
M  V30 780 O 67.7486 -0.430465 -8.02747 0
M  V30 781 H 67.4806 0.29125 -0.61004 0
M  V30 782 H 70.0346 0.254915 -2.03812 0
M  V30 783 H 68.2646 2.70422 -2.76422 0
M  V30 784 H 69.9536 2.55362 -3.15508 0
M  V30 785 H 70.7196 0.69324 -4.8002 0
M  V30 786 H 66.5986 1.78854 -4.24891 0
M  V30 787 H 70.1426 -0.33871 -6.96777 0
M  V30 788 H 66.0396 0.762663 -6.40979 0
M  V30 789 H 66.8076 -0.323818 -8.17859 0
M  V30 790 N 69.4707 1.49531 0.497807 0
M  V30 791 C 70.8867 1.36365 0.829266 0
M  V30 792 C 71.0867 0.399184 1.97506 0
M  V30 793 O 70.1427 -0.167977 2.51941 0
M  V30 794 C 71.4557 2.77153 1.16647 0
M  V30 795 C 73.0037 2.85877 1.27449 0
M  V30 796 C 73.4787 4.2744 1.64497 0
M  V30 797 N 74.9697 4.30265 1.7154 0
M  V30 798 C 75.7047 5.3677 2.01656 0
M  V30 799 N 75.2007 6.53516 2.29976 0
M  V30 800 N 76.9937 5.24189 2.02934 0
M  V30 801 H 69.1447 2.10831 -0.257703 0
M  V30 802 H 71.4077 0.946534 -0.0527091 0
M  V30 803 H 71.1137 3.49442 0.397872 0
M  V30 804 H 70.9877 3.12722 2.10915 0
M  V30 805 H 73.3747 2.13824 2.0338 0
M  V30 806 H 73.4557 2.53887 0.312244 0
M  V30 807 H 73.0997 5.00021 0.891151 0
M  V30 808 H 73.0297 4.56896 2.61827 0
M  V30 809 H 75.5207 3.4607 1.51802 0
M  V30 810 H 75.8337 7.30506 2.52153 0
M  V30 811 H 74.1787 6.56737 2.27425 0
M  V30 812 H 77.3697 4.31988 1.80289 0
M  V30 813 H 77.5427 6.07286 2.26071 0
M  V30 814 N 70.9488 -0.749086 1.3866 0
M  V30 815 C 71.8818 -1.87111 1.30631 0
M  V30 816 C 72.8598 -1.61572 0.18251 0
M  V30 817 O 74.0438 -1.85019 0.360592 0
M  V30 818 C 71.1708 -3.22815 1.02511 0
M  V30 819 C 70.2168 -3.67234 2.1689 0
M  V30 820 S 71.0498 -3.78245 3.79066 0
M  V30 821 C 72.2058 -5.16761 3.53142 0
M  V30 822 H 72.4388 -1.93636 2.25594 0
M  V30 823 H 69.9718 -0.912525 1.24549 0
M  V30 824 H 71.9298 -4.01181 0.869701 0
M  V30 825 H 70.5908 -3.13964 0.0925884 0
M  V30 826 H 69.7838 -4.65677 1.92771 0
M  V30 827 H 69.3858 -2.96034 2.28561 0
M  V30 828 H 71.6778 -6.02656 3.09534 0
M  V30 829 H 72.6208 -5.45902 4.50995 0
M  V30 830 H 73.0288 -4.85771 2.87554 0
M  V30 831 N 72.4269 -1.23603 -0.977757 0
M  V30 832 C 73.3589 -0.977369 -2.07317 0
M  V30 833 C 74.3719 0.0495845 -1.62724 0
M  V30 834 O 75.5609 -0.186261 -1.77526 0
M  V30 835 C 72.6609 -0.451216 -3.35883 0
M  V30 836 C 71.8339 -1.53896 -4.09432 0
M  V30 837 C 70.8929 -1.01721 -5.16274 0
M  V30 838 O 69.9189 -1.70676 -5.43009 0
M  V30 839 N 71.1209 0.153594 -5.80297 0
M  V30 840 H 73.8859 -1.92047 -2.30082 0
M  V30 841 H 71.4469 -1.14497 -1.14465 0
M  V30 842 H 73.4389 -0.0871574 -4.04606 0
M  V30 843 H 72.0089 0.397368 -3.10064 0
M  V30 844 H 71.2289 -2.07566 -3.35127 0
M  V30 845 H 72.5169 -2.27037 -4.55337 0
M  V30 846 H 71.9149 0.730323 -5.60966 0
M  V30 847 H 70.4719 0.458892 -6.50183 0
M  V30 848 N 73.905 1.17692 -1.04816 0
M  V30 849 C 75.321 1.39863 -0.768794 0
M  V30 850 C 75.521 1.91118 0.638451 0
M  V30 851 O 74.577 2.10036 1.40146 0
M  V30 852 C 75.89 2.39274 -1.82122 0
M  V30 853 C 77.438 2.52987 -1.843 0
M  V30 854 C 77.913 3.55669 -2.88555 0
M  V30 855 N 79.404 3.63183 -2.87493 0
M  V30 856 C 80.139 4.42381 -3.64811 0
M  V30 857 N 79.635 5.25125 -4.51903 0
M  V30 858 N 81.428 4.37217 -3.53267 0
M  V30 859 H 73.579 0.82752 -1.95617 0
M  V30 860 H 75.842 0.426123 -0.846831 0
M  V30 861 H 75.548 2.08678 -2.83102 0
M  V30 862 H 75.422 3.38725 -1.65967 0
M  V30 863 H 77.809 2.82896 -0.839869 0
M  V30 864 H 77.89 1.53623 -2.04532 0
M  V30 865 H 77.534 3.26499 -3.89051 0
M  V30 866 H 77.464 4.54728 -2.65575 0
M  V30 867 H 79.955 3.04103 -2.24343 0
M  V30 868 H 80.268 5.82728 -5.07591 0
M  V30 869 H 78.613 5.24519 -4.55966 0
M  V30 870 H 81.804 3.71626 -2.84625 0
M  V30 871 H 81.977 4.98696 -4.13771 0
M  V30 872 N 75.3831 0.828654 1.34056 0
M  V30 873 C 76.6601 0.341809 1.9259 0
M  V30 874 C 77.0401 -1.17158 1.75605 0
M  V30 875 O 76.3881 -1.98132 1.13824 0
M  V30 876 C 76.5981 0.777453 3.4023 0
M  V30 877 C 77.9461 0.779579 4.17382 0
M  V30 878 O 78.9701 0.7204 3.48839 0
M  V30 879 O 77.8291 0.857996 5.39723 0
M  V30 880 H 74.9231 0.0946085 0.821571 0
M  V30 881 H 77.4691 0.913827 1.42994 0
M  V30 882 H 76.2411 1.8196 3.46419 0
M  V30 883 H 75.8641 0.181444 3.97186 0
M  V30 884 N 76.8612 -1.46375 0.584142 0
M  V30 885 C 77.8082 -2.30323 -0.148286 0
M  V30 886 C 78.7782 -1.40703 -0.882713 0
M  V30 887 O 79.9632 -1.69651 -0.873099 0
M  V30 888 C 77.1032 -3.25196 -1.15507 0
M  V30 889 C 76.2162 -4.29915 -0.423943 0
M  V30 890 C 75.3512 -5.11914 -1.41838 0
M  V30 891 C 74.3902 -6.08381 -0.673736 0
M  V30 892 N 73.5272 -6.83242 -1.6163 0
M  V30 893 H 78.3672 -2.92427 0.573644 0
M  V30 894 H 75.9042 -1.44118 0.294703 0
M  V30 895 H 77.8622 -3.78646 -1.75166 0
M  V30 896 H 76.4922 -2.64898 -1.8447 0
M  V30 897 H 75.5442 -3.7931 0.287714 0
M  V30 898 H 76.8562 -4.98549 0.158128 0
M  V30 899 H 76.0102 -5.69648 -2.08773 0
M  V30 900 H 74.7492 -4.43243 -2.03438 0
M  V30 901 H 73.7542 -5.49799 0.00938483 0
M  V30 902 H 74.9792 -6.79071 -0.0631082 0
M  V30 903 H 72.9252 -6.1728 -2.22038 0
M  V30 904 H 72.8422 -7.48144 -1.08707 0
M  V30 905 H 74.1102 -7.45534 -2.27596 0
M  V30 906 N 78.3393 -0.321999 -1.54275 0
M  V30 907 C 79.2493 0.553631 -2.27974 0
M  V30 908 C 80.2653 1.13054 -1.32268 0
M  V30 909 O 81.4413 1.15084 -1.6528 0
M  V30 910 C 78.5063 1.69927 -3.02201 0
M  V30 911 C 77.5673 1.15433 -4.1349 0
M  V30 912 C 76.8003 2.24537 -4.84168 0
M  V30 913 O 77.0233 3.44852 -4.5435 0
M  V30 914 O 75.9573 1.90044 -5.7111 0
M  V30 915 H 79.7833 -0.0448345 -3.03667 0
M  V30 916 H 77.3683 -0.0877418 -1.49142 0
M  V30 917 H 79.2503 2.3663 -3.48689 0
M  V30 918 H 77.9253 2.28395 -2.29385 0
M  V30 919 H 76.8323 0.452436 -3.71354 0
M  V30 920 H 78.1653 0.614805 -4.88345 0
M  V30 921 N 79.8174 1.5752 -0.0501392 0
M  V30 922 C 81.0644 1.9265 0.623874 0
M  V30 923 C 81.3924 0.928411 1.70912 0
M  V30 924 O 80.6474 -0.0594525 1.9561 0
M  V30 925 C 80.9464 3.34467 1.25963 0
M  V30 926 C 80.6124 4.49883 0.302689 0
M  V30 927 C 79.2744 4.81184 0.0393636 0
M  V30 928 C 81.6264 5.20002 -0.353205 0
M  V30 929 C 78.9544 5.79951 -0.887308 0
M  V30 930 C 81.3064 6.1976 -1.26806 0
M  V30 931 C 79.9704 6.49491 -1.54007 0
M  V30 932 H 79.2404 0.704957 0.228292 0
M  V30 933 H 81.8874 1.91146 -0.116398 0
M  V30 934 H 80.1924 3.32333 2.07514 0
M  V30 935 H 81.8894 3.58928 1.78806 0
M  V30 936 H 78.4794 4.25457 0.518109 0
M  V30 937 H 82.6634 4.96033 -0.162854 0
M  V30 938 H 77.9194 6.01322 -1.10553 0
M  V30 939 H 82.0934 6.73205 -1.78236 0
M  V30 940 H 79.7204 7.25837 -2.25976 0
M  V30 941 N 81.2955 -0.223234 1.56011 0
M  V30 942 C 82.7115 -0.572856 1.48965 0
M  V30 943 C 82.9115 -1.87225 0.74492 0
M  V30 944 O 81.9675 -2.50899 0.283896 0
M  V30 945 C 83.2805 -0.653646 2.9351 0
M  V30 946 C 84.8285 -0.744386 3.0402 0
M  V30 947 C 85.3035 -0.856535 4.49919 0
M  V30 948 N 86.7945 -0.9208 4.53955 0
M  V30 949 C 87.5295 -1.02726 5.64123 0
M  V30 950 N 87.0255 -1.09777 6.84047 0
M  V30 951 N 88.8185 -1.06226 5.51971 0
M  V30 952 H 80.9695 0.629462 2.02858 0
M  V30 953 H 83.2325 0.220621 0.921971 0
M  V30 954 H 82.9385 0.231518 3.50937 0
M  V30 955 H 82.8125 -1.51781 3.45315 0
M  V30 956 H 85.1995 -1.61999 2.46658 0
M  V30 957 H 85.2805 0.14541 2.55386 0
M  V30 958 H 84.9245 0.0146069 5.07898 0
M  V30 959 H 84.8545 -1.76172 4.96257 0
M  V30 960 H 87.3455 -0.876694 3.6759 0
M  V30 961 H 87.6585 -1.17872 7.63758 0
M  V30 962 H 86.0035 -1.06693 6.86762 0
M  V30 963 H 89.1945 -1.00382 4.5721 0
M  V30 964 H 89.3675 -1.14177 6.37862 0
M  V30 965 N 82.7736 -1.49793 -0.48987 0
M  V30 966 C 83.7036 -1.70201 -1.59856 0
M  V30 967 C 84.6846 -0.55076 -1.60937 0
M  V30 968 O 85.8696 -0.787841 -1.77501 0
M  V30 969 C 82.9996 -1.77882 -2.98287 0
M  V30 970 C 81.9536 -2.92907 -3.12073 0
M  V30 971 C 81.2796 -2.85712 -4.51965 0
M  V30 972 C 82.5796 -4.3369 -2.91051 0
M  V30 973 H 84.2736 -2.63025 -1.43032 0
M  V30 974 H 81.8196 -1.26574 -0.686664 0
M  V30 975 H 83.7726 -1.90744 -3.75759 0
M  V30 976 H 82.4966 -0.816653 -3.16225 0
M  V30 977 H 81.1556 -2.79665 -2.37029 0
M  V30 978 H 80.8036 -1.8738 -4.66795 0
M  V30 979 H 80.5036 -3.62921 -4.62128 0
M  V30 980 H 82.0276 -3.00598 -5.31482 0
M  V30 981 H 83.4416 -4.47555 -3.58284 0
M  V30 982 H 81.8386 -5.12205 -3.12675 0
M  V30 983 H 82.9086 -4.47362 -1.87071 0
M  V30 984 N 84.2517 0.741722 -1.39055 0
M  V30 985 C 85.1987 1.85566 -1.37237 0
M  V30 986 C 86.1687 1.64457 -0.233072 0
M  V30 987 O 87.3537 1.85957 -0.427147 0
M  V30 988 C 84.4937 3.23004 -1.215 0
M  V30 989 C 83.6067 3.55864 -2.44918 0
M  V30 990 C 82.7417 4.82669 -2.21821 0
M  V30 991 C 81.7807 5.08351 -3.40948 0
M  V30 992 N 80.9177 6.26356 -3.17211 0
M  V30 993 H 85.7577 1.86455 -2.32462 0
M  V30 994 H 83.2947 0.911176 -1.15482 0
M  V30 995 H 85.2527 4.02331 -1.10389 0
M  V30 996 H 83.8827 3.21411 -0.29908 0
M  V30 997 H 82.9347 2.7129 -2.66657 0
M  V30 998 H 84.2467 3.70765 -3.33668 0
M  V30 999 H 83.4007 5.69962 -2.07914 0
M  V30 1000 H 82.1397 4.69929 -1.30454 0
M  V30 1001 H 81.1447 4.19522 -3.55361 0
M  V30 1002 H 82.3697 5.22981 -4.33207 0
M  V30 1003 H 80.3157 6.14917 -2.28502 0
M  V30 1004 H 80.2327 6.41813 -3.99515 0
M  V30 1005 H 81.5007 7.16506 -3.06984 0
M  V30 1006 N 85.7298 1.2412 0.971189 0
M  V30 1007 C 86.6618 0.988349 2.06795 0
M  V30 1008 C 87.6748 -0.0409541 1.62748 0
M  V30 1009 O 88.8638 0.195673 1.77424 0
M  V30 1010 C 85.9638 0.469023 3.35639 0
M  V30 1011 C 85.1368 1.56065 4.08611 0
M  V30 1012 C 84.1958 1.04458 5.15728 0
M  V30 1013 O 83.2218 1.73553 5.42096 0
M  V30 1014 N 84.4238 -0.122817 5.8037 0
M  V30 1015 H 87.1888 1.93265 2.29061 0
M  V30 1016 H 84.7498 1.15102 1.13856 0
M  V30 1017 H 86.7418 0.108613 4.04554 0
M  V30 1018 H 85.3118 -0.380919 3.1027 0
M  V30 1019 H 84.5318 2.09341 3.34021 0
M  V30 1020 H 85.8198 2.29449 4.54126 0
M  V30 1021 H 85.2178 -0.700563 5.61345 0
M  V30 1022 H 83.7748 -0.424404 6.50417 0
M  V30 1023 N 87.2079 -1.17134 1.05439 0
M  V30 1024 C 88.4329 -1.91913 0.786396 0
M  V30 1025 C 88.8579 -1.7643 -0.652234 0
M  V30 1026 O 88.2159 -1.08372 -1.45345 0
M  V30 1027 C 88.2639 -3.40921 1.17497 0
M  V30 1028 O 87.3679 -4.11244 0.308589 0
M  V30 1029 H 86.7089 -0.598215 0.288158 0
M  V30 1030 H 89.2389 -1.48457 1.4079 0
M  V30 1031 H 89.2489 -3.91668 1.14281 0
M  V30 1032 H 87.9239 -3.5151 2.22292 0
M  V30 1033 H 86.5009 -3.70731 0.40157 0
M  V30 1034 N 88.686 -0.835752 -1.33615 0
M  V30 1035 C 89.633 -0.26473 -2.29277 0
M  V30 1036 C 90.603 0.617712 -1.54187 0
M  V30 1037 O 91.788 0.556641 -1.825 0
M  V30 1038 C 88.928 0.556777 -3.40579 0
M  V30 1039 C 88.041 -0.349339 -4.30585 0
M  V30 1040 C 87.176 0.482969 -5.29 0
M  V30 1041 C 86.215 -0.421732 -6.10645 0
M  V30 1042 N 85.352 0.372262 -7.01112 0
M  V30 1043 H 90.192 -1.08582 -2.77514 0
M  V30 1044 H 87.729 -0.546927 -1.36554 0
M  V30 1045 H 89.687 1.04852 -4.03809 0
M  V30 1046 H 88.317 1.34286 -2.93542 0
M  V30 1047 H 87.369 -0.959372 -3.68104 0
M  V30 1048 H 88.681 -1.04445 -4.87742 0
M  V30 1049 H 87.835 1.03866 -5.97743 0
M  V30 1050 H 86.574 1.21153 -4.72412 0
M  V30 1051 H 85.579 -0.989464 -5.40823 0
M  V30 1052 H 86.804 -1.14861 -6.69316 0
M  V30 1053 H 84.75 1.08426 -6.46977 0
M  V30 1054 H 84.667 -0.264198 -7.55538 0
M  V30 1055 H 85.935 0.910293 -7.74167 0
M  V30 1056 N 90.1641 1.46063 -0.591896 0
M  V30 1057 C 91.4131 2.01547 -0.0786637 0
M  V30 1058 C 91.7261 1.46796 1.29268 0
M  V30 1059 O 92.9321 1.94157 1.89777 0
M  V30 1060 C 91.3881 3.59787 -0.0900024 0
M  V30 1061 C 90.9961 4.23534 -1.46023 0
M  V30 1062 C 92.7401 4.22895 0.368806 0
M  V30 1063 C 90.6471 5.73881 -1.4288 0
M  V30 1064 H 89.5771 0.753564 -0.0256388 0
M  V30 1065 H 92.2281 1.677 -0.744905 0
M  V30 1066 H 90.6101 3.90752 0.642586 0
M  V30 1067 H 91.7841 4.04167 -2.21328 0
M  V30 1068 H 90.0991 3.72558 -1.85982 0
M  V30 1069 H 92.6961 5.33116 0.411258 0
M  V30 1070 H 93.0391 3.9247 1.38827 0
M  V30 1071 H 93.5721 3.9659 -0.31001 0
M  V30 1072 H 90.3111 6.0898 -2.42536 0
M  V30 1073 H 89.8311 5.95486 -0.718095 0
M  V30 1074 H 91.5101 6.36776 -1.14565 0
M  V30 1075 N 91.6422 0.330177 1.54103 0
M  V30 1076 C 92.5752 -0.575477 2.20825 0
M  V30 1077 C 93.5532 -1.11064 1.18758 0
M  V30 1078 O 94.7372 -1.17341 1.47524 0
M  V30 1079 C 91.8642 -1.79032 2.87516 0
M  V30 1080 C 90.9102 -1.38581 4.03358 0
M  V30 1081 S 91.7432 -0.416911 5.33875 0
M  V30 1082 C 92.8992 -1.63889 6.04062 0
M  V30 1083 H 93.1322 -0.00872114 2.97299 0
M  V30 1084 H 90.6652 0.114254 1.53977 0
M  V30 1085 H 92.6232 -2.48734 3.2656 0
M  V30 1086 H 91.2842 -2.32827 2.10832 0
M  V30 1087 H 90.4772 -2.29123 4.48908 0
M  V30 1088 H 90.0792 -0.768419 3.66021 0
M  V30 1089 H 92.3712 -2.57536 6.26643 0
M  V30 1090 H 93.3142 -1.22542 6.97416 0
M  V30 1091 H 93.7222 -1.82887 5.34053 0
M  V30 1092 N 93.1203 -1.57491 0.0584922 0
M  V30 1093 C 94.3683 -1.92597 -0.612436 0
M  V30 1094 C 94.6893 -0.938162 -1.70949 0
M  V30 1095 O 93.9593 0.0158301 -1.95894 0
M  V30 1096 H 92.5393 -0.710964 -0.229214 0
M  V30 1097 H 95.2013 -1.94571 0.113218 0
M  V30 1098 H 94.2973 -2.94038 -1.04633 0
M  V30 1099 N 94.5984 0.214957 -1.56127 0
M  V30 1100 C 95.8234 0.95924 -1.83884 0
M  V30 1101 C 96.2484 1.7689 -0.639644 0
M  V30 1102 O 95.6064 1.76566 0.411601 0
M  V30 1103 C 95.6544 1.84723 -3.09693 0
M  V30 1104 O 94.7584 2.94346 -2.8885 0
M  V30 1105 H 94.0994 0.27125 -0.606069 0
M  V30 1106 H 96.6294 0.226276 -2.03345 0
M  V30 1107 H 96.6394 2.25576 -3.39969 0
M  V30 1108 H 95.3144 1.25218 -3.96602 0
M  V30 1109 H 93.8914 2.57391 -2.69823 0
M  V30 1110 N 96.0765 1.50051 0.48192 0
M  V30 1111 C 97.0085 1.64263 1.59844 0
M  V30 1112 C 98.0215 0.52451 1.54119 0
M  V30 1113 O 99.2105 0.797293 1.59704 0
M  V30 1114 C 96.3105 1.60102 2.98698 0
M  V30 1115 C 95.4835 2.87767 3.29407 0
M  V30 1116 C 94.5425 2.76397 4.47762 0
M  V30 1117 O 93.5685 3.50348 4.48603 0
M  V30 1118 N 94.7705 1.89222 5.48794 0
M  V30 1119 H 97.5355 2.60566 1.48073 0
M  V30 1120 H 95.0965 1.47379 0.670149 0
M  V30 1121 H 97.0885 1.50123 3.75826 0
M  V30 1122 H 95.6585 0.715798 3.04294 0
M  V30 1123 H 94.8785 3.11954 2.40994 0
M  V30 1124 H 96.1665 3.72365 3.4673 0
M  V30 1125 H 95.5645 1.28434 5.50928 0
M  V30 1126 H 94.1215 1.85154 6.24949 0
M  V30 1127 N 97.5546 -0.734337 1.39446 0
M  V30 1128 C 98.5026 -1.86971 1.38364 0
M  V30 1129 C 99.4966 -1.67288 0.266687 0
M  V30 1130 O 100.703 -1.74621 0.436755 0
M  V30 1131 H 97.0776 -0.615474 0.432082 0
M  V30 1132 H 99.0486 -1.85 2.34132 0
M  V30 1133 C 97.7976 -3.2466 1.24465 0
M  V30 1134 H 97.1206 -3.40402 2.09682 0
M  V30 1135 H 98.5606 -4.04292 1.27764 0
M  V30 1136 C 97.0196 -3.36867 -0.0468674 0
M  V30 1137 O 97.5496 -3.88618 -1.01681 0
M  V30 1138 N 95.7556 -2.90391 -0.110145 0
M  V30 1139 H 95.3026 -2.48466 0.679868 0
M  V30 1140 H 95.2606 -2.98939 -0.973799 0
M  V30 1141 N 99.0327 -1.24633 -0.964593 0
M  V30 1142 C 99.9807 -1.03917 -2.08096 0
M  V30 1143 C 100.975 0.0268581 -1.69379 0
M  V30 1144 O 102.181 -0.127952 -1.79545 0
M  V30 1145 H 98.5557 -0.319044 -0.680966 0
M  V30 1146 H 100.527 -1.98581 -2.22729 0
M  V30 1147 C 99.2757 -0.663983 -3.41301 0
M  V30 1148 H 98.5987 -1.47605 -3.71555 0
M  V30 1149 H 100.039 -0.558663 -4.20303 0
M  V30 1150 C 98.4977 0.629169 -3.30973 0
M  V30 1151 O 99.0277 1.67404 -3.65156 0
M  V30 1152 N 97.2337 0.611057 -2.84103 0
M  V30 1153 H 96.7807 -0.239593 -2.56483 0
M  V30 1154 H 96.7387 1.47647 -2.77575 0
M  V30 1155 N 100.511 1.16574 -1.06058 0
M  V30 1156 C 101.441 2.23057 -0.690488 0
M  V30 1157 C 102.422 1.67141 0.315901 0
M  V30 1158 O 103.607 1.93253 0.191556 0
M  V30 1159 C 100.737 3.47222 -0.073625 0
M  V30 1160 C 99.6908 4.16016 -1.00573 0
M  V30 1161 C 99.0168 5.34104 -0.252289 0
M  V30 1162 C 100.317 4.67264 -2.33371 0
M  V30 1163 H 102.011 2.54271 -1.58072 0
M  V30 1164 H 99.5568 1.22218 -0.76149 0
M  V30 1165 H 101.51 4.20939 0.19714 0
M  V30 1166 H 100.234 3.15302 0.85161 0
M  V30 1167 H 98.8928 3.44223 -1.2612 0
M  V30 1168 H 98.5408 4.98437 0.675988 0
M  V30 1169 H 98.2408 5.81072 -0.873455 0
M  V30 1170 H 99.7648 6.10599 0.0109857 0
M  V30 1171 H 101.179 5.32573 -2.12223 0
M  V30 1172 H 99.5758 5.24843 -2.90963 0
M  V30 1173 H 100.646 3.83602 -2.96611 0
M  V30 1174 N 101.989 0.842826 1.3317 0
M  V30 1175 C 103.214 0.453129 2.02389 0
M  V30 1176 C 103.639 -0.939105 1.6298 0
M  V30 1177 O 102.997 -1.61472 0.8244 0
M  V30 1178 C 103.045 0.586094 3.55805 0
M  V30 1179 O 102.149 -0.386029 4.10589 0
M  V30 1180 H 101.49 0.183664 0.638094 0
M  V30 1181 H 104.02 1.13875 1.69981 0
M  V30 1182 H 104.03 0.469209 4.05293 0
M  V30 1183 H 102.705 1.6014 3.83833 0
M  V30 1184 H 101.282 -0.226371 3.72212 0
M  V30 1185 N 103.467 -1.45747 0.599634 0
M  V30 1186 C 104.744 -1.95585 0.0240846 0
M  V30 1187 C 105.124 -1.54217 -1.44154 0
M  V30 1188 O 104.472 -0.800903 -2.14004 0
M  V30 1189 C 104.682 -3.48344 0.21385 0
M  V30 1190 C 106.03 -4.24504 0.0904902 0
M  V30 1191 O 107.054 -3.55911 0.143558 0
M  V30 1192 O 105.913 -5.46491 -0.0310766 0
M  V30 1193 H 103.007 -0.82602 -0.0402478 0
M  V30 1194 H 105.553 -1.55951 0.669139 0
M  V30 1195 H 104.325 -3.71397 1.23206 0
M  V30 1196 H 103.948 -3.9485 -0.466842 0
M  V30 1197 N 104.945 -0.338344 -1.53925 0
M  V30 1198 C 105.855 0.529421 -2.28548 0
M  V30 1199 C 106.871 1.11645 -1.3346 0
M  V30 1200 O 108.047 1.13325 -1.66492 0
M  V30 1201 C 105.112 1.66713 -3.03987 0
M  V30 1202 C 104.173 1.11041 -4.14691 0
M  V30 1203 C 103.406 2.19389 -4.86522 0
M  V30 1204 O 103.629 3.40013 -4.57982 0
M  V30 1205 O 102.563 1.83976 -5.73094 0
M  V30 1206 H 106.389 -0.0770399 -3.03602 0
M  V30 1207 H 103.974 -0.103555 -1.49041 0
M  V30 1208 H 105.856 2.32918 -3.5118 0
M  V30 1209 H 104.531 2.25949 -2.31794 0
M  V30 1210 H 103.438 0.413024 -3.71813 0
M  V30 1211 H 104.771 0.562975 -4.8897 0
M  V30 1212 N 106.423 1.57458 -0.0668435 0
M  V30 1213 C 107.672 1.92477 0.602947 0
M  V30 1214 C 107.985 0.948419 1.71068 0
M  V30 1215 O 109.191 1.19124 2.43971 0
M  V30 1216 C 107.647 3.41903 1.12383 0
M  V30 1217 C 107.255 4.47975 0.04737 0
M  V30 1218 C 108.999 3.85931 1.76797 0
M  V30 1219 C 106.906 5.88529 0.582022 0
M  V30 1220 H 105.836 0.718387 0.22899 0
M  V30 1221 H 108.487 1.82978 -0.138276 0
M  V30 1222 H 106.869 3.46459 1.91787 0
M  V30 1223 H 108.043 4.55029 -0.726978 0
M  V30 1224 H 106.358 4.13384 -0.500243 0
M  V30 1225 H 108.955 4.88322 2.17821 0
M  V30 1226 H 109.298 3.23029 2.62599 0
M  V30 1227 H 109.831 3.83958 1.04024 0
M  V30 1228 H 106.57 6.55065 -0.238721 0
M  V30 1229 H 106.09 5.85004 1.324 0
M  V30 1230 H 107.769 6.38258 1.05999 0
M  V30 1231 N 107.901 -0.206675 1.56239 0
M  V30 1232 C 108.811 -1.27686 1.96808 0
M  V30 1233 C 109.827 -1.50455 0.874035 0
M  V30 1234 O 111.003 -1.63295 1.17884 0
M  V30 1235 C 108.068 -2.60358 2.28942 0
M  V30 1236 C 107.129 -2.45762 3.51994 0
M  V30 1237 C 106.362 -3.72108 3.82585 0
M  V30 1238 O 106.585 -4.75776 3.14631 0
M  V30 1239 O 105.519 -3.6833 4.76043 0
M  V30 1240 H 109.345 -0.962593 2.88041 0
M  V30 1241 H 106.93 -0.410746 1.43643 0
M  V30 1242 H 108.812 -3.38687 2.50737 0
M  V30 1243 H 107.487 -2.91435 1.4088 0
M  V30 1244 H 106.394 -1.65584 3.35459 0
M  V30 1245 H 107.727 -2.19621 4.40486 0
M  V30 1246 N 109.379 -1.50304 -0.473955 0
M  V30 1247 C 110.289 -1.7174 -1.5982 0
M  V30 1248 C 111.305 -0.600457 -1.63311 0
M  V30 1249 O 112.481 -0.878441 -1.81233 0
M  V30 1250 C 109.546 -1.80427 -2.96052 0
M  V30 1251 C 108.607 -3.04148 -3.02972 0
M  V30 1252 C 107.84 -3.12411 -4.32706 0
M  V30 1253 O 108.063 -2.27542 -5.23049 0
M  V30 1254 O 106.997 -4.05113 -4.45159 0
M  V30 1255 H 110.823 -2.67035 -1.44657 0
M  V30 1256 H 108.408 -1.34366 -0.653148 0
M  V30 1257 H 110.29 -1.88338 -3.7697 0
M  V30 1258 H 108.965 -0.883156 -3.11419 0
M  V30 1259 H 107.872 -3.0174 -2.21142 0
M  V30 1260 H 109.205 -3.95829 -2.92541 0
M  V30 1261 N 110.857 0.726932 -1.39834 0
M  V30 1262 C 111.789 1.85147 -1.35104 0
M  V30 1263 C 112.802 1.60736 -0.258392 0
M  V30 1264 O 113.991 1.70821 -0.517931 0
M  V30 1265 C 111.091 3.21332 -1.07697 0
M  V30 1266 C 110.264 3.73033 -2.28396 0
M  V30 1267 C 109.323 4.87802 -1.97322 0
M  V30 1268 O 108.349 5.01043 -2.70083 0
M  V30 1269 N 109.551 5.72768 -0.944273 0
M  V30 1270 H 112.316 1.89706 -2.32017 0
M  V30 1271 H 109.877 0.908006 -1.3404 0
M  V30 1272 H 111.869 3.95691 -0.849144 0
M  V30 1273 H 110.439 3.11992 -0.194909 0
M  V30 1274 H 109.659 2.89934 -2.6708 0
M  V30 1275 H 110.947 4.0431 -3.08887 0
M  V30 1276 H 110.345 5.64669 -0.341427 0
M  V30 1277 H 108.902 6.4716 -0.776346 0
M  V30 1278 N 112.336 1.25143 0.95797 0
M  V30 1279 C 113.564 1.12424 1.73691 0
M  V30 1280 C 113.979 -0.322304 1.86029 0
M  V30 1281 O 113.336 -1.22186 1.35561 0
M  V30 1282 C 113.387 1.76933 3.15241 0
M  V30 1283 O 113.108 3.15932 3.03511 0
M  V30 1284 C 114.609 1.6995 4.09429 0
M  V30 1285 H 111.829 0.3923 0.544373 0
M  V30 1286 H 114.373 1.6544 1.20207 0
M  V30 1287 H 112.528 1.27895 3.6568 0
M  V30 1288 H 112.942 3.47598 3.9278 0
M  V30 1289 H 114.416 2.19753 5.06372 0
M  V30 1290 H 114.893 0.662619 4.34173 0
M  V30 1291 H 115.499 2.18461 3.64904 0
M  V30 1292 N 113.814 -1.1601 1.06675 0
M  V30 1293 C 114.744 -2.22688 0.702307 0
M  V30 1294 C 115.725 -1.67306 -0.307032 0
M  V30 1295 O 116.91 -1.93352 -0.181305 0
M  V30 1296 C 114.04 -3.47178 0.092038 0
M  V30 1297 C 112.994 -4.15477 1.02777 0
M  V30 1298 C 112.32 -5.33963 0.28061 0
M  V30 1299 C 113.62 -4.66019 2.35846 0
M  V30 1300 H 115.314 -2.53429 1.59419 0
M  V30 1301 H 112.86 -1.21813 0.767961 0
M  V30 1302 H 114.813 -4.21037 -0.174814 0
M  V30 1303 H 113.537 -3.15749 -0.834877 0
M  V30 1304 H 112.196 -3.43549 1.27944 0
M  V30 1305 H 111.844 -4.98788 -0.649545 0
M  V30 1306 H 111.544 -5.806 0.904258 0
M  V30 1307 H 113.068 -6.10596 0.021396 0
M  V30 1308 H 114.482 -5.3144 2.15045 0
M  V30 1309 H 112.879 -5.23293 2.93743 0
M  V30 1310 H 113.949 -3.82023 2.98641 0
M  V30 1311 N 115.292 -0.849877 -1.32721 0
M  V30 1312 C 116.54 -0.450032 -1.97026 0
M  V30 1313 C 116.861 0.996604 -1.67609 0
M  V30 1314 O 116.131 1.6958 -0.980786 0
M  V30 1315 H 114.711 -0.163426 -0.728904 0
M  V30 1316 H 117.373 -1.08526 -1.6189 0
M  V30 1317 H 116.469 -0.591146 -3.0645 0
M  V30 1318 N 116.77 1.45427 -0.607355 0
M  V30 1319 C 117.717 2.3053 0.111625 0
M  V30 1320 C 118.687 1.4209 0.860216 0
M  V30 1321 O 119.872 1.71019 0.845998 0
M  V30 1322 C 117.012 3.26992 1.10319 0
M  V30 1323 C 116.125 4.30535 0.355493 0
M  V30 1324 C 115.26 5.14105 1.33676 0
M  V30 1325 C 114.299 6.09376 0.576862 0
M  V30 1326 N 113.436 6.85727 1.5074 0
M  V30 1327 H 118.276 2.91477 -0.620093 0
M  V30 1328 H 115.813 1.43631 -0.317594 0
M  V30 1329 H 117.771 3.81385 1.6912 0
M  V30 1330 H 116.401 2.67799 1.80232 0
M  V30 1331 H 115.453 3.78805 -0.348023 0
M  V30 1332 H 116.765 4.98235 -0.237423 0
M  V30 1333 H 115.919 5.72897 1.99684 0
M  V30 1334 H 114.658 4.46423 1.9636 0
M  V30 1335 H 113.663 5.49715 -0.0968519 0
M  V30 1336 H 114.888 6.79085 -0.0449341 0
M  V30 1337 H 112.834 6.20735 2.12189 0
M  V30 1338 H 112.751 7.49778 0.967913 0
M  V30 1339 H 114.019 7.4906 2.15706 0
M  V30 1340 N 118.248 0.346503 1.53744 0
M  V30 1341 C 119.497 -0.250122 2.00143 0
M  V30 1342 C 119.81 -1.51418 1.23822 0
M  V30 1343 O 121.016 -2.18823 1.60713 0
M  V30 1344 C 119.472 -0.496252 3.56462 0
M  V30 1345 C 119.08 0.752077 4.41642 0
M  V30 1346 C 120.824 -1.05157 4.11269 0
M  V30 1347 C 118.731 0.476583 5.89477 0
M  V30 1348 H 117.661 -0.0972409 0.747703 0
M  V30 1349 H 120.312 0.46229 1.77581 0
M  V30 1350 H 118.694 -1.26944 3.75102 0
M  V30 1351 H 119.868 1.5266 4.34778 0
M  V30 1352 H 118.183 1.22925 3.97842 0
M  V30 1353 H 120.78 -1.27269 5.19333 0
M  V30 1354 H 121.123 -2.00799 3.64672 0
M  V30 1355 H 121.656 -0.339019 3.96353 0
M  V30 1356 H 118.395 1.4028 6.40314 0
M  V30 1357 H 117.915 -0.259794 5.99237 0
M  V30 1358 H 119.594 0.0949315 6.4693 0
M  V30 1359 N 119.726 -1.57421 0.075193 0
M  V30 1360 C 120.658 -2.09904 -0.920483 0
M  V30 1361 C 121.671 -1.03191 -1.25918 0
M  V30 1362 O 122.86 -1.30695 -1.21577 0
M  V30 1363 C 119.96 -2.54726 -2.23534 0
M  V30 1364 C 119.133 -3.8505 -2.07498 0
M  V30 1365 C 118.192 -4.15929 -3.22319 0
M  V30 1366 O 117.218 -4.85474 -2.9716 0
M  V30 1367 N 118.42 -3.69745 -4.47514 0
M  V30 1368 H 121.185 -2.95954 -0.472359 0
M  V30 1369 H 118.746 -1.61523 -0.110444 0
M  V30 1370 H 120.738 -2.72443 -2.9926 0
M  V30 1371 H 119.308 -1.73795 -2.59835 0
M  V30 1372 H 118.528 -3.76679 -1.16219 0
M  V30 1373 H 119.816 -4.70348 -1.94038 0
M  V30 1374 H 119.214 -3.13569 -4.7084 0
M  V30 1375 H 117.771 -3.92655 -5.20255 0
M  V30 1376 N 121.204 0.198386 -1.56346 0
M  V30 1377 C 122.114 1.2664 -1.97483 0
M  V30 1378 C 123.13 1.49989 -0.882002 0
M  V30 1379 O 124.306 1.62668 -1.18748 0
M  V30 1380 C 121.371 2.59141 -2.30319 0
M  V30 1381 C 120.432 2.43892 -3.53292 0
M  V30 1382 C 119.665 3.70074 -3.84553 0
M  V30 1383 O 119.888 4.74101 -3.1715 0
M  V30 1384 O 118.822 3.658 -4.7799 0
M  V30 1385 H 122.648 0.947304 -2.88548 0
M  V30 1386 H 120.233 0.403123 -1.43859 0
M  V30 1387 H 122.115 3.37352 -2.5253 0
M  V30 1388 H 120.79 2.90684 -1.42423 0
M  V30 1389 H 119.697 1.63803 -3.36332 0
M  V30 1390 H 121.03 2.17282 -4.41644 0
M  V30 1391 N 122.682 1.50554 0.465978 0
M  V30 1392 C 123.612 1.72722 1.57128 0
M  V30 1393 C 124.593 0.576294 1.6004 0
M  V30 1394 O 125.778 0.81598 1.76225 0
M  V30 1395 C 122.908 1.82605 2.95419 0
M  V30 1396 C 121.862 2.97835 3.07373 0
M  V30 1397 C 121.188 2.92867 4.47363 0
M  V30 1398 C 122.488 4.38265 2.84114 0
M  V30 1399 H 124.182 2.65267 1.38829 0
M  V30 1400 H 121.728 1.2765 0.666441 0
M  V30 1401 H 123.681 1.96698 3.72677 0
M  V30 1402 H 122.405 0.866858 3.14886 0
M  V30 1403 H 121.064 2.83401 2.3255 0
M  V30 1404 H 120.712 1.94783 4.63755 0
M  V30 1405 H 120.412 3.70227 4.56296 0
M  V30 1406 H 121.936 3.09015 5.26633 0
M  V30 1407 H 123.35 4.53198 3.51118 0
M  V30 1408 H 121.747 5.17115 3.04487 0
M  V30 1409 H 122.817 4.50281 1.7993 0
M  V30 1410 N 124.16 -0.719506 1.40217 0
M  V30 1411 C 125.108 -1.85493 1.40339 0
M  V30 1412 C 126.102 -1.66995 0.284415 0
M  V30 1413 O 127.308 -1.74148 0.455252 0
M  V30 1414 H 123.683 -0.610857 0.438586 0
M  V30 1415 H 125.654 -1.82506 2.36081 0
M  V30 1416 C 124.403 -3.23321 1.27901 0
M  V30 1417 H 123.726 -3.38159 2.1328 0
M  V30 1418 H 125.166 -4.02914 1.32045 0
M  V30 1419 C 123.625 -3.36898 -0.0111355 0
M  V30 1420 O 124.155 -3.89674 -0.975538 0
M  V30 1421 N 122.361 -2.90492 -0.0793393 0
M  V30 1422 H 121.908 -2.47731 0.706183 0
M  V30 1423 H 121.866 -2.99955 -0.942038 0
M  V30 1424 N 125.638 -1.25649 -0.95132 0
M  V30 1425 C 126.886 -1.10375 -1.69298 0
M  V30 1426 C 127.207 0.355339 -1.91735 0
M  V30 1427 O 126.477 1.25188 -1.50681 0
M  V30 1428 H 125.057 -0.405461 -0.627384 0
M  V30 1429 H 127.719 -1.57823 -1.14358 0
M  V30 1430 H 126.815 -1.61465 -2.67087 0
M  V30 1431 N 127.117 1.15442 -1.07289 0
M  V30 1432 C 128.067 2.18164 -0.662467 0
M  V30 1433 C 129.051 1.57845 0.312074 0
M  V30 1434 O 130.243 1.76552 0.125905 0
M  V30 1435 C 127.372 3.43246 -0.0611295 0
M  V30 1436 C 126.458 4.1062 -1.06077 0
M  V30 1437 N 126.849 4.53491 -2.24008 0
M  V30 1438 C 125.147 4.36949 -0.893964 0
M  V30 1439 C 125.848 5.05731 -2.87422 0
M  V30 1440 N 124.824 4.99236 -2.15091 0
M  V30 1441 H 128.626 2.49038 -1.56068 0
M  V30 1442 H 126.14 1.32003 -0.945988 0
M  V30 1443 H 128.137 4.16145 0.250792 0
M  V30 1444 H 126.797 3.13854 0.832207 0
M  V30 1445 H 127.808 4.46898 -2.6173 0
M  V30 1446 H 124.485 4.17466 -0.0534693 0
M  V30 1447 H 125.875 5.48865 -3.87553 0
M  V30 1448 N 128.595 0.856903 1.32268 0
M  V30 1449 C 129.825 0.47475 2.01071 0
M  V30 1450 C 130.233 -0.933746 1.64553 0
M  V30 1451 O 129.576 -1.62114 0.863989 0
M  V30 1452 C 129.638 0.536746 3.55471 0
M  V30 1453 C 129.302 1.90453 4.15423 0
M  V30 1454 C 130.299 2.87029 4.33486 0
M  V30 1455 C 127.984 2.20229 4.51447 0
M  V30 1456 C 129.978 4.11532 4.86744 0
M  V30 1457 C 127.665 3.44984 5.0441 0
M  V30 1458 C 128.663 4.40452 5.22007 0
M  V30 1459 O 128.351 5.62998 5.73837 0
M  V30 1460 H 128.083 0.184778 0.650256 0
M  V30 1461 H 130.637 1.15615 1.69771 0
M  V30 1462 H 128.867 -0.20152 3.86175 0
M  V30 1463 H 130.556 0.169875 4.05544 0
M  V30 1464 H 131.322 2.6533 4.05986 0
M  V30 1465 H 127.201 1.46705 4.37034 0
M  V30 1466 H 130.745 4.86056 5.00395 0
M  V30 1467 H 126.642 3.66532 5.31342 0
M  V30 1468 H 127.41 5.64987 5.92226 0
M  V30 1469 N 130.073 -1.45103 0.615059 0
M  V30 1470 C 131.021 -2.32331 -0.111791 0
M  V30 1471 C 132.015 -1.46409 -0.852102 0
M  V30 1472 O 133.221 -1.62849 -0.766821 0
M  V30 1473 H 129.596 -0.749993 -0.0549072 0
M  V30 1474 H 131.567 -2.91407 0.642225 0
M  V30 1475 C 130.316 -3.3015 -1.09071 0
M  V30 1476 H 129.639 -3.96265 -0.530485 0
M  V30 1477 H 131.079 -3.93898 -1.56908 0
M  V30 1478 C 129.538 -2.57875 -2.168 0
M  V30 1479 O 130.068 -2.36567 -3.24652 0
M  V30 1480 N 128.274 -2.17884 -1.92289 0
M  V30 1481 H 127.821 -2.35413 -1.04587 0
M  V30 1482 H 127.779 -1.6985 -2.64572 0
M  V30 1483 N 131.551 -0.354651 -1.53558 0
M  V30 1484 C 132.498 0.496968 -2.25386 0
M  V30 1485 C 133.468 1.0865 -1.25636 0
M  V30 1486 O 134.653 1.12104 -1.54394 0
M  V30 1487 C 131.793 1.63637 -3.03837 0
M  V30 1488 C 130.906 1.07307 -4.18461 0
M  V30 1489 C 130.041 2.18068 -4.84376 0
M  V30 1490 C 129.08 1.59147 -5.91049 0
M  V30 1491 N 128.217 2.63695 -6.50699 0
M  V30 1492 H 133.057 -0.122075 -2.9775 0
M  V30 1493 H 130.594 -0.0720154 -1.46924 0
M  V30 1494 H 132.552 2.30734 -3.47589 0
M  V30 1495 H 131.182 2.22623 -2.33749 0
M  V30 1496 H 130.234 0.292708 -3.79272 0
M  V30 1497 H 131.546 0.602193 -4.95152 0
M  V30 1498 H 130.7 2.93007 -5.31255 0
M  V30 1499 H 129.439 2.68504 -4.07133 0
M  V30 1500 H 128.444 0.827175 -5.43542 0
M  V30 1501 H 129.669 1.09549 -6.70206 0
M  V30 1502 H 127.615 3.13365 -5.76315 0
M  V30 1503 H 127.532 2.21263 -7.22896 0
M  V30 1504 H 128.8 3.3837 -7.02229 0
M  V30 1505 N 133.029 1.57378 -0.0835403 0
M  V30 1506 C 134.259 1.97975 0.590713 0
M  V30 1507 C 134.667 0.961083 1.62972 0
M  V30 1508 O 134.01 -0.0590879 1.83605 0
M  V30 1509 C 134.072 3.34915 1.3066 0
M  V30 1510 C 133.736 4.55069 0.419698 0
M  V30 1511 C 134.733 5.18868 -0.32749 0
M  V30 1512 C 132.418 5.0114 0.341137 0
M  V30 1513 C 134.412 6.27098 -1.14134 0
M  V30 1514 C 132.099 6.0924 -0.476374 0
M  V30 1515 C 133.097 6.72083 -1.21627 0
M  V30 1516 O 132.785 7.781 -2.02028 0
M  V30 1517 H 132.517 0.655818 0.163947 0
M  V30 1518 H 135.071 2.04807 -0.156021 0
M  V30 1519 H 133.301 3.24733 2.09966 0
M  V30 1520 H 134.99 3.60037 1.87424 0
M  V30 1521 H 135.756 4.84211 -0.276459 0
M  V30 1522 H 131.635 4.51996 0.90668 0
M  V30 1523 H 135.179 6.7608 -1.71935 0
M  V30 1524 H 131.076 6.43329 -0.528927 0
M  V30 1525 H 131.844 7.95034 -1.94586 0
M  V30 1526 N 134.507 -0.190092 1.56449 0
M  V30 1527 C 135.44 -1.26375 1.90012 0
M  V30 1528 C 136.418 -1.43705 0.760765 0
M  V30 1529 O 137.602 -1.59014 1.01226 0
M  V30 1530 C 134.729 -2.62962 2.13468 0
M  V30 1531 C 133.775 -2.62474 3.36169 0
M  V30 1532 S 134.608 -2.13412 4.91137 0
M  V30 1533 C 135.764 -3.51812 5.17667 0
M  V30 1534 H 135.997 -0.977181 2.80782 0
M  V30 1535 H 133.53 -0.393814 1.49293 0
M  V30 1536 H 135.488 -3.41583 2.27664 0
M  V30 1537 H 134.149 -2.88828 1.23439 0
M  V30 1538 H 133.342 -3.62918 3.49723 0
M  V30 1539 H 132.944 -1.91937 3.20992 0
M  V30 1540 H 135.236 -4.47706 5.08494 0
M  V30 1541 H 136.179 -3.43148 6.19399 0
M  V30 1542 H 136.587 -3.46956 4.45288 0
M  V30 1543 N 135.985 -1.50799 -0.457987 0
M  V30 1544 C 136.895 -1.73426 -1.57989 0
M  V30 1545 C 137.911 -0.617745 -1.62665 0
M  V30 1546 O 139.087 -0.897614 -1.80291 0
M  V30 1547 C 136.152 -1.83557 -2.94122 0
M  V30 1548 C 135.213 -3.07345 -2.99729 0
M  V30 1549 C 134.446 -3.16983 -4.29368 0
M  V30 1550 O 134.669 -2.33077 -5.20607 0
M  V30 1551 O 133.603 -4.09812 -4.40837 0
M  V30 1552 H 137.429 -2.68555 -1.41817 0
M  V30 1553 H 135.014 -1.35052 -0.638859 0
M  V30 1554 H 136.896 -1.92326 -3.74952 0
M  V30 1555 H 135.571 -0.916137 -3.10465 0
M  V30 1556 H 134.478 -3.04068 -2.1793 0
M  V30 1557 H 135.811 -3.9891 -2.88326 0
M  V30 1558 N 137.463 0.71206 -1.40597 0
M  V30 1559 C 138.688 1.50617 -1.42581 0
M  V30 1560 C 139.113 1.88079 -0.0282102 0
M  V30 1561 O 138.471 1.53511 0.964579 0
M  V30 1562 C 138.519 2.7557 -2.3258 0
M  V30 1563 O 137.623 3.72414 -1.77148 0
M  V30 1564 H 136.964 0.453966 -0.484573 0
M  V30 1565 H 139.494 0.876649 -1.84868 0
M  V30 1566 H 139.504 3.2406 -2.47889 0
M  V30 1567 H 138.179 2.47639 -3.34138 0
M  V30 1568 H 136.756 3.31276 -1.71204 0
M  V30 1569 N 138.941 1.26152 0.944643 0
M  V30 1570 C 140.187 1.11657 1.69294 0
M  V30 1571 C 140.52 -0.339926 1.91202 0
M  V30 1572 O 139.795 -1.24994 1.49019 0
M  V30 1573 C 140.078 1.88236 3.06984 0
M  V30 1574 C 139.931 3.41772 2.92424 0
M  V30 1575 C 141.25 1.67343 4.07043 0
M  V30 1576 H 138.369 0.407004 0.614424 0
M  V30 1577 H 141.011 1.55106 1.09737 0
M  V30 1578 H 139.161 1.51308 3.57824 0
M  V30 1579 H 140.833 3.88433 2.48832 0
M  V30 1580 H 139.076 3.68974 2.28124 0
M  V30 1581 H 139.747 3.90579 3.90067 0
M  V30 1582 H 142.223 1.99509 3.65151 0
M  V30 1583 H 141.099 2.23346 5.01406 0
M  V30 1584 H 141.36 0.617158 4.37771 0
M  V30 1585 N 140.419 -1.14872 1.07899 0
M  V30 1586 C 141.352 -2.18794 0.64841 0
M  V30 1587 C 142.33 -1.59065 -0.337189 0
M  V30 1588 O 143.514 -1.86936 -0.242284 0
M  V30 1589 C 140.641 -3.38667 -0.0470417 0
M  V30 1590 C 139.687 -4.16942 0.897884 0
M  V30 1591 S 140.52 -4.78615 2.40183 0
M  V30 1592 C 141.676 -6.0185 1.71834 0
M  V30 1593 H 141.909 -2.5498 1.52881 0
M  V30 1594 H 139.442 -1.25922 0.893484 0
M  V30 1595 H 141.4 -4.08113 -0.442027 0
M  V30 1596 H 140.061 -3.00814 -0.903861 0
M  V30 1597 H 139.254 -5.02726 0.358096 0
M  V30 1598 H 138.856 -3.53073 1.23352 0
M  V30 1599 H 141.148 -6.69574 1.03328 0
M  V30 1600 H 142.091 -6.60408 2.55473 0
M  V30 1601 H 142.499 -5.5173 1.19392 0
M  V30 1602 N 141.898 -0.863906 -1.31812 0
M  V30 1603 C 142.846 -0.30422 -2.30602 0
M  V30 1604 C 143.84 0.577419 -1.59255 0
M  V30 1605 O 145.046 0.464194 -1.73912 0
M  V30 1606 H 141.421 -0.0796877 -0.747766 0
M  V30 1607 H 143.392 -1.15148 -2.75288 0
M  V30 1608 C 142.141 0.484617 -3.44306 0
M  V30 1609 H 141.464 -0.18451 -3.99374 0
M  V30 1610 H 142.904 0.841664 -4.15562 0
M  V30 1611 C 141.363 1.6735 -2.92396 0
M  V30 1612 O 141.893 2.77273 -2.90659 0
M  V30 1613 N 140.099 1.50362 -2.48676 0
M  V30 1614 H 139.646 0.609402 -2.50288 0
M  V30 1615 H 139.604 2.30051 -2.14299 0
M  V30 1616 N 143.376 1.44774 -0.622745 0
M  V30 1617 C 144.308 2.28856 0.125485 0
M  V30 1618 C 145.321 1.40811 0.817069 0
M  V30 1619 O 146.51 1.65044 0.679918 0
M  V30 1620 C 143.61 3.16963 1.19949 0
M  V30 1621 C 142.783 4.33374 0.592064 0
M  V30 1622 C 141.842 5.02577 1.55893 0
M  V30 1623 O 140.868 5.58873 1.07933 0
M  V30 1624 N 142.07 5.03256 2.89334 0
M  V30 1625 H 144.835 2.93713 -0.596068 0
M  V30 1626 H 142.396 1.55129 -0.463303 0
M  V30 1627 H 144.388 3.60123 1.84644 0
M  V30 1628 H 142.958 2.53913 1.82337 0
M  V30 1629 H 142.178 3.93509 -0.233322 0
M  V30 1630 H 143.466 5.08527 0.166738 0
M  V30 1631 H 142.864 4.58836 3.30887 0
M  V30 1632 H 141.421 5.50232 3.49412 0
M  V30 1633 N 144.854 0.36279 1.53368 0
M  V30 1634 C 145.784 -0.476976 2.28576 0
M  V30 1635 C 146.765 -1.08631 1.30894 0
M  V30 1636 O 147.95 -1.10409 1.59761 0
M  V30 1637 C 145.08 -1.61828 3.07293 0
M  V30 1638 C 144.034 -1.13633 4.1264 0
M  V30 1639 C 143.36 -2.36766 4.79423 0
M  V30 1640 C 144.66 -0.223061 5.21823 0
M  V30 1641 H 146.354 0.150474 2.99022 0
M  V30 1642 H 143.9 0.0738103 1.43811 0
M  V30 1643 H 145.853 -2.21237 3.58653 0
M  V30 1644 H 144.577 -2.27292 2.34533 0
M  V30 1645 H 143.236 -0.564945 3.62221 0
M  V30 1646 H 142.884 -3.0068 4.03238 0
M  V30 1647 H 142.584 -2.05192 5.50609 0
M  V30 1648 H 144.108 -2.96865 5.33576 0
M  V30 1649 H 145.522 -0.724545 5.68703 0
M  V30 1650 H 143.919 0.001678 6.001 0
M  V30 1651 H 144.989 0.735553 4.79289 0
M  V30 1652 N 146.332 -1.57332 0.0918853 0
M  V30 1653 C 147.262 -2.16872 -0.865371 0
M  V30 1654 C 148.243 -1.10118 -1.29646 0
M  V30 1655 O 149.428 -1.38242 -1.36392 0
M  V30 1656 C 146.558 -2.74649 -2.12569 0
M  V30 1657 C 145.512 -3.86747 -1.83333 0
M  V30 1658 C 144.838 -4.31212 -3.16166 0
M  V30 1659 C 146.138 -5.10089 -1.1228 0
M  V30 1660 H 147.832 -2.97114 -0.369307 0
M  V30 1661 H 145.378 -1.42918 -0.176194 0
M  V30 1662 H 147.331 -3.14952 -2.7997 0
M  V30 1663 H 146.055 -1.91657 -2.64452 0
M  V30 1664 H 144.714 -3.46978 -1.18331 0
M  V30 1665 H 144.362 -3.45115 -3.6593 0
M  V30 1666 H 144.062 -5.06788 -2.97388 0
M  V30 1667 H 145.586 -4.74146 -3.84731 0
M  V30 1668 H 147 -5.47582 -1.69785 0
M  V30 1669 H 145.397 -5.91073 -1.03693 0
M  V30 1670 H 146.467 -4.84786 -0.105041 0
M  V30 1671 N 147.81 0.181792 -1.56548 0
M  V30 1672 C 149.035 0.920019 -1.85877 0
M  V30 1673 C 149.46 1.75494 -0.677021 0
M  V30 1674 O 148.818 1.77399 0.374056 0
M  V30 1675 C 148.866 1.78112 -3.13542 0
M  V30 1676 O 147.97 2.88152 -2.95029 0
M  V30 1677 H 147.311 0.258334 -0.611686 0
M  V30 1678 H 149.841 0.183092 -2.03779 0
M  V30 1679 H 149.851 2.18314 -3.44678 0
M  V30 1680 H 148.526 1.16777 -3.99169 0
M  V30 1681 H 147.103 2.51609 -2.75222 0
M  V30 1682 N 149.288 1.51039 0.449983 0
M  V30 1683 C 150.221 1.66105 1.56474 0
M  V30 1684 C 151.199 0.508776 1.54435 0
M  V30 1685 O 152.383 0.731005 1.73749 0
M  V30 1686 C 149.51 1.66304 2.9506 0
M  V30 1687 C 148.556 2.87346 3.15174 0
M  V30 1688 S 149.389 4.4835 2.92818 0
M  V30 1689 C 150.545 4.51274 4.33708 0
M  V30 1690 H 150.778 2.60397 1.43459 0
M  V30 1691 H 148.311 1.40565 0.638805 0
M  V30 1692 H 150.269 1.67103 3.74949 0
M  V30 1693 H 148.93 0.732108 3.05449 0
M  V30 1694 H 148.123 2.83849 4.16468 0
M  V30 1695 H 147.725 2.84223 2.43091 0
M  V30 1696 H 150.017 4.26136 5.26701 0
M  V30 1697 H 150.96 5.53017 4.42242 0
M  V30 1698 H 151.368 3.80738 4.16772 0
M  V30 1699 N 150.766 -0.704594 1.40972 0
M  V30 1700 C 152.012 -1.46675 1.40051 0
M  V30 1701 C 152.345 -1.94199 0.00641102 0
M  V30 1702 O 151.62 -1.68916 -0.964235 0
M  V30 1703 C 151.903 -2.68505 2.39952 0
M  V30 1704 C 151.756 -2.26805 3.88432 0
M  V30 1705 C 153.075 -3.70686 2.37233 0
M  V30 1706 H 150.194 -0.532015 0.510028 0
M  V30 1707 H 152.836 -0.803255 1.72185 0
M  V30 1708 H 150.986 -3.25114 2.1268 0
M  V30 1709 H 152.658 -1.75592 4.26574 0
M  V30 1710 H 150.901 -1.58685 4.03734 0
M  V30 1711 H 151.572 -3.14181 4.53866 0
M  V30 1712 H 154.048 -3.23731 2.61415 0
M  V30 1713 H 152.924 -4.53553 3.09162 0
M  V30 1714 H 153.185 -4.19754 1.38777 0
M  V30 1715 N 152.244 -1.26651 -0.937939 0
M  V30 1716 C 153.484 -1.13611 -1.69917 0
M  V30 1717 C 153.848 0.314687 -1.89404 0
M  V30 1718 O 155.049 0.567285 -2.62746 0
M  V30 1719 C 153.32 -1.88742 -3.03498 0
M  V30 1720 S 154.879 -1.91794 -3.94665 0
M  V30 1721 H 151.697 -0.405767 -0.583844 0
M  V30 1722 H 154.299 -1.60416 -1.11745 0
M  V30 1723 H 153.003 -2.9336 -2.86999 0
M  V30 1724 H 152.534 -1.42391 -3.66727 0
M  V30 1725 H 154.549 -1.00698 -4.85875 0
M  V30 1726 N 153.722 1.14298 -1.08507 0
M  V30 1727 C 154.999 1.81544 -0.728088 0
M  V30 1728 C 155.379 1.95838 0.78808 0
M  V30 1729 O 154.727 1.51904 1.70697 0
M  V30 1730 C 154.937 3.17169 -1.45619 0
M  V30 1731 C 156.285 3.9265 -1.61591 0
M  V30 1732 O 157.309 3.26762 -1.41793 0
M  V30 1733 O 156.168 5.10807 -1.94263 0
M  V30 1734 H 153.262 0.78491 -0.260471 0
M  V30 1735 H 155.808 1.21307 -1.18671 0
M  V30 1736 H 154.58 3.01934 -2.489 0
M  V30 1737 H 154.203 3.851 -0.989124 0
M  V30 1738 N 155.201 0.870884 1.31352 0
M  V30 1739 C 156.134 0.271983 2.26573 0
M  V30 1740 C 157.112 -0.599385 1.51149 0
M  V30 1741 O 158.296 -0.552605 1.80218 0
M  V30 1742 C 155.423 -0.614801 3.33073 0
M  V30 1743 C 154.469 0.185342 4.26097 0
M  V30 1744 S 155.302 1.56444 5.12138 0
M  V30 1745 C 156.458 0.683807 6.22153 0
M  V30 1746 H 156.691 1.07916 2.77023 0
M  V30 1747 H 154.224 0.669459 1.39132 0
M  V30 1748 H 156.182 -1.12074 3.94905 0
M  V30 1749 H 154.843 -1.39593 2.81376 0
M  V30 1750 H 154.036 -0.490771 5.01605 0
M  V30 1751 H 153.638 0.623415 3.68768 0
M  V30 1752 H 155.93 -0.10521 6.77418 0
M  V30 1753 H 156.873 1.41004 6.93919 0
M  V30 1754 H 157.281 0.250952 5.63942 0
M  V30 1755 N 156.679 -1.44442 0.630414 0
M  V30 1756 C 157.626 -2.30678 -0.0749355 0
M  V30 1757 C 158.596 -1.4344 -0.837502 0
M  V30 1758 O 159.781 -1.72343 -0.818684 0
M  V30 1759 C 156.921 -3.28706 -1.05103 0
M  V30 1760 C 156.034 -4.31046 -0.286954 0
M  V30 1761 C 155.169 -5.16167 -1.2548 0
M  V30 1762 C 154.208 -6.10216 -0.479843 0
M  V30 1763 N 153.345 -6.88039 -1.39811 0
M  V30 1764 H 158.185 -2.90454 0.666386 0
M  V30 1765 H 155.722 -1.43107 0.340404 0
M  V30 1766 H 157.68 -3.84027 -1.63031 0
M  V30 1767 H 156.31 -2.70632 -1.75949 0
M  V30 1768 H 155.362 -3.78203 0.408243 0
M  V30 1769 H 156.674 -4.97794 0.316657 0
M  V30 1770 H 155.828 -5.76002 -1.90544 0
M  V30 1771 H 154.567 -4.49491 -1.89233 0
M  V30 1772 H 153.572 -5.49491 0.184295 0
M  V30 1773 H 154.797 -6.78928 0.152965 0
M  V30 1774 H 152.743 -6.24032 -2.02287 0
M  V30 1775 H 152.66 -7.51223 -0.848508 0
M  V30 1776 H 153.928 -7.52397 -2.03762 0
M  V30 1777 N 158.157 -0.370918 -1.53173 0
M  V30 1778 C 159.568 0.107139 -1.86392 0
M  V30 1779 C 159.919 1.47714 -1.29132 0
M  V30 1780 O 159.044 2.07464 -0.615439 0
M  V30 1781 C 159.639 0.201187 -3.38202 0
M  V30 1782 C 158.198 0.623507 -3.712 0
M  V30 1783 C 157.345 -0.225978 -2.76378 0
M  V30 1784 H 160.296 -0.58951 -1.47345 0
M  V30 1785 H 160.317 1.02377 -3.66468 0
M  V30 1786 H 159.829 -0.796058 -3.79848 0
M  V30 1787 H 157.93 1.62879 -3.35114 0
M  V30 1788 H 158.043 0.394414 -4.77474 0
M  V30 1789 H 156.407 0.305962 -2.52856 0
M  V30 1790 H 157.19 -1.22086 -3.20858 0
M  V30 1791 N 159.635 1.57281 -0.100228 0
M  V30 1792 C 160.545 2.17833 0.870965 0
M  V30 1793 C 161.561 1.14921 1.30649 0
M  V30 1794 O 162.737 1.47313 1.37335 0
M  V30 1795 C 159.802 2.75085 2.1102 0
M  V30 1796 C 158.863 3.9297 1.72838 0
M  V30 1797 C 158.096 4.47482 2.90854 0
M  V30 1798 O 158.319 4.00922 4.05731 0
M  V30 1799 O 157.253 5.38433 2.69023 0
M  V30 1800 H 161.079 3.0124 0.38575 0
M  V30 1801 H 158.664 1.48881 0.124397 0
M  V30 1802 H 160.546 3.11656 2.83634 0
M  V30 1803 H 159.221 1.94721 2.58584 0
M  V30 1804 H 158.128 3.61201 0.973883 0
M  V30 1805 H 159.461 4.74713 1.30033 0
M  V30 1806 N 161.113 -0.173488 1.56642 0
M  V30 1807 C 162.362 -0.888758 1.81063 0
M  V30 1808 C 162.675 -1.83506 0.67712 0
M  V30 1809 O 163.881 -2.59254 0.806206 0
M  V30 1810 C 162.337 -1.63091 3.20826 0
M  V30 1811 C 161.945 -0.728357 4.4204 0
M  V30 1812 C 163.689 -2.33454 3.54541 0
M  V30 1813 C 161.596 -1.47062 5.72823 0
M  V30 1814 H 160.526 -0.335618 0.675186 0
M  V30 1815 H 163.177 -0.141712 1.82952 0
M  V30 1816 H 161.559 -2.42263 3.13248 0
M  V30 1817 H 162.733 0.0262449 4.60793 0
M  V30 1818 H 161.048 -0.134492 4.16183 0
M  V30 1819 H 163.645 -2.89578 4.49498 0
M  V30 1820 H 163.988 -3.08687 2.79317 0
M  V30 1821 H 164.521 -1.61227 3.63663 0
M  V30 1822 H 161.26 -0.760658 6.51072 0
M  V30 1823 H 160.78 -2.1986 5.58052 0
M  V30 1824 H 162.459 -2.01868 6.14702 0
M  V30 1825 N 162.591 -1.51276 -0.441967 0
M  V30 1826 C 163.541 -1.6864 -1.53442 0
M  V30 1827 C 164.525 -0.540444 -1.51552 0
M  V30 1828 O 165.717 -0.796157 -1.58083 0
M  V30 1829 C 162.846 -1.8106 -2.91672 0
M  V30 1830 C 161.932 -3.01424 -2.98336 0
M  V30 1831 N 162.323 -4.2467 -2.74752 0
M  V30 1832 C 160.621 -3.00584 -3.29493 0
M  V30 1833 C 161.322 -5.05891 -2.87139 0
M  V30 1834 N 160.298 -4.40442 -3.18609 0
M  V30 1835 H 164.1 -2.61598 -1.33954 0
M  V30 1836 H 161.614 -1.4886 -0.6492 0
M  V30 1837 H 163.611 -1.91609 -3.70259 0
M  V30 1838 H 162.271 -0.892795 -3.12185 0
M  V30 1839 H 163.282 -4.53691 -2.49769 0
M  V30 1840 H 159.959 -2.18417 -3.55809 0
M  V30 1841 H 161.349 -6.13983 -2.72899 0
M  V30 1842 N 164.069 0.697108 -1.41344 0
M  V30 1843 C 165.315 1.4593 -1.40827 0
M  V30 1844 C 165.648 1.94193 -0.0167098 0
M  V30 1845 O 164.923 1.69425 0.955263 0
M  V30 1846 C 165.206 2.67229 -2.41373 0
M  V30 1847 C 165.059 2.24741 -3.8963 0
M  V30 1848 C 166.378 3.69423 -2.39196 0
M  V30 1849 H 163.497 0.529303 -0.512842 0
M  V30 1850 H 166.139 0.794112 -1.72609 0
M  V30 1851 H 164.289 3.23982 -2.14401 0
M  V30 1852 H 165.961 1.73327 -4.27499 0
M  V30 1853 H 164.204 1.56542 -4.0457 0
M  V30 1854 H 164.875 3.1177 -4.55525 0
M  V30 1855 H 167.351 3.2234 -2.63128 0
M  V30 1856 H 166.227 4.51907 -3.11563 0
M  V30 1857 H 166.488 4.19012 -1.41001 0
M  V30 1858 N 165.547 1.27147 0.931209 0
M  V30 1859 C 166.495 1.09398 2.05268 0
M  V30 1860 C 167.489 0.0180591 1.6939 0
M  V30 1861 O 168.695 0.17551 1.79142 0
M  V30 1862 H 165.07 0.336986 0.672268 0
M  V30 1863 H 167.041 2.04416 2.17386 0
M  V30 1864 C 165.79 0.75424 3.39421 0
M  V30 1865 H 165.113 1.57404 3.67511 0
M  V30 1866 H 166.553 0.669903 4.18674 0
M  V30 1867 C 165.012 -0.541197 3.32525 0
M  V30 1868 O 165.542 -1.57664 3.69466 0
M  V30 1869 N 163.748 -0.535517 2.85623 0
M  V30 1870 H 163.295 0.307511 2.55758 0
M  V30 1871 H 163.253 -1.40236 2.81392 0
M  V30 1872 N 167.025 -1.13721 1.09112 0
M  V30 1873 C 168.255 -1.88499 0.845671 0
M  V30 1874 C 168.663 -1.79218 -0.606432 0
M  V30 1875 O 168.006 -1.1544 -1.42896 0
M  V30 1876 C 168.068 -3.38954 1.19793 0
M  V30 1877 C 167.732 -3.72018 2.65428 0
M  V30 1878 C 168.729 -3.7153 3.63677 0
M  V30 1879 C 166.414 -4.01775 3.01467 0
M  V30 1880 C 168.408 -4.00336 4.95994 0
M  V30 1881 C 166.095 -4.30243 4.33975 0
M  V30 1882 C 167.093 -4.29508 5.31048 0
M  V30 1883 O 166.781 -4.5728 6.61173 0
M  V30 1884 H 166.513 -0.603702 0.304171 0
M  V30 1885 H 169.067 -1.44903 1.45576 0
M  V30 1886 H 167.297 -3.83039 0.530871 0
M  V30 1887 H 168.986 -3.95052 0.932146 0
M  V30 1888 H 169.752 -3.4862 3.37179 0
M  V30 1889 H 165.631 -4.01496 2.26544 0
M  V30 1890 H 169.175 -3.99678 5.71755 0
M  V30 1891 H 165.072 -4.52625 4.60219 0
M  V30 1892 H 165.84 -4.74964 6.66597 0
M  V30 1893 N 168.503 -0.877838 -1.30888 0
M  V30 1894 C 169.919 -0.570844 -1.49042 0
M  V30 1895 C 170.119 0.893159 -1.80624 0
M  V30 1896 O 169.175 1.67485 -1.88958 0
M  V30 1897 C 170.488 -1.47784 -2.61878 0
M  V30 1898 C 172.036 -1.48071 -2.75761 0
M  V30 1899 C 172.511 -2.37347 -3.91702 0
M  V30 1900 N 174.002 -2.35271 -3.99001 0
M  V30 1901 C 174.737 -3.01063 -4.88004 0
M  V30 1902 N 174.233 -3.76055 -5.81854 0
M  V30 1903 N 176.026 -2.90332 -4.81315 0
M  V30 1904 H 168.177 -1.82502 -1.0866 0
M  V30 1905 H 170.44 -0.780797 -0.537644 0
M  V30 1906 H 170.146 -2.51993 -2.45341 0
M  V30 1907 H 170.02 -1.18215 -3.58197 0
M  V30 1908 H 172.407 -0.446166 -2.91708 0
M  V30 1909 H 172.488 -1.81668 -1.80085 0
M  V30 1910 H 172.132 -3.40883 -3.76512 0
M  V30 1911 H 172.062 -2.01071 -4.86701 0
M  V30 1912 H 174.553 -1.80768 -3.3186 0
M  V30 1913 H 174.866 -4.23366 -6.46514 0
M  V30 1914 H 173.211 -3.80163 -5.81808 0
M  V30 1915 H 176.402 -2.31278 -4.06974 0
M  V30 1916 H 176.575 -3.41885 -5.50471 0
M  V30 1917 N 169.982 1.44106 -0.638065 0
M  V30 1918 C 170.945 2.29138 0.0531013 0
M  V30 1919 C 171.945 1.41409 0.765506 0
M  V30 1920 O 173.135 1.63206 0.609046 0
M  V30 1921 C 170.267 3.23144 1.08584 0
M  V30 1922 H 171.46 2.91739 -0.694883 0
M  V30 1923 H 169.013 1.51134 -0.398538 0
M  V30 1924 H 169.748 2.65408 1.86357 0
M  V30 1925 H 169.533 3.87804 0.578852 0
M  V30 1926 H 171.023 3.87004 1.56899 0
M  V30 1927 N 171.46 0.379036 1.52974 0
M  V30 1928 C 172.688 -0.20679 2.05864 0
M  V30 1929 C 173.103 -1.41356 1.25155 0
M  V30 1930 O 172.46 -1.8009 0.295588 0
M  V30 1931 C 172.511 -0.587045 3.56702 0
M  V30 1932 O 172.232 0.571776 4.34353 0
M  V30 1933 C 173.733 -1.22983 4.25899 0
M  V30 1934 H 170.953 -0.0336123 0.670158 0
M  V30 1935 H 173.497 0.541298 1.97206 0
M  V30 1936 H 171.652 -1.28504 3.65466 0
M  V30 1937 H 172.066 0.261544 5.23847 0
M  V30 1938 H 173.54 -1.44635 5.32715 0
M  V30 1939 H 174.017 -2.19416 3.80465 0
M  V30 1940 H 174.623 -0.572892 4.21424 0
M  V30 1941 N 172.938 -1.57226 0.108567 0
M  V30 1942 C 173.886 -2.16002 -0.862885 0
M  V30 1943 C 174.88 -1.10644 -1.28274 0
M  V30 1944 O 176.086 -1.28966 -1.2557 0
M  V30 1945 H 172.461 -0.691148 -0.296342 0
M  V30 1946 H 174.432 -2.96427 -0.342575 0
M  V30 1947 C 173.181 -2.76576 -2.10716 0
M  V30 1948 H 172.504 -3.5734 -1.793 0
M  V30 1949 H 173.944 -3.21253 -2.76717 0
M  V30 1950 C 172.403 -1.73137 -2.89007 0
M  V30 1951 O 172.933 -1.17842 -3.84026 0
M  V30 1952 N 171.139 -1.43317 -2.52801 0
M  V30 1953 H 170.686 -1.88473 -1.75601 0
M  V30 1954 H 170.644 -0.743485 -3.05483 0
M  V30 1955 O 174.455 0.0311049 -1.6147 0
M  V30 1956 H 175.146 0.651916 -1.824 0
M  V30 END ATOM
M  V30 BEGIN BOND
M  V30 END BOND
M  V30 END CTAB
M  END
$$$$
