drugbank_target|P45844 ATP-binding cassette sub-family G member 1 (DB00171)
 OpenBabel12092119483D

  0  0  0     0  0            999 V3000
M  V30 BEGIN CTAB
M  V30 COUNTS 10660 10771 0 0 0
M  V30 BEGIN ATOM
M  V30 1 H -0.908 1.98254 -0.117106 0
M  V30 2 N 0 1.576 0 0
M  V30 3 C 0.933 2.03868 1.02534 0
M  V30 4 C 1.911 0.928543 1.3348 0
M  V30 5 O 3.095 1.19667 1.45644 0
M  V30 6 C 0.222 2.43627 2.35294 0
M  V30 7 C -0.732 3.65373 2.2001 0
M  V30 8 S 0.101 5.13292 1.52614 0
M  V30 9 C 1.257 5.56322 2.86805 0
M  V30 10 H 1.49 2.90518 0.631377 0
M  V30 11 H -0.977 1.52953 0.210867 0
M  V30 12 H 0.981 2.67203 3.11629 0
M  V30 13 H -0.358 1.57376 2.7183 0
M  V30 14 H -1.165 3.90944 3.18086 0
M  V30 15 H -1.563 3.418 1.51819 0
M  V30 16 H 0.729 5.58782 3.83104 0
M  V30 17 H 1.672 6.56266 2.65933 0
M  V30 18 H 2.08 4.83886 2.90714 0
M  V30 19 N 1.4781 -0.272755 1.55222 0
M  V30 20 C 2.4411 -1.32041 1.87344 0
M  V30 21 C 3.4411 -1.42342 0.74803 0
M  V30 22 O 4.6311 -1.41488 1.0162 0
M  V30 23 C 1.7631 -2.70173 2.07893 0
M  V30 24 H 2.9561 -1.04789 2.80997 0
M  V30 25 H 0.5091 -0.51083 1.47717 0
M  V30 26 H 1.2441 -3.02605 1.16622 0
M  V30 27 H 1.0291 -2.64082 2.89833 0
M  V30 28 H 2.5191 -3.45869 2.34017 0
M  V30 29 N 2.9562 -1.48159 -0.537278 0
M  V30 30 C 4.1962 -1.57397 -1.30405 0
M  V30 31 C 4.5602 -0.239202 -1.90504 0
M  V30 32 O 5.7612 -0.206528 -2.68005 0
M  V30 33 C 4.0322 -2.6754 -2.36974 0
M  V30 34 S 5.5912 -2.96496 -3.23475 0
M  V30 35 H 2.4092 -0.555577 -0.443684 0
M  V30 36 H 5.0112 -1.85644 -0.612912 0
M  V30 37 H 3.7152 -3.63092 -1.91291 0
M  V30 38 H 3.2462 -2.41172 -3.10805 0
M  V30 39 H 5.2612 -2.35234 -4.36897 0
M  V30 40 N 4.4343 0.785586 -1.36625 0
M  V30 41 C 5.3643 1.91259 -1.33949 0
M  V30 42 C 6.3453 1.68795 -0.210325 0
M  V30 43 O 7.5303 1.89854 -0.408561 0
M  V30 44 C 4.6603 3.28339 -1.13186 0
M  V30 45 C 3.6143 3.65335 -2.22967 0
M  V30 46 C 2.9403 5.00806 -1.87342 0
M  V30 47 C 4.2403 3.7352 -3.65075 0
M  V30 48 H 5.9343 1.93755 -2.28253 0
M  V30 49 H 3.4803 0.930788 -1.09874 0
M  V30 50 H 5.4333 4.06804 -1.09948 0
M  V30 51 H 4.1573 3.2624 -0.153332 0
M  V30 52 H 2.8163 2.89169 -2.25337 0
M  V30 53 H 2.4643 4.95233 -0.880545 0
M  V30 54 H 2.1643 5.26529 -2.60846 0
M  V30 55 H 3.6883 5.81687 -1.85667 0
M  V30 56 H 5.1023 4.42168 -3.64911 0
M  V30 57 H 3.4993 4.10731 -4.37516 0
M  V30 58 H 4.5693 2.74527 -3.99703 0
M  V30 59 N 5.9124 1.20967 1.01018 0
M  V30 60 C 6.8454 0.907578 2.09376 0
M  V30 61 C 7.8234 -0.142868 1.61971 0
M  V30 62 O 9.0074 -0.0150391 1.88494 0
M  V30 63 C 6.1344 0.361791 3.36762 0
M  V30 64 C 5.1804 1.39423 4.03068 0
M  V30 65 S 6.0134 2.96159 4.4615 0
M  V30 66 C 7.1694 2.43173 5.7673 0
M  V30 67 H 7.4024 1.82519 2.34678 0
M  V30 68 H 4.9354 1.03884 1.14225 0
M  V30 69 H 6.8934 0.0534523 4.10465 0
M  V30 70 H 5.5544 -0.53443 3.0952 0
M  V30 71 H 4.7474 0.961853 4.94737 0
M  V30 72 H 4.3494 1.65038 3.35617 0
M  V30 73 H 6.6414 1.83335 6.52223 0
M  V30 74 H 7.5844 3.33264 6.24773 0
M  V30 75 H 7.9924 1.85069 5.33301 0
M  V30 76 N 7.3905 -1.2043 1.01659 0
M  V30 77 C 8.3535 -2.21433 0.591616 0
M  V30 78 C 9.3535 -1.57203 -0.338226 0
M  V30 79 O 10.5435 -1.73737 -0.126918 0
M  V30 80 C 7.6755 -3.40628 -0.136058 0
M  V30 81 H 8.8685 -2.60545 1.48514 0
M  V30 82 H 6.4215 -1.33893 0.806379 0
M  V30 83 H 7.1565 -3.07019 -1.04449 0
M  V30 84 H 6.9415 -3.88475 0.531917 0
M  V30 85 H 8.4315 -4.15475 -0.420735 0
M  V30 86 N 8.8686 -0.792821 -1.36206 0
M  V30 87 C 9.8316 -0.199459 -2.2833 0
M  V30 88 C 10.8316 0.605189 -1.48977 0
M  V30 89 O 12.0216 0.425685 -1.68919 0
M  V30 90 C 9.1536 0.723523 -3.33134 0
M  V30 91 H 10.3466 -1.01181 -2.82316 0
M  V30 92 H 7.8996 -0.562485 -1.45828 0
M  V30 93 H 8.6346 1.56008 -2.84309 0
M  V30 94 H 8.4196 0.148436 -3.91819 0
M  V30 95 H 9.9096 1.13344 -4.01924 0
M  V30 96 N 10.3467 1.47872 -0.545128 0
M  V30 97 C 11.5937 2.02493 -0.0165858 0
M  V30 98 C 11.9217 1.42073 1.32836 0
M  V30 99 O 11.1767 0.561459 1.87473 0
M  V30 100 C 11.4757 3.57131 0.13867 0
M  V30 101 C 11.1417 4.36411 -1.13384 0
M  V30 102 C 9.8037 4.57792 -1.48256 0
M  V30 103 C 12.1557 4.82223 -1.97764 0
M  V30 104 C 9.4837 5.22233 -2.67376 0
M  V30 105 C 11.8357 5.47977 -3.16076 0
M  V30 106 C 10.4997 5.67593 -3.51275 0
M  V30 107 H 9.7697 0.740975 -0.00606918 0
M  V30 108 H 12.4167 1.77683 -0.714207 0
M  V30 109 H 10.7217 3.80865 0.919172 0
M  V30 110 H 12.4187 3.97031 0.562782 0
M  V30 111 H 9.0087 4.2004 -0.852297 0
M  V30 112 H 13.1927 4.65493 -1.72132 0
M  V30 113 H 8.4487 5.35616 -2.94831 0
M  V30 114 H 12.6227 5.8244 -3.81755 0
M  V30 115 H 10.2497 6.17298 -4.43675 0
M  V30 116 N 11.8248 0.280983 1.55075 0
M  V30 117 C 13.0498 -0.340154 2.04592 0
M  V30 118 C 13.4748 -1.48246 1.15779 0
M  V30 119 O 12.8328 -1.80614 0.15761 0
M  V30 120 C 12.8808 -0.793104 3.5177 0
M  V30 121 O 11.9848 -1.89981 3.66034 0
M  V30 122 H 11.3258 -0.0694289 0.66036 0
M  V30 123 H 13.8558 0.416993 2.00306 0
M  V30 124 H 13.8658 -1.08729 3.93245 0
M  V30 125 H 12.5408 0.0426163 4.15878 0
M  V30 126 H 11.1178 -1.60771 3.36463 0
M  V30 127 N 13.3029 -1.57598 0.00835791 0
M  V30 128 C 14.5489 -1.91211 -0.675732 0
M  V30 129 C 14.8819 -0.883139 -1.72958 0
M  V30 130 O 14.1569 0.097016 -1.94258 0
M  V30 131 C 14.4399 -3.35379 -1.31123 0
M  V30 132 C 14.2929 -4.48999 -0.268356 0
M  V30 133 C 15.6119 -3.7912 -2.23508 0
M  V30 134 H 12.7309 -0.695374 -0.244179 0
M  V30 135 H 15.3729 -1.89901 0.0613655 0
M  V30 136 H 13.5229 -3.36626 -1.93946 0
M  V30 137 H 15.1949 -4.59887 0.360844 0
M  V30 138 H 13.4379 -4.31873 0.408482 0
M  V30 139 H 14.1089 -5.46851 -0.752218 0
M  V30 140 H 16.5849 -3.79477 -1.70693 0
M  V30 141 H 15.4609 -4.80729 -2.64936 0
M  V30 142 H 15.7219 -3.13455 -3.11766 0
M  V30 143 N 14.781 0.264519 -1.55364 0
M  V30 144 C 16.029 0.993021 -1.76021 0
M  V30 145 C 16.35 1.86511 -0.569099 0
M  V30 146 O 15.62 1.91438 0.415735 0
M  V30 147 H 14.2 0.369639 -0.649135 0
M  V30 148 H 16.862 0.286707 -1.9278 0
M  V30 149 H 15.958 1.62502 -2.66457 0
M  V30 150 N 16.2591 1.48442 0.529413 0
M  V30 151 C 17.4871 1.60151 1.30994 0
M  V30 152 C 17.9021 0.261985 1.86973 0
M  V30 153 O 17.2591 -0.748805 1.66431 0
M  V30 154 C 17.3101 2.64854 2.46038 0
M  V30 155 O 17.0311 3.93608 1.92365 0
M  V30 156 C 18.5321 2.87007 3.37849 0
M  V30 157 H 15.7521 0.539971 0.398338 0
M  V30 158 H 18.2961 1.94273 0.638597 0
M  V30 159 H 16.4511 2.33589 3.09055 0
M  V30 160 H 16.8651 4.51055 2.67675 0
M  V30 161 H 18.3391 3.64068 4.14919 0
M  V30 162 H 18.8161 1.95852 3.93114 0
M  V30 163 H 19.4221 3.19579 2.80623 0
M  V30 164 N 17.7372 -0.778329 1.37039 0
M  V30 165 C 18.7002 -1.87301 1.32102 0
M  V30 166 C 19.7002 -1.59198 0.226405 0
M  V30 167 O 20.8902 -1.67403 0.481861 0
M  V30 168 C 18.0222 -3.24309 1.05055 0
M  V30 169 H 19.2152 -1.93093 2.29467 0
M  V30 170 H 16.7682 -0.977358 1.21973 0
M  V30 171 H 17.5032 -3.24196 0.0819373 0
M  V30 172 H 17.2882 -3.46098 1.84279 0
M  V30 173 H 18.7782 -4.04382 1.04234 0
M  V30 174 N 19.2153 -1.21501 -1.00376 0
M  V30 175 C 20.1483 -0.918669 -2.08892 0
M  V30 176 C 21.1263 0.134277 -1.62045 0
M  V30 177 O 22.3103 0.00504255 -1.88499 0
M  V30 178 C 19.4373 -0.379645 -3.36566 0
M  V30 179 C 18.4833 -1.41559 -4.02323 0
M  V30 180 S 19.3163 -2.98521 -4.44574 0
M  V30 181 C 20.4723 -2.46228 -5.75433 0
M  V30 182 H 20.7053 -1.83761 -2.33707 0
M  V30 183 H 18.2383 -1.04489 -1.13673 0
M  V30 184 H 20.1963 -0.0752195 -4.10431 0
M  V30 185 H 18.8573 0.518008 -3.09799 0
M  V30 186 H 18.0503 -0.988076 -4.9422 0
M  V30 187 H 17.6523 -1.66815 -3.34737 0
M  V30 188 H 19.9443 -1.86791 -6.51241 0
M  V30 189 H 20.8873 -3.36572 -6.22997 0
M  V30 190 H 21.2953 -1.87894 -5.32312 0
M  V30 191 N 20.6934 1.19889 -1.02296 0
M  V30 192 C 21.6414 2.24938 -0.592081 0
M  V30 193 C 22.6354 1.65257 0.372357 0
M  V30 194 O 23.8414 1.78371 0.241583 0
M  V30 195 H 20.2164 0.731787 -0.173182 0
M  V30 196 H 22.1874 2.58603 -1.48885 0
M  V30 197 C 20.9364 3.47668 0.047351 0
M  V30 198 H 20.2594 3.93875 -0.685772 0
M  V30 199 H 21.6994 4.22852 0.311862 0
M  V30 200 C 20.1584 3.11136 1.29212 0
M  V30 201 O 20.6884 3.2325 2.38479 0
M  V30 202 N 18.8944 2.65625 1.17863 0
M  V30 203 H 18.4414 2.55968 0.289493 0
M  V30 204 H 18.3994 2.41553 2.01245 0
M  V30 205 N 22.1715 0.800033 1.35784 0
M  V30 206 C 23.1345 0.211565 2.28221 0
M  V30 207 C 24.1345 -0.59728 1.49296 0
M  V30 208 O 25.3245 -0.416721 1.69142 0
M  V30 209 C 22.4565 -0.705846 3.33513 0
M  V30 210 H 23.6495 1.02677 2.81776 0
M  V30 211 H 21.2025 0.570211 1.45528 0
M  V30 212 H 21.9375 -1.54498 2.85133 0
M  V30 213 H 21.7225 -0.127655 3.91892 0
M  V30 214 H 23.2125 -1.11211 4.02519 0
M  V30 215 N 23.6496 -1.47581 0.552962 0
M  V30 216 C 24.8746 -2.07378 0.0300593 0
M  V30 217 C 25.2996 -1.40355 -1.25229 0
M  V30 218 O 24.6576 -0.477099 -1.7491 0
M  V30 219 C 24.7056 -3.60274 -0.153231 0
M  V30 220 O 23.8096 -3.94041 -1.21678 0
M  V30 221 H 23.1506 -0.662158 0.0494182 0
M  V30 222 H 25.6806 -1.89662 0.767434 0
M  V30 223 H 25.6906 -4.0633 -0.368761 0
M  V30 224 H 24.3656 -4.08455 0.783397 0
M  V30 225 H 22.9426 -3.59735 -0.982079 0
M  V30 226 N 25.1277 -0.289203 -1.54924 0
M  V30 227 C 26.3527 0.329299 -2.04769 0
M  V30 228 C 26.7777 1.4763 -1.16564 0
M  V30 229 O 26.1357 1.80527 -0.167186 0
M  V30 230 C 26.1837 0.774438 -3.52186 0
M  V30 231 O 25.2877 1.88038 -3.67036 0
M  V30 232 H 24.6287 0.0659259 -0.660719 0
M  V30 233 H 27.1587 -0.42761 -2.00082 0
M  V30 234 H 27.1687 1.06642 -3.93816 0
M  V30 235 H 25.8437 -0.0646707 -4.1585 0
M  V30 236 H 24.4207 1.58985 -3.3731 0
M  V30 237 N 26.6058 1.57591 -0.0167156 0
M  V30 238 C 27.8358 1.95292 0.674149 0
M  V30 239 C 28.2438 0.891097 1.66901 0
M  V30 240 O 27.5868 -0.136908 1.83189 0
M  V30 241 C 27.6488 3.29072 1.44747 0
M  V30 242 C 27.3128 4.52879 0.612331 0
M  V30 243 C 28.3098 5.1979 -0.107126 0
M  V30 244 C 25.9948 4.99242 0.553381 0
M  V30 245 C 27.9888 6.31375 -0.874339 0
M  V30 246 C 25.6758 6.10713 -0.217546 0
M  V30 247 C 26.6738 6.76637 -0.930123 0
M  V30 248 O 26.3618 7.85969 -1.68844 0
M  V30 249 H 26.0938 0.648275 0.191615 0
M  V30 250 H 28.6478 2.05284 -0.0690148 0
M  V30 251 H 26.8778 3.15535 2.2355 0
M  V30 252 H 28.5668 3.51764 2.02526 0
M  V30 253 H 29.3328 4.84948 -0.0708392 0
M  V30 254 H 25.2118 4.47744 1.09757 0
M  V30 255 H 28.7558 6.82764 -1.43106 0
M  V30 256 H 24.6528 6.44994 -0.255593 0
M  V30 257 H 25.4208 8.02571 -1.6069 0
M  V30 258 N 28.0839 -0.256276 1.55502 0
M  V30 259 C 29.3089 -1.00766 1.81276 0
M  V30 260 C 29.7339 -1.78524 0.59252 0
M  V30 261 O 29.0919 -1.75413 -0.45827 0
M  V30 262 C 29.1399 -1.92869 3.04687 0
M  V30 263 O 28.2439 -3.019 2.80945 0
M  V30 264 H 27.5849 -0.287224 0.598664 0
M  V30 265 H 30.1149 -0.280109 2.02674 0
M  V30 266 H 30.1249 -2.34511 3.33869 0
M  V30 267 H 28.7999 -1.35689 3.93143 0
M  V30 268 H 27.3769 -2.64454 2.62904 0
M  V30 269 N 29.562 -1.4872 -0.521534 0
M  V30 270 C 30.525 -1.63379 -1.60748 0
M  V30 271 C 31.525 -0.50661 -1.52611 0
M  V30 272 O 32.715 -0.772601 -1.5613 0
M  V30 273 C 29.847 -1.61192 -3.00383 0
M  V30 274 H 31.04 -2.60217 -1.49087 0
M  V30 275 H 28.593 -1.37444 -0.744235 0
M  V30 276 H 29.328 -0.65863 -3.17541 0
M  V30 277 H 29.113 -2.43032 -3.07698 0
M  V30 278 H 30.603 -1.7466 -3.7932 0
M  V30 279 N 31.0401 0.771051 -1.3745 0
M  V30 280 C 31.9501 1.91538 -1.35464 0
M  V30 281 C 32.9661 1.72134 -0.254123 0
M  V30 282 O 34.1421 1.95358 -0.489626 0
M  V30 283 C 31.2071 3.26671 -1.16134 0
M  V30 284 C 30.2681 3.58723 -2.35831 0
M  V30 285 C 29.5011 4.87409 -2.17413 0
M  V30 286 O 29.7241 5.58506 -1.15876 0
M  V30 287 O 28.6581 5.18539 -3.05615 0
M  V30 288 H 32.4841 1.96165 -2.31847 0
M  V30 289 H 30.0691 0.9139 -1.18187 0
M  V30 290 H 31.9511 4.07499 -1.07345 0
M  V30 291 H 30.6261 3.22894 -0.228251 0
M  V30 292 H 29.5331 2.78127 -2.50192 0
M  V30 293 H 30.8661 3.67243 -3.27709 0
M  V30 294 N 32.5182 1.22032 0.997298 0
M  V30 295 C 33.4512 0.929735 2.08401 0
M  V30 296 C 34.4292 -0.125681 1.62114 0
M  V30 297 O 35.6132 0.00495409 1.88499 0
M  V30 298 C 32.7402 0.397488 3.3636 0
M  V30 299 C 31.7862 1.4369 4.01566 0
M  V30 300 S 32.6192 3.00874 4.42984 0
M  V30 301 C 33.7752 2.49276 5.74119 0
M  V30 302 H 34.0082 1.84998 2.32729 0
M  V30 303 H 31.5412 1.0509 1.13117 0
M  V30 304 H 33.4992 0.0969846 4.10385 0
M  V30 305 H 32.1602 -0.501571 3.10069 0
M  V30 306 H 31.3532 1.01427 4.93689 0
M  V30 307 H 30.9552 1.68588 3.33847 0
M  V30 308 H 33.2472 1.90242 6.50242 0
M  V30 309 H 34.1902 3.39872 6.21203 0
M  V30 310 H 34.5982 1.90714 5.31308 0
M  V30 311 N 33.9963 -1.19345 1.0293 0
M  V30 312 C 35.2243 -1.92997 0.745644 0
M  V30 313 C 35.6393 -1.75519 -0.695589 0
M  V30 314 O 34.9963 -1.07737 -1.47306 0
M  V30 315 C 35.0473 -3.44741 1.08792 0
M  V30 316 O 34.7683 -3.61658 2.47256 0
M  V30 317 C 36.2693 -4.35515 0.827129 0
M  V30 318 H 33.4893 -0.613042 0.272801 0
M  V30 319 H 36.0333 -1.51473 1.3739 0
M  V30 320 H 34.1883 -3.84097 0.504832 0
M  V30 321 H 34.6023 -4.55514 2.60015 0
M  V30 322 H 36.0763 -5.40589 1.11658 0
M  V30 323 H 36.5533 -4.38552 -0.238436 0
M  V30 324 H 37.1593 -4.01841 1.39297 0
M  V30 325 N 35.4744 -0.807222 -1.35358 0
M  V30 326 C 36.3844 -0.219594 -2.3357 0
M  V30 327 C 37.4004 0.637734 -1.61892 0
M  V30 328 O 38.5764 0.549336 -1.93763 0
M  V30 329 C 35.6414 0.62158 -3.41083 0
M  V30 330 C 34.7024 -0.256315 -4.28534 0
M  V30 331 C 33.9354 0.544807 -5.30912 0
M  V30 332 O 34.1584 1.77944 -5.41934 0
M  V30 333 O 33.0924 -0.0646478 -6.01865 0
M  V30 334 H 36.9184 -1.03208 -2.85625 0
M  V30 335 H 34.5034 -0.569025 -1.38139 0
M  V30 336 H 36.3854 1.10067 -4.06772 0
M  V30 337 H 35.0604 1.41165 -2.91297 0
M  V30 338 H 33.9674 -0.782559 -3.65823 0
M  V30 339 H 35.3004 -1.01034 -4.81719 0
M  V30 340 N 36.9525 1.47285 -0.560781 0
M  V30 341 C 38.3635 1.86258 -0.128343 0
M  V30 342 C 38.7145 1.46699 1.30284 0
M  V30 343 O 37.8395 0.871698 1.98067 0
M  V30 344 C 38.4345 3.38044 -0.22614 0
M  V30 345 C 36.9935 3.76096 0.151283 0
M  V30 346 C 36.1405 2.71335 -0.572084 0
M  V30 347 H 39.0915 1.38752 -0.770297 0
M  V30 348 H 39.1125 3.76441 0.554322 0
M  V30 349 H 38.6245 3.66806 -1.26788 0
M  V30 350 H 36.7255 3.52951 1.19399 0
M  V30 351 H 36.8385 4.78641 -0.209765 0
M  V30 352 H 35.2025 2.54696 -0.0147653 0
M  V30 353 H 35.9855 3.02938 -1.61504 0
M  V30 354 N 38.4306 0.297415 1.54768 0
M  V30 355 C 39.3776 -0.580276 2.23386 0
M  V30 356 C 40.3476 -1.13238 1.21517 0
M  V30 357 O 41.5326 -1.17757 1.50126 0
M  V30 358 C 38.6726 -1.74801 2.97555 0
M  V30 359 C 37.7856 -1.22764 4.1419 0
M  V30 360 C 36.9206 -2.35895 4.75949 0
M  V30 361 C 35.9596 -1.80974 5.84735 0
M  V30 362 N 35.0966 -2.87664 6.40464 0
M  V30 363 H 39.9366 0.0114833 2.97998 0
M  V30 364 H 37.4736 0.0174361 1.4709 0
M  V30 365 H 39.4316 -2.43475 3.38786 0
M  V30 366 H 38.0616 -2.31145 2.25326 0
M  V30 367 H 37.1136 -0.433271 3.77924 0
M  V30 368 H 38.4256 -0.785551 4.92575 0
M  V30 369 H 37.5796 -3.12523 5.20014 0
M  V30 370 H 36.3186 -2.83429 3.96887 0
M  V30 371 H 35.3236 -1.02834 5.40097 0
M  V30 372 H 36.5486 -1.34348 6.65678 0
M  V30 373 H 34.4946 -3.34538 5.64287 0
M  V30 374 H 34.4116 -2.4794 7.14186 0
M  V30 375 H 35.6796 -3.642 6.89187 0
M  V30 376 N 39.9087 -1.5758 0.0250728 0
M  V30 377 C 41.1337 -1.96337 -0.668317 0
M  V30 378 C 41.5587 -0.901314 -1.651 0
M  V30 379 O 40.9167 0.138187 -1.80773 0
M  V30 380 C 40.9647 -3.34191 -1.35457 0
M  V30 381 O 40.0687 -3.30269 -2.46974 0
M  V30 382 H 39.4097 -0.640281 -0.175887 0
M  V30 383 H 41.9397 -2.0442 0.0857224 0
M  V30 384 H 41.9497 -3.70331 -1.71228 0
M  V30 385 H 40.6247 -4.11036 -0.634218 0
M  V30 386 H 39.2017 -3.05841 -2.13344 0
M  V30 387 N 41.3868 0.248026 -1.55636 0
M  V30 388 C 42.6328 0.97767 -1.77678 0
M  V30 389 C 42.9658 1.85016 -0.590135 0
M  V30 390 O 42.2408 1.90095 0.411611 0
M  V30 391 C 42.5238 1.83914 -3.09593 0
M  V30 392 C 42.3768 0.99491 -4.38659 0
M  V30 393 C 43.6958 2.82183 -3.37729 0
M  V30 394 H 40.8148 0.354005 -0.646413 0
M  V30 395 H 43.4568 0.248253 -1.88371 0
M  V30 396 H 41.6068 2.46104 -3.00608 0
M  V30 397 H 43.2788 0.391789 -4.59633 0
M  V30 398 H 41.5218 0.299231 -4.32767 0
M  V30 399 H 42.1928 1.63145 -5.2734 0
M  V30 400 H 44.6688 2.30129 -3.4667 0
M  V30 401 H 43.5448 3.39582 -4.31249 0
M  V30 402 H 43.8058 3.58588 -2.58586 0
M  V30 403 N 42.8649 1.48995 0.513639 0
M  V30 404 C 44.1049 1.59452 1.27885 0
M  V30 405 C 44.4689 0.269479 1.90099 0
M  V30 406 O 45.6699 0.249139 2.67643 0
M  V30 407 C 43.9409 2.71277 2.32688 0
M  V30 408 S 45.4999 3.01604 3.18717 0
M  V30 409 H 42.3179 0.562565 0.434789 0
M  V30 410 H 44.9199 1.86595 0.583301 0
M  V30 411 H 43.6239 3.66089 1.8549 0
M  V30 412 H 43.1549 2.46086 3.06929 0
M  V30 413 H 45.1699 2.42155 4.331 0
M  V30 414 N 44.343 -0.763751 1.37857 0
M  V30 415 C 45.589 -1.52483 1.33704 0
M  V30 416 C 45.922 -1.94051 -0.0759612 0
M  V30 417 O 45.197 -1.64675 -1.03501 0
M  V30 418 C 45.48 -2.78441 2.28348 0
M  V30 419 C 45.333 -2.43075 3.78463 0
M  V30 420 C 46.652 -3.80415 2.21298 0
M  V30 421 H 43.771 -0.553169 0.487005 0
M  V30 422 H 46.413 -0.875562 1.68624 0
M  V30 423 H 44.563 -3.33842 1.987 0
M  V30 424 H 46.235 -1.93527 4.18742 0
M  V30 425 H 44.478 -1.75666 3.96641 0
M  V30 426 H 45.149 -3.33149 4.40132 0
M  V30 427 H 47.625 -3.34527 2.47449 0
M  V30 428 H 46.501 -4.66257 2.89647 0
M  V30 429 H 46.762 -4.25262 1.20849 0
M  V30 430 N 45.8211 -1.22559 -0.990812 0
M  V30 431 C 47.0461 -1.07862 -1.77145 0
M  V30 432 C 47.4711 0.366447 -1.84496 0
M  V30 433 O 46.8291 1.26478 -1.29896 0
M  V30 434 C 46.8771 -1.69686 -3.18181 0
M  V30 435 O 45.9811 -0.951946 -4.01263 0
M  V30 436 H 45.3221 -0.378712 -0.545411 0
M  V30 437 H 47.8521 -1.62399 -1.2445 0
M  V30 438 H 47.8621 -1.74496 -3.68802 0
M  V30 439 H 46.5371 -2.74841 -3.12146 0
M  V30 440 H 45.1141 -0.980011 -3.59792 0
M  V30 441 N 47.2992 1.18797 -1.03562 0
M  V30 442 C 48.5452 1.8893 -0.737113 0
M  V30 443 C 48.8782 1.79837 0.732956 0
M  V30 444 O 48.1532 1.19525 1.5344 0
M  V30 445 C 48.4362 3.39607 -1.19745 0
M  V30 446 C 48.2892 3.57537 -2.72924 0
M  V30 447 C 49.6082 4.33069 -0.783526 0
M  V30 448 H 46.7272 0.686057 -0.269249 0
M  V30 449 H 49.3692 1.39797 -1.28673 0
M  V30 450 H 47.5192 3.81583 -0.729855 0
M  V30 451 H 49.1912 3.24688 -3.27682 0
M  V30 452 H 47.4342 3.00363 -3.12993 0
M  V30 453 H 48.1052 4.63238 -3.00191 0
M  V30 454 H 50.5812 3.98846 -1.18581 0
M  V30 455 H 49.4572 5.3707 -1.13343 0
M  V30 456 H 49.7182 4.40986 0.313681 0
M  V30 457 N 48.7773 0.814389 1.34928 0
M  V30 458 C 50.0543 0.321363 1.92942 0
M  V30 459 C 50.4343 -1.19014 1.74353 0
M  V30 460 O 49.7823 -1.99328 1.11716 0
M  V30 461 C 49.9923 0.741323 3.41036 0
M  V30 462 C 51.3403 0.735266 4.18185 0
M  V30 463 O 52.3643 0.68336 3.49584 0
M  V30 464 O 51.2233 0.800703 5.40602 0
M  V30 465 H 48.3173 0.0858893 0.822528 0
M  V30 466 H 50.8633 0.898609 1.43955 0
M  V30 467 H 49.6353 1.78276 3.4833 0
M  V30 468 H 49.2583 0.139307 3.97356 0
M  V30 469 N 50.2554 -1.46986 0.568584 0
M  V30 470 C 51.1654 -2.33942 -0.17555 0
M  V30 471 C 52.1814 -1.48891 -0.90041 0
M  V30 472 O 53.3574 -1.81794 -0.86676 0
M  V30 473 C 50.4224 -3.25811 -1.18524 0
M  V30 474 C 49.4834 -4.26757 -0.466582 0
M  V30 475 C 48.7164 -5.14236 -1.42817 0
M  V30 476 O 48.9394 -5.04379 -2.66379 0
M  V30 477 O 47.8734 -5.94412 -0.946453 0
M  V30 478 H 51.6994 -2.98896 0.538036 0
M  V30 479 H 49.2844 -1.4573 0.329097 0
M  V30 480 H 51.1664 -3.82527 -1.76779 0
M  V30 481 H 49.8414 -2.63471 -1.88055 0
M  V30 482 H 48.7484 -3.73769 0.157451 0
M  V30 483 H 50.0814 -4.91843 0.187485 0
M  V30 484 N 51.7335 -0.305618 -1.54608 0
M  V30 485 C 52.9795 0.302746 -2.00528 0
M  V30 486 C 53.3125 1.53184 -1.19367 0
M  V30 487 O 52.5875 1.92598 -0.271321 0
M  V30 488 C 52.8705 0.654756 -3.54097 0
M  V30 489 C 52.7235 -0.583793 -4.45995 0
M  V30 490 C 54.0425 1.47947 -4.14487 0
M  V30 491 H 51.1615 0.108564 -0.72896 0
M  V30 492 H 53.8035 -0.418634 -1.85331 0
M  V30 493 H 51.9535 1.26935 -3.67178 0
M  V30 494 H 53.6255 -1.22224 -4.44814 0
M  V30 495 H 51.8685 -1.21615 -4.16404 0
M  V30 496 H 52.5395 -0.293287 -5.5122 0
M  V30 497 H 55.0155 0.96013 -4.04871 0
M  V30 498 H 53.8915 1.69454 -5.22088 0
M  V30 499 H 54.1525 2.47011 -3.66658 0
M  V30 500 N 53.2116 1.57565 -0.0334293 0
M  V30 501 C 54.4576 1.92262 0.645226 0
M  V30 502 C 54.7906 0.910543 1.71531 0
M  V30 503 O 54.0656 -0.066099 1.94388 0
M  V30 504 C 54.3486 3.37422 1.2577 0
M  V30 505 C 54.2016 4.49369 0.196891 0
M  V30 506 C 55.5206 3.82628 2.17449 0
M  V30 507 H 52.6396 0.699171 0.233085 0
M  V30 508 H 55.2816 1.89779 -0.0915694 0
M  V30 509 H 53.4316 3.39669 1.88566 0
M  V30 510 H 55.1036 4.59254 -0.433962 0
M  V30 511 H 53.3466 4.31168 -0.477137 0
M  V30 512 H 54.0176 5.47978 0.665124 0
M  V30 513 H 56.4936 3.82145 1.64634 0
M  V30 514 H 55.3696 4.84883 2.57254 0
M  V30 515 H 55.6306 3.18376 3.0674 0
M  V30 516 N 54.6897 -0.239769 1.55765 0
M  V30 517 C 55.9147 -0.988373 1.82335 0
M  V30 518 C 56.3397 -1.77886 0.611421 0
M  V30 519 O 55.6977 -1.75889 -0.439639 0
M  V30 520 C 55.7457 -1.89627 3.06715 0
M  V30 521 O 54.8497 -2.98904 2.84131 0
M  V30 522 H 54.1907 -0.280858 0.601677 0
M  V30 523 H 56.7207 -0.258597 2.02959 0
M  V30 524 H 56.7307 -2.30957 3.36338 0
M  V30 525 H 55.4057 -1.31511 3.9456 0
M  V30 526 H 53.9827 -2.61651 2.65694 0
M  V30 527 N 56.1678 -1.49265 -0.50573 0
M  V30 528 C 57.3928 -1.62478 -1.28902 0
M  V30 529 C 57.8178 -0.294332 -1.85783 0
M  V30 530 O 57.1758 0.737412 -1.65626 0
M  V30 531 C 57.2238 -2.69268 -2.39848 0
M  V30 532 O 56.3278 -2.28113 -3.43567 0
M  V30 533 H 55.6688 -0.54399 -0.380751 0
M  V30 534 H 58.1988 -1.95421 -0.605952 0
M  V30 535 H 58.2088 -2.91291 -2.85681 0
M  V30 536 H 56.8838 -3.65846 -1.97812 0
M  V30 537 H 55.4608 -2.16401 -3.03685 0
M  V30 538 N 57.6459 0.756429 -1.3826 0
M  V30 539 C 58.5939 1.89149 -1.35372 0
M  V30 540 C 59.5879 1.67691 -0.24004 0
M  V30 541 O 60.7939 1.75294 -0.408919 0
M  V30 542 H 57.1689 0.622271 -0.422236 0
M  V30 543 H 59.1399 1.88701 -2.31159 0
M  V30 544 C 57.8889 3.26599 -1.19284 0
M  V30 545 H 57.2119 3.43695 -2.0424 0
M  V30 546 H 58.6519 4.06274 -1.21316 0
M  V30 547 C 57.1109 3.3675 0.100454 0
M  V30 548 O 57.6409 3.86951 1.07851 0
M  V30 549 N 55.8469 2.90179 0.15633 0
M  V30 550 H 55.3939 2.49517 -0.640253 0
M  V30 551 H 55.3519 2.97352 1.02123 0
M  V30 552 N 59.124 1.23083 0.984299 0
M  V30 553 C 60.057 0.951786 2.07404 0
M  V30 554 C 61.035 -0.10848 1.62238 0
M  V30 555 O 62.219 0.0249467 1.88483 0
M  V30 556 C 59.346 0.433142 3.35919 0
M  V30 557 C 58.392 1.47941 4.0002 0
M  V30 558 S 59.225 3.05556 4.39768 0
M  V30 559 C 60.381 2.55351 5.71442 0
M  V30 560 H 60.614 1.87456 2.30754 0
M  V30 561 H 58.147 1.06284 1.11996 0
M  V30 562 H 60.105 0.140506 4.10259 0
M  V30 563 H 58.766 -0.468656 3.10584 0
M  V30 564 H 57.959 1.06658 4.92585 0
M  V30 565 H 57.561 1.7212 3.3204 0
M  V30 566 H 59.853 1.97128 6.48187 0
M  V30 567 H 60.796 3.46441 6.17563 0
M  V30 568 H 61.204 1.96339 5.29255 0
M  V30 569 N 60.6021 -1.18246 1.0419 0
M  V30 570 C 61.5121 -2.25574 0.644476 0
M  V30 571 C 62.5281 -1.70845 -0.329826 0
M  V30 572 O 63.7041 -2.00554 -0.184443 0
M  V30 573 C 60.7691 -3.46697 0.014877 0
M  V30 574 C 59.8301 -4.16554 1.03834 0
M  V30 575 C 59.0631 -5.31894 0.438692 0
M  V30 576 O 59.2861 -5.65385 -0.754752 0
M  V30 577 O 58.2201 -5.90459 1.168 0
M  V30 578 H 62.0461 -2.61836 1.53869 0
M  V30 579 H 59.6311 -1.25352 0.812854 0
M  V30 580 H 61.5131 -4.20062 -0.335538 0
M  V30 581 H 60.1881 -3.12255 -0.853138 0
M  V30 582 H 59.0951 -3.45251 1.44057 0
M  V30 583 H 60.4281 -4.54998 1.87716 0
M  V30 584 N 62.0802 -0.821533 -1.34494 0
M  V30 585 C 63.0432 -0.247847 -2.27856 0
M  V30 586 C 64.0432 0.573453 -1.50227 0
M  V30 587 O 65.2332 0.389759 -1.69784 0
M  V30 588 C 62.3652 0.652698 -3.34593 0
M  V30 589 H 63.5582 -1.07146 -2.80107 0
M  V30 590 H 61.1112 -0.593291 -1.44602 0
M  V30 591 H 61.8462 1.49943 -2.87555 0
M  V30 592 H 61.6312 0.065292 -3.92046 0
M  V30 593 H 63.1212 1.04793 -4.04238 0
M  V30 594 N 63.5583 1.46682 -0.576371 0
M  V30 595 C 64.7863 2.06798 -0.0649635 0
M  V30 596 C 65.2013 1.42612 1.23723 0
M  V30 597 O 64.5583 0.529203 1.74659 0
M  V30 598 C 64.6093 3.6132 0.114202 0
M  V30 599 O 64.3303 4.23104 -1.13644 0
M  V30 600 C 65.8313 4.38349 0.66069 0
M  V30 601 H 63.0513 0.668778 -0.0545616 0
M  V30 602 H 65.5953 1.88404 -0.795237 0
M  V30 603 H 63.7503 3.79162 0.794673 0
M  V30 604 H 64.1643 5.15894 -0.946253 0
M  V30 605 H 65.6383 5.47081 0.73526 0
M  V30 606 H 66.1153 4.05953 1.67627 0
M  V30 607 H 66.7213 4.25297 0.0152951 0
M  V30 608 N 65.0364 0.313813 1.54444 0
M  V30 609 C 65.9464 -0.565714 2.27677 0
M  V30 610 C 66.9624 -1.13754 1.31666 0
M  V30 611 O 68.1384 -1.15959 1.64668 0
M  V30 612 C 65.2034 -1.71528 3.01296 0
M  V30 613 C 64.2644 -1.17624 4.12872 0
M  V30 614 C 63.4974 -2.27102 4.8297 0
M  V30 615 O 63.7204 -3.47256 4.52514 0
M  V30 616 O 62.6544 -1.9307 5.70094 0
M  V30 617 H 66.4804 0.0287296 3.03686 0
M  V30 618 H 64.0654 0.0798312 1.49187 0
M  V30 619 H 65.9474 -2.38476 3.4743 0
M  V30 620 H 64.6224 -2.29608 2.2817 0
M  V30 621 H 63.5294 -0.472124 3.71109 0
M  V30 622 H 64.8624 -0.640695 4.88012 0
M  V30 623 N 66.5145 -1.57545 0.0417849 0
M  V30 624 C 67.7425 -1.96624 -0.643928 0
M  V30 625 C 68.1575 -0.918897 -1.64929 0
M  V30 626 O 67.5145 0.0979323 -1.82237 0
M  V30 627 C 67.5655 -3.35781 -1.33914 0
M  V30 628 O 67.2865 -4.365 -0.374048 0
M  V30 629 C 68.7875 -3.89566 -2.1155 0
M  V30 630 H 66.0075 -0.647316 -0.176702 0
M  V30 631 H 68.5515 -2.04229 0.105304 0
M  V30 632 H 66.7065 -3.29357 -2.03968 0
M  V30 633 H 67.1205 -5.17248 -0.869179 0
M  V30 634 H 68.5945 -4.89242 -2.55628 0
M  V30 635 H 69.0715 -3.24488 -2.9598 0
M  V30 636 H 69.6775 -3.99298 -1.46427 0
M  V30 637 N 67.9926 0.231505 -1.5589 0
M  V30 638 C 69.2696 0.981096 -1.69215 0
M  V30 639 C 69.6496 2.02799 -0.586164 0
M  V30 640 O 68.9976 2.24823 0.408253 0
M  V30 641 C 69.2076 1.60054 -3.10135 0
M  V30 642 C 70.5556 2.09658 -3.69227 0
M  V30 643 O 71.5796 1.69967 -3.13033 0
M  V30 644 O 70.4386 2.8258 -4.67772 0
M  V30 645 H 67.5326 0.457653 -0.688827 0
M  V30 646 H 70.0786 0.224073 -1.68214 0
M  V30 647 H 68.8506 0.844105 -3.82087 0
M  V30 648 H 68.4736 2.42336 -3.15212 0
M  V30 649 N 69.4707 1.49531 0.497807 0
M  V30 650 C 70.4007 1.6935 1.60757 0
M  V30 651 C 71.3817 0.542218 1.61227 0
M  V30 652 O 72.5667 0.778417 1.77917 0
M  V30 653 C 69.6967 1.76298 2.99226 0
M  V30 654 C 68.6507 2.91248 3.13622 0
M  V30 655 C 67.9767 2.83312 4.53474 0
M  V30 656 C 69.2767 4.3214 2.93346 0
M  V30 657 H 70.9707 2.62263 1.44425 0
M  V30 658 H 68.5167 1.26208 0.693367 0
M  V30 659 H 70.4697 1.88749 3.76765 0
M  V30 660 H 69.1937 0.799871 3.16654 0
M  V30 661 H 67.8527 2.78404 2.38509 0
M  V30 662 H 67.5007 1.84902 4.67782 0
M  V30 663 H 67.2007 3.60465 4.64046 0
M  V30 664 H 68.7247 2.97775 5.33069 0
M  V30 665 H 70.1387 4.45649 3.60652 0
M  V30 666 H 68.5357 5.1054 3.15387 0
M  V30 667 H 69.6057 4.46363 1.89441 0
M  V30 668 N 70.9488 -0.749086 1.3866 0
M  V30 669 C 71.8788 -1.8764 1.38973 0
M  V30 670 C 72.8598 -1.68178 0.255004 0
M  V30 671 O 74.0448 -1.88704 0.458754 0
M  V30 672 C 71.1748 -3.25222 1.21851 0
M  V30 673 C 70.1288 -3.59295 2.32575 0
M  V30 674 C 69.4548 -4.95663 2.00555 0
M  V30 675 C 70.7548 -3.63709 3.7485 0
M  V30 676 H 72.4488 -1.87635 2.3331 0
M  V30 677 H 69.9948 -0.901329 1.12303 0
M  V30 678 H 71.9478 -4.03746 1.20695 0
M  V30 679 H 70.6718 -3.25719 0.239775 0
M  V30 680 H 69.3308 -2.83093 2.32925 0
M  V30 681 H 68.9788 -4.92724 1.01154 0
M  V30 682 H 68.6788 -5.19429 2.74714 0
M  V30 683 H 70.2028 -5.7656 2.01024 0
M  V30 684 H 71.6168 -4.32338 3.76506 0
M  V30 685 H 70.0138 -3.98986 4.48252 0
M  V30 686 H 71.0838 -2.63834 4.06841 0
M  V30 687 N 72.4269 -1.23603 -0.977757 0
M  V30 688 C 73.3749 -1.01704 -2.09187 0
M  V30 689 C 74.3689 0.0448214 -1.69341 0
M  V30 690 O 75.5749 -0.108902 -1.7967 0
M  V30 691 H 71.9499 -0.311803 -0.684312 0
M  V30 692 H 73.9209 -1.96207 -2.24823 0
M  V30 693 C 72.6699 -0.627746 -3.41986 0
M  V30 694 H 71.9929 -1.43656 -3.73099 0
M  V30 695 H 73.4329 -0.514053 -4.20872 0
M  V30 696 C 71.8919 0.664238 -3.30287 0
M  V30 697 O 72.4219 1.71268 -3.6336 0
M  V30 698 N 70.6279 0.641156 -2.83439 0
M  V30 699 H 70.1749 -0.212376 -2.56723 0
M  V30 700 H 70.1329 1.50583 -2.75993 0
M  V30 701 N 73.905 1.17692 -1.04816 0
M  V30 702 C 75.153 1.87488 -0.754497 0
M  V30 703 C 75.474 1.81205 0.720407 0
M  V30 704 O 74.744 1.23544 1.52032 0
M  V30 705 H 73.324 0.694101 -0.276102 0
M  V30 706 H 75.986 1.42793 -1.32651 0
M  V30 707 H 75.082 2.93328 -1.06606 0
M  V30 708 N 75.3831 0.828654 1.34056 0
M  V30 709 C 76.3331 0.226828 2.26869 0
M  V30 710 C 77.3171 -0.612243 1.48796 0
M  V30 711 O 78.5091 -0.465884 1.70759 0
M  V30 712 C 75.6381 -0.605654 3.37915 0
M  V30 713 C 74.7241 0.244361 4.23395 0
M  V30 714 N 75.1151 1.31815 4.88322 0
M  V30 715 C 73.4131 0.0296616 4.4599 0
M  V30 716 C 74.1141 1.83895 5.51867 0
M  V30 717 N 73.0901 1.14196 5.3147 0
M  V30 718 H 76.8921 1.04811 2.74576 0
M  V30 719 H 74.4061 0.67205 1.47842 0
M  V30 720 H 76.4031 -1.05302 4.03382 0
M  V30 721 H 75.0631 -1.42504 2.91758 0
M  V30 722 H 76.0741 1.70099 4.8917 0
M  V30 723 H 72.7511 -0.757097 4.10578 0
M  V30 724 H 74.1411 2.7376 6.136 0
M  V30 725 N 76.8612 -1.46375 0.584142 0
M  V30 726 C 77.7912 -2.33103 -0.136037 0
M  V30 727 C 78.7722 -1.45431 -0.882255 0
M  V30 728 O 79.9572 -1.74246 -0.857434 0
M  V30 729 C 77.0872 -3.27731 -1.14933 0
M  V30 730 C 76.0412 -4.24855 -0.517862 0
M  V30 731 C 75.3672 -5.09001 -1.63773 0
M  V30 732 C 76.6672 -5.19439 0.545886 0
M  V30 733 H 78.3612 -2.93568 0.588086 0
M  V30 734 H 75.9072 -1.41166 0.284259 0
M  V30 735 H 77.8602 -3.87261 -1.66153 0
M  V30 736 H 76.5842 -2.65377 -1.90375 0
M  V30 737 H 75.2432 -3.6659 -0.0267361 0
M  V30 738 H 74.8912 -4.43031 -2.38185 0
M  V30 739 H 74.5912 -5.74777 -1.22085 0
M  V30 740 H 76.1152 -5.71396 -2.15266 0
M  V30 741 H 77.5292 -5.73177 0.118704 0
M  V30 742 H 75.9262 -5.93566 0.88317 0
M  V30 743 H 76.9962 -4.63285 1.43162 0
M  V30 744 N 78.3393 -0.321999 -1.54275 0
M  V30 745 C 79.2863 0.544664 -2.24281 0
M  V30 746 C 80.2563 1.1129 -1.23303 0
M  V30 747 O 81.4413 1.15354 -1.51981 0
M  V30 748 C 78.5813 1.70045 -3.00298 0
M  V30 749 C 77.6943 1.16159 -4.1609 0
M  V30 750 C 76.8293 2.28293 -4.79641 0
M  V30 751 C 75.8683 1.71648 -5.8754 0
M  V30 752 N 75.0053 2.77438 -6.44959 0
M  V30 753 H 79.8453 -0.0588907 -2.97942 0
M  V30 754 H 77.3823 -0.0408345 -1.47043 0
M  V30 755 H 79.3403 2.38054 -3.42616 0
M  V30 756 H 77.9703 2.27531 -2.28975 0
M  V30 757 H 77.0223 0.373092 -3.78566 0
M  V30 758 H 78.3343 0.707087 -4.93763 0
M  V30 759 H 77.4883 3.0421 -5.2492 0
M  V30 760 H 76.2273 2.77079 -4.01346 0
M  V30 761 H 75.2323 0.942282 -5.41665 0
M  V30 762 H 76.4573 1.23741 -6.67731 0
M  V30 763 H 74.4033 3.25519 -5.69538 0
M  V30 764 H 74.3203 2.36547 -7.1804 0
M  V30 765 H 75.5883 3.53189 -6.94894 0
M  V30 766 N 79.8174 1.5752 -0.0501392 0
M  V30 767 C 80.7644 2.1147 0.924603 0
M  V30 768 C 81.7344 1.02182 1.30951 0
M  V30 769 O 82.9194 1.29723 1.39916 0
M  V30 770 C 80.0594 2.66337 2.19451 0
M  V30 771 C 79.1724 3.89708 1.86418 0
M  V30 772 C 78.3074 4.32893 3.07859 0
M  V30 773 C 77.3464 5.48967 2.70742 0
M  V30 774 N 76.4834 5.87211 3.84874 0
M  V30 775 H 81.3234 2.94465 0.457639 0
M  V30 776 H 78.8604 1.45531 0.214266 0
M  V30 777 H 80.8184 2.96247 2.93758 0
M  V30 778 H 79.4484 1.86141 2.63726 0
M  V30 779 H 78.5004 3.66396 1.02264 0
M  V30 780 H 79.8124 4.74074 1.55096 0
M  V30 781 H 78.9664 4.6435 3.90466 0
M  V30 782 H 77.7054 3.47336 3.42358 0
M  V30 783 H 76.7104 5.17183 1.86551 0
M  V30 784 H 77.9354 6.3624 2.37436 0
M  V30 785 H 75.8814 5.04607 4.19175 0
M  V30 786 H 75.7984 6.66266 3.57247 0
M  V30 787 H 77.0664 6.23282 4.68123 0
M  V30 788 N 81.2955 -0.223234 1.56011 0
M  V30 789 C 82.5415 -0.949279 1.79211 0
M  V30 790 C 82.8745 -1.84054 0.619494 0
M  V30 791 O 82.1495 -1.90726 -0.381317 0
M  V30 792 C 82.4325 -1.78965 3.12479 0
M  V30 793 C 82.2855 -0.924997 4.40186 0
M  V30 794 C 83.6045 -2.76774 3.42175 0
M  V30 795 H 80.7235 -0.343676 0.651963 0
M  V30 796 H 83.3655 -0.218253 1.88742 0
M  V30 797 H 81.5155 -2.41291 3.04485 0
M  V30 798 H 83.1875 -0.318615 4.60198 0
M  V30 799 H 81.4305 -0.230344 4.33188 0
M  V30 800 H 82.1015 -1.54735 5.29869 0
M  V30 801 H 84.5775 -2.24584 3.50287 0
M  V30 802 H 83.4535 -3.32678 4.36597 0
M  V30 803 H 83.7145 -3.54429 2.64258 0
M  V30 804 N 82.7736 -1.49793 -0.48987 0
M  V30 805 C 84.0506 -1.50348 -1.25119 0
M  V30 806 C 84.4306 -0.237466 -2.0976 0
M  V30 807 O 83.7786 0.77981 -2.14782 0
M  V30 808 C 83.9886 -2.78872 -2.09837 0
M  V30 809 C 85.3366 -3.288 -2.68655 0
M  V30 810 O 86.3606 -2.80065 -2.20096 0
M  V30 811 O 85.2196 -4.13707 -3.57083 0
M  V30 812 H 82.3136 -0.602242 -0.566775 0
M  V30 813 H 84.8596 -1.62067 -0.503229 0
M  V30 814 H 83.6316 -3.62499 -1.47343 0
M  V30 815 H 83.2546 -2.70066 -2.91805 0
M  V30 816 N 84.2517 0.741722 -1.39055 0
M  V30 817 C 85.1997 1.87702 -1.3737 0
M  V30 818 C 86.1937 1.67427 -0.257812 0
M  V30 819 O 87.3997 1.7485 -0.427489 0
M  V30 820 H 83.7747 0.617757 -0.428812 0
M  V30 821 H 85.7457 1.86239 -2.33147 0
M  V30 822 C 84.4947 3.25315 -1.22741 0
M  V30 823 H 83.8177 3.41509 -2.07873 0
M  V30 824 H 85.2577 4.04964 -1.25618 0
M  V30 825 C 83.7167 3.36838 0.0647316 0
M  V30 826 O 84.2467 3.88073 1.03741 0
M  V30 827 N 82.4527 2.90329 0.125544 0
M  V30 828 H 81.9997 2.48823 -0.666682 0
M  V30 829 H 81.9577 2.98418 0.989639 0
M  V30 830 N 85.7298 1.2412 0.971189 0
M  V30 831 C 86.6778 1.02812 2.08644 0
M  V30 832 C 87.6718 -0.0358403 1.69362 0
M  V30 833 O 88.8778 0.118429 1.7961 0
M  V30 834 H 85.2528 0.315428 0.682649 0
M  V30 835 H 87.2238 1.97397 2.23779 0
M  V30 836 C 85.9728 0.645874 3.41649 0
M  V30 837 H 85.2958 1.45632 3.72332 0
M  V30 838 H 86.7358 0.536366 4.20594 0
M  V30 839 C 85.1948 -0.646713 3.30635 0
M  V30 840 O 85.7248 -1.69338 3.64263 0
M  V30 841 N 83.9308 -0.626115 2.83775 0
M  V30 842 H 83.4778 0.225988 2.56607 0
M  V30 843 H 83.4358 -1.49117 2.76788 0
M  V30 844 N 87.2079 -1.17134 1.05439 0
M  V30 845 C 88.1379 -2.2342 0.678649 0
M  V30 846 C 89.1189 -1.66971 -0.32476 0
M  V30 847 O 90.3039 -1.93149 -0.201802 0
M  V30 848 C 87.4339 -3.47256 0.0552099 0
M  V30 849 C 86.3879 -4.16543 0.98365 0
M  V30 850 C 85.7139 -5.34231 0.223961 0
M  V30 851 C 87.0139 -4.68495 2.3089 0
M  V30 852 H 88.7079 -2.55105 1.56722 0
M  V30 853 H 86.2539 -1.2262 0.754998 0
M  V30 854 H 88.2069 -4.20828 -0.21946 0
M  V30 855 H 86.9309 -3.14846 -0.868319 0
M  V30 856 H 85.5899 -3.44887 1.24293 0
M  V30 857 H 85.2379 -4.98071 -0.702412 0
M  V30 858 H 84.9379 -5.81527 0.842627 0
M  V30 859 H 86.4619 -6.10585 -0.0433671 0
M  V30 860 H 87.8759 -5.33691 2.09396 0
M  V30 861 H 86.2729 -5.26379 2.88176 0
M  V30 862 H 87.3429 -3.85169 2.94572 0
M  V30 863 N 88.686 -0.835752 -1.33615 0
M  V30 864 C 89.914 -0.443344 -2.02094 0
M  V30 865 C 90.329 0.954522 -1.62894 0
M  V30 866 O 89.686 1.61982 -0.840723 0
M  V30 867 C 89.737 -0.550775 -3.5728 0
M  V30 868 O 89.458 -1.89356 -3.95065 0
M  V30 869 C 90.959 -0.154919 -4.43029 0
M  V30 870 H 88.179 -0.176359 -0.647409 0
M  V30 871 H 90.723 -1.12746 -1.70612 0
M  V30 872 H 88.878 0.0853997 -3.87306 0
M  V30 873 H 89.292 -1.87687 -4.89769 0
M  V30 874 H 90.766 -0.281144 -5.51284 0
M  V30 875 H 91.243 0.902863 -4.2982 0
M  V30 876 H 91.849 -0.765404 -4.18356 0
M  V30 877 N 90.1641 1.46063 -0.591896 0
M  V30 878 C 91.0741 2.34192 0.13831 0
M  V30 879 C 92.0901 1.50305 0.876608 0
M  V30 880 O 93.2661 1.8315 0.837728 0
M  V30 881 C 90.3311 3.27656 1.13326 0
M  V30 882 C 89.3921 4.27445 0.39863 0
M  V30 883 C 88.6251 5.16443 1.34618 0
M  V30 884 O 88.8481 5.08553 2.58321 0
M  V30 885 O 87.7821 5.95843 0.851768 0
M  V30 886 H 91.6081 2.98002 -0.58552 0
M  V30 887 H 89.1931 1.45188 -0.352239 0
M  V30 888 H 91.0751 3.85291 1.70671 0
M  V30 889 H 89.7501 2.6643 1.83839 0
M  V30 890 H 88.6571 3.73471 -0.216895 0
M  V30 891 H 89.9901 4.91482 -0.265709 0
M  V30 892 N 91.6422 0.330177 1.54103 0
M  V30 893 C 92.6052 -0.520144 2.2322 0
M  V30 894 C 93.6052 -1.03828 1.22786 0
M  V30 895 O 94.7952 -0.929652 1.4732 0
M  V30 896 C 91.9272 -1.72317 2.94142 0
M  V30 897 H 93.1202 0.0841605 2.99782 0
M  V30 898 H 90.6732 0.0813433 1.56088 0
M  V30 899 H 91.4082 -2.36653 2.21734 0
M  V30 900 H 91.1932 -1.35898 3.67796 0
M  V30 901 H 92.6832 -2.3266 3.46784 0
M  V30 902 N 93.1203 -1.57491 0.0584922 0
M  V30 903 C 94.0523 -2.08916 -0.942694 0
M  V30 904 C 95.0653 -1.0185 -1.27006 0
M  V30 905 O 96.2543 -1.29398 -1.22957 0
M  V30 906 C 93.3543 -2.52341 -2.26224 0
M  V30 907 C 92.5273 -3.82827 -2.1157 0
M  V30 908 C 91.5863 -4.12487 -3.26712 0
M  V30 909 O 90.6123 -4.82295 -3.02292 0
M  V30 910 N 91.8143 -3.64978 -4.5141 0
M  V30 911 H 94.5793 -2.95437 -0.503722 0
M  V30 912 H 92.1403 -1.61397 -0.12757 0
M  V30 913 H 94.1323 -2.69254 -3.02133 0
M  V30 914 H 92.7023 -1.7103 -2.61663 0
M  V30 915 H 91.9223 -3.75425 -1.20208 0
M  V30 916 H 93.2103 -4.68263 -1.99015 0
M  V30 917 H 92.6083 -3.08558 -4.7414 0
M  V30 918 H 91.1653 -3.87115 -5.2439 0
M  V30 919 N 94.5984 0.214957 -1.56127 0
M  V30 920 C 96.0144 0.564948 -1.49267 0
M  V30 921 C 96.2144 1.86827 -0.754838 0
M  V30 922 O 95.2704 2.50745 -0.297198 0
M  V30 923 C 96.5834 0.638071 -2.93852 0
M  V30 924 C 98.1314 0.728253 -3.0441 0
M  V30 925 C 98.6064 0.832663 -4.50367 0
M  V30 926 N 100.097 0.896712 -4.54437 0
M  V30 927 C 100.832 0.997324 -5.6466 0
M  V30 928 N 100.328 1.06147 -6.8462 0
M  V30 929 N 102.121 1.03297 -5.52527 0
M  V30 930 H 94.2724 -0.640211 -2.02522 0
M  V30 931 H 96.5354 -0.225507 -0.920788 0
M  V30 932 H 96.2414 -0.250126 -3.50809 0
M  V30 933 H 96.1154 1.49947 -3.46115 0
M  V30 934 H 98.5024 1.60689 -2.47514 0
M  V30 935 H 98.5834 -0.158952 -2.55306 0
M  V30 936 H 98.2274 -0.0415417 -5.07883 0
M  V30 937 H 98.1574 1.73538 -4.97184 0
M  V30 938 H 100.648 0.857188 -3.6805 0
M  V30 939 H 100.961 1.1382 -7.64372 0
M  V30 940 H 99.3064 1.03049 -6.87318 0
M  V30 941 H 102.497 0.979558 -4.57736 0
M  V30 942 H 102.67 1.10793 -6.38458 0
M  V30 943 N 96.0765 1.50051 0.48192 0
M  V30 944 C 97.3235 1.60498 1.23477 0
M  V30 945 C 97.6515 0.300331 1.92167 0
M  V30 946 O 96.9065 -0.713094 1.82246 0
M  V30 947 C 97.2055 2.72717 2.30998 0
M  V30 948 C 96.8715 4.13572 1.79636 0
M  V30 949 C 95.5335 4.519 1.65348 0
M  V30 950 C 97.8855 5.01649 1.41412 0
M  V30 951 C 95.2135 5.76057 1.11244 0
M  V30 952 C 97.5655 6.26343 0.887538 0
M  V30 953 C 96.2295 6.63483 0.731207 0
M  V30 954 H 95.4995 0.587303 0.451836 0
M  V30 955 H 98.1465 1.83948 0.532468 0
M  V30 956 H 96.4515 2.43312 3.07094 0
M  V30 957 H 98.1485 2.78006 2.88988 0
M  V30 958 H 94.7385 3.83329 1.91721 0
M  V30 959 H 98.9225 4.72679 1.51289 0
M  V30 960 H 94.1785 6.03516 0.978686 0
M  V30 961 H 98.3525 6.93958 0.582654 0
M  V30 962 H 95.9795 7.59568 0.309806 0
M  V30 963 N 97.5546 -0.734337 1.39446 0
M  V30 964 C 98.7796 -1.52866 1.40167 0
M  V30 965 C 99.2046 -1.881 -0.00171513 0
M  V30 966 O 98.5626 -1.51957 -0.988879 0
M  V30 967 C 98.6106 -2.79235 2.28167 0
M  V30 968 O 97.7146 -3.75185 1.71201 0
M  V30 969 H 97.0556 -0.461618 0.477289 0
M  V30 970 H 99.5856 -0.905949 1.8345 0
M  V30 971 H 99.5956 -3.27963 2.42702 0
M  V30 972 H 98.2706 -2.52923 3.30156 0
M  V30 973 H 96.8476 -3.33958 1.65912 0
M  V30 974 N 99.0327 -1.24633 -0.964593 0
M  V30 975 C 100.258 -1.11596 -1.74818 0
M  V30 976 C 100.683 0.32723 -1.85232 0
M  V30 977 O 100.041 1.23695 -1.32549 0
M  V30 978 C 100.089 -1.76397 -3.1451 0
M  V30 979 O 99.1927 -1.03685 -3.99153 0
M  V30 980 H 98.5337 -0.390196 -0.537255 0
M  V30 981 H 101.064 -1.65002 -1.20977 0
M  V30 982 H 101.074 -1.8228 -3.65018 0
M  V30 983 H 99.7487 -2.81401 -3.06246 0
M  V30 984 H 98.3257 -1.05611 -3.57632 0
M  V30 985 N 100.511 1.16574 -1.06058 0
M  V30 986 C 101.441 2.23057 -0.690488 0
M  V30 987 C 102.422 1.67141 0.315901 0
M  V30 988 O 103.607 1.93253 0.191556 0
M  V30 989 C 100.737 3.47222 -0.073625 0
M  V30 990 C 99.6908 4.16016 -1.00573 0
M  V30 991 C 99.0168 5.34104 -0.252289 0
M  V30 992 C 100.317 4.67264 -2.33371 0
M  V30 993 H 102.011 2.54271 -1.58072 0
M  V30 994 H 99.5568 1.22218 -0.76149 0
M  V30 995 H 101.51 4.20939 0.19714 0
M  V30 996 H 100.234 3.15302 0.85161 0
M  V30 997 H 98.8928 3.44223 -1.2612 0
M  V30 998 H 98.5408 4.98437 0.675988 0
M  V30 999 H 98.2408 5.81072 -0.873455 0
M  V30 1000 H 99.7648 6.10599 0.0109857 0
M  V30 1001 H 101.179 5.32573 -2.12223 0
M  V30 1002 H 99.5758 5.24843 -2.90963 0
M  V30 1003 H 100.646 3.83602 -2.96611 0
M  V30 1004 N 101.989 0.842826 1.3317 0
M  V30 1005 C 103.4 0.496651 1.79973 0
M  V30 1006 C 103.751 -0.984641 1.69703 0
M  V30 1007 O 102.876 -1.76743 1.24863 0
M  V30 1008 C 103.471 0.894727 3.26772 0
M  V30 1009 C 102.03 0.600629 3.71577 0
M  V30 1010 C 101.177 1.10091 2.5451 0
M  V30 1011 H 104.128 1.03116 1.20635 0
M  V30 1012 H 104.149 0.206347 3.7994 0
M  V30 1013 H 103.661 1.97287 3.34215 0
M  V30 1014 H 101.762 -0.467284 3.69658 0
M  V30 1015 H 101.875 1.15863 4.64879 0
M  V30 1016 H 100.239 0.52162 2.49301 0
M  V30 1017 H 101.022 2.18591 2.64713 0
M  V30 1018 N 103.467 -1.45747 0.599634 0
M  V30 1019 C 104.883 -1.57424 0.26264 0
M  V30 1020 C 105.083 -1.59222 -1.23493 0
M  V30 1021 O 104.139 -1.51825 -2.01756 0
M  V30 1022 C 105.452 -2.86061 0.926795 0
M  V30 1023 C 107 -2.99722 0.901967 0
M  V30 1024 C 107.475 -4.31119 1.54598 0
M  V30 1025 N 108.966 -4.37858 1.5111 0
M  V30 1026 C 109.701 -5.3818 1.97863 0
M  V30 1027 N 109.197 -6.45083 2.52666 0
M  V30 1028 N 110.99 -5.29487 1.88679 0
M  V30 1029 H 103.141 -1.42823 1.57211 0
M  V30 1030 H 105.404 -0.68235 0.658105 0
M  V30 1031 H 105.11 -2.90605 1.98095 0
M  V30 1032 H 104.984 -3.74563 0.445238 0
M  V30 1033 H 107.371 -2.9475 -0.143617 0
M  V30 1034 H 107.452 -2.12652 1.42171 0
M  V30 1035 H 107.096 -4.36849 2.59085 0
M  V30 1036 H 107.026 -5.16992 1.00132 0
M  V30 1037 H 109.517 -3.61209 1.11068 0
M  V30 1038 H 109.83 -7.17869 2.86155 0
M  V30 1039 H 108.175 -6.45856 2.56701 0
M  V30 1040 H 111.366 -4.44877 1.4561 0
M  V30 1041 H 111.539 -6.07524 2.25429 0
M  V30 1042 N 104.945 -0.338344 -1.53925 0
M  V30 1043 C 106.361 0.0137736 -1.59594 0
M  V30 1044 C 106.561 1.49186 -1.35447 0
M  V30 1045 O 105.617 2.24987 -1.14616 0
M  V30 1046 C 106.93 -0.41773 -2.97784 0
M  V30 1047 C 108.478 -0.369633 -3.1081 0
M  V30 1048 C 108.953 -0.776524 -4.51369 0
M  V30 1049 N 110.444 -0.730506 -4.57403 0
M  V30 1050 C 111.179 -1.01736 -5.64303 0
M  V30 1051 N 110.675 -1.3721 -6.79077 0
M  V30 1052 N 112.468 -0.941942 -5.54151 0
M  V30 1053 H 104.619 -1.3012 -1.67876 0
M  V30 1054 H 106.882 -0.530082 -0.78595 0
M  V30 1055 H 106.588 -1.44811 -3.20504 0
M  V30 1056 H 106.462 0.209729 -3.76616 0
M  V30 1057 H 108.849 0.651568 -2.87817 0
M  V30 1058 H 108.93 -1.03223 -2.34049 0
M  V30 1059 H 108.574 -1.79571 -4.75096 0
M  V30 1060 H 108.504 -0.0914649 -5.26521 0
M  V30 1061 H 110.995 -0.468783 -3.74981 0
M  V30 1062 H 111.308 -1.57597 -7.5656 0
M  V30 1063 H 109.653 -1.4105 -6.80536 0
M  V30 1064 H 112.844 -0.664184 -4.63364 0
M  V30 1065 H 113.017 -1.16884 -6.37371 0
M  V30 1066 N 106.423 1.57458 -0.0668435 0
M  V30 1067 C 107.386 2.11323 0.887422 0
M  V30 1068 C 108.386 1.03618 1.22964 0
M  V30 1069 O 109.576 1.29626 1.16373 0
M  V30 1070 C 106.708 2.61048 2.19242 0
M  V30 1071 H 107.901 2.96942 0.420194 0
M  V30 1072 H 105.454 1.55239 0.181793 0
M  V30 1073 H 106.189 1.78868 2.70512 0
M  V30 1074 H 105.974 3.39769 1.95702 0
M  V30 1075 H 107.464 3.02814 2.87565 0
M  V30 1076 N 107.901 -0.206675 1.56239 0
M  V30 1077 C 108.864 -1.23976 1.92776 0
M  V30 1078 C 109.864 -1.39041 0.807729 0
M  V30 1079 O 111.054 -1.37051 1.0753 0
M  V30 1080 C 108.186 -2.61112 2.19165 0
M  V30 1081 H 109.379 -0.927764 2.85189 0
M  V30 1082 H 106.932 -0.447718 1.4975 0
M  V30 1083 H 107.667 -2.97386 1.29352 0
M  V30 1084 H 107.452 -2.51552 3.00772 0
M  V30 1085 H 108.942 -3.35633 2.48476 0
M  V30 1086 N 109.379 -1.50304 -0.473955 0
M  V30 1087 C 110.625 -1.61389 -1.22806 0
M  V30 1088 C 110.958 -0.311955 -1.91678 0
M  V30 1089 O 110.233 0.686384 -1.81986 0
M  V30 1090 C 110.516 -2.79219 -2.27396 0
M  V30 1091 C 110.369 -4.19286 -1.62848 0
M  V30 1092 C 111.688 -2.92614 -3.28732 0
M  V30 1093 H 108.807 -0.587399 -0.445119 0
M  V30 1094 H 111.449 -1.82681 -0.522265 0
M  V30 1095 H 109.599 -2.61195 -2.87592 0
M  V30 1096 H 111.271 -4.48892 -1.06271 0
M  V30 1097 H 109.514 -4.23677 -0.931693 0
M  V30 1098 H 110.185 -4.97655 -2.38838 0
M  V30 1099 H 112.661 -3.09105 -2.78556 0
M  V30 1100 H 111.537 -3.76688 -3.99246 0
M  V30 1101 H 111.798 -2.03107 -3.92683 0
M  V30 1102 N 110.857 0.726932 -1.39834 0
M  V30 1103 C 111.805 1.86235 -1.39353 0
M  V30 1104 C 112.799 1.67144 -0.275555 0
M  V30 1105 O 114.005 1.74387 -0.44601 0
M  V30 1106 H 110.38 0.613174 -0.43534 0
M  V30 1107 H 112.351 1.83756 -2.35109 0
M  V30 1108 C 111.1 3.23995 -1.26185 0
M  V30 1109 H 110.423 3.39285 -2.11484 0
M  V30 1110 H 111.863 4.03609 -1.29907 0
M  V30 1111 C 110.322 3.36888 0.0290018 0
M  V30 1112 O 110.852 3.89152 0.99619 0
M  V30 1113 N 109.058 2.90446 0.0947437 0
M  V30 1114 H 108.605 2.48102 -0.693035 0
M  V30 1115 H 108.563 2.99451 0.957932 0
M  V30 1116 N 112.336 1.25143 0.95797 0
M  V30 1117 C 113.585 1.0909 1.69654 0
M  V30 1118 C 113.898 -0.368548 1.92097 0
M  V30 1119 O 115.104 -0.649455 2.63618 0
M  V30 1120 C 113.56 1.90395 3.05414 0
M  V30 1121 C 113.168 3.4081 2.90779 0
M  V30 1122 C 114.912 1.82901 3.83076 0
M  V30 1123 C 112.819 4.14423 4.21909 0
M  V30 1124 H 111.749 0.404625 0.636235 0
M  V30 1125 H 114.4 1.4931 1.06672 0
M  V30 1126 H 112.782 1.42996 3.69281 0
M  V30 1127 H 113.956 3.95859 2.35865 0
M  V30 1128 H 112.271 3.49361 2.26575 0
M  V30 1129 H 114.868 2.35196 4.80195 0
M  V30 1130 H 115.211 0.796224 4.08615 0
M  V30 1131 H 115.744 2.28033 3.25954 0
M  V30 1132 H 112.483 5.18102 4.01561 0
M  V30 1133 H 112.003 3.64159 4.76601 0
M  V30 1134 H 113.682 4.21956 4.90471 0
M  V30 1135 N 113.814 -1.1601 1.06675 0
M  V30 1136 C 114.724 -2.24156 0.692179 0
M  V30 1137 C 115.74 -1.71507 -0.293513 0
M  V30 1138 O 116.916 -2.009 -0.141861 0
M  V30 1139 C 113.981 -3.46587 0.0884131 0
M  V30 1140 C 113.042 -4.14257 1.12646 0
M  V30 1141 C 112.275 -5.30844 0.551416 0
M  V30 1142 O 112.498 -5.66858 -0.634656 0
M  V30 1143 O 111.432 -5.87848 1.29298 0
M  V30 1144 H 115.258 -2.58513 1.59388 0
M  V30 1145 H 112.843 -1.23599 0.83926 0
M  V30 1146 H 114.725 -4.20679 -0.246361 0
M  V30 1147 H 113.4 -3.13994 -0.786712 0
M  V30 1148 H 112.307 -3.42118 1.51348 0
M  V30 1149 H 113.64 -4.50914 1.97325 0
M  V30 1150 N 115.292 -0.849877 -1.32721 0
M  V30 1151 C 116.539 -0.450923 -1.97416 0
M  V30 1152 C 116.867 0.992376 -1.67279 0
M  V30 1153 O 116.122 1.71048 -0.950845 0
M  V30 1154 C 116.421 -0.631272 -3.51781 0
M  V30 1155 C 116.087 -2.04432 -4.01894 0
M  V30 1156 C 114.749 -2.4308 -4.1529 0
M  V30 1157 C 117.101 -2.96679 -4.28522 0
M  V30 1158 C 114.429 -3.73257 -4.52654 0
M  V30 1159 C 116.781 -4.26349 -4.67343 0
M  V30 1160 C 115.445 -4.64939 -4.78945 0
M  V30 1161 H 114.715 -0.165004 -0.722395 0
M  V30 1162 H 117.362 -1.07901 -1.58207 0
M  V30 1163 H 115.667 0.0800767 -3.91718 0
M  V30 1164 H 117.364 -0.302709 -3.99856 0
M  V30 1165 H 113.954 -1.73419 -3.91949 0
M  V30 1166 H 118.138 -2.68054 -4.17685 0
M  V30 1167 H 113.394 -4.02946 -4.59831 0
M  V30 1168 H 117.568 -4.97895 -4.86902 0
M  V30 1169 H 115.195 -5.65855 -5.07654 0
M  V30 1170 N 116.77 1.45427 -0.607355 0
M  V30 1171 C 118.186 1.57283 -0.270985 0
M  V30 1172 C 118.386 1.59875 1.22647 0
M  V30 1173 O 117.442 1.52893 2.00948 0
M  V30 1174 C 118.755 2.85566 -0.941952 0
M  V30 1175 C 120.303 2.9924 -0.917849 0
M  V30 1176 C 120.778 4.30293 -1.56882 0
M  V30 1177 N 122.269 4.37051 -1.5343 0
M  V30 1178 C 123.004 5.37123 -2.00715 0
M  V30 1179 N 122.5 6.43734 -2.56084 0
M  V30 1180 N 124.293 5.28479 -1.91484 0
M  V30 1181 H 116.444 1.41988 -1.57966 0
M  V30 1182 H 118.707 0.67885 -0.661715 0
M  V30 1183 H 118.413 2.8955 -1.99633 0
M  V30 1184 H 118.287 3.74322 -0.465096 0
M  V30 1185 H 120.674 2.94822 0.127984 0
M  V30 1186 H 120.755 2.11895 -1.43297 0
M  V30 1187 H 120.399 4.35469 -2.61398 0
M  V30 1188 H 120.329 5.16454 -1.02873 0
M  V30 1189 H 122.82 3.60615 -1.12982 0
M  V30 1190 H 123.133 7.16341 -2.89958 0
M  V30 1191 H 121.478 6.44485 -2.60122 0
M  V30 1192 H 124.669 4.44098 -1.47967 0
M  V30 1193 H 124.842 6.0632 -2.28648 0
M  V30 1194 N 118.248 0.346503 1.53744 0
M  V30 1195 C 119.525 -0.304532 1.93215 0
M  V30 1196 C 119.905 -1.67993 1.27834 0
M  V30 1197 O 119.253 -2.24411 0.430352 0
M  V30 1198 C 119.463 -0.373852 3.46992 0
M  V30 1199 C 120.811 -0.62329 4.2 0
M  V30 1200 O 121.835 -0.455847 3.53271 0
M  V30 1201 O 120.694 -0.947879 5.38217 0
M  V30 1202 H 117.788 -0.178318 0.807547 0
M  V30 1203 H 120.334 0.397895 1.64969 0
M  V30 1204 H 119.106 0.591224 3.86808 0
M  V30 1205 H 118.729 -1.12294 3.81413 0
M  V30 1206 N 119.726 -1.57421 0.075193 0
M  V30 1207 C 120.656 -2.15942 -0.888324 0
M  V30 1208 C 121.637 -1.08737 -1.30806 0
M  V30 1209 O 122.822 -1.36787 -1.37851 0
M  V30 1210 C 119.952 -2.72379 -2.1547 0
M  V30 1211 C 118.906 -3.8478 -1.87425 0
M  V30 1212 C 118.232 -4.27834 -3.20721 0
M  V30 1213 C 119.532 -5.08869 -1.17684 0
M  V30 1214 H 121.226 -2.96705 -0.400799 0
M  V30 1215 H 118.772 -1.42723 -0.191342 0
M  V30 1216 H 120.725 -3.11965 -2.83295 0
M  V30 1217 H 119.449 -1.88841 -2.6647 0
M  V30 1218 H 118.108 -3.45703 -1.22004 0
M  V30 1219 H 117.756 -3.41214 -3.6957 0
M  V30 1220 H 117.456 -5.03605 -3.02746 0
M  V30 1221 H 118.98 -4.70039 -3.89738 0
M  V30 1222 H 120.394 -5.4575 -1.75584 0
M  V30 1223 H 118.791 -5.8994 -1.09956 0
M  V30 1224 H 119.861 -4.84648 -0.156453 0
M  V30 1225 N 121.204 0.198386 -1.56346 0
M  V30 1226 C 122.429 0.939682 -1.84891 0
M  V30 1227 C 122.854 1.76202 -0.658369 0
M  V30 1228 O 122.212 1.76993 0.392851 0
M  V30 1229 C 122.26 1.81428 -3.11635 0
M  V30 1230 O 121.364 2.91265 -2.91956 0
M  V30 1231 H 120.705 0.264807 -0.608912 0
M  V30 1232 H 123.235 0.204695 -2.03573 0
M  V30 1233 H 123.245 2.21958 -3.42343 0
M  V30 1234 H 121.92 1.21004 -3.97908 0
M  V30 1235 H 120.497 2.54514 -2.72538 0
M  V30 1236 N 122.682 1.50554 0.465978 0
M  V30 1237 C 123.912 1.65323 1.23903 0
M  V30 1238 C 124.32 0.338051 1.86155 0
M  V30 1239 O 123.663 -0.690518 1.70228 0
M  V30 1240 C 123.725 2.69048 2.3844 0
M  V30 1241 C 123.389 4.12462 1.96784 0
M  V30 1242 C 124.386 4.98168 1.48745 0
M  V30 1243 C 122.071 4.58407 2.05349 0
M  V30 1244 C 124.065 6.27868 1.0982 0
M  V30 1245 C 121.752 5.88112 1.66035 0
M  V30 1246 C 122.75 6.72668 1.18349 0
M  V30 1247 O 122.438 7.99951 0.795825 0
M  V30 1248 H 122.17 0.558629 0.38067 0
M  V30 1249 H 124.724 1.97561 0.562022 0
M  V30 1250 H 122.954 2.32062 3.09328 0
M  V30 1251 H 124.643 2.72985 3.0039 0
M  V30 1252 H 125.409 4.63885 1.41546 0
M  V30 1253 H 121.288 3.92735 2.41414 0
M  V30 1254 H 124.832 6.93819 0.725293 0
M  V30 1255 H 120.729 6.21914 1.72895 0
M  V30 1256 H 121.497 8.13265 0.924222 0
M  V30 1257 N 124.16 -0.719506 1.40217 0
M  V30 1258 C 125.385 -1.51371 1.4178 0
M  V30 1259 C 125.81 -1.88091 0.0182355 0
M  V30 1260 O 125.168 -1.52997 -0.972707 0
M  V30 1261 C 125.216 -2.768 2.31115 0
M  V30 1262 O 124.32 -3.73349 1.7517 0
M  V30 1263 H 123.661 -0.456529 0.482159 0
M  V30 1264 H 126.191 -0.88644 1.844 0
M  V30 1265 H 126.201 -3.25371 2.46167 0
M  V30 1266 H 124.876 -2.49407 3.3282 0
M  V30 1267 H 123.453 -3.32179 1.69444 0
M  V30 1268 N 125.638 -1.25649 -0.95132 0
M  V30 1269 C 126.884 -1.10757 -1.69884 0
M  V30 1270 C 127.217 0.350061 -1.91019 0
M  V30 1271 O 126.492 1.25783 -1.48354 0
M  V30 1272 C 126.775 -1.86606 -3.07978 0
M  V30 1273 C 126.628 -3.40217 -2.94232 0
M  V30 1274 C 127.947 -1.65182 -4.07925 0
M  V30 1275 H 125.066 -0.40374 -0.616574 0
M  V30 1276 H 127.708 -1.54521 -1.10558 0
M  V30 1277 H 125.858 -1.49409 -3.58621 0
M  V30 1278 H 127.53 -3.87108 -2.50889 0
M  V30 1279 H 125.773 -3.67759 -2.30078 0
M  V30 1280 H 126.444 -3.88505 -3.92133 0
M  V30 1281 H 128.92 -1.9757 -3.66204 0
M  V30 1282 H 127.796 -2.20683 -5.02583 0
M  V30 1283 H 128.057 -0.593933 -4.38092 0
M  V30 1284 N 127.117 1.15442 -1.07289 0
M  V30 1285 C 128.528 1.67803 -0.818475 0
M  V30 1286 C 128.879 1.8489 0.656507 0
M  V30 1287 O 128.004 1.55176 1.50829 0
M  V30 1288 C 128.599 3.04805 -1.47917 0
M  V30 1289 C 127.158 3.54245 -1.27229 0
M  V30 1290 C 126.305 2.29986 -1.54925 0
M  V30 1291 H 129.256 0.996646 -1.23502 0
M  V30 1292 H 129.277 3.69702 -0.90005 0
M  V30 1293 H 128.789 2.92336 -2.55267 0
M  V30 1294 H 126.89 3.71956 -0.21899 0
M  V30 1295 H 127.003 4.35723 -1.99203 0
M  V30 1296 H 125.367 2.35496 -0.970242 0
M  V30 1297 H 126.15 2.20105 -2.63455 0
M  V30 1298 N 128.595 0.856903 1.32268 0
M  V30 1299 C 129.505 0.306131 2.32594 0
M  V30 1300 C 130.521 -0.577209 1.64147 0
M  V30 1301 O 131.697 -0.477043 1.95669 0
M  V30 1302 C 128.762 -0.494561 3.43154 0
M  V30 1303 C 127.823 0.415186 4.27288 0
M  V30 1304 C 127.056 -0.347387 5.32568 0
M  V30 1305 O 127.279 -1.57708 5.48165 0
M  V30 1306 O 126.213 0.287982 6.01211 0
M  V30 1307 H 130.039 1.13737 2.81598 0
M  V30 1308 H 127.624 0.619902 1.35932 0
M  V30 1309 H 129.506 -0.948944 4.10576 0
M  V30 1310 H 128.181 -1.30257 2.96336 0
M  V30 1311 H 127.088 0.917793 3.62667 0
M  V30 1312 H 128.421 1.18844 4.77637 0
M  V30 1313 N 130.073 -1.45103 0.615059 0
M  V30 1314 C 131.321 -2.01784 0.112955 0
M  V30 1315 C 131.642 -1.48504 -1.26378 0
M  V30 1316 O 130.912 -0.682245 -1.83636 0
M  V30 1317 H 129.492 -0.745993 0.0387668 0
M  V30 1318 H 132.154 -1.77808 0.798141 0
M  V30 1319 H 131.25 -3.12025 0.0684069 0
M  V30 1320 N 131.551 -0.354651 -1.53558 0
M  V30 1321 C 132.962 0.126902 -1.86268 0
M  V30 1322 C 133.313 1.49075 -1.27558 0
M  V30 1323 O 132.438 2.08105 -0.5934 0
M  V30 1324 C 133.033 0.237046 -3.3797 0
M  V30 1325 C 131.592 0.662842 -3.70518 0
M  V30 1326 C 130.739 -0.196652 -2.76602 0
M  V30 1327 H 133.69 -0.573849 -1.47962 0
M  V30 1328 H 133.711 1.06259 -3.65362 0
M  V30 1329 H 133.223 -0.755725 -3.80671 0
M  V30 1330 H 131.324 1.66424 -3.33367 0
M  V30 1331 H 131.437 0.445034 -4.77029 0
M  V30 1332 H 129.801 0.332763 -2.52517 0
M  V30 1333 H 130.584 -1.18676 -3.22135 0
M  V30 1334 N 133.029 1.57378 -0.0835403 0
M  V30 1335 C 134.275 1.95025 0.577664 0
M  V30 1336 C 134.63 0.964049 1.66505 0
M  V30 1337 O 133.923 -0.0118235 1.91596 0
M  V30 1338 C 134.117 3.37063 1.1884 0
M  V30 1339 C 133.946 4.49409 0.16171 0
M  V30 1340 C 132.716 5.04642 -0.257756 0
M  V30 1341 C 134.914 5.10722 -0.605634 0
M  V30 1342 N 132.896 6.00537 -1.27393 0
M  V30 1343 C 134.267 6.02225 -1.47395 0
M  V30 1344 C 136.322 4.93501 -0.660418 0
M  V30 1345 C 135.025 6.78355 -2.39221 0
M  V30 1346 C 137.051 5.70283 -1.56623 0
M  V30 1347 C 136.413 6.61444 -2.4222 0
M  V30 1348 H 132.512 0.760512 0.182058 0
M  V30 1349 H 135.096 1.94013 -0.163419 0
M  V30 1350 H 133.267 3.3879 1.89936 0
M  V30 1351 H 134.999 3.61917 1.81103 0
M  V30 1352 H 131.754 4.73428 0.127702 0
M  V30 1353 H 132.178 6.53184 -1.77987 0
M  V30 1354 H 136.82 4.22798 -0.0128221 0
M  V30 1355 H 134.538 7.48327 -3.05011 0
M  V30 1356 H 138.124 5.58976 -1.61361 0
M  V30 1357 H 137.004 7.1982 -3.11174 0
M  V30 1358 N 134.507 -0.190092 1.56449 0
M  V30 1359 C 135.753 -0.906472 1.82084 0
M  V30 1360 C 136.108 -1.80677 0.661335 0
M  V30 1361 O 135.401 -1.88501 -0.343237 0
M  V30 1362 C 135.595 -1.75382 3.1141 0
M  V30 1363 C 135.424 -0.937053 4.39829 0
M  V30 1364 C 134.194 -0.619507 5.01488 0
M  V30 1365 C 136.392 -0.2874 5.13496 0
M  V30 1366 N 134.374 0.215367 6.13522 0
M  V30 1367 C 135.745 0.409454 6.18646 0
M  V30 1368 C 137.8 -0.203639 4.97483 0
M  V30 1369 C 136.503 1.1821 7.0952 0
M  V30 1370 C 138.529 0.555622 5.88784 0
M  V30 1371 C 137.891 1.24091 6.93384 0
M  V30 1372 H 133.99 -0.310931 0.717528 0
M  V30 1373 H 136.574 -0.174821 1.93914 0
M  V30 1374 H 134.745 -2.45703 3.00806 0
M  V30 1375 H 136.477 -2.41006 3.25112 0
M  V30 1376 H 133.232 -0.945126 4.64074 0
M  V30 1377 H 133.656 0.622562 6.74131 0
M  V30 1378 H 138.298 -0.719099 4.1664 0
M  V30 1379 H 136.016 1.70897 7.89823 0
M  V30 1380 H 139.602 0.621854 5.78467 0
M  V30 1381 H 138.482 1.81901 7.62812 0
M  V30 1382 N 135.985 -1.50799 -0.457987 0
M  V30 1383 C 137.401 -1.38515 -0.792819 0
M  V30 1384 C 137.601 -0.451409 -1.96379 0
M  V30 1385 O 136.657 0.10112 -2.52297 0
M  V30 1386 C 137.97 -2.80149 -1.09258 0
M  V30 1387 C 139.518 -2.89156 -1.19825 0
M  V30 1388 C 139.993 -4.31651 -1.53106 0
M  V30 1389 N 141.484 -4.34662 -1.60072 0
M  V30 1390 C 142.219 -5.41928 -1.87354 0
M  V30 1391 N 141.715 -6.59384 -2.12568 0
M  V30 1392 N 143.508 -5.29385 -1.88965 0
M  V30 1393 H 135.659 -2.10073 0.313511 0
M  V30 1394 H 137.922 -0.944803 0.0777862 0
M  V30 1395 H 137.628 -3.50374 -0.305084 0
M  V30 1396 H 137.502 -3.18204 -2.02549 0
M  V30 1397 H 139.889 -2.19141 -1.97639 0
M  V30 1398 H 139.97 -2.54626 -0.244821 0
M  V30 1399 H 139.614 -5.02208 -0.758266 0
M  V30 1400 H 139.544 -4.63678 -2.49621 0
M  V30 1401 H 142.035 -3.49973 -1.42573 0
M  V30 1402 H 142.348 -7.36934 -2.32696 0
M  V30 1403 H 140.693 -6.62535 -2.09933 0
M  V30 1404 H 143.884 -4.36616 -1.68772 0
M  V30 1405 H 144.057 -6.13066 -2.09891 0
M  V30 1406 N 137.463 0.71206 -1.40597 0
M  V30 1407 C 138.41 1.82613 -1.41142 0
M  V30 1408 C 139.38 1.63925 -0.267903 0
M  V30 1409 O 140.565 1.85009 -0.466495 0
M  V30 1410 C 137.705 3.20354 -1.28324 0
M  V30 1411 C 136.818 3.50589 -2.52411 0
M  V30 1412 C 135.953 4.77855 -2.32009 0
M  V30 1413 C 134.992 5.01005 -3.51654 0
M  V30 1414 N 134.129 6.19487 -3.30425 0
M  V30 1415 H 138.969 1.81482 -2.36365 0
M  V30 1416 H 136.506 0.886475 -1.17388 0
M  V30 1417 H 138.464 3.99899 -1.18899 0
M  V30 1418 H 137.094 3.20705 -0.367189 0
M  V30 1419 H 136.146 2.65573 -2.72351 0
M  V30 1420 H 137.458 3.63604 -3.41458 0
M  V30 1421 H 136.612 5.65424 -2.19956 0
M  V30 1422 H 135.351 4.67056 -1.40392 0
M  V30 1423 H 134.356 4.1189 -3.64179 0
M  V30 1424 H 135.581 5.13674 -4.44202 0
M  V30 1425 H 133.527 6.09932 -2.41494 0
M  V30 1426 H 133.444 6.33194 -4.13039 0
M  V30 1427 H 134.712 7.09834 -3.22113 0
M  V30 1428 N 138.941 1.26152 0.944643 0
M  V30 1429 C 139.888 1.07408 2.04285 0
M  V30 1430 C 140.858 -0.0198413 1.66088 0
M  V30 1431 O 142.043 0.139264 1.90291 0
M  V30 1432 C 139.183 0.70945 3.37729 0
M  V30 1433 C 138.296 1.87926 3.88983 0
M  V30 1434 C 137.431 1.45807 5.10797 0
M  V30 1435 C 136.47 2.5964 5.54305 0
M  V30 1436 N 135.607 2.18226 6.67324 0
M  V30 1437 H 140.447 2.01389 2.1965 0
M  V30 1438 H 137.984 1.00275 1.07626 0
M  V30 1439 H 139.942 0.478948 4.14442 0
M  V30 1440 H 138.572 -0.193389 3.2222 0
M  V30 1441 H 137.624 2.22279 3.08701 0
M  V30 1442 H 138.936 2.73377 4.17213 0
M  V30 1443 H 138.09 1.18781 5.94959 0
M  V30 1444 H 136.829 0.574414 4.84305 0
M  V30 1445 H 135.834 2.87399 4.68702 0
M  V30 1446 H 137.059 3.48599 5.828 0
M  V30 1447 H 135.005 1.3229 6.42523 0
M  V30 1448 H 134.922 2.97221 6.95123 0
M  V30 1449 H 136.19 1.94403 7.54869 0
M  V30 1450 N 140.419 -1.14872 1.07899 0
M  V30 1451 C 141.667 -1.85422 0.803941 0
M  V30 1452 C 141.988 -1.83051 -0.67211 0
M  V30 1453 O 141.258 -1.27532 -1.48703 0
M  V30 1454 H 139.838 -0.686537 0.294408 0
M  V30 1455 H 142.5 -1.39226 1.3639 0
M  V30 1456 H 141.596 -2.90399 1.14346 0
M  V30 1457 N 141.898 -0.863906 -1.31812 0
M  V30 1458 C 143.128 -0.485406 -2.00817 0
M  V30 1459 C 143.536 0.925007 -1.65046 0
M  V30 1460 O 142.879 1.61653 -0.872574 0
M  V30 1461 C 142.941 -0.555589 -3.55181 0
M  V30 1462 C 142.605 -1.92654 -4.14407 0
M  V30 1463 C 143.602 -2.89324 -4.31958 0
M  V30 1464 C 141.287 -2.2262 -4.50273 0
M  V30 1465 C 143.281 -4.14108 -4.84555 0
M  V30 1466 C 140.968 -3.47654 -5.02573 0
M  V30 1467 C 141.966 -4.43214 -5.19664 0
M  V30 1468 O 141.654 -5.66033 -5.70843 0
M  V30 1469 H 141.386 -0.188224 -0.649267 0
M  V30 1470 H 143.94 -1.16514 -1.69156 0
M  V30 1471 H 142.17 0.181037 -3.86276 0
M  V30 1472 H 143.859 -0.19138 -4.05449 0
M  V30 1473 H 144.625 -2.6748 -4.04573 0
M  V30 1474 H 140.504 -1.4902 -4.3625 0
M  V30 1475 H 144.048 -4.88703 -4.9781 0
M  V30 1476 H 139.945 -3.69345 -5.29391 0
M  V30 1477 H 140.713 -5.6812 -5.89222 0
M  V30 1478 N 143.376 1.44774 -0.622745 0
M  V30 1479 C 144.323 2.30635 0.0871679 0
M  V30 1480 C 145.293 1.42994 0.845097 0
M  V30 1481 O 146.478 1.71907 0.827812 0
M  V30 1482 C 143.618 3.28144 1.06844 0
M  V30 1483 C 142.731 4.30888 0.309809 0
M  V30 1484 C 141.866 5.15494 1.28215 0
M  V30 1485 C 140.905 6.09953 0.512198 0
M  V30 1486 N 140.042 6.87287 1.43458 0
M  V30 1487 H 144.882 2.90803 -0.650974 0
M  V30 1488 H 142.419 1.43286 -0.33281 0
M  V30 1489 H 144.377 3.83157 1.65066 0
M  V30 1490 H 143.007 2.69695 1.77382 0
M  V30 1491 H 142.059 3.78414 -0.388181 0
M  V30 1492 H 143.371 4.97955 -0.290254 0
M  V30 1493 H 142.525 5.74983 1.93596 0
M  V30 1494 H 141.264 4.48481 1.91614 0
M  V30 1495 H 140.269 5.49581 -0.155151 0
M  V30 1496 H 141.494 6.78999 -0.116958 0
M  V30 1497 H 139.44 6.2295 2.05594 0
M  V30 1498 H 139.357 7.50763 0.888335 0
M  V30 1499 H 140.625 7.51306 2.07749 0
M  V30 1500 N 144.854 0.36279 1.53368 0
M  V30 1501 C 146.082 -0.228613 2.05633 0
M  V30 1502 C 146.497 -1.42676 1.23649 0
M  V30 1503 O 145.854 -1.80394 0.27647 0
M  V30 1504 C 145.905 -0.624845 3.56059 0
M  V30 1505 O 145.626 0.525675 4.34935 0
M  V30 1506 C 147.127 -1.27493 4.24571 0
M  V30 1507 H 144.347 -0.0407183 0.669763 0
M  V30 1508 H 146.891 0.520352 1.97769 0
M  V30 1509 H 145.046 -1.32373 3.64083 0
M  V30 1510 H 145.46 0.205969 5.24095 0
M  V30 1511 H 146.934 -1.50277 5.31151 0
M  V30 1512 H 147.411 -2.23439 3.78116 0
M  V30 1513 H 148.017 -0.617558 4.20792 0
M  V30 1514 N 146.332 -1.57332 0.0918853 0
M  V30 1515 C 147.262 -2.16872 -0.865371 0
M  V30 1516 C 148.243 -1.10118 -1.29646 0
M  V30 1517 O 149.428 -1.38242 -1.36392 0
M  V30 1518 C 146.558 -2.74649 -2.12569 0
M  V30 1519 C 145.512 -3.86747 -1.83333 0
M  V30 1520 C 144.838 -4.31212 -3.16166 0
M  V30 1521 C 146.138 -5.10089 -1.1228 0
M  V30 1522 H 147.832 -2.97114 -0.369307 0
M  V30 1523 H 145.378 -1.42918 -0.176194 0
M  V30 1524 H 147.331 -3.14952 -2.7997 0
M  V30 1525 H 146.055 -1.91657 -2.64452 0
M  V30 1526 H 144.714 -3.46978 -1.18331 0
M  V30 1527 H 144.362 -3.45115 -3.6593 0
M  V30 1528 H 144.062 -5.06788 -2.97388 0
M  V30 1529 H 145.586 -4.74146 -3.84731 0
M  V30 1530 H 147 -5.47582 -1.69785 0
M  V30 1531 H 145.397 -5.91073 -1.03693 0
M  V30 1532 H 146.467 -4.84786 -0.105041 0
M  V30 1533 N 147.81 0.181792 -1.56548 0
M  V30 1534 C 148.74 1.22765 -1.98623 0
M  V30 1535 C 149.721 1.46747 -0.860189 0
M  V30 1536 O 150.906 1.58259 -1.12551 0
M  V30 1537 C 148.036 2.56894 -2.33715 0
M  V30 1538 C 146.99 2.475 -3.49182 0
M  V30 1539 C 146.316 3.86023 -3.69986 0
M  V30 1540 C 147.616 1.98866 -4.82959 0
M  V30 1541 H 149.31 0.877942 -2.86239 0
M  V30 1542 H 146.856 0.42088 -1.37712 0
M  V30 1543 H 148.809 3.30253 -2.61746 0
M  V30 1544 H 147.533 2.93632 -1.42997 0
M  V30 1545 H 146.192 1.76596 -3.21262 0
M  V30 1546 H 145.84 4.20136 -2.76576 0
M  V30 1547 H 145.54 3.80609 -4.47672 0
M  V30 1548 H 147.064 4.60984 -4.00407 0
M  V30 1549 H 148.478 2.61992 -5.09934 0
M  V30 1550 H 146.875 2.04424 -5.64208 0
M  V30 1551 H 147.945 0.942465 -4.75653 0
M  V30 1552 N 149.288 1.51039 0.449983 0
M  V30 1553 C 150.235 1.71439 1.54523 0
M  V30 1554 C 151.205 0.555871 1.56522 0
M  V30 1555 O 152.39 0.788871 1.73728 0
M  V30 1556 C 149.53 1.83384 2.92343 0
M  V30 1557 C 148.643 3.10873 2.9997 0
M  V30 1558 C 147.778 3.13488 4.28834 0
M  V30 1559 C 146.817 4.35343 4.30282 0
M  V30 1560 N 145.954 4.35579 5.5065 0
M  V30 1561 H 150.794 2.64934 1.36433 0
M  V30 1562 H 148.331 1.31312 0.662982 0
M  V30 1563 H 150.289 1.88291 3.72293 0
M  V30 1564 H 148.919 0.933086 3.0902 0
M  V30 1565 H 147.971 3.15336 2.12761 0
M  V30 1566 H 149.283 4.00814 2.96901 0
M  V30 1567 H 148.437 3.17241 5.17149 0
M  V30 1568 H 147.176 2.21414 4.34543 0
M  V30 1569 H 146.181 4.3178 3.40362 0
M  V30 1570 H 147.406 5.28668 4.26248 0
M  V30 1571 H 145.352 3.46369 5.57104 0
M  V30 1572 H 145.269 5.19313 5.49409 0
M  V30 1573 H 146.537 4.43507 6.41032 0
M  V30 1574 N 150.766 -0.704594 1.40972 0
M  V30 1575 C 152.014 -1.46169 1.39568 0
M  V30 1576 C 152.335 -1.95 0.00253745 0
M  V30 1577 O 151.605 -1.71095 -0.954114 0
M  V30 1578 H 150.185 -0.542326 0.513704 0
M  V30 1579 H 152.847 -0.834553 1.76128 0
M  V30 1580 H 151.943 -2.32922 2.07735 0
M  V30 1581 N 152.244 -1.26651 -0.937939 0
M  V30 1582 C 153.493 -1.11775 -1.67897 0
M  V30 1583 C 153.806 0.33794 -1.92659 0
M  V30 1584 O 155.012 0.607434 -2.64618 0
M  V30 1585 C 153.468 -1.9523 -3.02346 0
M  V30 1586 C 153.076 -3.45393 -2.8532 0
M  V30 1587 C 154.82 -1.88972 -3.80118 0
M  V30 1588 C 152.727 -4.21083 -4.15263 0
M  V30 1589 H 151.657 -0.414696 -0.629717 0
M  V30 1590 H 154.308 -1.50988 -1.04283 0
M  V30 1591 H 152.69 -1.48853 -3.66959 0
M  V30 1592 H 153.864 -3.99561 -2.29537 0
M  V30 1593 H 152.179 -3.52921 -2.20988 0
M  V30 1594 H 154.776 -2.42805 -4.76392 0
M  V30 1595 H 155.119 -0.86113 -4.07296 0
M  V30 1596 H 155.652 -2.33189 -3.22285 0
M  V30 1597 H 152.391 -5.24425 -3.93267 0
M  V30 1598 H 151.911 -3.71695 -4.70747 0
M  V30 1599 H 153.59 -4.29706 -4.83696 0
M  V30 1600 N 153.722 1.14298 -1.08507 0
M  V30 1601 C 154.947 1.8976 -0.837001 0
M  V30 1602 C 155.372 1.78097 0.605228 0
M  V30 1603 O 154.73 1.12188 1.4242 0
M  V30 1604 C 154.778 3.37685 -1.26495 0
M  V30 1605 O 153.882 4.10281 -0.417514 0
M  V30 1606 H 153.223 0.590365 -0.303917 0
M  V30 1607 H 155.753 1.44672 -1.44676 0
M  V30 1608 H 155.763 3.88501 -1.24625 0
M  V30 1609 H 154.438 3.45492 -2.31534 0
M  V30 1610 H 153.015 3.69536 -0.499722 0
M  V30 1611 N 155.201 0.870884 1.31352 0
M  V30 1612 C 156.449 0.48132 1.96285 0
M  V30 1613 C 156.77 -0.969813 1.69173 0
M  V30 1614 O 156.04 -1.67998 1.00764 0
M  V30 1615 H 154.62 0.175002 0.726212 0
M  V30 1616 H 157.282 1.11087 1.60143 0
M  V30 1617 H 156.378 0.639825 3.05471 0
M  V30 1618 N 156.679 -1.44442 0.630414 0
M  V30 1619 C 157.626 -2.30678 -0.0749355 0
M  V30 1620 C 158.596 -1.4344 -0.837502 0
M  V30 1621 O 159.781 -1.72343 -0.818684 0
M  V30 1622 C 156.921 -3.28706 -1.05103 0
M  V30 1623 C 156.034 -4.31046 -0.286954 0
M  V30 1624 C 155.169 -5.16167 -1.2548 0
M  V30 1625 C 154.208 -6.10216 -0.479843 0
M  V30 1626 N 153.345 -6.88039 -1.39811 0
M  V30 1627 H 158.185 -2.90454 0.666386 0
M  V30 1628 H 155.722 -1.43107 0.340404 0
M  V30 1629 H 157.68 -3.84027 -1.63031 0
M  V30 1630 H 156.31 -2.70632 -1.75949 0
M  V30 1631 H 155.362 -3.78203 0.408243 0
M  V30 1632 H 156.674 -4.97794 0.316657 0
M  V30 1633 H 155.828 -5.76002 -1.90544 0
M  V30 1634 H 154.567 -4.49491 -1.89233 0
M  V30 1635 H 153.572 -5.49491 0.184295 0
M  V30 1636 H 154.797 -6.78928 0.152965 0
M  V30 1637 H 152.743 -6.24032 -2.02287 0
M  V30 1638 H 152.66 -7.51223 -0.848508 0
M  V30 1639 H 153.928 -7.52397 -2.03762 0
M  V30 1640 N 158.157 -0.370918 -1.53173 0
M  V30 1641 C 159.404 0.217102 -2.01333 0
M  V30 1642 C 159.732 1.48338 -1.25802 0
M  V30 1643 O 158.987 1.92698 -0.34146 0
M  V30 1644 C 159.286 0.549696 -3.53147 0
M  V30 1645 C 158.952 -0.622872 -4.46577 0
M  V30 1646 C 157.614 -0.944595 -4.71838 0
M  V30 1647 C 159.966 -1.40819 -5.01816 0
M  V30 1648 C 157.294 -2.05351 -5.49589 0
M  V30 1649 C 159.646 -2.50757 -5.80778 0
M  V30 1650 C 158.31 -2.83458 -6.04324 0
M  V30 1651 H 157.58 0.0794431 -0.736729 0
M  V30 1652 H 160.227 -0.504481 -1.84736 0
M  V30 1653 H 158.532 1.35237 -3.6772 0
M  V30 1654 H 160.229 1.017 -3.87889 0
M  V30 1655 H 156.819 -0.36209 -4.27068 0
M  V30 1656 H 161.003 -1.17289 -4.82242 0
M  V30 1657 H 156.259 -2.3108 -5.6605 0
M  V30 1658 H 160.433 -3.12022 -6.22588 0
M  V30 1659 H 158.06 -3.69508 -6.64355 0
M  V30 1660 N 159.635 1.57281 -0.100228 0
M  V30 1661 C 160.583 2.15542 0.874328 0
M  V30 1662 C 161.577 1.09962 1.28859 0
M  V30 1663 O 162.783 1.28298 1.26252 0
M  V30 1664 H 159.158 0.689567 0.300003 0
M  V30 1665 H 161.129 2.96241 0.35829 0
M  V30 1666 C 159.878 2.75454 2.1218 0
M  V30 1667 H 159.201 3.56384 1.81193 0
M  V30 1668 H 160.641 3.19781 2.78417 0
M  V30 1669 C 159.1 1.71602 2.89921 0
M  V30 1670 O 159.63 1.15804 3.84646 0
M  V30 1671 N 157.836 1.41975 2.53558 0
M  V30 1672 H 157.383 1.87539 1.76598 0
M  V30 1673 H 157.341 0.727274 3.05873 0
M  V30 1674 N 161.113 -0.173488 1.56642 0
M  V30 1675 C 162.338 -0.910149 1.86363 0
M  V30 1676 C 162.763 -1.75132 0.686318 0
M  V30 1677 O 162.121 -1.77595 -0.364643 0
M  V30 1678 C 162.169 -1.76447 3.14482 0
M  V30 1679 O 161.273 -2.86584 2.96553 0
M  V30 1680 H 160.614 -0.255086 0.613047 0
M  V30 1681 H 163.144 -0.172283 2.03873 0
M  V30 1682 H 163.154 -2.16483 3.45831 0
M  V30 1683 H 161.829 -1.14658 3.99783 0
M  V30 1684 H 160.406 -2.50146 2.76553 0
M  V30 1685 N 162.591 -1.51276 -0.441967 0
M  V30 1686 C 163.839 -1.63392 -1.18943 0
M  V30 1687 C 164.16 -0.350159 -1.9183 0
M  V30 1688 O 163.43 0.633784 -1.85364 0
M  V30 1689 H 162.01 -0.602164 -0.442049 0
M  V30 1690 H 164.672 -1.88186 -0.507165 0
M  V30 1691 H 163.768 -2.45934 -1.92154 0
M  V30 1692 N 164.069 0.697108 -1.41344 0
M  V30 1693 C 164.979 1.84088 -1.45427 0
M  V30 1694 C 165.995 1.70545 -0.34501 0
M  V30 1695 O 167.171 1.92488 -0.592492 0
M  V30 1696 C 164.236 3.20056 -1.33286 0
M  V30 1697 C 163.297 3.45718 -2.54514 0
M  V30 1698 C 162.53 4.75199 -2.42944 0
M  V30 1699 O 162.753 5.51579 -1.45318 0
M  V30 1700 O 161.687 5.0161 -3.32672 0
M  V30 1701 H 165.513 1.836 -2.41919 0
M  V30 1702 H 163.098 0.849966 -1.22866 0
M  V30 1703 H 164.98 4.01236 -1.28794 0
M  V30 1704 H 163.655 3.2123 -0.39909 0
M  V30 1705 H 162.562 2.64474 -2.64583 0
M  V30 1706 H 163.895 3.49356 -3.46715 0
M  V30 1707 N 165.547 1.27147 0.931209 0
M  V30 1708 C 166.477 1.12081 2.04842 0
M  V30 1709 C 167.458 0.0232364 1.70084 0
M  V30 1710 O 168.643 0.197085 1.93197 0
M  V30 1711 C 165.773 0.76354 3.38803 0
M  V30 1712 C 164.727 1.81396 3.87659 0
M  V30 1713 C 164.053 1.31075 5.18385 0
M  V30 1714 C 165.353 3.21739 4.11438 0
M  V30 1715 H 167.047 2.05537 2.17703 0
M  V30 1716 H 164.593 0.989603 1.04608 0
M  V30 1717 H 166.546 0.644982 4.16435 0
M  V30 1718 H 165.27 -0.206727 3.25945 0
M  V30 1719 H 163.929 1.92136 3.12217 0
M  V30 1720 H 163.577 0.330037 5.01916 0
M  V30 1721 H 163.277 2.013 5.52044 0
M  V30 1722 H 164.801 1.20506 5.98591 0
M  V30 1723 H 166.215 3.14019 4.79651 0
M  V30 1724 H 164.612 3.89644 4.56397 0
M  V30 1725 H 165.682 3.67054 3.16859 0
M  V30 1726 N 167.025 -1.13721 1.09112 0
M  V30 1727 C 168.271 -1.85198 0.826414 0
M  V30 1728 C 168.604 -1.83129 -0.646319 0
M  V30 1729 O 167.879 -1.2671 -1.47563 0
M  V30 1730 C 168.162 -3.33507 1.35812 0
M  V30 1731 C 168.015 -3.44108 2.89672 0
M  V30 1732 C 169.334 -4.28838 0.989256 0
M  V30 1733 H 166.453 -0.67243 0.301675 0
M  V30 1734 H 169.095 -1.33499 1.35197 0
M  V30 1735 H 167.245 -3.77666 0.911082 0
M  V30 1736 H 168.917 -3.08684 3.428 0
M  V30 1737 H 167.16 -2.85087 3.26967 0
M  V30 1738 H 167.831 -4.48388 3.21951 0
M  V30 1739 H 170.307 -3.92734 1.37475 0
M  V30 1740 H 169.183 -5.31051 1.38838 0
M  V30 1741 H 169.444 -4.4198 -0.102924 0
M  V30 1742 N 168.503 -0.877838 -1.30888 0
M  V30 1743 C 169.466 -0.344265 -2.266 0
M  V30 1744 C 170.466 0.50922 -1.52524 0
M  V30 1745 O 171.656 0.317398 -1.71284 0
M  V30 1746 C 168.788 0.510198 -3.37061 0
M  V30 1747 H 169.981 -1.1893 -2.7531 0
M  V30 1748 H 167.534 -0.654088 -1.41956 0
M  V30 1749 H 168.269 1.37612 -2.93655 0
M  V30 1750 H 168.054 -0.101047 -3.9197 0
M  V30 1751 H 169.544 0.875537 -4.08319 0
M  V30 1752 N 169.982 1.44106 -0.638065 0
M  V30 1753 C 171.231 2.01194 -0.142744 0
M  V30 1754 C 171.544 1.50835 1.24532 0
M  V30 1755 O 172.75 2.00096 1.83504 0
M  V30 1756 C 171.206 3.59319 -0.20442 0
M  V30 1757 C 170.814 4.18674 -1.59423 0
M  V30 1758 C 172.558 4.23854 0.234079 0
M  V30 1759 C 170.465 5.69045 -1.61065 0
M  V30 1760 H 169.395 0.752367 -0.0495998 0
M  V30 1761 H 172.046 1.65246 -0.797881 0
M  V30 1762 H 170.428 3.92598 0.517946 0
M  V30 1763 H 171.602 3.96921 -2.34074 0
M  V30 1764 H 169.917 3.66453 -1.97741 0
M  V30 1765 H 172.514 5.34155 0.241443 0
M  V30 1766 H 172.857 3.96688 1.2627 0
M  V30 1767 H 173.39 3.95403 -0.436025 0
M  V30 1768 H 170.129 6.00956 -2.61787 0
M  V30 1769 H 169.649 5.929 -0.90718 0
M  V30 1770 H 171.328 6.32809 -1.34766 0
M  V30 1771 N 171.46 0.379036 1.52974 0
M  V30 1772 C 172.393 -0.504932 2.22544 0
M  V30 1773 C 173.371 -1.0723 1.22231 0
M  V30 1774 O 174.555 -1.12589 1.51182 0
M  V30 1775 C 171.682 -1.69794 2.93066 0
M  V30 1776 C 170.728 -1.25678 4.07563 0
M  V30 1777 S 171.561 -0.246852 5.34931 0
M  V30 1778 C 172.717 -1.44588 6.08971 0
M  V30 1779 H 172.95 0.0858666 2.97176 0
M  V30 1780 H 170.483 0.163183 1.53535 0
M  V30 1781 H 172.441 -2.38219 3.34308 0
M  V30 1782 H 171.102 -2.26002 2.18133 0
M  V30 1783 H 170.295 -2.14725 4.5597 0
M  V30 1784 H 169.897 -0.651584 3.6828 0
M  V30 1785 H 172.189 -2.37469 6.34519 0
M  V30 1786 H 173.132 -1.00292 7.00962 0
M  V30 1787 H 173.54 -1.65804 5.39601 0
M  V30 1788 N 172.938 -1.57226 0.108567 0
M  V30 1789 C 174.186 -1.94448 -0.550853 0
M  V30 1790 C 174.507 -0.992074 -1.67878 0
M  V30 1791 O 173.777 -0.0465 -1.95845 0
M  V30 1792 H 172.357 -0.717897 -0.206479 0
M  V30 1793 H 175.019 -1.94112 0.175062 0
M  V30 1794 H 174.115 -2.97218 -0.952259 0
M  V30 1795 N 174.416 0.165178 -1.56732 0
M  V30 1796 C 175.827 0.727046 -1.71962 0
M  V30 1797 C 176.178 1.82508 -0.720078 0
M  V30 1798 O 175.303 2.16082 0.117242 0
M  V30 1799 C 175.898 1.32559 -3.11791 0
M  V30 1800 C 174.457 1.83422 -3.28684 0
M  V30 1801 C 173.604 0.715567 -2.67908 0
M  V30 1802 H 176.555 -0.0602896 -1.58585 0
M  V30 1803 H 176.576 2.19533 -3.10782 0
M  V30 1804 H 176.088 0.526195 -3.84516 0
M  V30 1805 H 174.189 2.65986 -2.60926 0
M  V30 1806 H 174.302 1.97543 -4.36478 0
M  V30 1807 H 172.666 1.13758 -2.27884 0
M  V30 1808 H 173.449 -0.0720836 -3.43224 0
M  V30 1809 N 175.894 1.51508 0.433938 0
M  V30 1810 C 177.119 1.68443 1.21003 0
M  V30 1811 C 177.544 0.382636 1.84167 0
M  V30 1812 O 176.902 -0.65755 1.68956 0
M  V30 1813 C 176.95 2.80405 2.26727 0
M  V30 1814 O 176.054 2.44245 3.32292 0
M  V30 1815 H 175.395 0.561536 0.354363 0
M  V30 1816 H 177.925 1.9809 0.512024 0
M  V30 1817 H 177.935 3.0459 2.71457 0
M  V30 1818 H 176.61 3.74867 1.80132 0
M  V30 1819 H 175.187 2.30644 2.93015 0
M  V30 1820 N 177.372 -0.689602 1.41712 0
M  V30 1821 C 178.62 -1.4468 1.4111 0
M  V30 1822 C 178.941 -1.94986 0.0232196 0
M  V30 1823 O 178.211 -1.72097 -0.935913 0
M  V30 1824 H 176.791 -0.536847 0.519427 0
M  V30 1825 H 179.453 -0.815825 1.77004 0
M  V30 1826 H 178.549 -2.30706 2.10193 0
M  V30 1827 N 178.85 -1.27639 -0.924453 0
M  V30 1828 C 179.813 -1.10681 -2.00705 0
M  V30 1829 C 180.813 -0.0497823 -1.60723 0
M  V30 1830 O 182.003 -0.294654 -1.7169 0
M  V30 1831 C 179.135 -0.687164 -3.33902 0
M  V30 1832 H 180.328 -2.06817 -2.17179 0
M  V30 1833 H 177.881 -1.10473 -1.10569 0
M  V30 1834 H 178.616 0.275439 -3.23128 0
M  V30 1835 H 178.401 -1.45061 -3.6428 0
M  V30 1836 H 179.891 -0.590853 -4.13399 0
M  V30 1837 N 180.328 1.1314 -1.09713 0
M  V30 1838 C 181.576 1.84119 -0.833338 0
M  V30 1839 C 181.897 1.84097 0.642904 0
M  V30 1840 O 181.167 1.29881 1.46655 0
M  V30 1841 H 179.747 0.681766 -0.305293 0
M  V30 1842 H 182.409 1.37038 -1.38588 0
M  V30 1843 H 181.505 2.88543 -1.18951 0
M  V30 1844 N 181.806 0.884767 1.30421 0
M  V30 1845 C 182.753 0.349642 2.28136 0
M  V30 1846 C 183.723 -0.560061 1.56373 0
M  V30 1847 O 184.908 -0.488524 1.8444 0
M  V30 1848 C 182.048 -0.42999 3.42411 0
M  V30 1849 C 181.161 0.508907 4.28992 0
M  V30 1850 C 180.296 -0.286301 5.30428 0
M  V30 1851 C 179.335 0.648079 6.08659 0
M  V30 1852 N 178.472 -0.111792 7.02011 0
M  V30 1853 H 183.312 1.18807 2.73293 0
M  V30 1854 H 180.849 0.597231 1.3443 0
M  V30 1855 H 182.807 -0.897923 4.07423 0
M  V30 1856 H 181.437 -1.23299 2.98324 0
M  V30 1857 H 180.489 1.09533 3.64289 0
M  V30 1858 H 181.801 1.22475 4.8353 0
M  V30 1859 H 180.955 -0.816098 6.01186 0
M  V30 1860 H 179.694 -1.03536 4.76583 0
M  V30 1861 H 178.699 1.18951 5.36778 0
M  V30 1862 H 179.924 1.39623 6.64592 0
M  V30 1863 H 177.87 -0.843395 6.50556 0
M  V30 1864 H 177.787 0.544429 7.54037 0
M  V30 1865 H 179.055 -0.622339 7.77012 0
M  V30 1866 N 183.284 -1.43765 0.645699 0
M  V30 1867 C 184.509 -2.06767 0.161883 0
M  V30 1868 C 184.934 -1.48034 -1.16049 0
M  V30 1869 O 184.292 -0.587369 -1.71522 0
M  V30 1870 C 184.34 -3.60519 0.0762003 0
M  V30 1871 O 183.444 -4.00982 -0.963721 0
M  V30 1872 H 182.785 -0.657675 0.091429 0
M  V30 1873 H 185.315 -1.84397 0.886499 0
M  V30 1874 H 185.325 -4.07853 -0.109604 0
M  V30 1875 H 184 -4.02646 1.04157 0
M  V30 1876 H 182.577 -3.65253 -0.751312 0
M  V30 1877 N 184.763 -0.387143 -1.52771 0
M  V30 1878 C 185.991 0.195869 -2.05971 0
M  V30 1879 C 186.406 1.40691 -1.25903 0
M  V30 1880 O 185.763 1.79931 -0.305134 0
M  V30 1881 C 185.814 0.56812 -3.57008 0
M  V30 1882 O 185.535 -0.594803 -4.34043 0
M  V30 1883 C 187.036 1.20723 -4.26545 0
M  V30 1884 H 184.256 0.0300578 -0.670326 0
M  V30 1885 H 186.8 -0.551749 -1.96916 0
M  V30 1886 H 184.955 1.26564 -3.66143 0
M  V30 1887 H 185.369 -0.289322 -5.23701 0
M  V30 1888 H 186.843 1.41807 -5.33474 0
M  V30 1889 H 187.32 2.17395 -3.81623 0
M  V30 1890 H 187.926 0.550535 -4.21722 0
M  V30 1891 N 186.241 1.57166 -0.116904 0
M  V30 1892 C 187.171 2.18222 0.830759 0
M  V30 1893 C 188.152 1.12167 1.27877 0
M  V30 1894 O 189.337 1.40394 1.34176 0
M  V30 1895 C 186.467 2.77996 2.08172 0
M  V30 1896 C 185.421 3.89614 1.77157 0
M  V30 1897 C 184.747 4.36187 3.09265 0
M  V30 1898 C 186.047 5.1181 1.04151 0
M  V30 1899 H 187.741 2.97664 0.321992 0
M  V30 1900 H 185.287 1.4318 0.153434 0
M  V30 1901 H 187.24 3.19366 2.74924 0
M  V30 1902 H 185.964 1.9584 2.6137 0
M  V30 1903 H 184.623 3.48816 1.12796 0
M  V30 1904 H 184.271 3.50893 3.60393 0
M  V30 1905 H 183.971 5.11455 2.89288 0
M  V30 1906 H 185.495 4.80207 3.77139 0
M  V30 1907 H 186.909 5.50214 1.61052 0
M  V30 1908 H 185.306 5.92648 0.942762 0
M  V30 1909 H 186.376 4.84892 0.0279022 0
M  V30 1910 N 187.719 -0.156864 1.56817 0
M  V30 1911 C 188.652 -1.22316 1.9265 0
M  V30 1912 C 189.63 -1.42059 0.791076 0
M  V30 1913 O 190.814 -1.56831 1.04576 0
M  V30 1914 C 187.941 -2.58375 2.18998 0
M  V30 1915 C 186.987 -2.55284 3.41661 0
M  V30 1916 S 187.82 -2.02946 4.95553 0
M  V30 1917 C 188.976 -3.40753 5.25013 0
M  V30 1918 H 189.209 -0.917403 2.82791 0
M  V30 1919 H 186.742 -0.362059 1.50095 0
M  V30 1920 H 188.7 -3.36677 2.34859 0
M  V30 1921 H 187.361 -2.86145 1.29538 0
M  V30 1922 H 186.554 -3.55418 3.57343 0
M  V30 1923 H 186.156 -1.85086 3.24991 0
M  V30 1924 H 188.448 -4.36819 5.17876 0
M  V30 1925 H 189.391 -3.29933 6.26538 0
M  V30 1926 H 189.799 -3.37433 4.52548 0
M  V30 1927 N 189.197 -1.51736 -0.425897 0
M  V30 1928 C 190.145 -1.74464 -1.53834 0
M  V30 1929 C 191.139 -0.611241 -1.57988 0
M  V30 1930 O 192.345 -0.792899 -1.61596 0
M  V30 1931 H 188.72 -0.551437 -0.511293 0
M  V30 1932 H 190.691 -2.67694 -1.31843 0
M  V30 1933 C 189.44 -1.8972 -2.91379 0
M  V30 1934 H 188.763 -2.76344 -2.88919 0
M  V30 1935 H 190.203 -2.09629 -3.68553 0
M  V30 1936 C 188.662 -0.65992 -3.30374 0
M  V30 1937 O 189.192 0.180083 -4.01296 0
M  V30 1938 N 187.398 -0.500677 -2.86254 0
M  V30 1939 H 186.945 -1.18532 -2.28709 0
M  V30 1940 H 186.903 0.325903 -3.12706 0
M  V30 1941 N 190.675 0.682077 -1.42076 0
M  V30 1942 C 191.924 1.43786 -1.41451 0
M  V30 1943 C 192.237 1.95574 -0.0317074 0
M  V30 1944 O 193.443 2.71326 0.0971462 0
M  V30 1945 C 191.899 2.60071 -2.48779 0
M  V30 1946 C 191.507 2.15013 -3.93031 0
M  V30 1947 C 193.251 3.37626 -2.57311 0
M  V30 1948 C 191.158 3.28336 -4.91883 0
M  V30 1949 H 190.088 0.540143 -0.526082 0
M  V30 1950 H 192.739 0.739157 -1.67955 0
M  V30 1951 H 191.121 3.32275 -2.15429 0
M  V30 1952 H 192.295 1.5001 -4.35699 0
M  V30 1953 H 190.61 1.50416 -3.88284 0
M  V30 1954 H 193.207 4.22012 -3.28345 0
M  V30 1955 H 193.55 3.83727 -1.61429 0
M  V30 1956 H 194.083 2.72488 -2.89819 0
M  V30 1957 H 190.822 2.87234 -5.89217 0
M  V30 1958 H 190.342 3.92145 -4.53853 0
M  V30 1959 H 192.021 3.93913 -5.13265 0
M  V30 1960 N 192.153 1.28127 0.917671 0
M  V30 1961 C 193.083 1.14248 2.03641 0
M  V30 1962 C 194.064 0.0412748 1.7005 0
M  V30 1963 O 195.249 0.217566 1.92977 0
M  V30 1964 C 192.379 0.799431 3.37974 0
M  V30 1965 C 191.333 1.85497 3.85713 0
M  V30 1966 C 190.659 1.36565 5.16966 0
M  V30 1967 C 191.959 3.26085 4.08002 0
M  V30 1968 H 193.653 2.07835 2.15511 0
M  V30 1969 H 191.199 1.00064 1.03553 0
M  V30 1970 H 193.152 0.689114 4.15727 0
M  V30 1971 H 191.876 -0.172145 3.26146 0
M  V30 1972 H 190.535 1.95437 3.10161 0
M  V30 1973 H 190.183 0.383253 5.01538 0
M  V30 1974 H 189.883 2.07143 5.49878 0
M  V30 1975 H 191.407 1.26848 5.97279 0
M  V30 1976 H 192.821 3.19089 4.76293 0
M  V30 1977 H 191.218 3.94462 4.52238 0
M  V30 1978 H 192.288 3.70394 3.12948 0
M  V30 1979 N 193.631 -1.12557 1.10312 0
M  V30 1980 C 194.594 -2.16434 0.75424 0
M  V30 1981 C 195.594 -1.59278 -0.220685 0
M  V30 1982 O 196.784 -1.742 0.00230591 0
M  V30 1983 C 193.916 -3.40699 0.116987 0
M  V30 1984 H 195.109 -2.48811 1.67431 0
M  V30 1985 H 192.662 -1.27542 0.903475 0
M  V30 1986 H 193.397 -3.13921 -0.813877 0
M  V30 1987 H 193.182 -3.83459 0.818613 0
M  V30 1988 H 194.672 -4.17451 -0.111387 0
M  V30 1989 N 195.109 -0.891671 -1.2995 0
M  V30 1990 C 196.357 -0.512486 -1.95494 0
M  V30 1991 C 196.678 0.942776 -1.70695 0
M  V30 1992 O 195.948 1.66374 -1.03424 0
M  V30 1993 H 194.528 -0.186533 -0.723336 0
M  V30 1994 H 197.19 -1.13621 -1.58355 0
M  V30 1995 H 196.286 -0.688342 -3.04415 0
M  V30 1996 N 196.587 1.43421 -0.653314 0
M  V30 1997 C 197.817 2.05864 -0.174238 0
M  V30 1998 C 198.225 1.49052 1.16534 0
M  V30 1999 O 197.568 0.616481 1.73047 0
M  V30 2000 C 197.63 3.59499 -0.00875873 0
M  V30 2001 C 197.294 4.38893 -1.27364 0
M  V30 2002 C 198.291 4.70947 -2.20239 0
M  V30 2003 C 195.976 4.789 -1.51525 0
M  V30 2004 C 197.97 5.41916 -3.35568 0
M  V30 2005 C 195.657 5.49614 -2.67147 0
M  V30 2006 C 196.655 5.81044 -3.58994 0
M  V30 2007 O 196.343 6.50313 -4.72597 0
M  V30 2008 H 196.075 0.670345 -0.0872549 0
M  V30 2009 H 198.629 1.84913 -0.894226 0
M  V30 2010 H 196.859 3.79025 0.7666 0
M  V30 2011 H 198.548 4.0364 0.427687 0
M  V30 2012 H 199.314 4.40558 -2.02815 0
M  V30 2013 H 195.193 4.53843 -0.809158 0
M  V30 2014 H 198.737 5.66365 -4.07279 0
M  V30 2015 H 194.634 5.79419 -2.84505 0
M  V30 2016 H 195.402 6.68795 -4.71864 0
M  V30 2017 N 198.065 0.39524 1.52563 0
M  V30 2018 C 199.481 0.0454682 1.59535 0
M  V30 2019 C 199.681 -1.44056 1.4089 0
M  V30 2020 O 198.737 -2.20579 1.22888 0
M  V30 2021 C 200.05 0.527963 2.96029 0
M  V30 2022 C 201.598 0.484733 3.09224 0
M  V30 2023 C 202.073 0.943512 4.48176 0
M  V30 2024 N 203.564 0.899765 4.54377 0
M  V30 2025 C 204.299 1.22609 5.60138 0
M  V30 2026 N 203.795 1.62319 6.73516 0
M  V30 2027 N 205.588 1.14696 5.50274 0
M  V30 2028 H 197.739 1.36261 1.62931 0
M  V30 2029 H 200.002 0.558887 0.765735 0
M  V30 2030 H 199.708 1.56607 3.14908 0
M  V30 2031 H 199.582 -0.0698056 3.77135 0
M  V30 2032 H 201.969 -0.544298 2.90037 0
M  V30 2033 H 202.05 1.11838 2.30056 0
M  V30 2034 H 201.694 1.9708 4.68104 0
M  V30 2035 H 201.624 0.286817 5.25818 0
M  V30 2036 H 204.115 0.607632 3.72983 0
M  V30 2037 H 204.428 1.85567 7.5019 0
M  V30 2038 H 202.773 1.66211 6.74833 0
M  V30 2039 H 205.964 0.835701 4.6058 0
M  V30 2040 H 206.137 1.40459 6.32594 0
M  V30 2041 N 199.544 -1.57102 0.125237 0
M  V30 2042 C 200.454 -2.19191 -0.8362 0
M  V30 2043 C 201.47 -1.16985 -1.28805 0
M  V30 2044 O 202.646 -1.49479 -1.34974 0
M  V30 2045 C 199.711 -2.78407 -2.06617 0
M  V30 2046 C 198.772 -3.9567 -1.66565 0
M  V30 2047 C 198.005 -4.52052 -2.83698 0
M  V30 2048 O 198.228 -4.07326 -3.99302 0
M  V30 2049 O 197.162 -5.42645 -2.60423 0
M  V30 2050 H 200.988 -3.01816 -0.337776 0
M  V30 2051 H 198.573 -1.4906 -0.100695 0
M  V30 2052 H 200.455 -3.16129 -2.7864 0
M  V30 2053 H 199.13 -1.9881 -2.55453 0
M  V30 2054 H 198.037 -3.62705 -0.916296 0
M  V30 2055 H 199.37 -4.76722 -1.22464 0
M  V30 2056 N 201.022 0.148545 -1.56898 0
M  V30 2057 C 202.25 0.876389 -1.87422 0
M  V30 2058 C 202.665 1.74809 -0.713256 0
M  V30 2059 O 202.022 1.79725 0.317025 0
M  V30 2060 C 202.073 1.73438 -3.17178 0
M  V30 2061 O 201.794 0.897809 -4.28802 0
M  V30 2062 C 203.295 2.56993 -3.61205 0
M  V30 2063 H 200.515 0.253489 -0.621277 0
M  V30 2064 H 203.059 0.141798 -2.04008 0
M  V30 2065 H 201.214 2.42205 -3.0235 0
M  V30 2066 H 201.628 1.48672 -5.02988 0
M  V30 2067 H 203.102 3.12773 -4.54838 0
M  V30 2068 H 203.579 3.32958 -2.86419 0
M  V30 2069 H 204.185 1.9352 -3.78722 0
M  V30 2070 N 202.5 1.5196 0.417844 0
M  V30 2071 C 203.748 1.65263 1.16329 0
M  V30 2072 C 204.069 0.380634 1.91249 0
M  V30 2073 O 203.339 -0.604214 1.86349 0
M  V30 2074 H 201.919 0.60912 0.432414 0
M  V30 2075 H 204.581 1.88969 0.477162 0
M  V30 2076 H 203.677 2.4896 1.88217 0
M  V30 2077 N 203.978 -0.674533 1.42435 0
M  V30 2078 C 204.911 -1.79924 1.40366 0
M  V30 2079 C 205.889 -1.60378 0.267899 0
M  V30 2080 O 207.073 -1.82847 0.458159 0
M  V30 2081 C 204.2 -3.16927 1.19478 0
M  V30 2082 C 203.246 -3.55221 2.36051 0
M  V30 2083 S 204.079 -3.5762 3.98583 0
M  V30 2084 C 205.235 -4.97315 3.80038 0
M  V30 2085 H 205.468 -1.81405 2.35541 0
M  V30 2086 H 203.001 -0.845221 1.29211 0
M  V30 2087 H 204.959 -3.96007 1.08114 0
M  V30 2088 H 203.62 -3.13031 0.258883 0
M  V30 2089 H 202.813 -4.54804 2.17185 0
M  V30 2090 H 202.415 -2.83502 2.43932 0
M  V30 2091 H 204.707 -5.85401 3.41045 0
M  V30 2092 H 205.65 -5.21228 4.79298 0
M  V30 2093 H 206.058 -4.69845 3.12899 0
M  V30 2094 N 205.456 -1.28612 -0.910864 0
M  V30 2095 C 206.403 -1.12786 -2.01365 0
M  V30 2096 C 207.373 -0.024201 -1.66082 0
M  V30 2097 O 208.558 -0.189667 -1.89855 0
M  V30 2098 C 205.698 -0.798743 -3.35729 0
M  V30 2099 C 204.811 -1.98173 -3.83864 0
M  V30 2100 C 203.946 -1.59298 -5.06752 0
M  V30 2101 C 202.985 -2.74245 -5.47226 0
M  V30 2102 N 202.122 -2.35842 -6.61304 0
M  V30 2103 H 206.962 -2.07142 -2.14234 0
M  V30 2104 H 204.499 -1.03093 -1.0493 0
M  V30 2105 H 206.457 -0.588662 -4.13026 0
M  V30 2106 H 205.087 0.10789 -3.2262 0
M  V30 2107 H 204.139 -2.30386 -3.02699 0
M  V30 2108 H 205.451 -2.84343 -4.09818 0
M  V30 2109 H 204.605 -1.34513 -5.916 0
M  V30 2110 H 203.344 -0.702618 -4.82612 0
M  V30 2111 H 202.349 -2.99725 -4.60918 0
M  V30 2112 H 203.574 -3.63928 -5.73353 0
M  V30 2113 H 201.52 -1.49279 -6.38789 0
M  V30 2114 H 201.437 -3.15546 -6.86998 0
M  V30 2115 H 202.705 -2.14348 -7.4945 0
M  V30 2116 N 206.934 1.1197 -1.10907 0
M  V30 2117 C 208.182 1.83225 -0.852819 0
M  V30 2118 C 208.503 1.84769 0.623341 0
M  V30 2119 O 207.773 1.3143 1.45269 0
M  V30 2120 H 206.353 0.67849 -0.312507 0
M  V30 2121 H 209.015 1.3556 -1.40033 0
M  V30 2122 H 208.111 2.87265 -1.22005 0
M  V30 2123 N 208.412 0.89855 1.29475 0
M  V30 2124 C 209.375 0.380272 2.26023 0
M  V30 2125 C 210.375 -0.484891 1.53315 0
M  V30 2126 O 211.565 -0.290108 1.71767 0
M  V30 2127 C 208.697 -0.45651 3.3783 0
M  V30 2128 H 209.89 1.23295 2.73383 0
M  V30 2129 H 207.443 0.676589 1.40897 0
M  V30 2130 H 208.178 -1.32922 2.95808 0
M  V30 2131 H 207.963 0.163393 3.91759 0
M  V30 2132 H 209.453 -0.810466 4.0966 0
M  V30 2133 N 209.89 -1.43072 0.660911 0
M  V30 2134 C 211.136 -2.0202 0.177708 0
M  V30 2135 C 211.469 -1.52066 -1.20787 0
M  V30 2136 O 210.744 -0.716987 -1.80802 0
M  V30 2137 C 211.027 -3.59561 0.197019 0
M  V30 2138 C 210.88 -4.19727 1.61706 0
M  V30 2139 C 212.199 -4.37664 -0.462396 0
M  V30 2140 H 209.318 -0.734034 0.0660494 0
M  V30 2141 H 211.96 -1.70272 0.843058 0
M  V30 2142 H 210.11 -3.86739 -0.369527 0
M  V30 2143 H 211.782 -4.03553 2.23479 0
M  V30 2144 H 210.025 -3.76084 2.16201 0
M  V30 2145 H 210.696 -5.28834 1.58237 0
M  V30 2146 H 213.172 -4.16095 0.0197215 0
M  V30 2147 H 212.048 -5.47305 -0.418188 0
M  V30 2148 H 212.309 -4.14493 -1.53778 0
M  V30 2149 N 211.368 -0.403325 -1.52352 0
M  V30 2150 C 212.298 0.416205 -2.29761 0
M  V30 2151 C 213.279 1.05123 -1.33728 0
M  V30 2152 O 214.464 1.06134 -1.62632 0
M  V30 2153 C 211.594 1.53624 -3.11475 0
M  V30 2154 C 210.548 1.02653 -4.15507 0
M  V30 2155 C 209.874 2.23971 -4.85532 0
M  V30 2156 C 211.174 0.08463 -5.22231 0
M  V30 2157 H 212.868 -0.229701 -2.98518 0
M  V30 2158 H 210.414 -0.111913 -1.43564 0
M  V30 2159 H 212.367 2.1165 -3.64393 0
M  V30 2160 H 211.091 2.20994 -2.40477 0
M  V30 2161 H 209.75 0.46871 -3.63591 0
M  V30 2162 H 209.398 2.89883 -4.11068 0
M  V30 2163 H 209.098 1.90521 -5.55856 0
M  V30 2164 H 210.622 2.82614 -5.41259 0
M  V30 2165 H 212.036 0.573509 -5.70424 0
M  V30 2166 H 210.433 -0.160783 -5.99885 0
M  V30 2167 H 211.503 -0.86237 -4.7717 0
M  V30 2168 N 212.846 1.57033 -0.133567 0
M  V30 2169 C 214.095 1.94861 0.520768 0
M  V30 2170 C 214.408 1.02012 1.66892 0
M  V30 2171 O 215.614 1.29365 2.38699 0
M  V30 2172 C 214.07 3.46362 0.977809 0
M  V30 2173 C 213.678 4.47773 -0.142674 0
M  V30 2174 C 215.422 3.93083 1.60269 0
M  V30 2175 C 213.329 5.90468 0.331883 0
M  V30 2176 H 212.259 0.727453 0.198315 0
M  V30 2177 H 214.91 1.82227 -0.215759 0
M  V30 2178 H 213.292 3.54282 1.7692 0
M  V30 2179 H 214.466 4.51536 -0.919317 0
M  V30 2180 H 212.781 4.10891 -0.675124 0
M  V30 2181 H 215.378 4.97121 1.96914 0
M  V30 2182 H 215.721 3.33876 2.48662 0
M  V30 2183 H 216.254 3.88025 0.876453 0
M  V30 2184 H 212.993 6.53463 -0.516341 0
M  V30 2185 H 212.513 5.90094 1.07469 0
M  V30 2186 H 214.192 6.42179 0.788332 0
M  V30 2187 N 214.325 -0.140222 1.56975 0
M  V30 2188 C 215.273 -1.19207 1.99731 0
M  V30 2189 C 216.267 -1.44089 0.890777 0
M  V30 2190 O 217.473 -1.44301 1.07597 0
M  V30 2191 H 213.848 -0.40142 0.635898 0
M  V30 2192 H 215.819 -0.804813 2.87342 0
M  V30 2193 C 214.568 -2.51617 2.39967 0
M  V30 2194 H 213.891 -2.33303 3.24669 0
M  V30 2195 H 215.331 -3.23827 2.73701 0
M  V30 2196 C 213.79 -3.12654 1.25496 0
M  V30 2197 O 214.32 -3.97786 0.559371 0
M  V30 2198 N 212.526 -2.72206 1.01746 0
M  V30 2199 H 212.073 -2.03074 1.58489 0
M  V30 2200 H 212.031 -3.13377 0.253461 0
M  V30 2201 N 215.803 -1.52179 -0.40978 0
M  V30 2202 C 217.051 -1.65878 -1.15451 0
M  V30 2203 C 217.372 -0.390771 -1.91044 0
M  V30 2204 O 216.642 0.594323 -1.86667 0
M  V30 2205 H 215.222 -0.611405 -0.429177 0
M  V30 2206 H 217.884 -1.89219 -0.467134 0
M  V30 2207 H 216.98 -2.49954 -1.86894 0
M  V30 2208 N 217.281 0.66697 -1.42791 0
M  V30 2209 C 218.211 1.79218 -1.49677 0
M  V30 2210 C 219.192 1.66405 -0.352623 0
M  V30 2211 O 220.377 1.85708 -0.567993 0
M  V30 2212 C 217.507 3.17565 -1.40605 0
M  V30 2213 C 216.461 3.45124 -2.53127 0
M  V30 2214 C 215.787 4.83127 -2.29112 0
M  V30 2215 C 217.087 3.41236 -3.95418 0
M  V30 2216 H 218.781 1.73713 -2.43853 0
M  V30 2217 H 216.327 0.83432 -1.17367 0
M  V30 2218 H 218.28 3.96022 -1.44029 0
M  V30 2219 H 217.004 3.23767 -0.429271 0
M  V30 2220 H 215.663 2.69031 -2.49034 0
M  V30 2221 H 215.311 4.85988 -1.29709 0
M  V30 2222 H 215.011 5.02528 -3.04531 0
M  V30 2223 H 216.535 5.63859 -2.34297 0
M  V30 2224 H 217.949 4.09651 -4.01073 0
M  V30 2225 H 216.346 3.72173 -4.70752 0
M  V30 2226 H 217.416 2.39665 -4.21532 0
M  V30 2227 N 218.759 1.29093 0.90403 0
M  V30 2228 C 220.17 1.15186 1.46932 0
M  V30 2229 C 220.521 -0.254587 1.94541 0
M  V30 2230 O 219.646 -1.14972 1.83332 0
M  V30 2231 C 220.241 2.08492 2.67051 0
M  V30 2232 C 218.8 1.98621 3.19729 0
M  V30 2233 C 217.947 1.9967 1.92425 0
M  V30 2234 H 220.898 1.41641 0.715789 0
M  V30 2235 H 220.919 1.65461 3.42641 0
M  V30 2236 H 220.431 3.10847 2.3237 0
M  V30 2237 H 218.532 0.993389 3.59114 0
M  V30 2238 H 218.645 2.86068 3.8432 0
M  V30 2239 H 217.009 1.44208 2.09943 0
M  V30 2240 H 217.792 3.03721 1.60026 0
M  V30 2241 N 220.237 -1.11381 1.11499 0
M  V30 2242 C 221.653 -1.35143 0.849031 0
M  V30 2243 C 221.853 -1.94515 -0.525938 0
M  V30 2244 O 220.909 -2.1785 -1.27662 0
M  V30 2245 C 222.222 -2.28249 1.95762 0
M  V30 2246 C 223.77 -2.41812 1.98736 0
M  V30 2247 C 224.245 -3.3824 3.088 0
M  V30 2248 N 225.736 -3.45803 3.08179 0
M  V30 2249 C 226.471 -4.20358 3.89982 0
M  V30 2250 N 225.967 -4.97884 4.8175 0
M  V30 2251 N 227.76 -4.15877 3.78157 0
M  V30 2252 H 219.911 -0.712062 2.00109 0
M  V30 2253 H 222.174 -0.376025 0.870235 0
M  V30 2254 H 221.88 -1.91817 2.94787 0
M  V30 2255 H 221.754 -3.28473 1.85433 0
M  V30 2256 H 224.141 -2.77518 1.00338 0
M  V30 2257 H 224.222 -1.41437 2.13141 0
M  V30 2258 H 223.866 -3.03261 4.07425 0
M  V30 2259 H 223.796 -4.38471 2.91635 0
M  V30 2260 H 226.287 -2.90506 2.41691 0
M  V30 2261 H 226.6 -5.52142 5.40702 0
M  V30 2262 H 224.945 -4.97043 4.85771 0
M  V30 2263 H 228.136 -3.544 3.05808 0
M  V30 2264 H 228.309 -4.73723 4.42143 0
M  V30 2265 N 221.715 -0.905404 -1.28997 0
M  V30 2266 C 222.992 -0.453513 -1.9027 0
M  V30 2267 C 223.372 1.06721 -1.82137 0
M  V30 2268 O 222.72 1.91159 -1.25182 0
M  V30 2269 C 222.93 -0.974494 -3.35119 0
M  V30 2270 C 224.278 -1.0216 -4.12127 0
M  V30 2271 O 225.302 -0.922557 -3.44046 0
M  V30 2272 O 224.161 -1.17121 -5.33802 0
M  V30 2273 H 221.255 -0.142347 -0.814657 0
M  V30 2274 H 223.801 -0.995642 -1.37423 0
M  V30 2275 H 222.573 -2.01848 -3.35221 0
M  V30 2276 H 222.196 -0.412706 -3.95452 0
M  V30 2277 N 223.193 1.4272 -0.668489 0
M  V30 2278 C 224.123 2.335 -0.000100175 0
M  V30 2279 C 225.104 1.50328 0.795964 0
M  V30 2280 O 226.289 1.78949 0.754385 0
M  V30 2281 C 223.419 3.33874 0.956302 0
M  V30 2282 C 222.373 4.27152 0.269278 0
M  V30 2283 C 221.699 5.17684 1.33818 0
M  V30 2284 C 222.999 5.15373 -0.847805 0
M  V30 2285 H 224.693 2.89639 -0.758244 0
M  V30 2286 H 222.239 1.39269 -0.366079 0
M  V30 2287 H 224.192 3.9629 1.43292 0
M  V30 2288 H 222.916 2.76025 1.74579 0
M  V30 2289 H 221.575 3.66123 -0.187042 0
M  V30 2290 H 221.223 4.56165 2.1195 0
M  V30 2291 H 220.923 5.80918 0.883659 0
M  V30 2292 H 222.447 5.82974 1.81586 0
M  V30 2293 H 223.861 5.7151 -0.452681 0
M  V30 2294 H 222.258 5.87407 -1.22773 0
M  V30 2295 H 223.328 4.5415 -1.69929 0
M  V30 2296 N 224.671 0.411399 1.52136 0
M  V30 2297 C 226.087 0.0623865 1.59478 0
M  V30 2298 C 226.287 -1.42554 1.4241 0
M  V30 2299 O 225.343 -2.19263 1.2522 0
M  V30 2300 C 226.656 0.559331 2.95452 0
M  V30 2301 C 228.204 0.517503 3.08692 0
M  V30 2302 C 228.679 0.990994 4.4715 0
M  V30 2303 N 230.17 0.947908 4.53397 0
M  V30 2304 C 230.905 1.28544 5.58806 0
M  V30 2305 N 230.401 1.69454 6.71757 0
M  V30 2306 N 232.194 1.20526 5.49026 0
M  V30 2307 H 224.345 1.37982 1.61477 0
M  V30 2308 H 226.608 0.566977 0.759764 0
M  V30 2309 H 226.314 1.59938 3.1323 0
M  V30 2310 H 226.188 -0.0298014 3.77188 0
M  V30 2311 H 228.575 -0.513505 2.90598 0
M  V30 2312 H 228.656 1.14272 2.28857 0
M  V30 2313 H 228.3 2.02034 4.65988 0
M  V30 2314 H 228.23 0.34257 5.25485 0
M  V30 2315 H 230.721 0.647157 3.72317 0
M  V30 2316 H 231.034 1.93513 7.48179 0
M  V30 2317 H 229.379 1.73359 6.73032 0
M  V30 2318 H 232.57 0.884505 4.59667 0
M  V30 2319 H 232.743 1.47161 6.31069 0
M  V30 2320 N 226.149 -1.5696 0.141893 0
M  V30 2321 C 227.389 -1.9785 -0.513304 0
M  V30 2322 C 227.753 -1.02467 -1.62371 0
M  V30 2323 O 228.954 -1.32382 -2.33941 0
M  V30 2324 C 227.225 -3.42797 -1.01118 0
M  V30 2325 S 228.784 -4.05709 -1.67169 0
M  V30 2326 H 225.602 -0.691318 -0.166135 0
M  V30 2327 H 228.204 -1.94114 0.232398 0
M  V30 2328 H 226.908 -4.0995 -0.192179 0
M  V30 2329 H 226.439 -3.50235 -1.79162 0
M  V30 2330 H 228.454 -3.98342 -2.95868 0
M  V30 2331 N 227.627 0.131896 -1.57047 0
M  V30 2332 C 228.874 0.841932 -1.84168 0
M  V30 2333 C 229.202 1.8048 -0.725066 0
M  V30 2334 O 228.457 1.93618 0.284692 0
M  V30 2335 C 228.756 1.63703 -3.17704 0
M  V30 2336 C 228.422 0.81961 -4.43388 0
M  V30 2337 C 227.084 0.594148 -4.77518 0
M  V30 2338 C 229.436 0.248977 -5.20605 0
M  V30 2339 C 226.764 -0.212409 -5.86315 0
M  V30 2340 C 229.116 -0.544701 -6.30251 0
M  V30 2341 C 227.78 -0.780599 -6.6292 0
M  V30 2342 H 227.05 0.308085 -0.673917 0
M  V30 2343 H 229.697 0.104867 -1.91213 0
M  V30 2344 H 228.002 2.44464 -3.06177 0
M  V30 2345 H 229.699 2.19015 -3.35907 0
M  V30 2346 H 226.289 1.00542 -4.16641 0
M  V30 2347 H 230.473 0.410408 -4.946 0
M  V30 2348 H 225.729 -0.404524 -6.1006 0
M  V30 2349 H 229.903 -0.993922 -6.89271 0
M  V30 2350 H 227.53 -1.40742 -7.47058 0
M  V30 2351 N 229.106 1.52395 0.401703 0
M  V30 2352 C 230.522 1.41363 0.740864 0
M  V30 2353 C 230.722 0.523982 1.94568 0
M  V30 2354 O 229.778 -0.00741204 2.52499 0
M  V30 2355 C 231.091 2.84011 0.987847 0
M  V30 2356 C 232.639 2.93404 1.09011 0
M  V30 2357 C 233.114 4.37036 1.3698 0
M  V30 2358 N 234.605 4.40304 1.43829 0
M  V30 2359 C 235.34 5.48508 1.67112 0
M  V30 2360 N 234.836 6.66819 1.87949 0
M  V30 2361 N 236.629 5.36034 1.69187 0
M  V30 2362 H 228.78 2.08765 -0.391262 0
M  V30 2363 H 231.043 0.941265 -0.112798 0
M  V30 2364 H 230.749 3.51265 0.174835 0
M  V30 2365 H 230.623 3.25502 1.906 0
M  V30 2366 H 233.01 2.26325 1.8937 0
M  V30 2367 H 233.091 2.55359 0.15015 0
M  V30 2368 H 232.735 5.04676 0.571353 0
M  V30 2369 H 232.665 4.72623 2.3224 0
M  V30 2370 H 235.156 3.55024 1.29486 0
M  V30 2371 H 235.469 7.45063 2.05185 0
M  V30 2372 H 233.814 6.6987 1.85199 0
M  V30 2373 H 237.005 4.42579 1.52451 0
M  V30 2374 H 237.178 6.20434 1.86993 0
M  V30 2375 N 230.584 -0.659388 1.43143 0
M  V30 2376 C 231.531 -1.77249 1.47822 0
M  V30 2377 C 232.501 -1.62818 0.328558 0
M  V30 2378 O 233.686 -1.83151 0.534838 0
M  V30 2379 C 230.826 -3.15371 1.40126 0
M  V30 2380 C 229.939 -3.4098 2.65249 0
M  V30 2381 C 229.074 -4.68915 2.49584 0
M  V30 2382 C 228.113 -4.87608 3.70006 0
M  V30 2383 N 227.25 -6.06796 3.53189 0
M  V30 2384 H 232.09 -1.72584 2.42938 0
M  V30 2385 H 229.627 -0.842297 1.20598 0
M  V30 2386 H 231.585 -3.9521 1.33659 0
M  V30 2387 H 230.215 -3.19121 0.485964 0
M  V30 2388 H 229.267 -2.55282 2.8202 0
M  V30 2389 H 230.579 -3.50681 3.54717 0
M  V30 2390 H 229.733 -5.56871 2.4079 0
M  V30 2391 H 228.472 -4.61524 1.5763 0
M  V30 2392 H 227.477 -3.9809 3.79215 0
M  V30 2393 H 228.702 -4.96834 4.62961 0
M  V30 2394 H 226.648 -6.00549 2.63965 0
M  V30 2395 H 226.565 -6.17428 4.36255 0
M  V30 2396 H 227.833 -6.9739 3.48236 0
M  V30 2397 N 232.062 -1.29571 -0.897171 0
M  V30 2398 C 233.308 -1.17863 -1.65034 0
M  V30 2399 C 233.641 0.268729 -1.92332 0
M  V30 2400 O 232.916 1.19378 -1.53555 0
M  V30 2401 C 233.199 -1.995 -2.99786 0
M  V30 2402 C 233.052 -3.5239 -2.79538 0
M  V30 2403 C 234.371 -1.82335 -4.00552 0
M  V30 2404 H 231.49 -0.429528 -0.598895 0
M  V30 2405 H 234.132 -1.59072 -1.03905 0
M  V30 2406 H 232.282 -1.64485 -3.51962 0
M  V30 2407 H 233.954 -3.97401 -2.34244 0
M  V30 2408 H 232.197 -3.77187 -2.14273 0
M  V30 2409 H 232.868 -4.04787 -3.75302 0
M  V30 2410 H 235.344 -2.12924 -3.57495 0
M  V30 2411 H 234.22 -2.41801 -4.92771 0
M  V30 2412 H 234.481 -0.779209 -4.35179 0
M  V30 2413 N 233.54 1.10788 -1.12088 0
M  V30 2414 C 234.765 1.87002 -0.896949 0
M  V30 2415 C 235.19 1.79933 0.548261 0
M  V30 2416 O 234.548 1.16662 1.38779 0
M  V30 2417 C 234.596 3.3349 -1.37174 0
M  V30 2418 O 233.7 4.08745 -0.547831 0
M  V30 2419 H 233.041 0.580397 -0.322545 0
M  V30 2420 H 235.571 1.39996 -1.49206 0
M  V30 2421 H 235.581 3.84339 -1.36922 0
M  V30 2422 H 234.256 3.37951 -2.42408 0
M  V30 2423 H 232.833 3.6776 -0.617034 0
M  V30 2424 N 235.018 0.912232 1.28515 0
M  V30 2425 C 236.258 0.551677 1.96814 0
M  V30 2426 C 236.622 -0.887825 1.7024 0
M  V30 2427 O 237.823 -1.35588 2.32098 0
M  V30 2428 C 236.094 0.850555 3.47132 0
M  V30 2429 S 237.653 0.59619 4.34731 0
M  V30 2430 H 234.471 0.204191 0.681049 0
M  V30 2431 H 237.073 1.17736 1.56072 0
M  V30 2432 H 235.777 1.8962 3.63968 0
M  V30 2433 H 235.308 0.213471 3.9282 0
M  V30 2434 H 237.323 -0.553154 4.93107 0
M  V30 2435 N 236.496 -1.42363 0.676048 0
M  V30 2436 C 237.726 -2.05561 0.206967 0
M  V30 2437 C 238.134 -1.50887 -1.14148 0
M  V30 2438 O 237.477 -0.643933 -1.72044 0
M  V30 2439 C 237.539 -3.5944 0.0659508 0
M  V30 2440 C 237.203 -4.36812 1.34331 0
M  V30 2441 C 238.2 -4.67383 2.27704 0
M  V30 2442 C 235.885 -4.76429 1.59125 0
M  V30 2443 C 237.879 -5.36509 3.44147 0
M  V30 2444 C 235.566 -5.45294 2.75857 0
M  V30 2445 C 236.564 -5.75259 3.68193 0
M  V30 2446 O 236.252 -6.42712 4.82883 0
M  V30 2447 H 235.984 -0.668872 0.0979084 0
M  V30 2448 H 238.538 -1.83467 0.923531 0
M  V30 2449 H 236.768 -3.80197 -0.706204 0
M  V30 2450 H 238.457 -4.0427 -0.363418 0
M  V30 2451 H 239.223 -4.37275 2.09799 0
M  V30 2452 H 235.102 -4.52498 0.881258 0
M  V30 2453 H 238.646 -5.59814 4.16238 0
M  V30 2454 H 234.543 -5.7482 2.93688 0
M  V30 2455 H 235.311 -6.61204 4.82444 0
M  V30 2456 N 237.974 -0.419461 -1.51915 0
M  V30 2457 C 239.223 0.154346 -2.01109 0
M  V30 2458 C 239.536 1.45338 -1.30905 0
M  V30 2459 O 240.742 2.10906 -1.7097 0
M  V30 2460 C 239.198 0.325615 -3.58424 0
M  V30 2461 C 238.806 -0.961934 -4.37551 0
M  V30 2462 C 240.55 0.854155 -4.15818 0
M  V30 2463 C 238.457 -0.757287 -5.86531 0
M  V30 2464 H 237.387 0.0614563 -0.751491 0
M  V30 2465 H 240.038 -0.54649 -1.75173 0
M  V30 2466 H 238.42 1.08903 -3.80731 0
M  V30 2467 H 239.594 -1.7323 -4.26999 0
M  V30 2468 H 237.909 -1.41766 -3.91524 0
M  V30 2469 H 240.506 1.02346 -5.24814 0
M  V30 2470 H 240.849 1.83172 -3.73837 0
M  V30 2471 H 241.382 0.149528 -3.97519 0
M  V30 2472 H 238.121 -1.70671 -6.32892 0
M  V30 2473 H 237.641 -0.0264061 -5.99794 0
M  V30 2474 H 239.32 -0.403482 -6.45741 0
M  V30 2475 N 239.452 1.56882 -0.150215 0
M  V30 2476 C 240.385 2.12712 0.826358 0
M  V30 2477 C 241.363 1.05154 1.24022 0
M  V30 2478 O 242.547 1.33004 1.33575 0
M  V30 2479 C 239.674 2.64945 2.11002 0
M  V30 2480 C 238.72 3.8468 1.84183 0
M  V30 2481 S 239.553 5.25502 1.02995 0
M  V30 2482 C 240.709 5.81125 2.32474 0
M  V30 2483 H 240.942 2.95214 0.351598 0
M  V30 2484 H 238.475 1.54267 0.0641211 0
M  V30 2485 H 240.433 2.95689 2.84742 0
M  V30 2486 H 239.094 1.82568 2.55593 0
M  V30 2487 H 238.287 4.19482 2.79375 0
M  V30 2488 H 237.889 3.54714 1.1855 0
M  V30 2489 H 240.181 5.92753 3.281 0
M  V30 2490 H 241.124 6.78625 2.02171 0
M  V30 2491 H 241.532 5.09392 2.43269 0
M  V30 2492 N 240.93 -0.123565 1.57115 0
M  V30 2493 C 241.862 -1.17739 1.96648 0
M  V30 2494 C 242.875 -1.37906 0.865201 0
M  V30 2495 O 244.064 -1.37062 1.14351 0
M  V30 2496 C 241.164 -2.53821 2.24562 0
M  V30 2497 C 240.337 -2.54317 3.55867 0
M  V30 2498 C 239.396 -3.72112 3.72047 0
M  V30 2499 O 238.422 -3.55907 4.44206 0
M  V30 2500 N 239.624 -4.90498 3.10471 0
M  V30 2501 H 242.389 -0.841147 2.87654 0
M  V30 2502 H 239.95 -0.31289 1.58848 0
M  V30 2503 H 241.942 -3.31175 2.32606 0
M  V30 2504 H 240.512 -2.79645 1.39705 0
M  V30 2505 H 239.732 -1.62711 3.59053 0
M  V30 2506 H 241.02 -2.51701 4.42181 0
M  V30 2507 H 240.418 -5.06567 2.51806 0
M  V30 2508 H 238.975 -5.65544 3.24043 0
M  V30 2509 N 242.408 -1.52605 -0.393616 0
M  V30 2510 C 243.685 -1.58001 -1.15304 0
M  V30 2511 C 244.065 -0.370385 -2.07825 0
M  V30 2512 O 243.413 0.641638 -2.19306 0
M  V30 2513 C 243.623 -2.91652 -1.91677 0
M  V30 2514 C 244.971 -3.4522 -2.47201 0
M  V30 2515 O 245.995 -2.93495 -2.01839 0
M  V30 2516 O 244.854 -4.35579 -3.3005 0
M  V30 2517 H 241.948 -0.637068 -0.527327 0
M  V30 2518 H 244.494 -1.64939 -0.399141 0
M  V30 2519 H 243.266 -3.71136 -1.23992 0
M  V30 2520 H 242.889 -2.88077 -2.74039 0
M  V30 2521 N 243.887 0.651787 -1.4349 0
M  V30 2522 C 245.164 1.40909 -1.35661 0
M  V30 2523 C 245.544 2.11099 -0.00511733 0
M  V30 2524 O 244.892 2.04892 1.0115 0
M  V30 2525 C 245.102 2.3926 -2.54078 0
M  V30 2526 C 246.45 3.03217 -2.97228 0
M  V30 2527 O 247.474 2.49588 -2.54135 0
M  V30 2528 O 246.333 4.00455 -3.71885 0
M  V30 2529 H 243.427 0.629625 -0.536191 0
M  V30 2530 H 245.973 0.678575 -1.55542 0
M  V30 2531 H 244.745 1.86352 -3.44076 0
M  V30 2532 H 244.368 3.1976 -2.36303 0
M  V30 2533 N 245.365 1.30045 0.890287 0
M  V30 2534 C 246.298 1.10301 1.99772 0
M  V30 2535 C 247.276 0.0121631 1.62595 0
M  V30 2536 O 248.46 0.16469 1.87779 0
M  V30 2537 C 245.587 0.681125 3.31781 0
M  V30 2538 C 244.633 1.77206 3.87944 0
M  V30 2539 S 245.466 3.37335 4.15891 0
M  V30 2540 C 246.622 2.97036 5.50927 0
M  V30 2541 H 246.855 2.04057 2.16213 0
M  V30 2542 H 244.388 1.14299 1.03804 0
M  V30 2543 H 246.346 0.444439 4.08087 0
M  V30 2544 H 245.007 -0.236981 3.13205 0
M  V30 2545 H 244.2 1.42903 4.83316 0
M  V30 2546 H 243.802 1.96275 3.18358 0
M  V30 2547 H 246.094 2.44666 6.31779 0
M  V30 2548 H 247.037 3.91296 5.90164 0
M  V30 2549 H 247.445 2.35057 5.13233 0
M  V30 2550 N 246.843 -1.10192 1.12674 0
M  V30 2551 C 247.773 -2.18652 0.819362 0
M  V30 2552 C 248.754 -1.68698 -0.217915 0
M  V30 2553 O 249.939 -1.94041 -0.0785581 0
M  V30 2554 C 247.069 -3.46202 0.27594 0
M  V30 2555 C 246.023 -4.09444 1.24656 0
M  V30 2556 C 245.349 -5.31725 0.563258 0
M  V30 2557 C 246.649 -4.52863 2.60217 0
M  V30 2558 H 248.343 -2.44622 1.72628 0
M  V30 2559 H 245.889 -1.17571 0.831451 0
M  V30 2560 H 247.842 -4.21372 0.0486149 0
M  V30 2561 H 246.566 -3.1973 -0.666331 0
M  V30 2562 H 245.225 -3.36284 1.45974 0
M  V30 2563 H 244.873 -5.0153 -0.384235 0
M  V30 2564 H 244.573 -5.74991 1.21075 0
M  V30 2565 H 246.097 -6.09624 0.34503 0
M  V30 2566 H 247.511 -5.19294 2.42913 0
M  V30 2567 H 245.908 -5.06986 3.21068 0
M  V30 2568 H 246.978 -3.65656 3.18471 0
M  V30 2569 N 248.321 -0.919034 -1.28029 0
M  V30 2570 C 249.251 -0.428581 -2.29533 0
M  V30 2571 C 250.232 0.50659 -1.62381 0
M  V30 2572 O 251.417 0.413195 -1.89753 0
M  V30 2573 C 248.547 0.327388 -3.45753 0
M  V30 2574 C 247.501 -0.519137 -4.2484 0
M  V30 2575 C 246.827 0.365486 -5.33449 0
M  V30 2576 C 248.127 -1.77914 -4.91064 0
M  V30 2577 H 249.821 -1.27687 -2.70807 0
M  V30 2578 H 247.367 -0.615428 -1.30186 0
M  V30 2579 H 249.32 0.681378 -4.15855 0
M  V30 2580 H 248.044 1.20963 -3.03374 0
M  V30 2581 H 246.703 -0.855717 -3.56473 0
M  V30 2582 H 246.351 1.24642 -4.87312 0
M  V30 2583 H 246.051 -0.197356 -5.87268 0
M  V30 2584 H 247.575 0.715241 -6.06396 0
M  V30 2585 H 248.989 -1.49374 -5.53498 0
M  V30 2586 H 247.386 -2.2848 -5.54903 0
M  V30 2587 H 248.456 -2.50382 -4.15255 0
M  V30 2588 N 249.799 1.42003 -0.683588 0
M  V30 2589 C 251.21 1.84501 -0.285736 0
M  V30 2590 C 251.561 1.57213 1.17382 0
M  V30 2591 O 250.686 1.03642 1.89966 0
M  V30 2592 C 251.281 3.34912 -0.511821 0
M  V30 2593 C 249.84 3.76025 -0.168005 0
M  V30 2594 C 248.987 2.6551 -0.799983 0
M  V30 2595 H 251.938 1.31724 -0.885119 0
M  V30 2596 H 251.959 3.79784 0.233292 0
M  V30 2597 H 251.471 3.54741 -1.57418 0
M  V30 2598 H 249.572 3.61801 0.890567 0
M  V30 2599 H 249.685 4.75141 -0.614661 0
M  V30 2600 H 248.049 2.53654 -0.230568 0
M  V30 2601 H 248.832 2.8816 -1.86597 0
M  V30 2602 N 251.277 0.427512 1.51691 0
M  V30 2603 C 252.227 -0.406604 2.24345 0
M  V30 2604 C 253.211 -0.998276 1.26187 0
M  V30 2605 O 254.403 -0.918045 1.51331 0
M  V30 2606 C 251.532 -1.51266 3.08177 0
M  V30 2607 C 250.618 -0.930868 4.13758 0
M  V30 2608 N 251.009 -0.0773552 5.05741 0
M  V30 2609 C 249.307 -1.19948 4.29568 0
M  V30 2610 C 250.008 0.248344 5.8117 0
M  V30 2611 N 248.984 -0.365535 5.4237 0
M  V30 2612 H 252.786 0.251581 2.92821 0
M  V30 2613 H 250.3 0.239003 1.60632 0
M  V30 2614 H 252.297 -2.123 3.58796 0
M  V30 2615 H 250.957 -2.17328 2.41244 0
M  V30 2616 H 251.968 0.288351 5.17097 0
M  V30 2617 H 248.645 -1.85832 3.73862 0
M  V30 2618 H 250.035 0.942286 6.6526 0
M  V30 2619 N 252.755 -1.56801 0.158532 0
M  V30 2620 C 253.685 -2.20347 -0.772609 0
M  V30 2621 C 254.666 -1.15518 -1.24859 0
M  V30 2622 O 255.851 -1.43902 -1.30406 0
M  V30 2623 C 252.981 -2.83417 -2.00729 0
M  V30 2624 C 251.935 -3.94174 -1.66765 0
M  V30 2625 C 251.261 -4.44233 -2.97592 0
M  V30 2626 C 252.561 -5.14392 -0.905447 0
M  V30 2627 H 254.255 -2.98413 -0.242959 0
M  V30 2628 H 251.801 -1.43537 -0.115419 0
M  V30 2629 H 253.754 -3.26543 -2.6636 0
M  V30 2630 H 252.478 -2.02701 -2.56086 0
M  V30 2631 H 251.137 -3.51684 -1.03508 0
M  V30 2632 H 250.785 -3.60325 -3.50963 0
M  V30 2633 H 250.485 -5.18945 -2.75626 0
M  V30 2634 H 252.009 -4.90037 -3.64274 0
M  V30 2635 H 253.423 -5.5429 -1.46408 0
M  V30 2636 H 251.82 -5.9494 -0.7853 0
M  V30 2637 H 252.89 -4.84795 0.100668 0
M  V30 2638 N 254.233 0.115231 -1.57178 0
M  V30 2639 C 255.461 0.836437 -1.89239 0
M  V30 2640 C 255.876 1.73256 -0.750175 0
M  V30 2641 O 255.233 1.80357 0.278832 0
M  V30 2642 C 255.284 1.66671 -3.20785 0
M  V30 2643 O 255.005 0.806652 -4.3061 0
M  V30 2644 C 256.506 2.49274 -3.66575 0
M  V30 2645 H 253.726 0.240253 -0.626514 0
M  V30 2646 H 256.27 0.0984932 -2.04263 0
M  V30 2647 H 254.425 2.35737 -3.0742 0
M  V30 2648 H 254.839 1.37969 -5.06028 0
M  V30 2649 H 256.313 3.03055 -4.6137 0
M  V30 2650 H 256.79 3.26807 -2.93417 0
M  V30 2651 H 257.396 1.85443 -3.82741 0
M  V30 2652 N 255.711 1.52812 0.385517 0
M  V30 2653 C 256.957 1.68275 1.13188 0
M  V30 2654 C 257.29 0.423179 1.89533 0
M  V30 2655 O 256.565 -0.579113 1.85679 0
M  V30 2656 C 256.848 2.92001 2.1073 0
M  V30 2657 C 256.701 4.28067 1.38125 0
M  V30 2658 C 258.02 3.11283 3.11113 0
M  V30 2659 H 255.139 0.612352 0.410115 0
M  V30 2660 H 257.781 1.85415 0.414869 0
M  V30 2661 H 255.931 2.77519 2.71874 0
M  V30 2662 H 257.603 4.54324 0.799187 0
M  V30 2663 H 255.846 4.28388 0.683092 0
M  V30 2664 H 256.517 5.10733 2.09417 0
M  V30 2665 H 258.993 3.2482 2.6006 0
M  V30 2666 H 257.869 3.99325 3.76605 0
M  V30 2667 H 258.13 2.25656 3.80173 0
M  V30 2668 N 257.189 -0.644168 1.43834 0
M  V30 2669 C 258.121 -1.76955 1.45669 0
M  V30 2670 C 259.134 -1.58956 0.351666 0
M  V30 2671 O 260.323 -1.6751 0.616644 0
M  V30 2672 C 257.423 -3.14507 1.26248 0
M  V30 2673 C 256.596 -3.59083 2.49757 0
M  V30 2674 C 255.655 -4.75467 2.25427 0
M  V30 2675 O 254.681 -4.84444 2.98836 0
M  V30 2676 N 255.883 -5.66289 1.27661 0
M  V30 2677 H 258.648 -1.75856 2.42682 0
M  V30 2678 H 256.209 -0.828312 1.39106 0
M  V30 2679 H 258.201 -3.90067 1.0784 0
M  V30 2680 H 256.771 -3.10325 0.376478 0
M  V30 2681 H 255.991 -2.7387 2.8353 0
M  V30 2682 H 257.279 -3.85613 3.31934 0
M  V30 2683 H 256.677 -5.61718 0.670064 0
M  V30 2684 H 255.234 -6.41533 1.15234 0
M  V30 2685 N 258.668 -1.30515 -0.883378 0
M  V30 2686 C 259.578 -1.18959 -2.02203 0
M  V30 2687 C 260.594 -0.109172 -1.73657 0
M  V30 2688 O 261.77 -0.324413 -1.9877 0
M  V30 2689 C 258.835 -0.883871 -3.35244 0
M  V30 2690 C 257.896 -2.04982 -3.77201 0
M  V30 2691 C 257.129 -1.75859 -5.03894 0
M  V30 2692 O 257.352 -0.687276 -5.66244 0
M  V30 2693 O 256.286 -2.61146 -5.42297 0
M  V30 2694 H 260.112 -2.14616 -2.1488 0
M  V30 2695 H 257.697 -1.10124 -1.0096 0
M  V30 2696 H 259.579 -0.728644 -4.15053 0
M  V30 2697 H 258.254 0.0427798 -3.23672 0
M  V30 2698 H 257.161 -2.26038 -2.9809 0
M  V30 2699 H 258.494 -2.95825 -3.93381 0
M  V30 2700 N 260.146 1.09593 -1.13257 0
M  V30 2701 C 261.109 2.14359 -0.811358 0
M  V30 2702 C 262.109 1.59808 0.178377 0
M  V30 2703 O 263.299 1.74132 -0.0484911 0
M  V30 2704 C 260.431 3.40269 -0.207276 0
M  V30 2705 H 261.624 2.44284 -1.73969 0
M  V30 2706 H 259.177 1.25102 -0.936973 0
M  V30 2707 H 259.912 3.15969 0.73036 0
M  V30 2708 H 259.697 3.81154 -0.919992 0
M  V30 2709 H 261.187 4.176 0.000667944 0
M  V30 2710 N 261.624 0.925811 1.2754 0
M  V30 2711 C 262.557 0.367836 2.25216 0
M  V30 2712 C 263.535 -0.534738 1.53556 0
M  V30 2713 O 264.719 -0.475672 1.824 0
M  V30 2714 C 261.846 -0.47298 3.35381 0
M  V30 2715 C 260.892 0.365898 4.24928 0
M  V30 2716 S 261.725 1.78025 5.05042 0
M  V30 2717 C 262.881 0.947068 6.18693 0
M  V30 2718 H 263.114 1.19568 2.72196 0
M  V30 2719 H 260.647 0.727867 1.36167 0
M  V30 2720 H 262.605 -0.952242 3.99303 0
M  V30 2721 H 261.266 -1.27533 2.87044 0
M  V30 2722 H 260.459 -0.277582 5.03235 0
M  V30 2723 H 260.061 0.779261 3.65792 0
M  V30 2724 H 262.353 0.182201 6.77255 0
M  V30 2725 H 263.296 1.70309 6.87314 0
M  V30 2726 H 263.704 0.489913 5.6237 0
M  V30 2727 N 263.102 -1.41638 0.69111 0
M  V30 2728 C 264.035 -2.28183 -0.0274913 0
M  V30 2729 C 265.013 -1.41984 -0.792424 0
M  V30 2730 O 266.197 -1.71415 -0.784169 0
M  V30 2731 C 263.324 -3.22135 -1.04628 0
M  V30 2732 C 262.37 -4.24848 -0.375037 0
M  V30 2733 S 263.203 -5.28231 0.879321 0
M  V30 2734 C 264.359 -6.25748 -0.137983 0
M  V30 2735 H 264.592 -2.88782 0.706553 0
M  V30 2736 H 262.125 -1.46709 0.481222 0
M  V30 2737 H 264.083 -3.76797 -1.62894 0
M  V30 2738 H 262.744 -2.6064 -1.75287 0
M  V30 2739 H 261.937 -4.90837 -1.14433 0
M  V30 2740 H 261.539 -3.73758 0.134434 0
M  V30 2741 H 263.831 -6.70188 -0.992659 0
M  V30 2742 H 264.774 -7.06417 0.487867 0
M  V30 2743 H 265.182 -5.62363 -0.490762 0
M  V30 2744 N 264.58 -0.43555 -1.51462 0
M  V30 2745 C 265.826 0.131709 -2.02372 0
M  V30 2746 C 266.159 1.42516 -1.3192 0
M  V30 2747 O 265.434 1.89606 -0.433573 0
M  V30 2748 C 265.717 0.352301 -3.58373 0
M  V30 2749 C 265.57 -0.959676 -4.39443 0
M  V30 2750 C 266.889 1.12286 -4.25535 0
M  V30 2751 H 264.008 0.0463936 -0.735538 0
M  V30 2752 H 266.65 -0.574197 -1.81116 0
M  V30 2753 H 264.8 0.9536 -3.76615 0
M  V30 2754 H 266.472 -1.59482 -4.32855 0
M  V30 2755 H 264.715 -1.56468 -4.04599 0
M  V30 2756 H 265.386 -0.759394 -5.46752 0
M  V30 2757 H 267.862 0.613545 -4.11552 0
M  V30 2758 H 266.738 1.24598 -5.34571 0
M  V30 2759 H 266.999 2.15048 -3.86273 0
M  V30 2760 N 266.058 1.56714 -0.166846 0
M  V30 2761 C 267.283 2.01557 0.488833 0
M  V30 2762 C 267.708 1.0463 1.56314 0
M  V30 2763 O 267.066 0.0251304 1.81283 0
M  V30 2764 C 267.114 3.4503 1.04818 0
M  V30 2765 O 266.218 3.51163 2.16236 0
M  V30 2766 H 265.559 0.653516 0.117526 0
M  V30 2767 H 268.089 2.02818 -0.269421 0
M  V30 2768 H 268.099 3.84243 1.37191 0
M  V30 2769 H 266.774 4.15077 0.261572 0
M  V30 2770 H 265.351 3.23807 1.84942 0
M  V30 2771 N 267.536 -0.106894 1.57237 0
M  V30 2772 C 268.499 -1.11466 2.0027 0
M  V30 2773 C 269.499 -1.33623 0.894519 0
M  V30 2774 O 270.689 -1.29935 1.16028 0
M  V30 2775 C 267.821 -2.46646 2.35327 0
M  V30 2776 H 269.014 -0.744516 2.90512 0
M  V30 2777 H 266.567 -0.351576 1.52295 0
M  V30 2778 H 267.302 -2.88558 1.48003 0
M  V30 2779 H 267.087 -2.31915 3.16161 0
M  V30 2780 H 268.577 -3.19151 2.69318 0
M  V30 2781 N 269.014 -1.53014 -0.377408 0
M  V30 2782 C 269.964 -1.74996 -1.46152 0
M  V30 2783 C 270.948 -0.604236 -1.49123 0
M  V30 2784 O 272.14 -0.862489 -1.54564 0
M  V30 2785 C 269.269 -1.93267 -2.8373 0
M  V30 2786 C 268.355 -3.13807 -2.85283 0
M  V30 2787 N 268.746 -4.35941 -2.56493 0
M  V30 2788 C 267.044 -3.14288 -3.16448 0
M  V30 2789 C 267.745 -5.17615 -2.65424 0
M  V30 2790 N 266.721 -4.53559 -2.99641 0
M  V30 2791 H 270.523 -2.67044 -1.22738 0
M  V30 2792 H 268.037 -1.51479 -0.585479 0
M  V30 2793 H 270.034 -2.0714 -3.61799 0
M  V30 2794 H 268.694 -1.0244 -3.08117 0
M  V30 2795 H 269.705 -4.63876 -2.30302 0
M  V30 2796 H 266.382 -2.33312 -3.46225 0
M  V30 2797 H 267.772 -6.25006 -2.46612 0
M  V30 2798 N 270.492 0.636531 -1.44174 0
M  V30 2799 C 271.422 1.76003 -1.53444 0
M  V30 2800 C 272.403 1.65619 -0.387841 0
M  V30 2801 O 273.588 1.84461 -0.607257 0
M  V30 2802 C 270.718 3.14511 -1.4731 0
M  V30 2803 C 269.672 3.39677 -2.60391 0
M  V30 2804 C 268.998 4.78159 -2.39308 0
M  V30 2805 C 270.298 3.32772 -4.02567 0
M  V30 2806 H 271.992 1.68501 -2.47483 0
M  V30 2807 H 269.538 0.809237 -1.19111 0
M  V30 2808 H 271.491 3.92878 -1.52397 0
M  V30 2809 H 270.215 3.22783 -0.49785 0
M  V30 2810 H 268.874 2.63688 -2.54684 0
M  V30 2811 H 268.522 4.83128 -1.39988 0
M  V30 2812 H 268.222 4.95956 -3.15122 0
M  V30 2813 H 269.746 5.58762 -2.46205 0
M  V30 2814 H 271.16 4.01051 -4.09672 0
M  V30 2815 H 269.557 3.62104 -4.7854 0
M  V30 2816 H 270.627 2.30669 -4.2652 0
M  V30 2817 N 271.97 1.30982 0.876444 0
M  V30 2818 C 272.917 1.18085 1.98304 0
M  V30 2819 C 273.887 0.0682263 1.6596 0
M  V30 2820 O 275.072 0.239937 1.89285 0
M  V30 2821 C 272.212 0.887475 3.33493 0
M  V30 2822 C 271.325 2.08281 3.78475 0
M  V30 2823 C 270.46 1.72678 5.0235 0
M  V30 2824 C 269.499 2.88657 5.39762 0
M  V30 2825 N 268.636 2.53292 6.54819 0
M  V30 2826 H 273.476 2.1275 2.08666 0
M  V30 2827 H 271.013 1.05839 1.02159 0
M  V30 2828 H 272.971 0.697961 4.1132 0
M  V30 2829 H 271.601 -0.022315 3.22792 0
M  V30 2830 H 270.653 2.3833 2.96484 0
M  V30 2831 H 271.965 2.95108 4.02135 0
M  V30 2832 H 271.119 1.50151 5.87826 0
M  V30 2833 H 269.858 0.830327 4.8058 0
M  V30 2834 H 268.863 3.1184 4.52809 0
M  V30 2835 H 270.088 3.79002 5.63502 0
M  V30 2836 H 268.034 1.66163 6.34607 0
M  V30 2837 H 267.951 3.3365 6.7839 0
M  V30 2838 H 269.219 2.34143 7.43503 0
M  V30 2839 N 273.449 -1.08991 1.13837 0
M  V30 2840 C 274.379 -2.17771 0.842507 0
M  V30 2841 C 275.36 -1.6892 -0.20001 0
M  V30 2842 O 276.545 -1.94113 -0.0579731 0
M  V30 2843 C 273.675 -3.4589 0.312644 0
M  V30 2844 C 272.629 -4.08099 1.28992 0
M  V30 2845 C 271.955 -5.31098 0.619623 0
M  V30 2846 C 273.255 -4.50077 2.65005 0
M  V30 2847 H 274.949 -2.42777 1.75213 0
M  V30 2848 H 272.495 -1.16682 0.843875 0
M  V30 2849 H 274.448 -4.21297 0.0933043 0
M  V30 2850 H 273.172 -3.20419 -0.632382 0
M  V30 2851 H 271.831 -3.34717 1.49533 0
M  V30 2852 H 271.479 -5.0191 -0.33102 0
M  V30 2853 H 271.179 -5.73674 1.27167 0
M  V30 2854 H 272.703 -6.09224 0.409669 0
M  V30 2855 H 274.117 -5.16688 2.48407 0
M  V30 2856 H 272.514 -5.03553 3.26427 0
M  V30 2857 H 273.584 -3.62257 3.22332 0
M  V30 2858 N 274.927 -0.932562 -1.27047 0
M  V30 2859 C 275.859 -0.392734 -2.2581 0
M  V30 2860 C 276.872 0.479241 -1.55586 0
M  V30 2861 O 278.061 0.291078 -1.76111 0
M  V30 2862 C 275.161 0.455456 -3.35826 0
M  V30 2863 C 274.334 -0.398355 -4.35582 0
M  V30 2864 C 273.393 0.387985 -5.24768 0
M  V30 2865 O 272.419 -0.206003 -5.68827 0
M  V30 2866 N 273.621 1.68664 -5.55457 0
M  V30 2867 H 276.386 -1.24173 -2.72766 0
M  V30 2868 H 273.947 -0.800511 -1.40725 0
M  V30 2869 H 275.939 0.988692 -3.92437 0
M  V30 2870 H 274.509 1.20522 -2.88432 0
M  V30 2871 H 273.729 -1.11286 -3.78165 0
M  V30 2872 H 275.017 -0.981889 -4.99236 0
M  V30 2873 H 274.415 2.19147 -5.21528 0
M  V30 2874 H 272.972 2.1663 -6.14748 0
M  V30 2875 N 276.405 1.4127 -0.698611 0
M  V30 2876 C 277.315 2.34573 -0.0357891 0
M  V30 2877 C 278.331 1.56393 0.762701 0
M  V30 2878 O 279.507 1.8886 0.699564 0
M  V30 2879 C 276.572 3.35159 0.887089 0
M  V30 2880 C 275.633 4.29225 0.0804634 0
M  V30 2881 C 274.866 5.25006 0.959387 0
M  V30 2882 O 275.089 5.26314 2.19886 0
M  V30 2883 O 274.023 6.00519 0.407439 0
M  V30 2884 H 277.849 2.92838 -0.804957 0
M  V30 2885 H 275.434 1.42175 -0.458966 0
M  V30 2886 H 277.316 3.9689 1.41621 0
M  V30 2887 H 275.991 2.79333 1.6357 0
M  V30 2888 H 274.898 3.70833 -0.493328 0
M  V30 2889 H 276.231 4.88157 -0.629547 0
M  V30 2890 N 277.883 0.443576 1.51229 0
M  V30 2891 C 278.83 -0.364716 2.279 0
M  V30 2892 C 279.8 -1.0114 1.31757 0
M  V30 2893 O 280.985 -1.02912 1.60667 0
M  V30 2894 C 278.125 -1.45644 3.12861 0
M  V30 2895 C 277.238 -0.827269 4.24005 0
M  V30 2896 C 276.373 -1.89456 4.96266 0
M  V30 2897 C 275.412 -1.24416 5.99322 0
M  V30 2898 N 274.549 -2.25309 6.64966 0
M  V30 2899 H 279.389 0.295464 2.96532 0
M  V30 2900 H 276.926 0.157554 1.46254 0
M  V30 2901 H 278.884 -2.10076 3.6045 0
M  V30 2902 H 277.514 -2.08616 2.46331 0
M  V30 2903 H 276.566 -0.0710839 3.80334 0
M  V30 2904 H 277.878 -0.312481 4.9782 0
M  V30 2905 H 277.032 -2.61535 5.47434 0
M  V30 2906 H 275.771 -2.4431 4.22095 0
M  V30 2907 H 274.776 -0.508868 5.4744 0
M  V30 2908 H 276.001 -0.702882 6.75453 0
M  V30 2909 H 273.947 -2.79231 5.93604 0
M  V30 2910 H 273.864 -1.78739 7.34567 0
M  V30 2911 H 275.132 -2.96853 7.20763 0
M  V30 2912 N 279.361 -1.56624 0.175154 0
M  V30 2913 C 280.638 -1.88688 -0.515373 0
M  V30 2914 C 281.018 -1.08564 -1.81044 0
M  V30 2915 O 280.366 -0.180703 -2.27784 0
M  V30 2916 C 280.576 -3.40768 -0.753552 0
M  V30 2917 C 281.924 -4.10587 -1.08184 0
M  V30 2918 O 282.948 -3.46106 -0.841961 0
M  V30 2919 O 281.807 -5.24512 -1.53459 0
M  V30 2920 H 278.901 -0.78301 -0.26613 0
M  V30 2921 H 281.447 -1.68347 0.213877 0
M  V30 2922 H 280.219 -3.90965 0.161829 0
M  V30 2923 H 279.842 -3.66733 -1.53598 0
M  V30 2924 N 280.839 0.0985539 -1.57292 0
M  V30 2925 C 281.749 1.13824 -2.05137 0
M  V30 2926 C 282.765 1.44076 -0.975604 0
M  V30 2927 O 283.941 1.54786 -1.28853 0
M  V30 2928 C 281.006 2.43969 -2.46333 0
M  V30 2929 C 280.067 2.2093 -3.68087 0
M  V30 2930 C 279.3 3.44869 -4.0731 0
M  V30 2931 O 279.523 4.52972 -3.46659 0
M  V30 2932 O 278.457 3.34661 -5.00285 0
M  V30 2933 H 282.283 0.761881 -2.93988 0
M  V30 2934 H 279.868 0.310818 -1.46131 0
M  V30 2935 H 281.75 3.20609 -2.73473 0
M  V30 2936 H 280.425 2.81038 -1.60621 0
M  V30 2937 H 279.332 1.42081 -3.46069 0
M  V30 2938 H 280.665 1.88755 -4.54568 0
M  V30 2939 N 282.317 1.53212 0.369288 0
M  V30 2940 C 283.565 1.68881 1.11012 0
M  V30 2941 C 283.886 0.441285 1.89941 0
M  V30 2942 O 283.156 -0.544623 1.88177 0
M  V30 2943 H 281.736 0.622569 0.412816 0
M  V30 2944 H 284.398 1.90391 0.416802 0
M  V30 2945 H 283.494 2.54822 1.80201 0
M  V30 2946 N 283.795 -0.628877 1.44509 0
M  V30 2947 C 285.211 -0.947305 1.28446 0
M  V30 2948 C 285.411 -2.00275 0.221872 0
M  V30 2949 O 284.467 -2.49447 -0.391471 0
M  V30 2950 C 285.78 -1.40843 2.65676 0
M  V30 2951 C 287.328 -1.52379 2.73404 0
M  V30 2952 C 287.803 -2.01875 4.11109 0
M  V30 2953 N 289.294 -2.09142 4.13296 0
M  V30 2954 C 290.029 -2.48615 5.16699 0
M  V30 2955 N 289.525 -2.87209 6.30462 0
M  V30 2956 N 291.318 -2.48768 5.04054 0
M  V30 2957 H 283.469 0.0690977 2.12288 0
M  V30 2958 H 285.732 -0.0317164 0.947469 0
M  V30 2959 H 285.438 -0.707206 3.44516 0
M  V30 2960 H 285.312 -2.37902 2.92716 0
M  V30 2961 H 287.699 -2.21598 1.9488 0
M  V30 2962 H 287.78 -0.536898 2.50102 0
M  V30 2963 H 287.424 -1.3325 4.90109 0
M  V30 2964 H 287.354 -3.0144 4.31789 0
M  V30 2965 H 289.845 -1.81991 3.31191 0
M  V30 2966 H 290.158 -3.16149 7.05174 0
M  V30 2967 H 288.503 -2.84955 6.33897 0
M  V30 2968 H 291.694 -2.18009 4.14234 0
M  V30 2969 H 291.867 -2.79207 5.84763 0
M  V30 2970 N 285.273 -1.31445 -0.869486 0
M  V30 2971 C 286.689 -1.10113 -1.15531 0
M  V30 2972 C 286.889 0.128087 -2.01092 0
M  V30 2973 O 285.945 0.817276 -2.38908 0
M  V30 2974 C 287.258 -2.37291 -1.84698 0
M  V30 2975 C 288.806 -2.42906 -1.97397 0
M  V30 2976 C 289.281 -3.69967 -2.69979 0
M  V30 2977 N 290.772 -3.70864 -2.77514 0
M  V30 2978 C 291.507 -4.65875 -3.34287 0
M  V30 2979 N 291.003 -5.71242 -3.91988 0
M  V30 2980 N 292.796 -4.53394 -3.3225 0
M  V30 2981 H 284.947 -2.1028 -0.299347 0
M  V30 2982 H 287.21 -0.927683 -0.195214 0
M  V30 2983 H 286.916 -3.27078 -1.29278 0
M  V30 2984 H 286.79 -2.47125 -2.84972 0
M  V30 2985 H 289.177 -1.53588 -2.51982 0
M  V30 2986 H 289.258 -2.37036 -0.961643 0
M  V30 2987 H 288.902 -4.59652 -2.16062 0
M  V30 2988 H 288.832 -3.73103 -3.7162 0
M  V30 2989 H 291.323 -2.94697 -2.36563 0
M  V30 2990 H 291.636 -6.39817 -4.33421 0
M  V30 2991 H 289.981 -5.75015 -3.90362 0
M  V30 2992 H 293.172 -3.70252 -2.8641 0
M  V30 2993 H 293.345 -5.27617 -3.76197 0
M  V30 2994 N 286.751 1.08385 -1.14413 0
M  V30 2995 C 287.661 2.18856 -0.844951 0
M  V30 2996 C 288.677 1.73121 0.174668 0
M  V30 2997 O 289.853 2.014 0.00312857 0
M  V30 2998 C 286.918 3.45155 -0.32696 0
M  V30 2999 C 285.979 4.05513 -1.40916 0
M  V30 3000 C 285.212 5.25784 -0.915793 0
M  V30 3001 O 285.435 5.69884 0.242651 0
M  V30 3002 O 284.369 5.77545 -1.69487 0
M  V30 3003 H 288.195 2.46919 -1.76818 0
M  V30 3004 H 285.78 1.17524 -0.922411 0
M  V30 3005 H 287.662 4.21377 -0.0440211 0
M  V30 3006 H 286.337 3.18668 0.568539 0
M  V30 3007 H 285.244 3.30879 -1.74556 0
M  V30 3008 H 286.577 4.3625 -2.27919 0
M  V30 3009 N 288.23 0.939286 1.26551 0
M  V30 3010 C 289.163 0.391702 2.24813 0
M  V30 3011 C 290.141 -0.518421 1.54114 0
M  V30 3012 O 291.325 -0.456299 1.82894 0
M  V30 3013 C 288.452 -0.437382 3.35864 0
M  V30 3014 C 287.498 0.410946 4.24516 0
M  V30 3015 S 288.331 1.83372 5.03125 0
M  V30 3016 C 289.487 1.01264 6.17654 0
M  V30 3017 H 289.72 1.22448 2.70913 0
M  V30 3018 H 287.253 0.742269 1.35387 0
M  V30 3019 H 289.211 -0.909837 4.0029 0
M  V30 3020 H 287.872 -1.24482 2.8838 0
M  V30 3021 H 287.065 -0.224191 5.03501 0
M  V30 3022 H 286.667 0.818014 3.64945 0
M  V30 3023 H 288.959 0.254023 6.77024 0
M  V30 3024 H 289.902 1.77589 6.85469 0
M  V30 3025 H 290.31 0.549532 5.61819 0
M  V30 3026 N 289.708 -1.40897 0.706093 0
M  V30 3027 C 290.954 -2.01352 0.241889 0
M  V30 3028 C 291.287 -1.55832 -1.15888 0
M  V30 3029 O 290.562 -0.774145 -1.7843 0
M  V30 3030 C 290.845 -3.58752 0.311311 0
M  V30 3031 C 290.698 -4.1437 1.74978 0
M  V30 3032 C 292.017 -4.38914 -0.322922 0
M  V30 3033 H 289.136 -0.731562 0.0893687 0
M  V30 3034 H 291.778 -1.67504 0.896802 0
M  V30 3035 H 289.928 -3.87718 -0.246302 0
M  V30 3036 H 291.6 -3.96239 2.36205 0
M  V30 3037 H 289.843 -3.69016 2.28057 0
M  V30 3038 H 290.514 -5.23532 1.74981 0
M  V30 3039 H 292.99 -4.15822 0.152089 0
M  V30 3040 H 291.866 -5.48358 -0.243855 0
M  V30 3041 H 292.127 -4.19176 -1.40513 0
M  V30 3042 N 291.186 -0.45159 -1.50991 0
M  V30 3043 C 292.133 0.352625 -2.2809 0
M  V30 3044 C 293.103 1.0044 -1.32291 0
M  V30 3045 O 294.288 1.02058 -1.6121 0
M  V30 3046 C 291.428 1.43983 -3.13629 0
M  V30 3047 C 290.541 0.804772 -4.24438 0
M  V30 3048 C 289.676 1.86822 -4.97263 0
M  V30 3049 C 288.715 1.21236 -5.99973 0
M  V30 3050 N 287.852 2.2178 -6.66152 0
M  V30 3051 H 292.692 -0.311186 -2.96371 0
M  V30 3052 H 290.229 -0.165308 -1.46168 0
M  V30 3053 H 292.187 2.08161 -3.61559 0
M  V30 3054 H 290.817 2.07307 -2.47434 0
M  V30 3055 H 289.869 0.0509129 -3.80366 0
M  V30 3056 H 291.181 0.286076 -4.97979 0
M  V30 3057 H 290.335 2.58628 -5.48813 0
M  V30 3058 H 289.074 2.42068 -4.23385 0
M  V30 3059 H 288.079 0.479828 -5.47702 0
M  V30 3060 H 289.304 0.667051 -6.75816 0
M  V30 3061 H 287.25 2.76079 -5.95077 0
M  V30 3062 H 287.167 1.74841 -7.35504 0
M  V30 3063 H 288.435 2.93026 -7.22327 0
M  V30 3064 N 292.664 1.56529 -0.183458 0
M  V30 3065 C 293.574 2.22144 0.754272 0
M  V30 3066 C 294.59 1.21684 1.24374 0
M  V30 3067 O 295.766 1.54385 1.29333 0
M  V30 3068 C 292.831 2.85884 1.96141 0
M  V30 3069 C 291.892 4.01579 1.51765 0
M  V30 3070 C 291.125 4.6227 2.66725 0
M  V30 3071 O 291.348 4.21865 3.83909 0
M  V30 3072 O 290.282 5.51936 2.40104 0
M  V30 3073 H 294.108 3.02861 0.225527 0
M  V30 3074 H 291.693 1.49331 0.0453032 0
M  V30 3075 H 293.575 3.26253 2.66715 0
M  V30 3076 H 292.25 2.08154 2.47899 0
M  V30 3077 H 291.157 3.65856 0.781049 0
M  V30 3078 H 292.49 4.80938 1.04686 0
M  V30 3079 N 294.142 -0.090211 1.57342 0
M  V30 3080 C 295.391 -0.791531 1.8552 0
M  V30 3081 C 295.704 -1.79659 0.773441 0
M  V30 3082 O 296.91 -2.54616 0.942497 0
M  V30 3083 C 295.366 -1.45856 3.2902 0
M  V30 3084 C 294.974 -0.493017 4.45279 0
M  V30 3085 C 296.718 -2.14332 3.66418 0
M  V30 3086 C 294.625 -1.16491 5.79814 0
M  V30 3087 H 293.555 -0.299356 0.692027 0
M  V30 3088 H 296.206 -0.0445343 1.83446 0
M  V30 3089 H 294.588 -2.25318 3.2565 0
M  V30 3090 H 295.762 0.270464 4.60006 0
M  V30 3091 H 294.077 0.0863061 4.16311 0
M  V30 3092 H 296.674 -2.65344 4.64216 0
M  V30 3093 H 297.017 -2.93447 2.95287 0
M  V30 3094 H 297.55 -1.41724 3.71698 0
M  V30 3095 H 294.289 -0.41447 6.54188 0
M  V30 3096 H 293.809 -1.8997 5.68921 0
M  V30 3097 H 295.488 -1.69001 6.24538 0
M  V30 3098 N 295.62 -1.53406 -0.361157 0
M  V30 3099 C 296.55 -1.83136 -1.44857 0
M  V30 3100 C 297.531 -0.685174 -1.5569 0
M  V30 3101 O 298.716 -0.93544 -1.70186 0
M  V30 3102 C 295.846 -2.02522 -2.82138 0
M  V30 3103 C 294.8 -3.18302 -2.86126 0
M  V30 3104 C 294.126 -3.22989 -4.26125 0
M  V30 3105 C 295.426 -4.56796 -2.53248 0
M  V30 3106 H 297.12 -2.74201 -1.20226 0
M  V30 3107 H 294.666 -1.31938 -0.576922 0
M  V30 3108 H 296.619 -2.21904 -3.58241 0
M  V30 3109 H 295.343 -1.08172 -3.08166 0
M  V30 3110 H 294.002 -2.98747 -2.12475 0
M  V30 3111 H 293.65 -2.26267 -4.49235 0
M  V30 3112 H 293.35 -4.00781 -4.29708 0
M  V30 3113 H 294.874 -3.44559 -5.04094 0
M  V30 3114 H 296.288 -4.7631 -3.19064 0
M  V30 3115 H 294.685 -5.36862 -2.68141 0
M  V30 3116 H 295.755 -4.61606 -1.48484 0
M  V30 3117 N 297.098 0.621204 -1.44841 0
M  V30 3118 C 298.326 1.40752 -1.51646 0
M  V30 3119 C 298.741 1.88246 -0.144549 0
M  V30 3120 O 298.098 1.61422 0.851416 0
M  V30 3121 C 298.149 2.62119 -2.4895 0
M  V30 3122 O 297.87 2.16602 -3.80808 0
M  V30 3123 C 299.371 3.55135 -2.65319 0
M  V30 3124 H 296.591 0.431325 -0.514004 0
M  V30 3125 H 299.135 0.758835 -1.899 0
M  V30 3126 H 297.29 3.23058 -2.13805 0
M  V30 3127 H 297.704 2.95358 -4.33433 0
M  V30 3128 H 299.178 4.36874 -3.37409 0
M  V30 3129 H 299.655 4.04592 -1.70886 0
M  V30 3130 H 300.261 3.00058 -3.01405 0
M  V30 3131 N 298.576 1.31904 0.862503 0
M  V30 3132 C 299.539 1.20131 1.95195 0
M  V30 3133 C 300.539 0.126409 1.60302 0
M  V30 3134 O 301.729 0.376234 1.70089 0
M  V30 3135 C 298.861 0.845691 3.30244 0
M  V30 3136 H 300.054 2.16943 2.07064 0
M  V30 3137 H 297.607 1.15622 1.05172 0
M  V30 3138 H 298.342 -0.120957 3.24074 0
M  V30 3139 H 298.127 1.62276 3.56944 0
M  V30 3140 H 299.617 0.787418 4.10109 0
M  V30 3141 N 300.054 -1.07777 1.14986 0
M  V30 3142 C 300.984 -2.16865 0.865557 0
M  V30 3143 C 301.965 -1.69123 -0.182083 0
M  V30 3144 O 303.15 -1.94164 -0.0373815 0
M  V30 3145 C 300.28 -3.45539 0.349313 0
M  V30 3146 C 299.234 -4.06708 1.33313 0
M  V30 3147 C 298.56 -5.30411 0.675918 0
M  V30 3148 C 299.86 -4.47241 2.69764 0
M  V30 3149 H 301.554 -2.40905 1.77778 0
M  V30 3150 H 299.1 -1.15781 0.856203 0
M  V30 3151 H 301.053 -4.21174 0.137983 0
M  V30 3152 H 299.777 -3.21072 -0.598362 0
M  V30 3153 H 298.436 -3.33112 1.53075 0
M  V30 3154 H 298.084 -5.02232 -0.277767 0
M  V30 3155 H 297.784 -5.72293 1.33244 0
M  V30 3156 H 299.308 -6.08755 0.474262 0
M  V30 3157 H 300.722 -5.14025 2.53873 0
M  V30 3158 H 299.119 -5.00062 3.3175 0
M  V30 3159 H 300.189 -3.58818 3.26156 0
M  V30 3160 N 301.532 -0.945985 -1.26051 0
M  V30 3161 C 302.78 -0.594941 -1.93145 0
M  V30 3162 C 303.101 0.86953 -1.7454 0
M  V30 3163 O 302.371 1.61838 -1.10387 0
M  V30 3164 H 300.951 -0.217044 -0.714773 0
M  V30 3165 H 303.613 -1.20235 -1.53393 0
M  V30 3166 H 302.709 -0.816835 -3.01221 0
M  V30 3167 N 303.011 1.40521 -0.713556 0
M  V30 3168 C 303.941 2.33381 -0.0743864 0
M  V30 3169 C 304.922 1.52784 0.747735 0
M  V30 3170 O 306.107 1.81258 0.697071 0
M  V30 3171 C 303.237 3.36748 0.849598 0
M  V30 3172 C 302.191 4.27793 0.133247 0
M  V30 3173 C 301.517 5.21679 1.17281 0
M  V30 3174 C 302.817 5.12415 -1.01134 0
M  V30 3175 H 304.511 2.87081 -0.850007 0
M  V30 3176 H 302.057 1.38034 -0.410201 0
M  V30 3177 H 304.01 4.00648 1.30612 0
M  V30 3178 H 302.734 2.81439 1.65709 0
M  V30 3179 H 301.393 3.65342 -0.303426 0
M  V30 3180 H 301.041 4.62677 1.9733 0
M  V30 3181 H 300.741 5.83435 0.698397 0
M  V30 3182 H 302.265 5.88456 1.62947 0
M  V30 3183 H 303.679 5.69781 -0.634274 0
M  V30 3184 H 302.076 5.83203 -1.41399 0
M  V30 3185 H 303.146 4.48514 -1.84292 0
M  V30 3186 N 304.489 0.459591 1.5075 0
M  V30 3187 C 305.419 -0.330644 2.31147 0
M  V30 3188 C 306.4 -1.00087 1.37538 0
M  V30 3189 O 307.585 -1.00025 1.66459 0
M  V30 3190 C 304.715 -1.41958 3.16962 0
M  V30 3191 C 303.669 -0.871608 4.19031 0
M  V30 3192 C 302.995 -2.05797 4.9351 0
M  V30 3193 C 304.295 0.109251 5.22186 0
M  V30 3194 H 305.989 0.340336 2.97459 0
M  V30 3195 H 303.535 0.165119 1.4305 0
M  V30 3196 H 305.488 -1.9798 3.71997 0
M  V30 3197 H 304.212 -2.11917 2.48513 0
M  V30 3198 H 302.871 -0.333442 3.6508 0
M  V30 3199 H 302.519 -2.74427 4.21544 0
M  V30 3200 H 302.219 -1.6976 5.62544 0
M  V30 3201 H 303.743 -2.62331 5.51375 0
M  V30 3202 H 305.157 -0.361405 5.7216 0
M  V30 3203 H 303.554 0.383316 5.98875 0
M  V30 3204 H 304.624 1.03887 4.73641 0
M  V30 3205 N 305.967 -1.56429 0.191757 0
M  V30 3206 C 307.192 -2.02309 -0.456706 0
M  V30 3207 C 307.617 -1.07103 -1.5463 0
M  V30 3208 O 306.975 -0.0539677 -1.8122 0
M  V30 3209 C 307.023 -3.46654 -0.993159 0
M  V30 3210 O 306.127 -3.54559 -2.10622 0
M  V30 3211 H 305.468 -0.655303 -0.107114 0
M  V30 3212 H 307.998 -2.02364 0.301653 0
M  V30 3213 H 308.008 -3.86377 -1.31061 0
M  V30 3214 H 306.683 -4.1544 -0.195504 0
M  V30 3215 H 305.26 -3.26708 -1.79767 0
M  V30 3216 N 307.445 0.0818655 -1.57387 0
M  V30 3217 C 308.685 0.788375 -1.88584 0
M  V30 3218 C 309.049 1.75248 -0.784351 0
M  V30 3219 O 310.25 2.50334 -0.979105 0
M  V30 3220 C 308.521 1.48654 -3.25018 0
M  V30 3221 S 310.08 2.22951 -3.7794 0
M  V30 3222 H 306.898 0.262383 -0.660815 0
M  V30 3223 H 309.5 0.0448995 -1.95448 0
M  V30 3224 H 308.204 0.770919 -4.03094 0
M  V30 3225 H 307.735 2.26965 -3.21326 0
M  V30 3226 H 309.75 3.49309 -3.52417 0
M  V30 3227 N 308.923 1.53595 0.353017 0
M  V30 3228 C 309.886 1.80232 1.41594 0
M  V30 3229 C 310.886 0.673081 1.46035 0
M  V30 3230 O 312.076 0.941335 1.46576 0
M  V30 3231 C 309.208 1.93578 2.80607 0
M  V30 3232 H 310.401 2.75174 1.19244 0
M  V30 3233 H 307.954 1.44864 0.586872 0
M  V30 3234 H 308.689 1.00746 3.08254 0
M  V30 3235 H 308.474 2.75724 2.78781 0
M  V30 3236 H 309.964 2.15735 3.57558 0
M  V30 3237 N 310.401 -0.613514 1.45168 0
M  V30 3238 C 311.349 -1.74572 1.53712 0
M  V30 3239 C 312.343 -1.64426 0.407505 0
M  V30 3240 O 313.549 -1.70291 0.583176 0
M  V30 3241 H 309.924 -0.576641 0.48269 0
M  V30 3242 H 311.895 -1.64492 2.48968 0
M  V30 3243 C 310.644 -3.12943 1.51532 0
M  V30 3244 H 309.967 -3.21407 2.37776 0
M  V30 3245 H 311.407 -3.9201 1.61569 0
M  V30 3246 C 309.866 -3.36053 0.238798 0
M  V30 3247 O 310.396 -3.95837 -0.6838 0
M  V30 3248 N 308.602 -2.9028 0.136359 0
M  V30 3249 H 308.149 -2.41811 0.887999 0
M  V30 3250 H 308.107 -3.06116 -0.716944 0
M  V30 3251 N 311.879 -1.3236 -0.855495 0
M  V30 3252 C 313.107 -1.2587 -1.64208 0
M  V30 3253 C 313.522 0.173457 -1.88002 0
M  V30 3254 O 312.879 1.11027 -1.44842 0
M  V30 3255 C 312.93 -2.01424 -3.00184 0
M  V30 3256 O 312.651 -3.39051 -2.77445 0
M  V30 3257 C 314.152 -2.01948 -3.94629 0
M  V30 3258 H 311.372 -0.434318 -0.511477 0
M  V30 3259 H 313.916 -1.74469 -1.0668 0
M  V30 3260 H 312.071 -1.56549 -3.5436 0
M  V30 3261 H 312.485 -3.77711 -3.63916 0
M  V30 3262 H 313.959 -2.59297 -4.87308 0
M  V30 3263 H 314.436 -1.00554 -4.27534 0
M  V30 3264 H 315.042 -2.46767 -3.4639 0
M  V30 3265 N 313.357 1.07166 -1.15556 0
M  V30 3266 C 314.773 1.31899 -0.898603 0
M  V30 3267 C 314.973 1.96333 0.453383 0
M  V30 3268 O 314.029 2.22438 1.19489 0
M  V30 3269 C 315.342 2.20826 -2.04099 0
M  V30 3270 C 316.89 2.34269 -2.07574 0
M  V30 3271 C 317.365 3.26546 -3.21141 0
M  V30 3272 N 318.856 3.34127 -3.20801 0
M  V30 3273 C 319.591 4.05595 -4.05315 0
M  V30 3274 N 319.087 4.79661 -4.99897 0
M  V30 3275 N 320.88 4.01555 -3.93332 0
M  V30 3276 H 313.031 0.637302 -2.02613 0
M  V30 3277 H 315.294 0.343468 -0.883591 0
M  V30 3278 H 315 1.80744 -3.01703 0
M  V30 3279 H 314.874 3.21364 -1.97496 0
M  V30 3280 H 317.261 2.73603 -1.10568 0
M  V30 3281 H 317.342 1.33429 -2.18244 0
M  V30 3282 H 316.986 2.87931 -4.184 0
M  V30 3283 H 316.916 4.27345 -3.07708 0
M  V30 3284 H 319.407 2.81336 -2.52306 0
M  V30 3285 H 319.72 5.31694 -5.60822 0
M  V30 3286 H 318.065 4.78671 -5.03884 0
M  V30 3287 H 321.256 3.42806 -3.18751 0
M  V30 3288 H 321.429 4.56987 -4.5942 0
M  V30 3289 N 314.835 0.952656 1.25548 0
M  V30 3290 C 316.063 0.623496 1.97282 0
M  V30 3291 C 316.478 -0.803987 1.70826 0
M  V30 3292 O 315.835 -1.53755 0.983147 0
M  V30 3293 C 315.886 0.870209 3.5087 0
M  V30 3294 O 315.607 2.24156 3.76412 0
M  V30 3295 C 317.108 0.553164 4.39835 0
M  V30 3296 H 314.328 0.233931 0.628902 0
M  V30 3297 H 316.872 1.27649 1.59768 0
M  V30 3298 H 315.027 0.263652 3.86502 0
M  V30 3299 H 315.441 2.31021 4.70882 0
M  V30 3300 H 316.915 0.776342 5.46513 0
M  V30 3301 H 317.392 -0.512215 4.36203 0
M  V30 3302 H 317.998 1.13896 4.09766 0
M  V30 3303 N 316.313 -1.40141 0.720998 0
M  V30 3304 C 317.561 -2.0039 0.262323 0
M  V30 3305 C 317.882 -1.57469 -1.15015 0
M  V30 3306 O 317.152 -0.816582 -1.78069 0
M  V30 3307 H 315.732 -0.741063 0.093996 0
M  V30 3308 H 318.394 -1.71398 0.927835 0
M  V30 3309 H 317.49 -3.10658 0.299671 0
M  V30 3310 N 317.792 -0.46758 -1.50504 0
M  V30 3311 C 319.017 0.0886943 -2.0721 0
M  V30 3312 C 319.442 1.33057 -1.32956 0
M  V30 3313 O 318.8 1.77354 -0.376197 0
M  V30 3314 C 318.848 0.359202 -3.58806 0
M  V30 3315 O 317.952 1.44034 -3.8643 0
M  V30 3316 H 317.293 -0.0114349 -0.663902 0
M  V30 3317 H 319.823 -0.657613 -1.93744 0
M  V30 3318 H 319.833 0.600742 -4.03553 0
M  V30 3319 H 318.508 -0.548311 -4.1227 0
M  V30 3320 H 317.085 1.18638 -3.53524 0
M  V30 3321 N 319.27 1.56325 -0.20005 0
M  V30 3322 C 320.2 2.22318 0.713916 0
M  V30 3323 C 321.181 1.18788 1.21752 0
M  V30 3324 O 322.366 1.47309 1.26545 0
M  V30 3325 C 319.496 2.88639 1.93144 0
M  V30 3326 C 318.45 3.98457 1.56255 0
M  V30 3327 C 317.776 4.51967 2.85709 0
M  V30 3328 C 319.076 5.16612 0.768747 0
M  V30 3329 H 320.77 2.98952 0.163755 0
M  V30 3330 H 318.316 1.43792 0.0773219 0
M  V30 3331 H 320.269 3.33491 2.57608 0
M  V30 3332 H 318.993 2.09419 2.50621 0
M  V30 3333 H 317.652 3.54305 0.941471 0
M  V30 3334 H 317.3 3.69503 3.41287 0
M  V30 3335 H 317 5.26071 2.6177 0
M  V30 3336 H 318.524 4.99523 3.51154 0
M  V30 3337 H 319.938 5.57977 1.3166 0
M  V30 3338 H 318.335 5.96812 0.627286 0
M  V30 3339 H 319.405 4.84358 -0.229168 0
M  V30 3340 N 320.748 -0.0735177 1.57428 0
M  V30 3341 C 321.973 -0.789787 1.91774 0
M  V30 3342 C 322.398 -1.70413 0.796306 0
M  V30 3343 O 321.756 -1.79555 -0.250961 0
M  V30 3344 C 321.804 -1.5609 3.25067 0
M  V30 3345 O 320.908 -2.67144 3.14178 0
M  V30 3346 H 320.249 -0.215582 0.628029 0
M  V30 3347 H 322.779 -0.0422781 2.04556 0
M  V30 3348 H 322.789 -1.94052 3.58898 0
M  V30 3349 H 321.464 -0.890015 4.06265 0
M  V30 3350 H 320.041 -2.32052 2.91901 0
M  V30 3351 N 322.226 -1.5378 -0.344866 0
M  V30 3352 C 323.474 -1.70625 -1.08311 0
M  V30 3353 C 323.795 -0.471447 -1.89215 0
M  V30 3354 O 323.065 0.514616 -1.8902 0
M  V30 3355 H 321.645 -0.629058 -0.402859 0
M  V30 3356 H 324.307 -1.9103 -0.386459 0
M  V30 3357 H 323.403 -2.57656 -1.76124 0
M  V30 3358 N 323.704 0.605807 -1.45491 0
M  V30 3359 C 324.952 1.36207 -1.49305 0
M  V30 3360 C 325.273 1.94519 -0.136863 0
M  V30 3361 O 324.543 1.77261 0.833983 0
M  V30 3362 H 323.123 0.50565 -0.549843 0
M  V30 3363 H 325.785 0.711239 -1.81459 0
M  V30 3364 H 324.881 2.18058 -2.23287 0
M  V30 3365 N 325.182 1.32811 0.848464 0
M  V30 3366 C 326.114 1.18095 1.96433 0
M  V30 3367 C 327.127 0.114354 1.62398 0
M  V30 3368 O 328.316 0.363892 1.74751 0
M  V30 3369 C 325.416 0.786798 3.2964 0
M  V30 3370 C 324.589 1.943 3.91875 0
M  V30 3371 C 323.648 1.53138 5.03423 0
M  V30 3372 O 322.674 2.24432 5.23086 0
M  V30 3373 N 323.876 0.430915 5.78898 0
M  V30 3374 H 326.641 2.14218 2.09597 0
M  V30 3375 H 324.202 1.2543 1.02367 0
M  V30 3376 H 326.194 0.493715 4.01677 0
M  V30 3377 H 324.764 -0.0834541 3.12489 0
M  V30 3378 H 323.984 2.40224 3.12547 0
M  V30 3379 H 325.272 2.71689 4.30189 0
M  V30 3380 H 324.67 -0.162333 5.65467 0
M  V30 3381 H 323.227 0.197466 6.51501 0
M  V30 3382 N 326.66 -1.06551 1.16123 0
M  V30 3383 C 328.076 -1.3142 0.905585 0
M  V30 3384 C 328.276 -1.96571 -0.442964 0
M  V30 3385 O 327.332 -2.23068 -1.18308 0
M  V30 3386 C 328.645 -2.19741 2.05267 0
M  V30 3387 C 330.193 -2.33165 2.08813 0
M  V30 3388 C 330.668 -3.24838 3.22868 0
M  V30 3389 N 332.159 -3.32421 3.22568 0
M  V30 3390 C 332.894 -4.0344 4.0746 0
M  V30 3391 N 332.39 -4.77003 5.02434 0
M  V30 3392 N 334.183 -3.99464 3.95456 0
M  V30 3393 H 326.334 -0.626548 2.02949 0
M  V30 3394 H 328.597 -0.338777 0.8854 0
M  V30 3395 H 328.303 -1.79142 3.02657 0
M  V30 3396 H 328.177 -3.20313 1.99198 0
M  V30 3397 H 330.564 -2.73013 1.12018 0
M  V30 3398 H 330.645 -1.3227 2.18948 0
M  V30 3399 H 330.289 -2.85708 4.19921 0
M  V30 3400 H 330.219 -4.25707 3.0997 0
M  V30 3401 H 332.71 -2.79994 2.53795 0
M  V30 3402 H 333.023 -5.28712 5.63634 0
M  V30 3403 H 331.368 -4.75992 5.06415 0
M  V30 3404 H 334.559 -3.4111 3.20564 0
M  V30 3405 H 334.732 -4.54544 4.61837 0
M  V30 3406 N 328.138 -0.959301 -1.25041 0
M  V30 3407 C 329.085 -0.482057 -2.2571 0
M  V30 3408 C 330.055 0.467939 -1.59372 0
M  V30 3409 O 331.24 0.380159 -1.86974 0
M  V30 3410 C 328.38 0.229623 -3.44335 0
M  V30 3411 C 327.493 -0.758156 -4.25295 0
M  V30 3412 C 326.628 -0.0234403 -5.31195 0
M  V30 3413 C 325.667 -1.00184 -6.03846 0
M  V30 3414 N 324.804 -0.29769 -7.01469 0
M  V30 3415 H 329.644 -1.34538 -2.65901 0
M  V30 3416 H 327.181 -0.674592 -1.3072 0
M  V30 3417 H 329.139 0.658856 -4.11965 0
M  V30 3418 H 327.769 1.05696 -3.05005 0
M  V30 3419 H 326.821 -1.30586 -3.57284 0
M  V30 3420 H 328.133 -1.50458 -4.75567 0
M  V30 3421 H 327.287 0.464201 -6.04922 0
M  V30 3422 H 326.026 0.755741 -4.81809 0
M  V30 3423 H 325.031 -1.50044 -5.2893 0
M  V30 3424 H 326.256 -1.78133 -6.55321 0
M  V30 3425 H 324.202 0.462668 -6.54366 0
M  V30 3426 H 324.119 -0.983128 -7.4958 0
M  V30 3427 H 325.387 0.16826 -7.79318 0
M  V30 3428 N 329.616 1.39756 -0.72842 0
M  V30 3429 C 331.032 1.5442 -0.403308 0
M  V30 3430 C 331.232 1.69694 1.08656 0
M  V30 3431 O 330.288 1.69373 1.87267 0
M  V30 3432 C 331.601 2.76555 -1.18058 0
M  V30 3433 C 333.149 2.90384 -1.16815 0
M  V30 3434 C 333.624 4.15449 -1.92785 0
M  V30 3435 N 335.115 4.22475 -1.89918 0
M  V30 3436 C 335.85 5.1818 -2.45514 0
M  V30 3437 N 335.346 6.19714 -3.09719 0
M  V30 3438 N 337.139 5.1035 -2.35584 0
M  V30 3439 H 329.29 1.28089 -1.69431 0
M  V30 3440 H 331.553 0.620327 -0.716867 0
M  V30 3441 H 331.259 2.7159 -2.23455 0
M  V30 3442 H 331.133 3.69033 -0.780662 0
M  V30 3443 H 333.52 2.94846 -0.12234 0
M  V30 3444 H 333.601 1.98988 -1.6074 0
M  V30 3445 H 333.245 4.11749 -2.97364 0
M  V30 3446 H 333.175 5.05877 -1.46272 0
M  V30 3447 H 335.666 3.49743 -1.43138 0
M  V30 3448 H 335.979 6.8919 -3.49625 0
M  V30 3449 H 334.324 6.20121 -3.13807 0
M  V30 3450 H 337.515 4.2996 -1.85072 0
M  V30 3451 H 337.688 5.84761 -2.79211 0
M  V30 3452 N 331.094 0.475555 1.50254 0
M  V30 3453 C 332.024 -0.30611 2.31485 0
M  V30 3454 C 333.005 -0.986228 1.38591 0
M  V30 3455 O 334.19 -0.982541 1.67511 0
M  V30 3456 C 331.32 -1.38588 3.1845 0
M  V30 3457 C 330.274 -0.827115 4.19932 0
M  V30 3458 C 329.6 -2.00551 4.95665 0
M  V30 3459 C 330.9 0.16463 5.2204 0
M  V30 3460 H 332.594 0.371866 2.97082 0
M  V30 3461 H 330.14 0.180282 1.42867 0
M  V30 3462 H 332.093 -1.94023 3.74076 0
M  V30 3463 H 330.817 -2.09269 2.50747 0
M  V30 3464 H 329.476 -0.294702 3.65414 0
M  V30 3465 H 329.124 -2.6994 4.2443 0
M  V30 3466 H 328.824 -1.63784 5.64313 0
M  V30 3467 H 330.348 -2.56468 5.54127 0
M  V30 3468 H 331.762 -0.300699 5.72511 0
M  V30 3469 H 330.159 0.446813 5.98434 0
M  V30 3470 H 331.229 1.08905 4.72512 0
M  V30 3471 N 332.573 -1.56217 0.208337 0
M  V30 3472 C 333.536 -2.18455 -0.693557 0
M  V30 3473 C 334.536 -1.14268 -1.13135 0
M  V30 3474 O 335.726 -1.39577 -1.0423 0
M  V30 3475 C 332.858 -2.79727 -1.94848 0
M  V30 3476 H 334.051 -2.99519 -0.15114 0
M  V30 3477 H 331.604 -1.56245 -0.041287 0
M  V30 3478 H 332.339 -2.02497 -2.53309 0
M  V30 3479 H 332.124 -3.56009 -1.64316 0
M  V30 3480 H 333.614 -3.27475 -2.59133 0
M  V30 3481 N 334.051 0.0651679 -1.57465 0
M  V30 3482 C 335.3 0.761916 -1.86756 0
M  V30 3483 C 335.613 1.78406 -0.801925 0
M  V30 3484 O 336.819 2.53084 -0.982885 0
M  V30 3485 C 335.275 1.40603 -3.31299 0
M  V30 3486 C 334.883 0.422115 -4.46007 0
M  V30 3487 C 336.627 2.08476 -3.69781 0
M  V30 3488 C 334.534 1.07252 -5.81593 0
M  V30 3489 H 333.464 0.288308 -0.696702 0
M  V30 3490 H 336.115 0.015344 -1.83494 0
M  V30 3491 H 334.497 2.20109 -3.29193 0
M  V30 3492 H 335.671 -0.343613 -4.59517 0
M  V30 3493 H 333.986 -0.152527 -4.16121 0
M  V30 3494 H 336.583 2.57925 -4.68379 0
M  V30 3495 H 336.926 2.88712 -2.99919 0
M  V30 3496 H 337.459 1.35792 -3.73905 0
M  V30 3497 H 334.198 0.310342 -6.54765 0
M  V30 3498 H 333.718 1.80895 -5.71872 0
M  V30 3499 H 335.397 1.59043 -6.27148 0
M  V30 3500 N 335.529 1.53961 0.336706 0
M  V30 3501 C 336.492 1.81724 1.39675 0
M  V30 3502 C 337.492 0.688532 1.45313 0
M  V30 3503 O 338.682 0.956829 1.45569 0
M  V30 3504 C 335.814 1.96543 2.78538 0
M  V30 3505 H 337.007 2.76424 1.16318 0
M  V30 3506 H 334.56 1.45478 0.571474 0
M  V30 3507 H 335.295 1.0401 3.07168 0
M  V30 3508 H 335.08 2.78665 2.75841 0
M  V30 3509 H 336.57 2.19516 3.5525 0
M  V30 3510 N 337.007 -0.598083 1.45811 0
M  V30 3511 C 337.937 -1.71873 1.58057 0
M  V30 3512 C 338.918 -1.64533 0.431615 0
M  V30 3513 O 340.103 -1.82787 0.65595 0
M  V30 3514 C 337.233 -3.10495 1.55597 0
M  V30 3515 C 336.187 -3.32654 2.69305 0
M  V30 3516 C 335.513 -4.71646 2.51902 0
M  V30 3517 C 336.813 -3.21981 4.11248 0
M  V30 3518 H 338.507 -1.61881 2.51863 0
M  V30 3519 H 336.053 -0.777372 1.21214 0
M  V30 3520 H 338.006 -3.88699 1.6276 0
M  V30 3521 H 336.73 -3.2135 0.583255 0
M  V30 3522 H 335.389 -2.56843 2.61586 0
M  V30 3523 H 335.037 -4.79246 1.52748 0
M  V30 3524 H 334.737 -4.87426 3.2816 0
M  V30 3525 H 336.261 -5.52038 2.60933 0
M  V30 3526 H 337.675 -3.90049 4.20161 0
M  V30 3527 H 336.072 -3.49289 4.87972 0
M  V30 3528 H 337.142 -2.1928 4.32486 0
M  V30 3529 N 338.485 -1.33259 -0.841409 0
M  V30 3530 C 339.395 -1.25332 -1.98316 0
M  V30 3531 C 340.411 -0.164364 -1.73222 0
M  V30 3532 O 341.587 -0.387486 -1.97637 0
M  V30 3533 C 338.652 -0.990078 -3.32262 0
M  V30 3534 C 337.713 -2.16879 -3.70489 0
M  V30 3535 C 336.946 -1.91801 -4.98044 0
M  V30 3536 O 337.169 -0.867075 -5.63771 0
M  V30 3537 O 336.103 -2.78267 -5.33714 0
M  V30 3538 H 339.929 -2.21344 -2.07944 0
M  V30 3539 H 337.514 -1.1328 -0.974058 0
M  V30 3540 H 339.396 -0.860321 -4.12524 0
M  V30 3541 H 338.071 -0.0602155 -3.23644 0
M  V30 3542 H 336.978 -2.35407 -2.90748 0
M  V30 3543 H 338.311 -3.0819 -3.8377 0
M  V30 3544 N 339.963 1.05934 -1.16686 0
M  V30 3545 C 340.893 2.1546 -0.899949 0
M  V30 3546 C 341.874 1.69391 0.155154 0
M  V30 3547 O 343.059 1.94199 0.00648693 0
M  V30 3548 C 340.189 3.44939 -0.404241 0
M  V30 3549 C 339.143 4.04536 -1.39767 0
M  V30 3550 C 338.469 5.29268 -0.760216 0
M  V30 3551 C 339.769 4.42893 -2.76845 0
M  V30 3552 H 341.463 2.38046 -1.81588 0
M  V30 3553 H 339.009 1.14404 -0.874514 0
M  V30 3554 H 340.962 4.20901 -0.204971 0
M  V30 3555 H 339.686 3.21983 0.547206 0
M  V30 3556 H 338.345 3.30635 -1.58355 0
M  V30 3557 H 337.993 5.02611 0.197831 0
M  V30 3558 H 337.693 5.70101 -1.42332 0
M  V30 3559 H 339.217 6.07924 -0.57105 0
M  V30 3560 H 340.631 5.09921 -2.62019 0
M  V30 3561 H 339.028 4.94721 -3.39663 0
M  V30 3562 H 340.098 3.53584 -3.31823 0
M  V30 3563 N 341.441 0.965919 1.2453 0
M  V30 3564 C 342.687 0.62776 1.92839 0
M  V30 3565 C 343.02 -0.834694 1.75347 0
M  V30 3566 O 342.295 -1.60031 1.10546 0
M  V30 3567 C 342.578 1.00109 3.45905 0
M  V30 3568 C 342.431 2.52011 3.72573 0
M  V30 3569 C 343.75 0.53435 4.36844 0
M  V30 3570 H 340.869 0.229537 0.700344 0
M  V30 3571 H 343.511 1.2046 1.46933 0
M  V30 3572 H 341.661 0.510238 3.85135 0
M  V30 3573 H 343.333 3.08559 3.42912 0
M  V30 3574 H 341.576 2.95287 3.17786 0
M  V30 3575 H 342.247 2.73183 4.79661 0
M  V30 3576 H 344.723 0.955565 4.04979 0
M  V30 3577 H 343.599 0.824152 5.42678 0
M  V30 3578 H 343.86 -0.565589 4.38467 0
M  V30 3579 N 342.919 -1.39368 0.735821 0
M  V30 3580 C 343.867 -2.32443 0.0855131 0
M  V30 3581 C 344.861 -1.53104 -0.724954 0
M  V30 3582 O 346.067 -1.68762 -0.626047 0
M  V30 3583 H 342.442 -0.751948 0.00885257 0
M  V30 3584 H 344.413 -2.84916 0.886883 0
M  V30 3585 C 343.162 -3.38206 -0.806983 0
M  V30 3586 H 342.485 -3.99335 -0.19274 0
M  V30 3587 H 343.925 -4.05779 -1.2296 0
M  V30 3588 C 342.384 -2.75321 -1.94165 0
M  V30 3589 O 342.914 -2.63231 -3.03435 0
M  V30 3590 N 341.12 -2.33396 -1.73132 0
M  V30 3591 H 340.667 -2.4343 -0.842596 0
M  V30 3592 H 340.625 -1.91661 -2.49225 0
M  V30 3593 N 344.397 -0.483516 -1.5 0
M  V30 3594 C 345.345 0.318061 -2.30415 0
M  V30 3595 C 346.339 0.978988 -1.38247 0
M  V30 3596 O 347.545 0.908673 -1.55381 0
M  V30 3597 H 343.92 0.121419 -0.742133 0
M  V30 3598 H 345.891 -0.380403 -2.95965 0
M  V30 3599 C 344.64 1.38013 -3.19136 0
M  V30 3600 H 343.963 0.880952 -3.89973 0
M  V30 3601 H 345.403 1.91332 -3.78375 0
M  V30 3602 C 343.862 2.38884 -2.37563 0
M  V30 3603 O 344.392 3.44412 -2.06744 0
M  V30 3604 N 342.598 2.10912 -1.99911 0
M  V30 3605 H 342.145 1.25118 -2.25174 0
M  V30 3606 H 342.103 2.78635 -1.45636 0
M  V30 3607 N 345.875 1.56104 -0.216619 0
M  V30 3608 C 347.286 1.844 0.292128 0
M  V30 3609 C 347.637 1.13788 1.59833 0
M  V30 3610 O 346.762 0.405888 2.12559 0
M  V30 3611 C 347.357 3.3452 0.53681 0
M  V30 3612 C 345.916 3.63151 0.989876 0
M  V30 3613 C 345.063 2.77255 0.0502302 0
M  V30 3614 H 348.014 1.52481 -0.439926 0
M  V30 3615 H 348.035 3.54459 1.38345 0
M  V30 3616 H 347.547 3.85885 -0.414031 0
M  V30 3617 H 345.648 3.17238 1.95425 0
M  V30 3618 H 345.761 4.71177 0.867698 0
M  V30 3619 H 344.125 2.48555 0.556117 0
M  V30 3620 H 344.908 3.31416 -0.89544 0
M  V30 3621 N 347.353 -0.0568162 1.57498 0
M  V30 3622 C 348.764 -0.606858 1.76562 0
M  V30 3623 C 349.115 -1.77114 0.844094 0
M  V30 3624 O 348.24 -2.16376 0.0318911 0
M  V30 3625 C 348.835 -1.10766 3.20182 0
M  V30 3626 C 347.394 -1.60344 3.40539 0
M  V30 3627 C 346.541 -0.529311 2.72201 0
M  V30 3628 H 349.492 0.169393 1.57793 0
M  V30 3629 H 349.513 -1.97602 3.25167 0
M  V30 3630 H 349.025 -0.26006 3.87228 0
M  V30 3631 H 347.126 -2.47379 2.78629 0
M  V30 3632 H 347.239 -1.67006 4.4905 0
M  V30 3633 H 345.603 -0.977893 2.35179 0
M  V30 3634 H 346.386 0.308352 3.41912 0
M  V30 3635 N 348.832 -1.54138 -0.328536 0
M  V30 3636 C 350.078 -1.7236 -1.06865 0
M  V30 3637 C 350.411 -0.493231 -1.87832 0
M  V30 3638 O 349.686 0.5098 -1.877 0
M  V30 3639 C 349.969 -2.99621 -1.99747 0
M  V30 3640 C 349.822 -4.32899 -1.22143 0
M  V30 3641 C 351.141 -3.22615 -2.99345 0
M  V30 3642 H 348.26 -0.627151 -0.387105 0
M  V30 3643 H 350.902 -1.86827 -0.345767 0
M  V30 3644 H 349.052 -2.87418 -2.61387 0
M  V30 3645 H 350.724 -4.56978 -0.630017 0
M  V30 3646 H 348.967 -4.30628 -0.523628 0
M  V30 3647 H 349.638 -5.18154 -1.90318 0
M  V30 3648 H 352.114 -3.34248 -2.47826 0
M  V30 3649 H 350.99 -4.13027 -3.61524 0
M  V30 3650 H 351.251 -2.3961 -3.71536 0
M  V30 3651 N 350.31 0.590341 -1.46126 0
M  V30 3652 C 351.243 1.71434 -1.50617 0
M  V30 3653 C 352.221 1.58543 -0.360948 0
M  V30 3654 O 353.405 1.79865 -0.563985 0
M  V30 3655 C 350.532 3.09422 -1.37753 0
M  V30 3656 C 349.578 3.40854 -2.5636 0
M  V30 3657 S 350.411 3.33773 -4.18755 0
M  V30 3658 C 351.567 4.74312 -4.08386 0
M  V30 3659 H 351.8 1.67364 -2.45717 0
M  V30 3660 H 349.333 0.76845 -1.33919 0
M  V30 3661 H 351.291 3.8903 -1.31018 0
M  V30 3662 H 349.952 3.10989 -0.440949 0
M  V30 3663 H 349.145 4.41368 -2.43332 0
M  V30 3664 H 348.747 2.68798 -2.60046 0
M  V30 3665 H 351.039 5.64522 -3.74595 0
M  V30 3666 H 351.982 4.92397 -5.08872 0
M  V30 3667 H 352.39 4.50803 -3.3976 0
M  V30 3668 N 351.788 1.33704 0.83433 0
M  V30 3669 C 353.035 1.25417 1.58987 0
M  V30 3670 C 353.363 -0.178869 1.93676 0
M  V30 3671 O 352.618 -1.13723 1.59265 0
M  V30 3672 C 352.917 2.07926 2.90692 0
M  V30 3673 C 352.583 3.57066 2.75345 0
M  V30 3674 C 351.245 3.97724 2.70867 0
M  V30 3675 C 353.597 4.51817 2.59828 0
M  V30 3676 C 350.925 5.31344 2.48778 0
M  V30 3677 C 353.277 5.85604 2.39272 0
M  V30 3678 C 351.941 6.25439 2.33199 0
M  V30 3679 H 351.211 0.458934 0.581774 0
M  V30 3680 H 353.858 1.65335 0.966261 0
M  V30 3681 H 352.163 1.608 3.57282 0
M  V30 3682 H 353.86 1.98868 3.48213 0
M  V30 3683 H 350.45 3.24785 2.79665 0
M  V30 3684 H 354.634 4.21311 2.62319 0
M  V30 3685 H 349.89 5.61241 2.42526 0
M  V30 3686 H 354.064 6.58623 2.2625 0
M  V30 3687 H 351.691 7.28914 2.15843 0
M  V30 3688 N 353.266 -1.05314 1.17247 0
M  V30 3689 C 354.513 -1.78293 0.960091 0
M  V30 3690 C 354.841 -1.87658 -0.51136 0
M  V30 3691 O 354.096 -1.3718 -1.39571 0
M  V30 3692 C 354.395 -3.2229 1.54479 0
M  V30 3693 C 354.061 -3.32987 3.04024 0
M  V30 3694 C 352.723 -3.35613 3.44844 0
M  V30 3695 C 355.075 -3.34102 4.00031 0
M  V30 3696 C 352.403 -3.36982 4.8027 0
M  V30 3697 C 354.755 -3.3701 5.35357 0
M  V30 3698 C 353.419 -3.37923 5.75642 0
M  V30 3699 H 352.689 -0.652422 0.351322 0
M  V30 3700 H 355.336 -1.23782 1.46117 0
M  V30 3701 H 353.641 -3.7972 0.965391 0
M  V30 3702 H 355.338 -3.77376 1.35603 0
M  V30 3703 H 351.928 -3.31655 2.71483 0
M  V30 3704 H 356.112 -3.31276 3.69554 0
M  V30 3705 H 351.368 -3.35999 5.10798 0
M  V30 3706 H 355.542 -3.36822 6.09528 0
M  V30 3707 H 353.169 -3.38738 6.80559 0
M  V30 3708 N 354.744 -0.972509 -1.24016 0
M  V30 3709 C 356.021 -0.553733 -1.87598 0
M  V30 3710 C 356.401 0.969158 -1.87538 0
M  V30 3711 O 355.749 1.84255 -1.35139 0
M  V30 3712 C 355.959 -1.15076 -3.29482 0
M  V30 3713 C 357.307 -1.23862 -4.06132 0
M  V30 3714 O 358.331 -1.10363 -3.38672 0
M  V30 3715 O 357.19 -1.45252 -5.26844 0
M  V30 3716 H 354.284 -0.185331 -0.805966 0
M  V30 3717 H 356.83 -1.06709 -1.31952 0
M  V30 3718 H 355.602 -2.19333 -3.2405 0
M  V30 3719 H 355.225 -0.621746 -3.92709 0
M  V30 3720 N 356.222 1.38976 -0.743202 0
M  V30 3721 C 357.132 2.3434 -0.110399 0
M  V30 3722 C 358.148 1.58741 0.712559 0
M  V30 3723 O 359.324 1.9099 0.639125 0
M  V30 3724 C 356.389 3.37812 0.780012 0
M  V30 3725 C 355.45 4.29263 -0.0561319 0
M  V30 3726 C 354.683 5.27793 0.791875 0
M  V30 3727 O 354.906 5.33043 2.03031 0
M  V30 3728 O 353.84 6.01512 0.216183 0
M  V30 3729 H 357.666 2.90129 -0.897714 0
M  V30 3730 H 355.251 1.40643 -0.503966 0
M  V30 3731 H 357.133 4.01194 1.28923 0
M  V30 3732 H 355.808 2.84395 1.546 0
M  V30 3733 H 354.715 3.69076 -0.611056 0
M  V30 3734 H 356.048 4.85907 -0.784531 0
M  V30 3735 N 357.7 0.491464 1.49741 0
M  V30 3736 C 359.111 0.0413169 1.86654 0
M  V30 3737 C 359.462 -1.36985 1.40462 0
M  V30 3738 O 358.587 -2.01917 0.778354 0
M  V30 3739 C 359.182 0.0682023 3.38731 0
M  V30 3740 C 357.741 -0.32656 3.74981 0
M  V30 3741 C 356.888 0.444888 2.73708 0
M  V30 3742 H 359.839 0.704733 1.42194 0
M  V30 3743 H 359.86 -0.729322 3.73445 0
M  V30 3744 H 359.372 1.09539 3.72321 0
M  V30 3745 H 357.473 -1.35734 3.46997 0
M  V30 3746 H 357.586 -0.013741 4.79098 0
M  V30 3747 H 355.95 -0.104062 2.54487 0
M  V30 3748 H 356.733 1.47197 3.10142 0
M  V30 3749 N 359.178 -1.55987 0.224894 0
M  V30 3750 C 360.406 -2.02784 -0.410665 0
M  V30 3751 C 360.821 -1.10464 -1.53112 0
M  V30 3752 O 360.178 -0.114871 -1.82138 0
M  V30 3753 C 360.229 -3.49087 -0.939165 0
M  V30 3754 O 359.95 -4.37887 0.136614 0
M  V30 3755 C 361.451 -4.11543 -1.64763 0
M  V30 3756 H 358.671 -0.663484 -0.100148 0
M  V30 3757 H 361.215 -2.01614 0.342326 0
M  V30 3758 H 359.37 -3.50861 -1.64242 0
M  V30 3759 H 359.784 -5.23849 -0.261155 0
M  V30 3760 H 361.258 -5.15673 -1.96939 0
M  V30 3761 H 361.735 -3.56736 -2.56195 0
M  V30 3762 H 362.341 -4.13629 -0.989503 0
M  V30 3763 N 360.656 0.0484629 -1.57525 0
M  V30 3764 C 361.881 0.759177 -1.93006 0
M  V30 3765 C 362.306 1.69125 -0.823317 0
M  V30 3766 O 361.664 1.79931 0.222364 0
M  V30 3767 C 361.712 1.50899 -3.27509 0
M  V30 3768 O 360.816 2.62112 -3.18388 0
M  V30 3769 H 360.157 0.205564 -0.631379 0
M  V30 3770 H 362.687 0.00972959 -2.04598 0
M  V30 3771 H 362.697 1.88317 -3.6194 0
M  V30 3772 H 361.372 0.825269 -4.0763 0
M  V30 3773 H 359.949 2.27379 -2.95556 0
M  V30 3774 N 362.134 1.5431 0.320358 0
M  V30 3775 C 363.382 1.72327 1.05583 0
M  V30 3776 C 363.703 0.50149 1.88441 0
M  V30 3777 O 362.973 -0.48448 1.89815 0
M  V30 3778 H 361.553 0.635387 0.3928 0
M  V30 3779 H 364.215 1.91621 0.356019 0
M  V30 3780 H 363.311 2.60426 1.72003 0
M  V30 3781 N 363.613 -0.582584 1.46437 0
M  V30 3782 C 364.543 -1.70187 1.59871 0
M  V30 3783 C 365.524 -1.64066 0.449042 0
M  V30 3784 O 366.709 -1.82081 0.6753 0
M  V30 3785 C 363.839 -3.08827 1.58881 0
M  V30 3786 C 362.793 -3.29779 2.72819 0
M  V30 3787 C 362.119 -4.68947 2.5689 0
M  V30 3788 C 363.419 -3.17601 4.1464 0
M  V30 3789 H 365.113 -1.592 2.53566 0
M  V30 3790 H 362.659 -0.764472 1.22032 0
M  V30 3791 H 364.612 -3.86951 1.66873 0
M  V30 3792 H 363.336 -3.20713 0.617306 0
M  V30 3793 H 361.995 -2.54054 2.64296 0
M  V30 3794 H 361.643 -4.77599 1.57823 0
M  V30 3795 H 361.343 -4.83919 3.33312 0
M  V30 3796 H 362.867 -5.4924 2.66773 0
M  V30 3797 H 364.281 -3.8557 4.24274 0
M  V30 3798 H 362.678 -3.44094 4.9165 0
M  V30 3799 H 363.748 -2.14681 4.34788 0
M  V30 3800 N 365.091 -1.34144 -0.827227 0
M  V30 3801 C 366.368 -1.16844 -1.56865 0
M  V30 3802 C 366.748 0.260654 -2.09485 0
M  V30 3803 O 366.096 1.26138 -1.9053 0
M  V30 3804 C 366.306 -2.21939 -2.6934 0
M  V30 3805 C 367.654 -2.56695 -3.3822 0
M  V30 3806 O 368.678 -2.20695 -2.79593 0
M  V30 3807 O 367.537 -3.18518 -4.44082 0
M  V30 3808 H 364.631 -0.452669 -0.692112 0
M  V30 3809 H 367.177 -1.45763 -0.868973 0
M  V30 3810 H 365.949 -3.17882 -2.28182 0
M  V30 3811 H 365.572 -1.94172 -3.46962 0
M  V30 3812 N 366.569 1.04691 -1.17803 0
M  V30 3813 C 367.794 1.81984 -0.994813 0
M  V30 3814 C 368.219 1.82586 0.452112 0
M  V30 3815 O 367.577 1.23854 1.324 0
M  V30 3816 C 367.625 3.2575 -1.54659 0
M  V30 3817 O 366.729 4.05267 -0.763728 0
M  V30 3818 H 366.07 0.562483 -0.352857 0
M  V30 3819 H 368.6 1.3189 -1.56417 0
M  V30 3820 H 368.61 3.76541 -1.57102 0
M  V30 3821 H 367.285 3.24627 -2.59981 0
M  V30 3822 H 365.862 3.63972 -0.811108 0
M  V30 3823 N 368.047 0.979072 1.23499 0
M  V30 3824 C 369.01 0.523244 2.23147 0
M  V30 3825 C 370.01 -0.386406 1.56088 0
M  V30 3826 O 371.2 -0.180283 1.73265 0
M  V30 3827 C 368.332 -0.240739 3.40049 0
M  V30 3828 H 369.525 1.40432 2.64989 0
M  V30 3829 H 367.078 0.764824 1.36309 0
M  V30 3830 H 367.813 -1.13841 3.03662 0
M  V30 3831 H 367.598 0.412207 3.89927 0
M  V30 3832 H 369.088 -0.548297 4.13985 0
M  V30 3833 N 369.525 -1.3858 0.750561 0
M  V30 3834 C 370.75 -2.04997 0.314812 0
M  V30 3835 C 371.175 -1.56235 -1.04749 0
M  V30 3836 O 370.533 -0.712981 -1.66692 0
M  V30 3837 C 370.581 -3.58961 0.343415 0
M  V30 3838 O 369.685 -4.07025 -0.663628 0
M  V30 3839 H 369.026 -0.649081 0.139962 0
M  V30 3840 H 371.556 -1.77313 1.02084 0
M  V30 3841 H 371.566 -4.07542 0.193233 0
M  V30 3842 H 370.241 -3.93811 1.33738 0
M  V30 3843 H 368.818 -3.6982 -0.478307 0
M  V30 3844 N 371.003 -0.499398 -1.49478 0
M  V30 3845 C 372.243 0.0440751 -2.04352 0
M  V30 3846 C 372.607 1.34423 -1.37093 0
M  V30 3847 O 373.808 1.97184 -1.82679 0
M  V30 3848 C 372.079 0.194918 -3.56868 0
M  V30 3849 S 373.638 0.69287 -4.33295 0
M  V30 3850 H 370.456 0.00253458 -0.710995 0
M  V30 3851 H 373.058 -0.673 -1.83551 0
M  V30 3852 H 371.762 -0.756672 -4.03364 0
M  V30 3853 H 371.293 0.93728 -3.82071 0
M  V30 3854 H 373.308 1.96226 -4.55752 0
M  V30 3855 N 372.481 1.55866 -0.233164 0
M  V30 3856 C 373.728 1.98603 0.395374 0
M  V30 3857 C 374.056 1.12105 1.58942 0
M  V30 3858 O 373.311 0.168656 1.94972 0
M  V30 3859 C 373.61 3.46856 0.861724 0
M  V30 3860 C 373.276 4.50348 -0.223066 0
M  V30 3861 C 371.938 4.78371 -0.521038 0
M  V30 3862 C 374.29 5.12355 -0.956124 0
M  V30 3863 C 371.618 5.6568 -1.55638 0
M  V30 3864 C 373.97 6.00786 -1.98089 0
M  V30 3865 C 372.634 6.27148 -2.28565 0
M  V30 3866 H 371.904 0.726739 0.144677 0
M  V30 3867 H 374.551 1.88491 -0.338114 0
M  V30 3868 H 372.856 3.5423 1.67418 0
M  V30 3869 H 374.553 3.77302 1.35809 0
M  V30 3870 H 371.143 4.28596 0.0193234 0
M  V30 3871 H 375.327 4.90765 -0.739166 0
M  V30 3872 H 370.583 5.84365 -1.798 0
M  V30 3873 H 374.757 6.4788 -2.55391 0
M  V30 3874 H 372.384 6.94597 -3.08932 0
M  V30 3875 N 373.959 -0.0401083 1.57549 0
M  V30 3876 C 374.891 -1.07149 2.02612 0
M  V30 3877 C 375.904 -1.33126 0.937085 0
M  V30 3878 O 377.093 -1.30808 1.21456 0
M  V30 3879 C 374.193 -2.41561 2.37701 0
M  V30 3880 C 373.366 -2.35096 3.68848 0
M  V30 3881 C 372.425 -3.51867 3.91249 0
M  V30 3882 O 371.451 -3.3186 4.62447 0
M  V30 3883 N 372.653 -4.73351 3.36035 0
M  V30 3884 H 375.418 -0.687485 2.91708 0
M  V30 3885 H 372.979 -0.228248 1.60283 0
M  V30 3886 H 374.971 -3.18379 2.49833 0
M  V30 3887 H 373.541 -2.71846 1.54332 0
M  V30 3888 H 372.761 -1.4345 3.67173 0
M  V30 3889 H 374.049 -2.27908 4.54901 0
M  V30 3890 H 373.447 -4.92507 2.78304 0
M  V30 3891 H 372.004 -5.47572 3.53565 0
M  V30 3892 N 375.437 -1.54477 -0.31217 0
M  V30 3893 C 376.683 -1.73483 -1.0503 0
M  V30 3894 C 377.016 -0.513125 -1.87298 0
M  V30 3895 O 376.291 0.489864 -1.8823 0
M  V30 3896 C 376.574 -3.01723 -1.96558 0
M  V30 3897 C 376.427 -4.3417 -1.17545 0
M  V30 3898 C 377.746 -3.25772 -2.95907 0
M  V30 3899 H 374.865 -0.631222 -0.380432 0
M  V30 3900 H 377.507 -1.87184 -0.325932 0
M  V30 3901 H 375.657 -2.90174 -2.58324 0
M  V30 3902 H 377.329 -4.5762 -0.581513 0
M  V30 3903 H 375.572 -4.31159 -0.477925 0
M  V30 3904 H 376.243 -5.20143 -1.84811 0
M  V30 3905 H 378.719 -3.36857 -2.44267 0
M  V30 3906 H 377.595 -4.16838 -3.57123 0
M  V30 3907 H 377.856 -2.43537 -3.68974 0
M  V30 3908 N 376.915 0.57481 -1.46744 0
M  V30 3909 C 378.161 1.3347 -1.52688 0
M  V30 3910 C 378.494 1.93353 -0.181229 0
M  V30 3911 O 377.769 1.76912 0.808237 0
M  V30 3912 C 378.052 2.45811 -2.63152 0
M  V30 3913 C 377.905 1.90912 -4.07275 0
M  V30 3914 C 379.224 3.47822 -2.69644 0
M  V30 3915 H 376.343 0.483935 -0.555856 0
M  V30 3916 H 378.985 0.644968 -1.78718 0
M  V30 3917 H 377.135 3.04646 -2.41088 0
M  V30 3918 H 378.807 1.36473 -4.4065 0
M  V30 3919 H 377.05 1.21691 -4.16382 0
M  V30 3920 H 377.721 2.72042 -4.80309 0
M  V30 3921 H 380.197 2.9888 -2.895 0
M  V30 3922 H 379.073 4.23876 -3.48742 0
M  V30 3923 H 379.334 4.05555 -1.76005 0
M  V30 3924 N 378.394 1.34581 0.820102 0
M  V30 3925 C 379.619 1.30333 1.61332 0
M  V30 3926 C 380.044 -0.119339 1.87721 0
M  V30 3927 O 379.402 -1.08197 1.45475 0
M  V30 3928 C 379.45 2.10258 2.92957 0
M  V30 3929 O 378.554 1.47404 3.85157 0
M  V30 3930 H 377.895 0.447488 0.490561 0
M  V30 3931 H 380.425 1.77425 1.01889 0
M  V30 3932 H 380.435 2.21718 3.42498 0
M  V30 3933 H 379.11 3.13693 2.73074 0
M  V30 3934 H 377.687 1.44703 3.43679 0
M  V30 3935 N 379.872 -1.04064 1.18357 0
M  V30 3936 C 380.802 -2.14001 0.934113 0
M  V30 3937 C 381.783 -1.69616 -0.128186 0
M  V30 3938 O 382.968 -1.94185 0.0244093 0
M  V30 3939 C 380.098 -3.44253 0.459066 0
M  V30 3940 C 379.052 -4.02261 1.46185 0
M  V30 3941 C 378.378 -5.27992 0.844322 0
M  V30 3942 C 379.678 -4.38432 2.83856 0
M  V30 3943 H 381.372 -2.35127 1.85352 0
M  V30 3944 H 378.918 -1.12998 0.892604 0
M  V30 3945 H 380.871 -4.20522 0.271907 0
M  V30 3946 H 379.595 -3.22813 -0.495912 0
M  V30 3947 H 378.254 -3.28074 1.63595 0
M  V30 3948 H 377.902 -5.02862 -0.117845 0
M  V30 3949 H 377.602 -5.67765 1.51384 0
M  V30 3950 H 379.126 -6.06938 0.667693 0
M  V30 3951 H 380.54 -5.05688 2.70098 0
M  V30 3952 H 378.937 -4.89254 3.47491 0
M  V30 3953 H 380.007 -3.4826 3.37406 0
M  V30 3954 N 381.35 -0.985608 -1.22978 0
M  V30 3955 C 382.283 -0.47487 -2.23204 0
M  V30 3956 C 383.261 0.460865 -1.55932 0
M  V30 3957 O 384.445 0.388105 -1.84461 0
M  V30 3958 C 381.572 0.312427 -3.37256 0
M  V30 3959 C 380.618 -0.568219 -4.22698 0
M  V30 3960 S 381.451 -2.01919 -4.95973 0
M  V30 3961 C 382.607 -1.24118 -6.1347 0
M  V30 3962 H 382.84 -1.32419 -2.66181 0
M  V30 3963 H 380.373 -0.792005 -1.32539 0
M  V30 3964 H 382.331 0.760645 -4.03391 0
M  V30 3965 H 380.992 1.13693 -2.92801 0
M  V30 3966 H 380.185 0.0371657 -5.03986 0
M  V30 3967 H 379.787 -0.952897 -3.61657 0
M  V30 3968 H 382.079 -0.505121 -6.75614 0
M  V30 3969 H 383.022 -2.02907 -6.78406 0
M  V30 3970 H 383.43 -0.757669 -5.59392 0
M  V30 3971 N 382.828 1.3818 -0.7579 0
M  V30 3972 C 383.775 2.30416 -0.133057 0
M  V30 3973 C 384.745 1.50398 0.704957 0
M  V30 3974 O 385.93 1.79014 0.660192 0
M  V30 3975 C 383.07 3.36834 0.750813 0
M  V30 3976 C 382.183 4.31879 -0.102297 0
M  V30 3977 C 381.318 5.25368 0.784979 0
M  V30 3978 C 380.357 6.12058 -0.0715046 0
M  V30 3979 N 379.494 6.97832 0.772972 0
M  V30 3980 H 384.334 2.83274 -0.925186 0
M  V30 3981 H 381.871 1.39461 -0.467866 0
M  V30 3982 H 383.829 3.97145 1.27794 0
M  V30 3983 H 382.459 2.85374 1.50868 0
M  V30 3984 H 381.511 3.72991 -0.747095 0
M  V30 3985 H 382.823 4.92921 -0.763552 0
M  V30 3986 H 381.977 5.90818 1.37911 0
M  V30 3987 H 380.716 4.64703 1.47996 0
M  V30 3988 H 379.721 5.456 -0.678272 0
M  V30 3989 H 380.946 6.74793 -0.763606 0
M  V30 3990 H 378.892 6.3971 1.45282 0
M  V30 3991 H 378.809 7.55812 0.168709 0
M  V30 3992 H 380.077 7.67687 1.35194 0
M  V30 3993 N 384.306 0.507319 1.49211 0
M  V30 3994 C 385.554 -0.0348839 2.0207 0
M  V30 3995 C 385.875 -1.36898 1.38866 0
M  V30 3996 O 385.145 -1.88133 0.546151 0
M  V30 3997 H 383.725 -0.0158812 0.746831 0
M  V30 3998 H 386.387 0.665998 1.83168 0
M  V30 3999 H 385.483 -0.159917 3.1169 0
M  V30 4000 N 385.784 -1.5574 0.241426 0
M  V30 4001 C 386.714 -2.24133 -0.654722 0
M  V30 4002 C 387.695 -1.21974 -1.1856 0
M  V30 4003 O 388.88 -1.50612 -1.22595 0
M  V30 4004 C 386.01 -2.93659 -1.85423 0
M  V30 4005 C 384.964 -4.0246 -1.45636 0
M  V30 4006 C 384.29 -4.59383 -2.73626 0
M  V30 4007 C 385.59 -5.18468 -0.631506 0
M  V30 4008 H 387.284 -2.99281 -0.0844353 0
M  V30 4009 H 384.83 -1.43947 -0.0391707 0
M  V30 4010 H 386.783 -3.40203 -2.48676 0
M  V30 4011 H 385.507 -2.15991 -2.44981 0
M  V30 4012 H 384.166 -3.56676 -0.847202 0
M  V30 4013 H 383.814 -3.78422 -3.3137 0
M  V30 4014 H 383.514 -5.32826 -2.4773 0
M  V30 4015 H 385.038 -5.08658 -3.37786 0
M  V30 4016 H 386.452 -5.61272 -1.1682 0
M  V30 4017 H 384.849 -5.98266 -0.468831 0
M  V30 4018 H 385.919 -4.8358 0.357506 0
M  V30 4019 N 387.262 0.0317525 -1.57568 0
M  V30 4020 C 388.225 1.01783 -2.0536 0
M  V30 4021 C 389.225 1.29203 -0.957253 0
M  V30 4022 O 390.415 1.24251 -1.22095 0
M  V30 4023 C 387.547 2.35137 -2.46827 0
M  V30 4024 H 388.74 0.605062 -2.93733 0
M  V30 4025 H 386.293 0.278514 -1.53799 0
M  V30 4026 H 387.028 2.81168 -1.61602 0
M  V30 4027 H 386.813 2.16566 -3.26866 0
M  V30 4028 H 388.303 3.05938 -2.84239 0
M  V30 4029 N 388.74 1.54641 0.303973 0
M  V30 4030 C 389.672 1.81754 1.39636 0
M  V30 4031 C 390.685 0.70035 1.46966 0
M  V30 4032 O 391.874 0.97778 1.49338 0
M  V30 4033 C 388.974 1.93785 2.7803 0
M  V30 4034 C 388.147 3.24156 2.93669 0
M  V30 4035 C 387.206 3.26641 4.12544 0
M  V30 4036 O 386.232 4.00187 4.04771 0
M  V30 4037 N 387.434 2.5182 5.23036 0
M  V30 4038 H 390.199 2.76031 1.16734 0
M  V30 4039 H 387.76 1.54178 0.494033 0
M  V30 4040 H 389.752 1.92852 3.55795 0
M  V30 4041 H 388.322 1.06515 2.93893 0
M  V30 4042 H 387.542 3.37887 2.03042 0
M  V30 4043 H 388.83 4.10195 3.01027 0
M  V30 4044 H 388.228 1.91692 5.32232 0
M  V30 4045 H 386.785 2.56644 5.99147 0
M  V30 4046 N 390.218 -0.567019 1.47046 0
M  V30 4047 C 391.466 -1.322 1.52864 0
M  V30 4048 C 391.787 -1.94088 0.188388 0
M  V30 4049 O 391.057 -1.7941 -0.786693 0
M  V30 4050 H 389.637 -0.490894 0.563056 0
M  V30 4051 H 392.299 -0.662879 1.83281 0
M  V30 4052 H 391.395 -2.12062 2.2899 0
M  V30 4053 N 391.696 -1.35014 -0.812953 0
M  V30 4054 C 392.944 -1.27678 -1.56661 0
M  V30 4055 C 393.265 0.150359 -1.94419 0
M  V30 4056 O 392.535 1.08532 -1.63088 0
M  V30 4057 H 391.115 -0.469602 -0.580933 0
M  V30 4058 H 393.777 -1.69043 -0.970076 0
M  V30 4059 H 392.873 -1.88833 -2.48492 0
M  V30 4060 N 393.175 1.03435 -1.18907 0
M  V30 4061 C 394.591 1.28973 -0.940111 0
M  V30 4062 C 394.791 1.97676 0.390691 0
M  V30 4063 O 393.847 2.26127 1.12352 0
M  V30 4064 C 395.16 2.14221 -2.11021 0
M  V30 4065 C 396.708 2.27547 -2.14922 0
M  V30 4066 C 397.183 3.16164 -3.31367 0
M  V30 4067 N 398.674 3.23752 -3.31269 0
M  V30 4068 C 399.409 3.92495 -4.18014 0
M  V30 4069 N 398.905 4.63515 -5.14904 0
M  V30 4070 N 400.698 3.88838 -4.05908 0
M  V30 4071 H 392.849 0.57252 -2.04538 0
M  V30 4072 H 395.112 0.315184 -0.894071 0
M  V30 4073 H 394.818 1.71054 -3.073 0
M  V30 4074 H 394.692 3.14919 -2.0762 0
M  V30 4075 H 397.079 2.69947 -1.19217 0
M  V30 4076 H 397.16 1.26418 -2.22378 0
M  V30 4077 H 396.804 2.74474 -4.27348 0
M  V30 4078 H 396.734 4.17339 -3.21148 0
M  V30 4079 H 399.225 2.73167 -2.61129 0
M  V30 4080 H 399.538 5.13583 -5.77453 0
M  V30 4081 H 397.883 4.62398 -5.18857 0
M  V30 4082 H 401.074 3.32491 -3.29495 0
M  V30 4083 H 401.247 4.4214 -4.73726 0
M  V30 4084 N 394.653 0.992116 1.22453 0
M  V30 4085 C 395.878 0.685644 1.95739 0
M  V30 4086 C 396.303 -0.743 1.72804 0
M  V30 4087 O 395.661 -1.50778 1.00676 0
M  V30 4088 C 395.709 0.996293 3.46564 0
M  V30 4089 O 394.813 0.0945512 4.12292 0
M  V30 4090 H 394.154 0.256694 0.612376 0
M  V30 4091 H 396.684 1.32888 1.5557 0
M  V30 4092 H 396.694 0.93781 3.97076 0
M  V30 4093 H 395.369 2.03733 3.62582 0
M  V30 4094 H 393.946 0.208451 3.72317 0
M  V30 4095 N 396.131 -1.37776 0.765217 0
M  V30 4096 C 397.38 -1.99092 0.323307 0
M  V30 4097 C 397.693 -1.61434 -1.10446 0
M  V30 4098 O 398.899 -2.15805 -1.64743 0
M  V30 4099 C 397.355 -3.56019 0.527098 0
M  V30 4100 C 396.963 -4.0262 1.96471 0
M  V30 4101 C 398.707 -4.2424 0.148483 0
M  V30 4102 C 396.614 -5.52233 2.11644 0
M  V30 4103 H 395.544 -0.744846 0.117137 0
M  V30 4104 H 398.195 -1.57391 0.943417 0
M  V30 4105 H 396.577 -3.95667 -0.162372 0
M  V30 4106 H 397.751 -3.74234 2.68859 0
M  V30 4107 H 396.066 -3.47161 2.29931 0
M  V30 4108 H 398.663 -5.34159 0.240456 0
M  V30 4109 H 399.006 -4.06446 -0.900422 0
M  V30 4110 H 399.539 -3.89872 0.79025 0
M  V30 4111 H 396.278 -5.74945 3.1483 0
M  V30 4112 H 395.798 -5.82324 1.4373 0
M  V30 4113 H 397.477 -6.18106 1.91193 0
M  V30 4114 N 397.609 -0.515225 -1.4894 0
M  V30 4115 C 398.858 0.0261361 -2.01683 0
M  V30 4116 C 399.171 1.36719 -1.39883 0
M  V30 4117 O 400.377 1.99606 -1.84037 0
M  V30 4118 C 398.833 0.0970111 -3.59769 0
M  V30 4119 C 398.441 -1.23825 -4.30548 0
M  V30 4120 C 400.185 0.587981 -4.20408 0
M  V30 4121 C 398.092 -1.12877 -5.80528 0
M  V30 4122 H 397.022 0.0135398 -0.753878 0
M  V30 4123 H 399.673 -0.656787 -1.71343 0
M  V30 4124 H 398.055 0.844694 -3.86886 0
M  V30 4125 H 399.229 -2.00034 -4.15118 0
M  V30 4126 H 397.544 -1.66379 -3.81716 0
M  V30 4127 H 400.141 0.68763 -5.3026 0
M  V30 4128 H 400.484 1.59026 -3.84729 0
M  V30 4129 H 401.017 -0.103582 -3.97665 0
M  V30 4130 H 397.756 -2.10575 -6.20756 0
M  V30 4131 H 397.276 -0.407799 -5.98412 0
M  V30 4132 H 398.955 -0.813332 -6.41868 0
M  V30 4133 N 399.087 1.5561 -0.249682 0
M  V30 4134 C 400.327 2.00916 0.37579 0
M  V30 4135 C 400.691 1.13409 1.54927 0
M  V30 4136 O 401.892 1.48183 2.24266 0
M  V30 4137 C 400.163 3.48949 0.772633 0
M  V30 4138 S 401.722 4.16261 1.38824 0
M  V30 4139 H 398.54 0.70112 0.118117 0
M  V30 4140 H 401.142 1.92052 -0.365567 0
M  V30 4141 H 399.846 4.103 -0.090683 0
M  V30 4142 H 399.377 3.61745 1.5461 0
M  V30 4143 H 401.392 4.17778 2.67724 0
M  V30 4144 N 400.565 -0.0233959 1.57583 0
M  V30 4145 C 401.793 -0.724682 1.93794 0
M  V30 4146 C 402.208 -1.68588 0.849912 0
M  V30 4147 O 401.565 -1.81676 -0.173204 0
M  V30 4148 C 401.616 -1.47684 3.29957 0
M  V30 4149 O 401.337 -0.554222 4.3458 0
M  V30 4150 C 402.838 -2.27477 3.80485 0
M  V30 4151 H 400.058 -0.203317 0.639455 0
M  V30 4152 H 402.602 0.0207653 2.04489 0
M  V30 4153 H 400.757 -2.17412 3.20641 0
M  V30 4154 H 401.171 -1.08232 5.13212 0
M  V30 4155 H 402.645 -2.7564 4.78254 0
M  V30 4156 H 403.122 -3.09144 3.11972 0
M  V30 4157 H 403.728 -1.62813 3.92902 0
M  V30 4158 N 402.043 -1.548 -0.295768 0
M  V30 4159 C 403.292 -1.73538 -1.02798 0
M  V30 4160 C 403.605 -0.531159 -1.8825 0
M  V30 4161 O 404.811 -0.600458 -2.64777 0
M  V30 4162 C 403.267 -3.07051 -1.87744 0
M  V30 4163 C 402.875 -4.34968 -1.07269 0
M  V30 4164 C 404.619 -3.35146 -2.60533 0
M  V30 4165 C 402.526 -5.5953 -1.91521 0
M  V30 4166 H 401.456 -0.646794 -0.387522 0
M  V30 4167 H 404.107 -1.81278 -0.284718 0
M  V30 4168 H 402.489 -2.93289 -2.66078 0
M  V30 4169 H 403.663 -4.5958 -0.335117 0
M  V30 4170 H 401.978 -4.13847 -0.460384 0
M  V30 4171 H 404.575 -4.2541 -3.23929 0
M  V30 4172 H 404.918 -2.54255 -3.29636 0
M  V30 4173 H 405.451 -3.49902 -1.89244 0
M  V30 4174 H 402.19 -6.43103 -1.26878 0
M  V30 4175 H 401.71 -5.39096 -2.62937 0
M  V30 4176 H 403.389 -5.96982 -2.49442 0
M  V30 4177 N 403.521 0.559213 -1.47345 0
M  V30 4178 C 404.471 1.66192 -1.5609 0
M  V30 4179 C 405.455 1.55323 -0.419957 0
M  V30 4180 O 406.647 1.63839 -0.669762 0
M  V30 4181 C 403.776 3.0497 -1.57634 0
M  V30 4182 C 402.862 3.2105 -2.77106 0
M  V30 4183 N 403.253 3.07203 -4.01821 0
M  V30 4184 C 401.551 3.52046 -2.73825 0
M  V30 4185 C 402.252 3.25919 -4.81821 0
M  V30 4186 N 401.228 3.52161 -4.14106 0
M  V30 4187 H 405.03 1.54052 -2.5029 0
M  V30 4188 H 402.544 0.763914 -1.43311 0
M  V30 4189 H 404.541 3.84142 -1.61989 0
M  V30 4190 H 403.201 3.18224 -0.645281 0
M  V30 4191 H 404.212 2.84572 -4.32711 0
M  V30 4192 H 400.889 3.71839 -1.89848 0
M  V30 4193 H 402.279 3.20198 -5.90697 0
M  V30 4194 N 404.999 1.35443 0.805782 0
M  V30 4195 C 405.931 1.24285 1.92577 0
M  V30 4196 C 406.944 0.165962 1.61952 0
M  V30 4197 O 408.133 0.419303 1.73505 0
M  V30 4198 C 405.233 0.891272 3.2697 0
M  V30 4199 C 404.406 2.06669 3.85495 0
M  V30 4200 C 403.465 1.69077 4.98297 0
M  V30 4201 O 402.491 2.4096 5.15681 0
M  V30 4202 N 403.693 0.614869 5.77234 0
M  V30 4203 H 406.458 2.20777 2.02676 0
M  V30 4204 H 404.019 1.28623 0.983243 0
M  V30 4205 H 406.011 0.621256 3.99903 0
M  V30 4206 H 404.581 0.016004 3.12596 0
M  V30 4207 H 403.801 2.50046 3.04747 0
M  V30 4208 H 405.089 2.85237 4.21328 0
M  V30 4209 H 404.487 0.017648 5.65697 0
M  V30 4210 H 403.044 0.404636 6.50543 0
M  V30 4211 N 406.477 -1.02803 1.19454 0
M  V30 4212 C 407.888 -1.57667 0.999899 0
M  V30 4213 C 408.239 -1.91041 -0.446956 0
M  V30 4214 O 407.364 -1.70978 -1.32648 0
M  V30 4215 C 407.959 -2.86477 1.80877 0
M  V30 4216 C 406.518 -3.37911 1.65811 0
M  V30 4217 C 405.665 -2.11343 1.79526 0
M  V30 4218 H 408.616 -0.853214 1.33813 0
M  V30 4219 H 408.637 -3.57408 1.30536 0
M  V30 4220 H 408.149 -2.62155 2.86175 0
M  V30 4221 H 406.25 -3.67218 0.63102 0
M  V30 4222 H 406.363 -4.10885 2.46395 0
M  V30 4223 H 404.727 -2.23254 1.22596 0
M  V30 4224 H 405.51 -1.89461 2.86285 0
M  V30 4225 N 407.956 -0.998596 -1.21925 0
M  V30 4226 C 409.181 -0.696015 -1.95372 0
M  V30 4227 C 409.606 0.733826 -1.73195 0
M  V30 4228 O 408.964 1.50242 -1.01474 0
M  V30 4229 C 409.012 -1.01466 -3.4603 0
M  V30 4230 O 408.116 -0.116415 -4.12236 0
M  V30 4231 H 407.457 -0.259938 -0.611006 0
M  V30 4232 H 409.987 -1.33711 -1.54863 0
M  V30 4233 H 409.997 -0.958855 -3.96573 0
M  V30 4234 H 408.672 -2.05653 -3.61497 0
M  V30 4235 H 407.249 -0.228193 -3.72201 0
M  V30 4236 N 409.434 1.37368 -0.772513 0
M  V30 4237 C 410.397 2.28601 -0.165541 0
M  V30 4238 C 411.397 1.48062 0.627238 0
M  V30 4239 O 412.587 1.68268 0.450715 0
M  V30 4240 C 409.719 3.32023 0.772897 0
M  V30 4241 H 410.912 2.83787 -0.969787 0
M  V30 4242 H 408.465 1.46647 -0.540775 0
M  V30 4243 H 409.2 2.81962 1.60212 0
M  V30 4244 H 408.985 3.91555 0.206585 0
M  V30 4245 H 410.475 4.00197 1.19298 0
M  V30 4246 N 410.912 0.523116 1.48665 0
M  V30 4247 C 411.859 -0.243398 2.29513 0
M  V30 4248 C 412.829 -0.940139 1.36933 0
M  V30 4249 O 414.014 -0.942503 1.65896 0
M  V30 4250 C 411.154 -1.28855 3.20141 0
M  V30 4251 C 410.267 -0.60135 4.27794 0
M  V30 4252 C 409.402 -1.62884 5.05611 0
M  V30 4253 C 408.441 -0.924726 6.05075 0
M  V30 4254 N 407.578 -1.89744 6.75975 0
M  V30 4255 H 412.418 0.452234 2.94549 0
M  V30 4256 H 409.955 0.234858 1.45213 0
M  V30 4257 H 411.913 -1.90674 3.71079 0
M  V30 4258 H 410.543 -1.95266 2.57043 0
M  V30 4259 H 409.595 0.130623 3.80176 0
M  V30 4260 H 410.907 -0.0481585 4.98777 0
M  V30 4261 H 410.061 -2.32149 5.60528 0
M  V30 4262 H 408.8 -2.21592 4.34452 0
M  V30 4263 H 407.805 -0.217966 5.49368 0
M  V30 4264 H 409.03 -0.343851 6.78229 0
M  V30 4265 H 406.976 -2.47373 6.07571 0
M  V30 4266 H 406.893 -1.3955 7.43009 0
M  V30 4267 H 408.161 -2.58229 7.35485 0
M  V30 4268 N 412.39 -1.55475 0.257931 0
M  V30 4269 C 413.32 -2.24815 -0.630912 0
M  V30 4270 C 414.301 -1.23224 -1.17259 0
M  V30 4271 O 415.486 -1.51904 -1.20991 0
M  V30 4272 C 412.616 -2.95609 -1.82298 0
M  V30 4273 C 411.57 -4.03982 -1.41359 0
M  V30 4274 C 410.896 -4.6226 -2.68738 0
M  V30 4275 C 412.196 -5.19109 -0.57648 0
M  V30 4276 H 413.89 -2.99354 -0.0526878 0
M  V30 4277 H 411.436 -1.4398 -0.023901 0
M  V30 4278 H 413.389 -3.42822 -2.45054 0
M  V30 4279 H 412.113 -2.18577 -2.42676 0
M  V30 4280 H 410.772 -3.57555 -0.809324 0
M  V30 4281 H 410.42 -3.81915 -3.27338 0
M  V30 4282 H 410.12 -5.35424 -2.42065 0
M  V30 4283 H 411.644 -5.12212 -3.32372 0
M  V30 4284 H 413.058 -5.62479 -1.10861 0
M  V30 4285 H 411.455 -5.98729 -0.405351 0
M  V30 4286 H 412.525 -4.83174 0.408776 0
M  V30 4287 N 413.868 0.0150385 -1.57593 0
M  V30 4288 C 415.115 0.703001 -1.89906 0
M  V30 4289 C 415.443 1.74604 -0.856944 0
M  V30 4290 O 414.698 1.95197 0.140287 0
M  V30 4291 C 414.997 1.39686 -3.28972 0
M  V30 4292 C 414.663 0.488457 -4.48246 0
M  V30 4293 C 413.325 0.2383 -4.8061 0
M  V30 4294 C 415.677 -0.137881 -5.21018 0
M  V30 4295 C 413.005 -0.646738 -5.83125 0
M  V30 4296 C 415.357 -1.0107 -6.24474 0
M  V30 4297 C 414.021 -1.27019 -6.55303 0
M  V30 4298 H 413.291 0.257246 -0.694914 0
M  V30 4299 H 415.938 -0.037259 -1.91464 0
M  V30 4300 H 414.243 2.21079 -3.23468 0
M  V30 4301 H 415.94 1.93495 -3.51227 0
M  V30 4302 H 412.53 0.693593 -4.22951 0
M  V30 4303 H 416.714 0.0423953 -4.96282 0
M  V30 4304 H 411.97 -0.855937 -6.05379 0
M  V30 4305 H 416.144 -1.50247 -6.79999 0
M  V30 4306 H 413.771 -1.95769 -7.3456 0
M  V30 4307 N 415.346 1.54954 0.287554 0
M  V30 4308 C 416.256 1.8991 1.37736 0
M  V30 4309 C 417.272 0.794701 1.54792 0
M  V30 4310 O 418.448 1.09243 1.69198 0
M  V30 4311 C 415.513 2.15108 2.71899 0
M  V30 4312 C 414.574 3.38752 2.63715 0
M  V30 4313 C 413.807 3.62739 3.91479 0
M  V30 4314 O 414.03 2.89492 4.91478 0
M  V30 4315 O 412.964 4.56267 3.92561 0
M  V30 4316 H 416.79 2.82652 1.11092 0
M  V30 4317 H 414.375 1.41315 0.484807 0
M  V30 4318 H 416.257 2.32806 3.51254 0
M  V30 4319 H 414.932 1.25551 2.9836 0
M  V30 4320 H 413.839 3.26405 1.82786 0
M  V30 4321 H 415.172 4.28483 2.42205 0
M  V30 4322 N 416.824 -0.551391 1.4764 0
M  V30 4323 C 417.754 -1.66757 1.63445 0
M  V30 4324 C 418.735 -1.63077 0.483742 0
M  V30 4325 O 419.92 -1.80607 0.71377 0
M  V30 4326 C 417.05 -3.05387 1.65396 0
M  V30 4327 C 416.004 -3.23918 2.79752 0
M  V30 4328 C 415.33 -4.63393 2.66779 0
M  V30 4329 C 416.63 -3.08735 4.21284 0
M  V30 4330 H 418.324 -1.53786 2.56886 0
M  V30 4331 H 415.87 -0.738415 1.23626 0
M  V30 4332 H 417.823 -3.83325 1.75043 0
M  V30 4333 H 416.547 -3.19332 0.685195 0
M  V30 4334 H 415.206 -2.48391 2.69625 0
M  V30 4335 H 414.854 -4.74144 1.67918 0
M  V30 4336 H 414.554 -4.7674 3.43501 0
M  V30 4337 H 416.078 -5.43458 2.78364 0
M  V30 4338 H 417.492 -3.76484 4.32357 0
M  V30 4339 H 415.889 -3.33588 4.98838 0
M  V30 4340 H 416.959 -2.0541 4.39243 0
M  V30 4341 N 418.302 -1.35869 -0.798587 0
M  V30 4342 C 419.549 -1.29588 -1.55606 0
M  V30 4343 C 419.877 0.127456 -1.94082 0
M  V30 4344 O 419.132 1.09461 -1.62225 0
M  V30 4345 C 419.431 -2.1556 -2.85077 0
M  V30 4346 C 419.097 -3.6424 -2.65781 0
M  V30 4347 C 417.759 -4.04766 -2.60227 0
M  V30 4348 C 420.111 -4.58547 -2.47758 0
M  V30 4349 C 417.439 -5.37753 -2.34603 0
M  V30 4350 C 419.791 -5.91742 -2.23662 0
M  V30 4351 C 418.455 -6.31402 -2.16534 0
M  V30 4352 H 417.725 -0.474197 -0.569402 0
M  V30 4353 H 420.372 -1.67839 -0.922086 0
M  V30 4354 H 418.677 -1.70216 -3.52893 0
M  V30 4355 H 420.374 -2.08031 -3.42818 0
M  V30 4356 H 416.964 -3.32086 -2.70956 0
M  V30 4357 H 421.148 -4.28117 -2.51056 0
M  V30 4358 H 416.404 -5.67474 -2.2756 0
M  V30 4359 H 420.578 -6.6439 -2.08708 0
M  V30 4360 H 418.205 -7.34381 -1.96441 0
M  V30 4361 N 419.78 1.02168 -1.19998 0
M  V30 4362 C 421.057 1.72816 -0.916191 0
M  V30 4363 C 421.437 2.03081 0.576325 0
M  V30 4364 O 420.785 1.69122 1.53656 0
M  V30 4365 C 420.995 2.9997 -1.78378 0
M  V30 4366 C 422.343 3.73336 -2.02251 0
M  V30 4367 O 423.367 3.09914 -1.75589 0
M  V30 4368 O 422.226 4.87371 -2.47249 0
M  V30 4369 H 419.32 0.752924 -0.342103 0
M  V30 4370 H 421.866 1.08062 -1.30846 0
M  V30 4371 H 420.638 2.73888 -2.79466 0
M  V30 4372 H 420.261 3.72464 -1.39126 0
M  V30 4373 N 421.258 1.00505 1.21394 0
M  V30 4374 C 422.19 0.52372 2.23136 0
M  V30 4375 C 423.203 -0.387714 1.58116 0
M  V30 4376 O 424.392 -0.187905 1.77508 0
M  V30 4377 C 421.492 -0.258885 3.3791 0
M  V30 4378 C 420.665 0.651634 4.32519 0
M  V30 4379 C 419.724 -0.0813705 5.26137 0
M  V30 4380 O 418.75 0.537295 5.66658 0
M  V30 4381 N 419.952 -1.35992 5.64346 0
M  V30 4382 H 422.717 1.39865 2.65062 0
M  V30 4383 H 420.278 0.881196 1.35818 0
M  V30 4384 H 422.27 -0.758208 3.97534 0
M  V30 4385 H 420.84 -1.035 2.94968 0
M  V30 4386 H 420.06 1.33145 3.71034 0
M  V30 4387 H 421.348 1.27129 4.92662 0
M  V30 4388 H 420.746 -1.88368 5.33417 0
M  V30 4389 H 419.303 -1.8042 6.26332 0
M  V30 4390 N 422.737 -1.36956 0.779787 0
M  V30 4391 C 423.667 -2.32761 0.185651 0
M  V30 4392 C 424.648 -1.56177 -0.673989 0
M  V30 4393 O 425.833 -1.84378 -0.609797 0
M  V30 4394 C 422.963 -3.40418 -0.687964 0
M  V30 4395 C 421.917 -4.27941 0.0710102 0
M  V30 4396 C 421.243 -5.26681 -0.922573 0
M  V30 4397 C 422.543 -5.07006 1.25467 0
M  V30 4398 H 424.237 -2.82698 0.986008 0
M  V30 4399 H 421.783 -1.3592 0.475592 0
M  V30 4400 H 423.736 -4.06423 -1.11348 0
M  V30 4401 H 422.46 -2.89025 -1.52093 0
M  V30 4402 H 421.119 -3.63478 0.47739 0
M  V30 4403 H 420.767 -4.71565 -1.7503 0
M  V30 4404 H 420.467 -5.86103 -0.419237 0
M  V30 4405 H 421.991 -5.9556 -1.34686 0
M  V30 4406 H 423.405 -5.66105 0.905401 0
M  V30 4407 H 421.802 -5.75793 1.69063 0
M  V30 4408 H 422.872 -4.3921 2.05481 0
M  V30 4409 N 424.215 -0.530993 -1.48385 0
M  V30 4410 C 425.445 -0.00133928 -2.066 0
M  V30 4411 C 425.853 1.28599 -1.38777 0
M  V30 4412 O 425.196 1.77599 -0.469495 0
M  V30 4413 C 425.258 0.292137 -3.58311 0
M  V30 4414 C 424.922 -0.901864 -4.48013 0
M  V30 4415 C 425.919 -1.80053 -4.87726 0
M  V30 4416 C 423.604 -1.10915 -4.89901 0
M  V30 4417 C 425.598 -2.89038 -5.68098 0
M  V30 4418 C 423.285 -2.20213 -5.70043 0
M  V30 4419 C 424.283 -3.09107 -6.0905 0
M  V30 4420 O 423.971 -4.16514 -6.87583 0
M  V30 4421 H 423.703 -0.0308475 -0.675296 0
M  V30 4422 H 426.257 -0.736335 -1.91748 0
M  V30 4423 H 424.487 1.08112 -3.7128 0
M  V30 4424 H 426.176 0.763994 -3.98645 0
M  V30 4425 H 426.942 -1.65234 -4.55986 0
M  V30 4426 H 422.821 -0.426498 -4.59023 0
M  V30 4427 H 426.365 -3.58451 -5.98464 0
M  V30 4428 H 422.262 -2.35016 -6.01197 0
M  V30 4429 H 423.03 -4.14237 -7.05939 0
M  V30 4430 N 425.693 1.55336 -0.266172 0
M  V30 4431 C 426.939 1.99692 0.353681 0
M  V30 4432 C 427.272 1.1543 1.56172 0
M  V30 4433 O 426.547 0.222218 1.93226 0
M  V30 4434 C 426.83 3.52316 0.74466 0
M  V30 4435 C 426.683 4.47337 -0.470101 0
M  V30 4436 C 428.002 4.10588 1.58447 0
M  V30 4437 H 425.121 0.725961 0.12708 0
M  V30 4438 H 427.763 1.86336 -0.371333 0
M  V30 4439 H 425.913 3.63829 1.36239 0
M  V30 4440 H 427.585 4.4778 -1.10864 0
M  V30 4441 H 425.828 4.19364 -1.10978 0
M  V30 4442 H 426.499 5.51788 -0.15291 0
M  V30 4443 H 428.975 4.02297 1.06286 0
M  V30 4444 H 427.851 5.17607 1.82686 0
M  V30 4445 H 428.112 3.60253 2.56262 0
M  V30 4446 N 427.171 -0.0066808 1.57599 0
M  V30 4447 C 428.101 -0.999296 2.11036 0
M  V30 4448 C 429.082 -1.36278 1.01795 0
M  V30 4449 O 430.267 -1.4477 1.29442 0
M  V30 4450 C 427.397 -2.29328 2.60818 0
M  V30 4451 C 426.351 -2.07159 3.74525 0
M  V30 4452 C 425.677 -3.42512 4.10596 0
M  V30 4453 C 426.977 -1.43959 5.02069 0
M  V30 4454 H 428.671 -0.554382 2.94223 0
M  V30 4455 H 426.217 -0.265221 1.41536 0
M  V30 4456 H 428.17 -2.99117 2.96828 0
M  V30 4457 H 426.894 -2.7592 1.74745 0
M  V30 4458 H 425.553 -1.39797 3.38899 0
M  V30 4459 H 425.201 -3.86795 3.21556 0
M  V30 4460 H 424.901 -3.28498 4.87199 0
M  V30 4461 H 426.425 -4.13628 4.4916 0
M  V30 4462 H 427.839 -2.03696 5.35893 0
M  V30 4463 H 426.236 -1.40452 5.83432 0
M  V30 4464 H 427.306 -0.407992 4.83181 0
M  V30 4465 N 428.649 -1.55105 -0.279332 0
M  V30 4466 C 429.874 -1.7976 -1.03446 0
M  V30 4467 C 430.299 -0.565952 -1.79384 0
M  V30 4468 O 429.657 0.484259 -1.74713 0
M  V30 4469 C 429.705 -3.0179 -1.97371 0
M  V30 4470 O 428.809 -2.76432 -3.06038 0
M  V30 4471 H 428.15 -0.594334 -0.29608 0
M  V30 4472 H 430.68 -2.02235 -0.310165 0
M  V30 4473 H 430.69 -3.30351 -2.39441 0
M  V30 4474 H 429.365 -3.91085 -1.4151 0
M  V30 4475 H 427.942 -2.58949 -2.68328 0
M  V30 4476 N 430.127 0.543554 -1.4793 0
M  V30 4477 C 431.059 1.665 -1.57513 0
M  V30 4478 C 432.072 1.56156 -0.460333 0
M  V30 4479 O 433.261 1.62865 -0.730573 0
M  V30 4480 C 430.361 3.05063 -1.47614 0
M  V30 4481 C 429.534 3.41024 -2.739 0
M  V30 4482 C 428.593 4.58809 -2.57645 0
M  V30 4483 O 427.619 4.62707 -3.31498 0
M  V30 4484 N 428.821 5.56149 -1.66368 0
M  V30 4485 H 431.586 1.5872 -2.5422 0
M  V30 4486 H 429.147 0.730517 -1.44482 0
M  V30 4487 H 431.139 3.81712 -1.34455 0
M  V30 4488 H 429.709 3.06994 -0.589359 0
M  V30 4489 H 428.929 2.53687 -3.01723 0
M  V30 4490 H 430.217 3.61831 -3.57709 0
M  V30 4491 H 429.615 5.55767 -1.05543 0
M  V30 4492 H 428.172 6.32071 -1.59154 0
M  V30 4493 N 431.605 1.3629 0.791371 0
M  V30 4494 C 432.853 1.30154 1.5461 0
M  V30 4495 C 433.174 -0.119409 1.94634 0
M  V30 4496 O 432.444 -1.05924 1.64794 0
M  V30 4497 H 431.024 0.478784 0.573389 0
M  V30 4498 H 433.686 1.70565 0.94306 0
M  V30 4499 H 432.782 1.92762 2.45457 0
M  V30 4500 N 433.083 -1.0153 1.20538 0
M  V30 4501 C 434.015 -2.10224 0.913155 0
M  V30 4502 C 435.028 -1.62495 -0.0995998 0
M  V30 4503 O 436.217 -1.78014 0.131582 0
M  V30 4504 C 433.317 -3.37111 0.347717 0
M  V30 4505 C 432.49 -4.13971 1.41233 0
M  V30 4506 C 431.549 -5.19158 0.857976 0
M  V30 4507 O 430.575 -5.48 1.53897 0
M  V30 4508 N 431.777 -5.7955 -0.331966 0
M  V30 4509 H 434.542 -2.35879 1.84881 0
M  V30 4510 H 432.103 -1.17931 1.10923 0
M  V30 4511 H 434.095 -4.04683 -0.0373026 0
M  V30 4512 H 432.665 -3.08696 -0.492527 0
M  V30 4513 H 431.885 -3.41351 1.97163 0
M  V30 4514 H 433.173 -4.62103 2.12928 0
M  V30 4515 H 432.571 -5.58455 -0.902478 0
M  V30 4516 H 431.128 -6.48464 -0.65861 0
M  V30 4517 N 434.561 -1.01147 -1.20859 0
M  V30 4518 C 435.801 -0.706331 -1.91808 0
M  V30 4519 C 436.165 0.749736 -1.76757 0
M  V30 4520 O 437.366 1.16716 -2.42138 0
M  V30 4521 C 435.637 -1.12371 -3.39275 0
M  V30 4522 S 437.196 -0.939764 -4.28619 0
M  V30 4523 H 434.014 -0.257665 -0.662669 0
M  V30 4524 H 436.616 -1.29766 -1.46223 0
M  V30 4525 H 435.32 -2.17943 -3.47749 0
M  V30 4526 H 434.851 -0.524952 -3.89882 0
M  V30 4527 H 436.866 0.159556 -4.95943 0
M  V30 4528 N 436.039 1.36541 -0.78704 0
M  V30 4529 C 437.285 1.99599 -0.358872 0
M  V30 4530 C 437.618 1.62323 1.06606 0
M  V30 4531 O 436.893 0.876858 1.73613 0
M  V30 4532 C 437.176 3.56327 -0.519944 0
M  V30 4533 C 437.029 4.03464 -1.98839 0
M  V30 4534 C 438.348 4.4005 0.0664737 0
M  V30 4535 H 435.467 0.725107 -0.131869 0
M  V30 4536 H 438.109 1.6199 -0.992936 0
M  V30 4537 H 436.259 3.88495 0.0198321 0
M  V30 4538 H 437.931 3.81793 -2.58905 0
M  V30 4539 H 436.174 3.55092 -2.49183 0
M  V30 4540 H 436.845 5.12439 -2.05207 0
M  V30 4541 H 439.321 4.14228 -0.394267 0
M  V30 4542 H 438.197 5.48847 -0.0762682 0
M  V30 4543 H 438.458 4.26655 1.15835 0
M  V30 4544 N 437.518 0.538854 1.48102 0
M  V30 4545 C 438.748 0.0122958 2.06596 0
M  V30 4546 C 439.156 -1.27861 1.39457 0
M  V30 4547 O 438.499 -1.77348 0.478907 0
M  V30 4548 C 438.561 -0.273131 3.58461 0
M  V30 4549 C 438.225 0.92561 4.47528 0
M  V30 4550 C 439.222 1.82637 4.86765 0
M  V30 4551 C 436.907 1.13511 4.89306 0
M  V30 4552 C 438.901 2.92047 5.66558 0
M  V30 4553 C 436.588 2.23233 5.68868 0
M  V30 4554 C 437.586 3.12333 6.07402 0
M  V30 4555 O 437.274 4.20155 6.85365 0
M  V30 4556 H 437.006 0.0344283 0.675123 0
M  V30 4557 H 439.56 0.746494 1.91355 0
M  V30 4558 H 437.79 -1.06141 3.71848 0
M  V30 4559 H 439.479 -0.742842 3.99045 0
M  V30 4560 H 440.245 1.67649 4.55103 0
M  V30 4561 H 436.124 0.450835 4.5879 0
M  V30 4562 H 439.668 3.6162 5.96554 0
M  V30 4563 H 435.565 2.38201 5.99942 0
M  V30 4564 H 436.333 4.17975 7.03732 0
M  V30 4565 N 438.996 -1.55193 0.274407 0
M  V30 4566 C 440.412 -1.59401 -0.0797543 0
M  V30 4567 C 440.612 -1.29162 -1.54659 0
M  V30 4568 O 439.668 -1.05215 -2.29534 0
M  V30 4569 C 440.981 -2.99257 0.294238 0
M  V30 4570 C 442.529 -3.12072 0.240796 0
M  V30 4571 C 443.004 -4.54194 0.589218 0
M  V30 4572 N 444.495 -4.60033 0.540744 0
M  V30 4573 C 445.23 -5.68027 0.783147 0
M  V30 4574 N 444.726 -6.8417 1.09013 0
M  V30 4575 N 446.519 -5.57572 0.711993 0
M  V30 4576 H 438.67 -1.73113 1.23067 0
M  V30 4577 H 440.933 -0.807197 0.497129 0
M  V30 4578 H 440.639 -3.26217 1.31435 0
M  V30 4579 H 440.513 -3.75427 -0.365281 0
M  V30 4580 H 442.9 -2.84877 -0.770024 0
M  V30 4581 H 442.981 -2.38117 0.934563 0
M  V30 4582 H 442.625 -4.82115 1.59772 0
M  V30 4583 H 442.555 -5.26448 -0.126331 0
M  V30 4584 H 445.046 -3.76599 0.313327 0
M  V30 4585 H 445.359 -7.6243 1.26178 0
M  V30 4586 H 443.704 -6.85787 1.12789 0
M  V30 4587 H 446.895 -4.65714 0.472014 0
M  V30 4588 H 447.068 -6.41659 0.90429 0
M  V30 4589 N 440.474 -0.00167713 -1.576 0
M  V30 4590 C 441.722 0.681471 -1.90264 0
M  V30 4591 C 442.043 1.7422 -0.875924 0
M  V30 4592 O 441.313 1.95709 0.0864412 0
M  V30 4593 H 439.893 0.254696 -0.702239 0
M  V30 4594 H 442.555 -0.0429996 -1.94853 0
M  V30 4595 H 441.651 1.15166 -2.90075 0
M  V30 4596 N 441.952 1.55251 0.271103 0
M  V30 4597 C 442.899 1.88261 1.33516 0
M  V30 4598 C 443.869 0.734296 1.48988 0
M  V30 4599 O 445.054 0.985741 1.63364 0
M  V30 4600 C 442.194 2.16168 2.69008 0
M  V30 4601 C 441.307 3.43678 2.61743 0
M  V30 4602 C 440.442 3.61276 3.89427 0
M  V30 4603 C 439.481 4.82472 3.7668 0
M  V30 4604 N 438.618 4.96717 4.96202 0
M  V30 4605 H 443.458 2.79015 1.04665 0
M  V30 4606 H 440.995 1.38137 0.505618 0
M  V30 4607 H 442.953 2.30349 3.47844 0
M  V30 4608 H 441.583 1.28646 2.96057 0
M  V30 4609 H 440.635 3.37959 1.74607 0
M  V30 4610 H 441.947 4.3265 2.48224 0
M  V30 4611 H 441.101 3.75284 4.76704 0
M  V30 4612 H 439.84 2.70492 4.05814 0
M  V30 4613 H 438.845 4.68465 2.87786 0
M  V30 4614 H 440.07 5.74692 3.61809 0
M  V30 4615 H 438.016 4.08865 5.12997 0
M  V30 4616 H 437.933 5.79738 4.85222 0
M  V30 4617 H 439.201 5.15113 5.85046 0
M  V30 4618 N 443.43 -0.535701 1.48216 0
M  V30 4619 C 444.676 -1.29375 1.56173 0
M  V30 4620 C 445.009 -1.92804 0.232429 0
M  V30 4621 O 444.284 -1.78992 -0.761048 0
M  V30 4622 C 444.567 -2.38747 2.69577 0
M  V30 4623 C 444.42 -1.80046 4.12193 0
M  V30 4624 C 445.739 -3.40551 2.78771 0
M  V30 4625 H 442.858 -0.469027 0.568491 0
M  V30 4626 H 445.5 -0.597358 1.80365 0
M  V30 4627 H 443.65 -2.98147 2.4908 0
M  V30 4628 H 445.322 -1.24742 4.44114 0
M  V30 4629 H 443.565 -1.10609 4.19462 0
M  V30 4630 H 444.236 -2.59212 4.87353 0
M  V30 4631 H 446.712 -2.91099 2.97322 0
M  V30 4632 H 445.588 -4.1448 3.59857 0
M  V30 4633 H 445.849 -4.00746 1.86696 0
M  V30 4634 N 444.908 -1.36708 -0.784132 0
M  V30 4635 C 446.148 -1.32618 -1.55537 0
M  V30 4636 C 446.512 0.0920681 -1.91779 0
M  V30 4637 O 447.713 0.257573 -2.67563 0
M  V30 4638 C 445.984 -2.22788 -2.79464 0
M  V30 4639 S 447.543 -2.36432 -3.69656 0
M  V30 4640 H 444.361 -0.470973 -0.53264 0
M  V30 4641 H 446.963 -1.72333 -0.92312 0
M  V30 4642 H 445.667 -3.24774 -2.50899 0
M  V30 4643 H 445.198 -1.84112 -3.47658 0
M  V30 4644 H 447.213 -1.56573 -4.7085 0
M  V30 4645 N 446.386 1.0089 -1.21074 0
M  V30 4646 C 447.334 2.11707 -0.963476 0
M  V30 4647 C 448.328 1.69172 0.0879032 0
M  V30 4648 O 449.534 1.79889 -0.0631415 0
M  V30 4649 H 445.909 0.692026 -0.294287 0
M  V30 4650 H 447.88 2.29743 -1.90422 0
M  V30 4651 C 446.629 3.43473 -0.540509 0
M  V30 4652 H 445.952 3.76634 -1.34114 0
M  V30 4653 H 447.392 4.22044 -0.406777 0
M  V30 4654 C 445.851 3.2849 0.748079 0
M  V30 4655 O 446.381 3.58883 1.8046 0
M  V30 4656 N 444.587 2.81715 0.713081 0
M  V30 4657 H 444.134 2.5718 -0.146973 0
M  V30 4658 H 444.092 2.72071 1.57558 0
M  V30 4659 N 447.864 1.01787 1.20321 0
M  V30 4660 C 448.794 0.609625 2.25401 0
M  V30 4661 C 449.775 -0.375951 1.65893 0
M  V30 4662 O 450.96 -0.261101 1.92437 0
M  V30 4663 C 448.09 -0.0515995 3.47262 0
M  V30 4664 C 447.044 0.855095 4.19371 0
M  V30 4665 C 446.37 0.0595757 5.34667 0
M  V30 4666 C 447.67 2.16374 4.75373 0
M  V30 4667 H 449.364 1.48803 2.59804 0
M  V30 4668 H 446.91 0.716934 1.24884 0
M  V30 4669 H 448.863 -0.348764 4.19954 0
M  V30 4670 H 447.587 -0.964726 3.12027 0
M  V30 4671 H 446.246 1.13628 3.48546 0
M  V30 4672 H 445.894 -0.85524 4.95676 0
M  V30 4673 H 445.594 0.663406 5.83843 0
M  V30 4674 H 447.118 -0.231105 6.10162 0
M  V30 4675 H 448.532 1.92885 5.39878 0
M  V30 4676 H 446.929 2.71853 5.34991 0
M  V30 4677 H 447.999 2.82589 3.94045 0
M  V30 4678 N 449.342 -1.36122 0.79427 0
M  V30 4679 C 450.588 -1.99406 0.369452 0
M  V30 4680 C 450.921 -1.62886 -1.05743 0
M  V30 4681 O 450.196 -0.886053 -1.73145 0
M  V30 4682 C 450.479 -3.56046 0.538833 0
M  V30 4683 C 450.332 -4.02404 2.00976 0
M  V30 4684 C 451.651 -4.40079 -0.0431359 0
M  V30 4685 H 448.77 -0.724397 0.135712 0
M  V30 4686 H 451.412 -1.61461 1.00151 0
M  V30 4687 H 449.562 -3.885 0.000771004 0
M  V30 4688 H 451.234 -3.80415 2.60926 0
M  V30 4689 H 449.477 -3.53765 2.51063 0
M  V30 4690 H 450.148 -5.11344 2.07922 0
M  V30 4691 H 452.624 -4.14013 0.416228 0
M  V30 4692 H 451.5 -5.48799 0.105374 0
M  V30 4693 H 451.761 -4.27264 -1.13571 0
M  V30 4694 N 450.82 -0.546701 -1.47814 0
M  V30 4695 C 452.231 -0.110564 -1.86372 0
M  V30 4696 C 452.582 1.31678 -1.45449 0
M  V30 4697 O 451.707 1.98889 -0.852758 0
M  V30 4698 C 452.302 -0.193873 -3.38245 0
M  V30 4699 C 450.861 0.187164 -3.75934 0
M  V30 4700 C 450.008 -0.546166 -2.71868 0
M  V30 4701 H 452.959 -0.757022 -1.39481 0
M  V30 4702 H 452.98 0.590218 -3.75895 0
M  V30 4703 H 452.492 -1.23282 -3.67999 0
M  V30 4704 H 450.593 1.22762 -3.51796 0
M  V30 4705 H 450.706 -0.164083 -4.78819 0
M  V30 4706 H 449.07 0.00953904 -2.54698 0
M  V30 4707 H 449.853 -1.58606 -3.04465 0
M  V30 4708 N 452.299 1.55045 -0.282633 0
M  V30 4709 C 453.529 2.03872 0.334635 0
M  V30 4710 C 453.937 1.16018 1.49454 0
M  V30 4711 O 453.28 0.174449 1.8287 0
M  V30 4712 C 453.342 3.48791 0.870905 0
M  V30 4713 C 453.006 4.56715 -0.161338 0
M  V30 4714 C 454.003 5.10513 -0.983466 0
M  V30 4715 C 451.688 5.01417 -0.297745 0
M  V30 4716 C 453.682 6.07538 -1.92811 0
M  V30 4717 C 451.369 5.98265 -1.24586 0
M  V30 4718 C 452.367 6.51208 -2.05954 0
M  V30 4719 O 452.055 7.46162 -2.99162 0
M  V30 4720 H 451.787 0.671324 0.0793742 0
M  V30 4721 H 454.341 2.01169 -0.41473 0
M  V30 4722 H 452.571 3.48758 1.67047 0
M  V30 4723 H 454.26 3.80916 1.40207 0
M  V30 4724 H 455.026 4.76785 -0.888856 0
M  V30 4725 H 450.905 4.59849 0.325604 0
M  V30 4726 H 454.449 6.48787 -2.56363 0
M  V30 4727 H 450.346 6.31412 -1.34126 0
M  V30 4728 H 451.114 7.63903 -2.93929 0
M  V30 4729 N 453.777 0.010035 1.57597 0
M  V30 4730 C 454.707 -0.976857 2.12084 0
M  V30 4731 C 455.688 -1.35191 1.03235 0
M  V30 4732 O 456.873 -1.43389 1.3097 0
M  V30 4733 C 454.003 -2.26548 2.63236 0
M  V30 4734 C 452.957 -2.03175 3.76701 0
M  V30 4735 C 452.283 -3.38138 4.14206 0
M  V30 4736 C 453.583 -1.38625 5.03568 0
M  V30 4737 H 455.277 -0.523145 2.94794 0
M  V30 4738 H 452.823 -0.250195 1.4181 0
M  V30 4739 H 454.776 -2.95952 2.99984 0
M  V30 4740 H 453.5 -2.74051 1.77661 0
M  V30 4741 H 452.159 -1.36195 3.40362 0
M  V30 4742 H 451.807 -3.83363 3.25641 0
M  V30 4743 H 451.507 -3.23312 4.90656 0
M  V30 4744 H 453.031 -4.08841 4.53521 0
M  V30 4745 H 454.445 -1.98 5.38023 0
M  V30 4746 H 452.842 -1.34256 5.84889 0
M  V30 4747 H 453.912 -0.356722 4.83586 0
M  V30 4748 N 455.255 -1.55392 -0.262866 0
M  V30 4749 C 456.671 -1.47459 -0.610582 0
M  V30 4750 C 456.871 -0.697031 -1.8906 0
M  V30 4751 O 455.927 -0.219952 -2.5154 0
M  V30 4752 C 457.24 -2.91751 -0.728131 0
M  V30 4753 C 458.788 -3.02027 -0.821517 0
M  V30 4754 C 459.263 -4.47594 -0.97076 0
M  V30 4755 N 460.754 -4.51465 -1.03603 0
M  V30 4756 C 461.489 -5.61326 -1.17049 0
M  V30 4757 N 460.985 -6.81032 -1.2715 0
M  V30 4758 N 462.778 -5.49089 -1.20239 0
M  V30 4759 H 454.929 -2.04395 0.577632 0
M  V30 4760 H 457.192 -0.927287 0.197086 0
M  V30 4761 H 456.898 -3.51413 0.142132 0
M  V30 4762 H 456.772 -3.4134 -1.6052 0
M  V30 4763 H 459.159 -2.42456 -1.68224 0
M  V30 4764 H 459.24 -2.55674 0.0803688 0
M  V30 4765 H 458.884 -5.07771 -0.114655 0
M  V30 4766 H 458.814 -4.91613 -1.88745 0
M  V30 4767 H 461.305 -3.6524 -0.96996 0
M  V30 4768 H 461.618 -7.60511 -1.37271 0
M  V30 4769 H 459.963 -6.83824 -1.24136 0
M  V30 4770 H 463.154 -4.54507 -1.11985 0
M  V30 4771 H 463.327 -6.34749 -1.30373 0
M  V30 4772 N 456.733 0.527833 -1.48498 0
M  V30 4773 C 458.01 1.28905 -1.47115 0
M  V30 4774 C 458.39 2.10297 -0.184007 0
M  V30 4775 O 457.738 2.12728 0.834218 0
M  V30 4776 C 457.948 2.16866 -2.73441 0
M  V30 4777 C 459.296 2.76936 -3.21857 0
M  V30 4778 O 460.32 2.27152 -2.74373 0
M  V30 4779 O 459.179 3.67496 -4.04486 0
M  V30 4780 H 456.273 0.581918 -0.587623 0
M  V30 4781 H 458.819 0.544311 -1.60734 0
M  V30 4782 H 457.591 1.56521 -3.58632 0
M  V30 4783 H 457.214 2.98583 -2.62553 0
M  V30 4784 N 458.211 1.37122 0.776871 0
M  V30 4785 C 459.141 1.35164 1.90402 0
M  V30 4786 C 460.122 0.221069 1.68657 0
M  V30 4787 O 461.307 0.420642 1.8959 0
M  V30 4788 C 458.437 1.15274 3.27611 0
M  V30 4789 C 457.391 2.25289 3.63908 0
M  V30 4790 C 456.717 1.90527 4.99603 0
M  V30 4791 C 458.017 3.67446 3.71188 0
M  V30 4792 H 459.711 2.29482 1.92297 0
M  V30 4793 H 457.257 1.10465 0.923773 0
M  V30 4794 H 459.21 1.12536 4.06096 0
M  V30 4795 H 457.934 0.174102 3.26136 0
M  V30 4796 H 456.593 2.27174 2.87728 0
M  V30 4797 H 456.241 0.91206 4.94662 0
M  V30 4798 H 455.941 2.64193 5.24858 0
M  V30 4799 H 457.465 1.89367 5.80493 0
M  V30 4800 H 458.879 3.67719 4.39836 0
M  V30 4801 H 457.276 4.40123 4.07936 0
M  V30 4802 H 458.346 4.01443 2.71977 0
M  V30 4803 N 459.689 -1.00246 1.21608 0
M  V30 4804 C 460.937 -1.73717 1.0328 0
M  V30 4805 C 461.258 -1.90102 -0.434318 0
M  V30 4806 O 460.528 -1.45376 -1.31311 0
M  V30 4807 H 459.108 -0.643613 0.379172 0
M  V30 4808 H 461.77 -1.20787 1.52959 0
M  V30 4809 H 460.866 -2.73535 1.50283 0
M  V30 4810 N 461.167 -1.02423 -1.1978 0
M  V30 4811 C 462.097 -0.62157 -2.25075 0
M  V30 4812 C 463.078 0.367148 -1.6609 0
M  V30 4813 O 464.263 0.250892 -1.92573 0
M  V30 4814 C 461.393 0.0331826 -3.47284 0
M  V30 4815 C 460.347 -0.877323 -4.18912 0
M  V30 4816 C 459.673 -0.0879296 -5.34628 0
M  V30 4817 C 460.973 -2.18892 -4.74219 0
M  V30 4818 H 462.667 -1.50179 -2.59011 0
M  V30 4819 H 460.213 -0.723547 -1.24502 0
M  V30 4820 H 462.166 0.326488 -4.20133 0
M  V30 4821 H 460.89 0.948164 -3.12534 0
M  V30 4822 H 459.549 -1.15475 -3.47938 0
M  V30 4823 H 459.197 0.828941 -4.96123 0
M  V30 4824 H 458.897 -0.694359 -5.83483 0
M  V30 4825 H 460.421 0.198743 -6.10276 0
M  V30 4826 H 461.835 -1.95746 -5.38847 0
M  V30 4827 H 460.232 -2.74686 -5.33542 0
M  V30 4828 H 461.302 -2.84674 -3.92541 0
M  V30 4829 N 462.645 1.35699 -0.801477 0
M  V30 4830 C 463.593 2.3177 -0.196317 0
M  V30 4831 C 464.587 1.56388 0.651081 0
M  V30 4832 O 465.793 1.71557 0.544815 0
M  V30 4833 H 462.168 0.750669 -0.0447189 0
M  V30 4834 H 464.139 2.8036 -1.02181 0
M  V30 4835 C 462.888 3.41671 0.644702 0
M  V30 4836 H 462.211 3.998 0.0019921 0
M  V30 4837 H 463.651 4.11184 1.0346 0
M  V30 4838 C 462.11 2.84271 1.80808 0
M  V30 4839 O 462.64 2.77408 2.9053 0
M  V30 4840 N 460.846 2.41391 1.61799 0
M  V30 4841 H 460.393 2.47173 0.725493 0
M  V30 4842 H 460.351 2.03334 2.39797 0
M  V30 4843 N 464.123 0.554532 1.47522 0
M  V30 4844 C 465.363 0.0317994 2.04375 0
M  V30 4845 C 465.727 -1.29242 1.41988 0
M  V30 4846 O 466.928 -1.90269 1.89872 0
M  V30 4847 C 465.199 -0.0623344 3.57346 0
M  V30 4848 S 466.758 -0.531578 4.35568 0
M  V30 4849 H 463.576 0.0238553 0.7106 0
M  V30 4850 H 466.178 0.74066 1.80927 0
M  V30 4851 H 464.882 0.905857 4.00278 0
M  V30 4852 H 464.413 -0.794831 3.85287 0
M  V30 4853 H 466.428 -1.79175 4.62721 0
M  V30 4854 N 465.601 -1.54893 0.290851 0
M  V30 4855 C 467.012 -1.85584 -0.203816 0
M  V30 4856 C 467.363 -1.21285 -1.54222 0
M  V30 4857 O 466.488 -0.506841 -2.10381 0
M  V30 4858 C 467.083 -3.367 -0.376595 0
M  V30 4859 C 465.642 -3.6746 -0.815485 0
M  V30 4860 C 464.789 -2.77178 0.0821087 0
M  V30 4861 H 467.74 -1.50208 0.512175 0
M  V30 4862 H 467.761 -3.60656 -1.21275 0
M  V30 4863 H 467.273 -3.8347 0.59767 0
M  V30 4864 H 465.374 -3.26201 -1.80066 0
M  V30 4865 H 465.487 -4.7478 -0.641905 0
M  V30 4866 H 463.851 -2.50925 -0.436895 0
M  V30 4867 H 464.634 -3.26767 1.05254 0
M  V30 4868 N 467.08 -0.0183926 -1.57589 0
M  V30 4869 C 468.308 0.673046 -1.95647 0
M  V30 4870 C 468.723 1.66275 -0.894312 0
M  V30 4871 O 468.08 1.82072 0.124975 0
M  V30 4872 C 468.131 1.38884 -3.33756 0
M  V30 4873 O 467.852 0.438806 -4.35897 0
M  V30 4874 C 469.353 2.1731 -3.86383 0
M  V30 4875 H 466.573 0.186292 -0.644621 0
M  V30 4876 H 469.117 -0.0749748 -2.04363 0
M  V30 4877 H 467.272 2.08835 -3.26293 0
M  V30 4878 H 467.686 0.945869 -5.15901 0
M  V30 4879 H 469.16 2.62863 -4.85394 0
M  V30 4880 H 469.637 3.00764 -3.20059 0
M  V30 4881 H 470.243 1.52339 -3.97081 0
M  V30 4882 N 468.558 1.5553 0.254621 0
M  V30 4883 C 469.788 1.80784 1.00004 0
M  V30 4884 C 470.196 0.59071 1.79742 0
M  V30 4885 O 469.539 -0.449988 1.78103 0
M  V30 4886 C 469.601 2.99268 1.99196 0
M  V30 4887 C 469.265 4.35595 1.38224 0
M  V30 4888 C 470.262 5.13884 0.788611 0
M  V30 4889 C 467.947 4.82281 1.40393 0
M  V30 4890 C 469.941 6.37004 0.224783 0
M  V30 4891 C 467.628 6.05351 0.836243 0
M  V30 4892 C 468.626 6.82551 0.24769 0
M  V30 4893 O 468.314 8.03297 -0.311249 0
M  V30 4894 H 468.046 0.60565 0.300274 0
M  V30 4895 H 470.6 2.03411 0.285143 0
M  V30 4896 H 468.83 2.72377 2.74496 0
M  V30 4897 H 470.519 3.11682 2.60018 0
M  V30 4898 H 471.285 4.78938 0.764423 0
M  V30 4899 H 467.164 4.22189 1.85142 0
M  V30 4900 H 470.708 6.97203 -0.235235 0
M  V30 4901 H 466.605 6.39776 0.857733 0
M  V30 4902 H 467.373 8.1825 -0.20237 0
M  V30 4903 N 470.036 -0.519951 1.48776 0
M  V30 4904 C 470.986 -1.61995 1.60442 0
M  V30 4905 C 471.97 -1.54155 0.460991 0
M  V30 4906 O 473.162 -1.62006 0.712965 0
M  V30 4907 C 470.291 -3.00683 1.65664 0
M  V30 4908 C 469.377 -3.1359 2.8552 0
M  V30 4909 N 469.768 -2.96441 4.09825 0
M  V30 4910 C 468.066 -3.44662 2.83062 0
M  V30 4911 C 468.767 -3.1303 4.90293 0
M  V30 4912 N 467.743 -3.41058 4.23297 0
M  V30 4913 H 471.545 -1.47362 2.54287 0
M  V30 4914 H 469.059 -0.725649 1.45286 0
M  V30 4915 H 471.056 -3.79712 1.72117 0
M  V30 4916 H 469.716 -3.16401 0.729425 0
M  V30 4917 H 470.727 -2.72999 4.40104 0
M  V30 4918 H 467.404 -3.66675 1.9964 0
M  V30 4919 H 468.794 -3.04424 5.98979 0
M  V30 4920 N 471.514 -1.37532 -0.769588 0
M  V30 4921 C 472.462 -1.33561 -1.90432 0
M  V30 4922 C 473.456 -0.224027 -1.67912 0
M  V30 4923 O 474.662 -0.392174 -1.75676 0
M  V30 4924 H 471.037 -0.416279 -0.626271 0
M  V30 4925 H 473.008 -2.29348 -1.90899 0
M  V30 4926 C 471.757 -1.16162 -3.27722 0
M  V30 4927 H 471.08 -2.00951 -3.45628 0
M  V30 4928 H 472.52 -1.17434 -4.07413 0
M  V30 4929 C 470.979 0.132583 -3.36639 0
M  V30 4930 O 471.509 1.11539 -3.85904 0
M  V30 4931 N 469.715 0.184013 -2.90017 0
M  V30 4932 H 469.262 -0.616415 -2.50116 0
M  V30 4933 H 469.22 1.04956 -2.96364 0
M  V30 4934 N 472.992 0.995999 -1.22138 0
M  V30 4935 C 474.403 1.54961 -1.04135 0
M  V30 4936 C 474.754 1.92159 0.396147 0
M  V30 4937 O 473.879 1.74435 1.28069 0
M  V30 4938 C 474.474 2.81581 -1.88408 0
M  V30 4939 C 473.033 3.33396 -1.74712 0
M  V30 4940 C 472.18 2.06509 -1.85066 0
M  V30 4941 H 475.131 0.817436 -1.36028 0
M  V30 4942 H 475.152 3.53822 -1.39966 0
M  V30 4943 H 474.664 2.54476 -2.93025 0
M  V30 4944 H 472.765 3.65416 -0.728159 0
M  V30 4945 H 472.878 4.04208 -2.57202 0
M  V30 4946 H 471.242 2.19925 -1.28472 0
M  V30 4947 H 472.025 1.81804 -2.91208 0
M  V30 4948 N 474.47 1.03057 1.19235 0
M  V30 4949 C 475.433 0.617418 2.20727 0
M  V30 4950 C 476.433 -0.319856 1.57587 0
M  V30 4951 O 477.623 -0.106633 1.73873 0
M  V30 4952 C 474.755 -0.096296 3.40764 0
M  V30 4953 H 475.948 1.51544 2.58794 0
M  V30 4954 H 473.501 0.821949 1.32942 0
M  V30 4955 H 474.236 -1.00859 3.08217 0
M  V30 4956 H 474.021 0.577217 3.87828 0
M  V30 4957 H 475.511 -0.372219 4.15938 0
M  V30 4958 N 475.948 -1.35272 0.808662 0
M  V30 4959 C 477.225 -1.93077 0.313181 0
M  V30 4960 C 477.605 -1.73847 -1.19752 0
M  V30 4961 O 476.953 -1.1087 -1.998 0
M  V30 4962 C 477.163 -3.41347 0.726859 0
M  V30 4963 C 478.511 -4.18493 0.717532 0
M  V30 4964 O 479.535 -3.4987 0.668535 0
M  V30 4965 O 478.394 -5.40937 0.777779 0
M  V30 4966 H 475.488 -0.822885 0.0824018 0
M  V30 4967 H 478.034 -1.44335 0.892499 0
M  V30 4968 H 476.806 -3.49082 1.76797 0
M  V30 4969 H 476.429 -3.97411 0.122461 0
M  V30 4970 N 477.426 -0.562348 -1.47226 0
M  V30 4971 C 478.673 -0.0402165 -2.0246 0
M  V30 4972 C 479.001 1.31169 -1.43614 0
M  V30 4973 O 478.256 1.86805 -0.5833 0
M  V30 4974 C 478.555 0.0969817 -3.57268 0
M  V30 4975 C 478.221 -1.1847 -4.35058 0
M  V30 4976 C 476.883 -1.53588 -4.56031 0
M  V30 4977 C 479.235 -2.03378 -4.79882 0
M  V30 4978 C 476.563 -2.73452 -5.19077 0
M  V30 4979 C 478.915 -3.2245 -5.44251 0
M  V30 4980 C 477.579 -3.57876 -5.63455 0
M  V30 4981 H 476.849 -0.0147163 -0.740854 0
M  V30 4982 H 479.496 -0.734895 -1.76838 0
M  V30 4983 H 477.801 0.87466 -3.81912 0
M  V30 4984 H 479.498 0.516408 -3.97661 0
M  V30 4985 H 476.088 -0.90126 -4.19017 0
M  V30 4986 H 480.272 -1.77553 -4.63453 0
M  V30 4987 H 475.528 -3.01062 -5.32139 0
M  V30 4988 H 479.702 -3.88526 -5.77945 0
M  V30 4989 H 477.329 -4.50849 -6.12078 0
M  V30 4990 N 478.904 1.54736 -0.299062 0
M  V30 4991 C 480.15 2.00397 0.311244 0
M  V30 4992 C 480.483 1.18716 1.53688 0
M  V30 4993 O 479.758 0.263154 1.92712 0
M  V30 4994 C 480.041 3.53817 0.669761 0
M  V30 4995 C 479.894 4.46239 -0.564882 0
M  V30 4996 C 481.213 4.13856 1.49702 0
M  V30 4997 H 478.332 0.728493 0.111653 0
M  V30 4998 H 480.974 1.85506 -0.410774 0
M  V30 4999 H 479.124 3.66637 1.28491 0
M  V30 5000 H 480.796 4.45328 -1.20337 0
M  V30 5001 H 479.039 4.16916 -1.19849 0
M  V30 5002 H 479.71 5.5134 -0.269918 0
M  V30 5003 H 482.186 4.04461 0.977284 0
M  V30 5004 H 481.062 5.21365 1.71666 0
M  V30 5005 H 481.323 3.65608 2.48563 0
M  V30 5006 N 480.382 0.0267497 1.57577 0
M  V30 5007 C 481.315 -0.99059 2.05579 0
M  V30 5008 C 482.293 -1.31884 0.951065 0
M  V30 5009 O 483.477 -1.43592 1.22121 0
M  V30 5010 C 480.604 -2.31125 2.47586 0
M  V30 5011 C 479.65 -2.13777 3.69055 0
M  V30 5012 S 480.483 -1.4388 5.15809 0
M  V30 5013 C 481.639 -2.77321 5.6111 0
M  V30 5014 H 481.872 -0.581976 2.91548 0
M  V30 5015 H 479.405 -0.184876 1.53289 0
M  V30 5016 H 481.363 -3.07049 2.72454 0
M  V30 5017 H 480.024 -2.6912 1.61967 0
M  V30 5018 H 479.217 -3.11405 3.96287 0
M  V30 5019 H 478.819 -1.45996 3.44327 0
M  V30 5020 H 481.111 -3.73565 5.65204 0
M  V30 5021 H 482.054 -2.54756 6.60685 0
M  V30 5022 H 482.462 -2.82459 4.88751 0
M  V30 5023 N 481.861 -1.55662 -0.24637 0
M  V30 5024 C 482.771 -1.93495 -1.32653 0
M  V30 5025 C 483.787 -0.835462 -1.5263 0
M  V30 5026 O 484.963 -1.1369 -1.66242 0
M  V30 5027 C 482.028 -2.22242 -2.66101 0
M  V30 5028 C 481.089 -3.45625 -2.54641 0
M  V30 5029 C 480.322 -3.72991 -3.81724 0
M  V30 5030 O 480.545 -3.02421 -4.8363 0
M  V30 5031 O 479.479 -4.66515 -3.80325 0
M  V30 5032 H 483.305 -2.85498 -1.03559 0
M  V30 5033 H 480.89 -1.42551 -0.44717 0
M  V30 5034 H 482.772 -2.42037 -3.44958 0
M  V30 5035 H 481.447 -1.33417 -2.94926 0
M  V30 5036 H 480.354 -3.31136 -1.74067 0
M  V30 5037 H 481.687 -4.34754 -2.3076 0
M  V30 5038 N 483.339 0.512053 -1.4905 0
M  V30 5039 C 484.585 1.26874 -1.58212 0
M  V30 5040 C 484.918 1.9241 -0.263073 0
M  V30 5041 O 484.193 1.80181 0.732476 0
M  V30 5042 C 484.476 2.34428 -2.73341 0
M  V30 5043 C 484.329 1.73466 -4.15006 0
M  V30 5044 C 485.648 3.36073 -2.84154 0
M  V30 5045 H 482.767 0.459924 -0.575881 0
M  V30 5046 H 485.409 0.568587 -1.81293 0
M  V30 5047 H 483.559 2.94146 -2.53792 0
M  V30 5048 H 485.231 1.17661 -4.46042 0
M  V30 5049 H 483.474 1.03921 -4.21168 0
M  V30 5050 H 484.145 2.51426 -4.91415 0
M  V30 5051 H 486.621 2.86332 -3.01916 0
M  V30 5052 H 485.497 4.08703 -3.66406 0
M  V30 5053 H 485.758 3.97725 -1.93048 0
M  V30 5054 N 484.817 1.37938 0.762283 0
M  V30 5055 C 485.78 1.34279 1.85747 0
M  V30 5056 C 486.78 0.244969 1.58923 0
M  V30 5057 O 487.97 0.501365 1.66829 0
M  V30 5058 C 485.102 1.08833 3.23061 0
M  V30 5059 H 486.295 2.31705 1.90401 0
M  V30 5060 H 483.848 1.23105 0.963057 0
M  V30 5061 H 484.583 0.119767 3.24079 0
M  V30 5062 H 484.368 1.88306 3.43923 0
M  V30 5063 H 485.858 1.08946 4.03138 0
M  V30 5064 N 486.295 -0.989507 1.22664 0
M  V30 5065 C 487.52 -1.77031 1.08051 0
M  V30 5066 C 487.945 -1.84535 -0.364483 0
M  V30 5067 O 487.303 -1.3003 -1.2634 0
M  V30 5068 C 487.351 -3.18 1.70024 0
M  V30 5069 O 486.455 -4.01161 0.956216 0
M  V30 5070 H 485.796 -0.545008 0.379292 0
M  V30 5071 H 488.326 -1.24277 1.62531 0
M  V30 5072 H 488.336 -3.68616 1.74888 0
M  V30 5073 H 487.011 -3.11853 2.75174 0
M  V30 5074 H 485.588 -3.59687 0.98384 0
M  V30 5075 N 487.773 -1.03688 -1.18687 0
M  V30 5076 C 489.021 -0.736572 -1.88199 0
M  V30 5077 C 489.342 0.737665 -1.80509 0
M  V30 5078 O 488.612 1.53204 -1.22088 0
M  V30 5079 H 487.192 -0.269466 -0.696704 0
M  V30 5080 H 489.854 -1.31282 -1.44052 0
M  V30 5081 H 488.95 -1.03802 -2.94332 0
M  V30 5082 N 489.251 1.34841 -0.815825 0
M  V30 5083 C 490.161 2.33425 -0.234462 0
M  V30 5084 C 491.177 1.62295 0.627413 0
M  V30 5085 O 492.353 1.94109 0.536987 0
M  V30 5086 C 489.418 3.41471 0.599849 0
M  V30 5087 C 488.479 4.28362 -0.283596 0
M  V30 5088 C 487.712 5.31248 0.51099 0
M  V30 5089 O 487.935 5.43056 1.7449 0
M  V30 5090 O 486.869 6.01812 -0.10297 0
M  V30 5091 H 490.695 2.84962 -1.05024 0
M  V30 5092 H 488.28 1.37774 -0.577809 0
M  V30 5093 H 490.162 4.07464 1.07475 0
M  V30 5094 H 488.837 2.9219 1.39308 0
M  V30 5095 H 487.744 3.65318 -0.805836 0
M  V30 5096 H 489.077 4.81066 -1.041 0
M  V30 5097 N 490.729 0.570148 1.46925 0
M  V30 5098 C 491.959 0.0561151 2.06524 0
M  V30 5099 C 492.367 -1.24874 1.42137 0
M  V30 5100 O 491.71 -1.76292 0.516417 0
M  V30 5101 C 491.772 -0.197035 3.5896 0
M  V30 5102 C 491.436 1.02033 4.45464 0
M  V30 5103 C 492.433 1.92921 4.82781 0
M  V30 5104 C 490.118 1.23864 4.86788 0
M  V30 5105 C 492.112 3.03999 5.60235 0
M  V30 5106 C 489.799 2.35249 5.64004 0
M  V30 5107 C 490.797 3.25146 6.0064 0
M  V30 5108 O 490.485 4.34598 6.76299 0
M  V30 5109 H 490.217 0.0487409 0.674241 0
M  V30 5110 H 492.771 0.786915 1.89728 0
M  V30 5111 H 491.001 -0.982299 3.74016 0
M  V30 5112 H 492.69 -0.658032 4.00531 0
M  V30 5113 H 493.456 1.77265 4.51444 0
M  V30 5114 H 489.335 0.54805 4.57731 0
M  V30 5115 H 492.879 3.74192 5.8875 0
M  V30 5116 H 488.776 2.50873 5.94755 0
M  V30 5117 H 489.544 4.32808 6.94708 0
M  V30 5118 N 492.207 -1.54576 0.307264 0
M  V30 5119 C 493.455 -1.99867 -0.299574 0
M  V30 5120 C 493.776 -1.19714 -1.53927 0
M  V30 5121 O 493.046 -0.29472 -1.9367 0
M  V30 5122 H 491.626 -0.738299 -0.113683 0
M  V30 5123 H 494.288 -1.9032 0.420042 0
M  V30 5124 H 493.384 -3.06901 -0.567283 0
M  V30 5125 N 493.685 -0.035106 -1.57561 0
M  V30 5126 C 494.962 0.681212 -1.83354 0
M  V30 5127 C 495.342 1.89986 -0.920252 0
M  V30 5128 O 494.69 2.28489 0.0226815 0
M  V30 5129 C 494.9 1.05376 -3.32712 0
M  V30 5130 C 496.248 1.44286 -3.99333 0
M  V30 5131 O 497.272 1.14656 -3.37242 0
M  V30 5132 O 496.131 1.99518 -5.08778 0
M  V30 5133 H 493.225 0.334741 -0.756226 0
M  V30 5134 H 495.771 -0.0632448 -1.69582 0
M  V30 5135 H 494.543 0.186668 -3.90854 0
M  V30 5136 H 494.166 1.85619 -3.51613 0
M  V30 5137 N 495.163 1.55791 0.238111 0
M  V30 5138 C 496.095 1.87513 1.31802 0
M  V30 5139 C 497.108 0.762053 1.43863 0
M  V30 5140 O 498.297 1.04024 1.45056 0
M  V30 5141 C 495.397 2.05402 2.69561 0
M  V30 5142 C 494.57 3.3632 2.79656 0
M  V30 5143 C 493.629 3.43844 3.98319 0
M  V30 5144 O 492.655 4.16994 3.87433 0
M  V30 5145 N 493.857 2.73777 5.11885 0
M  V30 5146 H 496.622 2.80734 1.04922 0
M  V30 5147 H 494.183 1.56135 0.428196 0
M  V30 5148 H 496.175 2.07769 3.47296 0
M  V30 5149 H 494.745 1.18884 2.89111 0
M  V30 5150 H 493.965 3.46195 1.88528 0
M  V30 5151 H 495.253 4.22594 2.83358 0
M  V30 5152 H 494.651 2.14094 5.23622 0
M  V30 5153 H 493.208 2.81825 5.87723 0
M  V30 5154 N 496.642 -0.504142 1.49319 0
M  V30 5155 C 497.59 -1.62689 1.66238 0
M  V30 5156 C 498.584 -1.6095 0.528349 0
M  V30 5157 O 499.79 -1.65496 0.707887 0
M  V30 5158 H 496.165 -0.539247 0.524134 0
M  V30 5159 H 498.136 -1.45571 2.60484 0
M  V30 5160 C 496.885 -3.00841 1.74328 0
M  V30 5161 H 496.208 -3.02884 2.60963 0
M  V30 5162 H 497.648 -3.78945 1.90202 0
M  V30 5163 C 496.107 -3.33355 0.487416 0
M  V30 5164 O 496.637 -3.99819 -0.388294 0
M  V30 5165 N 494.843 -2.88469 0.351306 0
M  V30 5166 H 494.39 -2.34557 1.06492 0
M  V30 5167 H 494.348 -3.10591 -0.487899 0
M  V30 5168 N 498.12 -1.38341 -0.754957 0
M  V30 5169 C 499.345 -1.37882 -1.5493 0
M  V30 5170 C 499.77 0.0296385 -1.88077 0
M  V30 5171 O 499.128 1.01133 -1.50472 0
M  V30 5172 C 499.176 -2.23996 -2.82592 0
M  V30 5173 O 498.28 -1.65612 -3.77686 0
M  V30 5174 H 497.621 -0.470384 -0.468652 0
M  V30 5175 H 500.151 -1.82084 -0.933082 0
M  V30 5176 H 500.161 -2.37806 -3.3153 0
M  V30 5177 H 498.836 -3.26365 -2.57796 0
M  V30 5178 H 497.413 -1.60936 -3.36384 0
M  V30 5179 N 499.598 0.982988 -1.23187 0
M  V30 5180 C 501.014 1.2487 -0.993967 0
M  V30 5181 C 501.214 1.99155 0.306498 0
M  V30 5182 O 500.27 2.30688 1.0266 0
M  V30 5183 C 501.583 2.05078 -2.19917 0
M  V30 5184 C 503.131 2.18227 -2.2438 0
M  V30 5185 C 503.606 3.01825 -3.44479 0
M  V30 5186 N 505.097 3.09411 -3.44702 0
M  V30 5187 C 505.832 3.74412 -4.34285 0
M  V30 5188 N 505.328 4.41259 -5.341 0
M  V30 5189 N 507.121 3.71273 -4.22035 0
M  V30 5190 H 499.272 0.485253 -2.06783 0
M  V30 5191 H 501.535 0.276979 -0.906635 0
M  V30 5192 H 501.241 1.57867 -3.14279 0
M  V30 5193 H 501.115 3.05829 -2.2079 0
M  V30 5194 H 503.502 2.64648 -1.30559 0
M  V30 5195 H 503.583 1.16873 -2.2754 0
M  V30 5196 H 503.227 2.56102 -4.38605 0
M  V30 5197 H 503.157 4.03342 -3.38559 0
M  V30 5198 H 505.648 2.61845 -2.7248 0
M  V30 5199 H 505.961 4.88629 -5.98717 0
M  V30 5200 H 504.306 4.39975 -5.38002 0
M  V30 5201 H 507.497 3.18217 -3.43301 0
M  V30 5202 H 507.67 4.21649 -4.92053 0
M  V30 5203 N 501.076 1.04316 1.18135 0
M  V30 5204 C 502.006 0.657299 2.24058 0
M  V30 5205 C 502.987 -0.340678 1.66654 0
M  V30 5206 O 504.172 -0.220223 1.92947 0
M  V30 5207 C 501.302 0.0220715 3.47293 0
M  V30 5208 C 500.256 0.943857 4.17463 0
M  V30 5209 C 499.582 0.172973 5.3442 0
M  V30 5210 C 500.882 2.26409 4.70677 0
M  V30 5211 H 502.576 1.5428 2.56589 0
M  V30 5212 H 500.122 0.743263 1.23335 0
M  V30 5213 H 502.075 -0.259607 4.206 0
M  V30 5214 H 500.799 -0.898323 3.14003 0
M  V30 5215 H 499.458 1.20996 3.46057 0
M  V30 5216 H 499.106 -0.749907 4.97379 0
M  V30 5217 H 498.806 0.787098 5.82304 0
M  V30 5218 H 500.33 -0.101628 6.10515 0
M  V30 5219 H 501.744 2.04294 5.35665 0
M  V30 5220 H 500.141 2.8314 5.29105 0
M  V30 5221 H 501.211 2.90883 3.87962 0
M  V30 5222 N 502.554 -1.34406 0.822964 0
M  V30 5223 C 503.8 -1.98578 0.411666 0
M  V30 5224 C 504.133 -1.65093 -1.02264 0
M  V30 5225 O 503.408 -0.92258 -1.71227 0
M  V30 5226 C 503.691 -3.54823 0.614235 0
M  V30 5227 C 503.544 -3.9805 2.09466 0
M  V30 5228 C 504.863 -4.40071 0.050221 0
M  V30 5229 H 501.982 -0.721355 0.151047 0
M  V30 5230 H 504.624 -1.59301 1.03554 0
M  V30 5231 H 502.774 -3.88411 0.0831774 0
M  V30 5232 H 504.446 -3.74795 2.68936 0
M  V30 5233 H 502.689 -3.4836 2.5851 0
M  V30 5234 H 503.36 -5.06819 2.18721 0
M  V30 5235 H 505.836 -4.13037 0.503953 0
M  V30 5236 H 504.712 -5.48452 0.221759 0
M  V30 5237 H 504.973 -4.29576 -1.04482 0
M  V30 5238 N 504.032 -0.577932 -1.46621 0
M  V30 5239 C 505.448 -0.239242 -1.57797 0
M  V30 5240 C 505.648 1.25843 -1.57371 0
M  V30 5241 O 504.704 2.03988 -1.48813 0
M  V30 5242 C 506.017 -0.884227 -2.87405 0
M  V30 5243 C 507.565 -0.857373 -3.01028 0
M  V30 5244 C 508.04 -1.48181 -4.33366 0
M  V30 5245 N 509.531 -1.44593 -4.40053 0
M  V30 5246 C 510.266 -1.89852 -5.41058 0
M  V30 5247 N 509.762 -2.43062 -6.48762 0
M  V30 5248 N 511.555 -1.80797 -5.3223 0
M  V30 5249 H 503.706 -1.55073 -1.45142 0
M  V30 5250 H 505.969 -0.647903 -0.692044 0
M  V30 5251 H 505.675 -1.93759 -2.93514 0
M  V30 5252 H 505.549 -0.389585 -3.75183 0
M  V30 5253 H 507.936 0.187357 -2.94505 0
M  V30 5254 H 508.017 -1.38999 -2.14739 0
M  V30 5255 H 507.661 -2.52572 -4.40647 0
M  V30 5256 H 507.591 -0.924464 -5.18422 0
M  V30 5257 H 510.082 -1.05694 -3.62819 0
M  V30 5258 H 510.395 -2.75466 -7.22038 0
M  V30 5259 H 508.74 -2.47085 -6.49595 0
M  V30 5260 H 511.931 -1.38989 -4.46989 0
M  V30 5261 H 512.104 -2.16385 -6.10804 0
M  V30 5262 N 505.51 1.54411 -0.315457 0
M  V30 5263 C 506.473 2.22713 0.54142 0
M  V30 5264 C 507.473 1.2179 1.04995 0
M  V30 5265 O 508.663 1.46426 0.943667 0
M  V30 5266 C 505.795 2.92485 1.75116 0
M  V30 5267 H 506.988 2.99849 -0.0555508 0
M  V30 5268 H 504.541 1.56159 -0.0664453 0
M  V30 5269 H 505.276 2.19466 2.38758 0
M  V30 5270 H 505.061 3.66483 1.39401 0
M  V30 5271 H 506.551 3.44548 2.35959 0
M  V30 5272 N 506.988 0.0434614 1.5754 0
M  V30 5273 C 508.234 -0.632971 1.92669 0
M  V30 5274 C 508.567 -1.70947 0.921446 0
M  V30 5275 O 507.842 -1.94426 -0.0537202 0
M  V30 5276 C 508.125 -1.23619 3.38216 0
M  V30 5277 C 507.978 -0.168274 4.49485 0
M  V30 5278 C 509.297 -2.15008 3.84005 0
M  V30 5279 H 506.416 -0.228629 0.700641 0
M  V30 5280 H 509.058 0.103651 1.89717 0
M  V30 5281 H 507.208 -1.864 3.40863 0
M  V30 5282 H 508.88 0.463196 4.58969 0
M  V30 5283 H 507.123 0.504581 4.30855 0
M  V30 5284 H 507.794 -0.630218 5.48391 0
M  V30 5285 H 510.27 -1.62198 3.83185 0
M  V30 5286 H 509.146 -2.54161 4.86511 0
M  V30 5287 H 509.407 -3.04707 3.20322 0
M  V30 5288 N 508.466 -1.55915 -0.229846 0
M  V30 5289 C 509.882 -1.48721 -0.579166 0
M  V30 5290 C 510.082 -0.736976 -1.87539 0
M  V30 5291 O 509.138 -0.273258 -2.51017 0
M  V30 5292 C 510.451 -2.9323 -0.666082 0
M  V30 5293 C 511.999 -3.03701 -0.757267 0
M  V30 5294 C 512.474 -4.49552 -0.8756 0
M  V30 5295 N 513.965 -4.53561 -0.940035 0
M  V30 5296 C 514.7 -5.63683 -1.05116 0
M  V30 5297 N 514.196 -6.83576 -1.12675 0
M  V30 5298 N 515.989 -5.51516 -1.08565 0
M  V30 5299 H 508.14 -2.03123 0.620857 0
M  V30 5300 H 510.403 -0.922898 0.21671 0
M  V30 5301 H 510.109 -3.51032 0.21664 0
M  V30 5302 H 509.983 -3.44668 -1.53243 0
M  V30 5303 H 512.37 -2.45969 -1.63043 0
M  V30 5304 H 512.451 -2.55446 0.134583 0
M  V30 5305 H 512.095 -5.079 -0.00692351 0
M  V30 5306 H 512.025 -4.95506 -1.78274 0
M  V30 5307 H 514.516 -3.67215 -0.892269 0
M  V30 5308 H 514.829 -7.63251 -1.21109 0
M  V30 5309 H 513.174 -6.86303 -1.09603 0
M  V30 5310 H 516.365 -4.5678 -1.02319 0
M  V30 5311 H 516.538 -6.37372 -1.1688 0
M  V30 5312 N 509.944 0.496216 -1.49584 0
M  V30 5313 C 510.854 1.62352 -1.69349 0
M  V30 5314 C 511.87 1.64184 -0.576147 0
M  V30 5315 O 513.046 1.82517 -0.85144 0
M  V30 5316 C 510.111 2.98698 -1.76013 0
M  V30 5317 C 509.172 3.07454 -2.99617 0
M  V30 5318 C 508.405 4.37296 -3.05953 0
M  V30 5319 O 508.628 5.2637 -2.19752 0
M  V30 5320 O 507.562 4.51124 -3.9846 0
M  V30 5321 H 511.388 1.48606 -2.64859 0
M  V30 5322 H 508.973 0.673022 -1.33382 0
M  V30 5323 H 510.855 3.79725 -1.82721 0
M  V30 5324 H 509.53 3.12696 -0.836828 0
M  V30 5325 H 508.437 2.25597 -2.98424 0
M  V30 5326 H 509.77 2.98385 -3.91443 0
M  V30 5327 N 511.423 1.38739 0.74761 0
M  V30 5328 C 512.671 1.35007 1.50391 0
M  V30 5329 C 512.992 -0.0574274 1.94915 0
M  V30 5330 O 512.262 -1.00628 1.6808 0
M  V30 5331 H 510.842 0.496784 0.557866 0
M  V30 5332 H 513.504 1.73479 0.888319 0
M  V30 5333 H 512.6 2.00474 2.392 0
M  V30 5334 N 512.901 -0.976442 1.23707 0
M  V30 5335 C 513.834 -2.06793 0.964973 0
M  V30 5336 C 514.812 -1.62304 -0.0981472 0
M  V30 5337 O 515.996 -1.88464 0.0369477 0
M  V30 5338 C 513.123 -3.35636 0.454522 0
M  V30 5339 C 512.169 -3.99069 1.50485 0
M  V30 5340 S 513.002 -4.37814 3.0835 0
M  V30 5341 C 514.158 -5.69805 2.58985 0
M  V30 5342 H 514.391 -2.29556 1.88922 0
M  V30 5343 H 511.924 -1.11317 1.06995 0
M  V30 5344 H 513.882 -4.10162 0.166626 0
M  V30 5345 H 512.543 -3.10876 -0.448871 0
M  V30 5346 H 511.736 -4.91896 1.09792 0
M  V30 5347 H 511.338 -3.30938 1.7423 0
M  V30 5348 H 513.63 -6.46919 2.01252 0
M  V30 5349 H 514.573 -6.15345 3.50366 0
M  V30 5350 H 514.981 -5.27994 1.99705 0
M  V30 5351 N 514.379 -1.04941 -1.1758 0
M  V30 5352 C 515.619 -0.766996 -1.89464 0
M  V30 5353 C 515.983 0.693123 -1.79053 0
M  V30 5354 O 517.184 1.08953 -2.45729 0
M  V30 5355 C 515.455 -1.23108 -3.35528 0
M  V30 5356 S 517.014 -1.07565 -4.25412 0
M  V30 5357 H 513.832 -0.278616 -0.654136 0
M  V30 5358 H 516.434 -1.34352 -1.4202 0
M  V30 5359 H 515.138 -2.28896 -3.40639 0
M  V30 5360 H 514.669 -0.648724 -3.88014 0
M  V30 5361 H 516.684 0.00169467 -4.962 0
M  V30 5362 N 515.857 1.33968 -0.830081 0
M  V30 5363 C 517.134 1.92554 -0.343858 0
M  V30 5364 C 517.514 1.7573 1.16971 0
M  V30 5365 O 516.862 1.14035 1.98011 0
M  V30 5366 C 517.072 3.40147 -0.781073 0
M  V30 5367 C 518.42 4.17299 -0.78402 0
M  V30 5368 O 519.444 3.48762 -0.724112 0
M  V30 5369 O 518.303 5.39631 -0.863739 0
M  V30 5370 H 515.397 0.821469 -0.0954827 0
M  V30 5371 H 517.943 1.42897 -0.915348 0
M  V30 5372 H 516.715 3.46225 -1.82329 0
M  V30 5373 H 516.338 3.97166 -0.18567 0
M  V30 5374 N 517.335 0.585699 1.46312 0
M  V30 5375 C 518.56 0.0762461 2.0726 0
M  V30 5376 C 518.985 -1.22071 1.43109 0
M  V30 5377 O 518.343 -1.73804 0.515942 0
M  V30 5378 C 518.391 -0.0729404 3.60526 0
M  V30 5379 O 517.495 -1.1287 3.96654 0
M  V30 5380 H 516.836 0.0641558 0.660893 0
M  V30 5381 H 519.366 0.809492 1.87905 0
M  V30 5382 H 519.376 -0.278158 4.07051 0
M  V30 5383 H 518.051 0.874188 4.06609 0
M  V30 5384 H 516.628 -0.901703 3.61834 0
M  V30 5385 N 518.813 -1.54241 0.323641 0
M  V30 5386 C 520.09 -1.92741 -0.333181 0
M  V30 5387 C 520.47 -1.25326 -1.69872 0
M  V30 5388 O 519.818 -0.396991 -2.25025 0
M  V30 5389 C 520.028 -3.46399 -0.425322 0
M  V30 5390 C 521.376 -4.19029 -0.68557 0
M  V30 5391 O 522.4 -3.52555 -0.50824 0
M  V30 5392 O 521.259 -5.36751 -1.02767 0
M  V30 5393 H 518.353 -0.804811 -0.190286 0
M  V30 5394 H 520.899 -1.65542 0.373361 0
M  V30 5395 H 519.671 -3.87643 0.533737 0
M  V30 5396 H 519.294 -3.79704 -1.17944 0
M  V30 5397 N 520.291 -0.0518155 -1.57515 0
M  V30 5398 C 521.241 0.932017 -2.0808 0
M  V30 5399 C 522.225 1.27141 -0.986098 0
M  V30 5400 O 523.417 1.25373 -1.24943 0
M  V30 5401 C 520.546 2.20665 -2.62986 0
M  V30 5402 C 519.632 1.89462 -3.79427 0
M  V30 5403 N 520.023 1.28621 -4.89173 0
M  V30 5404 C 518.321 2.19327 -3.88345 0
M  V30 5405 C 519.022 1.15062 -5.70207 0
M  V30 5406 N 517.998 1.65372 -5.17835 0
M  V30 5407 H 521.8 0.456964 -2.90326 0
M  V30 5408 H 519.314 0.152619 -1.61681 0
M  V30 5409 H 521.311 2.92044 -2.97516 0
M  V30 5410 H 519.971 2.68776 -1.8218 0
M  V30 5411 H 520.982 0.958341 -5.08956 0
M  V30 5412 H 517.659 2.69955 -3.18482 0
M  V30 5413 H 519.049 0.678243 -6.68468 0
M  V30 5414 N 521.769 1.56035 0.221574 0
M  V30 5415 C 522.716 1.92413 1.27459 0
M  V30 5416 C 523.686 0.781323 1.46576 0
M  V30 5417 O 524.871 1.03721 1.60145 0
M  V30 5418 C 522.011 2.24617 2.61995 0
M  V30 5419 C 521.124 3.51831 2.50677 0
M  V30 5420 C 520.259 3.73482 3.77736 0
M  V30 5421 C 519.298 4.94211 3.6114 0
M  V30 5422 N 518.435 5.12252 4.80148 0
M  V30 5423 H 523.275 2.82203 0.957355 0
M  V30 5424 H 520.812 1.39676 0.461415 0
M  V30 5425 H 522.77 2.41298 3.40339 0
M  V30 5426 H 521.4 1.38 2.91815 0
M  V30 5427 H 520.452 3.43343 1.63767 0
M  V30 5428 H 521.764 4.40328 2.34334 0
M  V30 5429 H 520.918 3.9026 4.64523 0
M  V30 5430 H 519.657 2.83266 3.97003 0
M  V30 5431 H 518.662 4.77384 2.72736 0
M  V30 5432 H 519.887 5.85912 3.43343 0
M  V30 5433 H 517.833 4.24978 4.99729 0
M  V30 5434 H 517.75 5.94881 4.66532 0
M  V30 5435 H 519.018 5.33465 5.68362 0
M  V30 5436 N 523.247 -0.488276 1.49845 0
M  V30 5437 C 524.663 -0.820566 1.3689 0
M  V30 5438 C 524.863 -1.97248 0.411752 0
M  V30 5439 O 523.919 -2.52042 -0.151931 0
M  V30 5440 C 525.232 -1.1488 2.77891 0
M  V30 5441 C 526.78 -1.25626 2.86683 0
M  V30 5442 C 527.255 -1.61772 4.28479 0
M  V30 5443 N 528.746 -1.68797 4.31349 0
M  V30 5444 C 529.481 -1.98235 5.38043 0
M  V30 5445 N 528.977 -2.2581 6.54967 0
M  V30 5446 N 530.77 -1.99593 5.2547 0
M  V30 5447 H 522.921 0.271123 2.10662 0
M  V30 5448 H 525.184 0.058735 0.946179 0
M  V30 5449 H 524.89 -0.375614 3.49688 0
M  V30 5450 H 524.764 -2.08919 3.14058 0
M  V30 5451 H 527.151 -2.02014 2.15114 0
M  V30 5452 H 527.232 -0.296072 2.54081 0
M  V30 5453 H 526.876 -0.859295 5.00578 0
M  V30 5454 H 526.806 -2.58912 4.58554 0
M  V30 5455 H 529.297 -1.49595 3.4703 0
M  V30 5456 H 529.61 -2.47497 7.32096 0
M  V30 5457 H 527.955 -2.23239 6.58171 0
M  V30 5458 H 531.146 -1.77535 4.33127 0
M  V30 5459 H 531.319 -2.222 6.08713 0
M  V30 5460 N 524.725 -1.39134 -0.740242 0
M  V30 5461 C 526.002 -1.26584 -1.49117 0
M  V30 5462 C 526.382 0.126902 -2.10718 0
M  V30 5463 O 525.73 1.13765 -1.98166 0
M  V30 5464 C 525.94 -2.38619 -2.54681 0
M  V30 5465 C 527.288 -2.77685 -3.21211 0
M  V30 5466 O 528.312 -2.38029 -2.64991 0
M  V30 5467 O 527.171 -3.46115 -4.22926 0
M  V30 5468 H 524.265 -0.495769 -0.661923 0
M  V30 5469 H 526.811 -1.50995 -0.774514 0
M  V30 5470 H 525.583 -3.3175 -2.07504 0
M  V30 5471 H 525.206 -2.15845 -3.33911 0
M  V30 5472 N 526.204 0.969867 -1.24223 0
M  V30 5473 C 527.134 2.08191 -1.05729 0
M  V30 5474 C 528.115 1.70075 0.0290765 0
M  V30 5475 O 529.3 1.93712 -0.137583 0
M  V30 5476 C 526.43 3.40991 -0.658995 0
M  V30 5477 C 525.384 3.93054 -1.69389 0
M  V30 5478 C 524.71 5.22171 -1.15072 0
M  V30 5479 C 526.01 4.21137 -3.08935 0
M  V30 5480 H 527.704 2.23921 -1.98746 0
M  V30 5481 H 525.25 1.07602 -0.956967 0
M  V30 5482 H 527.203 4.18221 -0.51662 0
M  V30 5483 H 525.927 3.25155 0.30686 0
M  V30 5484 H 524.586 3.17977 -1.82444 0
M  V30 5485 H 524.234 5.02694 -0.175539 0
M  V30 5486 H 523.934 5.57973 -1.84229 0
M  V30 5487 H 525.458 6.02013 -1.02042 0
M  V30 5488 H 526.872 4.8908 -2.99121 0
M  V30 5489 H 525.269 4.68163 -3.75425 0
M  V30 5490 H 526.339 3.27996 -3.57137 0
M  V30 5491 N 527.682 1.05563 1.17022 0
M  V30 5492 C 528.93 0.76642 1.87004 0
M  V30 5493 C 529.251 -0.708854 1.8166 0
M  V30 5494 O 528.521 -1.51242 1.2451 0
M  V30 5495 H 527.101 0.280516 0.692329 0
M  V30 5496 H 529.763 1.33557 1.41945 0
M  V30 5497 H 528.859 1.08472 2.92644 0
M  V30 5498 N 529.16 -1.33526 0.837174 0
M  V30 5499 C 530.408 -1.97446 0.431211 0
M  V30 5500 C 530.729 -1.6665 -1.01255 0
M  V30 5501 O 529.999 -0.964559 -1.70508 0
M  V30 5502 H 528.579 -0.73043 0.156463 0
M  V30 5503 H 531.241 -1.62918 1.06976 0
M  V30 5504 H 530.337 -3.07001 0.561877 0
M  V30 5505 N 530.638 -0.59345 -1.46 0
M  V30 5506 C 531.915 -0.0157933 -1.95594 0
M  V30 5507 C 532.295 1.44807 -1.53604 0
M  V30 5508 O 531.643 2.14342 -0.791824 0
M  V30 5509 C 531.853 -0.199081 -3.48432 0
M  V30 5510 C 533.201 -0.0724943 -4.24538 0
M  V30 5511 O 534.225 -0.128469 -3.55968 0
M  V30 5512 O 533.084 0.0542426 -5.46473 0
M  V30 5513 H 530.178 0.043749 -0.825842 0
M  V30 5514 H 532.724 -0.662522 -1.56233 0
M  V30 5515 H 531.496 -1.21631 -3.71916 0
M  V30 5516 H 531.119 0.483576 -3.94648 0
M  V30 5517 N 532.116 1.54067 -0.331816 0
M  V30 5518 C 533.079 2.23275 0.517768 0
M  V30 5519 C 534.079 1.22897 1.03697 0
M  V30 5520 O 535.269 1.47419 0.928084 0
M  V30 5521 C 532.401 2.94326 1.72004 0
M  V30 5522 H 533.594 2.99773 -0.0873507 0
M  V30 5523 H 531.147 1.56079 -0.0830042 0
M  V30 5524 H 531.882 2.21986 2.36417 0
M  V30 5525 H 531.667 3.67941 1.35507 0
M  V30 5526 H 533.157 3.47031 2.32291 0
M  V30 5527 N 533.594 0.0601682 1.57485 0
M  V30 5528 C 534.504 -0.926121 2.15546 0
M  V30 5529 C 535.52 -1.33532 1.11558 0
M  V30 5530 O 536.696 -1.4104 1.4377 0
M  V30 5531 C 533.761 -2.17952 2.69625 0
M  V30 5532 C 532.822 -1.82783 3.88444 0
M  V30 5533 C 532.055 -3.02148 4.39935 0
M  V30 5534 O 532.278 -4.15803 3.90466 0
M  V30 5535 O 531.212 -2.82639 5.31412 0
M  V30 5536 H 535.038 -0.462289 3.00161 0
M  V30 5537 H 532.623 -0.162246 1.48516 0
M  V30 5538 H 534.505 -2.91474 3.04337 0
M  V30 5539 H 533.18 -2.63456 1.88077 0
M  V30 5540 H 532.087 -1.06549 3.58606 0
M  V30 5541 H 533.42 -1.42072 4.7125 0
M  V30 5542 N 535.072 -1.5615 -0.213296 0
M  V30 5543 C 536.318 -1.79812 -0.937849 0
M  V30 5544 C 536.651 -0.631201 -1.83656 0
M  V30 5545 O 535.926 0.369165 -1.90964 0
M  V30 5546 C 536.209 -3.13613 -1.76972 0
M  V30 5547 C 536.062 -4.40766 -0.89695 0
M  V30 5548 C 537.381 -3.43931 -2.7459 0
M  V30 5549 H 534.5 -0.654138 -0.339518 0
M  V30 5550 H 537.142 -1.88877 -0.20623 0
M  V30 5551 H 535.292 -3.06015 -2.39347 0
M  V30 5552 H 536.964 -4.60392 -0.289306 0
M  V30 5553 H 535.207 -4.33326 -0.202756 0
M  V30 5554 H 535.878 -5.30843 -1.51358 0
M  V30 5555 H 538.354 -3.5171 -2.22349 0
M  V30 5556 H 537.23 -4.38706 -3.29891 0
M  V30 5557 H 537.491 -2.6651 -3.52739 0
M  V30 5558 N 536.55 0.480323 -1.50102 0
M  V30 5559 C 537.498 1.60024 -1.68805 0
M  V30 5560 C 538.492 1.60089 -0.553888 0
M  V30 5561 O 539.698 1.64349 -0.734127 0
M  V30 5562 H 536.073 0.530841 -0.532646 0
M  V30 5563 H 538.044 1.41408 -2.62767 0
M  V30 5564 C 536.793 2.98029 -1.79092 0
M  V30 5565 H 536.116 2.98694 -2.65748 0
M  V30 5566 H 537.556 3.75871 -1.96206 0
M  V30 5567 C 536.015 3.32538 -0.540388 0
M  V30 5568 O 536.545 4.00386 0.324637 0
M  V30 5569 N 534.751 2.87873 -0.397154 0
M  V30 5570 H 534.298 2.32834 -1.1021 0
M  V30 5571 H 534.256 3.11328 0.438425 0
M  V30 5572 N 538.028 1.39524 0.732853 0
M  V30 5573 C 539.439 1.32905 1.31122 0
M  V30 5574 C 539.79 -0.00558708 1.96199 0
M  V30 5575 O 538.915 -0.907706 1.96443 0
M  V30 5576 C 539.51 2.40704 2.38426 0
M  V30 5577 C 538.069 2.37599 2.91931 0
M  V30 5578 C 537.216 2.2248 1.65523 0
M  V30 5579 H 540.167 1.49581 0.530207 0
M  V30 5580 H 540.188 2.07616 3.18867 0
M  V30 5581 H 539.7 3.37829 1.91033 0
M  V30 5582 H 537.801 1.44119 3.43599 0
M  V30 5583 H 537.914 3.32538 3.44899 0
M  V30 5584 H 536.278 1.69691 1.8994 0
M  V30 5585 H 537.061 3.21577 1.20178 0
M  V30 5586 N 539.506 -0.963266 1.24736 0
M  V30 5587 C 540.753 -1.7068 1.0897 0
M  V30 5588 C 541.081 -1.90934 -0.370751 0
M  V30 5589 O 540.336 -1.47155 -1.29011 0
M  V30 5590 C 540.635 -3.09944 1.7796 0
M  V30 5591 C 540.301 -3.09518 3.27887 0
M  V30 5592 C 538.963 -3.09109 3.68789 0
M  V30 5593 C 541.315 -3.03509 4.23712 0
M  V30 5594 C 538.643 -3.00429 5.03944 0
M  V30 5595 C 540.995 -2.96371 5.5888 0
M  V30 5596 C 539.659 -2.94293 5.99123 0
M  V30 5597 H 538.929 -0.624564 0.398749 0
M  V30 5598 H 541.576 -1.12603 1.54896 0
M  V30 5599 H 539.881 -3.71513 1.2444 0
M  V30 5600 H 541.578 -3.66278 1.63222 0
M  V30 5601 H 538.168 -3.10603 2.95337 0
M  V30 5602 H 542.352 -3.0295 3.93109 0
M  V30 5603 H 537.608 -2.97183 5.34314 0
M  V30 5604 H 541.782 -2.90681 6.32833 0
M  V30 5605 H 539.409 -2.87322 7.03811 0
M  V30 5606 N 540.985 -1.06182 -1.16461 0
M  V30 5607 C 541.915 -0.692861 -2.22984 0
M  V30 5608 C 542.896 0.314122 -1.67174 0
M  V30 5609 O 544.081 0.189499 -1.93273 0
M  V30 5610 C 541.211 -0.07732 -3.47214 0
M  V30 5611 C 540.165 -1.01015 -4.15909 0
M  V30 5612 C 539.491 -0.257973 -5.34077 0
M  V30 5613 C 540.791 -2.33868 -4.67015 0
M  V30 5614 H 542.485 -1.58343 -2.54102 0
M  V30 5615 H 540.031 -0.76279 -1.22137 0
M  V30 5616 H 541.984 0.19266 -4.20959 0
M  V30 5617 H 540.708 0.848254 -3.15392 0
M  V30 5618 H 539.367 -1.26486 -3.44088 0
M  V30 5619 H 539.015 0.670684 -4.98509 0
M  V30 5620 H 538.715 -0.879638 -5.80979 0
M  V30 5621 H 540.239 0.00448788 -6.106 0
M  V30 5622 H 541.653 -2.1279 -5.32347 0
M  V30 5623 H 540.05 -2.91522 -5.24533 0
M  V30 5624 H 541.12 -2.97019 -3.83286 0
M  V30 5625 N 542.463 1.3308 -0.844243 0
M  V30 5626 C 543.709 1.98304 -0.452453 0
M  V30 5627 C 544.064 1.65645 0.978746 0
M  V30 5628 O 543.357 0.928849 1.6758 0
M  V30 5629 C 543.551 3.52045 -0.616354 0
M  V30 5630 C 543.38 3.99643 -2.06193 0
M  V30 5631 C 542.15 4.27224 -2.69829 0
M  V30 5632 C 544.348 4.15471 -3.03131 0
M  V30 5633 N 542.33 4.60998 -4.05406 0
M  V30 5634 C 543.701 4.52665 -4.23668 0
M  V30 5635 C 545.756 3.97776 -2.99465 0
M  V30 5636 C 544.459 4.74011 -5.41023 0
M  V30 5637 C 546.485 4.20301 -4.16055 0
M  V30 5638 C 545.847 4.57801 -5.35348 0
M  V30 5639 H 541.946 0.752122 -0.214096 0
M  V30 5640 H 544.53 1.61096 -1.09344 0
M  V30 5641 H 542.701 3.884 -0.00513205 0
M  V30 5642 H 544.433 4.04228 -0.19548 0
M  V30 5643 H 541.188 4.18911 -2.20931 0
M  V30 5644 H 541.612 4.82087 -4.75312 0
M  V30 5645 H 546.254 3.67893 -2.08362 0
M  V30 5646 H 543.972 5.02753 -6.32665 0
M  V30 5647 H 547.558 4.08122 -4.14641 0
M  V30 5648 H 546.438 4.74884 -6.24063 0
M  V30 5649 N 543.941 0.601185 1.45683 0
M  V30 5650 C 544.891 -0.142686 2.27553 0
M  V30 5651 C 545.875 -0.844598 1.3695 0
M  V30 5652 O 547.067 -0.735644 1.60988 0
M  V30 5653 C 544.196 -1.14364 3.23691 0
M  V30 5654 C 543.282 -0.442894 4.21781 0
M  V30 5655 N 543.673 0.51189 5.03203 0
M  V30 5656 C 541.971 -0.691277 4.4061 0
M  V30 5657 C 542.672 0.92318 5.74328 0
M  V30 5658 N 541.648 0.268308 5.42937 0
M  V30 5659 H 545.45 0.590736 2.87902 0
M  V30 5660 H 542.964 0.424365 1.56757 0
M  V30 5661 H 544.961 -1.6909 3.8107 0
M  V30 5662 H 543.621 -1.87768 2.64902 0
M  V30 5663 H 544.632 0.888329 5.10225 0
M  V30 5664 H 541.309 -1.41049 3.92952 0
M  V30 5665 H 542.699 1.71029 6.49768 0
M  V30 5666 N 545.419 -1.53889 0.339982 0
M  V30 5667 C 546.835 -1.59595 -0.0120752 0
M  V30 5668 C 547.035 -1.35605 -1.49042 0
M  V30 5669 O 546.091 -1.14856 -2.24865 0
M  V30 5670 C 547.404 -2.9774 0.420898 0
M  V30 5671 C 548.952 -3.1077 0.37294 0
M  V30 5672 C 549.427 -4.51286 0.781327 0
M  V30 5673 N 550.918 -4.57325 0.735374 0
M  V30 5674 C 551.653 -5.64194 1.02336 0
M  V30 5675 N 551.149 -6.7893 1.37933 0
M  V30 5676 N 552.942 -5.54051 0.947838 0
M  V30 5677 H 545.093 -1.67738 1.30299 0
M  V30 5678 H 547.356 -0.785385 0.530918 0
M  V30 5679 H 547.062 -3.20349 1.45152 0
M  V30 5680 H 546.936 -3.76639 -0.205721 0
M  V30 5681 H 549.323 -2.87886 -0.648505 0
M  V30 5682 H 549.404 -2.33939 1.03472 0
M  V30 5683 H 549.048 -4.74905 1.80077 0
M  V30 5684 H 548.978 -5.26511 0.0970679 0
M  V30 5685 H 551.469 -3.74931 0.472773 0
M  V30 5686 H 551.782 -7.56392 1.58402 0
M  V30 5687 H 550.127 -6.80386 1.41774 0
M  V30 5688 H 553.318 -4.63293 0.669115 0
M  V30 5689 H 553.491 -6.37246 1.17563 0
M  V30 5690 N 546.897 -0.0685191 -1.57451 0
M  V30 5691 C 548.308 0.464634 -1.80826 0
M  V30 5692 C 548.659 1.69847 -0.982169 0
M  V30 5693 O 547.784 2.15439 -0.203734 0
M  V30 5694 C 548.379 0.849721 -3.27971 0
M  V30 5695 C 546.938 1.32776 -3.52204 0
M  V30 5696 C 546.085 0.311332 -2.75547 0
M  V30 5697 H 549.036 -0.294248 -1.55948 0
M  V30 5698 H 549.057 1.71138 -3.39841 0
M  V30 5699 H 548.569 -0.0484736 -3.8807 0
M  V30 5700 H 546.67 2.24456 -2.97406 0
M  V30 5701 H 546.783 1.30794 -4.60901 0
M  V30 5702 H 545.147 0.787915 -2.42206 0
M  V30 5703 H 545.93 -0.579078 -3.38381 0
M  V30 5704 N 548.375 1.56261 0.205012 0
M  V30 5705 C 549.6 1.84491 0.947512 0
M  V30 5706 C 550.025 0.650894 1.76479 0
M  V30 5707 O 549.383 -0.40035 1.76824 0
M  V30 5708 C 549.431 3.10863 1.82747 0
M  V30 5709 O 548.535 2.90719 2.925 0
M  V30 5710 H 547.876 0.607783 0.267386 0
M  V30 5711 H 550.406 2.03485 0.213323 0
M  V30 5712 H 550.416 3.41399 2.23407 0
M  V30 5713 H 549.091 3.97392 1.2269 0
M  V30 5714 H 547.668 2.71457 2.55667 0
M  V30 5715 N 549.853 -0.472356 1.50355 0
M  V30 5716 C 550.763 -1.59637 1.7191 0
M  V30 5717 C 551.779 -1.63247 0.602195 0
M  V30 5718 O 552.955 -1.81139 0.880369 0
M  V30 5719 C 550.02 -2.9586 1.80742 0
M  V30 5720 C 549.081 -3.02649 3.04471 0
M  V30 5721 C 548.314 -4.32374 3.12872 0
M  V30 5722 O 548.537 -5.22807 2.28099 0
M  V30 5723 O 547.471 -4.44728 4.05587 0
M  V30 5724 H 551.297 -1.44373 2.67189 0
M  V30 5725 H 548.882 -0.651717 1.34436 0
M  V30 5726 H 550.764 -3.7677 1.88739 0
M  V30 5727 H 549.439 -3.11325 0.88647 0
M  V30 5728 H 548.346 -2.20821 3.01975 0
M  V30 5729 H 549.679 -2.92119 3.9614 0
M  V30 5730 N 551.331 -1.39911 -0.725443 0
M  V30 5731 C 552.241 -1.41688 -1.8698 0
M  V30 5732 C 553.257 -0.310579 -1.71206 0
M  V30 5733 O 554.433 -0.55359 -1.93642 0
M  V30 5734 C 551.498 -1.26811 -3.22676 0
M  V30 5735 C 550.559 -2.47497 -3.50776 0
M  V30 5736 C 549.792 -2.3332 -4.79997 0
M  V30 5737 O 550.015 -1.34175 -5.54394 0
M  V30 5738 O 548.949 -3.22498 -5.08211 0
M  V30 5739 H 552.775 -2.38171 -1.88436 0
M  V30 5740 H 550.36 -1.21128 -0.874548 0
M  V30 5741 H 552.242 -1.20684 -4.03749 0
M  V30 5742 H 550.917 -0.334289 -3.21969 0
M  V30 5743 H 549.824 -2.59201 -2.69751 0
M  V30 5744 H 551.157 -3.39606 -3.5627 0
M  V30 5745 N 552.809 0.956637 -1.25245 0
M  V30 5746 C 554.055 1.70352 -1.10036 0
M  V30 5747 C 554.388 1.90869 0.358156 0
M  V30 5748 O 553.663 1.47819 1.26411 0
M  V30 5749 C 553.946 3.08766 -1.85298 0
M  V30 5750 C 553.799 2.95672 -3.38966 0
M  V30 5751 C 555.118 4.08622 -1.63451 0
M  V30 5752 H 552.237 0.618279 -0.401123 0
M  V30 5753 H 554.879 1.11212 -1.54051 0
M  V30 5754 H 553.029 3.59252 -1.47887 0
M  V30 5755 H 554.701 2.52527 -3.86041 0
M  V30 5756 H 552.944 2.31634 -3.6678 0
M  V30 5757 H 553.615 3.93776 -3.86839 0
M  V30 5758 H 556.091 3.67038 -1.96015 0
M  V30 5759 H 554.967 5.03514 -2.18551 0
M  V30 5760 H 555.228 4.3834 -0.575357 0
M  V30 5761 N 554.287 1.06798 1.15896 0
M  V30 5762 C 555.234 0.683314 2.20453 0
M  V30 5763 C 556.204 -0.32255 1.62938 0
M  V30 5764 O 557.389 -0.210276 1.89638 0
M  V30 5765 C 554.529 0.0813266 3.45004 0
M  V30 5766 C 553.642 1.13799 4.16742 0
M  V30 5767 C 552.777 0.501598 5.28826 0
M  V30 5768 C 551.816 1.54144 5.92373 0
M  V30 5769 N 550.953 0.928038 6.9594 0
M  V30 5770 H 555.793 1.57932 2.52708 0
M  V30 5771 H 553.33 0.789544 1.24115 0
M  V30 5772 H 555.288 -0.285274 4.16224 0
M  V30 5773 H 553.918 -0.77806 3.13283 0
M  V30 5774 H 552.97 1.62223 3.44075 0
M  V30 5775 H 554.282 1.92664 4.60089 0
M  V30 5776 H 553.436 0.0823162 6.06644 0
M  V30 5777 H 552.175 -0.318883 4.86656 0
M  V30 5778 H 551.18 1.97056 5.13273 0
M  V30 5779 H 552.405 2.3641 6.36621 0
M  V30 5780 H 550.351 0.12836 6.55874 0
M  V30 5781 H 550.268 1.65401 7.37685 0
M  V30 5782 H 551.536 0.534071 7.77668 0
M  V30 5783 N 555.766 -1.3263 0.851289 0
M  V30 5784 C 556.698 -2.27824 0.250757 0
M  V30 5785 C 557.711 -1.52285 -0.575598 0
M  V30 5786 O 558.9 -1.73946 -0.400638 0
M  V30 5787 C 556 -3.3232 -0.664571 0
M  V30 5788 C 555.173 -4.37221 0.125187 0
M  V30 5789 C 554.232 -5.21314 -0.715385 0
M  V30 5790 O 553.258 -5.69002 -0.150111 0
M  V30 5791 N 554.46 -5.43823 -2.03069 0
M  V30 5792 H 557.225 -2.79997 1.06873 0
M  V30 5793 H 554.786 -1.45455 0.710943 0
M  V30 5794 H 556.778 -3.85486 -1.23216 0
M  V30 5795 H 555.348 -2.80331 -1.38323 0
M  V30 5796 H 554.568 -3.84384 0.874199 0
M  V30 5797 H 555.856 -5.04399 0.667774 0
M  V30 5798 H 555.254 -5.06803 -2.51332 0
M  V30 5799 H 553.811 -5.99998 -2.54648 0
M  V30 5800 N 557.244 -0.608902 -1.45362 0
M  V30 5801 C 558.472 -0.111013 -2.06602 0
M  V30 5802 C 558.887 1.20516 -1.45332 0
M  V30 5803 O 558.244 1.73437 -0.567978 0
M  V30 5804 C 558.295 0.033688 -3.61484 0
M  V30 5805 O 558.016 -1.23041 -4.20467 0
M  V30 5806 C 559.517 0.562882 -4.39712 0
M  V30 5807 H 556.737 -0.0694453 -0.667397 0
M  V30 5808 H 559.281 -0.837008 -1.86586 0
M  V30 5809 H 557.436 0.710016 -3.80838 0
M  V30 5810 H 557.85 -1.06094 -5.13658 0
M  V30 5811 H 559.324 0.613213 -5.48583 0
M  V30 5812 H 559.801 1.58543 -4.09586 0
M  V30 5813 H 560.407 -0.0794454 -4.25226 0
M  V30 5814 N 558.722 1.53707 -0.348139 0
M  V30 5815 C 559.669 2.25173 0.506518 0
M  V30 5816 C 560.639 1.25174 1.09182 0
M  V30 5817 O 561.824 1.53917 1.12757 0
M  V30 5818 C 558.964 3.03141 1.64923 0
M  V30 5819 C 558.077 4.18002 1.0908 0
M  V30 5820 C 557.212 4.83447 2.20119 0
M  V30 5821 C 556.251 5.90369 1.61651 0
M  V30 5822 N 555.388 6.49575 2.66451 0
M  V30 5823 H 560.228 2.97799 -0.109452 0
M  V30 5824 H 557.765 1.46953 -0.0657866 0
M  V30 5825 H 559.723 3.46607 2.32205 0
M  V30 5826 H 558.353 2.32803 2.23612 0
M  V30 5827 H 557.405 3.79145 0.308783 0
M  V30 5828 H 558.717 4.94892 0.623178 0
M  V30 5829 H 557.871 5.30008 2.95257 0
M  V30 5830 H 556.61 4.05991 2.70227 0
M  V30 5831 H 555.615 5.43186 0.850209 0
M  V30 5832 H 556.84 6.69735 1.1239 0
M  V30 5833 H 554.786 5.74981 3.15805 0
M  V30 5834 H 554.703 7.21952 2.24325 0
M  V30 5835 H 555.971 7.00789 3.41344 0
M  V30 5836 N 560.2 0.0768682 1.57412 0
M  V30 5837 C 561.616 -0.279772 1.57129 0
M  V30 5838 C 561.816 -1.69688 1.08666 0
M  V30 5839 O 560.872 -2.40953 0.754843 0
M  V30 5840 C 562.185 -0.0848055 3.0058 0
M  V30 5841 C 563.733 -0.153954 3.12621 0
M  V30 5842 C 564.208 0.0127946 4.57998 0
M  V30 5843 N 565.699 -0.0426435 4.6318 0
M  V30 5844 C 566.434 0.0618892 5.73367 0
M  V30 5845 N 565.93 0.220229 6.9245 0
M  V30 5846 N 567.723 0.00446072 5.621 0
M  V30 5847 H 559.874 1.00297 1.87228 0
M  V30 5848 H 562.137 0.391565 0.863354 0
M  V30 5849 H 561.843 0.89325 3.40168 0
M  V30 5850 H 561.717 -0.834961 3.67843 0
M  V30 5851 H 564.104 -1.1225 2.72917 0
M  V30 5852 H 564.185 0.627389 2.47987 0
M  V30 5853 H 563.829 0.978128 4.98392 0
M  V30 5854 H 563.759 -0.788016 5.20671 0
M  V30 5855 H 566.25 -0.163226 3.77547 0
M  V30 5856 H 566.563 0.291999 7.72248 0
M  V30 5857 H 564.908 0.255658 6.9453 0
M  V30 5858 H 568.099 -0.117979 4.67951 0
M  V30 5859 H 568.272 0.0893796 6.47938 0
M  V30 5860 N 561.678 -1.56367 -0.196722 0
M  V30 5861 C 562.608 -1.97442 -1.24655 0
M  V30 5862 C 563.589 -0.846147 -1.47561 0
M  V30 5863 O 564.774 -1.11035 -1.59326 0
M  V30 5864 C 561.904 -2.31253 -2.59112 0
M  V30 5865 C 560.858 -3.46804 -2.50821 0
M  V30 5866 C 560.184 -3.66286 -3.89536 0
M  V30 5867 C 561.484 -4.8104 -2.03465 0
M  V30 5868 H 563.178 -2.85388 -0.905216 0
M  V30 5869 H 560.724 -1.37304 -0.434002 0
M  V30 5870 H 562.677 -2.58583 -3.32736 0
M  V30 5871 H 561.401 -1.40188 -2.94983 0
M  V30 5872 H 560.06 -3.19563 -1.79653 0
M  V30 5873 H 559.708 -2.72555 -4.22756 0
M  V30 5874 H 559.408 -4.4402 -3.84864 0
M  V30 5875 H 560.932 -3.9599 -4.64784 0
M  V30 5876 H 562.346 -5.07411 -2.66846 0
M  V30 5877 H 560.743 -5.62232 -2.09798 0
M  V30 5878 H 561.813 -4.74732 -0.98781 0
M  V30 5879 N 563.156 0.464375 -1.50603 0
M  V30 5880 C 564.103 1.56152 -1.69956 0
M  V30 5881 C 565.073 1.57046 -0.54091 0
M  V30 5882 O 566.258 1.74473 -0.772258 0
M  V30 5883 C 563.398 2.94079 -1.80586 0
M  V30 5884 C 562.511 3.02923 -3.07996 0
M  V30 5885 C 561.646 4.31806 -3.09382 0
M  V30 5886 C 560.685 4.34417 -4.31218 0
M  V30 5887 N 559.822 5.54782 -4.30304 0
M  V30 5888 H 564.662 1.38955 -2.6362 0
M  V30 5889 H 562.199 0.675482 -1.30674 0
M  V30 5890 H 564.157 3.74073 -1.8473 0
M  V30 5891 H 562.787 3.09896 -0.903556 0
M  V30 5892 H 561.839 2.1576 -3.13292 0
M  V30 5893 H 563.151 3.00712 -3.97962 0
M  V30 5894 H 562.305 5.20153 -3.12292 0
M  V30 5895 H 561.044 4.36636 -2.17257 0
M  V30 5896 H 560.049 3.44467 -4.28512 0
M  V30 5897 H 561.274 4.31273 -5.24576 0
M  V30 5898 H 559.22 5.60384 -3.41037 0
M  V30 5899 H 559.137 5.54339 -5.14047 0
M  V30 5900 H 560.405 6.45235 -4.3737 0
M  V30 5901 N 564.634 1.40294 0.718013 0
M  V30 5902 C 565.882 1.38167 1.47494 0
M  V30 5903 C 566.203 -0.01607 1.94993 0
M  V30 5904 O 565.473 -0.970396 1.70177 0
M  V30 5905 H 564.053 0.508505 0.547203 0
M  V30 5906 H 566.715 1.75324 0.851322 0
M  V30 5907 H 565.811 2.05503 2.34894 0
M  V30 5908 N 566.112 -0.949982 1.2575 0
M  V30 5909 C 567.042 -2.06483 1.09028 0
M  V30 5910 C 568.023 -1.701 -0.00201532 0
M  V30 5911 O 569.208 -1.93469 0.168383 0
M  V30 5912 C 566.338 -3.39899 0.71316 0
M  V30 5913 C 565.292 -3.90309 1.75621 0
M  V30 5914 C 564.618 -5.20274 1.23365 0
M  V30 5915 C 565.918 -4.16169 3.15596 0
M  V30 5916 H 567.612 -2.20731 2.02283 0
M  V30 5917 H 565.158 -1.06066 0.973964 0
M  V30 5918 H 567.111 -4.17346 0.58309 0
M  V30 5919 H 565.835 -3.25602 -0.255091 0
M  V30 5920 H 564.494 -3.15035 1.8748 0
M  V30 5921 H 564.142 -5.02351 0.255491 0
M  V30 5922 H 563.842 -5.54971 1.93082 0
M  V30 5923 H 565.366 -6.00314 1.11607 0
M  V30 5924 H 566.78 -4.84259 3.06864 0
M  V30 5925 H 565.177 -4.62131 3.82825 0
M  V30 5926 H 566.247 -3.22273 3.6231 0
M  V30 5927 N 567.59 -1.07411 -1.15328 0
M  V30 5928 C 569.006 -0.799759 -1.38116 0
M  V30 5929 C 569.206 0.59572 -1.92493 0
M  V30 5930 O 568.262 1.35433 -2.13106 0
M  V30 5931 C 569.575 -1.87407 -2.35158 0
M  V30 5932 C 571.123 -1.89889 -2.48819 0
M  V30 5933 C 571.598 -2.96406 -3.49153 0
M  V30 5934 N 573.089 -2.95512 -3.56689 0
M  V30 5935 C 573.824 -3.74575 -4.34144 0
M  V30 5936 N 573.32 -4.63488 -5.14928 0
M  V30 5937 N 575.113 -3.62919 -4.29239 0
M  V30 5938 H 567.264 -1.97411 -0.78374 0
M  V30 5939 H 569.527 -0.856113 -0.407154 0
M  V30 5940 H 569.233 -2.8768 -2.0232 0
M  V30 5941 H 569.107 -1.73471 -3.34944 0
M  V30 5942 H 571.494 -0.902677 -2.80955 0
M  V30 5943 H 571.575 -2.07904 -1.49029 0
M  V30 5944 H 571.219 -3.96227 -3.17752 0
M  V30 5945 H 571.149 -2.75638 -4.48699 0
M  V30 5946 H 573.64 -2.31061 -2.99031 0
M  V30 5947 H 573.953 -5.20445 -5.71276 0
M  V30 5948 H 572.298 -4.67537 -5.14232 0
M  V30 5949 H 575.489 -2.92833 -3.65194 0
M  V30 5950 H 575.662 -4.24777 -4.89355 0
M  V30 5951 N 569.068 1.32177 -0.85831 0
M  V30 5952 C 570.015 2.28794 -0.303607 0
M  V30 5953 C 570.985 1.55213 0.591453 0
M  V30 5954 O 572.17 1.83418 0.525585 0
M  V30 5955 C 569.31 3.41475 0.49889 0
M  V30 5956 C 568.423 4.2993 -0.422373 0
M  V30 5957 C 567.558 5.29743 0.393111 0
M  V30 5958 C 566.597 6.09842 -0.525317 0
M  V30 5959 N 565.734 7.01643 0.253208 0
M  V30 5960 H 570.574 2.75631 -1.13276 0
M  V30 5961 H 568.111 1.35606 -0.570026 0
M  V30 5962 H 570.069 4.05531 0.979826 0
M  V30 5963 H 568.699 2.95779 1.29284 0
M  V30 5964 H 567.751 3.66422 -1.02171 0
M  V30 5965 H 569.063 4.85899 -1.12709 0
M  V30 5966 H 568.217 5.9942 0.937056 0
M  V30 5967 H 566.956 4.744 1.13117 0
M  V30 5968 H 565.961 5.39066 -1.08112 0
M  V30 5969 H 567.186 6.6727 -1.26205 0
M  V30 5970 H 565.132 6.48725 0.974295 0
M  V30 5971 H 565.049 7.54981 -0.392398 0
M  V30 5972 H 566.317 7.756 0.778761 0
M  V30 5973 N 570.547 0.616602 1.45037 0
M  V30 5974 C 571.824 0.0469086 1.95544 0
M  V30 5975 C 572.204 -1.42345 1.55888 0
M  V30 5976 O 571.552 -2.13055 0.825824 0
M  V30 5977 C 571.762 0.254489 3.48071 0
M  V30 5978 C 573.11 0.140025 4.24369 0
M  V30 5979 O 574.134 0.185084 3.55719 0
M  V30 5980 O 572.993 0.0327034 5.4649 0
M  V30 5981 H 570.087 -0.0306051 0.826433 0
M  V30 5982 H 572.633 0.687293 1.55159 0
M  V30 5983 H 571.405 1.27532 3.69934 0
M  V30 5984 H 571.028 -0.42073 3.95368 0
M  V30 5985 N 572.025 -1.5352 0.356285 0
M  V30 5986 C 573.25 -2.06007 -0.239961 0
M  V30 5987 C 573.675 -1.22872 -1.42422 0
M  V30 5988 O 573.033 -0.245516 -1.7963 0
M  V30 5989 C 573.081 -3.5522 -0.620587 0
M  V30 5990 O 572.185 -3.74864 -1.71902 0
M  V30 5991 H 571.526 -0.662961 -0.0371377 0
M  V30 5992 H 574.056 -1.98033 0.514194 0
M  V30 5993 H 574.066 -3.98081 -0.894197 0
M  V30 5994 H 572.741 -4.15175 0.245407 0
M  V30 5995 H 571.318 -3.43904 -1.44169 0
M  V30 5996 N 573.503 -0.0852151 -1.57369 0
M  V30 5997 C 574.728 0.592872 -1.98746 0
M  V30 5998 C 575.153 1.61538 -0.963689 0
M  V30 5999 O 574.511 1.81168 0.069071 0
M  V30 6000 C 574.559 1.22599 -3.39119 0
M  V30 6001 O 573.663 2.34185 -3.39457 0
M  V30 6002 H 573.004 0.151314 -0.646529 0
M  V30 6003 H 575.534 -0.163703 -2.03944 0
M  V30 6004 H 575.544 1.56965 -3.76598 0
M  V30 6005 H 574.219 0.476831 -4.13158 0
M  V30 6006 H 572.796 2.01512 -3.13763 0
M  V30 6007 N 574.981 1.5647 0.188427 0
M  V30 6008 C 576.206 1.85486 0.927891 0
M  V30 6009 C 576.631 0.669575 1.75779 0
M  V30 6010 O 575.989 -0.381573 1.77239 0
M  V30 6011 C 576.037 3.12784 1.7944 0
M  V30 6012 O 575.141 2.93805 2.894 0
M  V30 6013 H 574.482 0.610585 0.260925 0
M  V30 6014 H 577.012 2.037 0.191729 0
M  V30 6015 H 577.022 3.43749 2.19774 0
M  V30 6016 H 575.697 3.98671 1.18468 0
M  V30 6017 H 574.274 2.74153 2.52774 0
M  V30 6018 N 576.459 -0.456382 1.50847 0
M  V30 6019 C 577.392 -1.57177 1.65441 0
M  V30 6020 C 578.37 -1.54649 0.502224 0
M  V30 6021 O 579.554 -1.74057 0.723633 0
M  V30 6022 C 576.681 -2.95763 1.65052 0
M  V30 6023 C 575.727 -3.16389 2.86007 0
M  V30 6024 S 576.56 -2.94716 4.47105 0
M  V30 6025 C 577.716 -4.35617 4.49432 0
M  V30 6026 H 577.949 -1.44561 2.59787 0
M  V30 6027 H 575.482 -0.644758 1.40293 0
M  V30 6028 H 577.44 -3.75654 1.65512 0
M  V30 6029 H 576.101 -3.05756 0.719153 0
M  V30 6030 H 575.294 -4.17667 2.82081 0
M  V30 6031 H 574.896 -2.44293 2.8319 0
M  V30 6032 H 577.188 -5.28503 4.239 0
M  V30 6033 H 578.131 -4.44582 5.51137 0
M  V30 6034 H 578.539 -4.18382 3.78967 0
M  V30 6035 N 577.937 -1.40673 -0.710563 0
M  V30 6036 C 578.847 -1.43663 -1.85467 0
M  V30 6037 C 579.863 -0.328721 -1.70867 0
M  V30 6038 O 581.039 -0.574098 -1.93044 0
M  V30 6039 C 578.104 -1.30226 -3.21313 0
M  V30 6040 C 577.165 -2.51204 -3.48131 0
M  V30 6041 C 576.398 -2.38398 -4.77495 0
M  V30 6042 O 576.621 -1.40048 -5.5294 0
M  V30 6043 O 575.555 -3.2787 -5.04762 0
M  V30 6044 H 579.381 -2.40156 -1.859 0
M  V30 6045 H 576.966 -1.22049 -0.861652 0
M  V30 6046 H 578.848 -1.2496 -4.02446 0
M  V30 6047 H 577.523 -0.368419 -3.21597 0
M  V30 6048 H 576.43 -2.62048 -2.66987 0
M  V30 6049 H 577.763 -3.43366 -3.52648 0
M  V30 6050 N 579.415 0.9433 -1.26252 0
M  V30 6051 C 580.663 1.68592 -1.11451 0
M  V30 6052 C 580.984 1.91957 0.343123 0
M  V30 6053 O 580.254 1.51475 1.24226 0
M  V30 6054 H 578.834 0.624789 -0.409448 0
M  V30 6055 H 581.496 1.13351 -1.58548 0
M  V30 6056 H 580.592 2.66054 -1.63162 0
M  V30 6057 N 580.893 1.08022 1.14757 0
M  V30 6058 C 582.133 0.816959 1.87364 0
M  V30 6059 C 582.497 -0.645407 1.80827 0
M  V30 6060 O 583.698 -1.024 2.48531 0
M  V30 6061 C 581.969 1.31961 3.32146 0
M  V30 6062 S 583.528 1.18806 4.2241 0
M  V30 6063 H 580.346 0.295862 0.646519 0
M  V30 6064 H 582.948 1.3807 1.38408 0
M  V30 6065 H 581.652 2.37847 3.3445 0
M  V30 6066 H 581.183 0.751371 3.86158 0
M  V30 6067 H 583.198 0.129865 4.9603 0
M  V30 6068 N 582.371 -1.3172 0.865308 0
M  V30 6069 C 583.321 -2.26157 0.289305 0
M  V30 6070 C 584.305 -1.50428 -0.570977 0
M  V30 6071 O 585.497 -1.71978 -0.418617 0
M  V30 6072 C 582.626 -3.39457 -0.512237 0
M  V30 6073 C 581.712 -4.22561 0.361028 0
M  V30 6074 N 582.103 -4.84501 1.45231 0
M  V30 6075 C 580.401 -4.45739 0.152641 0
M  V30 6076 C 581.102 -5.46586 1.99043 0
M  V30 6077 N 580.078 -5.28119 1.28809 0
M  V30 6078 H 583.88 -2.71581 1.12344 0
M  V30 6079 H 581.394 -1.45932 0.712565 0
M  V30 6080 H 583.391 -4.06133 -0.941379 0
M  V30 6081 H 582.051 -2.95577 -1.34404 0
M  V30 6082 H 583.062 -4.84293 1.83524 0
M  V30 6083 H 579.739 -4.1251 -0.643583 0
M  V30 6084 H 581.129 -6.05817 2.90577 0
M  V30 6085 N 583.85 -0.624285 -1.44708 0
M  V30 6086 C 585.075 -0.131171 -2.06985 0
M  V30 6087 C 585.5 1.18234 -1.46295 0
M  V30 6088 O 584.858 1.72375 -0.561842 0
M  V30 6089 C 584.906 -0.0226724 -3.60593 0
M  V30 6090 O 584.01 1.02314 -3.99507 0
M  V30 6091 H 583.351 -0.0816556 -0.65896 0
M  V30 6092 H 585.88 -0.859027 -1.85693 0
M  V30 6093 H 585.891 0.170138 -4.07645 0
M  V30 6094 H 584.566 -0.981685 -4.04148 0
M  V30 6095 H 583.143 0.805452 -3.64097 0
M  V30 6096 N 585.328 1.53329 -0.364422 0
M  V30 6097 C 586.575 2.01239 0.225634 0
M  V30 6098 C 586.903 1.25172 1.48869 0
M  V30 6099 O 586.158 0.333289 1.92841 0
M  V30 6100 C 586.457 3.52911 0.564661 0
M  V30 6101 C 586.123 4.46837 -0.603936 0
M  V30 6102 C 584.785 4.72234 -0.924585 0
M  V30 6103 C 587.137 5.02409 -1.38691 0
M  V30 6104 C 584.465 5.50454 -2.0302 0
M  V30 6105 C 586.817 5.81836 -2.48293 0
M  V30 6106 C 585.481 6.0552 -2.80894 0
M  V30 6107 H 584.751 0.736386 0.0825654 0
M  V30 6108 H 587.398 1.84948 -0.496645 0
M  V30 6109 H 585.703 3.67144 1.36794 0
M  V30 6110 H 587.4 3.87455 1.03344 0
M  V30 6111 H 583.99 4.27217 -0.343983 0
M  V30 6112 H 588.174 4.82735 -1.15243 0
M  V30 6113 H 583.43 5.67024 -2.28678 0
M  V30 6114 H 587.604 6.23905 -3.0938 0
M  V30 6115 H 585.231 6.65916 -3.66688 0
M  V30 6116 N 586.806 0.0935595 1.57322 0
M  V30 6117 C 588.031 -0.582324 1.99057 0
M  V30 6118 C 588.456 -1.61025 0.972242 0
M  V30 6119 O 587.814 -1.81202 -0.0594622 0
M  V30 6120 C 587.862 -1.20799 3.39765 0
M  V30 6121 O 586.966 -2.32382 3.40694 0
M  V30 6122 H 586.307 -0.147884 0.647323 0
M  V30 6123 H 588.837 0.174516 2.03854 0
M  V30 6124 H 588.847 -1.54966 3.77425 0
M  V30 6125 H 587.522 -0.454914 4.13405 0
M  V30 6126 H 586.099 -1.99845 3.14827 0
M  V30 6127 N 588.284 -1.56567 -0.180126 0
M  V30 6128 C 589.247 -1.94852 -1.20686 0
M  V30 6129 C 590.247 -0.831212 -1.3765 0
M  V30 6130 O 591.437 -1.09841 -1.35206 0
M  V30 6131 C 588.569 -2.23565 -2.57355 0
M  V30 6132 H 589.762 -2.86722 -0.879225 0
M  V30 6133 H 587.315 -1.50489 -0.422237 0
M  V30 6134 H 588.05 -1.34381 -2.95148 0
M  V30 6135 H 587.835 -3.04999 -2.46411 0
M  V30 6136 H 589.325 -2.54137 -3.31367 0
M  V30 6137 N 589.762 0.448376 -1.51087 0
M  V30 6138 C 590.987 1.22605 -1.6728 0
M  V30 6139 C 591.412 1.84524 -0.365045 0
M  V30 6140 O 590.77 1.6832 0.673642 0
M  V30 6141 C 590.818 2.29393 -2.78229 0
M  V30 6142 O 589.922 3.34608 -2.41063 0
M  V30 6143 H 589.263 0.359705 -0.558129 0
M  V30 6144 H 591.793 0.530903 -1.97592 0
M  V30 6145 H 591.803 2.74352 -3.01986 0
M  V30 6146 H 590.478 1.83701 -3.73131 0
M  V30 6147 H 589.055 2.95202 -2.27838 0
M  V30 6148 N 591.24 1.41047 0.703093 0
M  V30 6149 C 592.48 1.41461 1.4754 0
M  V30 6150 C 592.844 0.0199013 1.9199 0
M  V30 6151 O 594.045 -0.101138 2.6861 0
M  V30 6152 C 592.316 2.38703 2.66 0
M  V30 6153 S 593.875 2.57582 3.55242 0
M  V30 6154 H 590.693 0.501226 0.504275 0
M  V30 6155 H 593.295 1.77422 0.821074 0
M  V30 6156 H 591.999 3.3885 2.31536 0
M  V30 6157 H 591.53 2.04069 3.36333 0
M  V30 6158 H 593.545 1.83758 4.6092 0
M  V30 6159 N 592.718 -0.936591 1.26751 0
M  V30 6160 C 593.648 -2.05315 1.11212 0
M  V30 6161 C 594.629 -1.70092 0.0160262 0
M  V30 6162 O 595.814 -1.93279 0.188894 0
M  V30 6163 C 592.944 -3.39123 0.749171 0
M  V30 6164 C 591.898 -3.88425 1.79751 0
M  V30 6165 C 591.224 -5.18936 1.28876 0
M  V30 6166 C 592.524 -4.12798 3.19992 0
M  V30 6167 H 594.218 -2.18573 2.04613 0
M  V30 6168 H 591.764 -1.05027 0.985159 0
M  V30 6169 H 593.717 -4.16704 0.627323 0
M  V30 6170 H 592.441 -3.25855 -0.220543 0
M  V30 6171 H 591.1 -3.13028 1.90811 0
M  V30 6172 H 590.748 -5.02051 0.308757 0
M  V30 6173 H 590.448 -5.52892 1.98958 0
M  V30 6174 H 591.972 -5.99096 1.17967 0
M  V30 6175 H 593.386 -4.80977 3.11983 0
M  V30 6176 H 591.783 -4.58044 3.87705 0
M  V30 6177 H 592.853 -3.18412 3.65707 0
M  V30 6178 N 594.196 -1.08629 -1.14182 0
M  V30 6179 C 595.424 -0.838889 -1.8913 0
M  V30 6180 C 595.839 0.609153 -1.78703 0
M  V30 6181 O 595.196 1.41876 -1.14794 0
M  V30 6182 C 595.247 -1.25477 -3.39025 0
M  V30 6183 O 594.968 -2.64601 -3.49167 0
M  V30 6184 C 596.469 -1.03856 -4.30963 0
M  V30 6185 H 593.689 -0.302377 -0.599007 0
M  V30 6186 H 596.233 -1.44615 -1.44592 0
M  V30 6187 H 594.388 -0.691571 -3.81177 0
M  V30 6188 H 594.802 -2.81922 -4.42289 0
M  V30 6189 H 596.276 -1.37892 -5.345 0
M  V30 6190 H 596.753 0.0242522 -4.39193 0
M  V30 6191 H 597.359 -1.58731 -3.94569 0
M  V30 6192 N 595.674 1.31259 -0.872281 0
M  V30 6193 C 596.606 2.27396 -0.28697 0
M  V30 6194 C 597.619 1.53181 0.551297 0
M  V30 6195 O 598.808 1.74561 0.372914 0
M  V30 6196 C 595.908 3.33335 0.611617 0
M  V30 6197 C 595.081 4.36966 -0.194729 0
M  V30 6198 C 594.14 5.22387 0.632358 0
M  V30 6199 O 593.166 5.69169 0.0595691 0
M  V30 6200 N 594.368 5.46985 1.94391 0
M  V30 6201 H 597.133 2.78261 -1.11314 0
M  V30 6202 H 594.694 1.44306 -0.733994 0
M  V30 6203 H 596.686 3.87398 1.17068 0
M  V30 6204 H 595.256 2.82496 1.33846 0
M  V30 6205 H 594.476 3.82945 -0.935241 0
M  V30 6206 H 595.764 5.03273 -0.747935 0
M  V30 6207 H 595.162 5.10737 2.43237 0
M  V30 6208 H 593.719 6.03973 2.45071 0
M  V30 6209 N 597.152 0.631951 1.44375 0
M  V30 6210 C 598.399 0.136767 2.02038 0
M  V30 6211 C 598.727 -1.24168 1.49709 0
M  V30 6212 O 597.982 -1.83809 0.671763 0
M  V30 6213 C 598.281 0.0735861 3.57324 0
M  V30 6214 C 597.947 1.39092 4.28911 0
M  V30 6215 C 596.609 1.75171 4.48184 0
M  V30 6216 C 598.961 2.26042 4.69632 0
M  V30 6217 C 596.289 2.97907 5.05439 0
M  V30 6218 C 598.641 3.4805 5.28246 0
M  V30 6219 C 597.305 3.84351 5.45738 0
M  V30 6220 H 596.575 0.0500466 0.739308 0
M  V30 6221 H 599.222 0.818429 1.7313 0
M  V30 6222 H 597.527 -0.691449 3.8565 0
M  V30 6223 H 599.224 -0.326091 3.99672 0
M  V30 6224 H 595.814 1.10015 4.1424 0
M  V30 6225 H 599.998 1.99463 4.54454 0
M  V30 6226 H 595.254 3.26108 5.17169 0
M  V30 6227 H 599.428 4.15658 5.5875 0
M  V30 6228 H 597.055 4.79538 5.8987 0
M  V30 6229 N 598.631 -1.53133 0.372548 0
M  V30 6230 C 599.871 -2.03267 -0.214943 0
M  V30 6231 C 600.235 -1.25362 -1.45425 0
M  V30 6232 O 601.436 -1.65536 -2.11781 0
M  V30 6233 C 599.707 -3.53985 -0.492897 0
M  V30 6234 S 601.266 -4.25977 -1.05307 0
M  V30 6235 H 598.084 -0.708289 -0.062029 0
M  V30 6236 H 600.686 -1.88539 0.517025 0
M  V30 6237 H 599.39 -4.08282 0.416442 0
M  V30 6238 H 598.921 -3.72887 -1.25375 0
M  V30 6239 H 600.936 -4.37731 -2.33679 0
M  V30 6240 N 600.109 -0.101901 -1.5727 0
M  V30 6241 C 601.358 0.559922 -1.93772 0
M  V30 6242 C 601.671 1.68913 -0.98629 0
M  V30 6243 O 602.877 2.41256 -1.24529 0
M  V30 6244 C 601.333 1.04739 -3.44322 0
M  V30 6245 C 600.941 -0.05243 -4.47969 0
M  V30 6246 C 602.685 1.68157 -3.89774 0
M  V30 6247 C 600.592 0.450781 -5.8968 0
M  V30 6248 H 599.522 0.212931 -0.723309 0
M  V30 6249 H 602.173 -0.179001 -1.82625 0
M  V30 6250 H 600.555 1.84021 -3.50645 0
M  V30 6251 H 601.729 -0.828157 -4.53297 0
M  V30 6252 H 600.044 -0.592202 -4.12167 0
M  V30 6253 H 602.641 2.0689 -4.93052 0
M  V30 6254 H 602.984 2.55338 -3.28798 0
M  V30 6255 H 603.517 0.954453 -3.8618 0
M  V30 6256 H 600.256 -0.38458 -6.54371 0
M  V30 6257 H 599.776 1.19336 -5.87809 0
M  V30 6258 H 601.455 0.917555 -6.40461 0
M  V30 6259 N 601.587 1.56661 0.17182 0
M  V30 6260 C 602.517 1.99401 1.21498 0
M  V30 6261 C 603.498 0.869516 1.46197 0
M  V30 6262 O 604.683 1.13556 1.57539 0
M  V30 6263 C 601.813 2.35346 2.55401 0
M  V30 6264 C 600.767 3.5075 2.45272 0
M  V30 6265 C 600.093 3.72437 3.8366 0
M  V30 6266 C 601.393 4.84216 1.95787 0
M  V30 6267 H 603.087 2.86792 0.859699 0
M  V30 6268 H 600.633 1.37977 0.412103 0
M  V30 6269 H 602.586 2.63843 3.2858 0
M  V30 6270 H 601.31 1.44864 2.92715 0
M  V30 6271 H 599.969 3.2238 1.74547 0
M  V30 6272 H 599.617 2.79246 4.18367 0
M  V30 6273 H 599.317 4.50087 3.77751 0
M  V30 6274 H 600.841 4.03334 4.58426 0
M  V30 6275 H 602.255 5.11592 2.5874 0
M  V30 6276 H 600.652 5.65498 2.00827 0
M  V30 6277 H 601.722 4.76243 0.912159 0
M  V30 6278 N 603.065 -0.440357 1.51323 0
M  V30 6279 C 604.312 -1.19004 1.63842 0
M  V30 6280 C 604.64 -1.91266 0.35321 0
M  V30 6281 O 603.895 -1.84143 -0.662565 0
M  V30 6282 C 604.194 -2.2339 2.78984 0
M  V30 6283 C 603.86 -1.68162 4.18369 0
M  V30 6284 C 602.522 -1.52823 4.56288 0
M  V30 6285 C 604.874 -1.27524 5.05358 0
M  V30 6286 C 602.202 -0.953157 5.78906 0
M  V30 6287 C 604.554 -0.714474 6.28552 0
M  V30 6288 C 603.218 -0.547961 6.65247 0
M  V30 6289 H 602.488 -0.435468 0.59954 0
M  V30 6290 H 605.135 -0.481538 1.85347 0
M  V30 6291 H 603.44 -3.00267 2.51688 0
M  V30 6292 H 605.137 -2.81211 2.85869 0
M  V30 6293 H 601.727 -1.81077 3.8847 0
M  V30 6294 H 605.911 -1.38197 4.76671 0
M  V30 6295 H 601.167 -0.811882 6.05986 0
M  V30 6296 H 605.341 -0.391059 6.95301 0
M  V30 6297 H 602.968 -0.100222 7.60134 0
M  V30 6298 N 604.543 -1.41418 -0.695603 0
M  V30 6299 C 605.49 -1.43264 -1.80954 0
M  V30 6300 C 606.46 -0.287016 -1.63601 0
M  V30 6301 O 607.645 -0.488054 -1.84452 0
M  V30 6302 C 604.785 -1.32054 -3.18835 0
M  V30 6303 C 603.898 -2.56485 -3.4762 0
M  V30 6304 C 603.033 -2.3757 -4.75115 0
M  V30 6305 C 602.072 -3.57477 -4.96867 0
M  V30 6306 N 601.209 -3.37632 -6.15588 0
M  V30 6307 H 606.049 -2.38467 -1.78711 0
M  V30 6308 H 603.586 -1.18415 -0.872715 0
M  V30 6309 H 605.544 -1.23558 -3.98484 0
M  V30 6310 H 604.174 -0.404592 -3.20254 0
M  V30 6311 H 603.226 -2.75432 -2.62376 0
M  V30 6312 H 604.538 -3.45678 -3.59594 0
M  V30 6313 H 603.692 -2.2654 -5.62818 0
M  V30 6314 H 602.431 -1.45834 -4.65386 0
M  V30 6315 H 601.436 -3.68961 -4.07612 0
M  V30 6316 H 602.661 -4.50167 -5.08455 0
M  V30 6317 H 600.607 -2.48596 -6.07072 0
M  V30 6318 H 600.524 -4.20401 -6.2833 0
M  V30 6319 H 601.792 -3.30375 -7.06026 0
M  V30 6320 N 606.021 0.929856 -1.27246 0
M  V30 6321 C 607.437 1.20542 -1.04603 0
M  V30 6322 C 607.637 2.00276 0.221754 0
M  V30 6323 O 606.693 2.34835 0.927833 0
M  V30 6324 C 608.006 1.95566 -2.28417 0
M  V30 6325 C 609.554 2.08513 -2.33433 0
M  V30 6326 C 610.029 2.86943 -3.5697 0
M  V30 6327 N 611.52 2.94512 -3.57515 0
M  V30 6328 C 612.255 3.55656 -4.49774 0
M  V30 6329 N 611.751 4.18209 -5.52334 0
M  V30 6330 N 613.544 3.53038 -4.37402 0
M  V30 6331 H 605.695 0.397113 -2.08655 0
M  V30 6332 H 607.958 0.238277 -0.917566 0
M  V30 6333 H 607.664 1.44395 -3.20691 0
M  V30 6334 H 607.538 2.9619 -2.33563 0
M  V30 6335 H 609.925 2.58872 -1.41666 0
M  V30 6336 H 610.006 1.07117 -2.32292 0
M  V30 6337 H 609.65 2.37268 -4.49072 0
M  V30 6338 H 609.58 3.8862 -3.55362 0
M  V30 6339 H 612.071 2.50053 -2.83341 0
M  V30 6340 H 612.384 4.62796 -6.18902 0
M  V30 6341 H 610.729 4.16761 -5.56179 0
M  V30 6342 H 613.92 3.0337 -3.56489 0
M  V30 6343 H 614.093 4.004 -5.09493 0
M  V30 6344 N 607.499 1.09233 1.13605 0
M  V30 6345 C 608.727 0.848908 1.88683 0
M  V30 6346 C 609.142 -0.599667 1.79024 0
M  V30 6347 O 608.499 -1.41265 1.15544 0
M  V30 6348 C 608.55 1.27273 3.38355 0
M  V30 6349 O 608.271 2.66449 3.47759 0
M  V30 6350 C 609.772 1.0614 4.30406 0
M  V30 6351 H 606.992 0.305549 0.597395 0
M  V30 6352 H 609.536 1.4538 1.43823 0
M  V30 6353 H 607.691 0.711776 3.80805 0
M  V30 6354 H 608.105 2.84264 4.40788 0
M  V30 6355 H 609.579 1.40725 5.33761 0
M  V30 6356 H 610.056 -0.000960332 4.392 0
M  V30 6357 H 610.662 1.60821 3.93722 0
M  V30 6358 N 608.977 -1.30795 0.87923 0
M  V30 6359 C 610.224 -1.96362 0.494786 0
M  V30 6360 C 610.552 -1.69448 -0.954868 0
M  V30 6361 O 609.807 -0.988711 -1.68888 0
M  V30 6362 C 610.106 -3.50287 0.709476 0
M  V30 6363 C 609.772 -3.9724 2.13333 0
M  V30 6364 C 608.434 -4.09772 2.52271 0
M  V30 6365 C 610.786 -4.21807 3.06151 0
M  V30 6366 C 608.114 -4.44227 3.83248 0
M  V30 6367 C 610.466 -4.5773 4.36654 0
M  V30 6368 C 609.13 -4.68469 4.75492 0
M  V30 6369 H 608.4 -0.71854 0.181055 0
M  V30 6370 H 611.047 -1.55764 1.11399 0
M  V30 6371 H 609.352 -3.91799 0.0072 0
M  V30 6372 H 611.049 -3.99082 0.391703 0
M  V30 6373 H 607.639 -3.87988 1.82107 0
M  V30 6374 H 611.823 -4.11611 2.77291 0
M  V30 6375 H 607.079 -4.50741 4.13089 0
M  V30 6376 H 611.253 -4.7569 5.08617 0
M  V30 6377 H 608.88 -4.94923 5.77022 0
M  V30 6378 N 610.455 -0.639598 -1.44038 0
M  V30 6379 C 611.385 0.0469443 -2.33453 0
M  V30 6380 C 612.366 0.82609 -1.48694 0
M  V30 6381 O 613.551 0.790285 -1.77393 0
M  V30 6382 C 610.681 1.02338 -3.3188 0
M  V30 6383 C 609.635 0.355284 -4.26523 0
M  V30 6384 C 608.961 1.44221 -5.14883 0
M  V30 6385 C 610.261 -0.743798 -5.16977 0
M  V30 6386 H 611.955 -0.699735 -2.91108 0
M  V30 6387 H 609.501 -0.337946 -1.39978 0
M  V30 6388 H 611.454 1.51247 -3.93322 0
M  V30 6389 H 610.178 1.80105 -2.72451 0
M  V30 6390 H 608.837 -0.113239 -3.66425 0
M  V30 6391 H 608.485 2.21097 -4.51802 0
M  V30 6392 H 608.185 1.00052 -5.79019 0
M  V30 6393 H 609.709 1.93295 -5.79197 0
M  V30 6394 H 611.123 -0.337444 -5.72306 0
M  V30 6395 H 609.52 -1.10914 -5.89761 0
M  V30 6396 H 610.59 -1.60745 -4.57481 0
M  V30 6397 N 611.933 1.52934 -0.380664 0
M  V30 6398 C 613.158 2.06363 0.207157 0
M  V30 6399 C 613.583 1.25122 1.4045 0
M  V30 6400 O 612.941 0.274062 1.79217 0
M  V30 6401 C 612.989 3.56162 0.563996 0
M  V30 6402 O 612.093 3.77552 1.65917 0
M  V30 6403 H 611.434 0.663468 0.0265859 0
M  V30 6404 H 613.964 1.9719 -0.545635 0
M  V30 6405 H 613.974 3.99453 0.830752 0
M  V30 6406 H 612.649 4.14732 -0.311427 0
M  V30 6407 H 611.226 3.46154 1.3868 0
M  V30 6408 N 613.412 0.11024 1.57214 0
M  V30 6409 C 614.661 -0.549638 1.94067 0
M  V30 6410 C 614.974 -1.68388 0.995234 0
M  V30 6411 O 616.18 -2.40593 1.25807 0
M  V30 6412 C 614.636 -1.02912 3.44873 0
M  V30 6413 C 614.244 0.0761861 4.47935 0
M  V30 6414 C 615.988 -1.66087 3.9066 0
M  V30 6415 C 613.895 -0.419502 5.8991 0
M  V30 6416 H 612.825 -0.209092 0.724428 0
M  V30 6417 H 615.476 0.188683 1.82527 0
M  V30 6418 H 613.858 -1.82159 3.51616 0
M  V30 6419 H 615.032 0.852185 4.52851 0
M  V30 6420 H 613.347 0.614052 4.11847 0
M  V30 6421 H 615.944 -2.04272 4.94143 0
M  V30 6422 H 616.287 -2.53591 3.30148 0
M  V30 6423 H 616.82 -0.933959 3.86681 0
M  V30 6424 H 613.559 0.419277 6.54158 0
M  V30 6425 H 613.079 -1.16217 5.88433 0
M  V30 6426 H 614.758 -0.883577 6.40938 0
M  V30 6427 N 614.89 -1.56749 -0.16351 0
M  V30 6428 C 615.823 -1.9213 -1.23132 0
M  V30 6429 C 616.801 -0.785047 -1.42393 0
M  V30 6430 O 617.985 -1.0391 -1.57273 0
M  V30 6431 C 615.112 -2.17901 -2.59301 0
M  V30 6432 C 614.158 -3.40576 -2.5673 0
M  V30 6433 S 614.991 -4.94689 -2.05045 0
M  V30 6434 C 616.147 -5.23564 -3.42975 0
M  V30 6435 H 616.38 -2.824 -0.929383 0
M  V30 6436 H 613.913 -1.4994 -0.368418 0
M  V30 6437 H 615.871 -2.33429 -3.3767 0
M  V30 6438 H 614.532 -1.28324 -2.86691 0
M  V30 6439 H 613.725 -3.55833 -3.5693 0
M  V30 6440 H 613.327 -3.24204 -1.86462 0
M  V30 6441 H 615.619 -5.16019 -4.3901 0
M  V30 6442 H 616.562 -6.25134 -3.32586 0
M  V30 6443 H 616.97 -4.51113 -3.39348 0
M  V30 6444 N 616.368 0.432326 -1.51554 0
M  V30 6445 C 617.784 0.769195 -1.39841 0
M  V30 6446 C 617.984 1.95584 -0.484675 0
M  V30 6447 O 617.04 2.52433 0.0582829 0
M  V30 6448 C 618.353 1.04487 -2.81963 0
M  V30 6449 C 619.901 1.149 -2.91148 0
M  V30 6450 C 620.376 1.45758 -4.34187 0
M  V30 6451 N 621.867 1.52671 -4.37317 0
M  V30 6452 C 622.602 1.78129 -5.4503 0
M  V30 6453 N 622.098 2.01345 -6.62897 0
M  V30 6454 N 623.891 1.79953 -5.32516 0
M  V30 6455 H 616.042 -0.349122 -2.09511 0
M  V30 6456 H 618.305 -0.0938113 -0.943347 0
M  V30 6457 H 618.011 0.24557 -3.50842 0
M  V30 6458 H 617.885 1.97119 -3.21596 0
M  V30 6459 H 620.272 1.93891 -2.22464 0
M  V30 6460 H 620.353 0.201568 -2.55005 0
M  V30 6461 H 619.997 0.672917 -5.03423 0
M  V30 6462 H 619.927 2.41715 -4.67848 0
M  V30 6463 H 622.418 1.36612 -3.52343 0
M  V30 6464 H 622.731 2.20155 -7.40778 0
M  V30 6465 H 621.076 1.98657 -6.66003 0
M  V30 6466 H 624.267 1.61337 -4.39418 0
M  V30 6467 H 624.44 1.99455 -6.1654 0
M  V30 6468 N 617.846 1.41785 0.688094 0
M  V30 6469 C 619.123 1.32031 1.44316 0
M  V30 6470 C 619.503 -0.0486079 2.11044 0
M  V30 6471 O 618.851 -1.06332 2.02252 0
M  V30 6472 C 619.061 2.47906 2.45649 0
M  V30 6473 C 620.409 2.89415 3.10683 0
M  V30 6474 O 621.433 2.477 2.55975 0
M  V30 6475 O 620.292 3.61573 4.09789 0
M  V30 6476 H 617.386 0.519994 0.643067 0
M  V30 6477 H 619.932 1.53765 0.71794 0
M  V30 6478 H 618.704 3.39222 1.95048 0
M  V30 6479 H 618.327 2.28089 3.25671 0
M  V30 6480 N 619.324 -0.923095 1.27737 0
M  V30 6481 C 620.549 -1.71054 1.17283 0
M  V30 6482 C 620.974 -1.86208 -0.266153 0
M  V30 6483 O 620.332 -1.36545 -1.1927 0
M  V30 6484 C 620.38 -3.0854 1.86642 0
M  V30 6485 O 619.484 -3.95528 1.16752 0
M  V30 6486 H 618.825 -0.524136 0.407649 0
M  V30 6487 H 621.355 -1.15487 1.6889 0
M  V30 6488 H 621.365 -3.58828 1.94182 0
M  V30 6489 H 620.04 -2.96828 2.91317 0
M  V30 6490 H 618.617 -3.53967 1.17312 0
M  V30 6491 N 620.802 -1.09834 -1.13024 0
M  V30 6492 C 622.048 -0.83819 -1.84668 0
M  V30 6493 C 622.381 0.634645 -1.83537 0
M  V30 6494 O 621.656 1.46753 -1.27647 0
M  V30 6495 C 621.939 -1.37933 -3.32636 0
M  V30 6496 C 621.792 -2.91857 -3.42257 0
M  V30 6497 C 623.111 -1.01654 -4.28199 0
M  V30 6498 H 620.23 -0.30595 -0.670495 0
M  V30 6499 H 622.872 -1.36044 -1.32635 0
M  V30 6500 H 621.022 -0.935111 -3.77078 0
M  V30 6501 H 622.694 -3.44759 -3.06495 0
M  V30 6502 H 620.937 -3.28776 -2.83 0
M  V30 6503 H 621.608 -3.24799 -4.46329 0
M  V30 6504 H 624.084 -1.39973 -3.9185 0
M  V30 6505 H 622.96 -1.42217 -5.30156 0
M  V30 6506 H 623.221 0.0747794 -4.42037 0
M  V30 6507 N 622.28 1.30327 -0.886154 0
M  V30 6508 C 623.21 2.30549 -0.370028 0
M  V30 6509 C 624.191 1.61039 0.547751 0
M  V30 6510 O 625.376 1.8864 0.461353 0
M  V30 6511 C 622.506 3.44808 0.415275 0
M  V30 6512 C 621.46 4.26024 -0.41085 0
M  V30 6513 C 620.786 5.32347 0.501128 0
M  V30 6514 C 622.086 4.95433 -1.65359 0
M  V30 6515 H 623.78 2.73969 -1.20754 0
M  V30 6516 H 621.326 1.3171 -0.582097 0
M  V30 6517 H 623.279 4.13986 0.78699 0
M  V30 6518 H 622.003 3.00197 1.28644 0
M  V30 6519 H 620.662 3.58535 -0.764719 0
M  V30 6520 H 620.31 4.83982 1.37004 0
M  V30 6521 H 620.01 5.87581 -0.0478356 0
M  V30 6522 H 621.534 6.0438 0.869333 0
M  V30 6523 H 622.948 5.5712 -1.35239 0
M  V30 6524 H 621.345 5.60537 -2.14284 0
M  V30 6525 H 622.415 4.21493 -2.39733 0
M  V30 6526 N 623.758 0.647228 1.43697 0
M  V30 6527 C 624.986 0.16575 2.06235 0
M  V30 6528 C 625.401 -1.1662 1.48476 0
M  V30 6529 O 624.758 -1.7187 0.613762 0
M  V30 6530 C 624.809 0.0621651 3.61447 0
M  V30 6531 O 624.53 1.34146 4.17057 0
M  V30 6532 C 626.031 -0.446102 4.4105 0
M  V30 6533 H 623.251 0.0871158 0.665321 0
M  V30 6534 H 625.795 0.886183 1.84301 0
M  V30 6535 H 623.95 -0.608794 3.82587 0
M  V30 6536 H 624.364 1.19675 5.10664 0
M  V30 6537 H 625.838 -0.46755 5.50016 0
M  V30 6538 H 626.315 -1.47627 4.13646 0
M  V30 6539 H 626.921 0.192159 4.24866 0
M  V30 6540 N 625.236 -1.5273 0.388769 0
M  V30 6541 C 626.186 -2.23238 -0.463567 0
M  V30 6542 C 627.17 -1.23606 -1.03007 0
M  V30 6543 O 628.362 -1.48945 -0.956261 0
M  V30 6544 C 625.491 -3.04228 -1.5906 0
M  V30 6545 C 624.577 -4.11255 -1.03587 0
M  V30 6546 N 624.968 -5.0538 -0.206038 0
M  V30 6547 C 623.266 -4.26376 -1.30841 0
M  V30 6548 C 623.967 -5.81613 0.100359 0
M  V30 6549 N 622.943 -5.41264 -0.503447 0
M  V30 6550 H 626.745 -2.93367 0.176978 0
M  V30 6551 H 624.259 -1.61188 0.198046 0
M  V30 6552 H 626.256 -3.53277 -2.21362 0
M  V30 6553 H 624.916 -2.35634 -2.23398 0
M  V30 6554 H 625.927 -5.17663 0.156659 0
M  V30 6555 H 622.604 -3.69011 -1.95287 0
M  V30 6556 H 623.994 -6.67442 0.772676 0
M  V30 6557 N 626.714 -0.118576 -1.57153 0
M  V30 6558 C 627.644 0.828436 -2.1831 0
M  V30 6559 C 628.625 1.27758 -1.12303 0
M  V30 6560 O 629.81 1.34026 -1.40537 0
M  V30 6561 C 626.94 2.07876 -2.78217 0
M  V30 6562 C 625.894 1.76742 -3.89803 0
M  V30 6563 C 625.22 3.08801 -4.36516 0
M  V30 6564 C 626.52 1.03606 -5.11921 0
M  V30 6565 H 628.214 0.318824 -2.97698 0
M  V30 6566 H 625.76 0.151911 -1.43196 0
M  V30 6567 H 627.713 2.74584 -3.19659 0
M  V30 6568 H 626.437 2.61161 -1.96118 0
M  V30 6569 H 625.096 1.12424 -3.48936 0
M  V30 6570 H 624.744 3.6002 -3.51276 0
M  V30 6571 H 624.444 2.88743 -5.11763 0
M  V30 6572 H 625.968 3.76627 -4.80608 0
M  V30 6573 H 627.382 1.60467 -5.50385 0
M  V30 6574 H 625.779 0.936454 -5.92748 0
M  V30 6575 H 626.849 0.0227421 -4.84895 0
M  V30 6576 N 628.193 1.56834 0.155195 0
M  V30 6577 C 629.609 1.51315 0.50755 0
M  V30 6578 C 629.809 0.825614 1.83809 0
M  V30 6579 O 628.865 0.39271 2.49427 0
M  V30 6580 C 630.178 2.96074 0.52542 0
M  V30 6581 C 631.726 3.06968 0.611505 0
M  V30 6582 C 632.201 4.53218 0.660115 0
M  V30 6583 N 633.692 4.5753 0.722564 0
M  V30 6584 C 634.427 5.68056 0.781023 0
M  V30 6585 N 633.923 6.88173 0.799327 0
M  V30 6586 N 635.716 5.56068 0.821278 0
M  V30 6587 H 627.867 1.9993 -0.717063 0
M  V30 6588 H 630.13 0.911507 -0.260496 0
M  V30 6589 H 629.836 3.49599 -0.383875 0
M  V30 6590 H 629.71 3.51587 1.36624 0
M  V30 6591 H 632.097 2.53468 1.51122 0
M  V30 6592 H 632.178 2.54513 -0.256306 0
M  V30 6593 H 631.822 5.07354 -0.23541 0
M  V30 6594 H 631.752 5.03447 1.5443 0
M  V30 6595 H 634.243 3.71054 0.716049 0
M  V30 6596 H 634.556 7.6816 0.845553 0
M  V30 6597 H 632.901 6.90751 0.767337 0
M  V30 6598 H 636.092 4.61142 0.804091 0
M  V30 6599 H 636.265 6.42223 0.863372 0
M  V30 6600 N 629.671 -0.424282 1.51781 0
M  V30 6601 C 630.92 -1.16961 1.64326 0
M  V30 6602 C 631.233 -1.92035 0.371749 0
M  V30 6603 O 632.439 -2.68873 0.37676 0
M  V30 6604 C 630.895 -2.12782 2.90262 0
M  V30 6605 C 630.503 -1.43295 4.24465 0
M  V30 6606 C 632.247 -2.87667 3.12166 0
M  V30 6607 C 630.154 -2.37676 5.41538 0
M  V30 6608 H 629.084 -0.440293 0.612093 0
M  V30 6609 H 631.735 -0.435431 1.78259 0
M  V30 6610 H 630.117 -2.8969 2.69992 0
M  V30 6611 H 631.291 -0.718564 4.55163 0
M  V30 6612 H 629.606 -0.805118 4.08542 0
M  V30 6613 H 632.203 -3.58395 3.96808 0
M  V30 6614 H 632.546 -3.49758 2.25776 0
M  V30 6615 H 633.079 -2.17863 3.32837 0
M  V30 6616 H 629.818 -1.80255 6.30229 0
M  V30 6617 H 629.338 -3.07132 5.15199 0
M  V30 6618 H 631.017 -2.98529 5.74012 0
M  V30 6619 N 631.149 -1.42148 -0.680565 0
M  V30 6620 C 632.377 -1.45696 -1.46902 0
M  V30 6621 C 632.792 -0.0665858 -1.88683 0
M  V30 6622 O 632.149 0.917436 -1.57764 0
M  V30 6623 C 632.2 -2.37898 -2.72188 0
M  V30 6624 O 631.921 -3.71526 -2.32163 0
M  V30 6625 C 633.422 -2.50407 -3.65802 0
M  V30 6626 H 630.642 -0.495729 -0.45221 0
M  V30 6627 H 633.186 -1.866 -0.836709 0
M  V30 6628 H 631.341 -2.00263 -3.31622 0
M  V30 6629 H 631.755 -4.20849 -3.13027 0
M  V30 6630 H 633.229 -3.19056 -4.50452 0
M  V30 6631 H 633.706 -1.5401 -4.11312 0
M  V30 6632 H 634.312 -2.8874 -3.12265 0
M  V30 6633 N 632.627 0.916307 -1.28225 0
M  V30 6634 C 633.852 1.7043 -1.18188 0
M  V30 6635 C 634.277 1.86346 0.256274 0
M  V30 6636 O 633.635 1.37175 1.18544 0
M  V30 6637 C 633.683 3.07546 -1.88275 0
M  V30 6638 O 632.787 3.94904 -1.18848 0
M  V30 6639 H 632.128 0.521967 -0.410423 0
M  V30 6640 H 634.658 1.14589 -1.69501 0
M  V30 6641 H 634.668 3.57793 -1.96082 0
M  V30 6642 H 633.343 2.95279 -2.92887 0
M  V30 6643 H 631.92 3.53339 -1.19187 0
M  V30 6644 N 634.105 1.10431 1.1244 0
M  V30 6645 C 635.055 0.722378 2.16254 0
M  V30 6646 C 636.039 -0.268427 1.58645 0
M  V30 6647 O 637.231 -0.077169 1.76832 0
M  V30 6648 C 634.36 0.155763 3.42946 0
M  V30 6649 C 633.446 1.17361 4.07538 0
M  V30 6650 N 633.837 2.36429 4.47141 0
M  V30 6651 C 632.135 1.01412 4.34317 0
M  V30 6652 C 632.836 3.01259 4.97612 0
M  V30 6653 N 631.812 2.28777 4.93115 0
M  V30 6654 H 635.614 1.62876 2.4464 0
M  V30 6655 H 633.128 0.982031 1.29344 0
M  V30 6656 H 635.125 -0.135936 4.16678 0
M  V30 6657 H 633.785 -0.745339 3.1603 0
M  V30 6658 H 634.796 2.73954 4.39511 0
M  V30 6659 H 631.473 0.168574 4.1716 0
M  V30 6660 H 632.863 4.02541 5.37968 0
M  V30 6661 N 635.583 -1.29855 0.893053 0
M  V30 6662 C 636.832 -1.95104 0.511597 0
M  V30 6663 C 637.145 -1.71226 -0.945567 0
M  V30 6664 O 638.351 -2.30525 -1.43424 0
M  V30 6665 C 636.807 -3.49374 0.864034 0
M  V30 6666 C 636.415 -3.82061 2.33952 0
M  V30 6667 C 638.159 -4.20894 0.552167 0
M  V30 6668 C 636.066 -5.29546 2.63316 0
M  V30 6669 H 634.996 -0.73029 0.187597 0
M  V30 6670 H 637.647 -1.47682 1.08914 0
M  V30 6671 H 636.029 -3.95413 0.215493 0
M  V30 6672 H 637.203 -3.46904 3.03305 0
M  V30 6673 H 635.518 -3.23665 2.61973 0
M  V30 6674 H 638.115 -5.29435 0.748489 0
M  V30 6675 H 638.458 -4.13178 -0.508924 0
M  V30 6676 H 638.991 -3.80564 1.15825 0
M  V30 6677 H 635.73 -5.4232 3.68197 0
M  V30 6678 H 635.25 -5.65974 1.9858 0
M  V30 6679 H 636.929 -5.97068 2.49236 0
M  V30 6680 N 637.061 -0.65484 -1.43351 0
M  V30 6681 C 638.309 -0.168559 -2.01396 0
M  V30 6682 C 638.63 1.22235 -1.51933 0
M  V30 6683 O 637.9 1.81685 -0.732627 0
M  V30 6684 H 636.48 -0.0593244 -0.744641 0
M  V30 6685 H 639.142 -0.846871 -1.75539 0
M  V30 6686 H 638.238 -0.154428 -3.11718 0
M  V30 6687 N 638.539 1.52521 -0.396863 0
M  V30 6688 C 639.788 2.00857 0.184184 0
M  V30 6689 C 640.101 1.28733 1.47265 0
M  V30 6690 O 641.307 1.67821 2.13421 0
M  V30 6691 C 639.763 3.57901 0.378787 0
M  V30 6692 C 639.371 4.38931 -0.896873 0
M  V30 6693 C 641.115 4.14504 0.915789 0
M  V30 6694 C 639.022 5.87591 -0.670133 0
M  V30 6695 H 637.952 0.750496 0.0726055 0
M  V30 6696 H 640.603 1.75965 -0.520425 0
M  V30 6697 H 638.985 3.79072 1.14543 0
M  V30 6698 H 640.159 4.29524 -1.66872 0
M  V30 6699 H 638.474 3.93586 -1.35938 0
M  V30 6700 H 641.071 5.23236 1.10126 0
M  V30 6701 H 641.414 3.71076 1.88701 0
M  V30 6702 H 641.947 3.97253 0.208523 0
M  V30 6703 H 638.686 6.35355 -1.61257 0
M  V30 6704 H 638.206 5.99767 0.0626368 0
M  V30 6705 H 639.885 6.46268 -0.307577 0
M  V30 6706 N 640.017 0.126909 1.57088 0
M  V30 6707 C 641.265 -0.528123 1.95078 0
M  V30 6708 C 641.586 -1.66708 1.0116 0
M  V30 6709 O 640.856 -1.95777 0.0693527 0
M  V30 6710 H 639.436 -0.198087 0.720257 0
M  V30 6711 H 642.098 0.197703 1.93895 0
M  V30 6712 H 641.194 -0.917507 2.98309 0
M  V30 6713 N 641.495 -1.56914 -0.146875 0
M  V30 6714 C 642.425 -2.01308 -1.1831 0
M  V30 6715 C 643.406 -0.892664 -1.44795 0
M  V30 6716 O 644.591 -1.16048 -1.55713 0
M  V30 6717 C 641.721 -2.3938 -2.51624 0
M  V30 6718 C 640.675 -3.54608 -2.3966 0
M  V30 6719 C 640.001 -3.78493 -3.77686 0
M  V30 6720 C 641.301 -4.87269 -1.88058 0
M  V30 6721 H 642.995 -2.88123 -0.813964 0
M  V30 6722 H 640.541 -1.38615 -0.3901 0
M  V30 6723 H 642.494 -2.69037 -3.24341 0
M  V30 6724 H 641.218 -1.49502 -2.90373 0
M  V30 6725 H 639.877 -3.25116 -1.69396 0
M  V30 6726 H 639.525 -2.85866 -4.13871 0
M  V30 6727 H 639.225 -4.56039 -3.70543 0
M  V30 6728 H 640.749 -4.10576 -4.51951 0
M  V30 6729 H 642.163 -5.15644 -2.50568 0
M  V30 6730 H 640.56 -5.68622 -1.91805 0
M  V30 6731 H 641.63 -4.77634 -0.836277 0
M  V30 6732 N 642.974 0.416227 -1.52004 0
M  V30 6733 C 643.904 1.51365 -1.77795 0
M  V30 6734 C 644.885 1.58059 -0.628601 0
M  V30 6735 O 646.07 1.73447 -0.873478 0
M  V30 6736 C 643.2 2.89256 -1.92219 0
M  V30 6737 C 642.154 2.97415 -3.0778 0
M  V30 6738 C 641.48 4.37492 -3.07417 0
M  V30 6739 C 642.78 2.69551 -4.47369 0
M  V30 6740 H 644.474 1.30033 -2.69688 0
M  V30 6741 H 642.02 0.624112 -1.29772 0
M  V30 6742 H 643.973 3.66008 -2.08845 0
M  V30 6743 H 642.697 3.11866 -0.969917 0
M  V30 6744 H 641.356 2.23107 -2.90893 0
M  V30 6745 H 641.004 4.571 -2.09925 0
M  V30 6746 H 640.704 4.43877 -3.85029 0
M  V30 6747 H 642.228 5.16188 -3.26162 0
M  V30 6748 H 643.642 3.36028 -4.64497 0
M  V30 6749 H 642.039 2.87321 -5.26846 0
M  V30 6750 H 643.109 1.65029 -4.55953 0
M  V30 6751 N 644.452 1.42507 0.673017 0
M  V30 6752 C 645.701 1.42364 1.42883 0
M  V30 6753 C 646.014 0.0441598 1.9555 0
M  V30 6754 O 647.22 -0.0798679 2.71382 0
M  V30 6755 C 645.676 2.5043 2.58482 0
M  V30 6756 C 645.284 3.94392 2.12506 0
M  V30 6757 C 647.028 2.59455 3.35981 0
M  V30 6758 C 644.935 4.93964 3.25198 0
M  V30 6759 H 643.865 0.52951 0.536782 0
M  V30 6760 H 646.516 1.68422 0.728448 0
M  V30 6761 H 644.898 2.1754 3.30896 0
M  V30 6762 H 646.072 4.36645 1.47233 0
M  V30 6763 H 644.387 3.89233 1.4794 0
M  V30 6764 H 646.984 3.31025 4.19912 0
M  V30 6765 H 647.327 1.63869 3.82691 0
M  V30 6766 H 647.86 2.91549 2.70637 0
M  V30 6767 H 644.599 5.91034 2.83477 0
M  V30 6768 H 644.119 4.56341 3.89247 0
M  V30 6769 H 645.798 5.15763 3.90637 0
M  V30 6770 N 645.93 -0.909495 1.28709 0
M  V30 6771 C 647.178 -1.65577 1.15882 0
M  V30 6772 C 647.499 -1.928 -0.292108 0
M  V30 6773 O 646.769 -1.54716 -1.20166 0
M  V30 6774 H 645.349 -0.613714 0.425869 0
M  V30 6775 H 648.011 -1.09108 1.61498 0
M  V30 6776 H 647.107 -2.61634 1.70159 0
M  V30 6777 N 647.408 -1.11026 -1.11852 0
M  V30 6778 C 648.338 -0.786812 -2.19844 0
M  V30 6779 C 649.319 0.242935 -1.68356 0
M  V30 6780 O 650.504 0.107355 -1.93903 0
M  V30 6781 C 647.634 -0.224516 -3.46574 0
M  V30 6782 C 646.588 -1.18564 -4.1125 0
M  V30 6783 C 645.914 -0.484261 -5.32503 0
M  V30 6784 C 647.214 -2.53465 -4.56676 0
M  V30 6785 H 648.908 -1.68978 -2.47158 0
M  V30 6786 H 646.454 -0.813906 -1.18792 0
M  V30 6787 H 648.407 0.0139435 -4.21398 0
M  V30 6788 H 647.131 0.713722 -3.18706 0
M  V30 6789 H 645.79 -1.40966 -3.38414 0
M  V30 6790 H 645.438 0.458646 -5.00905 0
M  V30 6791 H 645.138 -1.12526 -5.76725 0
M  V30 6792 H 646.662 -0.254492 -6.10069 0
M  V30 6793 H 648.076 -2.35177 -5.22843 0
M  V30 6794 H 646.473 -3.13507 -5.11697 0
M  V30 6795 H 647.543 -3.13008 -3.70343 0
M  V30 6796 N 648.886 1.2938 -0.899927 0
M  V30 6797 C 649.816 2.30144 -0.39446 0
M  V30 6798 C 650.797 1.61611 0.530639 0
M  V30 6799 O 651.982 1.89119 0.441319 0
M  V30 6800 C 649.112 3.45229 0.37868 0
M  V30 6801 C 648.066 4.25564 -0.456012 0
M  V30 6802 C 647.392 5.32848 0.444637 0
M  V30 6803 C 648.692 4.93651 -1.70605 0
M  V30 6804 H 650.386 2.72673 -1.23653 0
M  V30 6805 H 647.932 1.31086 -0.596034 0
M  V30 6806 H 649.885 4.14797 0.743037 0
M  V30 6807 H 648.609 3.01545 1.25453 0
M  V30 6808 H 647.268 3.57704 -0.802704 0
M  V30 6809 H 646.916 4.85408 1.31863 0
M  V30 6810 H 646.616 5.87497 -0.110154 0
M  V30 6811 H 648.14 6.05268 0.805182 0
M  V30 6812 H 649.554 5.55655 -1.41141 0
M  V30 6813 H 647.951 5.58233 -2.20217 0
M  V30 6814 H 649.021 4.18926 -2.4419 0
M  V30 6815 N 650.364 0.662433 1.43002 0
M  V30 6816 C 651.594 0.187343 2.05749 0
M  V30 6817 C 652.002 -1.15582 1.49791 0
M  V30 6818 O 651.345 -1.72651 0.627487 0
M  V30 6819 C 651.407 0.0316493 3.59486 0
M  V30 6820 C 651.071 1.30156 4.38073 0
M  V30 6821 C 652.068 2.23234 4.69535 0
M  V30 6822 C 649.753 1.54572 4.77926 0
M  V30 6823 C 651.747 3.39012 5.39768 0
M  V30 6824 C 649.434 2.70641 5.47902 0
M  V30 6825 C 650.432 3.62687 5.78746 0
M  V30 6826 O 650.12 4.76728 6.47291 0
M  V30 6827 H 649.852 0.0915214 0.669776 0
M  V30 6828 H 652.406 0.905982 1.8434 0
M  V30 6829 H 650.636 -0.742451 3.79506 0
M  V30 6830 H 652.325 -0.401977 4.03905 0
M  V30 6831 H 653.091 2.05616 4.39257 0
M  V30 6832 H 648.97 0.83804 4.53319 0
M  V30 6833 H 652.514 4.10877 5.63761 0
M  V30 6834 H 648.411 2.88189 5.77596 0
M  V30 6835 H 649.179 4.76113 6.65777 0
M  V30 6836 N 651.842 -1.52309 0.404946 0
M  V30 6837 C 652.772 -2.29805 -0.41376 0
M  V30 6838 C 653.753 -1.3384 -1.0498 0
M  V30 6839 O 654.938 -1.62745 -1.05961 0
M  V30 6840 C 652.068 -3.11639 -1.53292 0
M  V30 6841 C 651.022 -4.15616 -1.02211 0
M  V30 6842 C 650.348 -4.8577 -2.23455 0
M  V30 6843 C 651.648 -5.2224 -0.0790725 0
M  V30 6844 H 653.342 -2.98493 0.232878 0
M  V30 6845 H 650.888 -1.43552 0.113441 0
M  V30 6846 H 652.841 -3.64618 -2.11262 0
M  V30 6847 H 651.565 -2.40712 -2.20738 0
M  V30 6848 H 650.224 -3.63641 -0.46484 0
M  V30 6849 H 649.872 -4.11376 -2.89445 0
M  V30 6850 H 649.572 -5.56058 -1.89929 0
M  V30 6851 H 651.096 -5.4156 -2.82038 0
M  V30 6852 H 652.51 -5.70485 -0.567438 0
M  V30 6853 H 650.907 -5.99867 0.167167 0
M  V30 6854 H 651.977 -4.77078 0.867447 0
M  V30 6855 N 653.32 -0.135238 -1.57019 0
M  V30 6856 C 654.568 0.51777 -1.95355 0
M  V30 6857 C 654.889 1.6617 -1.02042 0
M  V30 6858 O 654.159 1.95738 -0.0797343 0
M  V30 6859 H 652.739 0.194264 -0.721298 0
M  V30 6860 H 655.401 -0.207983 -1.93787 0
M  V30 6861 H 654.497 0.901675 -2.98791 0
M  V30 6862 N 654.798 1.5699 0.138552 0
M  V30 6863 C 656.047 1.82998 0.848205 0
M  V30 6864 C 656.36 0.717829 1.81952 0
M  V30 6865 O 657.566 0.863756 2.57394 0
M  V30 6866 C 656.022 3.24379 1.55904 0
M  V30 6867 C 655.63 4.43552 0.62971 0
M  V30 6868 C 657.374 3.59654 2.25498 0
M  V30 6869 C 655.281 5.75957 1.34266 0
M  V30 6870 H 654.211 0.682495 0.320495 0
M  V30 6871 H 656.862 1.83222 0.100924 0
M  V30 6872 H 655.244 3.18567 2.35226 0
M  V30 6873 H 656.418 4.6062 -0.128882 0
M  V30 6874 H 654.733 4.16379 0.0417526 0
M  V30 6875 H 657.33 4.55837 2.79493 0
M  V30 6876 H 657.673 2.86124 3.02388 0
M  V30 6877 H 658.206 3.67164 1.53087 0
M  V30 6878 H 654.945 6.52604 0.615441 0
M  V30 6879 H 654.465 5.62811 2.07375 0
M  V30 6880 H 656.144 6.19046 1.88126 0
M  V30 6881 N 656.276 -0.40816 1.52223 0
M  V30 6882 C 657.524 -1.15274 1.66001 0
M  V30 6883 C 657.845 -1.91003 0.392803 0
M  V30 6884 O 657.115 -1.8673 -0.592336 0
M  V30 6885 H 655.695 -0.428526 0.611861 0
M  V30 6886 H 658.357 -0.46512 1.89269 0
M  V30 6887 H 657.453 -1.86628 2.50153 0
M  V30 6888 N 657.755 -1.42862 -0.66545 0
M  V30 6889 C 658.703 -1.47319 -1.8 0
M  V30 6890 C 659.697 -0.347963 -1.65788 0
M  V30 6891 O 660.903 -0.521406 -1.72283 0
M  V30 6892 H 657.278 -0.461588 -0.593667 0
M  V30 6893 H 659.249 -2.42876 -1.7336 0
M  V30 6894 C 657.998 -1.40152 -3.18203 0
M  V30 6895 H 657.321 -2.26035 -3.2977 0
M  V30 6896 H 658.761 -1.47331 -3.9758 0
M  V30 6897 C 657.22 -0.117493 -3.36695 0
M  V30 6898 O 657.75 0.826058 -3.93115 0
M  V30 6899 N 655.956 -0.0316218 -2.90583 0
M  V30 6900 H 655.503 -0.800247 -2.44855 0
M  V30 6901 H 655.461 0.826835 -3.03333 0
M  V30 6902 N 659.233 0.902656 -1.29189 0
M  V30 6903 C 660.143 2.03946 -1.15944 0
M  V30 6904 C 661.159 1.738 -0.0833803 0
M  V30 6905 O 662.335 1.9923 -0.29487 0
M  V30 6906 C 659.4 3.36519 -0.834006 0
M  V30 6907 C 658.461 3.80203 -1.9936 0
M  V30 6908 C 657.694 5.06449 -1.68359 0
M  V30 6909 O 657.917 5.67202 -0.603141 0
M  V30 6910 O 656.851 5.46114 -2.53067 0
M  V30 6911 H 660.677 2.18043 -2.11403 0
M  V30 6912 H 658.262 1.02584 -1.08613 0
M  V30 6913 H 660.144 4.16089 -0.666949 0
M  V30 6914 H 658.819 3.23573 0.0908245 0
M  V30 6915 H 657.726 3.01413 -2.21588 0
M  V30 6916 H 659.059 3.97729 -2.89952 0
M  V30 6917 N 660.711 1.11618 1.11262 0
M  V30 6918 C 661.674 0.779447 2.15539 0
M  V30 6919 C 662.674 -0.202081 1.59525 0
M  V30 6920 O 663.864 0.0226356 1.74185 0
M  V30 6921 C 660.996 0.15674 3.40539 0
M  V30 6922 H 662.189 1.70324 2.4684 0
M  V30 6923 H 659.742 0.918298 1.26479 0
M  V30 6924 H 660.477 -0.777186 3.1485 0
M  V30 6925 H 660.262 0.863308 3.82478 0
M  V30 6926 H 661.752 -0.062661 4.17553 0
M  V30 6927 N 662.189 -1.289 0.906776 0
M  V30 6928 C 663.136 -2.2751 0.388313 0
M  V30 6929 C 664.106 -1.57301 -0.533439 0
M  V30 6930 O 665.291 -1.85243 -0.457148 0
M  V30 6931 C 662.431 -3.43091 -0.37181 0
M  V30 6932 C 661.544 -4.28066 0.581647 0
M  V30 6933 C 660.679 -5.30837 -0.19623 0
M  V30 6934 C 659.718 -6.07472 0.751294 0
M  V30 6935 N 658.855 -7.021 0.00737727 0
M  V30 6936 H 663.695 -2.71237 1.23428 0
M  V30 6937 H 661.232 -1.33397 0.619962 0
M  V30 6938 H 663.19 -4.08888 -0.828641 0
M  V30 6939 H 661.82 -3.00374 -1.18218 0
M  V30 6940 H 660.872 -3.62378 1.157 0
M  V30 6941 H 662.184 -4.81382 1.30665 0
M  V30 6942 H 661.338 -6.02485 -0.71394 0
M  V30 6943 H 660.077 -4.78272 -0.954324 0
M  V30 6944 H 659.082 -5.34682 1.28044 0
M  V30 6945 H 660.307 -6.62126 1.50883 0
M  V30 6946 H 658.253 -6.51894 -0.732854 0
M  V30 6947 H 658.17 -7.53004 0.672334 0
M  V30 6948 H 659.438 -7.77956 -0.490365 0
M  V30 6949 N 663.667 -0.670007 -1.42649 0
M  V30 6950 C 664.614 0.0112928 -2.30797 0
M  V30 6951 C 665.584 0.797627 -1.45695 0
M  V30 6952 O 666.769 0.770845 -1.74535 0
M  V30 6953 C 663.909 0.95998 -3.31479 0
M  V30 6954 C 663.022 0.167975 -4.31673 0
M  V30 6955 C 662.157 1.11198 -5.19431 0
M  V30 6956 C 661.196 0.311381 -6.11307 0
M  V30 6957 N 660.333 1.20784 -6.91633 0
M  V30 6958 H 665.173 -0.746231 -2.88505 0
M  V30 6959 H 662.71 -0.379739 -1.42114 0
M  V30 6960 H 664.668 1.52379 -3.88377 0
M  V30 6961 H 663.298 1.68419 -2.75382 0
M  V30 6962 H 662.35 -0.512385 -3.76933 0
M  V30 6963 H 663.662 -0.453814 -4.96731 0
M  V30 6964 H 662.816 1.74587 -5.81037 0
M  V30 6965 H 661.555 1.76766 -4.54538 0
M  V30 6966 H 660.56 -0.335758 -5.48774 0
M  V30 6967 H 661.785 -0.340135 -6.78248 0
M  V30 6968 H 659.731 1.85001 -6.29373 0
M  V30 6969 H 659.648 0.64102 -7.53277 0
M  V30 6970 H 660.916 1.82936 -7.5773 0
M  V30 6971 N 665.145 1.52092 -0.413018 0
M  V30 6972 C 666.391 2.02154 0.161737 0
M  V30 6973 C 666.724 1.29789 1.44459 0
M  V30 6974 O 665.999 0.405378 1.90229 0
M  V30 6975 C 666.282 3.5781 0.405463 0
M  V30 6976 C 666.135 4.40819 -0.894335 0
M  V30 6977 C 667.454 4.23821 1.18591 0
M  V30 6978 H 664.573 0.734769 0.0573077 0
M  V30 6979 H 667.215 1.81948 -0.547247 0
M  V30 6980 H 665.365 3.75158 1.0094 0
M  V30 6981 H 667.037 4.35175 -1.53039 0
M  V30 6982 H 665.28 4.06877 -1.50444 0
M  V30 6983 H 665.951 5.47819 -0.678144 0
M  V30 6984 H 668.427 4.10596 0.674573 0
M  V30 6985 H 667.303 5.32663 1.3252 0
M  V30 6986 H 667.564 3.83038 2.20758 0
M  V30 6987 N 666.623 0.143563 1.56945 0
M  V30 6988 C 667.553 -0.7936 2.196 0
M  V30 6989 C 668.534 -1.25955 1.14321 0
M  V30 6990 O 669.719 -1.31773 1.42651 0
M  V30 6991 C 666.849 -2.03424 2.81489 0
M  V30 6992 C 665.803 -1.70519 3.92565 0
M  V30 6993 C 665.129 -3.01817 4.41373 0
M  V30 6994 C 666.429 -0.95449 5.13504 0
M  V30 6995 H 668.123 -0.271423 2.98167 0
M  V30 6996 H 665.669 -0.12911 1.4342 0
M  V30 6997 H 667.622 -2.69463 3.23987 0
M  V30 6998 H 666.346 -2.58008 2.00248 0
M  V30 6999 H 665.005 -1.06859 3.5068 0
M  V30 7000 H 664.653 -3.54386 3.56959 0
M  V30 7001 H 664.353 -2.80565 5.16292 0
M  V30 7002 H 665.877 -3.68934 4.86539 0
M  V30 7003 H 667.291 -1.5169 5.52868 0
M  V30 7004 H 665.688 -0.842035 5.94163 0
M  V30 7005 H 666.758 0.0544033 4.84869 0
M  V30 7006 N 668.101 -1.57061 -0.130224 0
M  V30 7007 C 669.326 -1.88802 -0.858409 0
M  V30 7008 C 669.751 -0.734353 -1.73173 0
M  V30 7009 O 669.109 0.315529 -1.78533 0
M  V30 7010 C 669.157 -3.19228 -1.67708 0
M  V30 7011 O 668.261 -3.04343 -2.78297 0
M  V30 7012 H 667.602 -0.619849 -0.238083 0
M  V30 7013 H 670.132 -2.04271 -0.115995 0
M  V30 7014 H 670.142 -3.51669 -2.06864 0
M  V30 7015 H 668.817 -4.02793 -1.0359 0
M  V30 7016 H 667.394 -2.83346 -2.42425 0
M  V30 7017 N 669.579 0.400081 -1.52437 0
M  V30 7018 C 670.527 1.50851 -1.7705 0
M  V30 7019 C 671.521 1.56928 -0.637969 0
M  V30 7020 O 672.727 1.60226 -0.820212 0
M  V30 7021 H 669.102 0.50186 -0.560036 0
M  V30 7022 H 671.073 1.27281 -2.69893 0
M  V30 7023 C 669.822 2.88117 -1.94638 0
M  V30 7024 H 669.145 2.84187 -2.81208 0
M  V30 7025 H 670.585 3.64942 -2.15855 0
M  V30 7026 C 669.044 3.29206 -0.715899 0
M  V30 7027 O 669.574 4.01544 0.111944 0
M  V30 7028 N 667.78 2.85363 -0.549191 0
M  V30 7029 H 667.327 2.26664 -1.22397 0
M  V30 7030 H 667.285 3.13214 0.27278 0
M  V30 7031 N 671.057 1.43213 0.657864 0
M  V30 7032 C 672.282 1.48227 1.45064 0
M  V30 7033 C 672.707 0.0999939 1.87834 0
M  V30 7034 O 672.065 -0.905269 1.57081 0
M  V30 7035 C 672.113 2.42931 2.6649 0
M  V30 7036 O 671.217 1.91237 3.6538 0
M  V30 7037 H 670.558 0.501551 0.435135 0
M  V30 7038 H 673.088 1.8808 0.805431 0
M  V30 7039 H 673.098 2.6008 3.1436 0
M  V30 7040 H 671.773 3.43348 2.34701 0
M  V30 7041 H 670.35 1.83726 3.24498 0
M  V30 7042 N 672.536 -0.895792 1.29666 0
M  V30 7043 C 673.784 -1.64339 1.17631 0
M  V30 7044 C 674.105 -1.93099 -0.271643 0
M  V30 7045 O 673.375 -1.55981 -1.18518 0
M  V30 7046 H 671.955 -0.609162 0.432354 0
M  V30 7047 H 674.617 -1.07389 1.62646 0
M  V30 7048 H 673.713 -2.59815 1.72924 0
M  V30 7049 N 674.014 -1.12206 -1.10668 0
M  V30 7050 C 675.261 -0.875875 -1.82578 0
M  V30 7051 C 675.589 0.598342 -1.85068 0
M  V30 7052 O 674.844 1.45818 -1.3052 0
M  V30 7053 C 675.143 -1.39276 -3.29146 0
M  V30 7054 C 674.809 -2.8816 -3.46806 0
M  V30 7055 C 673.471 -3.28813 -3.51334 0
M  V30 7056 C 675.823 -3.8401 -3.52399 0
M  V30 7057 C 673.151 -4.64028 -3.59019 0
M  V30 7058 C 675.503 -5.19053 -3.61617 0
M  V30 7059 C 674.167 -5.59252 -3.64408 0
M  V30 7060 H 673.437 -0.320505 -0.6681 0
M  V30 7061 H 676.084 -1.40184 -1.30464 0
M  V30 7062 H 674.389 -0.787207 -3.8381 0
M  V30 7063 H 676.086 -1.17851 -3.83291 0
M  V30 7064 H 672.676 -2.55716 -3.43958 0
M  V30 7065 H 676.86 -3.53698 -3.48154 0
M  V30 7066 H 672.116 -4.94568 -3.59461 0
M  V30 7067 H 676.29 -5.93152 -3.64889 0
M  V30 7068 H 673.917 -6.64017 -3.70116 0
M  V30 7069 N 675.492 1.28418 -0.913599 0
M  V30 7070 C 676.422 2.29713 -0.418847 0
M  V30 7071 C 677.403 1.62165 0.513469 0
M  V30 7072 O 678.588 1.89576 0.421235 0
M  V30 7073 C 675.718 3.45612 0.342042 0
M  V30 7074 C 674.672 4.25056 -0.501123 0
M  V30 7075 C 673.998 5.3329 0.388097 0
M  V30 7076 C 675.298 4.91814 -1.75831 0
M  V30 7077 H 676.992 2.71346 -1.26538 0
M  V30 7078 H 674.538 1.30446 -0.609903 0
M  V30 7079 H 676.491 4.15562 0.699 0
M  V30 7080 H 675.215 3.02858 1.22248 0
M  V30 7081 H 673.874 3.56833 -0.840598 0
M  V30 7082 H 673.522 4.8678 1.26707 0
M  V30 7083 H 673.222 5.87347 -0.172459 0
M  V30 7084 H 674.746 6.06088 0.74094 0
M  V30 7085 H 676.16 5.54126 -1.47026 0
M  V30 7086 H 674.557 5.55866 -2.26126 0
M  V30 7087 H 675.627 4.16313 -2.4862 0
M  V30 7088 N 676.97 0.677563 1.42291 0
M  V30 7089 C 678.217 0.200975 2.015 0
M  V30 7090 C 678.545 -1.19342 1.53583 0
M  V30 7091 O 677.8 -1.81579 0.7299 0
M  V30 7092 C 678.099 0.187229 3.56909 0
M  V30 7093 C 677.765 1.52667 4.24268 0
M  V30 7094 C 676.427 1.89341 4.42384 0
M  V30 7095 C 678.779 2.40869 4.62203 0
M  V30 7096 C 676.107 3.13836 4.95705 0
M  V30 7097 C 678.459 3.64679 5.16906 0
M  V30 7098 C 677.123 4.01519 5.33234 0
M  V30 7099 H 676.393 0.0735418 0.737342 0
M  V30 7100 H 679.04 0.873095 1.70439 0
M  V30 7101 H 677.345 -0.568407 3.87655 0
M  V30 7102 H 679.042 -0.198773 4.00507 0
M  V30 7103 H 675.632 1.23138 4.1053 0
M  V30 7104 H 679.816 2.1382 4.47878 0
M  V30 7105 H 675.072 3.42396 5.06532 0
M  V30 7106 H 679.246 4.33224 5.45243 0
M  V30 7107 H 676.873 4.98062 5.74316 0
M  V30 7108 N 678.448 -1.51871 0.421078 0
M  V30 7109 C 679.695 -2.01938 -0.15079 0
M  V30 7110 C 680.023 -1.30611 -1.44121 0
M  V30 7111 O 679.278 -0.404631 -1.91471 0
M  V30 7112 C 679.577 -3.54764 -0.433292 0
M  V30 7113 C 679.243 -4.44288 0.76936 0
M  V30 7114 C 677.905 -4.68477 1.09921 0
M  V30 7115 C 680.257 -4.96915 1.57242 0
M  V30 7116 C 677.585 -5.4254 2.2331 0
M  V30 7117 C 679.937 -5.7222 2.69716 0
M  V30 7118 C 678.601 -5.94678 3.03174 0
M  V30 7119 H 677.871 -0.738943 -0.0551781 0
M  V30 7120 H 680.518 -1.82977 0.564945 0
M  V30 7121 H 678.823 -3.71968 -1.23074 0
M  V30 7122 H 680.52 -3.91023 -0.888922 0
M  V30 7123 H 677.11 -4.25646 0.502305 0
M  V30 7124 H 681.294 -4.78125 1.3308 0
M  V30 7125 H 676.55 -5.58146 2.49565 0
M  V30 7126 H 680.724 -6.11992 3.32323 0
M  V30 7127 H 678.351 -6.51848 3.9115 0
M  V30 7128 N 679.926 -0.151884 -1.56866 0
M  V30 7129 C 681.151 0.508044 -2.01081 0
M  V30 7130 C 681.576 1.57306 -1.03134 0
M  V30 7131 O 680.934 1.81298 -0.0078309 0
M  V30 7132 C 680.982 1.08106 -3.44014 0
M  V30 7133 O 680.086 2.19577 -3.49084 0
M  V30 7134 H 679.427 0.123757 -0.652365 0
M  V30 7135 H 681.957 -0.250055 -2.03066 0
M  V30 7136 H 681.967 1.40851 -3.82916 0
M  V30 7137 H 680.642 0.301168 -4.14808 0
M  V30 7138 H 679.219 1.88023 -3.22027 0
M  V30 7139 N 681.404 1.57128 0.121893 0
M  V30 7140 C 682.337 1.95327 1.17995 0
M  V30 7141 C 683.315 0.822524 1.40262 0
M  V30 7142 O 684.499 1.08044 1.54463 0
M  V30 7143 C 681.626 2.24699 2.53432 0
M  V30 7144 C 680.672 3.47263 2.4761 0
M  V30 7145 S 681.505 4.99951 1.91857 0
M  V30 7146 C 682.661 5.32473 3.28973 0
M  V30 7147 H 682.894 2.84765 0.854182 0
M  V30 7148 H 680.427 1.50864 0.328534 0
M  V30 7149 H 682.385 2.423 3.31362 0
M  V30 7150 H 681.046 1.3588 2.83188 0
M  V30 7151 H 680.239 3.65171 3.4737 0
M  V30 7152 H 679.841 3.29034 1.778 0
M  V30 7153 H 682.133 5.27478 4.25175 0
M  V30 7154 H 683.076 6.33732 3.15895 0
M  V30 7155 H 683.484 4.59952 3.27268 0
M  V30 7156 N 682.882 -0.391992 1.52647 0
M  V30 7157 C 683.812 -1.48517 1.8018 0
M  V30 7158 C 684.793 -1.57039 0.653667 0
M  V30 7159 O 685.978 -1.72036 0.900962 0
M  V30 7160 C 683.108 -2.86161 1.96797 0
M  V30 7161 C 682.062 -2.92481 3.12472 0
M  V30 7162 C 681.388 -4.32546 3.14338 0
M  V30 7163 C 682.688 -2.624 4.51601 0
M  V30 7164 H 684.382 -1.25726 2.71723 0
M  V30 7165 H 681.928 -0.603387 1.30749 0
M  V30 7166 H 683.881 -3.62639 2.14641 0
M  V30 7167 H 682.605 -3.10283 1.01941 0
M  V30 7168 H 681.264 -2.18451 2.94406 0
M  V30 7169 H 680.912 -4.53703 2.1717 0
M  V30 7170 H 680.612 -4.37695 3.92042 0
M  V30 7171 H 682.136 -5.10934 3.34333 0
M  V30 7172 H 683.55 -3.28596 4.69785 0
M  V30 7173 H 681.947 -2.78903 5.3135 0
M  V30 7174 H 683.017 -1.57754 4.58521 0
M  V30 7175 N 684.36 -1.4356 -0.65026 0
M  V30 7176 C 685.607 -1.45333 -1.41012 0
M  V30 7177 C 685.935 -0.0787282 -1.94341 0
M  V30 7178 O 685.19 0.916715 -1.72901 0
M  V30 7179 C 685.489 -2.44528 -2.60654 0
M  V30 7180 C 685.155 -3.90331 -2.25727 0
M  V30 7181 C 683.817 -4.3004 -2.15914 0
M  V30 7182 C 686.169 -4.822 -1.97821 0
M  V30 7183 C 683.497 -5.59568 -1.76354 0
M  V30 7184 C 685.849 -6.12095 -1.59759 0
M  V30 7185 C 684.513 -6.50778 -1.48473 0
M  V30 7186 H 683.783 -0.531813 -0.516 0
M  V30 7187 H 686.43 -1.76657 -0.739219 0
M  V30 7188 H 684.735 -2.06619 -3.3289 0
M  V30 7189 H 686.432 -2.43155 -3.18868 0
M  V30 7190 H 683.022 -3.58905 -2.34276 0
M  V30 7191 H 687.206 -4.5229 -2.04322 0
M  V30 7192 H 682.462 -5.88376 -1.66205 0
M  V30 7193 H 686.636 -6.82751 -1.37198 0
M  V30 7194 H 684.263 -7.5105 -1.17591 0
M  V30 7195 N 685.838 0.888903 -1.30139 0
M  V30 7196 C 686.768 2.01046 -1.18755 0
M  V30 7197 C 687.749 1.69916 -0.0791438 0
M  V30 7198 O 688.934 1.92445 -0.260498 0
M  V30 7199 C 686.064 3.36109 -0.874518 0
M  V30 7200 C 685.018 3.81486 -1.94043 0
M  V30 7201 C 684.344 5.13796 -1.48047 0
M  V30 7202 C 685.644 4.00637 -3.35093 0
M  V30 7203 H 687.338 2.10828 -2.12584 0
M  V30 7204 H 684.884 1.01298 -1.02346 0
M  V30 7205 H 686.837 4.14089 -0.781548 0
M  V30 7206 H 685.561 3.26449 0.0994519 0
M  V30 7207 H 684.22 3.05731 -2.02297 0
M  V30 7208 H 683.868 5.0056 -0.494878 0
M  V30 7209 H 683.568 5.45127 -2.19341 0
M  V30 7210 H 685.092 5.94305 -1.40121 0
M  V30 7211 H 686.506 4.69067 -3.2962 0
M  V30 7212 H 684.903 4.43339 -4.04438 0
M  V30 7213 H 685.973 3.0462 -3.77273 0
M  V30 7214 N 687.317 1.12792 1.10072 0
M  V30 7215 C 688.25 0.742921 2.15768 0
M  V30 7216 C 689.228 -0.267714 1.60381 0
M  V30 7217 O 690.412 -0.160782 1.87813 0
M  V30 7218 C 687.539 0.100244 3.38552 0
M  V30 7219 C 686.585 1.07831 4.12644 0
M  V30 7220 S 687.418 2.60765 4.6772 0
M  V30 7221 C 688.574 1.97838 5.9381 0
M  V30 7222 H 688.807 1.63822 2.48092 0
M  V30 7223 H 686.34 0.947385 1.21918 0
M  V30 7224 H 688.298 -0.264175 4.09649 0
M  V30 7225 H 686.959 -0.772223 3.04459 0
M  V30 7226 H 686.152 0.576325 5.00694 0
M  V30 7227 H 685.754 1.38586 3.47376 0
M  V30 7228 H 688.046 1.32341 6.64449 0
M  V30 7229 H 688.989 2.83943 6.48677 0
M  V30 7230 H 689.397 1.43267 5.46017 0
M  V30 7231 N 688.795 -1.27931 0.920396 0
M  V30 7232 C 690.042 -1.94689 0.557007 0
M  V30 7233 C 690.37 -1.724 -0.900476 0
M  V30 7234 O 689.625 -1.04194 -1.65657 0
M  V30 7235 C 689.924 -3.47853 0.820558 0
M  V30 7236 C 689.59 -3.90252 2.25863 0
M  V30 7237 C 688.252 -4.01539 2.65179 0
M  V30 7238 C 690.604 -4.11853 3.19415 0
M  V30 7239 C 687.932 -4.3181 3.97187 0
M  V30 7240 C 690.284 -4.43606 4.50995 0
M  V30 7241 C 688.948 -4.53105 4.90155 0
M  V30 7242 H 688.218 -0.712416 0.203823 0
M  V30 7243 H 690.865 -1.52142 1.16298 0
M  V30 7244 H 689.17 -3.91578 0.131844 0
M  V30 7245 H 690.867 -3.97634 0.51847 0
M  V30 7246 H 687.457 -3.81999 1.94358 0
M  V30 7247 H 691.641 -4.0258 2.90246 0
M  V30 7248 H 686.897 -4.37371 4.2722 0
M  V30 7249 H 691.071 -4.59268 5.23494 0
M  V30 7250 H 688.698 -4.76315 5.92476 0
M  V30 7251 N 690.273 -0.685099 -1.4193 0
M  V30 7252 C 691.236 -0.0222632 -2.29189 0
M  V30 7253 C 692.236 0.7186 -1.4385 0
M  V30 7254 O 693.426 0.555058 -1.6512 0
M  V30 7255 C 690.558 0.979013 -3.2654 0
M  V30 7256 H 691.751 -0.790424 -2.89296 0
M  V30 7257 H 689.304 -0.448012 -1.49742 0
M  V30 7258 H 690.039 1.77531 -2.71392 0
M  V30 7259 H 689.824 0.451037 -3.89497 0
M  V30 7260 H 691.314 1.44091 -3.91954 0
M  V30 7261 N 691.751 1.51645 -0.429126 0
M  V30 7262 C 692.714 2.26116 0.374726 0
M  V30 7263 C 693.714 1.29242 0.956714 0
M  V30 7264 O 694.904 1.53022 0.832452 0
M  V30 7265 C 692.036 3.04669 1.52937 0
M  V30 7266 H 693.229 2.9861 -0.277818 0
M  V30 7267 H 690.782 1.55236 -0.182097 0
M  V30 7268 H 691.517 2.36571 2.21821 0
M  V30 7269 H 691.302 3.75814 1.11833 0
M  V30 7270 H 692.792 3.61102 2.09751 0
M  V30 7271 N 693.229 0.160201 1.56784 0
M  V30 7272 C 694.159 -0.770264 2.2043 0
M  V30 7273 C 695.14 -1.24736 1.15651 0
M  V30 7274 O 696.325 -1.30253 1.44041 0
M  V30 7275 C 693.455 -2.00427 2.83631 0
M  V30 7276 C 692.409 -1.66345 3.94352 0
M  V30 7277 C 691.735 -2.97119 4.4455 0
M  V30 7278 C 693.035 -0.899972 5.14488 0
M  V30 7279 H 694.729 -0.239783 2.98438 0
M  V30 7280 H 692.275 -0.113891 1.43549 0
M  V30 7281 H 694.228 -2.66012 3.26827 0
M  V30 7282 H 692.952 -2.5587 2.02973 0
M  V30 7283 H 691.611 -1.03133 3.51794 0
M  V30 7284 H 691.259 -3.5058 3.60698 0
M  V30 7285 H 690.959 -2.75073 5.19238 0
M  V30 7286 H 692.483 -3.63753 4.90425 0
M  V30 7287 H 693.897 -1.45818 5.54446 0
M  V30 7288 H 692.294 -0.778968 5.95023 0
M  V30 7289 H 693.364 0.105827 4.84785 0
M  V30 7290 N 694.707 -1.5719 -0.113559 0
M  V30 7291 C 695.64 -1.9595 -1.16957 0
M  V30 7292 C 696.618 -0.829951 -1.39823 0
M  V30 7293 O 697.802 -1.08861 -1.53888 0
M  V30 7294 C 694.929 -2.2604 -2.52237 0
M  V30 7295 C 693.975 -3.48571 -2.45765 0
M  V30 7296 S 694.808 -5.00962 -1.89203 0
M  V30 7297 C 695.964 -5.3421 -3.26145 0
M  V30 7298 H 696.197 -2.85214 -0.839069 0
M  V30 7299 H 693.73 -1.51036 -0.320529 0
M  V30 7300 H 695.688 -2.44054 -3.30073 0
M  V30 7301 H 694.349 -1.3738 -2.82463 0
M  V30 7302 H 693.542 -3.67008 -3.45429 0
M  V30 7303 H 693.144 -3.29972 -1.76053 0
M  V30 7304 H 695.436 -5.29725 -4.22371 0
M  V30 7305 H 696.379 -6.35398 -3.12529 0
M  V30 7306 H 696.787 -4.61681 -3.24825 0
M  V30 7307 N 696.185 0.383891 -1.52853 0
M  V30 7308 C 697.596 0.961591 -1.60032 0
M  V30 7309 C 697.947 1.90819 -0.456333 0
M  V30 7310 O 697.072 2.12288 0.419873 0
M  V30 7311 C 697.667 1.75078 -2.90057 0
M  V30 7312 C 696.226 2.2781 -2.99632 0
M  V30 7313 C 695.373 1.08512 -2.55187 0
M  V30 7314 H 698.324 0.163269 -1.57858 0
M  V30 7315 H 698.345 2.61046 -2.7683 0
M  V30 7316 H 697.857 1.06157 -3.73299 0
M  V30 7317 H 695.958 3.00028 -2.20939 0
M  V30 7318 H 696.071 2.56947 -4.0437 0
M  V30 7319 H 694.435 1.44667 -2.09627 0
M  V30 7320 H 695.218 0.41118 -3.40829 0
M  V30 7321 N 697.663 1.43903 0.642637 0
M  V30 7322 C 698.891 1.4954 1.42988 0
M  V30 7323 C 699.306 0.116588 1.8844 0
M  V30 7324 O 698.663 -0.875285 1.60141 0
M  V30 7325 C 698.714 2.45031 2.65785 0
M  V30 7326 O 698.435 3.77551 2.22232 0
M  V30 7327 C 699.936 2.60017 3.59035 0
M  V30 7328 H 697.156 0.507544 0.438907 0
M  V30 7329 H 699.7 1.88752 0.786942 0
M  V30 7330 H 697.855 2.08985 3.26196 0
M  V30 7331 H 698.269 4.29001 3.01759 0
M  V30 7332 H 699.743 3.30887 4.41835 0
M  V30 7333 H 700.22 1.64861 4.07084 0
M  V30 7334 H 700.826 2.96918 3.045 0
M  V30 7335 N 699.141 -0.881989 1.30609 0
M  V30 7336 C 700.387 -1.63647 1.19781 0
M  V30 7337 C 700.72 -1.92632 -0.246265 0
M  V30 7338 O 699.995 -1.54938 -1.17577 0
M  V30 7339 C 700.278 -2.97437 2.02985 0
M  V30 7340 C 700.131 -2.75406 3.55628 0
M  V30 7341 C 701.45 -3.98397 1.86997 0
M  V30 7342 H 698.569 -0.593841 0.436488 0
M  V30 7343 H 701.211 -1.02041 1.60273 0
M  V30 7344 H 699.361 -3.50018 1.68581 0
M  V30 7345 H 701.033 -2.2959 4.00107 0
M  V30 7346 H 699.276 -2.09856 3.79662 0
M  V30 7347 H 699.947 -3.70552 4.09139 0
M  V30 7348 H 702.423 -3.54986 2.17081 0
M  V30 7349 H 701.299 -4.89916 2.47536 0
M  V30 7350 H 701.56 -4.3424 0.829943 0
M  V30 7351 N 700.619 -1.13374 -1.09472 0
M  V30 7352 C 701.549 -0.833268 -2.18126 0
M  V30 7353 C 702.53 0.207169 -1.68834 0
M  V30 7354 O 703.715 0.0662012 -1.94087 0
M  V30 7355 C 700.845 -0.297979 -3.46019 0
M  V30 7356 C 699.799 -1.27261 -4.08642 0
M  V30 7357 C 699.125 -0.597104 -5.31356 0
M  V30 7358 C 700.425 -2.63095 -4.51197 0
M  V30 7359 H 702.119 -1.74182 -2.43518 0
M  V30 7360 H 699.665 -0.838921 -1.17039 0
M  V30 7361 H 701.618 -0.0754444 -4.21332 0
M  V30 7362 H 700.342 0.645959 -3.20148 0
M  V30 7363 H 699.001 -1.48113 -3.35348 0
M  V30 7364 H 698.649 0.352293 -5.01765 0
M  V30 7365 H 698.349 -1.24734 -5.74208 0
M  V30 7366 H 699.873 -0.38384 -6.09392 0
M  V30 7367 H 701.287 -2.46214 -5.17737 0
M  V30 7368 H 699.684 -3.2429 -5.04932 0
M  V30 7369 H 700.754 -3.20793 -3.6362 0
M  V30 7370 N 702.098 1.27442 -0.927168 0
M  V30 7371 C 703.326 1.98498 -0.583622 0
M  V30 7372 C 703.741 1.69171 0.838241 0
M  V30 7373 O 703.098 0.951969 1.55704 0
M  V30 7374 C 703.149 3.52552 -0.799341 0
M  V30 7375 O 702.87 3.80851 -2.16527 0
M  V30 7376 C 704.371 4.4086 -0.464436 0
M  V30 7377 H 701.591 0.633487 -0.221213 0
M  V30 7378 H 704.135 1.62308 -1.24404 0
M  V30 7379 H 702.29 3.86955 -0.185728 0
M  V30 7380 H 702.704 4.75441 -2.21487 0
M  V30 7381 H 704.178 5.47967 -0.666075 0
M  V30 7382 H 704.655 4.35082 0.599995 0
M  V30 7383 H 705.261 4.11977 -1.05617 0
M  V30 7384 N 703.576 0.692616 1.41565 0
M  V30 7385 C 704.823 0.222335 2.01276 0
M  V30 7386 C 705.151 -1.17706 1.5484 0
M  V30 7387 O 704.406 -1.80795 0.749118 0
M  V30 7388 C 704.705 0.225073 3.56691 0
M  V30 7389 C 704.371 1.57158 4.22625 0
M  V30 7390 C 703.033 1.94022 4.40351 0
M  V30 7391 C 705.385 2.45758 4.59622 0
M  V30 7392 C 702.713 3.19076 4.92349 0
M  V30 7393 C 705.065 3.70141 5.13009 0
M  V30 7394 C 703.729 4.07152 5.28946 0
M  V30 7395 H 702.999 0.0813581 0.73652 0
M  V30 7396 H 705.646 0.891123 1.69503 0
M  V30 7397 H 703.951 -0.527259 3.88236 0
M  V30 7398 H 705.648 -0.156283 4.00695 0
M  V30 7399 H 702.238 1.27486 4.09201 0
M  V30 7400 H 706.422 2.18558 4.45585 0
M  V30 7401 H 701.678 3.4775 5.02872 0
M  V30 7402 H 705.852 4.38983 5.40617 0
M  V30 7403 H 703.479 5.04125 5.69001 0
M  V30 7404 N 705.054 -1.51416 0.437162 0
M  V30 7405 C 706.465 -1.86682 -0.0260005 0
M  V30 7406 C 706.816 -1.35432 -1.4196 0
M  V30 7407 O 705.941 -0.705055 -2.04592 0
M  V30 7408 C 706.536 -3.38757 -0.0539577 0
M  V30 7409 C 705.095 -3.7356 -0.461532 0
M  V30 7410 C 704.242 -2.75134 0.345924 0
M  V30 7411 H 707.193 -1.44642 0.653013 0
M  V30 7412 H 707.214 -3.70573 -0.863478 0
M  V30 7413 H 706.726 -3.76028 0.96045 0
M  V30 7414 H 704.827 -3.41878 -1.48155 0
M  V30 7415 H 704.94 -4.78737 -0.186451 0
M  V30 7416 H 703.304 -2.53947 -0.195739 0
M  V30 7417 H 704.087 -3.15247 1.35921 0
M  V30 7418 N 706.532 -0.168513 -1.56696 0
M  V30 7419 C 707.462 0.758563 -2.20835 0
M  V30 7420 C 708.443 1.24121 -1.1631 0
M  V30 7421 O 709.628 1.29487 -1.4473 0
M  V30 7422 C 706.758 1.9892 -2.8469 0
M  V30 7423 C 705.712 1.64252 -3.95228 0
M  V30 7424 C 705.038 2.94757 -4.46119 0
M  V30 7425 C 706.338 0.872675 -5.14958 0
M  V30 7426 H 708.032 0.223953 -2.98561 0
M  V30 7427 H 705.578 0.106277 -1.43607 0
M  V30 7428 H 707.531 2.64275 -3.28233 0
M  V30 7429 H 706.255 2.5479 -2.04327 0
M  V30 7430 H 704.914 1.01266 -3.52336 0
M  V30 7431 H 704.562 3.48662 -3.62552 0
M  V30 7432 H 704.262 2.72316 -5.2069 0
M  V30 7433 H 705.786 3.61147 -4.92347 0
M  V30 7434 H 707.2 1.42875 -5.55211 0
M  V30 7435 H 705.597 0.747402 -5.95428 0
M  V30 7436 H 706.667 -0.131535 -4.84722 0
M  V30 7437 N 708.01 1.57248 0.105221 0
M  V30 7438 C 708.92 2.04653 1.14693 0
M  V30 7439 C 709.936 0.969488 1.44489 0
M  V30 7440 O 711.112 1.28196 1.55331 0
M  V30 7441 C 708.177 2.45297 2.45011 0
M  V30 7442 C 707.238 3.67148 2.22489 0
M  V30 7443 C 706.471 4.05844 3.46592 0
M  V30 7444 O 706.694 3.44736 4.54437 0
M  V30 7445 O 705.628 4.98862 3.36779 0
M  V30 7446 H 709.454 2.93663 0.774336 0
M  V30 7447 H 707.039 1.45998 0.31701 0
M  V30 7448 H 708.921 2.72112 3.21766 0
M  V30 7449 H 707.596 1.59429 2.81717 0
M  V30 7450 H 706.503 3.45463 1.43547 0
M  V30 7451 H 707.836 4.53764 1.9068 0
M  V30 7452 N 709.488 -0.375779 1.53054 0
M  V30 7453 C 710.421 -1.48187 1.7354 0
M  V30 7454 C 711.399 -1.5177 0.583495 0
M  V30 7455 O 712.583 -1.69976 0.81488 0
M  V30 7456 C 709.71 -2.86598 1.80497 0
M  V30 7457 C 708.756 -3.00784 3.02376 0
M  V30 7458 S 709.589 -2.70601 4.62099 0
M  V30 7459 C 710.745 -4.11181 4.71891 0
M  V30 7460 H 710.978 -1.30587 2.67085 0
M  V30 7461 H 708.511 -0.569485 1.43514 0
M  V30 7462 H 710.469 -3.66353 1.85192 0
M  V30 7463 H 709.13 -3.01514 0.880217 0
M  V30 7464 H 708.323 -4.02128 3.03824 0
M  V30 7465 H 707.925 -2.28939 2.95742 0
M  V30 7466 H 710.217 -5.0529 4.51319 0
M  V30 7467 H 711.16 -4.14742 5.73929 0
M  V30 7468 H 711.568 -3.97706 4.00612 0
M  V30 7469 N 710.966 -1.44241 -0.634997 0
M  V30 7470 C 712.214 -1.46531 -1.39187 0
M  V30 7471 C 712.535 -0.0976441 -1.94755 0
M  V30 7472 O 711.805 0.869528 -1.75545 0
M  V30 7473 H 710.385 -0.539544 -0.516625 0
M  V30 7474 H 713.047 -1.79989 -0.747655 0
M  V30 7475 H 712.143 -2.18848 -2.22513 0
M  V30 7476 N 712.444 0.87505 -1.31075 0
M  V30 7477 C 713.69 1.63009 -1.20647 0
M  V30 7478 C 714.023 1.9276 0.236045 0
M  V30 7479 O 713.298 1.55559 1.16754 0
M  V30 7480 C 713.581 2.96357 -2.0456 0
M  V30 7481 C 713.434 2.73516 -3.57084 0
M  V30 7482 C 714.753 3.974 -1.89107 0
M  V30 7483 H 711.872 0.591518 -0.439631 0
M  V30 7484 H 714.514 1.0119 -1.60812 0
M  V30 7485 H 712.664 3.49119 -1.70435 0
M  V30 7486 H 714.336 2.27465 -4.01319 0
M  V30 7487 H 712.579 2.0784 -3.80769 0
M  V30 7488 H 713.25 3.68377 -4.11099 0
M  V30 7489 H 715.726 3.5383 -2.18961 0
M  V30 7490 H 714.602 4.88596 -2.5013 0
M  V30 7491 H 714.863 4.33794 -0.85296 0
M  V30 7492 N 713.922 1.13953 1.08869 0
M  V30 7493 C 715.169 0.90481 1.81161 0
M  V30 7494 C 715.497 -0.568824 1.85996 0
M  V30 7495 O 714.752 -1.43723 1.32823 0
M  V30 7496 C 715.051 1.44495 3.26888 0
M  V30 7497 C 714.717 2.93641 3.42178 0
M  V30 7498 C 713.379 3.34361 3.46059 0
M  V30 7499 C 715.731 3.89568 3.46246 0
M  V30 7500 C 713.059 4.69681 3.51592 0
M  V30 7501 C 715.411 5.2474 3.53314 0
M  V30 7502 C 714.075 5.64979 3.55465 0
M  V30 7503 H 713.345 0.331094 0.662916 0
M  V30 7504 H 715.992 1.42242 1.28217 0
M  V30 7505 H 714.297 0.848169 3.82509 0
M  V30 7506 H 715.994 1.23934 3.81368 0
M  V30 7507 H 712.584 2.61156 3.39846 0
M  V30 7508 H 716.768 3.59192 3.42483 0
M  V30 7509 H 712.024 5.00224 3.51547 0
M  V30 7510 H 716.198 5.98882 3.55406 0
M  V30 7511 H 713.825 6.69821 3.59505 0
M  V30 7512 N 715.4 -1.26948 0.933913 0
M  V30 7513 C 716.33 -2.29017 0.45534 0
M  V30 7514 C 717.311 -1.62961 -0.487605 0
M  V30 7515 O 718.496 -1.90223 -0.391022 0
M  V30 7516 C 715.626 -3.46112 -0.287015 0
M  V30 7517 C 714.58 -4.24205 0.568682 0
M  V30 7518 C 713.906 -5.3384 -0.303206 0
M  V30 7519 C 715.206 -4.88954 1.83633 0
M  V30 7520 H 716.9 -2.69298 1.30839 0
M  V30 7521 H 714.446 -1.29459 0.630579 0
M  V30 7522 H 716.399 -4.16622 -0.6328 0
M  V30 7523 H 715.123 -3.04765 -1.17414 0
M  V30 7524 H 713.782 -3.5545 0.897261 0
M  V30 7525 H 713.43 -4.88734 -1.18947 0
M  V30 7526 H 713.13 -5.86998 0.265879 0
M  V30 7527 H 714.654 -6.0719 -0.644423 0
M  V30 7528 H 716.068 -5.51717 1.55823 0
M  V30 7529 H 714.465 -5.52198 2.34941 0
M  V30 7530 H 715.535 -4.12305 2.55211 0
M  V30 7531 N 716.879 -0.700114 -1.41195 0
M  V30 7532 C 718.295 -0.372114 -1.55201 0
M  V30 7533 C 718.495 1.12053 -1.6747 0
M  V30 7534 O 717.551 1.90642 -1.65566 0
M  V30 7535 C 718.864 -1.12462 -2.78878 0
M  V30 7536 C 720.412 -1.10941 -2.92679 0
M  V30 7537 C 720.887 -1.84376 -4.19249 0
M  V30 7538 N 722.378 -1.81368 -4.26216 0
M  V30 7539 C 723.113 -2.35024 -5.23021 0
M  V30 7540 N 722.609 -2.9717 -6.25829 0
M  V30 7541 N 724.402 -2.25254 -5.14992 0
M  V30 7542 H 716.553 -1.66816 -1.31477 0
M  V30 7543 H 718.816 -0.704223 -0.634644 0
M  V30 7544 H 718.522 -2.17937 -2.76037 0
M  V30 7545 H 718.396 -0.706152 -3.70531 0
M  V30 7546 H 720.783 -0.062911 -2.95033 0
M  V30 7547 H 720.864 -1.56698 -2.02187 0
M  V30 7548 H 720.508 -2.89008 -4.17656 0
M  V30 7549 H 720.438 -1.3605 -5.08722 0
M  V30 7550 H 722.929 -1.36062 -3.52556 0
M  V30 7551 H 723.242 -3.35668 -6.96094 0
M  V30 7552 H 721.587 -3.01249 -6.26318 0
M  V30 7553 H 724.778 -1.76372 -4.33602 0
M  V30 7554 H 724.951 -2.67373 -5.90268 0
M  V30 7555 N 718.357 1.51182 -0.445186 0
M  V30 7556 C 719.267 2.31692 0.368255 0
M  V30 7557 C 720.283 1.40942 1.02036 0
M  V30 7558 O 721.459 1.74011 1.01401 0
M  V30 7559 C 718.524 3.14903 1.45041 0
M  V30 7560 C 717.585 4.21442 0.817615 0
M  V30 7561 C 716.818 5.00677 1.8482 0
M  V30 7562 O 717.041 4.80644 3.07145 0
M  V30 7563 O 715.975 5.84559 1.43438 0
M  V30 7564 H 719.801 3.0232 -0.289219 0
M  V30 7565 H 717.386 1.47951 -0.207555 0
M  V30 7566 H 719.268 3.66612 2.07783 0
M  V30 7567 H 717.943 2.47031 2.09182 0
M  V30 7568 H 716.85 3.73791 0.151931 0
M  V30 7569 H 718.183 4.9171 0.219564 0
M  V30 7570 N 719.835 0.176821 1.56605 0
M  V30 7571 C 720.785 -0.763718 2.14829 0
M  V30 7572 C 721.769 -1.18903 1.08401 0
M  V30 7573 O 722.961 -1.15048 1.3451 0
M  V30 7574 C 720.09 -1.99069 2.7969 0
M  V30 7575 C 719.176 -1.58711 3.93283 0
M  V30 7576 N 719.567 -0.893423 4.97847 0
M  V30 7577 C 717.865 -1.87774 4.04545 0
M  V30 7578 C 718.566 -0.693866 5.77547 0
M  V30 7579 N 717.542 -1.23699 5.29339 0
M  V30 7580 H 721.344 -0.224811 2.93039 0
M  V30 7581 H 718.858 -0.0236563 1.62383 0
M  V30 7582 H 720.855 -2.67478 3.19783 0
M  V30 7583 H 719.515 -2.53449 2.02962 0
M  V30 7584 H 720.526 -0.550868 5.14962 0
M  V30 7585 H 717.203 -2.43793 3.38927 0
M  V30 7586 H 718.593 -0.144899 6.71744 0
M  V30 7587 N 721.313 -1.57302 -0.09688 0
M  V30 7588 C 722.243 -2.0497 -1.11846 0
M  V30 7589 C 723.224 -0.938278 -1.41882 0
M  V30 7590 O 724.409 -1.20943 -1.51942 0
M  V30 7591 C 721.539 -2.47264 -2.43881 0
M  V30 7592 C 720.493 -3.62053 -2.28257 0
M  V30 7593 C 719.819 -3.90318 -3.65453 0
M  V30 7594 C 721.119 -4.93005 -1.72461 0
M  V30 7595 H 722.813 -2.90567 -0.721888 0
M  V30 7596 H 720.359 -1.39786 -0.345803 0
M  V30 7597 H 722.312 -2.7922 -3.15617 0
M  V30 7598 H 721.036 -1.58664 -2.8547 0
M  V30 7599 H 719.695 -3.30341 -1.58967 0
M  V30 7600 H 719.343 -2.98889 -4.04567 0
M  V30 7601 H 719.043 -4.67597 -3.55846 0
M  V30 7602 H 720.567 -4.24747 -4.3866 0
M  V30 7603 H 721.981 -5.23354 -2.34036 0
M  V30 7604 H 720.378 -5.74436 -1.73618 0
M  V30 7605 H 721.448 -4.80053 -0.683898 0
M  V30 7606 N 722.791 0.367657 -1.53252 0
M  V30 7607 C 723.739 1.47061 -1.8021 0
M  V30 7608 C 724.733 1.55539 -0.671112 0
M  V30 7609 O 725.939 1.58451 -0.854014 0
M  V30 7610 H 722.314 0.489868 -0.570555 0
M  V30 7611 H 724.285 1.21527 -2.72532 0
M  V30 7612 C 723.034 2.83924 -2.00706 0
M  V30 7613 H 722.357 2.78158 -2.87172 0
M  V30 7614 H 723.797 3.60281 -2.23547 0
M  V30 7615 C 722.256 3.27613 -0.785568 0
M  V30 7616 O 722.786 4.01691 0.0267459 0
M  V30 7617 N 720.992 2.84134 -0.609597 0
M  V30 7618 H 720.539 2.24017 -1.27178 0
M  V30 7619 H 720.497 3.13723 0.206281 0
M  V30 7620 N 724.269 1.44576 0.627338 0
M  V30 7621 C 725.499 1.50829 1.41189 0
M  V30 7622 C 725.907 0.133083 1.88731 0
M  V30 7623 O 725.25 -0.87199 1.61685 0
M  V30 7624 C 725.312 2.41449 2.66351 0
M  V30 7625 C 724.976 3.88549 2.40579 0
M  V30 7626 C 725.973 4.78981 2.0217 0
M  V30 7627 C 723.658 4.33287 2.54102 0
M  V30 7628 C 725.652 6.12153 1.77618 0
M  V30 7629 C 723.339 5.66505 2.29163 0
M  V30 7630 C 724.337 6.55756 1.9098 0
M  V30 7631 O 724.025 7.86506 1.66321 0
M  V30 7632 H 723.757 0.513797 0.439304 0
M  V30 7633 H 726.311 1.90256 0.774059 0
M  V30 7634 H 724.541 1.96955 3.32784 0
M  V30 7635 H 726.23 2.38608 3.28361 0
M  V30 7636 H 726.996 4.45689 1.91277 0
M  V30 7637 H 722.875 3.64074 2.82792 0
M  V30 7638 H 726.419 6.81776 1.47739 0
M  V30 7639 H 722.316 5.99358 2.39668 0
M  V30 7640 H 723.084 7.98341 1.80536 0
M  V30 7641 N 725.747 -0.868086 1.31537 0
M  V30 7642 C 726.993 -1.62359 1.2252 0
M  V30 7643 C 727.348 -1.91204 -0.214169 0
M  V30 7644 O 726.641 -1.5339 -1.14813 0
M  V30 7645 C 726.835 -2.95889 2.0046 0
M  V30 7646 C 726.664 -2.80082 3.5183 0
M  V30 7647 C 725.434 -2.7917 4.21179 0
M  V30 7648 C 727.632 -2.54805 4.46743 0
M  V30 7649 N 725.614 -2.54433 5.58692 0
M  V30 7650 C 726.985 -2.39349 5.71937 0
M  V30 7651 C 729.04 -2.40165 4.36148 0
M  V30 7652 C 727.743 -2.1074 6.87736 0
M  V30 7653 C 729.769 -2.12945 5.51732 0
M  V30 7654 C 729.131 -1.98278 6.75918 0
M  V30 7655 H 725.23 -0.598381 0.503452 0
M  V30 7656 H 727.814 -1.02156 1.65748 0
M  V30 7657 H 725.985 -3.54095 1.59598 0
M  V30 7658 H 727.717 -3.60734 1.83447 0
M  V30 7659 H 724.472 -2.91621 3.73168 0
M  V30 7660 H 724.896 -2.45029 6.31102 0
M  V30 7661 H 729.538 -2.50231 3.408 0
M  V30 7662 H 727.256 -1.99412 7.8311 0
M  V30 7663 H 730.842 -2.02415 5.45454 0
M  V30 7664 H 729.722 -1.77514 7.63845 0
M  V30 7665 N 727.225 -1.14528 -1.08264 0
M  V30 7666 C 728.455 -0.936604 -1.8415 0
M  V30 7667 C 728.863 0.518298 -1.81962 0
M  V30 7668 O 728.206 1.37096 -1.22272 0
M  V30 7669 C 728.268 -1.36182 -3.32708 0
M  V30 7670 C 727.932 -2.83257 -3.58629 0
M  V30 7671 C 728.929 -3.81366 -3.5335 0
M  V30 7672 C 726.614 -3.20704 -3.86593 0
M  V30 7673 C 728.608 -5.14929 -3.75668 0
M  V30 7674 C 726.295 -4.54443 -4.08564 0
M  V30 7675 C 727.293 -5.51365 -4.03095 0
M  V30 7676 O 726.981 -6.8269 -4.24488 0
M  V30 7677 H 726.713 -0.333254 -0.588148 0
M  V30 7678 H 729.267 -1.5247 -1.3763 0
M  V30 7679 H 727.497 -0.717063 -3.79994 0
M  V30 7680 H 729.186 -1.12372 -3.90035 0
M  V30 7681 H 729.952 -3.53781 -3.31759 0
M  V30 7682 H 725.831 -2.45857 -3.89969 0
M  V30 7683 H 729.375 -5.90568 -3.71315 0
M  V30 7684 H 725.272 -4.81747 -4.29639 0
M  V30 7685 H 726.04 -6.8897 -4.41886 0
M  V30 7686 N 728.703 1.26451 -0.940633 0
M  V30 7687 C 729.928 1.98407 -0.60412 0
M  V30 7688 C 730.353 1.69584 0.81382 0
M  V30 7689 O 729.711 0.943553 1.54812 0
M  V30 7690 C 729.759 3.50387 -0.852136 0
M  V30 7691 O 728.863 4.1233 0.076013 0
M  V30 7692 H 728.204 0.622466 -0.231153 0
M  V30 7693 H 730.734 1.60932 -1.26342 0
M  V30 7694 H 730.744 4.00614 -0.772816 0
M  V30 7695 H 729.419 3.70696 -1.88566 0
M  V30 7696 H 727.996 3.7286 -0.0543187 0
M  V30 7697 N 730.181 0.707592 1.40822 0
M  V30 7698 C 731.111 0.0644925 2.33411 0
M  V30 7699 C 732.092 -0.754205 1.52466 0
M  V30 7700 O 733.277 -0.704749 1.80961 0
M  V30 7701 C 730.407 -0.863865 3.36385 0
M  V30 7702 C 729.361 -0.15138 4.27732 0
M  V30 7703 C 728.687 -1.19491 5.21177 0
M  V30 7704 C 729.987 0.989607 5.12839 0
M  V30 7705 H 731.681 0.837829 2.87438 0
M  V30 7706 H 729.227 0.404346 1.38207 0
M  V30 7707 H 731.18 -1.32309 4.0009 0
M  V30 7708 H 729.904 -1.66901 2.80734 0
M  V30 7709 H 728.563 0.287937 3.65467 0
M  V30 7710 H 728.211 -1.9929 4.61836 0
M  V30 7711 H 727.911 -0.723123 5.83134 0
M  V30 7712 H 729.435 -1.6544 5.8776 0
M  V30 7713 H 730.849 0.610114 5.70044 0
M  V30 7714 H 729.246 1.38926 5.83798 0
M  V30 7715 H 730.316 1.82389 4.49291 0
M  V30 7716 N 731.66 -1.50943 0.453197 0
M  V30 7717 C 732.607 -2.28128 -0.350197 0
M  V30 7718 C 733.577 -1.32398 -1.00299 0
M  V30 7719 O 734.762 -1.61319 -1.01887 0
M  V30 7720 C 731.902 -3.13782 -1.43649 0
M  V30 7721 C 731.015 -4.24523 -0.800255 0
M  V30 7722 C 730.15 -4.97462 -1.86293 0
M  V30 7723 C 729.189 -6.00102 -1.20598 0
M  V30 7724 N 728.326 -6.66387 -2.21071 0
M  V30 7725 H 733.166 -2.96337 0.31434 0
M  V30 7726 H 730.703 -1.46151 0.166863 0
M  V30 7727 H 732.661 -3.6178 -2.07776 0
M  V30 7728 H 731.291 -2.47655 -2.07044 0
M  V30 7729 H 730.343 -3.80371 -0.0468651 0
M  V30 7730 H 731.655 -4.98009 -0.280777 0
M  V30 7731 H 730.809 -5.49088 -2.58044 0
M  V30 7732 H 729.548 -4.23642 -2.41617 0
M  V30 7733 H 728.553 -5.47753 -0.474 0
M  V30 7734 H 729.778 -6.75887 -0.659859 0
M  V30 7735 H 727.724 -5.9537 -2.75446 0
M  V30 7736 H 727.641 -7.3569 -1.74058 0
M  V30 7737 H 728.909 -7.22638 -2.92257 0
M  V30 7738 N 733.138 -0.185124 -1.56509 0
M  V30 7739 C 734.101 0.72591 -2.17401 0
M  V30 7740 C 735.101 1.14819 -1.12575 0
M  V30 7741 O 736.291 1.0629 -1.38015 0
M  V30 7742 C 733.423 1.98979 -2.76803 0
M  V30 7743 H 734.616 0.195588 -2.99262 0
M  V30 7744 H 732.169 0.0644772 -1.56167 0
M  V30 7745 H 732.904 2.56287 -1.98714 0
M  V30 7746 H 732.689 1.69583 -3.53531 0
M  V30 7747 H 734.179 2.63966 -3.23592 0
M  V30 7748 N 734.616 1.57351 0.0885366 0
M  V30 7749 C 735.846 1.90355 0.80303 0
M  V30 7750 C 736.254 0.777678 1.72478 0
M  V30 7751 O 735.597 -0.258908 1.81866 0
M  V30 7752 C 735.659 3.18674 1.66395 0
M  V30 7753 C 735.323 4.4778 0.913327 0
M  V30 7754 C 736.32 5.19345 0.240148 0
M  V30 7755 C 734.005 4.94434 0.885462 0
M  V30 7756 C 735.999 6.35803 -0.450854 0
M  V30 7757 C 733.686 6.10802 0.190679 0
M  V30 7758 C 734.684 6.81337 -0.476295 0
M  V30 7759 O 734.372 7.95488 -1.15992 0
M  V30 7760 H 734.104 0.634035 0.234469 0
M  V30 7761 H 736.658 2.05287 0.0681959 0
M  V30 7762 H 734.888 2.99906 2.44117 0
M  V30 7763 H 736.577 3.37458 2.2556 0
M  V30 7764 H 737.343 4.84339 0.253092 0
M  V30 7765 H 733.222 4.39417 1.39406 0
M  V30 7766 H 736.766 6.90795 -0.972019 0
M  V30 7767 H 732.663 6.45261 0.175603 0
M  V30 7768 H 733.431 8.11509 -1.06749 0
M  V30 7769 N 736.094 -0.359525 1.53444 0
M  V30 7770 C 737.324 -1.12036 1.73585 0
M  V30 7771 C 737.732 -1.83335 0.467438 0
M  V30 7772 O 737.075 -1.74641 -0.569753 0
M  V30 7773 C 737.137 -2.19036 2.85068 0
M  V30 7774 C 736.801 -1.67451 4.25217 0
M  V30 7775 C 737.798 -1.13534 5.07352 0
M  V30 7776 C 735.483 -1.72781 4.71648 0
M  V30 7777 C 737.477 -0.656321 6.34012 0
M  V30 7778 C 735.164 -1.2449 5.98285 0
M  V30 7779 C 736.162 -0.710068 6.79299 0
M  V30 7780 O 735.85 -0.234314 8.03558 0
M  V30 7781 H 735.582 -0.340662 0.583888 0
M  V30 7782 H 738.136 -0.422452 2.01009 0
M  V30 7783 H 736.366 -2.92338 2.53131 0
M  V30 7784 H 738.055 -2.80559 2.93328 0
M  V30 7785 H 738.821 -1.08751 4.7265 0
M  V30 7786 H 734.7 -2.13351 4.08659 0
M  V30 7787 H 738.244 -0.238193 6.97193 0
M  V30 7788 H 734.141 -1.28969 6.32485 0
M  V30 7789 H 734.909 -0.353084 8.17738 0
M  V30 7790 N 737.572 -1.44907 -0.619662 0
M  V30 7791 C 738.502 -1.55488 -1.742 0
M  V30 7792 C 739.483 -0.407143 -1.65156 0
M  V30 7793 O 740.668 -0.628743 -1.8374 0
M  V30 7794 C 737.798 -1.5097 -3.1277 0
M  V30 7795 C 736.752 -2.64337 -3.36615 0
M  V30 7796 C 736.078 -2.44872 -4.75333 0
M  V30 7797 C 737.378 -4.06423 -3.28051 0
M  V30 7798 H 739.072 -2.49432 -1.65602 0
M  V30 7799 H 736.618 -1.20047 -0.795281 0
M  V30 7800 H 738.571 -1.56971 -3.91073 0
M  V30 7801 H 737.295 -0.535486 -3.2218 0
M  V30 7802 H 735.954 -2.57744 -2.60698 0
M  V30 7803 H 735.602 -1.45617 -4.81461 0
M  V30 7804 H 735.302 -3.20888 -4.92244 0
M  V30 7805 H 736.826 -2.52709 -5.55851 0
M  V30 7806 H 738.24 -4.14324 -3.96243 0
M  V30 7807 H 736.637 -4.82733 -3.56495 0
M  V30 7808 H 737.707 -4.29183 -2.25676 0
M  V30 7809 N 739.05 0.861098 -1.31996 0
M  V30 7810 C 740.013 1.95068 -1.20338 0
M  V30 7811 C 741.013 1.60289 -0.128114 0
M  V30 7812 O 742.203 1.70048 -0.378044 0
M  V30 7813 C 739.335 3.30153 -0.849205 0
M  V30 7814 H 740.528 2.06833 -2.17164 0
M  V30 7815 H 738.081 1.05049 -1.15734 0
M  V30 7816 H 738.816 3.24087 0.117508 0
M  V30 7817 H 738.601 3.56771 -1.62655 0
M  V30 7818 H 740.091 4.10025 -0.791782 0
M  V30 7819 N 740.528 1.15101 1.07655 0
M  V30 7820 C 741.475 0.844958 2.14777 0
M  V30 7821 C 742.445 -0.200798 1.64882 0
M  V30 7822 O 743.63 -0.0690278 1.90675 0
M  V30 7823 C 740.77 0.337018 3.4345 0
M  V30 7824 C 739.883 1.44398 4.07153 0
M  V30 7825 C 739.018 0.892487 5.23649 0
M  V30 7826 C 738.057 1.9766 5.79307 0
M  V30 7827 N 737.194 1.44171 6.87138 0
M  V30 7828 H 742.034 1.76242 2.40297 0
M  V30 7829 H 739.571 0.879435 1.17917 0
M  V30 7830 H 741.529 0.024256 4.17193 0
M  V30 7831 H 740.159 -0.543531 3.18191 0
M  V30 7832 H 739.211 1.87299 3.31094 0
M  V30 7833 H 740.523 2.26262 4.4453 0
M  V30 7834 H 739.677 0.532083 6.04362 0
M  V30 7835 H 738.416 0.0429854 4.87681 0
M  V30 7836 H 737.421 2.34586 4.97242 0
M  V30 7837 H 738.646 2.82982 6.17331 0
M  V30 7838 H 736.592 0.614518 6.53115 0
M  V30 7839 H 736.509 2.19665 7.23383 0
M  V30 7840 H 737.777 1.10945 7.71564 0
M  V30 7841 N 742.006 -1.2595 0.947325 0
M  V30 7842 C 743.234 -1.97544 0.615127 0
M  V30 7843 C 743.649 -1.70484 -0.811221 0
M  V30 7844 O 743.006 -0.97662 -1.5417 0
M  V30 7845 C 743.057 -3.51236 0.855328 0
M  V30 7846 O 742.778 -3.77359 2.22558 0
M  V30 7847 C 744.279 -4.40066 0.534515 0
M  V30 7848 H 741.499 -0.629888 0.231263 0
M  V30 7849 H 744.043 -1.60308 1.26971 0
M  V30 7850 H 742.198 -3.8661 0.247266 0
M  V30 7851 H 742.612 -4.71857 2.29022 0
M  V30 7852 H 744.086 -5.46838 0.753168 0
M  V30 7853 H 744.563 -4.35982 -0.530701 0
M  V30 7854 H 745.169 -4.10245 1.12158 0
M  V30 7855 N 743.484 -0.715051 -1.40445 0
M  V30 7856 C 744.417 -0.0112426 -2.28197 0
M  V30 7857 C 745.395 0.768211 -1.43308 0
M  V30 7858 O 746.579 0.754961 -1.72721 0
M  V30 7859 C 743.706 0.991453 -3.23864 0
M  V30 7860 C 742.752 0.302873 -4.25423 0
M  V30 7861 S 743.585 -0.968852 -5.26663 0
M  V30 7862 C 744.741 0.0317538 -6.25892 0
M  V30 7863 H 744.974 -0.755467 -2.87541 0
M  V30 7864 H 742.507 -0.506054 -1.45871 0
M  V30 7865 H 744.465 1.56475 -3.79507 0
M  V30 7866 H 743.126 1.70838 -2.63578 0
M  V30 7867 H 742.319 1.06086 -4.92709 0
M  V30 7868 H 741.921 -0.197853 -3.73476 0
M  V30 7869 H 744.213 0.878764 -6.71777 0
M  V30 7870 H 745.156 -0.607698 -7.05488 0
M  V30 7871 H 745.564 0.39524 -5.63115 0
M  V30 7872 N 744.962 1.50701 -0.461195 0
M  V30 7873 C 745.925 2.2686 0.326679 0
M  V30 7874 C 746.925 1.31243 0.929085 0
M  V30 7875 O 748.115 1.54754 0.799807 0
M  V30 7876 C 745.247 3.07844 1.46441 0
M  V30 7877 H 746.44 2.97954 -0.341095 0
M  V30 7878 H 743.993 1.54814 -0.214984 0
M  V30 7879 H 744.728 2.41223 2.16753 0
M  V30 7880 H 744.513 3.78101 1.03836 0
M  V30 7881 H 746.003 3.65469 2.02044 0
M  V30 7882 N 746.441 0.193421 1.56409 0
M  V30 7883 C 747.718 -0.493318 1.89277 0
M  V30 7884 C 748.098 -1.79765 1.10669 0
M  V30 7885 O 747.446 -2.27558 0.207274 0
M  V30 7886 C 747.656 -0.713732 3.41624 0
M  V30 7887 C 749.004 -1.03385 4.11821 0
M  V30 7888 O 750.028 -0.801511 3.47065 0
M  V30 7889 O 748.887 -1.47327 5.26267 0
M  V30 7890 H 745.981 -0.256973 0.786062 0
M  V30 7891 H 748.527 0.23351 1.68086 0
M  V30 7892 H 747.299 0.207446 3.9075 0
M  V30 7893 H 746.922 -1.49308 3.68501 0
M  V30 7894 N 747.919 -1.57396 -0.0801906 0
M  V30 7895 C 749.165 -1.87113 -0.782083 0
M  V30 7896 C 749.498 -0.78458 -1.77646 0
M  V30 7897 O 748.773 0.205993 -1.93406 0
M  V30 7898 C 749.056 -3.27483 -1.49756 0
M  V30 7899 C 748.909 -4.46782 -0.520171 0
M  V30 7900 C 750.228 -3.65965 -2.44454 0
M  V30 7901 H 747.347 -0.680559 -0.282858 0
M  V30 7902 H 749.989 -1.89946 -0.0454139 0
M  V30 7903 H 748.139 -3.25199 -2.12551 0
M  V30 7904 H 749.811 -4.61187 0.101919 0
M  V30 7905 H 748.054 -4.33485 0.165219 0
M  V30 7906 H 748.725 -5.41761 -1.05824 0
M  V30 7907 H 751.201 -3.69289 -1.91742 0
M  V30 7908 H 750.077 -4.65086 -2.91524 0
M  V30 7909 H 750.338 -2.95446 -3.28883 0
M  V30 7910 N 749.397 0.351382 -1.53633 0
M  V30 7911 C 750.808 0.927429 -1.62036 0
M  V30 7912 C 751.159 1.89809 -0.496706 0
M  V30 7913 O 750.284 2.1313 0.374749 0
M  V30 7914 C 750.879 1.68886 -2.93706 0
M  V30 7915 C 749.438 2.21404 -3.04397 0
M  V30 7916 C 748.585 1.03075 -2.57431 0
M  V30 7917 H 751.536 0.129748 -1.58169 0
M  V30 7918 H 751.557 2.55116 -2.82305 0
M  V30 7919 H 751.069 0.982149 -3.75467 0
M  V30 7920 H 749.17 2.95274 -2.27253 0
M  V30 7921 H 749.283 2.48312 -4.09729 0
M  V30 7922 H 747.647 1.40188 -2.12649 0
M  V30 7923 H 748.43 0.338793 -3.41624 0
M  V30 7924 N 750.875 1.45233 0.611969 0
M  V30 7925 C 752.122 1.49021 1.37109 0
M  V30 7926 C 752.45 0.130227 1.94064 0
M  V30 7927 O 751.705 -0.870551 1.75271 0
M  V30 7928 C 752.004 2.51353 2.54079 0
M  V30 7929 C 751.67 3.96178 2.15299 0
M  V30 7930 C 750.332 4.35614 2.04436 0
M  V30 7931 C 752.684 4.87275 1.84966 0
M  V30 7932 C 750.012 5.64047 1.61456 0
M  V30 7933 C 752.364 6.16115 1.43474 0
M  V30 7934 C 751.028 6.54486 1.31167 0
M  V30 7935 H 750.298 0.545307 0.501719 0
M  V30 7936 H 752.945 1.78555 0.692122 0
M  V30 7937 H 751.25 2.15372 3.27295 0
M  V30 7938 H 752.947 2.51523 3.12309 0
M  V30 7939 H 749.537 3.6499 2.24678 0
M  V30 7940 H 753.721 4.57548 1.92258 0
M  V30 7941 H 748.977 5.92575 1.50547 0
M  V30 7942 H 753.151 6.86149 1.19048 0
M  V30 7943 H 750.778 7.53904 0.97637 0
M  V30 7944 N 752.353 -0.854086 1.3245 0
M  V30 7945 C 753.285 -1.96932 1.17262 0
M  V30 7946 C 754.298 -1.62445 0.107469 0
M  V30 7947 O 755.487 -1.74904 0.356481 0
M  V30 7948 C 752.587 -3.29971 0.772817 0
M  V30 7949 C 751.76 -3.92695 1.92638 0
M  V30 7950 C 750.819 -5.04068 1.51003 0
M  V30 7951 O 749.845 -5.24032 2.22213 0
M  V30 7952 N 751.047 -5.79076 0.406371 0
M  V30 7953 H 753.812 -2.10503 2.13327 0
M  V30 7954 H 751.373 -1.02897 1.24995 0
M  V30 7955 H 753.365 -4.01883 0.476684 0
M  V30 7956 H 751.935 -3.1245 -0.0967 0
M  V30 7957 H 751.155 -3.13563 2.38897 0
M  V30 7958 H 752.443 -4.31337 2.69863 0
M  V30 7959 H 751.841 -5.65393 -0.186302 0
M  V30 7960 H 750.398 -6.51579 0.169846 0
M  V30 7961 N 753.831 -1.1567 -1.07043 0
M  V30 7962 C 755.08 -0.928039 -1.79082 0
M  V30 7963 C 755.393 0.545968 -1.87826 0
M  V30 7964 O 756.599 0.892308 -2.56418 0
M  V30 7965 C 755.055 -1.61103 -3.21829 0
M  V30 7966 C 754.663 -3.12228 -3.21275 0
M  V30 7967 C 756.407 -1.46404 -3.98455 0
M  V30 7968 C 754.314 -3.733 -4.58695 0
M  V30 7969 H 753.244 -0.34357 -0.671175 0
M  V30 7970 H 755.895 -1.38718 -1.20123 0
M  V30 7971 H 754.277 -1.07958 -3.81 0
M  V30 7972 H 755.451 -3.72155 -2.71731 0
M  V30 7973 H 753.766 -3.26725 -2.58147 0
M  V30 7974 H 756.363 -1.8942 -5.00024 0
M  V30 7975 H 756.706 -0.41195 -4.14257 0
M  V30 7976 H 757.239 -1.96663 -3.45787 0
M  V30 7977 H 753.978 -4.78423 -4.48098 0
M  V30 7978 H 753.498 -3.18157 -5.08465 0
M  V30 7979 H 755.177 -3.7441 -5.27661 0
M  V30 7980 N 755.309 1.25446 -0.953992 0
M  V30 7981 C 756.242 2.24341 -0.417912 0
M  V30 7982 C 757.22 1.54709 0.5004 0
M  V30 7983 O 758.404 1.83414 0.434923 0
M  V30 7984 C 755.531 3.36352 0.398155 0
M  V30 7985 C 754.577 4.24007 -0.460461 0
M  V30 7986 S 755.41 5.00951 -1.89231 0
M  V30 7987 C 756.566 6.1643 -1.08465 0
M  V30 7988 H 756.799 2.69465 -1.25602 0
M  V30 7989 H 754.332 1.34512 -0.758018 0
M  V30 7990 H 756.29 4.01325 0.863059 0
M  V30 7991 H 754.951 2.89813 1.21108 0
M  V30 7992 H 754.144 5.03728 0.165415 0
M  V30 7993 H 753.746 3.63965 -0.860549 0
M  V30 7994 H 756.038 6.76681 -0.333017 0
M  V30 7995 H 756.981 6.8335 -1.85577 0
M  V30 7996 H 757.389 5.61139 -0.615062 0
M  V30 7997 N 756.787 0.722489 1.40064 0
M  V30 7998 C 758.034 0.264979 2.00759 0
M  V30 7999 C 758.362 -1.14395 1.57302 0
M  V30 8000 O 757.617 -1.79165 0.787298 0
M  V30 8001 C 757.916 0.300682 3.56133 0
M  V30 8002 C 757.582 1.66087 4.19197 0
M  V30 8003 C 756.244 2.03319 4.36136 0
M  V30 8004 C 758.596 2.55452 4.54306 0
M  V30 8005 C 755.924 3.29448 4.8547 0
M  V30 8006 C 758.276 3.8094 5.05042 0
M  V30 8007 C 756.94 4.1828 5.2019 0
M  V30 8008 H 756.21 0.0969625 0.734629 0
M  V30 8009 H 758.857 0.926877 1.67575 0
M  V30 8010 H 757.162 -0.44479 3.89267 0
M  V30 8011 H 758.859 -0.0712542 4.00937 0
M  V30 8012 H 755.449 1.36137 4.06405 0
M  V30 8013 H 759.633 2.27961 4.40849 0
M  V30 8014 H 754.889 3.58338 4.95382 0
M  V30 8015 H 759.063 4.50351 5.31184 0
M  V30 8016 H 756.69 5.16081 5.58179 0
M  V30 8017 N 758.265 -1.50454 0.469181 0
M  V30 8018 C 759.676 -1.86695 0.0136034 0
M  V30 8019 C 760.027 -1.38413 -1.39055 0
M  V30 8020 O 759.152 -0.748294 -2.03051 0
M  V30 8021 C 759.747 -3.38795 0.0179098 0
M  V30 8022 C 758.306 -3.74455 -0.382191 0
M  V30 8023 C 757.453 -2.74338 0.404207 0
M  V30 8024 H 760.404 -1.43225 0.683547 0
M  V30 8025 H 760.425 -3.72321 -0.78468 0
M  V30 8026 H 759.937 -3.73906 1.04 0
M  V30 8027 H 758.038 -3.44944 -1.4087 0
M  V30 8028 H 758.151 -4.79025 -0.084862 0
M  V30 8029 H 756.515 -2.54305 -0.141829 0
M  V30 8030 H 757.298 -3.12293 1.42577 0
M  V30 8031 N 759.743 -0.201713 -1.56304 0
M  V30 8032 C 760.989 0.435952 -1.98059 0
M  V30 8033 C 761.322 1.60811 -1.08873 0
M  V30 8034 O 760.597 1.9398 -0.142128 0
M  V30 8035 C 760.88 0.889706 -3.48936 0
M  V30 8036 C 760.733 -0.284725 -4.48898 0
M  V30 8037 C 762.052 1.7529 -4.03685 0
M  V30 8038 H 759.171 0.15699 -0.720085 0
M  V30 8039 H 761.813 -0.293965 -1.87712 0
M  V30 8040 H 759.963 1.51166 -3.57884 0
M  V30 8041 H 761.635 -0.922531 -4.51981 0
M  V30 8042 H 759.878 -0.935427 -4.23594 0
M  V30 8043 H 760.549 0.0753865 -5.51949 0
M  V30 8044 H 763.025 1.2283 -3.97558 0
M  V30 8045 H 761.901 2.03933 -5.0961 0
M  V30 8046 H 762.162 2.70939 -3.49348 0
M  V30 8047 N 761.222 1.57436 0.0718424 0
M  V30 8048 C 762.185 2.02703 1.06977 0
M  V30 8049 C 763.185 0.924062 1.31597 0
M  V30 8050 O 764.375 1.18894 1.27318 0
M  V30 8051 C 761.507 2.40763 2.41342 0
M  V30 8052 H 762.7 2.92098 0.679619 0
M  V30 8053 H 760.253 1.5304 0.317565 0
M  V30 8054 H 760.988 1.54394 2.8519 0
M  V30 8055 H 760.773 3.21249 2.24814 0
M  V30 8056 H 762.263 2.76361 3.13073 0
M  V30 8057 N 762.7 -0.34323 1.53817 0
M  V30 8058 C 763.93 -1.10188 1.74763 0
M  V30 8059 C 764.338 -1.82829 0.486856 0
M  V30 8060 O 763.681 -1.75236 -0.551198 0
M  V30 8061 C 763.743 -2.16 2.87375 0
M  V30 8062 C 763.407 -1.62931 4.26969 0
M  V30 8063 C 764.404 -1.08147 5.08528 0
M  V30 8064 C 762.089 -1.67769 4.73454 0
M  V30 8065 C 764.083 -0.589039 6.34672 0
M  V30 8066 C 761.77 -1.18138 5.99572 0
M  V30 8067 C 762.768 -0.637979 6.80014 0
M  V30 8068 O 762.456 -0.149073 8.03762 0
M  V30 8069 H 762.188 -0.33445 0.587469 0
M  V30 8070 H 764.742 -0.401109 2.01445 0
M  V30 8071 H 762.972 -2.89637 2.56218 0
M  V30 8072 H 764.661 -2.77432 2.96287 0
M  V30 8073 H 765.427 -1.03732 4.73777 0
M  V30 8074 H 761.306 -2.09004 4.10899 0
M  V30 8075 H 764.85 -0.164233 6.97407 0
M  V30 8076 H 760.747 -1.22254 6.33817 0
M  V30 8077 H 761.515 -0.266332 8.18067 0
M  V30 8078 N 764.178 -1.45556 -0.604258 0
M  V30 8079 C 765.418 -1.51289 -1.37445 0
M  V30 8080 C 765.782 -0.152112 -1.91397 0
M  V30 8081 O 766.983 -0.0841419 -2.68668 0
M  V30 8082 C 765.254 -2.5646 -2.48924 0
M  V30 8083 S 766.813 -2.81442 -3.36654 0
M  V30 8084 H 763.631 -0.534774 -0.468549 0
M  V30 8085 H 766.233 -1.82657 -0.696902 0
M  V30 8086 H 764.937 -3.53995 -2.07644 0
M  V30 8087 H 764.468 -2.26753 -3.21476 0
M  V30 8088 H 766.483 -2.15074 -4.47166 0
M  V30 8089 N 765.656 0.84705 -1.32902 0
M  V30 8090 C 766.881 1.63925 -1.27056 0
M  V30 8091 C 767.306 1.87443 0.157136 0
M  V30 8092 O 766.664 1.43266 1.11106 0
M  V30 8093 C 766.712 2.97134 -2.04313 0
M  V30 8094 O 765.816 3.88049 -1.39614 0
M  V30 8095 H 765.157 0.499477 -0.437514 0
M  V30 8096 H 767.687 1.05443 -1.75336 0
M  V30 8097 H 767.697 3.46896 -2.14772 0
M  V30 8098 H 766.372 2.79339 -3.08128 0
M  V30 8099 H 764.949 3.46525 -1.3775 0
M  V30 8100 N 767.134 1.16236 1.06428 0
M  V30 8101 C 768.383 0.937523 1.78587 0
M  V30 8102 C 768.696 -0.536 1.88113 0
M  V30 8103 O 769.902 -0.878697 2.56887 0
M  V30 8104 C 768.358 1.62808 3.2097 0
M  V30 8105 C 767.966 3.13927 3.19615 0
M  V30 8106 C 769.71 1.48515 3.97673 0
M  V30 8107 C 767.617 3.75727 4.56709 0
M  V30 8108 H 766.547 0.347125 0.669343 0
M  V30 8109 H 769.198 1.39353 1.19385 0
M  V30 8110 H 767.58 1.09977 3.80422 0
M  V30 8111 H 768.754 3.7359 2.69753 0
M  V30 8112 H 767.069 3.28089 2.56411 0
M  V30 8113 H 769.666 1.92069 4.99013 0
M  V30 8114 H 770.009 0.433913 4.14032 0
M  V30 8115 H 770.542 1.98494 3.44739 0
M  V30 8116 H 767.281 4.80793 4.45554 0
M  V30 8117 H 766.801 3.20849 5.0677 0
M  V30 8118 H 768.48 3.77203 5.25668 0
M  V30 8119 N 768.612 -1.24939 0.960631 0
M  V30 8120 C 769.858 -1.93104 0.61958 0
M  V30 8121 C 770.191 -1.74991 -0.84212 0
M  V30 8122 O 769.466 -1.09867 -1.60498 0
M  V30 8123 C 769.749 -3.46326 0.986422 0
M  V30 8124 C 769.602 -3.73638 2.50429 0
M  V30 8125 C 770.921 -4.37067 0.515827 0
M  V30 8126 H 768.04 -0.701311 0.226566 0
M  V30 8127 H 770.682 -1.47442 1.19836 0
M  V30 8128 H 768.832 -3.85348 0.493907 0
M  V30 8129 H 770.504 -3.44217 3.07103 0
M  V30 8130 H 768.747 -3.19035 2.93937 0
M  V30 8131 H 769.418 -4.80815 2.71147 0
M  V30 8132 H 771.894 -4.05381 0.938389 0
M  V30 8133 H 770.77 -5.43022 0.80114 0
M  V30 8134 H 771.031 -4.38224 -0.584171 0
M  V30 8135 N 770.09 -0.729906 -1.39679 0
M  V30 8136 C 771.32 -0.285295 -2.04621 0
M  V30 8137 C 771.728 1.08304 -1.55135 0
M  V30 8138 O 771.071 1.6946 -0.709146 0
M  V30 8139 C 771.133 -0.203129 -3.58926 0
M  V30 8140 C 770.797 -1.50909 -4.31365 0
M  V30 8141 C 771.794 -2.45381 -4.58349 0
M  V30 8142 C 769.479 -1.77198 -4.70007 0
M  V30 8143 C 771.473 -3.64379 -5.22979 0
M  V30 8144 C 769.16 -2.96474 -5.34365 0
M  V30 8145 C 770.158 -3.89886 -5.60783 0
M  V30 8146 O 769.846 -5.07069 -6.23808 0
M  V30 8147 H 769.578 -0.123373 -0.664647 0
M  V30 8148 H 772.132 -0.992901 -1.79807 0
M  V30 8149 H 770.362 0.560538 -3.82616 0
M  V30 8150 H 772.051 0.208811 -4.05363 0
M  V30 8151 H 772.817 -2.2634 -4.28947 0
M  V30 8152 H 768.696 -1.05337 -4.48804 0
M  V30 8153 H 772.24 -4.37307 -5.43515 0
M  V30 8154 H 768.137 -3.15419 -5.63188 0
M  V30 8155 H 768.905 -5.07335 -6.42303 0
M  V30 8156 N 771.568 1.50203 -0.477153 0
M  V30 8157 C 772.814 2.03286 0.0679442 0
M  V30 8158 C 773.169 1.35227 1.36863 0
M  V30 8159 O 772.462 0.471029 1.8572 0
M  V30 8160 C 772.656 3.56127 0.301325 0
M  V30 8161 C 772.485 4.38999 -0.975188 0
M  V30 8162 C 771.255 4.81889 -1.52022 0
M  V30 8163 C 773.453 4.79013 -1.8722 0
M  V30 8164 N 771.435 5.49105 -2.74513 0
M  V30 8165 C 772.806 5.45701 -2.94296 0
M  V30 8166 C 774.861 4.60967 -1.88185 0
M  V30 8167 C 773.564 5.96255 -4.02333 0
M  V30 8168 C 775.59 5.12466 -2.95183 0
M  V30 8169 C 774.952 5.79134 -4.00977 0
M  V30 8170 H 771.051 0.78185 -0.015318 0
M  V30 8171 H 773.635 1.83646 -0.64671 0
M  V30 8172 H 771.806 3.75702 0.985021 0
M  V30 8173 H 773.538 3.95859 0.841304 0
M  V30 8174 H 770.293 4.61387 -1.06858 0
M  V30 8175 H 770.717 5.87315 -3.36734 0
M  V30 8176 H 775.359 4.0885 -1.07708 0
M  V30 8177 H 773.077 6.47406 -4.83623 0
M  V30 8178 H 776.663 5.00329 -2.96921 0
M  V30 8179 H 775.543 6.18265 -4.82409 0
M  V30 8180 N 773.046 0.209999 1.56195 0
M  V30 8181 C 773.979 -0.744546 2.15712 0
M  V30 8182 C 774.957 -1.19917 1.09812 0
M  V30 8183 O 776.141 -1.284 1.38006 0
M  V30 8184 C 773.268 -2.00733 2.72807 0
M  V30 8185 C 772.314 -1.69363 3.91431 0
M  V30 8186 S 773.147 -0.828579 5.29051 0
M  V30 8187 C 774.303 -2.10118 5.89577 0
M  V30 8188 H 774.536 -0.238636 2.96341 0
M  V30 8189 H 772.069 -0.00517877 1.54399 0
M  V30 8190 H 774.027 -2.73246 3.06344 0
M  V30 8191 H 772.688 -2.48436 1.92193 0
M  V30 8192 H 771.881 -2.63157 4.29842 0
M  V30 8193 H 771.483 -1.04921 3.58981 0
M  V30 8194 H 773.775 -3.05231 6.04847 0
M  V30 8195 H 774.718 -1.76116 6.85849 0
M  V30 8196 H 775.126 -2.23644 5.18308 0
M  V30 8197 N 774.524 -1.57472 -0.0634922 0
M  V30 8198 C 775.752 -1.91887 -0.773767 0
M  V30 8199 C 776.167 -0.806733 -1.70696 0
M  V30 8200 O 775.524 0.219383 -1.81177 0
M  V30 8201 C 775.575 -3.26092 -1.56034 0
M  V30 8202 O 775.296 -4.33029 -0.66464 0
M  V30 8203 C 776.797 -3.74573 -2.37087 0
M  V30 8204 H 774.017 -0.634074 -0.219525 0
M  V30 8205 H 776.561 -2.04476 -0.0312828 0
M  V30 8206 H 774.716 -3.15004 -2.25502 0
M  V30 8207 H 775.13 -5.10291 -1.21258 0
M  V30 8208 H 776.604 -4.71084 -2.87722 0
M  V30 8209 H 777.081 -3.04003 -3.16984 0
M  V30 8210 H 777.687 -3.88631 -1.72759 0
M  V30 8211 N 776.003 0.335068 -1.53997 0
M  V30 8212 C 777.228 1.09859 -1.75914 0
M  V30 8213 C 777.653 1.81308 -0.500915 0
M  V30 8214 O 777.011 1.72854 0.54693 0
M  V30 8215 C 777.059 2.08122 -2.94478 0
M  V30 8216 O 776.163 3.15805 -2.65219 0
M  V30 8217 H 775.504 0.317313 -0.583274 0
M  V30 8218 H 778.034 0.382872 -2.00986 0
M  V30 8219 H 778.044 2.51195 -3.21504 0
M  V30 8220 H 776.719 1.55517 -3.8573 0
M  V30 8221 H 775.296 2.77489 -2.49107 0
M  V30 8222 N 777.481 1.45874 0.596531 0
M  V30 8223 C 778.413 1.51408 1.7207 0
M  V30 8224 C 779.426 0.403738 1.57714 0
M  V30 8225 O 780.615 0.671384 1.65393 0
M  V30 8226 C 777.715 1.3652 3.10186 0
M  V30 8227 C 776.888 2.61428 3.50677 0
M  V30 8228 C 775.947 2.40937 4.67799 0
M  V30 8229 O 774.973 3.14602 4.74357 0
M  V30 8230 N 776.175 1.4621 5.61785 0
M  V30 8231 H 778.94 2.48333 1.67782 0
M  V30 8232 H 776.501 1.41755 0.782129 0
M  V30 8233 H 778.493 1.20606 3.86311 0
M  V30 8234 H 777.063 0.478302 3.08919 0
M  V30 8235 H 776.283 2.92381 2.644 0
M  V30 8236 H 777.571 3.44432 3.74491 0
M  V30 8237 H 776.969 0.854382 5.59211 0
M  V30 8238 H 775.526 1.36264 6.37397 0
M  V30 8239 N 778.959 -0.83999 1.33349 0
M  V30 8240 C 780.37 -1.41139 1.22216 0
M  V30 8241 C 780.721 -1.95551 -0.159398 0
M  V30 8242 O 779.846 -1.88721 -1.05893 0
M  V30 8243 C 780.441 -2.56564 2.21269 0
M  V30 8244 C 779 -3.09661 2.13979 0
M  V30 8245 C 778.147 -1.82457 2.08818 0
M  V30 8246 H 781.098 -0.645853 1.44964 0
M  V30 8247 H 781.119 -3.34163 1.81976 0
M  V30 8248 H 780.631 -2.16932 3.21811 0
M  V30 8249 H 778.732 -3.53841 1.16736 0
M  V30 8250 H 778.845 -3.6991 3.04472 0
M  V30 8251 H 777.209 -2.0266 1.54276 0
M  V30 8252 H 777.992 -1.45022 3.11165 0
M  V30 8253 N 780.437 -1.16799 -1.0581 0
M  V30 8254 C 781.662 -0.977402 -1.82925 0
M  V30 8255 C 782.087 0.469514 -1.82146 0
M  V30 8256 O 781.445 1.33576 -1.22585 0
M  V30 8257 C 781.493 -1.51543 -3.27211 0
M  V30 8258 O 780.597 -0.725021 -4.05977 0
M  V30 8259 H 779.938 -0.347474 -0.565825 0
M  V30 8260 H 782.468 -1.55151 -1.33376 0
M  V30 8261 H 782.478 -1.53502 -3.78023 0
M  V30 8262 H 781.153 -2.56872 -3.27093 0
M  V30 8263 H 779.73 -0.77634 -3.64729 0
M  V30 8264 N 781.915 1.24427 -0.967243 0
M  V30 8265 C 783.192 1.87831 -0.545776 0
M  V30 8266 C 783.572 1.87126 0.977099 0
M  V30 8267 O 782.92 1.34357 1.84826 0
M  V30 8268 C 783.13 3.29967 -1.13679 0
M  V30 8269 C 784.478 4.06654 -1.22139 0
M  V30 8270 O 785.502 3.39136 -1.08926 0
M  V30 8271 O 784.361 5.27455 -1.43017 0
M  V30 8272 H 781.455 0.806745 -0.181912 0
M  V30 8273 H 784.001 1.32403 -1.06148 0
M  V30 8274 H 782.773 3.24977 -2.17958 0
M  V30 8275 H 782.396 3.92969 -0.605093 0
M  V30 8276 N 783.393 0.737304 1.3929 0
M  V30 8277 C 784.356 0.10731 2.28949 0
M  V30 8278 C 785.356 -0.664716 1.46418 0
M  V30 8279 O 786.546 -0.493392 1.67067 0
M  V30 8280 C 783.678 -0.857145 3.29948 0
M  V30 8281 H 784.871 0.89725 2.86163 0
M  V30 8282 H 782.424 0.503279 1.47976 0
M  V30 8283 H 783.159 -1.67336 2.77794 0
M  V30 8284 H 782.944 -0.306167 3.90903 0
M  V30 8285 H 784.434 -1.29444 3.97031 0
M  V30 8286 N 784.871 -1.49948 0.485112 0
M  V30 8287 C 786.117 -2.02695 -0.0651022 0
M  V30 8288 C 786.45 -1.36534 -1.38102 0
M  V30 8289 O 785.725 -0.495677 -1.88078 0
M  V30 8290 C 786.008 -3.59337 -0.234285 0
M  V30 8291 C 785.861 -4.3605 1.10364 0
M  V30 8292 C 787.18 -4.28996 -0.982351 0
M  V30 8293 H 784.299 -0.736666 -0.0221856 0
M  V30 8294 H 786.941 -1.7913 0.633433 0
M  V30 8295 H 785.091 -3.79546 -0.829262 0
M  V30 8296 H 786.763 -4.27377 1.73627 0
M  V30 8297 H 785.006 -3.99236 1.69686 0
M  V30 8298 H 785.677 -5.43959 0.938743 0
M  V30 8299 H 788.153 -4.13346 -0.477904 0
M  V30 8300 H 787.029 -5.38379 -1.06955 0
M  V30 8301 H 787.29 -3.93135 -2.02231 0
M  V30 8302 N 786.349 -0.21828 -1.56081 0
M  V30 8303 C 787.765 0.137168 -1.59009 0
M  V30 8304 C 787.965 1.59215 -1.23503 0
M  V30 8305 O 787.021 2.33178 -0.968716 0
M  V30 8306 C 788.334 -0.186162 -3.00123 0
M  V30 8307 C 789.882 -0.128135 -3.12738 0
M  V30 8308 C 790.357 -0.425094 -4.56023 0
M  V30 8309 N 791.848 -0.374547 -4.61683 0
M  V30 8310 C 792.583 -0.57786 -5.70481 0
M  V30 8311 N 792.079 -0.842771 -6.87655 0
M  V30 8312 N 793.872 -0.510521 -5.59777 0
M  V30 8313 H 786.023 -1.16746 -1.77437 0
M  V30 8314 H 788.286 -0.467706 -0.824594 0
M  V30 8315 H 787.992 -1.19589 -3.30744 0
M  V30 8316 H 787.866 0.500388 -3.73866 0
M  V30 8317 H 790.253 0.872224 -2.81915 0
M  V30 8318 H 790.334 -0.848112 -2.41331 0
M  V30 8319 H 789.978 -1.42288 -4.87562 0
M  V30 8320 H 789.908 0.316038 -5.25651 0
M  V30 8321 H 792.399 -0.177356 -3.77484 0
M  V30 8322 H 792.712 -0.986095 -7.66483 0
M  V30 8323 H 791.057 -0.879929 -6.89407 0
M  V30 8324 H 794.248 -0.303813 -4.67113 0
M  V30 8325 H 794.421 -0.672378 -6.44502 0
M  V30 8326 N 787.827 1.57504 0.0551401 0
M  V30 8327 C 789.074 1.88055 0.751104 0
M  V30 8328 C 789.402 0.812231 1.76729 0
M  V30 8329 O 788.657 -0.189918 1.94776 0
M  V30 8330 C 788.956 3.25311 1.48013 0
M  V30 8331 C 788.622 4.46858 0.602375 0
M  V30 8332 C 787.284 4.79847 0.360536 0
M  V30 8333 C 789.636 5.212 -0.00524047 0
M  V30 8334 C 786.964 5.84582 -0.498127 0
M  V30 8335 C 789.316 6.26844 -0.851453 0
M  V30 8336 C 787.98 6.58324 -1.103 0
M  V30 8337 H 787.25 0.688142 0.274848 0
M  V30 8338 H 789.897 1.91497 0.0114795 0
M  V30 8339 H 788.202 3.17737 2.29239 0
M  V30 8340 H 789.899 3.46189 2.02371 0
M  V30 8341 H 786.489 4.21049 0.801007 0
M  V30 8342 H 790.673 4.96013 0.168682 0
M  V30 8343 H 785.929 6.07361 -0.701594 0
M  V30 8344 H 790.103 6.83603 -1.32893 0
M  V30 8345 H 787.73 7.39304 -1.77011 0
M  V30 8346 N 789.305 -0.326896 1.54172 0
M  V30 8347 C 790.551 -1.06681 1.72473 0
M  V30 8348 C 790.884 -1.87779 0.49523 0
M  V30 8349 O 790.159 -1.87754 -0.507803 0
M  V30 8350 C 790.442 -1.99429 2.99834 0
M  V30 8351 C 790.295 -1.21682 4.33028 0
M  V30 8352 C 791.614 -2.99002 3.22933 0
M  V30 8353 H 788.733 -0.386438 0.627563 0
M  V30 8354 H 791.375 -0.343779 1.86864 0
M  V30 8355 H 789.525 -2.61081 2.87696 0
M  V30 8356 H 791.197 -0.625153 4.57044 0
M  V30 8357 H 789.44 -0.519045 4.30684 0
M  V30 8358 H 790.111 -1.89766 5.18356 0
M  V30 8359 H 792.587 -2.4747 3.34511 0
M  V30 8360 H 791.463 -3.61085 4.13412 0
M  V30 8361 H 791.724 -3.71281 2.40006 0
M  V30 8362 N 790.784 -1.46188 -0.588786 0
M  V30 8363 C 791.714 -1.59148 -1.70863 0
M  V30 8364 C 792.695 -0.442083 -1.64255 0
M  V30 8365 O 793.88 -0.667575 -1.82365 0
M  V30 8366 C 791.01 -1.5757 -3.09498 0
M  V30 8367 C 789.964 -2.71418 -3.30932 0
M  V30 8368 C 789.29 -2.549 -4.70032 0
M  V30 8369 C 790.59 -4.1329 -3.19356 0
M  V30 8370 H 792.284 -2.52889 -1.60274 0
M  V30 8371 H 789.83 -1.21707 -0.769638 0
M  V30 8372 H 791.783 -1.65231 -3.87655 0
M  V30 8373 H 790.507 -0.603705 -3.20972 0
M  V30 8374 H 789.166 -2.63216 -2.55172 0
M  V30 8375 H 788.814 -1.55797 -4.78264 0
M  V30 8376 H 788.514 -3.31257 -4.85327 0
M  V30 8377 H 790.038 -2.64443 -5.50366 0
M  V30 8378 H 791.452 -4.22636 -3.87365 0
M  V30 8379 H 789.849 -4.90187 -3.46175 0
M  V30 8380 H 790.919 -4.33874 -2.16522 0
M  V30 8381 N 792.262 0.832906 -1.33792 0
M  V30 8382 C 793.509 1.58853 -1.25586 0
M  V30 8383 C 793.837 1.93695 0.176807 0
M  V30 8384 O 793.092 1.59386 1.13554 0
M  V30 8385 C 793.391 2.9047 -2.08235 0
M  V30 8386 C 793.057 2.74965 -3.57358 0
M  V30 8387 C 791.719 2.70444 -3.98012 0
M  V30 8388 C 794.071 2.59347 -4.52093 0
M  V30 8389 C 791.399 2.48212 -5.31608 0
M  V30 8390 C 793.751 2.38649 -5.85858 0
M  V30 8391 C 792.415 2.32533 -6.25687 0
M  V30 8392 H 791.685 0.581285 -0.459553 0
M  V30 8393 H 794.332 0.964501 -1.65438 0
M  V30 8394 H 792.637 3.57111 -1.6118 0
M  V30 8395 H 794.334 3.48001 -1.99239 0
M  V30 8396 H 790.924 2.79319 -3.25083 0
M  V30 8397 H 795.108 2.6187 -4.2159 0
M  V30 8398 H 790.364 2.41929 -5.61498 0
M  V30 8399 H 794.538 2.25549 -6.58863 0
M  V30 8400 H 792.165 2.15067 -7.29143 0
M  V30 8401 N 793.74 1.17359 1.05189 0
M  V30 8402 C 794.703 0.892604 2.11105 0
M  V30 8403 C 795.703 -0.117236 1.60372 0
M  V30 8404 O 796.893 0.114936 1.7382 0
M  V30 8405 C 794.025 0.337032 3.3923 0
M  V30 8406 H 795.218 1.83169 2.37464 0
M  V30 8407 H 792.771 0.984051 1.21434 0
M  V30 8408 H 793.506 -0.609198 3.18527 0
M  V30 8409 H 793.291 1.06484 3.77364 0
M  V30 8410 H 794.781 0.158763 4.17298 0
M  V30 8411 N 795.218 -1.23913 0.973828 0
M  V30 8412 C 796.181 -2.23367 0.51378 0
M  V30 8413 C 797.181 -1.55923 -0.39302 0
M  V30 8414 O 798.371 -1.73187 -0.187626 0
M  V30 8415 C 795.503 -3.39944 -0.255152 0
M  V30 8416 H 796.696 -2.65581 1.39307 0
M  V30 8417 H 794.249 -1.36632 0.759039 0
M  V30 8418 H 794.984 -3.03177 -1.15127 0
M  V30 8419 H 794.769 -3.90098 0.395673 0
M  V30 8420 H 796.259 -4.13749 -0.565842 0
M  V30 8421 N 796.696 -0.74468 -1.38897 0
M  V30 8422 C 797.626 -0.126355 -2.33158 0
M  V30 8423 C 798.607 0.713517 -1.54412 0
M  V30 8424 O 799.792 0.656523 -1.82766 0
M  V30 8425 C 796.922 0.774375 -3.38557 0
M  V30 8426 C 795.876 0.0379214 -4.27983 0
M  V30 8427 C 795.202 1.05631 -5.24162 0
M  V30 8428 C 796.502 -1.12523 -5.10035 0
M  V30 8429 H 798.196 -0.913744 -2.85116 0
M  V30 8430 H 795.742 -0.440847 -1.37086 0
M  V30 8431 H 797.695 1.21655 -4.03458 0
M  V30 8432 H 796.419 1.59399 -2.85061 0
M  V30 8433 H 795.078 -0.384733 -3.64576 0
M  V30 8434 H 794.726 1.86975 -4.66958 0
M  V30 8435 H 794.426 0.568261 -5.84846 0
M  V30 8436 H 795.95 1.49799 -5.9194 0
M  V30 8437 H 797.364 -0.761037 -5.68226 0
M  V30 8438 H 795.761 -1.54355 -5.79909 0
M  V30 8439 H 796.831 -1.94237 -4.44297 0
M  V30 8440 N 798.174 1.49689 -0.493057 0
M  V30 8441 C 799.422 2.02027 0.0541642 0
M  V30 8442 C 799.743 1.37554 1.38217 0
M  V30 8443 O 799.013 0.528174 1.88646 0
M  V30 8444 H 797.593 0.746646 0.0230069 0
M  V30 8445 H 800.255 1.83795 -0.648489 0
M  V30 8446 H 799.351 3.11523 0.189652 0
M  V30 8447 N 799.652 0.226554 1.55963 0
M  V30 8448 C 800.88 -0.408507 2.02827 0
M  V30 8449 C 801.295 -1.52994 1.10627 0
M  V30 8450 O 800.652 -1.82126 0.116809 0
M  V30 8451 C 800.703 -0.93545 3.49187 0
M  V30 8452 O 800.424 0.141273 4.37872 0
M  V30 8453 C 801.925 -1.64325 4.11719 0
M  V30 8454 H 799.145 -0.099442 0.66359 0
M  V30 8455 H 801.689 0.344471 2.01578 0
M  V30 8456 H 799.844 -1.63868 3.51036 0
M  V30 8457 H 800.258 -0.25558 5.23877 0
M  V30 8458 H 801.732 -1.9639 5.15883 0
M  V30 8459 H 802.209 -2.55815 3.57009 0
M  V30 8460 H 802.815 -0.9851 4.13734 0
M  V30 8461 N 801.13 -1.57531 -0.0467866 0
M  V30 8462 C 802.063 -2.00734 -1.08541 0
M  V30 8463 C 803.041 -0.888508 -1.36177 0
M  V30 8464 O 804.225 -1.1529 -1.49132 0
M  V30 8465 C 801.352 -2.36535 -2.42423 0
M  V30 8466 C 800.398 -3.58681 -2.3076 0
M  V30 8467 S 801.231 -5.08536 -1.67785 0
M  V30 8468 C 802.387 -5.47562 -3.03194 0
M  V30 8469 H 802.62 -2.88516 -0.717345 0
M  V30 8470 H 800.153 -1.5226 -0.256181 0
M  V30 8471 H 802.111 -2.57834 -3.19424 0
M  V30 8472 H 800.772 -1.49236 -2.76382 0
M  V30 8473 H 799.965 -3.81329 -3.29552 0
M  V30 8474 H 799.567 -3.37142 -1.61899 0
M  V30 8475 H 801.859 -5.47163 -3.99524 0
M  V30 8476 H 802.802 -6.48082 -2.85299 0
M  V30 8477 H 803.21 -4.75042 -3.04951 0
M  V30 8478 N 802.608 0.318715 -1.54344 0
M  V30 8479 C 803.836 1.0755 -1.7675 0
M  V30 8480 C 804.251 1.81543 -0.518422 0
M  V30 8481 O 803.608 1.75198 0.511078 0
M  V30 8482 C 803.659 2.06983 -2.96378 0
M  V30 8483 O 803.38 1.35995 -4.16458 0
M  V30 8484 C 804.881 2.94841 -3.31034 0
M  V30 8485 H 802.101 0.319711 -0.589937 0
M  V30 8486 H 804.645 0.363369 -2.01246 0
M  V30 8487 H 802.8 2.73724 -2.74142 0
M  V30 8488 H 803.214 2.02623 -4.83781 0
M  V30 8489 H 804.688 3.60496 -4.18027 0
M  V30 8490 H 805.165 3.62199 -2.48412 0
M  V30 8491 H 805.771 2.33656 -3.55366 0
M  V30 8492 N 804.086 1.46499 0.581025 0
M  V30 8493 C 805.311 1.55708 1.37002 0
M  V30 8494 C 805.736 0.19942 1.8704 0
M  V30 8495 O 805.094 -0.820731 1.61659 0
M  V30 8496 C 805.142 2.56716 2.53238 0
M  V30 8497 O 804.246 2.10336 3.54729 0
M  V30 8498 H 803.587 0.523912 0.407937 0
M  V30 8499 H 806.117 1.92085 0.704602 0
M  V30 8500 H 806.127 2.76378 3.00132 0
M  V30 8501 H 804.802 3.55307 2.16171 0
M  V30 8502 H 803.379 2.00669 3.14303 0
M  V30 8503 N 805.565 -0.825799 1.34232 0
M  V30 8504 C 806.495 -1.95151 1.28212 0
M  V30 8505 C 807.476 -1.69345 0.160123 0
M  V30 8506 O 808.661 -1.90983 0.352019 0
M  V30 8507 C 805.791 -3.31554 1.03388 0
M  V30 8508 C 804.745 -3.71793 2.12023 0
M  V30 8509 C 804.071 -5.06147 1.72392 0
M  V30 8510 C 805.371 -3.84193 3.53826 0
M  V30 8511 H 807.065 -2.00445 2.22401 0
M  V30 8512 H 804.611 -0.962996 1.07063 0
M  V30 8513 H 806.564 -4.09889 0.978225 0
M  V30 8514 H 805.288 -3.26551 0.0564142 0
M  V30 8515 H 803.947 -2.95731 2.16654 0
M  V30 8516 H 803.595 -4.97628 0.733137 0
M  V30 8517 H 803.295 -5.34041 2.451 0
M  V30 8518 H 804.819 -5.86943 1.68317 0
M  V30 8519 H 806.233 -4.52806 3.51624 0
M  V30 8520 H 804.63 -4.23538 4.2513 0
M  V30 8521 H 805.7 -2.86272 3.91377 0
M  V30 8522 N 807.043 -1.17915 -1.04565 0
M  V30 8523 C 808.289 -0.972863 -1.77942 0
M  V30 8524 C 808.622 0.496753 -1.87739 0
M  V30 8525 O 807.897 1.3688 -1.38181 0
M  V30 8526 C 808.18 -1.62227 -3.21488 0
M  V30 8527 C 808.033 -3.16441 -3.19664 0
M  V30 8528 C 809.352 -1.33137 -4.19479 0
M  V30 8529 H 806.471 -0.354843 -0.645953 0
M  V30 8530 H 809.113 -1.45508 -1.22178 0
M  V30 8531 H 807.263 -1.21224 -3.69103 0
M  V30 8532 H 808.935 -3.66544 -2.80077 0
M  V30 8533 H 807.178 -3.48863 -2.57832 0
M  V30 8534 H 807.849 -3.57012 -4.21006 0
M  V30 8535 H 810.325 -1.68654 -3.80388 0
M  V30 8536 H 809.201 -1.81151 -5.18146 0
M  V30 8537 H 809.462 -0.253319 -4.41374 0
M  V30 8538 N 808.521 1.23394 -0.980386 0
M  V30 8539 C 809.484 2.23092 -0.525619 0
M  V30 8540 C 810.484 1.56129 0.384745 0
M  V30 8541 O 811.674 1.73284 0.178439 0
M  V30 8542 C 808.806 3.40074 0.23712 0
M  V30 8543 H 809.999 2.64839 -1.40714 0
M  V30 8544 H 807.552 1.36227 -0.766275 0
M  V30 8545 H 808.287 3.03783 1.13518 0
M  V30 8546 H 808.072 3.89883 -0.416356 0
M  V30 8547 H 809.562 4.14043 0.543892 0
M  V30 8548 N 809.999 0.752036 1.385 0
M  V30 8549 C 810.931 0.0835089 2.29048 0
M  V30 8550 C 811.944 -0.685402 1.47669 0
M  V30 8551 O 813.133 -0.526748 1.70551 0
M  V30 8552 C 810.233 -0.905772 3.26572 0
M  V30 8553 C 809.406 -0.194828 4.36966 0
M  V30 8554 C 808.465 -1.09464 5.14688 0
M  V30 8555 O 807.491 -0.565743 5.66381 0
M  V30 8556 N 808.693 -2.42287 5.2752 0
M  V30 8557 H 811.458 0.861142 2.87062 0
M  V30 8558 H 809.019 0.602689 1.50264 0
M  V30 8559 H 811.011 -1.51072 3.75446 0
M  V30 8560 H 809.581 -1.58449 2.69467 0
M  V30 8561 H 808.801 0.590812 3.89747 0
M  V30 8562 H 810.089 0.297189 5.07931 0
M  V30 8563 H 809.487 -2.87715 4.8707 0
M  V30 8564 H 808.044 -2.97836 5.79773 0
M  V30 8565 N 811.477 -1.49425 0.500989 0
M  V30 8566 C 812.702 -2.07356 -0.0425154 0
M  V30 8567 C 813.127 -1.35887 -1.30063 0
M  V30 8568 O 812.485 -0.41561 -1.76472 0
M  V30 8569 C 812.533 -3.59518 -0.279188 0
M  V30 8570 O 811.637 -3.89542 -1.3539 0
M  V30 8571 H 810.978 -0.663482 0.0262207 0
M  V30 8572 H 813.508 -1.92231 0.700607 0
M  V30 8573 H 813.518 -4.04791 -0.5107 0
M  V30 8574 H 812.193 -4.10946 0.640009 0
M  V30 8575 H 810.77 -3.56079 -1.10734 0
M  V30 8576 N 812.955 -0.234822 -1.55841 0
M  V30 8577 C 813.885 0.664217 -2.23854 0
M  V30 8578 C 814.866 1.19076 -1.2147 0
M  V30 8579 O 816.051 1.23232 -1.50091 0
M  V30 8580 C 813.181 1.86666 -2.9287 0
M  V30 8581 C 812.135 1.47341 -4.01839 0
M  V30 8582 C 811.461 2.75571 -4.58219 0
M  V30 8583 C 812.761 0.653479 -5.18196 0
M  V30 8584 H 814.455 0.0971213 -2.99242 0
M  V30 8585 H 812.001 0.0452724 -1.43929 0
M  V30 8586 H 813.954 2.50116 -3.39146 0
M  V30 8587 H 812.678 2.45894 -2.1495 0
M  V30 8588 H 811.337 0.862314 -3.56314 0
M  V30 8589 H 810.985 3.32971 -3.77014 0
M  V30 8590 H 810.685 2.49987 -5.31771 0
M  V30 8591 H 812.209 3.39939 -5.07221 0
M  V30 8592 H 813.623 1.19198 -5.60771 0
M  V30 8593 H 812.02 0.494188 -5.98062 0
M  V30 8594 H 813.09 -0.337004 -4.83728 0
M  V30 8595 N 814.433 1.57553 0.0384317 0
M  V30 8596 C 815.681 1.88468 0.729672 0
M  V30 8597 C 816.002 0.831302 1.76393 0
M  V30 8598 O 815.272 -0.13622 1.95426 0
M  V30 8599 H 813.852 0.695529 0.272485 0
M  V30 8600 H 816.514 1.94899 0.0066032 0
M  V30 8601 H 815.61 2.8705 1.22511 0
M  V30 8602 N 815.911 -0.310526 1.54511 0
M  V30 8603 C 816.841 -1.38757 1.878 0
M  V30 8604 C 817.822 -1.53353 0.735991 0
M  V30 8605 O 819.007 -1.67018 0.990887 0
M  V30 8606 C 816.137 -2.75327 2.11689 0
M  V30 8607 C 815.091 -2.75506 3.27537 0
M  V30 8608 C 814.417 -4.15275 3.36824 0
M  V30 8609 C 815.717 -2.38093 4.64875 0
M  V30 8610 H 817.411 -1.11146 2.78005 0
M  V30 8611 H 814.957 -0.533232 1.33763 0
M  V30 8612 H 816.91 -3.50752 2.33562 0
M  V30 8613 H 815.634 -3.04443 1.18245 0
M  V30 8614 H 814.293 -2.02538 3.05572 0
M  V30 8615 H 813.941 -4.41553 2.40915 0
M  V30 8616 H 813.641 -4.16299 4.14692 0
M  V30 8617 H 815.165 -4.92493 3.60947 0
M  V30 8618 H 816.579 -3.03232 4.86542 0
M  V30 8619 H 814.976 -2.50345 5.45387 0
M  V30 8620 H 816.046 -1.33227 4.66239 0
M  V30 8621 N 817.389 -1.46805 -0.573248 0
M  V30 8622 C 818.319 -1.60951 -1.69165 0
M  V30 8623 C 819.3 -0.45948 -1.63777 0
M  V30 8624 O 820.485 -0.68688 -1.81647 0
M  V30 8625 C 817.615 -1.60844 -3.07809 0
M  V30 8626 C 816.569 -2.74913 -3.28035 0
M  V30 8627 C 815.895 -2.59871 -4.67302 0
M  V30 8628 C 817.195 -4.16654 -3.14955 0
M  V30 8629 H 818.889 -2.54574 -1.57582 0
M  V30 8630 H 816.435 -1.22516 -0.756686 0
M  V30 8631 H 818.388 -1.69334 -3.85881 0
M  V30 8632 H 817.112 -0.637714 -3.20314 0
M  V30 8633 H 815.771 -2.65908 -2.52366 0
M  V30 8634 H 815.419 -1.60861 -4.76585 0
M  V30 8635 H 815.119 -3.36386 -4.81786 0
M  V30 8636 H 816.643 -2.70265 -5.4753 0
M  V30 8637 H 818.057 -4.26721 -3.82861 0
M  V30 8638 H 816.454 -4.93831 -3.40956 0
M  V30 8639 H 817.524 -4.36146 -2.11908 0
M  V30 8640 N 818.867 0.818669 -1.34668 0
M  V30 8641 C 820.116 1.57017 -1.26604 0
M  V30 8642 C 820.429 1.94936 0.161036 0
M  V30 8643 O 821.635 2.69051 0.36386 0
M  V30 8644 C 820.091 2.83305 -2.2196 0
M  V30 8645 C 819.699 2.52671 -3.69948 0
M  V30 8646 C 821.443 3.61324 -2.22813 0
M  V30 8647 C 819.35 3.75178 -4.5716 0
M  V30 8648 H 818.28 0.589323 -0.470335 0
M  V30 8649 H 820.931 0.900956 -1.59859 0
M  V30 8650 H 819.313 3.51874 -1.81661 0
M  V30 8651 H 820.487 1.92186 -4.18809 0
M  V30 8652 H 818.802 1.8792 -3.71584 0
M  V30 8653 H 821.399 4.52294 -2.85192 0
M  V30 8654 H 821.742 3.97759 -1.22857 0
M  V30 8655 H 822.275 2.99703 -2.61578 0
M  V30 8656 H 819.014 3.43861 -5.58068 0
M  V30 8657 H 818.534 4.34931 -4.13031 0
M  V30 8658 H 820.213 4.42542 -4.71981 0
M  V30 8659 N 820.346 1.18468 1.03938 0
M  V30 8660 C 821.594 0.978895 1.76811 0
M  V30 8661 C 821.915 -0.49257 1.88676 0
M  V30 8662 O 821.185 -1.3572 1.41269 0
M  V30 8663 H 819.765 0.359201 0.654968 0
M  V30 8664 H 822.427 1.49173 1.25433 0
M  V30 8665 H 821.523 1.418 2.78027 0
M  V30 8666 N 821.824 -1.22873 0.986916 0
M  V30 8667 C 822.787 -2.2281 0.537442 0
M  V30 8668 C 823.787 -1.56331 -0.37646 0
M  V30 8669 O 824.977 -1.73376 -0.169247 0
M  V30 8670 C 822.109 -3.40195 -0.219082 0
M  V30 8671 H 823.302 -2.64089 1.42116 0
M  V30 8672 H 820.855 -1.35819 0.773488 0
M  V30 8673 H 821.59 -3.04381 -1.11905 0
M  V30 8674 H 821.375 -3.89657 0.437026 0
M  V30 8675 H 822.865 -4.14326 -0.521926 0
M  V30 8676 N 823.302 -0.75937 -1.38099 0
M  V30 8677 C 824.265 -0.14372 -2.28749 0
M  V30 8678 C 825.265 0.641338 -1.47457 0
M  V30 8679 O 826.455 0.466751 -1.67831 0
M  V30 8680 C 823.587 0.804545 -3.3127 0
M  V30 8681 H 824.78 -0.942663 -2.847 0
M  V30 8682 H 822.333 -0.526757 -1.47156 0
M  V30 8683 H 823.068 1.62895 -2.80421 0
M  V30 8684 H 822.853 0.243939 -3.9134 0
M  V30 8685 H 824.343 1.23111 -3.99041 0
M  V30 8686 N 824.78 1.49157 -0.508906 0
M  V30 8687 C 826.005 2.07376 0.0315182 0
M  V30 8688 C 826.43 1.36575 1.2934 0
M  V30 8689 O 825.788 0.424963 1.76249 0
M  V30 8690 C 825.836 3.59661 0.260118 0
M  V30 8691 O 824.94 3.90255 1.33322 0
M  V30 8692 H 824.281 0.663334 -0.029739 0
M  V30 8693 H 826.811 1.91857 -0.710791 0
M  V30 8694 H 826.821 4.05056 0.489225 0
M  V30 8695 H 825.496 4.10601 -0.661794 0
M  V30 8696 H 824.073 3.56661 1.08844 0
M  V30 8697 N 826.258 0.243083 1.55714 0
M  V30 8698 C 827.486 -0.386971 2.03249 0
M  V30 8699 C 827.901 -1.51812 1.12243 0
M  V30 8700 O 827.258 -1.81992 0.136119 0
M  V30 8701 C 827.309 -0.898361 3.5016 0
M  V30 8702 O 827.03 0.187708 4.37698 0
M  V30 8703 C 828.531 -1.59949 4.13438 0
M  V30 8704 H 825.751 -0.0923981 0.664608 0
M  V30 8705 H 828.295 0.365832 2.01201 0
M  V30 8706 H 826.45 -1.60136 3.52754 0
M  V30 8707 H 826.864 -0.200001 5.24119 0
M  V30 8708 H 828.338 -1.90907 5.17937 0
M  V30 8709 H 828.815 -2.52014 3.59702 0
M  V30 8710 H 829.421 -0.941163 4.14756 0
M  V30 8711 N 827.736 -1.57571 -0.0300757 0
M  V30 8712 C 828.961 -1.93879 -0.736601 0
M  V30 8713 C 829.386 -0.842998 -1.68152 0
M  V30 8714 O 828.744 0.20135 -1.80178 0
M  V30 8715 C 828.792 -3.29247 -1.47066 0
M  V30 8716 O 827.896 -3.21426 -2.58378 0
M  V30 8717 H 827.237 -0.633735 -0.198181 0
M  V30 8718 H 829.767 -2.04595 0.0141485 0
M  V30 8719 H 829.777 -3.64113 -1.84081 0
M  V30 8720 H 828.452 -4.08565 -0.77764 0
M  V30 8721 H 827.029 -2.98189 -2.23914 0
M  V30 8722 N 829.214 0.302327 -1.54673 0
M  V30 8723 C 830.144 1.37759 -1.88533 0
M  V30 8724 C 831.125 1.52961 -0.744113 0
M  V30 8725 O 832.31 1.6649 -0.999731 0
M  V30 8726 C 829.44 2.74201 -2.13146 0
M  V30 8727 C 828.394 2.73765 -3.28993 0
M  V30 8728 C 827.72 4.13483 -3.39022 0
M  V30 8729 C 829.02 2.35624 -4.66132 0
M  V30 8730 H 830.714 1.0967 -2.78591 0
M  V30 8731 H 828.26 0.52613 -1.34044 0
M  V30 8732 H 830.213 3.49508 -2.35419 0
M  V30 8733 H 828.937 3.03812 -1.19858 0
M  V30 8734 H 827.596 2.00914 -3.06642 0
M  V30 8735 H 827.244 4.40269 -2.43253 0
M  V30 8736 H 826.944 4.14093 -4.16894 0
M  V30 8737 H 828.468 4.90572 -3.63553 0
M  V30 8738 H 829.882 3.00647 -4.88143 0
M  V30 8739 H 828.279 2.47449 -5.46707 0
M  V30 8740 H 829.349 1.30753 -4.66939 0
M  V30 8741 N 830.692 1.47107 0.565454 0
M  V30 8742 C 831.624 1.55024 1.6882 0
M  V30 8743 C 832.637 0.4371 1.56822 0
M  V30 8744 O 833.826 0.706315 1.63931 0
M  V30 8745 C 830.926 1.43069 3.0722 0
M  V30 8746 C 830.099 2.68807 3.45053 0
M  V30 8747 C 829.158 2.50806 4.62583 0
M  V30 8748 O 828.184 3.24593 4.67577 0
M  V30 8749 N 829.386 1.58093 5.58558 0
M  V30 8750 H 832.151 2.51836 1.62477 0
M  V30 8751 H 829.712 1.43382 0.751885 0
M  V30 8752 H 831.704 1.28773 3.83666 0
M  V30 8753 H 830.274 0.543721 3.07835 0
M  V30 8754 H 829.494 2.97923 2.58138 0
M  V30 8755 H 830.782 3.52298 3.67101 0
M  V30 8756 H 830.18 0.972807 5.57273 0
M  V30 8757 H 828.737 1.49753 6.34364 0
M  V30 8758 N 832.17 -0.811516 1.35101 0
M  V30 8759 C 833.416 -1.57068 1.28287 0
M  V30 8760 C 833.749 -1.93667 -0.143808 0
M  V30 8761 O 833.024 -1.60953 -1.09199 0
M  V30 8762 C 833.307 -2.86259 2.18466 0
M  V30 8763 C 833.16 -2.56168 3.69727 0
M  V30 8764 C 834.479 -3.87924 2.07852 0
M  V30 8765 H 831.598 -0.569869 0.467353 0
M  V30 8766 H 834.24 -0.934023 1.65457 0
M  V30 8767 H 832.39 -3.4059 1.86898 0
M  V30 8768 H 834.062 -2.08059 4.11715 0
M  V30 8769 H 832.305 -1.89436 3.90252 0
M  V30 8770 H 832.976 -3.48344 4.28206 0
M  V30 8771 H 835.452 -3.4298 2.35593 0
M  V30 8772 H 834.328 -4.76106 2.73157 0
M  V30 8773 H 834.589 -4.2923 1.05896 0
M  V30 8774 N 833.648 -1.19017 -1.03309 0
M  V30 8775 C 834.611 -0.926076 -2.09658 0
M  V30 8776 C 835.611 0.0917077 -1.60538 0
M  V30 8777 O 836.801 -0.142574 -1.73616 0
M  V30 8778 C 833.933 -0.390958 -3.38651 0
M  V30 8779 H 835.126 -1.86923 -2.3452 0
M  V30 8780 H 832.679 -1.00325 -1.19853 0
M  V30 8781 H 833.414 0.558446 -3.19456 0
M  V30 8782 H 833.199 -1.12474 -3.75622 0
M  V30 8783 H 834.689 -0.225131 -4.16993 0
M  V30 8784 N 835.127 1.22348 -0.993418 0
M  V30 8785 C 836.355 1.95125 -0.688021 0
M  V30 8786 C 836.77 1.73377 0.747388 0
M  V30 8787 O 836.127 1.03317 1.50439 0
M  V30 8788 C 836.178 3.47819 -0.985097 0
M  V30 8789 O 835.899 3.68838 -2.3641 0
M  V30 8790 C 837.4 4.37779 -0.697474 0
M  V30 8791 H 834.62 0.62087 -0.254481 0
M  V30 8792 H 837.164 1.55485 -1.32833 0
M  V30 8793 H 835.319 3.85426 -0.390583 0
M  V30 8794 H 835.733 4.63032 -2.46377 0
M  V30 8795 H 837.207 5.43666 -0.955604 0
M  V30 8796 H 837.684 4.37651 0.368524 0
M  V30 8797 H 838.29 4.05799 -1.27306 0
M  V30 8798 N 836.605 0.766683 1.37694 0
M  V30 8799 C 837.852 0.328714 1.99814 0
M  V30 8800 C 838.18 -1.09333 1.60862 0
M  V30 8801 O 837.435 -1.7657 0.8439 0
M  V30 8802 C 837.734 0.413831 3.54996 0
M  V30 8803 C 837.4 1.7934 4.137 0
M  V30 8804 C 836.062 2.17092 4.29447 0
M  V30 8805 C 838.414 2.69776 4.45949 0
M  V30 8806 C 835.742 3.44726 4.74743 0
M  V30 8807 C 838.094 3.96814 4.92667 0
M  V30 8808 C 836.758 4.34618 5.0662 0
M  V30 8809 H 836.028 0.120285 0.731172 0
M  V30 8810 H 838.675 0.97972 1.64541 0
M  V30 8811 H 836.98 -0.320723 3.90485 0
M  V30 8812 H 838.677 0.0563369 4.0096 0
M  V30 8813 H 835.267 1.48997 4.01868 0
M  V30 8814 H 839.451 2.41871 4.33373 0
M  V30 8815 H 834.707 3.73917 4.83731 0
M  V30 8816 H 838.881 4.67022 5.16588 0
M  V30 8817 H 836.508 5.33578 5.41478 0
M  V30 8818 N 838.083 -1.48885 0.516809 0
M  V30 8819 C 839.329 -2.02788 -0.0220928 0
M  V30 8820 C 839.662 -1.39433 -1.35175 0
M  V30 8821 O 838.937 -0.535459 -1.86984 0
M  V30 8822 C 839.22 -3.59753 -0.158012 0
M  V30 8823 C 839.073 -4.33611 1.19588 0
M  V30 8824 C 840.392 -4.30984 -0.891133 0
M  V30 8825 H 837.511 -0.736971 -0.00655488 0
M  V30 8826 H 840.153 -1.77746 0.671287 0
M  V30 8827 H 838.303 -3.8122 -0.748568 0
M  V30 8828 H 839.975 -4.23598 1.82653 0
M  V30 8829 H 838.218 -3.95547 1.78116 0
M  V30 8830 H 838.889 -5.41846 1.05391 0
M  V30 8831 H 841.365 -4.14267 -0.39012 0
M  V30 8832 H 840.241 -5.40527 -0.955107 0
M  V30 8833 H 840.502 -3.97336 -1.93847 0
M  V30 8834 N 839.561 -0.251338 -1.55583 0
M  V30 8835 C 840.809 0.371434 -1.98657 0
M  V30 8836 C 841.13 1.58143 -1.14087 0
M  V30 8837 O 840.4 1.94607 -0.224708 0
M  V30 8838 H 838.98 0.140225 -0.733721 0
M  V30 8839 H 841.642 -0.351157 -1.9171 0
M  V30 8840 H 840.738 0.677554 -3.04657 0
M  V30 8841 N 841.039 1.57585 0.0217189 0
M  V30 8842 C 842.45 1.7787 0.567377 0
M  V30 8843 C 842.801 0.883337 1.7519 0
M  V30 8844 O 841.926 0.0800819 2.16252 0
M  V30 8845 C 842.521 3.2257 1.03606 0
M  V30 8846 C 841.08 3.44026 1.52718 0
M  V30 8847 C 840.227 2.73313 0.468545 0
M  V30 8848 H 843.178 1.57377 -0.2045 0
M  V30 8849 H 843.199 3.29488 1.9031 0
M  V30 8850 H 842.711 3.87711 0.173739 0
M  V30 8851 H 840.812 2.8407 2.41111 0
M  V30 8852 H 840.925 4.52659 1.56962 0
M  V30 8853 H 839.289 2.37299 0.925263 0
M  V30 8854 H 840.072 3.41141 -0.384438 0
M  V30 8855 N 842.517 -0.29412 1.54831 0
M  V30 8856 C 843.763 -1.02999 1.74697 0
M  V30 8857 C 844.096 -1.86687 0.534949 0
M  V30 8858 O 843.371 -1.88789 -0.467863 0
M  V30 8859 C 843.654 -1.93024 3.03996 0
M  V30 8860 C 843.507 -1.1247 4.35512 0
M  V30 8861 C 844.826 -2.92085 3.29203 0
M  V30 8862 H 841.945 -0.373039 0.635618 0
M  V30 8863 H 844.587 -0.304065 1.87551 0
M  V30 8864 H 842.737 -2.5492 2.93169 0
M  V30 8865 H 844.409 -0.528067 4.58268 0
M  V30 8866 H 842.652 -0.427574 4.31688 0
M  V30 8867 H 843.323 -1.78728 5.22265 0
M  V30 8868 H 845.799 -2.40319 3.39685 0
M  V30 8869 H 844.675 -3.52234 4.20978 0
M  V30 8870 H 844.936 -3.66107 2.47827 0
M  V30 8871 N 843.995 -1.47404 -0.557645 0
M  V30 8872 C 845.223 -1.57622 -1.34026 0
M  V30 8873 C 845.638 -0.226256 -1.87439 0
M  V30 8874 O 844.995 0.78043 -1.64971 0
M  V30 8875 C 845.046 -2.60111 -2.51047 0
M  V30 8876 O 844.767 -3.89866 -1.99841 0
M  V30 8877 C 846.268 -2.80508 -3.43264 0
M  V30 8878 H 843.488 -0.532271 -0.40857 0
M  V30 8879 H 846.032 -1.93019 -0.675555 0
M  V30 8880 H 844.187 -2.27648 -3.13457 0
M  V30 8881 H 844.601 -4.45864 -2.76234 0
M  V30 8882 H 846.075 -3.56084 -4.21792 0
M  V30 8883 H 846.552 -1.88314 -3.9678 0
M  V30 8884 H 847.158 -3.14166 -2.86671 0
M  V30 8885 N 845.473 0.80434 -1.35529 0
M  V30 8886 C 846.436 1.89788 -1.28503 0
M  V30 8887 C 847.436 1.59601 -0.195983 0
M  V30 8888 O 848.626 1.68292 -0.449827 0
M  V30 8889 C 845.758 3.26255 -0.98847 0
M  V30 8890 H 846.951 1.97436 -2.25741 0
M  V30 8891 H 844.504 1.00046 -1.20086 0
M  V30 8892 H 845.239 3.24294 -0.0200541 0
M  V30 8893 H 845.024 3.49551 -1.77641 0
M  V30 8894 H 846.514 4.06298 -0.964975 0
M  V30 8895 N 846.951 1.19563 1.02676 0
M  V30 8896 C 848.2 0.993864 1.75514 0
M  V30 8897 C 848.513 -0.475882 1.89723 0
M  V30 8898 O 849.719 -0.796525 2.59553 0
M  V30 8899 C 848.175 1.72937 3.15628 0
M  V30 8900 C 847.783 3.23937 3.09466 0
M  V30 8901 C 849.527 1.61092 3.92746 0
M  V30 8902 C 847.434 3.90067 4.44524 0
M  V30 8903 H 846.364 0.368244 0.657961 0
M  V30 8904 H 849.015 1.43081 1.14891 0
M  V30 8905 H 847.397 1.22025 3.76731 0
M  V30 8906 H 848.571 3.81983 2.57731 0
M  V30 8907 H 846.886 3.3608 2.45843 0
M  V30 8908 H 849.483 2.07848 4.92649 0
M  V30 8909 H 849.826 0.565415 4.12442 0
M  V30 8910 H 850.359 2.09361 3.3825 0
M  V30 8911 H 847.098 4.94725 4.30032 0
M  V30 8912 H 846.618 3.36809 4.96306 0
M  V30 8913 H 848.297 3.93736 5.13401 0
M  V30 8914 N 848.429 -1.21819 0.999893 0
M  V30 8915 C 849.84 -1.72517 0.713775 0
M  V30 8916 C 850.191 -1.80505 -0.768922 0
M  V30 8917 O 849.316 -1.45611 -1.60083 0
M  V30 8918 C 849.911 -3.13321 1.28901 0
M  V30 8919 C 848.47 -3.61396 1.05212 0
M  V30 8920 C 847.617 -2.39074 1.40494 0
M  V30 8921 H 850.568 -1.07068 1.17141 0
M  V30 8922 H 850.589 -3.74535 0.671084 0
M  V30 8923 H 850.101 -3.07475 2.36814 0
M  V30 8924 H 848.202 -3.72599 -0.0100732 0
M  V30 8925 H 848.315 -4.47145 1.72042 0
M  V30 8926 H 846.679 -2.41015 0.823642 0
M  V30 8927 H 847.462 -2.35884 2.49427 0
M  V30 8928 N 849.908 -0.773975 -1.37286 0
M  V30 8929 C 851.154 -0.339809 -1.99933 0
M  V30 8930 C 851.487 1.0815 -1.61299 0
M  V30 8931 O 850.762 1.74442 -0.860252 0
M  V30 8932 C 851.045 -0.485919 -3.56806 0
M  V30 8933 C 850.898 -1.9498 -4.05343 0
M  V30 8934 C 852.217 0.108461 -4.39966 0
M  V30 8935 H 849.336 -0.124944 -0.726332 0
M  V30 8936 H 851.978 -0.977433 -1.6293 0
M  V30 8937 H 850.128 0.0569023 -3.88458 0
M  V30 8938 H 851.8 -2.5525 -3.84246 0
M  V30 8939 H 850.043 -2.45784 -3.57453 0
M  V30 8940 H 850.714 -2.00308 -5.14374 0
M  V30 8941 H 853.19 -0.354722 -4.14585 0
M  V30 8942 H 852.066 -0.0238926 -5.48895 0
M  V30 8943 H 852.327 1.19901 -4.25531 0
M  V30 8944 N 851.386 1.48609 -0.524698 0
M  V30 8945 C 852.316 2.32366 0.229837 0
M  V30 8946 C 853.297 1.41759 0.940129 0
M  V30 8947 O 854.482 1.7065 0.926936 0
M  V30 8948 C 851.612 3.22835 1.28043 0
M  V30 8949 C 850.566 4.22424 0.688603 0
M  V30 8950 C 849.892 5.0199 1.84146 0
M  V30 8951 C 851.192 5.21217 -0.336176 0
M  V30 8952 H 852.886 2.95698 -0.469339 0
M  V30 8953 H 850.432 1.42197 -0.227156 0
M  V30 8954 H 852.385 3.80253 1.8162 0
M  V30 8955 H 851.109 2.57492 2.00912 0
M  V30 8956 H 849.768 3.66185 0.174402 0
M  V30 8957 H 849.416 4.33076 2.5584 0
M  V30 8958 H 849.116 5.69392 1.45142 0
M  V30 8959 H 850.64 5.62259 2.38111 0
M  V30 8960 H 852.054 5.7319 0.112307 0
M  V30 8961 H 850.451 5.96642 -0.643324 0
M  V30 8962 H 851.521 4.68676 -1.24381 0
M  V30 8963 N 852.864 0.259585 1.55447 0
M  V30 8964 C 853.794 -0.62852 2.24882 0
M  V30 8965 C 854.775 -1.17128 1.23349 0
M  V30 8966 O 855.96 -1.20829 1.52033 0
M  V30 8967 C 853.09 -1.81983 2.95803 0
M  V30 8968 C 852.044 -1.40929 4.04132 0
M  V30 8969 C 851.37 -2.68246 4.62545 0
M  V30 8970 C 852.67 -0.570956 5.1917 0
M  V30 8971 H 854.364 -0.0495021 2.99359 0
M  V30 8972 H 851.91 -0.0223688 1.43983 0
M  V30 8973 H 853.863 -2.44689 3.43082 0
M  V30 8974 H 852.587 -2.42444 2.18835 0
M  V30 8975 H 851.246 -0.805519 3.57641 0
M  V30 8976 H 850.894 -3.26931 3.82263 0
M  V30 8977 H 850.594 -2.41495 5.35681 0
M  V30 8978 H 852.118 -3.31827 5.12565 0
M  V30 8979 H 853.532 -1.10262 5.62597 0
M  V30 8980 H 851.929 -0.398979 5.98772 0
M  V30 8981 H 852.999 0.413918 4.8313 0
M  V30 8982 N 854.342 -1.57594 -0.0133615 0
M  V30 8983 C 855.589 -1.8998 -0.70098 0
M  V30 8984 C 855.917 -0.858802 -1.74513 0
M  V30 8985 O 855.172 0.138209 -1.95211 0
M  V30 8986 C 855.471 -3.29121 -1.39336 0
M  V30 8987 C 855.137 -4.48298 -0.483687 0
M  V30 8988 C 853.799 -4.80635 -0.233186 0
M  V30 8989 C 856.151 -5.21003 0.143426 0
M  V30 8990 C 853.479 -5.83055 0.652943 0
M  V30 8991 C 855.831 -6.24366 1.01735 0
M  V30 8992 C 854.495 -6.55168 1.27716 0
M  V30 8993 H 853.765 -0.695187 -0.256507 0
M  V30 8994 H 856.412 -1.9146 0.0392965 0
M  V30 8995 H 854.717 -3.23703 -2.20735 0
M  V30 8996 H 856.414 -3.51433 -1.93121 0
M  V30 8997 H 853.004 -4.23024 -0.689092 0
M  V30 8998 H 857.188 -4.96286 -0.0371139 0
M  V30 8999 H 852.444 -6.05288 0.862379 0
M  V30 9000 H 856.618 -6.79839 1.5097 0
M  V30 9001 H 854.245 -7.34351 1.9655 0
M  V30 9002 N 855.82 0.285905 -1.54985 0
M  V30 9003 C 857.045 1.04207 -1.7932 0
M  V30 9004 C 857.47 1.79622 -0.558343 0
M  V30 9005 O 856.828 1.74506 0.491661 0
M  V30 9006 C 856.876 1.98648 -3.0095 0
M  V30 9007 O 855.98 3.07207 -2.75132 0
M  V30 9008 H 855.321 0.298596 -0.593074 0
M  V30 9009 H 857.851 0.318736 -2.02102 0
M  V30 9010 H 857.861 2.4084 -3.29333 0
M  V30 9011 H 856.536 1.43167 -3.90482 0
M  V30 9012 H 855.113 2.69423 -2.57809 0
M  V30 9013 N 857.298 1.47698 0.54982 0
M  V30 9014 C 858.546 1.54397 1.30407 0
M  V30 9015 C 858.867 0.211026 1.93855 0
M  V30 9016 O 858.137 -0.765701 1.80316 0
M  V30 9017 H 856.717 0.568747 0.484289 0
M  V30 9018 H 859.379 1.84042 0.641444 0
M  V30 9019 H 858.475 2.31449 2.09375 0
M  V30 9020 N 858.776 -0.797141 1.35954 0
M  V30 9021 C 860.023 -1.55468 1.29754 0
M  V30 9022 C 860.351 -1.94095 -0.125391 0
M  V30 9023 O 859.606 -1.62341 -1.09288 0
M  V30 9024 C 859.905 -2.84847 2.15863 0
M  V30 9025 C 859.571 -2.65394 3.64523 0
M  V30 9026 C 858.233 -2.59796 4.05042 0
M  V30 9027 C 860.585 -2.4727 4.58811 0
M  V30 9028 C 857.913 -2.3403 5.38002 0
M  V30 9029 C 860.265 -2.23032 5.91979 0
M  V30 9030 C 858.929 -2.15862 6.31633 0
M  V30 9031 H 858.199 -0.568897 0.474803 0
M  V30 9032 H 860.846 -0.920299 1.67937 0
M  V30 9033 H 859.151 -3.52712 1.70591 0
M  V30 9034 H 860.848 -3.42597 2.08395 0
M  V30 9035 H 857.438 -2.70602 3.32374 0
M  V30 9036 H 861.622 -2.506 4.28384 0
M  V30 9037 H 856.878 -2.26956 5.67715 0
M  V30 9038 H 861.052 -2.08001 6.64612 0
M  V30 9039 H 858.679 -1.9566 7.34589 0
M  V30 9040 N 860.254 -1.20106 -1.0204 0
M  V30 9041 C 861.501 -1.00889 -1.75578 0
M  V30 9042 C 861.829 0.459415 -1.88996 0
M  V30 9043 O 861.084 1.35735 -1.40977 0
M  V30 9044 C 861.383 -1.63308 -3.17908 0
M  V30 9045 C 861.049 -3.13091 -3.24476 0
M  V30 9046 C 859.711 -3.53968 -3.25976 0
M  V30 9047 C 862.063 -4.09093 -3.22944 0
M  V30 9048 C 859.391 -4.89381 -3.2361 0
M  V30 9049 C 861.743 -5.44447 -3.22119 0
M  V30 9050 C 860.407 -5.84742 -3.2192 0
M  V30 9051 H 859.677 -0.36918 -0.642485 0
M  V30 9052 H 862.324 -1.49475 -1.19706 0
M  V30 9053 H 860.629 -1.06974 -3.76914 0
M  V30 9054 H 862.326 -1.45958 -3.73493 0
M  V30 9055 H 858.916 -2.80526 -3.24042 0
M  V30 9056 H 863.1 -3.78549 -3.20958 0
M  V30 9057 H 858.356 -5.1987 -3.21785 0
M  V30 9058 H 862.53 -6.18584 -3.19885 0
M  V30 9059 H 860.157 -6.89642 -3.19841 0
M  V30 9060 N 861.732 1.21287 -1.00634 0
M  V30 9061 C 862.978 1.90671 -0.690822 0
M  V30 9062 C 863.311 1.77996 0.776592 0
M  V30 9063 O 862.586 1.15748 1.5631 0
M  V30 9064 C 862.869 3.42426 -1.11428 0
M  V30 9065 C 862.722 3.64086 -2.64124 0
M  V30 9066 C 864.041 4.34851 -0.677686 0
M  V30 9067 H 861.16 0.692419 -0.252439 0
M  V30 9068 H 863.802 1.42893 -1.25226 0
M  V30 9069 H 861.952 3.83249 -0.636586 0
M  V30 9070 H 863.624 3.32582 -3.19667 0
M  V30 9071 H 861.867 3.07906 -3.05576 0
M  V30 9072 H 862.538 4.7042 -2.88806 0
M  V30 9073 H 865.014 4.01619 -1.0882 0
M  V30 9074 H 863.89 5.39675 -1.00213 0
M  V30 9075 H 864.151 4.4009 0.421125 0
M  V30 9076 N 863.21 0.781244 1.36873 0
M  V30 9077 C 864.435 0.360398 2.04245 0
M  V30 9078 C 864.86 -1.01242 1.58529 0
M  V30 9079 O 864.218 -1.65063 0.749936 0
M  V30 9080 C 864.266 0.42329 3.58107 0
M  V30 9081 O 863.37 -0.572796 4.08403 0
M  V30 9082 H 862.711 0.154386 0.645803 0
M  V30 9083 H 865.241 1.06008 1.74996 0
M  V30 9084 H 865.251 0.283967 4.07011 0
M  V30 9085 H 863.926 1.42477 3.90734 0
M  V30 9086 H 862.503 -0.395809 3.70793 0
M  V30 9087 N 864.689 -1.48329 0.532571 0
M  V30 9088 C 865.936 -2.025 -0.000582356 0
M  V30 9089 C 866.264 -1.40942 -1.34036 0
M  V30 9090 O 865.519 -0.545545 -1.87942 0
M  V30 9091 C 865.818 -3.57 -0.168943 0
M  V30 9092 C 865.484 -4.37357 1.0968 0
M  V30 9093 C 864.146 -4.59033 1.44369 0
M  V30 9094 C 866.498 -4.83882 1.93669 0
M  V30 9095 C 863.826 -5.24481 2.62939 0
M  V30 9096 C 866.178 -5.50637 3.11419 0
M  V30 9097 C 864.842 -5.70551 3.46451 0
M  V30 9098 H 864.112 -0.741 -0.000213099 0
M  V30 9099 H 866.759 -1.78282 0.699117 0
M  V30 9100 H 865.064 -3.80072 -0.951429 0
M  V30 9101 H 866.761 -3.9654 -0.596422 0
M  V30 9102 H 863.351 -4.20748 0.816655 0
M  V30 9103 H 867.535 -4.66936 1.6818 0
M  V30 9104 H 862.791 -5.38096 2.9028 0
M  V30 9105 H 866.965 -5.85655 3.76803 0
M  V30 9106 H 864.592 -6.21037 4.38425 0
M  V30 9107 N 866.167 -0.267825 -1.55308 0
M  V30 9108 C 867.444 0.402449 -1.91415 0
M  V30 9109 C 867.824 1.7428 -1.1912 0
M  V30 9110 O 867.172 2.2631 -0.315609 0
M  V30 9111 C 867.382 0.549926 -3.4464 0
M  V30 9112 C 868.73 0.836188 -4.16285 0
M  V30 9113 O 869.754 0.635009 -3.50494 0
M  V30 9114 O 868.613 1.22051 -5.32697 0
M  V30 9115 H 865.707 0.219177 -0.797427 0
M  V30 9116 H 868.253 -0.313439 -1.6678 0
M  V30 9117 H 867.025 -0.393641 -3.89315 0
M  V30 9118 H 866.648 1.31556 -3.75205 0
M  V30 9119 N 867.645 1.57599 0.00500368 0
M  V30 9120 C 868.873 1.94626 0.702016 0
M  V30 9121 C 869.288 0.86953 1.67585 0
M  V30 9122 O 868.645 -0.15199 1.81866 0
M  V30 9123 C 868.696 3.31658 1.43824 0
M  V30 9124 O 868.417 4.35197 0.503467 0
M  V30 9125 C 869.918 3.83114 2.23021 0
M  V30 9126 H 867.138 0.641785 0.195841 0
M  V30 9127 H 869.682 2.04451 -0.0446287 0
M  V30 9128 H 867.837 3.23156 2.13655 0
M  V30 9129 H 868.251 5.1444 1.02235 0
M  V30 9130 H 869.725 4.81438 2.7004 0
M  V30 9131 H 870.202 3.15559 3.05482 0
M  V30 9132 H 870.808 3.94775 1.58216 0
M  V30 9133 N 869.123 -0.277682 1.55134 0
M  V30 9134 C 870.372 -1.00766 1.74726 0
M  V30 9135 C 870.685 -1.87617 0.553092 0
M  V30 9136 O 871.891 -2.64058 0.631318 0
M  V30 9137 C 870.347 -1.84147 3.09221 0
M  V30 9138 C 869.955 -1.02186 4.3619 0
M  V30 9139 C 871.699 -2.56604 3.38164 0
M  V30 9140 C 869.606 -1.84978 5.61727 0
M  V30 9141 H 868.536 -0.379948 0.651273 0
M  V30 9142 H 871.187 -0.263543 1.81598 0
M  V30 9143 H 869.569 -2.62637 2.96375 0
M  V30 9144 H 870.743 -0.281459 4.5994 0
M  V30 9145 H 869.058 -0.412054 4.14356 0
M  V30 9146 H 871.655 -3.18942 4.29162 0
M  V30 9147 H 871.998 -3.26647 2.58085 0
M  V30 9148 H 872.531 -1.85147 3.52087 0
M  V30 9149 H 869.27 -1.19365 6.4454 0
M  V30 9150 H 868.79 -2.56628 5.42128 0
M  V30 9151 H 870.469 -2.42458 5.99853 0
M  V30 9152 N 870.601 -1.47988 -0.541979 0
M  V30 9153 C 872.012 -1.49073 -1.12402 0
M  V30 9154 C 872.363 -0.253825 -1.94551 0
M  V30 9155 O 871.488 0.640056 -2.06718 0
M  V30 9156 C 872.083 -2.7011 -2.04514 0
M  V30 9157 C 870.642 -2.74105 -2.5796 0
M  V30 9158 C 869.789 -2.42409 -1.3466 0
M  V30 9159 H 872.74 -1.55277 -0.327818 0
M  V30 9160 H 872.761 -2.47946 -2.88623 0
M  V30 9161 H 872.273 -3.60117 -1.44697 0
M  V30 9162 H 870.374 -1.88276 -3.21532 0
M  V30 9163 H 870.487 -3.75213 -2.97913 0
M  V30 9164 H 868.851 -1.9331 -1.65841 0
M  V30 9165 H 869.634 -3.34642 -0.766133 0
M  V30 9166 N 872.079 0.78992 -1.36375 0
M  V30 9167 C 873.307 1.57873 -1.3373 0
M  V30 9168 C 873.722 1.88624 0.0815544 0
M  V30 9169 O 873.079 1.50085 1.03831 0
M  V30 9170 C 873.13 2.90003 -2.15825 0
M  V30 9171 O 872.851 2.60578 -3.5218 0
M  V30 9172 C 874.352 3.84309 -2.20955 0
M  V30 9173 H 871.572 0.489685 -0.458748 0
M  V30 9174 H 874.116 0.980436 -1.79465 0
M  V30 9175 H 872.271 3.46303 -1.73646 0
M  V30 9176 H 872.685 3.4506 -3.95011 0
M  V30 9177 H 874.159 4.74081 -2.82756 0
M  V30 9178 H 874.636 4.22121 -1.21287 0
M  V30 9179 H 875.242 3.33942 -2.63368 0
M  V30 9180 N 873.557 1.20646 1.01402 0
M  V30 9181 C 874.787 1.04238 1.78376 0
M  V30 9182 C 875.195 -0.411327 1.84675 0
M  V30 9183 O 874.538 -1.29734 1.30057 0
M  V30 9184 C 874.6 1.55349 3.24202 0
M  V30 9185 C 874.264 3.03684 3.41504 0
M  V30 9186 C 875.261 4.01318 3.30514 0
M  V30 9187 C 872.946 3.42698 3.67237 0
M  V30 9188 C 874.94 5.35956 3.45007 0
M  V30 9189 C 872.627 4.77491 3.81373 0
M  V30 9190 C 873.625 5.73929 3.70263 0
M  V30 9191 O 873.313 7.06277 3.83963 0
M  V30 9192 H 873.045 0.366978 0.567718 0
M  V30 9193 H 875.599 1.60235 1.28506 0
M  V30 9194 H 873.829 0.93739 3.75166 0
M  V30 9195 H 875.518 1.34921 3.8282 0
M  V30 9196 H 876.284 3.72522 3.10568 0
M  V30 9197 H 872.163 2.68175 3.74971 0
M  V30 9198 H 875.707 6.11212 3.36252 0
M  V30 9199 H 871.604 5.05977 4.00821 0
M  V30 9200 H 872.372 7.13561 4.00965 0
M  V30 9201 N 875.035 -1.20752 1.01276 0
M  V30 9202 C 875.965 -2.25658 0.600064 0
M  V30 9203 C 876.946 -1.65733 -0.38298 0
M  V30 9204 O 878.131 -1.92324 -0.269256 0
M  V30 9205 C 875.261 -3.47237 -0.0663197 0
M  V30 9206 C 874.215 -4.1973 0.83731 0
M  V30 9207 C 873.541 -5.34687 0.0369102 0
M  V30 9208 C 874.841 -4.76286 2.14357 0
M  V30 9209 H 876.535 -2.60432 1.477 0
M  V30 9210 H 874.081 -1.25187 0.711634 0
M  V30 9211 H 876.034 -4.19803 -0.366563 0
M  V30 9212 H 874.758 -3.11615 -0.977944 0
M  V30 9213 H 873.417 -3.49024 1.1215 0
M  V30 9214 H 873.065 -4.95309 -0.876244 0
M  V30 9215 H 872.765 -5.84119 0.63865 0
M  V30 9216 H 874.289 -6.10059 -0.256968 0
M  V30 9217 H 875.703 -5.40691 1.90595 0
M  V30 9218 H 874.1 -5.36139 2.69583 0
M  V30 9219 H 875.17 -3.9524 2.80916 0
M  V30 9220 N 876.513 -0.788492 -1.36457 0
M  V30 9221 C 877.445 -0.144208 -2.28746 0
M  V30 9222 C 878.458 0.646009 -1.49434 0
M  V30 9223 O 879.647 0.481344 -1.71888 0
M  V30 9224 C 876.747 0.818869 -3.28858 0
M  V30 9225 C 875.92 0.0789055 -4.37329 0
M  V30 9226 C 874.979 0.957791 -5.1741 0
M  V30 9227 O 874.005 0.415378 -5.67682 0
M  V30 9228 N 875.207 2.28216 -5.33758 0
M  V30 9229 H 877.972 -0.936949 -2.84678 0
M  V30 9230 H 875.533 -0.642317 -1.48613 0
M  V30 9231 H 877.525 1.41065 -3.79319 0
M  V30 9232 H 876.095 1.51249 -2.73573 0
M  V30 9233 H 875.315 -0.693939 -3.88044 0
M  V30 9234 H 876.603 -0.431753 -5.06965 0
M  V30 9235 H 876.001 2.747 -4.94527 0
M  V30 9236 H 874.558 2.8236 -5.87466 0
M  V30 9237 N 877.991 1.48044 -0.54043 0
M  V30 9238 C 879.237 2.03392 -0.0183377 0
M  V30 9239 C 879.592 1.4091 1.31004 0
M  V30 9240 O 878.885 0.549375 1.83555 0
M  V30 9241 C 879.079 3.57085 0.150008 0
M  V30 9242 C 878.908 4.34468 -1.1605 0
M  V30 9243 C 877.678 4.75008 -1.72324 0
M  V30 9244 C 879.876 4.70641 -2.07368 0
M  V30 9245 N 877.858 5.36968 -2.97555 0
M  V30 9246 C 879.229 5.32728 -3.17176 0
M  V30 9247 C 881.284 4.52571 -2.07567 0
M  V30 9248 C 879.987 5.78654 -4.27261 0
M  V30 9249 C 882.013 4.99485 -3.16653 0
M  V30 9250 C 881.375 5.61606 -4.2518 0
M  V30 9251 H 877.474 0.780497 -0.0484652 0
M  V30 9252 H 880.058 1.80738 -0.724018 0
M  V30 9253 H 878.229 3.79542 0.824787 0
M  V30 9254 H 879.961 3.99071 0.672649 0
M  V30 9255 H 876.716 4.5644 -1.26331 0
M  V30 9256 H 877.14 5.72505 -3.61341 0
M  V30 9257 H 881.782 4.03914 -1.24952 0
M  V30 9258 H 879.5 6.26311 -5.10647 0
M  V30 9259 H 883.086 4.87286 -3.17874 0
M  V30 9260 H 881.966 5.97248 -5.08197 0
M  V30 9261 N 879.47 0.276058 1.55163 0
M  V30 9262 C 880.403 -0.652386 2.18676 0
M  V30 9263 C 881.381 -1.15151 1.148 0
M  V30 9264 O 882.565 -1.22431 1.43328 0
M  V30 9265 C 879.692 -1.88982 2.81076 0
M  V30 9266 C 878.738 -1.52609 3.98262 0
M  V30 9267 S 879.571 -0.603445 5.32089 0
M  V30 9268 C 880.727 -1.84923 5.97958 0
M  V30 9269 H 880.96 -0.112733 2.97086 0
M  V30 9270 H 878.493 0.0603118 1.54282 0
M  V30 9271 H 880.451 -2.60007 3.17658 0
M  V30 9272 H 879.112 -2.40061 2.02557 0
M  V30 9273 H 878.305 -2.44689 4.40617 0
M  V30 9274 H 877.907 -0.89601 3.63108 0
M  V30 9275 H 880.199 -2.79303 6.17249 0
M  V30 9276 H 881.142 -1.46868 6.92702 0
M  V30 9277 H 881.55 -2.0146 5.27327 0
M  V30 9278 N 880.948 -1.576 0.00335426 0
M  V30 9279 C 882.173 -1.95398 -0.695311 0
M  V30 9280 C 882.598 -0.878476 -1.66326 0
M  V30 9281 O 881.956 0.163086 -1.80565 0
M  V30 9282 C 882.004 -3.32293 -1.40049 0
M  V30 9283 O 881.108 -3.26834 -2.51502 0
M  V30 9284 H 880.449 -0.637796 -0.184694 0
M  V30 9285 H 882.979 -2.04519 0.057543 0
M  V30 9286 H 882.989 -3.67936 -1.76316 0
M  V30 9287 H 881.664 -4.10123 -0.690803 0
M  V30 9288 H 880.241 -3.02872 -2.17539 0
M  V30 9289 N 882.426 0.269451 -1.5528 0
M  V30 9290 C 883.656 1.01724 -1.79821 0
M  V30 9291 C 884.064 1.80298 -0.573532 0
M  V30 9292 O 883.407 1.77666 0.466963 0
M  V30 9293 C 883.469 2.02043 -2.97353 0
M  V30 9294 C 883.133 1.42375 -4.34256 0
M  V30 9295 C 884.13 0.837611 -5.13108 0
M  V30 9296 C 881.815 1.44988 -4.8092 0
M  V30 9297 C 883.809 0.285557 -6.3676 0
M  V30 9298 C 881.496 0.893969 -6.04526 0
M  V30 9299 C 882.494 0.312809 -6.82283 0
M  V30 9300 O 882.182 -0.234582 -8.03558 0
M  V30 9301 H 881.914 0.30604 -0.602757 0
M  V30 9302 H 884.468 0.30454 -2.0313 0
M  V30 9303 H 882.698 2.77082 -2.69745 0
M  V30 9304 H 884.387 2.6298 -3.09187 0
M  V30 9305 H 885.153 0.81009 -4.78187 0
M  V30 9306 H 881.032 1.89162 -4.20403 0
M  V30 9307 H 884.576 -0.168696 -6.97396 0
M  V30 9308 H 880.473 0.918742 -6.38928 0
M  V30 9309 H 881.241 -0.124282 -8.18406 0
M  V30 9310 N 883.904 1.48273 0.534124 0
M  V30 9311 C 885.153 1.55334 1.28663 0
M  V30 9312 C 885.466 0.230345 1.94239 0
M  V30 9313 O 886.672 0.179161 2.70908 0
M  V30 9314 C 885.128 2.73927 2.33435 0
M  V30 9315 C 884.736 4.12852 1.73947 0
M  V30 9316 C 886.48 2.90298 3.09722 0
M  V30 9317 C 884.387 5.22711 2.76636 0
M  V30 9318 H 883.317 0.578262 0.483869 0
M  V30 9319 H 885.968 1.74598 0.564602 0
M  V30 9320 H 884.35 2.48089 3.08655 0
M  V30 9321 H 885.524 4.48691 1.04944 0
M  V30 9322 H 883.839 4.01562 1.10167 0
M  V30 9323 H 886.436 3.69542 3.86449 0
M  V30 9324 H 886.779 1.99598 3.6533 0
M  V30 9325 H 887.312 3.16017 2.41616 0
M  V30 9326 H 884.051 6.15362 2.25852 0
M  V30 9327 H 883.571 4.91364 3.43979 0
M  V30 9328 H 885.25 5.50648 3.39699 0
M  V30 9329 N 885.382 -0.782676 1.36792 0
M  V30 9330 C 886.607 -1.57676 1.34733 0
M  V30 9331 C 887.032 -1.87979 -0.0675253 0
M  V30 9332 O 886.39 -1.48404 -1.04144 0
M  V30 9333 C 886.438 -2.87047 2.18257 0
M  V30 9334 O 885.542 -3.80946 1.57969 0
M  V30 9335 H 884.883 -0.478034 0.460846 0
M  V30 9336 H 887.413 -0.969578 1.80168 0
M  V30 9337 H 887.423 -3.36254 2.31079 0
M  V30 9338 H 886.098 -2.64319 3.21104 0
M  V30 9339 H 884.675 -3.39558 1.54126 0
M  V30 9340 N 886.86 -1.21182 -1.00761 0
M  V30 9341 C 888.09 -1.05182 -1.77821 0
M  V30 9342 C 888.498 0.401527 -1.8489 0
M  V30 9343 O 887.841 1.29042 -1.30743 0
M  V30 9344 C 887.903 -1.57066 -3.23374 0
M  V30 9345 C 887.567 -3.05491 -3.39889 0
M  V30 9346 C 888.564 -4.03065 -3.28381 0
M  V30 9347 C 886.249 -3.44641 -3.65415 0
M  V30 9348 C 888.243 -5.37778 -3.4216 0
M  V30 9349 C 885.93 -4.79507 -3.78836 0
M  V30 9350 C 886.928 -5.75884 -3.67214 0
M  V30 9351 O 886.616 -7.08304 -3.80212 0
M  V30 9352 H 886.348 -0.369983 -0.565763 0
M  V30 9353 H 888.902 -1.60914 -1.27655 0
M  V30 9354 H 887.132 -0.957273 -3.74664 0
M  V30 9355 H 888.821 -1.36949 -3.82099 0
M  V30 9356 H 889.587 -3.74163 -3.08588 0
M  V30 9357 H 885.466 -2.7016 -3.73544 0
M  V30 9358 H 889.01 -6.12987 -3.33005 0
M  V30 9359 H 884.907 -5.08096 -3.98132 0
M  V30 9360 H 885.675 -7.15677 -3.97175 0
M  V30 9361 N 888.338 1.20213 -1.01915 0
M  V30 9362 C 889.584 1.89928 -0.711007 0
M  V30 9363 C 889.917 1.7881 0.75767 0
M  V30 9364 O 889.192 1.17399 1.55073 0
M  V30 9365 C 889.475 3.41225 -1.15053 0
M  V30 9366 C 889.328 3.61264 -2.67971 0
M  V30 9367 C 890.647 4.34108 -0.72377 0
M  V30 9368 H 887.766 0.689702 -0.259768 0
M  V30 9369 H 890.408 1.41557 -1.26734 0
M  V30 9370 H 888.558 3.82552 -0.677199 0
M  V30 9371 H 890.23 3.29173 -3.23176 0
M  V30 9372 H 888.473 3.04647 -3.08824 0
M  V30 9373 H 889.144 4.67331 -2.93779 0
M  V30 9374 H 891.62 4.00442 -1.13073 0
M  V30 9375 H 890.496 5.38581 -1.05931 0
M  V30 9376 H 890.757 4.40512 0.374424 0
M  V30 9377 N 889.816 0.795718 1.36037 0
M  V30 9378 C 891.232 0.478145 1.52269 0
M  V30 9379 C 891.432 -1.0025 1.74792 0
M  V30 9380 O 890.488 -1.78783 1.78305 0
M  V30 9381 C 891.801 1.31406 2.70468 0
M  V30 9382 C 893.349 1.3084 2.84341 0
M  V30 9383 C 893.824 2.12819 4.05551 0
M  V30 9384 N 895.315 2.10298 4.12709 0
M  V30 9385 C 896.05 2.70495 5.05589 0
M  V30 9386 N 895.546 3.39576 6.03871 0
M  V30 9387 N 897.339 2.60195 4.98252 0
M  V30 9388 H 889.49 1.75477 1.19673 0
M  V30 9389 H 891.753 0.74627 0.584624 0
M  V30 9390 H 891.459 2.36435 2.60368 0
M  V30 9391 H 891.333 0.959726 3.64786 0
M  V30 9392 H 893.72 0.266003 2.93899 0
M  V30 9393 H 893.801 1.70254 1.90912 0
M  V30 9394 H 893.445 3.17093 3.96755 0
M  V30 9395 H 893.375 1.70772 4.98141 0
M  V30 9396 H 895.866 1.60026 3.42345 0
M  V30 9397 H 896.179 3.82823 6.71317 0
M  V30 9398 H 894.524 3.43679 6.04077 0
M  V30 9399 H 897.715 2.05823 4.20422 0
M  V30 9400 H 897.888 3.074 5.70447 0
M  V30 9401 N 891.294 -1.47756 0.548274 0
M  V30 9402 C 892.524 -2.06584 0.0254503 0
M  V30 9403 C 892.932 -1.40268 -1.26971 0
M  V30 9404 O 892.275 -0.49019 -1.77039 0
M  V30 9405 C 892.337 -3.58628 -0.250301 0
M  V30 9406 C 892.001 -4.4693 0.954087 0
M  V30 9407 C 892.998 -4.85592 1.85733 0
M  V30 9408 C 890.683 -4.88573 1.16624 0
M  V30 9409 C 892.677 -5.64686 2.95648 0
M  V30 9410 C 890.364 -5.67435 2.2685 0
M  V30 9411 C 891.362 -6.05401 3.16194 0
M  V30 9412 O 891.05 -6.82676 4.24511 0
M  V30 9413 H 890.782 -0.67489 0.0387264 0
M  V30 9414 H 893.336 -1.90876 0.758663 0
M  V30 9415 H 891.566 -3.72516 -1.03771 0
M  V30 9416 H 893.255 -3.9951 -0.717419 0
M  V30 9417 H 894.021 -4.54026 1.70544 0
M  V30 9418 H 889.9 -4.58494 0.480039 0
M  V30 9419 H 893.444 -5.9424 3.65411 0
M  V30 9420 H 889.341 -5.98413 2.42016 0
M  V30 9421 H 890.109 -7.01057 4.22447 0
M  V30 9422 N 892.772 -0.284283 -1.55015 0
M  V30 9423 C 894.02 0.329212 -1.99401 0
M  V30 9424 C 894.341 1.55687 -1.17416 0
M  V30 9425 O 893.611 1.94087 -0.265937 0
M  V30 9426 H 892.191 0.12463 -0.73653 0
M  V30 9427 H 894.853 -0.391743 -1.90922 0
M  V30 9428 H 893.949 0.61278 -3.06025 0
M  V30 9429 N 894.251 1.57596 -0.0117121 0
M  V30 9430 C 895.498 1.91071 0.670667 0
M  V30 9431 C 895.826 0.886457 1.73125 0
M  V30 9432 O 895.081 -0.107135 1.95407 0
M  V30 9433 C 895.38 3.31296 1.34082 0
M  V30 9434 C 895.046 4.49011 0.412305 0
M  V30 9435 C 893.708 4.80945 0.156691 0
M  V30 9436 C 896.06 5.20709 -0.226294 0
M  V30 9437 C 893.388 5.81943 -0.745619 0
M  V30 9438 C 895.74 6.22668 -1.11655 0
M  V30 9439 C 894.404 6.53053 -1.38123 0
M  V30 9440 H 893.674 0.69918 0.245415 0
M  V30 9441 H 896.321 1.91373 -0.0697511 0
M  V30 9442 H 894.626 3.27174 2.15557 0
M  V30 9443 H 896.323 3.54461 1.87506 0
M  V30 9444 H 892.913 4.24067 0.621705 0
M  V30 9445 H 897.097 4.96282 -0.0418456 0
M  V30 9446 H 892.353 6.03839 -0.958566 0
M  V30 9447 H 896.527 6.77351 -1.61767 0
M  V30 9448 H 894.154 7.31132 -2.08208 0
M  V30 9449 N 895.729 -0.261212 1.5542 0
M  V30 9450 C 896.639 -1.34493 1.92221 0
M  V30 9451 C 897.655 -1.53421 0.82086 0
M  V30 9452 O 898.831 -1.6732 1.12099 0
M  V30 9453 C 895.896 -2.68209 2.19692 0
M  V30 9454 C 894.957 -2.57927 3.43179 0
M  V30 9455 C 894.19 -3.85266 3.69331 0
M  V30 9456 O 894.413 -4.86493 2.97793 0
M  V30 9457 O 893.347 -3.8476 4.62865 0
M  V30 9458 H 897.173 -1.06278 2.84497 0
M  V30 9459 H 894.758 -0.460752 1.42118 0
M  V30 9460 H 896.64 -3.47252 2.38734 0
M  V30 9461 H 895.315 -2.96186 1.30597 0
M  V30 9462 H 894.222 -1.77219 3.2946 0
M  V30 9463 H 895.555 -2.34898 4.32532 0
M  V30 9464 N 897.207 -1.48554 -0.526253 0
M  V30 9465 C 898.455 -1.56452 -1.27935 0
M  V30 9466 C 898.776 -0.24184 -1.93495 0
M  V30 9467 O 898.046 0.736917 -1.81511 0
M  V30 9468 H 896.626 -0.576379 -0.47518 0
M  V30 9469 H 899.288 -1.85039 -0.612083 0
M  V30 9470 H 898.384 -2.34751 -2.05666 0
M  V30 9471 N 898.685 0.775411 -1.37205 0
M  V30 9472 C 899.931 1.53611 -1.32407 0
M  V30 9473 C 900.264 1.9398 0.0924103 0
M  V30 9474 O 899.539 1.63791 1.04893 0
M  V30 9475 C 899.822 2.80367 -2.25979 0
M  V30 9476 C 899.675 2.46275 -3.76389 0
M  V30 9477 C 900.994 3.82277 -2.18064 0
M  V30 9478 H 898.113 0.557278 -0.482297 0
M  V30 9479 H 900.755 0.889826 -1.67875 0
M  V30 9480 H 898.905 3.35515 -1.95862 0
M  V30 9481 H 900.577 1.9707 -4.17087 0
M  V30 9482 H 898.82 1.79023 -3.95137 0
M  V30 9483 H 899.491 3.36868 -4.37291 0
M  V30 9484 H 901.967 3.36613 -2.44604 0
M  V30 9485 H 900.843 4.68696 -2.85684 0
M  V30 9486 H 901.104 4.26272 -1.17239 0
M  V30 9487 N 900.163 1.21714 1.00117 0
M  V30 9488 C 901.412 1.03087 1.73367 0
M  V30 9489 C 901.725 -0.435532 1.90689 0
M  V30 9490 O 902.931 -0.741291 2.61184 0
M  V30 9491 C 901.387 1.79593 3.11888 0
M  V30 9492 C 900.995 3.30428 3.02525 0
M  V30 9493 C 902.739 1.69386 3.89241 0
M  V30 9494 C 900.646 3.99408 4.3615 0
M  V30 9495 H 899.576 0.382117 0.650002 0
M  V30 9496 H 902.227 1.45486 1.11831 0
M  V30 9497 H 900.609 1.29988 3.74058 0
M  V30 9498 H 901.783 3.87364 2.49571 0
M  V30 9499 H 900.098 3.4122 2.38659 0
M  V30 9500 H 902.695 2.18251 4.8813 0
M  V30 9501 H 903.038 0.652773 4.1115 0
M  V30 9502 H 903.571 2.16489 3.33733 0
M  V30 9503 H 900.31 5.03735 4.19442 0
M  V30 9504 H 899.83 3.47261 4.8905 0
M  V30 9505 H 901.509 4.04537 5.04934 0
M  V30 9506 N 901.641 -1.19671 1.02551 0
M  V30 9507 C 902.571 -2.25009 0.623965 0
M  V30 9508 C 903.552 -1.66129 -0.36538 0
M  V30 9509 O 904.737 -1.92599 -0.248842 0
M  V30 9510 C 901.867 -3.47287 -0.0294869 0
M  V30 9511 C 900.821 -4.18818 0.881781 0
M  V30 9512 C 900.147 -5.34618 0.0936189 0
M  V30 9513 C 901.447 -4.73986 2.19396 0
M  V30 9514 H 903.141 -2.58851 1.50454 0
M  V30 9515 H 900.687 -1.24425 0.724872 0
M  V30 9516 H 902.64 -4.20168 -0.322016 0
M  V30 9517 H 901.364 -3.12635 -0.944838 0
M  V30 9518 H 900.023 -3.47815 1.15845 0
M  V30 9519 H 899.671 -4.9621 -0.823661 0
M  V30 9520 H 899.371 -5.83409 0.700568 0
M  V30 9521 H 900.895 -6.10297 -0.192249 0
M  V30 9522 H 902.309 -5.38639 1.96319 0
M  V30 9523 H 900.706 -5.3325 2.75254 0
M  V30 9524 H 901.776 -3.92238 2.85092 0
M  V30 9525 N 903.119 -0.802921 -1.35613 0
M  V30 9526 C 904.344 -0.392846 -2.03645 0
M  V30 9527 C 904.769 0.987075 -1.6012 0
M  V30 9528 O 904.127 1.63849 -0.776101 0
M  V30 9529 C 904.175 -0.480208 -3.57388 0
M  V30 9530 O 903.279 0.507751 -4.09262 0
M  V30 9531 H 902.62 -0.16464 -0.643265 0
M  V30 9532 H 905.15 -1.08779 -1.73287 0
M  V30 9533 H 905.16 -0.348683 -4.06507 0
M  V30 9534 H 903.835 -1.48675 -3.88418 0
M  V30 9535 H 902.412 0.336769 -3.71376 0
M  V30 9536 N 904.597 1.47463 -0.556102 0
M  V30 9537 C 905.846 2.01678 -0.029492 0
M  V30 9538 C 906.159 1.436 1.32809 0
M  V30 9539 O 907.365 1.89472 1.94455 0
M  V30 9540 C 905.821 3.599 -0.00223937 0
M  V30 9541 C 905.429 4.26969 -1.35651 0
M  V30 9542 C 907.173 4.2187 0.471822 0
M  V30 9543 C 905.08 5.77194 -1.28843 0
M  V30 9544 H 904.01 0.753965 -0.00725504 0
M  V30 9545 H 906.661 1.69467 -0.703789 0
M  V30 9546 H 905.043 3.89068 0.737682 0
M  V30 9547 H 906.217 4.09444 -2.11406 0
M  V30 9548 H 904.532 3.76983 -1.76842 0
M  V30 9549 H 907.129 5.31955 0.541139 0
M  V30 9550 H 907.472 3.88968 1.48356 0
M  V30 9551 H 908.005 3.97228 -0.213207 0
M  V30 9552 H 904.744 6.14713 -2.27613 0
M  V30 9553 H 904.264 5.9706 -0.572668 0
M  V30 9554 H 905.943 6.3938 -0.990031 0
M  V30 9555 N 906.075 0.2925 1.54862 0
M  V30 9556 C 907.305 -0.321646 2.04081 0
M  V30 9557 C 907.713 -1.48712 1.16967 0
M  V30 9558 O 907.056 -1.82755 0.18609 0
M  V30 9559 C 907.118 -0.848678 3.49339 0
M  V30 9560 C 906.782 0.190416 4.56603 0
M  V30 9561 C 907.779 1.01595 5.09877 0
M  V30 9562 C 905.464 0.329666 5.01217 0
M  V30 9563 C 907.458 1.96676 6.06298 0
M  V30 9564 C 905.145 1.28393 5.9746 0
M  V30 9565 C 906.143 2.10097 6.49883 0
M  V30 9566 O 905.831 3.03907 7.44242 0
M  V30 9567 H 905.563 -0.075098 0.671816 0
M  V30 9568 H 908.117 0.427531 2.00901 0
M  V30 9569 H 906.347 -1.64823 3.49815 0
M  V30 9570 H 908.036 -1.37779 3.81801 0
M  V30 9571 H 908.802 0.919197 4.7621 0
M  V30 9572 H 904.681 -0.296317 4.60047 0
M  V30 9573 H 908.225 2.60488 6.47141 0
M  V30 9574 H 904.122 1.38144 6.30545 0
M  V30 9575 H 904.89 2.98787 7.62016 0
M  V30 9576 N 907.553 -1.57587 0.0200696 0
M  V30 9577 C 908.801 -1.91046 -0.65922 0
M  V30 9578 C 909.122 -0.896197 -1.73186 0
M  V30 9579 O 908.392 0.0635952 -1.95797 0
M  V30 9580 H 906.972 -0.705163 -0.246483 0
M  V30 9581 H 909.634 -1.94789 0.0657368 0
M  V30 9582 H 908.73 -2.91399 -1.11773 0
M  V30 9583 N 909.032 0.252966 -1.55557 0
M  V30 9584 C 909.962 1.31691 -1.9282 0
M  V30 9585 C 910.943 1.50516 -0.7924 0
M  V30 9586 O 912.128 1.63225 -1.05219 0
M  V30 9587 C 909.258 2.67281 -2.21762 0
M  V30 9588 C 908.212 2.6316 -3.37536 0
M  V30 9589 C 907.538 4.02488 -3.52005 0
M  V30 9590 C 908.838 2.20675 -4.73392 0
M  V30 9591 H 910.532 1.00751 -2.81939 0
M  V30 9592 H 908.078 0.483219 -1.3565 0
M  V30 9593 H 910.031 3.41842 -2.46419 0
M  V30 9594 H 908.755 2.99845 -1.29463 0
M  V30 9595 H 907.414 1.91057 -3.12878 0
M  V30 9596 H 907.062 4.32307 -2.57137 0
M  V30 9597 H 906.762 4.00621 -4.29857 0
M  V30 9598 H 908.286 4.78758 -3.78977 0
M  V30 9599 H 909.7 2.84965 -4.97461 0
M  V30 9600 H 908.097 2.29931 -5.54303 0
M  V30 9601 H 909.167 1.15831 -4.70862 0
M  V30 9602 N 910.51 1.48831 0.518367 0
M  V30 9603 C 911.787 1.47933 1.27966 0
M  V30 9604 C 912.167 0.197393 2.10175 0
M  V30 9605 O 911.515 -0.820656 2.13255 0
M  V30 9606 C 911.725 2.74816 2.15121 0
M  V30 9607 C 913.073 3.23613 2.74881 0
M  V30 9608 O 914.097 2.75814 2.254 0
M  V30 9609 O 912.956 4.06818 3.64913 0
M  V30 9610 H 910.05 0.591316 0.578164 0
M  V30 9611 H 912.596 1.61077 0.534065 0
M  V30 9612 H 911.368 3.59621 1.54234 0
M  V30 9613 H 910.991 2.64449 2.96905 0
M  V30 9614 N 911.988 -0.768124 1.37614 0
M  V30 9615 C 913.404 -1.06919 1.18493 0
M  V30 9616 C 913.604 -2.01486 0.0235753 0
M  V30 9617 O 912.66 -2.4438 -0.635209 0
M  V30 9618 C 913.973 -1.66321 2.50515 0
M  V30 9619 C 915.521 -1.78562 2.57069 0
M  V30 9620 C 915.996 -2.41377 3.89231 0
M  V30 9621 N 917.487 -2.48824 3.90693 0
M  V30 9622 C 918.222 -2.98288 4.89706 0
M  V30 9623 N 917.718 -3.47897 5.99115 0
M  V30 9624 N 919.511 -2.97196 4.77107 0
M  V30 9625 H 911.662 -0.140286 2.11936 0
M  V30 9626 H 913.925 -0.124863 0.939741 0
M  V30 9627 H 913.631 -1.04303 3.35878 0
M  V30 9628 H 913.505 -2.65571 2.67866 0
M  V30 9629 H 915.892 -2.39712 1.72111 0
M  V30 9630 H 915.973 -0.780574 2.43599 0
M  V30 9631 H 915.617 -1.80866 4.74605 0
M  V30 9632 H 915.547 -3.42495 4.00006 0
M  V30 9633 H 918.038 -2.1372 3.1166 0
M  V30 9634 H 918.351 -3.84053 6.70614 0
M  V30 9635 H 916.696 -3.45993 6.02755 0
M  V30 9636 H 919.887 -2.57741 3.90752 0
M  V30 9637 H 920.06 -3.35434 5.54426 0
M  V30 9638 N 913.466 -1.22244 -0.994698 0
M  V30 9639 C 914.376 -1.00722 -2.11878 0
M  V30 9640 C 915.392 0.043919 -1.73945 0
M  V30 9641 O 916.568 -0.148411 -2.00852 0
M  V30 9642 C 913.633 -0.585723 -3.41717 0
M  V30 9643 C 912.694 -1.71027 -3.93762 0
M  V30 9644 C 911.927 -1.30879 -5.17403 0
M  V30 9645 O 912.15 -0.18681 -5.70094 0
M  V30 9646 O 911.084 -2.1246 -5.63156 0
M  V30 9647 H 914.91 -1.94894 -2.32916 0
M  V30 9648 H 912.495 -1.00822 -1.10251 0
M  V30 9649 H 914.377 -0.360935 -4.19851 0
M  V30 9650 H 913.052 0.327166 -3.22042 0
M  V30 9651 H 911.959 -1.98956 -3.16808 0
M  V30 9652 H 913.292 -2.60096 -4.17865 0
M  V30 9653 N 914.944 1.19125 -1.03184 0
M  V30 9654 C 916.221 1.84674 -0.644574 0
M  V30 9655 C 916.601 1.92042 0.876534 0
M  V30 9656 O 915.949 1.43965 1.77444 0
M  V30 9657 C 916.159 3.23477 -1.3101 0
M  V30 9658 C 917.507 3.99608 -1.43524 0
M  V30 9659 O 918.531 3.32886 -1.2675 0
M  V30 9660 O 917.39 5.19132 -1.70776 0
M  V30 9661 H 914.484 0.795968 -0.22442 0
M  V30 9662 H 917.03 1.2659 -1.13018 0
M  V30 9663 H 915.802 3.12967 -2.34878 0
M  V30 9664 H 915.425 3.89209 -0.812547 0
M  V30 9665 N 916.422 0.810101 1.35185 0
M  V30 9666 C 917.352 0.237453 2.32289 0
M  V30 9667 C 918.333 -0.639032 1.5764 0
M  V30 9668 O 919.518 -0.568575 1.8569 0
M  V30 9669 C 916.648 -0.611964 3.41866 0
M  V30 9670 C 915.602 0.166318 4.27677 0
M  V30 9671 C 914.928 -0.805024 5.28605 0
M  V30 9672 C 916.228 1.36729 5.04086 0
M  V30 9673 H 917.922 1.04874 2.80432 0
M  V30 9674 H 915.468 0.505751 1.34826 0
M  V30 9675 H 917.421 -1.02267 4.08802 0
M  V30 9676 H 916.145 -1.45617 2.92341 0
M  V30 9677 H 914.804 0.558238 3.62325 0
M  V30 9678 H 914.452 -1.64483 4.75347 0
M  V30 9679 H 914.152 -0.288577 5.86891 0
M  V30 9680 H 915.676 -1.21386 5.98413 0
M  V30 9681 H 917.09 1.03128 5.63948 0
M  V30 9682 H 915.487 1.81848 5.71884 0
M  V30 9683 H 916.557 2.15214 4.34524 0
M  V30 9684 N 917.9 -1.47166 0.563914 0
M  V30 9685 C 918.85 -2.27116 -0.20055 0
M  V30 9686 C 919.834 -1.34756 -0.879177 0
M  V30 9687 O 921.026 -1.59064 -0.776377 0
M  V30 9688 C 918.155 -3.20676 -1.22565 0
M  V30 9689 C 917.241 -4.20517 -0.550092 0
M  V30 9690 N 917.632 -5.04343 0.383662 0
M  V30 9691 C 915.93 -4.38708 -0.803186 0
M  V30 9692 C 916.631 -5.76491 0.776718 0
M  V30 9693 N 915.607 -5.43444 0.130047 0
M  V30 9694 H 919.409 -2.89312 0.517275 0
M  V30 9695 H 916.923 -1.57787 0.384334 0
M  V30 9696 H 918.92 -3.76643 -1.78733 0
M  V30 9697 H 917.58 -2.60038 -1.94449 0
M  V30 9698 H 918.591 -5.1232 0.758192 0
M  V30 9699 H 915.268 -3.89235 -1.51003 0
M  V30 9700 H 916.658 -6.5391 1.54437 0
M  V30 9701 N 919.378 -0.300708 -1.54705 0
M  V30 9702 C 920.618 0.30953 -2.02043 0
M  V30 9703 C 920.982 1.51114 -1.18442 0
M  V30 9704 O 922.183 2.19273 -1.55477 0
M  V30 9705 C 920.454 0.657489 -3.513 0
M  V30 9706 S 922.013 1.25063 -4.206 0
M  V30 9707 H 918.831 0.0950019 -0.704624 0
M  V30 9708 H 921.433 -0.428512 -1.90746 0
M  V30 9709 H 920.137 -0.225532 -4.0978 0
M  V30 9710 H 919.668 1.42633 -3.66633 0
M  V30 9711 H 921.683 2.53844 -4.26354 0
M  V30 9712 N 920.856 1.57574 -0.0284266 0
M  V30 9713 C 922.133 1.83064 0.688979 0
M  V30 9714 C 922.513 0.91219 1.90374 0
M  V30 9715 O 921.861 -0.0323672 2.28477 0
M  V30 9716 C 922.071 3.32262 1.06785 0
M  V30 9717 C 923.419 3.98717 1.45978 0
M  V30 9718 O 924.443 3.36753 1.16085 0
M  V30 9719 O 923.302 5.07927 2.01673 0
M  V30 9720 H 920.396 0.7548 0.337944 0
M  V30 9721 H 922.942 1.69607 -0.0560555 0
M  V30 9722 H 921.714 3.90772 0.203235 0
M  V30 9723 H 921.337 3.50823 1.87107 0
M  V30 9724 N 922.334 -0.244713 1.55689 0
M  V30 9725 C 923.583 -0.970373 1.76824 0
M  V30 9726 C 923.896 -1.86402 0.592764 0
M  V30 9727 O 925.102 -2.62659 0.687186 0
M  V30 9728 C 923.558 -1.77547 3.13058 0
M  V30 9729 C 923.166 -0.929104 4.3826 0
M  V30 9730 C 924.91 -2.49373 3.43531 0
M  V30 9731 C 922.817 -1.73021 5.65524 0
M  V30 9732 H 921.747 -0.366048 0.659185 0
M  V30 9733 H 924.398 -0.224964 1.82116 0
M  V30 9734 H 922.78 -2.56291 3.01879 0
M  V30 9735 H 923.954 -0.183836 4.60433 0
M  V30 9736 H 922.269 -0.324071 4.15137 0
M  V30 9737 H 924.866 -3.09767 4.35831 0
M  V30 9738 H 925.209 -3.21099 2.64955 0
M  V30 9739 H 925.742 -1.77637 3.55935 0
M  V30 9740 H 922.481 -1.05666 6.46927 0
M  V30 9741 H 922.001 -2.45071 5.47449 0
M  V30 9742 H 923.68 -2.2968 6.0486 0
M  V30 9743 N 923.813 -1.49104 -0.510467 0
M  V30 9744 C 925.09 -1.48609 -1.27179 0
M  V30 9745 C 925.47 -0.208537 -2.10067 0
M  V30 9746 O 924.818 0.809335 -2.13687 0
M  V30 9747 C 925.028 -2.75953 -2.1366 0
M  V30 9748 C 926.376 -3.25067 -2.73161 0
M  V30 9749 O 927.4 -2.77005 -2.23934 0
M  V30 9750 O 926.259 -4.08747 -3.62751 0
M  V30 9751 H 923.353 -0.594374 -0.57502 0
M  V30 9752 H 925.899 -1.61358 -0.525515 0
M  V30 9753 H 924.671 -3.60434 -1.52325 0
M  V30 9754 H 924.294 -2.66019 -2.95499 0
M  V30 9755 N 925.291 0.760815 -1.38019 0
M  V30 9756 C 926.201 1.90526 -1.36884 0
M  V30 9757 C 927.217 1.71941 -0.266908 0
M  V30 9758 O 928.393 1.94988 -0.50413 0
M  V30 9759 C 925.458 3.25799 -1.18558 0
M  V30 9760 C 924.519 3.56961 -2.3849 0
M  V30 9761 C 923.752 4.8578 -2.21029 0
M  V30 9762 O 923.975 5.57629 -1.20023 0
M  V30 9763 O 922.909 5.16254 -3.0946 0
M  V30 9764 H 926.735 1.94437 -2.33298 0
M  V30 9765 H 924.32 0.905091 -1.18863 0
M  V30 9766 H 926.202 4.0669 -1.1037 0
M  V30 9767 H 924.877 3.22716 -0.252241 0
M  V30 9768 H 923.784 2.7626 -2.52252 0
M  V30 9769 H 925.117 3.64798 -3.30429 0
M  V30 9770 N 926.769 1.22769 0.988202 0
M  V30 9771 C 927.997 1.08155 1.76381 0
M  V30 9772 C 928.412 -0.367573 1.85187 0
M  V30 9773 O 927.769 -1.25455 1.32541 0
M  V30 9774 C 927.82 1.69193 3.19462 0
M  V30 9775 O 927.541 3.08437 3.11125 0
M  V30 9776 C 929.042 1.59915 4.13451 0
M  V30 9777 H 926.262 0.378908 0.553778 0
M  V30 9778 H 928.806 1.6246 1.24206 0
M  V30 9779 H 926.961 1.18939 3.6869 0
M  V30 9780 H 927.375 3.37916 4.0114 0
M  V30 9781 H 928.849 2.07339 5.1158 0
M  V30 9782 H 929.326 0.556546 4.3566 0
M  V30 9783 H 929.932 2.09497 3.70123 0
M  V30 9784 N 928.247 -1.18576 1.03814 0
M  V30 9785 C 929.487 -1.90187 0.748882 0
M  V30 9786 C 929.851 -1.78383 -0.710177 0
M  V30 9787 O 931.052 -2.44678 -1.11293 0
M  V30 9788 C 929.323 -3.36688 1.19901 0
M  V30 9789 S 930.882 -4.26419 1.03501 0
M  V30 9790 H 927.7 -0.656765 0.272362 0
M  V30 9791 H 930.302 -1.43296 1.32991 0
M  V30 9792 H 929.006 -3.42808 2.25635 0
M  V30 9793 H 928.537 -3.88616 0.611669 0
M  V30 9794 H 930.552 -4.96176 -0.0490431 0
M  V30 9795 N 929.725 -0.817259 -1.34754 0
M  V30 9796 C 930.675 -0.207585 -2.27053 0
M  V30 9797 C 931.659 0.624836 -1.48272 0
M  V30 9798 O 932.851 0.480344 -1.70358 0
M  V30 9799 C 929.98 0.634281 -3.3739 0
M  V30 9800 C 929.066 -0.208456 -4.23587 0
M  V30 9801 N 929.457 -1.2767 -4.89422 0
M  V30 9802 C 927.755 0.00815096 -4.45999 0
M  V30 9803 C 928.456 -1.79209 -5.53407 0
M  V30 9804 N 927.432 -1.09686 -5.32419 0
M  V30 9805 H 931.234 -1.0248 -2.75454 0
M  V30 9806 H 928.748 -0.659492 -1.48406 0
M  V30 9807 H 930.745 1.08718 -4.02475 0
M  V30 9808 H 929.405 1.44972 -2.90539 0
M  V30 9809 H 930.416 -1.65945 -4.90594 0
M  V30 9810 H 927.093 0.791879 -4.09921 0
M  V30 9811 H 928.483 -2.68548 -6.15899 0
M  V30 9812 N 931.203 1.46865 -0.571711 0
M  V30 9813 C 932.45 2.0243 -0.0531071 0
M  V30 9814 C 932.778 1.44446 1.30252 0
M  V30 9815 O 932.033 0.595182 1.8643 0
M  V30 9816 C 932.332 3.57323 0.0742311 0
M  V30 9817 C 931.998 4.34295 -1.21237 0
M  V30 9818 C 930.66 4.55044 -1.56489 0
M  V30 9819 C 933.012 4.78577 -2.0643 0
M  V30 9820 C 930.34 5.17325 -2.76752 0
M  V30 9821 C 932.692 5.42186 -3.25909 0
M  V30 9822 C 931.356 5.61165 -3.61456 0
M  V30 9823 H 930.626 0.740745 -0.0194333 0
M  V30 9824 H 933.273 1.76366 -0.74614 0
M  V30 9825 H 931.578 3.82461 0.850325 0
M  V30 9826 H 933.275 3.97982 0.491077 0
M  V30 9827 H 929.865 4.18435 -0.927922 0
M  V30 9828 H 934.049 4.62313 -1.80501 0
M  V30 9829 H 929.305 5.30211 -3.04444 0
M  V30 9830 H 933.479 5.75459 -3.92198 0
M  V30 9831 H 931.106 6.09195 -4.54737 0
M  V30 9832 N 932.681 0.308908 1.54543 0
M  V30 9833 C 933.613 -0.597453 2.21276 0
M  V30 9834 C 934.626 -1.09137 1.20801 0
M  V30 9835 O 935.815 -1.00747 1.47351 0
M  V30 9836 C 932.915 -1.83085 2.85189 0
M  V30 9837 C 932.088 -1.4781 4.11669 0
M  V30 9838 C 931.147 -2.56748 4.59311 0
M  V30 9839 O 930.173 -2.21507 5.24331 0
M  V30 9840 N 931.375 -3.87427 4.32297 0
M  V30 9841 H 934.14 -0.0261183 2.99689 0
M  V30 9842 H 931.701 0.131456 1.61365 0
M  V30 9843 H 933.693 -2.55326 3.13992 0
M  V30 9844 H 932.263 -2.31039 2.1057 0
M  V30 9845 H 931.483 -0.587974 3.8979 0
M  V30 9846 H 932.771 -1.2179 4.94009 0
M  V30 9847 H 932.169 -4.18863 3.80224 0
M  V30 9848 H 930.726 -4.55942 4.6579 0
M  V30 9849 N 934.159 -1.57557 0.0367827 0
M  V30 9850 C 935.106 -2.10679 -0.942499 0
M  V30 9851 C 936.076 -1.01068 -1.31812 0
M  V30 9852 O 937.261 -1.28533 -1.41011 0
M  V30 9853 C 934.401 -2.64467 -2.21701 0
M  V30 9854 C 933.514 -3.88114 -1.89715 0
M  V30 9855 C 932.649 -4.30268 -3.11518 0
M  V30 9856 C 931.688 -5.46652 -2.75387 0
M  V30 9857 N 930.825 -5.83927 -3.89838 0
M  V30 9858 H 935.665 -2.94066 -0.482588 0
M  V30 9859 H 933.202 -1.45344 -0.226597 0
M  V30 9860 H 935.16 -2.93745 -2.96259 0
M  V30 9861 H 933.79 -1.83898 -2.65295 0
M  V30 9862 H 932.842 -3.65516 -1.05366 0
M  V30 9863 H 934.154 -4.72743 -1.5911 0
M  V30 9864 H 933.308 -4.61023 -3.94389 0
M  V30 9865 H 932.047 -3.44421 -3.4529 0
M  V30 9866 H 931.052 -5.15583 -1.90929 0
M  V30 9867 H 932.277 -6.34204 -2.42822 0
M  V30 9868 H 930.223 -5.01035 -4.23438 0
M  V30 9869 H 930.14 -6.63214 -3.62883 0
M  V30 9870 H 931.408 -6.19291 -4.73391 0
M  V30 9871 N 935.637 0.236453 -1.55816 0
M  V30 9872 C 936.862 0.98449 -1.82545 0
M  V30 9873 C 937.287 1.77755 -0.615206 0
M  V30 9874 O 936.645 1.75982 0.435895 0
M  V30 9875 C 936.693 1.88973 -3.07118 0
M  V30 9876 O 935.797 2.98298 -2.84766 0
M  V30 9877 H 935.138 0.279577 -0.602273 0
M  V30 9878 H 937.668 0.254277 -2.03014 0
M  V30 9879 H 937.678 2.3024 -3.36829 0
M  V30 9880 H 936.353 1.30671 -3.94839 0
M  V30 9881 H 934.93 2.61085 -2.6625 0
M  V30 9882 N 937.115 1.49373 0.502552 0
M  V30 9883 C 938.025 1.68659 1.63068 0
M  V30 9884 C 939.041 0.569182 1.64427 0
M  V30 9885 O 940.217 0.843695 1.82876 0
M  V30 9886 C 937.282 1.74745 2.99441 0
M  V30 9887 C 936.343 2.98311 3.08721 0
M  V30 9888 C 935.576 3.04097 4.38589 0
M  V30 9889 O 935.799 2.17519 5.27297 0
M  V30 9890 O 934.733 3.96544 4.52809 0
M  V30 9891 H 938.559 2.64226 1.49727 0
M  V30 9892 H 936.144 1.33096 0.67867 0
M  V30 9893 H 938.026 1.8111 3.80496 0
M  V30 9894 H 936.701 0.823565 3.13048 0
M  V30 9895 H 935.608 2.97465 2.2686 0
M  V30 9896 H 936.941 3.90174 3.00041 0
M  V30 9897 N 938.594 -0.753485 1.38421 0
M  V30 9898 C 939.557 -1.84888 1.35459 0
M  V30 9899 C 940.557 -1.58764 0.255083 0
M  V30 9900 O 941.747 -1.66507 0.511978 0
M  V30 9901 C 938.879 -3.22361 1.10888 0
M  V30 9902 H 940.072 -1.88922 2.32913 0
M  V30 9903 H 937.625 -0.955199 1.23716 0
M  V30 9904 H 938.36 -3.23996 0.1404 0
M  V30 9905 H 938.145 -3.42717 1.90492 0
M  V30 9906 H 939.635 -4.02437 1.1151 0
M  V30 9907 N 940.072 -1.23292 -0.981677 0
M  V30 9908 C 941.321 -1.05832 -1.71705 0
M  V30 9909 C 941.634 0.40514 -1.91358 0
M  V30 9910 O 942.84 0.699645 -2.6233 0
M  V30 9911 C 941.296 -1.84532 -3.08992 0
M  V30 9912 C 940.904 -3.35199 -2.9723 0
M  V30 9913 C 942.648 -1.75557 -3.86497 0
M  V30 9914 C 940.555 -4.06296 -4.29741 0
M  V30 9915 H 939.485 -0.39241 -0.64384 0
M  V30 9916 H 942.136 -1.47247 -1.09502 0
M  V30 9917 H 940.518 -1.35923 -3.71942 0
M  V30 9918 H 941.692 -3.91286 -2.43377 0
M  V30 9919 H 940.007 -3.44973 -2.332 0
M  V30 9920 H 942.604 -2.25989 -4.84596 0
M  V30 9921 H 942.947 -0.718101 -4.1006 0
M  V30 9922 H 943.48 -2.21771 -3.30246 0
M  V30 9923 H 940.219 -5.10344 -4.11375 0
M  V30 9924 H 939.739 -3.54997 -4.83464 0
M  V30 9925 H 941.418 -4.12519 -4.98434 0
M  V30 9926 N 941.55 1.18024 -1.04442 0
M  V30 9927 C 942.48 2.23988 -0.659683 0
M  V30 9928 C 943.461 1.6669 0.338904 0
M  V30 9929 O 944.646 1.92971 0.21817 0
M  V30 9930 C 941.776 3.4729 -0.0257672 0
M  V30 9931 C 940.73 4.17362 -0.948299 0
M  V30 9932 C 940.056 5.34401 -0.17866 0
M  V30 9933 C 941.356 4.70435 -2.26909 0
M  V30 9934 H 943.05 2.56425 -1.54553 0
M  V30 9935 H 940.596 1.23256 -0.744575 0
M  V30 9936 H 942.549 4.20627 0.255131 0
M  V30 9937 H 941.273 3.14098 0.894981 0
M  V30 9938 H 939.932 3.45928 -1.21364 0
M  V30 9939 H 939.58 4.97458 0.744614 0
M  V30 9940 H 939.28 5.8222 -0.793294 0
M  V30 9941 H 940.804 6.10526 0.0951315 0
M  V30 9942 H 942.218 5.35447 -2.04864 0
M  V30 9943 H 940.615 5.28803 -2.83703 0
M  V30 9944 H 941.685 3.87653 -2.91296 0
M  V30 9945 N 943.028 0.824394 1.34319 0
M  V30 9946 C 944.444 0.510336 1.51221 0
M  V30 9947 C 944.644 -0.965201 1.76879 0
M  V30 9948 O 943.7 -1.74961 1.82057 0
M  V30 9949 C 945.013 1.37114 2.6762 0
M  V30 9950 C 946.561 1.36842 2.81502 0
M  V30 9951 C 947.036 2.21374 4.00946 0
M  V30 9952 N 948.527 2.19005 4.08156 0
M  V30 9953 C 949.262 2.81159 4.99737 0
M  V30 9954 N 948.758 3.52309 5.96532 0
M  V30 9955 N 950.551 2.70706 4.9262 0
M  V30 9956 H 942.702 1.77976 1.15924 0
M  V30 9957 H 944.965 0.758503 0.568663 0
M  V30 9958 H 944.671 2.41905 2.55294 0
M  V30 9959 H 944.545 1.03689 3.62669 0
M  V30 9960 H 946.932 0.328284 2.93268 0
M  V30 9961 H 947.013 1.74265 1.87257 0
M  V30 9962 H 946.657 3.25437 3.8994 0
M  V30 9963 H 946.587 1.813 4.94407 0
M  V30 9964 H 949.078 1.67252 3.38874 0
M  V30 9965 H 949.391 3.96977 6.63045 0
M  V30 9966 H 947.736 3.56415 5.96652 0
M  V30 9967 H 950.927 2.14694 4.15962 0
M  V30 9968 H 951.1 3.19431 5.63798 0
M  V30 9969 N 944.506 -1.46559 0.579492 0
M  V30 9970 C 945.416 -2.34066 -0.15816 0
M  V30 9971 C 946.432 -1.49556 -0.88932 0
M  V30 9972 O 947.608 -1.82434 -0.853226 0
M  V30 9973 C 944.673 -3.26683 -1.161 0
M  V30 9974 C 943.734 -4.27092 -0.434855 0
M  V30 9975 C 942.967 -5.15283 -1.38992 0
M  V30 9976 O 943.19 -5.06345 -2.62623 0
M  V30 9977 O 942.124 -5.95099 -0.902253 0
M  V30 9978 H 945.95 -2.98488 0.560234 0
M  V30 9979 H 943.535 -1.45482 0.339918 0
M  V30 9980 H 945.417 -3.8383 -1.73932 0
M  V30 9981 H 944.092 -2.64862 -1.86091 0
M  V30 9982 H 942.999 -3.73641 0.185224 0
M  V30 9983 H 944.332 -4.9169 0.224031 0
M  V30 9984 N 945.984 -0.3171 -1.54377 0
M  V30 9985 C 946.914 0.544623 -2.2706 0
M  V30 9986 C 947.895 1.12469 -1.27611 0
M  V30 9987 O 949.08 1.15103 -1.56413 0
M  V30 9988 C 946.21 1.70879 -3.02353 0
M  V30 9989 C 945.164 1.25833 -4.09084 0
M  V30 9990 C 944.49 2.50894 -4.72182 0
M  V30 9991 C 945.79 0.377876 -5.20931 0
M  V30 9992 H 947.484 -0.0616372 -2.99337 0
M  V30 9993 H 945.03 -0.0310848 -1.43966 0
M  V30 9994 H 946.983 2.31787 -3.51927 0
M  V30 9995 H 945.707 2.34155 -2.27682 0
M  V30 9996 H 944.366 0.672228 -3.60384 0
M  V30 9997 H 944.014 3.12518 -3.94134 0
M  V30 9998 H 943.714 2.21447 -5.44275 0
M  V30 9999 H 945.238 3.12575 -5.24528 0
M  V30 10000 H 946.652 0.893056 -5.66302 0
M  V30 10001 H 945.049 0.176474 -5.9984 0
M  V30 10002 H 946.119 -0.592943 -4.81261 0
M  V30 10003 N 947.462 1.57535 -0.0451378 0
M  V30 10004 C 948.739 1.83785 0.669523 0
M  V30 10005 C 949.119 0.932331 1.89396 0
M  V30 10006 O 948.467 -0.00813229 2.28499 0
M  V30 10007 C 948.677 3.33376 1.03255 0
M  V30 10008 C 950.025 4.00243 1.41741 0
M  V30 10009 O 951.049 3.37965 1.12507 0
M  V30 10010 O 949.908 5.10038 1.96275 0
M  V30 10011 H 947.002 0.758342 0.329919 0
M  V30 10012 H 949.548 1.69538 -0.0740415 0
M  V30 10013 H 948.32 3.90965 0.161777 0
M  V30 10014 H 947.943 3.52787 1.83376 0
M  V30 10015 N 948.94 -0.228186 1.55939 0
M  V30 10016 C 950.186 -0.954964 1.78909 0
M  V30 10017 C 950.519 -1.8425 0.613648 0
M  V30 10018 O 949.794 -1.90604 -0.38737 0
M  V30 10019 C 950.077 -1.79957 3.1191 0
M  V30 10020 C 949.93 -0.938968 4.3989 0
M  V30 10021 C 951.249 -2.77859 3.41295 0
M  V30 10022 H 948.368 -0.345745 0.650868 0
M  V30 10023 H 951.01 -0.224244 1.88672 0
M  V30 10024 H 949.16 -2.42256 3.03717 0
M  V30 10025 H 950.832 -0.333225 4.60095 0
M  V30 10026 H 949.075 -0.244096 4.33113 0
M  V30 10027 H 949.746 -1.56416 5.29375 0
M  V30 10028 H 952.222 -2.25695 3.49572 0
M  V30 10029 H 951.098 -3.34062 4.35538 0
M  V30 10030 H 951.359 -3.55266 2.63132 0
M  V30 10031 N 950.418 -1.49637 -0.494624 0
M  V30 10032 C 951.328 -1.69522 -1.62172 0
M  V30 10033 C 952.344 -0.577894 -1.64123 0
M  V30 10034 O 953.52 -0.853382 -1.82426 0
M  V30 10035 C 950.585 -1.7633 -2.9851 0
M  V30 10036 C 949.646 -2.99944 -3.07135 0
M  V30 10037 C 948.879 -3.06419 -4.36971 0
M  V30 10038 O 949.102 -2.20312 -5.26136 0
M  V30 10039 O 948.036 -3.9894 -4.507 0
M  V30 10040 H 951.862 -2.65017 -1.48324 0
M  V30 10041 H 949.447 -1.33454 -0.671603 0
M  V30 10042 H 951.329 -1.83125 -3.7953 0
M  V30 10043 H 950.004 -0.840155 -3.12607 0
M  V30 10044 H 948.911 -2.98664 -2.2528 0
M  V30 10045 H 950.244 -3.9176 -2.97968 0
M  V30 10046 N 951.896 0.746133 -1.38819 0
M  V30 10047 C 952.844 1.88137 -1.36774 0
M  V30 10048 C 953.838 1.67508 -0.252495 0
M  V30 10049 O 955.044 1.74985 -0.421935 0
M  V30 10050 H 951.419 0.619116 -0.426849 0
M  V30 10051 H 953.39 1.86978 -2.32555 0
M  V30 10052 C 952.139 3.25703 -1.21708 0
M  V30 10053 H 951.462 3.42168 -2.06788 0
M  V30 10054 H 952.902 4.05361 -1.24332 0
M  V30 10055 C 951.361 3.36816 0.0754257 0
M  V30 10056 O 951.891 3.87742 1.04972 0
M  V30 10057 N 950.097 2.90287 0.134761 0
M  V30 10058 H 949.644 2.49034 -0.658779 0
M  V30 10059 H 949.602 2.98103 0.999109 0
M  V30 10060 N 953.375 1.23811 0.975125 0
M  V30 10061 C 954.338 1.02505 2.05001 0
M  V30 10062 C 955.338 -0.0150084 1.60793 0
M  V30 10063 O 956.528 0.225246 1.72738 0
M  V30 10064 C 953.66 0.552087 3.364 0
M  V30 10065 H 954.853 1.979 2.25335 0
M  V30 10066 H 952.406 1.05929 1.1493 0
M  V30 10067 H 953.141 -0.405394 3.21756 0
M  V30 10068 H 952.926 1.30267 3.69828 0
M  V30 10069 H 954.416 0.423828 4.15444 0
M  V30 10070 N 954.853 -1.17469 1.05066 0
M  V30 10071 C 955.8 -2.21443 0.650512 0
M  V30 10072 C 956.77 -1.62441 -0.346702 0
M  V30 10073 O 957.955 -1.89305 -0.238404 0
M  V30 10074 C 955.095 -3.45087 0.0301014 0
M  V30 10075 C 954.208 -4.18385 1.07599 0
M  V30 10076 C 953.343 -5.29513 0.423038 0
M  V30 10077 C 952.382 -5.94596 1.45333 0
M  V30 10078 N 951.519 -6.97241 0.824623 0
M  V30 10079 H 956.359 -2.55025 1.54163 0
M  V30 10080 H 953.896 -1.25274 0.771032 0
M  V30 10081 H 955.854 -4.15754 -0.347032 0
M  V30 10082 H 954.484 -3.12093 -0.824481 0
M  V30 10083 H 953.536 -3.46446 1.57097 0
M  V30 10084 H 954.848 -4.62899 1.85813 0
M  V30 10085 H 954.002 -6.067 -0.00774975 0
M  V30 10086 H 952.741 -4.86129 -0.391092 0
M  V30 10087 H 951.746 -5.16142 1.89415 0
M  V30 10088 H 952.971 -6.40061 2.26934 0
M  V30 10089 H 950.917 -6.55993 0.0309804 0
M  V30 10090 H 950.834 -7.40059 1.54432 0
M  V30 10091 H 952.102 -7.78375 0.418567 0
M  V30 10092 N 956.331 -0.831506 -1.3388 0
M  V30 10093 C 957.261 -0.274378 -2.31882 0
M  V30 10094 C 958.242 0.613872 -1.58637 0
M  V30 10095 O 959.427 0.538961 -1.86571 0
M  V30 10096 C 956.557 0.557498 -3.42796 0
M  V30 10097 C 955.511 -0.234337 -4.27358 0
M  V30 10098 C 954.837 0.720825 -5.29819 0
M  V30 10099 C 956.137 -1.44732 -5.01847 0
M  V30 10100 H 957.831 -1.09322 -2.78728 0
M  V30 10101 H 955.377 -0.527136 -1.34005 0
M  V30 10102 H 957.33 0.957501 -4.10378 0
M  V30 10103 H 956.054 1.40947 -2.94621 0
M  V30 10104 H 954.713 -0.61581 -3.61391 0
M  V30 10105 H 954.361 1.569 -4.77903 0
M  V30 10106 H 954.061 0.195171 -5.87276 0
M  V30 10107 H 955.585 1.1185 -6.00268 0
M  V30 10108 H 956.999 -1.12087 -5.62236 0
M  V30 10109 H 955.396 -1.90923 -5.68919 0
M  V30 10110 H 956.466 -2.22099 -4.31045 0
M  V30 10111 N 957.809 1.4625 -0.587256 0
M  V30 10112 C 959.039 2.06444 -0.0802135 0
M  V30 10113 C 959.447 1.43585 1.23207 0
M  V30 10114 O 958.79 0.536956 1.75677 0
M  V30 10115 C 958.852 3.59165 0.155129 0
M  V30 10116 C 958.516 4.44243 -1.07225 0
M  V30 10117 C 959.513 4.80497 -1.98542 0
M  V30 10118 C 957.198 4.8531 -1.29537 0
M  V30 10119 C 959.192 5.56649 -3.10516 0
M  V30 10120 C 956.879 5.61221 -2.41815 0
M  V30 10121 C 957.877 5.96805 -3.32134 0
M  V30 10122 O 957.565 6.71181 -4.42461 0
M  V30 10123 H 957.297 0.673626 -0.0566063 0
M  V30 10124 H 959.851 1.88797 -0.809004 0
M  V30 10125 H 958.081 3.75137 0.938583 0
M  V30 10126 H 959.77 4.01271 0.611243 0
M  V30 10127 H 960.536 4.49345 -1.82522 0
M  V30 10128 H 956.415 4.5706 -0.601431 0
M  V30 10129 H 959.959 5.84343 -3.81037 0
M  V30 10130 H 955.856 5.91786 -2.57797 0
M  V30 10131 H 956.624 6.8961 -4.40886 0
M  V30 10132 N 959.287 0.325282 1.54207 0
M  V30 10133 C 960.217 -0.532574 2.27345 0
M  V30 10134 C 961.198 -1.11791 1.28206 0
M  V30 10135 O 962.383 -1.14272 1.57021 0
M  V30 10136 C 959.513 -1.69274 3.03255 0
M  V30 10137 C 958.467 -1.23662 4.09746 0
M  V30 10138 C 957.793 -2.48386 4.73506 0
M  V30 10139 C 959.093 -0.350244 5.21124 0
M  V30 10140 H 960.787 0.0775108 2.993 0
M  V30 10141 H 958.333 0.0387193 1.43948 0
M  V30 10142 H 960.286 -2.29917 3.53152 0
M  V30 10143 H 959.01 -2.32944 2.28921 0
M  V30 10144 H 957.669 -0.653106 3.60735 0
M  V30 10145 H 957.317 -3.10424 3.95786 0
M  V30 10146 H 957.017 -2.18558 5.45441 0
M  V30 10147 H 958.541 -3.09789 5.26178 0
M  V30 10148 H 959.955 -0.863011 5.66767 0
M  V30 10149 H 958.352 -0.14466 5.99926 0
M  V30 10150 H 959.422 0.618457 4.8094 0
M  V30 10151 N 960.765 -1.57509 0.0534917 0
M  V30 10152 C 962.042 -1.84137 -0.659767 0
M  V30 10153 C 962.422 -0.942362 -1.88899 0
M  V30 10154 O 961.77 -0.00398566 -2.285 0
M  V30 10155 C 961.98 -3.33919 -1.01486 0
M  V30 10156 C 963.328 -4.00989 -1.39616 0
M  V30 10157 O 964.352 -3.38557 -1.10713 0
M  V30 10158 O 963.211 -5.11071 -1.93567 0
M  V30 10159 H 960.305 -0.760081 -0.325893 0
M  V30 10160 H 962.851 -1.69497 0.0830315 0
M  V30 10161 H 961.623 -3.91046 -0.141041 0
M  V30 10162 H 961.246 -3.53755 -1.81503 0
M  V30 10163 N 962.243 0.219913 -1.56058 0
M  V30 10164 C 963.49 0.944064 -1.79147 0
M  V30 10165 C 963.818 1.84268 -0.622531 0
M  V30 10166 O 963.073 1.91713 0.393013 0
M  V30 10167 C 963.372 1.81293 -3.08006 0
M  V30 10168 C 963.038 1.0674 -4.38084 0
M  V30 10169 C 961.7 0.86147 -4.73426 0
M  V30 10170 C 964.052 0.541049 -5.18384 0
M  V30 10171 C 961.38 0.117307 -5.86583 0
M  V30 10172 C 963.732 -0.189779 -6.32315 0
M  V30 10173 C 962.396 -0.406951 -6.66258 0
M  V30 10174 H 961.666 0.345458 -0.655546 0
M  V30 10175 H 964.313 0.212121 -1.90322 0
M  V30 10176 H 962.618 2.61278 -2.9196 0
M  V30 10177 H 964.315 2.3754 -3.23072 0
M  V30 10178 H 960.905 1.23789 -4.10334 0
M  V30 10179 H 965.089 0.687617 -4.91514 0
M  V30 10180 H 960.345 -0.0611651 -6.11369 0
M  V30 10181 H 964.519 -0.605134 -6.93766 0
M  V30 10182 H 962.146 -0.985511 -7.53785 0
M  V30 10183 N 963.721 1.49897 0.486681 0
M  V30 10184 C 964.97 1.59349 1.23656 0
M  V30 10185 C 965.283 0.292024 1.93408 0
M  V30 10186 O 966.489 0.265258 2.70201 0
M  V30 10187 C 964.945 2.81215 2.24602 0
M  V30 10188 C 964.553 4.18177 1.60725 0
M  V30 10189 C 966.297 3.00004 3.00329 0
M  V30 10190 C 964.204 5.31247 2.59866 0
M  V30 10191 H 963.134 0.593363 0.465227 0
M  V30 10192 H 965.785 1.76306 0.508769 0
M  V30 10193 H 964.167 2.57783 3.00606 0
M  V30 10194 H 965.341 4.51802 0.90616 0
M  V30 10195 H 963.656 4.04864 0.973362 0
M  V30 10196 H 966.253 3.81649 3.74497 0
M  V30 10197 H 966.596 2.1112 3.58795 0
M  V30 10198 H 967.129 3.23544 2.3144 0
M  V30 10199 H 963.868 6.22236 2.06161 0
M  V30 10200 H 963.388 5.02059 3.28172 0
M  V30 10201 H 965.067 5.61177 3.22009 0
M  V30 10202 N 965.199 -0.738761 1.39212 0
M  V30 10203 C 966.445 -1.50046 1.36433 0
M  V30 10204 C 966.778 -1.94157 -0.0409474 0
M  V30 10205 O 966.053 -1.66515 -1.00514 0
M  V30 10206 C 966.336 -2.74277 2.33333 0
M  V30 10207 C 966.189 -2.36209 3.82786 0
M  V30 10208 C 967.508 -3.76361 2.28123 0
M  V30 10209 H 964.627 -0.544294 0.496903 0
M  V30 10210 H 967.269 -0.845005 1.70175 0
M  V30 10211 H 965.419 -3.30204 2.04689 0
M  V30 10212 H 967.091 -1.85942 4.22165 0
M  V30 10213 H 965.334 -1.68483 3.99745 0
M  V30 10214 H 966.005 -3.25156 4.46069 0
M  V30 10215 H 968.481 -3.30009 2.53443 0
M  V30 10216 H 967.357 -4.60957 2.9801 0
M  V30 10217 H 967.618 -4.23013 1.28499 0
M  V30 10218 N 966.677 -1.24326 -0.968545 0
M  V30 10219 C 967.607 -1.05951 -2.08079 0
M  V30 10220 C 968.588 0.0272666 -1.70078 0
M  V30 10221 O 969.773 -0.139644 -1.93697 0
M  V30 10222 C 966.903 -0.662623 -3.4092 0
M  V30 10223 C 965.857 -1.69807 -3.92873 0
M  V30 10224 C 965.183 -1.15628 -5.22048 0
M  V30 10225 C 966.483 -3.09383 -4.20808 0
M  V30 10226 H 968.177 -1.98984 -2.23709 0
M  V30 10227 H 965.723 -0.958112 -1.075 0
M  V30 10228 H 967.676 -0.521071 -4.18166 0
M  V30 10229 H 966.4 0.303399 -3.25188 0
M  V30 10230 H 965.059 -1.82783 -3.17783 0
M  V30 10231 H 964.707 -0.180888 -5.02675 0
M  V30 10232 H 964.407 -1.84822 -5.57776 0
M  V30 10233 H 965.931 -1.02683 -6.01904 0
M  V30 10234 H 967.345 -2.99642 -4.88761 0
M  V30 10235 H 965.742 -3.75923 -4.67763 0
M  V30 10236 H 966.812 -3.57486 -3.27616 0
M  V30 10237 N 968.156 1.1691 -1.05688 0
M  V30 10238 C 969.404 1.86922 -0.768409 0
M  V30 10239 C 969.725 1.81735 0.706921 0
M  V30 10240 O 968.995 1.24671 1.51109 0
M  V30 10241 H 967.575 0.69203 -0.281253 0
M  V30 10242 H 970.237 1.41803 -1.33708 0
M  V30 10243 H 969.333 2.92528 -1.08783 0
M  V30 10244 N 969.634 0.838594 1.33437 0
M  V30 10245 C 970.883 0.430484 1.97053 0
M  V30 10246 C 971.196 -1.01556 1.6717 0
M  V30 10247 O 972.402 -1.52834 2.24397 0
M  V30 10248 C 970.858 0.718828 3.52648 0
M  V30 10249 C 970.466 2.17953 3.91408 0
M  V30 10250 C 972.21 0.377654 4.22817 0
M  V30 10251 C 970.117 2.41194 5.39981 0
M  V30 10252 H 969.047 0.157239 0.737422 0
M  V30 10253 H 971.698 1.02714 1.5206 0
M  V30 10254 H 970.08 0.0518042 3.95966 0
M  V30 10255 H 971.254 2.88701 3.59149 0
M  V30 10256 H 969.569 2.48366 3.34221 0
M  V30 10257 H 972.166 0.528926 5.32077 0
M  V30 10258 H 972.509 -0.679338 4.1072 0
M  V30 10259 H 973.042 0.999899 3.85028 0
M  V30 10260 H 969.781 3.45457 5.57081 0
M  V30 10261 H 969.301 1.75007 5.73701 0
M  V30 10262 H 970.98 2.24334 6.06863 0
M  V30 10263 N 971.112 -1.45937 0.595003 0
M  V30 10264 C 972.359 -2.0232 0.0853053 0
M  V30 10265 C 972.687 -1.465 -1.27937 0
M  V30 10266 O 971.942 -0.624767 -1.85459 0
M  V30 10267 C 972.241 -3.57396 -0.0173747 0
M  V30 10268 C 971.907 -4.32311 1.28131 0
M  V30 10269 C 970.569 -4.52496 1.63708 0
M  V30 10270 C 972.921 -4.75233 2.14017 0
M  V30 10271 C 970.249 -5.12857 2.84947 0
M  V30 10272 C 972.601 -5.36933 3.34493 0
M  V30 10273 C 971.265 -5.55343 3.70338 0
M  V30 10274 H 970.535 -0.740342 0.0312154 0
M  V30 10275 H 973.182 -1.75157 0.774103 0
M  V30 10276 H 971.487 -3.83766 -0.789371 0
M  V30 10277 H 973.184 -3.98713 -0.427699 0
M  V30 10278 H 969.774 -4.16905 0.994374 0
M  V30 10279 H 973.958 -4.59383 1.87833 0
M  V30 10280 H 969.214 -5.253 3.12841 0
M  V30 10281 H 973.388 -5.69147 4.01304 0
M  V30 10282 H 971.015 -6.01883 4.64371 0
M  V30 10283 N 972.59 -0.333456 -1.54032 0
M  V30 10284 C 973.837 0.266133 -2.00744 0
M  V30 10285 C 974.165 1.51361 -1.22148 0
M  V30 10286 O 973.42 1.93473 -0.294368 0
M  V30 10287 C 973.719 0.63565 -3.51702 0
M  V30 10288 C 973.385 -0.513786 -4.47963 0
M  V30 10289 C 972.047 -0.829253 -4.74001 0
M  V30 10290 C 974.399 -1.2854 -5.05101 0
M  V30 10291 C 971.727 -1.91888 -5.54433 0
M  V30 10292 C 974.079 -2.3652 -5.86721 0
M  V30 10293 C 972.743 -2.68637 -6.11057 0
M  V30 10294 H 972.013 0.097385 -0.734573 0
M  V30 10295 H 974.66 -0.459282 -1.85911 0
M  V30 10296 H 972.965 1.44163 -3.64313 0
M  V30 10297 H 974.662 1.11129 -3.85294 0
M  V30 10298 H 971.252 -0.25784 -4.27824 0
M  V30 10299 H 975.436 -1.05494 -4.84958 0
M  V30 10300 H 970.692 -2.17208 -5.71516 0
M  V30 10301 H 974.866 -2.96747 -6.30011 0
M  V30 10302 H 972.493 -3.53197 -6.73169 0
M  V30 10303 N 974.068 1.57479 -0.061844 0
M  V30 10304 C 975.317 1.92285 0.609055 0
M  V30 10305 C 975.63 0.942983 1.71369 0
M  V30 10306 O 976.836 1.18349 2.44348 0
M  V30 10307 C 975.292 3.41545 1.13468 0
M  V30 10308 C 974.9 4.47958 0.0615926 0
M  V30 10309 C 976.644 3.85368 1.78022 0
M  V30 10310 C 974.551 5.88341 0.600705 0
M  V30 10311 H 973.481 0.717656 0.23127 0
M  V30 10312 H 976.132 1.83021 -0.132466 0
M  V30 10313 H 974.514 3.45848 1.92886 0
M  V30 10314 H 975.688 4.55258 -0.712527 0
M  V30 10315 H 974.003 4.13541 -0.487116 0
M  V30 10316 H 976.6 4.87627 2.19371 0
M  V30 10317 H 976.943 3.22193 2.63623 0
M  V30 10318 H 977.476 3.83626 1.05242 0
M  V30 10319 H 974.215 6.55138 -0.217922 0
M  V30 10320 H 973.735 5.84581 1.34257 0
M  V30 10321 H 975.414 6.37918 1.08025 0
M  V30 10322 N 975.546 -0.211634 1.56173 0
M  V30 10323 C 976.771 -0.955324 1.84088 0
M  V30 10324 C 977.196 -1.76754 0.643407 0
M  V30 10325 O 976.554 -1.76653 -0.407842 0
M  V30 10326 C 976.602 -1.84063 3.10085 0
M  V30 10327 O 975.706 -2.9373 2.89476 0
M  V30 10328 H 975.047 -0.26996 0.606645 0
M  V30 10329 H 977.577 -0.221947 2.03393 0
M  V30 10330 H 977.587 -2.24852 3.40449 0
M  V30 10331 H 976.262 -1.24373 3.96868 0
M  V30 10332 H 974.839 -2.56816 2.7037 0
M  V30 10333 N 977.024 -1.50153 -0.478725 0
M  V30 10334 C 977.954 -1.71384 -1.58587 0
M  V30 10335 C 978.935 -0.562705 -1.60523 0
M  V30 10336 O 980.12 -0.80101 -1.76911 0
M  V30 10337 C 977.25 -1.80094 -2.96957 0
M  V30 10338 C 976.204 -2.95218 -3.09888 0
M  V30 10339 C 975.53 -2.89063 -4.49829 0
M  V30 10340 C 976.83 -4.35841 -2.8782 0
M  V30 10341 H 978.524 -2.64081 -1.41073 0
M  V30 10342 H 976.07 -1.27081 -0.677239 0
M  V30 10343 H 978.023 -1.93531 -3.74331 0
M  V30 10344 H 976.747 -0.840131 -3.1561 0
M  V30 10345 H 975.406 -2.81419 -2.34944 0
M  V30 10346 H 975.054 -1.90844 -4.6539 0
M  V30 10347 H 974.754 -3.66345 -4.59418 0
M  V30 10348 H 976.278 -3.04539 -5.29234 0
M  V30 10349 H 977.692 -4.50205 -3.54948 0
M  V30 10350 H 976.089 -5.14515 -3.0886 0
M  V30 10351 H 977.159 -4.48739 -1.83742 0
M  V30 10352 N 978.502 0.731368 -1.39602 0
M  V30 10353 C 979.918 1.03739 -1.21286 0
M  V30 10354 C 980.118 2.01353 -0.0769875 0
M  V30 10355 O 979.174 2.45978 0.570193 0
M  V30 10356 C 980.487 1.59621 -2.54837 0
M  V30 10357 C 982.035 1.71683 -2.61713 0
M  V30 10358 C 982.51 2.30973 -3.95494 0
M  V30 10359 N 984.001 2.38378 -3.97153 0
M  V30 10360 C 984.736 2.852 -4.97442 0
M  V30 10361 N 984.232 3.31891 -6.08129 0
M  V30 10362 N 986.025 2.84441 -4.84819 0
M  V30 10363 H 978.176 0.0840456 -2.12234 0
M  V30 10364 H 980.439 0.0999038 -0.942721 0
M  V30 10365 H 980.145 0.953608 -3.38525 0
M  V30 10366 H 980.019 2.58375 -2.74813 0
M  V30 10367 H 982.406 2.35064 -1.78406 0
M  V30 10368 H 982.487 0.715714 -2.45583 0
M  V30 10369 H 982.131 1.68219 -4.79234 0
M  V30 10370 H 982.061 3.31769 -4.08946 0
M  V30 10371 H 984.552 2.05382 -3.17217 0
M  V30 10372 H 984.865 3.66138 -6.8056 0
M  V30 10373 H 983.21 3.2989 -6.11717 0
M  V30 10374 H 986.401 2.4729 -3.97448 0
M  V30 10375 H 986.574 3.20616 -5.63124 0
M  V30 10376 N 979.98 1.24838 0.961938 0
M  V30 10377 C 980.91 1.07053 2.07514 0
M  V30 10378 C 981.891 -0.0182465 1.7009 0
M  V30 10379 O 983.076 0.149915 1.9362 0
M  V30 10380 C 980.206 0.680693 3.40564 0
M  V30 10381 C 979.16 1.71889 3.91967 0
M  V30 10382 C 978.486 1.18395 5.21428 0
M  V30 10383 C 979.786 3.1161 4.19161 0
M  V30 10384 H 981.48 2.00167 2.22651 0
M  V30 10385 H 979.026 0.963799 1.0699 0
M  V30 10386 H 980.979 0.54324 4.17884 0
M  V30 10387 H 979.703 -0.28615 3.25344 0
M  V30 10388 H 978.362 1.84465 3.16809 0
M  V30 10389 H 978.01 0.207543 5.02572 0
M  V30 10390 H 977.71 1.87778 5.56788 0
M  V30 10391 H 979.234 1.05873 6.01351 0
M  V30 10392 H 980.648 3.0223 4.87165 0
M  V30 10393 H 979.045 3.78398 4.65763 0
M  V30 10394 H 980.115 3.59218 3.25715 0
M  V30 10395 N 981.458 -1.16348 1.06306 0
M  V30 10396 C 982.707 -1.8622 0.774909 0
M  V30 10397 C 983.02 -1.82598 -0.701245 0
M  V30 10398 O 984.226 -2.48051 -1.10377 0
M  V30 10399 C 982.682 -3.34182 1.33604 0
M  V30 10400 C 982.29 -3.46279 2.84245 0
M  V30 10401 C 984.034 -4.09309 1.12544 0
M  V30 10402 C 981.941 -4.88327 3.33602 0
M  V30 10403 H 980.871 -0.697574 0.286194 0
M  V30 10404 H 983.522 -1.31311 1.28179 0
M  V30 10405 H 981.904 -3.88698 0.756937 0
M  V30 10406 H 983.078 -3.01923 3.48108 0
M  V30 10407 H 981.393 -2.84585 3.03974 0
M  V30 10408 H 983.99 -5.14123 1.46909 0
M  V30 10409 H 984.333 -4.16251 0.0638129 0
M  V30 10410 H 984.866 -3.61032 1.67034 0
M  V30 10411 H 981.605 -4.86565 4.39244 0
M  V30 10412 H 981.125 -5.33307 2.74487 0
M  V30 10413 H 982.804 -5.57144 3.28937 0
M  V30 10414 N 982.937 -0.845659 -1.3299 0
M  V30 10415 C 983.9 -0.288905 -2.27372 0
M  V30 10416 C 984.9 0.546263 -1.51237 0
M  V30 10417 O 986.09 0.359072 -1.70459 0
M  V30 10418 C 983.222 0.59224 -3.35716 0
M  V30 10419 H 984.415 -1.12181 -2.78128 0
M  V30 10420 H 981.968 -0.619276 -1.43508 0
M  V30 10421 H 982.703 1.44732 -2.90212 0
M  V30 10422 H 982.488 -0.00543255 -3.921 0
M  V30 10423 H 983.978 0.974848 -4.06062 0
M  V30 10424 N 984.415 1.45619 -0.602734 0
M  V30 10425 C 985.645 2.06348 -0.102105 0
M  V30 10426 C 986.053 1.44884 1.21677 0
M  V30 10427 O 985.396 0.555559 1.75098 0
M  V30 10428 C 985.458 3.59309 0.117026 0
M  V30 10429 C 985.122 4.43081 -1.11931 0
M  V30 10430 C 986.119 4.78364 -2.03627 0
M  V30 10431 C 983.804 4.83908 -1.34677 0
M  V30 10432 C 985.798 5.53325 -3.16403 0
M  V30 10433 C 983.485 5.58624 -2.47754 0
M  V30 10434 C 984.483 5.93249 -3.38445 0
M  V30 10435 O 984.171 6.6645 -4.49555 0
M  V30 10436 H 983.903 0.672988 -0.0637478 0
M  V30 10437 H 986.457 1.87928 -0.828983 0
M  V30 10438 H 984.687 3.76111 0.898742 0
M  V30 10439 H 986.376 4.01897 0.568649 0
M  V30 10440 H 987.142 4.47384 -1.87277 0
M  V30 10441 H 983.021 4.56396 -0.649875 0
M  V30 10442 H 986.565 5.80268 -3.87214 0
M  V30 10443 H 982.462 5.89019 -2.64059 0
M  V30 10444 H 983.23 6.84895 -4.48175 0
M  V30 10445 N 985.893 0.34162 1.53853 0
M  V30 10446 C 987.14 -0.255484 2.00882 0
M  V30 10447 C 987.468 -1.50711 1.22949 0
M  V30 10448 O 986.723 -1.93315 0.304625 0
M  V30 10449 C 987.022 -0.616989 3.52034 0
M  V30 10450 C 986.688 0.537536 4.47684 0
M  V30 10451 C 985.35 0.854379 4.73554 0
M  V30 10452 C 987.702 1.31217 5.04412 0
M  V30 10453 C 985.03 1.94826 5.53407 0
M  V30 10454 C 987.382 2.39628 5.85458 0
M  V30 10455 C 986.046 2.71874 6.09623 0
M  V30 10456 H 985.316 -0.0934881 0.735079 0
M  V30 10457 H 987.963 0.469135 1.85665 0
M  V30 10458 H 986.268 -1.42229 3.65073 0
M  V30 10459 H 987.965 -1.09084 3.85878 0
M  V30 10460 H 984.555 0.280524 4.27681 0
M  V30 10461 H 988.739 1.08064 4.84392 0
M  V30 10462 H 983.995 2.20235 5.70356 0
M  V30 10463 H 988.169 3.00084 6.28429 0
M  V30 10464 H 985.796 3.56762 6.71286 0
M  V30 10465 N 987.371 -1.57444 0.0701946 0
M  V30 10466 C 988.617 -1.93716 -0.600178 0
M  V30 10467 C 988.95 -0.950329 -1.69359 0
M  V30 10468 O 988.225 0.0207123 -1.94489 0
M  V30 10469 C 988.508 -3.40266 -1.17861 0
M  V30 10470 C 988.361 -4.49706 -0.0919575 0
M  V30 10471 C 989.68 -3.87599 -2.08459 0
M  V30 10472 H 986.799 -0.704421 -0.216704 0
M  V30 10473 H 989.441 -1.89514 0.135838 0
M  V30 10474 H 987.591 -3.43977 -1.80587 0
M  V30 10475 H 989.263 -4.58116 0.541031 0
M  V30 10476 H 987.506 -4.29937 0.577639 0
M  V30 10477 H 988.177 -5.49381 -0.537048 0
M  V30 10478 H 990.653 -3.85883 -1.5567 0
M  V30 10479 H 989.529 -4.90755 -2.45867 0
M  V30 10480 H 989.79 -3.25448 -2.99226 0
M  V30 10481 N 988.849 0.203349 -1.56283 0
M  V30 10482 C 989.779 1.2549 -1.96912 0
M  V30 10483 C 990.76 1.47919 -0.839884 0
M  V30 10484 O 991.945 1.59795 -1.10359 0
M  V30 10485 C 989.075 2.6009 -2.30153 0
M  V30 10486 C 988.029 2.52289 -3.45738 0
M  V30 10487 C 987.355 3.91086 -3.64632 0
M  V30 10488 C 988.655 2.05503 -4.80173 0
M  V30 10489 H 990.349 0.917306 -2.85002 0
M  V30 10490 H 987.895 0.439818 -1.37119 0
M  V30 10491 H 989.848 3.33829 -2.5717 0
M  V30 10492 H 988.572 2.95574 -1.38937 0
M  V30 10493 H 987.231 1.81006 -3.18798 0
M  V30 10494 H 986.879 4.23908 -2.7076 0
M  V30 10495 H 986.579 3.86742 -4.42385 0
M  V30 10496 H 988.103 4.66459 -3.94016 0
M  V30 10497 H 989.517 2.68995 -5.06275 0
M  V30 10498 H 987.914 2.1218 -5.61337 0
M  V30 10499 H 988.984 1.00793 -4.74309 0
M  V30 10500 N 990.327 1.50405 0.470755 0
M  V30 10501 C 991.743 1.37838 0.804534 0
M  V30 10502 C 991.943 0.434743 1.96754 0
M  V30 10503 O 990.999 -0.122507 2.52203 0
M  V30 10504 C 992.312 2.79212 1.11629 0
M  V30 10505 C 993.86 2.88129 1.22272 0
M  V30 10506 C 994.335 4.30337 1.5676 0
M  V30 10507 N 995.826 4.3329 1.63751 0
M  V30 10508 C 996.561 5.4032 1.91942 0
M  V30 10509 N 996.057 6.57558 2.18151 0
M  V30 10510 N 997.85 5.27764 1.93446 0
M  V30 10511 H 990.001 2.10332 -0.295689 0
M  V30 10512 H 992.264 0.945429 -0.0697733 0
M  V30 10513 H 991.97 3.50103 0.334778 0
M  V30 10514 H 991.844 3.16475 2.0524 0
M  V30 10515 H 994.231 2.17457 1.9949 0
M  V30 10516 H 994.312 2.54409 0.2664 0
M  V30 10517 H 993.956 5.01547 0.800817 0
M  V30 10518 H 993.886 4.61545 2.53543 0
M  V30 10519 H 996.377 3.48752 1.45535 0
M  V30 10520 H 996.69 7.34935 2.38936 0
M  V30 10521 H 995.035 6.60732 2.15542 0
M  V30 10522 H 998.226 4.35169 1.72468 0
M  V30 10523 H 998.399 6.11264 2.15081 0
M  V30 10524 N 991.805 -0.723954 1.39988 0
M  V30 10525 C 993.035 -1.51094 1.40905 0
M  V30 10526 C 993.443 -1.89199 0.00476744 0
M  V30 10527 O 992.786 -1.55398 -0.979646 0
M  V30 10528 C 992.848 -2.82114 2.22827 0
M  V30 10529 C 992.512 -2.66379 3.71337 0
M  V30 10530 C 993.509 -2.34192 4.64166 0
M  V30 10531 C 991.194 -2.82905 4.15054 0
M  V30 10532 C 993.188 -2.18729 5.98696 0
M  V30 10533 C 990.875 -2.67059 5.49657 0
M  V30 10534 C 991.873 -2.35018 6.41292 0
M  V30 10535 O 991.561 -2.19284 7.73414 0
M  V30 10536 H 991.293 -0.473142 0.482818 0
M  V30 10537 H 993.847 -0.901321 1.84568 0
M  V30 10538 H 992.077 -3.45377 1.7393 0
M  V30 10539 H 993.766 -3.43789 2.15787 0
M  V30 10540 H 994.532 -2.21065 4.31689 0
M  V30 10541 H 990.411 -3.06834 3.44055 0
M  V30 10542 H 993.955 -1.93641 6.70186 0
M  V30 10543 H 989.852 -2.79768 5.81722 0
M  V30 10544 H 990.62 -2.34269 7.84258 0
M  V30 10545 N 993.283 -1.25346 -0.955304 0
M  V30 10546 C 994.23 -1.05672 -2.05188 0
M  V30 10547 C 995.2 0.0339217 -1.66065 0
M  V30 10548 O 996.385 -0.123126 -1.90402 0
M  V30 10549 C 993.525 -0.680791 -3.38318 0
M  V30 10550 C 992.638 -1.84622 -3.90562 0
M  V30 10551 C 991.773 -1.41471 -5.12015 0
M  V30 10552 C 990.812 -2.54931 -5.56486 0
M  V30 10553 N 989.949 -2.1256 -6.69151 0
M  V30 10554 H 994.789 -1.9952 -2.2135 0
M  V30 10555 H 992.326 -0.993588 -1.08472 0
M  V30 10556 H 994.284 -0.443794 -4.14833 0
M  V30 10557 H 992.914 0.2207 -3.22045 0
M  V30 10558 H 991.966 -2.19654 -3.10574 0
M  V30 10559 H 993.278 -2.6983 -4.19515 0
M  V30 10560 H 992.432 -1.13732 -5.95945 0
M  V30 10561 H 991.171 -0.533334 -4.84775 0
M  V30 10562 H 990.176 -2.83415 -4.71122 0
M  V30 10563 H 991.401 -3.43645 -5.85734 0
M  V30 10564 H 989.347 -1.26838 -6.43621 0
M  V30 10565 H 989.264 -2.91317 -6.97618 0
M  V30 10566 H 990.532 -1.87996 -7.5649 0
M  V30 10567 N 994.761 1.15782 -1.06922 0
M  V30 10568 C 996.01 1.85807 -0.784774 0
M  V30 10569 C 996.323 1.82967 0.691551 0
M  V30 10570 O 997.529 2.48632 1.0906 0
M  V30 10571 C 995.985 3.33469 -1.35375 0
M  V30 10572 C 995.593 3.44766 -2.86077 0
M  V30 10573 C 997.337 4.08707 -1.14713 0
M  V30 10574 C 995.244 4.86551 -3.36187 0
M  V30 10575 H 994.174 0.696046 -0.28989 0
M  V30 10576 H 996.825 1.30629 -1.28873 0
M  V30 10577 H 995.207 3.88292 -0.77754 0
M  V30 10578 H 996.381 3.00073 -3.49704 0
M  V30 10579 H 994.696 2.82969 -3.05479 0
M  V30 10580 H 997.293 5.13336 -1.49633 0
M  V30 10581 H 997.636 4.16211 -0.0858868 0
M  V30 10582 H 998.169 3.60142 -1.68946 0
M  V30 10583 H 994.908 4.84229 -4.41818 0
M  V30 10584 H 994.428 5.31844 -2.77312 0
M  V30 10585 H 996.107 5.55392 -3.31887 0
M  V30 10586 N 996.239 0.8527 1.3254 0
M  V30 10587 C 997.655 0.542298 1.50104 0
M  V30 10588 C 997.855 -0.927465 1.78886 0
M  V30 10589 O 996.911 -1.7106 1.85728 0
M  V30 10590 C 998.224 1.4276 2.64651 0
M  V30 10591 C 999.772 1.42782 2.78536 0
M  V30 10592 C 1000.25 2.29828 3.9616 0
M  V30 10593 N 1001.74 2.27613 4.03418 0
M  V30 10594 C 1002.47 2.91696 4.93661 0
M  V30 10595 N 1001.97 3.64883 5.88925 0
M  V30 10596 N 1003.76 2.81094 4.86768 0
M  V30 10597 H 995.913 1.80395 1.12123 0
M  V30 10598 H 998.176 0.770394 0.552446 0
M  V30 10599 H 997.882 2.47266 2.50105 0
M  V30 10600 H 997.756 1.11358 3.60388 0
M  V30 10601 H 1000.14 0.390417 2.92506 0
M  V30 10602 H 1000.22 1.78198 1.83519 0
M  V30 10603 H 999.868 3.33635 3.82949 0
M  V30 10604 H 999.798 1.91746 4.9045 0
M  V30 10605 H 1002.29 1.74402 3.3525 0
M  V30 10606 H 1002.6 4.10952 6.54476 0
M  V30 10607 H 1000.95 3.68991 5.88957 0
M  V30 10608 H 1004.14 2.23469 4.11314 0
M  V30 10609 H 1004.31 3.31318 5.56895 0
M  V30 10610 N 997.718 -1.45297 0.610449 0
M  V30 10611 C 998.681 -2.28995 -0.0968194 0
M  V30 10612 C 999.681 -1.39923 -0.792353 0
M  V30 10613 O 1000.87 -1.62014 -0.64008 0
M  V30 10614 C 998.003 -3.21013 -1.14731 0
M  V30 10615 H 999.196 -2.93012 0.639082 0
M  V30 10616 H 996.749 -1.51867 0.369624 0
M  V30 10617 H 997.484 -2.61803 -1.91388 0
M  V30 10618 H 997.269 -3.86628 -0.652753 0
M  V30 10619 H 998.759 -3.8394 -1.64256 0
M  V30 10620 N 999.196 -0.349774 -1.5367 0
M  V30 10621 C 1000.11 0.512421 -2.28935 0
M  V30 10622 C 1001.12 1.1065 -1.34286 0
M  V30 10623 O 1002.3 1.12084 -1.67329 0
M  V30 10624 C 999.363 1.64449 -3.05217 0
M  V30 10625 C 998.424 1.07956 -4.15505 0
M  V30 10626 C 997.657 2.15768 -4.88139 0
M  V30 10627 O 997.88 3.366 -4.60496 0
M  V30 10628 O 996.814 1.79712 -5.74445 0
M  V30 10629 H 1000.64 -0.0996001 -3.03537 0
M  V30 10630 H 998.225 -0.114629 -1.4896 0
M  V30 10631 H 1000.11 2.30302 -3.52901 0
M  V30 10632 H 998.782 2.24221 -2.33467 0
M  V30 10633 H 997.689 0.385381 -3.7211 0
M  V30 10634 H 999.022 0.526621 -4.89375 0
M  V30 10635 N 1000.67 1.57404 -0.0785433 0
M  V30 10636 C 1002.09 1.57158 0.2781 0
M  V30 10637 C 1002.29 1.08847 1.69572 0
M  V30 10638 O 1001.35 0.757407 2.40873 0
M  V30 10639 C 1002.66 3.00589 0.0816067 0
M  V30 10640 C 1004.21 3.12637 0.150627 0
M  V30 10641 C 1004.68 4.57997 -0.0176685 0
M  V30 10642 N 1006.17 4.63185 0.0377145 0
M  V30 10643 C 1006.91 5.7336 -0.0679907 0
M  V30 10644 N 1006.4 6.92426 -0.227598 0
M  V30 10645 N 1008.2 5.62099 -0.0104424 0
M  V30 10646 H 1000.35 1.87121 -1.00496 0
M  V30 10647 H 1002.61 0.862937 -0.392484 0
M  V30 10648 H 1002.32 3.40072 -0.896869 0
M  V30 10649 H 1002.19 3.67931 0.831046 0
M  V30 10650 H 1004.58 2.73037 1.11959 0
M  V30 10651 H 1004.66 2.4792 -0.630028 0
M  V30 10652 H 1004.3 4.98288 -0.983431 0
M  V30 10653 H 1004.23 5.20754 0.782475 0
M  V30 10654 H 1006.72 3.77564 0.159208 0
M  V30 10655 H 1007.04 7.72217 -0.300217 0
M  V30 10656 H 1005.38 6.94502 -0.263049 0
M  V30 10657 H 1008.57 4.67964 0.112999 0
M  V30 10658 H 1008.75 6.47928 -0.0962747 0
M  V30 10659 O 1002.19 -0.0619135 1.61381 0
M  V30 10660 H 1002.88 -0.686606 1.81123 0
M  V30 END ATOM
M  V30 BEGIN BOND
M  V30 END BOND
M  V30 END CTAB
M  END
$$$$
