drugbank_target|P07451 Carbonic anhydrase 3 (DB00273; DB00311; DB00391; DB00482; DB00580; DB00703; DB00819; DB00869; DB00909; DB01144; DB01194; DB08846; DB12418)
 OpenBabel12092120363D

  0  0  0     0  0            999 V3000
M  V30 BEGIN CTAB
M  V30 COUNTS 4104 4172 0 0 0
M  V30 BEGIN ATOM
M  V30 1 H -0.908 1.98254 -0.117106 0
M  V30 2 N 0 1.576 0 0
M  V30 3 C 0.933 2.03868 1.02534 0
M  V30 4 C 1.911 0.928543 1.3348 0
M  V30 5 O 3.095 1.19667 1.45644 0
M  V30 6 C 0.222 2.43627 2.35294 0
M  V30 7 C -0.732 3.65373 2.2001 0
M  V30 8 S 0.101 5.13292 1.52614 0
M  V30 9 C 1.257 5.56322 2.86805 0
M  V30 10 H 1.49 2.90518 0.631377 0
M  V30 11 H -0.977 1.52953 0.210867 0
M  V30 12 H 0.981 2.67203 3.11629 0
M  V30 13 H -0.358 1.57376 2.7183 0
M  V30 14 H -1.165 3.90944 3.18086 0
M  V30 15 H -1.563 3.418 1.51819 0
M  V30 16 H 0.729 5.58782 3.83104 0
M  V30 17 H 1.672 6.56266 2.65933 0
M  V30 18 H 2.08 4.83886 2.90714 0
M  V30 19 N 1.4781 -0.272755 1.55222 0
M  V30 20 C 2.4411 -1.32041 1.87344 0
M  V30 21 C 3.4411 -1.42342 0.74803 0
M  V30 22 O 4.6311 -1.41488 1.0162 0
M  V30 23 C 1.7631 -2.70173 2.07893 0
M  V30 24 H 2.9561 -1.04789 2.80997 0
M  V30 25 H 0.5091 -0.51083 1.47717 0
M  V30 26 H 1.2441 -3.02605 1.16622 0
M  V30 27 H 1.0291 -2.64082 2.89833 0
M  V30 28 H 2.5191 -3.45869 2.34017 0
M  V30 29 N 2.9562 -1.48159 -0.537278 0
M  V30 30 C 3.9032 -1.62138 -1.64256 0
M  V30 31 C 4.8732 -0.463668 -1.59497 0
M  V30 32 O 6.0582 -0.686241 -1.78032 0
M  V30 33 C 3.1982 -1.66028 -3.02537 0
M  V30 34 C 2.3112 -2.92855 -3.17585 0
M  V30 35 C 1.4462 -2.87952 -4.46382 0
M  V30 36 C 0.4852 -4.09516 -4.54932 0
M  V30 37 N -0.3778 -4.02733 -5.75109 0
M  V30 38 H 4.4622 -2.56529 -1.51647 0
M  V30 39 H 1.9992 -1.27224 -0.738414 0
M  V30 40 H 3.9572 -1.66265 -3.82638 0
M  V30 41 H 2.5872 -0.751331 -3.13934 0
M  V30 42 H 1.6392 -3.02395 -2.30784 0
M  V30 43 H 2.9512 -3.82822 -3.19764 0
M  V30 44 H 2.1052 -2.8655 -5.34765 0
M  V30 45 H 0.8442 -1.95702 -4.46712 0
M  V30 46 H -0.1508 -4.11201 -3.64957 0
M  V30 47 H 1.0742 -5.02917 -4.56346 0
M  V30 48 H -0.9798 -3.13299 -5.76351 0
M  V30 49 H -1.0628 -4.86397 -5.78752 0
M  V30 50 H 0.2052 -4.05379 -6.65799 0
M  V30 51 N 4.4343 0.785586 -1.36625 0
M  V30 52 C 5.3443 1.92964 -1.33425 0
M  V30 53 C 6.3603 1.72394 -0.235851 0
M  V30 54 O 7.5363 1.95866 -0.468878 0
M  V30 55 C 4.6013 3.27884 -1.12662 0
M  V30 56 C 3.6623 3.61204 -2.32013 0
M  V30 57 C 2.8953 4.89687 -2.12231 0
M  V30 58 O 3.1183 5.59704 -1.09945 0
M  V30 59 O 2.0523 5.21752 -3.00098 0
M  V30 60 H 5.8783 1.98613 -2.29753 0
M  V30 61 H 3.4633 0.926384 -1.17211 0
M  V30 62 H 5.3453 4.08614 -1.03016 0
M  V30 63 H 4.0203 3.23118 -0.193991 0
M  V30 64 H 2.9273 2.80765 -2.47228 0
M  V30 65 H 4.2603 3.70698 -3.23796 0
M  V30 66 N 5.9124 1.20967 1.01018 0
M  V30 67 C 7.1584 1.0353 1.7508 0
M  V30 68 C 7.5134 -0.42734 1.87594 0
M  V30 69 O 6.8064 -1.31298 1.3954 0
M  V30 70 C 7.0004 1.65997 3.16512 0
M  V30 71 C 6.8294 3.18184 3.17788 0
M  V30 72 C 5.5994 3.87198 3.24662 0
M  V30 73 C 7.7974 4.15334 3.03319 0
M  V30 74 N 5.7794 5.26618 3.15509 0
M  V30 75 C 7.1504 5.41472 3.02007 0
M  V30 76 C 9.2054 4.06449 2.87583 0
M  V30 77 C 7.9084 6.5975 2.86571 0
M  V30 78 C 9.9344 5.24357 2.73503 0
M  V30 79 C 9.2964 6.49404 2.72862 0
M  V30 80 H 5.3954 0.433137 0.651089 0
M  V30 81 H 7.9794 1.5324 1.20107 0
M  V30 82 H 6.1504 1.18863 3.69765 0
M  V30 83 H 7.8824 1.41816 3.79039 0
M  V30 84 H 4.6374 3.38093 3.31648 0
M  V30 85 H 5.0614 5.99626 3.14289 0
M  V30 86 H 9.7034 3.10573 2.86887 0
M  V30 87 H 7.4214 7.55792 2.86015 0
M  V30 88 H 11.0074 5.19299 2.62334 0
M  V30 89 H 9.8874 7.39105 2.62093 0
M  V30 90 N 7.3905 -1.2043 1.01659 0
M  V30 91 C 8.6385 -1.89423 0.704522 0
M  V30 92 C 8.9595 -1.79231 -0.768197 0
M  V30 93 O 8.2295 -1.1947 -1.55254 0
M  V30 94 H 6.8095 -0.701178 0.257602 0
M  V30 95 H 9.4715 -1.4626 1.28818 0
M  V30 96 H 8.5675 -2.96052 0.987916 0
M  V30 97 N 8.8686 -0.792821 -1.36206 0
M  V30 98 C 10.0986 -0.378275 -2.03107 0
M  V30 99 C 10.5066 1.01119 -1.59911 0
M  V30 100 O 9.8496 1.66052 -0.785658 0
M  V30 101 C 9.9116 -0.366535 -3.57627 0
M  V30 102 C 9.5756 -1.70416 -4.24037 0
M  V30 103 C 10.5726 -2.6602 -4.46687 0
M  V30 104 C 8.2576 -1.98439 -4.6144 0
M  V30 105 C 10.2516 -3.8784 -5.05825 0
M  V30 106 C 7.9386 -3.20525 -5.20295 0
M  V30 107 C 8.9366 -4.15044 -5.42427 0
M  V30 108 O 8.6246 -5.34978 -6.00045 0
M  V30 109 H 8.3566 -0.153543 -0.658332 0
M  V30 110 H 10.9106 -1.07383 -1.75094 0
M  V30 111 H 9.1406 0.385539 -3.84773 0
M  V30 112 H 10.8296 0.0238088 -4.05893 0
M  V30 113 H 11.5956 -2.45658 -4.18183 0
M  V30 114 H 7.4746 -1.25686 -4.43536 0
M  V30 115 H 11.0186 -4.61628 -5.23015 0
M  V30 116 H 6.9156 -3.40764 -5.48225 0
M  V30 117 H 7.6836 -5.36088 -6.18508 0
M  V30 118 N 10.3467 1.47872 -0.545128 0
M  V30 119 C 11.3097 2.28337 0.198717 0
M  V30 120 C 12.3097 1.36255 0.853888 0
M  V30 121 O 13.4997 1.59003 0.711606 0
M  V30 122 C 10.6317 3.15585 1.28915 0
M  V30 123 H 11.8247 2.95567 -0.507941 0
M  V30 124 H 9.3777 1.53362 -0.301616 0
M  V30 125 H 10.1127 2.53019 2.02859 0
M  V30 126 H 9.8977 3.83337 0.824309 0
M  V30 127 H 11.3877 3.76243 1.81194 0
M  V30 128 N 11.8248 0.280983 1.55075 0
M  V30 129 C 13.0498 -0.340154 2.04592 0
M  V30 130 C 13.4748 -1.48246 1.15779 0
M  V30 131 O 12.8328 -1.80614 0.15761 0
M  V30 132 C 12.8808 -0.793104 3.5177 0
M  V30 133 O 11.9848 -1.89981 3.66034 0
M  V30 134 H 11.3258 -0.0694289 0.66036 0
M  V30 135 H 13.8558 0.416993 2.00306 0
M  V30 136 H 13.8658 -1.08729 3.93245 0
M  V30 137 H 12.5408 0.0426163 4.15878 0
M  V30 138 H 11.1178 -1.60771 3.36463 0
M  V30 139 N 13.3029 -1.57598 0.00835791 0
M  V30 140 C 14.2529 -2.05431 -0.989045 0
M  V30 141 C 15.2369 -0.950662 -1.29812 0
M  V30 142 O 16.4289 -1.21438 -1.28771 0
M  V30 143 C 13.5579 -2.56801 -2.27833 0
M  V30 144 C 12.6439 -3.74058 -1.99853 0
M  V30 145 N 13.0349 -4.8544 -1.42062 0
M  V30 146 C 11.3329 -3.82148 -2.29953 0
M  V30 147 C 12.0339 -5.66817 -1.30743 0
M  V30 148 N 11.0099 -5.13077 -1.7959 0
M  V30 149 H 14.8119 -2.88955 -0.536853 0
M  V30 150 H 12.3259 -1.61199 -0.197148 0
M  V30 151 H 14.3229 -2.89349 -3.00137 0
M  V30 152 H 12.9829 -1.74699 -2.73698 0
M  V30 153 H 13.9939 -5.0612 -1.09833 0
M  V30 154 H 10.6709 -3.10916 -2.78635 0
M  V30 155 H 12.0609 -6.66343 -0.862328 0
M  V30 156 N 14.781 0.264519 -1.55364 0
M  V30 157 C 15.729 1.34702 -1.89626 0
M  V30 158 C 16.723 1.50712 -0.773459 0
M  V30 159 O 17.929 1.52395 -0.957897 0
M  V30 160 H 14.304 0.450682 -0.601988 0
M  V30 161 H 16.275 1.0306 -2.80038 0
M  V30 162 C 15.024 2.6989 -2.19214 0
M  V30 163 H 14.347 2.58365 -3.05103 0
M  V30 164 H 15.787 3.44553 -2.47102 0
M  V30 165 C 14.246 3.21637 -1.00254 0
M  V30 166 O 14.776 4.00973 -0.241501 0
M  V30 167 N 12.982 2.7943 -0.797938 0
M  V30 168 H 12.529 2.15026 -1.4185 0
M  V30 169 H 12.487 3.144 -0.00363422 0
M  V30 170 N 16.2591 1.48442 0.529413 0
M  V30 171 C 17.5071 1.56179 1.28267 0
M  V30 172 C 17.8281 0.237721 1.93546 0
M  V30 173 O 17.0981 -0.740779 1.81354 0
M  V30 174 H 15.6781 0.575367 0.476405 0
M  V30 175 H 18.3401 1.84909 0.61602 0
M  V30 176 H 17.4361 2.34312 2.06165 0
M  V30 177 N 17.7372 -0.778329 1.37039 0
M  V30 178 C 19.1482 -1.35421 1.28523 0
M  V30 179 C 19.4992 -1.96075 -0.0700901 0
M  V30 180 O 18.6242 -1.93352 -0.971801 0
M  V30 181 C 19.2192 -2.46211 2.32735 0
M  V30 182 C 17.7782 -2.99585 2.27873 0
M  V30 183 C 16.9252 -1.72748 2.16918 0
M  V30 184 H 19.8762 -0.5791 1.47757 0
M  V30 185 H 19.8972 -3.2552 1.9702 0
M  V30 186 H 19.4092 -2.02036 3.31365 0
M  V30 187 H 17.5102 -3.48152 1.32745 0
M  V30 188 H 17.6232 -3.55646 3.21018 0
M  V30 189 H 15.9872 -1.95416 1.63354 0
M  V30 190 H 16.7702 -1.30686 3.17452 0
M  V30 191 N 19.2153 -1.21501 -1.00376 0
M  V30 192 C 20.4923 -0.941745 -1.71437 0
M  V30 193 C 20.8723 0.546114 -2.03914 0
M  V30 194 O 20.2203 1.51128 -1.71384 0
M  V30 195 C 20.4303 -1.82812 -2.97289 0
M  V30 196 C 21.7783 -2.07771 -3.70292 0
M  V30 197 O 22.8023 -1.80171 -3.07273 0
M  V30 198 O 21.6613 -2.54456 -4.83647 0
M  V30 199 H 18.7553 -0.353243 -0.747762 0
M  V30 200 H 21.3013 -1.32436 -1.06108 0
M  V30 201 H 20.0733 -2.83501 -2.69709 0
M  V30 202 H 19.6963 -1.4464 -3.70358 0
M  V30 203 N 20.6934 1.19889 -1.02296 0
M  V30 204 C 21.6434 2.20777 -0.56934 0
M  V30 205 C 22.6274 1.56379 0.378741 0
M  V30 206 O 23.8194 1.75859 0.200673 0
M  V30 207 C 20.9484 3.43196 0.0845077 0
M  V30 208 C 20.0344 4.14749 -0.88566 0
M  V30 209 N 20.4254 4.62584 -2.04573 0
M  V30 210 C 18.7234 4.40347 -0.707835 0
M  V30 211 C 19.4244 5.17466 -2.65714 0
M  V30 212 N 18.4004 5.0791 -1.93723 0
M  V30 213 H 22.2024 2.55434 -1.45365 0
M  V30 214 H 19.7164 1.35897 -0.88915 0
M  V30 215 H 21.7134 4.14707 0.427067 0
M  V30 216 H 20.3734 3.10042 0.964574 0
M  V30 217 H 21.3844 4.57597 -2.4254 0
M  V30 218 H 18.0614 4.17317 0.12364 0
M  V30 219 H 19.4514 5.64808 -3.63925 0
M  V30 220 N 22.1715 0.800033 1.35784 0
M  V30 221 C 23.4175 0.38701 1.99684 0
M  V30 222 C 23.7725 -1.03268 1.62338 0
M  V30 223 O 23.0655 -1.70543 0.87325 0
M  V30 224 C 23.2595 0.500276 3.53881 0
M  V30 225 C 23.0885 1.92942 4.06206 0
M  V30 226 C 21.8585 2.55637 4.35865 0
M  V30 227 C 24.0565 2.89307 4.25213 0
M  V30 228 N 22.0385 3.9003 4.74078 0
M  V30 229 C 23.4095 4.08556 4.66349 0
M  V30 230 C 25.4645 2.86225 4.07406 0
M  V30 231 C 24.1675 5.25146 4.91543 0
M  V30 232 C 26.1935 4.02011 4.33752 0
M  V30 233 C 25.5555 5.20007 4.75155 0
M  V30 234 H 21.6545 0.189252 0.758754 0
M  V30 235 H 24.2385 1.03988 1.64604 0
M  V30 236 H 22.4095 -0.122568 3.88207 0
M  V30 237 H 24.1415 0.0624733 4.04652 0
M  V30 238 H 20.8965 2.07039 4.25948 0
M  V30 239 H 21.3205 4.59205 4.97454 0
M  V30 240 H 25.9625 1.96154 3.74544 0
M  V30 241 H 23.6805 6.15794 5.23281 0
M  V30 242 H 27.2665 4.00999 4.21534 0
M  V30 243 H 26.1465 6.08113 4.95145 0
M  V30 244 N 23.6496 -1.47581 0.552962 0
M  V30 245 C 24.5996 -2.26961 -0.217423 0
M  V30 246 C 25.5836 -1.34099 -0.889168 0
M  V30 247 O 26.7756 -1.58483 -0.788176 0
M  V30 248 C 23.9046 -3.19756 -1.24944 0
M  V30 249 C 22.9906 -4.20097 -0.581327 0
M  V30 250 N 23.3816 -5.04614 0.346171 0
M  V30 251 C 21.6796 -4.38099 -0.835767 0
M  V30 252 C 22.3806 -5.77052 0.733854 0
M  V30 253 N 21.3566 -5.43526 0.0896567 0
M  V30 254 H 25.1586 -2.89688 0.495761 0
M  V30 255 H 22.6726 -1.58068 0.372597 0
M  V30 256 H 24.6696 -3.75305 -1.81527 0
M  V30 257 H 23.3296 -2.58585 -1.96376 0
M  V30 258 H 24.3406 -5.12869 0.720098 0
M  V30 259 H 21.0176 -3.88102 -1.53892 0
M  V30 260 H 22.4076 -6.5504 1.49574 0
M  V30 261 N 25.1277 -0.289203 -1.54924 0
M  V30 262 C 26.0377 0.601863 -2.26748 0
M  V30 263 C 27.0537 1.15834 -1.2984 0
M  V30 264 O 28.2297 1.18564 -1.62802 0
M  V30 265 C 25.2947 1.76299 -2.98529 0
M  V30 266 C 24.3557 1.24178 -4.10948 0
M  V30 267 C 23.5887 2.34757 -4.79296 0
M  V30 268 O 23.8117 3.54411 -4.46933 0
M  V30 269 O 22.7457 2.02115 -5.66951 0
M  V30 270 H 26.5717 0.0195879 -3.03694 0
M  V30 271 H 24.1567 -0.0560868 -1.49295 0
M  V30 272 H 26.0387 2.43973 -3.43592 0
M  V30 273 H 24.7137 2.33209 -2.24488 0
M  V30 274 H 23.6207 0.531104 -3.70311 0
M  V30 275 H 24.9537 0.718252 -4.86931 0
M  V30 276 N 26.6058 1.57591 -0.0167156 0
M  V30 277 C 27.5358 2.12496 0.967858 0
M  V30 278 C 28.5168 1.03807 1.34752 0
M  V30 279 O 29.7018 1.31577 1.42833 0
M  V30 280 C 26.8318 2.64194 2.25431 0
M  V30 281 C 25.7858 3.77559 2.01576 0
M  V30 282 C 25.1118 4.15636 3.36379 0
M  V30 283 C 26.4118 5.04151 1.36489 0
M  V30 284 H 28.1058 2.95013 0.510643 0
M  V30 285 H 25.6518 1.41915 0.244181 0
M  V30 286 H 27.6048 3.01236 2.94678 0
M  V30 287 H 26.3288 1.78821 2.73296 0
M  V30 288 H 24.9878 3.40937 1.34751 0
M  V30 289 H 24.6358 3.27263 3.81979 0
M  V30 290 H 24.3358 4.92022 3.21229 0
M  V30 291 H 25.8598 4.5525 4.06915 0
M  V30 292 H 27.2738 5.38857 1.95718 0
M  V30 293 H 25.6708 5.85453 1.31776 0
M  V30 294 H 26.7408 4.83733 0.336219 0
M  V30 295 N 28.0839 -0.256276 1.55502 0
M  V30 296 C 29.3309 -0.985619 1.76895 0
M  V30 297 C 29.6589 -1.85671 0.579355 0
M  V30 298 O 28.9139 -1.90744 -0.437651 0
M  V30 299 C 29.2129 -1.88432 3.03691 0
M  V30 300 C 28.8789 -1.16936 4.35473 0
M  V30 301 C 27.5409 -0.97173 4.71286 0
M  V30 302 C 29.8929 -0.661889 5.1698 0
M  V30 303 C 27.2209 -0.254179 5.86149 0
M  V30 304 C 29.5729 0.042149 6.32586 0
M  V30 305 C 28.2369 0.25134 6.67027 0
M  V30 306 H 27.5069 -0.360663 0.647304 0
M  V30 307 H 30.1539 -0.256483 1.89775 0
M  V30 308 H 28.4589 -2.68021 2.85783 0
M  V30 309 H 30.1559 -2.45015 3.1744 0
M  V30 310 H 26.7459 -1.33332 4.07333 0
M  V30 311 H 30.9299 -0.802145 4.89775 0
M  V30 312 H 26.1859 -0.0815408 6.11346 0
M  V30 313 H 30.3599 0.443049 6.94989 0
M  V30 314 H 27.9869 0.809314 7.5588 0
M  V30 315 N 29.562 -1.4872 -0.521534 0
M  V30 316 C 30.973 -1.50607 -1.10337 0
M  V30 317 C 31.324 -0.280612 -1.94183 0
M  V30 318 O 30.449 0.611507 -2.0758 0
M  V30 319 C 31.044 -2.72903 -2.00772 0
M  V30 320 C 29.603 -2.77634 -2.54158 0
M  V30 321 C 28.75 -2.44241 -1.31307 0
M  V30 322 H 31.701 -1.55714 -0.306388 0
M  V30 323 H 31.722 -2.519 -2.85178 0
M  V30 324 H 31.234 -3.62077 -1.39721 0
M  V30 325 H 29.335 -1.92689 -3.18907 0
M  V30 326 H 29.448 -3.79283 -2.92714 0
M  V30 327 H 27.812 -1.95577 -1.63161 0
M  V30 328 H 28.595 -3.35666 -0.719943 0
M  V30 329 N 31.0401 0.771051 -1.3745 0
M  V30 330 C 31.9881 1.90574 -1.33358 0
M  V30 331 C 32.9821 1.67936 -0.22224 0
M  V30 332 O 34.1881 1.75717 -0.390304 0
M  V30 333 H 30.5631 0.626714 -0.415612 0
M  V30 334 H 32.5341 1.91142 -2.29144 0
M  V30 335 C 31.2831 3.27845 -1.15813 0
M  V30 336 H 30.6061 3.45842 -2.00583 0
M  V30 337 H 32.0461 4.07538 -1.17 0
M  V30 338 C 30.5051 3.36625 0.136165 0
M  V30 339 O 31.0351 3.85785 1.11949 0
M  V30 340 N 29.2411 2.89997 0.187099 0
M  V30 341 H 28.7881 2.50182 -0.613753 0
M  V30 342 H 28.7461 2.96252 1.05272 0
M  V30 343 N 32.5182 1.22032 0.997298 0
M  V30 344 C 33.4812 0.987909 2.06816 0
M  V30 345 C 34.4812 -0.0440084 1.6074 0
M  V30 346 O 35.6712 0.194053 1.73116 0
M  V30 347 C 32.8032 0.49132 3.37341 0
M  V30 348 H 33.9962 1.93803 2.28868 0
M  V30 349 H 31.5492 1.03838 1.16822 0
M  V30 350 H 32.2842 -0.463364 3.20973 0
M  V30 351 H 32.0692 1.23575 3.72118 0
M  V30 352 H 33.5592 0.348824 4.16141 0
M  V30 353 N 33.9963 -1.19345 1.0293 0
M  V30 354 C 34.9433 -2.2258 0.610464 0
M  V30 355 C 35.9133 -1.6179 -0.375946 0
M  V30 356 O 37.0983 -1.88844 -0.272511 0
M  V30 357 C 34.2383 -3.45085 -0.0321473 0
M  V30 358 C 33.3513 -4.20258 1.00035 0
M  V30 359 C 32.4863 -5.3019 0.32746 0
M  V30 360 C 31.5253 -5.97121 1.34584 0
M  V30 361 N 30.6623 -6.98615 0.698726 0
M  V30 362 H 35.5023 -2.57764 1.49538 0
M  V30 363 H 33.0393 -1.26644 0.748311 0
M  V30 364 H 34.9973 -4.15061 -0.421966 0
M  V30 365 H 33.6273 -3.10555 -0.88064 0
M  V30 366 H 32.6793 -3.49223 1.50823 0
M  V30 367 H 33.9913 -4.66175 1.77433 0
M  V30 368 H 33.1453 -6.06587 -0.11718 0
M  V30 369 H 31.8843 -4.85345 -0.478713 0
M  V30 370 H 30.8893 -5.19474 1.80074 0
M  V30 371 H 32.1143 -6.4405 2.15352 0
M  V30 372 H 30.0603 -6.55942 -0.0873471 0
M  V30 373 H 29.9773 -7.42724 1.41058 0
M  V30 374 H 31.2453 -7.79004 0.278102 0
M  V30 375 N 35.4744 -0.807222 -1.35358 0
M  V30 376 C 36.7224 -0.387122 -1.98358 0
M  V30 377 C 37.0434 1.04942 -1.64354 0
M  V30 378 O 36.3134 1.72615 -0.926339 0
M  V30 379 H 34.8934 -0.140154 -0.733734 0
M  V30 380 H 37.5554 -1.0332 -1.6526 0
M  V30 381 H 36.6514 -0.493352 -3.08176 0
M  V30 382 N 36.9525 1.47285 -0.560781 0
M  V30 383 C 37.8625 2.33846 0.187954 0
M  V30 384 C 38.8785 1.48412 0.908293 0
M  V30 385 O 40.0545 1.81332 0.876388 0
M  V30 386 C 37.1195 3.25178 1.2025 0
M  V30 387 C 36.1805 4.26504 0.489208 0
M  V30 388 C 35.4135 5.13472 1.45542 0
M  V30 389 O 35.6365 5.02959 2.6905 0
M  V30 390 O 34.5705 5.93902 0.977963 0
M  V30 391 H 38.3965 2.99177 -0.522177 0
M  V30 392 H 35.9815 1.45903 -0.321364 0
M  V30 393 H 37.8635 3.81584 1.78805 0
M  V30 394 H 36.5385 2.6247 1.89449 0
M  V30 395 H 35.4455 3.73847 -0.137627 0
M  V30 396 H 36.7785 4.91935 -0.161399 0
M  V30 397 N 38.4306 0.297415 1.54768 0
M  V30 398 C 39.3786 -0.596051 2.24833 0
M  V30 399 C 40.3726 -1.13992 1.25308 0
M  V30 400 O 41.5786 -1.09098 1.4317 0
M  V30 401 H 37.9536 -0.210814 0.721846 0
M  V30 402 H 39.9246 0.0174667 2.98395 0
M  V30 403 C 38.6736 -1.75818 2.99972 0
M  V30 404 H 37.9966 -1.3489 3.76357 0
M  V30 405 H 39.4366 -2.35949 3.52284 0
M  V30 406 C 37.8956 -2.66014 2.06732 0
M  V30 407 O 38.4256 -3.67009 1.63302 0
M  V30 408 N 36.6316 -2.33669 1.72763 0
M  V30 409 H 36.1786 -1.51586 2.08277 0
M  V30 410 H 36.1366 -2.94285 1.10652 0
M  V30 411 N 39.9087 -1.5758 0.0250728 0
M  V30 412 C 40.8407 -2.06869 -0.986796 0
M  V30 413 C 41.8537 -0.991332 -1.29137 0
M  V30 414 O 43.0427 -1.26761 -1.25674 0
M  V30 415 C 40.1427 -2.47486 -2.31525 0
M  V30 416 C 39.3157 -3.78253 -2.19643 0
M  V30 417 C 38.3747 -4.05464 -3.35388 0
M  V30 418 O 37.4007 -4.75774 -3.12454 0
M  V30 419 N 38.6027 -3.55321 -4.59051 0
M  V30 420 H 41.3677 -2.94302 -0.566276 0
M  V30 421 H 38.9287 -1.6109 -0.161776 0
M  V30 422 H 40.9207 -2.62785 -3.07776 0
M  V30 423 H 39.4907 -1.65441 -2.65232 0
M  V30 424 H 38.7107 -3.7279 -1.28144 0
M  V30 425 H 39.9987 -4.63936 -2.08903 0
M  V30 426 H 39.3967 -2.98431 -4.80578 0
M  V30 427 H 37.9537 -3.75905 -5.32483 0
M  V30 428 N 41.3868 0.248026 -1.55636 0
M  V30 429 C 42.6118 0.998028 -1.81808 0
M  V30 430 C 43.0368 1.78207 -0.601979 0
M  V30 431 O 42.3948 1.75653 0.448961 0
M  V30 432 C 42.4428 1.9125 -3.05705 0
M  V30 433 O 41.5468 3.00406 -2.82542 0
M  V30 434 H 40.8878 0.284045 -0.600179 0
M  V30 435 H 43.4178 0.269357 -2.02819 0
M  V30 436 H 43.4278 2.32737 -3.35108 0
M  V30 437 H 42.1028 1.33602 -3.93857 0
M  V30 438 H 40.6798 2.63056 -2.64303 0
M  V30 439 N 42.8649 1.48995 0.513639 0
M  V30 440 C 44.2759 1.5119 1.09537 0
M  V30 441 C 44.6269 0.290906 1.94031 0
M  V30 442 O 43.7519 -0.60049 2.07902 0
M  V30 443 C 44.3469 2.73964 1.99322 0
M  V30 444 C 42.9059 2.78978 2.52682 0
M  V30 445 C 42.0529 2.44934 1.30009 0
M  V30 446 H 45.0039 1.55875 0.298125 0
M  V30 447 H 45.0249 2.53409 2.83838 0
M  V30 448 H 44.5369 3.62813 1.37799 0
M  V30 449 H 42.6379 1.94378 3.1788 0
M  V30 450 H 42.7509 3.8083 2.90698 0
M  V30 451 H 41.1149 1.9644 1.62122 0
M  V30 452 H 41.8979 3.36043 0.702131 0
M  V30 453 N 44.343 -0.763751 1.37857 0
M  V30 454 C 45.589 -1.52483 1.33704 0
M  V30 455 C 45.922 -1.94051 -0.0759612 0
M  V30 456 O 45.197 -1.64675 -1.03501 0
M  V30 457 C 45.48 -2.78441 2.28348 0
M  V30 458 C 45.333 -2.43075 3.78463 0
M  V30 459 C 46.652 -3.80415 2.21298 0
M  V30 460 H 43.771 -0.553169 0.487005 0
M  V30 461 H 46.413 -0.875562 1.68624 0
M  V30 462 H 44.563 -3.33842 1.987 0
M  V30 463 H 46.235 -1.93527 4.18742 0
M  V30 464 H 44.478 -1.75666 3.96641 0
M  V30 465 H 45.149 -3.33149 4.40132 0
M  V30 466 H 47.625 -3.34527 2.47449 0
M  V30 467 H 46.501 -4.66257 2.89647 0
M  V30 468 H 46.762 -4.25262 1.20849 0
M  V30 469 N 45.8211 -1.22559 -0.990812 0
M  V30 470 C 46.7311 -1.01394 -2.11557 0
M  V30 471 C 47.7471 0.0383962 -1.73958 0
M  V30 472 O 48.9231 -0.154787 -2.00804 0
M  V30 473 C 45.9881 -0.596569 -3.41529 0
M  V30 474 C 45.0491 -1.72276 -3.93217 0
M  V30 475 C 44.2821 -1.32521 -5.16985 0
M  V30 476 O 44.5051 -0.204909 -5.70032 0
M  V30 477 O 43.4391 -2.14247 -5.62478 0
M  V30 478 H 47.2651 -1.95633 -2.32296 0
M  V30 479 H 44.8501 -1.01172 -1.0993 0
M  V30 480 H 46.7321 -0.374263 -4.19735 0
M  V30 481 H 45.4071 0.316939 -3.22145 0
M  V30 482 H 44.3141 -1.99961 -3.16174 0
M  V30 483 H 45.6471 -2.61421 -4.17037 0
M  V30 484 N 47.2992 1.18797 -1.03562 0
M  V30 485 C 48.2292 2.24472 -0.643019 0
M  V30 486 C 49.2102 1.66433 0.351283 0
M  V30 487 O 50.3952 1.92803 0.232505 0
M  V30 488 C 47.5252 3.473 4.24935e-05 0
M  V30 489 C 46.4792 4.18055 -0.917257 0
M  V30 490 C 45.8052 5.34519 -0.138941 0
M  V30 491 C 47.1052 4.72109 -2.23407 0
M  V30 492 H 48.7992 2.57566 -1.52643 0
M  V30 493 H 46.3452 1.23806 -0.735394 0
M  V30 494 H 48.2982 4.20426 0.286383 0
M  V30 495 H 47.0222 3.13424 0.918299 0
M  V30 496 H 45.6812 3.46821 -1.1879 0
M  V30 497 H 45.3292 4.96891 0.781562 0
M  V30 498 H 45.0292 5.82794 -0.750005 0
M  V30 499 H 46.5532 6.10438 0.1405 0
M  V30 500 H 47.9672 5.36955 -2.00879 0
M  V30 501 H 46.3642 5.30897 -2.79765 0
M  V30 502 H 47.4342 3.89807 -2.88407 0
M  V30 503 N 48.7773 0.814389 1.34928 0
M  V30 504 C 49.7273 0.202752 2.27097 0
M  V30 505 C 50.7113 -0.62799 1.48139 0
M  V30 506 O 51.9033 -0.483969 1.70255 0
M  V30 507 C 49.0323 -0.64146 3.37254 0
M  V30 508 C 48.1183 0.19944 4.23631 0
M  V30 509 N 48.5093 1.26628 4.89693 0
M  V30 510 C 46.8073 -0.0176433 4.45997 0
M  V30 511 C 47.5083 1.78031 5.53787 0
M  V30 512 N 46.4843 1.08553 5.32651 0
M  V30 513 H 50.2863 1.01893 2.75672 0
M  V30 514 H 47.8003 0.656332 1.48546 0
M  V30 515 H 49.7973 -1.09575 4.02243 0
M  V30 516 H 48.4573 -1.4559 2.9023 0
M  V30 517 H 49.4683 1.64901 4.90946 0
M  V30 518 H 46.1453 -0.800601 4.09752 0
M  V30 519 H 47.5353 2.67236 6.16469 0
M  V30 520 N 50.2554 -1.46986 0.568584 0
M  V30 521 C 51.4834 -2.0683 0.0539956 0
M  V30 522 C 51.8984 -1.41953 -1.24478 0
M  V30 523 O 51.2554 -0.519933 -1.74937 0
M  V30 524 C 51.3064 -3.61254 -0.133362 0
M  V30 525 O 51.0274 -4.237 1.11399 0
M  V30 526 C 52.5284 -4.37992 -0.683927 0
M  V30 527 H 49.7484 -0.669058 0.0510141 0
M  V30 528 H 52.2924 -1.88824 0.785234 0
M  V30 529 H 50.4474 -3.78735 -0.81477 0
M  V30 530 H 50.8614 -5.16388 0.91888 0
M  V30 531 H 52.3354 -5.46684 -0.764263 0
M  V30 532 H 52.8124 -4.05058 -1.69778 0
M  V30 533 H 53.4184 -4.25283 -0.0378494 0
M  V30 534 N 51.7335 -0.305618 -1.54608 0
M  V30 535 C 52.6805 0.568421 -2.23691 0
M  V30 536 C 53.6505 1.12592 -1.22116 0
M  V30 537 O 54.8355 1.16959 -1.50749 0
M  V30 538 C 51.9755 1.7322 -2.98477 0
M  V30 539 C 51.0885 1.20566 -4.14835 0
M  V30 540 C 50.2235 2.33368 -4.77193 0
M  V30 541 C 49.2625 1.7787 -5.85686 0
M  V30 542 N 48.3995 2.84263 -6.4198 0
M  V30 543 H 53.2395 -0.0272867 -2.97988 0
M  V30 544 H 50.7765 -0.0252363 -1.47078 0
M  V30 545 H 52.7345 2.41675 -3.40072 0
M  V30 546 H 51.3645 2.29947 -2.26548 0
M  V30 547 H 50.4165 0.413223 -3.78149 0
M  V30 548 H 51.7285 0.759417 -4.92985 0
M  V30 549 H 50.8825 3.09761 -5.21664 0
M  V30 550 H 49.6215 2.8132 -3.98385 0
M  V30 551 H 48.6265 0.99968 -5.40635 0
M  V30 552 H 49.8515 1.30816 -6.66381 0
M  V30 553 H 47.7975 3.31541 -5.66053 0
M  V30 554 H 47.7145 2.44149 -7.15491 0
M  V30 555 H 48.9825 3.6054 -6.91109 0
M  V30 556 N 53.2116 1.57565 -0.0334293 0
M  V30 557 C 54.4886 1.83282 0.683163 0
M  V30 558 C 54.8686 0.91823 1.90084 0
M  V30 559 O 54.2166 -0.025113 2.28486 0
M  V30 560 C 54.4266 3.32599 1.0573 0
M  V30 561 C 55.7746 3.99179 1.44711 0
M  V30 562 O 56.7986 3.3712 1.15015 0
M  V30 563 O 55.6576 5.08565 2.0006 0
M  V30 564 H 52.7516 0.755869 0.335546 0
M  V30 565 H 55.2976 1.69589 -0.0614402 0
M  V30 566 H 54.0696 3.90834 0.190828 0
M  V30 567 H 53.6926 3.51415 1.85993 0
M  V30 568 N 54.6897 -0.239769 1.55765 0
M  V30 569 C 55.9387 -0.964754 1.77131 0
M  V30 570 C 56.2517 -1.86213 0.59868 0
M  V30 571 O 57.4577 -2.6244 0.695522 0
M  V30 572 C 55.9137 -1.76552 3.1362 0
M  V30 573 C 55.5217 -0.915185 4.38553 0
M  V30 574 C 57.2657 -2.48281 3.44321 0
M  V30 575 C 55.1727 -1.71225 5.66071 0
M  V30 576 H 54.1027 -0.363953 0.660344 0
M  V30 577 H 56.7537 -0.219181 1.82186 0
M  V30 578 H 55.1357 -2.55331 3.02691 0
M  V30 579 H 56.3097 -0.169217 4.60489 0
M  V30 580 H 54.6247 -0.310889 4.15238 0
M  V30 581 H 57.2217 -3.08382 4.36812 0
M  V30 582 H 57.5647 -3.20256 2.65973 0
M  V30 583 H 58.0977 -1.76507 3.56497 0
M  V30 584 H 54.8367 -1.03612 6.4726 0
M  V30 585 H 54.3567 -2.43331 5.48224 0
M  V30 586 H 56.0357 -2.27758 6.05587 0
M  V30 587 N 56.1678 -1.49265 -0.50573 0
M  V30 588 C 57.5838 -1.35923 -0.836486 0
M  V30 589 C 57.7838 -0.388704 -1.97715 0
M  V30 590 O 56.8398 0.181336 -2.51848 0
M  V30 591 C 58.1528 -2.76531 -1.18115 0
M  V30 592 C 59.7008 -2.85197 -1.28964 0
M  V30 593 C 60.1758 -4.26561 -1.66761 0
M  V30 594 N 61.6668 -4.2935 -1.73819 0
M  V30 595 C 62.4018 -5.35693 -2.045 0
M  V30 596 N 61.8978 -6.52287 -2.33438 0
M  V30 597 N 63.6908 -5.23105 -2.05711 0
M  V30 598 H 55.8418 -2.10965 0.246519 0
M  V30 599 H 58.1048 -0.9468 0.0476887 0
M  V30 600 H 57.8108 -3.49226 -0.416398 0
M  V30 601 H 57.6848 -3.11599 -2.1257 0
M  V30 602 H 60.0718 -2.12742 -2.04511 0
M  V30 603 H 60.1528 -2.53718 -0.325704 0
M  V30 604 H 59.7968 -4.99541 -0.917656 0
M  V30 605 H 59.7268 -4.55502 -2.64246 0
M  V30 606 H 62.2178 -3.4526 -1.53635 0
M  V30 607 H 62.5308 -7.29158 -2.56024 0
M  V30 608 H 60.8758 -6.55521 -2.30905 0
M  V30 609 H 64.0668 -4.31026 -1.82577 0
M  V30 610 H 64.2398 -6.06078 -2.29289 0
M  V30 611 N 57.6459 0.756429 -1.3826 0
M  V30 612 C 58.5959 1.86069 -1.31766 0
M  V30 613 C 59.5799 1.59621 -0.202483 0
M  V30 614 O 60.7719 1.7149 -0.438211 0
M  V30 615 C 57.9009 3.23742 -1.1422 0
M  V30 616 C 56.9869 3.56091 -2.30348 0
M  V30 617 N 57.3779 3.59517 -3.55783 0
M  V30 618 C 55.6759 3.86341 -2.22838 0
M  V30 619 C 56.3769 3.89052 -4.32451 0
M  V30 620 N 55.3529 4.05736 -3.61772 0
M  V30 621 H 59.1549 1.86992 -2.26741 0
M  V30 622 H 56.6689 0.953643 -1.31451 0
M  V30 623 H 58.6659 4.02761 -1.07652 0
M  V30 624 H 57.3259 3.24073 -0.201763 0
M  V30 625 H 58.3369 3.41347 -3.89491 0
M  V30 626 H 55.0139 3.94404 -1.36937 0
M  V30 627 H 56.4039 3.98349 -5.4108 0
M  V30 628 N 59.124 1.23083 0.984299 0
M  V30 629 C 60.401 0.9689 1.69917 0
M  V30 630 C 60.781 -0.513604 2.04757 0
M  V30 631 O 60.129 -1.48383 1.73767 0
M  V30 632 C 60.339 1.87518 2.94343 0
M  V30 633 C 61.687 2.13636 3.6694 0
M  V30 634 O 62.711 1.85036 3.04368 0
M  V30 635 O 61.57 2.62119 4.79537 0
M  V30 636 H 58.664 0.365095 0.742048 0
M  V30 637 H 61.21 1.34107 1.03987 0
M  V30 638 H 59.982 2.87756 2.65164 0
M  V30 639 H 59.605 1.50514 3.6801 0
M  V30 640 N 60.6021 -1.18246 1.0419 0
M  V30 641 C 62.0131 -1.69914 0.773698 0
M  V30 642 C 62.3641 -1.83085 -0.705297 0
M  V30 643 O 61.4891 -1.51123 -1.5489 0
M  V30 644 C 62.0841 -3.08619 1.39784 0
M  V30 645 C 60.6431 -3.57494 1.17792 0
M  V30 646 C 59.7901 -2.34013 1.48773 0
M  V30 647 H 62.7411 -1.02904 1.20816 0
M  V30 648 H 62.7621 -3.71958 0.801714 0
M  V30 649 H 62.2741 -2.99001 2.47426 0
M  V30 650 H 60.3751 -3.72406 0.120295 0
M  V30 651 H 60.4881 -4.40852 1.87581 0
M  V30 652 H 58.8521 -2.37986 0.907463 0
M  V30 653 H 59.6351 -2.27013 2.57527 0
M  V30 654 N 62.0802 -0.821533 -1.34494 0
M  V30 655 C 63.3052 -0.420873 -2.03085 0
M  V30 656 C 63.7302 0.964915 -1.61465 0
M  V30 657 O 63.0882 1.62763 -0.798607 0
M  V30 658 C 63.1362 -0.529414 -3.56693 0
M  V30 659 O 62.2402 0.451302 -4.09923 0
M  V30 660 H 61.5812 -0.173489 -0.640935 0
M  V30 661 H 64.1112 -1.11157 -1.71771 0
M  V30 662 H 64.1212 -0.404671 -4.05988 0
M  V30 663 H 62.7962 -1.54014 -3.86332 0
M  V30 664 H 61.3732 0.285558 -3.71805 0
M  V30 665 N 63.5583 1.46682 -0.576371 0
M  V30 666 C 64.4883 2.33028 0.148397 0
M  V30 667 C 65.4693 1.44961 0.889956 0
M  V30 668 O 66.6543 1.73789 0.866662 0
M  V30 669 C 63.7843 3.27117 1.1667 0
M  V30 670 C 62.7383 4.24575 0.540386 0
M  V30 671 C 62.0643 5.08126 1.6647 0
M  V30 672 C 63.3643 5.19722 -0.518331 0
M  V30 673 H 65.0583 2.93875 -0.572509 0
M  V30 674 H 62.6043 1.41315 -0.276768 0
M  V30 675 H 64.5573 3.86374 1.68204 0
M  V30 676 H 63.2813 2.64364 1.9178 0
M  V30 677 H 61.9403 3.66571 0.0461769 0
M  V30 678 H 61.5883 4.41762 2.40531 0
M  V30 679 H 61.2883 5.74122 1.25131 0
M  V30 680 H 62.8123 5.70246 2.18293 0
M  V30 681 H 64.2263 5.73232 -0.0883058 0
M  V30 682 H 62.6233 5.94026 -0.851679 0
M  V30 683 H 63.6933 4.64037 -1.40703 0
M  V30 684 N 65.0364 0.313813 1.54444 0
M  V30 685 C 65.9684 -0.590425 2.21465 0
M  V30 686 C 66.9814 -1.08753 1.21147 0
M  V30 687 O 68.1704 -1.00278 1.4767 0
M  V30 688 C 65.2704 -1.82179 2.85769 0
M  V30 689 C 64.4434 -1.46502 4.12136 0
M  V30 690 C 63.5024 -2.55288 4.60124 0
M  V30 691 O 62.5284 -2.19842 5.25032 0
M  V30 692 N 63.7304 -3.86053 4.33525 0
M  V30 693 H 66.4954 -0.0166033 2.99695 0
M  V30 694 H 64.0564 0.136578 1.61323 0
M  V30 695 H 66.0484 -2.54328 3.14801 0
M  V30 696 H 64.6184 -2.30369 2.11303 0
M  V30 697 H 63.8384 -0.575595 3.89975 0
M  V30 698 H 65.1264 -1.20221 4.94393 0
M  V30 699 H 64.5244 -4.17654 3.81552 0
M  V30 700 H 63.0814 -4.54461 4.67235 0
M  V30 701 N 66.5145 -1.57545 0.0417849 0
M  V30 702 C 67.9255 -1.80011 -0.495259 0
M  V30 703 C 68.2765 -0.953199 -1.71489 0
M  V30 704 O 67.4015 -0.167138 -2.15754 0
M  V30 705 C 67.9965 -3.26482 -0.905265 0
M  V30 706 C 66.5555 -3.499 -1.38734 0
M  V30 707 C 65.7025 -2.74979 -0.358056 0
M  V30 708 H 68.6535 -1.56425 0.267736 0
M  V30 709 H 68.6745 -3.36887 -1.76882 0
M  V30 710 H 68.1865 -3.88096 -0.017401 0
M  V30 711 H 66.2875 -2.93553 -2.29471 0
M  V30 712 H 66.4005 -4.58615 -1.38598 0
M  V30 713 H 64.7645 -2.40834 -0.828912 0
M  V30 714 H 65.5475 -3.39315 0.521561 0
M  V30 715 N 67.9926 0.231505 -1.5589 0
M  V30 716 C 69.2386 0.954429 -1.79617 0
M  V30 717 C 69.5936 1.82367 -0.613199 0
M  V30 718 O 68.8866 1.87524 0.393094 0
M  V30 719 C 69.0806 1.83577 -3.0665 0
M  V30 720 C 68.9096 1.05334 -4.3719 0
M  V30 721 C 67.6796 0.75225 -4.99669 0
M  V30 722 C 69.8776 0.423444 -5.12554 0
M  V30 723 N 67.8596 -0.052627 -6.13877 0
M  V30 724 C 69.2306 -0.245287 -6.19515 0
M  V30 725 C 71.2856 0.335466 -4.96769 0
M  V30 726 C 69.9886 -0.993566 -7.12405 0
M  V30 727 C 72.0146 -0.399321 -5.9005 0
M  V30 728 C 71.3766 -1.05663 -6.9643 0
M  V30 729 H 67.4756 0.329846 -0.709031 0
M  V30 730 H 70.0596 0.226172 -1.93382 0
M  V30 731 H 68.2306 2.53592 -2.94186 0
M  V30 732 H 69.9626 2.49541 -3.18608 0
M  V30 733 H 66.7176 1.06783 -4.61405 0
M  V30 734 H 67.1416 -0.443609 -6.75545 0
M  V30 735 H 71.7836 0.829311 -4.14587 0
M  V30 736 H 69.5016 -1.49896 -7.94076 0
M  V30 737 H 73.0876 -0.468265 -5.79913 0
M  V30 738 H 71.9676 -1.61612 -7.67366 0
M  V30 739 N 69.4707 1.49531 0.497807 0
M  V30 740 C 70.6957 1.63159 1.28039 0
M  V30 741 C 71.1207 0.30418 1.85624 0
M  V30 742 O 70.4787 -0.728618 1.66015 0
M  V30 743 C 70.5267 2.70537 2.38416 0
M  V30 744 O 69.6307 2.29931 3.42353 0
M  V30 745 H 68.9717 0.546001 0.377861 0
M  V30 746 H 71.5017 1.9574 0.59558 0
M  V30 747 H 71.5117 2.92802 2.84132 0
M  V30 748 H 70.1867 3.6689 1.95869 0
M  V30 749 H 68.7637 2.18009 3.02533 0
M  V30 750 N 70.9488 -0.749086 1.3866 0
M  V30 751 C 72.1948 -1.51056 1.35314 0
M  V30 752 C 72.5278 -1.94121 -0.0553751 0
M  V30 753 O 71.8028 -1.65763 -1.01749 0
M  V30 754 C 72.0858 -2.76003 2.31288 0
M  V30 755 C 71.9388 -2.39047 3.8102 0
M  V30 756 C 73.2578 -3.78046 2.2532 0
M  V30 757 H 70.3768 -0.547972 0.492844 0
M  V30 758 H 73.0188 -0.857628 1.69543 0
M  V30 759 H 71.1688 -3.31716 2.02229 0
M  V30 760 H 72.8408 -1.89074 4.20771 0
M  V30 761 H 71.0838 -1.71449 3.98482 0
M  V30 762 H 71.7548 -3.28462 4.4364 0
M  V30 763 H 74.2308 -3.31884 2.50983 0
M  V30 764 H 73.1068 -4.63159 2.94576 0
M  V30 765 H 73.3678 -4.23957 1.25352 0
M  V30 766 N 72.4269 -1.23603 -0.977757 0
M  V30 767 C 73.6519 -1.09735 -1.75991 0
M  V30 768 C 74.0769 0.346858 -1.84874 0
M  V30 769 O 73.4349 1.25093 -1.3123 0
M  V30 770 C 73.4829 -1.73051 -3.16363 0
M  V30 771 O 72.5869 -0.994452 -4.0023 0
M  V30 772 H 71.9279 -0.384476 -0.541364 0
M  V30 773 H 74.4579 -1.6371 -1.2272 0
M  V30 774 H 74.4679 -1.78398 -3.66931 0
M  V30 775 H 73.1429 -2.78137 -3.09213 0
M  V30 776 H 71.7199 -1.01812 -3.58732 0
M  V30 777 N 73.905 1.17692 -1.04816 0
M  V30 778 C 75.135 1.91508 -0.775128 0
M  V30 779 C 75.543 1.76844 0.67253 0
M  V30 780 O 74.886 1.10057 1.47082 0
M  V30 781 C 74.948 3.43167 -1.0713 0
M  V30 782 C 74.612 3.81612 -2.51438 0
M  V30 783 C 75.609 3.84772 -3.49638 0
M  V30 784 C 73.294 4.12687 -2.86348 0
M  V30 785 C 75.288 4.18469 -4.80794 0
M  V30 786 C 72.975 4.46053 -4.17708 0
M  V30 787 C 73.973 4.48921 -5.14741 0
M  V30 788 O 73.661 4.81504 -6.43746 0
M  V30 789 H 73.393 0.614575 -0.281555 0
M  V30 790 H 75.947 1.50206 -1.40098 0
M  V30 791 H 74.177 3.84745 -0.388342 0
M  V30 792 H 75.866 3.98239 -0.784883 0
M  V30 793 H 76.632 3.60893 -3.24008 0
M  V30 794 H 72.511 4.09627 -2.11486 0
M  V30 795 H 76.055 4.20623 -5.56527 0
M  V30 796 H 71.952 4.69393 -4.43103 0
M  V30 797 H 72.72 4.99377 -6.4851 0
M  V30 798 N 75.3831 0.828654 1.34056 0
M  V30 799 C 76.6601 0.341809 1.9259 0
M  V30 800 C 77.0401 -1.17158 1.75605 0
M  V30 801 O 76.3881 -1.98132 1.13824 0
M  V30 802 C 76.5981 0.777453 3.4023 0
M  V30 803 C 77.9461 0.779579 4.17382 0
M  V30 804 O 78.9701 0.7204 3.48839 0
M  V30 805 O 77.8291 0.857996 5.39723 0
M  V30 806 H 74.9231 0.0946085 0.821571 0
M  V30 807 H 77.4691 0.913827 1.42994 0
M  V30 808 H 76.2411 1.8196 3.46419 0
M  V30 809 H 75.8641 0.181444 3.97186 0
M  V30 810 N 76.8612 -1.46375 0.584142 0
M  V30 811 C 78.1092 -2.01978 0.0701287 0
M  V30 812 C 78.4302 -1.4579 -1.295 0
M  V30 813 O 77.7002 -0.64314 -1.85042 0
M  V30 814 H 76.2802 -0.746648 0.0229345 0
M  V30 815 H 78.9422 -1.79461 0.760245 0
M  V30 816 H 78.0382 -3.121 0.0022064 0
M  V30 817 N 78.3393 -0.321999 -1.54275 0
M  V30 818 C 79.5873 0.280489 -2.00144 0
M  V30 819 C 79.9083 1.52777 -1.21178 0
M  V30 820 O 79.1783 1.9338 -0.313187 0
M  V30 821 H 77.7583 0.106632 -0.73935 0
M  V30 822 H 80.4203 -0.438184 -1.8991 0
M  V30 823 H 79.5163 0.537972 -3.07428 0
M  V30 824 N 79.8174 1.5752 -0.0501392 0
M  V30 825 C 81.0424 1.97376 0.636997 0
M  V30 826 C 81.4674 0.927466 1.63645 0
M  V30 827 O 80.8254 -0.10941 1.8097 0
M  V30 828 C 80.8734 3.36304 1.30123 0
M  V30 829 O 79.9774 3.34156 2.41689 0
M  V30 830 H 79.3184 0.642998 0.165679 0
M  V30 831 H 81.8484 2.04258 -0.118233 0
M  V30 832 H 81.8584 3.73008 1.65315 0
M  V30 833 H 80.5334 4.11993 0.568746 0
M  V30 834 H 79.1104 3.09196 2.08451 0
M  V30 835 N 81.2955 -0.223234 1.56011 0
M  V30 836 C 82.2585 -1.26014 1.9145 0
M  V30 837 C 83.2585 -1.3989 0.792937 0
M  V30 838 O 84.4485 -1.38184 1.0607 0
M  V30 839 C 81.5805 -2.63422 2.16383 0
M  V30 840 H 82.7735 -0.95796 2.84189 0
M  V30 841 H 80.3265 -0.463576 1.49267 0
M  V30 842 H 81.0615 -2.98741 1.2619 0
M  V30 843 H 80.8465 -2.54728 2.98088 0
M  V30 844 H 82.3365 -3.38249 2.44903 0
M  V30 845 N 82.7736 -1.49793 -0.48987 0
M  V30 846 C 83.7206 -1.67281 -1.59014 0
M  V30 847 C 84.6906 -0.514177 -1.57941 0
M  V30 848 O 85.8756 -0.742533 -1.75759 0
M  V30 849 C 83.0156 -1.75569 -2.97102 0
M  V30 850 C 82.1286 -3.0281 -3.08107 0
M  V30 851 C 81.2636 -3.02008 -4.36995 0
M  V30 852 C 80.3026 -4.23782 -4.41673 0
M  V30 853 N 79.4396 -4.20826 -5.62005 0
M  V30 854 H 84.2796 -2.61224 -1.43409 0
M  V30 855 H 81.8166 -1.29508 -0.697565 0
M  V30 856 H 83.7746 -1.78354 -3.77155 0
M  V30 857 H 82.4046 -0.850827 -3.11385 0
M  V30 858 H 81.4566 -3.09584 -2.21047 0
M  V30 859 H 82.7686 -3.92801 -3.07423 0
M  V30 860 H 81.9226 -3.03418 -5.25378 0
M  V30 861 H 80.6616 -2.09815 -4.4026 0
M  V30 862 H 79.6666 -4.22604 -3.5169 0
M  V30 863 H 80.8916 -5.17181 -4.40115 0
M  V30 864 H 78.8376 -3.31476 -5.66091 0
M  V30 865 H 78.7546 -5.04564 -5.62984 0
M  V30 866 H 80.0226 -4.26355 -6.52565 0
M  V30 867 N 84.2517 0.741722 -1.39055 0
M  V30 868 C 85.4797 1.53098 -1.39171 0
M  V30 869 C 85.8947 1.88794 0.0155099 0
M  V30 870 O 85.2517 1.53626 0.985159 0
M  V30 871 C 85.3027 2.82274 -2.2584 0
M  V30 872 O 85.0237 2.48097 -3.61081 0
M  V30 873 C 86.5247 3.76343 -2.34266 0
M  V30 874 H 83.7447 0.473335 -0.4756 0
M  V30 875 H 86.2887 0.917045 -1.82785 0
M  V30 876 H 84.4437 3.40015 -1.85656 0
M  V30 877 H 84.8577 3.31029 -4.06842 0
M  V30 878 H 86.3317 4.63898 -2.9917 0
M  V30 879 H 86.8087 4.17619 -1.35982 0
M  V30 880 H 87.4147 3.24523 -2.74891 0
M  V30 881 N 85.7298 1.2412 0.971189 0
M  V30 882 C 86.9788 1.07284 1.70801 0
M  V30 883 C 87.2918 -0.388902 1.91695 0
M  V30 884 O 88.4978 -0.677379 2.62914 0
M  V30 885 C 86.9538 1.87145 3.07416 0
M  V30 886 C 86.5618 3.37707 2.94377 0
M  V30 887 C 88.3058 1.78828 3.84995 0
M  V30 888 C 86.2128 4.09925 4.26281 0
M  V30 889 H 85.1428 0.397854 0.64049 0
M  V30 890 H 87.7938 1.4817 1.0825 0
M  V30 891 H 86.1758 1.39071 3.70777 0
M  V30 892 H 87.3498 3.93335 2.4005 0
M  V30 893 H 85.6648 3.46938 2.30267 0
M  V30 894 H 88.2618 2.30089 4.82662 0
M  V30 895 H 88.6048 0.75284 4.09436 0
M  V30 896 H 89.1378 2.24563 3.28354 0
M  V30 897 H 85.8768 5.13813 4.07033 0
M  V30 898 H 85.3968 3.59083 4.80437 0
M  V30 899 H 87.0758 4.1673 4.94919 0
M  V30 900 N 87.2079 -1.17134 1.05439 0
M  V30 901 C 88.1379 -2.2342 0.678649 0
M  V30 902 C 89.1189 -1.66971 -0.32476 0
M  V30 903 O 90.3039 -1.93149 -0.201802 0
M  V30 904 C 87.4339 -3.47256 0.0552099 0
M  V30 905 C 86.3879 -4.16543 0.98365 0
M  V30 906 C 85.7139 -5.34231 0.223961 0
M  V30 907 C 87.0139 -4.68495 2.3089 0
M  V30 908 H 88.7079 -2.55105 1.56722 0
M  V30 909 H 86.2539 -1.2262 0.754998 0
M  V30 910 H 88.2069 -4.20828 -0.21946 0
M  V30 911 H 86.9309 -3.14846 -0.868319 0
M  V30 912 H 85.5899 -3.44887 1.24293 0
M  V30 913 H 85.2379 -4.98071 -0.702412 0
M  V30 914 H 84.9379 -5.81527 0.842627 0
M  V30 915 H 86.4619 -6.10585 -0.0433671 0
M  V30 916 H 87.8759 -5.33691 2.09396 0
M  V30 917 H 86.2729 -5.26379 2.88176 0
M  V30 918 H 87.3429 -3.85169 2.94572 0
M  V30 919 N 88.686 -0.835752 -1.33615 0
M  V30 920 C 89.634 -0.255238 -2.31195 0
M  V30 921 C 90.628 0.61107 -1.57995 0
M  V30 922 O 91.834 0.500979 -1.72888 0
M  V30 923 H 88.209 -0.0638085 -0.749288 0
M  V30 924 H 90.18 -1.09283 -2.77669 0
M  V30 925 C 88.929 0.55754 -3.43201 0
M  V30 926 H 88.252 -0.0997553 -3.99676 0
M  V30 927 H 89.692 0.929622 -4.13683 0
M  V30 928 C 88.151 1.73515 -2.88781 0
M  V30 929 O 88.681 2.83376 -2.84712 0
M  V30 930 N 86.887 1.55603 -2.4543 0
M  V30 931 H 86.434 0.662354 -2.48939 0
M  V30 932 H 86.392 2.34545 -2.09371 0
M  V30 933 N 90.1641 1.46063 -0.591896 0
M  V30 934 C 91.1121 2.32124 0.148739 0
M  V30 935 C 92.1061 1.45035 0.875286 0
M  V30 936 O 93.3121 1.61609 0.792632 0
M  V30 937 H 89.6871 0.749024 0.066832 0
M  V30 938 H 91.6581 2.92392 -0.595783 0
M  V30 939 C 90.4071 3.28373 1.1431 0
M  V30 940 H 89.7301 3.95371 0.59346 0
M  V30 941 H 91.1701 3.91352 1.63155 0
M  V30 942 C 89.6291 2.54393 2.20875 0
M  V30 943 O 90.1591 2.31373 3.28374 0
M  V30 944 N 88.3651 2.14797 1.95731 0
M  V30 945 H 87.9121 2.33719 1.08319 0
M  V30 946 H 87.8701 1.65619 2.67241 0
M  V30 947 N 91.6422 0.330177 1.54103 0
M  V30 948 C 92.8902 -0.269871 2.0029 0
M  V30 949 C 93.2112 -1.52133 1.21986 0
M  V30 950 O 92.4812 -1.93212 0.323438 0
M  V30 951 H 91.0612 -0.10271 0.739905 0
M  V30 952 H 93.7232 0.448249 1.89675 0
M  V30 953 H 92.8192 -0.52166 3.07709 0
M  V30 954 N 93.1203 -1.57491 0.0584922 0
M  V30 955 C 94.0673 -2.11958 -0.913376 0
M  V30 956 C 95.0373 -1.02875 -1.30407 0
M  V30 957 O 96.2223 -1.30464 -1.39226 0
M  V30 958 C 93.3623 -2.67497 -2.18035 0
M  V30 959 C 92.4753 -3.90691 -1.84349 0
M  V30 960 C 91.6103 -4.3452 -3.05559 0
M  V30 961 C 90.6493 -5.50395 -2.67827 0
M  V30 962 N 89.7863 -5.89244 -3.81754 0
M  V30 963 H 94.6263 -2.94704 -0.442017 0
M  V30 964 H 92.1633 -1.45643 -0.206545 0
M  V30 965 H 94.1213 -2.978 -2.92183 0
M  V30 966 H 92.7513 -1.87537 -2.62735 0
M  V30 967 H 91.8033 -3.66934 -1.00319 0
M  V30 968 H 93.1153 -4.7489 -1.5258 0
M  V30 969 H 92.2693 -4.66414 -3.87998 0
M  V30 970 H 91.0083 -3.49147 -3.40511 0
M  V30 971 H 90.0133 -5.18165 -1.83806 0
M  V30 972 H 91.2383 -6.3749 -2.34059 0
M  V30 973 H 89.1843 -5.06823 -4.16493 0
M  V30 974 H 89.1013 -6.68151 -3.53708 0
M  V30 975 H 90.3693 -6.25756 -4.64811 0
M  V30 976 N 94.5984 0.214957 -1.56127 0
M  V30 977 C 95.8264 0.955092 -1.83536 0
M  V30 978 C 96.2414 1.77677 -0.638472 0
M  V30 979 O 95.5984 1.78219 0.392968 0
M  V30 980 C 95.6494 1.86734 -3.09536 0
M  V30 981 O 95.3704 1.07887 -4.24608 0
M  V30 982 C 96.8714 2.72082 -3.4998 0
M  V30 983 H 94.0914 0.279611 -0.609966 0
M  V30 984 H 96.6354 0.228197 -2.03223 0
M  V30 985 H 94.7904 2.5481 -2.91806 0
M  V30 986 H 95.2044 1.69872 -4.9623 0
M  V30 987 H 96.6784 3.31782 -4.41163 0
M  V30 988 H 97.1554 3.44806 -2.7204 0
M  V30 989 H 97.7614 2.09409 -3.70173 0
M  V30 990 N 96.0765 1.50051 0.48192 0
M  V30 991 C 97.3165 1.62128 1.24474 0
M  V30 992 C 97.6805 0.309742 1.89485 0
M  V30 993 O 98.8815 0.305854 2.67054 0
M  V30 994 C 97.1525 2.76151 2.26882 0
M  V30 995 S 98.7115 3.08297 3.12247 0
M  V30 996 H 95.5295 0.571661 0.422759 0
M  V30 997 H 98.1315 1.87791 0.54359 0
M  V30 998 H 96.8355 3.69942 1.77683 0
M  V30 999 H 96.3665 2.52541 3.0164 0
M  V30 1000 H 98.3815 2.51287 4.27866 0
M  V30 1001 N 97.5546 -0.734337 1.39446 0
M  V30 1002 C 98.9706 -1.03997 1.21065 0
M  V30 1003 C 99.1706 -2.01369 0.0727019 0
M  V30 1004 O 98.2266 -2.45856 -0.575426 0
M  V30 1005 C 99.5396 -1.60163 2.54496 0
M  V30 1006 C 101.088 -1.7224 2.61347 0
M  V30 1007 C 101.563 -2.31814 3.95002 0
M  V30 1008 N 103.054 -2.39223 3.96644 0
M  V30 1009 C 103.789 -2.86258 4.96834 0
M  V30 1010 N 103.285 -3.33184 6.07421 0
M  V30 1011 N 105.078 -2.85473 4.84213 0
M  V30 1012 H 97.2286 -0.0885624 2.12215 0
M  V30 1013 H 99.4916 -0.10191 0.942506 0
M  V30 1014 H 99.1976 -0.960811 3.38321 0
M  V30 1015 H 99.0716 -2.5896 2.74262 0
M  V30 1016 H 101.459 -2.35443 1.77906 0
M  V30 1017 H 101.54 -0.720939 2.4543 0
M  V30 1018 H 101.184 -1.69238 4.78875 0
M  V30 1019 H 101.114 -3.32638 4.08239 0
M  V30 1020 H 103.605 -2.06057 3.16779 0
M  V30 1021 H 103.918 -3.67586 6.7978 0
M  V30 1022 H 102.263 -3.31191 6.11013 0
M  V30 1023 H 105.454 -2.48136 3.96921 0
M  V30 1024 H 105.627 -3.21814 5.62441 0
M  V30 1025 N 99.0327 -1.24633 -0.964593 0
M  V30 1026 C 100.279 -1.08949 -1.71049 0
M  V30 1027 C 100.612 0.370302 -1.90637 0
M  V30 1028 O 99.8867 1.27349 -1.47011 0
M  V30 1029 C 100.17 -1.83329 -3.0994 0
M  V30 1030 C 100.023 -3.37077 -2.97824 0
M  V30 1031 C 101.342 -1.60846 -4.09654 0
M  V30 1032 H 98.4607 -0.397178 -0.620821 0
M  V30 1033 H 101.103 -1.5334 -1.12191 0
M  V30 1034 H 99.2527 -1.45597 -3.60186 0
M  V30 1035 H 100.925 -3.84425 -2.5498 0
M  V30 1036 H 99.1677 -3.65298 -2.33965 0
M  V30 1037 H 99.8387 -3.84324 -3.96231 0
M  V30 1038 H 102.315 -1.93674 -3.68279 0
M  V30 1039 H 101.191 -2.1534 -5.04896 0
M  V30 1040 H 101.452 -0.547434 -4.38698 0
M  V30 1041 N 100.511 1.16574 -1.06058 0
M  V30 1042 C 101.757 1.87324 -0.777022 0
M  V30 1043 C 102.09 1.81351 0.694645 0
M  V30 1044 O 101.365 1.22753 1.50871 0
M  V30 1045 C 101.648 3.36991 -1.26922 0
M  V30 1046 C 101.501 3.51667 -2.80447 0
M  V30 1047 C 102.82 4.3131 -0.87521 0
M  V30 1048 H 99.9388 0.680191 -0.28374 0
M  V30 1049 H 102.581 1.37036 -1.3161 0
M  V30 1050 H 100.731 3.79949 -0.81063 0
M  V30 1051 H 102.403 3.17664 -3.34495 0
M  V30 1052 H 100.646 2.93656 -3.19294 0
M  V30 1053 H 101.317 4.56766 -3.0995 0
M  V30 1054 H 103.793 3.9624 -1.27014 0
M  V30 1055 H 102.669 5.34545 -1.2471 0
M  V30 1056 H 102.93 4.41552 0.220071 0
M  V30 1057 N 101.989 0.842826 1.3317 0
M  V30 1058 C 103.236 0.440447 1.97652 0
M  V30 1059 C 103.564 -1.00123 1.6675 0
M  V30 1060 O 102.819 -1.7155 0.941761 0
M  V30 1061 C 103.118 0.612607 3.52111 0
M  V30 1062 C 102.784 2.02297 4.02972 0
M  V30 1063 C 101.446 2.40874 4.16573 0
M  V30 1064 C 103.798 2.94402 4.30089 0
M  V30 1065 C 101.126 3.70852 4.54627 0
M  V30 1066 C 103.478 4.23865 4.69597 0
M  V30 1067 C 102.142 4.62392 4.81404 0
M  V30 1068 H 101.412 0.161171 0.72326 0
M  V30 1069 H 104.059 1.07061 1.58777 0
M  V30 1070 H 102.364 -0.100849 3.9167 0
M  V30 1071 H 104.061 0.2815 4.00011 0
M  V30 1072 H 100.651 1.71338 3.92863 0
M  V30 1073 H 104.835 2.65835 4.19101 0
M  V30 1074 H 100.091 4.00501 4.61962 0
M  V30 1075 H 104.265 4.95306 4.89536 0
M  V30 1076 H 101.892 5.63154 5.10648 0
M  V30 1077 N 103.467 -1.45747 0.599634 0
M  V30 1078 C 104.744 -1.95585 0.0240846 0
M  V30 1079 C 105.124 -1.54217 -1.44154 0
M  V30 1080 O 104.472 -0.800903 -2.14004 0
M  V30 1081 C 104.682 -3.48344 0.21385 0
M  V30 1082 C 106.03 -4.24504 0.0904902 0
M  V30 1083 O 107.054 -3.55911 0.143558 0
M  V30 1084 O 105.913 -5.46491 -0.0310766 0
M  V30 1085 H 103.007 -0.82602 -0.0402478 0
M  V30 1086 H 105.553 -1.55951 0.669139 0
M  V30 1087 H 104.325 -3.71397 1.23206 0
M  V30 1088 H 103.948 -3.9485 -0.466842 0
M  V30 1089 N 104.945 -0.338344 -1.53925 0
M  V30 1090 C 106.222 0.314774 -1.93051 0
M  V30 1091 C 106.602 1.68669 -1.26941 0
M  V30 1092 O 105.95 2.24636 -0.418445 0
M  V30 1093 C 106.16 0.392249 -3.46789 0
M  V30 1094 C 107.508 0.645554 -4.19664 0
M  V30 1095 O 108.532 0.474575 -3.53024 0
M  V30 1096 O 107.391 0.976408 -5.37707 0
M  V30 1097 H 104.485 0.182598 -0.80659 0
M  V30 1098 H 107.031 -0.389141 -1.65178 0
M  V30 1099 H 105.803 -0.570702 -3.87116 0
M  V30 1100 H 105.426 1.14316 -3.80812 0
M  V30 1101 N 106.423 1.57458 -0.0668435 0
M  V30 1102 C 107.651 1.97624 0.612565 0
M  V30 1103 C 108.066 0.94502 1.63447 0
M  V30 1104 O 107.423 -0.0689276 1.8237 0
M  V30 1105 C 107.474 3.37869 1.28555 0
M  V30 1106 O 107.195 4.3704 0.304557 0
M  V30 1107 C 108.696 3.92882 2.05325 0
M  V30 1108 H 105.916 0.650045 0.166381 0
M  V30 1109 H 108.46 2.04035 -0.137782 0
M  V30 1110 H 106.615 3.3256 1.98702 0
M  V30 1111 H 107.029 5.18565 0.786779 0
M  V30 1112 H 108.503 4.93247 2.47812 0
M  V30 1113 H 108.98 3.29156 2.9078 0
M  V30 1114 H 109.586 4.01577 1.40056 0
M  V30 1115 N 107.901 -0.206675 1.56239 0
M  V30 1116 C 109.131 -0.943975 1.83773 0
M  V30 1117 C 109.539 -1.77841 0.645703 0
M  V30 1118 O 108.882 -1.79403 -0.395008 0
M  V30 1119 C 108.944 -1.899 3.05251 0
M  V30 1120 C 108.608 -1.24764 4.39639 0
M  V30 1121 C 109.605 -0.630216 5.16066 0
M  V30 1122 C 107.29 -1.25496 4.8637 0
M  V30 1123 C 109.284 -0.0287946 6.37393 0
M  V30 1124 C 106.971 -0.649698 6.07637 0
M  V30 1125 C 107.969 -0.0376845 6.8299 0
M  V30 1126 O 107.657 0.55812 8.0196 0
M  V30 1127 H 107.389 -0.281508 0.614597 0
M  V30 1128 H 109.943 -0.222458 2.04192 0
M  V30 1129 H 108.173 -2.6599 2.80689 0
M  V30 1130 H 109.862 -2.5031 3.1953 0
M  V30 1131 H 110.628 -0.616785 4.81062 0
M  V30 1132 H 106.507 -1.72072 4.27683 0
M  V30 1133 H 110.051 0.449518 6.9615 0
M  V30 1134 H 105.948 -0.660592 6.42111 0
M  V30 1135 H 106.716 0.453891 8.17241 0
M  V30 1136 N 109.379 -1.50304 -0.473955 0
M  V30 1137 C 110.656 -1.51667 -1.23518 0
M  V30 1138 C 111.036 -0.259701 -2.09496 0
M  V30 1139 O 110.384 0.756986 -2.15597 0
M  V30 1140 C 110.594 -2.81082 -2.06868 0
M  V30 1141 C 111.942 -3.31631 -2.65153 0
M  V30 1142 O 112.966 -2.82384 -2.17113 0
M  V30 1143 O 111.825 -4.17471 -3.52675 0
M  V30 1144 H 108.919 -0.60822 -0.560355 0
M  V30 1145 H 111.465 -1.62592 -0.486011 0
M  V30 1146 H 110.237 -3.64041 -1.4349 0
M  V30 1147 H 109.86 -2.73146 -2.88924 0
M  V30 1148 N 110.857 0.726932 -1.39834 0
M  V30 1149 C 112.273 1.03354 -1.21615 0
M  V30 1150 C 112.473 2.01327 -0.08338 0
M  V30 1151 O 111.529 2.46158 0.56238 0
M  V30 1152 C 112.842 1.58811 -2.55342 0
M  V30 1153 C 114.39 1.70851 -2.62257 0
M  V30 1154 C 114.865 2.29716 -3.96225 0
M  V30 1155 N 116.356 2.37116 -3.97907 0
M  V30 1156 C 117.091 2.83619 -4.98345 0
M  V30 1157 N 116.587 3.29958 -6.09179 0
M  V30 1158 N 118.38 2.82901 -4.8572 0
M  V30 1159 H 110.531 0.0773069 -2.12259 0
M  V30 1160 H 112.794 0.0969102 -0.943034 0
M  V30 1161 H 112.5 0.942855 -3.38826 0
M  V30 1162 H 112.374 2.57502 -2.75632 0
M  V30 1163 H 114.761 2.34497 -1.79152 0
M  V30 1164 H 114.842 0.707913 -2.45809 0
M  V30 1165 H 114.486 1.66696 -4.79765 0
M  V30 1166 H 114.416 3.30469 -4.09997 0
M  V30 1167 H 116.907 2.04374 -3.17868 0
M  V30 1168 H 117.22 3.63976 -6.8172 0
M  V30 1169 H 115.565 3.27946 -6.12761 0
M  V30 1170 H 118.756 2.46027 -3.98231 0
M  V30 1171 H 118.929 3.18827 -5.6414 0
M  V30 1172 N 112.336 1.25143 0.95797 0
M  V30 1173 C 113.561 1.12521 1.74223 0
M  V30 1174 C 113.986 -0.317402 1.85403 0
M  V30 1175 O 113.344 -1.2299 1.33204 0
M  V30 1176 C 113.392 1.78062 3.1357 0
M  V30 1177 O 112.496 1.058 3.98598 0
M  V30 1178 H 111.837 0.39304 0.535178 0
M  V30 1179 H 114.367 1.65641 1.201 0
M  V30 1180 H 114.377 1.84213 3.64046 0
M  V30 1181 H 113.052 2.83021 3.04749 0
M  V30 1182 H 111.629 1.07506 3.57067 0
M  V30 1183 N 113.814 -1.1601 1.06675 0
M  V30 1184 C 114.747 -2.1947 0.625168 0
M  V30 1185 C 115.725 -1.58699 -0.354041 0
M  V30 1186 O 116.909 -1.86669 -0.262098 0
M  V30 1187 C 114.036 -3.38598 -0.0829593 0
M  V30 1188 C 113.082 -4.1787 0.853611 0
M  V30 1189 S 113.915 -4.81135 2.35094 0
M  V30 1190 C 115.071 -6.03639 1.65441 0
M  V30 1191 H 115.304 -2.56587 1.50168 0
M  V30 1192 H 112.837 -1.26862 0.880078 0
M  V30 1193 H 114.795 -4.07621 -0.485288 0
M  V30 1194 H 113.456 -2.99839 -0.935716 0
M  V30 1195 H 112.649 -5.03078 0.304755 0
M  V30 1196 H 112.251 -3.54361 1.196 0
M  V30 1197 H 114.543 -6.70632 0.962201 0
M  V30 1198 H 115.486 -6.63081 2.48454 0
M  V30 1199 H 115.894 -5.52965 1.13534 0
M  V30 1200 N 115.292 -0.849877 -1.32721 0
M  V30 1201 C 116.222 -0.306308 -2.31482 0
M  V30 1202 C 117.203 0.591952 -1.59468 0
M  V30 1203 O 118.388 0.513199 -1.87296 0
M  V30 1204 C 115.518 0.510204 -3.43532 0
M  V30 1205 C 114.472 -0.293209 -4.26994 0
M  V30 1206 C 113.798 0.647743 -5.30762 0
M  V30 1207 C 115.098 -1.51634 -4.99804 0
M  V30 1208 H 116.792 -1.13153 -2.77195 0
M  V30 1209 H 114.338 -0.545553 -1.33266 0
M  V30 1210 H 116.291 0.900856 -4.11658 0
M  V30 1211 H 115.015 1.36874 -2.96535 0
M  V30 1212 H 113.674 -0.665555 -3.60508 0
M  V30 1213 H 113.322 1.50299 -4.8002 0
M  V30 1214 H 113.022 0.11422 -5.87489 0
M  V30 1215 H 114.546 1.03567 -6.01753 0
M  V30 1216 H 115.96 -1.19824 -5.60638 0
M  V30 1217 H 114.357 -1.98745 -5.66234 0
M  V30 1218 H 115.427 -2.28018 -4.27943 0
M  V30 1219 N 116.77 1.45427 -0.607355 0
M  V30 1220 C 118.186 1.57283 -0.270985 0
M  V30 1221 C 118.386 1.59875 1.22647 0
M  V30 1222 O 117.442 1.52893 2.00948 0
M  V30 1223 C 118.755 2.85566 -0.941952 0
M  V30 1224 C 120.303 2.9924 -0.917849 0
M  V30 1225 C 120.778 4.30293 -1.56882 0
M  V30 1226 N 122.269 4.37051 -1.5343 0
M  V30 1227 C 123.004 5.37123 -2.00715 0
M  V30 1228 N 122.5 6.43734 -2.56084 0
M  V30 1229 N 124.293 5.28479 -1.91484 0
M  V30 1230 H 116.444 1.41988 -1.57966 0
M  V30 1231 H 118.707 0.67885 -0.661715 0
M  V30 1232 H 118.413 2.8955 -1.99633 0
M  V30 1233 H 118.287 3.74322 -0.465096 0
M  V30 1234 H 120.674 2.94822 0.127984 0
M  V30 1235 H 120.755 2.11895 -1.43297 0
M  V30 1236 H 120.399 4.35469 -2.61398 0
M  V30 1237 H 120.329 5.16454 -1.02873 0
M  V30 1238 H 122.82 3.60615 -1.12982 0
M  V30 1239 H 123.133 7.16341 -2.89958 0
M  V30 1240 H 121.478 6.44485 -2.60122 0
M  V30 1241 H 124.669 4.44098 -1.47967 0
M  V30 1242 H 124.842 6.0632 -2.28648 0
M  V30 1243 N 118.248 0.346503 1.53744 0
M  V30 1244 C 119.496 -0.248612 2.00565 0
M  V30 1245 C 119.817 -1.5083 1.23593 0
M  V30 1246 O 119.087 -1.92858 0.343912 0
M  V30 1247 H 117.667 -0.0948564 0.740953 0
M  V30 1248 H 120.329 0.468341 1.89189 0
M  V30 1249 H 119.425 -0.488994 3.08245 0
M  V30 1250 N 119.726 -1.57421 0.075193 0
M  V30 1251 C 120.974 -1.93236 -0.591974 0
M  V30 1252 C 121.295 -0.956241 -1.69944 0
M  V30 1253 O 120.565 -0.00494792 -1.95899 0
M  V30 1254 H 119.145 -0.713355 -0.22166 0
M  V30 1255 H 121.807 -1.9444 0.133848 0
M  V30 1256 H 120.903 -2.95131 -1.01509 0
M  V30 1257 N 121.204 0.198386 -1.56346 0
M  V30 1258 C 122.615 0.763358 -1.70381 0
M  V30 1259 C 122.966 1.83995 -0.681203 0
M  V30 1260 O 122.091 2.15785 0.16305 0
M  V30 1261 C 122.686 1.39143 -3.08909 0
M  V30 1262 C 121.245 1.90352 -3.2472 0
M  V30 1263 C 120.392 0.772233 -2.6633 0
M  V30 1264 H 123.343 -0.0266377 -1.58678 0
M  V30 1265 H 123.364 2.26076 -3.06055 0
M  V30 1266 H 122.876 0.607638 -3.83314 0
M  V30 1267 H 120.977 2.71461 -2.55225 0
M  V30 1268 H 121.09 2.06757 -4.3219 0
M  V30 1269 H 119.454 1.18566 -2.2542 0
M  V30 1270 H 120.237 0.00073556 -3.433 0
M  V30 1271 N 122.682 1.50554 0.465978 0
M  V30 1272 C 123.612 1.72722 1.57128 0
M  V30 1273 C 124.593 0.576294 1.6004 0
M  V30 1274 O 125.778 0.81598 1.76225 0
M  V30 1275 C 122.908 1.82605 2.95419 0
M  V30 1276 C 121.862 2.97835 3.07373 0
M  V30 1277 C 121.188 2.92867 4.47363 0
M  V30 1278 C 122.488 4.38265 2.84114 0
M  V30 1279 H 124.182 2.65267 1.38829 0
M  V30 1280 H 121.728 1.2765 0.666441 0
M  V30 1281 H 123.681 1.96698 3.72677 0
M  V30 1282 H 122.405 0.866858 3.14886 0
M  V30 1283 H 121.064 2.83401 2.3255 0
M  V30 1284 H 120.712 1.94783 4.63755 0
M  V30 1285 H 120.412 3.70227 4.56296 0
M  V30 1286 H 121.936 3.09015 5.26633 0
M  V30 1287 H 123.35 4.53198 3.51118 0
M  V30 1288 H 121.747 5.17115 3.04487 0
M  V30 1289 H 122.817 4.50281 1.7993 0
M  V30 1290 N 124.16 -0.719506 1.40217 0
M  V30 1291 C 125.571 -1.29848 1.34151 0
M  V30 1292 C 125.922 -1.96196 0.0131349 0
M  V30 1293 O 125.047 -1.973 -0.88892 0
M  V30 1294 C 125.642 -2.36118 2.42968 0
M  V30 1295 C 124.201 -2.8965 2.40374 0
M  V30 1296 C 123.348 -1.63393 2.24049 0
M  V30 1297 H 126.299 -0.51591 1.5008 0
M  V30 1298 H 126.32 -3.16871 2.10649 0
M  V30 1299 H 125.832 -1.878 3.39636 0
M  V30 1300 H 123.933 -3.42208 1.47392 0
M  V30 1301 H 124.046 -3.4171 3.35814 0
M  V30 1302 H 122.41 -1.88312 1.71495 0
M  V30 1303 H 123.193 -1.17104 3.2271 0
M  V30 1304 N 125.638 -1.25649 -0.95132 0
M  V30 1305 C 126.886 -1.10375 -1.69298 0
M  V30 1306 C 127.207 0.355339 -1.91735 0
M  V30 1307 O 126.477 1.25188 -1.50681 0
M  V30 1308 H 125.057 -0.405461 -0.627384 0
M  V30 1309 H 127.719 -1.57823 -1.14358 0
M  V30 1310 H 126.815 -1.61465 -2.67087 0
M  V30 1311 N 127.117 1.15442 -1.07289 0
M  V30 1312 C 128.528 1.67803 -0.818475 0
M  V30 1313 C 128.879 1.8489 0.656507 0
M  V30 1314 O 128.004 1.55176 1.50829 0
M  V30 1315 C 128.599 3.04805 -1.47917 0
M  V30 1316 C 127.158 3.54245 -1.27229 0
M  V30 1317 C 126.305 2.29986 -1.54925 0
M  V30 1318 H 129.256 0.996646 -1.23502 0
M  V30 1319 H 129.277 3.69702 -0.90005 0
M  V30 1320 H 128.789 2.92336 -2.55267 0
M  V30 1321 H 126.89 3.71956 -0.21899 0
M  V30 1322 H 127.003 4.35723 -1.99203 0
M  V30 1323 H 125.367 2.35496 -0.970242 0
M  V30 1324 H 126.15 2.20105 -2.63455 0
M  V30 1325 N 128.595 0.856903 1.32268 0
M  V30 1326 C 129.825 0.47475 2.01071 0
M  V30 1327 C 130.233 -0.933746 1.64553 0
M  V30 1328 O 129.576 -1.62114 0.863989 0
M  V30 1329 C 129.638 0.536746 3.55471 0
M  V30 1330 C 129.302 1.90453 4.15423 0
M  V30 1331 C 130.299 2.87029 4.33486 0
M  V30 1332 C 127.984 2.20229 4.51447 0
M  V30 1333 C 129.978 4.11532 4.86744 0
M  V30 1334 C 127.665 3.44984 5.0441 0
M  V30 1335 C 128.663 4.40452 5.22007 0
M  V30 1336 O 128.351 5.62998 5.73837 0
M  V30 1337 H 128.083 0.184778 0.650256 0
M  V30 1338 H 130.637 1.15615 1.69771 0
M  V30 1339 H 128.867 -0.20152 3.86175 0
M  V30 1340 H 130.556 0.169875 4.05544 0
M  V30 1341 H 131.322 2.6533 4.05986 0
M  V30 1342 H 127.201 1.46705 4.37034 0
M  V30 1343 H 130.745 4.86056 5.00395 0
M  V30 1344 H 126.642 3.66532 5.31342 0
M  V30 1345 H 127.41 5.64987 5.92226 0
M  V30 1346 N 130.073 -1.45103 0.615059 0
M  V30 1347 C 131.489 -1.57137 0.279322 0
M  V30 1348 C 131.689 -1.60523 -1.21797 0
M  V30 1349 O 130.745 -1.53956 -2.00134 0
M  V30 1350 C 132.058 -2.85062 0.957083 0
M  V30 1351 C 133.606 -2.98749 0.933706 0
M  V30 1352 C 134.081 -4.29455 1.59162 0
M  V30 1353 N 135.572 -4.36231 1.55746 0
M  V30 1354 C 136.307 -5.36051 2.0356 0
M  V30 1355 N 135.803 -6.42367 2.59494 0
M  V30 1356 N 137.596 -5.27456 1.94284 0
M  V30 1357 H 129.747 -1.41148 1.58717 0
M  V30 1358 H 132.01 -0.675331 0.665306 0
M  V30 1359 H 131.716 -2.88488 2.01166 0
M  V30 1360 H 131.59 -3.7407 0.48494 0
M  V30 1361 H 133.977 -2.94886 -0.112347 0
M  V30 1362 H 134.058 -2.11132 1.44419 0
M  V30 1363 H 133.702 -4.34077 2.63704 0
M  V30 1364 H 133.632 -5.15901 1.0561 0
M  V30 1365 H 136.123 -3.60011 1.14893 0
M  V30 1366 H 136.436 -7.14793 2.93752 0
M  V30 1367 H 134.781 -6.43097 2.63537 0
M  V30 1368 H 137.972 -4.43308 1.5032 0
M  V30 1369 H 138.145 -6.05099 2.3186 0
M  V30 1370 N 131.551 -0.354651 -1.53558 0
M  V30 1371 C 132.481 0.489091 -2.2832 0
M  V30 1372 C 133.462 1.09324 -1.30316 0
M  V30 1373 O 134.647 1.11255 -1.59173 0
M  V30 1374 C 131.777 1.63456 -3.0643 0
M  V30 1375 C 130.731 1.1582 -4.12031 0
M  V30 1376 C 130.057 2.39305 -4.7816 0
M  V30 1377 C 131.357 0.250731 -5.21698 0
M  V30 1378 H 133.051 -0.134614 -2.99097 0
M  V30 1379 H 130.597 -0.0661826 -1.43848 0
M  V30 1380 H 132.55 2.23136 -3.57475 0
M  V30 1381 H 131.274 2.28533 -2.33325 0
M  V30 1382 H 129.933 0.584146 -3.61916 0
M  V30 1383 H 129.581 3.02814 -4.01637 0
M  V30 1384 H 129.281 2.08109 -5.49513 0
M  V30 1385 H 130.805 2.99691 -5.31994 0
M  V30 1386 H 132.219 0.754695 -5.68311 0
M  V30 1387 H 130.616 0.0301468 -6.00092 0
M  V30 1388 H 131.686 -0.710125 -4.79672 0
M  V30 1389 N 133.029 1.57378 -0.0835403 0
M  V30 1390 C 134.445 1.57246 0.273109 0
M  V30 1391 C 134.645 1.09385 1.69225 0
M  V30 1392 O 133.701 0.765051 2.40631 0
M  V30 1393 C 135.014 3.00614 0.0720628 0
M  V30 1394 C 136.562 3.12684 0.1407 0
M  V30 1395 C 137.037 4.57989 -0.0322094 0
M  V30 1396 N 138.528 4.63194 0.0230085 0
M  V30 1397 C 139.263 5.73335 -0.0861941 0
M  V30 1398 N 138.759 6.9235 -0.24958 0
M  V30 1399 N 140.552 5.62093 -0.0282886 0
M  V30 1400 H 132.703 1.86801 -1.0109 0
M  V30 1401 H 134.966 0.861687 -0.395222 0
M  V30 1402 H 134.672 3.39786 -0.907662 0
M  V30 1403 H 134.546 3.68193 0.81936 0
M  V30 1404 H 136.933 2.73391 1.11092 0
M  V30 1405 H 137.014 2.47719 -0.637896 0
M  V30 1406 H 136.658 4.97973 -0.999247 0
M  V30 1407 H 136.588 5.21 0.765937 0
M  V30 1408 H 139.079 3.77613 0.14722 0
M  V30 1409 H 139.392 7.72117 -0.324733 0
M  V30 1410 H 137.737 6.94415 -0.285097 0
M  V30 1411 H 140.928 4.67997 0.0981408 0
M  V30 1412 H 141.101 6.47895 -0.116845 0
M  V30 1413 N 134.507 -0.190092 1.56449 0
M  V30 1414 C 135.439 -1.25973 1.91477 0
M  V30 1415 C 136.452 -1.41452 0.805931 0
M  V30 1416 O 137.641 -1.41789 1.08435 0
M  V30 1417 C 134.741 -2.63117 2.13594 0
M  V30 1418 C 133.914 -2.69182 3.4476 0
M  V30 1419 C 132.973 -3.87557 3.5593 0
M  V30 1420 O 131.999 -3.74427 4.28711 0
M  V30 1421 N 133.201 -5.03224 2.89388 0
M  V30 1422 H 135.966 -0.962394 2.83828 0
M  V30 1423 H 133.527 -0.379981 1.57378 0
M  V30 1424 H 135.519 -3.40742 2.1835 0
M  V30 1425 H 134.089 -2.85319 1.27719 0
M  V30 1426 H 133.309 -1.77793 3.51828 0
M  V30 1427 H 134.597 -2.70229 4.31107 0
M  V30 1428 H 133.995 -5.16791 2.30094 0
M  V30 1429 H 132.552 -5.78778 2.99764 0
M  V30 1430 N 135.985 -1.50799 -0.457987 0
M  V30 1431 C 137.232 -1.62442 -1.20908 0
M  V30 1432 C 137.56 -0.330865 -1.91665 0
M  V30 1433 O 136.815 0.68401 -1.83357 0
M  V30 1434 C 137.114 -2.76358 -2.2663 0
M  V30 1435 C 136.78 -4.16378 -1.73033 0
M  V30 1436 C 135.442 -4.54473 -1.58138 0
M  V30 1437 C 137.794 -5.03836 -1.33413 0
M  V30 1438 C 135.122 -5.77754 -1.02065 0
M  V30 1439 C 137.474 -6.27676 -0.78778 0
M  V30 1440 C 136.138 -6.64562 -0.625561 0
M  V30 1441 H 135.408 -0.594417 -0.442435 0
M  V30 1442 H 138.055 -1.84772 -0.503136 0
M  V30 1443 H 136.36 -2.48167 -3.03184 0
M  V30 1444 H 138.057 -2.82568 -2.84528 0
M  V30 1445 H 134.647 -3.86331 -1.85598 0
M  V30 1446 H 138.831 -4.75026 -1.4375 0
M  V30 1447 H 134.087 -6.04997 -0.882547 0
M  V30 1448 H 138.261 -6.94797 -0.472177 0
M  V30 1449 H 135.888 -7.59965 -0.188926 0
M  V30 1450 N 137.463 0.71206 -1.40597 0
M  V30 1451 C 138.413 1.81783 -1.37619 0
M  V30 1452 C 139.397 1.58896 -0.253162 0
M  V30 1453 O 140.589 1.70009 -0.492547 0
M  V30 1454 C 137.718 3.19944 -1.24462 0
M  V30 1455 C 136.804 3.48582 -2.4156 0
M  V30 1456 N 137.195 3.48016 -3.67041 0
M  V30 1457 C 135.493 3.79056 -2.35016 0
M  V30 1458 C 136.194 3.75096 -4.44609 0
M  V30 1459 N 135.17 3.94022 -3.74497 0
M  V30 1460 H 138.972 1.79683 -2.32575 0
M  V30 1461 H 136.486 0.91134 -1.34419 0
M  V30 1462 H 138.483 3.99133 -1.20411 0
M  V30 1463 H 137.143 3.23267 -0.304762 0
M  V30 1464 H 138.154 3.28782 -4.00153 0
M  V30 1465 H 134.831 3.89848 -1.49415 0
M  V30 1466 H 136.221 3.80934 -5.53479 0
M  V30 1467 N 138.941 1.26152 0.944643 0
M  V30 1468 C 139.871 1.09902 2.06019 0
M  V30 1469 C 140.852 0.00519538 1.70099 0
M  V30 1470 O 142.037 0.176583 1.93396 0
M  V30 1471 C 139.167 0.727562 3.39594 0
M  V30 1472 C 138.121 1.77274 3.89561 0
M  V30 1473 C 137.447 1.25569 5.19747 0
M  V30 1474 C 138.747 3.17357 4.14827 0
M  V30 1475 H 140.441 2.03217 2.19871 0
M  V30 1476 H 137.987 0.978452 1.05652 0
M  V30 1477 H 139.94 0.600777 4.17095 0
M  V30 1478 H 138.664 -0.241287 3.25707 0
M  V30 1479 H 137.323 1.88814 3.14237 0
M  V30 1480 H 136.971 0.276783 5.02238 0
M  V30 1481 H 136.671 1.95433 5.54148 0
M  V30 1482 H 138.195 1.1415 5.99835 0
M  V30 1483 H 139.609 3.08914 4.82954 0
M  V30 1484 H 138.006 3.84781 4.60504 0
M  V30 1485 H 139.076 3.63673 3.20734 0
M  V30 1486 N 140.419 -1.14872 1.07899 0
M  V30 1487 C 141.369 -2.17809 0.674027 0
M  V30 1488 C 142.353 -1.58008 -0.303699 0
M  V30 1489 O 143.545 -1.76616 -0.11654 0
M  V30 1490 C 140.674 -3.43208 0.0793318 0
M  V30 1491 C 139.76 -4.10051 1.08253 0
M  V30 1492 N 140.151 -4.52296 2.2641 0
M  V30 1493 C 138.449 -4.36469 0.917124 0
M  V30 1494 C 139.15 -5.04199 2.901 0
M  V30 1495 N 138.126 -4.98088 2.17736 0
M  V30 1496 H 141.928 -2.48207 1.57386 0
M  V30 1497 H 139.442 -1.315 0.952976 0
M  V30 1498 H 141.439 -4.16272 -0.228719 0
M  V30 1499 H 140.099 -3.14291 -0.815551 0
M  V30 1500 H 141.11 -4.45504 2.64096 0
M  V30 1501 H 137.787 -4.17432 0.0756078 0
M  V30 1502 H 139.177 -5.46802 3.90458 0
M  V30 1503 N 141.898 -0.863906 -1.31812 0
M  V30 1504 C 143.144 -0.481841 -1.9761 0
M  V30 1505 C 143.499 0.954048 -1.6708 0
M  V30 1506 O 142.792 1.66182 -0.953624 0
M  V30 1507 C 142.986 -0.668547 -3.51091 0
M  V30 1508 C 142.815 -2.12103 -3.96538 0
M  V30 1509 C 141.585 -2.76141 -4.23171 0
M  V30 1510 C 143.783 -3.09265 -4.10925 0
M  V30 1511 N 141.765 -4.12205 -4.54929 0
M  V30 1512 C 143.136 -4.30341 -4.46326 0
M  V30 1513 C 145.191 -3.05337 -3.93286 0
M  V30 1514 C 143.894 -5.48 -4.65928 0
M  V30 1515 C 145.92 -4.22248 -4.14078 0
M  V30 1516 C 145.282 -5.42085 -4.49804 0
M  V30 1517 H 141.381 -0.225238 -0.74886 0
M  V30 1518 H 143.965 -1.11723 -1.59455 0
M  V30 1519 H 142.136 -0.0627898 -3.88349 0
M  V30 1520 H 143.868 -0.255467 -4.03893 0
M  V30 1521 H 140.623 -2.27125 -4.15585 0
M  V30 1522 H 141.047 -4.82416 -4.74978 0
M  V30 1523 H 145.689 -2.138 -3.64759 0
M  V30 1524 H 143.407 -6.40059 -4.93305 0
M  V30 1525 H 146.993 -4.20654 -4.01922 0
M  V30 1526 H 145.873 -6.31044 -4.65567 0
M  V30 1527 N 143.376 1.44774 -0.622745 0
M  V30 1528 C 144.624 2.01721 -0.123655 0
M  V30 1529 C 144.945 1.49172 1.25589 0
M  V30 1530 O 144.215 0.691974 1.83272 0
M  V30 1531 H 142.795 0.745777 -0.0427225 0
M  V30 1532 H 145.457 1.77382 -0.807559 0
M  V30 1533 H 144.553 3.11984 -0.0849534 0
M  V30 1534 N 144.854 0.36279 1.53368 0
M  V30 1535 C 146.079 -0.231226 2.06107 0
M  V30 1536 C 146.504 -1.419 1.23474 0
M  V30 1537 O 145.862 -1.79524 0.253128 0
M  V30 1538 C 145.91 -0.605523 3.5548 0
M  V30 1539 O 145.014 -1.70312 3.7559 0
M  V30 1540 H 144.355 -0.034327 0.663112 0
M  V30 1541 H 146.885 0.522584 1.97814 0
M  V30 1542 H 146.895 -0.877314 3.98456 0
M  V30 1543 H 145.57 0.263004 4.15068 0
M  V30 1544 H 144.147 -1.4271 3.44512 0
M  V30 1545 N 146.332 -1.57332 0.0918853 0
M  V30 1546 C 147.557 -1.98995 -0.584442 0
M  V30 1547 C 147.982 -0.970528 -1.61128 0
M  V30 1548 O 147.34 0.0613904 -1.81196 0
M  V30 1549 C 147.388 -3.39636 -1.21161 0
M  V30 1550 O 146.492 -3.40447 -2.32744 0
M  V30 1551 H 145.833 -0.647165 -0.148572 0
M  V30 1552 H 148.363 -2.03873 0.172347 0
M  V30 1553 H 148.373 -3.7726 -1.55367 0
M  V30 1554 H 147.048 -4.13356 -0.459313 0
M  V30 1555 H 145.625 -3.14614 -2.0018 0
M  V30 1556 N 147.81 0.181792 -1.56548 0
M  V30 1557 C 149.087 0.926765 -1.72251 0
M  V30 1558 C 149.467 2.00831 -0.650386 0
M  V30 1559 O 148.815 2.26008 0.336521 0
M  V30 1560 C 149.025 1.50106 -3.1507 0
M  V30 1561 C 150.373 1.97805 -3.75711 0
M  V30 1562 O 151.397 1.59922 -3.18282 0
M  V30 1563 O 150.256 2.67555 -4.76525 0
M  V30 1564 H 147.35 0.435506 -0.703039 0
M  V30 1565 H 149.896 0.170443 -1.68842 0
M  V30 1566 H 148.668 0.72212 -3.84579 0
M  V30 1567 H 148.291 2.32186 -3.22763 0
M  V30 1568 N 149.288 1.51039 0.449983 0
M  V30 1569 C 150.565 1.53612 1.21089 0
M  V30 1570 C 150.945 0.292997 2.09057 0
M  V30 1571 O 150.293 -0.72259 2.16774 0
M  V30 1572 C 150.503 2.84337 2.0237 0
M  V30 1573 C 151.851 3.35807 2.59843 0
M  V30 1574 O 152.875 2.85802 2.12593 0
M  V30 1575 O 151.734 4.23029 3.45989 0
M  V30 1576 H 148.828 0.617057 0.550608 0
M  V30 1577 H 151.374 1.63344 0.460082 0
M  V30 1578 H 150.146 3.66278 1.37681 0
M  V30 1579 H 149.769 2.77708 2.84542 0
M  V30 1580 N 150.766 -0.704594 1.40972 0
M  V30 1581 C 151.716 -1.81051 1.38581 0
M  V30 1582 C 152.7 -1.58759 0.261585 0
M  V30 1583 O 153.892 -1.69745 0.501556 0
M  V30 1584 C 151.021 -3.19279 1.26157 0
M  V30 1585 C 150.107 -3.47296 2.43405 0
M  V30 1586 N 150.498 -3.46064 3.68881 0
M  V30 1587 C 148.796 -3.77804 2.37023 0
M  V30 1588 C 149.497 -3.72733 4.46592 0
M  V30 1589 N 148.473 -3.9203 3.76581 0
M  V30 1590 H 152.275 -1.78448 2.33525 0
M  V30 1591 H 149.789 -0.904198 1.349 0
M  V30 1592 H 151.786 -3.98488 1.22526 0
M  V30 1593 H 150.446 -3.231 0.321902 0
M  V30 1594 H 151.457 -3.26656 4.01891 0
M  V30 1595 H 148.134 -3.8905 1.51481 0
M  V30 1596 H 149.524 -3.77993 5.55492 0
M  V30 1597 N 152.244 -1.26651 -0.937939 0
M  V30 1598 C 153.492 -1.12165 -1.68118 0
M  V30 1599 C 153.813 0.334983 -1.92101 0
M  V30 1600 O 153.083 1.23583 -1.52 0
M  V30 1601 H 151.663 -0.412093 -0.623048 0
M  V30 1602 H 154.325 -1.59027 -1.12678 0
M  V30 1603 H 153.421 -1.64289 -2.6536 0
M  V30 1604 N 153.722 1.14298 -1.08507 0
M  V30 1605 C 154.947 1.8976 -0.837001 0
M  V30 1606 C 155.372 1.78097 0.605228 0
M  V30 1607 O 154.73 1.12188 1.4242 0
M  V30 1608 C 154.778 3.37685 -1.26495 0
M  V30 1609 O 153.882 4.10281 -0.417514 0
M  V30 1610 H 153.223 0.590365 -0.303917 0
M  V30 1611 H 155.753 1.44672 -1.44676 0
M  V30 1612 H 155.763 3.88501 -1.24625 0
M  V30 1613 H 154.438 3.45492 -2.31534 0
M  V30 1614 H 153.015 3.69536 -0.499722 0
M  V30 1615 N 155.201 0.870884 1.31352 0
M  V30 1616 C 156.111 0.330783 2.32256 0
M  V30 1617 C 157.127 -0.559767 1.6475 0
M  V30 1618 O 158.303 -0.456263 1.96164 0
M  V30 1619 C 155.368 -0.458137 3.4366 0
M  V30 1620 C 154.429 0.460482 4.26823 0
M  V30 1621 C 153.662 -0.290881 5.32907 0
M  V30 1622 O 153.885 -1.51885 5.49806 0
M  V30 1623 O 152.819 0.351732 6.00871 0
M  V30 1624 H 156.645 1.16718 2.80376 0
M  V30 1625 H 154.23 0.634285 1.35267 0
M  V30 1626 H 156.112 -0.905343 4.1156 0
M  V30 1627 H 154.787 -1.27106 2.97701 0
M  V30 1628 H 153.694 0.956207 3.61673 0
M  V30 1629 H 155.027 1.23903 4.7635 0
M  V30 1630 N 156.679 -1.44442 0.630414 0
M  V30 1631 C 157.629 -2.27794 -0.0968103 0
M  V30 1632 C 158.613 -1.38624 -0.816834 0
M  V30 1633 O 159.805 -1.62438 -0.70306 0
M  V30 1634 C 156.934 -3.25929 -1.07819 0
M  V30 1635 C 156.02 -4.22588 -0.357826 0
M  V30 1636 N 156.411 -5.0207 0.613169 0
M  V30 1637 C 154.709 -4.41914 -0.602365 0
M  V30 1638 C 155.41 -5.72351 1.03871 0
M  V30 1639 N 154.386 -5.42287 0.377642 0
M  V30 1640 H 158.188 -2.86653 0.648621 0
M  V30 1641 H 155.702 -1.55871 0.455862 0
M  V30 1642 H 157.699 -3.84399 -1.61378 0
M  V30 1643 H 156.359 -2.68631 -1.82393 0
M  V30 1644 H 157.37 -5.08331 0.990947 0
M  V30 1645 H 154.047 -3.95714 -1.33103 0
M  V30 1646 H 155.437 -6.4619 1.84086 0
M  V30 1647 N 158.157 -0.370918 -1.53173 0
M  V30 1648 C 159.385 0.217704 -2.05751 0
M  V30 1649 C 159.8 1.42018 -1.24404 0
M  V30 1650 O 159.157 1.80245 -0.286033 0
M  V30 1651 C 159.208 0.605954 -3.56385 0
M  V30 1652 O 158.929 -0.548734 -4.3465 0
M  V30 1653 C 160.43 1.2524 -4.25241 0
M  V30 1654 H 157.65 0.0371659 -0.66997 0
M  V30 1655 H 160.194 -0.530832 -1.9749 0
M  V30 1656 H 158.349 1.3044 -3.6478 0
M  V30 1657 H 158.763 -0.23376 -5.23979 0
M  V30 1658 H 160.237 1.47458 -5.3194 0
M  V30 1659 H 160.714 2.2143 -3.79296 0
M  V30 1660 H 161.32 0.595233 -4.21114 0
M  V30 1661 N 159.635 1.57281 -0.100228 0
M  V30 1662 C 160.881 1.94826 0.563101 0
M  V30 1663 C 161.214 0.982475 1.67514 0
M  V30 1664 O 160.489 0.0164069 1.94493 0
M  V30 1665 C 160.772 3.42453 1.11346 0
M  V30 1666 C 160.625 4.498 0.00612081 0
M  V30 1667 C 161.944 3.91506 2.01024 0
M  V30 1668 H 159.063 0.708428 0.203221 0
M  V30 1669 H 161.705 1.8922 -0.171979 0
M  V30 1670 H 159.855 3.47361 1.7399 0
M  V30 1671 H 161.527 4.57 -0.628357 0
M  V30 1672 H 159.77 4.28756 -0.659581 0
M  V30 1673 H 160.441 5.50306 0.432109 0
M  V30 1674 H 162.917 3.88784 1.48278 0
M  V30 1675 H 161.793 4.95358 2.36457 0
M  V30 1676 H 162.054 3.31099 2.92961 0
M  V30 1677 N 161.113 -0.173488 1.56642 0
M  V30 1678 C 162.39 -0.917617 1.7274 0
M  V30 1679 C 162.77 -2.00484 0.661027 0
M  V30 1680 O 162.118 -2.26184 -0.32453 0
M  V30 1681 C 162.328 -1.48433 3.15862 0
M  V30 1682 C 163.676 -1.95809 3.76754 0
M  V30 1683 O 164.7 -1.58231 3.19126 0
M  V30 1684 O 163.559 -2.65024 4.77938 0
M  V30 1685 H 160.653 -0.431772 0.705338 0
M  V30 1686 H 163.199 -0.161487 1.6893 0
M  V30 1687 H 161.971 -0.701715 3.84957 0
M  V30 1688 H 161.594 -2.30471 3.23989 0
M  V30 1689 N 162.591 -1.51276 -0.441967 0
M  V30 1690 C 163.839 -1.63392 -1.18943 0
M  V30 1691 C 164.16 -0.350159 -1.9183 0
M  V30 1692 O 163.43 0.633784 -1.85364 0
M  V30 1693 H 162.01 -0.602164 -0.442049 0
M  V30 1694 H 164.672 -1.88186 -0.507165 0
M  V30 1695 H 163.768 -2.45934 -1.92154 0
M  V30 1696 N 164.069 0.697108 -1.41344 0
M  V30 1697 C 165.315 1.4593 -1.40827 0
M  V30 1698 C 165.648 1.94193 -0.0167098 0
M  V30 1699 O 164.923 1.69425 0.955263 0
M  V30 1700 C 165.206 2.67229 -2.41373 0
M  V30 1701 C 165.059 2.24741 -3.8963 0
M  V30 1702 C 166.378 3.69423 -2.39196 0
M  V30 1703 H 163.497 0.529303 -0.512842 0
M  V30 1704 H 166.139 0.794112 -1.72609 0
M  V30 1705 H 164.289 3.23982 -2.14401 0
M  V30 1706 H 165.961 1.73327 -4.27499 0
M  V30 1707 H 164.204 1.56542 -4.0457 0
M  V30 1708 H 164.875 3.1177 -4.55525 0
M  V30 1709 H 167.351 3.2234 -2.63128 0
M  V30 1710 H 166.227 4.51907 -3.11563 0
M  V30 1711 H 166.488 4.19012 -1.41001 0
M  V30 1712 N 165.547 1.27147 0.931209 0
M  V30 1713 C 166.494 1.09568 2.03134 0
M  V30 1714 C 167.464 -0.00222433 1.661 0
M  V30 1715 O 168.649 0.159439 1.90133 0
M  V30 1716 C 165.789 0.745231 3.36957 0
M  V30 1717 C 164.902 1.92041 3.86968 0
M  V30 1718 C 164.037 1.51216 5.09222 0
M  V30 1719 C 163.076 2.65504 5.5152 0
M  V30 1720 N 162.213 2.25291 6.64972 0
M  V30 1721 H 167.053 2.03708 2.17502 0
M  V30 1722 H 164.59 1.01411 1.06556 0
M  V30 1723 H 166.548 0.522878 4.1391 0
M  V30 1724 H 165.178 -0.159202 3.22407 0
M  V30 1725 H 164.23 2.25541 3.06326 0
M  V30 1726 H 165.542 2.77787 4.1429 0
M  V30 1727 H 164.696 1.25084 5.93666 0
M  V30 1728 H 163.435 0.625749 4.83669 0
M  V30 1729 H 162.44 2.92354 4.65628 0
M  V30 1730 H 163.665 3.54761 5.7907 0
M  V30 1731 H 161.611 1.39098 6.41083 0
M  V30 1732 H 161.528 3.04577 6.91931 0
M  V30 1733 H 162.796 2.02398 7.52765 0
M  V30 1734 N 167.025 -1.13721 1.09112 0
M  V30 1735 C 168.255 -1.88499 0.845671 0
M  V30 1736 C 168.663 -1.79218 -0.606432 0
M  V30 1737 O 168.006 -1.1544 -1.42896 0
M  V30 1738 C 168.068 -3.38954 1.19793 0
M  V30 1739 C 167.732 -3.72018 2.65428 0
M  V30 1740 C 168.729 -3.7153 3.63677 0
M  V30 1741 C 166.414 -4.01775 3.01467 0
M  V30 1742 C 168.408 -4.00336 4.95994 0
M  V30 1743 C 166.095 -4.30243 4.33975 0
M  V30 1744 C 167.093 -4.29508 5.31048 0
M  V30 1745 O 166.781 -4.5728 6.61173 0
M  V30 1746 H 166.513 -0.603702 0.304171 0
M  V30 1747 H 169.067 -1.44903 1.45576 0
M  V30 1748 H 167.297 -3.83039 0.530871 0
M  V30 1749 H 168.986 -3.95052 0.932146 0
M  V30 1750 H 169.752 -3.4862 3.37179 0
M  V30 1751 H 165.631 -4.01496 2.26544 0
M  V30 1752 H 169.175 -3.99678 5.71755 0
M  V30 1753 H 165.072 -4.52625 4.60219 0
M  V30 1754 H 165.84 -4.74964 6.66597 0
M  V30 1755 N 168.503 -0.877838 -1.30888 0
M  V30 1756 C 169.466 -0.344265 -2.266 0
M  V30 1757 C 170.466 0.50922 -1.52524 0
M  V30 1758 O 171.656 0.317398 -1.71284 0
M  V30 1759 C 168.788 0.510198 -3.37061 0
M  V30 1760 H 169.981 -1.1893 -2.7531 0
M  V30 1761 H 167.534 -0.654088 -1.41956 0
M  V30 1762 H 168.269 1.37612 -2.93655 0
M  V30 1763 H 168.054 -0.101047 -3.9197 0
M  V30 1764 H 169.544 0.875537 -4.08319 0
M  V30 1765 N 169.982 1.44106 -0.638065 0
M  V30 1766 C 170.945 2.29138 0.0531013 0
M  V30 1767 C 171.945 1.41409 0.765506 0
M  V30 1768 O 173.135 1.63206 0.609046 0
M  V30 1769 C 170.267 3.23144 1.08584 0
M  V30 1770 H 171.46 2.91739 -0.694883 0
M  V30 1771 H 169.013 1.51134 -0.398538 0
M  V30 1772 H 169.748 2.65408 1.86357 0
M  V30 1773 H 169.533 3.87804 0.578852 0
M  V30 1774 H 171.023 3.87004 1.56899 0
M  V30 1775 N 171.46 0.379036 1.52974 0
M  V30 1776 C 172.37 -0.468639 2.29872 0
M  V30 1777 C 173.386 -1.08067 1.36373 0
M  V30 1778 O 174.562 -1.08871 1.69438 0
M  V30 1779 C 171.627 -1.58594 3.083 0
M  V30 1780 C 170.688 -1.00007 4.17489 0
M  V30 1781 C 169.921 -2.06413 4.92168 0
M  V30 1782 O 170.144 -3.27751 4.66835 0
M  V30 1783 O 169.078 -1.68717 5.7777 0
M  V30 1784 H 172.904 0.157508 3.03291 0
M  V30 1785 H 170.489 0.143035 1.48714 0
M  V30 1786 H 172.371 -2.23525 3.57232 0
M  V30 1787 H 171.046 -2.19724 2.37703 0
M  V30 1788 H 169.953 -0.314299 3.72777 0
M  V30 1789 H 171.286 -0.433135 4.90291 0
M  V30 1790 N 172.938 -1.57226 0.108567 0
M  V30 1791 C 173.868 -2.17778 -0.84232 0
M  V30 1792 C 174.849 -1.11487 -1.2847 0
M  V30 1793 O 176.034 -1.39681 -1.34918 0
M  V30 1794 C 173.164 -2.76888 -2.09644 0
M  V30 1795 C 172.118 -3.88669 -1.79221 0
M  V30 1796 C 171.444 -4.34541 -3.11574 0
M  V30 1797 C 172.744 -5.11251 -1.06864 0
M  V30 1798 H 174.438 -2.97489 -0.337774 0
M  V30 1799 H 171.984 -1.43097 -0.161025 0
M  V30 1800 H 173.937 -3.17904 -2.76614 0
M  V30 1801 H 172.661 -1.94451 -2.62405 0
M  V30 1802 H 171.32 -3.48213 -1.14644 0
M  V30 1803 H 170.968 -3.48977 -3.62249 0
M  V30 1804 H 170.668 -5.09914 -2.91996 0
M  V30 1805 H 172.192 -4.782 -3.7968 0
M  V30 1806 H 173.606 -5.49352 -1.63968 0
M  V30 1807 H 172.003 -5.9214 -0.974178 0
M  V30 1808 H 173.073 -4.8487 -0.0536168 0
M  V30 1809 N 174.416 0.165178 -1.56732 0
M  V30 1810 C 175.366 1.20917 -1.93295 0
M  V30 1811 C 176.35 1.39488 -0.801985 0
M  V30 1812 O 177.542 1.41356 -1.06525 0
M  V30 1813 C 174.671 2.54718 -2.3016 0
M  V30 1814 C 173.757 2.39815 -3.49785 0
M  V30 1815 N 174.148 1.94637 -4.66851 0
M  V30 1816 C 172.446 2.70623 -3.54513 0
M  V30 1817 C 173.147 1.92344 -5.4898 0
M  V30 1818 N 172.123 2.34978 -4.9019 0
M  V30 1819 H 175.925 0.851675 -2.81289 0
M  V30 1820 H 173.439 0.373399 -1.58049 0
M  V30 1821 H 175.436 3.30165 -2.54552 0
M  V30 1822 H 174.096 2.91265 -1.43508 0
M  V30 1823 H 175.107 1.6488 -4.90953 0
M  V30 1824 H 171.784 3.11167 -2.78354 0
M  V30 1825 H 173.174 1.5906 -6.52801 0
M  V30 1826 N 175.894 1.51508 0.433938 0
M  V30 1827 C 176.824 1.76016 1.53429 0
M  V30 1828 C 177.805 0.610112 1.58782 0
M  V30 1829 O 178.99 0.853177 1.74455 0
M  V30 1830 C 176.12 1.88831 2.9148 0
M  V30 1831 C 175.074 3.04288 3.00987 0
M  V30 1832 C 174.4 3.0229 4.4105 0
M  V30 1833 C 175.7 4.44193 2.74754 0
M  V30 1834 H 177.394 2.68152 1.33171 0
M  V30 1835 H 174.94 1.29035 0.639214 0
M  V30 1836 H 176.893 2.04559 3.6842 0
M  V30 1837 H 175.617 0.933455 3.12976 0
M  V30 1838 H 174.276 2.8827 2.26486 0
M  V30 1839 H 173.924 2.04576 4.59519 0
M  V30 1840 H 173.624 3.79822 4.4834 0
M  V30 1841 H 175.148 3.20116 5.1996 0
M  V30 1842 H 176.562 4.60544 3.41426 0
M  V30 1843 H 174.959 5.23457 2.9345 0
M  V30 1844 H 176.029 4.53996 1.70339 0
M  V30 1845 N 177.372 -0.689602 1.41712 0
M  V30 1846 C 178.618 -1.45181 1.41599 0
M  V30 1847 C 178.951 -1.94181 0.0270081 0
M  V30 1848 O 178.226 -1.6993 -0.946265 0
M  V30 1849 C 178.509 -2.65945 2.42787 0
M  V30 1850 C 178.362 -2.22672 3.90816 0
M  V30 1851 C 179.681 -3.68149 2.41151 0
M  V30 1852 H 176.8 -0.526576 0.515642 0
M  V30 1853 H 179.442 -0.784947 1.73028 0
M  V30 1854 H 177.592 -3.2284 2.16116 0
M  V30 1855 H 179.264 -1.71058 4.28412 0
M  V30 1856 H 177.507 -1.54394 4.05395 0
M  V30 1857 H 178.178 -3.0935 4.57172 0
M  V30 1858 H 180.654 -3.2094 2.64834 0
M  V30 1859 H 179.53 -4.50248 3.13955 0
M  V30 1860 H 179.791 -4.18259 1.43221 0
M  V30 1861 N 178.85 -1.27639 -0.924453 0
M  V30 1862 C 179.8 -1.07295 -2.01176 0
M  V30 1863 C 180.784 5.77352e-05 -1.609 0
M  V30 1864 O 181.976 -0.218855 -1.75642 0
M  V30 1865 C 179.105 -0.725592 -3.35544 0
M  V30 1866 C 178.191 -1.83691 -3.82254 0
M  V30 1867 N 178.582 -3.07697 -4.01443 0
M  V30 1868 C 176.88 -1.72433 -4.11319 0
M  V30 1869 C 177.581 -3.80037 -4.40394 0
M  V30 1870 N 176.557 -3.0782 -4.48049 0
M  V30 1871 H 180.359 -2.01399 -2.14046 0
M  V30 1872 H 177.873 -1.18401 -1.11153 0
M  V30 1873 H 179.87 -0.560959 -4.13109 0
M  V30 1874 H 178.53 0.207782 -3.24034 0
M  V30 1875 H 179.541 -3.43424 -3.8766 0
M  V30 1876 H 176.218 -0.862005 -4.08504 0
M  V30 1877 H 177.608 -4.86632 -4.63291 0
M  V30 1878 N 180.328 1.1314 -1.09713 0
M  V30 1879 C 181.574 1.84967 -0.846104 0
M  V30 1880 C 181.929 1.82082 0.621601 0
M  V30 1881 O 181.222 1.2501 1.452 0
M  V30 1882 C 181.416 3.32167 -1.3191 0
M  V30 1883 C 181.245 3.49386 -2.83125 0
M  V30 1884 C 180.015 3.63456 -3.51038 0
M  V30 1885 C 182.213 3.45179 -3.81256 0
M  V30 1886 N 180.195 3.68966 -4.9065 0
M  V30 1887 C 181.566 3.57094 -5.06837 0
M  V30 1888 C 183.621 3.28598 -3.74069 0
M  V30 1889 C 182.324 3.5414 -6.26081 0
M  V30 1890 C 184.35 3.26953 -4.92804 0
M  V30 1891 C 183.712 3.39422 -6.17229 0
M  V30 1892 H 179.811 0.692899 -0.362512 0
M  V30 1893 H 182.395 1.35506 -1.39808 0
M  V30 1894 H 180.566 3.80186 -0.794535 0
M  V30 1895 H 182.298 3.91815 -1.01308 0
M  V30 1896 H 179.053 3.65256 -3.01471 0
M  V30 1897 H 179.477 3.75404 -5.63383 0
M  V30 1898 H 184.119 3.17858 -2.78794 0
M  V30 1899 H 181.837 3.63653 -7.21653 0
M  V30 1900 H 185.423 3.15316 -4.88945 0
M  V30 1901 H 184.303 3.38114 -7.07565 0
M  V30 1902 N 181.806 0.884767 1.30421 0
M  V30 1903 C 182.754 0.340869 2.30089 0
M  V30 1904 C 183.748 -0.55201 1.60154 0
M  V30 1905 O 184.954 -0.436467 1.74628 0
M  V30 1906 H 181.329 0.0915739 0.746404 0
M  V30 1907 H 183.3 1.19513 2.73421 0
M  V30 1908 C 182.049 -0.429779 3.45034 0
M  V30 1909 H 181.372 0.248024 3.9903 0
M  V30 1910 H 182.812 -0.775445 4.16849 0
M  V30 1911 C 181.271 -1.62677 2.95022 0
M  V30 1912 O 181.801 -2.72614 2.95033 0
M  V30 1913 N 180.007 -1.46387 2.51036 0
M  V30 1914 H 179.554 -0.569506 2.51226 0
M  V30 1915 H 179.512 -2.26612 2.17932 0
M  V30 1916 N 183.284 -1.43765 0.645699 0
M  V30 1917 C 184.695 -1.85193 0.236719 0
M  V30 1918 C 185.046 -1.54045 -1.21509 0
M  V30 1919 O 184.171 -0.985694 -1.92647 0
M  V30 1920 C 184.766 -3.36151 0.422845 0
M  V30 1921 C 183.325 -3.76338 0.0682492 0
M  V30 1922 C 182.472 -2.67538 0.729306 0
M  V30 1923 H 185.423 -1.34025 0.849883 0
M  V30 1924 H 185.444 -3.79032 -0.333904 0
M  V30 1925 H 184.956 -3.5879 1.47958 0
M  V30 1926 H 183.057 -3.59312 -0.986179 0
M  V30 1927 H 183.17 -4.76603 0.488469 0
M  V30 1928 H 181.534 -2.54176 0.163235 0
M  V30 1929 H 182.317 -2.93006 1.78892 0
M  V30 1930 N 184.763 -0.387143 -1.52771 0
M  V30 1931 C 185.71 0.449048 -2.26389 0
M  V30 1932 C 186.68 1.05961 -1.27912 0
M  V30 1933 O 187.865 1.08804 -1.56737 0
M  V30 1934 C 185.005 1.57155 -3.0724 0
M  V30 1935 C 184.118 0.984066 -4.20643 0
M  V30 1936 C 183.253 2.07745 -4.88892 0
M  V30 1937 C 182.292 1.46574 -5.94292 0
M  V30 1938 N 181.429 2.49834 -6.56146 0
M  V30 1939 H 186.269 -0.185205 -2.97424 0
M  V30 1940 H 183.806 -0.103164 -1.46738 0
M  V30 1941 H 185.764 2.23309 -3.52405 0
M  V30 1942 H 184.394 2.17615 -2.38419 0
M  V30 1943 H 183.446 0.212193 -3.79808 0
M  V30 1944 H 184.758 0.497029 -4.96318 0
M  V30 1945 H 183.912 2.81673 -5.3735 0
M  V30 1946 H 182.651 2.59807 -4.12737 0
M  V30 1947 H 181.656 0.711696 -5.45174 0
M  V30 1948 H 182.881 0.953088 -6.72379 0
M  V30 1949 H 180.827 3.0107 -5.82832 0
M  V30 1950 H 180.744 2.05879 -7.27427 0
M  V30 1951 H 182.012 3.23399 -7.09249 0
M  V30 1952 N 186.241 1.57166 -0.116904 0
M  V30 1953 C 187.471 1.99184 0.548586 0
M  V30 1954 C 187.879 0.995436 1.60897 0
M  V30 1955 O 187.222 -0.0201293 1.83689 0
M  V30 1956 C 187.284 3.37611 1.23526 0
M  V30 1957 C 186.948 4.55857 0.323077 0
M  V30 1958 C 187.945 5.18056 -0.437476 0
M  V30 1959 C 185.63 5.01751 0.234761 0
M  V30 1960 C 187.624 6.24536 -1.2741 0
M  V30 1961 C 185.311 6.08093 -0.605496 0
M  V30 1962 C 186.309 6.69352 -1.35856 0
M  V30 1963 O 185.997 7.7364 -2.18487 0
M  V30 1964 H 185.729 0.659148 0.149999 0
M  V30 1965 H 188.283 2.0443 -0.199428 0
M  V30 1966 H 186.513 3.29113 2.0303 0
M  V30 1967 H 188.202 3.63932 1.79745 0
M  V30 1968 H 188.968 4.83516 -0.379105 0
M  V30 1969 H 184.847 4.53817 0.810601 0
M  V30 1970 H 188.391 6.72281 -1.86237 0
M  V30 1971 H 184.288 6.42063 -0.665268 0
M  V30 1972 H 185.056 7.90727 -2.11406 0
M  V30 1973 N 187.719 -0.156864 1.56817 0
M  V30 1974 C 188.667 -1.21319 1.98455 0
M  V30 1975 C 189.661 -1.45025 0.875444 0
M  V30 1976 O 190.867 -1.45435 1.0606 0
M  V30 1977 H 187.242 -0.408142 0.631605 0
M  V30 1978 H 189.213 -0.835244 2.86472 0
M  V30 1979 C 187.962 -2.54148 2.37285 0
M  V30 1980 H 187.285 -2.36733 3.22176 0
M  V30 1981 H 188.725 -3.26712 2.70251 0
M  V30 1982 C 187.184 -3.13967 1.22173 0
M  V30 1983 O 187.714 -3.98357 0.517149 0
M  V30 1984 N 185.92 -2.7327 0.988536 0
M  V30 1985 H 185.467 -2.04744 1.56326 0
M  V30 1986 H 185.425 -3.13628 0.220209 0
M  V30 1987 N 189.197 -1.51736 -0.425897 0
M  V30 1988 C 190.425 -1.68794 -1.1965 0
M  V30 1989 C 190.84 -0.390164 -1.84725 0
M  V30 1990 O 190.197 0.632376 -1.71194 0
M  V30 1991 C 190.248 -2.81174 -2.27208 0
M  V30 1992 O 189.969 -4.05925 -1.64793 0
M  V30 1993 C 191.47 -3.09599 -3.17275 0
M  V30 1994 H 188.69 -0.566128 -0.360194 0
M  V30 1995 H 191.234 -1.98211 -0.503249 0
M  V30 1996 H 189.389 -2.54324 -2.9223 0
M  V30 1997 H 189.803 -4.68423 -2.35967 0
M  V30 1998 H 191.277 -3.91786 -3.88854 0
M  V30 1999 H 191.754 -2.22468 -3.78688 0
M  V30 2000 H 192.36 -3.38151 -2.57941 0
M  V30 2001 N 190.675 0.682077 -1.42076 0
M  V30 2002 C 191.922 1.44215 -1.42156 0
M  V30 2003 C 192.25 1.94468 -0.0354186 0
M  V30 2004 O 191.505 1.70816 0.955002 0
M  V30 2005 C 191.804 2.66036 -2.38662 0
M  V30 2006 C 191.47 2.34366 -3.85206 0
M  V30 2007 C 190.132 2.25439 -4.25124 0
M  V30 2008 C 192.484 2.08513 -4.77673 0
M  V30 2009 C 189.812 1.88775 -5.55501 0
M  V30 2010 C 192.164 1.73354 -6.08384 0
M  V30 2011 C 190.828 1.62933 -6.47309 0
M  V30 2012 H 190.098 0.527718 -0.520187 0
M  V30 2013 H 192.745 0.778387 -1.74967 0
M  V30 2014 H 191.05 3.3741 -1.99152 0
M  V30 2015 H 192.747 3.24205 -2.35991 0
M  V30 2016 H 189.337 2.42213 -3.53597 0
M  V30 2017 H 193.521 2.14346 -4.47626 0
M  V30 2018 H 188.777 1.7927 -5.84527 0
M  V30 2019 H 192.951 1.52373 -6.79526 0
M  V30 2020 H 190.578 1.34292 -7.48244 0
M  V30 2021 N 192.153 1.28127 0.917671 0
M  V30 2022 C 193.1 1.11717 2.0196 0
M  V30 2023 C 194.07 0.0153929 1.66093 0
M  V30 2024 O 195.255 0.179596 1.89953 0
M  V30 2025 C 192.395 0.780927 3.36148 0
M  V30 2026 C 191.508 1.96135 3.84909 0
M  V30 2027 C 190.643 1.56609 5.0759 0
M  V30 2028 C 189.682 2.71339 5.48673 0
M  V30 2029 N 188.819 2.32332 6.62545 0
M  V30 2030 H 193.659 2.06003 2.15329 0
M  V30 2031 H 191.196 1.02535 1.05475 0
M  V30 2032 H 193.154 0.56675 4.13333 0
M  V30 2033 H 191.784 -0.124998 3.22558 0
M  V30 2034 H 190.836 2.28777 3.03916 0
M  V30 2035 H 192.148 2.82165 4.1132 0
M  V30 2036 H 191.302 1.31374 5.92305 0
M  V30 2037 H 190.041 0.677014 4.82978 0
M  V30 2038 H 189.046 2.97276 4.62501 0
M  V30 2039 H 190.271 3.60882 5.75274 0
M  V30 2040 H 188.217 1.45889 6.39572 0
M  V30 2041 H 188.134 3.11899 6.88662 0
M  V30 2042 H 189.402 2.10371 7.50576 0
M  V30 2043 N 193.631 -1.12557 1.10312 0
M  V30 2044 C 194.541 -2.21841 0.763142 0
M  V30 2045 C 195.557 -1.72354 -0.238801 0
M  V30 2046 O 196.733 -2.01249 -0.0778746 0
M  V30 2047 C 193.798 -3.46131 0.198632 0
M  V30 2048 C 192.859 -4.10464 1.25769 0
M  V30 2049 C 192.092 -5.28821 0.72002 0
M  V30 2050 O 192.315 -5.6859 -0.453993 0
M  V30 2051 O 191.249 -5.83437 1.47935 0
M  V30 2052 H 195.075 -2.53312 1.67532 0
M  V30 2053 H 192.66 -1.20867 0.878157 0
M  V30 2054 H 194.542 -4.2125 -0.112401 0
M  V30 2055 H 193.217 -3.16338 -0.686419 0
M  V30 2056 H 192.124 -3.3713 1.62156 0
M  V30 2057 H 193.457 -4.44408 2.11571 0
M  V30 2058 N 195.109 -0.891671 -1.2995 0
M  V30 2059 C 196.072 -0.36828 -2.26222 0
M  V30 2060 C 197.072 0.493014 -1.53056 0
M  V30 2061 O 198.262 0.299213 -1.71611 0
M  V30 2062 C 195.394 0.47442 -3.37583 0
M  V30 2063 H 196.587 -1.21844 -2.74033 0
M  V30 2064 H 194.14 -0.669107 -1.41254 0
M  V30 2065 H 194.875 1.34489 -2.95099 0
M  V30 2066 H 194.66 -0.142615 -3.91841 0
M  V30 2067 H 196.15 0.83218 -4.09224 0
M  V30 2068 N 196.587 1.43421 -0.653314 0
M  V30 2069 C 197.517 2.33487 0.0246656 0
M  V30 2070 C 198.498 1.49475 0.811863 0
M  V30 2071 O 199.683 1.78139 0.773322 0
M  V30 2072 C 196.813 3.32841 0.99166 0
M  V30 2073 C 195.767 4.26842 0.314568 0
M  V30 2074 C 195.093 5.16236 1.39302 0
M  V30 2075 C 196.393 5.16243 -0.793095 0
M  V30 2076 H 198.087 2.90427 -0.727481 0
M  V30 2077 H 195.633 1.39649 -0.351287 0
M  V30 2078 H 197.586 3.94747 1.47487 0
M  V30 2079 H 196.31 2.74158 1.77497 0
M  V30 2080 H 194.969 3.663 -0.148199 0
M  V30 2081 H 194.617 4.53891 2.16776 0
M  V30 2082 H 194.317 5.79948 0.945223 0
M  V30 2083 H 195.841 5.81015 1.87759 0
M  V30 2084 H 197.255 5.71958 -0.392039 0
M  V30 2085 H 195.652 5.88676 -1.16536 0
M  V30 2086 H 196.722 4.55927 -1.65103 0
M  V30 2087 N 198.065 0.39524 1.52563 0
M  V30 2088 C 199.012 -0.437036 2.26624 0
M  V30 2089 C 199.982 -1.05281 1.28472 0
M  V30 2090 O 201.167 -1.07971 1.57311 0
M  V30 2091 C 198.307 -1.55524 3.08069 0
M  V30 2092 C 197.42 -0.961745 4.21158 0
M  V30 2093 C 196.555 -2.05149 4.89987 0
M  V30 2094 C 195.594 -1.4342 5.95061 0
M  V30 2095 N 194.731 -2.46351 6.57462 0
M  V30 2096 H 199.571 0.200976 2.97322 0
M  V30 2097 H 197.108 0.110944 1.46681 0
M  V30 2098 H 199.066 -2.21437 3.53584 0
M  V30 2099 H 197.696 -2.16348 2.3957 0
M  V30 2100 H 196.748 -0.192048 3.79915 0
M  V30 2101 H 198.06 -0.470701 4.96574 0
M  V30 2102 H 197.214 -2.78819 5.38837 0
M  V30 2103 H 195.953 -2.57615 4.14109 0
M  V30 2104 H 194.958 -0.682774 5.45544 0
M  V30 2105 H 196.183 -0.917416 6.72875 0
M  V30 2106 H 194.129 -2.97975 5.8442 0
M  V30 2107 H 194.046 -2.02019 7.28508 0
M  V30 2108 H 195.314 -3.19633 7.10954 0
M  V30 2109 N 199.544 -1.57102 0.125237 0
M  V30 2110 C 200.476 -2.12726 -0.853237 0
M  V30 2111 C 201.489 -1.07145 -1.22571 0
M  V30 2112 O 202.678 -1.34497 -1.17358 0
M  V30 2113 C 199.778 -2.61709 -2.15317 0
M  V30 2114 C 198.951 -3.91456 -1.95143 0
M  V30 2115 C 198.01 -4.25973 -3.08923 0
M  V30 2116 O 197.036 -4.94682 -2.81564 0
M  V30 2117 N 198.238 -3.83795 -4.35524 0
M  V30 2118 H 201.003 -2.97307 -0.377964 0
M  V30 2119 H 198.564 -1.61792 -0.0590011 0
M  V30 2120 H 200.556 -2.81826 -2.90441 0
M  V30 2121 H 199.126 -1.81974 -2.54174 0
M  V30 2122 H 198.346 -3.80185 -1.04177 0
M  V30 2123 H 199.634 -4.76283 -1.78976 0
M  V30 2124 H 199.032 -3.2839 -4.60626 0
M  V30 2125 H 197.589 -4.09008 -5.07499 0
M  V30 2126 N 201.022 0.148545 -1.56898 0
M  V30 2127 C 202.438 0.501131 -1.51528 0
M  V30 2128 C 202.638 1.83458 -0.833399 0
M  V30 2129 O 201.694 2.49259 -0.40328 0
M  V30 2130 C 203.007 0.512864 -2.96294 0
M  V30 2131 C 204.555 0.598487 -3.07225 0
M  V30 2132 C 205.03 0.640897 -4.53494 0
M  V30 2133 N 206.521 0.703163 -4.57832 0
M  V30 2134 C 207.256 0.756935 -5.68382 0
M  V30 2135 N 206.752 0.770147 -6.88506 0
M  V30 2136 N 208.545 0.797698 -5.56411 0
M  V30 2137 H 200.696 -0.725532 -1.99624 0
M  V30 2138 H 202.959 -0.264358 -0.910395 0
M  V30 2139 H 202.665 -0.398691 -3.49433 0
M  V30 2140 H 202.539 1.35133 -3.52163 0
M  V30 2141 H 204.926 1.50046 -2.54106 0
M  V30 2142 H 205.007 -0.267093 -2.54402 0
M  V30 2143 H 204.651 -0.256915 -5.0725 0
M  V30 2144 H 204.581 1.52295 -5.04097 0
M  V30 2145 H 207.072 0.700314 -3.71354 0
M  V30 2146 H 207.385 0.812983 -7.68512 0
M  V30 2147 H 205.73 0.738049 -6.9107 0
M  V30 2148 H 208.921 0.784535 -4.61479 0
M  V30 2149 H 209.094 0.83614 -6.42583 0
M  V30 2150 N 202.5 1.5196 0.417844 0
M  V30 2151 C 203.777 1.56146 1.17803 0
M  V30 2152 C 204.157 0.337275 2.08388 0
M  V30 2153 O 203.505 -0.676447 2.18258 0
M  V30 2154 C 203.715 2.88566 1.96293 0
M  V30 2155 C 205.063 3.41244 2.52662 0
M  V30 2156 O 206.087 2.90247 2.06483 0
M  V30 2157 O 204.946 4.30273 3.36938 0
M  V30 2158 H 202.04 0.628598 0.537395 0
M  V30 2159 H 204.586 1.64283 0.425331 0
M  V30 2160 H 203.358 3.69116 1.2988 0
M  V30 2161 H 202.981 2.83681 2.78587 0
M  V30 2162 N 203.978 -0.674533 1.42435 0
M  V30 2163 C 205.226 -1.43175 1.42637 0
M  V30 2164 C 205.547 -1.94951 0.0438992 0
M  V30 2165 O 204.817 -1.7308 -0.917607 0
M  V30 2166 H 203.397 -0.531307 0.525092 0
M  V30 2167 H 206.059 -0.797006 1.77859 0
M  V30 2168 H 205.155 -2.28463 2.12629 0
M  V30 2169 N 205.456 -1.28612 -0.910864 0
M  V30 2170 C 206.705 -1.15311 -1.65488 0
M  V30 2171 C 207.018 0.296999 -1.93332 0
M  V30 2172 O 208.224 0.551168 -2.65847 0
M  V30 2173 C 206.68 -2.01599 -2.98137 0
M  V30 2174 C 206.288 -3.51367 -2.7793 0
M  V30 2175 C 208.032 -1.96993 -3.76024 0
M  V30 2176 C 205.939 -4.29797 -4.06237 0
M  V30 2177 H 204.869 -0.42796 -0.620779 0
M  V30 2178 H 207.52 -1.53166 -1.01057 0
M  V30 2179 H 205.902 -1.56603 -3.63719 0
M  V30 2180 H 207.076 -4.0434 -2.21011 0
M  V30 2181 H 205.391 -3.57529 -2.13452 0
M  V30 2182 H 207.988 -2.52856 -4.71135 0
M  V30 2183 H 208.331 -0.94733 -4.05378 0
M  V30 2184 H 208.864 -2.39973 -3.17266 0
M  V30 2185 H 205.603 -5.32648 -3.82055 0
M  V30 2186 H 205.123 -3.81596 -4.62757 0
M  V30 2187 H 206.802 -4.39869 -4.74473 0
M  V30 2188 N 206.934 1.1197 -1.10907 0
M  V30 2189 C 207.897 2.16031 -0.765707 0
M  V30 2190 C 208.897 1.59393 0.212235 0
M  V30 2191 O 210.087 1.74196 -0.0115441 0
M  V30 2192 C 207.219 3.40632 -0.135053 0
M  V30 2193 H 208.412 2.47919 -1.68748 0
M  V30 2194 H 205.965 1.27061 -0.910226 0
M  V30 2195 H 206.7 3.14348 0.797218 0
M  V30 2196 H 206.485 3.8302 -0.838937 0
M  V30 2197 H 207.975 4.17505 0.0892469 0
M  V30 2198 N 208.412 0.89855 1.29475 0
M  V30 2199 C 209.658 0.524658 1.95896 0
M  V30 2200 C 209.991 -0.926468 1.70676 0
M  V30 2201 O 209.266 -1.65665 1.01908 0
M  V30 2202 C 209.549 0.81633 3.50725 0
M  V30 2203 C 209.402 2.31907 3.85408 0
M  V30 2204 C 210.721 0.302038 4.39062 0
M  V30 2205 H 207.84 0.19209 0.711527 0
M  V30 2206 H 210.482 1.12502 1.53112 0
M  V30 2207 H 208.632 0.305369 3.87298 0
M  V30 2208 H 210.304 2.89949 3.58786 0
M  V30 2209 H 208.547 2.78027 3.32992 0
M  V30 2210 H 209.218 2.47373 4.93468 0
M  V30 2211 H 211.694 0.739551 4.09475 0
M  V30 2212 H 210.57 0.535331 5.46283 0
M  V30 2213 H 210.831 -0.797216 4.34853 0
M  V30 2214 N 209.89 -1.43072 0.660911 0
M  V30 2215 C 211.139 -2.00942 0.174735 0
M  V30 2216 C 211.452 -1.52797 -1.22117 0
M  V30 2217 O 212.658 -2.02991 -1.80297 0
M  V30 2218 C 211.114 -3.58948 0.261559 0
M  V30 2219 C 210.722 -4.16085 1.66064 0
M  V30 2220 C 212.466 -4.24173 -0.166617 0
M  V30 2221 C 210.373 -5.6641 1.70098 0
M  V30 2222 H 209.303 -0.751483 0.0615631 0
M  V30 2223 H 211.954 -1.63955 0.824069 0
M  V30 2224 H 210.336 -3.93372 -0.455421 0
M  V30 2225 H 211.51 -3.93147 2.40359 0
M  V30 2226 H 209.825 -3.6326 2.03546 0
M  V30 2227 H 212.422 -5.34471 -0.156433 0
M  V30 2228 H 212.765 -3.98647 -1.19943 0
M  V30 2229 H 213.298 -3.94659 0.498875 0
M  V30 2230 H 210.037 -5.96715 2.71315 0
M  V30 2231 H 209.557 -5.91382 1.00139 0
M  V30 2232 H 211.236 -6.30585 1.44816 0
M  V30 2233 N 211.368 -0.403325 -1.52352 0
M  V30 2234 C 212.616 0.174003 -2.0135 0
M  V30 2235 C 212.937 1.46139 -1.29106 0
M  V30 2236 O 212.207 1.91448 -0.415253 0
M  V30 2237 H 210.787 0.0672911 -0.743963 0
M  V30 2238 H 213.449 -0.538235 -1.87321 0
M  V30 2239 H 212.545 0.374254 -3.09848 0
M  V30 2240 N 212.846 1.57033 -0.133567 0
M  V30 2241 C 214.095 1.94861 0.520768 0
M  V30 2242 C 214.408 1.02012 1.66892 0
M  V30 2243 O 215.614 1.29365 2.38699 0
M  V30 2244 C 214.07 3.46362 0.977809 0
M  V30 2245 C 213.678 4.47773 -0.142674 0
M  V30 2246 C 215.422 3.93083 1.60269 0
M  V30 2247 C 213.329 5.90468 0.331883 0
M  V30 2248 H 212.259 0.727453 0.198315 0
M  V30 2249 H 214.91 1.82227 -0.215759 0
M  V30 2250 H 213.292 3.54282 1.7692 0
M  V30 2251 H 214.466 4.51536 -0.919317 0
M  V30 2252 H 212.781 4.10891 -0.675124 0
M  V30 2253 H 215.378 4.97121 1.96914 0
M  V30 2254 H 215.721 3.33876 2.48662 0
M  V30 2255 H 216.254 3.88025 0.876453 0
M  V30 2256 H 212.993 6.53463 -0.516341 0
M  V30 2257 H 212.513 5.90094 1.07469 0
M  V30 2258 H 214.192 6.42179 0.788332 0
M  V30 2259 N 214.325 -0.140222 1.56975 0
M  V30 2260 C 215.572 -0.851687 1.83719 0
M  V30 2261 C 215.9 -1.80862 0.715485 0
M  V30 2262 O 215.155 -1.93464 -0.294956 0
M  V30 2263 C 215.454 -1.65386 3.16832 0
M  V30 2264 C 215.12 -0.843112 4.42947 0
M  V30 2265 C 213.782 -0.619464 4.77196 0
M  V30 2266 C 216.134 -0.276582 5.20466 0
M  V30 2267 C 213.462 0.181312 5.8642 0
M  V30 2268 C 215.814 0.51127 6.30531 0
M  V30 2269 C 214.478 0.745432 6.63325 0
M  V30 2270 H 213.748 -0.311654 0.672274 0
M  V30 2271 H 216.395 -0.115006 1.91154 0
M  V30 2272 H 214.7 -2.46084 3.04877 0
M  V30 2273 H 216.397 -2.20793 3.34741 0
M  V30 2274 H 212.987 -1.0275 4.16101 0
M  V30 2275 H 217.171 -0.436632 4.94376 0
M  V30 2276 H 212.427 0.372165 6.10266 0
M  V30 2277 H 216.601 0.957354 6.89788 0
M  V30 2278 H 214.228 1.36778 7.47794 0
M  V30 2279 N 215.803 -1.52179 -0.40978 0
M  V30 2280 C 216.733 -1.78435 -1.5061 0
M  V30 2281 C 217.714 -0.635295 -1.57791 0
M  V30 2282 O 218.899 -0.880823 -1.73076 0
M  V30 2283 C 216.029 -1.93444 -2.88439 0
M  V30 2284 C 214.983 -3.09038 -2.96108 0
M  V30 2285 C 214.309 -3.09268 -4.36185 0
M  V30 2286 C 215.609 -4.48508 -2.67652 0
M  V30 2287 H 217.303 -2.70237 -1.28889 0
M  V30 2288 H 214.849 -1.30036 -0.618605 0
M  V30 2289 H 216.802 -2.10394 -3.65119 0
M  V30 2290 H 215.526 -0.983129 -3.11452 0
M  V30 2291 H 214.185 -2.91837 -2.21872 0
M  V30 2292 H 213.833 -2.11861 -4.56206 0
M  V30 2293 H 213.533 -3.86907 -4.42241 0
M  V30 2294 H 215.057 -3.28348 -5.14801 0
M  V30 2295 H 216.471 -4.65918 -3.34056 0
M  V30 2296 H 214.868 -5.28059 -2.85085 0
M  V30 2297 H 215.938 -4.56649 -1.63095 0
M  V30 2298 N 217.281 0.66697 -1.42791 0
M  V30 2299 C 218.228 1.7803 -1.4688 0
M  V30 2300 C 219.198 1.6299 -0.319919 0
M  V30 2301 O 220.383 1.83432 -0.525118 0
M  V30 2302 C 217.523 3.1611 -1.38451 0
M  V30 2303 C 216.636 3.42381 -2.63437 0
M  V30 2304 C 215.771 4.70232 -2.47094 0
M  V30 2305 C 214.81 4.89564 -3.67415 0
M  V30 2306 N 213.947 6.08661 -3.49966 0
M  V30 2307 H 218.787 1.7387 -2.42019 0
M  V30 2308 H 216.324 0.84868 -1.20149 0
M  V30 2309 H 218.282 3.95914 -1.31561 0
M  V30 2310 H 216.912 3.19374 -0.469033 0
M  V30 2311 H 215.964 2.56774 -2.80662 0
M  V30 2312 H 217.276 3.52557 -3.52853 0
M  V30 2313 H 216.43 5.5814 -2.37834 0
M  V30 2314 H 215.169 4.62353 -1.5518 0
M  V30 2315 H 214.174 4.00096 -3.77099 0
M  V30 2316 H 215.399 4.99282 -4.6032 0
M  V30 2317 H 213.345 6.0194 -2.60776 0
M  V30 2318 H 213.262 6.19733 -4.32975 0
M  V30 2319 H 214.53 6.99226 -3.44532 0
M  V30 2320 N 218.759 1.29093 0.90403 0
M  V30 2321 C 220.008 1.16187 1.64874 0
M  V30 2322 C 220.321 -0.286742 1.93487 0
M  V30 2323 O 221.527 -0.537062 2.66135 0
M  V30 2324 C 219.983 2.03177 2.97064 0
M  V30 2325 C 219.591 3.52836 2.76062 0
M  V30 2326 C 221.335 1.98984 3.74974 0
M  V30 2327 C 219.242 4.31945 4.03952 0
M  V30 2328 H 218.172 0.431246 0.618501 0
M  V30 2329 H 220.823 1.53699 1.00243 0
M  V30 2330 H 219.205 1.5853 3.62883 0
M  V30 2331 H 220.379 4.05507 2.18863 0
M  V30 2332 H 218.694 3.58656 2.11553 0
M  V30 2333 H 221.291 2.55351 4.69787 0
M  V30 2334 H 221.634 0.968815 4.0487 0
M  V30 2335 H 222.167 2.41652 3.15989 0
M  V30 2336 H 218.906 5.34667 3.79225 0
M  V30 2337 H 218.426 3.84045 4.60727 0
M  V30 2338 H 220.105 4.42379 4.72133 0
M  V30 2339 N 220.237 -1.11381 1.11499 0
M  V30 2340 C 221.485 -1.8277 0.862524 0
M  V30 2341 C 221.806 -1.85097 -0.613534 0
M  V30 2342 O 221.076 -1.32198 -1.4457 0
M  V30 2343 H 219.656 -0.676823 0.316101 0
M  V30 2344 H 222.318 -1.34816 1.4075 0
M  V30 2345 H 221.414 -2.86614 1.23527 0
M  V30 2346 N 221.715 -0.905404 -1.28997 0
M  V30 2347 C 222.665 -0.358713 -2.25161 0
M  V30 2348 C 223.649 0.524449 -1.52113 0
M  V30 2349 O 224.841 0.365534 -1.73184 0
M  V30 2350 C 221.97 0.407609 -3.40872 0
M  V30 2351 C 221.056 -0.490797 -4.21251 0
M  V30 2352 N 221.447 -1.60061 -4.79806 0
M  V30 2353 C 219.745 -0.289636 -4.45059 0
M  V30 2354 C 220.446 -2.15757 -5.40207 0
M  V30 2355 N 219.422 -1.44988 -5.23908 0
M  V30 2356 H 223.224 -1.20642 -2.67998 0
M  V30 2357 H 220.738 -0.757103 -1.43672 0
M  V30 2358 H 222.735 0.816046 -4.08835 0
M  V30 2359 H 221.395 1.25251 -2.9957 0
M  V30 2360 H 222.406 -1.98329 -4.7842 0
M  V30 2361 H 219.083 0.51643 -4.14294 0
M  V30 2362 H 220.473 -3.09069 -5.96595 0
M  V30 2363 N 223.193 1.4272 -0.668489 0
M  V30 2364 C 224.103 2.34596 0.0139753 0
M  V30 2365 C 225.119 1.5474 0.795703 0
M  V30 2366 O 226.295 1.87334 0.739466 0
M  V30 2367 C 223.36 3.33202 0.957982 0
M  V30 2368 C 222.421 4.28957 0.17149 0
M  V30 2369 C 221.654 5.22853 1.07053 0
M  V30 2370 O 221.877 5.21531 2.31001 0
M  V30 2371 O 220.811 5.9952 0.534727 0
M  V30 2372 H 224.637 2.9448 -0.742661 0
M  V30 2373 H 222.222 1.43117 -0.428705 0
M  V30 2374 H 224.104 3.93796 1.50008 0
M  V30 2375 H 222.779 2.758 1.69458 0
M  V30 2376 H 221.686 3.71796 -0.414558 0
M  V30 2377 H 223.019 4.89383 -0.52586 0
M  V30 2378 N 224.671 0.411399 1.52136 0
M  V30 2379 C 225.619 -0.427633 2.28635 0
M  V30 2380 C 226.613 -1.04383 1.33419 0
M  V30 2381 O 227.819 -0.981772 1.50868 0
M  V30 2382 H 224.194 -0.156689 0.735495 0
M  V30 2383 H 226.165 0.238761 2.97443 0
M  V30 2384 C 224.914 -1.53082 3.12188 0
M  V30 2385 H 224.237 -1.06601 3.85326 0
M  V30 2386 H 225.677 -2.09167 3.68816 0
M  V30 2387 C 224.136 -2.49946 2.25895 0
M  V30 2388 O 224.666 -3.53884 1.90076 0
M  V30 2389 N 222.872 -2.2021 1.8962 0
M  V30 2390 H 222.419 -1.35719 2.18948 0
M  V30 2391 H 222.377 -2.85266 1.32176 0
M  V30 2392 N 226.149 -1.5696 0.141893 0
M  V30 2393 C 227.397 -1.95573 -0.509484 0
M  V30 2394 C 227.718 -1.02746 -1.65736 0
M  V30 2395 O 226.988 -0.0880311 -1.95702 0
M  V30 2396 H 225.568 -0.722115 -0.191205 0
M  V30 2397 H 228.23 -1.93697 0.216196 0
M  V30 2398 H 227.326 -2.99171 -0.889 0
M  V30 2399 N 227.627 0.131896 -1.57047 0
M  V30 2400 C 228.537 1.1815 -2.02676 0
M  V30 2401 C 229.553 1.46113 -0.944824 0
M  V30 2402 O 230.729 1.57485 -1.25541 0
M  V30 2403 C 227.794 2.49139 -2.41103 0
M  V30 2404 C 226.855 2.28688 -3.63318 0
M  V30 2405 C 226.088 3.53431 -3.99903 0
M  V30 2406 O 226.311 4.60223 -3.36973 0
M  V30 2407 O 225.245 3.45198 -4.93074 0
M  V30 2408 H 229.071 0.824069 -2.92306 0
M  V30 2409 H 226.656 0.341745 -1.45439 0
M  V30 2410 H 228.538 3.26338 -2.66611 0
M  V30 2411 H 227.213 2.84382 -1.54624 0
M  V30 2412 H 226.12 1.4939 -3.42977 0
M  V30 2413 H 227.453 1.98355 -4.50462 0
M  V30 2414 N 229.106 1.52395 0.401703 0
M  V30 2415 C 230.353 1.66817 1.14796 0
M  V30 2416 C 230.681 0.401772 1.90305 0
M  V30 2417 O 229.936 -0.615487 1.85769 0
M  V30 2418 C 230.235 2.84578 2.16217 0
M  V30 2419 C 229.901 4.22513 1.5746 0
M  V30 2420 C 228.563 4.60029 1.41161 0
M  V30 2421 C 230.915 5.0844 1.14622 0
M  V30 2422 C 228.243 5.81144 0.80552 0
M  V30 2423 C 230.595 6.30167 0.55428 0
M  V30 2424 C 229.259 6.66426 0.378482 0
M  V30 2425 H 228.529 0.610428 0.420069 0
M  V30 2426 H 231.176 1.86512 0.434212 0
M  V30 2427 H 229.481 2.59248 2.93764 0
M  V30 2428 H 231.178 2.92933 2.73845 0
M  V30 2429 H 227.768 3.92953 1.71132 0
M  V30 2430 H 231.952 4.80034 1.26021 0
M  V30 2431 H 227.208 6.07855 0.657399 0
M  V30 2432 H 231.382 6.96071 0.213983 0
M  V30 2433 H 229.009 7.60143 -0.0932606 0
M  V30 2434 N 230.584 -0.659388 1.43143 0
M  V30 2435 C 231.516 -1.7849 1.43784 0
M  V30 2436 C 232.529 -1.5932 0.334787 0
M  V30 2437 O 233.718 -1.68155 0.598842 0
M  V30 2438 C 230.818 -3.15828 1.22906 0
M  V30 2439 C 229.991 -3.61711 2.45934 0
M  V30 2440 C 229.05 -4.77831 2.20371 0
M  V30 2441 O 228.076 -4.87586 2.93681 0
M  V30 2442 N 229.278 -5.67611 1.21647 0
M  V30 2443 H 232.043 -1.7842 2.40803 0
M  V30 2444 H 229.604 -0.84302 1.3822 0
M  V30 2445 H 231.596 -3.91189 1.03697 0
M  V30 2446 H 230.166 -3.10707 0.343542 0
M  V30 2447 H 229.386 -2.76861 2.80609 0
M  V30 2448 H 230.674 -3.89112 3.27825 0
M  V30 2449 H 230.072 -5.62397 0.610449 0
M  V30 2450 H 228.629 -6.42719 1.08423 0
M  V30 2451 N 232.062 -1.29571 -0.897171 0
M  V30 2452 C 233.311 -1.1706 -1.64256 0
M  V30 2453 C 233.624 0.276476 -1.93636 0
M  V30 2454 O 234.83 0.52294 -2.66416 0
M  V30 2455 C 233.286 -2.0475 -2.95982 0
M  V30 2456 C 232.894 -3.54295 -2.74187 0
M  V30 2457 C 234.638 -2.0097 -3.73914 0
M  V30 2458 C 232.545 -4.34081 -4.01656 0
M  V30 2459 H 231.475 -0.43452 -0.616205 0
M  V30 2460 H 234.126 -1.54229 -0.994268 0
M  V30 2461 H 232.508 -1.60452 -3.62038 0
M  V30 2462 H 233.682 -4.06662 -2.1671 0
M  V30 2463 H 231.997 -3.59773 -2.09648 0
M  V30 2464 H 234.594 -2.57838 -4.68427 0
M  V30 2465 H 234.937 -0.990273 -4.0435 0
M  V30 2466 H 235.47 -2.43325 -3.14703 0
M  V30 2467 H 232.209 -5.36671 -3.76384 0
M  V30 2468 H 231.729 -3.86483 -4.58684 0
M  V30 2469 H 233.408 -4.44877 -4.69781 0
M  V30 2470 N 233.54 1.10788 -1.12088 0
M  V30 2471 C 234.787 1.82671 -0.873931 0
M  V30 2472 C 235.115 1.85004 0.600311 0
M  V30 2473 O 234.37 1.30365 1.45957 0
M  V30 2474 C 234.669 3.29294 -1.38926 0
M  V30 2475 C 234.335 3.47113 -2.87791 0
M  V30 2476 C 232.997 3.51684 -3.28439 0
M  V30 2477 C 235.349 3.52808 -3.83635 0
M  V30 2478 C 232.677 3.59513 -4.63646 0
M  V30 2479 C 235.029 3.62169 -5.18668 0
M  V30 2480 C 233.693 3.65003 -5.58864 0
M  V30 2481 H 232.963 0.668441 -0.319794 0
M  V30 2482 H 235.61 1.30613 -1.40045 0
M  V30 2483 H 233.915 3.83894 -0.783122 0
M  V30 2484 H 235.612 3.83416 -1.17443 0
M  V30 2485 H 232.202 3.4423 -2.5535 0
M  V30 2486 H 236.386 3.4853 -3.53328 0
M  V30 2487 H 231.642 3.59987 -4.94185 0
M  V30 2488 H 235.816 3.6552 -5.92763 0
M  V30 2489 H 233.443 3.70822 -6.63623 0
M  V30 2490 N 235.018 0.912232 1.28515 0
M  V30 2491 C 235.948 0.416403 2.29757 0
M  V30 2492 C 236.929 -0.515194 1.6211 0
M  V30 2493 O 238.114 -0.423253 1.89532 0
M  V30 2494 C 235.244 -0.34572 3.45575 0
M  V30 2495 C 234.198 0.496599 4.25109 0
M  V30 2496 C 233.524 -0.393771 5.33248 0
M  V30 2497 C 234.824 1.75307 4.92001 0
M  V30 2498 H 236.518 1.26249 2.7148 0
M  V30 2499 H 234.064 0.608515 1.30511 0
M  V30 2500 H 236.017 -0.703422 4.15488 0
M  V30 2501 H 234.741 -1.2257 3.02728 0
M  V30 2502 H 233.4 0.8368 3.56922 0
M  V30 2503 H 233.048 -1.27225 4.86644 0
M  V30 2504 H 232.748 0.166209 5.87365 0
M  V30 2505 H 234.272 -0.747389 6.06009 0
M  V30 2506 H 235.686 1.46437 5.54283 0
M  V30 2507 H 234.083 2.25534 5.56106 0
M  V30 2508 H 235.153 2.48176 4.16577 0
M  V30 2509 N 236.496 -1.42363 0.676048 0
M  V30 2510 C 237.773 -1.95183 0.127726 0
M  V30 2511 C 238.153 -1.61641 -1.35777 0
M  V30 2512 O 237.501 -0.913216 -2.09458 0
M  V30 2513 C 237.711 -3.46721 0.398199 0
M  V30 2514 C 239.059 -4.23427 0.315383 0
M  V30 2515 O 240.083 -3.54649 0.332016 0
M  V30 2516 O 238.942 -5.45888 0.25865 0
M  V30 2517 H 236.036 -0.826992 0.00359427 0
M  V30 2518 H 238.582 -1.52184 0.750864 0
M  V30 2519 H 237.354 -3.64344 1.4272 0
M  V30 2520 H 236.977 -3.96769 -0.256885 0
M  V30 2521 N 237.974 -0.419461 -1.51915 0
M  V30 2522 C 238.937 0.389116 -2.25873 0
M  V30 2523 C 239.937 0.964924 -1.28631 0
M  V30 2524 O 241.127 0.842179 -1.52489 0
M  V30 2525 C 238.259 1.54874 -3.03689 0
M  V30 2526 H 239.452 -0.258799 -2.98781 0
M  V30 2527 H 237.005 -0.172209 -1.55348 0
M  V30 2528 H 237.74 2.23323 -2.35154 0
M  V30 2529 H 237.525 1.14223 -3.75094 0
M  V30 2530 H 239.015 2.12046 -3.59759 0
M  V30 2531 N 239.452 1.56882 -0.150215 0
M  V30 2532 C 240.382 2.19935 0.784284 0
M  V30 2533 C 241.363 1.14854 1.25469 0
M  V30 2534 O 242.548 1.43209 1.31168 0
M  V30 2535 C 239.678 2.82349 2.02229 0
M  V30 2536 C 238.632 3.93285 1.68853 0
M  V30 2537 C 237.958 4.42649 2.99944 0
M  V30 2538 C 239.258 5.13904 0.932714 0
M  V30 2539 H 240.952 2.9828 0.258781 0
M  V30 2540 H 238.498 1.43473 0.123029 0
M  V30 2541 H 240.451 3.25126 2.68088 0
M  V30 2542 H 239.175 2.0134 2.57157 0
M  V30 2543 H 237.834 3.5113 1.05371 0
M  V30 2544 H 237.482 3.58458 3.52869 0
M  V30 2545 H 237.182 5.17476 2.78374 0
M  V30 2546 H 238.706 4.88099 3.66868 0
M  V30 2547 H 240.12 5.53506 1.49345 0
M  V30 2548 H 238.517 5.94515 0.81684 0
M  V30 2549 H 239.587 4.84842 -0.0749568 0
M  V30 2550 N 240.93 -0.123565 1.57115 0
M  V30 2551 C 242.207 -0.862196 1.75572 0
M  V30 2552 C 242.587 -1.98279 0.724475 0
M  V30 2553 O 241.935 -2.27102 -0.252407 0
M  V30 2554 C 242.145 -1.38309 3.20424 0
M  V30 2555 C 243.493 -1.83724 3.82793 0
M  V30 2556 O 244.517 -1.47999 3.23998 0
M  V30 2557 O 243.376 -2.49685 4.86127 0
M  V30 2558 H 240.47 -0.409113 0.718718 0
M  V30 2559 H 243.016 -0.107661 1.69358 0
M  V30 2560 H 241.788 -0.578889 3.86994 0
M  V30 2561 H 241.411 -2.20046 3.31158 0
M  V30 2562 N 242.408 -1.52605 -0.393616 0
M  V30 2563 C 243.355 -1.77055 -1.48054 0
M  V30 2564 C 244.325 -0.61358 -1.54352 0
M  V30 2565 O 245.51 -0.852806 -1.70681 0
M  V30 2566 C 242.65 -1.94108 -2.85335 0
M  V30 2567 C 241.763 -3.21792 -2.88226 0
M  V30 2568 C 240.898 -3.29188 -4.16904 0
M  V30 2569 C 239.937 -4.51013 -4.13828 0
M  V30 2570 N 239.074 -4.55716 -5.34105 0
M  V30 2571 H 243.914 -2.69815 -1.26506 0
M  V30 2572 H 241.451 -1.33683 -0.61379 0
M  V30 2573 H 243.409 -2.01979 -3.65049 0
M  V30 2574 H 242.039 -1.04713 -3.05344 0
M  V30 2575 H 241.091 -3.23015 -2.00911 0
M  V30 2576 H 242.403 -4.11557 -2.8182 0
M  V30 2577 H 241.557 -3.36216 -5.05018 0
M  V30 2578 H 240.296 -2.37389 -4.26026 0
M  V30 2579 H 239.301 -4.44115 -3.24102 0
M  V30 2580 H 240.526 -5.44123 -4.06333 0
M  V30 2581 H 238.472 -3.66807 -5.43865 0
M  V30 2582 H 238.389 -5.39346 -5.29756 0
M  V30 2583 H 239.657 -4.66993 -6.2413 0
M  V30 2584 N 243.887 0.651787 -1.4349 0
M  V30 2585 C 245.136 1.40754 -1.44469 0
M  V30 2586 C 245.449 1.95463 -0.0731845 0
M  V30 2587 O 246.655 2.71471 0.0395721 0
M  V30 2588 C 245.111 2.54735 -2.5424 0
M  V30 2589 C 244.719 2.06628 -3.97504 0
M  V30 2590 C 246.463 3.32092 -2.64414 0
M  V30 2591 C 244.37 3.17829 -4.98737 0
M  V30 2592 H 243.3 0.528862 -0.53742 0
M  V30 2593 H 245.951 0.703365 -1.69485 0
M  V30 2594 H 244.333 3.2763 -2.22428 0
M  V30 2595 H 245.507 1.40734 -4.38783 0
M  V30 2596 H 243.822 1.42146 -3.91387 0
M  V30 2597 H 246.419 4.14952 -3.37223 0
M  V30 2598 H 246.762 3.80217 -1.69532 0
M  V30 2599 H 247.295 2.66279 -2.95534 0
M  V30 2600 H 244.034 2.74671 -5.95177 0
M  V30 2601 H 243.554 3.82429 -4.62069 0
M  V30 2602 H 245.233 3.82937 -5.21505 0
M  V30 2603 N 245.365 1.30045 0.890287 0
M  V30 2604 C 246.312 1.15976 1.99545 0
M  V30 2605 C 247.282 0.0506202 1.66023 0
M  V30 2606 O 248.467 0.219847 1.89529 0
M  V30 2607 C 245.607 0.852054 3.34416 0
M  V30 2608 C 244.72 2.04255 3.80662 0
M  V30 2609 C 243.855 1.6734 5.04154 0
M  V30 2610 C 242.894 2.82916 5.42794 0
M  V30 2611 N 242.031 2.46333 6.57468 0
M  V30 2612 H 246.871 2.10524 2.10911 0
M  V30 2613 H 244.408 1.04749 1.03276 0
M  V30 2614 H 246.366 0.654296 4.12037 0
M  V30 2615 H 244.996 -0.0565502 3.2275 0
M  V30 2616 H 244.048 2.35172 2.98995 0
M  V30 2617 H 245.36 2.90826 4.05242 0
M  V30 2618 H 244.514 1.43908 5.89386 0
M  V30 2619 H 243.253 0.779308 4.81433 0
M  V30 2620 H 242.258 3.0702 4.56091 0
M  V30 2621 H 243.483 3.73004 5.6749 0
M  V30 2622 H 241.429 1.59423 6.36334 0
M  V30 2623 H 241.346 3.26436 6.81891 0
M  V30 2624 H 242.614 2.26244 7.45945 0
M  V30 2625 N 246.843 -1.10192 1.12674 0
M  V30 2626 C 248.071 -1.85983 0.906527 0
M  V30 2627 C 248.486 -1.80783 -0.544333 0
M  V30 2628 O 247.843 -1.19834 -1.37645 0
M  V30 2629 C 247.894 -3.34281 1.37618 0
M  V30 2630 O 247.615 -3.39401 2.77017 0
M  V30 2631 C 249.116 -4.26938 1.19325 0
M  V30 2632 H 246.336 -0.587716 0.323775 0
M  V30 2633 H 248.88 -1.39284 1.49734 0
M  V30 2634 H 247.035 -3.78436 0.828539 0
M  V30 2635 H 247.449 -4.31838 2.97684 0
M  V30 2636 H 248.923 -5.29181 1.57071 0
M  V30 2637 H 249.4 -4.38995 0.134097 0
M  V30 2638 H 250.006 -3.8859 1.72852 0
M  V30 2639 N 248.321 -0.919034 -1.28029 0
M  V30 2640 C 249.268 -0.410005 -2.27129 0
M  V30 2641 C 250.238 0.518405 -1.57803 0
M  V30 2642 O 251.423 0.439451 -1.8567 0
M  V30 2643 C 248.563 0.339054 -3.4343 0
M  V30 2644 C 247.676 -0.622468 -4.27492 0
M  V30 2645 C 246.811 0.145567 -5.31001 0
M  V30 2646 C 245.85 -0.809226 -6.06727 0
M  V30 2647 N 244.987 -0.0743728 -7.02061 0
M  V30 2648 H 249.827 -1.26011 -2.70047 0
M  V30 2649 H 247.364 -0.632663 -1.328 0
M  V30 2650 H 249.322 0.789586 -4.0966 0
M  V30 2651 H 247.952 1.15346 -3.01488 0
M  V30 2652 H 247.004 -1.19153 -3.61257 0
M  V30 2653 H 248.316 -1.35252 -4.80113 0
M  V30 2654 H 247.47 0.656417 -6.03139 0
M  V30 2655 H 246.209 0.908643 -4.79161 0
M  V30 2656 H 245.214 -1.3314 -5.33436 0
M  V30 2657 H 246.439 -1.57194 -6.60656 0
M  V30 2658 H 244.385 0.670616 -6.52563 0
M  V30 2659 H 244.302 -0.744157 -7.52329 0
M  V30 2660 H 245.57 0.416109 -7.78389 0
M  V30 2661 N 249.799 1.42003 -0.683588 0
M  V30 2662 C 251.047 2.01015 -0.209101 0
M  V30 2663 C 251.368 1.54365 1.19149 0
M  V30 2664 O 250.638 0.769083 1.80172 0
M  V30 2665 H 249.218 0.743294 -0.074315 0
M  V30 2666 H 251.88 1.73798 -0.882066 0
M  V30 2667 H 250.976 3.11343 -0.2172 0
M  V30 2668 N 251.277 0.427512 1.51691 0
M  V30 2669 C 252.224 -0.388867 2.275 0
M  V30 2670 C 253.194 -1.02532 1.30677 0
M  V30 2671 O 254.379 -1.0461 1.59566 0
M  V30 2672 C 251.519 -1.48954 3.11298 0
M  V30 2673 C 250.632 -0.872194 4.23104 0
M  V30 2674 C 249.767 -1.94709 4.94228 0
M  V30 2675 C 248.806 -1.30766 5.97969 0
M  V30 2676 N 247.943 -2.32349 6.62539 0
M  V30 2677 H 252.783 0.263997 2.96828 0
M  V30 2678 H 250.32 0.142033 1.46413 0
M  V30 2679 H 252.278 -2.13887 3.58201 0
M  V30 2680 H 250.908 -2.11217 2.44105 0
M  V30 2681 H 249.96 -0.111419 3.80237 0
M  V30 2682 H 251.272 -0.365264 4.97461 0
M  V30 2683 H 250.426 -2.67327 5.44629 0
M  V30 2684 H 249.165 -2.48773 4.1948 0
M  V30 2685 H 248.17 -0.566902 5.4687 0
M  V30 2686 H 249.395 -0.774483 6.74669 0
M  V30 2687 H 247.341 -2.85511 5.90609 0
M  V30 2688 H 247.258 -1.8652 7.3263 0
M  V30 2689 H 248.526 -3.04481 7.17574 0
M  V30 2690 N 252.755 -1.56801 0.158532 0
M  V30 2691 C 253.665 -2.20916 -0.789518 0
M  V30 2692 C 254.681 -1.1969 -1.26294 0
M  V30 2693 O 255.857 -1.52308 -1.31773 0
M  V30 2694 C 252.922 -2.82727 -2.00665 0
M  V30 2695 C 251.983 -3.99114 -1.58134 0
M  V30 2696 C 251.216 -4.57968 -2.74045 0
M  V30 2697 O 251.439 -4.15704 -3.90572 0
M  V30 2698 O 250.373 -5.48047 -2.48855 0
M  V30 2699 H 254.199 -3.02464 -0.273681 0
M  V30 2700 H 251.784 -1.4924 -0.0690548 0
M  V30 2701 H 253.666 -3.21968 -2.71872 0
M  V30 2702 H 252.341 -2.04184 -2.51179 0
M  V30 2703 H 251.248 -3.64567 -0.839155 0
M  V30 2704 H 252.581 -4.79212 -1.12325 0
M  V30 2705 N 254.233 0.115231 -1.57178 0
M  V30 2706 C 255.196 1.12526 -1.99676 0
M  V30 2707 C 256.196 1.34095 -0.88742 0
M  V30 2708 O 257.386 1.30548 -1.15337 0
M  V30 2709 C 254.518 2.4789 -2.34015 0
M  V30 2710 H 255.711 0.759912 -2.90113 0
M  V30 2711 H 253.264 0.359648 -1.52106 0
M  V30 2712 H 253.999 2.89339 -1.4647 0
M  V30 2713 H 253.784 2.33588 -3.14927 0
M  V30 2714 H 255.274 3.20575 -2.67622 0
M  V30 2715 N 255.711 1.52812 0.385517 0
M  V30 2716 C 257.122 1.5993 0.963293 0
M  V30 2717 C 257.473 0.454302 1.90868 0
M  V30 2718 O 256.598 -0.422132 2.12243 0
M  V30 2719 C 257.193 2.89871 1.75387 0
M  V30 2720 C 255.752 2.99389 2.28129 0
M  V30 2721 C 254.899 2.55071 1.08783 0
M  V30 2722 H 257.85 1.5784 0.164948 0
M  V30 2723 H 257.871 2.76553 2.61341 0
M  V30 2724 H 257.383 3.73186 1.06554 0
M  V30 2725 H 255.484 2.20619 3.00263 0
M  V30 2726 H 255.597 4.04096 2.57377 0
M  V30 2727 H 253.961 2.09473 1.4489 0
M  V30 2728 H 254.744 3.40785 0.414807 0
M  V30 2729 N 257.189 -0.644168 1.43834 0
M  V30 2730 C 258.436 -1.40395 1.4593 0
M  V30 2731 C 258.764 -1.94305 0.0869658 0
M  V30 2732 O 258.019 -1.73288 -0.909378 0
M  V30 2733 C 258.318 -2.59615 2.45631 0
M  V30 2734 C 257.984 -2.2407 3.91284 0
M  V30 2735 C 256.646 -2.14089 4.30952 0
M  V30 2736 C 258.998 -1.95775 4.83034 0
M  V30 2737 C 256.326 -1.73981 5.6031 0
M  V30 2738 C 258.678 -1.57163 6.12766 0
M  V30 2739 C 257.342 -1.45713 6.51402 0
M  V30 2740 H 256.612 -0.513741 0.533995 0
M  V30 2741 H 259.259 -0.731724 1.76969 0
M  V30 2742 H 257.564 -3.32011 2.08028 0
M  V30 2743 H 259.261 -3.17834 2.44504 0
M  V30 2744 H 255.851 -2.32753 3.59895 0
M  V30 2745 H 260.035 -2.02403 4.53152 0
M  V30 2746 H 255.291 -1.63709 5.89075 0
M  V30 2747 H 259.465 -1.34303 6.83327 0
M  V30 2748 H 257.092 -1.14406 7.51542 0
M  V30 2749 N 258.668 -1.30515 -0.883378 0
M  V30 2750 C 259.896 -1.22359 -1.66841 0
M  V30 2751 C 260.311 0.213296 -1.87591 0
M  V30 2752 O 259.668 1.14075 -1.42454 0
M  V30 2753 C 259.719 -1.95011 -3.04389 0
M  V30 2754 O 259.44 -3.3309 -2.84575 0
M  V30 2755 C 260.941 -1.93532 -3.98824 0
M  V30 2756 H 258.161 -0.423371 -0.520575 0
M  V30 2757 H 260.705 -1.72167 -1.10357 0
M  V30 2758 H 258.86 -1.48997 -3.57601 0
M  V30 2759 H 259.274 -3.69907 -3.71846 0
M  V30 2760 H 260.748 -2.48902 -4.92699 0
M  V30 2761 H 261.225 -0.914627 -4.29571 0
M  V30 2762 H 261.831 -2.39364 -3.51547 0
M  V30 2763 N 260.146 1.09593 -1.13257 0
M  V30 2764 C 261.093 2.1618 -0.808381 0
M  V30 2765 C 262.063 1.64517 0.228754 0
M  V30 2766 O 263.248 1.9053 0.101381 0
M  V30 2767 C 260.388 3.43973 -0.278675 0
M  V30 2768 C 259.501 4.09545 -1.37466 0
M  V30 2769 C 258.636 5.25088 -0.803479 0
M  V30 2770 C 257.675 5.82579 -1.87799 0
M  V30 2771 N 256.812 6.89486 -1.32488 0
M  V30 2772 H 261.652 2.43254 -1.72138 0
M  V30 2773 H 259.189 1.19392 -0.859294 0
M  V30 2774 H 261.147 4.17174 0.0465583 0
M  V30 2775 H 259.777 3.17223 0.597459 0
M  V30 2776 H 258.829 3.34226 -1.81652 0
M  V30 2777 H 260.141 4.48307 -2.18684 0
M  V30 2778 H 259.295 6.05178 -0.429427 0
M  V30 2779 H 258.034 4.87684 0.0397956 0
M  V30 2780 H 257.039 5.01152 -2.26113 0
M  V30 2781 H 258.264 6.22045 -2.72463 0
M  V30 2782 H 256.21 6.54064 -0.503575 0
M  V30 2783 H 256.127 7.27007 -2.07355 0
M  V30 2784 H 257.395 7.73336 -0.978336 0
M  V30 2785 N 261.624 0.925811 1.2754 0
M  V30 2786 C 262.871 0.565255 1.94451 0
M  V30 2787 C 263.199 -0.89316 1.7278 0
M  V30 2788 O 262.454 -1.65213 1.04895 0
M  V30 2789 C 262.753 0.835296 3.47502 0
M  V30 2790 C 262.419 2.27515 3.89291 0
M  V30 2791 C 261.081 2.66879 4.00411 0
M  V30 2792 C 263.433 3.21158 4.10496 0
M  V30 2793 C 260.761 3.99014 4.30122 0
M  V30 2794 C 263.113 4.52871 4.4169 0
M  V30 2795 C 261.777 4.92072 4.51023 0
M  V30 2796 H 261.047 0.206841 0.711546 0
M  V30 2797 H 263.694 1.16942 1.51647 0
M  V30 2798 H 261.999 0.148442 3.91519 0
M  V30 2799 H 263.696 0.535322 3.97411 0
M  V30 2800 H 260.286 1.95976 3.81171 0
M  V30 2801 H 264.47 2.9195 4.01346 0
M  V30 2802 H 259.726 4.2907 4.35556 0
M  V30 2803 H 263.9 5.25436 4.57045 0
M  V30 2804 H 261.527 5.9449 4.738 0
M  V30 2805 N 263.102 -1.41638 0.69111 0
M  V30 2806 C 264.379 -1.95036 0.148421 0
M  V30 2807 C 264.759 -1.63072 -1.34055 0
M  V30 2808 O 264.107 -0.93538 -2.08478 0
M  V30 2809 C 264.317 -3.46279 0.434951 0
M  V30 2810 C 265.665 -4.23069 0.360275 0
M  V30 2811 O 266.689 -3.54277 0.369613 0
M  V30 2812 O 265.548 -5.45583 0.316534 0
M  V30 2813 H 262.642 -0.826908 0.0123654 0
M  V30 2814 H 265.188 -1.5138 0.766963 0
M  V30 2815 H 263.96 -3.6281 1.46576 0
M  V30 2816 H 263.583 -3.97019 -0.214787 0
M  V30 2817 N 264.58 -0.43555 -1.51462 0
M  V30 2818 C 265.991 0.0279871 -1.86679 0
M  V30 2819 C 266.342 1.42104 -1.35281 0
M  V30 2820 O 265.467 2.04667 -0.702878 0
M  V30 2821 C 266.062 0.0575626 -3.38751 0
M  V30 2822 C 264.621 0.465507 -3.7351 0
M  V30 2823 C 263.768 -0.342996 -2.75171 0
M  V30 2824 H 266.719 -0.651473 -1.44712 0
M  V30 2825 H 266.74 0.867421 -3.70481 0
M  V30 2826 H 266.252 -0.956448 -3.7613 0
M  V30 2827 H 264.353 1.48519 -3.41721 0
M  V30 2828 H 264.466 0.191546 -4.78717 0
M  V30 2829 H 262.83 0.198442 -2.53926 0
M  V30 2830 H 263.613 -1.35585 -3.15391 0
M  V30 2831 N 266.058 1.56714 -0.166846 0
M  V30 2832 C 267.283 2.01557 0.488833 0
M  V30 2833 C 267.708 1.0463 1.56314 0
M  V30 2834 O 267.066 0.0251304 1.81283 0
M  V30 2835 C 267.114 3.4503 1.04818 0
M  V30 2836 O 266.218 3.51163 2.16236 0
M  V30 2837 H 265.559 0.653516 0.117526 0
M  V30 2838 H 268.089 2.02818 -0.269421 0
M  V30 2839 H 268.099 3.84243 1.37191 0
M  V30 2840 H 266.774 4.15077 0.261572 0
M  V30 2841 H 265.351 3.23807 1.84942 0
M  V30 2842 N 267.536 -0.106894 1.57237 0
M  V30 2843 C 268.776 -0.818277 1.87306 0
M  V30 2844 C 269.14 -1.76474 0.756371 0
M  V30 2845 O 270.341 -2.5186 0.939155 0
M  V30 2846 C 268.612 -1.53806 3.22612 0
M  V30 2847 S 270.171 -2.28935 3.74345 0
M  V30 2848 H 266.989 -0.272862 0.656557 0
M  V30 2849 H 269.591 -0.075988 1.95352 0
M  V30 2850 H 268.295 -0.834951 4.01817 0
M  V30 2851 H 267.826 -2.32049 3.17674 0
M  V30 2852 H 269.841 -3.54871 3.46815 0
M  V30 2853 N 269.014 -1.53014 -0.377408 0
M  V30 2854 C 269.944 -1.81589 -1.46791 0
M  V30 2855 C 270.925 -0.668622 -1.56408 0
M  V30 2856 O 272.11 -0.917337 -1.71168 0
M  V30 2857 C 269.24 -1.99519 -2.8427 0
M  V30 2858 C 268.194 -3.15249 -2.89486 0
M  V30 2859 C 267.52 -3.18451 -4.29527 0
M  V30 2860 C 268.82 -4.54084 -2.58079 0
M  V30 2861 H 270.514 -2.7291 -1.23127 0
M  V30 2862 H 268.06 -1.31319 -0.590883 0
M  V30 2863 H 270.013 -2.18092 -3.60575 0
M  V30 2864 H 268.737 -1.04897 -3.09296 0
M  V30 2865 H 267.396 -2.96477 -2.15631 0
M  V30 2866 H 267.044 -2.2149 -4.5161 0
M  V30 2867 H 266.744 -3.962 -4.33934 0
M  V30 2868 H 268.268 -3.39193 -5.07721 0
M  V30 2869 H 269.682 -4.72899 -3.24098 0
M  V30 2870 H 268.079 -5.33987 -2.7382 0
M  V30 2871 H 269.149 -4.60006 -1.53372 0
M  V30 2872 N 270.492 0.636531 -1.44174 0
M  V30 2873 C 271.739 1.39619 -1.46672 0
M  V30 2874 C 272.067 1.94257 -0.0972691 0
M  V30 2875 O 271.322 1.73768 0.900175 0
M  V30 2876 C 271.621 2.58309 -2.47005 0
M  V30 2877 C 271.287 2.21992 -3.92467 0
M  V30 2878 C 269.949 2.118 -4.32081 0
M  V30 2879 C 272.301 1.9321 -4.84065 0
M  V30 2880 C 269.629 1.71007 -5.61225 0
M  V30 2881 C 271.981 1.53911 -6.13591 0
M  V30 2882 C 270.645 1.42257 -6.52165 0
M  V30 2883 H 269.915 0.510902 -0.536712 0
M  V30 2884 H 272.562 0.722328 -1.77355 0
M  V30 2885 H 270.867 3.30903 -2.09786 0
M  V30 2886 H 272.564 3.16533 -2.46186 0
M  V30 2887 H 269.154 2.30841 -3.61124 0
M  V30 2888 H 273.338 1.99997 -4.54219 0
M  V30 2889 H 268.594 1.60583 -5.89935 0
M  V30 2890 H 272.768 1.30677 -6.8403 0
M  V30 2891 H 270.395 1.10419 -7.52138 0
M  V30 2892 N 271.97 1.30982 0.876444 0
M  V30 2893 C 273.381 1.18277 1.44456 0
M  V30 2894 C 273.732 -0.213265 1.95037 0
M  V30 2895 O 272.857 -1.11057 1.85729 0
M  V30 2896 C 273.452 2.1411 2.62569 0
M  V30 2897 C 272.011 2.05358 3.15444 0
M  V30 2898 C 271.158 2.03706 1.88146 0
M  V30 2899 H 274.109 1.43127 0.685584 0
M  V30 2900 H 274.13 1.72692 3.39054 0
M  V30 2901 H 273.642 3.15706 2.25724 0
M  V30 2902 H 271.743 1.06934 3.56926 0
M  V30 2903 H 271.856 2.94156 3.78166 0
M  V30 2904 H 270.22 1.48629 2.06837 0
M  V30 2905 H 271.003 3.07047 1.53547 0
M  V30 2906 N 273.449 -1.08991 1.13837 0
M  V30 2907 C 274.412 -2.13925 0.822715 0
M  V30 2908 C 275.412 -1.599 -0.1699 0
M  V30 2909 O 276.602 -1.74104 0.0577251 0
M  V30 2910 C 273.734 -3.40155 0.225318 0
M  V30 2911 H 274.927 -2.43358 1.75262 0
M  V30 2912 H 272.48 -1.24603 0.943594 0
M  V30 2913 H 273.215 -3.16352 -0.713594 0
M  V30 2914 H 273 -3.80661 0.940193 0
M  V30 2915 H 274.49 -4.17594 0.0214784 0
M  V30 2916 N 274.927 -0.932562 -1.27047 0
M  V30 2917 C 276.167 -0.582919 -1.95912 0
M  V30 2918 C 276.531 0.860629 -1.71631 0
M  V30 2919 O 277.732 1.31878 -2.34225 0
M  V30 2920 C 276.003 -0.905673 -3.45734 0
M  V30 2921 S 277.562 -0.665277 -4.33727 0
M  V30 2922 H 274.38 -0.215 -0.677714 0
M  V30 2923 H 276.982 -1.20204 -1.54179 0
M  V30 2924 H 275.686 -1.95386 -3.60905 0
M  V30 2925 H 275.217 -0.275939 -3.92431 0
M  V30 2926 H 277.232 0.474635 -4.93925 0
M  V30 2927 N 276.405 1.4127 -0.698611 0
M  V30 2928 C 277.821 1.55241 -0.370462 0
M  V30 2929 C 278.021 1.67351 1.12231 0
M  V30 2930 O 277.077 1.65363 1.90818 0
M  V30 2931 C 278.39 2.78997 -1.12165 0
M  V30 2932 C 279.938 2.92797 -1.1063 0
M  V30 2933 C 280.413 4.19445 -1.8393 0
M  V30 2934 N 281.904 4.26409 -1.80914 0
M  V30 2935 C 282.639 5.23271 -2.34467 0
M  V30 2936 N 282.135 6.26145 -2.96504 0
M  V30 2937 N 283.928 5.15232 -2.24706 0
M  V30 2938 H 276.079 1.31654 -1.66676 0
M  V30 2939 H 278.342 0.635393 -0.703548 0
M  V30 2940 H 278.048 2.76268 -2.17644 0
M  V30 2941 H 277.922 3.70606 -0.702209 0
M  V30 2942 H 280.309 2.95039 -0.0597713 0
M  V30 2943 H 280.39 2.02353 -1.56483 0
M  V30 2944 H 280.034 4.17964 -2.88563 0
M  V30 2945 H 279.964 5.08866 -1.35509 0
M  V30 2946 H 282.455 3.527 -1.35687 0
M  V30 2947 H 282.768 6.96451 -3.34927 0
M  V30 2948 H 281.113 6.26638 -3.00583 0
M  V30 2949 H 284.304 4.33789 -1.7591 0
M  V30 2950 H 284.477 5.90552 -2.66745 0
M  V30 2951 N 277.883 0.443576 1.51229 0
M  V30 2952 C 279.16 -0.181038 1.9476 0
M  V30 2953 C 279.54 -1.59523 1.38259 0
M  V30 2954 O 278.888 -2.2122 0.572198 0
M  V30 2955 C 279.098 -0.152422 3.48667 0
M  V30 2956 C 280.446 -0.354923 4.23114 0
M  V30 2957 O 281.47 -0.230257 3.55455 0
M  V30 2958 O 280.329 -0.603674 5.43156 0
M  V30 2959 H 277.423 -0.1266 0.817252 0
M  V30 2960 H 279.969 0.502004 1.62105 0
M  V30 2961 H 278.741 0.836022 3.82265 0
M  V30 2962 H 278.364 -0.878107 3.87782 0
M  V30 2963 N 279.361 -1.56624 0.175154 0
M  V30 2964 C 280.591 -2.01082 -0.474283 0
M  V30 2965 C 280.999 -1.05447 -1.57091 0
M  V30 2966 O 280.342 -0.0480595 -1.83637 0
M  V30 2967 C 280.404 -3.41963 -1.10911 0
M  V30 2968 C 280.068 -4.56742 -0.153666 0
M  V30 2969 C 281.065 -5.16076 0.629448 0
M  V30 2970 C 278.75 -5.02277 -0.0483776 0
M  V30 2971 C 280.744 -6.19377 1.50501 0
M  V30 2972 C 278.431 -6.05427 0.830768 0
M  V30 2973 C 279.429 -6.63849 1.60605 0
M  V30 2974 O 279.117 -7.64998 2.47049 0
M  V30 2975 H 278.849 -0.664261 -0.125432 0
M  V30 2976 H 281.403 -2.03549 0.275163 0
M  V30 2977 H 279.633 -3.36422 -1.90676 0
M  V30 2978 H 281.322 -3.70352 -1.66114 0
M  V30 2979 H 282.088 -4.81776 0.558297 0
M  V30 2980 H 277.967 -4.56513 -0.641611 0
M  V30 2981 H 281.511 -6.64906 2.1106 0
M  V30 2982 H 277.408 -6.39151 0.903107 0
M  V30 2983 H 278.176 -7.82336 2.40607 0
M  V30 2984 N 280.839 0.0985539 -1.57292 0
M  V30 2985 C 282.085 0.798769 -1.87059 0
M  V30 2986 C 282.44 1.76514 -0.76555 0
M  V30 2987 O 281.733 1.90181 0.232752 0
M  V30 2988 C 281.927 1.56927 -3.21105 0
M  V30 2989 C 281.756 0.679026 -4.44544 0
M  V30 2990 C 280.526 0.326071 -5.04247 0
M  V30 2991 C 282.724 -0.0124715 -5.14298 0
M  V30 2992 N 280.706 -0.572702 -6.11223 0
M  V30 2993 C 282.077 -0.769446 -6.15207 0
M  V30 2994 C 284.132 -0.0867545 -4.97824 0
M  V30 2995 C 282.835 -1.59376 -7.01421 0
M  V30 2996 C 284.861 -0.897955 -5.84543 0
M  V30 2997 C 284.223 -1.64306 -6.84969 0
M  V30 2998 H 280.322 0.268568 -0.734435 0
M  V30 2999 H 282.906 0.0614664 -1.94603 0
M  V30 3000 H 281.077 2.27748 -3.1462 0
M  V30 3001 H 282.809 2.21641 -3.38611 0
M  V30 3002 H 279.564 0.67295 -4.68795 0
M  V30 3003 H 279.988 -1.01454 -6.69355 0
M  V30 3004 H 284.63 0.474963 -4.20124 0
M  V30 3005 H 282.348 -2.16655 -7.78515 0
M  V30 3006 H 285.934 -0.958059 -5.73858 0
M  V30 3007 H 284.814 -2.26065 -7.50909 0
M  V30 3008 N 282.317 1.53212 0.369288 0
M  V30 3009 C 283.545 1.73119 1.13303 0
M  V30 3010 C 283.96 0.458455 1.83149 0
M  V30 3011 O 283.317 -0.568403 1.73423 0
M  V30 3012 C 283.368 2.89413 2.16616 0
M  V30 3013 O 283.089 4.11761 1.49614 0
M  V30 3014 C 284.59 3.21161 3.05566 0
M  V30 3015 H 281.81 0.579107 0.338934 0
M  V30 3016 H 284.354 1.99942 0.429338 0
M  V30 3017 H 282.509 2.64994 2.82589 0
M  V30 3018 H 282.923 4.76858 2.18419 0
M  V30 3019 H 284.397 4.05949 3.74045 0
M  V30 3020 H 284.874 2.36369 3.70171 0
M  V30 3021 H 285.48 3.47492 2.45213 0
M  V30 3022 N 283.795 -0.628877 1.44509 0
M  V30 3023 C 285.025 -1.41349 1.50678 0
M  V30 3024 C 285.433 -1.88745 0.131075 0
M  V30 3025 O 284.776 -1.61592 -0.87371 0
M  V30 3026 C 284.838 -2.66608 2.41165 0
M  V30 3027 C 284.502 -2.40993 3.88293 0
M  V30 3028 C 285.499 -2.0268 4.78766 0
M  V30 3029 C 283.184 -2.54563 4.33016 0
M  V30 3030 C 285.178 -1.78269 6.11963 0
M  V30 3031 C 282.865 -2.29766 5.6626 0
M  V30 3032 C 283.863 -1.91678 6.55552 0
M  V30 3033 O 283.551 -1.67158 7.86329 0
M  V30 3034 H 283.283 -0.439851 0.51333 0
M  V30 3035 H 285.837 -0.776084 1.90174 0
M  V30 3036 H 284.067 -3.32994 1.96601 0
M  V30 3037 H 285.756 -3.28615 2.38259 0
M  V30 3038 H 286.522 -1.91751 4.45485 0
M  V30 3039 H 282.401 -2.83179 3.63773 0
M  V30 3040 H 285.945 -1.48465 6.81619 0
M  V30 3041 H 281.842 -2.40306 5.99102 0
M  V30 3042 H 282.61 -1.81386 7.98149 0
M  V30 3043 N 285.273 -1.31445 -0.869486 0
M  V30 3044 C 286.205 -1.14955 -1.98287 0
M  V30 3045 C 287.218 -0.0885037 -1.62559 0
M  V30 3046 O 288.407 -0.336044 -1.75308 0
M  V30 3047 C 285.507 -0.734255 -3.3085 0
M  V30 3048 C 284.68 -1.88042 -3.94917 0
M  V30 3049 C 283.739 -1.4511 -5.05796 0
M  V30 3050 O 282.765 -2.16082 -5.2659 0
M  V30 3051 N 283.967 -0.338763 -5.79511 0
M  V30 3052 H 286.732 -2.10856 -2.12979 0
M  V30 3053 H 284.293 -1.23786 -1.04349 0
M  V30 3054 H 286.285 -0.42975 -4.02412 0
M  V30 3055 H 284.855 0.133158 -3.12316 0
M  V30 3056 H 284.075 -2.35222 -3.1633 0
M  V30 3057 H 285.363 -2.6481 -4.34457 0
M  V30 3058 H 284.761 0.252274 -5.65137 0
M  V30 3059 H 283.318 -0.0937925 -6.51733 0
M  V30 3060 N 286.751 1.08385 -1.14413 0
M  V30 3061 C 287.999 1.80419 -0.910679 0
M  V30 3062 C 288.32 1.86658 0.564243 0
M  V30 3063 O 287.59 1.35985 1.41014 0
M  V30 3064 H 286.17 0.668204 -0.333934 0
M  V30 3065 H 288.832 1.31037 -1.44275 0
M  V30 3066 H 287.928 2.83238 -1.31082 0
M  V30 3067 N 288.23 0.939286 1.26551 0
M  V30 3068 C 289.455 0.602008 1.98471 0
M  V30 3069 C 289.88 -0.815624 1.69497 0
M  V30 3070 O 289.238 -1.54912 0.941905 0
M  V30 3071 C 289.286 0.848407 3.50477 0
M  V30 3072 O 288.39 -0.0804009 4.12322 0
M  V30 3073 H 287.731 0.23049 0.622712 0
M  V30 3074 H 290.261 1.2617 1.61066 0
M  V30 3075 H 290.271 0.768553 4.00696 0
M  V30 3076 H 288.946 1.88171 3.70897 0
M  V30 3077 H 287.523 0.0503508 3.72866 0
M  V30 3078 N 289.708 -1.40897 0.706093 0
M  V30 3079 C 290.955 -2.01054 0.241531 0
M  V30 3080 C 291.283 -1.55956 -1.16223 0
M  V30 3081 O 290.538 -0.766336 -1.80072 0
M  V30 3082 C 290.837 -3.5646 0.259099 0
M  V30 3083 C 290.503 -4.21106 1.61184 0
M  V30 3084 C 289.165 -4.38479 1.98216 0
M  V30 3085 C 291.517 -4.57256 2.50132 0
M  V30 3086 C 288.845 -4.89282 3.2376 0
M  V30 3087 C 291.197 -5.09454 3.7502 0
M  V30 3088 C 289.861 -5.25037 4.12181 0
M  V30 3089 H 289.131 -0.73571 0.0883825 0
M  V30 3090 H 291.778 -1.68645 0.907257 0
M  V30 3091 H 290.083 -3.88721 -0.490189 0
M  V30 3092 H 291.78 -4.00826 -0.11804 0
M  V30 3093 H 288.37 -4.07966 1.31384 0
M  V30 3094 H 292.554 -4.43479 2.228 0
M  V30 3095 H 287.81 -4.99531 3.52532 0
M  V30 3096 H 291.984 -5.36404 4.44121 0
M  V30 3097 H 289.611 -5.64164 5.09532 0
M  V30 3098 N 291.186 -0.45159 -1.50991 0
M  V30 3099 C 292.414 0.108334 -2.06616 0
M  V30 3100 C 292.829 1.35224 -1.31757 0
M  V30 3101 O 292.186 1.78475 -0.381174 0
M  V30 3102 C 292.237 0.41619 -3.59096 0
M  V30 3103 O 291.958 -0.778361 -4.3113 0
M  V30 3104 C 293.459 1.02523 -4.31282 0
M  V30 3105 H 290.679 0.00159995 -0.670998 0
M  V30 3106 H 293.223 -0.634771 -1.94399 0
M  V30 3107 H 291.378 1.10921 -3.71181 0
M  V30 3108 H 291.792 -0.511181 -5.22003 0
M  V30 3109 H 293.266 1.19053 -5.39009 0
M  V30 3110 H 293.743 2.01013 -3.905 0
M  V30 3111 H 294.349 0.371173 -4.23677 0
M  V30 3112 N 292.664 1.56529 -0.183458 0
M  V30 3113 C 293.892 2.01623 0.464285 0
M  V30 3114 C 294.307 1.06366 1.55986 0
M  V30 3115 O 293.664 0.0665398 1.82379 0
M  V30 3116 C 293.715 3.46475 1.03139 0
M  V30 3117 O 293.436 4.38095 -0.0204675 0
M  V30 3118 C 294.937 4.0703 1.75617 0
M  V30 3119 H 292.157 0.660596 0.117704 0
M  V30 3120 H 294.701 2.02451 -0.288751 0
M  V30 3121 H 292.856 3.46383 1.73486 0
M  V30 3122 H 293.27 5.22973 0.399952 0
M  V30 3123 H 294.744 5.10271 2.10542 0
M  V30 3124 H 295.221 3.49819 2.65563 0
M  V30 3125 H 295.827 4.1086 1.09882 0
M  V30 3126 N 294.142 -0.090211 1.57342 0
M  V30 3127 C 295.553 -0.644173 1.75235 0
M  V30 3128 C 295.904 -1.78865 0.806335 0
M  V30 3129 O 295.029 -2.16395 -0.0140128 0
M  V30 3130 C 295.624 -1.17532 3.1776 0
M  V30 3131 C 294.183 -1.67531 3.37061 0
M  V30 3132 C 293.33 -0.58693 2.71017 0
M  V30 3133 H 296.281 0.135884 1.58117 0
M  V30 3134 H 296.302 -2.04455 3.20902 0
M  V30 3135 H 295.814 -0.342138 3.86589 0
M  V30 3136 H 293.915 -2.53234 2.73319 0
M  V30 3137 H 294.028 -1.76493 4.45406 0
M  V30 3138 H 292.392 -1.02756 2.33052 0
M  V30 3139 H 293.175 0.235758 3.4249 0
M  V30 3140 N 295.62 -1.53406 -0.361157 0
M  V30 3141 C 297.031 -1.61442 -0.937728 0
M  V30 3142 C 297.382 -0.48461 -1.90121 0
M  V30 3143 O 296.507 0.388312 -2.12888 0
M  V30 3144 C 297.102 -2.92624 -1.70753 0
M  V30 3145 C 295.661 -3.02981 -2.23337 0
M  V30 3146 C 294.808 -2.5677 -1.04712 0
M  V30 3147 H 297.759 -1.58083 -0.139816 0
M  V30 3148 H 297.78 -2.80675 -2.56908 0
M  V30 3149 H 297.292 -3.74834 -1.00604 0
M  V30 3150 H 295.393 -2.25368 -2.96715 0
M  V30 3151 H 295.506 -4.0814 -2.50916 0
M  V30 3152 H 293.87 -2.11752 -1.41539 0
M  V30 3153 H 294.653 -3.41402 -0.360539 0
M  V30 3154 N 297.098 0.621204 -1.44841 0
M  V30 3155 C 298.338 1.39201 -1.49674 0
M  V30 3156 C 298.702 1.91561 -0.129764 0
M  V30 3157 O 299.903 2.68748 -0.0527814 0
M  V30 3158 C 298.174 2.519 -2.53537 0
M  V30 3159 S 299.733 3.39916 -2.77494 0
M  V30 3160 H 296.551 0.474758 -0.529269 0
M  V30 3161 H 299.153 0.718171 -1.81831 0
M  V30 3162 H 297.857 2.11761 -3.51547 0
M  V30 3163 H 297.388 3.241 -2.22986 0
M  V30 3164 H 299.403 4.49646 -2.0984 0
M  V30 3165 N 298.576 1.31904 0.862503 0
M  V30 3166 C 299.486 1.22161 2.00285 0
M  V30 3167 C 300.502 0.136785 1.73462 0
M  V30 3168 O 301.678 0.355994 1.98229 0
M  V30 3169 C 298.743 0.937093 3.33796 0
M  V30 3170 C 297.804 2.10957 3.73893 0
M  V30 3171 C 297.037 1.83853 5.01033 0
M  V30 3172 O 297.26 0.777274 5.65079 0
M  V30 3173 O 296.194 2.69741 5.38074 0
M  V30 3174 H 300.02 2.18008 2.11439 0
M  V30 3175 H 297.605 1.11716 0.991957 0
M  V30 3176 H 299.487 0.794583 4.13841 0
M  V30 3177 H 298.162 0.00871894 3.23699 0
M  V30 3178 H 297.069 2.30752 2.94456 0
M  V30 3179 H 298.402 3.02046 3.88625 0
M  V30 3180 N 300.054 -1.07777 1.14986 0
M  V30 3181 C 300.964 -2.18404 0.856546 0
M  V30 3182 C 301.98 -1.73211 -0.165485 0
M  V30 3183 O 303.156 -2.01399 0.00755219 0
M  V30 3184 C 300.221 -3.44977 0.34526 0
M  V30 3185 C 299.282 -4.0476 1.43065 0
M  V30 3186 C 298.515 -5.25291 0.943663 0
M  V30 3187 O 298.738 -5.70004 -0.212426 0
M  V30 3188 O 297.672 -5.76638 1.72547 0
M  V30 3189 H 301.498 -2.45978 1.78125 0
M  V30 3190 H 299.083 -1.17033 0.928631 0
M  V30 3191 H 300.965 -4.21348 0.0663671 0
M  V30 3192 H 299.64 -3.18965 -0.551631 0
M  V30 3193 H 298.547 -3.29949 1.76309 0
M  V30 3194 H 299.88 -4.35035 2.30229 0
M  V30 3195 N 301.532 -0.945985 -1.26051 0
M  V30 3196 C 302.772 -0.603665 -1.95282 0
M  V30 3197 C 303.136 0.842377 -1.72534 0
M  V30 3198 O 304.337 1.29387 -2.35611 0
M  V30 3199 C 302.608 -0.942292 -3.44754 0
M  V30 3200 S 304.167 -0.711242 -4.32997 0
M  V30 3201 H 300.985 -0.222176 -0.675395 0
M  V30 3202 H 303.587 -1.21832 -1.52896 0
M  V30 3203 H 302.291 -1.99203 -3.58812 0
M  V30 3204 H 301.822 -0.317546 -3.92116 0
M  V30 3205 H 303.837 0.422221 -4.944 0
M  V30 3206 N 303.011 1.40521 -0.713556 0
M  V30 3207 C 304.26 2.00155 -0.249192 0
M  V30 3208 C 304.573 1.57224 1.16362 0
M  V30 3209 O 305.779 2.09542 1.72639 0
M  V30 3210 C 304.235 3.5773 -0.3946 0
M  V30 3211 C 303.843 4.09635 -1.81392 0
M  V30 3212 C 305.587 4.24499 0.00907364 0
M  V30 3213 C 303.494 5.59707 -1.91003 0
M  V30 3214 H 302.424 0.74868 -0.0894114 0
M  V30 3215 H 305.075 1.60784 -0.884352 0
M  V30 3216 H 303.457 3.94792 0.30911 0
M  V30 3217 H 304.631 3.83955 -2.54785 0
M  V30 3218 H 302.946 3.55456 -2.16888 0
M  V30 3219 H 305.543 5.34683 -0.0420404 0
M  V30 3220 H 305.886 4.02824 1.05065 0
M  V30 3221 H 306.419 3.92536 -0.645007 0
M  V30 3222 H 303.158 5.86234 -2.93275 0
M  V30 3223 H 302.678 5.87258 -1.22019 0
M  V30 3224 H 304.357 6.24776 -1.6812 0
M  V30 3225 N 304.489 0.459591 1.5075 0
M  V30 3226 C 305.735 -0.0994966 2.02556 0
M  V30 3227 C 306.068 -1.40399 1.3417 0
M  V30 3228 O 305.343 -1.88892 0.463683 0
M  V30 3229 C 305.626 -0.295242 3.58888 0
M  V30 3230 C 305.479 1.02947 4.37861 0
M  V30 3231 C 306.798 -1.05502 4.27267 0
M  V30 3232 H 303.917 -0.034686 0.736183 0
M  V30 3233 H 306.559 0.602938 1.8018 0
M  V30 3234 H 304.709 -0.893563 3.78084 0
M  V30 3235 H 306.381 1.66348 4.30263 0
M  V30 3236 H 304.624 1.62885 4.02058 0
M  V30 3237 H 305.295 0.846281 5.45474 0
M  V30 3238 H 307.771 -0.547993 4.12476 0
M  V30 3239 H 306.647 -1.16077 5.36486 0
M  V30 3240 H 306.908 -2.08875 3.89645 0
M  V30 3241 N 305.967 -1.56429 0.191757 0
M  V30 3242 C 307.213 -1.98541 -0.441943 0
M  V30 3243 C 307.568 -1.07646 -1.59468 0
M  V30 3244 O 306.861 -0.120191 -1.91223 0
M  V30 3245 C 307.055 -3.44449 -0.953384 0
M  V30 3246 C 306.884 -4.49456 0.148262 0
M  V30 3247 C 305.654 -5.01668 0.604781 0
M  V30 3248 C 307.852 -5.05336 0.95602 0
M  V30 3249 N 305.834 -5.90334 1.6846 0
M  V30 3250 C 307.205 -5.9064 1.88531 0
M  V30 3251 C 309.26 -4.87779 0.998811 0
M  V30 3252 C 307.963 -6.60264 2.85383 0
M  V30 3253 C 309.989 -5.58139 1.95537 0
M  V30 3254 C 309.351 -6.43187 2.8721 0
M  V30 3255 H 305.45 -0.771247 -0.129236 0
M  V30 3256 H 308.034 -1.92426 0.296682 0
M  V30 3257 H 306.205 -3.5107 -1.66146 0
M  V30 3258 H 307.937 -3.73533 -1.55741 0
M  V30 3259 H 304.692 -4.73183 0.198736 0
M  V30 3260 H 305.116 -6.39371 2.22561 0
M  V30 3261 H 309.758 -4.21705 0.304048 0
M  V30 3262 H 307.476 -7.25538 3.55837 0
M  V30 3263 H 311.062 -5.46532 1.99484 0
M  V30 3264 H 309.942 -6.96674 3.60022 0
M  V30 3265 N 307.445 0.0818655 -1.57387 0
M  V30 3266 C 308.375 1.09885 -2.06028 0
M  V30 3267 C 309.356 1.4098 -0.951774 0
M  V30 3268 O 310.541 1.50781 -1.22387 0
M  V30 3269 C 307.671 2.4151 -2.4958 0
M  V30 3270 C 306.625 2.24792 -3.64215 0
M  V30 3271 C 305.951 3.61712 -3.93787 0
M  V30 3272 C 307.251 1.67749 -4.94629 0
M  V30 3273 H 308.945 0.694128 -2.91243 0
M  V30 3274 H 306.491 0.332448 -1.4011 0
M  V30 3275 H 308.444 3.12939 -2.82219 0
M  V30 3276 H 307.168 2.83943 -1.61381 0
M  V30 3277 H 305.827 1.55807 -3.31843 0
M  V30 3278 H 305.475 4.01697 -3.02735 0
M  V30 3279 H 305.175 3.51368 -4.70971 0
M  V30 3280 H 306.699 4.34587 -4.28913 0
M  V30 3281 H 308.113 2.29032 -5.25564 0
M  V30 3282 H 306.51 1.68128 -5.76067 0
M  V30 3283 H 307.58 0.638059 -4.80684 0
M  V30 3284 N 308.923 1.53595 0.353017 0
M  V30 3285 C 309.853 1.83902 1.43883 0
M  V30 3286 C 310.834 0.693421 1.55324 0
M  V30 3287 O 312.019 0.944452 1.69687 0
M  V30 3288 C 309.149 2.04016 2.8106 0
M  V30 3289 C 308.103 3.19814 2.84434 0
M  V30 3290 C 307.429 3.25244 4.24406 0
M  V30 3291 C 308.729 4.58133 2.50822 0
M  V30 3292 H 310.423 2.74835 1.1877 0
M  V30 3293 H 307.969 1.32242 0.569917 0
M  V30 3294 H 309.922 2.238 3.57059 0
M  V30 3295 H 308.646 1.09804 3.07588 0
M  V30 3296 H 307.305 2.9987 2.10887 0
M  V30 3297 H 306.953 2.28646 4.48029 0
M  V30 3298 H 306.653 4.03054 4.27576 0
M  V30 3299 H 308.177 3.47228 5.0226 0
M  V30 3300 H 309.591 4.77995 3.16534 0
M  V30 3301 H 307.988 5.38276 2.6529 0
M  V30 3302 H 309.058 4.62387 1.46034 0
M  V30 3303 N 310.401 -0.613514 1.45168 0
M  V30 3304 C 311.331 -1.7354 1.56225 0
M  V30 3305 C 312.312 -1.64981 0.41414 0
M  V30 3306 O 313.497 -1.83472 0.636526 0
M  V30 3307 C 310.627 -3.12128 1.52295 0
M  V30 3308 C 309.581 -3.35491 2.65762 0
M  V30 3309 C 308.907 -4.74291 2.46885 0
M  V30 3310 C 310.207 -3.26325 4.0781 0
M  V30 3311 H 311.901 -1.64543 2.50132 0
M  V30 3312 H 309.447 -0.790185 1.20383 0
M  V30 3313 H 311.4 -3.90404 1.58628 0
M  V30 3314 H 310.124 -3.2195 0.549139 0
M  V30 3315 H 308.783 -2.59603 2.58847 0
M  V30 3316 H 308.431 -4.80839 1.47657 0
M  V30 3317 H 308.131 -4.9088 3.22972 0
M  V30 3318 H 309.655 -5.54775 2.55063 0
M  V30 3319 H 311.069 -3.94483 4.16 0
M  V30 3320 H 309.466 -3.54445 4.8424 0
M  V30 3321 H 310.536 -2.23855 4.30136 0
M  V30 3322 N 311.879 -1.3236 -0.855495 0
M  V30 3323 C 312.826 -1.21225 -1.964 0
M  V30 3324 C 313.796 -0.0946204 -1.6583 0
M  V30 3325 O 314.981 -0.27002 -1.8888 0
M  V30 3326 C 312.121 -0.940419 -3.32039 0
M  V30 3327 C 311.234 -2.14276 -3.75113 0
M  V30 3328 C 310.369 -1.80648 -4.9954 0
M  V30 3329 C 309.408 -2.97208 -5.35102 0
M  V30 3330 N 308.545 -2.63678 -6.50706 0
M  V30 3331 H 313.385 -2.16042 -2.05255 0
M  V30 3332 H 310.922 -1.07451 -1.00463 0
M  V30 3333 H 312.88 -0.763311 -4.10158 0
M  V30 3334 H 311.51 -0.0290413 -3.22787 0
M  V30 3335 H 310.562 -2.43017 -2.92655 0
M  V30 3336 H 311.874 -3.01468 -3.97389 0
M  V30 3337 H 311.028 -1.59484 -5.85363 0
M  V30 3338 H 309.767 -0.906678 -4.79198 0
M  V30 3339 H 308.772 -3.19004 -4.47791 0
M  V30 3340 H 309.997 -3.87918 -5.57401 0
M  V30 3341 H 307.943 -1.76238 -6.31883 0
M  V30 3342 H 307.86 -3.444 -6.72997 0
M  V30 3343 H 309.128 -2.45942 -7.39684 0
M  V30 3344 N 313.357 1.07166 -1.15556 0
M  V30 3345 C 314.267 2.17947 -0.868116 0
M  V30 3346 C 315.283 1.73297 0.156297 0
M  V30 3347 O 316.459 2.01392 -0.0182327 0
M  V30 3348 C 313.524 3.44789 -0.36355 0
M  V30 3349 C 312.585 4.03996 -1.45209 0
M  V30 3350 C 311.818 5.24783 -0.971508 0
M  V30 3351 O 312.041 5.70109 0.182194 0
M  V30 3352 O 310.975 5.75715 -1.75603 0
M  V30 3353 H 314.801 2.4503 -1.79427 0
M  V30 3354 H 312.386 1.16539 -0.934824 0
M  V30 3355 H 314.268 4.21307 -0.0887113 0
M  V30 3356 H 312.943 3.19253 0.534708 0
M  V30 3357 H 311.85 3.29009 -1.78056 0
M  V30 3358 H 313.183 4.33808 -2.32533 0
M  V30 3359 N 314.835 0.952656 1.25548 0
M  V30 3360 C 316.246 0.647392 1.75116 0
M  V30 3361 C 316.597 -0.837274 1.77438 0
M  V30 3362 O 315.722 -1.65525 1.39393 0
M  V30 3363 C 316.317 1.16845 3.18014 0
M  V30 3364 C 314.876 0.913382 3.6515 0
M  V30 3365 C 314.023 1.31265 2.44264 0
M  V30 3366 H 316.974 1.12968 1.11462 0
M  V30 3367 H 316.995 0.527606 3.76824 0
M  V30 3368 H 316.507 2.24902 3.16292 0
M  V30 3369 H 314.608 -0.152316 3.72289 0
M  V30 3370 H 314.721 1.54845 4.53387 0
M  V30 3371 H 313.085 0.731028 2.43984 0
M  V30 3372 H 313.868 2.40239 2.45234 0
M  V30 3373 N 316.313 -1.40141 0.720998 0
M  V30 3374 C 317.246 -2.2819 0.020916 0
M  V30 3375 C 318.224 -1.43633 -0.762129 0
M  V30 3376 O 319.408 -1.7304 -0.747633 0
M  V30 3377 C 316.535 -3.24281 -0.977715 0
M  V30 3378 C 315.581 -4.25548 -0.284836 0
M  V30 3379 S 316.414 -5.26247 0.991169 0
M  V30 3380 C 317.57 -6.259 -0.0052214 0
M  V30 3381 H 317.803 -2.87218 0.767649 0
M  V30 3382 H 315.336 -1.45656 0.512233 0
M  V30 3383 H 317.294 -3.80167 -1.54865 0
M  V30 3384 H 315.955 -2.643 -1.69719 0
M  V30 3385 H 315.148 -4.93154 -1.03996 0
M  V30 3386 H 314.75 -3.73389 0.213684 0
M  V30 3387 H 317.042 -6.72143 -0.850279 0
M  V30 3388 H 317.985 -7.05224 0.637599 0
M  V30 3389 H 318.393 -5.63277 -0.371366 0
M  V30 3390 N 317.792 -0.46758 -1.50504 0
M  V30 3391 C 319.02 0.0864133 -2.06719 0
M  V30 3392 C 319.435 1.33819 -1.33184 0
M  V30 3393 O 318.792 1.78061 -0.400083 0
M  V30 3394 C 318.843 0.378079 -3.59517 0
M  V30 3395 O 318.564 -0.824044 -4.3028 0
M  V30 3396 C 320.065 0.979426 -4.32345 0
M  V30 3397 H 317.285 -0.00551697 -0.670977 0
M  V30 3398 H 319.829 -0.655354 -1.93715 0
M  V30 3399 H 317.984 1.06977 -3.72337 0
M  V30 3400 H 318.398 -0.566518 -5.21432 0
M  V30 3401 H 319.872 1.1333 -5.40241 0
M  V30 3402 H 320.349 1.9686 -3.9261 0
M  V30 3403 H 320.955 0.326216 -4.24047 0
M  V30 3404 N 319.27 1.56325 -0.20005 0
M  V30 3405 C 320.516 1.98012 0.438059 0
M  V30 3406 C 320.849 1.08702 1.60927 0
M  V30 3407 O 320.124 0.140064 1.93995 0
M  V30 3408 C 320.407 3.48841 0.893419 0
M  V30 3409 C 320.26 4.48928 -0.279947 0
M  V30 3410 C 321.579 4.03498 1.75719 0
M  V30 3411 H 318.698 0.719918 0.157757 0
M  V30 3412 H 321.34 1.87743 -0.291968 0
M  V30 3413 H 319.49 3.57723 1.51547 0
M  V30 3414 H 321.162 4.52079 -0.91772 0
M  V30 3415 H 319.405 4.23694 -0.930919 0
M  V30 3416 H 320.076 5.5194 0.0812601 0
M  V30 3417 H 322.552 3.97427 1.23253 0
M  V30 3418 H 321.428 5.09393 2.04476 0
M  V30 3419 H 321.689 3.4906 2.71311 0
M  V30 3420 N 320.748 -0.0735177 1.57428 0
M  V30 3421 C 321.973 -0.789787 1.91774 0
M  V30 3422 C 322.398 -1.70413 0.796306 0
M  V30 3423 O 321.756 -1.79555 -0.250961 0
M  V30 3424 C 321.804 -1.5609 3.25067 0
M  V30 3425 O 320.908 -2.67144 3.14178 0
M  V30 3426 H 320.249 -0.215582 0.628029 0
M  V30 3427 H 322.779 -0.0422781 2.04556 0
M  V30 3428 H 322.789 -1.94052 3.58898 0
M  V30 3429 H 321.464 -0.890015 4.06265 0
M  V30 3430 H 320.041 -2.32052 2.91901 0
M  V30 3431 N 322.226 -1.5378 -0.344866 0
M  V30 3432 C 323.451 -1.75211 -1.10977 0
M  V30 3433 C 323.876 -0.48936 -1.81623 0
M  V30 3434 O 323.234 0.557925 -1.72502 0
M  V30 3435 C 323.282 -2.93147 -2.09993 0
M  V30 3436 O 322.386 -2.63203 -3.17487 0
M  V30 3437 H 321.727 -0.581241 -0.321021 0
M  V30 3438 H 324.257 -2.00738 -0.395661 0
M  V30 3439 H 324.267 -3.19898 -2.53237 0
M  V30 3440 H 322.942 -3.84731 -1.5797 0
M  V30 3441 H 321.519 -2.47336 -2.79069 0
M  V30 3442 N 323.704 0.605807 -1.45491 0
M  V30 3443 C 324.981 1.36522 -1.40075 0
M  V30 3444 C 325.361 2.10976 -0.0722744 0
M  V30 3445 O 324.709 2.08007 0.945808 0
M  V30 3446 C 324.919 2.31056 -2.61561 0
M  V30 3447 C 326.267 2.93608 -3.06724 0
M  V30 3448 O 327.291 2.41376 -2.61946 0
M  V30 3449 O 326.15 3.88421 -3.84437 0
M  V30 3450 H 323.244 0.612248 -0.555951 0
M  V30 3451 H 325.79 0.628747 -1.57623 0
M  V30 3452 H 324.562 1.75311 -3.49831 0
M  V30 3453 H 324.185 3.12081 -2.46356 0
M  V30 3454 N 325.182 1.32811 0.848464 0
M  V30 3455 C 326.114 1.18095 1.96433 0
M  V30 3456 C 327.127 0.114354 1.62398 0
M  V30 3457 O 328.316 0.363892 1.74751 0
M  V30 3458 C 325.416 0.786798 3.2964 0
M  V30 3459 C 324.589 1.943 3.91875 0
M  V30 3460 C 323.648 1.53138 5.03423 0
M  V30 3461 O 322.674 2.24432 5.23086 0
M  V30 3462 N 323.876 0.430915 5.78898 0
M  V30 3463 H 326.641 2.14218 2.09597 0
M  V30 3464 H 324.202 1.2543 1.02367 0
M  V30 3465 H 326.194 0.493715 4.01677 0
M  V30 3466 H 324.764 -0.0834541 3.12489 0
M  V30 3467 H 323.984 2.40224 3.12547 0
M  V30 3468 H 325.272 2.71689 4.30189 0
M  V30 3469 H 324.67 -0.162333 5.65467 0
M  V30 3470 H 323.227 0.197466 6.51501 0
M  V30 3471 N 326.66 -1.06551 1.16123 0
M  V30 3472 C 327.593 -2.13382 0.80892 0
M  V30 3473 C 328.571 -1.61128 -0.21827 0
M  V30 3474 O 329.755 -1.88219 -0.102952 0
M  V30 3475 C 326.882 -3.38083 0.204303 0
M  V30 3476 C 325.928 -4.09133 1.20469 0
M  V30 3477 S 326.761 -4.5948 2.75024 0
M  V30 3478 C 327.917 -5.87446 2.16005 0
M  V30 3479 H 328.15 -2.42937 1.71373 0
M  V30 3480 H 325.683 -1.18947 0.984428 0
M  V30 3481 H 327.641 -4.10268 -0.138081 0
M  V30 3482 H 326.302 -3.0669 -0.678234 0
M  V30 3483 H 325.495 -4.98685 0.730019 0
M  V30 3484 H 325.097 -3.4295 1.49202 0
M  V30 3485 H 327.389 -6.60065 1.5271 0
M  V30 3486 H 328.332 -6.39639 3.03756 0
M  V30 3487 H 328.74 -5.41354 1.59989 0
M  V30 3488 N 328.138 -0.959301 -1.25041 0
M  V30 3489 C 329.101 -0.487677 -2.23952 0
M  V30 3490 C 330.101 0.41119 -1.55454 0
M  V30 3491 O 331.291 0.207825 -1.72956 0
M  V30 3492 C 328.423 0.294807 -3.39623 0
M  V30 3493 H 329.616 -1.36198 -2.67189 0
M  V30 3494 H 327.169 -0.743042 -1.37508 0
M  V30 3495 H 327.904 1.18658 -3.01813 0
M  V30 3496 H 327.689 -0.35012 -3.90534 0
M  V30 3497 H 329.179 0.614089 -4.1306 0
M  V30 3498 N 329.616 1.39756 -0.72842 0
M  V30 3499 C 330.563 2.30647 -0.0841519 0
M  V30 3500 C 331.533 1.48869 0.7367 0
M  V30 3501 O 332.718 1.77574 0.698015 0
M  V30 3502 C 329.858 3.35165 0.822091 0
M  V30 3503 C 328.971 4.31999 -0.0106663 0
M  V30 3504 C 328.106 5.23585 0.896241 0
M  V30 3505 C 327.145 6.12072 0.0583381 0
M  V30 3506 N 326.282 6.96035 0.920818 0
M  V30 3507 H 331.122 2.85173 -0.864891 0
M  V30 3508 H 328.659 1.40422 -0.438179 0
M  V30 3509 H 330.617 3.94345 1.36189 0
M  V30 3510 H 329.247 2.8211 1.56888 0
M  V30 3511 H 328.299 3.74492 -0.66781 0
M  V30 3512 H 329.611 4.9443 -0.658825 0
M  V30 3513 H 328.765 5.87759 1.50412 0
M  V30 3514 H 327.504 4.61459 1.57819 0
M  V30 3515 H 326.509 5.46916 -0.562389 0
M  V30 3516 H 327.734 6.76261 -0.6203 0
M  V30 3517 H 325.68 6.36485 1.58818 0
M  V30 3518 H 325.597 7.55284 0.32899 0
M  V30 3519 H 326.865 7.64646 1.51447 0
M  V30 3520 N 331.094 0.475555 1.50254 0
M  V30 3521 C 332.024 -0.30611 2.31485 0
M  V30 3522 C 333.005 -0.986228 1.38591 0
M  V30 3523 O 334.19 -0.982541 1.67511 0
M  V30 3524 C 331.32 -1.38588 3.1845 0
M  V30 3525 C 330.274 -0.827115 4.19932 0
M  V30 3526 C 329.6 -2.00551 4.95665 0
M  V30 3527 C 330.9 0.16463 5.2204 0
M  V30 3528 H 332.594 0.371866 2.97082 0
M  V30 3529 H 330.14 0.180282 1.42867 0
M  V30 3530 H 332.093 -1.94023 3.74076 0
M  V30 3531 H 330.817 -2.09269 2.50747 0
M  V30 3532 H 329.476 -0.294702 3.65414 0
M  V30 3533 H 329.124 -2.6994 4.2443 0
M  V30 3534 H 328.824 -1.63784 5.64313 0
M  V30 3535 H 330.348 -2.56468 5.54127 0
M  V30 3536 H 331.762 -0.300699 5.72511 0
M  V30 3537 H 330.159 0.446813 5.98434 0
M  V30 3538 H 331.229 1.08905 4.72512 0
M  V30 3539 N 332.573 -1.56217 0.208337 0
M  V30 3540 C 333.989 -1.58919 -0.14729 0
M  V30 3541 C 334.189 -1.22486 -1.59998 0
M  V30 3542 O 333.245 -0.953849 -2.3379 0
M  V30 3543 C 334.558 -3.00236 0.167048 0
M  V30 3544 C 336.106 -3.12813 0.108219 0
M  V30 3545 C 336.581 -4.56284 0.396049 0
M  V30 3546 N 338.072 -4.61912 0.345142 0
M  V30 3547 C 338.807 -5.70837 0.541523 0
M  V30 3548 N 338.303 -6.88178 0.798968 0
M  V30 3549 N 340.096 -5.60091 0.474867 0
M  V30 3550 H 332.247 -1.78177 1.15614 0
M  V30 3551 H 334.51 -0.827555 0.462446 0
M  V30 3552 H 334.216 -3.31499 1.1748 0
M  V30 3553 H 334.09 -3.7354 -0.524184 0
M  V30 3554 H 336.477 -2.81354 -0.890157 0
M  V30 3555 H 336.558 -2.41866 0.832729 0
M  V30 3556 H 336.202 -4.88458 1.3918 0
M  V30 3557 H 336.132 -5.25439 -0.349502 0
M  V30 3558 H 338.623 -3.77589 0.153316 0
M  V30 3559 H 338.936 -7.67095 0.93727 0
M  V30 3560 H 337.281 -6.89953 0.836013 0
M  V30 3561 H 340.472 -4.67297 0.274064 0
M  V30 3562 H 340.645 -6.44917 0.631326 0
M  V30 3563 N 334.051 0.0651679 -1.57465 0
M  V30 3564 C 335.276 0.779605 -1.9219 0
M  V30 3565 C 335.701 1.69988 -0.805333 0
M  V30 3566 O 335.059 1.79685 0.241435 0
M  V30 3567 C 335.107 1.54364 -3.2589 0
M  V30 3568 O 334.211 2.65474 -3.1559 0
M  V30 3569 H 333.552 0.212249 -0.629163 0
M  V30 3570 H 336.082 0.0314294 -2.04576 0
M  V30 3571 H 336.092 1.92146 -3.59922 0
M  V30 3572 H 334.767 0.868457 -4.06732 0
M  V30 3573 H 333.344 2.30501 -2.93128 0
M  V30 3574 N 335.529 1.53961 0.336706 0
M  V30 3575 C 336.459 1.85417 1.41925 0
M  V30 3576 C 337.44 0.709856 1.5458 0
M  V30 3577 O 338.625 0.962396 1.68676 0
M  V30 3578 C 335.755 2.06985 2.78881 0
M  V30 3579 C 334.709 3.22813 2.81026 0
M  V30 3580 C 334.035 3.29727 4.20932 0
M  V30 3581 C 335.335 4.60767 2.45949 0
M  V30 3582 H 337.029 2.76079 1.15848 0
M  V30 3583 H 334.575 1.32839 0.555859 0
M  V30 3584 H 336.528 2.27575 3.54665 0
M  V30 3585 H 335.252 1.13061 3.06406 0
M  V30 3586 H 333.911 3.0209 2.07695 0
M  V30 3587 H 333.559 2.33385 4.45579 0
M  V30 3588 H 333.259 4.07566 4.23277 0
M  V30 3589 H 334.783 3.52536 4.98549 0
M  V30 3590 H 336.197 4.81325 3.11446 0
M  V30 3591 H 334.594 5.4106 2.59566 0
M  V30 3592 H 335.664 4.6391 1.41122 0
M  V30 3593 N 337.007 -0.598083 1.45811 0
M  V30 3594 C 337.937 -1.71873 1.58057 0
M  V30 3595 C 338.918 -1.64533 0.431615 0
M  V30 3596 O 340.103 -1.82787 0.65595 0
M  V30 3597 C 337.233 -3.10495 1.55597 0
M  V30 3598 C 336.187 -3.32654 2.69305 0
M  V30 3599 C 335.513 -4.71646 2.51902 0
M  V30 3600 C 336.813 -3.21981 4.11248 0
M  V30 3601 H 338.507 -1.61881 2.51863 0
M  V30 3602 H 336.053 -0.777372 1.21214 0
M  V30 3603 H 338.006 -3.88699 1.6276 0
M  V30 3604 H 336.73 -3.2135 0.583255 0
M  V30 3605 H 335.389 -2.56843 2.61586 0
M  V30 3606 H 335.037 -4.79246 1.52748 0
M  V30 3607 H 334.737 -4.87426 3.2816 0
M  V30 3608 H 336.261 -5.52038 2.60933 0
M  V30 3609 H 337.675 -3.90049 4.20161 0
M  V30 3610 H 336.072 -3.49289 4.87972 0
M  V30 3611 H 337.142 -2.1928 4.32486 0
M  V30 3612 N 338.485 -1.33259 -0.841409 0
M  V30 3613 C 339.71 -1.2775 -1.63385 0
M  V30 3614 C 340.135 0.149188 -1.87507 0
M  V30 3615 O 339.493 1.10498 -1.43736 0
M  V30 3616 C 339.541 -2.05571 -2.96265 0
M  V30 3617 O 338.645 -1.41257 -3.87453 0
M  V30 3618 H 337.986 -0.439627 -0.497618 0
M  V30 3619 H 340.516 -1.75782 -1.04699 0
M  V30 3620 H 340.526 -2.16241 -3.45982 0
M  V30 3621 H 339.201 -3.09309 -2.7803 0
M  V30 3622 H 337.778 -1.39217 -3.45938 0
M  V30 3623 N 339.963 1.05934 -1.16686 0
M  V30 3624 C 341.188 1.83029 -0.975455 0
M  V30 3625 C 341.613 1.82096 0.471452 0
M  V30 3626 O 340.971 1.22443 1.33706 0
M  V30 3627 C 341.019 3.27372 -1.51195 0
M  V30 3628 O 340.123 4.06054 -0.720701 0
M  V30 3629 H 339.464 0.566194 -0.346872 0
M  V30 3630 H 341.994 1.33541 -1.55009 0
M  V30 3631 H 342.004 3.78186 -1.53099 0
M  V30 3632 H 340.679 3.27366 -2.56523 0
M  V30 3633 H 339.256 3.64812 -0.772458 0
M  V30 3634 N 341.441 0.965919 1.2453 0
M  V30 3635 C 342.404 0.499547 2.2369 0
M  V30 3636 C 343.404 -0.40294 1.5567 0
M  V30 3637 O 344.594 -0.19865 1.73064 0
M  V30 3638 C 341.726 -0.276792 3.39774 0
M  V30 3639 H 342.919 1.37613 2.66463 0
M  V30 3640 H 340.472 0.750324 1.37112 0
M  V30 3641 H 341.207 -1.17055 3.02438 0
M  V30 3642 H 340.992 0.370826 3.90343 0
M  V30 3643 H 342.482 -0.592175 4.1338 0
M  V30 3644 N 342.919 -1.39368 0.735821 0
M  V30 3645 C 343.829 -2.34395 0.0979693 0
M  V30 3646 C 344.845 -1.58361 -0.720968 0
M  V30 3647 O 346.021 -1.90648 -0.649245 0
M  V30 3648 C 343.086 -3.37393 -0.797916 0
M  V30 3649 C 342.147 -4.29287 0.0333662 0
M  V30 3650 C 341.38 -5.27365 -0.819854 0
M  V30 3651 O 341.603 -5.31959 -2.05855 0
M  V30 3652 O 340.537 -6.01389 -0.248079 0
M  V30 3653 H 344.363 -2.90601 0.882315 0
M  V30 3654 H 341.948 -1.40909 0.4965 0
M  V30 3655 H 343.83 -4.00505 -1.31048 0
M  V30 3656 H 342.505 -2.83571 -1.56106 0
M  V30 3657 H 341.412 -3.69395 0.591475 0
M  V30 3658 H 342.745 -4.86317 0.758752 0
M  V30 3659 N 344.397 -0.483516 -1.5 0
M  V30 3660 C 345.345 0.318061 -2.30415 0
M  V30 3661 C 346.339 0.978988 -1.38247 0
M  V30 3662 O 347.545 0.908673 -1.55381 0
M  V30 3663 H 343.92 0.121419 -0.742133 0
M  V30 3664 H 345.891 -0.380403 -2.95965 0
M  V30 3665 C 344.64 1.38013 -3.19136 0
M  V30 3666 H 343.963 0.880952 -3.89973 0
M  V30 3667 H 345.403 1.91332 -3.78375 0
M  V30 3668 C 343.862 2.38884 -2.37563 0
M  V30 3669 O 344.392 3.44412 -2.06744 0
M  V30 3670 N 342.598 2.10912 -1.99911 0
M  V30 3671 H 342.145 1.25118 -2.25174 0
M  V30 3672 H 342.103 2.78635 -1.45636 0
M  V30 3673 N 345.875 1.56104 -0.216619 0
M  V30 3674 C 346.785 2.23694 0.706982 0
M  V30 3675 C 347.801 1.24295 1.21765 0
M  V30 3676 O 348.977 1.57094 1.2603 0
M  V30 3677 C 346.042 2.8998 1.90033 0
M  V30 3678 C 345.103 4.04708 1.43213 0
M  V30 3679 C 344.336 4.67824 2.56859 0
M  V30 3680 O 344.559 4.29913 3.74874 0
M  V30 3681 O 343.493 5.56905 2.28343 0
M  V30 3682 H 347.319 3.03272 0.161235 0
M  V30 3683 H 344.904 1.49394 0.0136177 0
M  V30 3684 H 346.786 3.31837 2.59735 0
M  V30 3685 H 345.461 2.13365 2.43428 0
M  V30 3686 H 344.368 3.6743 0.70327 0
M  V30 3687 H 345.701 4.83051 0.944615 0
M  V30 3688 N 347.353 -0.0568162 1.57498 0
M  V30 3689 C 348.764 -0.606858 1.76562 0
M  V30 3690 C 349.115 -1.77114 0.844094 0
M  V30 3691 O 348.24 -2.16376 0.0318911 0
M  V30 3692 C 348.835 -1.10766 3.20182 0
M  V30 3693 C 347.394 -1.60344 3.40539 0
M  V30 3694 C 346.541 -0.529311 2.72201 0
M  V30 3695 H 349.492 0.169393 1.57793 0
M  V30 3696 H 349.513 -1.97602 3.25167 0
M  V30 3697 H 349.025 -0.26006 3.87228 0
M  V30 3698 H 347.126 -2.47379 2.78629 0
M  V30 3699 H 347.239 -1.67006 4.4905 0
M  V30 3700 H 345.603 -0.977893 2.35179 0
M  V30 3701 H 346.386 0.308352 3.41912 0
M  V30 3702 N 348.832 -1.54138 -0.328536 0
M  V30 3703 C 350.243 -1.63395 -0.903272 0
M  V30 3704 C 350.594 -0.524828 -1.8905 0
M  V30 3705 O 349.719 0.343068 -2.13663 0
M  V30 3706 C 350.314 -2.9618 -1.64507 0
M  V30 3707 C 348.873 -3.0765 -2.1686 0
M  V30 3708 C 348.02 -2.58933 -0.992416 0
M  V30 3709 H 350.971 -1.58344 -0.106253 0
M  V30 3710 H 350.992 -2.86061 -2.50897 0
M  V30 3711 H 350.504 -3.76884 -0.926302 0
M  V30 3712 H 348.605 -2.31611 -2.91868 0
M  V30 3713 H 348.718 -4.1337 -2.42202 0
M  V30 3714 H 347.082 -2.14706 -1.37016 0
M  V30 3715 H 347.865 -3.42089 -0.288041 0
M  V30 3716 N 350.31 0.590341 -1.46126 0
M  V30 3717 C 351.556 1.35082 -1.51264 0
M  V30 3718 C 351.889 1.93534 -0.160711 0
M  V30 3719 O 351.164 1.76045 0.826956 0
M  V30 3720 C 351.447 2.48588 -2.6053 0
M  V30 3721 C 351.3 1.95221 -4.05227 0
M  V30 3722 C 352.619 3.50662 -2.6594 0
M  V30 3723 H 349.738 0.489803 -0.550692 0
M  V30 3724 H 352.38 0.663887 -1.78024 0
M  V30 3725 H 350.53 3.07186 -2.37843 0
M  V30 3726 H 352.202 1.41139 -4.39178 0
M  V30 3727 H 350.445 1.26101 -4.15068 0
M  V30 3728 H 351.116 2.77121 -4.77397 0
M  V30 3729 H 353.592 3.01934 -2.86313 0
M  V30 3730 H 352.468 4.27551 -3.44226 0
M  V30 3731 H 352.729 4.07399 -1.71694 0
M  V30 3732 N 351.788 1.33704 0.83433 0
M  V30 3733 C 353.199 1.22813 1.4062 0
M  V30 3734 C 353.55 -0.151107 1.95617 0
M  V30 3735 O 352.675 -1.05092 1.89168 0
M  V30 3736 C 353.27 2.22355 2.55624 0
M  V30 3737 C 351.829 2.1529 3.08751 0
M  V30 3738 C 350.976 2.09589 1.8157 0
M  V30 3739 H 353.927 1.45236 0.639702 0
M  V30 3740 H 353.948 1.83391 3.33389 0
M  V30 3741 H 353.46 3.22728 2.15566 0
M  V30 3742 H 351.561 1.18235 3.53343 0
M  V30 3743 H 351.674 3.06038 3.68616 0
M  V30 3744 H 350.038 1.55134 2.02004 0
M  V30 3745 H 350.821 3.11777 1.43701 0
M  V30 3746 N 353.266 -1.05314 1.17247 0
M  V30 3747 C 354.196 -2.1498 0.911362 0
M  V30 3748 C 355.177 -1.69471 -0.146169 0
M  V30 3749 O 356.362 -1.942 0.003812 0
M  V30 3750 C 353.492 -3.4472 0.422528 0
M  V30 3751 C 352.446 -4.03789 1.4191 0
M  V30 3752 C 351.772 -5.28858 0.788274 0
M  V30 3753 C 353.072 -4.41418 2.7919 0
M  V30 3754 H 354.766 -2.3708 1.82848 0
M  V30 3755 H 352.312 -1.13938 0.880569 0
M  V30 3756 H 354.265 -4.20787 0.227289 0
M  V30 3757 H 352.989 -3.22269 -0.530123 0
M  V30 3758 H 351.648 -3.2979 1.60106 0
M  V30 3759 H 351.296 -5.02709 -0.171173 0
M  V30 3760 H 350.996 -5.69338 1.45353 0
M  V30 3761 H 352.52 -6.07612 0.603282 0
M  V30 3762 H 353.934 -5.08524 2.64719 0
M  V30 3763 H 352.331 -4.92913 3.42282 0
M  V30 3764 H 353.401 -3.51819 3.33693 0
M  V30 3765 N 354.744 -0.972509 -1.24016 0
M  V30 3766 C 355.99 -0.637978 -1.92504 0
M  V30 3767 C 356.323 0.825383 -1.75787 0
M  V30 3768 O 355.598 1.59442 -1.11393 0
M  V30 3769 C 355.881 -1.01942 -3.45369 0
M  V30 3770 C 355.734 -2.53983 -3.71231 0
M  V30 3771 C 357.053 -0.55751 -4.36555 0
M  V30 3772 H 354.172 -0.233248 -0.699117 0
M  V30 3773 H 356.814 -1.21238 -1.46292 0
M  V30 3774 H 354.964 -0.530656 -3.84859 0
M  V30 3775 H 356.636 -3.10374 -3.41271 0
M  V30 3776 H 354.879 -2.96968 -3.16216 0
M  V30 3777 H 355.55 -2.75723 -4.78206 0
M  V30 3778 H 358.026 -0.977029 -4.04467 0
M  V30 3779 H 356.902 -0.85292 -5.42233 0
M  V30 3780 H 357.163 0.542328 -4.38761 0
M  V30 3781 N 356.222 1.38976 -0.743202 0
M  V30 3782 C 357.447 2.05161 -0.303936 0
M  V30 3783 C 357.872 1.55677 1.05576 0
M  V30 3784 O 357.23 0.704131 1.67068 0
M  V30 3785 C 357.278 3.59138 -0.324373 0
M  V30 3786 O 356.382 4.06668 0.685204 0
M  V30 3787 H 355.723 0.649815 -0.136518 0
M  V30 3788 H 358.253 1.77852 -1.01142 0
M  V30 3789 H 358.263 4.07639 -0.171618 0
M  V30 3790 H 356.938 3.94515 -1.31647 0
M  V30 3791 H 355.515 3.69561 0.497913 0
M  V30 3792 N 357.7 0.491464 1.49741 0
M  V30 3793 C 358.648 -0.305837 2.30581 0
M  V30 3794 C 359.642 -0.971642 1.38764 0
M  V30 3795 O 360.848 -0.90042 1.5586 0
M  V30 3796 H 357.223 -0.117482 0.742767 0
M  V30 3797 H 359.194 0.396093 2.95759 0
M  V30 3798 C 357.943 -1.36319 3.19863 0
M  V30 3799 H 357.266 -0.860258 3.90435 0
M  V30 3800 H 358.706 -1.89323 3.79385 0
M  V30 3801 C 357.165 -2.37621 2.38826 0
M  V30 3802 O 357.695 -3.43311 2.08567 0
M  V30 3803 N 355.901 -2.09849 2.01026 0
M  V30 3804 H 355.448 -1.23922 2.25834 0
M  V30 3805 H 355.406 -2.77859 1.47112 0
M  V30 3806 N 359.178 -1.55987 0.224894 0
M  V30 3807 C 360.424 -1.99433 -0.39973 0
M  V30 3808 C 360.779 -1.11004 -1.57149 0
M  V30 3809 O 360.072 -0.160725 -1.90925 0
M  V30 3810 C 360.266 -3.46394 -0.880106 0
M  V30 3811 C 360.095 -4.4904 0.243565 0
M  V30 3812 C 358.865 -5.00272 0.711056 0
M  V30 3813 C 361.063 -5.03195 1.06299 0
M  V30 3814 N 359.045 -5.86628 1.80944 0
M  V30 3815 C 360.416 -5.86508 2.01017 0
M  V30 3816 C 362.471 -4.8555 1.10205 0
M  V30 3817 C 361.174 -6.54062 2.99324 0
M  V30 3818 C 363.2 -5.53866 2.07332 0
M  V30 3819 C 362.562 -6.3695 3.00789 0
M  V30 3820 H 358.661 -0.773815 -0.112847 0
M  V30 3821 H 361.245 -1.91754 0.337432 0
M  V30 3822 H 359.416 -3.54515 -1.58662 0
M  V30 3823 H 361.148 -3.76752 -1.47783 0
M  V30 3824 H 357.903 -4.72655 0.29906 0
M  V30 3825 H 358.327 -6.34507 2.36073 0
M  V30 3826 H 362.969 -4.20966 0.39343 0
M  V30 3827 H 360.687 -7.17827 3.71147 0
M  V30 3828 H 364.273 -5.42178 2.11032 0
M  V30 3829 H 363.153 -6.8888 3.74718 0
M  V30 3830 N 360.656 0.0484629 -1.57525 0
M  V30 3831 C 362.072 0.40375 -1.54409 0
M  V30 3832 C 362.272 1.77786 -0.948384 0
M  V30 3833 O 361.328 2.46189 -0.560983 0
M  V30 3834 C 362.641 0.323394 -2.98956 0
M  V30 3835 C 364.189 0.401892 -3.10409 0
M  V30 3836 C 364.664 0.351195 -4.56652 0
M  V30 3837 N 366.155 0.410576 -4.61377 0
M  V30 3838 C 366.89 0.393933 -5.72045 0
M  V30 3839 N 366.386 0.330724 -6.9201 0
M  V30 3840 N 368.179 0.442227 -5.60358 0
M  V30 3841 H 360.33 -0.851016 -1.94606 0
M  V30 3842 H 362.593 -0.321721 -0.89174 0
M  V30 3843 H 362.299 -0.62011 -3.4619 0
M  V30 3844 H 362.173 1.12463 -3.60044 0
M  V30 3845 H 364.56 1.33582 -2.63134 0
M  V30 3846 H 364.641 -0.428342 -2.52188 0
M  V30 3847 H 364.285 -0.578987 -5.04589 0
M  V30 3848 H 364.215 1.19928 -5.12762 0
M  V30 3849 H 366.706 0.462729 -3.75056 0
M  V30 3850 H 367.019 0.322592 -7.72126 0
M  V30 3851 H 365.364 0.29706 -6.94365 0
M  V30 3852 H 368.555 0.489464 -4.65534 0
M  V30 3853 H 368.728 0.425788 -6.466 0
M  V30 3854 N 362.134 1.5431 0.320358 0
M  V30 3855 C 363.545 1.63872 0.894594 0
M  V30 3856 C 363.896 0.534847 1.88769 0
M  V30 3857 O 363.021 -0.331732 2.13842 0
M  V30 3858 C 363.616 2.97049 1.62934 0
M  V30 3859 C 362.175 3.08796 2.15226 0
M  V30 3860 C 361.322 2.59456 0.978671 0
M  V30 3861 H 364.273 1.58398 0.0978544 0
M  V30 3862 H 364.294 2.87388 2.49376 0
M  V30 3863 H 363.806 3.7737 0.906302 0
M  V30 3864 H 361.907 2.33156 2.90636 0
M  V30 3865 H 362.02 4.14649 2.40006 0
M  V30 3866 H 360.384 2.1543 1.35875 0
M  V30 3867 H 361.167 3.42237 0.269895 0
M  V30 3868 N 363.613 -0.582584 1.46437 0
M  V30 3869 C 365.024 -1.1647 1.45916 0
M  V30 3870 C 365.375 -1.95177 0.200077 0
M  V30 3871 O 364.5 -2.04874 -0.696819 0
M  V30 3872 C 365.095 -2.11885 2.64367 0
M  V30 3873 C 363.654 -2.65421 2.66887 0
M  V30 3874 C 362.801 -1.41294 2.38603 0
M  V30 3875 H 365.752 -0.370514 1.54314 0
M  V30 3876 H 365.773 -2.9535 2.39892 0
M  V30 3877 H 365.285 -1.54573 3.5599 0
M  V30 3878 H 363.386 -3.26602 1.79338 0
M  V30 3879 H 363.499 -3.08147 3.66854 0
M  V30 3880 H 361.863 -1.71109 1.88663 0
M  V30 3881 H 362.646 -0.858125 3.32402 0
M  V30 3882 N 365.091 -1.34144 -0.827227 0
M  V30 3883 C 366.023 -1.21206 -1.9453 0
M  V30 3884 C 367.036 -0.140176 -1.62195 0
M  V30 3885 O 368.225 -0.391647 -1.7415 0
M  V30 3886 C 365.325 -0.839141 -3.28347 0
M  V30 3887 C 364.498 -2.0051 -3.88734 0
M  V30 3888 C 363.557 -1.61128 -5.00923 0
M  V30 3889 O 362.583 -2.32726 -5.19449 0
M  V30 3890 N 363.785 -0.522958 -5.7814 0
M  V30 3891 H 366.55 -2.17525 -2.06162 0
M  V30 3892 H 364.111 -1.27043 -1.00358 0
M  V30 3893 H 366.103 -0.557556 -4.00841 0
M  V30 3894 H 364.673 0.0337293 -3.12582 0
M  V30 3895 H 363.893 -2.45166 -3.08686 0
M  V30 3896 H 365.181 -2.78498 -4.25812 0
M  V30 3897 H 364.579 0.0723518 -5.65654 0
M  V30 3898 H 363.136 -0.301089 -6.51104 0
M  V30 3899 N 366.569 1.04691 -1.17803 0
M  V30 3900 C 367.98 1.59238 -0.974689 0
M  V30 3901 C 368.331 1.90306 0.477292 0
M  V30 3902 O 367.456 1.68846 1.35352 0
M  V30 3903 C 368.051 2.89318 -1.76296 0
M  V30 3904 C 366.61 3.40506 -1.60414 0
M  V30 3905 C 365.757 2.14172 -1.76141 0
M  V30 3906 H 368.708 0.874395 -1.32439 0
M  V30 3907 H 368.729 3.5944 -1.24833 0
M  V30 3908 H 368.241 2.66675 -2.81968 0
M  V30 3909 H 366.342 3.68175 -0.572519 0
M  V30 3910 H 366.455 4.14753 -2.39827 0
M  V30 3911 H 364.819 2.25176 -1.19028 0
M  V30 3912 H 365.602 1.93992 -2.83235 0
M  V30 3913 N 368.047 0.979072 1.23499 0
M  V30 3914 C 369.296 0.642751 1.91185 0
M  V30 3915 C 369.609 -0.827253 1.77245 0
M  V30 3916 O 370.815 -1.27458 2.39722 0
M  V30 3917 C 369.271 1.09901 3.42709 0
M  V30 3918 C 368.879 2.59327 3.65313 0
M  V30 3919 C 370.623 0.836371 4.16179 0
M  V30 3920 C 368.53 2.98627 5.10467 0
M  V30 3921 H 367.46 0.236698 0.715884 0
M  V30 3922 H 370.111 1.1868 1.39955 0
M  V30 3923 H 368.493 0.48319 3.93041 0
M  V30 3924 H 369.667 3.26136 3.25533 0
M  V30 3925 H 367.982 2.83323 3.05151 0
M  V30 3926 H 370.579 1.10586 5.23139 0
M  V30 3927 H 370.922 -0.227509 4.15678 0
M  V30 3928 H 371.455 1.41371 3.71832 0
M  V30 3929 H 368.194 4.04133 5.16098 0
M  V30 3930 H 367.714 2.3651 5.51201 0
M  V30 3931 H 369.393 2.89159 5.78788 0
M  V30 3932 N 369.525 -1.3858 0.750561 0
M  V30 3933 C 370.473 -2.32339 0.110162 0
M  V30 3934 C 371.467 -1.53864 -0.708674 0
M  V30 3935 O 372.673 -1.69417 -0.608112 0
M  V30 3936 H 369.048 -0.751812 0.0168275 0
M  V30 3937 H 371.019 -2.83959 0.917053 0
M  V30 3938 C 369.768 -3.39043 -0.771067 0
M  V30 3939 H 369.091 -3.99517 -0.150374 0
M  V30 3940 H 370.531 -4.07061 -1.1865 0
M  V30 3941 C 368.99 -2.77365 -1.91234 0
M  V30 3942 O 369.52 -2.66434 -3.00626 0
M  V30 3943 N 367.726 -2.35219 -1.70646 0
M  V30 3944 H 367.273 -2.4431 -0.81673 0
M  V30 3945 H 367.231 -1.94294 -2.47178 0
M  V30 3946 N 371.003 -0.499398 -1.49478 0
M  V30 3947 C 371.951 0.293604 -2.3074 0
M  V30 3948 C 372.945 0.96427 -1.39277 0
M  V30 3949 O 374.151 0.892141 -1.56336 0
M  V30 3950 H 370.526 0.113541 -0.743379 0
M  V30 3951 H 372.497 -0.411772 -2.95545 0
M  V30 3952 C 371.246 1.3462 -3.20582 0
M  V30 3953 H 370.569 0.83954 -3.90886 0
M  V30 3954 H 372.009 1.87308 -3.80384 0
M  V30 3955 C 370.468 2.36351 -2.40083 0
M  V30 3956 O 370.998 3.422 -2.10385 0
M  V30 3957 N 369.204 2.0878 -2.02137 0
M  V30 3958 H 368.751 1.22723 -2.26488 0
M  V30 3959 H 368.709 2.77075 -1.48583 0
M  V30 3960 N 372.481 1.55866 -0.233164 0
M  V30 3961 C 373.897 1.59133 0.121988 0
M  V30 3962 C 374.097 1.25016 1.58029 0
M  V30 3963 O 373.153 0.990922 2.32243 0
M  V30 3964 C 374.466 2.99932 -0.214792 0
M  V30 3965 C 376.014 3.12601 -0.157971 0
M  V30 3966 C 376.489 4.55597 -0.46859 0
M  V30 3967 N 377.98 4.61305 -0.418585 0
M  V30 3968 C 378.715 5.69903 -0.63227 0
M  V30 3969 N 378.211 6.86819 -0.90835 0
M  V30 3970 N 380.004 5.59264 -0.563913 0
M  V30 3971 H 372.155 1.76315 -1.18434 0
M  V30 3972 H 374.418 0.820093 -0.475553 0
M  V30 3973 H 374.124 3.29588 -1.22739 0
M  V30 3974 H 373.998 3.74327 0.464691 0
M  V30 3975 H 376.385 2.82735 0.845283 0
M  V30 3976 H 376.466 2.40511 -0.871102 0
M  V30 3977 H 376.11 4.86182 -1.46934 0
M  V30 3978 H 376.04 5.25928 0.265865 0
M  V30 3979 H 378.531 3.77297 -0.213368 0
M  V30 3980 H 378.844 7.65507 -1.05919 0
M  V30 3981 H 377.189 6.88536 -0.945673 0
M  V30 3982 H 380.38 4.66802 -0.348372 0
M  V30 3983 H 380.553 6.43831 -0.733847 0
M  V30 3984 N 373.959 -0.0401083 1.57549 0
M  V30 3985 C 375.205 -0.734211 1.89043 0
M  V30 3986 C 375.538 -1.75591 0.829535 0
M  V30 3987 O 374.813 -1.93868 -0.156706 0
M  V30 3988 C 375.096 -1.41374 3.31188 0
M  V30 3989 C 374.949 -0.406299 4.47961 0
M  V30 3990 C 376.268 -2.35061 3.72068 0
M  V30 3991 H 373.387 -0.265447 0.687537 0
M  V30 3992 H 376.029 0.00294087 1.9 0
M  V30 3993 H 374.179 -2.04206 3.30503 0
M  V30 3994 H 375.851 0.219255 4.60779 0
M  V30 3995 H 374.094 0.275485 4.32924 0
M  V30 3996 H 374.765 -0.920022 5.44279 0
M  V30 3997 H 377.241 -1.82282 3.74049 0
M  V30 3998 H 376.117 -2.79593 4.72355 0
M  V30 3999 H 376.378 -3.21258 3.0372 0
M  V30 4000 N 375.437 -1.54477 -0.31217 0
M  V30 4001 C 376.683 -1.73483 -1.0503 0
M  V30 4002 C 377.016 -0.513125 -1.87298 0
M  V30 4003 O 376.291 0.489864 -1.8823 0
M  V30 4004 C 376.574 -3.01723 -1.96558 0
M  V30 4005 C 376.427 -4.3417 -1.17545 0
M  V30 4006 C 377.746 -3.25772 -2.95907 0
M  V30 4007 H 374.865 -0.631222 -0.380432 0
M  V30 4008 H 377.507 -1.87184 -0.325932 0
M  V30 4009 H 375.657 -2.90174 -2.58324 0
M  V30 4010 H 377.329 -4.5762 -0.581513 0
M  V30 4011 H 375.572 -4.31159 -0.477925 0
M  V30 4012 H 376.243 -5.20143 -1.84811 0
M  V30 4013 H 378.719 -3.36857 -2.44267 0
M  V30 4014 H 377.595 -4.16838 -3.57123 0
M  V30 4015 H 377.856 -2.43537 -3.68974 0
M  V30 4016 N 376.915 0.57481 -1.46744 0
M  V30 4017 C 378.331 0.898981 -1.31873 0
M  V30 4018 C 378.531 1.99313 -0.29605 0
M  V30 4019 O 377.587 2.50728 0.298621 0
M  V30 4020 C 378.9 1.30886 -2.7072 0
M  V30 4021 C 380.448 1.42127 -2.78871 0
M  V30 4022 C 380.923 1.86478 -4.18318 0
M  V30 4023 N 382.414 1.93658 -4.20774 0
M  V30 4024 C 383.149 2.29267 -5.2557 0
M  V30 4025 N 382.645 2.63612 -6.40688 0
M  V30 4026 N 384.438 2.29889 -5.1294 0
M  V30 4027 H 376.589 -0.147839 -2.11885 0
M  V30 4028 H 378.852 -0.00347013 -0.947994 0
M  V30 4029 H 378.558 0.578853 -3.46904 0
M  V30 4030 H 378.432 2.26874 -3.01343 0
M  V30 4031 H 380.819 2.14213 -2.0297 0
M  V30 4032 H 380.9 0.443705 -2.51922 0
M  V30 4033 H 380.544 1.14968 -4.94717 0
M  V30 4034 H 380.474 2.85207 -4.42679 0
M  V30 4035 H 382.965 1.69574 -3.37718 0
M  V30 4036 H 383.278 2.89759 -7.16421 0
M  V30 4037 H 381.623 2.61232 -6.44036 0
M  V30 4038 H 384.814 2.02485 -4.22039 0
M  V30 4039 H 384.987 2.57312 -5.94722 0
M  V30 4040 N 378.394 1.34581 0.820102 0
M  V30 4041 C 379.357 1.2628 1.91275 0
M  V30 4042 C 380.357 0.177344 1.59819 0
M  V30 4043 O 381.547 0.430156 1.68806 0
M  V30 4044 C 378.679 0.950327 3.27386 0
M  V30 4045 H 379.872 2.23421 2.00057 0
M  V30 4046 H 377.425 1.1891 1.0144 0
M  V30 4047 H 378.16 -0.0177938 3.24295 0
M  V30 4048 H 377.945 1.73549 3.51601 0
M  V30 4049 H 379.435 0.917492 4.07396 0
M  V30 4050 N 379.872 -1.04064 1.18357 0
M  V30 4051 C 381.097 -1.81454 1.00445 0
M  V30 4052 C 381.522 -1.82823 -0.442423 0
M  V30 4053 O 380.88 -1.24555 -1.31741 0
M  V30 4054 C 380.928 -3.24925 1.56384 0
M  V30 4055 O 380.032 -4.04856 0.785209 0
M  V30 4056 H 379.373 -0.560604 0.355835 0
M  V30 4057 H 381.903 -1.31059 1.57114 0
M  V30 4058 H 381.913 -3.75702 1.59097 0
M  V30 4059 H 380.588 -3.23244 2.61699 0
M  V30 4060 H 379.165 -3.63537 0.830399 0
M  V30 4061 N 381.35 -0.985608 -1.22978 0
M  V30 4062 C 382.597 -0.657386 -1.91532 0
M  V30 4063 C 382.925 0.809707 -1.76845 0
M  V30 4064 O 382.18 1.60021 -1.12658 0
M  V30 4065 C 382.479 -1.00014 -3.43121 0
M  V30 4066 C 382.145 -2.4583 -3.77993 0
M  V30 4067 C 380.807 -2.85679 -3.87222 0
M  V30 4068 C 383.159 -3.40378 -3.94705 0
M  V30 4069 C 380.487 -4.19081 -4.10595 0
M  V30 4070 C 382.839 -4.73429 -4.1958 0
M  V30 4071 C 381.503 -5.1303 -4.27032 0
M  V30 4072 H 380.773 -0.240555 -0.700867 0
M  V30 4073 H 383.42 -1.24044 -1.45895 0
M  V30 4074 H 381.725 -0.335072 -3.90365 0
M  V30 4075 H 383.422 -0.724322 -3.94404 0
M  V30 4076 H 380.012 -2.13939 -3.71387 0
M  V30 4077 H 384.196 -3.10766 -3.8696 0
M  V30 4078 H 379.452 -4.49362 -4.14589 0
M  V30 4079 H 383.626 -5.46644 -4.31455 0
M  V30 4080 H 381.253 -6.16418 -4.44896 0
M  V30 4081 N 382.828 1.3818 -0.7579 0
M  V30 4082 C 383.775 2.30416 -0.133057 0
M  V30 4083 C 384.745 1.50398 0.704957 0
M  V30 4084 O 385.93 1.79014 0.660192 0
M  V30 4085 C 383.07 3.36834 0.750813 0
M  V30 4086 C 382.183 4.31879 -0.102297 0
M  V30 4087 C 381.318 5.25368 0.784979 0
M  V30 4088 C 380.357 6.12058 -0.0715046 0
M  V30 4089 N 379.494 6.97832 0.772972 0
M  V30 4090 H 384.334 2.83274 -0.925186 0
M  V30 4091 H 381.871 1.39461 -0.467866 0
M  V30 4092 H 383.829 3.97145 1.27794 0
M  V30 4093 H 382.459 2.85374 1.50868 0
M  V30 4094 H 381.511 3.72991 -0.747095 0
M  V30 4095 H 382.823 4.92921 -0.763552 0
M  V30 4096 H 381.977 5.90818 1.37911 0
M  V30 4097 H 380.716 4.64703 1.47996 0
M  V30 4098 H 379.721 5.456 -0.678272 0
M  V30 4099 H 380.946 6.74793 -0.763606 0
M  V30 4100 H 378.892 6.3971 1.45282 0
M  V30 4101 H 378.809 7.55812 0.168709 0
M  V30 4102 H 380.077 7.67687 1.35194 0
M  V30 4103 O 384.345 0.648902 1.4789 0
M  V30 4104 H 385.036 0.173089 1.92925 0
M  V30 END ATOM
M  V30 BEGIN BOND
M  V30 END BOND
M  V30 END CTAB
M  END
$$$$
