drugbank_target|P17584 D-2-hydroxyisocaproate dehydrogenase (DB03229)
 OpenBabel12092120013D

  0  0  0     0  0            999 V3000
M  V30 BEGIN CTAB
M  V30 COUNTS 5162 5222 0 0 0
M  V30 BEGIN ATOM
M  V30 1 H -0.908 1.98254 -0.117106 0
M  V30 2 N 0 1.576 0 0
M  V30 3 C 0.933 2.03868 1.02534 0
M  V30 4 C 1.911 0.928543 1.3348 0
M  V30 5 O 3.095 1.19667 1.45644 0
M  V30 6 C 0.222 2.43627 2.35294 0
M  V30 7 C -0.732 3.65373 2.2001 0
M  V30 8 S 0.101 5.13292 1.52614 0
M  V30 9 C 1.257 5.56322 2.86805 0
M  V30 10 H 1.49 2.90518 0.631377 0
M  V30 11 H -0.977 1.52953 0.210867 0
M  V30 12 H 0.981 2.67203 3.11629 0
M  V30 13 H -0.358 1.57376 2.7183 0
M  V30 14 H -1.165 3.90944 3.18086 0
M  V30 15 H -1.563 3.418 1.51819 0
M  V30 16 H 0.729 5.58782 3.83104 0
M  V30 17 H 1.672 6.56266 2.65933 0
M  V30 18 H 2.08 4.83886 2.90714 0
M  V30 19 N 1.4781 -0.272755 1.55222 0
M  V30 20 C 2.4251 -1.33716 1.88119 0
M  V30 21 C 3.3951 -1.49066 0.73271 0
M  V30 22 O 4.5801 -1.63469 0.984002 0
M  V30 23 C 1.7201 -2.69238 2.15882 0
M  V30 24 C 0.8331 -2.62108 3.43399 0
M  V30 25 C -0.0319 -3.89811 3.60861 0
M  V30 26 C -0.9929 -3.77193 4.8207 0
M  V30 27 N -1.8559 -4.9673 4.96189 0
M  V30 28 H 2.9841 -1.04962 2.78903 0
M  V30 29 H 0.5211 -0.507088 1.38083 0
M  V30 30 H 2.4791 -3.48089 2.29978 0
M  V30 31 H 1.1091 -2.96194 1.28331 0
M  V30 32 H 0.1611 -1.74967 3.37773 0
M  V30 33 H 1.4731 -2.48685 4.32386 0
M  V30 34 H 0.6271 -4.77103 3.74777 0
M  V30 35 H -0.6339 -4.06102 2.7006 0
M  V30 36 H -1.6289 -2.88284 4.68159 0
M  V30 37 H -0.4039 -3.62421 5.74307 0
M  V30 38 H -2.4579 -5.13431 4.08319 0
M  V30 39 H -2.5409 -4.85839 5.79221 0
M  V30 40 H -1.2729 -5.85594 5.1449 0
M  V30 41 N 2.9562 -1.48159 -0.537278 0
M  V30 42 C 4.2052 -1.5506 -1.28993 0
M  V30 43 C 4.5182 -0.226211 -1.94288 0
M  V30 44 O 5.7242 -0.173395 -2.70946 0
M  V30 45 C 4.1802 -2.73429 -2.34018 0
M  V30 46 C 3.7882 -4.1248 -1.74825 0
M  V30 47 C 5.5322 -2.89638 -3.10339 0
M  V30 48 C 3.4392 -5.22121 -2.77747 0
M  V30 49 H 2.3692 -0.577231 -0.485098 0
M  V30 50 H 5.0202 -1.74478 -0.568317 0
M  V30 51 H 3.4022 -2.47431 -3.09182 0
M  V30 52 H 4.5762 -4.48466 -1.05899 0
M  V30 53 H 2.8912 -4.01327 -1.11022 0
M  V30 54 H 5.4882 -3.68718 -3.87235 0
M  V30 55 H 5.8312 -1.9882 -3.65754 0
M  V30 56 H 6.3642 -3.15502 -2.42288 0
M  V30 57 H 3.1032 -6.1488 -2.27161 0
M  V30 58 H 2.6232 -4.90631 -3.45024 0
M  V30 59 H 4.3022 -5.49924 -3.4087 0
M  V30 60 N 4.4343 0.785586 -1.36625 0
M  V30 61 C 5.6833 1.53883 -1.30396 0
M  V30 62 C 5.9963 1.95271 0.113452 0
M  V30 63 O 7.2023 2.69858 0.298142 0
M  V30 64 C 5.6583 2.77808 -2.28802 0
M  V30 65 C 5.2663 2.43574 -3.75999 0
M  V30 66 C 7.0103 3.55783 -2.31558 0
M  V30 67 C 4.9173 3.63919 -4.66173 0
M  V30 68 H 3.8473 0.577678 -0.484566 0
M  V30 69 H 6.4983 0.861705 -1.62009 0
M  V30 70 H 4.8803 3.47339 -1.90188 0
M  V30 71 H 6.0543 1.81916 -4.23371 0
M  V30 72 H 4.3693 1.78803 -3.76056 0
M  V30 73 H 6.9663 4.45205 -2.96137 0
M  V30 74 H 7.3093 3.94644 -1.3252 0
M  V30 75 H 7.8423 2.93235 -2.68809 0
M  V30 76 H 4.5813 3.3015 -5.66287 0
M  V30 77 H 4.1013 4.2473 -4.23515 0
M  V30 78 H 5.7803 4.30901 -4.82632 0
M  V30 79 N 5.9124 1.20967 1.01018 0
M  V30 80 C 6.8754 0.965918 2.07853 0
M  V30 81 C 7.8754 -0.0610545 1.60684 0
M  V30 82 O 9.0654 0.175681 1.73312 0
M  V30 83 C 6.1974 0.455513 3.37843 0
M  V30 84 H 7.3904 1.91365 2.3091 0
M  V30 85 H 4.9434 1.02594 1.17916 0
M  V30 86 H 5.6784 -0.497381 3.20463 0
M  V30 87 H 5.4634 1.19622 3.73407 0
M  V30 88 H 6.9534 0.304667 4.16487 0
M  V30 89 N 7.3905 -1.2043 1.01659 0
M  V30 90 C 8.6205 -1.93496 0.724081 0
M  V30 91 C 9.0285 -1.74998 -0.71918 0
M  V30 92 O 8.3715 -1.06118 -1.49949 0
M  V30 93 C 8.4335 -3.45886 0.97994 0
M  V30 94 C 8.0975 -3.88145 2.41232 0
M  V30 95 C 9.0945 -3.93907 3.39313 0
M  V30 96 C 6.7795 -4.20134 2.75305 0
M  V30 97 C 8.7735 -4.31069 4.6953 0
M  V30 98 C 6.4605 -4.56971 4.05735 0
M  V30 99 C 7.4585 -4.62411 5.02658 0
M  V30 100 O 7.1465 -4.98403 6.30754 0
M  V30 101 H 6.8785 -0.621824 0.265162 0
M  V30 102 H 9.4325 -1.53867 1.36066 0
M  V30 103 H 7.6625 -3.85639 0.286198 0
M  V30 104 H 9.3515 -4.0018 0.679021 0
M  V30 105 H 10.1175 -3.69357 3.14325 0
M  V30 106 H 5.9965 -4.1509 2.00551 0
M  V30 107 H 9.5405 -4.3523 5.45179 0
M  V30 108 H 5.4375 -4.80977 4.30502 0
M  V30 109 H 6.2055 -5.16395 6.35042 0
M  V30 110 N 8.8686 -0.792821 -1.36206 0
M  V30 111 C 10.1166 -0.366062 -1.98757 0
M  V30 112 C 10.4376 1.0668 -1.63231 0
M  V30 113 O 9.7076 1.73587 -0.907978 0
M  V30 114 H 8.2876 -0.132364 -0.735179 0
M  V30 115 H 10.9496 -1.01562 -1.66347 0
M  V30 116 H 10.0456 -0.460638 -3.08682 0
M  V30 117 N 10.3467 1.47872 -0.545128 0
M  V30 118 C 11.3097 2.28337 0.198717 0
M  V30 119 C 12.3097 1.36255 0.853888 0
M  V30 120 O 13.4997 1.59003 0.711606 0
M  V30 121 C 10.6317 3.15585 1.28915 0
M  V30 122 H 11.8247 2.95567 -0.507941 0
M  V30 123 H 9.3777 1.53362 -0.301616 0
M  V30 124 H 10.1127 2.53019 2.02859 0
M  V30 125 H 9.8977 3.83337 0.824309 0
M  V30 126 H 11.3877 3.76243 1.81194 0
M  V30 127 N 11.8248 0.280983 1.55075 0
M  V30 128 C 13.2408 -0.0729964 1.59433 0
M  V30 129 C 13.4408 -1.5411 1.29817 0
M  V30 130 O 12.4968 -2.29086 1.06187 0
M  V30 131 C 13.8098 0.306921 2.9913 0
M  V30 132 C 15.3578 0.254023 3.11968 0
M  V30 133 C 15.8328 0.608467 4.5394 0
M  V30 134 N 17.3238 0.560241 4.59799 0
M  V30 135 C 18.0588 0.80722 5.6769 0
M  V30 136 N 17.5548 1.11912 6.83701 0
M  V30 137 N 19.3478 0.735623 5.57266 0
M  V30 138 H 11.4988 1.238 1.7259 0
M  V30 139 H 13.7618 0.500547 0.805082 0
M  V30 140 H 13.4678 1.32816 3.25657 0
M  V30 141 H 13.3418 -0.349363 3.75579 0
M  V30 142 H 15.7288 -0.75794 2.852 0
M  V30 143 H 15.8098 0.944649 2.37718 0
M  V30 144 H 15.4538 1.61814 4.81434 0
M  V30 145 H 15.3838 -0.104013 5.26497 0
M  V30 146 H 17.8748 0.329288 3.76463 0
M  V30 147 H 18.1878 1.29409 7.61888 0
M  V30 148 H 16.5328 1.15695 6.85303 0
M  V30 149 H 19.7238 0.491752 4.6551 0
M  V30 150 H 19.8968 0.931482 6.4127 0
M  V30 151 N 13.3029 -1.57598 0.00835791 0
M  V30 152 C 14.5489 -1.91211 -0.675732 0
M  V30 153 C 14.8819 -0.883139 -1.72958 0
M  V30 154 O 14.1569 0.097016 -1.94258 0
M  V30 155 C 14.4399 -3.35379 -1.31123 0
M  V30 156 C 14.2929 -4.48999 -0.268356 0
M  V30 157 C 15.6119 -3.7912 -2.23508 0
M  V30 158 H 12.7309 -0.695374 -0.244179 0
M  V30 159 H 15.3729 -1.89901 0.0613655 0
M  V30 160 H 13.5229 -3.36626 -1.93946 0
M  V30 161 H 15.1949 -4.59887 0.360844 0
M  V30 162 H 13.4379 -4.31873 0.408482 0
M  V30 163 H 14.1089 -5.46851 -0.752218 0
M  V30 164 H 16.5849 -3.79477 -1.70693 0
M  V30 165 H 15.4609 -4.80729 -2.64936 0
M  V30 166 H 15.7219 -3.13455 -3.11766 0
M  V30 167 N 14.781 0.264519 -1.55364 0
M  V30 168 C 16.058 1.01677 -1.67096 0
M  V30 169 C 16.438 2.03996 -0.543015 0
M  V30 170 O 15.786 2.23907 0.45585 0
M  V30 171 C 15.996 1.66596 -3.0667 0
M  V30 172 C 17.344 2.17442 -3.64697 0
M  V30 173 O 18.368 1.76568 -3.09358 0
M  V30 174 O 17.227 2.92439 -4.61673 0
M  V30 175 H 14.321 0.472161 -0.678965 0
M  V30 176 H 16.867 0.259703 -1.67701 0
M  V30 177 H 15.639 0.924962 -3.80211 0
M  V30 178 H 15.262 2.48968 -3.10001 0
M  V30 179 N 16.2591 1.48442 0.529413 0
M  V30 180 C 17.1691 1.6569 1.66084 0
M  V30 181 C 18.1851 0.539432 1.65427 0
M  V30 182 O 19.3611 0.810572 1.84368 0
M  V30 183 C 16.4261 1.69315 3.02545 0
M  V30 184 C 15.4871 2.92694 3.14052 0
M  V30 185 C 14.7201 2.96137 4.44003 0
M  V30 186 O 14.9431 2.07973 5.31134 0
M  V30 187 O 13.8771 3.88312 4.59888 0
M  V30 188 H 17.7031 2.61483 1.54469 0
M  V30 189 H 15.2881 1.3185 0.702567 0
M  V30 190 H 17.1701 1.74217 3.83701 0
M  V30 191 H 15.8451 0.766966 3.14483 0
M  V30 192 H 14.7521 2.93324 2.32189 0
M  V30 193 H 16.0851 3.84699 3.0703 0
M  V30 194 N 17.7372 -0.778329 1.37039 0
M  V30 195 C 18.9862 -1.53189 1.3121 0
M  V30 196 C 19.2992 -1.95328 -0.103095 0
M  V30 197 O 20.5052 -2.70012 -0.283826 0
M  V30 198 C 18.9612 -2.76591 2.30272 0
M  V30 199 C 18.5692 -2.41577 3.77286 0
M  V30 200 C 20.3132 -3.5455 2.33441 0
M  V30 201 C 18.2202 -3.61441 4.68096 0
M  V30 202 H 17.1502 -0.5751 0.487622 0
M  V30 203 H 19.8012 -0.853101 1.62464 0
M  V30 204 H 18.1832 -3.46326 1.92027 0
M  V30 205 H 19.3572 -1.79668 4.2433 0
M  V30 206 H 17.6722 -1.76806 3.76999 0
M  V30 207 H 20.2692 -4.43628 2.98493 0
M  V30 208 H 20.6122 -3.93936 1.34611 0
M  V30 209 H 21.1452 -2.91805 2.7036 0
M  V30 210 H 17.8842 -3.27142 5.6803 0
M  V30 211 H 17.4042 -4.22478 4.25761 0
M  V30 212 H 19.0832 -4.28335 4.8491 0
M  V30 213 N 19.2153 -1.21501 -1.00376 0
M  V30 214 C 20.1473 -0.933174 -2.09343 0
M  V30 215 C 21.1603 0.0840896 -1.62583 0
M  V30 216 O 22.3493 -0.148563 -1.77881 0
M  V30 217 C 19.4493 -0.379869 -3.36764 0
M  V30 218 C 18.6223 -1.45176 -4.12605 0
M  V30 219 C 17.6813 -0.907476 -5.18316 0
M  V30 220 O 16.7073 -1.5912 -5.46507 0
M  V30 221 N 17.9093 0.276649 -5.7984 0
M  V30 222 H 20.6743 -1.87124 -2.34104 0
M  V30 223 H 18.2353 -1.12043 -1.16867 0
M  V30 224 H 20.2273 -0.00131488 -4.047 0
M  V30 225 H 18.7973 0.463048 -3.09151 0
M  V30 226 H 18.0173 -2.00411 -3.39454 0
M  V30 227 H 19.3053 -2.17328 -4.6005 0
M  V30 228 H 18.7033 0.849147 -5.59291 0
M  V30 229 H 17.2603 0.596702 -6.49063 0
M  V30 230 N 20.6934 1.19889 -1.02296 0
M  V30 231 C 21.9234 1.93109 -0.734332 0
M  V30 232 C 22.3314 1.75377 0.709889 0
M  V30 233 O 21.6744 1.06912 1.49384 0
M  V30 234 C 21.7364 3.45362 -0.99827 0
M  V30 235 C 21.4004 3.8686 -2.43287 0
M  V30 236 C 22.3974 3.92102 -3.41397 0
M  V30 237 C 20.0824 4.18668 -2.77529 0
M  V30 238 C 22.0764 4.28573 -4.71809 0
M  V30 239 C 19.7634 4.54813 -4.08153 0
M  V30 240 C 20.7614 4.59739 -5.05103 0
M  V30 241 O 20.4494 4.95051 -6.33388 0
M  V30 242 H 20.1814 0.620409 -0.268456 0
M  V30 243 H 22.7354 1.53144 -1.3688 0
M  V30 244 H 20.9654 3.85482 -0.306645 0
M  V30 245 H 22.6544 3.99814 -0.700234 0
M  V30 246 H 23.4204 3.67685 -3.1628 0
M  V30 247 H 19.2994 4.14021 -2.0275 0
M  V30 248 H 22.8434 4.32333 -5.4748 0
M  V30 249 H 18.7404 4.78687 -4.33047 0
M  V30 250 H 19.5084 5.1302 -6.37772 0
M  V30 251 N 22.1715 0.800033 1.35784 0
M  V30 252 C 23.4185 0.377342 1.98953 0
M  V30 253 C 23.7465 -1.05378 1.6348 0
M  V30 254 O 23.0015 -1.74459 0.886707 0
M  V30 255 C 23.3005 0.500276 3.53881 0
M  V30 256 C 22.9665 1.89375 4.09204 0
M  V30 257 C 21.6285 2.27499 4.24025 0
M  V30 258 C 23.9805 2.8057 4.39238 0
M  V30 259 C 21.3085 3.562 4.66195 0
M  V30 260 C 23.6605 4.0871 4.82844 0
M  V30 261 C 22.3245 4.46843 4.95871 0
M  V30 262 H 21.5945 0.138079 0.728021 0
M  V30 263 H 24.2415 1.01955 1.62103 0
M  V30 264 H 22.5465 -0.225405 3.91151 0
M  V30 265 H 24.2435 0.154097 4.00704 0
M  V30 266 H 20.8335 1.58753 3.98115 0
M  V30 267 H 25.0175 2.52367 4.27346 0
M  V30 268 H 20.2735 3.85602 4.74469 0
M  V30 269 H 24.4475 4.79481 5.05046 0
M  V30 270 H 22.0745 5.46623 5.28306 0
M  V30 271 N 23.6496 -1.47581 0.552962 0
M  V30 272 C 24.5966 -2.29957 -0.197108 0
M  V30 273 C 25.5666 -1.38799 -0.912359 0
M  V30 274 O 26.7516 -1.67761 -0.908888 0
M  V30 275 C 23.8916 -3.22672 -1.22379 0
M  V30 276 C 23.0046 -4.28919 -0.515038 0
M  V30 277 C 22.1396 -5.0879 -1.52664 0
M  V30 278 C 21.1786 -6.06815 -0.802631 0
M  V30 279 N 20.3156 -6.7966 -1.76086 0
M  V30 280 H 25.1556 -2.93578 0.511486 0
M  V30 281 H 22.6926 -1.4471 0.264067 0
M  V30 282 H 24.6506 -3.74845 -1.83159 0
M  V30 283 H 23.2806 -2.60925 -1.90047 0
M  V30 284 H 22.3326 -3.79835 0.207192 0
M  V30 285 H 23.6446 -4.98773 0.0523425 0
M  V30 286 H 22.7986 -5.65091 -2.20809 0
M  V30 287 H 21.5376 -4.38828 -2.12794 0
M  V30 288 H 20.5426 -5.49695 -0.107238 0
M  V30 289 H 21.7676 -6.78784 -0.207135 0
M  V30 290 H 19.7136 -6.12432 -2.35081 0
M  V30 291 H 19.6306 -7.45669 -1.24552 0
M  V30 292 H 20.8986 -7.40538 -2.43359 0
M  V30 293 N 25.1277 -0.289203 -1.54924 0
M  V30 294 C 26.0597 0.625583 -2.20497 0
M  V30 295 C 27.0727 1.10667 -1.19402 0
M  V30 296 O 28.2617 1.02615 -1.46056 0
M  V30 297 C 25.3617 1.86702 -2.82835 0
M  V30 298 C 24.5347 1.5304 -4.09753 0
M  V30 299 C 23.5937 2.62576 -4.56005 0
M  V30 300 O 22.6197 2.28167 -5.21468 0
M  V30 301 N 23.8217 3.92901 -4.27328 0
M  V30 302 H 26.5867 0.0642801 -2.99631 0
M  V30 303 H 24.1477 -0.110896 -1.6152 0
M  V30 304 H 26.1397 2.59304 -3.10715 0
M  V30 305 H 24.7097 2.33702 -2.07611 0
M  V30 306 H 23.9297 0.637564 -3.8901 0
M  V30 307 H 25.2177 1.28072 -4.92418 0
M  V30 308 H 24.6157 4.23671 -3.74859 0
M  V30 309 H 23.1727 4.61837 -4.59946 0
M  V30 310 N 26.6058 1.57591 -0.0167156 0
M  V30 311 C 27.8518 1.92399 0.659861 0
M  V30 312 C 28.2068 0.892561 1.70444 0
M  V30 313 O 27.4998 -0.0930755 1.91374 0
M  V30 314 C 27.6938 3.3172 1.33029 0
M  V30 315 C 27.5228 4.48319 0.352174 0
M  V30 316 C 26.2928 5.05281 -0.0434883 0
M  V30 317 C 28.4908 5.12831 -0.388474 0
M  V30 318 N 26.4728 6.05399 -1.01807 0
M  V30 319 C 27.8438 6.07934 -1.2172 0
M  V30 320 C 29.8988 4.95858 -0.450513 0
M  V30 321 C 28.6018 6.87891 -2.10235 0
M  V30 322 C 30.6278 5.76413 -1.32295 0
M  V30 323 C 29.9898 6.71123 -2.13948 0
M  V30 324 H 26.0888 0.752106 0.21415 0
M  V30 325 H 28.6728 1.94532 -0.0809846 0
M  V30 326 H 26.8438 3.3043 2.04134 0
M  V30 327 H 28.5758 3.5391 1.9629 0
M  V30 328 H 25.3308 4.7246 0.328384 0
M  V30 329 H 25.7548 6.60145 -1.50123 0
M  V30 330 H 30.3968 4.22472 0.166512 0
M  V30 331 H 28.1148 7.60591 -2.72997 0
M  V30 332 H 31.7008 5.65317 -1.37508 0
M  V30 333 H 30.5808 7.3237 -2.80364 0
M  V30 334 N 28.0839 -0.256276 1.55502 0
M  V30 335 C 29.0469 -1.30047 1.88734 0
M  V30 336 C 30.0469 -1.4154 0.763086 0
M  V30 337 O 31.2369 -1.40403 1.03115 0
M  V30 338 C 28.3689 -2.67953 2.10747 0
M  V30 339 H 29.5619 -1.01802 2.82093 0
M  V30 340 H 27.1149 -0.495134 1.4825 0
M  V30 341 H 27.8499 -3.01351 1.19825 0
M  V30 342 H 27.6349 -2.60993 2.92617 0
M  V30 343 H 29.1249 -3.43368 2.37673 0
M  V30 344 N 29.562 -1.4872 -0.521534 0
M  V30 345 C 30.509 -1.63871 -1.62527 0
M  V30 346 C 31.479 -0.480559 -1.58996 0
M  V30 347 O 32.664 -0.705085 -1.77294 0
M  V30 348 C 29.804 -1.69227 -3.00759 0
M  V30 349 C 28.917 -2.96207 -3.14461 0
M  V30 350 C 28.052 -2.92671 -4.43303 0
M  V30 351 C 27.091 -4.14318 -4.50563 0
M  V30 352 N 26.228 -4.0881 -5.70805 0
M  V30 353 H 31.068 -2.58123 -1.48918 0
M  V30 354 H 28.605 -1.28 -0.724878 0
M  V30 355 H 30.563 -1.70314 -3.80853 0
M  V30 356 H 29.193 -0.784586 -3.1312 0
M  V30 357 H 28.245 -3.04826 -2.27564 0
M  V30 358 H 29.557 -3.86192 -3.15686 0
M  V30 359 H 28.711 -2.92206 -5.31696 0
M  V30 360 H 27.45 -2.00429 -4.44612 0
M  V30 361 H 26.455 -4.15049 -3.60575 0
M  V30 362 H 27.68 -5.07729 -4.50986 0
M  V30 363 H 25.626 -3.19394 -5.72995 0
M  V30 364 H 25.543 -4.92509 -5.7356 0
M  V30 365 H 26.811 -4.12418 -6.61462 0
M  V30 366 N 31.0401 0.771051 -1.3745 0
M  V30 367 C 32.3171 1.519 -1.23231 0
M  V30 368 C 32.6971 2.10383 0.173809 0
M  V30 369 O 32.0451 1.95583 1.18151 0
M  V30 370 C 32.2551 2.59933 -2.32886 0
M  V30 371 C 33.6031 3.27316 -2.70461 0
M  V30 372 O 34.6271 2.70228 -2.32068 0
M  V30 373 O 33.4861 4.30531 -3.36608 0
M  V30 374 H 30.5801 0.672803 -0.480901 0
M  V30 375 H 33.1261 0.807957 -1.49232 0
M  V30 376 H 31.8981 2.14842 -3.27045 0
M  V30 377 H 31.5211 3.38637 -2.08353 0
M  V30 378 N 32.5182 1.22032 0.997298 0
M  V30 379 C 33.7462 1.06841 1.7718 0
M  V30 380 C 34.1612 -0.381325 1.84909 0
M  V30 381 O 33.5182 -1.26437 1.31605 0
M  V30 382 C 33.5692 1.66814 3.20711 0
M  V30 383 O 33.2902 3.06116 3.13408 0
M  V30 384 C 34.7912 1.56838 4.14628 0
M  V30 385 H 32.0112 0.374782 0.556578 0
M  V30 386 H 34.5552 1.61532 1.2541 0
M  V30 387 H 32.7102 1.16196 3.69564 0
M  V30 388 H 33.1242 3.34926 4.0364 0
M  V30 389 H 34.5982 2.03532 5.13107 0
M  V30 390 H 35.0752 0.524155 4.36061 0
M  V30 391 H 35.6812 2.06741 3.7167 0
M  V30 392 N 33.9963 -1.19345 1.0293 0
M  V30 393 C 35.2443 -1.88665 0.724574 0
M  V30 394 C 35.5653 -1.80036 -0.749144 0
M  V30 395 O 34.8353 -1.2111 -1.53978 0
M  V30 396 H 33.4153 -0.698406 0.265025 0
M  V30 397 H 36.0773 -1.44885 1.30362 0
M  V30 398 H 35.1733 -2.94987 1.01926 0
M  V30 399 N 35.4744 -0.807222 -1.35358 0
M  V30 400 C 36.4224 -0.20614 -2.31685 0
M  V30 401 C 37.4164 0.644445 -1.56663 0
M  V30 402 O 38.6224 0.537538 -1.71786 0
M  V30 403 H 34.9974 -0.0479006 -0.750473 0
M  V30 404 H 36.9684 -1.03369 -2.79924 0
M  V30 405 C 35.7174 0.630212 -3.41941 0
M  V30 406 H 35.0404 -0.0149558 -3.99797 0
M  V30 407 H 36.4804 1.01716 -4.11619 0
M  V30 408 C 34.9394 1.79601 -2.85035 0
M  V30 409 O 35.4694 2.89351 -2.78637 0
M  V30 410 N 33.6754 1.60774 -2.42074 0
M  V30 411 H 33.2224 0.715009 -2.47478 0
M  V30 412 H 33.1804 2.38933 -2.04349 0
M  V30 413 N 36.9525 1.47285 -0.560781 0
M  V30 414 C 38.1805 2.06855 -0.0430262 0
M  V30 415 C 38.5955 1.41291 1.25229 0
M  V30 416 O 37.9525 0.510648 1.7521 0
M  V30 417 C 38.0035 3.61178 0.152518 0
M  V30 418 O 37.7245 4.24285 -1.0915 0
M  V30 419 C 39.2255 4.37624 0.707145 0
M  V30 420 H 36.4455 0.669319 -0.0474652 0
M  V30 421 H 38.9895 1.89237 -0.77521 0
M  V30 422 H 37.1445 3.78298 0.834843 0
M  V30 423 H 37.5585 5.16868 -0.891482 0
M  V30 424 H 39.0325 5.46271 0.793244 0
M  V30 425 H 39.5095 4.04152 1.71923 0
M  V30 426 H 40.1155 4.25257 0.0604027 0
M  V30 427 N 38.4306 0.297415 1.54768 0
M  V30 428 C 39.3606 -0.573494 2.26348 0
M  V30 429 C 40.3416 -1.14085 1.26169 0
M  V30 430 O 41.5266 -1.17086 1.54934 0
M  V30 431 C 38.6566 -1.74716 3.00153 0
M  V30 432 C 37.6106 -1.31032 4.07449 0
M  V30 433 C 36.9366 -2.56887 4.68949 0
M  V30 434 C 38.2366 -0.444183 5.20408 0
M  V30 435 H 39.9306 0.0235131 2.99391 0
M  V30 436 H 37.4766 0.0127488 1.43994 0
M  V30 437 H 39.4296 -2.3625 3.48947 0
M  V30 438 H 38.1536 -2.37035 2.24682 0
M  V30 439 H 36.8126 -0.718066 3.59499 0
M  V30 440 H 36.4606 -3.17512 3.90122 0
M  V30 441 H 36.1606 -2.2836 5.41411 0
M  V30 442 H 37.6846 -3.19229 5.20505 0
M  V30 443 H 39.0986 -0.9651 5.65118 0
M  V30 444 H 37.4956 -0.252846 5.99567 0
M  V30 445 H 38.5656 0.531609 4.81977 0
M  V30 446 N 39.9087 -1.5758 0.0250728 0
M  V30 447 C 40.8187 -2.1343 -0.973905 0
M  V30 448 C 41.8347 -1.08556 -1.35984 0
M  V30 449 O 43.0107 -1.40592 -1.44207 0
M  V30 450 C 40.0757 -2.64703 -2.23904 0
M  V30 451 C 39.1367 -3.84276 -1.91391 0
M  V30 452 C 38.3697 -4.33095 -3.11873 0
M  V30 453 O 38.5927 -3.81107 -4.24398 0
M  V30 454 O 37.5267 -5.24984 -2.94406 0
M  V30 455 H 41.3527 -2.99057 -0.529036 0
M  V30 456 H 38.9377 -1.48118 -0.195288 0
M  V30 457 H 40.8197 -2.97769 -2.98181 0
M  V30 458 H 39.4947 -1.82161 -2.6758 0
M  V30 459 H 38.4017 -3.56143 -1.14511 0
M  V30 460 H 39.7347 -4.67968 -1.52534 0
M  V30 461 N 41.3868 0.248026 -1.55636 0
M  V30 462 C 42.6168 0.992367 -1.81206 0
M  V30 463 C 43.0248 1.7949 -0.598324 0
M  V30 464 O 42.3678 1.78292 0.442434 0
M  V30 465 C 42.4298 1.97926 -3.00109 0
M  V30 466 C 42.0938 1.36377 -4.36177 0
M  V30 467 C 43.0908 0.76682 -5.14214 0
M  V30 468 C 40.7758 1.38347 -4.82872 0
M  V30 469 C 42.7698 0.197778 -6.37093 0
M  V30 470 C 40.4568 0.810574 -6.057 0
M  V30 471 C 41.4548 0.218754 -6.8265 0
M  V30 472 O 41.1428 -0.345298 -8.03158 0
M  V30 473 H 40.8748 0.297704 -0.606917 0
M  V30 474 H 43.4288 0.276517 -2.0353 0
M  V30 475 H 41.6588 2.73339 -2.73538 0
M  V30 476 H 43.3478 2.58694 -3.12781 0
M  V30 477 H 44.1138 0.744114 -4.79258 0
M  V30 478 H 39.9928 1.8335 -4.2297 0
M  V30 479 H 43.5368 -0.264788 -6.97097 0
M  V30 480 H 39.4338 0.830604 -6.40134 0
M  V30 481 H 40.2018 -0.237055 -8.18157 0
M  V30 482 N 42.8649 1.48995 0.513639 0
M  V30 483 C 43.8149 1.61127 1.61314 0
M  V30 484 C 44.7989 0.467521 1.53958 0
M  V30 485 O 45.9909 0.719826 1.61702 0
M  V30 486 C 43.1199 1.66937 2.99978 0
M  V30 487 C 42.2059 2.86847 3.12377 0
M  V30 488 N 42.5969 4.11078 2.94701 0
M  V30 489 C 40.8949 2.84521 3.43459 0
M  V30 490 C 41.5959 4.91615 3.10949 0
M  V30 491 N 40.5719 4.24739 3.3926 0
M  V30 492 H 44.3739 2.54909 1.46282 0
M  V30 493 H 41.8879 1.45593 0.719483 0
M  V30 494 H 43.8849 1.73725 3.78979 0
M  V30 495 H 42.5449 0.742831 3.16089 0
M  V30 496 H 43.5559 4.41258 2.71131 0
M  V30 497 H 40.2329 2.01192 3.65825 0
M  V30 498 H 41.6229 6.00264 3.01882 0
M  V30 499 N 44.343 -0.763751 1.37857 0
M  V30 500 C 45.571 -1.55293 1.36718 0
M  V30 501 C 45.986 -1.88745 -0.0455434 0
M  V30 502 O 45.343 -1.52039 -1.00947 0
M  V30 503 C 45.394 -2.85831 2.2132 0
M  V30 504 O 45.115 -2.5381 3.57089 0
M  V30 505 C 46.616 -3.80023 2.28249 0
M  V30 506 H 43.836 -0.480841 0.468009 0
M  V30 507 H 46.38 -0.946009 1.81303 0
M  V30 508 H 44.535 -3.42926 1.80223 0
M  V30 509 H 44.949 -3.37459 4.01524 0
M  V30 510 H 46.423 -4.68599 2.91752 0
M  V30 511 H 46.9 -4.1973 1.2932 0
M  V30 512 H 47.506 -3.28855 2.69693 0
M  V30 513 N 45.8211 -1.22559 -0.990812 0
M  V30 514 C 46.7311 -1.01394 -2.11557 0
M  V30 515 C 47.7471 0.0383962 -1.73958 0
M  V30 516 O 48.9231 -0.154787 -2.00804 0
M  V30 517 C 45.9881 -0.596569 -3.41529 0
M  V30 518 C 45.0491 -1.72276 -3.93217 0
M  V30 519 C 44.2821 -1.32521 -5.16985 0
M  V30 520 O 44.5051 -0.204909 -5.70032 0
M  V30 521 O 43.4391 -2.14247 -5.62478 0
M  V30 522 H 47.2651 -1.95633 -2.32296 0
M  V30 523 H 44.8501 -1.01172 -1.0993 0
M  V30 524 H 46.7321 -0.374263 -4.19735 0
M  V30 525 H 45.4071 0.316939 -3.22145 0
M  V30 526 H 44.3141 -1.99961 -3.16174 0
M  V30 527 H 45.6471 -2.61421 -4.17037 0
M  V30 528 N 47.2992 1.18797 -1.03562 0
M  V30 529 C 48.5462 1.8865 -0.736023 0
M  V30 530 C 48.8742 1.80041 0.735889 0
M  V30 531 O 48.1292 1.19179 1.55225 0
M  V30 532 C 48.4282 3.38692 -1.14117 0
M  V30 533 C 48.0942 3.67504 -2.6125 0
M  V30 534 C 46.7562 3.75078 -3.01447 0
M  V30 535 C 49.1082 3.80293 -3.56408 0
M  V30 536 C 46.4362 3.92915 -4.35701 0
M  V30 537 C 48.7882 3.99645 -4.90374 0
M  V30 538 C 47.4522 4.05453 -5.30249 0
M  V30 539 H 46.7222 0.690321 -0.26933 0
M  V30 540 H 49.3692 1.40641 -1.29971 0
M  V30 541 H 47.6742 3.88645 -0.496202 0
M  V30 542 H 49.3712 3.91072 -0.886789 0
M  V30 543 H 45.9612 3.62223 -2.29113 0
M  V30 544 H 50.1452 3.73779 -3.26501 0
M  V30 545 H 45.4012 3.95653 -4.66121 0
M  V30 546 H 49.5752 4.08482 -5.64017 0
M  V30 547 H 47.2022 4.19027 -6.34288 0
M  V30 548 N 48.7773 0.814389 1.34928 0
M  V30 549 C 49.7073 0.244827 2.32213 0
M  V30 550 C 50.6883 -0.634024 1.57842 0
M  V30 551 O 51.8733 -0.562676 1.8587 0
M  V30 552 C 49.0033 -0.601106 3.42058 0
M  V30 553 C 47.9573 0.179896 4.27622 0
M  V30 554 C 47.2833 -0.788237 5.28858 0
M  V30 555 C 48.5833 1.38329 5.03649 0
M  V30 556 H 50.2773 1.05763 2.80097 0
M  V30 557 H 47.8233 0.510029 1.34665 0
M  V30 558 H 49.7763 -1.00968 4.09125 0
M  V30 559 H 48.5003 -1.44688 2.92802 0
M  V30 560 H 47.1593 0.569739 3.62146 0
M  V30 561 H 46.8073 -1.62973 4.75866 0
M  V30 562 H 46.5073 -0.269942 5.8698 0
M  V30 563 H 48.0313 -1.19485 5.98795 0
M  V30 564 H 49.4453 1.04918 5.63618 0
M  V30 565 H 47.8423 1.83662 5.71304 0
M  V30 566 H 48.9123 2.16592 4.33839 0
M  V30 567 N 50.2554 -1.46986 0.568584 0
M  V30 568 C 51.5324 -1.95592 -0.0174074 0
M  V30 569 C 51.9124 -1.51124 -1.47393 0
M  V30 570 O 51.2604 -0.755329 -2.15655 0
M  V30 571 C 51.4704 -3.48719 0.139913 0
M  V30 572 C 52.8184 -4.246 0.000426376 0
M  V30 573 O 53.8424 -3.56135 0.0680316 0
M  V30 574 O 52.7014 -5.46302 -0.146988 0
M  V30 575 H 49.7954 -0.82498 -0.0577599 0
M  V30 576 H 52.3414 -1.57335 0.635909 0
M  V30 577 H 51.1134 -3.73927 1.15301 0
M  V30 578 H 50.7364 -3.93771 -0.550491 0
M  V30 579 N 51.7335 -0.305618 -1.54608 0
M  V30 580 C 52.6435 0.57778 -2.27374 0
M  V30 581 C 53.6595 1.14451 -1.31061 0
M  V30 582 O 54.8355 1.16831 -1.6405 0
M  V30 583 C 51.9005 1.73123 -3.00382 0
M  V30 584 C 50.9615 1.19812 -4.12242 0
M  V30 585 C 50.1945 2.2966 -4.81759 0
M  V30 586 O 50.4175 3.49651 -4.50666 0
M  V30 587 O 49.3515 1.96091 -5.69062 0
M  V30 588 H 53.1775 -0.012624 -3.03697 0
M  V30 589 H 50.7625 -0.0719184 -1.49227 0
M  V30 590 H 52.6445 2.40315 -3.4616 0
M  V30 591 H 51.3195 2.30815 -2.26949 0
M  V30 592 H 50.2265 0.491798 -3.70853 0
M  V30 593 H 51.5595 0.666566 -4.87666 0
M  V30 594 N 53.2116 1.57565 -0.0334293 0
M  V30 595 C 54.1596 2.1164 0.96496 0
M  V30 596 C 55.1536 1.04398 1.33407 0
M  V30 597 O 56.3596 1.22828 1.3158 0
M  V30 598 H 52.7346 0.676222 0.32898 0
M  V30 599 H 54.7056 2.94455 0.483614 0
M  V30 600 C 53.4546 2.66207 2.23672 0
M  V30 601 H 52.7776 3.48378 1.96145 0
M  V30 602 H 54.2176 3.07685 2.9173 0
M  V30 603 C 52.6766 1.59151 2.96939 0
M  V30 604 O 53.2066 0.993858 3.89211 0
M  V30 605 N 51.4126 1.31093 2.59351 0
M  V30 606 H 50.9596 1.7988 1.84393 0
M  V30 607 H 50.9176 0.596889 3.08682 0
M  V30 608 N 54.6897 -0.239769 1.55765 0
M  V30 609 C 55.9177 -0.98417 1.81994 0
M  V30 610 C 56.3327 -1.7867 0.610124 0
M  V30 611 O 55.6897 -1.77571 -0.421271 0
M  V30 612 C 55.7407 -1.91635 3.06526 0
M  V30 613 O 55.4617 -1.14629 4.22838 0
M  V30 614 C 56.9627 -2.77616 3.45607 0
M  V30 615 H 54.1827 -0.28928 0.605441 0
M  V30 616 H 56.7267 -0.260499 2.02834 0
M  V30 617 H 54.8817 -2.5942 2.87715 0
M  V30 618 H 55.2957 -1.77745 4.93464 0
M  V30 619 H 56.7697 -3.38759 4.35828 0
M  V30 620 H 57.2467 -3.4909 2.6652 0
M  V30 621 H 57.8527 -2.15271 3.66795 0
M  V30 622 N 56.1678 -1.49265 -0.50573 0
M  V30 623 C 57.4138 -1.58748 -1.26202 0
M  V30 624 C 57.7468 -0.271227 -1.92297 0
M  V30 625 O 57.0218 0.724831 -1.80489 0
M  V30 626 C 57.3048 -2.74332 -2.33268 0
M  V30 627 C 57.1578 -4.15737 -1.71705 0
M  V30 628 C 58.4768 -2.85576 -3.34865 0
M  V30 629 H 55.5958 -0.577826 -0.457478 0
M  V30 630 H 58.2378 -1.81532 -0.560897 0
M  V30 631 H 56.3878 -2.55036 -2.93068 0
M  V30 632 H 58.0598 -4.46537 -1.15769 0
M  V30 633 H 56.3028 -4.21605 -1.02135 0
M  V30 634 H 56.9738 -4.92477 -2.49341 0
M  V30 635 H 59.4498 -3.03127 -2.8505 0
M  V30 636 H 58.3258 -3.68135 -4.07146 0
M  V30 637 H 58.5868 -1.94732 -3.96903 0
M  V30 638 N 57.6459 0.756429 -1.3826 0
M  V30 639 C 58.5559 1.9009 -1.37488 0
M  V30 640 C 59.5719 1.71855 -0.272366 0
M  V30 641 O 60.7479 1.94827 -0.510318 0
M  V30 642 C 57.8129 3.25421 -1.19592 0
M  V30 643 C 56.8739 3.56202 -2.39622 0
M  V30 644 C 56.1069 4.85075 -2.2257 0
M  V30 645 O 56.3299 5.57246 -1.21793 0
M  V30 646 O 55.2639 5.15269 -3.11098 0
M  V30 647 H 59.0899 1.93695 -2.33914 0
M  V30 648 H 56.6749 0.901313 -1.1915 0
M  V30 649 H 58.5569 4.06337 -1.11661 0
M  V30 650 H 57.2319 3.22634 -0.262486 0
M  V30 651 H 56.1389 2.75458 -2.53128 0
M  V30 652 H 57.4719 3.63747 -3.31586 0
M  V30 653 N 59.124 1.23083 0.984299 0
M  V30 654 C 60.37 1.07221 1.72845 0
M  V30 655 C 60.725 -0.387453 1.88458 0
M  V30 656 O 60.018 -1.28309 1.42293 0
M  V30 657 C 60.212 1.72673 3.1292 0
M  V30 658 C 60.041 3.24853 3.10967 0
M  V30 659 C 58.811 3.93998 3.16376 0
M  V30 660 C 61.009 4.21674 2.94441 0
M  V30 661 N 58.991 5.33192 3.04268 0
M  V30 662 C 60.362 5.47756 2.90453 0
M  V30 663 C 62.417 4.12457 2.78897 0
M  V30 664 C 61.12 6.6568 2.72512 0
M  V30 665 C 63.146 5.3004 2.62319 0
M  V30 666 C 62.508 6.55046 2.59026 0
M  V30 667 H 58.607 0.44685 0.641755 0
M  V30 668 H 61.191 1.55753 1.16829 0
M  V30 669 H 59.362 1.26679 3.67161 0
M  V30 670 H 61.094 1.49824 3.75945 0
M  V30 671 H 57.849 3.45052 3.24401 0
M  V30 672 H 58.273 6.06157 3.015 0
M  V30 673 H 62.915 3.16588 2.80235 0
M  V30 674 H 60.633 7.61689 2.69919 0
M  V30 675 H 64.219 5.24747 2.5126 0
M  V30 676 H 63.099 7.44498 2.46357 0
M  V30 677 N 60.6021 -1.18246 1.0419 0
M  V30 678 C 61.5651 -2.20128 0.638452 0
M  V30 679 C 62.5651 -1.57885 -0.304805 0
M  V30 680 O 63.7551 -1.73967 -0.0900369 0
M  V30 681 C 60.8871 -3.4084 -0.0637751 0
M  V30 682 H 62.0801 -2.57336 1.54007 0
M  V30 683 H 59.6331 -1.32152 0.834598 0
M  V30 684 H 60.3681 -3.09166 -0.979136 0
M  V30 685 H 60.1531 -3.8726 0.614198 0
M  V30 686 H 61.6431 -4.16274 -0.332512 0
M  V30 687 N 62.0802 -0.821533 -1.34494 0
M  V30 688 C 63.0272 -0.240397 -2.29545 0
M  V30 689 C 63.9972 0.634031 -1.53523 0
M  V30 690 O 65.1822 0.575966 -1.81899 0
M  V30 691 C 62.3222 0.592869 -3.39969 0
M  V30 692 C 61.4352 -0.30365 -4.30932 0
M  V30 693 C 60.5702 0.539049 -5.28458 0
M  V30 694 C 59.6092 -0.356942 -6.11058 0
M  V30 695 N 58.7462 0.446603 -7.00678 0
M  V30 696 H 63.5862 -1.05632 -2.7865 0
M  V30 697 H 61.1232 -0.532413 -1.37127 0
M  V30 698 H 63.0812 1.09129 -4.02675 0
M  V30 699 H 61.7112 1.37392 -2.92102 0
M  V30 700 H 60.7632 -0.920276 -3.691 0
M  V30 701 H 62.0752 -0.992661 -4.88823 0
M  V30 702 H 61.2292 1.102 -5.96608 0
M  V30 703 H 59.9682 1.26157 -4.71101 0
M  V30 704 H 58.9732 -0.932047 -5.41842 0
M  V30 705 H 60.1982 -1.07755 -6.70497 0
M  V30 706 H 58.1442 1.15282 -6.45791 0
M  V30 707 H 58.0612 -0.184048 -7.55776 0
M  V30 708 H 59.3292 0.992352 -7.73158 0
M  V30 709 N 63.5583 1.46682 -0.576371 0
M  V30 710 C 64.8063 2.02013 -0.0594163 0
M  V30 711 C 65.1273 1.45101 1.30271 0
M  V30 712 O 64.3973 0.633317 1.8538 0
M  V30 713 H 62.9773 0.746759 -0.0189745 0
M  V30 714 H 65.6393 1.79862 -0.750717 0
M  V30 715 H 64.7353 3.12097 0.014345 0
M  V30 716 N 65.0364 0.313813 1.54444 0
M  V30 717 C 66.2834 -0.291675 2.00388 0
M  V30 718 C 66.6114 -1.52904 1.2021 0
M  V30 719 O 65.8664 -1.93833 0.269707 0
M  V30 720 C 66.1654 -0.680386 3.50864 0
M  V30 721 C 65.8314 0.456699 4.48581 0
M  V30 722 C 64.4934 0.768824 4.75018 0
M  V30 723 C 66.8454 1.22098 5.06697 0
M  V30 724 C 64.1734 1.84812 5.56831 0
M  V30 725 C 66.5254 2.29029 5.89685 0
M  V30 726 C 65.1894 2.60834 6.14428 0
M  V30 727 H 64.4594 -0.106732 0.733273 0
M  V30 728 H 67.1064 0.43557 1.86481 0
M  V30 729 H 65.4114 -1.48791 3.62448 0
M  V30 730 H 67.1084 -1.16026 3.83847 0
M  V30 731 H 63.6984 0.203337 4.28117 0
M  V30 732 H 67.8824 0.993096 4.86263 0
M  V30 733 H 63.1384 2.09912 5.74236 0
M  V30 734 H 67.3124 2.887 6.33739 0
M  V30 735 H 64.9394 3.44596 6.77612 0
M  V30 736 N 66.5145 -1.57545 0.0417849 0
M  V30 737 C 67.7915 -1.83642 -0.673433 0
M  V30 738 C 68.1715 -0.928298 -1.89594 0
M  V30 739 O 67.5195 0.0129955 -2.28496 0
M  V30 740 C 67.7295 -3.33155 -1.03964 0
M  V30 741 C 69.0775 -3.99941 -1.42592 0
M  V30 742 O 70.1015 -3.37725 -1.13226 0
M  V30 743 O 68.9605 -5.09619 -1.9736 0
M  V30 744 H 66.0545 -0.757638 -0.331533 0
M  V30 745 H 68.6005 -1.69554 0.070433 0
M  V30 746 H 67.3725 -3.9093 -0.170098 0
M  V30 747 H 66.9955 -3.52396 -1.84126 0
M  V30 748 N 67.9926 0.231505 -1.5589 0
M  V30 749 C 69.2406 0.955461 -1.78088 0
M  V30 750 C 69.5616 1.85262 -0.608533 0
M  V30 751 O 68.8316 1.92277 0.375035 0
M  V30 752 H 67.4116 0.355787 -0.656829 0
M  V30 753 H 70.0736 0.245751 -1.93344 0
M  V30 754 H 69.1696 1.56814 -2.69844 0
M  V30 755 N 69.4707 1.49531 0.497807 0
M  V30 756 C 70.7197 1.58426 1.24837 0
M  V30 757 C 71.0327 0.277643 1.93619 0
M  V30 758 O 72.2387 0.24517 2.70391 0
M  V30 759 C 70.6947 2.79538 2.26686 0
M  V30 760 C 70.3027 4.16971 1.63828 0
M  V30 761 C 72.0467 2.97764 3.0255 0
M  V30 762 C 69.9537 5.29301 2.63807 0
M  V30 763 H 68.8837 0.58989 0.469623 0
M  V30 764 H 71.5347 1.75923 0.521857 0
M  V30 765 H 69.9167 2.55542 3.02514 0
M  V30 766 H 71.0907 4.51116 0.939711 0
M  V30 767 H 69.4057 4.04129 1.00342 0
M  V30 768 H 72.0027 3.78856 3.77323 0
M  V30 769 H 72.3457 2.08448 3.60354 0
M  V30 770 H 72.8787 3.21815 2.33838 0
M  V30 771 H 69.6177 6.20687 2.10779 0
M  V30 772 H 69.1377 4.99606 3.31894 0
M  V30 773 H 70.8167 5.58768 3.2617 0
M  V30 774 N 70.9488 -0.749086 1.3866 0
M  V30 775 C 71.8968 -1.88428 1.36373 0
M  V30 776 C 72.8908 -1.67561 0.248929 0
M  V30 777 O 74.0968 -1.75074 0.41821 0
M  V30 778 H 70.4718 -0.620023 0.42553 0
M  V30 779 H 72.4428 -1.87473 2.32156 0
M  V30 780 C 71.1918 -3.25961 1.21014 0
M  V30 781 H 70.5148 -3.42607 2.06059 0
M  V30 782 H 71.9548 -4.05625 1.23469 0
M  V30 783 C 70.4138 -3.36799 -0.0825941 0
M  V30 784 O 70.9438 -3.87517 -1.05797 0
M  V30 785 N 69.1498 -2.90258 -0.140939 0
M  V30 786 H 68.6968 -2.49174 0.653477 0
M  V30 787 H 68.6548 -2.97889 -1.00545 0
M  V30 788 N 72.4269 -1.23603 -0.977757 0
M  V30 789 C 73.6519 -1.09735 -1.75991 0
M  V30 790 C 74.0769 0.346858 -1.84874 0
M  V30 791 O 73.4349 1.25093 -1.3123 0
M  V30 792 C 73.4829 -1.73051 -3.16363 0
M  V30 793 O 72.5869 -0.994452 -4.0023 0
M  V30 794 H 71.9279 -0.384476 -0.541364 0
M  V30 795 H 74.4579 -1.6371 -1.2272 0
M  V30 796 H 74.4679 -1.78398 -3.66931 0
M  V30 797 H 73.1429 -2.78137 -3.09213 0
M  V30 798 H 71.7199 -1.01812 -3.58732 0
M  V30 799 N 73.905 1.17692 -1.04816 0
M  V30 800 C 74.835 2.23777 -0.666791 0
M  V30 801 C 75.816 1.66796 0.33361 0
M  V30 802 O 77.001 1.93039 0.212042 0
M  V30 803 C 74.131 3.47281 -0.0367933 0
M  V30 804 C 73.085 4.17059 -0.961546 0
M  V30 805 C 72.411 5.34342 -0.195626 0
M  V30 806 C 73.711 4.69713 -2.28402 0
M  V30 807 H 75.405 2.55933 -1.55367 0
M  V30 808 H 72.951 1.23019 -0.748484 0
M  V30 809 H 74.904 4.20706 0.241775 0
M  V30 810 H 73.628 3.14381 0.885004 0
M  V30 811 H 72.287 3.45541 -1.22462 0
M  V30 812 H 71.935 4.97692 0.728816 0
M  V30 813 H 71.635 5.81966 -0.811775 0
M  V30 814 H 73.159 6.10553 0.0757473 0
M  V30 815 H 74.573 5.34794 -2.06563 0
M  V30 816 H 72.97 5.279 -2.8538 0
M  V30 817 H 74.04 3.86726 -2.92525 0
M  V30 818 N 75.3831 0.828654 1.34056 0
M  V30 819 C 76.3151 0.212052 2.28217 0
M  V30 820 C 77.3281 -0.601362 1.51286 0
M  V30 821 O 78.5171 -0.430104 1.73241 0
M  V30 822 C 75.6171 -0.72088 3.31144 0
M  V30 823 C 74.7901 0.0509587 4.3737 0
M  V30 824 C 73.8491 -0.803766 5.20025 0
M  V30 825 O 72.8751 -0.246667 5.68665 0
M  V30 826 N 74.0771 -2.1227 5.40298 0
M  V30 827 H 76.8421 1.02105 2.81771 0
M  V30 828 H 74.4031 0.686153 1.46641 0
M  V30 829 H 76.3951 -1.29742 3.8334 0
M  V30 830 H 74.9651 -1.43061 2.77943 0
M  V30 831 H 74.1851 0.808831 3.85813 0
M  V30 832 H 75.4731 0.582065 5.0546 0
M  V30 833 H 74.8711 -2.59898 5.02464 0
M  V30 834 H 73.4281 -2.64796 5.95589 0
M  V30 835 N 76.8612 -1.46375 0.584142 0
M  V30 836 C 78.0892 -2.06761 0.0759296 0
M  V30 837 C 78.5042 -1.43266 -1.22965 0
M  V30 838 O 77.8612 -0.538458 -1.74376 0
M  V30 839 C 77.9122 -3.61375 -0.0950384 0
M  V30 840 O 77.6332 -4.22495 1.15887 0
M  V30 841 C 79.1342 -4.38693 -0.637434 0
M  V30 842 H 76.3542 -0.668479 0.0581075 0
M  V30 843 H 78.8982 -1.8798 0.805218 0
M  V30 844 H 77.0532 -3.79578 -0.774554 0
M  V30 845 H 77.4672 -5.15385 0.973598 0
M  V30 846 H 78.9412 -5.47464 -0.706237 0
M  V30 847 H 79.4182 -4.06836 -1.65472 0
M  V30 848 H 80.0242 -4.25299 0.00725967 0
M  V30 849 N 78.3393 -0.321999 -1.54275 0
M  V30 850 C 79.5673 0.283052 -2.04955 0
M  V30 851 C 79.9823 1.45904 -1.19823 0
M  V30 852 O 79.3393 1.81063 -0.228545 0
M  V30 853 C 79.3903 0.719028 -3.54277 0
M  V30 854 O 79.1113 -0.410175 -4.36176 0
M  V30 855 C 80.6123 1.38705 -4.21041 0
M  V30 856 H 77.8323 0.0584616 -0.668448 0
M  V30 857 H 80.3763 -0.467734 -1.99079 0
M  V30 858 H 78.5313 1.41979 -3.60445 0
M  V30 859 H 78.9453 -0.0669416 -5.24457 0
M  V30 860 H 80.4193 1.64306 -5.2698 0
M  V30 861 H 80.8963 2.33385 -3.72059 0
M  V30 862 H 81.5023 0.728906 -4.19007 0
M  V30 863 N 79.8174 1.5752 -0.0501392 0
M  V30 864 C 81.2284 1.80271 0.485705 0
M  V30 865 C 81.5794 0.96228 1.70981 0
M  V30 866 O 80.7044 0.178578 2.15662 0
M  V30 867 C 81.2994 3.26957 0.887938 0
M  V30 868 C 79.8584 3.5063 1.36877 0
M  V30 869 C 79.0054 2.75165 0.343468 0
M  V30 870 H 81.9564 1.56281 -0.276028 0
M  V30 871 H 81.9774 3.37821 1.75093 0
M  V30 872 H 81.4894 3.881 -0.0031809 0
M  V30 873 H 79.5904 2.94766 2.27911 0
M  V30 874 H 79.7034 4.59343 1.36164 0
M  V30 875 H 78.0674 2.4127 0.816128 0
M  V30 876 H 78.8504 3.39034 -0.539548 0
M  V30 877 N 81.2955 -0.223234 1.56011 0
M  V30 878 C 82.5255 -0.963413 1.82762 0
M  V30 879 C 82.9335 -1.78516 0.626804 0
M  V30 880 O 82.2765 -1.78974 -0.414014 0
M  V30 881 C 82.3385 -1.93126 3.0322 0
M  V30 882 C 82.0025 -1.2942 4.38291 0
M  V30 883 C 82.9995 -0.684916 5.15369 0
M  V30 884 C 80.6845 -1.30647 4.85012 0
M  V30 885 C 82.6785 -0.0963971 6.37327 0
M  V30 886 C 80.3655 -0.71411 6.06913 0
M  V30 887 C 81.3635 -0.110123 6.82911 0
M  V30 888 O 81.0515 0.47303 8.02507 0
M  V30 889 H 80.7835 -0.288011 0.611576 0
M  V30 890 H 83.3375 -0.244103 2.03944 0
M  V30 891 H 81.5675 -2.68952 2.77852 0
M  V30 892 H 83.2565 -2.53685 3.16857 0
M  V30 893 H 84.0225 -0.667774 4.80381 0
M  V30 894 H 79.9015 -1.76598 4.25833 0
M  V30 895 H 83.4455 0.375657 6.96588 0
M  V30 896 H 79.3425 -0.728659 6.41374 0
M  V30 897 H 80.1105 0.367186 8.17676 0
M  V30 898 N 82.7736 -1.49793 -0.48987 0
M  V30 899 C 83.7366 -1.66752 -1.57246 0
M  V30 900 C 84.7366 -0.538867 -1.51502 0
M  V30 901 O 85.9266 -0.805545 -1.54456 0
M  V30 902 C 83.0586 -1.67528 -2.96896 0
M  V30 903 H 84.2516 -2.63321 -1.43534 0
M  V30 904 H 81.8046 -1.38992 -0.714914 0
M  V30 905 H 82.5396 -0.725837 -3.16073 0
M  V30 906 H 82.3246 -2.49504 -3.02473 0
M  V30 907 H 83.8146 -1.82667 -3.7553 0
M  V30 908 N 84.2517 0.741722 -1.39055 0
M  V30 909 C 85.2147 1.83733 -1.37021 0
M  V30 910 C 86.2147 1.58542 -0.268534 0
M  V30 911 O 87.4047 1.66067 -0.526076 0
M  V30 912 C 84.5367 3.2141 -1.13617 0
M  V30 913 H 85.7297 1.86941 -2.34506 0
M  V30 914 H 83.2827 0.944676 -1.24521 0
M  V30 915 H 84.0177 3.23865 -0.167863 0
M  V30 916 H 83.8027 3.4109 -1.93391 0
M  V30 917 H 85.2927 4.01477 -1.14918 0
M  V30 918 N 85.7298 1.2412 0.971189 0
M  V30 919 C 86.9778 1.07668 1.71032 0
M  V30 920 C 87.2988 -0.385797 1.91146 0
M  V30 921 O 86.5688 -1.27569 1.4867 0
M  V30 922 H 85.1488 0.395429 0.633755 0
M  V30 923 H 87.8108 1.55984 1.16855 0
M  V30 924 H 86.9068 1.57195 2.69622 0
M  V30 925 N 87.2079 -1.17134 1.05439 0
M  V30 926 C 88.4539 -1.87733 0.767077 0
M  V30 927 C 88.7869 -1.8098 -0.704253 0
M  V30 928 O 88.0619 -1.21951 -1.5152 0
M  V30 929 C 88.3449 -3.37659 1.25133 0
M  V30 930 C 88.1979 -3.53149 2.78578 0
M  V30 931 C 89.5169 -4.31768 0.852324 0
M  V30 932 H 86.6359 -0.681687 0.280129 0
M  V30 933 H 89.2779 -1.37732 1.30881 0
M  V30 934 H 87.4279 -3.80373 0.790469 0
M  V30 935 H 89.0999 -3.19434 3.32806 0
M  V30 936 H 87.3429 -2.95345 3.17732 0
M  V30 937 H 88.0139 -4.58403 3.07523 0
M  V30 938 H 90.4899 -3.96909 1.24911 0
M  V30 939 H 89.3659 -5.35199 1.21873 0
M  V30 940 H 89.6269 -4.41429 -0.243485 0
M  V30 941 N 88.686 -0.835752 -1.33615 0
M  V30 942 C 89.933 -0.429959 -1.97883 0
M  V30 943 C 90.261 1.01006 -1.66217 0
M  V30 944 O 89.516 1.72047 -0.93265 0
M  V30 945 C 89.815 -0.593925 -3.52431 0
M  V30 946 C 89.481 -2.00158 -4.04039 0
M  V30 947 C 88.143 -2.38662 -4.17844 0
M  V30 948 C 90.495 -2.92117 -4.31644 0
M  V30 949 C 87.823 -3.68435 -4.56588 0
M  V30 950 C 90.175 -4.21368 -4.71838 0
M  V30 951 C 88.839 -4.59833 -4.83849 0
M  V30 952 H 88.109 -0.157333 -0.724104 0
M  V30 953 H 90.756 -1.06217 -1.59343 0
M  V30 954 H 89.061 0.121619 -3.91611 0
M  V30 955 H 90.758 -0.260282 -4.00154 0
M  V30 956 H 87.348 -1.69252 -3.93766 0
M  V30 957 H 91.532 -2.63608 -4.20505 0
M  V30 958 H 86.788 -3.98046 -4.64079 0
M  V30 959 H 90.962 -4.92703 -4.92155 0
M  V30 960 H 88.589 -5.60438 -5.13627 0
M  V30 961 N 90.1641 1.46063 -0.591896 0
M  V30 962 C 91.0741 2.34192 0.13831 0
M  V30 963 C 92.0901 1.50305 0.876608 0
M  V30 964 O 93.2661 1.8315 0.837728 0
M  V30 965 C 90.3311 3.27656 1.13326 0
M  V30 966 C 89.3921 4.27445 0.39863 0
M  V30 967 C 88.6251 5.16443 1.34618 0
M  V30 968 O 88.8481 5.08553 2.58321 0
M  V30 969 O 87.7821 5.95843 0.851768 0
M  V30 970 H 91.6081 2.98002 -0.58552 0
M  V30 971 H 89.1931 1.45188 -0.352239 0
M  V30 972 H 91.0751 3.85291 1.70671 0
M  V30 973 H 89.7501 2.6643 1.83839 0
M  V30 974 H 88.6571 3.73471 -0.216895 0
M  V30 975 H 89.9901 4.91482 -0.265709 0
M  V30 976 N 91.6422 0.330177 1.54103 0
M  V30 977 C 92.5892 -0.532762 2.24567 0
M  V30 978 C 93.5592 -1.10635 1.23892 0
M  V30 979 O 94.7442 -1.14546 1.5259 0
M  V30 980 C 91.8842 -1.6845 3.01195 0
M  V30 981 C 90.9972 -1.13951 4.167 0
M  V30 982 C 90.1322 -2.25746 4.80845 0
M  V30 983 C 89.1712 -1.6853 5.88442 0
M  V30 984 N 88.3082 -2.74014 6.46421 0
M  V30 985 H 93.1482 0.0746905 2.97906 0
M  V30 986 H 90.6852 0.048632 1.4702 0
M  V30 987 H 92.6432 -2.36234 3.43874 0
M  V30 988 H 91.2732 -2.26314 2.30178 0
M  V30 989 H 90.3252 -0.35301 3.78758 0
M  V30 990 H 91.6372 -0.680892 4.94131 0
M  V30 991 H 90.7912 -3.01422 5.26526 0
M  V30 992 H 89.5302 -2.74947 4.0281 0
M  V30 993 H 88.5352 -0.913543 5.42157 0
M  V30 994 H 89.7602 -1.20198 6.68378 0
M  V30 995 H 87.7062 -3.22494 5.71256 0
M  V30 996 H 87.6232 -2.32735 7.19285 0
M  V30 997 H 88.8912 -3.49499 6.96757 0
M  V30 998 N 93.1203 -1.57491 0.0584922 0
M  V30 999 C 94.0533 -2.07533 -0.948969 0
M  V30 1000 C 95.0313 -0.977444 -1.29942 0
M  V30 1001 O 96.2153 -1.2499 -1.41102 0
M  V30 1002 C 93.3423 -2.52192 -2.2609 0
M  V30 1003 C 92.3883 -3.73287 -2.06298 0
M  V30 1004 S 93.2213 -5.18603 -1.33459 0
M  V30 1005 C 94.3773 -5.66583 -2.65959 0
M  V30 1006 H 94.6103 -2.92662 -0.523118 0
M  V30 1007 H 92.1433 -1.53631 -0.153954 0
M  V30 1008 H 94.1013 -2.78585 -3.01498 0
M  V30 1009 H 92.7623 -1.67356 -2.65802 0
M  V30 1010 H 91.9553 -4.0248 -3.03357 0
M  V30 1011 H 91.5573 -3.47199 -1.39029 0
M  V30 1012 H 93.8493 -5.72616 -3.62101 0
M  V30 1013 H 94.7923 -6.65684 -2.41393 0
M  V30 1014 H 95.2003 -4.94342 -2.72554 0
M  V30 1015 N 94.5984 0.214957 -1.56127 0
M  V30 1016 C 95.5484 1.27006 -1.8935 0
M  V30 1017 C 96.5324 1.41969 -0.757202 0
M  V30 1018 O 97.7244 1.44673 -1.01973 0
M  V30 1019 C 94.8534 2.61911 -2.2194 0
M  V30 1020 C 93.9394 2.50822 -3.41978 0
M  V30 1021 N 94.3304 2.09391 -4.60423 0
M  V30 1022 C 92.6284 2.81765 -3.45723 0
M  V30 1023 C 93.3294 2.09712 -5.42582 0
M  V30 1024 N 92.3054 2.50454 -4.82466 0
M  V30 1025 H 96.1074 0.940734 -2.78437 0
M  V30 1026 H 93.6214 0.423492 -1.56781 0
M  V30 1027 H 95.6184 3.38096 -2.43919 0
M  V30 1028 H 94.2784 2.95684 -1.34169 0
M  V30 1029 H 95.2894 1.80416 -4.85459 0
M  V30 1030 H 91.9664 3.19865 -2.68314 0
M  V30 1031 H 93.3564 1.79748 -6.4741 0
M  V30 1032 N 96.0765 1.50051 0.48192 0
M  V30 1033 C 97.0395 1.67584 1.5636 0
M  V30 1034 C 98.0395 0.546894 1.51214 0
M  V30 1035 O 99.2295 0.813725 1.54026 0
M  V30 1036 C 96.3615 1.691 2.96003 0
M  V30 1037 H 97.5545 2.64078 1.42136 0
M  V30 1038 H 95.1075 1.39369 0.707533 0
M  V30 1039 H 95.8425 0.742589 3.15684 0
M  V30 1040 H 95.6275 2.51105 3.01146 0
M  V30 1041 H 97.1175 1.84656 3.74556 0
M  V30 1042 N 97.5546 -0.734337 1.39446 0
M  V30 1043 C 98.7846 -1.52137 1.39778 0
M  V30 1044 C 99.1926 -1.89198 -0.00929312 0
M  V30 1045 O 98.5356 -1.54666 -0.991168 0
M  V30 1046 C 98.5976 -2.83762 2.20724 0
M  V30 1047 C 98.2616 -2.69131 3.69347 0
M  V30 1048 C 99.2586 -2.37635 4.62413 0
M  V30 1049 C 96.9436 -2.85982 4.1294 0
M  V30 1050 C 98.9376 -2.23172 5.97054 0
M  V30 1051 C 96.6246 -2.71137 5.47657 0
M  V30 1052 C 97.6226 -2.39777 6.39528 0
M  V30 1053 O 97.3106 -2.25026 7.71763 0
M  V30 1054 H 97.0426 -0.476717 0.479288 0
M  V30 1055 H 99.5966 -0.915012 1.83893 0
M  V30 1056 H 97.8266 -3.4666 1.71359 0
M  V30 1057 H 99.5156 -3.45383 2.13226 0
M  V30 1058 H 100.282 -2.24267 4.30034 0
M  V30 1059 H 96.1606 -3.09383 3.41765 0
M  V30 1060 H 99.7046 -1.98617 6.68728 0
M  V30 1061 H 95.6016 -2.84083 5.79626 0
M  V30 1062 H 96.3696 -2.40091 7.82495 0
M  V30 1063 N 99.0327 -1.24633 -0.964593 0
M  V30 1064 C 100.281 -1.08573 -1.70459 0
M  V30 1065 C 100.602 0.375655 -1.91347 0
M  V30 1066 O 99.8717 1.26779 -1.49345 0
M  V30 1067 H 98.4517 -0.398784 -0.631649 0
M  V30 1068 H 101.114 -1.56601 -1.16026 0
M  V30 1069 H 100.21 -1.58623 -2.68785 0
M  V30 1070 N 100.511 1.16574 -1.06058 0
M  V30 1071 C 101.76 1.86385 -0.770944 0
M  V30 1072 C 102.073 1.82448 0.705129 0
M  V30 1073 O 103.279 2.47815 1.10905 0
M  V30 1074 C 101.735 3.34466 -1.32893 0
M  V30 1075 C 101.343 3.46883 -2.83507 0
M  V30 1076 C 103.087 4.09548 -1.11672 0
M  V30 1077 C 100.994 4.89036 -3.32562 0
M  V30 1078 H 99.9238 0.698181 -0.284709 0
M  V30 1079 H 102.575 1.31583 -1.27899 0
M  V30 1080 H 100.957 3.88859 -0.748662 0
M  V30 1081 H 102.131 3.02663 -3.47465 0
M  V30 1082 H 100.446 2.85232 -3.03368 0
M  V30 1083 H 103.043 5.14434 -1.45814 0
M  V30 1084 H 103.386 4.16264 -0.0549535 0
M  V30 1085 H 103.919 3.61387 -1.66265 0
M  V30 1086 H 100.658 4.87499 -4.38207 0
M  V30 1087 H 100.178 5.3389 -2.73351 0
M  V30 1088 H 101.857 5.57843 -3.2775 0
M  V30 1089 N 101.989 0.842826 1.3317 0
M  V30 1090 C 102.936 0.276885 2.29133 0
M  V30 1091 C 103.906 -0.609527 1.54512 0
M  V30 1092 O 105.091 -0.546955 1.82792 0
M  V30 1093 C 102.231 -0.538707 3.40869 0
M  V30 1094 C 101.344 0.372169 4.30394 0
M  V30 1095 C 100.479 -0.454908 5.29249 0
M  V30 1096 C 99.5179 0.45411 6.10413 0
M  V30 1097 N 98.6549 -0.335075 7.013 0
M  V30 1098 H 103.495 1.10052 2.76934 0
M  V30 1099 H 101.032 0.554161 1.36262 0
M  V30 1100 H 102.99 -1.02709 4.0436 0
M  V30 1101 H 101.62 -1.32727 2.9425 0
M  V30 1102 H 100.672 0.97888 3.6759 0
M  V30 1103 H 101.984 1.0703 4.87182 0
M  V30 1104 H 101.138 -1.00695 5.98285 0
M  V30 1105 H 99.8769 -1.18646 4.73048 0
M  V30 1106 H 98.8819 1.01813 5.40291 0
M  V30 1107 H 100.107 1.18409 6.68697 0
M  V30 1108 H 98.0529 -1.04994 6.47543 0
M  V30 1109 H 97.9699 0.304262 7.55387 0
M  V30 1110 H 99.2379 -0.869224 7.74638 0
M  V30 1111 N 103.467 -1.45747 0.599634 0
M  V30 1112 C 104.714 -2.02292 0.0917284 0
M  V30 1113 C 105.042 -1.46906 -1.27472 0
M  V30 1114 O 104.297 -0.630652 -1.8526 0
M  V30 1115 C 104.596 -3.57399 -0.00602758 0
M  V30 1116 C 104.262 -4.31902 1.29503 0
M  V30 1117 C 102.924 -4.51974 1.65144 0
M  V30 1118 C 105.276 -4.74551 2.15525 0
M  V30 1119 C 102.604 -5.11949 2.86574 0
M  V30 1120 C 104.956 -5.35868 3.36196 0
M  V30 1121 C 103.62 -5.54165 3.72099 0
M  V30 1122 H 102.89 -0.740239 0.0335658 0
M  V30 1123 H 105.537 -1.7491 0.779661 0
M  V30 1124 H 103.842 -3.84014 -0.777183 0
M  V30 1125 H 105.539 -3.98846 -0.415038 0
M  V30 1126 H 102.129 -4.16588 1.00761 0
M  V30 1127 H 106.313 -4.58784 1.8929 0
M  V30 1128 H 101.569 -5.24305 3.14507 0
M  V30 1129 H 105.743 -5.6787 4.03109 0
M  V30 1130 H 103.37 -6.00406 4.6628 0
M  V30 1131 N 104.945 -0.338344 -1.53925 0
M  V30 1132 C 105.875 0.51328 -2.27789 0
M  V30 1133 C 106.856 1.107 -1.29149 0
M  V30 1134 O 108.041 1.12937 -1.57984 0
M  V30 1135 C 105.171 1.66697 -3.04679 0
M  V30 1136 C 104.125 1.20183 -4.1078 0
M  V30 1137 C 103.451 2.44363 -4.75595 0
M  V30 1138 C 104.751 0.30605 -5.21403 0
M  V30 1139 H 106.445 -0.102883 -2.99223 0
M  V30 1140 H 103.991 -0.0509219 -1.4391 0
M  V30 1141 H 105.944 2.26915 -3.55088 0
M  V30 1142 H 104.668 2.30995 -2.30887 0
M  V30 1143 H 103.327 0.622499 -3.61276 0
M  V30 1144 H 102.975 3.07057 -3.98403 0
M  V30 1145 H 102.675 2.13925 -5.47275 0
M  V30 1146 H 104.199 3.05317 -5.28786 0
M  V30 1147 H 105.613 0.814929 -5.67478 0
M  V30 1148 H 104.01 0.0937929 -6.00027 0
M  V30 1149 H 105.08 -0.65921 -4.80398 0
M  V30 1150 N 106.423 1.57458 -0.0668435 0
M  V30 1151 C 107.651 1.97624 0.612565 0
M  V30 1152 C 108.066 0.94502 1.63447 0
M  V30 1153 O 107.423 -0.0689276 1.8237 0
M  V30 1154 C 107.474 3.37869 1.28555 0
M  V30 1155 O 107.195 4.3704 0.304557 0
M  V30 1156 C 108.696 3.92882 2.05325 0
M  V30 1157 H 105.916 0.650045 0.166381 0
M  V30 1158 H 108.46 2.04035 -0.137782 0
M  V30 1159 H 106.615 3.3256 1.98702 0
M  V30 1160 H 107.029 5.18565 0.786779 0
M  V30 1161 H 108.503 4.93247 2.47812 0
M  V30 1162 H 108.98 3.29156 2.9078 0
M  V30 1163 H 109.586 4.01577 1.40056 0
M  V30 1164 N 107.901 -0.206675 1.56239 0
M  V30 1165 C 109.15 -0.926964 1.79138 0
M  V30 1166 C 109.463 -1.84901 0.638043 0
M  V30 1167 O 110.669 -2.60906 0.751033 0
M  V30 1168 C 109.125 -1.6986 3.17294 0
M  V30 1169 C 108.733 -0.821956 4.40395 0
M  V30 1170 C 110.477 -2.40922 3.4951 0
M  V30 1171 C 108.384 -1.59179 5.69575 0
M  V30 1172 H 107.314 -0.349864 0.667915 0
M  V30 1173 H 109.965 -0.180487 1.8261 0
M  V30 1174 H 108.347 -2.48853 3.08039 0
M  V30 1175 H 109.521 -0.0715019 4.60745 0
M  V30 1176 H 107.836 -0.222741 4.15804 0
M  V30 1177 H 110.433 -2.99047 4.43255 0
M  V30 1178 H 110.776 -3.14542 2.72707 0
M  V30 1179 H 111.309 -1.68905 3.60161 0
M  V30 1180 H 108.048 -0.898589 6.49312 0
M  V30 1181 H 107.568 -2.31648 5.53262 0
M  V30 1182 H 109.247 -2.14862 6.10281 0
M  V30 1183 N 109.379 -1.50304 -0.473955 0
M  V30 1184 C 110.795 -1.37667 -0.807466 0
M  V30 1185 C 110.995 -0.430555 -1.96846 0
M  V30 1186 O 110.051 0.127874 -2.52176 0
M  V30 1187 C 111.364 -2.78974 -1.12223 0
M  V30 1188 C 112.912 -2.87868 -1.22885 0
M  V30 1189 C 113.387 -4.30003 -1.57676 0
M  V30 1190 N 114.878 -4.3294 -1.64673 0
M  V30 1191 C 115.613 -5.3991 -1.93091 0
M  V30 1192 N 115.109 -6.57092 -2.1955 0
M  V30 1193 N 116.902 -5.27351 -1.94569 0
M  V30 1194 H 109.053 -2.10394 0.291212 0
M  V30 1195 H 111.316 -0.945575 0.0677609 0
M  V30 1196 H 111.022 -3.50031 -0.342229 0
M  V30 1197 H 110.896 -3.16038 -2.05913 0
M  V30 1198 H 113.283 -2.17032 -1.99953 0
M  V30 1199 H 113.364 -2.54352 -0.271814 0
M  V30 1200 H 113.008 -5.01375 -0.81149 0
M  V30 1201 H 112.938 -4.61004 -2.54525 0
M  V30 1202 H 115.429 -3.48441 -1.46277 0
M  V30 1203 H 115.742 -7.34425 -2.405 0
M  V30 1204 H 114.087 -6.60272 -2.16948 0
M  V30 1205 H 117.278 -4.34801 -1.73394 0
M  V30 1206 H 117.451 -6.10805 -2.16381 0
M  V30 1207 N 110.857 0.726932 -1.39834 0
M  V30 1208 C 111.805 1.86235 -1.39353 0
M  V30 1209 C 112.799 1.67144 -0.275555 0
M  V30 1210 O 114.005 1.74387 -0.44601 0
M  V30 1211 H 110.38 0.613174 -0.43534 0
M  V30 1212 H 112.351 1.83756 -2.35109 0
M  V30 1213 C 111.1 3.23995 -1.26185 0
M  V30 1214 H 110.423 3.39285 -2.11484 0
M  V30 1215 H 111.863 4.03609 -1.29907 0
M  V30 1216 C 110.322 3.36888 0.0290018 0
M  V30 1217 O 110.852 3.89152 0.99619 0
M  V30 1218 N 109.058 2.90446 0.0947437 0
M  V30 1219 H 108.605 2.48102 -0.693035 0
M  V30 1220 H 108.563 2.99451 0.957932 0
M  V30 1221 N 112.336 1.25143 0.95797 0
M  V30 1222 C 113.582 1.09855 1.70469 0
M  V30 1223 C 113.915 -0.360187 1.90831 0
M  V30 1224 O 113.19 -1.26568 1.47685 0
M  V30 1225 C 113.473 1.8497 3.08963 0
M  V30 1226 C 113.326 3.38652 2.96032 0
M  V30 1227 C 114.645 1.63016 4.08795 0
M  V30 1228 H 111.764 0.400465 0.618706 0
M  V30 1229 H 114.406 1.53933 1.11376 0
M  V30 1230 H 112.556 1.47505 3.59409 0
M  V30 1231 H 114.228 3.85772 2.52938 0
M  V30 1232 H 112.471 3.66534 2.32025 0
M  V30 1233 H 113.142 3.8642 3.94187 0
M  V30 1234 H 115.618 1.95625 3.67247 0
M  V30 1235 H 114.494 2.18015 5.03747 0
M  V30 1236 H 114.755 0.570692 4.38401 0
M  V30 1237 N 113.814 -1.1601 1.06675 0
M  V30 1238 C 115.062 -1.86264 0.784229 0
M  V30 1239 C 115.383 -1.82328 -0.691488 0
M  V30 1240 O 114.653 -1.25947 -1.50047 0
M  V30 1241 H 113.233 -0.689621 0.28711 0
M  V30 1242 H 115.895 -1.40664 1.34906 0
M  V30 1243 H 114.991 -2.91595 1.11259 0
M  V30 1244 N 115.292 -0.849877 -1.32721 0
M  V30 1245 C 116.52 -0.464754 -2.01613 0
M  V30 1246 C 116.935 0.937191 -1.63897 0
M  V30 1247 O 116.292 1.61081 -0.857856 0
M  V30 1248 C 116.343 -0.588638 -3.56675 0
M  V30 1249 O 116.064 -1.93535 -3.93034 0
M  V30 1250 C 117.565 -0.2019 -4.4284 0
M  V30 1251 H 114.785 -0.183215 -0.645502 0
M  V30 1252 H 117.329 -1.1455 -1.69407 0
M  V30 1253 H 115.484 0.0443159 -3.87375 0
M  V30 1254 H 115.898 -1.92871 -4.87751 0
M  V30 1255 H 117.372 -0.339599 -5.50954 0
M  V30 1256 H 117.849 0.857224 -4.30753 0
M  V30 1257 H 118.455 -0.809733 -4.17521 0
M  V30 1258 N 116.77 1.45427 -0.607355 0
M  V30 1259 C 118.047 1.9557 -0.0344566 0
M  V30 1260 C 118.427 1.54979 1.43334 0
M  V30 1261 O 117.775 0.812241 2.13576 0
M  V30 1262 C 117.985 3.48226 -0.232321 0
M  V30 1263 C 119.333 4.2445 -0.113001 0
M  V30 1264 O 120.357 3.55829 -0.162431 0
M  V30 1265 O 119.216 5.465 0.00209442 0
M  V30 1266 H 116.31 0.826222 0.0358667 0
M  V30 1267 H 118.856 1.55594 -0.6774 0
M  V30 1268 H 117.628 3.70739 -1.25174 0
M  V30 1269 H 117.251 3.95092 0.445896 0
M  V30 1270 N 118.248 0.346503 1.53744 0
M  V30 1271 C 119.196 -0.52422 2.26616 0
M  V30 1272 C 120.19 -1.09948 1.28871 0
M  V30 1273 O 121.396 -1.04488 1.46568 0
M  V30 1274 H 117.771 -0.187743 0.728187 0
M  V30 1275 H 119.742 0.11239 2.98188 0
M  V30 1276 C 118.491 -1.66186 3.05414 0
M  V30 1277 H 117.814 -1.22848 3.80458 0
M  V30 1278 H 119.254 -2.24622 3.59612 0
M  V30 1279 C 117.713 -2.59302 2.1509 0
M  V30 1280 O 118.243 -3.61628 1.74895 0
M  V30 1281 N 116.449 -2.28055 1.8011 0
M  V30 1282 H 115.996 -1.44883 2.12994 0
M  V30 1283 H 115.954 -2.90615 1.19958 0
M  V30 1284 N 119.726 -1.57421 0.075193 0
M  V30 1285 C 120.975 -1.92794 -0.592731 0
M  V30 1286 C 121.288 -0.957478 -1.70563 0
M  V30 1287 O 122.494 -1.20417 -2.43335 0
M  V30 1288 C 120.95 -3.42495 -1.10569 0
M  V30 1289 C 120.558 -4.47994 -0.0236121 0
M  V30 1290 C 122.302 -3.86864 -1.74748 0
M  V30 1291 C 120.209 -5.88829 -0.550803 0
M  V30 1292 H 119.139 -0.719591 -0.225177 0
M  V30 1293 H 121.79 -1.82902 0.147978 0
M  V30 1294 H 120.172 -3.47471 -1.89947 0
M  V30 1295 H 121.346 -4.54637 0.751099 0
M  V30 1296 H 119.661 -4.13113 0.522159 0
M  V30 1297 H 122.258 -4.8947 -2.15229 0
M  V30 1298 H 122.601 -3.24417 -2.60882 0
M  V30 1299 H 123.134 -3.84504 -1.01986 0
M  V30 1300 H 119.873 -6.54929 0.273457 0
M  V30 1301 H 119.393 -5.85698 -1.29296 0
M  V30 1302 H 121.072 -6.38811 -1.02613 0
M  V30 1303 N 121.204 0.198386 -1.56346 0
M  V30 1304 C 122.481 0.944982 -1.71258 0
M  V30 1305 C 122.861 2.0151 -0.629048 0
M  V30 1306 O 122.209 2.25639 0.360473 0
M  V30 1307 C 122.419 1.5344 -3.1346 0
M  V30 1308 C 123.767 2.01778 -3.73591 0
M  V30 1309 O 124.791 1.63288 -3.16568 0
M  V30 1310 O 123.65 2.72594 -4.73661 0
M  V30 1311 H 120.744 0.442939 -0.69838 0
M  V30 1312 H 123.29 0.188342 -1.68652 0
M  V30 1313 H 122.062 0.762869 -3.83792 0
M  V30 1314 H 121.685 2.35596 -3.20282 0
M  V30 1315 N 122.682 1.50554 0.465978 0
M  V30 1316 C 123.615 1.64436 1.58227 0
M  V30 1317 C 124.593 0.492367 1.54966 0
M  V30 1318 O 125.777 0.712536 1.74514 0
M  V30 1319 C 122.904 1.63165 2.96808 0
M  V30 1320 C 121.95 2.83987 3.18204 0
M  V30 1321 S 122.783 4.45219 2.97557 0
M  V30 1322 C 123.939 4.46649 4.3847 0
M  V30 1323 H 124.172 2.58861 1.46213 0
M  V30 1324 H 121.705 1.3988 0.653678 0
M  V30 1325 H 123.663 1.63116 3.76701 0
M  V30 1326 H 122.324 0.69967 3.06208 0
M  V30 1327 H 121.517 2.79416 4.19455 0
M  V30 1328 H 121.119 2.81629 2.46092 0
M  V30 1329 H 123.411 4.20526 5.31191 0
M  V30 1330 H 124.354 5.48295 4.48082 0
M  V30 1331 H 124.762 3.76296 4.20787 0
M  V30 1332 N 124.16 -0.719506 1.40217 0
M  V30 1333 C 125.388 -1.50864 1.41589 0
M  V30 1334 C 125.803 -1.88794 0.0145275 0
M  V30 1335 O 125.16 -1.55174 -0.960594 0
M  V30 1336 C 125.211 -2.78646 2.30302 0
M  V30 1337 O 124.932 -2.42321 3.64983 0
M  V30 1338 C 126.433 -3.72569 2.40224 0
M  V30 1339 H 123.653 -0.465709 0.48307 0
M  V30 1340 H 126.197 -0.88785 1.84221 0
M  V30 1341 H 124.352 -3.37019 1.91042 0
M  V30 1342 H 124.766 -3.24514 4.12057 0
M  V30 1343 H 126.24 -4.5908 3.06512 0
M  V30 1344 H 126.717 -4.15403 1.42608 0
M  V30 1345 H 127.323 -3.20109 2.80019 0
M  V30 1346 N 125.638 -1.25649 -0.95132 0
M  V30 1347 C 126.601 -1.06399 -2.03007 0
M  V30 1348 C 127.601 -0.0156794 -1.60792 0
M  V30 1349 O 128.791 -0.25817 -1.72276 0
M  V30 1350 C 125.923 -0.616184 -3.35285 0
M  V30 1351 H 127.116 -2.02164 -2.21517 0
M  V30 1352 H 124.669 -1.08103 -1.12887 0
M  V30 1353 H 125.404 0.343917 -3.22471 0
M  V30 1354 H 125.189 -1.37301 -3.67275 0
M  V30 1355 H 126.679 -0.503032 -4.14559 0
M  V30 1356 N 127.117 1.15442 -1.07289 0
M  V30 1357 C 128.05 2.19135 -0.636798 0
M  V30 1358 C 129.028 1.58884 0.34562 0
M  V30 1359 O 130.212 1.86805 0.252195 0
M  V30 1360 C 127.339 3.38638 0.0650014 0
M  V30 1361 C 126.385 4.17412 -0.87576 0
M  V30 1362 S 127.218 4.79882 -2.37642 0
M  V30 1363 C 128.374 6.02753 -1.6864 0
M  V30 1364 H 128.607 2.55787 -1.51526 0
M  V30 1365 H 126.14 1.26394 -0.886793 0
M  V30 1366 H 128.098 4.07873 0.463664 0
M  V30 1367 H 126.759 3.00331 0.919801 0
M  V30 1368 H 125.952 5.02909 -0.33143 0
M  V30 1369 H 125.554 3.53722 -1.21478 0
M  V30 1370 H 127.846 6.70113 -0.997753 0
M  V30 1371 H 128.789 6.61754 -2.51967 0
M  V30 1372 H 129.197 5.52355 -1.16465 0
M  V30 1373 N 128.595 0.856903 1.32268 0
M  V30 1374 C 129.542 0.301172 2.28827 0
M  V30 1375 C 130.512 -0.593104 1.5515 0
M  V30 1376 O 131.697 -0.527537 1.83362 0
M  V30 1377 C 128.837 -0.502523 3.41422 0
M  V30 1378 C 127.95 0.417797 4.29975 0
M  V30 1379 C 127.085 -0.398749 5.29701 0
M  V30 1380 C 126.124 0.518827 6.09897 0
M  V30 1381 N 125.261 -0.260674 7.01616 0
M  V30 1382 H 130.101 1.12983 2.75751 0
M  V30 1383 H 127.638 0.568582 1.35667 0
M  V30 1384 H 129.596 -0.984141 4.05426 0
M  V30 1385 H 128.226 -1.29599 2.95642 0
M  V30 1386 H 127.278 1.01781 3.66531 0
M  V30 1387 H 128.59 1.12191 4.86019 0
M  V30 1388 H 127.744 -0.943435 5.9932 0
M  V30 1389 H 126.483 -1.13622 4.7428 0
M  V30 1390 H 125.488 1.07538 5.39181 0
M  V30 1391 H 126.713 1.25495 6.67404 0
M  V30 1392 H 124.659 -0.981198 6.4862 0
M  V30 1393 H 124.576 0.384364 7.55022 0
M  V30 1394 H 125.844 -0.787014 7.75517 0
M  V30 1395 N 130.073 -1.45103 0.615059 0
M  V30 1396 C 131.005 -2.28786 -0.13762 0
M  V30 1397 C 132.018 -1.40376 -0.824525 0
M  V30 1398 O 133.207 -1.64681 -0.688662 0
M  V30 1399 C 130.307 -3.16322 -1.21628 0
M  V30 1400 C 129.48 -4.33054 -0.615039 0
M  V30 1401 C 128.539 -5.01743 -1.58556 0
M  V30 1402 O 127.565 -5.58293 -1.10895 0
M  V30 1403 N 128.767 -5.01714 -2.91998 0
M  V30 1404 H 131.532 -2.94025 0.580483 0
M  V30 1405 H 129.093 -1.55373 0.45507 0
M  V30 1406 H 131.085 -3.59139 -1.86552 0
M  V30 1407 H 129.655 -2.52943 -1.83681 0
M  V30 1408 H 128.875 -3.93627 0.21245 0
M  V30 1409 H 130.163 -5.08431 -0.193704 0
M  V30 1410 H 129.561 -4.57075 -3.33316 0
M  V30 1411 H 128.118 -5.48371 -3.52325 0
M  V30 1412 N 131.551 -0.354651 -1.53558 0
M  V30 1413 C 132.781 0.239167 -2.05211 0
M  V30 1414 C 133.189 1.43879 -1.22863 0
M  V30 1415 O 132.532 1.81857 -0.259565 0
M  V30 1416 C 132.594 0.707251 -3.52474 0
M  V30 1417 C 132.258 -0.374212 -4.55465 0
M  V30 1418 C 133.255 -1.22054 -5.0537 0
M  V30 1419 C 130.94 -0.531323 -4.99482 0
M  V30 1420 C 132.934 -2.20942 -5.97882 0
M  V30 1421 C 130.621 -1.52358 -5.91802 0
M  V30 1422 C 131.619 -2.36108 -6.40892 0
M  V30 1423 O 131.307 -3.33643 -7.31394 0
M  V30 1424 H 131.039 0.0479716 -0.674296 0
M  V30 1425 H 133.593 -0.508121 -1.99016 0
M  V30 1426 H 131.823 1.50596 -3.56171 0
M  V30 1427 H 133.512 1.22285 -3.87042 0
M  V30 1428 H 134.278 -1.1103 -4.7212 0
M  V30 1429 H 130.157 0.110738 -4.60867 0
M  V30 1430 H 133.701 -2.86348 -6.36121 0
M  V30 1431 H 129.598 -1.63434 -6.24467 0
M  V30 1432 H 130.366 -3.29244 -7.4936 0
M  V30 1433 N 133.029 1.57378 -0.0835403 0
M  V30 1434 C 134.277 1.93547 0.581718 0
M  V30 1435 C 134.598 0.96524 1.69435 0
M  V30 1436 O 133.868 0.0153369 1.95894 0
M  V30 1437 H 132.448 0.714521 0.217874 0
M  V30 1438 H 135.11 1.94366 -0.144158 0
M  V30 1439 H 134.206 2.95665 0.999423 0
M  V30 1440 N 134.507 -0.190092 1.56449 0
M  V30 1441 C 135.756 -0.907912 1.80111 0
M  V30 1442 C 136.069 -1.84214 0.657619 0
M  V30 1443 O 137.275 -2.60094 0.778663 0
M  V30 1444 C 135.731 -1.66485 3.19078 0
M  V30 1445 C 135.339 -0.7752 4.41242 0
M  V30 1446 C 137.083 -2.37201 3.52045 0
M  V30 1447 C 134.99 -1.53129 5.71231 0
M  V30 1448 H 133.92 -0.34276 0.671589 0
M  V30 1449 H 136.571 -0.161109 1.82791 0
M  V30 1450 H 134.953 -2.45572 3.10661 0
M  V30 1451 H 136.127 -0.0226298 4.60794 0
M  V30 1452 H 134.442 -0.178627 4.16017 0
M  V30 1453 H 137.039 -2.94329 4.46402 0
M  V30 1454 H 137.382 -3.11632 2.76028 0
M  V30 1455 H 137.915 -1.65075 3.61932 0
M  V30 1456 H 134.654 -0.82967 6.50228 0
M  V30 1457 H 134.174 -2.25767 5.55688 0
M  V30 1458 H 135.853 -2.08377 6.12526 0
M  V30 1459 N 135.985 -1.50799 -0.457987 0
M  V30 1460 C 137.401 -1.38515 -0.792819 0
M  V30 1461 C 137.601 -0.451409 -1.96379 0
M  V30 1462 O 136.657 0.10112 -2.52297 0
M  V30 1463 C 137.97 -2.80149 -1.09258 0
M  V30 1464 C 139.518 -2.89156 -1.19825 0
M  V30 1465 C 139.993 -4.31651 -1.53106 0
M  V30 1466 N 141.484 -4.34662 -1.60072 0
M  V30 1467 C 142.219 -5.41928 -1.87354 0
M  V30 1468 N 141.715 -6.59384 -2.12568 0
M  V30 1469 N 143.508 -5.29385 -1.88965 0
M  V30 1470 H 135.659 -2.10073 0.313511 0
M  V30 1471 H 137.922 -0.944803 0.0777862 0
M  V30 1472 H 137.628 -3.50374 -0.305084 0
M  V30 1473 H 137.502 -3.18204 -2.02549 0
M  V30 1474 H 139.889 -2.19141 -1.97639 0
M  V30 1475 H 139.97 -2.54626 -0.244821 0
M  V30 1476 H 139.614 -5.02208 -0.758266 0
M  V30 1477 H 139.544 -4.63678 -2.49621 0
M  V30 1478 H 142.035 -3.49973 -1.42573 0
M  V30 1479 H 142.348 -7.36934 -2.32696 0
M  V30 1480 H 140.693 -6.62535 -2.09933 0
M  V30 1481 H 143.884 -4.36616 -1.68772 0
M  V30 1482 H 144.057 -6.13066 -2.09891 0
M  V30 1483 N 137.463 0.71206 -1.40597 0
M  V30 1484 C 138.393 1.83889 -1.43899 0
M  V30 1485 C 139.374 1.67442 -0.299504 0
M  V30 1486 O 140.559 1.87421 -0.508624 0
M  V30 1487 C 137.689 3.21877 -1.30431 0
M  V30 1488 C 136.643 3.53002 -2.42019 0
M  V30 1489 C 135.969 4.90172 -2.13626 0
M  V30 1490 C 137.269 3.53643 -3.84362 0
M  V30 1491 H 138.963 1.81383 -2.38203 0
M  V30 1492 H 136.509 0.871237 -1.14654 0
M  V30 1493 H 138.462 4.00404 -1.31357 0
M  V30 1494 H 137.186 3.24968 -0.326049 0
M  V30 1495 H 135.845 2.76818 -2.40349 0
M  V30 1496 H 135.493 4.89869 -1.14182 0
M  V30 1497 H 135.193 5.11962 -2.88389 0
M  V30 1498 H 136.717 5.71028 -2.1624 0
M  V30 1499 H 138.131 4.22203 -3.87837 0
M  V30 1500 H 136.528 3.86961 -4.58673 0
M  V30 1501 H 137.598 2.52954 -4.13693 0
M  V30 1502 N 138.941 1.26152 0.944643 0
M  V30 1503 C 140.166 1.14363 1.7302 0
M  V30 1504 C 140.591 -0.29772 1.85729 0
M  V30 1505 O 139.949 -1.2157 1.34501 0
M  V30 1506 C 139.997 1.81378 3.11664 0
M  V30 1507 O 139.101 1.10022 3.97453 0
M  V30 1508 H 138.442 0.398694 0.53098 0
M  V30 1509 H 140.972 1.66906 1.18337 0
M  V30 1510 H 140.982 1.88064 3.62072 0
M  V30 1511 H 139.657 2.86237 3.0173 0
M  V30 1512 H 138.234 1.11287 3.55907 0
M  V30 1513 N 140.419 -1.14872 1.07899 0
M  V30 1514 C 141.367 -2.21857 0.698727 0
M  V30 1515 C 142.361 -1.66845 -0.293086 0
M  V30 1516 O 143.567 -1.79321 -0.156204 0
M  V30 1517 H 139.942 -0.722691 0.207899 0
M  V30 1518 H 141.913 -2.51205 1.61054 0
M  V30 1519 C 140.662 -3.47498 0.11858 0
M  V30 1520 H 139.985 -3.90154 0.872914 0
M  V30 1521 H 141.425 -4.23858 -0.109759 0
M  V30 1522 C 139.884 -3.16947 -1.1422 0
M  V30 1523 O 140.414 -3.3426 -2.22785 0
M  V30 1524 N 138.62 -2.70946 -1.05055 0
M  V30 1525 H 138.167 -2.57058 -0.167038 0
M  V30 1526 H 138.125 -2.50879 -1.89491 0
M  V30 1527 N 141.898 -0.863906 -1.31812 0
M  V30 1528 C 143.144 -0.472535 -1.97218 0
M  V30 1529 C 143.477 0.971394 -1.68159 0
M  V30 1530 O 142.752 1.68309 -0.974798 0
M  V30 1531 C 143.035 -0.723054 -3.52766 0
M  V30 1532 C 142.888 -2.21608 -3.91421 0
M  V30 1533 C 144.207 -0.185522 -4.39709 0
M  V30 1534 H 141.326 -0.173158 -0.71637 0
M  V30 1535 H 143.968 -1.08403 -1.56041 0
M  V30 1536 H 142.118 -0.202577 -3.87971 0
M  V30 1537 H 143.79 -2.80334 -3.66347 0
M  V30 1538 H 142.033 -2.691 -3.40246 0
M  V30 1539 H 142.704 -2.34203 -4.99853 0
M  V30 1540 H 145.18 -0.630726 -4.11292 0
M  V30 1541 H 144.056 -0.390306 -5.47511 0
M  V30 1542 H 144.317 0.912229 -4.32586 0
M  V30 1543 N 143.376 1.44774 -0.622745 0
M  V30 1544 C 144.787 1.85546 -0.207226 0
M  V30 1545 C 145.138 1.52093 1.23944 0
M  V30 1546 O 144.263 0.95492 1.94191 0
M  V30 1547 C 144.858 3.36781 -0.369313 0
M  V30 1548 C 143.417 3.76399 -0.00836847 0
M  V30 1549 C 142.564 2.68664 -0.686651 0
M  V30 1550 H 145.515 1.3536 -0.828454 0
M  V30 1551 H 145.536 3.78453 0.394162 0
M  V30 1552 H 145.048 3.61098 -1.42231 0
M  V30 1553 H 143.149 3.57698 1.04322 0
M  V30 1554 H 143.262 4.7732 -0.412584 0
M  V30 1555 H 141.626 2.54404 -0.122777 0
M  V30 1556 H 142.409 2.95815 -1.74208 0
M  V30 1557 N 144.854 0.36279 1.53368 0
M  V30 1558 C 145.817 -0.472679 2.24273 0
M  V30 1559 C 146.817 -1.012 1.24961 0
M  V30 1560 O 148.007 -0.898194 1.49259 0
M  V30 1561 C 145.139 -1.66039 2.97731 0
M  V30 1562 H 146.332 0.14773 2.99536 0
M  V30 1563 H 143.885 0.114434 1.55881 0
M  V30 1564 H 144.62 -2.31896 2.26704 0
M  V30 1565 H 144.405 -1.28066 3.70596 0
M  V30 1566 H 145.895 -2.25252 3.51641 0
M  V30 1567 N 146.332 -1.57332 0.0918853 0
M  V30 1568 C 147.562 -1.98286 -0.580205 0
M  V30 1569 C 147.97 -0.969713 -1.6246 0
M  V30 1570 O 147.313 0.0493501 -1.83634 0
M  V30 1571 C 147.375 -3.35603 -1.28882 0
M  V30 1572 C 147.039 -4.55285 -0.395559 0
M  V30 1573 C 148.036 -5.18687 0.355002 0
M  V30 1574 C 145.721 -5.01314 -0.314556 0
M  V30 1575 C 147.715 -6.26484 1.17458 0
M  V30 1576 C 145.402 -6.08979 0.508677 0
M  V30 1577 C 146.4 -6.71429 1.2519 0
M  V30 1578 O 146.088 -7.77018 2.06151 0
M  V30 1579 H 145.82 -0.656678 -0.160466 0
M  V30 1580 H 148.374 -2.04721 0.16688 0
M  V30 1581 H 146.604 -3.25842 -2.08241 0
M  V30 1582 H 148.293 -3.61026 -1.85512 0
M  V30 1583 H 149.059 -4.84058 0.302134 0
M  V30 1584 H 144.938 -4.5247 -0.882697 0
M  V30 1585 H 148.482 -6.75159 1.75518 0
M  V30 1586 H 144.379 -6.4304 0.563037 0
M  V30 1587 H 145.147 -7.93991 1.98799 0
M  V30 1588 N 147.81 0.181792 -1.56548 0
M  V30 1589 C 149.035 0.920019 -1.85877 0
M  V30 1590 C 149.46 1.75494 -0.677021 0
M  V30 1591 O 148.818 1.77399 0.374056 0
M  V30 1592 C 148.866 1.78112 -3.13542 0
M  V30 1593 O 147.97 2.88152 -2.95029 0
M  V30 1594 H 147.311 0.258334 -0.611686 0
M  V30 1595 H 149.841 0.183092 -2.03779 0
M  V30 1596 H 149.851 2.18314 -3.44678 0
M  V30 1597 H 148.526 1.16777 -3.99169 0
M  V30 1598 H 147.103 2.51609 -2.75222 0
M  V30 1599 N 149.288 1.51039 0.449983 0
M  V30 1600 C 150.699 1.557 1.03026 0
M  V30 1601 C 151.05 0.372939 1.92623 0
M  V30 1602 O 150.175 -0.511771 2.10261 0
M  V30 1603 C 150.77 2.82171 1.87523 0
M  V30 1604 C 149.329 2.89444 2.40622 0
M  V30 1605 C 148.476 2.50228 1.19504 0
M  V30 1606 H 151.427 1.56999 0.231745 0
M  V30 1607 H 151.448 2.65219 2.72835 0
M  V30 1608 H 150.96 3.68331 1.22286 0
M  V30 1609 H 149.061 2.07685 3.0935 0
M  V30 1610 H 149.174 3.92816 2.74285 0
M  V30 1611 H 147.538 2.03139 1.53644 0
M  V30 1612 H 148.321 3.38719 0.558972 0
M  V30 1613 N 150.766 -0.704594 1.40972 0
M  V30 1614 C 151.729 -1.80035 1.41845 0
M  V30 1615 C 152.729 -1.57774 0.310474 0
M  V30 1616 O 153.919 -1.64613 0.56992 0
M  V30 1617 C 151.051 -3.18284 1.22098 0
M  V30 1618 H 152.244 -1.80658 2.3938 0
M  V30 1619 H 149.797 -0.911329 1.26982 0
M  V30 1620 H 150.532 -3.23306 0.253672 0
M  V30 1621 H 150.317 -3.35843 2.02366 0
M  V30 1622 H 151.807 -3.98289 1.25522 0
M  V30 1623 N 152.244 -1.26651 -0.937939 0
M  V30 1624 C 153.207 -1.08546 -2.01867 0
M  V30 1625 C 154.207 -0.0327327 -1.60767 0
M  V30 1626 O 155.397 -0.276427 -1.71993 0
M  V30 1627 C 152.529 -0.651711 -3.34613 0
M  V30 1628 H 153.722 -2.04502 -2.1936 0
M  V30 1629 H 151.275 -1.09294 -1.11734 0
M  V30 1630 H 152.01 0.309696 -3.22818 0
M  V30 1631 H 151.795 -1.41189 -3.65798 0
M  V30 1632 H 153.285 -0.546973 -4.14002 0
M  V30 1633 N 153.722 1.14298 -1.08507 0
M  V30 1634 C 154.971 1.84708 -0.810305 0
M  V30 1635 C 155.284 1.83903 0.666271 0
M  V30 1636 O 156.49 2.50112 1.05624 0
M  V30 1637 C 154.946 3.31572 -1.39957 0
M  V30 1638 C 154.554 3.40791 -2.90801 0
M  V30 1639 C 156.298 4.07087 -1.20334 0
M  V30 1640 C 154.205 4.81872 -3.4286 0
M  V30 1641 H 153.135 0.691985 -0.299454 0
M  V30 1642 H 155.786 1.28841 -1.30661 0
M  V30 1643 H 154.168 3.87183 -0.830976 0
M  V30 1644 H 155.342 2.95225 -3.53806 0
M  V30 1645 H 153.657 2.78732 -3.0935 0
M  V30 1646 H 156.254 5.11225 -1.56693 0
M  V30 1647 H 156.597 4.16054 -0.143237 0
M  V30 1648 H 157.13 3.57779 -1.73893 0
M  V30 1649 H 153.869 4.78094 -4.48449 0
M  V30 1650 H 153.389 5.27972 -2.84615 0
M  V30 1651 H 155.068 5.50765 -3.39509 0
M  V30 1652 N 155.201 0.870884 1.31352 0
M  V30 1653 C 156.164 0.332243 2.26779 0
M  V30 1654 C 157.164 -0.517302 1.52252 0
M  V30 1655 O 158.354 -0.326477 1.71113 0
M  V30 1656 C 155.486 -0.528066 3.36785 0
M  V30 1657 H 156.679 1.17469 2.75937 0
M  V30 1658 H 154.232 0.64655 1.423 0
M  V30 1659 H 154.967 -1.39167 2.92922 0
M  V30 1660 H 154.752 0.0802582 3.92018 0
M  V30 1661 H 156.242 -0.897179 4.07849 0
M  V30 1662 N 156.679 -1.44442 0.630414 0
M  V30 1663 C 157.589 -2.34476 -0.0761693 0
M  V30 1664 C 158.605 -1.52576 -0.836449 0
M  V30 1665 O 159.781 -1.85307 -0.788874 0
M  V30 1666 C 156.846 -3.30545 -1.04599 0
M  V30 1667 C 155.907 -4.28352 -0.28516 0
M  V30 1668 C 155.14 -5.19831 -1.20878 0
M  V30 1669 O 155.363 -5.15223 -2.44747 0
M  V30 1670 O 154.297 -5.97892 -0.693491 0
M  V30 1671 H 158.123 -2.96345 0.664324 0
M  V30 1672 H 155.708 -1.44203 0.39061 0
M  V30 1673 H 157.59 -3.89681 -1.60396 0
M  V30 1674 H 156.265 -2.7121 -1.76711 0
M  V30 1675 H 155.172 -3.72764 0.315837 0
M  V30 1676 H 156.505 -4.90605 0.395924 0
M  V30 1677 N 158.157 -0.370918 -1.53173 0
M  V30 1678 C 159.404 0.217102 -2.01333 0
M  V30 1679 C 159.732 1.48338 -1.25802 0
M  V30 1680 O 158.987 1.92698 -0.34146 0
M  V30 1681 C 159.286 0.549696 -3.53147 0
M  V30 1682 C 158.952 -0.622872 -4.46577 0
M  V30 1683 C 157.614 -0.944595 -4.71838 0
M  V30 1684 C 159.966 -1.40819 -5.01816 0
M  V30 1685 C 157.294 -2.05351 -5.49589 0
M  V30 1686 C 159.646 -2.50757 -5.80778 0
M  V30 1687 C 158.31 -2.83458 -6.04324 0
M  V30 1688 H 157.58 0.0794431 -0.736729 0
M  V30 1689 H 160.227 -0.504481 -1.84736 0
M  V30 1690 H 158.532 1.35237 -3.6772 0
M  V30 1691 H 160.229 1.017 -3.87889 0
M  V30 1692 H 156.819 -0.36209 -4.27068 0
M  V30 1693 H 161.003 -1.17289 -4.82242 0
M  V30 1694 H 156.259 -2.3108 -5.6605 0
M  V30 1695 H 160.433 -3.12022 -6.22588 0
M  V30 1696 H 158.06 -3.69508 -6.64355 0
M  V30 1697 N 159.635 1.57281 -0.100228 0
M  V30 1698 C 160.598 2.13158 0.842398 0
M  V30 1699 C 161.598 1.06202 1.20738 0
M  V30 1700 O 162.788 1.32066 1.13597 0
M  V30 1701 C 159.92 2.65639 2.13655 0
M  V30 1702 H 161.113 2.97766 0.357114 0
M  V30 1703 H 158.666 1.5559 0.148823 0
M  V30 1704 H 159.401 1.84566 2.66657 0
M  V30 1705 H 159.186 3.43844 1.88451 0
M  V30 1706 H 160.676 3.08846 2.81077 0
M  V30 1707 N 161.113 -0.173488 1.56642 0
M  V30 1708 C 162.043 -1.2171 1.99271 0
M  V30 1709 C 163.024 -1.46289 0.867959 0
M  V30 1710 O 164.209 -1.5766 1.13388 0
M  V30 1711 C 161.339 -2.55651 2.35074 0
M  V30 1712 C 160.293 -2.45645 3.50489 0
M  V30 1713 C 159.619 -3.84056 3.72028 0
M  V30 1714 C 160.919 -1.96302 4.84007 0
M  V30 1715 H 162.613 -0.86275 2.867 0
M  V30 1716 H 160.159 -0.413571 1.37933 0
M  V30 1717 H 162.112 -3.2886 2.63494 0
M  V30 1718 H 160.836 -2.92869 1.44552 0
M  V30 1719 H 159.495 -1.7489 3.22194 0
M  V30 1720 H 159.143 -4.18664 2.788 0
M  V30 1721 H 158.843 -3.7823 4.49684 0
M  V30 1722 H 160.367 -4.58854 4.02846 0
M  V30 1723 H 161.781 -2.59284 5.11317 0
M  V30 1724 H 160.178 -2.01429 5.65284 0
M  V30 1725 H 161.248 -0.917226 4.76146 0
M  V30 1726 N 162.591 -1.51276 -0.441967 0
M  V30 1727 C 163.819 -1.67516 -1.21434 0
M  V30 1728 C 164.234 -0.37055 -1.85128 0
M  V30 1729 O 163.591 0.650498 -1.70513 0
M  V30 1730 C 163.642 -2.78748 -2.30177 0
M  V30 1731 O 163.363 -4.04154 -1.69089 0
M  V30 1732 C 164.864 -3.06217 -3.20541 0
M  V30 1733 H 162.084 -0.562276 -0.366178 0
M  V30 1734 H 164.628 -1.97666 -0.524244 0
M  V30 1735 H 162.783 -2.5121 -2.94911 0
M  V30 1736 H 163.197 -4.65894 -2.40922 0
M  V30 1737 H 164.671 -3.8764 -3.92987 0
M  V30 1738 H 165.148 -2.18439 -3.81026 0
M  V30 1739 H 165.754 -3.35397 -2.61513 0
M  V30 1740 N 164.069 0.697108 -1.41344 0
M  V30 1741 C 165.346 1.45154 -1.31109 0
M  V30 1742 C 165.726 2.11009 0.0620449 0
M  V30 1743 O 165.074 2.01571 1.07618 0
M  V30 1744 C 165.284 2.47223 -2.46337 0
M  V30 1745 C 166.632 3.1252 -2.87431 0
M  V30 1746 O 167.656 2.57547 -2.46065 0
M  V30 1747 O 166.515 4.12083 -3.58957 0
M  V30 1748 H 163.609 0.646365 -0.515889 0
M  V30 1749 H 166.155 0.727716 -1.53305 0
M  V30 1750 H 164.927 1.97204 -3.37974 0
M  V30 1751 H 164.55 3.27116 -2.2601 0
M  V30 1752 N 165.547 1.27147 0.931209 0
M  V30 1753 C 166.775 1.16082 1.71267 0
M  V30 1754 C 167.19 -0.282772 1.8667 0
M  V30 1755 O 166.547 -1.19283 1.38122 0
M  V30 1756 C 166.598 1.8358 3.11417 0
M  V30 1757 O 166.319 3.22299 2.96741 0
M  V30 1758 C 167.82 1.78597 4.05732 0
M  V30 1759 H 165.04 0.403758 0.535929 0
M  V30 1760 H 167.584 1.67953 1.16671 0
M  V30 1761 H 165.739 1.35623 3.62885 0
M  V30 1762 H 166.153 3.55851 3.85319 0
M  V30 1763 H 167.627 2.30444 5.01597 0
M  V30 1764 H 168.104 0.754564 4.3267 0
M  V30 1765 H 168.71 2.26152 3.60188 0
M  V30 1766 N 167.025 -1.13721 1.09112 0
M  V30 1767 C 167.955 -2.21148 0.749385 0
M  V30 1768 C 168.936 -1.6792 -0.271475 0
M  V30 1769 O 170.121 -1.93693 -0.140251 0
M  V30 1770 C 167.251 -3.46905 0.165659 0
M  V30 1771 C 166.205 -4.13203 1.11567 0
M  V30 1772 C 165.531 -5.33248 0.393809 0
M  V30 1773 C 166.831 -4.60912 2.45678 0
M  V30 1774 H 168.525 -2.4999 1.64758 0
M  V30 1775 H 166.071 -1.20156 0.793626 0
M  V30 1776 H 168.024 -4.21313 -0.085466 0
M  V30 1777 H 166.748 -3.17449 -0.767714 0
M  V30 1778 H 165.407 -3.40758 1.35202 0
M  V30 1779 H 165.055 -5.00054 -0.543599 0
M  V30 1780 H 164.755 -5.78552 1.02721 0
M  V30 1781 H 166.279 -6.10413 0.150908 0
M  V30 1782 H 167.693 -5.26759 2.26269 0
M  V30 1783 H 166.09 -5.16944 3.04776 0
M  V30 1784 H 167.16 -3.75603 3.06677 0
M  V30 1785 N 168.503 -0.877838 -1.30888 0
M  V30 1786 C 169.733 -0.506678 -2.00291 0
M  V30 1787 C 170.141 0.907449 -1.66018 0
M  V30 1788 O 169.484 1.60719 -0.88967 0
M  V30 1789 C 169.546 -0.59323 -3.54572 0
M  V30 1790 C 169.21 -1.97038 -4.12341 0
M  V30 1791 C 170.207 -2.93889 -4.28865 0
M  V30 1792 C 167.892 -2.27383 -4.47886 0
M  V30 1793 C 169.886 -4.19224 -4.80136 0
M  V30 1794 C 167.573 -3.52965 -4.98857 0
M  V30 1795 C 168.571 -4.48701 -5.14934 0
M  V30 1796 O 168.259 -5.72056 -5.64808 0
M  V30 1797 H 167.991 -0.1951 -0.647234 0
M  V30 1798 H 170.545 -1.18301 -1.6791 0
M  V30 1799 H 168.775 0.140057 -3.86446 0
M  V30 1800 H 170.464 -0.234372 -4.05223 0
M  V30 1801 H 171.23 -2.71756 -4.01714 0
M  V30 1802 H 167.109 -1.53639 -4.34645 0
M  V30 1803 H 170.653 -4.93956 -4.92599 0
M  V30 1804 H 166.55 -3.74939 -5.25443 0
M  V30 1805 H 167.318 -5.74337 -5.83163 0
M  V30 1806 N 169.982 1.44106 -0.638065 0
M  V30 1807 C 170.912 2.33448 0.0494287 0
M  V30 1808 C 171.893 1.48606 0.827672 0
M  V30 1809 O 173.078 1.77308 0.792173 0
M  V30 1810 C 170.208 3.31771 1.02691 0
M  V30 1811 C 169.162 4.26485 0.359823 0
M  V30 1812 C 168.488 5.14729 1.44769 0
M  V30 1813 C 169.788 5.17056 -0.738296 0
M  V30 1814 H 171.482 2.91183 -0.696636 0
M  V30 1815 H 169.028 1.40014 -0.336456 0
M  V30 1816 H 170.981 3.93161 1.51666 0
M  V30 1817 H 169.705 2.7226 1.80395 0
M  V30 1818 H 168.364 3.66437 -0.10934 0
M  V30 1819 H 168.012 4.51566 2.21578 0
M  V30 1820 H 167.712 5.78913 1.00668 0
M  V30 1821 H 169.236 5.78991 1.93911 0
M  V30 1822 H 170.65 5.72342 -0.331354 0
M  V30 1823 H 169.047 5.89879 -1.10286 0
M  V30 1824 H 170.117 4.57652 -1.60258 0
M  V30 1825 N 171.46 0.379036 1.52974 0
M  V30 1826 C 172.39 -0.452706 2.29069 0
M  V30 1827 C 173.371 -1.07237 1.32039 0
M  V30 1828 O 174.556 -1.08708 1.60923 0
M  V30 1829 C 171.686 -1.5856 3.08992 0
M  V30 1830 C 170.64 -1.0925 4.13822 0
M  V30 1831 C 169.966 -2.31668 4.81907 0
M  V30 1832 C 171.266 -0.167702 5.22031 0
M  V30 1833 H 172.96 0.182181 2.98845 0
M  V30 1834 H 170.506 0.0890592 1.43724 0
M  V30 1835 H 172.459 -2.1742 3.6098 0
M  V30 1836 H 171.183 -2.24792 2.36931 0
M  V30 1837 H 169.842 -0.526494 3.628 0
M  V30 1838 H 169.49 -2.96386 4.06404 0
M  V30 1839 H 169.19 -1.9934 5.52754 0
M  V30 1840 H 170.714 -2.91189 5.36695 0
M  V30 1841 H 172.128 -0.664186 5.6944 0
M  V30 1842 H 170.525 0.0653265 6.00064 0
M  V30 1843 H 171.595 0.786347 4.78482 0
M  V30 1844 N 172.938 -1.57226 0.108567 0
M  V30 1845 C 174.354 -1.5766 -0.248058 0
M  V30 1846 C 174.554 -1.12063 -1.67464 0
M  V30 1847 O 173.61 -0.803236 -2.39383 0
M  V30 1848 C 174.923 -3.0069 -0.0242287 0
M  V30 1849 C 176.471 -3.12868 -0.0909372 0
M  V30 1850 C 176.946 -4.57879 0.105067 0
M  V30 1851 N 178.437 -4.63172 0.0506846 0
M  V30 1852 C 179.172 -5.73126 0.177396 0
M  V30 1853 N 178.668 -6.91866 0.359696 0
M  V30 1854 N 180.461 -5.61977 0.117709 0
M  V30 1855 H 172.612 -1.85169 1.04049 0
M  V30 1856 H 174.875 -0.85529 0.40888 0
M  V30 1857 H 174.581 -3.38299 0.961604 0
M  V30 1858 H 174.455 -3.6945 -0.76068 0
M  V30 1859 H 176.842 -2.75124 -1.06729 0
M  V30 1860 H 176.923 -2.46672 0.677225 0
M  V30 1861 H 176.567 -4.96321 1.07834 0
M  V30 1862 H 176.497 -5.22153 -0.682954 0
M  V30 1863 H 178.988 -3.778 -0.0871266 0
M  V30 1864 H 179.301 -7.71503 0.447529 0
M  V30 1865 H 177.646 -6.93874 0.395536 0
M  V30 1866 H 180.837 -4.68094 -0.0236741 0
M  V30 1867 H 181.01 -6.47627 0.219905 0
M  V30 1868 N 174.416 0.165178 -1.56732 0
M  V30 1869 C 175.364 1.22369 -1.97809 0
M  V30 1870 C 176.358 1.45488 -0.867741 0
M  V30 1871 O 177.564 1.45995 -1.05288 0
M  V30 1872 H 173.939 0.411486 -0.629431 0
M  V30 1873 H 175.91 0.850425 -2.86025 0
M  V30 1874 C 174.659 2.55403 -2.35934 0
M  V30 1875 H 173.982 2.38438 -3.20916 0
M  V30 1876 H 175.422 3.2814 -2.68514 0
M  V30 1877 C 173.881 3.14611 -1.20506 0
M  V30 1878 O 174.411 3.98626 -0.496016 0
M  V30 1879 N 172.617 2.7379 -0.97403 0
M  V30 1880 H 172.164 2.0557 -1.55238 0
M  V30 1881 H 172.122 3.1374 -0.203573 0
M  V30 1882 N 175.894 1.51508 0.433938 0
M  V30 1883 C 176.827 1.67756 1.54704 0
M  V30 1884 C 177.805 0.525127 1.53887 0
M  V30 1885 O 178.989 0.749393 1.72963 0
M  V30 1886 C 176.116 1.69424 2.9328 0
M  V30 1887 C 175.162 2.90673 3.12108 0
M  V30 1888 S 175.995 4.51431 2.88046 0
M  V30 1889 C 177.151 4.55849 4.28897 0
M  V30 1890 H 177.384 2.61904 1.40689 0
M  V30 1891 H 174.917 1.41235 0.62386 0
M  V30 1892 H 176.875 1.7107 3.73156 0
M  V30 1893 H 175.536 0.764464 3.04655 0
M  V30 1894 H 174.729 2.88251 4.13434 0
M  V30 1895 H 174.331 2.86786 2.40062 0
M  V30 1896 H 176.623 4.31699 5.22152 0
M  V30 1897 H 177.566 5.57676 4.36351 0
M  V30 1898 H 177.974 3.85137 4.12711 0
M  V30 1899 N 177.372 -0.689602 1.41712 0
M  V30 1900 C 178.62 -1.4468 1.4111 0
M  V30 1901 C 178.941 -1.94986 0.0232196 0
M  V30 1902 O 178.211 -1.72097 -0.935913 0
M  V30 1903 H 176.791 -0.536847 0.519427 0
M  V30 1904 H 179.453 -0.815825 1.77004 0
M  V30 1905 H 178.549 -2.30706 2.10193 0
M  V30 1906 N 178.85 -1.27639 -0.924453 0
M  V30 1907 C 179.797 -1.10644 -2.0255 0
M  V30 1908 C 180.767 -0.00658438 -1.66099 0
M  V30 1909 O 181.952 -0.16952 -1.90045 0
M  V30 1910 C 179.092 -0.76309 -3.36557 0
M  V30 1911 C 178.205 -1.94091 -3.85944 0
M  V30 1912 C 177.34 -1.53914 -5.08413 0
M  V30 1913 C 176.379 -2.68425 -5.50104 0
M  V30 1914 N 175.516 -2.28815 -6.63768 0
M  V30 1915 H 180.356 -2.04858 -2.16419 0
M  V30 1916 H 177.893 -1.01974 -1.06017 0
M  V30 1917 H 179.851 -0.544822 -4.13627 0
M  V30 1918 H 178.481 0.142102 -3.22487 0
M  V30 1919 H 177.533 -2.27162 -3.05125 0
M  V30 1920 H 178.845 -2.7998 -4.12811 0
M  V30 1921 H 177.999 -1.28231 -5.92994 0
M  V30 1922 H 176.738 -0.651391 -4.8333 0
M  V30 1923 H 175.743 -2.94819 -4.64071 0
M  V30 1924 H 176.968 -3.57826 -5.7718 0
M  V30 1925 H 174.914 -1.42495 -6.40337 0
M  V30 1926 H 174.831 -3.08242 -6.90306 0
M  V30 1927 H 176.099 -2.06387 -7.51681 0
M  V30 1928 N 180.328 1.1314 -1.09713 0
M  V30 1929 C 181.574 1.84757 -0.836224 0
M  V30 1930 C 181.907 1.8347 0.636598 0
M  V30 1931 O 181.182 1.27491 1.46889 0
M  V30 1932 C 181.465 3.32782 -1.37578 0
M  V30 1933 C 181.318 3.42567 -2.91493 0
M  V30 1934 C 182.637 4.28307 -1.01198 0
M  V30 1935 H 179.756 0.67082 -0.305236 0
M  V30 1936 H 182.398 1.3278 -1.35903 0
M  V30 1937 H 180.548 3.77177 -0.931097 0
M  V30 1938 H 182.22 3.06862 -3.44432 0
M  V30 1939 H 180.463 2.83349 -3.28475 0
M  V30 1940 H 181.134 4.46674 -3.24324 0
M  V30 1941 H 183.61 3.91999 -1.39556 0
M  V30 1942 H 182.486 5.30307 -1.41653 0
M  V30 1943 H 182.747 4.42029 0.0794833 0
M  V30 1944 N 181.806 0.884767 1.30421 0
M  V30 1945 C 182.738 0.308655 2.27112 0
M  V30 1946 C 183.751 -0.536655 1.53701 0
M  V30 1947 O 184.94 -0.35624 1.74909 0
M  V30 1948 C 182.04 -0.579782 3.33904 0
M  V30 1949 C 181.213 0.236417 4.36761 0
M  V30 1950 C 180.272 -0.582482 5.22966 0
M  V30 1951 O 179.298 -0.00525502 5.692 0
M  V30 1952 N 180.5 -1.89163 5.48815 0
M  V30 1953 H 183.265 1.13964 2.77186 0
M  V30 1954 H 180.826 0.747731 1.43599 0
M  V30 1955 H 182.818 -1.13366 3.88497 0
M  V30 1956 H 181.388 -1.31144 2.83761 0
M  V30 1957 H 180.608 0.97174 3.82035 0
M  V30 1958 H 181.896 0.795924 5.02536 0
M  V30 1959 H 181.294 -2.38352 5.13035 0
M  V30 1960 H 179.851 -2.39296 6.06284 0
M  V30 1961 N 183.284 -1.43765 0.645699 0
M  V30 1962 C 184.247 -2.29163 -0.0409488 0
M  V30 1963 C 185.247 -1.41813 -0.757996 0
M  V30 1964 O 186.437 -1.63527 -0.600382 0
M  V30 1965 C 183.569 -3.23716 -1.06869 0
M  V30 1966 H 184.762 -2.91366 0.710345 0
M  V30 1967 H 182.315 -1.5092 0.406547 0
M  V30 1968 H 183.05 -2.66393 -1.84947 0
M  V30 1969 H 182.835 -3.88105 -0.558277 0
M  V30 1970 H 184.325 -3.87831 -1.54845 0
M  V30 1971 N 184.763 -0.387143 -1.52771 0
M  V30 1972 C 185.695 0.484089 -2.2403 0
M  V30 1973 C 186.708 1.02849 -1.26198 0
M  V30 1974 O 187.897 0.931186 -1.52286 0
M  V30 1975 C 184.997 1.68337 -2.94136 0
M  V30 1976 C 184.17 1.26672 -4.18656 0
M  V30 1977 C 183.229 2.33045 -4.7178 0
M  V30 1978 O 182.255 1.94541 -5.34923 0
M  V30 1979 N 183.457 3.64929 -4.5145 0
M  V30 1980 H 186.222 -0.126404 -2.99433 0
M  V30 1981 H 183.783 -0.213392 -1.60488 0
M  V30 1982 H 185.775 2.39019 -3.26577 0
M  V30 1983 H 184.345 2.20025 -2.22053 0
M  V30 1984 H 183.565 0.388878 -3.92277 0
M  V30 1985 H 184.853 0.964964 -4.99566 0
M  V30 1986 H 184.251 3.98974 -4.01044 0
M  V30 1987 H 182.808 4.31651 -4.88386 0
M  V30 1988 N 186.241 1.57166 -0.116904 0
M  V30 1989 C 187.171 2.18222 0.830759 0
M  V30 1990 C 188.152 1.12167 1.27877 0
M  V30 1991 O 189.337 1.40394 1.34176 0
M  V30 1992 C 186.467 2.77996 2.08172 0
M  V30 1993 C 185.421 3.89614 1.77157 0
M  V30 1994 C 184.747 4.36187 3.09265 0
M  V30 1995 C 186.047 5.1181 1.04151 0
M  V30 1996 H 187.741 2.97664 0.321992 0
M  V30 1997 H 185.287 1.4318 0.153434 0
M  V30 1998 H 187.24 3.19366 2.74924 0
M  V30 1999 H 185.964 1.9584 2.6137 0
M  V30 2000 H 184.623 3.48816 1.12796 0
M  V30 2001 H 184.271 3.50893 3.60393 0
M  V30 2002 H 183.971 5.11455 2.89288 0
M  V30 2003 H 185.495 4.80207 3.77139 0
M  V30 2004 H 186.909 5.50214 1.61052 0
M  V30 2005 H 185.306 5.92648 0.942762 0
M  V30 2006 H 186.376 4.84892 0.0279022 0
M  V30 2007 N 187.719 -0.156864 1.56817 0
M  V30 2008 C 188.651 -1.21883 1.94106 0
M  V30 2009 C 189.664 -1.3971 0.835754 0
M  V30 2010 O 190.853 -1.39457 1.11418 0
M  V30 2011 C 187.953 -2.58527 2.19127 0
M  V30 2012 C 187.126 -2.61809 3.50393 0
M  V30 2013 C 186.185 -3.7992 3.64071 0
M  V30 2014 O 185.211 -3.65249 4.36557 0
M  V30 2015 N 186.413 -4.96973 2.99997 0
M  V30 2016 H 189.178 -0.901974 2.85805 0
M  V30 2017 H 186.739 -0.346513 1.58148 0
M  V30 2018 H 188.731 -3.36034 2.25529 0
M  V30 2019 H 187.301 -2.82545 1.33742 0
M  V30 2020 H 186.521 -1.7029 3.5552 0
M  V30 2021 H 187.809 -2.61024 4.36742 0
M  V30 2022 H 187.207 -5.11794 2.41004 0
M  V30 2023 H 185.764 -5.7229 3.11974 0
M  V30 2024 N 189.197 -1.51736 -0.425897 0
M  V30 2025 C 190.16 -1.73271 -1.50032 0
M  V30 2026 C 191.16 -0.602639 -1.4908 0
M  V30 2027 O 192.35 -0.87033 -1.509 0
M  V30 2028 C 189.482 -1.79969 -2.89523 0
M  V30 2029 H 190.675 -2.69172 -1.32237 0
M  V30 2030 H 188.228 -1.41899 -0.65532 0
M  V30 2031 H 188.963 -0.859241 -3.1271 0
M  V30 2032 H 188.748 -2.62109 -2.91619 0
M  V30 2033 H 190.238 -1.9843 -3.67444 0
M  V30 2034 N 190.675 0.682077 -1.42076 0
M  V30 2035 C 191.923 1.4393 -1.41876 0
M  V30 2036 C 192.244 1.94971 -0.0335599 0
M  V30 2037 O 191.514 1.72591 0.926773 0
M  V30 2038 H 190.094 0.534085 -0.522267 0
M  V30 2039 H 192.756 0.806427 -1.77434 0
M  V30 2040 H 191.852 2.29588 -2.11414 0
M  V30 2041 N 192.153 1.28127 0.917671 0
M  V30 2042 C 193.43 1.05761 1.64542 0
M  V30 2043 C 193.81 -0.404344 2.07191 0
M  V30 2044 O 193.158 -1.38963 1.81388 0
M  V30 2045 C 193.368 2.02857 2.83989 0
M  V30 2046 C 194.716 2.32786 3.551 0
M  V30 2047 O 195.74 2.0091 2.94132 0
M  V30 2048 O 194.599 2.87169 4.64969 0
M  V30 2049 H 191.693 0.403916 0.721652 0
M  V30 2050 H 194.239 1.39431 0.967322 0
M  V30 2051 H 193.011 3.01407 2.49538 0
M  V30 2052 H 192.634 1.69809 3.59514 0
M  V30 2053 N 193.631 -1.12557 1.10312 0
M  V30 2054 C 194.861 -1.87592 0.865617 0
M  V30 2055 C 195.269 -1.79851 -0.587389 0
M  V30 2056 O 194.612 -1.16949 -1.41664 0
M  V30 2057 C 194.674 -3.37665 1.23381 0
M  V30 2058 C 194.338 -3.69181 2.69359 0
M  V30 2059 C 195.335 -3.67652 3.67597 0
M  V30 2060 C 193.02 -3.98555 3.05711 0
M  V30 2061 C 195.014 -3.95053 5.00212 0
M  V30 2062 C 192.701 -4.25616 4.38514 0
M  V30 2063 C 193.699 -4.23851 5.35574 0
M  V30 2064 O 193.387 -4.50242 6.65986 0
M  V30 2065 H 193.119 -0.600442 0.310557 0
M  V30 2066 H 195.673 -1.4335 1.47105 0
M  V30 2067 H 193.903 -3.82454 0.571467 0
M  V30 2068 H 195.592 -3.94041 0.973994 0
M  V30 2069 H 196.358 -3.45024 3.40857 0
M  V30 2070 H 192.237 -3.99071 2.30789 0
M  V30 2071 H 195.781 -3.93591 5.75962 0
M  V30 2072 H 191.678 -4.47718 4.64994 0
M  V30 2073 H 192.446 -4.67867 6.71597 0
M  V30 2074 N 195.109 -0.891671 -1.2995 0
M  V30 2075 C 196.019 -0.367691 -2.31701 0
M  V30 2076 C 197.035 0.533486 -1.6562 0
M  V30 2077 O 198.211 0.424997 -1.96865 0
M  V30 2078 C 195.276 0.403406 -3.44345 0
M  V30 2079 C 194.337 -0.528328 -4.26037 0
M  V30 2080 C 193.57 0.206063 -5.33302 0
M  V30 2081 O 193.793 1.43119 -5.52153 0
M  V30 2082 O 192.727 -0.447281 -6.00236 0
M  V30 2083 H 196.553 -1.21163 -2.78484 0
M  V30 2084 H 194.138 -0.655725 -1.34241 0
M  V30 2085 H 196.02 0.839753 -4.12948 0
M  V30 2086 H 194.695 1.22354 -2.99685 0
M  V30 2087 H 193.602 -1.01362 -3.60106 0
M  V30 2088 H 194.935 -1.31465 -4.74318 0
M  V30 2089 N 196.587 1.43421 -0.653314 0
M  V30 2090 C 197.534 2.30768 0.0382271 0
M  V30 2091 C 198.504 1.44755 0.814576 0
M  V30 2092 O 199.689 1.73624 0.791162 0
M  V30 2093 C 196.829 3.30336 0.998599 0
M  V30 2094 C 195.942 4.31448 0.218342 0
M  V30 2095 C 195.077 5.18098 1.17252 0
M  V30 2096 C 194.116 6.10902 0.382702 0
M  V30 2097 N 193.253 6.90176 1.28848 0
M  V30 2098 H 198.093 2.89357 -0.712511 0
M  V30 2099 H 195.63 1.42548 -0.363128 0
M  V30 2100 H 197.588 3.86572 1.56901 0
M  V30 2101 H 196.218 2.73397 1.71621 0
M  V30 2102 H 195.27 3.77506 -0.46836 0
M  V30 2103 H 196.582 4.97227 -0.395812 0
M  V30 2104 H 195.736 5.7896 1.81356 0
M  V30 2105 H 194.475 4.52444 1.82058 0
M  V30 2106 H 193.48 5.49128 -0.27169 0
M  V30 2107 H 194.705 6.78598 -0.260957 0
M  V30 2108 H 192.651 6.27171 1.92334 0
M  V30 2109 H 192.568 7.52478 0.728887 0
M  V30 2110 H 193.836 7.55543 1.91766 0
M  V30 2111 N 198.065 0.39524 1.52563 0
M  V30 2112 C 199.028 -0.425001 2.25225 0
M  V30 2113 C 200.028 -0.985266 1.27079 0
M  V30 2114 O 201.218 -0.866332 1.5113 0
M  V30 2115 C 198.35 -1.59686 3.01186 0
M  V30 2116 H 199.543 0.211233 2.99155 0
M  V30 2117 H 197.096 0.147472 1.55603 0
M  V30 2118 H 197.831 -2.27035 2.31572 0
M  V30 2119 H 197.616 -1.20176 3.73229 0
M  V30 2120 H 199.106 -2.17743 3.5634 0
M  V30 2121 N 199.544 -1.57102 0.125237 0
M  V30 2122 C 200.792 -1.95021 -0.530198 0
M  V30 2123 C 201.113 -1.00982 -1.66816 0
M  V30 2124 O 200.383 -0.0672693 -1.95784 0
M  V30 2125 H 198.963 -0.720046 -0.198853 0
M  V30 2126 H 201.625 -1.93916 0.19564 0
M  V30 2127 H 200.721 -2.98211 -0.920681 0
M  V30 2128 N 201.022 0.148545 -1.56898 0
M  V30 2129 C 202.25 0.876389 -1.87422 0
M  V30 2130 C 202.665 1.74809 -0.713256 0
M  V30 2131 O 202.022 1.79725 0.317025 0
M  V30 2132 C 202.073 1.73438 -3.17178 0
M  V30 2133 O 201.794 0.897809 -4.28802 0
M  V30 2134 C 203.295 2.56993 -3.61205 0
M  V30 2135 H 200.515 0.253489 -0.621277 0
M  V30 2136 H 203.059 0.141798 -2.04008 0
M  V30 2137 H 201.214 2.42205 -3.0235 0
M  V30 2138 H 201.628 1.48672 -5.02988 0
M  V30 2139 H 203.102 3.12773 -4.54838 0
M  V30 2140 H 203.579 3.32958 -2.86419 0
M  V30 2141 H 204.185 1.9352 -3.78722 0
M  V30 2142 N 202.5 1.5196 0.417844 0
M  V30 2143 C 203.747 1.65591 1.16559 0
M  V30 2144 C 204.075 0.381565 1.90721 0
M  V30 2145 O 203.33 -0.635156 1.85106 0
M  V30 2146 C 203.629 2.82269 2.19223 0
M  V30 2147 C 203.295 4.20819 1.61933 0
M  V30 2148 C 201.957 4.58506 1.46033 0
M  V30 2149 C 204.309 5.07196 1.20008 0
M  V30 2150 C 201.637 5.80257 0.867113 0
M  V30 2151 C 203.989 6.29544 0.621086 0
M  V30 2152 C 202.653 6.65987 0.449144 0
M  V30 2153 H 201.923 0.605939 0.42652 0
M  V30 2154 H 204.57 1.86041 0.45397 0
M  V30 2155 H 202.875 2.56118 2.96498 0
M  V30 2156 H 204.572 2.90012 2.76936 0
M  V30 2157 H 201.162 3.91116 1.7529 0
M  V30 2158 H 205.346 4.7867 1.31105 0
M  V30 2159 H 200.602 6.07124 0.721833 0
M  V30 2160 H 204.776 6.95805 0.287798 0
M  V30 2161 H 202.403 7.60199 -0.012632 0
M  V30 2162 N 203.978 -0.674533 1.42435 0
M  V30 2163 C 205.227 -1.43034 1.42212 0
M  V30 2164 C 205.54 -1.95555 0.0420788 0
M  V30 2165 O 206.746 -2.71374 -0.0827558 0
M  V30 2166 C 205.202 -2.58748 2.50155 0
M  V30 2167 C 204.81 -2.12925 3.94166 0
M  V30 2168 C 206.554 -3.36257 2.59098 0
M  V30 2169 C 204.461 -3.25723 4.93618 0
M  V30 2170 H 203.391 -0.537345 0.528939 0
M  V30 2171 H 206.042 -0.73024 1.68344 0
M  V30 2172 H 204.424 -3.31128 2.17188 0
M  V30 2173 H 205.598 -1.47697 4.36488 0
M  V30 2174 H 203.913 -1.48354 3.89076 0
M  V30 2175 H 206.51 -4.20264 3.30578 0
M  V30 2176 H 206.853 -3.82866 1.63461 0
M  V30 2177 H 207.386 -2.70947 2.9126 0
M  V30 2178 H 204.125 -2.84105 5.90732 0
M  V30 2179 H 203.645 -3.89732 4.55926 0
M  V30 2180 H 205.324 -3.91186 5.15347 0
M  V30 2181 N 205.456 -1.28612 -0.910864 0
M  V30 2182 C 206.704 -1.15705 -1.65701 0
M  V30 2183 C 207.025 0.29416 -1.92769 0
M  V30 2184 O 206.295 1.20331 -1.54588 0
M  V30 2185 H 204.875 -0.425216 -0.614167 0
M  V30 2186 H 207.537 -1.61381 -1.0928 0
M  V30 2187 H 206.633 -1.6988 -2.61815 0
M  V30 2188 N 206.934 1.1197 -1.10907 0
M  V30 2189 C 207.881 2.17846 -0.762345 0
M  V30 2190 C 208.851 1.63995 0.263599 0
M  V30 2191 O 210.036 1.90273 0.141773 0
M  V30 2192 C 207.176 3.44487 -0.205651 0
M  V30 2193 C 206.289 4.12369 -1.28748 0
M  V30 2194 C 205.424 5.26674 -0.691919 0
M  V30 2195 C 204.463 5.86431 -1.75399 0
M  V30 2196 N 203.6 6.92142 -1.17833 0
M  V30 2197 H 208.44 2.46851 -1.6694 0
M  V30 2198 H 205.977 1.21188 -0.833776 0
M  V30 2199 H 207.935 4.16981 0.135037 0
M  V30 2200 H 206.565 3.15884 0.664613 0
M  V30 2201 H 205.617 3.38003 -1.74522 0
M  V30 2202 H 206.929 4.52844 -2.09125 0
M  V30 2203 H 206.083 6.05953 -0.300963 0
M  V30 2204 H 204.822 4.8749 0.143232 0
M  V30 2205 H 203.827 5.05835 -2.15432 0
M  V30 2206 H 205.052 6.27685 -2.59208 0
M  V30 2207 H 202.998 6.54985 -0.364725 0
M  V30 2208 H 202.915 7.31242 -1.91887 0
M  V30 2209 H 204.183 7.75237 -0.81408 0
M  V30 2210 N 208.412 0.89855 1.29475 0
M  V30 2211 C 209.322 0.379974 2.31502 0
M  V30 2212 C 210.338 -0.524695 1.659 0
M  V30 2213 O 211.514 -0.414551 1.97087 0
M  V30 2214 C 208.579 -0.385138 3.44554 0
M  V30 2215 C 207.64 0.550914 4.2575 0
M  V30 2216 C 206.873 -0.177778 5.33404 0
M  V30 2217 O 207.096 -1.40189 5.52904 0
M  V30 2218 O 206.03 0.479106 5.9999 0
M  V30 2219 H 209.856 1.22639 2.77837 0
M  V30 2220 H 207.441 0.662834 1.33891 0
M  V30 2221 H 209.323 -0.817841 4.13388 0
M  V30 2222 H 207.998 -1.20763 3.0033 0
M  V30 2223 H 206.905 1.03271 3.59564 0
M  V30 2224 H 208.238 1.33979 4.73614 0
M  V30 2225 N 209.89 -1.43072 0.660911 0
M  V30 2226 C 210.82 -2.33497 -0.0122829 0
M  V30 2227 C 211.801 -1.49903 -0.803925 0
M  V30 2228 O 212.986 -1.78546 -0.763864 0
M  V30 2229 C 210.116 -3.33363 -0.973994 0
M  V30 2230 C 209.07 -4.27003 -0.291928 0
M  V30 2231 C 208.396 -5.16967 -1.36562 0
M  V30 2232 C 209.696 -5.15816 0.820462 0
M  V30 2233 H 211.39 -2.90038 0.742873 0
M  V30 2234 H 208.936 -1.39461 0.358688 0
M  V30 2235 H 210.889 -3.95524 -1.45392 0
M  V30 2236 H 209.613 -2.75095 -1.7604 0
M  V30 2237 H 208.272 -3.66217 0.167623 0
M  V30 2238 H 207.92 -4.55034 -2.14366 0
M  V30 2239 H 207.62 -5.80441 -0.914454 0
M  V30 2240 H 209.144 -5.82003 -1.84675 0
M  V30 2241 H 210.558 -5.71742 0.422366 0
M  V30 2242 H 208.955 -5.8805 1.19656 0
M  V30 2243 H 210.025 -4.55045 1.67518 0
M  V30 2244 N 211.368 -0.403325 -1.52352 0
M  V30 2245 C 212.616 0.174003 -2.0135 0
M  V30 2246 C 212.937 1.46139 -1.29106 0
M  V30 2247 O 212.207 1.91448 -0.415253 0
M  V30 2248 H 210.787 0.0672911 -0.743963 0
M  V30 2249 H 213.449 -0.538235 -1.87321 0
M  V30 2250 H 212.545 0.374254 -3.09848 0
M  V30 2251 N 212.846 1.57033 -0.133567 0
M  V30 2252 C 213.778 2.13176 0.841944 0
M  V30 2253 C 214.791 1.07794 1.22001 0
M  V30 2254 O 215.98 1.35117 1.16643 0
M  V30 2255 C 213.08 2.62847 2.13926 0
M  V30 2256 C 212.253 3.92486 1.93064 0
M  V30 2257 C 211.312 4.27605 3.0666 0
M  V30 2258 O 210.338 4.96168 2.78937 0
M  V30 2259 N 211.54 3.861 4.33483 0
M  V30 2260 H 214.305 2.97503 0.362192 0
M  V30 2261 H 211.866 1.61821 0.05042 0
M  V30 2262 H 213.858 2.83363 2.88942 0
M  V30 2263 H 212.428 1.83319 2.53205 0
M  V30 2264 H 211.648 3.80732 1.02159 0
M  V30 2265 H 212.936 4.77225 1.76447 0
M  V30 2266 H 212.334 3.30828 4.58878 0
M  V30 2267 H 210.891 4.11694 5.05323 0
M  V30 2268 N 214.325 -0.140222 1.56975 0
M  V30 2269 C 215.257 -1.19818 1.95388 0
M  V30 2270 C 216.27 -1.38816 0.850525 0
M  V30 2271 O 217.459 -1.38267 1.12891 0
M  V30 2272 C 214.559 -2.56189 2.21857 0
M  V30 2273 C 213.732 -2.58077 3.5315 0
M  V30 2274 C 212.791 -3.76037 3.6808 0
M  V30 2275 O 211.817 -3.60598 4.40406 0
M  V30 2276 N 213.019 -4.93763 3.05251 0
M  V30 2277 H 215.784 -0.871609 2.86746 0
M  V30 2278 H 213.345 -0.32972 1.58507 0
M  V30 2279 H 215.337 -3.33623 2.2908 0
M  V30 2280 H 213.907 -2.81111 1.36731 0
M  V30 2281 H 213.127 -1.6651 3.57307 0
M  V30 2282 H 214.415 -2.56377 4.39486 0
M  V30 2283 H 213.813 -5.09209 2.46419 0
M  V30 2284 H 212.37 -5.68949 3.18026 0
M  V30 2285 N 215.803 -1.52179 -0.40978 0
M  V30 2286 C 217.031 -1.70054 -1.17853 0
M  V30 2287 C 217.446 -0.409735 -1.843 0
M  V30 2288 O 216.803 0.614183 -1.71855 0
M  V30 2289 C 216.854 -2.83568 -2.24213 0
M  V30 2290 O 216.575 -4.0765 -1.60478 0
M  V30 2291 C 218.076 -3.12947 -3.13973 0
M  V30 2292 H 215.296 -0.569917 -0.354169 0
M  V30 2293 H 217.84 -1.98734 -0.482198 0
M  V30 2294 H 215.995 -2.57409 -2.89516 0
M  V30 2295 H 216.409 -4.70899 -2.30986 0
M  V30 2296 H 217.883 -3.95889 -3.84677 0
M  V30 2297 H 218.36 -2.26472 -3.76307 0
M  V30 2298 H 218.966 -3.40868 -2.5434 0
M  V30 2299 N 217.281 0.66697 -1.42791 0
M  V30 2300 C 218.527 1.4291 -1.43891 0
M  V30 2301 C 218.86 1.94114 -0.0578972 0
M  V30 2302 O 218.135 1.71414 0.91911 0
M  V30 2303 C 218.418 2.62049 -2.46987 0
M  V30 2304 C 218.271 2.16426 -3.94309 0
M  V30 2305 C 219.59 3.64266 -2.46978 0
M  V30 2306 H 216.709 0.518306 -0.523954 0
M  V30 2307 H 219.351 0.757321 -1.74255 0
M  V30 2308 H 217.501 3.19361 -2.21225 0
M  V30 2309 H 219.173 1.64221 -4.31079 0
M  V30 2310 H 217.416 1.47925 -4.078 0
M  V30 2311 H 218.087 3.02038 -4.62036 0
M  V30 2312 H 220.563 3.16686 -2.69906 0
M  V30 2313 H 219.439 4.45196 -3.21079 0
M  V30 2314 H 219.7 4.15927 -1.49857 0
M  V30 2315 N 218.759 1.29093 0.90403 0
M  V30 2316 C 220.007 1.16583 1.65085 0
M  V30 2317 C 220.328 -0.283933 1.92922 0
M  V30 2318 O 219.598 -1.19509 1.55224 0
M  V30 2319 H 218.178 0.428467 0.611903 0
M  V30 2320 H 220.84 1.61959 1.08422 0
M  V30 2321 H 219.936 1.71266 2.6091 0
M  V30 2322 N 220.237 -1.11381 1.11499 0
M  V30 2323 C 221.483 -1.83403 0.865512 0
M  V30 2324 C 221.816 -1.84459 -0.607329 0
M  V30 2325 O 221.091 -1.29811 -1.44842 0
M  V30 2326 C 221.374 -3.30552 1.42855 0
M  V30 2327 C 221.227 -3.37886 2.96906 0
M  V30 2328 C 222.546 -4.26643 1.08 0
M  V30 2329 H 219.665 -0.665879 0.31587 0
M  V30 2330 H 222.307 -1.30601 1.37998 0
M  V30 2331 H 220.457 -3.75648 0.990985 0
M  V30 2332 H 222.129 -3.01343 3.49271 0
M  V30 2333 H 220.372 -2.78088 3.32941 0
M  V30 2334 H 221.043 -4.41458 3.31389 0
M  V30 2335 H 223.519 -3.89729 1.45775 0
M  V30 2336 H 222.395 -5.27986 1.50072 0
M  V30 2337 H 222.656 -4.42099 -0.00915037 0
M  V30 2338 N 221.715 -0.905404 -1.28997 0
M  V30 2339 C 222.648 -0.331959 -2.25773 0
M  V30 2340 C 223.626 0.559099 -1.52685 0
M  V30 2341 O 224.81 0.50463 -1.8162 0
M  V30 2342 C 221.937 0.526276 -3.34586 0
M  V30 2343 C 220.983 -0.298249 -4.25456 0
M  V30 2344 S 221.816 -1.69968 -5.0781 0
M  V30 2345 C 222.972 -0.848519 -6.20122 0
M  V30 2346 H 223.205 -1.15222 -2.74064 0
M  V30 2347 H 220.738 -0.706112 -1.37308 0
M  V30 2348 H 222.696 1.01565 -3.97737 0
M  V30 2349 H 221.357 1.32084 -2.84978 0
M  V30 2350 H 220.55 0.357607 -5.0273 0
M  V30 2351 H 220.152 -0.720968 -3.66985 0
M  V30 2352 H 222.444 -0.0744325 -6.77459 0
M  V30 2353 H 223.387 -1.59353 -6.89937 0
M  V30 2354 H 223.795 -0.400383 -5.63078 0
M  V30 2355 N 223.193 1.4272 -0.668489 0
M  V30 2356 C 224.441 2.01226 -0.187769 0
M  V30 2357 C 224.762 1.53092 1.2078 0
M  V30 2358 O 224.032 0.74993 1.80977 0
M  V30 2359 H 222.612 0.744041 -0.0664272 0
M  V30 2360 H 225.274 1.74723 -0.863583 0
M  V30 2361 H 224.37 3.11556 -0.184166 0
M  V30 2362 N 224.671 0.411399 1.52136 0
M  V30 2363 C 225.899 -0.163076 2.06256 0
M  V30 2364 C 226.314 -1.3867 1.28125 0
M  V30 2365 O 225.671 -1.79423 0.333721 0
M  V30 2366 C 225.722 -0.511252 3.57867 0
M  V30 2367 O 225.443 0.66378 4.33042 0
M  V30 2368 C 226.944 -1.13921 4.28412 0
M  V30 2369 H 224.164 -0.0193897 0.67072 0
M  V30 2370 H 226.708 0.583007 1.96013 0
M  V30 2371 H 224.863 -1.20723 3.6811 0
M  V30 2372 H 225.277 0.372601 5.23175 0
M  V30 2373 H 226.751 -1.33302 5.35663 0
M  V30 2374 H 227.228 -2.11296 3.85033 0
M  V30 2375 H 227.834 -0.483373 4.22544 0
M  V30 2376 N 226.149 -1.5696 0.141893 0
M  V30 2377 C 227.397 -1.95573 -0.509484 0
M  V30 2378 C 227.718 -1.02746 -1.65736 0
M  V30 2379 O 226.988 -0.0880311 -1.95702 0
M  V30 2380 H 225.568 -0.722115 -0.191205 0
M  V30 2381 H 228.23 -1.93697 0.216196 0
M  V30 2382 H 227.326 -2.99171 -0.889 0
M  V30 2383 N 227.627 0.131896 -1.57047 0
M  V30 2384 C 228.577 1.1679 -1.95816 0
M  V30 2385 C 229.561 1.37756 -0.831393 0
M  V30 2386 O 230.753 1.39065 -1.09499 0
M  V30 2387 C 227.882 2.49778 -2.35512 0
M  V30 2388 C 226.968 2.32342 -3.54793 0
M  V30 2389 N 227.359 1.8469 -4.70875 0
M  V30 2390 C 225.657 2.63043 -3.60173 0
M  V30 2391 C 226.358 1.80656 -5.52936 0
M  V30 2392 N 225.334 2.24528 -4.95064 0
M  V30 2393 H 229.136 0.791818 -2.83033 0
M  V30 2394 H 226.65 0.339791 -1.58805 0
M  V30 2395 H 228.647 3.24692 -2.61498 0
M  V30 2396 H 227.307 2.88156 -1.49654 0
M  V30 2397 H 228.318 1.54429 -4.9434 0
M  V30 2398 H 224.995 3.05193 -2.84892 0
M  V30 2399 H 226.385 1.45178 -6.56028 0
M  V30 2400 N 229.106 1.52395 0.401703 0
M  V30 2401 C 230.355 1.66044 1.14509 0
M  V30 2402 C 230.668 0.400216 1.91462 0
M  V30 2403 O 231.874 0.416632 2.68284 0
M  V30 2404 C 230.33 2.93388 2.0845 0
M  V30 2405 C 229.938 4.26545 1.36978 0
M  V30 2406 C 231.682 3.16402 2.83001 0
M  V30 2407 C 229.589 5.45007 2.29611 0
M  V30 2408 H 228.519 0.618562 0.431158 0
M  V30 2409 H 231.17 1.78886 0.40892 0
M  V30 2410 H 229.552 2.74263 2.8565 0
M  V30 2411 H 230.726 4.56179 0.650916 0
M  V30 2412 H 229.041 4.09692 0.74438 0
M  V30 2413 H 231.638 4.02085 3.52465 0
M  V30 2414 H 231.981 2.30943 3.46368 0
M  V30 2415 H 232.514 3.36034 2.12898 0
M  V30 2416 H 229.253 6.32835 1.70879 0
M  V30 2417 H 228.773 5.19702 2.9945 0
M  V30 2418 H 230.452 5.7838 2.89974 0
M  V30 2419 N 230.584 -0.659388 1.43143 0
M  V30 2420 C 231.832 -1.41654 1.44147 0
M  V30 2421 C 232.153 -1.94893 0.0645739 0
M  V30 2422 O 231.423 -1.74044 -0.899198 0
M  V30 2423 H 230.003 -0.525708 0.530697 0
M  V30 2424 H 232.665 -0.778097 1.78694 0
M  V30 2425 H 231.761 -2.26195 2.1504 0
M  V30 2426 N 232.062 -1.29571 -0.897171 0
M  V30 2427 C 232.994 -1.10724 -2.00681 0
M  V30 2428 C 234.007 -0.0540026 -1.6271 0
M  V30 2429 O 235.196 -0.298783 -1.75982 0
M  V30 2430 C 232.296 -0.663912 -3.32333 0
M  V30 2431 C 231.469 -1.79622 -3.98816 0
M  V30 2432 C 230.528 -1.34349 -5.0876 0
M  V30 2433 O 229.554 -2.04864 -5.31055 0
M  V30 2434 N 230.756 -0.215764 -5.80099 0
M  V30 2435 H 233.521 -2.06291 -2.17403 0
M  V30 2436 H 231.082 -1.21544 -1.06951 0
M  V30 2437 H 233.074 -0.344295 -4.03233 0
M  V30 2438 H 231.644 0.199375 -3.11964 0
M  V30 2439 H 230.864 -2.28459 -3.21248 0
M  V30 2440 H 232.152 -2.55535 -4.39976 0
M  V30 2441 H 231.55 0.372091 -5.64475 0
M  V30 2442 H 230.107 0.0444707 -6.51785 0
M  V30 2443 N 233.54 1.10788 -1.12088 0
M  V30 2444 C 234.786 1.82942 -0.875226 0
M  V30 2445 C 235.119 1.84779 0.597538 0
M  V30 2446 O 234.394 1.30578 1.44152 0
M  V30 2447 C 234.677 3.29789 -1.44606 0
M  V30 2448 C 234.53 3.36307 -2.98693 0
M  V30 2449 C 235.849 4.26064 -1.10261 0
M  V30 2450 H 232.968 0.664195 -0.319397 0
M  V30 2451 H 235.61 1.29867 -1.38689 0
M  V30 2452 H 233.76 3.75118 -1.01089 0
M  V30 2453 H 235.432 2.99487 -3.50864 0
M  V30 2454 H 233.675 2.76318 -3.34411 0
M  V30 2455 H 234.346 4.39694 -3.33726 0
M  V30 2456 H 236.822 3.88951 -1.4784 0
M  V30 2457 H 235.698 5.27183 -1.52869 0
M  V30 2458 H 235.959 4.42098 -0.0142953 0
M  V30 2459 N 235.018 0.912232 1.28515 0
M  V30 2460 C 235.981 0.404223 2.25607 0
M  V30 2461 C 236.981 -0.468602 1.53821 0
M  V30 2462 O 238.171 -0.271873 1.72065 0
M  V30 2463 C 235.303 -0.420653 3.38295 0
M  V30 2464 H 236.496 1.26188 2.7206 0
M  V30 2465 H 234.049 0.691495 1.40171 0
M  V30 2466 H 234.784 -1.29777 2.97201 0
M  V30 2467 H 234.569 0.204935 3.91564 0
M  V30 2468 H 236.059 -0.766971 4.10496 0
M  V30 2469 N 236.496 -1.42363 0.676048 0
M  V30 2470 C 237.745 -2.00745 0.196037 0
M  V30 2471 C 238.058 -1.54083 -1.20489 0
M  V30 2472 O 239.264 -2.04891 -1.78134 0
M  V30 2473 C 237.72 -3.58651 0.299616 0
M  V30 2474 C 237.328 -4.143 1.70468 0
M  V30 2475 C 239.072 -4.24326 -0.121619 0
M  V30 2476 C 236.979 -5.64574 1.76096 0
M  V30 2477 H 235.909 -0.750787 0.0695301 0
M  V30 2478 H 238.56 -1.63072 0.841412 0
M  V30 2479 H 236.942 -3.93833 -0.413673 0
M  V30 2480 H 238.116 -3.90575 2.44515 0
M  V30 2481 H 236.431 -3.61081 2.07387 0
M  V30 2482 H 239.028 -5.34607 -0.0997362 0
M  V30 2483 H 239.371 -3.99897 -1.15708 0
M  V30 2484 H 239.904 -3.94108 0.540706 0
M  V30 2485 H 236.643 -5.93804 2.77628 0
M  V30 2486 H 236.163 -5.90286 1.06406 0
M  V30 2487 H 237.842 -6.29013 1.51496 0
M  V30 2488 N 237.974 -0.419461 -1.51915 0
M  V30 2489 C 238.921 0.400927 -2.27291 0
M  V30 2490 C 239.891 1.03224 -1.30131 0
M  V30 2491 O 241.076 1.05455 -1.59009 0
M  V30 2492 C 238.216 1.50603 -3.10504 0
M  V30 2493 C 237.329 0.89462 -4.22635 0
M  V30 2494 C 236.464 1.97328 -4.93189 0
M  V30 2495 C 235.503 1.33935 -5.97267 0
M  V30 2496 N 234.64 2.3586 -6.61298 0
M  V30 2497 H 239.48 -0.248251 -2.96964 0
M  V30 2498 H 237.017 -0.134266 -1.46486 0
M  V30 2499 H 238.975 2.15783 -3.57062 0
M  V30 2500 H 237.605 2.12509 -2.42981 0
M  V30 2501 H 236.657 0.131583 -3.80172 0
M  V30 2502 H 237.969 0.391641 -4.9726 0
M  V30 2503 H 237.123 2.70211 -5.43204 0
M  V30 2504 H 235.862 2.50994 -4.18155 0
M  V30 2505 H 234.867 0.595896 -5.46561 0
M  V30 2506 H 236.092 0.810252 -6.74249 0
M  V30 2507 H 234.038 2.88639 -5.89087 0
M  V30 2508 H 233.955 1.90403 -7.3163 0
M  V30 2509 H 235.223 3.08282 -7.15949 0
M  V30 2510 N 239.452 1.56882 -0.150215 0
M  V30 2511 C 240.382 2.19935 0.784284 0
M  V30 2512 C 241.363 1.14854 1.25469 0
M  V30 2513 O 242.548 1.43209 1.31168 0
M  V30 2514 C 239.678 2.82349 2.02229 0
M  V30 2515 C 238.632 3.93285 1.68853 0
M  V30 2516 C 237.958 4.42649 2.99944 0
M  V30 2517 C 239.258 5.13904 0.932714 0
M  V30 2518 H 240.952 2.9828 0.258781 0
M  V30 2519 H 238.498 1.43473 0.123029 0
M  V30 2520 H 240.451 3.25126 2.68088 0
M  V30 2521 H 239.175 2.0134 2.57157 0
M  V30 2522 H 237.834 3.5113 1.05371 0
M  V30 2523 H 237.482 3.58458 3.52869 0
M  V30 2524 H 237.182 5.17476 2.78374 0
M  V30 2525 H 238.706 4.88099 3.66868 0
M  V30 2526 H 240.12 5.53506 1.49345 0
M  V30 2527 H 238.517 5.94515 0.81684 0
M  V30 2528 H 239.587 4.84842 -0.0749568 0
M  V30 2529 N 240.93 -0.123565 1.57115 0
M  V30 2530 C 242.177 -0.832153 1.84612 0
M  V30 2531 C 242.505 -1.80093 0.734627 0
M  V30 2532 O 241.76 -1.93766 -0.27442 0
M  V30 2533 C 242.059 -1.62016 3.18568 0
M  V30 2534 C 241.725 -0.796084 4.43817 0
M  V30 2535 C 240.387 -0.568816 4.77826 0
M  V30 2536 C 242.739 -0.221364 5.2073 0
M  V30 2537 C 240.067 0.243499 5.86194 0
M  V30 2538 C 242.419 0.578117 6.29953 0
M  V30 2539 C 241.083 0.815744 6.62497 0
M  V30 2540 H 240.353 -0.304507 0.675542 0
M  V30 2541 H 243 -0.0947248 1.91266 0
M  V30 2542 H 241.305 -2.42837 3.0747 0
M  V30 2543 H 243.002 -2.17231 3.37064 0
M  V30 2544 H 239.592 -0.983307 4.17168 0
M  V30 2545 H 243.776 -0.384173 4.94811 0
M  V30 2546 H 239.032 0.436871 6.09837 0
M  V30 2547 H 243.206 1.03046 6.88734 0
M  V30 2548 H 240.833 1.44701 7.46301 0
M  V30 2549 N 242.408 -1.52605 -0.393616 0
M  V30 2550 C 243.355 -1.77055 -1.48054 0
M  V30 2551 C 244.325 -0.61358 -1.54352 0
M  V30 2552 O 245.51 -0.852806 -1.70681 0
M  V30 2553 C 242.65 -1.94108 -2.85335 0
M  V30 2554 C 241.763 -3.21792 -2.88226 0
M  V30 2555 C 240.898 -3.29188 -4.16904 0
M  V30 2556 C 239.937 -4.51013 -4.13828 0
M  V30 2557 N 239.074 -4.55716 -5.34105 0
M  V30 2558 H 243.914 -2.69815 -1.26506 0
M  V30 2559 H 241.451 -1.33683 -0.61379 0
M  V30 2560 H 243.409 -2.01979 -3.65049 0
M  V30 2561 H 242.039 -1.04713 -3.05344 0
M  V30 2562 H 241.091 -3.23015 -2.00911 0
M  V30 2563 H 242.403 -4.11557 -2.8182 0
M  V30 2564 H 241.557 -3.36216 -5.05018 0
M  V30 2565 H 240.296 -2.37389 -4.26026 0
M  V30 2566 H 239.301 -4.44115 -3.24102 0
M  V30 2567 H 240.526 -5.44123 -4.06333 0
M  V30 2568 H 238.472 -3.66807 -5.43865 0
M  V30 2569 H 238.389 -5.39346 -5.29756 0
M  V30 2570 H 239.657 -4.66993 -6.2413 0
M  V30 2571 N 243.887 0.651787 -1.4349 0
M  V30 2572 C 245.135 1.40888 -1.44897 0
M  V30 2573 C 245.456 1.94856 -0.0749086 0
M  V30 2574 O 244.726 1.74518 0.889956 0
M  V30 2575 H 243.306 0.522887 -0.533478 0
M  V30 2576 H 245.968 0.768609 -1.79104 0
M  V30 2577 H 245.064 2.25052 -2.16236 0
M  V30 2578 N 245.365 1.30045 0.890287 0
M  V30 2579 C 246.612 1.18561 1.64163 0
M  V30 2580 C 246.94 -0.260852 1.92743 0
M  V30 2581 O 246.195 -1.20376 1.54299 0
M  V30 2582 C 246.494 1.95409 2.99249 0
M  V30 2583 C 246.16 3.45066 2.90242 0
M  V30 2584 C 244.822 3.85878 2.87492 0
M  V30 2585 C 247.174 4.4039 2.78758 0
M  V30 2586 C 244.502 5.20314 2.7109 0
M  V30 2587 C 246.854 5.74928 2.63894 0
M  V30 2588 C 245.518 6.14986 2.59516 0
M  V30 2589 H 244.788 0.433846 0.600715 0
M  V30 2590 H 247.435 1.61088 1.03552 0
M  V30 2591 H 245.74 1.45501 3.63781 0
M  V30 2592 H 247.437 1.8392 3.56334 0
M  V30 2593 H 244.027 3.12631 2.93189 0
M  V30 2594 H 248.211 4.09806 2.79952 0
M  V30 2595 H 243.467 5.50449 2.66112 0
M  V30 2596 H 247.641 6.48434 2.53981 0
M  V30 2597 H 245.268 7.19104 2.46565 0
M  V30 2598 N 246.843 -1.10192 1.12674 0
M  V30 2599 C 248.091 -1.81845 0.881861 0
M  V30 2600 C 248.412 -1.85737 -0.593867 0
M  V30 2601 O 247.682 -1.33724 -1.4316 0
M  V30 2602 H 246.262 -0.673432 0.323261 0
M  V30 2603 H 248.924 -1.33316 1.42172 0
M  V30 2604 H 248.02 -2.85288 1.2656 0
M  V30 2605 N 248.321 -0.919034 -1.28029 0
M  V30 2606 C 249.284 -0.416182 -2.2539 0
M  V30 2607 C 250.284 0.460438 -1.54067 0
M  V30 2608 O 251.474 0.262744 -1.72207 0
M  V30 2609 C 248.606 0.402707 -3.38513 0
M  V30 2610 H 249.799 -1.27629 -2.71387 0
M  V30 2611 H 247.352 -0.698919 -1.39803 0
M  V30 2612 H 248.087 1.282 -2.97885 0
M  V30 2613 H 247.872 -0.225698 -3.9145 0
M  V30 2614 H 249.362 0.745191 -4.10897 0
M  V30 2615 N 249.799 1.42003 -0.683588 0
M  V30 2616 C 250.746 2.30798 -0.0107309 0
M  V30 2617 C 251.716 1.4645 0.783688 0
M  V30 2618 O 252.901 1.75263 0.754156 0
M  V30 2619 C 250.041 3.3238 0.928306 0
M  V30 2620 C 249.154 4.31814 0.126776 0
M  V30 2621 C 248.289 5.20468 1.06236 0
M  V30 2622 C 247.328 6.11577 0.253035 0
M  V30 2623 N 246.465 6.92754 1.14179 0
M  V30 2624 H 251.305 2.8778 -0.773727 0
M  V30 2625 H 248.842 1.41745 -0.393283 0
M  V30 2626 H 250.8 3.89813 1.48666 0
M  V30 2627 H 249.43 2.76976 1.65783 0
M  V30 2628 H 248.482 3.76427 -0.54833 0
M  V30 2629 H 249.794 4.96276 -0.501192 0
M  V30 2630 H 248.948 5.82677 1.69035 0
M  V30 2631 H 247.687 4.56204 1.7242 0
M  V30 2632 H 246.692 5.48428 -0.388108 0
M  V30 2633 H 247.917 6.77892 -0.404839 0
M  V30 2634 H 245.863 6.3111 1.78987 0
M  V30 2635 H 245.78 7.53855 0.569111 0
M  V30 2636 H 247.048 7.59441 1.75697 0
M  V30 2637 N 251.277 0.427512 1.51691 0
M  V30 2638 C 252.523 -0.142439 2.02299 0
M  V30 2639 C 252.856 -1.43214 1.31162 0
M  V30 2640 O 252.131 -1.89833 0.423511 0
M  V30 2641 C 252.414 -0.371301 3.58181 0
M  V30 2642 C 252.267 0.936358 4.39946 0
M  V30 2643 C 253.586 -1.14542 4.24933 0
M  V30 2644 H 250.705 -0.0502937 0.735282 0
M  V30 2645 H 253.347 0.564584 1.81418 0
M  V30 2646 H 251.497 -0.973559 3.76104 0
M  V30 2647 H 253.169 1.57184 4.33694 0
M  V30 2648 H 251.412 1.5432 4.05423 0
M  V30 2649 H 252.083 0.730388 5.47147 0
M  V30 2650 H 254.559 -0.635362 4.11221 0
M  V30 2651 H 253.435 -1.27431 5.33903 0
M  V30 2652 H 253.696 -2.17093 3.85127 0
M  V30 2653 N 252.755 -1.56801 0.158532 0
M  V30 2654 C 254.004 -1.95665 -0.489702 0
M  V30 2655 C 254.317 -1.04654 -1.65248 0
M  V30 2656 O 255.523 -1.33146 -2.3661 0
M  V30 2657 C 253.979 -3.47874 -0.922582 0
M  V30 2658 C 253.587 -4.47489 0.213893 0
M  V30 2659 C 255.331 -3.95583 -1.53996 0
M  V30 2660 C 253.238 -5.90921 -0.237903 0
M  V30 2661 H 252.168 -0.730516 -0.186716 0
M  V30 2662 H 254.819 -1.81861 0.244722 0
M  V30 2663 H 253.201 -3.57051 -1.71261 0
M  V30 2664 H 254.375 -4.50017 0.991036 0
M  V30 2665 H 252.69 -4.09764 0.740407 0
M  V30 2666 H 255.287 -5.0019 -1.8898 0
M  V30 2667 H 255.63 -3.37789 -2.43319 0
M  V30 2668 H 256.163 -3.8937 -0.814611 0
M  V30 2669 H 252.902 -6.52559 0.620236 0
M  V30 2670 H 252.422 -5.91729 -0.980676 0
M  V30 2671 H 254.101 -6.43352 -0.686067 0
M  V30 2672 N 254.233 0.115231 -1.57178 0
M  V30 2673 C 255.196 1.12526 -1.99676 0
M  V30 2674 C 256.196 1.34095 -0.88742 0
M  V30 2675 O 257.386 1.30548 -1.15337 0
M  V30 2676 C 254.518 2.4789 -2.34015 0
M  V30 2677 H 255.711 0.759912 -2.90113 0
M  V30 2678 H 253.264 0.359648 -1.52106 0
M  V30 2679 H 253.999 2.89339 -1.4647 0
M  V30 2680 H 253.784 2.33588 -3.14927 0
M  V30 2681 H 255.274 3.20575 -2.67622 0
M  V30 2682 N 255.711 1.52812 0.385517 0
M  V30 2683 C 256.941 1.71658 1.14966 0
M  V30 2684 C 257.349 0.436253 1.84102 0
M  V30 2685 O 256.692 -0.599313 1.73649 0
M  V30 2686 C 256.754 2.81309 2.23843 0
M  V30 2687 C 256.418 4.22313 1.74644 0
M  V30 2688 C 257.415 5.05352 1.22129 0
M  V30 2689 C 255.1 4.68648 1.80761 0
M  V30 2690 C 257.094 6.32807 0.763838 0
M  V30 2691 C 254.781 5.96086 1.34627 0
M  V30 2692 C 255.779 6.77996 0.825264 0
M  V30 2693 O 255.467 8.03045 0.370669 0
M  V30 2694 H 255.199 0.578022 0.350523 0
M  V30 2695 H 257.753 2.00263 0.456509 0
M  V30 2696 H 255.983 2.48133 2.96592 0
M  V30 2697 H 257.672 2.88524 2.85497 0
M  V30 2698 H 258.438 4.70736 1.16758 0
M  V30 2699 H 254.317 4.04979 2.20256 0
M  V30 2700 H 257.861 6.96689 0.356494 0
M  V30 2701 H 253.758 6.30205 1.39686 0
M  V30 2702 H 254.526 8.17021 0.491829 0
M  V30 2703 N 257.189 -0.644168 1.43834 0
M  V30 2704 C 258.466 -1.40188 1.36406 0
M  V30 2705 C 258.846 -2.11094 0.0163124 0
M  V30 2706 O 258.194 -2.05426 -1.00062 0
M  V30 2707 C 258.404 -2.3791 2.55343 0
M  V30 2708 C 259.752 -3.01637 2.98832 0
M  V30 2709 O 260.776 -2.48237 2.55455 0
M  V30 2710 O 259.635 -3.98477 3.74003 0
M  V30 2711 H 256.729 -0.626773 0.539523 0
M  V30 2712 H 259.275 -0.670317 1.559 0
M  V30 2713 H 258.047 -1.84525 3.4506 0
M  V30 2714 H 257.67 -3.18503 2.37995 0
M  V30 2715 N 258.668 -1.30515 -0.883378 0
M  V30 2716 C 260.079 -1.17509 -1.45081 0
M  V30 2717 C 260.43 0.223605 -1.94922 0
M  V30 2718 O 259.555 1.12041 -1.85137 0
M  V30 2719 C 260.15 -2.12715 -2.63701 0
M  V30 2720 C 258.709 -2.03682 -3.16529 0
M  V30 2721 C 257.856 -2.02706 -1.89224 0
M  V30 2722 H 260.807 -1.42762 -0.693165 0
M  V30 2723 H 260.828 -1.70891 -3.39965 0
M  V30 2724 H 260.34 -3.14505 -2.27395 0
M  V30 2725 H 258.441 -1.05039 -3.57488 0
M  V30 2726 H 258.554 -2.92146 -3.7972 0
M  V30 2727 H 256.918 -1.4753 -2.07622 0
M  V30 2728 H 257.701 -3.06229 -1.55174 0
M  V30 2729 N 260.146 1.09593 -1.13257 0
M  V30 2730 C 261.376 1.85231 -0.915049 0
M  V30 2731 C 261.784 1.81345 0.539498 0
M  V30 2732 O 261.127 1.20664 1.38513 0
M  V30 2733 C 261.189 3.34275 -1.3229 0
M  V30 2734 C 260.853 3.6191 -2.79052 0
M  V30 2735 C 261.85 3.57777 -3.77216 0
M  V30 2736 C 259.535 3.90309 -3.16171 0
M  V30 2737 C 261.529 3.81652 -5.1051 0
M  V30 2738 C 259.216 4.13839 -4.49644 0
M  V30 2739 C 260.214 4.09502 -5.46623 0
M  V30 2740 O 259.902 4.32426 -6.77689 0
M  V30 2741 H 259.634 0.591997 -0.326367 0
M  V30 2742 H 262.188 1.394 -1.50854 0
M  V30 2743 H 260.418 3.80805 -0.672667 0
M  V30 2744 H 262.107 3.9132 -1.07812 0
M  V30 2745 H 262.873 3.35865 -3.49885 0
M  V30 2746 H 258.752 3.92811 -2.41289 0
M  V30 2747 H 262.296 3.78182 -5.86195 0
M  V30 2748 H 258.193 4.35232 -4.767 0
M  V30 2749 H 258.961 4.49896 -6.83766 0
M  V30 2750 N 261.624 0.925811 1.2754 0
M  V30 2751 C 263.035 0.610102 1.7645 0
M  V30 2752 C 263.386 -0.874723 1.75622 0
M  V30 2753 O 262.511 -1.68444 1.35851 0
M  V30 2754 C 263.106 1.10073 3.20421 0
M  V30 2755 C 261.665 0.835723 3.67005 0
M  V30 2756 C 260.812 1.26054 2.46993 0
M  V30 2757 H 263.763 1.10579 1.13833 0
M  V30 2758 H 263.784 0.447557 3.77859 0
M  V30 2759 H 263.296 2.18143 3.20991 0
M  V30 2760 H 261.397 -0.231249 3.71882 0
M  V30 2761 H 261.51 1.45193 4.56569 0
M  V30 2762 H 259.874 0.679111 2.45479 0
M  V30 2763 H 260.657 2.34984 2.50275 0
M  V30 2764 N 263.102 -1.41638 0.69111 0
M  V30 2765 C 264.035 -2.28183 -0.0274913 0
M  V30 2766 C 265.013 -1.41984 -0.792424 0
M  V30 2767 O 266.197 -1.71415 -0.784169 0
M  V30 2768 C 263.324 -3.22135 -1.04628 0
M  V30 2769 C 262.37 -4.24848 -0.375037 0
M  V30 2770 S 263.203 -5.28231 0.879321 0
M  V30 2771 C 264.359 -6.25748 -0.137983 0
M  V30 2772 H 264.592 -2.88782 0.706553 0
M  V30 2773 H 262.125 -1.46709 0.481222 0
M  V30 2774 H 264.083 -3.76797 -1.62894 0
M  V30 2775 H 262.744 -2.6064 -1.75287 0
M  V30 2776 H 261.937 -4.90837 -1.14433 0
M  V30 2777 H 261.539 -3.73758 0.134434 0
M  V30 2778 H 263.831 -6.70188 -0.992659 0
M  V30 2779 H 264.774 -7.06417 0.487867 0
M  V30 2780 H 265.182 -5.62363 -0.490762 0
M  V30 2781 N 264.58 -0.43555 -1.51462 0
M  V30 2782 C 265.527 0.376797 -2.27703 0
M  V30 2783 C 266.497 1.01838 -1.31219 0
M  V30 2784 O 267.682 1.03762 -1.60119 0
M  V30 2785 C 264.822 1.47301 -3.12084 0
M  V30 2786 C 263.935 0.849744 -4.2356 0
M  V30 2787 C 263.07 1.92086 -4.95254 0
M  V30 2788 C 262.109 1.27593 -5.98654 0
M  V30 2789 N 261.246 2.28833 -6.63762 0
M  V30 2790 H 266.086 -0.279734 -2.96684 0
M  V30 2791 H 263.623 -0.149795 -1.46335 0
M  V30 2792 H 265.581 2.11984 -3.59331 0
M  V30 2793 H 264.211 2.0992 -2.45221 0
M  V30 2794 H 263.263 0.0912529 -3.80291 0
M  V30 2795 H 264.575 0.338878 -4.97648 0
M  V30 2796 H 263.729 2.64435 -5.46039 0
M  V30 2797 H 262.468 2.46545 -4.20793 0
M  V30 2798 H 261.473 0.537893 -5.47162 0
M  V30 2799 H 262.698 0.738693 -6.7507 0
M  V30 2800 H 260.644 2.82375 -5.92115 0
M  V30 2801 H 260.561 1.82632 -7.33608 0
M  V30 2802 H 261.829 3.00671 -7.19178 0
M  V30 2803 N 266.058 1.56714 -0.166846 0
M  V30 2804 C 267.306 1.96358 0.478305 0
M  V30 2805 C 267.627 1.0537 1.6408 0
M  V30 2806 O 266.897 0.119154 1.95537 0
M  V30 2807 H 265.477 0.725065 0.179692 0
M  V30 2808 H 268.139 1.93329 -0.246985 0
M  V30 2809 H 267.235 3.00547 0.841292 0
M  V30 2810 N 267.536 -0.106894 1.57237 0
M  V30 2811 C 268.813 -0.843526 1.76477 0
M  V30 2812 C 269.193 -1.97499 0.745464 0
M  V30 2813 O 268.541 -2.27357 -0.228306 0
M  V30 2814 C 268.751 -1.34903 3.21873 0
M  V30 2815 C 270.099 -1.79654 3.8472 0
M  V30 2816 O 271.123 -1.44554 3.2555 0
M  V30 2817 O 269.982 -2.44515 4.88748 0
M  V30 2818 H 267.076 -0.401468 0.723016 0
M  V30 2819 H 269.622 -0.0896927 1.69463 0
M  V30 2820 H 268.394 -0.53781 3.87586 0
M  V30 2821 H 268.017 -2.16522 3.33473 0
M  V30 2822 N 269.014 -1.53014 -0.377408 0
M  V30 2823 C 269.964 -1.74996 -1.46152 0
M  V30 2824 C 270.948 -0.604236 -1.49123 0
M  V30 2825 O 272.14 -0.862489 -1.54564 0
M  V30 2826 C 269.269 -1.93267 -2.8373 0
M  V30 2827 C 268.355 -3.13807 -2.85283 0
M  V30 2828 N 268.746 -4.35941 -2.56493 0
M  V30 2829 C 267.044 -3.14288 -3.16448 0
M  V30 2830 C 267.745 -5.17615 -2.65424 0
M  V30 2831 N 266.721 -4.53559 -2.99641 0
M  V30 2832 H 270.523 -2.67044 -1.22738 0
M  V30 2833 H 268.037 -1.51479 -0.585479 0
M  V30 2834 H 270.034 -2.0714 -3.61799 0
M  V30 2835 H 268.694 -1.0244 -3.08117 0
M  V30 2836 H 269.705 -4.63876 -2.30302 0
M  V30 2837 H 266.382 -2.33312 -3.46225 0
M  V30 2838 H 267.772 -6.25006 -2.46612 0
M  V30 2839 N 270.492 0.636531 -1.44174 0
M  V30 2840 C 271.903 1.21806 -1.41493 0
M  V30 2841 C 272.254 1.95785 -0.1275 0
M  V30 2842 O 271.379 2.02147 0.772376 0
M  V30 2843 C 271.974 2.21551 -2.56321 0
M  V30 2844 C 270.533 2.75143 -2.56853 0
M  V30 2845 C 269.68 1.50052 -2.33195 0
M  V30 2846 H 272.631 0.427531 -1.52833 0
M  V30 2847 H 272.652 3.0405 -2.28765 0
M  V30 2848 H 272.164 1.67679 -3.50008 0
M  V30 2849 H 270.265 3.33033 -1.67093 0
M  V30 2850 H 270.378 3.2155 -3.55165 0
M  V30 2851 H 268.742 1.77993 -1.82183 0
M  V30 2852 H 269.525 0.980903 -3.28988 0
M  V30 2853 N 271.97 1.30982 0.876444 0
M  V30 2854 C 273.247 1.10942 1.61094 0
M  V30 2855 C 273.627 -0.338223 2.08373 0
M  V30 2856 O 272.975 -1.33122 1.85717 0
M  V30 2857 C 273.185 2.11789 2.77392 0
M  V30 2858 C 274.533 2.43965 3.47514 0
M  V30 2859 O 275.557 2.10166 2.87591 0
M  V30 2860 O 274.416 3.01817 4.55597 0
M  V30 2861 H 271.51 0.42667 0.708436 0
M  V30 2862 H 274.056 1.42438 0.922474 0
M  V30 2863 H 272.828 3.09194 2.39823 0
M  V30 2864 H 272.451 1.81161 3.5393 0
M  V30 2865 N 273.449 -1.08991 1.13837 0
M  V30 2866 C 274.696 -1.81258 0.902882 0
M  V30 2867 C 275.024 -1.85936 -0.570803 0
M  V30 2868 O 274.279 -1.3267 -1.43865 0
M  V30 2869 C 274.578 -3.27042 1.44147 0
M  V30 2870 C 274.244 -3.4249 2.93276 0
M  V30 2871 C 272.906 -3.46414 3.33992 0
M  V30 2872 C 275.258 -3.4666 3.892 0
M  V30 2873 C 272.586 -3.52091 4.69307 0
M  V30 2874 C 274.938 -3.53872 5.24364 0
M  V30 2875 C 273.602 -3.56066 5.646 0
M  V30 2876 H 272.872 -0.663268 0.330388 0
M  V30 2877 H 275.519 -1.28368 1.42105 0
M  V30 2878 H 273.824 -3.82599 0.844097 0
M  V30 2879 H 275.521 -3.81499 1.23528 0
M  V30 2880 H 272.111 -3.40124 2.60794 0
M  V30 2881 H 276.295 -3.42865 3.58828 0
M  V30 2882 H 271.551 -3.52079 4.9985 0
M  V30 2883 H 275.725 -3.56043 5.98503 0
M  V30 2884 H 273.352 -3.60218 6.69438 0
M  V30 2885 N 274.927 -0.932562 -1.27047 0
M  V30 2886 C 276.204 -0.49377 -1.89265 0
M  V30 2887 C 276.584 1.02833 -1.8436 0
M  V30 2888 O 275.932 1.88461 -1.29209 0
M  V30 2889 C 276.142 -1.04536 -3.32976 0
M  V30 2890 C 277.49 -1.10879 -4.09867 0
M  V30 2891 O 278.514 -0.995327 -3.42011 0
M  V30 2892 O 277.373 -1.28417 -5.31198 0
M  V30 2893 H 274.467 -0.159596 -0.811454 0
M  V30 2894 H 277.013 -1.02457 -1.3528 0
M  V30 2895 H 275.785 -2.08913 -3.30864 0
M  V30 2896 H 275.408 -0.496494 -3.94488 0
M  V30 2897 N 276.405 1.4127 -0.698611 0
M  V30 2898 C 277.635 2.05205 -0.239644 0
M  V30 2899 C 278.043 1.52684 1.11733 0
M  V30 2900 O 277.386 0.671222 1.70998 0
M  V30 2901 C 277.448 3.59289 -0.123126 0
M  V30 2902 C 277.112 4.34619 -1.41263 0
M  V30 2903 C 278.109 4.63701 -2.35111 0
M  V30 2904 C 275.794 4.73837 -1.66684 0
M  V30 2905 C 277.788 5.30966 -3.52639 0
M  V30 2906 C 275.475 5.40837 -2.84498 0
M  V30 2907 C 276.473 5.69329 -3.77298 0
M  V30 2908 O 276.161 6.34949 -4.93047 0
M  V30 2909 H 275.893 0.66723 -0.108537 0
M  V30 2910 H 278.447 1.81974 -0.952602 0
M  V30 2911 H 276.677 3.81272 0.645628 0
M  V30 2912 H 278.366 4.04797 0.299056 0
M  V30 2913 H 279.132 4.33882 -2.16729 0
M  V30 2914 H 275.011 4.51039 -0.953135 0
M  V30 2915 H 278.555 5.53121 -4.25091 0
M  V30 2916 H 274.452 5.70075 -3.02795 0
M  V30 2917 H 275.22 6.53445 -4.92902 0
M  V30 2918 N 277.883 0.443576 1.51229 0
M  V30 2919 C 279.129 -0.120975 2.02439 0
M  V30 2920 C 279.462 -1.41815 1.32674 0
M  V30 2921 O 278.737 -1.89373 0.443622 0
M  V30 2922 C 279.02 -0.333291 3.58554 0
M  V30 2923 C 278.873 0.982968 4.38928 0
M  V30 2924 C 280.192 -1.10028 4.26124 0
M  V30 2925 H 277.311 -0.0424923 0.735774 0
M  V30 2926 H 279.953 0.583794 1.80809 0
M  V30 2927 H 278.103 -0.933614 3.77115 0
M  V30 2928 H 279.775 1.61775 4.32003 0
M  V30 2929 H 278.018 1.58611 4.03763 0
M  V30 2930 H 278.689 0.788379 5.46341 0
M  V30 2931 H 281.165 -0.591711 4.11871 0
M  V30 2932 H 280.041 -1.21761 5.35225 0
M  V30 2933 H 280.302 -2.12996 3.87408 0
M  V30 2934 N 279.361 -1.56624 0.175154 0
M  V30 2935 C 280.586 -2.01813 -0.478137 0
M  V30 2936 C 281.011 -1.05457 -1.55757 0
M  V30 2937 O 280.369 -0.0347439 -1.81267 0
M  V30 2938 C 280.417 -3.45581 -1.02987 0
M  V30 2939 O 279.521 -3.52305 -2.14371 0
M  V30 2940 H 278.862 -0.65413 -0.114059 0
M  V30 2941 H 281.392 -2.02673 0.280173 0
M  V30 2942 H 281.402 -3.84965 -1.35151 0
M  V30 2943 H 280.077 -4.1521 -0.239556 0
M  V30 2944 H 278.654 -3.24783 -1.83222 0
M  V30 2945 N 280.839 0.0985539 -1.57292 0
M  V30 2946 C 281.769 1.12064 -2.04851 0
M  V30 2947 C 282.75 1.41981 -0.936767 0
M  V30 2948 O 283.935 1.52071 -1.20781 0
M  V30 2949 C 281.065 2.44144 -2.47004 0
M  V30 2950 C 280.019 2.28643 -3.6181 0
M  V30 2951 C 279.345 3.65869 -3.89929 0
M  V30 2952 C 280.645 1.72986 -4.92822 0
M  V30 2953 H 282.339 0.724979 -2.9049 0
M  V30 2954 H 279.885 0.34729 -1.39749 0
M  V30 2955 H 281.838 3.15914 -2.78884 0
M  V30 2956 H 280.562 2.85639 -1.5836 0
M  V30 2957 H 279.221 1.59318 -3.30172 0
M  V30 2958 H 278.869 4.04885 -2.98458 0
M  V30 2959 H 278.569 3.56344 -4.67218 0
M  V30 2960 H 280.093 4.39112 -4.2428 0
M  V30 2961 H 281.507 2.34593 -5.23105 0
M  V30 2962 H 279.904 1.74229 -5.74251 0
M  V30 2963 H 280.974 0.689007 -4.7998 0
M  V30 2964 N 282.317 1.53212 0.369288 0
M  V30 2965 C 283.227 1.82342 1.47609 0
M  V30 2966 C 284.243 0.711532 1.58787 0
M  V30 2967 O 285.419 1.0012 1.74751 0
M  V30 2968 C 282.484 2.00393 2.8292 0
M  V30 2969 C 281.545 3.24297 2.81301 0
M  V30 2970 C 280.778 3.41478 4.10157 0
M  V30 2971 O 281.001 2.63033 5.06132 0
M  V30 2972 O 279.935 4.34817 4.16194 0
M  V30 2973 H 283.761 2.76366 1.25918 0
M  V30 2974 H 281.346 1.38547 0.559034 0
M  V30 2975 H 283.228 2.13859 3.63101 0
M  V30 2976 H 281.903 1.09559 3.04596 0
M  V30 2977 H 280.81 3.16257 1.99831 0
M  V30 2978 H 282.143 4.15041 2.64578 0
M  V30 2979 N 283.795 -0.628877 1.44509 0
M  V30 2980 C 285.072 -1.38733 1.37886 0
M  V30 2981 C 285.452 -2.11065 0.0387008 0
M  V30 2982 O 284.8 -2.06476 -0.97878 0
M  V30 2983 C 285.01 -2.35188 2.57852 0
M  V30 2984 C 286.358 -2.9845 3.02014 0
M  V30 2985 O 287.382 -2.45513 2.58073 0
M  V30 2986 O 286.241 -3.94487 3.78209 0
M  V30 2987 H 283.335 -0.621015 0.54614 0
M  V30 2988 H 285.881 -0.653744 1.56602 0
M  V30 2989 H 284.653 -1.80855 3.46998 0
M  V30 2990 H 284.276 -3.1596 2.4136 0
M  V30 2991 N 285.273 -1.31445 -0.869486 0
M  V30 2992 C 286.203 -1.21727 -1.99261 0
M  V30 2993 C 287.184 -0.104359 -1.6978 0
M  V30 2994 O 288.369 -0.289038 -1.92037 0
M  V30 2995 C 285.499 -0.924317 -3.34774 0
M  V30 2996 C 284.453 -1.99685 -3.78563 0
M  V30 2997 C 283.779 -1.55658 -5.11541 0
M  V30 2998 C 285.079 -3.41003 -3.95619 0
M  V30 2999 H 286.773 -2.1569 -2.07649 0
M  V30 3000 H 284.319 -1.03839 -0.997675 0
M  V30 3001 H 286.272 -0.842934 -4.12883 0
M  V30 3002 H 284.996 0.0509793 -3.2656 0
M  V30 3003 H 283.655 -2.06813 -3.02694 0
M  V30 3004 H 283.303 -0.569132 -4.9977 0
M  V30 3005 H 283.003 -2.27409 -5.41811 0
M  V30 3006 H 284.527 -1.48928 -5.92159 0
M  V30 3007 H 285.941 -3.36547 -4.64122 0
M  V30 3008 H 284.338 -4.10975 -4.37286 0
M  V30 3009 H 285.408 -3.81754 -2.98985 0
M  V30 3010 N 286.751 1.08385 -1.14413 0
M  V30 3011 C 287.998 1.80776 -0.912482 0
M  V30 3012 C 288.326 1.86236 0.560934 0
M  V30 3013 O 287.581 1.33431 1.43159 0
M  V30 3014 C 287.88 3.26273 -1.45879 0
M  V30 3015 C 287.546 3.4093 -2.95089 0
M  V30 3016 C 286.208 3.44638 -3.35824 0
M  V30 3017 C 288.56 3.44591 -3.91033 0
M  V30 3018 C 285.888 3.49597 -4.71167 0
M  V30 3019 C 288.24 3.51086 -5.26233 0
M  V30 3020 C 286.904 3.53067 -5.6648 0
M  V30 3021 H 286.174 0.661507 -0.333901 0
M  V30 3022 H 288.821 1.27613 -1.42784 0
M  V30 3023 H 287.126 3.82146 -0.864376 0
M  V30 3024 H 288.823 3.80839 -1.2555 0
M  V30 3025 H 285.413 3.38736 -2.62594 0
M  V30 3026 H 289.597 3.40957 -3.60641 0
M  V30 3027 H 284.853 3.49424 -5.0171 0
M  V30 3028 H 289.027 3.52864 -6.00383 0
M  V30 3029 H 286.654 3.56662 -6.71339 0
M  V30 3030 N 288.23 0.939286 1.26551 0
M  V30 3031 C 289.177 0.446088 2.26448 0
M  V30 3032 C 290.147 -0.493234 1.58608 0
M  V30 3033 O 291.332 -0.409857 1.86346 0
M  V30 3034 C 288.472 -0.284375 3.43926 0
M  V30 3035 C 287.585 0.690399 4.26448 0
M  V30 3036 C 286.72 -0.0610712 5.31165 0
M  V30 3037 C 285.759 0.905649 6.05363 0
M  V30 3038 N 284.896 0.186055 7.01853 0
M  V30 3039 H 289.736 1.30291 2.68008 0
M  V30 3040 H 287.273 0.65371 1.31776 0
M  V30 3041 H 289.231 -0.724313 4.10864 0
M  V30 3042 H 287.861 -1.10535 3.03285 0
M  V30 3043 H 286.913 1.24885 3.59316 0
M  V30 3044 H 288.225 1.42873 4.779 0
M  V30 3045 H 287.379 -0.56038 6.04106 0
M  V30 3046 H 286.118 -0.832297 4.80546 0
M  V30 3047 H 285.123 1.4161 5.3125 0
M  V30 3048 H 286.348 1.67685 6.58072 0
M  V30 3049 H 284.294 -0.566714 6.53548 0
M  V30 3050 H 284.211 0.863752 7.51049 0
M  V30 3051 H 285.479 -0.292221 7.78952 0
M  V30 3052 N 289.708 -1.40897 0.706093 0
M  V30 3053 C 290.64 -2.29199 0.00815776 0
M  V30 3054 C 291.653 -1.45336 -0.733582 0
M  V30 3055 O 292.842 -1.68727 -0.582537 0
M  V30 3056 C 289.942 -3.23417 -1.01265 0
M  V30 3057 C 289.115 -4.36089 -0.338387 0
M  V30 3058 C 288.174 -5.10811 -1.26326 0
M  V30 3059 O 287.2 -5.64215 -0.751651 0
M  V30 3060 N 288.402 -5.19269 -2.595 0
M  V30 3061 H 291.167 -2.89738 0.766297 0
M  V30 3062 H 288.728 -1.52164 0.55296 0
M  V30 3063 H 290.72 -3.70276 -1.63334 0
M  V30 3064 H 289.29 -2.64112 -1.67223 0
M  V30 3065 H 288.51 -3.91479 0.462352 0
M  V30 3066 H 289.798 -5.08634 0.130031 0
M  V30 3067 H 289.196 -4.77347 -3.03573 0
M  V30 3068 H 287.753 -5.69667 -3.16737 0
M  V30 3069 N 291.186 -0.45159 -1.50991 0
M  V30 3070 C 292.411 0.110667 -2.07105 0
M  V30 3071 C 292.836 1.3446 -1.31538 0
M  V30 3072 O 292.194 1.77743 -0.357365 0
M  V30 3073 C 292.242 0.397238 -3.58405 0
M  V30 3074 O 291.346 1.48124 -3.84881 0
M  V30 3075 H 290.687 -0.00439271 -0.663985 0
M  V30 3076 H 293.217 -0.637026 -1.9443 0
M  V30 3077 H 293.227 0.64351 -4.02893 0
M  V30 3078 H 291.902 -0.504553 -4.12828 0
M  V30 3079 H 290.479 1.22381 -3.52246 0
M  V30 3080 N 292.664 1.56529 -0.183458 0
M  V30 3081 C 293.941 1.88959 0.50536 0
M  V30 3082 C 294.321 1.09523 1.80466 0
M  V30 3083 O 293.669 0.19278 2.27685 0
M  V30 3084 C 293.879 3.41162 0.73547 0
M  V30 3085 C 295.227 4.11155 1.06005 0
M  V30 3086 O 296.251 3.46548 0.823594 0
M  V30 3087 O 295.11 5.25318 1.50675 0
M  V30 3088 H 292.204 0.78441 0.261973 0
M  V30 3089 H 294.75 1.68231 -0.222802 0
M  V30 3090 H 293.522 3.90874 -0.182561 0
M  V30 3091 H 293.145 3.67543 1.51651 0
M  V30 3092 N 294.142 -0.090211 1.57342 0
M  V30 3093 C 295.388 -0.793982 1.86611 0
M  V30 3094 C 295.721 -1.78142 0.773252 0
M  V30 3095 O 294.996 -1.93271 -0.218304 0
M  V30 3096 C 295.279 -1.51839 3.26523 0
M  V30 3097 C 295.132 -0.548609 4.46442 0
M  V30 3098 C 296.451 -2.46779 3.64401 0
M  V30 3099 H 293.57 -0.287186 0.678744 0
M  V30 3100 H 296.212 -0.0575076 1.89913 0
M  V30 3101 H 294.362 -2.14617 3.23839 0
M  V30 3102 H 296.034 0.0725513 4.61243 0
M  V30 3103 H 294.277 0.137614 4.33582 0
M  V30 3104 H 294.948 -1.09271 5.41076 0
M  V30 3105 H 297.424 -1.94089 3.68061 0
M  V30 3106 H 296.3 -2.94479 4.63221 0
M  V30 3107 H 296.561 -3.30758 2.93346 0
M  V30 3108 N 295.62 -1.53406 -0.361157 0
M  V30 3109 C 296.869 -1.69022 -1.10066 0
M  V30 3110 C 297.182 -0.450838 -1.90333 0
M  V30 3111 O 298.388 -0.487617 -2.67085 0
M  V30 3112 C 296.844 -2.98812 -2.00598 0
M  V30 3113 C 296.452 -4.30027 -1.25621 0
M  V30 3114 C 298.196 -3.23795 -2.74513 0
M  V30 3115 C 296.103 -5.50903 -2.1508 0
M  V30 3116 H 295.033 -0.629776 -0.414606 0
M  V30 3117 H 297.684 -1.79907 -0.361348 0
M  V30 3118 H 296.066 -2.8174 -2.78278 0
M  V30 3119 H 297.24 -4.57745 -0.529739 0
M  V30 3120 H 295.555 -4.11522 -0.635496 0
M  V30 3121 H 298.152 -4.11289 -3.41681 0
M  V30 3122 H 298.495 -2.40045 -3.40123 0
M  V30 3123 H 299.028 -3.41561 -2.03914 0
M  V30 3124 H 295.767 -6.37143 -1.54041 0
M  V30 3125 H 295.287 -5.27459 -2.85565 0
M  V30 3126 H 296.966 -5.85865 -2.74538 0
M  V30 3127 N 297.098 0.621204 -1.44841 0
M  V30 3128 C 298.375 1.38 -1.38619 0
M  V30 3129 C 298.755 2.11041 -0.0498935 0
M  V30 3130 O 298.103 2.06992 0.967816 0
M  V30 3131 C 298.313 2.33817 -2.59096 0
M  V30 3132 C 299.661 2.96844 -3.03593 0
M  V30 3133 O 300.685 2.44141 -2.59371 0
M  V30 3134 O 299.544 3.92476 -3.80296 0
M  V30 3135 H 296.638 0.61811 -0.549426 0
M  V30 3136 H 299.184 0.645429 -1.56947 0
M  V30 3137 H 297.956 1.79012 -3.47952 0
M  V30 3138 H 297.579 3.14676 -2.43032 0
M  V30 3139 N 298.576 1.31904 0.862503 0
M  V30 3140 C 299.506 1.22782 1.98612 0
M  V30 3141 C 300.487 0.113362 1.69722 0
M  V30 3142 O 301.672 0.299218 1.91881 0
M  V30 3143 C 298.802 0.942058 3.34279 0
M  V30 3144 C 297.756 2.0169 3.77499 0
M  V30 3145 C 297.082 1.58369 5.10709 0
M  V30 3146 C 298.382 3.43096 3.93805 0
M  V30 3147 H 300.076 2.16788 2.06502 0
M  V30 3148 H 297.622 1.04366 0.992154 0
M  V30 3149 H 299.575 0.864818 4.1243 0
M  V30 3150 H 298.299 -0.0336603 3.26583 0
M  V30 3151 H 296.958 2.08416 3.01593 0
M  V30 3152 H 296.606 0.595628 4.99461 0
M  V30 3153 H 296.306 2.30279 5.40597 0
M  V30 3154 H 297.83 1.52067 5.91361 0
M  V30 3155 H 299.244 3.39003 4.62331 0
M  V30 3156 H 297.641 4.13288 4.35101 0
M  V30 3157 H 298.711 3.83334 2.96957 0
M  V30 3158 N 300.054 -1.07777 1.14986 0
M  V30 3159 C 301.004 -2.13082 0.811181 0
M  V30 3160 C 301.988 -1.59619 -0.202597 0
M  V30 3161 O 303.18 -1.77 -0.00398275 0
M  V30 3162 C 300.309 -3.42009 0.297439 0
M  V30 3163 C 299.395 -4.02337 1.34112 0
M  V30 3164 N 299.786 -4.36982 2.54716 0
M  V30 3165 C 298.084 -4.29752 1.19285 0
M  V30 3166 C 298.785 -4.84729 3.21578 0
M  V30 3167 N 297.761 -4.83233 2.48972 0
M  V30 3168 H 301.563 -2.37696 1.72853 0
M  V30 3169 H 299.077 -1.25173 1.03468 0
M  V30 3170 H 301.074 -4.16884 0.0364777 0
M  V30 3171 H 299.734 -3.18841 -0.614022 0
M  V30 3172 H 300.745 -4.27807 2.91894 0
M  V30 3173 H 297.422 -4.16106 0.340926 0
M  V30 3174 H 298.812 -5.20863 4.24442 0
M  V30 3175 N 301.532 -0.945985 -1.26051 0
M  V30 3176 C 302.778 -0.597002 -1.93814 0
M  V30 3177 C 303.111 0.862484 -1.73997 0
M  V30 3178 O 302.386 1.61769 -1.07986 0
M  V30 3179 C 302.669 -0.945937 -3.47454 0
M  V30 3180 C 302.522 -2.46052 -3.76535 0
M  V30 3181 C 303.841 -0.464785 -4.37639 0
M  V30 3182 H 300.96 -0.218366 -0.703907 0
M  V30 3183 H 303.602 -1.18107 -1.48831 0
M  V30 3184 H 301.752 -0.448902 -3.85898 0
M  V30 3185 H 303.424 -3.03065 -3.47778 0
M  V30 3186 H 301.667 -2.90194 -3.22444 0
M  V30 3187 H 302.338 -2.65517 -4.83947 0
M  V30 3188 H 304.814 -0.891016 -4.06448 0
M  V30 3189 H 303.69 -0.737712 -5.4392 0
M  V30 3190 H 303.951 0.635274 -4.37512 0
M  V30 3191 N 303.011 1.40521 -0.713556 0
M  V30 3192 C 304.422 1.83853 -0.324807 0
M  V30 3193 C 304.773 1.59667 1.14021 0
M  V30 3194 O 303.898 1.07649 1.87725 0
M  V30 3195 C 304.493 3.33751 -0.582746 0
M  V30 3196 C 303.052 3.75584 -0.247727 0
M  V30 3197 C 302.199 2.63753 -0.856121 0
M  V30 3198 H 305.15 1.29817 -0.91286 0
M  V30 3199 H 305.171 3.80194 0.152682 0
M  V30 3200 H 304.683 3.51322 -1.64908 0
M  V30 3201 H 302.784 3.63608 0.813624 0
M  V30 3202 H 302.897 4.7373 -0.715307 0
M  V30 3203 H 301.261 2.53108 -0.28432 0
M  V30 3204 H 302.044 2.84137 -1.92668 0
M  V30 3205 N 304.489 0.459591 1.5075 0
M  V30 3206 C 305.737 -0.0991532 2.01857 0
M  V30 3207 C 306.058 -1.41247 1.34441 0
M  V30 3208 O 305.328 -1.89775 0.486022 0
M  V30 3209 H 303.908 -0.039633 0.745948 0
M  V30 3210 H 306.57 0.607387 1.85194 0
M  V30 3211 H 305.666 -0.258998 3.11023 0
M  V30 3212 N 305.967 -1.56429 0.191757 0
M  V30 3213 C 307.216 -1.9666 -0.448088 0
M  V30 3214 C 307.529 -1.08136 -1.62991 0
M  V30 3215 O 308.735 -1.38135 -2.33733 0
M  V30 3216 C 307.191 -3.49753 -0.848585 0
M  V30 3217 C 306.799 -4.46935 0.308764 0
M  V30 3218 C 308.543 -3.9876 -1.4557 0
M  V30 3219 C 306.45 -5.91293 -0.112506 0
M  V30 3220 H 305.38 -0.734312 -0.171179 0
M  V30 3221 H 308.031 -1.81301 0.283242 0
M  V30 3222 H 306.413 -3.60604 -1.63649 0
M  V30 3223 H 307.587 -4.47813 1.08627 0
M  V30 3224 H 305.902 -4.08102 0.827158 0
M  V30 3225 H 308.499 -5.04086 -1.78328 0
M  V30 3226 H 308.842 -3.42875 -2.36099 0
M  V30 3227 H 309.375 -3.9101 -0.731836 0
M  V30 3228 H 306.114 -6.51097 0.758514 0
M  V30 3229 H 305.634 -5.93676 -0.854941 0
M  V30 3230 H 307.313 -6.44663 -0.549448 0
M  V30 3231 N 307.445 0.0818655 -1.57387 0
M  V30 3232 C 308.355 1.11642 -2.06333 0
M  V30 3233 C 309.371 1.43033 -0.99083 0
M  V30 3234 O 310.547 1.53411 -1.30488 0
M  V30 3235 C 307.612 2.41342 -2.48907 0
M  V30 3236 C 306.673 2.17014 -3.7041 0
M  V30 3237 C 305.906 3.4053 -4.10944 0
M  V30 3238 O 306.129 4.4927 -3.51444 0
M  V30 3239 O 305.063 3.29336 -5.03807 0
M  V30 3240 H 308.889 0.730657 -2.9478 0
M  V30 3241 H 306.474 0.295301 -1.46452 0
M  V30 3242 H 308.356 3.17691 -2.76858 0
M  V30 3243 H 307.031 2.79319 -1.63593 0
M  V30 3244 H 305.938 1.38403 -3.47556 0
M  V30 3245 H 307.271 1.83923 -4.56545 0
M  V30 3246 N 308.923 1.53595 0.353017 0
M  V30 3247 C 309.855 1.77219 1.45348 0
M  V30 3248 C 310.868 0.65324 1.49119 0
M  V30 3249 O 312.057 0.929775 1.52373 0
M  V30 3250 C 309.157 1.84841 2.84055 0
M  V30 3251 C 308.33 3.14649 3.03833 0
M  V30 3252 C 307.389 3.13351 4.22727 0
M  V30 3253 O 306.415 3.87107 4.17297 0
M  V30 3254 N 307.617 2.35052 5.30783 0
M  V30 3255 H 310.382 2.72178 1.25457 0
M  V30 3256 H 307.943 1.52528 0.542833 0
M  V30 3257 H 309.935 1.81435 3.61751 0
M  V30 3258 H 308.505 0.971114 2.97133 0
M  V30 3259 H 307.725 3.31256 2.13689 0
M  V30 3260 H 309.013 4.00411 3.13925 0
M  V30 3261 H 308.411 1.74663 5.38061 0
M  V30 3262 H 306.968 2.37453 6.07009 0
M  V30 3263 N 310.401 -0.613514 1.45168 0
M  V30 3264 C 311.349 -1.74572 1.53712 0
M  V30 3265 C 312.343 -1.64426 0.407505 0
M  V30 3266 O 313.549 -1.70291 0.583176 0
M  V30 3267 H 309.924 -0.576641 0.48269 0
M  V30 3268 H 311.895 -1.64492 2.48968 0
M  V30 3269 C 310.644 -3.12943 1.51532 0
M  V30 3270 H 309.967 -3.21407 2.37776 0
M  V30 3271 H 311.407 -3.9201 1.61569 0
M  V30 3272 C 309.866 -3.36053 0.238798 0
M  V30 3273 O 310.396 -3.95837 -0.6838 0
M  V30 3274 N 308.602 -2.9028 0.136359 0
M  V30 3275 H 308.149 -2.41811 0.887999 0
M  V30 3276 H 308.107 -3.06116 -0.716944 0
M  V30 3277 N 311.879 -1.3236 -0.855495 0
M  V30 3278 C 313.107 -1.2587 -1.64208 0
M  V30 3279 C 313.522 0.173457 -1.88002 0
M  V30 3280 O 312.879 1.11027 -1.44842 0
M  V30 3281 C 312.93 -2.01424 -3.00184 0
M  V30 3282 O 312.651 -3.39051 -2.77445 0
M  V30 3283 C 314.152 -2.01948 -3.94629 0
M  V30 3284 H 311.372 -0.434318 -0.511477 0
M  V30 3285 H 313.916 -1.74469 -1.0668 0
M  V30 3286 H 312.071 -1.56549 -3.5436 0
M  V30 3287 H 312.485 -3.77711 -3.63916 0
M  V30 3288 H 313.959 -2.59297 -4.87308 0
M  V30 3289 H 314.436 -1.00554 -4.27534 0
M  V30 3290 H 315.042 -2.46767 -3.4639 0
M  V30 3291 N 313.357 1.07166 -1.15556 0
M  V30 3292 C 314.307 2.12649 -0.82247 0
M  V30 3293 C 315.291 1.59725 0.194129 0
M  V30 3294 O 316.483 1.76999 -0.00540402 0
M  V30 3295 C 313.612 3.41847 -0.315572 0
M  V30 3296 C 312.698 4.0162 -1.36244 0
M  V30 3297 N 313.089 4.35625 -2.5703 0
M  V30 3298 C 311.387 4.29114 -1.21562 0
M  V30 3299 C 312.088 4.83017 -3.24144 0
M  V30 3300 N 311.064 4.81906 -2.51531 0
M  V30 3301 H 314.866 2.36776 -1.74111 0
M  V30 3302 H 312.38 1.24622 -1.0413 0
M  V30 3303 H 314.377 4.16859 -0.0585855 0
M  V30 3304 H 313.037 3.19163 0.597105 0
M  V30 3305 H 314.048 4.26253 -2.94158 0
M  V30 3306 H 310.725 4.15919 -0.362988 0
M  V30 3307 H 312.115 5.18605 -4.27198 0
M  V30 3308 N 314.835 0.952656 1.25548 0
M  V30 3309 C 316.084 0.602053 1.92505 0
M  V30 3310 C 316.397 -0.864663 1.75451 0
M  V30 3311 O 317.603 -1.32514 2.36965 0
M  V30 3312 C 316.059 1.02607 3.44963 0
M  V30 3313 C 315.667 2.51519 3.70732 0
M  V30 3314 C 317.411 0.747905 4.1786 0
M  V30 3315 C 315.318 2.87732 5.16686 0
M  V30 3316 H 314.248 0.22146 0.720744 0
M  V30 3317 H 316.899 1.15684 1.42441 0
M  V30 3318 H 315.281 0.399712 3.93978 0
M  V30 3319 H 316.455 3.19157 3.32378 0
M  V30 3320 H 314.77 2.76786 3.11092 0
M  V30 3321 H 317.367 0.994647 5.25367 0
M  V30 3322 H 317.71 -0.315629 4.15102 0
M  V30 3323 H 318.243 1.33452 3.74747 0
M  V30 3324 H 314.982 3.93095 5.24554 0
M  V30 3325 H 314.502 2.24765 5.56094 0
M  V30 3326 H 316.181 2.76817 5.84792 0
M  V30 3327 N 316.313 -1.40141 0.720998 0
M  V30 3328 C 317.562 -2.0002 0.259804 0
M  V30 3329 C 317.875 -1.57839 -1.15526 0
M  V30 3330 O 319.081 -2.10455 -1.71525 0
M  V30 3331 C 317.537 -3.57516 0.413566 0
M  V30 3332 C 317.145 -4.08667 1.83562 0
M  V30 3333 C 318.889 -4.24498 0.0134387 0
M  V30 3334 C 316.796 -5.58686 1.93968 0
M  V30 3335 H 315.726 -0.748195 0.0933806 0
M  V30 3336 H 318.377 -1.60313 0.892866 0
M  V30 3337 H 316.759 -3.9495 -0.288169 0
M  V30 3338 H 317.933 -3.82598 2.56817 0
M  V30 3339 H 316.248 -3.543 2.1877 0
M  V30 3340 H 318.845 -5.34654 0.0703954 0
M  V30 3341 H 319.188 -4.03375 -1.02927 0
M  V30 3342 H 319.721 -3.92188 0.665815 0
M  V30 3343 H 316.46 -5.8467 2.96379 0
M  V30 3344 H 315.98 -5.86602 1.25131 0
M  V30 3345 H 317.659 -6.23875 1.71431 0
M  V30 3346 N 317.792 -0.46758 -1.50504 0
M  V30 3347 C 318.74 0.342482 -2.30065 0
M  V30 3348 C 319.734 0.993596 -1.37201 0
M  V30 3349 O 320.94 0.925102 -1.54408 0
M  V30 3350 H 317.315 0.129283 -0.740803 0
M  V30 3351 H 319.286 -0.34899 -2.96352 0
M  V30 3352 C 318.035 1.4139 -3.17654 0
M  V30 3353 H 317.358 0.922264 -3.89017 0
M  V30 3354 H 318.798 1.95335 -3.76325 0
M  V30 3355 C 317.257 2.4139 -2.35016 0
M  V30 3356 O 317.787 3.46586 -2.03079 0
M  V30 3357 N 315.993 2.13021 -1.97662 0
M  V30 3358 H 315.54 1.27499 -2.23834 0
M  V30 3359 H 315.498 2.80164 -1.42673 0
M  V30 3360 N 319.27 1.56325 -0.20005 0
M  V30 3361 C 320.18 2.22931 0.730668 0
M  V30 3362 C 321.196 1.22997 1.23076 0
M  V30 3363 O 322.372 1.55748 1.27689 0
M  V30 3364 C 319.437 2.87948 1.93098 0
M  V30 3365 C 318.498 4.03166 1.47497 0
M  V30 3366 C 317.731 4.65073 2.61807 0
M  V30 3367 O 317.954 4.25913 3.79413 0
M  V30 3368 O 316.888 5.54452 2.34237 0
M  V30 3369 H 320.714 3.03084 0.193391 0
M  V30 3370 H 318.299 1.49371 0.0294621 0
M  V30 3371 H 320.181 3.29063 2.6324 0
M  V30 3372 H 318.856 2.10771 2.45677 0
M  V30 3373 H 317.763 3.66664 0.742201 0
M  V30 3374 H 319.096 4.82022 0.995796 0
M  V30 3375 N 320.748 -0.0735177 1.57428 0
M  V30 3376 C 321.711 -1.07192 2.02589 0
M  V30 3377 C 322.711 -1.31695 0.922661 0
M  V30 3378 O 323.901 -1.27445 1.18758 0
M  V30 3379 C 321.033 -2.41599 2.40506 0
M  V30 3380 H 322.226 -0.682727 2.92025 0
M  V30 3381 H 319.779 -0.319193 1.53006 0
M  V30 3382 H 320.514 -2.85354 1.5409 0
M  V30 3383 H 320.299 -2.25156 3.21009 0
M  V30 3384 H 321.789 -3.13367 2.76027 0
M  V30 3385 N 322.226 -1.5378 -0.344866 0
M  V30 3386 C 323.189 -1.80981 -1.40637 0
M  V30 3387 C 324.189 -0.680816 -1.45676 0
M  V30 3388 O 325.379 -0.949095 -1.46075 0
M  V30 3389 C 322.511 -1.95063 -2.79577 0
M  V30 3390 H 323.704 -2.75803 -1.17783 0
M  V30 3391 H 321.257 -1.45173 -0.579181 0
M  V30 3392 H 321.992 -1.02379 -3.07716 0
M  V30 3393 H 321.777 -2.77198 -2.77315 0
M  V30 3394 H 323.267 -2.17629 -3.56409 0
M  V30 3395 N 323.704 0.605807 -1.45491 0
M  V30 3396 C 324.951 1.36476 -1.49601 0
M  V30 3397 C 325.279 1.94007 -0.138452 0
M  V30 3398 O 324.534 1.75638 0.863114 0
M  V30 3399 C 324.833 2.53012 -2.52428 0
M  V30 3400 C 324.499 2.13617 -3.97087 0
M  V30 3401 C 323.161 2.02587 -4.36477 0
M  V30 3402 C 325.513 1.82899 -4.88055 0
M  V30 3403 C 322.841 1.59064 -5.64726 0
M  V30 3404 C 325.193 1.40861 -6.16718 0
M  V30 3405 C 323.857 1.28391 -6.55036 0
M  V30 3406 H 323.127 0.499402 -0.547429 0
M  V30 3407 H 325.774 0.684546 -1.78847 0
M  V30 3408 H 324.079 3.26379 -2.16758 0
M  V30 3409 H 325.776 3.1124 -2.52845 0
M  V30 3410 H 322.366 2.23129 -3.65939 0
M  V30 3411 H 326.55 1.90317 -4.58359 0
M  V30 3412 H 321.806 1.48034 -5.93208 0
M  V30 3413 H 325.98 1.16138 -6.86648 0
M  V30 3414 H 323.607 0.944403 -7.54311 0
M  V30 3415 N 325.182 1.32811 0.848464 0
M  V30 3416 C 326.13 1.22231 1.97895 0
M  V30 3417 C 327.124 0.125749 1.68933 0
M  V30 3418 O 328.33 0.289083 1.77663 0
M  V30 3419 H 324.705 0.379058 0.649476 0
M  V30 3420 H 326.676 2.17828 2.03945 0
M  V30 3421 C 325.425 0.968572 3.33937 0
M  V30 3422 H 324.748 1.80458 3.56756 0
M  V30 3423 H 326.188 0.934808 4.13567 0
M  V30 3424 C 324.647 -0.328628 3.35293 0
M  V30 3425 O 325.177 -1.33848 3.78745 0
M  V30 3426 N 323.383 -0.352788 2.88451 0
M  V30 3427 H 322.93 0.469541 2.53285 0
M  V30 3428 H 322.888 -1.22057 2.89741 0
M  V30 3429 N 326.66 -1.06551 1.16123 0
M  V30 3430 C 327.59 -2.15935 0.88851 0
M  V30 3431 C 328.571 -1.69306 -0.164135 0
M  V30 3432 O 329.756 -1.94193 -0.0167857 0
M  V30 3433 C 326.886 -3.45149 0.385942 0
M  V30 3434 C 325.84 -4.05271 1.3762 0
M  V30 3435 C 325.166 -5.29664 0.732137 0
M  V30 3436 C 326.466 -4.44355 2.74493 0
M  V30 3437 H 328.16 -2.39006 1.80323 0
M  V30 3438 H 325.706 -1.14866 0.868435 0
M  V30 3439 H 327.659 -4.21004 0.182647 0
M  V30 3440 H 326.383 -3.21689 -0.564274 0
M  V30 3441 H 325.042 -3.3147 1.56599 0
M  V30 3442 H 324.69 -5.02499 -0.224483 0
M  V30 3443 H 324.39 -5.70848 1.39307 0
M  V30 3444 H 325.914 -6.08218 0.538802 0
M  V30 3445 H 327.328 -5.11303 2.59311 0
M  V30 3446 H 325.725 -4.96515 3.37035 0
M  V30 3447 H 326.795 -3.55339 3.29943 0
M  V30 3448 N 328.138 -0.959301 -1.25041 0
M  V30 3449 C 329.071 -0.427418 -2.24161 0
M  V30 3450 C 330.049 0.493837 -1.54919 0
M  V30 3451 O 331.233 0.427144 -1.83597 0
M  V30 3452 C 328.36 0.383893 -3.36517 0
M  V30 3453 C 327.406 -0.478431 -4.23808 0
M  V30 3454 S 328.239 -1.91353 -5.00144 0
M  V30 3455 C 329.395 -1.11077 -6.15965 0
M  V30 3456 H 329.628 -1.26743 -2.6893 0
M  V30 3457 H 327.161 -0.763714 -1.34189 0
M  V30 3458 H 329.119 0.846039 -4.01687 0
M  V30 3459 H 327.78 1.19878 -2.90324 0
M  V30 3460 H 326.973 0.14406 -5.03794 0
M  V30 3461 H 326.575 -0.87597 -3.63597 0
M  V30 3462 H 328.867 -0.361699 -6.76534 0
M  V30 3463 H 329.81 -1.88472 -6.82557 0
M  V30 3464 H 330.218 -0.638843 -5.60873 0
M  V30 3465 N 329.616 1.39756 -0.72842 0
M  V30 3466 C 330.563 2.30647 -0.0841519 0
M  V30 3467 C 331.533 1.48869 0.7367 0
M  V30 3468 O 332.718 1.77574 0.698015 0
M  V30 3469 C 329.858 3.35165 0.822091 0
M  V30 3470 C 328.971 4.31999 -0.0106663 0
M  V30 3471 C 328.106 5.23585 0.896241 0
M  V30 3472 C 327.145 6.12072 0.0583381 0
M  V30 3473 N 326.282 6.96035 0.920818 0
M  V30 3474 H 331.122 2.85173 -0.864891 0
M  V30 3475 H 328.659 1.40422 -0.438179 0
M  V30 3476 H 330.617 3.94345 1.36189 0
M  V30 3477 H 329.247 2.8211 1.56888 0
M  V30 3478 H 328.299 3.74492 -0.66781 0
M  V30 3479 H 329.611 4.9443 -0.658825 0
M  V30 3480 H 328.765 5.87759 1.50412 0
M  V30 3481 H 327.504 4.61459 1.57819 0
M  V30 3482 H 326.509 5.46916 -0.562389 0
M  V30 3483 H 327.734 6.76261 -0.6203 0
M  V30 3484 H 325.68 6.36485 1.58818 0
M  V30 3485 H 325.597 7.55284 0.32899 0
M  V30 3486 H 326.865 7.64646 1.51447 0
M  V30 3487 N 331.094 0.475555 1.50254 0
M  V30 3488 C 332.505 0.0215174 1.86688 0
M  V30 3489 C 332.856 -1.38467 1.39001 0
M  V30 3490 O 331.981 -2.02732 0.756894 0
M  V30 3491 C 332.576 0.0322715 3.38785 0
M  V30 3492 C 331.135 -0.366314 3.74613 0
M  V30 3493 C 330.282 0.415832 2.74164 0
M  V30 3494 H 333.233 0.689612 1.42934 0
M  V30 3495 H 333.254 -0.76889 3.7265 0
M  V30 3496 H 332.766 1.05584 3.73462 0
M  V30 3497 H 330.867 -1.39406 3.45538 0
M  V30 3498 H 330.98 -0.064555 4.79057 0
M  V30 3499 H 329.344 -0.131048 2.54363 0
M  V30 3500 H 330.127 1.43899 3.11686 0
M  V30 3501 N 332.573 -1.56217 0.208337 0
M  V30 3502 C 333.821 -1.97558 -0.426076 0
M  V30 3503 C 334.142 -1.09683 -1.61229 0
M  V30 3504 O 333.412 -0.170956 -1.95153 0
M  V30 3505 H 331.992 -0.729575 -0.160405 0
M  V30 3506 H 334.654 -1.92606 0.298155 0
M  V30 3507 H 333.75 -3.02672 -0.761312 0
M  V30 3508 N 334.051 0.0651679 -1.57465 0
M  V30 3509 C 335.014 1.06117 -2.03155 0
M  V30 3510 C 336.014 1.31204 -0.929632 0
M  V30 3511 O 337.204 1.26813 -1.19432 0
M  V30 3512 C 334.336 2.4032 -2.41783 0
M  V30 3513 H 335.529 0.667231 -2.92383 0
M  V30 3514 H 333.082 0.311075 -1.53173 0
M  V30 3515 H 333.817 2.84532 -1.55601 0
M  V30 3516 H 333.602 2.23451 -3.22199 0
M  V30 3517 H 335.092 3.11898 -2.77685 0
M  V30 3518 N 335.529 1.53961 0.336706 0
M  V30 3519 C 336.778 1.70751 1.07363 0
M  V30 3520 C 337.091 0.481061 1.89592 0
M  V30 3521 O 338.297 0.530046 2.66276 0
M  V30 3522 C 336.753 3.01965 1.95818 0
M  V30 3523 C 336.361 4.31971 1.18764 0
M  V30 3524 C 338.105 3.28121 2.69327 0
M  V30 3525 C 336.012 5.54255 2.06289 0
M  V30 3526 H 334.942 0.636292 0.404535 0
M  V30 3527 H 337.593 1.80459 0.332681 0
M  V30 3528 H 335.975 2.86132 2.7376 0
M  V30 3529 H 337.149 4.5853 0.456849 0
M  V30 3530 H 335.464 4.12481 0.569946 0
M  V30 3531 H 338.061 4.16673 3.35094 0
M  V30 3532 H 338.404 2.45426 3.36261 0
M  V30 3533 H 338.937 3.44762 1.98454 0
M  V30 3534 H 335.676 6.39513 1.43885 0
M  V30 3535 H 335.196 5.31935 2.77138 0
M  V30 3536 H 336.875 5.90159 2.65182 0
M  V30 3537 N 337.007 -0.598083 1.45811 0
M  V30 3538 C 338.253 -1.35882 1.50545 0
M  V30 3539 C 338.586 -1.93616 0.150445 0
M  V30 3540 O 337.861 -1.75604 -0.83628 0
M  V30 3541 C 338.144 -2.49966 2.59208 0
M  V30 3542 C 337.997 -1.97367 4.04186 0
M  V30 3543 C 339.316 -3.52068 2.64076 0
M  V30 3544 H 336.435 -0.492717 0.548087 0
M  V30 3545 H 339.077 -0.673319 1.77669 0
M  V30 3546 H 337.227 -3.08443 2.3621 0
M  V30 3547 H 338.899 -1.43466 4.38423 0
M  V30 3548 H 337.142 -1.283 4.14393 0
M  V30 3549 H 337.813 -2.79649 4.75921 0
M  V30 3550 H 340.289 -3.03448 2.84708 0
M  V30 3551 H 339.165 -4.2937 3.41954 0
M  V30 3552 H 339.426 -4.08304 1.69531 0
M  V30 3553 N 338.485 -1.33259 -0.841409 0
M  V30 3554 C 339.734 -1.23921 -1.59143 0
M  V30 3555 C 340.047 0.1941 -1.94635 0
M  V30 3556 O 341.253 0.409474 -2.68394 0
M  V30 3557 C 339.709 -2.17119 -2.87032 0
M  V30 3558 C 339.317 -3.65606 -2.58914 0
M  V30 3559 C 341.061 -2.16648 -3.65053 0
M  V30 3560 C 338.968 -4.50726 -3.82884 0
M  V30 3561 H 337.898 -0.460264 -0.597221 0
M  V30 3562 H 340.549 -1.58307 -0.927959 0
M  V30 3563 H 338.931 -1.75663 -3.54906 0
M  V30 3564 H 340.105 -4.15487 -1.99267 0
M  V30 3565 H 338.42 -3.68341 -1.942 0
M  V30 3566 H 341.017 -2.77474 -4.57069 0
M  V30 3567 H 341.36 -1.16088 -3.99787 0
M  V30 3568 H 341.893 -2.56453 -3.041 0
M  V30 3569 H 338.632 -5.52151 -3.53283 0
M  V30 3570 H 338.152 -4.0559 -4.41879 0
M  V30 3571 H 339.831 -4.64401 -4.50489 0
M  V30 3572 N 339.963 1.05934 -1.16686 0
M  V30 3573 C 340.911 2.15603 -0.872817 0
M  V30 3574 C 341.905 1.68647 0.159576 0
M  V30 3575 O 343.111 1.79995 0.0132125 0
M  V30 3576 H 339.486 0.703885 -0.264671 0
M  V30 3577 H 341.457 2.37613 -1.80507 0
M  V30 3578 C 340.206 3.45457 -0.394344 0
M  V30 3579 H 339.529 3.81984 -1.18019 0
M  V30 3580 H 340.969 4.2339 -0.227408 0
M  V30 3581 C 339.428 3.25021 0.88673 0
M  V30 3582 O 339.958 3.50906 1.95519 0
M  V30 3583 N 338.164 2.78437 0.831925 0
M  V30 3584 H 337.711 2.57572 -0.0377619 0
M  V30 3585 H 337.669 2.65144 1.68956 0
M  V30 3586 N 341.441 0.965919 1.2453 0
M  V30 3587 C 342.669 0.644385 1.96609 0
M  V30 3588 C 343.084 -0.785823 1.71669 0
M  V30 3589 O 342.441 -1.52703 0.999399 0
M  V30 3590 C 342.492 0.907375 3.49927 0
M  V30 3591 O 342.213 2.28136 3.74013 0
M  V30 3592 C 343.714 0.599784 4.39224 0
M  V30 3593 H 340.934 0.240588 0.626385 0
M  V30 3594 H 343.478 1.29337 1.58405 0
M  V30 3595 H 341.633 0.304631 3.862 0
M  V30 3596 H 342.047 2.36002 4.68405 0
M  V30 3597 H 343.521 0.834263 5.45659 0
M  V30 3598 H 343.998 -0.465921 4.36722 0
M  V30 3599 H 344.604 1.18235 4.08535 0
M  V30 3600 N 342.919 -1.39368 0.735821 0
M  V30 3601 C 343.882 -2.2896 0.104874 0
M  V30 3602 C 344.882 -1.46347 -0.666274 0
M  V30 3603 O 346.072 -1.67014 -0.49517 0
M  V30 3604 C 343.204 -3.29857 -0.860656 0
M  V30 3605 H 344.397 -2.86259 0.894205 0
M  V30 3606 H 341.95 -1.48029 0.501704 0
M  V30 3607 H 342.685 -2.77615 -1.67631 0
M  V30 3608 H 342.47 -3.9087 -0.310327 0
M  V30 3609 H 343.96 -3.96893 -1.29867 0
M  V30 3610 N 344.397 -0.483516 -1.5 0
M  V30 3611 C 345.813 -0.138404 -1.58999 0
M  V30 3612 C 346.013 1.35597 -1.4905 0
M  V30 3613 O 345.069 2.13039 -1.35539 0
M  V30 3614 C 346.382 -0.699658 -2.92447 0
M  V30 3615 C 347.93 -0.664195 -3.05872 0
M  V30 3616 C 348.405 -1.20321 -4.41913 0
M  V30 3617 N 349.896 -1.16315 -4.48358 0
M  V30 3618 C 350.631 -1.55058 -5.52037 0
M  V30 3619 N 350.127 -2.01311 -6.62907 0
M  V30 3620 N 351.92 -1.46584 -5.42651 0
M  V30 3621 H 344.071 -1.45529 -1.5471 0
M  V30 3622 H 346.334 -0.60258 -0.731848 0
M  V30 3623 H 346.04 -1.747 -3.05242 0
M  V30 3624 H 345.914 -0.150194 -3.76901 0
M  V30 3625 H 348.301 0.374272 -2.92717 0
M  V30 3626 H 348.382 -1.25061 -2.23144 0
M  V30 3627 H 348.026 -2.24037 -4.55818 0
M  V30 3628 H 347.956 -0.592896 -5.23252 0
M  V30 3629 H 350.447 -0.824058 -3.68806 0
M  V30 3630 H 350.76 -2.2899 -7.38095 0
M  V30 3631 H 349.105 -2.05273 -6.63994 0
M  V30 3632 H 352.296 -1.10281 -4.54924 0
M  V30 3633 H 352.469 -1.77103 -6.23329 0
M  V30 3634 N 345.875 1.56104 -0.216619 0
M  V30 3635 C 347.286 1.844 0.292128 0
M  V30 3636 C 347.637 1.13788 1.59833 0
M  V30 3637 O 346.762 0.405888 2.12559 0
M  V30 3638 C 347.357 3.3452 0.53681 0
M  V30 3639 C 345.916 3.63151 0.989876 0
M  V30 3640 C 345.063 2.77255 0.0502302 0
M  V30 3641 H 348.014 1.52481 -0.439926 0
M  V30 3642 H 348.035 3.54459 1.38345 0
M  V30 3643 H 347.547 3.85885 -0.414031 0
M  V30 3644 H 345.648 3.17238 1.95425 0
M  V30 3645 H 345.761 4.71177 0.867698 0
M  V30 3646 H 344.125 2.48555 0.556117 0
M  V30 3647 H 344.908 3.31416 -0.89544 0
M  V30 3648 N 347.353 -0.0568162 1.57498 0
M  V30 3649 C 348.301 -1.08452 2.05769 0
M  V30 3650 C 349.295 -1.39164 0.965903 0
M  V30 3651 O 350.501 -1.38395 1.15095 0
M  V30 3652 H 346.876 -0.367148 0.656282 0
M  V30 3653 H 348.847 -0.651368 2.91204 0
M  V30 3654 C 347.596 -2.38543 2.52968 0
M  V30 3655 H 346.919 -2.15765 3.36579 0
M  V30 3656 H 348.359 -3.08863 2.90481 0
M  V30 3657 C 346.818 -3.05562 1.41893 0
M  V30 3658 O 347.348 -3.94262 0.769442 0
M  V30 3659 N 345.554 -2.6643 1.16032 0
M  V30 3660 H 345.101 -1.94387 1.6903 0
M  V30 3661 H 345.059 -3.11593 0.419219 0
M  V30 3662 N 348.832 -1.54138 -0.328536 0
M  V30 3663 C 349.762 -1.86167 -1.40939 0
M  V30 3664 C 350.743 -0.718044 -1.54202 0
M  V30 3665 O 351.928 -0.971328 -1.68163 0
M  V30 3666 C 349.058 -2.08461 -2.77779 0
M  V30 3667 C 348.012 -3.24299 -2.7931 0
M  V30 3668 C 347.338 -3.31955 -4.19178 0
M  V30 3669 C 348.638 -4.62065 -2.43502 0
M  V30 3670 H 350.332 -2.76689 -1.14383 0
M  V30 3671 H 347.878 -1.33132 -0.548806 0
M  V30 3672 H 349.831 -2.29453 -3.53454 0
M  V30 3673 H 348.555 -1.14684 -3.05802 0
M  V30 3674 H 347.214 -3.03187 -2.0609 0
M  V30 3675 H 346.862 -2.35745 -4.44335 0
M  V30 3676 H 346.562 -4.09805 -4.2111 0
M  V30 3677 H 348.086 -3.55175 -4.96672 0
M  V30 3678 H 349.5 -4.8297 -3.08889 0
M  V30 3679 H 347.897 -5.42429 -2.56693 0
M  V30 3680 H 348.967 -4.64652 -1.38659 0
M  V30 3681 N 350.31 0.590341 -1.46126 0
M  V30 3682 C 351.559 1.34499 -1.50309 0
M  V30 3683 C 351.872 1.94977 -0.156021 0
M  V30 3684 O 353.078 2.71395 -0.0756037 0
M  V30 3685 C 351.534 2.43723 -2.64815 0
M  V30 3686 C 351.142 1.89582 -4.0591 0
M  V30 3687 C 352.886 3.20579 -2.78262 0
M  V30 3688 C 350.793 2.9639 -5.11769 0
M  V30 3689 H 349.723 0.505593 -0.559368 0
M  V30 3690 H 352.374 0.630848 -1.72315 0
M  V30 3691 H 350.756 3.17902 -2.36124 0
M  V30 3692 H 351.93 1.21997 -4.44357 0
M  V30 3693 H 350.245 1.25418 -3.97063 0
M  V30 3694 H 352.842 4.00276 -3.54519 0
M  V30 3695 H 353.185 3.72684 -1.85505 0
M  V30 3696 H 353.718 2.53505 -3.06562 0
M  V30 3697 H 350.457 2.49181 -6.06291 0
M  V30 3698 H 349.977 3.62487 -4.77873 0
M  V30 3699 H 351.656 3.60474 -5.37278 0
M  V30 3700 N 351.788 1.33704 0.83433 0
M  V30 3701 C 353.065 1.16011 1.57483 0
M  V30 3702 C 353.445 -0.27176 2.09343 0
M  V30 3703 O 352.793 -1.27146 1.89858 0
M  V30 3704 C 353.003 2.20507 2.70514 0
M  V30 3705 C 354.351 2.54898 3.39577 0
M  V30 3706 O 355.375 2.19209 2.80759 0
M  V30 3707 O 354.234 3.16158 4.45765 0
M  V30 3708 H 351.328 0.448992 0.694503 0
M  V30 3709 H 353.874 1.453 0.876691 0
M  V30 3710 H 352.646 3.16667 2.29865 0
M  V30 3711 H 352.269 1.92329 3.47987 0
M  V30 3712 N 353.266 -1.05314 1.17247 0
M  V30 3713 C 354.494 -1.81971 0.984593 0
M  V30 3714 C 354.909 -1.82929 -0.467166 0
M  V30 3715 O 354.266 -1.25564 -1.32438 0
M  V30 3716 C 354.317 -3.28143 1.51672 0
M  V30 3717 O 354.038 -3.27347 2.91163 0
M  V30 3718 C 355.539 -4.21493 1.37326 0
M  V30 3719 H 352.759 -0.573455 0.348411 0
M  V30 3720 H 355.303 -1.32808 1.55506 0
M  V30 3721 H 353.458 -3.74582 0.988302 0
M  V30 3722 H 353.872 -4.18824 3.15732 0
M  V30 3723 H 355.346 -5.22043 1.79375 0
M  V30 3724 H 355.823 -4.38031 0.320169 0
M  V30 3725 H 356.429 -3.80909 1.89178 0
M  V30 3726 N 354.744 -0.972509 -1.24016 0
M  V30 3727 C 355.676 -0.464375 -2.24446 0
M  V30 3728 C 356.689 0.4295 -1.57032 0
M  V30 3729 O 357.878 0.234902 -1.76948 0
M  V30 3730 C 354.978 0.348385 -3.37105 0
M  V30 3731 C 354.151 -0.53673 -4.34094 0
M  V30 3732 C 353.21 0.220838 -5.25736 0
M  V30 3733 O 352.236 -0.386867 -5.67884 0
M  V30 3734 N 353.438 1.50907 -5.60542 0
M  V30 3735 H 356.203 -1.32788 -2.68677 0
M  V30 3736 H 353.764 -0.844877 -1.38107 0
M  V30 3737 H 355.756 0.863341 -3.95384 0
M  V30 3738 H 354.326 1.11285 -2.92121 0
M  V30 3739 H 353.546 -1.23261 -3.74433 0
M  V30 3740 H 354.834 -1.14022 -4.95859 0
M  V30 3741 H 354.232 2.02444 -5.28236 0
M  V30 3742 H 352.789 1.96962 -6.21329 0
M  V30 3743 N 356.222 1.38976 -0.743202 0
M  V30 3744 C 357.185 2.28901 -0.117014 0
M  V30 3745 C 358.185 1.46698 0.658503 0
M  V30 3746 O 359.375 1.67274 0.486305 0
M  V30 3747 C 356.507 3.30309 0.84315 0
M  V30 3748 H 357.7 2.8578 -0.909373 0
M  V30 3749 H 355.253 1.47761 -0.509547 0
M  V30 3750 H 355.988 2.785 1.66157 0
M  V30 3751 H 355.773 3.91029 0.289594 0
M  V30 3752 H 357.263 3.97577 1.2776 0
M  V30 3753 N 357.7 0.491464 1.49741 0
M  V30 3754 C 358.633 -0.338464 2.25676 0
M  V30 3755 C 359.611 -0.978676 1.29849 0
M  V30 3756 O 360.795 -1.01064 1.59117 0
M  V30 3757 C 357.922 -1.47588 3.04853 0
M  V30 3758 C 356.968 -0.951 4.15762 0
M  V30 3759 S 357.801 0.150626 5.35288 0
M  V30 3760 C 358.957 -0.990178 6.18018 0
M  V30 3761 H 359.19 0.306068 2.9572 0
M  V30 3762 H 356.723 0.276622 1.51902 0
M  V30 3763 H 358.681 -2.12764 3.51058 0
M  V30 3764 H 357.342 -2.09199 2.34296 0
M  V30 3765 H 356.535 -1.80311 4.70642 0
M  V30 3766 H 356.137 -0.376607 3.72099 0
M  V30 3767 H 358.429 -1.89748 6.50386 0
M  V30 3768 H 359.372 -0.480205 7.0647 0
M  V30 3769 H 359.78 -1.25321 5.50413 0
M  V30 3770 N 359.178 -1.55987 0.224894 0
M  V30 3771 C 360.108 -2.23426 -0.678457 0
M  V30 3772 C 361.089 -1.20709 -1.19847 0
M  V30 3773 O 362.274 -1.49304 -1.24186 0
M  V30 3774 C 359.404 -2.91676 -1.88527 0
M  V30 3775 C 358.358 -4.00893 -1.49896 0
M  V30 3776 C 357.684 -4.56455 -2.78483 0
M  V30 3777 C 358.984 -5.17769 -0.686461 0
M  V30 3778 H 360.678 -2.99175 -0.116173 0
M  V30 3779 H 358.224 -1.43897 -0.054436 0
M  V30 3780 H 360.177 -3.37547 -2.5227 0
M  V30 3781 H 358.901 -2.1338 -2.47258 0
M  V30 3782 H 357.56 -3.55758 -0.884985 0
M  V30 3783 H 357.208 -3.74886 -3.35365 0
M  V30 3784 H 356.908 -5.30169 -2.53368 0
M  V30 3785 H 358.432 -5.05047 -3.43162 0
M  V30 3786 H 359.846 -5.60001 -1.22767 0
M  V30 3787 H 358.243 -5.97735 -0.532259 0
M  V30 3788 H 359.313 -4.83932 0.306196 0
M  V30 3789 N 360.656 0.0484629 -1.57525 0
M  V30 3790 C 361.881 0.759177 -1.93006 0
M  V30 3791 C 362.306 1.69125 -0.823317 0
M  V30 3792 O 361.664 1.79931 0.222364 0
M  V30 3793 C 361.712 1.50899 -3.27509 0
M  V30 3794 O 360.816 2.62112 -3.18388 0
M  V30 3795 H 360.157 0.205564 -0.631379 0
M  V30 3796 H 362.687 0.00972959 -2.04598 0
M  V30 3797 H 362.697 1.88317 -3.6194 0
M  V30 3798 H 361.372 0.825269 -4.0763 0
M  V30 3799 H 359.949 2.27379 -2.95556 0
M  V30 3800 N 362.134 1.5431 0.320358 0
M  V30 3801 C 363.082 1.84647 1.4145 0
M  V30 3802 C 364.076 0.718624 1.53402 0
M  V30 3803 O 365.282 0.902335 1.5575 0
M  V30 3804 H 361.657 0.585349 0.472091 0
M  V30 3805 H 363.628 2.7614 1.13089 0
M  V30 3806 C 362.377 2.09341 2.77617 0
M  V30 3807 H 361.7 2.9559 2.69196 0
M  V30 3808 H 363.14 2.3452 3.53237 0
M  V30 3809 C 361.599 0.885939 3.25043 0
M  V30 3810 O 362.129 0.0967891 4.01583 0
M  V30 3811 N 360.335 0.696682 2.82125 0
M  V30 3812 H 359.882 1.34006 2.2 0
M  V30 3813 H 359.84 -0.109712 3.14209 0
M  V30 3814 N 363.613 -0.582584 1.46437 0
M  V30 3815 C 364.543 -1.70187 1.59871 0
M  V30 3816 C 365.524 -1.64066 0.449042 0
M  V30 3817 O 366.709 -1.82081 0.6753 0
M  V30 3818 C 363.839 -3.08827 1.58881 0
M  V30 3819 C 362.793 -3.29779 2.72819 0
M  V30 3820 C 362.119 -4.68947 2.5689 0
M  V30 3821 C 363.419 -3.17601 4.1464 0
M  V30 3822 H 365.113 -1.592 2.53566 0
M  V30 3823 H 362.659 -0.764472 1.22032 0
M  V30 3824 H 364.612 -3.86951 1.66873 0
M  V30 3825 H 363.336 -3.20713 0.617306 0
M  V30 3826 H 361.995 -2.54054 2.64296 0
M  V30 3827 H 361.643 -4.77599 1.57823 0
M  V30 3828 H 361.343 -4.83919 3.33312 0
M  V30 3829 H 362.867 -5.4924 2.66773 0
M  V30 3830 H 364.281 -3.8557 4.24274 0
M  V30 3831 H 362.678 -3.44094 4.9165 0
M  V30 3832 H 363.748 -2.14681 4.34788 0
M  V30 3833 N 365.091 -1.34144 -0.827227 0
M  V30 3834 C 366.038 -1.25364 -1.93785 0
M  V30 3835 C 367.008 -0.129774 -1.65592 0
M  V30 3836 O 368.193 -0.310024 -1.88264 0
M  V30 3837 C 365.333 -1.01064 -3.2997 0
M  V30 3838 C 364.446 -2.22185 -3.70484 0
M  V30 3839 C 363.581 -1.91203 -4.95595 0
M  V30 3840 C 362.62 -3.08491 -5.28677 0
M  V30 3841 N 361.757 -2.77421 -6.44967 0
M  V30 3842 H 366.597 -2.20347 -2.00627 0
M  V30 3843 H 364.134 -1.09558 -0.981608 0
M  V30 3844 H 366.092 -0.850139 -4.08446 0
M  V30 3845 H 364.722 -0.0975026 -3.22653 0
M  V30 3846 H 363.774 -2.4917 -2.87434 0
M  V30 3847 H 365.086 -3.0983 -3.90905 0
M  V30 3848 H 364.24 -1.71864 -5.81848 0
M  V30 3849 H 362.979 -1.00812 -4.77167 0
M  V30 3850 H 361.984 -3.28431 -4.40923 0
M  V30 3851 H 363.209 -3.99655 -5.49047 0
M  V30 3852 H 361.155 -1.89601 -6.28003 0
M  V30 3853 H 361.072 -3.58598 -6.6554 0
M  V30 3854 H 362.34 -2.61577 -7.34301 0
M  V30 3855 N 366.569 1.04691 -1.17803 0
M  V30 3856 C 367.794 1.81984 -0.994813 0
M  V30 3857 C 368.219 1.82586 0.452112 0
M  V30 3858 O 367.577 1.23854 1.324 0
M  V30 3859 C 367.625 3.2575 -1.54659 0
M  V30 3860 O 366.729 4.05267 -0.763728 0
M  V30 3861 H 366.07 0.562483 -0.352857 0
M  V30 3862 H 368.6 1.3189 -1.56417 0
M  V30 3863 H 368.61 3.76541 -1.57102 0
M  V30 3864 H 367.285 3.24627 -2.59981 0
M  V30 3865 H 365.862 3.63972 -0.811108 0
M  V30 3866 N 368.047 0.979072 1.23499 0
M  V30 3867 C 369.295 0.645941 1.91499 0
M  V30 3868 C 369.616 -0.822948 1.76784 0
M  V30 3869 O 368.886 -1.58854 1.14639 0
M  V30 3870 H 367.466 0.235919 0.708767 0
M  V30 3871 H 370.128 1.2426 1.50152 0
M  V30 3872 H 369.224 0.896411 2.9895 0
M  V30 3873 N 369.525 -1.3858 0.750561 0
M  V30 3874 C 370.472 -2.30483 0.120835 0
M  V30 3875 C 371.442 -1.50022 -0.712923 0
M  V30 3876 O 372.627 -1.78662 -0.669676 0
M  V30 3877 C 369.767 -3.36431 -0.768666 0
M  V30 3878 C 368.88 -4.31927 0.0793922 0
M  V30 3879 C 368.015 -5.24944 -0.81283 0
M  V30 3880 C 367.054 -6.12088 0.0390447 0
M  V30 3881 N 366.191 -6.97412 -0.809969 0
M  V30 3882 H 371.031 -2.83761 0.91015 0
M  V30 3883 H 368.568 -1.39707 0.460463 0
M  V30 3884 H 370.526 -3.96462 -1.29898 0
M  V30 3885 H 369.156 -2.8457 -1.5238 0
M  V30 3886 H 368.208 -3.73382 0.727303 0
M  V30 3887 H 369.52 -4.93319 0.737401 0
M  V30 3888 H 368.674 -5.90078 -1.41042 0
M  V30 3889 H 367.413 -4.63911 -1.50458 0
M  V30 3890 H 366.418 -5.45952 0.649328 0
M  V30 3891 H 367.643 -6.75189 0.727809 0
M  V30 3892 H 365.589 -6.38931 -1.48672 0
M  V30 3893 H 365.506 -7.55712 -0.208789 0
M  V30 3894 H 366.774 -7.66959 -1.39263 0
M  V30 3895 N 371.003 -0.499398 -1.49478 0
M  V30 3896 C 371.933 0.269244 -2.31943 0
M  V30 3897 C 372.914 0.964054 -1.40143 0
M  V30 3898 O 374.099 0.955767 -1.69052 0
M  V30 3899 C 371.229 1.33504 -3.20615 0
M  V30 3900 C 370.183 0.760202 -4.21195 0
M  V30 3901 C 369.509 1.9264 -4.98792 0
M  V30 3902 C 370.809 -0.247661 -5.21712 0
M  V30 3903 H 372.503 -0.419082 -2.96452 0
M  V30 3904 H 370.049 -0.202988 -1.42562 0
M  V30 3905 H 372.002 1.88048 -3.77115 0
M  V30 3906 H 370.726 2.05253 -2.54045 0
M  V30 3907 H 369.385 0.23653 -3.65836 0
M  V30 3908 H 369.033 2.63154 -4.28671 0
M  V30 3909 H 368.733 1.54785 -5.66847 0
M  V30 3910 H 370.257 2.4762 -5.58137 0
M  V30 3911 H 371.671 0.209579 -5.72917 0
M  V30 3912 H 370.068 -0.541962 -5.97648 0
M  V30 3913 H 371.138 -1.16409 -4.7072 0
M  V30 3914 N 372.481 1.55866 -0.233164 0
M  V30 3915 C 373.444 2.1953 0.658715 0
M  V30 3916 C 374.444 1.16053 1.11303 0
M  V30 3917 O 375.634 1.41218 1.01996 0
M  V30 3918 C 372.766 2.82791 1.90373 0
M  V30 3919 H 373.959 2.99721 0.10347 0
M  V30 3920 H 371.512 1.56291 0.0164245 0
M  V30 3921 H 372.247 2.06501 2.50056 0
M  V30 3922 H 372.032 3.58578 1.58632 0
M  V30 3923 H 373.522 3.31556 2.53891 0
M  V30 3924 N 373.959 -0.0401083 1.57549 0
M  V30 3925 C 375.207 -0.731677 1.8839 0
M  V30 3926 C 375.528 -1.76481 0.829425 0
M  V30 3927 O 374.798 -1.95411 -0.1383 0
M  V30 3928 H 373.378 -0.273225 0.695239 0
M  V30 3929 H 376.04 -0.00867725 1.94898 0
M  V30 3930 H 375.136 -1.22816 2.86919 0
M  V30 3931 N 375.437 -1.54477 -0.31217 0
M  V30 3932 C 376.683 -1.73483 -1.0503 0
M  V30 3933 C 377.016 -0.513125 -1.87298 0
M  V30 3934 O 376.291 0.489864 -1.8823 0
M  V30 3935 C 376.574 -3.01723 -1.96558 0
M  V30 3936 C 376.427 -4.3417 -1.17545 0
M  V30 3937 C 377.746 -3.25772 -2.95907 0
M  V30 3938 H 374.865 -0.631222 -0.380432 0
M  V30 3939 H 377.507 -1.87184 -0.325932 0
M  V30 3940 H 375.657 -2.90174 -2.58324 0
M  V30 3941 H 377.329 -4.5762 -0.581513 0
M  V30 3942 H 375.572 -4.31159 -0.477925 0
M  V30 3943 H 376.243 -5.20143 -1.84811 0
M  V30 3944 H 378.719 -3.36857 -2.44267 0
M  V30 3945 H 377.595 -4.16838 -3.57123 0
M  V30 3946 H 377.856 -2.43537 -3.68974 0
M  V30 3947 N 376.915 0.57481 -1.46744 0
M  V30 3948 C 378.163 1.33009 -1.52161 0
M  V30 3949 C 378.484 1.94185 -0.178092 0
M  V30 3950 O 377.754 1.7899 0.796196 0
M  V30 3951 H 376.334 0.493873 -0.560445 0
M  V30 3952 H 378.996 0.672589 -1.82927 0
M  V30 3953 H 378.092 2.13273 -2.27862 0
M  V30 3954 N 378.394 1.34581 0.820102 0
M  V30 3955 C 379.643 1.26437 1.57151 0
M  V30 3956 C 379.956 -0.163111 1.94919 0
M  V30 3957 O 381.162 -0.366722 2.69012 0
M  V30 3958 C 379.618 2.21658 2.83541 0
M  V30 3959 C 379.226 3.69679 2.53065 0
M  V30 3960 C 380.97 2.22428 3.61561 0
M  V30 3961 C 378.877 4.56761 3.75664 0
M  V30 3962 H 377.807 0.469707 0.589823 0
M  V30 3963 H 380.458 1.59763 0.902656 0
M  V30 3964 H 378.84 1.81287 3.52067 0
M  V30 3965 H 380.014 4.18605 1.92631 0
M  V30 3966 H 378.329 3.71384 1.88316 0
M  V30 3967 H 380.926 2.8471 4.52597 0
M  V30 3968 H 381.269 1.22434 3.97889 0
M  V30 3969 H 381.802 2.61259 2.99981 0
M  V30 3970 H 378.541 5.57702 3.44454 0
M  V30 3971 H 378.061 4.12568 4.35371 0
M  V30 3972 H 379.74 4.71509 4.43044 0
M  V30 3973 N 379.872 -1.04064 1.18357 0
M  V30 3974 C 381.149 -1.74252 0.888581 0
M  V30 3975 C 381.529 -2.02138 -0.60856 0
M  V30 3976 O 380.877 -1.66656 -1.56327 0
M  V30 3977 C 381.087 -3.0277 1.73584 0
M  V30 3978 C 382.435 -3.76506 1.96286 0
M  V30 3979 O 383.459 -3.12668 1.70637 0
M  V30 3980 O 382.318 -4.91243 2.39464 0
M  V30 3981 H 379.412 -0.758271 0.330082 0
M  V30 3982 H 381.958 -1.1013 1.2911 0
M  V30 3983 H 380.73 -2.78299 2.75073 0
M  V30 3984 H 380.353 -3.74631 1.33183 0
M  V30 3985 N 381.35 -0.985608 -1.22978 0
M  V30 3986 C 382.578 -0.675582 -1.95559 0
M  V30 3987 C 382.993 0.758413 -1.72897 0
M  V30 3988 O 382.35 1.51094 -1.02357 0
M  V30 3989 C 382.401 -0.96293 -3.48439 0
M  V30 3990 O 382.122 -2.34057 -3.70336 0
M  V30 3991 C 383.623 -0.669585 -4.38214 0
M  V30 3992 H 380.843 -0.250523 -0.622478 0
M  V30 3993 H 383.387 -1.3184 -1.56328 0
M  V30 3994 H 381.542 -0.366033 -3.85667 0
M  V30 3995 H 381.956 -2.43424 -4.64591 0
M  V30 3996 H 383.43 -0.920967 -5.44263 0
M  V30 3997 H 383.907 0.396383 -4.37408 0
M  V30 3998 H 384.513 -1.2472 -4.06602 0
M  V30 3999 N 382.828 1.3818 -0.7579 0
M  V30 4000 C 384.058 2.04004 -0.326463 0
M  V30 4001 C 384.466 1.57286 1.05156 0
M  V30 4002 O 383.809 0.743144 1.67997 0
M  V30 4003 C 383.871 3.58444 -0.275402 0
M  V30 4004 C 383.535 4.28237 -1.59569 0
M  V30 4005 C 384.532 4.53312 -2.54566 0
M  V30 4006 C 382.217 4.66341 -1.86631 0
M  V30 4007 C 384.211 5.15531 -3.74842 0
M  V30 4008 C 381.898 5.28283 -3.0718 0
M  V30 4009 C 382.896 5.52814 -4.01106 0
M  V30 4010 O 382.584 6.13465 -5.19534 0
M  V30 4011 H 382.316 0.662026 -0.136739 0
M  V30 4012 H 384.87 1.7777 -1.02893 0
M  V30 4013 H 383.1 3.83667 0.483337 0
M  V30 4014 H 384.789 4.05701 0.127099 0
M  V30 4015 H 385.555 4.24299 -2.34936 0
M  V30 4016 H 381.434 4.46591 -1.14358 0
M  V30 4017 H 384.978 5.34594 -4.48168 0
M  V30 4018 H 380.875 5.56719 -3.26702 0
M  V30 4019 H 381.643 6.31951 -5.20173 0
M  V30 4020 N 384.306 0.507319 1.49211 0
M  V30 4021 C 385.216 -0.272136 2.33016 0
M  V30 4022 C 386.232 -0.961206 1.45041 0
M  V30 4023 O 387.408 -0.941191 1.78055 0
M  V30 4024 C 384.473 -1.31895 3.20631 0
M  V30 4025 C 383.534 -0.642648 4.24463 0
M  V30 4026 C 382.767 -1.63959 5.07891 0
M  V30 4027 O 382.99 -2.87007 4.92933 0
M  V30 4028 O 381.924 -1.19143 5.8999 0
M  V30 4029 H 385.75 0.413982 3.00865 0
M  V30 4030 H 383.335 0.268556 1.46966 0
M  V30 4031 H 385.217 -1.92446 3.7489 0
M  V30 4032 H 383.892 -1.98788 2.5547 0
M  V30 4033 H 382.799 0.00276252 3.741 0
M  V30 4034 H 384.132 -0.0160534 4.92197 0
M  V30 4035 N 385.784 -1.5574 0.241426 0
M  V30 4036 C 387.014 -2.02913 -0.38857 0
M  V30 4037 C 387.422 -1.12014 -1.52478 0
M  V30 4038 O 386.765 -0.125903 -1.83268 0
M  V30 4039 C 386.827 -3.4636 -0.963075 0
M  V30 4040 C 386.491 -4.56982 0.0401916 0
M  V30 4041 C 387.488 -5.12941 0.847766 0
M  V30 4042 C 385.173 -5.0203 0.164699 0
M  V30 4043 C 387.167 -6.12437 1.76636 0
M  V30 4044 C 384.854 -6.01358 1.0868 0
M  V30 4045 C 385.852 -6.5644 1.88616 0
M  V30 4046 O 385.54 -7.53831 2.79273 0
M  V30 4047 H 385.272 -0.668983 -0.0971452 0
M  V30 4048 H 387.826 -2.02198 0.361248 0
M  V30 4049 H 386.056 -3.44206 -1.76235 0
M  V30 4050 H 387.745 -3.77065 -1.50257 0
M  V30 4051 H 388.511 -4.78974 0.762133 0
M  V30 4052 H 384.39 -4.58824 -0.447411 0
M  V30 4053 H 387.934 -6.55355 2.39071 0
M  V30 4054 H 383.831 -6.34746 1.17338 0
M  V30 4055 H 384.599 -7.71428 2.73572 0
M  V30 4056 N 387.262 0.0317525 -1.57568 0
M  V30 4057 C 388.172 1.05021 -2.0978 0
M  V30 4058 C 389.188 1.39809 -1.03583 0
M  V30 4059 O 390.364 1.49182 -1.35302 0
M  V30 4060 C 387.429 2.33301 -2.56459 0
M  V30 4061 C 386.49 2.0512 -3.77127 0
M  V30 4062 C 385.723 3.27283 -4.2157 0
M  V30 4063 O 385.946 4.37861 -3.65559 0
M  V30 4064 O 384.88 3.13141 -5.14029 0
M  V30 4065 H 388.706 0.636505 -2.96955 0
M  V30 4066 H 386.291 0.248559 -1.47318 0
M  V30 4067 H 388.173 3.08722 -2.86825 0
M  V30 4068 H 386.848 2.73973 -1.72397 0
M  V30 4069 H 385.755 1.27276 -3.51784 0
M  V30 4070 H 387.088 1.69305 -4.62165 0
M  V30 4071 N 388.74 1.54641 0.303973 0
M  V30 4072 C 389.968 1.77768 1.05858 0
M  V30 4073 C 390.383 0.535722 1.8104 0
M  V30 4074 O 389.74 -0.494337 1.75677 0
M  V30 4075 C 389.791 2.9834 2.04146 0
M  V30 4076 O 389.512 4.17736 1.32015 0
M  V30 4077 C 391.013 3.33832 2.91669 0
M  V30 4078 H 388.233 0.592961 0.314067 0
M  V30 4079 H 390.777 2.01583 0.344149 0
M  V30 4080 H 388.932 2.76742 2.71096 0
M  V30 4081 H 389.346 4.85693 1.97998 0
M  V30 4082 H 390.82 4.21448 3.56491 0
M  V30 4083 H 391.297 2.51857 3.59812 0
M  V30 4084 H 391.903 3.57579 2.30254 0
M  V30 4085 N 390.218 -0.567019 1.47046 0
M  V30 4086 C 391.128 -1.70247 1.6141 0
M  V30 4087 C 392.144 -1.66746 0.497157 0
M  V30 4088 O 393.32 -1.86371 0.763389 0
M  V30 4089 C 390.385 -3.06756 1.61561 0
M  V30 4090 C 389.446 -3.21399 2.84607 0
M  V30 4091 C 388.679 -4.51396 2.84741 0
M  V30 4092 O 388.902 -5.36255 1.94388 0
M  V30 4093 O 387.836 -4.69621 3.76483 0
M  V30 4094 H 391.662 -1.61073 2.57467 0
M  V30 4095 H 389.247 -0.735894 1.30019 0
M  V30 4096 H 391.129 -3.8801 1.64396 0
M  V30 4097 H 389.804 -3.16333 0.686684 0
M  V30 4098 H 388.711 -2.39579 2.8732 0
M  V30 4099 H 390.044 -3.16721 3.76761 0
M  V30 4100 N 391.696 -1.35014 -0.812953 0
M  V30 4101 C 392.973 -1.18502 -1.55617 0
M  V30 4102 C 393.353 0.238421 -2.09749 0
M  V30 4103 O 392.701 1.2411 -1.91857 0
M  V30 4104 C 392.911 -2.24783 -2.66971 0
M  V30 4105 C 394.259 -2.60268 -3.35478 0
M  V30 4106 O 395.283 -2.23648 -2.77236 0
M  V30 4107 O 394.142 -3.2321 -4.40678 0
M  V30 4108 H 391.236 -0.459984 -0.687272 0
M  V30 4109 H 393.782 -1.46677 -0.853464 0
M  V30 4110 H 392.554 -3.20284 -2.24798 0
M  V30 4111 H 392.177 -1.97841 -3.44884 0
M  V30 4112 N 393.175 1.03435 -1.18907 0
M  V30 4113 C 394.105 2.13503 -0.945448 0
M  V30 4114 C 395.086 1.69682 0.119189 0
M  V30 4115 O 396.271 1.94169 -0.034707 0
M  V30 4116 C 393.401 3.44004 -0.477316 0
M  V30 4117 C 392.355 4.0148 -1.48316 0
M  V30 4118 C 391.681 5.27537 -0.872311 0
M  V30 4119 C 392.981 4.36921 -2.86177 0
M  V30 4120 H 394.675 2.34141 -1.86597 0
M  V30 4121 H 392.221 1.12523 -0.898584 0
M  V30 4122 H 394.174 4.20372 -0.294204 0
M  V30 4123 H 392.898 3.23072 0.478786 0
M  V30 4124 H 391.557 3.27201 -1.65332 0
M  V30 4125 H 391.205 5.02917 0.0911752 0
M  V30 4126 H 390.905 5.66954 -1.54393 0
M  V30 4127 H 392.429 6.06576 -0.699871 0
M  V30 4128 H 393.843 5.04248 -2.72776 0
M  V30 4129 H 392.24 4.87405 -3.50081 0
M  V30 4130 H 393.31 3.46466 -3.39248 0
M  V30 4131 N 394.653 0.992116 1.22453 0
M  V30 4132 C 395.583 0.561677 2.26644 0
M  V30 4133 C 396.564 -0.411055 1.65059 0
M  V30 4134 O 397.749 -0.301861 1.9184 0
M  V30 4135 C 394.879 -0.125247 3.47074 0
M  V30 4136 C 393.833 0.765948 4.21091 0
M  V30 4137 C 393.159 -0.0538484 5.34673 0
M  V30 4138 C 394.459 2.06242 4.79856 0
M  V30 4139 H 396.153 1.43259 2.62902 0
M  V30 4140 H 393.699 0.690283 1.26377 0
M  V30 4141 H 395.652 -0.437764 4.1912 0
M  V30 4142 H 394.376 -1.03069 3.0991 0
M  V30 4143 H 393.035 1.0621 3.50878 0
M  V30 4144 H 392.683 -0.960188 4.9375 0
M  V30 4145 H 392.383 0.539415 5.85119 0
M  V30 4146 H 393.907 -0.360477 6.09535 0
M  V30 4147 H 395.321 1.8139 5.43848 0
M  V30 4148 H 393.718 2.60444 5.40638 0
M  V30 4149 H 394.788 2.74167 3.99951 0
M  V30 4150 N 396.131 -1.37776 0.765217 0
M  V30 4151 C 397.079 -2.32209 0.134798 0
M  V30 4152 C 398.073 -1.54607 -0.692315 0
M  V30 4153 O 399.279 -1.70052 -0.590109 0
M  V30 4154 H 395.654 -0.751591 0.0248005 0
M  V30 4155 H 397.625 -2.8297 0.947119 0
M  V30 4156 C 396.374 -3.39841 -0.735063 0
M  V30 4157 H 395.697 -3.99654 -0.107991 0
M  V30 4158 H 397.137 -4.08296 -1.14326 0
M  V30 4159 C 395.596 -2.79378 -1.88281 0
M  V30 4160 O 396.126 -2.69608 -2.97783 0
M  V30 4161 N 394.332 -2.37016 -1.68142 0
M  V30 4162 H 393.879 -2.45162 -0.790772 0
M  V30 4163 H 393.837 -1.96905 -2.45104 0
M  V30 4164 N 397.609 -0.515225 -1.4894 0
M  V30 4165 C 398.539 0.244628 -2.32215 0
M  V30 4166 C 399.52 0.949136 -1.41157 0
M  V30 4167 O 400.705 0.937783 -1.70057 0
M  V30 4168 C 397.835 1.30096 -3.22013 0
M  V30 4169 C 396.789 0.715486 -4.21977 0
M  V30 4170 C 396.115 1.87339 -5.00808 0
M  V30 4171 C 397.415 -0.302982 -5.2142 0
M  V30 4172 H 399.109 -0.450501 -2.95991 0
M  V30 4173 H 396.655 -0.218098 -1.42339 0
M  V30 4174 H 398.608 1.84037 -3.79089 0
M  V30 4175 H 397.332 2.02547 -2.56207 0
M  V30 4176 H 395.991 0.197715 -3.66066 0
M  V30 4177 H 395.639 2.58592 -4.31438 0
M  V30 4178 H 395.339 1.48764 -5.68457 0
M  V30 4179 H 396.863 2.41686 -5.60732 0
M  V30 4180 H 398.277 0.148802 -5.73107 0
M  V30 4181 H 396.674 -0.60532 -5.97039 0
M  V30 4182 H 397.744 -1.21395 -4.69459 0
M  V30 4183 N 399.087 1.5561 -0.249682 0
M  V30 4184 C 400.05 2.20217 0.635394 0
M  V30 4185 C 401.05 1.17227 1.10066 0
M  V30 4186 O 402.24 1.42292 1.00492 0
M  V30 4187 C 399.372 2.84794 1.87363 0
M  V30 4188 H 400.565 2.99814 0.0716752 0
M  V30 4189 H 398.118 1.563 -0.000153234 0
M  V30 4190 H 398.853 2.09142 2.47851 0
M  V30 4191 H 398.638 3.60241 1.5482 0
M  V30 4192 H 400.128 3.3423 2.5036 0
M  V30 4193 N 400.565 -0.0233959 1.57583 0
M  V30 4194 C 401.512 -1.02224 2.06927 0
M  V30 4195 C 402.482 -1.35575 0.959617 0
M  V30 4196 O 403.667 -1.45815 1.23055 0
M  V30 4197 C 400.807 -2.31636 2.5581 0
M  V30 4198 C 399.92 -2.04394 3.80588 0
M  V30 4199 C 399.055 -3.27717 4.18061 0
M  V30 4200 C 398.094 -2.96056 5.3574 0
M  V30 4201 N 397.231 -4.11847 5.68618 0
M  V30 4202 H 402.071 -0.594504 2.9201 0
M  V30 4203 H 399.608 -0.281921 1.44373 0
M  V30 4204 H 401.566 -3.07258 2.82221 0
M  V30 4205 H 400.196 -2.72122 1.73636 0
M  V30 4206 H 399.248 -1.19244 3.61227 0
M  V30 4207 H 400.56 -1.77042 4.66323 0
M  V30 4208 H 399.714 -4.11702 4.4563 0
M  V30 4209 H 398.453 -3.58188 3.30988 0
M  V30 4210 H 397.458 -2.10474 5.07918 0
M  V30 4211 H 398.683 -2.66857 6.24471 0
M  V30 4212 H 396.629 -4.42258 4.84504 0
M  V30 4213 H 396.546 -3.87938 6.48876 0
M  V30 4214 H 397.814 -4.96689 6.00766 0
M  V30 4215 N 402.043 -1.548 -0.295768 0
M  V30 4216 C 402.993 -1.82497 -1.3667 0
M  V30 4217 C 403.977 -0.682434 -1.45711 0
M  V30 4218 O 405.169 -0.943207 -1.49775 0
M  V30 4219 C 402.298 -2.08036 -2.73086 0
M  V30 4220 C 401.384 -3.28488 -2.68247 0
M  V30 4221 N 401.775 -4.48924 -2.33025 0
M  V30 4222 C 400.073 -3.3062 -2.99343 0
M  V30 4223 C 400.774 -5.30956 -2.37613 0
M  V30 4224 N 399.75 -4.68805 -2.75178 0
M  V30 4225 H 403.552 -2.73175 -1.0841 0
M  V30 4226 H 401.066 -1.5437 -0.504361 0
M  V30 4227 H 403.063 -2.26027 -3.5031 0
M  V30 4228 H 401.723 -1.18629 -3.02254 0
M  V30 4229 H 402.734 -4.75432 -2.05389 0
M  V30 4230 H 399.411 -2.51336 -3.33371 0
M  V30 4231 H 400.801 -6.37199 -2.13135 0
M  V30 4232 N 403.521 0.559213 -1.47345 0
M  V30 4233 C 404.769 1.31388 -1.53563 0
M  V30 4234 C 405.09 1.93985 -0.198678 0
M  V30 4235 O 404.36 1.79825 0.777167 0
M  V30 4236 H 402.94 0.487901 -0.565652 0
M  V30 4237 H 405.602 0.65315 -1.8363 0
M  V30 4238 H 404.698 2.10844 -2.30111 0
M  V30 4239 N 404.999 1.35443 0.805782 0
M  V30 4240 C 406.224 1.32037 1.59941 0
M  V30 4241 C 406.649 -0.0994215 1.87837 0
M  V30 4242 O 406.007 -1.06648 1.46615 0
M  V30 4243 C 406.055 2.13354 2.90711 0
M  V30 4244 O 405.159 1.5148 3.83572 0
M  V30 4245 H 404.5 0.452666 0.485787 0
M  V30 4246 H 407.03 1.78496 1.00002 0
M  V30 4247 H 407.04 2.25338 3.40128 0
M  V30 4248 H 405.715 3.16572 2.69732 0
M  V30 4249 H 404.292 1.4834 3.42125 0
M  V30 4250 N 406.477 -1.02803 1.19454 0
M  V30 4251 C 407.724 -1.76217 0.997693 0
M  V30 4252 C 408.052 -1.887 -0.47144 0
M  V30 4253 O 407.307 -1.4011 -1.3663 0
M  V30 4254 C 407.606 -3.18941 1.6128 0
M  V30 4255 C 407.272 -3.26463 3.11019 0
M  V30 4256 C 405.934 -3.28223 3.51885 0
M  V30 4257 C 408.286 -3.25542 4.07028 0
M  V30 4258 C 405.614 -3.26719 4.8731 0
M  V30 4259 C 407.966 -3.25579 5.42385 0
M  V30 4260 C 406.63 -3.25637 5.82681 0
M  V30 4261 H 405.9 -0.644823 0.365082 0
M  V30 4262 H 408.547 -1.20655 1.4871 0
M  V30 4263 H 406.852 -3.77587 1.04572 0
M  V30 4264 H 408.549 -3.74415 1.43577 0
M  V30 4265 H 405.139 -3.25822 2.78457 0
M  V30 4266 H 409.323 -3.23362 3.76498 0
M  V30 4267 H 404.579 -3.25089 5.1781 0
M  V30 4268 H 408.753 -3.23817 6.16535 0
M  V30 4269 H 406.38 -3.24226 6.87591 0
M  V30 4270 N 407.956 -0.998596 -1.21925 0
M  V30 4271 C 408.903 -0.553621 -2.24062 0
M  V30 4272 C 409.873 0.416999 -1.6078 0
M  V30 4273 O 411.058 0.320482 -1.88089 0
M  V30 4274 C 408.198 0.119959 -3.44891 0
M  V30 4275 C 407.311 -0.893077 -4.22668 0
M  V30 4276 C 406.446 -0.192424 -5.30851 0
M  V30 4277 C 405.485 -1.19344 -6.00353 0
M  V30 4278 N 404.622 -0.520707 -7.00166 0
M  V30 4279 H 409.462 -1.4293 -2.61486 0
M  V30 4280 H 406.999 -0.715838 -1.28507 0
M  V30 4281 H 408.957 0.527459 -4.13852 0
M  V30 4282 H 407.587 0.959389 -3.08214 0
M  V30 4283 H 406.639 -1.41886 -3.52948 0
M  V30 4284 H 407.951 -1.65512 -4.70539 0
M  V30 4285 H 407.105 0.271515 -6.06092 0
M  V30 4286 H 405.844 0.602075 -4.83969 0
M  V30 4287 H 404.849 -1.66795 -5.23889 0
M  V30 4288 H 406.074 -1.98891 -6.49322 0
M  V30 4289 H 404.02 0.254252 -6.55507 0
M  V30 4290 H 403.937 -1.2211 -7.46073 0
M  V30 4291 H 405.205 -0.0797596 -7.79459 0
M  V30 4292 N 409.434 1.37368 -0.772513 0
M  V30 4293 C 410.711 1.93839 -0.26188 0
M  V30 4294 C 411.091 1.7061 1.24319 0
M  V30 4295 O 410.439 1.05534 2.02669 0
M  V30 4296 C 410.649 3.43154 -0.636102 0
M  V30 4297 C 411.997 4.20249 -0.606324 0
M  V30 4298 O 413.021 3.5152 -0.575538 0
M  V30 4299 O 411.88 5.42809 -0.634086 0
M  V30 4300 H 408.974 0.82478 -0.0605555 0
M  V30 4301 H 411.52 1.4665 -0.853917 0
M  V30 4302 H 410.292 3.53647 -1.6748 0
M  V30 4303 H 409.915 3.97596 -0.0170516 0
M  V30 4304 N 410.912 0.523116 1.48665 0
M  V30 4305 C 412.323 0.0808997 1.86525 0
M  V30 4306 C 412.674 -1.33975 1.43336 0
M  V30 4307 O 411.799 -2.00221 0.821009 0
M  V30 4308 C 412.394 0.140037 3.3851 0
M  V30 4309 C 410.953 -0.246948 3.75589 0
M  V30 4310 C 410.1 0.502845 2.72703 0
M  V30 4311 H 413.051 0.734736 1.40667 0
M  V30 4312 H 413.072 -0.649945 3.74908 0
M  V30 4313 H 412.584 1.17412 3.69914 0
M  V30 4314 H 410.685 -1.28343 3.49798 0
M  V30 4315 H 410.798 0.0878859 4.79019 0
M  V30 4316 H 409.162 -0.0500581 2.54651 0
M  V30 4317 H 409.945 1.53743 3.0695 0
M  V30 4318 N 412.39 -1.55475 0.257931 0
M  V30 4319 C 413.32 -2.24815 -0.630912 0
M  V30 4320 C 414.301 -1.23224 -1.17259 0
M  V30 4321 O 415.486 -1.51904 -1.20991 0
M  V30 4322 C 412.616 -2.95609 -1.82298 0
M  V30 4323 C 411.57 -4.03982 -1.41359 0
M  V30 4324 C 410.896 -4.6226 -2.68738 0
M  V30 4325 C 412.196 -5.19109 -0.57648 0
M  V30 4326 H 413.89 -2.99354 -0.0526878 0
M  V30 4327 H 411.436 -1.4398 -0.023901 0
M  V30 4328 H 413.389 -3.42822 -2.45054 0
M  V30 4329 H 412.113 -2.18577 -2.42676 0
M  V30 4330 H 410.772 -3.57555 -0.809324 0
M  V30 4331 H 410.42 -3.81915 -3.27338 0
M  V30 4332 H 410.12 -5.35424 -2.42065 0
M  V30 4333 H 411.644 -5.12212 -3.32372 0
M  V30 4334 H 413.058 -5.62479 -1.10861 0
M  V30 4335 H 411.455 -5.98729 -0.405351 0
M  V30 4336 H 412.525 -4.83174 0.408776 0
M  V30 4337 N 413.868 0.0150385 -1.57593 0
M  V30 4338 C 415.114 0.69849 -1.91031 0
M  V30 4339 C 415.469 1.72208 -0.85804 0
M  V30 4340 O 414.762 1.91147 0.131614 0
M  V30 4341 C 414.956 1.39686 -3.28972 0
M  V30 4342 C 414.785 0.442428 -4.47518 0
M  V30 4343 C 413.555 0.0583223 -5.05266 0
M  V30 4344 C 415.753 -0.285072 -5.13509 0
M  V30 4345 N 413.735 -0.895893 -6.07328 0
M  V30 4346 C 415.106 -1.09447 -6.10263 0
M  V30 4347 C 417.161 -0.350518 -4.96665 0
M  V30 4348 C 415.864 -1.96333 -6.91987 0
M  V30 4349 C 417.89 -1.20655 -5.78962 0
M  V30 4350 C 417.252 -2.00383 -6.75297 0
M  V30 4351 H 413.351 0.22926 -0.747639 0
M  V30 4352 H 415.935 -0.0417748 -1.94655 0
M  V30 4353 H 414.106 2.1075 -3.2625 0
M  V30 4354 H 415.838 2.03381 -3.49883 0
M  V30 4355 H 412.593 0.423506 -4.71703 0
M  V30 4356 H 413.017 -1.36792 -6.63036 0
M  V30 4357 H 417.659 0.251596 -4.22051 0
M  V30 4358 H 415.377 -2.57618 -7.65936 0
M  V30 4359 H 418.963 -1.2609 -5.67972 0
M  V30 4360 H 417.843 -2.65552 -7.3787 0
M  V30 4361 N 415.346 1.54954 0.287554 0
M  V30 4362 C 416.623 1.65569 1.04146 0
M  V30 4363 C 417.003 0.512672 2.0478 0
M  V30 4364 O 416.351 -0.489038 2.23205 0
M  V30 4365 C 416.561 3.04163 1.71131 0
M  V30 4366 C 417.909 3.61429 2.22832 0
M  V30 4367 O 418.933 3.06702 1.81141 0
M  V30 4368 O 417.792 4.57281 2.9926 0
M  V30 4369 H 414.886 0.671881 0.482188 0
M  V30 4370 H 417.432 1.67297 0.28457 0
M  V30 4371 H 416.204 3.78796 0.981303 0
M  V30 4372 H 415.827 3.06271 2.53543 0
M  V30 4373 N 416.824 -0.551391 1.4764 0
M  V30 4374 C 417.734 -1.68525 1.63207 0
M  V30 4375 C 418.75 -1.6621 0.514815 0
M  V30 4376 O 419.926 -1.85551 0.783113 0
M  V30 4377 C 416.991 -3.05025 1.64805 0
M  V30 4378 C 416.052 -3.18362 2.88 0
M  V30 4379 C 415.285 -4.4835 2.89513 0
M  V30 4380 O 415.508 -5.34163 2.00065 0
M  V30 4381 O 414.442 -4.65602 3.81443 0
M  V30 4382 H 418.268 -1.58333 2.59161 0
M  V30 4383 H 415.853 -0.722063 1.30792 0
M  V30 4384 H 417.735 -3.86245 1.68502 0
M  V30 4385 H 416.41 -3.15587 0.720197 0
M  V30 4386 H 415.317 -2.36518 2.89845 0
M  V30 4387 H 416.65 -3.12707 3.80099 0
M  V30 4388 N 418.302 -1.35869 -0.798587 0
M  V30 4389 C 419.232 -1.32118 -1.92528 0
M  V30 4390 C 420.213 -0.194209 -1.68988 0
M  V30 4391 O 421.398 -0.390426 -1.90235 0
M  V30 4392 C 418.528 -1.10047 -3.29404 0
M  V30 4393 C 417.482 -2.19471 -3.67446 0
M  V30 4394 C 416.808 -1.82555 -5.02571 0
M  V30 4395 C 418.108 -3.61495 -3.76987 0
M  V30 4396 H 419.802 -2.26394 -1.95924 0
M  V30 4397 H 417.348 -1.08981 -0.94123 0
M  V30 4398 H 419.301 -1.06061 -4.07835 0
M  V30 4399 H 418.025 -0.122195 -3.26371 0
M  V30 4400 H 416.684 -2.22568 -2.91306 0
M  V30 4401 H 416.332 -0.833249 -4.9605 0
M  V30 4402 H 416.032 -2.5581 -5.28995 0
M  V30 4403 H 417.556 -1.80108 -5.83432 0
M  V30 4404 H 418.97 -3.60676 -4.4563 0
M  V30 4405 H 417.367 -4.33577 -4.14887 0
M  V30 4406 H 418.437 -3.97065 -2.78329 0
M  V30 4407 N 419.78 1.02168 -1.19998 0
M  V30 4408 C 420.71 2.12488 -0.96804 0
M  V30 4409 C 421.691 1.69799 0.101185 0
M  V30 4410 O 422.876 1.94121 -0.0552993 0
M  V30 4411 C 420.006 3.43479 -0.513776 0
M  V30 4412 C 418.96 3.99884 -1.52566 0
M  V30 4413 C 418.286 5.26582 -0.928214 0
M  V30 4414 C 419.586 4.33861 -2.90795 0
M  V30 4415 H 421.28 2.32149 -1.89069 0
M  V30 4416 H 418.826 1.11564 -0.910468 0
M  V30 4417 H 420.779 4.20036 -0.338774 0
M  V30 4418 H 419.503 3.23561 0.444493 0
M  V30 4419 H 418.162 3.25429 -1.68794 0
M  V30 4420 H 417.81 5.02986 0.0378289 0
M  V30 4421 H 417.51 5.65284 -1.60397 0
M  V30 4422 H 419.034 6.05799 -0.764167 0
M  V30 4423 H 420.448 5.01327 -2.78109 0
M  V30 4424 H 418.845 4.83664 -3.55231 0
M  V30 4425 H 419.915 3.42848 -3.42904 0
M  V30 4426 N 421.258 1.00505 1.21394 0
M  V30 4427 C 422.506 0.686415 1.90086 0
M  V30 4428 C 422.827 -0.785264 1.7849 0
M  V30 4429 O 422.097 -1.56387 1.17983 0
M  V30 4430 H 420.677 0.2509 0.703604 0
M  V30 4431 H 423.339 1.27417 1.47482 0
M  V30 4432 H 422.435 0.959621 2.96981 0
M  V30 4433 N 422.737 -1.36956 0.779787 0
M  V30 4434 C 423.67 -2.27896 0.117681 0
M  V30 4435 C 424.648 -1.46736 -0.700523 0
M  V30 4436 O 425.832 -1.76055 -0.673568 0
M  V30 4437 C 422.959 -3.28136 -0.839296 0
M  V30 4438 C 422.005 -4.26373 -0.10409 0
M  V30 4439 S 422.838 -5.2157 1.21348 0
M  V30 4440 C 423.994 -6.25359 0.260249 0
M  V30 4441 H 424.227 -2.83704 0.888778 0
M  V30 4442 H 421.76 -1.43352 0.57355 0
M  V30 4443 H 423.718 -3.86394 -1.38601 0
M  V30 4444 H 422.379 -2.7126 -1.58356 0
M  V30 4445 H 421.572 -4.97121 -0.82986 0
M  V30 4446 H 421.174 -3.72147 0.371858 0
M  V30 4447 H 423.466 -6.75145 -0.564435 0
M  V30 4448 H 424.409 -7.01885 0.936135 0
M  V30 4449 H 424.817 -5.64345 -0.132127 0
M  V30 4450 N 424.215 -0.530993 -1.48385 0
M  V30 4451 C 425.626 -0.0907905 -1.86479 0
M  V30 4452 C 425.977 1.33213 -1.44044 0
M  V30 4453 O 425.102 1.99783 -0.831615 0
M  V30 4454 C 425.697 -0.157987 -3.38431 0
M  V30 4455 C 424.256 0.227026 -3.75715 0
M  V30 4456 C 423.403 -0.5173 -2.72432 0
M  V30 4457 H 426.354 -0.742186 -1.40276 0
M  V30 4458 H 426.375 0.630053 -3.75247 0
M  V30 4459 H 425.887 -1.19372 -3.69286 0
M  V30 4460 H 423.988 1.26486 -3.50474 0
M  V30 4461 H 424.101 -0.113288 -4.78966 0
M  V30 4462 H 422.465 0.0365527 -2.54674 0
M  V30 4463 H 423.248 -1.55368 -3.0613 0
M  V30 4464 N 425.693 1.55336 -0.266172 0
M  V30 4465 C 426.641 2.23587 0.641228 0
M  V30 4466 C 427.635 1.22986 1.16494 0
M  V30 4467 O 428.841 1.40943 1.1196 0
M  V30 4468 H 425.216 0.717452 0.225315 0
M  V30 4469 H 427.187 2.9837 0.0426561 0
M  V30 4470 C 425.936 2.96369 1.81826 0
M  V30 4471 H 425.259 3.73563 1.42445 0
M  V30 4472 H 426.699 3.47459 2.42998 0
M  V30 4473 C 425.158 2.0133 2.70125 0
M  V30 4474 O 425.688 1.55875 3.70224 0
M  V30 4475 N 423.894 1.6802 2.37102 0
M  V30 4476 H 423.441 2.05181 1.55751 0
M  V30 4477 H 423.399 1.047 2.96454 0
M  V30 4478 N 427.171 -0.0066808 1.57599 0
M  V30 4479 C 428.417 -0.693947 1.90558 0
M  V30 4480 C 428.75 -1.73792 0.866594 0
M  V30 4481 O 428.025 -1.94156 -0.115548 0
M  V30 4482 C 428.308 -1.34317 3.34112 0
M  V30 4483 C 428.161 -0.311189 4.48722 0
M  V30 4484 C 429.48 -2.27116 3.7697 0
M  V30 4485 H 426.599 -0.250803 0.693013 0
M  V30 4486 H 429.241 0.043242 1.89951 0
M  V30 4487 H 427.391 -1.9715 3.3476 0
M  V30 4488 H 429.063 0.316944 4.6021 0
M  V30 4489 H 427.306 0.367253 4.32243 0
M  V30 4490 H 427.977 -0.804366 5.46108 0
M  V30 4491 H 430.453 -1.74306 3.77831 0
M  V30 4492 H 429.329 -2.69511 4.78179 0
M  V30 4493 H 429.59 -3.14743 3.10466 0
M  V30 4494 N 428.649 -1.55105 -0.279332 0
M  V30 4495 C 429.895 -1.75672 -1.01327 0
M  V30 4496 C 430.228 -0.552739 -1.86168 0
M  V30 4497 O 429.503 0.449827 -1.89227 0
M  V30 4498 C 429.786 -3.05825 -1.90114 0
M  V30 4499 C 429.639 -4.36565 -1.08309 0
M  V30 4500 C 430.958 -3.31975 -2.8893 0
M  V30 4501 H 428.077 -0.639149 -0.366957 0
M  V30 4502 H 430.719 -1.87833 -0.286154 0
M  V30 4503 H 428.869 -2.95588 -2.52111 0
M  V30 4504 H 430.541 -4.58751 -0.484314 0
M  V30 4505 H 428.784 -4.32076 -0.386362 0
M  V30 4506 H 429.455 -5.23946 -1.73737 0
M  V30 4507 H 431.931 -3.41963 -2.37067 0
M  V30 4508 H 430.807 -4.2432 -3.48201 0
M  V30 4509 H 431.068 -2.51309 -3.63725 0
M  V30 4510 N 430.127 0.543554 -1.4793 0
M  V30 4511 C 431.057 1.65888 -1.64327 0
M  V30 4512 C 432.038 1.62818 -0.492383 0
M  V30 4513 O 433.223 1.80226 -0.723338 0
M  V30 4514 C 430.353 3.04506 -1.67013 0
M  V30 4515 C 429.307 3.2243 -2.81466 0
M  V30 4516 C 428.633 4.61972 -2.69233 0
M  V30 4517 C 429.933 3.06496 -4.22915 0
M  V30 4518 H 431.627 1.52421 -2.57698 0
M  V30 4519 H 429.173 0.731849 -1.24016 0
M  V30 4520 H 431.126 3.82391 -1.77074 0
M  V30 4521 H 429.85 3.18964 -0.70212 0
M  V30 4522 H 428.509 2.46957 -2.70938 0
M  V30 4523 H 428.157 4.73247 -1.7043 0
M  V30 4524 H 427.857 4.74911 -3.46025 0
M  V30 4525 H 429.381 5.41974 -2.81242 0
M  V30 4526 H 430.795 3.74186 -4.34348 0
M  V30 4527 H 429.192 3.30938 -5.006 0
M  V30 4528 H 430.262 2.03077 -4.40327 0
M  V30 4529 N 431.605 1.3629 0.791371 0
M  V30 4530 C 432.83 1.33726 1.58531 0
M  V30 4531 C 433.255 -0.0794933 1.87932 0
M  V30 4532 O 432.613 -1.05087 1.47738 0
M  V30 4533 C 432.661 2.16425 2.88431 0
M  V30 4534 O 431.765 1.5554 3.81944 0
M  V30 4535 H 431.106 0.457793 0.480959 0
M  V30 4536 H 433.636 1.79547 0.981031 0
M  V30 4537 H 433.646 2.28933 3.37718 0
M  V30 4538 H 432.321 3.19415 2.66359 0
M  V30 4539 H 430.898 1.51961 3.40532 0
M  V30 4540 N 433.083 -1.0153 1.20538 0
M  V30 4541 C 434.494 -1.56598 1.01657 0
M  V30 4542 C 434.845 -1.91505 -0.426668 0
M  V30 4543 O 433.97 -1.72375 -1.30827 0
M  V30 4544 C 434.565 -2.84542 1.83905 0
M  V30 4545 C 433.124 -3.36133 1.69386 0
M  V30 4546 C 432.271 -2.09427 1.81757 0
M  V30 4547 H 435.222 -0.838974 1.34711 0
M  V30 4548 H 435.243 -3.56004 1.34319 0
M  V30 4549 H 434.755 -2.59105 2.8894 0
M  V30 4550 H 432.856 -3.66528 0.669933 0
M  V30 4551 H 432.969 -4.08248 2.50739 0
M  V30 4552 H 431.333 -2.21941 1.24957 0
M  V30 4553 H 432.116 -1.86414 2.88279 0
M  V30 4554 N 434.561 -1.01147 -1.20859 0
M  V30 4555 C 435.511 -0.548247 -2.2131 0
M  V30 4556 C 436.495 0.393646 -1.5601 0
M  V30 4557 O 437.687 0.217445 -1.75659 0
M  V30 4558 C 434.816 0.117252 -3.431 0
M  V30 4559 C 433.902 -0.846043 -4.15575 0
M  V30 4560 N 434.293 -2.00149 -4.64515 0
M  V30 4561 C 432.591 -0.665783 -4.41003 0
M  V30 4562 C 433.292 -2.60764 -5.19978 0
M  V30 4563 N 432.268 -1.88868 -5.09735 0
M  V30 4564 H 436.07 -1.42921 -2.56809 0
M  V30 4565 H 433.584 -0.876142 -1.36739 0
M  V30 4566 H 435.581 0.46662 -4.1428 0
M  V30 4567 H 434.241 0.994115 -3.09107 0
M  V30 4568 H 435.252 -2.38162 -4.5989 0
M  V30 4569 H 431.929 0.163456 -4.1718 0
M  V30 4570 H 433.319 -3.58519 -5.68255 0
M  V30 4571 N 436.039 1.36541 -0.78704 0
M  V30 4572 C 437.288 1.98552 -0.35494 0
M  V30 4573 C 437.601 1.63171 1.07864 0
M  V30 4574 O 438.807 2.18399 1.61289 0
M  V30 4575 C 437.263 3.55136 -0.583671 0
M  V30 4576 C 436.871 3.99444 -2.02851 0
M  V30 4577 C 438.615 4.2395 -0.215957 0
M  V30 4578 C 436.522 5.48796 -2.20403 0
M  V30 4579 H 435.452 0.742888 -0.128972 0
M  V30 4580 H 438.103 1.5587 -0.968337 0
M  V30 4581 H 436.485 3.95875 0.0994046 0
M  V30 4582 H 437.659 3.6991 -2.74779 0
M  V30 4583 H 435.974 3.43459 -2.35425 0
M  V30 4584 H 438.571 5.33709 -0.325405 0
M  V30 4585 H 438.914 4.07827 0.835646 0
M  V30 4586 H 439.447 3.88565 -0.852175 0
M  V30 4587 H 436.186 5.69864 -3.23937 0
M  V30 4588 H 435.706 5.79964 -1.52977 0
M  V30 4589 H 437.385 6.14986 -2.01002 0
M  V30 4590 N 437.518 0.538854 1.48102 0
M  V30 4591 C 438.481 -0.208395 2.28251 0
M  V30 4592 C 439.481 -0.859656 1.35892 0
M  V30 4593 O 440.671 -0.71834 1.58699 0
M  V30 4594 C 437.803 -1.30252 3.15035 0
M  V30 4595 H 438.996 0.495407 2.9578 0
M  V30 4596 H 436.549 0.295112 1.53489 0
M  V30 4597 H 437.284 -2.0393 2.52157 0
M  V30 4598 H 437.069 -0.840551 3.82985 0
M  V30 4599 H 438.559 -1.82787 3.75471 0
M  V30 4600 N 438.996 -1.55193 0.274407 0
M  V30 4601 C 440.226 -2.03692 -0.345442 0
M  V30 4602 C 440.634 -1.15224 -1.50067 0
M  V30 4603 O 439.977 -0.164749 -1.8296 0
M  V30 4604 C 440.039 -3.48325 -0.88939 0
M  V30 4605 C 439.703 -4.56794 0.137115 0
M  V30 4606 C 440.7 -5.11028 0.956378 0
M  V30 4607 C 438.385 -5.01568 0.27115 0
M  V30 4608 C 440.379 -6.08552 1.89587 0
M  V30 4609 C 438.066 -5.98918 1.21412 0
M  V30 4610 C 439.064 -6.52291 2.02498 0
M  V30 4611 O 438.752 -7.47738 2.952 0
M  V30 4612 H 438.484 -0.670893 -0.0829332 0
M  V30 4613 H 441.038 -2.01387 0.404056 0
M  V30 4614 H 439.268 -3.47867 -1.68895 0
M  V30 4615 H 440.957 -3.80167 -1.42225 0
M  V30 4616 H 441.723 -4.7725 0.863559 0
M  V30 4617 H 437.602 -4.5967 -0.349987 0
M  V30 4618 H 441.146 -6.50137 2.52918 0
M  V30 4619 H 437.043 -6.32114 1.30776 0
M  V30 4620 H 437.811 -7.65451 2.89874 0
M  V30 4621 N 440.474 -0.00167713 -1.576 0
M  V30 4622 C 441.704 0.692754 -1.94639 0
M  V30 4623 C 442.112 1.67744 -0.87513 0
M  V30 4624 O 441.455 1.8305 0.154382 0
M  V30 4625 C 441.517 1.47881 -3.27676 0
M  V30 4626 C 441.181 0.655518 -4.52274 0
M  V30 4627 C 442.178 -0.0575214 -5.19868 0
M  V30 4628 C 439.863 0.600994 -4.98692 0
M  V30 4629 C 441.857 -0.814052 -6.3218 0
M  V30 4630 C 439.544 -0.15926 -6.10892 0
M  V30 4631 C 440.542 -0.865515 -6.77494 0
M  V30 4632 O 440.23 -1.61336 -7.87544 0
M  V30 4633 H 439.962 0.197792 -0.646417 0
M  V30 4634 H 442.516 -0.049423 -2.05341 0
M  V30 4635 H 440.746 2.2655 -3.13388 0
M  V30 4636 H 442.435 2.05874 -3.49816 0
M  V30 4637 H 443.201 -0.0245611 -4.84994 0
M  V30 4638 H 439.08 1.14025 -4.46676 0
M  V30 4639 H 442.624 -1.36584 -6.84098 0
M  V30 4640 H 438.521 -0.194035 -6.45208 0
M  V30 4641 H 439.289 -1.53025 -8.04068 0
M  V30 4642 N 441.952 1.55251 0.271103 0
M  V30 4643 C 443.18 1.79974 1.02064 0
M  V30 4644 C 443.595 0.574003 1.79863 0
M  V30 4645 O 442.952 -0.456962 1.76686 0
M  V30 4646 C 443.003 3.02603 1.97772 0
M  V30 4647 O 442.724 4.20443 1.23124 0
M  V30 4648 C 444.225 3.39944 2.84522 0
M  V30 4649 H 441.445 0.599489 0.301419 0
M  V30 4650 H 443.989 2.02268 0.301313 0
M  V30 4651 H 442.144 2.8243 2.65165 0
M  V30 4652 H 442.558 4.89783 1.87651 0
M  V30 4653 H 444.032 4.28915 3.47471 0
M  V30 4654 H 444.509 2.59432 3.54389 0
M  V30 4655 H 445.115 3.62383 2.22618 0
M  V30 4656 N 443.43 -0.535701 1.48216 0
M  V30 4657 C 444.34 -1.66785 1.64985 0
M  V30 4658 C 445.356 -1.65654 0.532414 0
M  V30 4659 O 446.532 -1.8471 0.80275 0
M  V30 4660 C 443.597 -3.0326 1.68031 0
M  V30 4661 C 442.658 -3.1529 2.9136 0
M  V30 4662 C 441.891 -4.45255 2.94252 0
M  V30 4663 O 442.114 -5.32011 2.05719 0
M  V30 4664 O 441.048 -4.6153 3.86359 0
M  V30 4665 H 444.874 -1.55576 2.60825 0
M  V30 4666 H 442.459 -0.70815 1.31551 0
M  V30 4667 H 444.341 -3.84436 1.72589 0
M  V30 4668 H 443.016 -3.14805 0.753628 0
M  V30 4669 H 441.923 -2.3343 2.92337 0
M  V30 4670 H 443.256 -3.08658 3.83394 0
M  V30 4671 N 444.908 -1.36708 -0.784132 0
M  V30 4672 C 446.136 -1.34398 -1.57305 0
M  V30 4673 C 446.551 0.0735577 -1.88657 0
M  V30 4674 O 445.908 1.03193 -1.50524 0
M  V30 4675 C 445.959 -2.17053 -2.89085 0
M  V30 4676 O 445.68 -3.53281 -2.59083 0
M  V30 4677 C 447.181 -2.22583 -3.83369 0
M  V30 4678 H 444.401 -0.460819 -0.487736 0
M  V30 4679 H 446.945 -1.79879 -0.972819 0
M  V30 4680 H 445.1 -1.75113 -3.45564 0
M  V30 4681 H 445.514 -3.9647 -3.43383 0
M  V30 4682 H 446.988 -2.84763 -4.72878 0
M  V30 4683 H 447.465 -1.23075 -4.21603 0
M  V30 4684 H 448.071 -2.64781 -3.32823 0
M  V30 4685 N 446.386 1.0089 -1.21074 0
M  V30 4686 C 447.349 2.0775 -0.968129 0
M  V30 4687 C 448.349 1.6069 0.0593445 0
M  V30 4688 O 449.539 1.73293 -0.177525 0
M  V30 4689 C 446.671 3.37794 -0.459108 0
M  V30 4690 H 447.864 2.30707 -1.9161 0
M  V30 4691 H 445.417 1.17807 -1.02719 0
M  V30 4692 H 446.152 3.20516 0.49397 0
M  V30 4693 H 445.937 3.7328 -1.20019 0
M  V30 4694 H 447.427 4.16454 -0.309099 0
M  V30 4695 N 447.864 1.01787 1.20321 0
M  V30 4696 C 449.11 0.708985 1.90003 0
M  V30 4697 C 449.443 -0.759572 1.78729 0
M  V30 4698 O 448.718 -1.55198 1.17234 0
M  V30 4699 C 449.001 1.1469 3.41348 0
M  V30 4700 C 448.854 2.67586 3.61549 0
M  V30 4701 C 450.173 0.71915 4.34185 0
M  V30 4702 H 447.292 0.259034 0.689978 0
M  V30 4703 H 449.934 1.26584 1.41692 0
M  V30 4704 H 448.084 0.673128 3.82624 0
M  V30 4705 H 449.756 3.22826 3.29517 0
M  V30 4706 H 447.999 3.085 3.04976 0
M  V30 4707 H 448.67 2.93281 4.67643 0
M  V30 4708 H 451.146 1.12647 4.00562 0
M  V30 4709 H 450.022 1.05358 5.38694 0
M  V30 4710 H 450.283 -0.379111 4.40472 0
M  V30 4711 N 449.342 -1.36122 0.79427 0
M  V30 4712 C 450.292 -2.27373 0.169017 0
M  V30 4713 C 451.276 -1.4719 -0.649913 0
M  V30 4714 O 452.468 -1.69518 -0.50919 0
M  V30 4715 C 449.597 -3.36264 -0.691455 0
M  V30 4716 C 448.683 -4.2388 0.13653 0
M  V30 4717 N 449.074 -4.91519 1.19345 0
M  V30 4718 C 447.372 -4.45921 -0.0838499 0
M  V30 4719 C 448.073 -5.56369 1.6979 0
M  V30 4720 N 447.049 -5.34204 1.00634 0
M  V30 4721 H 450.851 -2.77154 0.977897 0
M  V30 4722 H 448.365 -1.49504 0.634208 0
M  V30 4723 H 450.362 -4.00572 -1.15534 0
M  V30 4724 H 449.022 -2.88037 -1.49883 0
M  V30 4725 H 450.033 -4.9334 1.57594 0
M  V30 4726 H 446.71 -4.08518 -0.861341 0
M  V30 4727 H 448.1 -6.20368 2.58055 0
M  V30 4728 N 450.82 -0.546701 -1.47814 0
M  V30 4729 C 451.768 0.220048 -2.31557 0
M  V30 4730 C 452.762 0.919472 -1.42275 0
M  V30 4731 O 453.968 0.841953 -1.59095 0
M  V30 4732 H 450.343 0.0898334 -0.746615 0
M  V30 4733 H 452.314 -0.505589 -2.94086 0
M  V30 4734 C 451.063 1.24353 -3.24702 0
M  V30 4735 H 450.386 0.714758 -3.93359 0
M  V30 4736 H 451.826 1.75112 -3.8615 0
M  V30 4737 C 450.285 2.28593 -2.47481 0
M  V30 4738 O 450.815 3.35334 -2.21165 0
M  V30 4739 N 449.021 2.02244 -2.08676 0
M  V30 4740 H 448.568 1.15455 -2.30278 0
M  V30 4741 H 448.526 2.72207 -1.57323 0
M  V30 4742 N 452.299 1.55045 -0.282633 0
M  V30 4743 C 453.232 2.18951 0.64311 0
M  V30 4744 C 454.21 1.15287 1.14664 0
M  V30 4745 O 455.394 1.43846 1.21822 0
M  V30 4746 C 452.521 2.81874 1.87789 0
M  V30 4747 C 451.567 3.98906 1.50919 0
M  V30 4748 S 452.4 5.3234 0.580884 0
M  V30 4749 C 453.556 5.98737 1.82387 0
M  V30 4750 H 453.789 2.97131 0.100138 0
M  V30 4751 H 451.322 1.54255 -0.0668514 0
M  V30 4752 H 453.28 3.18757 2.58658 0
M  V30 4753 H 451.941 2.03573 2.392 0
M  V30 4754 H 451.134 4.4165 2.42819 0
M  V30 4755 H 450.736 3.63485 0.88061 0
M  V30 4756 H 453.028 6.18427 2.76684 0
M  V30 4757 H 453.971 6.93318 1.4393 0
M  V30 4758 H 454.379 5.28177 1.99223 0
M  V30 4759 N 453.777 0.010035 1.57597 0
M  V30 4760 C 455.023 -0.673697 1.91283 0
M  V30 4761 C 455.356 -1.72863 0.884979 0
M  V30 4762 O 454.631 -1.94268 -0.0949487 0
M  V30 4763 C 454.914 -1.30766 3.35518 0
M  V30 4764 C 454.767 -0.263578 4.49027 0
M  V30 4765 C 456.086 -2.23105 3.79358 0
M  V30 4766 H 453.205 -0.243439 0.695634 0
M  V30 4767 H 455.847 0.0633864 1.89894 0
M  V30 4768 H 453.997 -1.93588 3.36832 0
M  V30 4769 H 455.669 0.365738 4.59848 0
M  V30 4770 H 453.912 0.413077 4.31829 0
M  V30 4771 H 454.583 -0.746398 5.4693 0
M  V30 4772 H 457.059 -1.70289 3.79659 0
M  V30 4773 H 455.935 -2.64424 4.81011 0
M  V30 4774 H 456.196 -3.11433 3.13787 0
M  V30 4775 N 455.255 -1.55392 -0.262866 0
M  V30 4776 C 456.485 -1.80251 -1.00961 0
M  V30 4777 C 456.893 -0.58117 -1.80053 0
M  V30 4778 O 456.236 0.459427 -1.77862 0
M  V30 4779 C 456.298 -2.98207 -2.00781 0
M  V30 4780 C 455.962 -4.34856 -1.40533 0
M  V30 4781 C 456.959 -5.13459 -0.815853 0
M  V30 4782 C 454.644 -4.8153 -1.42948 0
M  V30 4783 C 456.638 -6.36875 -0.258562 0
M  V30 4784 C 454.325 -6.04899 -0.868334 0
M  V30 4785 C 455.323 -6.8241 -0.283884 0
M  V30 4786 O 455.011 -8.03451 0.268644 0
M  V30 4787 H 454.743 -0.604049 -0.303482 0
M  V30 4788 H 457.297 -2.03257 -0.295926 0
M  V30 4789 H 455.527 -2.70917 -2.75936 0
M  V30 4790 H 457.216 -3.10299 -2.61667 0
M  V30 4791 H 457.982 -4.78526 -0.789812 0
M  V30 4792 H 453.861 -4.21201 -1.87378 0
M  V30 4793 H 457.405 -6.97318 0.198257 0
M  V30 4794 H 453.302 -6.39312 -0.891649 0
M  V30 4795 H 454.07 -8.18346 0.158974 0
M  V30 4796 N 456.733 0.527833 -1.48498 0
M  V30 4797 C 457.98 1.28354 -1.56625 0
M  V30 4798 C 458.308 1.93 -0.241096 0
M  V30 4799 O 457.563 1.79967 0.768798 0
M  V30 4800 C 457.862 2.39275 -2.65485 0
M  V30 4801 C 457.528 1.92268 -4.07853 0
M  V30 4802 C 456.19 1.79166 -4.46602 0
M  V30 4803 C 458.542 1.56771 -4.97064 0
M  V30 4804 C 455.87 1.28905 -5.72364 0
M  V30 4805 C 458.222 1.07972 -6.23318 0
M  V30 4806 C 456.886 0.934887 -6.60921 0
M  V30 4807 H 456.156 0.469682 -0.573131 0
M  V30 4808 H 458.803 0.588781 -1.82224 0
M  V30 4809 H 457.108 3.1443 -2.33754 0
M  V30 4810 H 458.805 2.974 -2.68988 0
M  V30 4811 H 455.395 2.03417 -3.77252 0
M  V30 4812 H 459.579 1.65753 -4.67803 0
M  V30 4813 H 454.835 1.16381 -6.00221 0
M  V30 4814 H 459.009 0.795775 -6.91838 0
M  V30 4815 H 456.636 0.543231 -7.58257 0
M  V30 4816 N 458.211 1.37122 0.776871 0
M  V30 4817 C 459.436 1.354 1.57104 0
M  V30 4818 C 459.861 -0.0595562 1.88006 0
M  V30 4819 O 459.219 -1.03514 1.48844 0
M  V30 4820 C 459.267 2.19472 2.8612 0
M  V30 4821 O 458.371 1.59582 3.80273 0
M  V30 4822 H 457.712 0.462869 0.476076 0
M  V30 4823 H 460.242 1.80577 0.961932 0
M  V30 4824 H 460.252 2.32502 3.35271 0
M  V30 4825 H 458.927 3.22222 2.62956 0
M  V30 4826 H 457.504 1.55564 3.38902 0
M  V30 4827 N 459.689 -1.00246 1.21608 0
M  V30 4828 C 460.619 -2.10921 1.00172 0
M  V30 4829 C 461.6 -1.69938 -0.0741587 0
M  V30 4830 O 462.785 -1.94009 0.0861753 0
M  V30 4831 C 459.915 -3.42618 0.568355 0
M  V30 4832 C 458.869 -3.97407 1.58909 0
M  V30 4833 C 458.195 -5.25038 1.01187 0
M  V30 4834 C 459.495 -4.2918 2.97661 0
M  V30 4835 H 461.189 -2.29112 1.92739 0
M  V30 4836 H 458.735 -1.10101 0.928102 0
M  V30 4837 H 460.688 -4.19444 0.405555 0
M  V30 4838 H 459.412 -3.24227 -0.392961 0
M  V30 4839 H 458.071 -3.22703 1.73949 0
M  V30 4840 H 457.719 -5.02982 0.0421965 0
M  V30 4841 H 457.419 -5.62661 1.6937 0
M  V30 4842 H 458.943 -6.04507 0.860448 0
M  V30 4843 H 460.357 -4.96839 2.86049 0
M  V30 4844 H 458.754 -4.77952 3.6288 0
M  V30 4845 H 459.824 -3.3735 3.48315 0
M  V30 4846 N 461.167 -1.02423 -1.1978 0
M  V30 4847 C 462.099 -0.559152 -2.22275 0
M  V30 4848 C 463.112 0.36251 -1.58713 0
M  V30 4849 O 464.301 0.159641 -1.77785 0
M  V30 4850 C 461.401 0.205094 -3.38279 0
M  V30 4851 C 460.574 -0.720361 -4.31427 0
M  V30 4852 C 459.633 -0.00234368 -5.262 0
M  V30 4853 O 458.659 -0.627378 -5.65732 0
M  V30 4854 N 459.861 1.26996 -5.66438 0
M  V30 4855 H 462.626 -1.44064 -2.62804 0
M  V30 4856 H 460.187 -0.902692 -1.34399 0
M  V30 4857 H 462.179 0.694868 -3.9869 0
M  V30 4858 H 460.749 0.987947 -2.96578 0
M  V30 4859 H 459.969 -1.39031 -3.68869 0
M  V30 4860 H 461.257 -1.3495 -4.90577 0
M  V30 4861 H 460.655 1.79858 -5.36347 0
M  V30 4862 H 459.212 1.70432 -6.29123 0
M  V30 4863 N 462.645 1.35699 -0.801477 0
M  V30 4864 C 463.595 2.2728 -0.181073 0
M  V30 4865 C 464.579 1.47533 0.642098 0
M  V30 4866 O 465.771 1.69785 0.500193 0
M  V30 4867 C 462.9 3.36626 0.673612 0
M  V30 4868 C 461.986 4.23802 -0.159008 0
M  V30 4869 N 462.377 4.90879 -1.2195 0
M  V30 4870 C 460.675 4.45959 0.0602005 0
M  V30 4871 C 461.376 5.5546 -1.72738 0
M  V30 4872 N 460.352 5.33663 -1.03465 0
M  V30 4873 H 464.154 2.76632 -0.992582 0
M  V30 4874 H 461.668 1.49166 -0.642127 0
M  V30 4875 H 463.665 4.01179 1.13408 0
M  V30 4876 H 462.325 2.88828 1.48353 0
M  V30 4877 H 463.336 4.92497 -1.60209 0
M  V30 4878 H 460.013 4.08969 0.839664 0
M  V30 4879 H 461.403 6.18991 -2.61342 0
M  V30 4880 N 464.123 0.554532 1.47522 0
M  V30 4881 C 465.053 -0.182974 2.32782 0
M  V30 4882 C 466.034 -0.911377 1.43624 0
M  V30 4883 O 467.219 -0.892366 1.72483 0
M  V30 4884 C 464.349 -1.21513 3.25349 0
M  V30 4885 C 463.303 -0.603355 4.23726 0
M  V30 4886 C 462.629 -1.73995 5.05598 0
M  V30 4887 C 463.929 0.441121 5.20434 0
M  V30 4888 H 465.623 0.52882 2.94693 0
M  V30 4889 H 463.169 0.255759 1.41711 0
M  V30 4890 H 465.122 -1.73922 3.83835 0
M  V30 4891 H 463.846 -1.95683 2.61487 0
M  V30 4892 H 462.505 -0.10059 3.66462 0
M  V30 4893 H 462.153 -2.47063 4.38143 0
M  V30 4894 H 461.853 -1.3364 5.72201 0
M  V30 4895 H 463.377 -2.26735 5.66942 0
M  V30 4896 H 464.791 0.00319931 5.733 0
M  V30 4897 H 463.188 0.763402 5.95224 0
M  V30 4898 H 464.258 1.33799 4.66075 0
M  V30 4899 N 465.601 -1.54893 0.290851 0
M  V30 4900 C 466.847 -2.0023 -0.321867 0
M  V30 4901 C 467.18 -1.179 -1.54316 0
M  V30 4902 O 466.455 -0.25293 -1.92848 0
M  V30 4903 C 466.738 -3.53456 -0.688515 0
M  V30 4904 C 466.591 -4.46532 0.541209 0
M  V30 4905 C 467.91 -4.13057 -1.51895 0
M  V30 4906 H 465.029 -0.727891 -0.115515 0
M  V30 4907 H 467.671 -1.85722 0.400931 0
M  V30 4908 H 465.821 -3.6595 -1.30433 0
M  V30 4909 H 467.493 -4.4596 1.17973 0
M  V30 4910 H 465.736 -4.17545 1.17636 0
M  V30 4911 H 466.407 -5.51475 0.240675 0
M  V30 4912 H 468.883 -4.03937 -0.99872 0
M  V30 4913 H 467.759 -5.20448 -1.74429 0
M  V30 4914 H 468.02 -3.64284 -2.50498 0
M  V30 4915 N 467.08 -0.0183926 -1.57589 0
M  V30 4916 C 468.357 0.700621 -1.82622 0
M  V30 4917 C 468.737 1.90951 -0.90005 0
M  V30 4918 O 468.085 2.28452 0.0469145 0
M  V30 4919 C 468.295 1.08899 -3.31575 0
M  V30 4920 C 469.643 1.48514 -3.9778 0
M  V30 4921 O 470.667 1.18227 -3.36007 0
M  V30 4922 O 469.526 2.04903 -5.06633 0
M  V30 4923 H 466.62 0.342743 -0.752633 0
M  V30 4924 H 469.166 -0.0452548 -1.6964 0
M  V30 4925 H 467.938 0.228113 -3.90635 0
M  V30 4926 H 467.561 1.89338 -3.49624 0
M  V30 4927 N 468.558 1.5553 0.254621 0
M  V30 4928 C 469.805 1.77 0.983736 0
M  V30 4929 C 470.133 0.58133 1.85609 0
M  V30 4930 O 469.388 -0.435621 1.9079 0
M  V30 4931 C 469.687 3.03891 1.88109 0
M  V30 4932 C 469.353 4.35597 1.16472 0
M  V30 4933 C 468.015 4.7139 0.966714 0
M  V30 4934 C 470.367 5.1705 0.656387 0
M  V30 4935 C 467.695 5.86176 0.247942 0
M  V30 4936 C 470.047 6.32581 -0.0488807 0
M  V30 4937 C 468.711 6.67 -0.258438 0
M  V30 4938 H 467.981 0.647688 0.359974 0
M  V30 4939 H 470.628 1.89802 0.254463 0
M  V30 4940 H 468.933 2.86068 2.67717 0
M  V30 4941 H 470.63 3.17701 2.44677 0
M  V30 4942 H 467.22 4.07475 1.32899 0
M  V30 4943 H 471.404 4.8986 0.796933 0
M  V30 4944 H 466.66 6.11354 0.075035 0
M  V30 4945 H 470.834 6.94942 -0.450444 0
M  V30 4946 H 468.461 7.55793 -0.817358 0
M  V30 4947 N 470.036 -0.519951 1.48776 0
M  V30 4948 C 470.966 -1.63253 1.66945 0
M  V30 4949 C 471.947 -1.62014 0.518224 0
M  V30 4950 O 473.132 -1.79053 0.751919 0
M  V30 4951 C 470.262 -3.0181 1.71836 0
M  V30 4952 C 469.216 -3.17911 2.8656 0
M  V30 4953 C 468.542 -4.5763 2.76548 0
M  V30 4954 C 469.842 -2.99729 4.27738 0
M  V30 4955 H 471.536 -1.48302 2.6009 0
M  V30 4956 H 469.082 -0.712026 1.25165 0
M  V30 4957 H 471.035 -3.79525 1.83135 0
M  V30 4958 H 469.759 -3.17806 0.752775 0
M  V30 4959 H 468.418 -2.42616 2.74833 0
M  V30 4960 H 468.066 -4.70476 1.77937 0
M  V30 4961 H 467.766 -4.69346 3.53536 0
M  V30 4962 H 469.29 -5.37431 2.89828 0
M  V30 4963 H 470.704 -3.67228 4.40246 0
M  V30 4964 H 469.101 -3.22932 5.05801 0
M  V30 4965 H 470.171 -1.96047 4.43502 0
M  V30 4966 N 471.514 -1.37532 -0.769588 0
M  V30 4967 C 472.742 -1.36059 -1.55871 0
M  V30 4968 C 473.157 0.053544 -1.88724 0
M  V30 4969 O 472.514 1.01591 -1.5161 0
M  V30 4970 C 472.565 -2.20107 -2.86767 0
M  V30 4971 O 472.286 -3.56009 -2.55321 0
M  V30 4972 C 473.787 -2.26636 -3.80987 0
M  V30 4973 H 471.007 -0.465967 -0.482821 0
M  V30 4974 H 473.551 -1.80901 -0.953686 0
M  V30 4975 H 471.706 -1.78768 -3.43687 0
M  V30 4976 H 472.12 -4.0009 -3.39158 0
M  V30 4977 H 473.594 -2.89763 -4.69831 0
M  V30 4978 H 474.071 -1.2754 -4.20274 0
M  V30 4979 H 474.677 -2.68296 -3.29996 0
M  V30 4980 N 472.992 0.995999 -1.22138 0
M  V30 4981 C 473.939 2.08551 -0.988687 0
M  V30 4982 C 474.909 1.65864 0.0885021 0
M  V30 4983 O 476.094 1.90704 -0.0604589 0
M  V30 4984 C 473.234 3.40374 -0.569191 0
M  V30 4985 C 472.347 3.96421 -1.71681 0
M  V30 4986 C 471.482 5.1639 -1.2456 0
M  V30 4987 C 470.521 5.64567 -2.36497 0
M  V30 4988 N 469.658 6.75777 -1.90445 0
M  V30 4989 H 474.498 2.2779 -1.92135 0
M  V30 4990 H 472.035 1.1168 -0.957388 0
M  V30 4991 H 473.993 4.16068 -0.307166 0
M  V30 4992 H 472.623 3.21145 0.326462 0
M  V30 4993 H 471.675 3.17628 -2.09324 0
M  V30 4994 H 472.987 4.2816 -2.55891 0
M  V30 4995 H 472.141 5.99362 -0.940774 0
M  V30 4996 H 470.88 4.86266 -0.373662 0
M  V30 4997 H 469.885 4.80185 -2.67772 0
M  V30 4998 H 471.11 5.96716 -3.24202 0
M  V30 4999 H 469.056 6.47443 -1.05609 0
M  V30 5000 H 468.973 7.06818 -2.68223 0
M  V30 5001 H 470.241 7.62262 -1.63022 0
M  V30 5002 N 474.47 1.03057 1.19235 0
M  V30 5003 C 475.718 0.726581 1.88587 0
M  V30 5004 C 476.039 -0.747227 1.80115 0
M  V30 5005 O 475.309 -1.53849 1.21274 0
M  V30 5006 H 473.889 0.265768 0.698124 0
M  V30 5007 H 476.551 1.30516 1.44746 0
M  V30 5008 H 475.647 1.0224 2.94879 0
M  V30 5009 N 475.948 -1.35272 0.808662 0
M  V30 5010 C 476.858 -2.33546 0.222079 0
M  V30 5011 C 477.874 -1.6196 -0.636011 0
M  V30 5012 O 479.05 -1.93822 -0.547274 0
M  V30 5013 C 476.115 -3.41148 -0.61795 0
M  V30 5014 C 475.176 -4.28507 0.260875 0
M  V30 5015 C 474.409 -5.3097 -0.539156 0
M  V30 5016 O 474.632 -5.42123 -1.77367 0
M  V30 5017 O 473.566 -6.01858 0.0710526 0
M  V30 5018 H 477.392 -2.85515 1.03512 0
M  V30 5019 H 474.977 -1.38079 0.570495 0
M  V30 5020 H 476.859 -4.06889 -1.09634 0
M  V30 5021 H 475.534 -2.91447 -1.40855 0
M  V30 5022 H 474.441 -3.6574 0.786451 0
M  V30 5023 H 475.774 -4.81611 1.01547 0
M  V30 5024 N 477.426 -0.562348 -1.47226 0
M  V30 5025 C 478.654 -0.0452275 -2.06851 0
M  V30 5026 C 479.069 1.25078 -1.41424 0
M  V30 5027 O 478.426 1.75156 -0.512513 0
M  V30 5028 C 478.477 0.148674 -3.61194 0
M  V30 5029 O 478.198 -1.09602 -4.24169 0
M  V30 5030 C 479.699 0.702488 -4.37699 0
M  V30 5031 H 476.919 -0.0481775 -0.669268 0
M  V30 5032 H 479.463 -0.777223 -1.89155 0
M  V30 5033 H 477.618 0.830817 -3.78386 0
M  V30 5034 H 478.032 -0.896982 -5.16773 0
M  V30 5035 H 479.506 0.78743 -5.46355 0
M  V30 5036 H 479.983 1.71493 -4.04335 0
M  V30 5037 H 480.589 0.0558772 -4.25263 0
M  V30 5038 N 478.904 1.54736 -0.299062 0
M  V30 5039 C 480.129 2.04975 0.316254 0
M  V30 5040 C 480.554 1.17501 1.46885 0
M  V30 5041 O 479.912 0.178678 1.80417 0
M  V30 5042 C 479.96 3.52672 0.751997 0
M  V30 5043 O 479.064 3.68226 1.85697 0
M  V30 5044 H 478.405 0.661126 0.0617175 0
M  V30 5045 H 480.935 1.99805 -0.440341 0
M  V30 5046 H 480.945 3.94488 1.04133 0
M  V30 5047 H 479.62 4.158 -0.0911482 0
M  V30 5048 H 478.197 3.38316 1.56834 0
M  V30 5049 N 480.382 0.0267497 1.57577 0
M  V30 5050 C 481.61 -0.662661 1.96001 0
M  V30 5051 C 482.025 -1.65799 0.903117 0
M  V30 5052 O 481.382 -1.82135 -0.115317 0
M  V30 5053 C 481.433 -1.37112 3.34488 0
M  V30 5054 O 481.154 -0.415683 4.36123 0
M  V30 5055 C 482.655 -2.15257 3.8753 0
M  V30 5056 H 479.875 -0.18287 0.6456 0
M  V30 5057 H 482.419 0.0858116 2.0432 0
M  V30 5058 H 480.574 -2.07101 3.27395 0
M  V30 5059 H 480.988 -0.918496 5.16395 0
M  V30 5060 H 482.462 -2.60285 4.86781 0
M  V30 5061 H 482.939 -2.99063 3.21649 0
M  V30 5062 H 483.545 -1.50231 3.97883 0
M  V30 5063 N 481.861 -1.55662 -0.24637 0
M  V30 5064 C 482.771 -1.93495 -1.32653 0
M  V30 5065 C 483.787 -0.835462 -1.5263 0
M  V30 5066 O 484.963 -1.1369 -1.66242 0
M  V30 5067 C 482.028 -2.22242 -2.66101 0
M  V30 5068 C 481.089 -3.45625 -2.54641 0
M  V30 5069 C 480.322 -3.72991 -3.81724 0
M  V30 5070 O 480.545 -3.02421 -4.8363 0
M  V30 5071 O 479.479 -4.66515 -3.80325 0
M  V30 5072 H 483.305 -2.85498 -1.03559 0
M  V30 5073 H 480.89 -1.42551 -0.44717 0
M  V30 5074 H 482.772 -2.42037 -3.44958 0
M  V30 5075 H 481.447 -1.33417 -2.94926 0
M  V30 5076 H 480.354 -3.31136 -1.74067 0
M  V30 5077 H 481.687 -4.34754 -2.3076 0
M  V30 5078 N 483.339 0.512053 -1.4905 0
M  V30 5079 C 484.585 1.26874 -1.58212 0
M  V30 5080 C 484.918 1.9241 -0.263073 0
M  V30 5081 O 484.193 1.80181 0.732476 0
M  V30 5082 C 484.476 2.34428 -2.73341 0
M  V30 5083 C 484.329 1.73466 -4.15006 0
M  V30 5084 C 485.648 3.36073 -2.84154 0
M  V30 5085 H 482.767 0.459924 -0.575881 0
M  V30 5086 H 485.409 0.568587 -1.81293 0
M  V30 5087 H 483.559 2.94146 -2.53792 0
M  V30 5088 H 485.231 1.17661 -4.46042 0
M  V30 5089 H 483.474 1.03921 -4.21168 0
M  V30 5090 H 484.145 2.51426 -4.91415 0
M  V30 5091 H 486.621 2.86332 -3.01916 0
M  V30 5092 H 485.497 4.08703 -3.66406 0
M  V30 5093 H 485.758 3.97725 -1.93048 0
M  V30 5094 N 484.817 1.37938 0.762283 0
M  V30 5095 C 486.045 1.36883 1.55147 0
M  V30 5096 C 486.46 -0.0435348 1.8875 0
M  V30 5097 O 485.817 -1.00786 1.52146 0
M  V30 5098 C 485.868 2.21624 2.85596 0
M  V30 5099 O 485.589 3.57358 2.5343 0
M  V30 5100 C 487.09 2.28653 3.7978 0
M  V30 5101 H 484.31 0.468521 0.480343 0
M  V30 5102 H 486.854 1.81404 0.944079 0
M  V30 5103 H 485.009 1.80588 3.42734 0
M  V30 5104 H 485.423 4.01883 3.37032 0
M  V30 5105 H 486.897 2.9225 4.68288 0
M  V30 5106 H 487.374 1.29767 4.19592 0
M  V30 5107 H 487.98 2.70043 3.28568 0
M  V30 5108 N 486.295 -0.989507 1.22664 0
M  V30 5109 C 487.543 -1.72612 1.05117 0
M  V30 5110 C 487.864 -1.90552 -0.414131 0
M  V30 5111 O 487.134 -1.4676 -1.29762 0
M  V30 5112 H 485.714 -0.639555 0.385977 0
M  V30 5113 H 488.376 -1.19158 1.54232 0
M  V30 5114 H 487.472 -2.71926 1.53175 0
M  V30 5115 N 487.773 -1.03688 -1.18687 0
M  V30 5116 C 489.184 -0.766488 -1.70241 0
M  V30 5117 C 489.535 0.713052 -1.82784 0
M  V30 5118 O 488.66 1.55529 -1.50465 0
M  V30 5119 C 489.255 -1.38475 -3.09209 0
M  V30 5120 C 487.814 -1.16276 -3.5799 0
M  V30 5121 C 486.961 -1.4778 -2.34641 0
M  V30 5122 H 489.912 -1.20378 -1.03415 0
M  V30 5123 H 489.933 -0.785939 -3.72295 0
M  V30 5124 H 489.445 -2.46157 -3.00048 0
M  V30 5125 H 487.546 -0.104508 -3.72453 0
M  V30 5126 H 487.659 -1.8571 -4.41643 0
M  V30 5127 H 486.023 -0.897366 -2.38368 0
M  V30 5128 H 486.806 -2.56562 -2.28102 0
M  V30 5129 N 489.251 1.34841 -0.815825 0
M  V30 5130 C 490.214 2.27959 -0.238185 0
M  V30 5131 C 491.214 1.49983 0.579816 0
M  V30 5132 O 492.404 1.69617 0.396953 0
M  V30 5133 C 489.536 3.34314 0.666876 0
M  V30 5134 H 490.729 2.80558 -1.05958 0
M  V30 5135 H 488.282 1.44852 -0.587156 0
M  V30 5136 H 489.017 2.86916 1.5116 0
M  V30 5137 H 488.802 3.92014 0.0819106 0
M  V30 5138 H 490.292 4.0379 1.06506 0
M  V30 5139 N 490.729 0.570148 1.46925 0
M  V30 5140 C 491.676 -0.170257 2.30171 0
M  V30 5141 C 492.646 -0.896099 1.39855 0
M  V30 5142 O 493.831 -0.889248 1.68811 0
M  V30 5143 C 490.971 -1.18605 3.24079 0
M  V30 5144 C 490.084 -0.464947 4.29491 0
M  V30 5145 C 489.219 -1.46716 5.10537 0
M  V30 5146 C 488.258 -0.731758 6.0771 0
M  V30 5147 N 487.395 -1.68142 6.81669 0
M  V30 5148 H 492.235 0.545713 2.92961 0
M  V30 5149 H 489.772 0.280938 1.44392 0
M  V30 5150 H 491.73 -1.78771 3.76957 0
M  V30 5151 H 490.36 -1.86989 2.63125 0
M  V30 5152 H 489.412 0.251506 3.79568 0
M  V30 5153 H 490.724 0.110548 4.98677 0
M  V30 5154 H 489.878 -2.14199 5.6763 0
M  V30 5155 H 488.617 -2.07658 4.41282 0
M  V30 5156 H 487.622 -0.0430787 5.49783 0
M  V30 5157 H 488.847 -0.127904 6.7898 0
M  V30 5158 H 486.793 -2.27918 6.15134 0
M  V30 5159 H 486.71 -1.15841 7.47072 0
M  V30 5160 H 487.978 -2.347 7.43328 0
M  V30 5161 O 492.246 -1.55123 0.449357 0
M  V30 5162 H 492.937 -1.93529 -0.0814057 0
M  V30 END ATOM
M  V30 BEGIN BOND
M  V30 END BOND
M  V30 END CTAB
M  END
$$$$
