drugbank_target|Q8IWT1 Sodium channel subunit beta-4 (DB00243; DB00313; DB00776; DB00907; DB05541; DB13269; DB13961)
 OpenBabel12092120363D

  0  0  0     0  0            999 V3000
M  V30 BEGIN CTAB
M  V30 COUNTS 3584 3612 0 0 0
M  V30 BEGIN ATOM
M  V30 1 H -0.908 1.98254 -0.117106 0
M  V30 2 N 0 1.576 0 0
M  V30 3 C 0.933 2.03868 1.02534 0
M  V30 4 C 1.911 0.928543 1.3348 0
M  V30 5 O 3.095 1.19667 1.45644 0
M  V30 6 C 0.222 2.43627 2.35294 0
M  V30 7 C -0.732 3.65373 2.2001 0
M  V30 8 S 0.101 5.13292 1.52614 0
M  V30 9 C 1.257 5.56322 2.86805 0
M  V30 10 H 1.49 2.90518 0.631377 0
M  V30 11 H -0.977 1.52953 0.210867 0
M  V30 12 H 0.981 2.67203 3.11629 0
M  V30 13 H -0.358 1.57376 2.7183 0
M  V30 14 H -1.165 3.90944 3.18086 0
M  V30 15 H -1.563 3.418 1.51819 0
M  V30 16 H 0.729 5.58782 3.83104 0
M  V30 17 H 1.672 6.56266 2.65933 0
M  V30 18 H 2.08 4.83886 2.90714 0
M  V30 19 N 1.4781 -0.272755 1.55222 0
M  V30 20 C 2.8891 -0.84378 1.66545 0
M  V30 21 C 3.2401 -1.87035 0.592641 0
M  V30 22 O 2.3651 -2.14761 -0.265818 0
M  V30 23 C 2.9601 -1.53723 3.01918 0
M  V30 24 C 1.5191 -2.05628 3.15268 0
M  V30 25 C 0.6661 -0.898424 2.62343 0
M  V30 26 H 3.6171 -0.0490998 1.58624 0
M  V30 27 H 3.6381 -2.40421 2.94921 0
M  V30 28 H 3.1501 -0.78983 3.79978 0
M  V30 29 H 1.2511 -2.83329 2.41983 0
M  V30 30 H 1.3641 -2.27142 4.21833 0
M  V30 31 H -0.2719 -1.29186 2.19506 0
M  V30 32 H 0.5111 -0.164528 3.42906 0
M  V30 33 N 2.9562 -1.48159 -0.537278 0
M  V30 34 C 4.2042 -1.55497 -1.29094 0
M  V30 35 C 4.5252 -0.227454 -1.93669 0
M  V30 36 O 3.7952 0.750386 -1.80959 0
M  V30 37 H 2.3752 -0.572832 -0.47945 0
M  V30 38 H 5.0372 -1.84579 -0.625818 0
M  V30 39 H 4.1332 -2.33216 -2.07405 0
M  V30 40 N 4.4343 0.785586 -1.36625 0
M  V30 41 C 5.3973 1.87999 -1.31107 0
M  V30 42 C 6.3973 1.59316 -0.217959 0
M  V30 43 O 7.5873 1.67656 -0.472977 0
M  V30 44 C 4.7193 3.24861 -1.03334 0
M  V30 45 H 5.9123 1.94307 -2.2844 0
M  V30 46 H 3.4653 0.983813 -1.21453 0
M  V30 47 H 4.2003 3.24235 -0.0647432 0
M  V30 48 H 3.9853 3.4707 -1.82441 0
M  V30 49 H 5.4753 4.04929 -1.02088 0
M  V30 50 N 5.9124 1.20967 1.01018 0
M  V30 51 C 7.1604 1.02172 1.74371 0
M  V30 52 C 7.4814 -0.446414 1.89821 0
M  V30 53 O 6.7514 -1.32234 1.44537 0
M  V30 54 H 5.3314 0.375066 0.646014 0
M  V30 55 H 7.9934 1.52187 1.21758 0
M  V30 56 H 7.0894 1.48538 2.74487 0
M  V30 57 N 7.3905 -1.2043 1.01659 0
M  V30 58 C 8.6675 -1.8548 0.621004 0
M  V30 59 C 9.0475 -1.9091 -0.900919 0
M  V30 60 O 8.3955 -1.41694 -1.79263 0
M  V30 61 C 8.6055 -3.25119 1.2688 0
M  V30 62 C 9.9535 -4.01403 1.38423 0
M  V30 63 O 10.9775 -3.34473 1.22501 0
M  V30 64 O 9.8365 -5.21265 1.64151 0
M  V30 65 H 6.9305 -0.798761 0.214266 0
M  V30 66 H 9.4765 -1.28019 1.11396 0
M  V30 67 H 8.2485 -3.15932 2.30873 0
M  V30 68 H 7.8715 -3.90212 0.762917 0
M  V30 69 N 8.8686 -0.792821 -1.36206 0
M  V30 70 C 10.1166 -0.366062 -1.98757 0
M  V30 71 C 10.4376 1.0668 -1.63231 0
M  V30 72 O 9.7076 1.73587 -0.907978 0
M  V30 73 H 8.2876 -0.132364 -0.735179 0
M  V30 74 H 10.9496 -1.01562 -1.66347 0
M  V30 75 H 10.0456 -0.460638 -3.08682 0
M  V30 76 N 10.3467 1.47872 -0.545128 0
M  V30 77 C 11.5947 2.02093 -0.016553 0
M  V30 78 C 11.9157 1.42305 1.3332 0
M  V30 79 O 11.1857 0.593853 1.86682 0
M  V30 80 H 9.7657 0.746993 -0.00313038 0
M  V30 81 H 12.4277 1.81414 -0.712397 0
M  V30 82 H 11.5237 3.11996 0.0805422 0
M  V30 83 N 11.8248 0.280983 1.55075 0
M  V30 84 C 12.7718 -0.603937 2.22758 0
M  V30 85 C 13.7418 -1.1452 1.20309 0
M  V30 86 O 14.9268 -1.19343 1.48869 0
M  V30 87 C 12.0668 -1.77947 2.95684 0
M  V30 88 C 11.1798 -1.2715 4.12864 0
M  V30 89 C 10.3148 -2.4093 4.7342 0
M  V30 90 C 9.3538 -1.87165 5.82783 0
M  V30 91 N 8.4908 -2.94441 6.37377 0
M  V30 92 H 13.3308 -0.020124 2.97993 0
M  V30 93 H 10.8678 0.00183425 1.471 0
M  V30 94 H 12.8258 -2.47055 3.36184 0
M  V30 95 H 11.4558 -2.33522 2.22861 0
M  V30 96 H 10.5078 -0.473331 3.77444 0
M  V30 97 H 11.8198 -0.837751 4.91715 0
M  V30 98 H 10.9738 -3.18021 5.1667 0
M  V30 99 H 9.7128 -2.87623 3.93859 0
M  V30 100 H 8.7178 -1.08556 5.38976 0
M  V30 101 H 9.9428 -1.41401 6.64216 0
M  V30 102 H 7.8888 -3.40505 5.60707 0
M  V30 103 H 7.8058 -2.55501 7.11516 0
M  V30 104 H 9.0738 -3.71489 6.85285 0
M  V30 105 N 13.3029 -1.57598 0.00835791 0
M  V30 106 C 14.2659 -2.07884 -0.965242 0
M  V30 107 C 15.2659 -0.989825 -1.26725 0
M  V30 108 O 16.4559 -1.25218 -1.21104 0
M  V30 109 C 13.5879 -2.52731 -2.28779 0
M  V30 110 H 14.7809 -2.95178 -0.530112 0
M  V30 111 H 12.3339 -1.54458 -0.239283 0
M  V30 112 H 13.0689 -1.68705 -2.76964 0
M  V30 113 H 12.8539 -3.32272 -2.08177 0
M  V30 114 H 14.3439 -2.91933 -2.98605 0
M  V30 115 N 14.781 0.264519 -1.55364 0
M  V30 116 C 16.192 0.834936 -1.6699 0
M  V30 117 C 16.543 1.86718 -0.602552 0
M  V30 118 O 15.668 2.14899 0.254425 0
M  V30 119 C 16.263 1.5212 -3.02729 0
M  V30 120 C 14.822 2.03954 -3.16354 0
M  V30 121 C 13.969 0.884498 -2.62815 0
M  V30 122 H 16.92 0.0406869 -1.58648 0
M  V30 123 H 16.941 2.38853 -2.96191 0
M  V30 124 H 16.453 0.769668 -3.80392 0
M  V30 125 H 14.554 2.82041 -2.43482 0
M  V30 126 H 14.667 2.24902 -4.23032 0
M  V30 127 H 13.031 1.2802 -2.20188 0
M  V30 128 H 13.814 0.14634 -3.42988 0
M  V30 129 N 16.2591 1.48442 0.529413 0
M  V30 130 C 17.2221 1.62524 1.61612 0
M  V30 131 C 18.2221 0.498509 1.52877 0
M  V30 132 O 19.4121 0.76431 1.56537 0
M  V30 133 C 16.5441 1.59597 3.01233 0
M  V30 134 H 17.7371 2.59423 1.50465 0
M  V30 135 H 15.2901 1.37047 0.751514 0
M  V30 136 H 16.0251 0.641781 3.17886 0
M  V30 137 H 15.8101 2.41397 3.08982 0
M  V30 138 H 17.3001 1.72646 3.80241 0
M  V30 139 N 17.7372 -0.778329 1.37039 0
M  V30 140 C 19.1532 -1.07796 1.17695 0
M  V30 141 C 19.3532 -2.01498 0.00860115 0
M  V30 142 O 18.4092 -2.43901 -0.653352 0
M  V30 143 C 19.7222 -1.68178 2.49272 0
M  V30 144 C 21.2702 -1.80467 2.55735 0
M  V30 145 C 21.7452 -2.44263 3.87427 0
M  V30 146 N 23.2362 -2.51721 3.88833 0
M  V30 147 C 23.9712 -3.01919 4.87476 0
M  V30 148 N 23.4672 -3.5234 5.96513 0
M  V30 149 N 25.2602 -3.00733 4.74885 0
M  V30 150 H 17.4112 -0.156032 2.11826 0
M  V30 151 H 19.6742 -0.131844 0.938787 0
M  V30 152 H 19.3802 -1.06796 3.35093 0
M  V30 153 H 19.2542 -2.67554 2.65885 0
M  V30 154 H 21.6412 -2.40984 1.70325 0
M  V30 155 H 21.7222 -0.798656 2.43013 0
M  V30 156 H 21.3662 -1.84388 4.73248 0
M  V30 157 H 21.2962 -3.45458 3.9745 0
M  V30 158 H 23.7872 -2.1603 3.10063 0
M  V30 159 H 24.1002 -3.89027 6.67741 0
M  V30 160 H 22.4452 -3.50462 6.00168 0
M  V30 161 H 25.6362 -2.60638 3.88826 0
M  V30 162 H 25.8092 -3.39545 5.51918 0
M  V30 163 N 19.2153 -1.21501 -1.00376 0
M  V30 164 C 20.4613 -1.04457 -1.74529 0
M  V30 165 C 20.8163 0.417386 -1.87818 0
M  V30 166 O 20.1093 1.30556 -1.40234 0
M  V30 167 C 20.3033 -1.67673 -3.15627 0
M  V30 168 C 20.1323 -3.19865 -3.16096 0
M  V30 169 C 18.9023 -3.88915 -3.22604 0
M  V30 170 C 21.1003 -4.16936 -3.01112 0
M  V30 171 N 19.0823 -5.28284 -3.12712 0
M  V30 172 C 20.4533 -5.43066 -2.99131 0
M  V30 173 C 22.5083 -4.07968 -2.85423 0
M  V30 174 C 21.2113 -6.6126 -2.83068 0
M  V30 175 C 23.2373 -5.258 -2.70718 0
M  V30 176 C 22.5993 -6.50842 -2.69414 0
M  V30 177 H 18.6983 -0.436584 -0.648782 0
M  V30 178 H 21.2823 -1.53875 -1.19293 0
M  V30 179 H 19.4533 -1.20822 -3.6913 0
M  V30 180 H 21.1853 -1.43824 -3.78281 0
M  V30 181 H 17.9403 -3.39847 -3.2985 0
M  V30 182 H 18.3643 -6.01284 -3.11105 0
M  V30 183 H 23.0063 -3.1209 -2.85236 0
M  V30 184 H 20.7243 -7.57298 -2.82002 0
M  V30 185 H 24.3103 -5.20683 -2.59577 0
M  V30 186 H 23.1903 -7.40485 -2.5817 0
M  V30 187 N 20.6934 1.19889 -1.02296 0
M  V30 188 C 21.6234 2.25141 -0.619174 0
M  V30 189 C 22.6044 1.66051 0.368915 0
M  V30 190 O 23.7894 1.92546 0.252941 0
M  V30 191 C 20.9194 3.4728 0.0368783 0
M  V30 192 C 19.8734 4.19005 -0.872865 0
M  V30 193 C 19.1994 5.34637 -0.0822402 0
M  V30 194 C 20.4994 4.74452 -2.18387 0
M  V30 195 H 22.1934 2.59171 -1.49903 0
M  V30 196 H 19.7394 1.24579 -0.722222 0
M  V30 197 H 21.6924 4.20098 0.330958 0
M  V30 198 H 20.4164 3.12433 0.95149 0
M  V30 199 H 19.0754 3.48061 -1.15105 0
M  V30 200 H 18.7234 4.96034 0.83422 0
M  V30 201 H 18.4234 5.83557 -0.688149 0
M  V30 202 H 19.9474 6.10255 0.205238 0
M  V30 203 H 21.3614 5.39055 -1.95172 0
M  V30 204 H 19.7584 5.33834 -2.74119 0
M  V30 205 H 20.8284 3.92844 -2.84257 0
M  V30 206 N 22.1715 0.800033 1.35784 0
M  V30 207 C 23.4195 0.376597 1.9856 0
M  V30 208 C 23.7405 -1.05812 1.63795 0
M  V30 209 O 23.0105 -1.73103 0.917171 0
M  V30 210 H 21.5905 0.136261 0.734467 0
M  V30 211 H 24.2525 1.02442 1.65806 0
M  V30 212 H 23.3485 0.477002 3.08433 0
M  V30 213 N 23.6496 -1.47581 0.552962 0
M  V30 214 C 24.8776 -2.06875 0.0320556 0
M  V30 215 C 25.2926 -1.40625 -1.25976 0
M  V30 216 O 24.6496 -0.501349 -1.75479 0
M  V30 217 C 24.7006 -3.61092 -0.17167 0
M  V30 218 O 24.4216 -4.24858 1.06899 0
M  V30 219 C 25.9226 -4.37242 -0.730344 0
M  V30 220 H 23.1426 -0.669561 0.043915 0
M  V30 221 H 25.6866 -1.89646 0.765163 0
M  V30 222 H 23.8416 -3.7785 -0.854894 0
M  V30 223 H 24.2556 -5.17334 0.864059 0
M  V30 224 H 25.7296 -5.45842 -0.822203 0
M  V30 225 H 26.2066 -4.03235 -1.74064 0
M  V30 226 H 26.8126 -4.25219 -0.0829543 0
M  V30 227 N 25.1277 -0.289203 -1.54924 0
M  V30 228 C 26.3757 0.322879 -1.99504 0
M  V30 229 C 26.6967 1.55313 -1.1791 0
M  V30 230 O 25.9667 1.94001 -0.272097 0
M  V30 231 H 24.5467 0.122291 -0.736922 0
M  V30 232 H 27.2087 -0.397802 -1.90797 0
M  V30 233 H 26.3047 0.603061 -3.06218 0
M  V30 234 N 26.6058 1.57591 -0.0167156 0
M  V30 235 C 27.5358 2.12496 0.967858 0
M  V30 236 C 28.5168 1.03807 1.34752 0
M  V30 237 O 29.7018 1.31577 1.42833 0
M  V30 238 C 26.8318 2.64194 2.25431 0
M  V30 239 C 25.7858 3.77559 2.01576 0
M  V30 240 C 25.1118 4.15636 3.36379 0
M  V30 241 C 26.4118 5.04151 1.36489 0
M  V30 242 H 28.1058 2.95013 0.510643 0
M  V30 243 H 25.6518 1.41915 0.244181 0
M  V30 244 H 27.6048 3.01236 2.94678 0
M  V30 245 H 26.3288 1.78821 2.73296 0
M  V30 246 H 24.9878 3.40937 1.34751 0
M  V30 247 H 24.6358 3.27263 3.81979 0
M  V30 248 H 24.3358 4.92022 3.21229 0
M  V30 249 H 25.8598 4.5525 4.06915 0
M  V30 250 H 27.2738 5.38857 1.95718 0
M  V30 251 H 25.6708 5.85453 1.31776 0
M  V30 252 H 26.7408 4.83733 0.336219 0
M  V30 253 N 28.0839 -0.256276 1.55502 0
M  V30 254 C 29.0139 -1.32102 1.92539 0
M  V30 255 C 29.9949 -1.50684 0.789194 0
M  V30 256 O 31.1799 -1.63449 1.04872 0
M  V30 257 C 28.3099 -2.67752 2.21192 0
M  V30 258 C 27.2639 -2.63878 3.36975 0
M  V30 259 C 26.5899 -4.03236 3.51147 0
M  V30 260 C 27.8899 -2.21682 4.72921 0
M  V30 261 H 29.5839 -1.01351 2.81724 0
M  V30 262 H 27.1299 -0.486105 1.35547 0
M  V30 263 H 29.0829 -3.42365 2.45691 0
M  V30 264 H 27.8069 -3.0012 1.28824 0
M  V30 265 H 26.4659 -1.91722 3.12471 0
M  V30 266 H 26.1139 -4.32854 2.56216 0
M  V30 267 H 25.8139 -4.01535 4.29003 0
M  V30 268 H 27.3379 -4.79563 3.77957 0
M  V30 269 H 28.7519 -2.86023 4.96854 0
M  V30 270 H 27.1489 -2.3111 5.53812 0
M  V30 271 H 28.2189 -1.16833 4.70615 0
M  V30 272 N 29.562 -1.4872 -0.521534 0
M  V30 273 C 30.81 -1.56857 -1.27437 0
M  V30 274 C 31.131 -0.247982 -1.93417 0
M  V30 275 O 30.401 0.731151 -1.81744 0
M  V30 276 H 28.981 -0.577885 -0.473347 0
M  V30 277 H 31.643 -1.85233 -0.606205 0
M  V30 278 H 30.739 -2.35402 -2.0492 0
M  V30 279 N 31.0401 0.771051 -1.3745 0
M  V30 280 C 31.9701 1.89827 -1.3597 0
M  V30 281 C 32.9511 1.68562 -0.228216 0
M  V30 282 O 34.1361 1.8941 -0.428675 0
M  V30 283 C 31.2661 3.2712 -1.16662 0
M  V30 284 C 30.2201 3.6295 -2.2683 0
M  V30 285 C 29.5461 4.98791 -1.92644 0
M  V30 286 C 30.8461 3.69627 -3.69017 0
M  V30 287 H 32.5401 1.91323 -2.30295 0
M  V30 288 H 30.0861 0.919082 -1.10855 0
M  V30 289 H 32.0391 4.05615 -1.14256 0
M  V30 290 H 30.7631 3.26059 -0.187926 0
M  V30 291 H 29.4221 2.86763 -2.28392 0
M  V30 292 H 29.0701 4.94271 -0.933021 0
M  V30 293 H 28.7701 5.23733 -2.66416 0
M  V30 294 H 30.2941 5.79685 -1.91826 0
M  V30 295 H 31.7081 4.38273 -3.69581 0
M  V30 296 H 30.1051 4.06067 -4.41848 0
M  V30 297 H 31.1751 2.70273 -4.02592 0
M  V30 298 N 32.5182 1.22032 0.997298 0
M  V30 299 C 33.7652 1.04222 1.73621 0
M  V30 300 C 34.0932 -0.423264 1.89839 0
M  V30 301 O 33.3482 -1.3302 1.43542 0
M  V30 302 C 33.6472 1.69345 3.14733 0
M  V30 303 C 33.3132 3.19226 3.18442 0
M  V30 304 C 31.9752 3.60124 3.19161 0
M  V30 305 C 34.3272 4.15181 3.15078 0
M  V30 306 C 31.6552 4.95467 3.14212 0
M  V30 307 C 34.0072 5.50495 3.1167 0
M  V30 308 C 32.6712 5.90779 3.10703 0
M  V30 309 H 31.9412 0.381374 0.635323 0
M  V30 310 H 34.5882 1.51732 1.16831 0
M  V30 311 H 32.8932 1.14147 3.74803 0
M  V30 312 H 34.5902 1.53059 3.7064 0
M  V30 313 H 31.1802 2.86659 3.18629 0
M  V30 314 H 35.3642 3.84605 3.13676 0
M  V30 315 H 30.6202 5.25916 3.11805 0
M  V30 316 H 34.7942 6.24576 3.08022 0
M  V30 317 H 32.4212 6.9562 3.06622 0
M  V30 318 N 33.9963 -1.19345 1.0293 0
M  V30 319 C 34.9263 -2.2481 0.631105 0
M  V30 320 C 35.9073 -1.66245 -0.360104 0
M  V30 321 O 37.0923 -1.92677 -0.242726 0
M  V30 322 C 34.2223 -3.47295 -0.0184607 0
M  V30 323 C 33.1763 -4.18536 0.895073 0
M  V30 324 C 32.5023 -5.34586 0.110592 0
M  V30 325 C 33.8023 -4.73287 2.209 0
M  V30 326 H 35.4963 -2.58372 1.51275 0
M  V30 327 H 33.0423 -1.24194 0.728818 0
M  V30 328 H 34.9953 -4.20268 -0.308675 0
M  V30 329 H 33.7193 -3.12933 -0.934907 0
M  V30 330 H 32.3783 -3.47446 1.16949 0
M  V30 331 H 32.0263 -4.96469 -0.807902 0
M  V30 332 H 31.7263 -5.83183 0.719087 0
M  V30 333 H 33.2503 -6.10355 -0.172871 0
M  V30 334 H 34.6643 -5.38013 1.98028 0
M  V30 335 H 33.0613 -5.32373 2.76946 0
M  V30 336 H 34.1313 -3.91331 2.86336 0
M  V30 337 N 35.4744 -0.807222 -1.35358 0
M  V30 338 C 36.4044 -0.232509 -2.3234 0
M  V30 339 C 37.3854 0.642386 -1.57504 0
M  V30 340 O 38.5704 0.572526 -1.85569 0
M  V30 341 C 35.7004 0.619238 -3.41735 0
M  V30 342 C 34.6544 -0.157215 -4.27711 0
M  V30 343 C 33.9804 0.816273 -5.28433 0
M  V30 344 C 35.2804 -1.35656 -5.04376 0
M  V30 345 H 36.9744 -1.04276 -2.80654 0
M  V30 346 H 34.5204 -0.50288 -1.34934 0
M  V30 347 H 36.4734 1.03137 -4.08584 0
M  V30 348 H 35.1974 1.46239 -2.92031 0
M  V30 349 H 33.8564 -0.550525 -3.62443 0
M  V30 350 H 33.5044 1.65494 -4.74996 0
M  V30 351 H 33.2044 0.301067 -5.86828 0
M  V30 352 H 34.7284 1.22659 -5.98153 0
M  V30 353 H 36.1424 -1.01927 -5.64166 0
M  V30 354 H 34.5394 -1.8063 -5.7227 0
M  V30 355 H 35.6094 -2.14288 -4.34981 0
M  V30 356 N 36.9525 1.47285 -0.560781 0
M  V30 357 C 38.3635 1.86258 -0.128343 0
M  V30 358 C 38.7145 1.46699 1.30284 0
M  V30 359 O 37.8395 0.871698 1.98067 0
M  V30 360 C 38.4345 3.38044 -0.22614 0
M  V30 361 C 36.9935 3.76096 0.151283 0
M  V30 362 C 36.1405 2.71335 -0.572084 0
M  V30 363 H 39.0915 1.38752 -0.770297 0
M  V30 364 H 39.1125 3.76441 0.554322 0
M  V30 365 H 38.6245 3.66806 -1.26788 0
M  V30 366 H 36.7255 3.52951 1.19399 0
M  V30 367 H 36.8385 4.78641 -0.209765 0
M  V30 368 H 35.2025 2.54696 -0.0147653 0
M  V30 369 H 35.9855 3.02938 -1.61504 0
M  V30 370 N 38.4306 0.297415 1.54768 0
M  V30 371 C 39.6766 -0.313376 2.00364 0
M  V30 372 C 40.0096 -1.53815 1.18553 0
M  V30 373 O 39.2846 -1.92739 0.261103 0
M  V30 374 C 39.5676 -0.673525 3.53745 0
M  V30 375 C 39.4206 0.560133 4.46299 0
M  V30 376 C 40.7396 -1.50143 4.13697 0
M  V30 377 H 37.8586 -0.112428 0.728374 0
M  V30 378 H 40.5006 0.4088 1.8555 0
M  V30 379 H 38.6506 -1.28881 3.665 0
M  V30 380 H 40.3226 1.19863 4.45455 0
M  V30 381 H 38.5656 1.19405 4.17043 0
M  V30 382 H 39.2366 0.26405 5.51368 0
M  V30 383 H 41.7126 -0.981588 4.04356 0
M  V30 384 H 40.5886 -1.72221 5.21182 0
M  V30 385 H 40.8496 -2.48952 3.65343 0
M  V30 386 N 39.9087 -1.5758 0.0250728 0
M  V30 387 C 41.1367 -1.9593 -0.664747 0
M  V30 388 C 41.5517 -0.901352 -1.65895 0
M  V30 389 O 40.9087 0.117255 -1.82123 0
M  V30 390 C 40.9597 -3.34342 -1.37468 0
M  V30 391 O 40.6807 -4.36079 -0.420324 0
M  V30 392 C 42.1817 -3.873 -2.1567 0
M  V30 393 H 39.4017 -0.645405 -0.183557 0
M  V30 394 H 41.9457 -2.04329 0.0836372 0
M  V30 395 H 40.1007 -3.27175 -2.0745 0
M  V30 396 H 40.5147 -5.16297 -0.923991 0
M  V30 397 H 41.9887 -4.86504 -2.60803 0
M  V30 398 H 42.4657 -3.21331 -2.99405 0
M  V30 399 H 43.0717 -3.97723 -1.50654 0
M  V30 400 N 41.3868 0.248026 -1.55636 0
M  V30 401 C 42.3168 1.31079 -1.93237 0
M  V30 402 C 43.2978 1.50264 -0.797174 0
M  V30 403 O 44.4828 1.62891 -1.05737 0
M  V30 404 C 41.6128 2.66575 -2.22609 0
M  V30 405 C 40.5668 2.62087 -3.3837 0
M  V30 406 C 39.8928 4.01369 -3.53281 0
M  V30 407 C 41.1928 2.19171 -4.7409 0
M  V30 408 H 42.8868 0.998556 -2.82257 0
M  V30 409 H 40.4328 0.47891 -1.35803 0
M  V30 410 H 42.3858 3.41057 -2.47503 0
M  V30 411 H 41.1098 2.99432 -1.30414 0
M  V30 412 H 39.7688 1.90063 -3.13483 0
M  V30 413 H 39.4168 4.31489 -2.58508 0
M  V30 414 H 39.1168 3.99254 -4.31127 0
M  V30 415 H 40.6408 4.77552 -3.80495 0
M  V30 416 H 42.0548 2.83384 -4.98363 0
M  V30 417 H 40.4518 2.2817 -5.5503 0
M  V30 418 H 41.5218 1.14336 -4.71227 0
M  V30 419 N 42.8649 1.48995 0.513639 0
M  V30 420 C 44.0899 1.61792 1.29762 0
M  V30 421 C 44.5149 0.284475 1.85936 0
M  V30 422 O 43.8729 -0.746185 1.65232 0
M  V30 423 C 43.9209 2.67993 2.41272 0
M  V30 424 O 43.0249 2.26287 3.44772 0
M  V30 425 H 42.3659 0.541963 0.38363 0
M  V30 426 H 44.8959 1.95097 0.616307 0
M  V30 427 H 44.9059 2.89772 2.87221 0
M  V30 428 H 43.5809 3.64791 1.9975 0
M  V30 429 H 42.1579 2.14788 3.04829 0
M  V30 430 N 44.343 -0.763751 1.37857 0
M  V30 431 C 45.273 -1.89103 1.36975 0
M  V30 432 C 46.254 -1.68439 0.237152 0
M  V30 433 O 47.439 -1.8918 0.438713 0
M  V30 434 C 44.569 -3.26496 1.18395 0
M  V30 435 C 43.523 -3.61741 2.28751 0
M  V30 436 C 42.849 -4.97762 1.95286 0
M  V30 437 C 44.149 -3.67665 3.70972 0
M  V30 438 H 45.843 -1.90099 2.31307 0
M  V30 439 H 43.389 -0.91319 1.11341 0
M  V30 440 H 45.342 -4.05003 1.16406 0
M  V30 441 H 44.066 -3.25955 0.205215 0
M  V30 442 H 42.725 -2.85547 2.29909 0
M  V30 443 H 42.373 -4.93769 0.959221 0
M  V30 444 H 42.073 -5.22313 2.69189 0
M  V30 445 H 43.597 -5.7866 1.94898 0
M  V30 446 H 45.011 -4.36307 3.719 0
M  V30 447 H 43.408 -4.03718 4.43995 0
M  V30 448 H 44.478 -2.68134 4.0402 0
M  V30 449 N 45.8211 -1.22559 -0.990812 0
M  V30 450 C 46.7311 -1.01394 -2.11557 0
M  V30 451 C 47.7471 0.0383962 -1.73958 0
M  V30 452 O 48.9231 -0.154787 -2.00804 0
M  V30 453 C 45.9881 -0.596569 -3.41529 0
M  V30 454 C 45.0491 -1.72276 -3.93217 0
M  V30 455 C 44.2821 -1.32521 -5.16985 0
M  V30 456 O 44.5051 -0.204909 -5.70032 0
M  V30 457 O 43.4391 -2.14247 -5.62478 0
M  V30 458 H 47.2651 -1.95633 -2.32296 0
M  V30 459 H 44.8501 -1.01172 -1.0993 0
M  V30 460 H 46.7321 -0.374263 -4.19735 0
M  V30 461 H 45.4071 0.316939 -3.22145 0
M  V30 462 H 44.3141 -1.99961 -3.16174 0
M  V30 463 H 45.6471 -2.61421 -4.17037 0
M  V30 464 N 47.2992 1.18797 -1.03562 0
M  V30 465 C 48.5452 1.8893 -0.737113 0
M  V30 466 C 48.8782 1.79837 0.732956 0
M  V30 467 O 48.1532 1.19525 1.5344 0
M  V30 468 C 48.4362 3.39607 -1.19745 0
M  V30 469 C 48.2892 3.57537 -2.72924 0
M  V30 470 C 49.6082 4.33069 -0.783526 0
M  V30 471 H 46.7272 0.686057 -0.269249 0
M  V30 472 H 49.3692 1.39797 -1.28673 0
M  V30 473 H 47.5192 3.81583 -0.729855 0
M  V30 474 H 49.1912 3.24688 -3.27682 0
M  V30 475 H 47.4342 3.00363 -3.12993 0
M  V30 476 H 48.1052 4.63238 -3.00191 0
M  V30 477 H 50.5812 3.98846 -1.18581 0
M  V30 478 H 49.4572 5.3707 -1.13343 0
M  V30 479 H 49.7182 4.40986 0.313681 0
M  V30 480 N 48.7773 0.814389 1.34928 0
M  V30 481 C 50.0023 0.410097 2.03305 0
M  V30 482 C 50.4273 -0.973464 1.60951 0
M  V30 483 O 49.7853 -1.63185 0.789964 0
M  V30 484 C 49.8333 0.51049 3.56968 0
M  V30 485 O 48.9373 -0.473035 4.09678 0
M  V30 486 H 48.2783 0.170088 0.641846 0
M  V30 487 H 50.8083 1.10244 1.72358 0
M  V30 488 H 50.8183 0.383135 4.06197 0
M  V30 489 H 49.4933 1.51963 3.87144 0
M  V30 490 H 48.0703 -0.305272 3.71648 0
M  V30 491 N 50.2554 -1.46986 0.568584 0
M  V30 492 C 51.5014 -2.02741 0.0488709 0
M  V30 493 C 51.8344 -1.44077 -1.30214 0
M  V30 494 O 51.1094 -0.600552 -1.84996 0
M  V30 495 C 51.3924 -3.60086 -0.032047 0
M  V30 496 C 51.2454 -4.29162 1.34686 0
M  V30 497 C 52.5644 -4.33838 -0.739798 0
M  V30 498 H 49.6834 -0.736749 0.0192338 0
M  V30 499 H 52.3254 -1.75289 0.733065 0
M  V30 500 H 50.4754 -3.83606 -0.61473 0
M  V30 501 H 52.1474 -4.16948 1.97362 0
M  V30 502 H 50.3904 -3.89073 1.91846 0
M  V30 503 H 51.0614 -5.37826 1.24285 0
M  V30 504 H 53.5374 -4.15378 -0.244939 0
M  V30 505 H 52.4134 -5.43537 -0.765406 0
M  V30 506 H 52.6744 -4.03875 -1.79827 0
M  V30 507 N 51.7335 -0.305618 -1.54608 0
M  V30 508 C 52.9815 0.301701 -1.99835 0
M  V30 509 C 53.3025 1.54054 -1.19551 0
M  V30 510 O 52.5725 1.93702 -0.292658 0
M  V30 511 H 51.1525 0.114468 -0.738178 0
M  V30 512 H 53.8145 -0.418016 -1.90364 0
M  V30 513 H 52.9105 0.570548 -3.06841 0
M  V30 514 N 53.2116 1.57565 -0.0334293 0
M  V30 515 C 54.1586 2.10478 0.946981 0
M  V30 516 C 55.1286 1.00787 1.32027 0
M  V30 517 O 56.3136 1.28232 1.41284 0
M  V30 518 C 53.4536 2.63994 2.22263 0
M  V30 519 C 52.5666 3.87709 1.90541 0
M  V30 520 C 51.7016 4.29604 3.12433 0
M  V30 521 C 50.7406 5.46065 2.76549 0
M  V30 522 N 49.8776 5.83096 3.9108 0
M  V30 523 H 54.7176 2.93963 0.488846 0
M  V30 524 H 52.2546 1.45296 0.22969 0
M  V30 525 H 54.2126 2.93114 2.96884 0
M  V30 526 H 52.8426 1.83333 2.65685 0
M  V30 527 H 51.8946 3.65291 1.06144 0
M  V30 528 H 53.2066 4.72403 1.60116 0
M  V30 529 H 52.3606 4.60182 3.9537 0
M  V30 530 H 51.0996 3.43685 3.46023 0
M  V30 531 H 50.1046 5.15176 1.92026 0
M  V30 532 H 51.3296 6.33685 2.44171 0
M  V30 533 H 49.2756 5.00132 4.24504 0
M  V30 534 H 49.1926 6.6244 3.64293 0
M  V30 535 H 50.4606 6.18282 4.74708 0
M  V30 536 N 54.6897 -0.239769 1.55765 0
M  V30 537 C 55.6527 -1.28038 1.90103 0
M  V30 538 C 56.6527 -1.40723 0.778055 0
M  V30 539 O 57.8427 -1.39301 1.04599 0
M  V30 540 C 54.9747 -2.65702 2.13577 0
M  V30 541 H 56.1677 -0.988048 2.83157 0
M  V30 542 H 53.7207 -0.479382 1.48767 0
M  V30 543 H 54.4557 -3.00063 1.23015 0
M  V30 544 H 54.2407 -2.57875 2.95369 0
M  V30 545 H 55.7307 -3.40828 2.41301 0
M  V30 546 N 56.1678 -1.49265 -0.50573 0
M  V30 547 C 57.3958 -1.62215 -1.28429 0
M  V30 548 C 57.8108 -0.291697 -1.86533 0
M  V30 549 O 57.1678 0.722233 -1.67601 0
M  V30 550 C 57.2188 -2.68735 -2.41793 0
M  V30 551 O 56.9398 -3.96619 -1.86078 0
M  V30 552 C 58.4408 -2.92346 -3.3324 0
M  V30 553 H 55.6608 -0.546239 -0.389697 0
M  V30 554 H 58.2048 -1.95265 -0.607609 0
M  V30 555 H 56.3598 -2.38476 -3.053 0
M  V30 556 H 56.7738 -4.55256 -2.60465 0
M  V30 557 H 58.2478 -3.70623 -4.09075 0
M  V30 558 H 58.7248 -2.02081 -3.89948 0
M  V30 559 H 59.3308 -3.24003 -2.75503 0
M  V30 560 N 57.6459 0.756429 -1.3826 0
M  V30 561 C 58.9229 1.50584 -1.24835 0
M  V30 562 C 59.3029 2.10556 0.151485 0
M  V30 563 O 58.6509 1.96825 1.1607 0
M  V30 564 C 58.8609 2.57448 -2.3563 0
M  V30 565 C 60.2089 3.24429 -2.73917 0
M  V30 566 O 61.2329 2.67751 -2.34921 0
M  V30 567 O 60.0919 4.26937 -3.41156 0
M  V30 568 H 57.1859 0.667664 -0.48801 0
M  V30 569 H 59.7319 0.792083 -1.5008 0
M  V30 570 H 58.5039 2.11362 -3.29305 0
M  V30 571 H 58.1269 3.36408 -2.11933 0
M  V30 572 N 59.124 1.23083 0.984299 0
M  V30 573 C 60.373 1.05466 1.71929 0
M  V30 574 C 60.686 -0.409211 1.91272 0
M  V30 575 O 61.892 -0.705226 2.62181 0
M  V30 576 C 60.348 1.83874 3.09384 0
M  V30 577 C 59.956 3.34566 2.97943 0
M  V30 578 C 61.7 1.74734 3.8687 0
M  V30 579 C 59.607 4.05381 4.30605 0
M  V30 580 H 58.537 0.391039 0.644674 0
M  V30 581 H 61.188 1.47013 1.09815 0
M  V30 582 H 59.57 1.35131 3.72231 0
M  V30 583 H 60.744 3.90767 2.44209 0
M  V30 584 H 59.059 3.44476 2.33934 0
M  V30 585 H 61.656 2.24957 4.85076 0
M  V30 586 H 61.999 0.709372 4.10212 0
M  V30 587 H 62.532 2.21067 3.30717 0
M  V30 588 H 59.271 5.09467 4.1246 0
M  V30 589 H 58.791 3.53967 4.84218 0
M  V30 590 H 60.47 4.11458 4.99311 0
M  V30 591 N 60.6021 -1.18246 1.0419 0
M  V30 592 C 61.8321 -1.91916 0.764961 0
M  V30 593 C 62.2401 -1.76485 -0.681898 0
M  V30 594 O 61.5831 -1.09275 -1.47664 0
M  V30 595 C 61.6451 -3.4373 1.05309 0
M  V30 596 C 61.3091 -3.8294 2.4941 0
M  V30 597 C 62.3061 -3.86621 3.47592 0
M  V30 598 C 59.9911 -4.142 2.84155 0
M  V30 599 C 61.9851 -4.21013 4.78568 0
M  V30 600 C 59.6721 -4.48262 4.15337 0
M  V30 601 C 60.6701 -4.51645 5.12353 0
M  V30 602 O 60.3581 -4.84911 6.41183 0
M  V30 603 H 60.0901 -0.61606 0.278292 0
M  V30 604 H 62.6441 -1.50947 1.39299 0
M  V30 605 H 60.8741 -3.84946 0.367933 0
M  V30 606 H 62.5631 -3.9865 0.763752 0
M  V30 607 H 63.3291 -3.62607 3.22089 0
M  V30 608 H 59.2081 -4.10743 2.09311 0
M  V30 609 H 62.7521 -4.23568 5.54289 0
M  V30 610 H 58.6491 -4.71737 4.40607 0
M  V30 611 H 59.4171 -5.02809 6.45852 0
M  V30 612 N 62.0802 -0.821533 -1.34494 0
M  V30 613 C 63.0432 -0.247847 -2.27856 0
M  V30 614 C 64.0432 0.573453 -1.50227 0
M  V30 615 O 65.2332 0.389759 -1.69784 0
M  V30 616 C 62.3652 0.652698 -3.34593 0
M  V30 617 H 63.5582 -1.07146 -2.80107 0
M  V30 618 H 61.1112 -0.593291 -1.44602 0
M  V30 619 H 61.8462 1.49943 -2.87555 0
M  V30 620 H 61.6312 0.065292 -3.92046 0
M  V30 621 H 63.1212 1.04793 -4.04238 0
M  V30 622 N 63.5583 1.46682 -0.576371 0
M  V30 623 C 64.8043 2.02712 -0.0596221 0
M  V30 624 C 65.1373 1.44765 1.29448 0
M  V30 625 O 64.4123 0.610355 1.84675 0
M  V30 626 C 64.6953 3.60098 0.0129503 0
M  V30 627 C 64.5483 4.28441 -1.3696 0
M  V30 628 C 65.8673 4.34224 0.71678 0
M  V30 629 H 62.9863 0.736637 -0.0231407 0
M  V30 630 H 65.6283 1.74898 -0.742351 0
M  V30 631 H 63.7783 3.83926 0.594378 0
M  V30 632 H 65.4503 4.15896 -1.9957 0
M  V30 633 H 63.6933 3.8805 -1.93907 0
M  V30 634 H 64.3643 5.3716 -1.27135 0
M  V30 635 H 66.8403 4.15503 0.222908 0
M  V30 636 H 65.7163 5.43936 0.73657 0
M  V30 637 H 65.9773 4.04823 1.77682 0
M  V30 638 N 65.0364 0.313813 1.54444 0
M  V30 639 C 65.9844 -0.572171 2.25453 0
M  V30 640 C 66.9784 -1.12657 1.2651 0
M  V30 641 O 68.1844 -1.07573 1.44319 0
M  V30 642 H 64.5594 -0.203146 0.724041 0
M  V30 643 H 66.5304 0.0491145 2.9836 0
M  V30 644 C 65.2794 -1.72626 3.0182 0
M  V30 645 H 64.6024 -1.30891 3.77767 0
M  V30 646 H 66.0424 -2.32199 3.54767 0
M  V30 647 C 64.5014 -2.63806 2.09542 0
M  V30 648 O 65.0314 -3.65256 1.67185 0
M  V30 649 N 63.2374 -2.31824 1.75232 0
M  V30 650 H 62.7844 -1.49368 2.09873 0
M  V30 651 H 62.7424 -2.93095 1.13767 0
M  V30 652 N 66.5145 -1.57545 0.0417849 0
M  V30 653 C 67.7625 -1.91937 -0.632829 0
M  V30 654 C 68.0835 -0.919978 -1.71934 0
M  V30 655 O 67.3535 0.0366064 -1.95866 0
M  V30 656 H 65.9335 -0.708493 -0.236742 0
M  V30 657 H 68.5955 -1.9468 0.0925745 0
M  V30 658 H 67.6915 -2.92912 -1.07746 0
M  V30 659 N 67.9926 0.231505 -1.5589 0
M  V30 660 C 69.2206 0.974505 -1.82513 0
M  V30 661 C 69.6356 1.78344 -0.619591 0
M  V30 662 O 68.9926 1.77792 0.411848 0
M  V30 663 C 69.0436 1.90007 -3.07538 0
M  V30 664 O 68.7646 1.12385 -4.2344 0
M  V30 665 C 70.2656 2.75779 -3.47075 0
M  V30 666 H 67.4856 0.286065 -0.606966 0
M  V30 667 H 70.0296 0.249739 -2.02969 0
M  V30 668 H 68.1846 2.57891 -2.89086 0
M  V30 669 H 68.5986 1.75125 -4.944 0
M  V30 670 H 70.0726 3.36443 -4.37619 0
M  V30 671 H 70.5496 3.47672 -2.68367 0
M  V30 672 H 71.1556 2.13323 -3.67931 0
M  V30 673 N 69.4707 1.49531 0.497807 0
M  V30 674 C 70.3807 1.69176 1.62532 0
M  V30 675 C 71.3967 0.5744 1.64246 0
M  V30 676 O 72.5727 0.849497 1.82608 0
M  V30 677 C 69.6377 1.75695 2.98885 0
M  V30 678 C 68.6987 2.9929 3.07773 0
M  V30 679 C 67.9317 3.05488 4.37622 0
M  V30 680 O 68.1547 2.19192 5.26603 0
M  V30 681 O 67.0887 3.9798 4.51548 0
M  V30 682 H 70.9147 2.647 1.48887 0
M  V30 683 H 68.4997 1.3331 0.674441 0
M  V30 684 H 70.3817 1.82317 3.79919 0
M  V30 685 H 69.0567 0.8335 3.12785 0
M  V30 686 H 67.9637 2.98183 2.25915 0
M  V30 687 H 69.2967 3.91125 2.98801 0
M  V30 688 N 70.9488 -0.749086 1.3866 0
M  V30 689 C 72.1978 -1.50371 1.3443 0
M  V30 690 C 72.5108 -1.95503 -0.0616397 0
M  V30 691 O 73.7168 -2.70554 -0.226489 0
M  V30 692 C 72.1728 -2.71644 2.36088 0
M  V30 693 C 71.7808 -2.3352 3.82325 0
M  V30 694 C 73.5248 -3.49518 2.40909 0
M  V30 695 C 71.4318 -3.51431 4.75658 0
M  V30 696 H 70.3618 -0.564628 0.499712 0
M  V30 697 H 73.0128 -0.818449 1.64237 0
M  V30 698 H 71.3948 -3.42175 1.9933 0
M  V30 699 H 72.5688 -1.70627 4.28046 0
M  V30 700 H 70.8838 -1.6877 3.80665 0
M  V30 701 H 73.4808 -4.37197 3.07836 0
M  V30 702 H 73.8238 -3.90992 1.42937 0
M  V30 703 H 74.3568 -2.86005 2.76489 0
M  V30 704 H 71.0958 -3.15019 5.74842 0
M  V30 705 H 70.6158 -4.13352 4.34627 0
M  V30 706 H 72.2948 -4.17953 4.93887 0
M  V30 707 N 72.4269 -1.23603 -0.977757 0
M  V30 708 C 73.3569 -1.04401 -2.0886 0
M  V30 709 C 74.3379 0.0399052 -1.70053 0
M  V30 710 O 75.5229 -0.125246 -1.93796 0
M  V30 711 C 72.6529 -0.637269 -3.41403 0
M  V30 712 C 71.6069 -1.66883 -3.94124 0
M  V30 713 C 70.9329 -1.11745 -5.22893 0
M  V30 714 C 72.2329 -3.06247 -4.23096 0
M  V30 715 H 73.9269 -1.97316 -2.25182 0
M  V30 716 H 71.4729 -0.950096 -1.08209 0
M  V30 717 H 73.4259 -0.48998 -4.18542 0
M  V30 718 H 72.1499 0.327557 -3.24953 0
M  V30 719 H 70.8089 -1.80416 -3.19133 0
M  V30 720 H 70.4569 -0.143527 -5.02795 0
M  V30 721 H 70.1569 -1.80672 -5.59134 0
M  V30 722 H 71.6809 -0.982067 -6.02651 0
M  V30 723 H 73.0949 -2.96001 -4.90975 0
M  V30 724 H 71.4919 -3.72436 -4.70544 0
M  V30 725 H 72.5619 -3.55041 -3.30263 0
M  V30 726 N 73.905 1.17692 -1.04816 0
M  V30 727 C 74.835 2.23777 -0.666791 0
M  V30 728 C 75.816 1.66796 0.33361 0
M  V30 729 O 77.001 1.93039 0.212042 0
M  V30 730 C 74.131 3.47281 -0.0367933 0
M  V30 731 C 73.085 4.17059 -0.961546 0
M  V30 732 C 72.411 5.34342 -0.195626 0
M  V30 733 C 73.711 4.69713 -2.28402 0
M  V30 734 H 75.405 2.55933 -1.55367 0
M  V30 735 H 72.951 1.23019 -0.748484 0
M  V30 736 H 74.904 4.20706 0.241775 0
M  V30 737 H 73.628 3.14381 0.885004 0
M  V30 738 H 72.287 3.45541 -1.22462 0
M  V30 739 H 71.935 4.97692 0.728816 0
M  V30 740 H 71.635 5.81966 -0.811775 0
M  V30 741 H 73.159 6.10553 0.0757473 0
M  V30 742 H 74.573 5.34794 -2.06563 0
M  V30 743 H 72.97 5.279 -2.8538 0
M  V30 744 H 74.04 3.86726 -2.92525 0
M  V30 745 N 75.3831 0.828654 1.34056 0
M  V30 746 C 76.7941 0.477534 1.8049 0
M  V30 747 C 77.1451 -1.00258 1.6865 0
M  V30 748 O 76.2701 -1.78057 1.22982 0
M  V30 749 C 76.8651 0.860018 3.27703 0
M  V30 750 C 75.4241 0.561185 3.72193 0
M  V30 751 C 74.5711 1.07385 2.55663 0
M  V30 752 H 77.5221 1.0183 1.21722 0
M  V30 753 H 77.5431 0.166038 3.80138 0
M  V30 754 H 77.0551 1.93731 3.36288 0
M  V30 755 H 75.1561 -0.506465 3.69142 0
M  V30 756 H 75.2691 1.10926 4.66082 0
M  V30 757 H 73.6331 0.495149 2.49841 0
M  V30 758 H 74.4161 2.15771 2.67016 0
M  V30 759 N 76.8612 -1.46375 0.584142 0
M  V30 760 C 78.1012 -2.0427 0.0729695 0
M  V30 761 C 78.4652 -1.44563 -1.26355 0
M  V30 762 O 79.6662 -1.93667 -1.86405 0
M  V30 763 C 77.9372 -3.57399 0.00967464 0
M  V30 764 S 79.4962 -4.36551 -0.443714 0
M  V30 765 H 76.3142 -0.709975 0.0381673 0
M  V30 766 H 78.9162 -1.79398 0.776962 0
M  V30 767 H 77.6202 -3.98372 0.986319 0
M  V30 768 H 77.1512 -3.8681 -0.717044 0
M  V30 769 H 79.1662 -4.66237 -1.69816 0
M  V30 770 N 78.3393 -0.321999 -1.54275 0
M  V30 771 C 79.5673 0.283052 -2.04955 0
M  V30 772 C 79.9823 1.45904 -1.19823 0
M  V30 773 O 79.3393 1.81063 -0.228545 0
M  V30 774 C 79.3903 0.719028 -3.54277 0
M  V30 775 O 79.1113 -0.410175 -4.36176 0
M  V30 776 C 80.6123 1.38705 -4.21041 0
M  V30 777 H 77.8323 0.0584616 -0.668448 0
M  V30 778 H 80.3763 -0.467734 -1.99079 0
M  V30 779 H 78.5313 1.41979 -3.60445 0
M  V30 780 H 78.9453 -0.0669416 -5.24457 0
M  V30 781 H 80.4193 1.64306 -5.2698 0
M  V30 782 H 80.8963 2.33385 -3.72059 0
M  V30 783 H 81.5023 0.728906 -4.19007 0
M  V30 784 N 79.8174 1.5752 -0.0501392 0
M  V30 785 C 81.0644 1.9265 0.623874 0
M  V30 786 C 81.3924 0.928411 1.70912 0
M  V30 787 O 80.6474 -0.0594525 1.9561 0
M  V30 788 C 80.9464 3.34467 1.25963 0
M  V30 789 C 80.6124 4.49883 0.302689 0
M  V30 790 C 79.2744 4.81184 0.0393636 0
M  V30 791 C 81.6264 5.20002 -0.353205 0
M  V30 792 C 78.9544 5.79951 -0.887308 0
M  V30 793 C 81.3064 6.1976 -1.26806 0
M  V30 794 C 79.9704 6.49491 -1.54007 0
M  V30 795 H 79.2404 0.704957 0.228292 0
M  V30 796 H 81.8874 1.91146 -0.116398 0
M  V30 797 H 80.1924 3.32333 2.07514 0
M  V30 798 H 81.8894 3.58928 1.78806 0
M  V30 799 H 78.4794 4.25457 0.518109 0
M  V30 800 H 82.6634 4.96033 -0.162854 0
M  V30 801 H 77.9194 6.01322 -1.10553 0
M  V30 802 H 82.0934 6.73205 -1.78236 0
M  V30 803 H 79.7204 7.25837 -2.25976 0
M  V30 804 N 81.2955 -0.223234 1.56011 0
M  V30 805 C 82.5205 -0.968978 1.83373 0
M  V30 806 C 82.9455 -1.77227 0.630254 0
M  V30 807 O 82.3035 -1.76345 -0.420959 0
M  V30 808 C 82.3515 -1.86363 3.08709 0
M  V30 809 O 81.4555 -2.95873 2.87285 0
M  V30 810 H 80.7965 -0.274461 0.604622 0
M  V30 811 H 83.3265 -0.237056 2.03222 0
M  V30 812 H 83.3365 -2.27376 3.38768 0
M  V30 813 H 82.0115 -1.27319 3.95933 0
M  V30 814 H 80.5885 -2.58818 2.68454 0
M  V30 815 N 82.7736 -1.49793 -0.48987 0
M  V30 816 C 83.9986 -1.63836 -1.27172 0
M  V30 817 C 84.4236 -0.31402 -1.8546 0
M  V30 818 O 83.7816 0.719803 -1.66399 0
M  V30 819 C 83.8296 -2.71797 -2.36978 0
M  V30 820 O 82.9336 -2.31744 -3.41128 0
M  V30 821 H 82.2746 -0.547997 -0.37496 0
M  V30 822 H 84.8046 -1.96053 -0.585191 0
M  V30 823 H 84.8146 -2.94305 -2.82575 0
M  V30 824 H 83.4896 -3.67923 -1.93921 0
M  V30 825 H 82.0666 -2.1961 -3.01373 0
M  V30 826 N 84.2517 0.741722 -1.39055 0
M  V30 827 C 85.4917 1.51385 -1.37338 0
M  V30 828 C 85.8557 1.91972 0.0330513 0
M  V30 829 O 87.0567 2.68229 0.175174 0
M  V30 830 C 85.3277 2.72481 -2.31276 0
M  V30 831 S 86.8867 3.62211 -2.47687 0
M  V30 832 H 83.7047 0.517906 -0.487129 0
M  V30 833 H 86.3067 0.86969 -1.7509 0
M  V30 834 H 85.0107 2.40793 -3.32336 0
M  V30 835 H 84.5417 3.41832 -1.94716 0
M  V30 836 H 86.5567 4.65812 -1.70978 0
M  V30 837 N 85.7298 1.2412 0.971189 0
M  V30 838 C 86.9768 1.07881 1.71371 0
M  V30 839 C 87.3048 -0.382901 1.90694 0
M  V30 840 O 86.5598 -1.29945 1.46331 0
M  V30 841 C 86.8588 1.75983 3.11071 0
M  V30 842 C 86.5248 3.25909 3.11599 0
M  V30 843 C 85.1868 3.66813 3.11451 0
M  V30 844 C 87.5388 4.21771 3.062 0
M  V30 845 C 84.8668 5.02021 3.03631 0
M  V30 846 C 87.2188 5.56982 2.99923 0
M  V30 847 C 85.8828 5.97237 2.98102 0
M  V30 848 H 85.1528 0.394764 0.62709 0
M  V30 849 H 87.7998 1.54176 1.13587 0
M  V30 850 H 86.1048 1.22072 3.72298 0
M  V30 851 H 87.8018 1.60887 3.6731 0
M  V30 852 H 84.3918 2.93353 3.12477 0
M  V30 853 H 88.5758 3.91172 3.05447 0
M  V30 854 H 83.8318 5.32411 3.0058 0
M  V30 855 H 88.0058 6.30969 2.94704 0
M  V30 856 H 85.6328 7.01967 2.91798 0
M  V30 857 N 87.2079 -1.17134 1.05439 0
M  V30 858 C 88.4559 -1.87085 0.764429 0
M  V30 859 C 88.7769 -1.81584 -0.710787 0
M  V30 860 O 88.0469 -1.24349 -1.51374 0
M  V30 861 H 86.6269 -0.692627 0.279779 0
M  V30 862 H 89.2889 -1.42087 1.33406 0
M  V30 863 H 88.3849 -2.92759 1.0816 0
M  V30 864 N 88.686 -0.835752 -1.33615 0
M  V30 865 C 89.933 -0.429959 -1.97883 0
M  V30 866 C 90.261 1.01006 -1.66217 0
M  V30 867 O 89.516 1.72047 -0.93265 0
M  V30 868 C 89.815 -0.593925 -3.52431 0
M  V30 869 C 89.481 -2.00158 -4.04039 0
M  V30 870 C 88.143 -2.38662 -4.17844 0
M  V30 871 C 90.495 -2.92117 -4.31644 0
M  V30 872 C 87.823 -3.68435 -4.56588 0
M  V30 873 C 90.175 -4.21368 -4.71838 0
M  V30 874 C 88.839 -4.59833 -4.83849 0
M  V30 875 H 88.109 -0.157333 -0.724104 0
M  V30 876 H 90.756 -1.06217 -1.59343 0
M  V30 877 H 89.061 0.121619 -3.91611 0
M  V30 878 H 90.758 -0.260282 -4.00154 0
M  V30 879 H 87.348 -1.69252 -3.93766 0
M  V30 880 H 91.532 -2.63608 -4.20505 0
M  V30 881 H 86.788 -3.98046 -4.64079 0
M  V30 882 H 90.962 -4.92703 -4.92155 0
M  V30 883 H 88.589 -5.60438 -5.13627 0
M  V30 884 N 90.1641 1.46063 -0.591896 0
M  V30 885 C 91.0741 2.34192 0.13831 0
M  V30 886 C 92.0901 1.50305 0.876608 0
M  V30 887 O 93.2661 1.8315 0.837728 0
M  V30 888 C 90.3311 3.27656 1.13326 0
M  V30 889 C 89.3921 4.27445 0.39863 0
M  V30 890 C 88.6251 5.16443 1.34618 0
M  V30 891 O 88.8481 5.08553 2.58321 0
M  V30 892 O 87.7821 5.95843 0.851768 0
M  V30 893 H 91.6081 2.98002 -0.58552 0
M  V30 894 H 89.1931 1.45188 -0.352239 0
M  V30 895 H 91.0751 3.85291 1.70671 0
M  V30 896 H 89.7501 2.6643 1.83839 0
M  V30 897 H 88.6571 3.73471 -0.216895 0
M  V30 898 H 89.9901 4.91482 -0.265709 0
M  V30 899 N 91.6422 0.330177 1.54103 0
M  V30 900 C 92.9192 -0.325007 1.92881 0
M  V30 901 C 93.2992 -1.6934 1.26045 0
M  V30 902 O 92.6472 -2.24855 0.406526 0
M  V30 903 C 92.8572 -0.410634 3.46576 0
M  V30 904 C 94.2052 -0.667801 4.19316 0
M  V30 905 O 95.2292 -0.49329 3.52768 0
M  V30 906 O 94.0882 -1.00491 5.37181 0
M  V30 907 H 91.1822 -0.186873 0.80561 0
M  V30 908 H 93.7282 0.380376 1.65382 0
M  V30 909 H 92.5002 0.550164 3.87413 0
M  V30 910 H 92.1232 -1.16333 3.802 0
M  V30 911 N 93.1203 -1.57491 0.0584922 0
M  V30 912 C 94.0503 -2.14988 -0.911178 0
M  V30 913 C 95.0313 -1.07343 -1.31952 0
M  V30 914 O 96.2163 -1.35318 -1.39294 0
M  V30 915 C 93.3463 -2.70078 -2.18347 0
M  V30 916 C 92.3003 -3.82771 -1.91495 0
M  V30 917 C 91.6263 -4.24408 -3.25241 0
M  V30 918 C 92.9263 -5.07592 -1.23075 0
M  V30 919 H 94.6203 -2.96263 -0.432246 0
M  V30 920 H 92.1663 -1.42512 -0.206469 0
M  V30 921 H 94.1193 -3.08943 -2.86587 0
M  V30 922 H 92.8433 -1.86005 -2.68458 0
M  V30 923 H 91.5023 -3.44389 -1.25664 0
M  V30 924 H 91.1503 -3.37275 -3.73168 0
M  V30 925 H 90.8503 -5.00366 -3.08071 0
M  V30 926 H 92.3743 -4.65879 -3.94701 0
M  V30 927 H 93.7883 -5.43857 -1.81362 0
M  V30 928 H 92.1853 -5.88741 -1.16207 0
M  V30 929 H 93.2553 -4.84454 -0.207847 0
M  V30 930 N 94.5984 0.214957 -1.56127 0
M  V30 931 C 95.5484 1.27006 -1.8935 0
M  V30 932 C 96.5324 1.41969 -0.757202 0
M  V30 933 O 97.7244 1.44673 -1.01973 0
M  V30 934 C 94.8534 2.61911 -2.2194 0
M  V30 935 C 93.9394 2.50822 -3.41978 0
M  V30 936 N 94.3304 2.09391 -4.60423 0
M  V30 937 C 92.6284 2.81765 -3.45723 0
M  V30 938 C 93.3294 2.09712 -5.42582 0
M  V30 939 N 92.3054 2.50454 -4.82466 0
M  V30 940 H 96.1074 0.940734 -2.78437 0
M  V30 941 H 93.6214 0.423492 -1.56781 0
M  V30 942 H 95.6184 3.38096 -2.43919 0
M  V30 943 H 94.2784 2.95684 -1.34169 0
M  V30 944 H 95.2894 1.80416 -4.85459 0
M  V30 945 H 91.9664 3.19865 -2.68314 0
M  V30 946 H 93.3564 1.79748 -6.4741 0
M  V30 947 N 96.0765 1.50051 0.48192 0
M  V30 948 C 97.3235 1.60498 1.23477 0
M  V30 949 C 97.6515 0.300331 1.92167 0
M  V30 950 O 96.9065 -0.713094 1.82246 0
M  V30 951 C 97.2055 2.72717 2.30998 0
M  V30 952 C 96.8715 4.13572 1.79636 0
M  V30 953 C 95.5335 4.519 1.65348 0
M  V30 954 C 97.8855 5.01649 1.41412 0
M  V30 955 C 95.2135 5.76057 1.11244 0
M  V30 956 C 97.5655 6.26343 0.887538 0
M  V30 957 C 96.2295 6.63483 0.731207 0
M  V30 958 H 95.4995 0.587303 0.451836 0
M  V30 959 H 98.1465 1.83948 0.532468 0
M  V30 960 H 96.4515 2.43312 3.07094 0
M  V30 961 H 98.1485 2.78006 2.88988 0
M  V30 962 H 94.7385 3.83329 1.91721 0
M  V30 963 H 98.9225 4.72679 1.51289 0
M  V30 964 H 94.1785 6.03516 0.978686 0
M  V30 965 H 98.3525 6.93958 0.582654 0
M  V30 966 H 95.9795 7.59568 0.309806 0
M  V30 967 N 97.5546 -0.734337 1.39446 0
M  V30 968 C 98.9706 -1.03997 1.21065 0
M  V30 969 C 99.1706 -2.01369 0.0727019 0
M  V30 970 O 98.2266 -2.45856 -0.575426 0
M  V30 971 C 99.5396 -1.60163 2.54496 0
M  V30 972 C 101.088 -1.7224 2.61347 0
M  V30 973 C 101.563 -2.31814 3.95002 0
M  V30 974 N 103.054 -2.39223 3.96644 0
M  V30 975 C 103.789 -2.86258 4.96834 0
M  V30 976 N 103.285 -3.33184 6.07421 0
M  V30 977 N 105.078 -2.85473 4.84213 0
M  V30 978 H 97.2286 -0.0885624 2.12215 0
M  V30 979 H 99.4916 -0.10191 0.942506 0
M  V30 980 H 99.1976 -0.960811 3.38321 0
M  V30 981 H 99.0716 -2.5896 2.74262 0
M  V30 982 H 101.459 -2.35443 1.77906 0
M  V30 983 H 101.54 -0.720939 2.4543 0
M  V30 984 H 101.184 -1.69238 4.78875 0
M  V30 985 H 101.114 -3.32638 4.08239 0
M  V30 986 H 103.605 -2.06057 3.16779 0
M  V30 987 H 103.918 -3.67586 6.7978 0
M  V30 988 H 102.263 -3.31191 6.11013 0
M  V30 989 H 105.454 -2.48136 3.96921 0
M  V30 990 H 105.627 -3.21814 5.62441 0
M  V30 991 N 99.0327 -1.24633 -0.964593 0
M  V30 992 C 100.279 -1.09957 -1.71117 0
M  V30 993 C 100.634 0.357422 -1.89051 0
M  V30 994 O 99.9267 1.26029 -1.44317 0
M  V30 995 C 100.121 -1.7763 -3.10133 0
M  V30 996 C 99.9497 -3.29759 -3.05759 0
M  V30 997 C 98.7197 -3.98981 -3.10068 0
M  V30 998 C 100.918 -4.26305 -2.87695 0
M  V30 999 N 98.8997 -5.37966 -2.95747 0
M  V30 1000 C 100.271 -5.52308 -2.81702 0
M  V30 1001 C 102.326 -4.16842 -2.72299 0
M  V30 1002 C 101.029 -6.69931 -2.61887 0
M  V30 1003 C 103.055 -5.34147 -2.53853 0
M  V30 1004 C 102.417 -6.59084 -2.48572 0
M  V30 1005 H 98.5157 -0.457003 -0.634564 0
M  V30 1006 H 101.1 -1.57592 -1.14337 0
M  V30 1007 H 99.2707 -1.32504 -3.65099 0
M  V30 1008 H 101.003 -1.55786 -3.73514 0
M  V30 1009 H 97.7577 -3.50169 -3.18871 0
M  V30 1010 H 98.1817 -6.10877 -2.91818 0
M  V30 1011 H 102.824 -3.21007 -2.75163 0
M  V30 1012 H 100.542 -7.65886 -2.57767 0
M  V30 1013 H 104.128 -5.28678 -2.4288 0
M  V30 1014 H 103.008 -7.48324 -2.34481 0
M  V30 1015 N 100.511 1.16574 -1.06058 0
M  V30 1016 C 101.739 1.90952 -0.796552 0
M  V30 1017 C 102.154 1.77302 0.648808 0
M  V30 1018 O 101.511 1.11605 1.44397 0
M  V30 1019 C 101.562 3.41736 -1.17894 0
M  V30 1020 O 101.283 3.54975 -2.56758 0
M  V30 1021 C 102.784 4.33169 -0.942308 0
M  V30 1022 H 100.004 0.605594 -0.288959 0
M  V30 1023 H 102.548 1.47777 -1.41358 0
M  V30 1024 H 100.703 3.82623 -0.606491 0
M  V30 1025 H 101.117 4.4846 -2.72 0
M  V30 1026 H 102.591 5.37439 -1.25952 0
M  V30 1027 H 103.068 4.3903 0.122078 0
M  V30 1028 H 103.674 3.98007 -1.49902 0
M  V30 1029 N 101.989 0.842826 1.3317 0
M  V30 1030 C 103.219 0.453397 2.01564 0
M  V30 1031 C 103.627 -0.951147 1.63554 0
M  V30 1032 O 102.97 -1.63021 0.846746 0
M  V30 1033 C 103.032 0.499013 3.5602 0
M  V30 1034 C 102.696 1.86037 4.1742 0
M  V30 1035 C 103.693 2.82416 4.36506 0
M  V30 1036 C 101.378 2.15428 4.53757 0
M  V30 1037 C 103.372 4.06346 4.91082 0
M  V30 1038 C 101.059 3.39615 5.0804 0
M  V30 1039 C 102.057 4.3489 5.26649 0
M  V30 1040 O 101.745 5.5688 5.79776 0
M  V30 1041 H 101.477 0.177871 0.652179 0
M  V30 1042 H 104.031 1.13808 1.70988 0
M  V30 1043 H 102.261 -0.242467 3.85939 0
M  V30 1044 H 103.95 0.126852 4.05702 0
M  V30 1045 H 104.716 2.6101 4.08777 0
M  V30 1046 H 100.595 1.42061 4.38565 0
M  V30 1047 H 104.139 4.80722 5.05522 0
M  V30 1048 H 100.036 3.60876 5.352 0
M  V30 1049 H 100.804 5.58674 5.98185 0
M  V30 1050 N 103.467 -1.45747 0.599634 0
M  V30 1051 C 104.415 -2.322 -0.136426 0
M  V30 1052 C 105.409 -1.45497 -0.867583 0
M  V30 1053 O 106.615 -1.62027 -0.78405 0
M  V30 1054 H 102.99 -0.749368 -0.0628588 0
M  V30 1055 H 104.961 -2.92072 0.611281 0
M  V30 1056 C 103.71 -3.28974 -1.12567 0
M  V30 1057 H 103.033 -3.9568 -0.572484 0
M  V30 1058 H 104.473 -3.92212 -1.61077 0
M  V30 1059 C 102.932 -2.55561 -2.19523 0
M  V30 1060 O 103.462 -2.33111 -3.27143 0
M  V30 1061 N 101.668 -2.15832 -1.94589 0
M  V30 1062 H 101.215 -2.3429 -1.07078 0
M  V30 1063 H 101.173 -1.67034 -2.66359 0
M  V30 1064 N 104.945 -0.338344 -1.53925 0
M  V30 1065 C 106.17 0.263987 -2.05713 0
M  V30 1066 C 106.595 1.43847 -1.21201 0
M  V30 1067 O 105.953 1.79904 -0.224535 0
M  V30 1068 C 106.001 0.662 -3.54471 0
M  V30 1069 O 105.105 1.76265 -3.72833 0
M  V30 1070 H 104.446 0.0448722 -0.662482 0
M  V30 1071 H 106.976 -0.491048 -1.9862 0
M  V30 1072 H 106.986 0.940594 -3.9701 0
M  V30 1073 H 105.661 -0.196937 -4.15433 0
M  V30 1074 H 104.238 1.48173 -3.42198 0
M  V30 1075 N 106.423 1.57458 -0.0668435 0
M  V30 1076 C 107.648 1.9804 0.616027 0
M  V30 1077 C 108.073 0.944771 1.62652 0
M  V30 1078 O 107.431 -0.0902094 1.81075 0
M  V30 1079 C 107.479 3.37665 1.26549 0
M  V30 1080 O 106.583 3.36701 2.38131 0
M  V30 1081 H 105.924 0.644719 0.158849 0
M  V30 1082 H 108.454 2.04121 -0.139891 0
M  V30 1083 H 108.464 3.7474 1.6135 0
M  V30 1084 H 107.139 4.12573 0.525016 0
M  V30 1085 H 105.716 3.1139 2.0516 0
M  V30 1086 N 107.901 -0.206675 1.56239 0
M  V30 1087 C 109.178 -0.954051 1.70755 0
M  V30 1088 C 109.558 -2.01841 0.618353 0
M  V30 1089 O 108.906 -2.25444 -0.372434 0
M  V30 1090 C 109.116 -1.551 3.12642 0
M  V30 1091 C 110.464 -2.03757 3.72516 0
M  V30 1092 O 111.488 -1.64965 3.15698 0
M  V30 1093 O 110.347 -2.75103 4.72208 0
M  V30 1094 H 107.441 -0.446636 0.696021 0
M  V30 1095 H 109.987 -0.197283 1.68549 0
M  V30 1096 H 108.759 -0.783212 3.83382 0
M  V30 1097 H 108.382 -2.37291 3.19028 0
M  V30 1098 N 109.379 -1.50304 -0.473955 0
M  V30 1099 C 110.342 -1.6841 -1.55469 0
M  V30 1100 C 111.342 -0.554905 -1.50922 0
M  V30 1101 O 112.532 -0.821882 -1.53593 0
M  V30 1102 C 109.664 -1.70667 -2.95102 0
M  V30 1103 H 110.857 -2.64828 -1.40733 0
M  V30 1104 H 108.41 -1.39742 -0.700132 0
M  V30 1105 H 109.145 -0.75932 -3.15285 0
M  V30 1106 H 108.93 -2.52698 -2.9981 0
M  V30 1107 H 110.42 -1.8664 -3.73571 0
M  V30 1108 N 110.857 0.726932 -1.39834 0
M  V30 1109 C 112.104 1.48664 -1.37496 0
M  V30 1110 C 112.432 1.94482 0.0264678 0
M  V30 1111 O 111.687 1.67692 1.00886 0
M  V30 1112 C 111.986 2.73495 -2.30077 0
M  V30 1113 C 111.652 2.46502 -3.77555 0
M  V30 1114 C 110.314 2.3885 -4.17737 0
M  V30 1115 C 112.666 2.23604 -4.70798 0
M  V30 1116 C 109.994 2.06352 -5.49214 0
M  V30 1117 C 112.346 1.92622 -6.02561 0
M  V30 1118 C 111.01 1.83444 -6.41798 0
M  V30 1119 H 110.28 0.544001 -0.503135 0
M  V30 1120 H 112.927 0.833657 -1.72402 0
M  V30 1121 H 111.232 3.43575 -1.88317 0
M  V30 1122 H 112.929 3.31549 -2.25558 0
M  V30 1123 H 109.519 2.5334 -3.45712 0
M  V30 1124 H 113.703 2.28479 -4.40581 0
M  V30 1125 H 108.959 1.97776 -5.78528 0
M  V30 1126 H 113.133 1.73914 -6.74334 0
M  V30 1127 H 110.76 1.58029 -7.43593 0
M  V30 1128 N 112.336 1.25143 0.95797 0
M  V30 1129 C 113.283 1.05235 2.05412 0
M  V30 1130 C 114.253 -0.0374561 1.66058 0
M  V30 1131 O 115.438 0.119073 1.90428 0
M  V30 1132 C 112.578 0.673589 3.38462 0
M  V30 1133 C 111.691 1.8379 3.90954 0
M  V30 1134 C 110.826 1.40381 5.12315 0
M  V30 1135 C 109.865 2.53746 5.57027 0
M  V30 1136 N 109.002 2.11136 6.69601 0
M  V30 1137 H 113.842 1.99048 2.21774 0
M  V30 1138 H 111.379 0.991277 1.08683 0
M  V30 1139 H 113.337 0.434964 4.14926 0
M  V30 1140 H 111.967 -0.227554 3.21997 0
M  V30 1141 H 111.019 2.18992 3.11041 0
M  V30 1142 H 112.331 2.68937 4.20089 0
M  V30 1143 H 111.485 1.12464 5.96185 0
M  V30 1144 H 110.224 0.523015 4.84887 0
M  V30 1145 H 109.229 2.82412 4.71724 0
M  V30 1146 H 110.454 3.42398 5.86464 0
M  V30 1147 H 108.4 1.25468 6.4389 0
M  V30 1148 H 108.317 2.89832 6.98236 0
M  V30 1149 H 109.585 1.86385 7.56889 0
M  V30 1150 N 113.814 -1.1601 1.06675 0
M  V30 1151 C 115.063 -1.85973 0.780818 0
M  V30 1152 C 115.376 -1.82819 -0.695444 0
M  V30 1153 O 116.582 -2.484 -1.09589 0
M  V30 1154 C 115.038 -3.33757 1.34665 0
M  V30 1155 C 114.646 -3.45374 2.85343 0
M  V30 1156 C 116.39 -4.0895 1.13843 0
M  V30 1157 C 114.297 -4.87266 3.35151 0
M  V30 1158 H 113.227 -0.696661 0.288407 0
M  V30 1159 H 115.878 -1.30903 1.28595 0
M  V30 1160 H 114.26 -3.88456 0.769274 0
M  V30 1161 H 115.434 -3.00816 3.49065 0
M  V30 1162 H 113.749 -2.83619 3.04876 0
M  V30 1163 H 116.346 -5.13654 1.4854 0
M  V30 1164 H 116.689 -4.16229 0.0770282 0
M  V30 1165 H 117.222 -3.605 1.68179 0
M  V30 1166 H 113.961 -4.85168 4.40786 0
M  V30 1167 H 113.481 -5.32433 2.76179 0
M  V30 1168 H 115.16 -5.56097 3.30704 0
M  V30 1169 N 115.292 -0.849877 -1.32721 0
M  V30 1170 C 116.222 -0.306308 -2.31482 0
M  V30 1171 C 117.203 0.591952 -1.59468 0
M  V30 1172 O 118.388 0.513199 -1.87296 0
M  V30 1173 C 115.518 0.510204 -3.43532 0
M  V30 1174 C 114.472 -0.293209 -4.26994 0
M  V30 1175 C 113.798 0.647743 -5.30762 0
M  V30 1176 C 115.098 -1.51634 -4.99804 0
M  V30 1177 H 116.792 -1.13153 -2.77195 0
M  V30 1178 H 114.338 -0.545553 -1.33266 0
M  V30 1179 H 116.291 0.900856 -4.11658 0
M  V30 1180 H 115.015 1.36874 -2.96535 0
M  V30 1181 H 113.674 -0.665555 -3.60508 0
M  V30 1182 H 113.322 1.50299 -4.8002 0
M  V30 1183 H 113.022 0.11422 -5.87489 0
M  V30 1184 H 114.546 1.03567 -6.01753 0
M  V30 1185 H 115.96 -1.19824 -5.60638 0
M  V30 1186 H 114.357 -1.98745 -5.66234 0
M  V30 1187 H 115.427 -2.28018 -4.27943 0
M  V30 1188 N 116.77 1.45427 -0.607355 0
M  V30 1189 C 118.019 2.01452 -0.100036 0
M  V30 1190 C 118.332 1.48159 1.27704 0
M  V30 1191 O 119.538 1.96159 1.87707 0
M  V30 1192 C 117.994 3.59672 -0.128158 0
M  V30 1193 C 117.602 4.21962 -1.50507 0
M  V30 1194 C 119.346 4.23262 0.323932 0
M  V30 1195 C 117.253 5.72333 -1.48959 0
M  V30 1196 H 116.183 0.75325 -0.0336299 0
M  V30 1197 H 118.834 1.66901 -0.76265 0
M  V30 1198 H 117.216 3.91411 0.601105 0
M  V30 1199 H 118.39 4.01796 -2.25602 0
M  V30 1200 H 116.705 3.70565 -1.89923 0
M  V30 1201 H 119.302 5.33522 0.354691 0
M  V30 1202 H 119.645 3.93921 1.34656 0
M  V30 1203 H 120.178 3.96239 -0.352056 0
M  V30 1204 H 116.917 6.06373 -2.48981 0
M  V30 1205 H 116.437 5.94691 -0.781214 0
M  V30 1206 H 118.116 6.35525 -1.21313 0
M  V30 1207 N 118.248 0.346503 1.53744 0
M  V30 1208 C 119.158 -0.517293 2.28826 0
M  V30 1209 C 120.174 -1.10935 1.3405 0
M  V30 1210 O 121.35 -1.1244 1.6709 0
M  V30 1211 C 118.415 -1.65098 3.04866 0
M  V30 1212 C 117.476 -1.0884 4.15274 0
M  V30 1213 C 116.709 -2.16806 4.87679 0
M  V30 1214 O 116.932 -3.3758 4.59778 0
M  V30 1215 O 115.866 -1.80934 5.74061 0
M  V30 1216 H 119.692 0.0931396 3.03557 0
M  V30 1217 H 117.277 0.111458 1.48984 0
M  V30 1218 H 119.159 -2.31053 3.5241 0
M  V30 1219 H 117.834 -2.24717 2.32989 0
M  V30 1220 H 116.741 -0.3933 3.72027 0
M  V30 1221 H 118.074 -0.537036 4.89261 0
M  V30 1222 N 119.726 -1.57421 0.075193 0
M  V30 1223 C 120.974 -1.93236 -0.591974 0
M  V30 1224 C 121.295 -0.956241 -1.69944 0
M  V30 1225 O 120.565 -0.00494792 -1.95899 0
M  V30 1226 H 119.145 -0.713355 -0.22166 0
M  V30 1227 H 121.807 -1.9444 0.133848 0
M  V30 1228 H 120.903 -2.95131 -1.01509 0
M  V30 1229 N 121.204 0.198386 -1.56346 0
M  V30 1230 C 122.432 0.935572 -1.84539 0
M  V30 1231 C 122.847 1.76989 -0.657281 0
M  V30 1232 O 122.204 1.78626 0.374043 0
M  V30 1233 C 122.255 1.8344 -3.11499 0
M  V30 1234 O 121.976 1.03377 -4.25728 0
M  V30 1235 C 123.477 2.68355 -3.52846 0
M  V30 1236 H 120.697 0.273126 -0.612897 0
M  V30 1237 H 123.241 0.20663 -2.03453 0
M  V30 1238 H 121.396 2.51701 -2.94492 0
M  V30 1239 H 121.81 1.64599 -4.98003 0
M  V30 1240 H 123.284 3.27085 -4.44657 0
M  V30 1241 H 123.761 3.41901 -2.75681 0
M  V30 1242 H 124.367 2.05471 -3.72373 0
M  V30 1243 N 122.682 1.50554 0.465978 0
M  V30 1244 C 123.928 1.62038 1.21949 0
M  V30 1245 C 124.261 0.322116 1.9151 0
M  V30 1246 O 123.536 -0.676723 1.82348 0
M  V30 1247 C 123.819 2.80421 2.25912 0
M  V30 1248 C 123.672 4.20144 1.60622 0
M  V30 1249 C 124.991 2.94354 3.27176 0
M  V30 1250 H 122.11 0.589752 0.441998 0
M  V30 1251 H 124.752 1.82956 0.51257 0
M  V30 1252 H 122.902 2.62717 2.86203 0
M  V30 1253 H 124.574 4.49449 1.03889 0
M  V30 1254 H 122.817 4.24165 0.909211 0
M  V30 1255 H 123.488 4.98914 2.36196 0
M  V30 1256 H 125.964 3.10578 2.76913 0
M  V30 1257 H 124.84 3.788 3.97242 0
M  V30 1258 H 125.101 2.05186 3.916 0
M  V30 1259 N 124.16 -0.719506 1.40217 0
M  V30 1260 C 125.107 -1.83359 1.40172 0
M  V30 1261 C 126.077 -1.64065 0.259206 0
M  V30 1262 O 127.262 -1.85254 0.456677 0
M  V30 1263 C 124.402 -3.2103 1.26624 0
M  V30 1264 C 123.515 -3.51923 2.50548 0
M  V30 1265 C 122.65 -4.79079 2.29471 0
M  V30 1266 C 121.689 -5.02863 3.48992 0
M  V30 1267 N 120.826 -6.2123 3.27135 0
M  V30 1268 H 125.666 -1.82733 2.35399 0
M  V30 1269 H 123.203 -0.892688 1.16917 0
M  V30 1270 H 125.161 -4.00524 1.16776 0
M  V30 1271 H 123.791 -3.20895 0.350176 0
M  V30 1272 H 122.843 -2.67014 2.70939 0
M  V30 1273 H 124.155 -3.6541 3.39525 0
M  V30 1274 H 123.309 -5.66582 2.16955 0
M  V30 1275 H 122.048 -4.67794 1.37913 0
M  V30 1276 H 121.053 -4.13816 3.6199 0
M  V30 1277 H 122.278 -5.16023 4.41472 0
M  V30 1278 H 120.224 -6.11204 2.38256 0
M  V30 1279 H 120.141 -6.35375 4.09675 0
M  V30 1280 H 121.409 -7.11532 3.18344 0
M  V30 1281 N 125.638 -1.25649 -0.95132 0
M  V30 1282 C 126.586 -1.06118 -2.06982 0
M  V30 1283 C 127.58 0.00889169 -1.69398 0
M  V30 1284 O 128.786 -0.146988 -1.79399 0
M  V30 1285 H 125.161 -0.326248 -0.677544 0
M  V30 1286 H 127.132 -2.00932 -2.2061 0
M  V30 1287 C 125.881 -0.700145 -3.40578 0
M  V30 1288 H 125.204 -1.51537 -3.69968 0
M  V30 1289 H 126.644 -0.603211 -4.19687 0
M  V30 1290 C 125.103 0.59403 -3.31622 0
M  V30 1291 O 125.633 1.63522 -3.66911 0
M  V30 1292 N 123.839 0.58089 -2.84735 0
M  V30 1293 H 123.386 -0.266783 -2.56215 0
M  V30 1294 H 123.344 1.44695 -2.79125 0
M  V30 1295 N 127.117 1.15442 -1.07289 0
M  V30 1296 C 128.027 2.23786 -0.704057 0
M  V30 1297 C 129.043 1.7166 0.284413 0
M  V30 1298 O 130.219 2.00972 0.131205 0
M  V30 1299 C 127.284 3.46535 -0.106792 0
M  V30 1300 C 126.345 4.13654 -1.14842 0
M  V30 1301 C 125.578 5.30544 -0.57956 0
M  V30 1302 O 125.801 5.67187 0.604585 0
M  V30 1303 O 124.735 5.87154 -1.32414 0
M  V30 1304 H 128.561 2.57664 -1.60757 0
M  V30 1305 H 126.146 1.23152 -0.845803 0
M  V30 1306 H 128.028 4.20804 0.224048 0
M  V30 1307 H 126.703 3.14407 0.770049 0
M  V30 1308 H 125.61 3.4131 -1.5316 0
M  V30 1309 H 126.943 4.49861 -1.99714 0
M  V30 1310 N 128.595 0.856903 1.32268 0
M  V30 1311 C 129.542 0.301172 2.28827 0
M  V30 1312 C 130.512 -0.593104 1.5515 0
M  V30 1313 O 131.697 -0.527537 1.83362 0
M  V30 1314 C 128.837 -0.502523 3.41422 0
M  V30 1315 C 127.95 0.417797 4.29975 0
M  V30 1316 C 127.085 -0.398749 5.29701 0
M  V30 1317 C 126.124 0.518827 6.09897 0
M  V30 1318 N 125.261 -0.260674 7.01616 0
M  V30 1319 H 130.101 1.12983 2.75751 0
M  V30 1320 H 127.638 0.568582 1.35667 0
M  V30 1321 H 129.596 -0.984141 4.05426 0
M  V30 1322 H 128.226 -1.29599 2.95642 0
M  V30 1323 H 127.278 1.01781 3.66531 0
M  V30 1324 H 128.59 1.12191 4.86019 0
M  V30 1325 H 127.744 -0.943435 5.9932 0
M  V30 1326 H 126.483 -1.13622 4.7428 0
M  V30 1327 H 125.488 1.07538 5.39181 0
M  V30 1328 H 126.713 1.25495 6.67404 0
M  V30 1329 H 124.659 -0.981198 6.4862 0
M  V30 1330 H 124.576 0.384364 7.55022 0
M  V30 1331 H 125.844 -0.787014 7.75517 0
M  V30 1332 N 130.073 -1.45103 0.615059 0
M  V30 1333 C 131.298 -2.07064 0.117988 0
M  V30 1334 C 131.723 -1.4554 -1.19163 0
M  V30 1335 O 131.081 -0.550855 -1.72729 0
M  V30 1336 C 131.129 -3.606 -0.000288387 0
M  V30 1337 O 130.233 -3.98847 -1.04856 0
M  V30 1338 H 129.574 -0.659467 0.0774581 0
M  V30 1339 H 132.104 -1.86236 0.847186 0
M  V30 1340 H 132.114 -4.07529 -0.196091 0
M  V30 1341 H 130.789 -4.04765 0.955932 0
M  V30 1342 H 129.366 -3.63577 -0.828619 0
M  V30 1343 N 131.551 -0.354651 -1.53558 0
M  V30 1344 C 132.828 0.294281 -1.93374 0
M  V30 1345 C 133.208 1.67313 -1.28723 0
M  V30 1346 O 132.556 2.24179 -0.442247 0
M  V30 1347 C 132.766 0.355445 -3.47185 0
M  V30 1348 C 134.114 0.601007 -4.20325 0
M  V30 1349 O 135.138 0.437106 -3.53508 0
M  V30 1350 O 133.997 0.919322 -5.38712 0
M  V30 1351 H 131.091 0.174033 -0.808481 0
M  V30 1352 H 133.637 -0.406638 -1.64756 0
M  V30 1353 H 132.409 -0.611729 -3.86489 0
M  V30 1354 H 132.032 1.1027 -3.82003 0
M  V30 1355 N 133.029 1.57378 -0.0835403 0
M  V30 1356 C 134.44 1.81261 0.447358 0
M  V30 1357 C 134.791 0.998331 1.68902 0
M  V30 1358 O 133.916 0.224282 2.15235 0
M  V30 1359 C 134.511 3.28767 0.818386 0
M  V30 1360 C 133.07 3.53455 1.29409 0
M  V30 1361 C 132.217 2.75831 0.285024 0
M  V30 1362 H 135.168 1.5566 -0.309115 0
M  V30 1363 H 135.189 3.41459 1.67887 0
M  V30 1364 H 134.701 3.88006 -0.0855019 0
M  V30 1365 H 132.802 2.99534 2.21608 0
M  V30 1366 H 132.915 4.62128 1.2639 0
M  V30 1367 H 131.279 2.42947 0.764767 0
M  V30 1368 H 132.062 3.37813 -0.611341 0
M  V30 1369 N 134.507 -0.190092 1.56449 0
M  V30 1370 C 135.454 -1.23557 1.94942 0
M  V30 1371 C 136.424 -1.44972 0.810696 0
M  V30 1372 O 137.609 -1.58023 1.06927 0
M  V30 1373 C 134.749 -2.57416 2.2985 0
M  V30 1374 C 133.862 -2.43537 3.5681 0
M  V30 1375 C 132.997 -3.70134 3.81017 0
M  V30 1376 C 132.036 -3.51109 5.01387 0
M  V30 1377 N 131.173 -4.6973 5.21822 0
M  V30 1378 H 136.013 -0.900304 2.84075 0
M  V30 1379 H 133.55 -0.43318 1.40577 0
M  V30 1380 H 135.508 -3.35409 2.48106 0
M  V30 1381 H 134.138 -2.88975 1.43852 0
M  V30 1382 H 133.19 -1.56816 3.46573 0
M  V30 1383 H 134.502 -2.25415 4.4496 0
M  V30 1384 H 133.656 -4.56566 3.9954 0
M  V30 1385 H 132.395 -3.91215 2.91207 0
M  V30 1386 H 131.4 -2.63063 4.82782 0
M  V30 1387 H 132.625 -3.31468 5.9271 0
M  V30 1388 H 130.571 -4.91065 4.34961 0
M  V30 1389 H 130.488 -4.54452 6.0416 0
M  V30 1390 H 131.756 -5.57499 5.44808 0
M  V30 1391 N 135.985 -1.50799 -0.457987 0
M  V30 1392 C 137.231 -1.62683 -1.21088 0
M  V30 1393 C 137.564 -0.332268 -1.91336 0
M  V30 1394 O 136.839 0.667043 -1.82704 0
M  V30 1395 C 137.122 -2.81615 -2.24422 0
M  V30 1396 C 136.975 -4.20989 -1.58392 0
M  V30 1397 C 138.294 -2.96085 -3.2561 0
M  V30 1398 H 135.413 -0.592087 -0.438864 0
M  V30 1399 H 138.055 -1.83225 -0.50286 0
M  V30 1400 H 136.205 -2.64231 -2.84806 0
M  V30 1401 H 137.877 -4.49994 -1.01504 0
M  V30 1402 H 136.12 -4.24641 -0.886704 0
M  V30 1403 H 136.791 -5.0016 -2.33547 0
M  V30 1404 H 139.267 -3.12042 -2.75262 0
M  V30 1405 H 138.143 -3.80902 -3.95228 0
M  V30 1406 H 138.404 -2.0726 -3.90507 0
M  V30 1407 N 137.463 0.71206 -1.40597 0
M  V30 1408 C 138.691 1.50111 -1.42388 0
M  V30 1409 C 139.106 1.88784 -0.0245395 0
M  V30 1410 O 138.463 1.55681 0.952351 0
M  V30 1411 C 138.514 2.7742 -2.31776 0
M  V30 1412 O 138.235 2.40382 -3.66262 0
M  V30 1413 C 139.736 3.7129 -2.42196 0
M  V30 1414 H 136.956 0.46314 -0.485533 0
M  V30 1415 H 139.5 0.878068 -1.8469 0
M  V30 1416 H 137.655 3.36001 -1.92827 0
M  V30 1417 H 138.069 3.22324 -4.13772 0
M  V30 1418 H 139.543 4.57448 -3.08943 0
M  V30 1419 H 140.02 4.14641 -1.44809 0
M  V30 1420 H 140.626 3.18619 -2.81712 0
M  V30 1421 N 138.941 1.26152 0.944643 0
M  V30 1422 C 139.871 1.09902 2.06019 0
M  V30 1423 C 140.852 0.00519538 1.70099 0
M  V30 1424 O 142.037 0.176583 1.93396 0
M  V30 1425 C 139.167 0.727562 3.39594 0
M  V30 1426 C 138.121 1.77274 3.89561 0
M  V30 1427 C 137.447 1.25569 5.19747 0
M  V30 1428 C 138.747 3.17357 4.14827 0
M  V30 1429 H 140.441 2.03217 2.19871 0
M  V30 1430 H 137.987 0.978452 1.05652 0
M  V30 1431 H 139.94 0.600777 4.17095 0
M  V30 1432 H 138.664 -0.241287 3.25707 0
M  V30 1433 H 137.323 1.88814 3.14237 0
M  V30 1434 H 136.971 0.276783 5.02238 0
M  V30 1435 H 136.671 1.95433 5.54148 0
M  V30 1436 H 138.195 1.1415 5.99835 0
M  V30 1437 H 139.609 3.08914 4.82954 0
M  V30 1438 H 138.006 3.84781 4.60504 0
M  V30 1439 H 139.076 3.63673 3.20734 0
M  V30 1440 N 140.419 -1.14872 1.07899 0
M  V30 1441 C 141.366 -2.19791 0.704319 0
M  V30 1442 C 142.336 -1.63238 -0.306987 0
M  V30 1443 O 143.521 -1.8983 -0.192171 0
M  V30 1444 C 140.661 -3.44911 0.114244 0
M  V30 1445 C 139.774 -4.15637 1.1777 0
M  V30 1446 C 138.909 -5.28324 0.552037 0
M  V30 1447 C 137.948 -5.90875 1.59789 0
M  V30 1448 N 137.085 -6.95022 0.994404 0
M  V30 1449 H 141.925 -2.5119 1.60336 0
M  V30 1450 H 139.462 -1.23356 0.801352 0
M  V30 1451 H 141.42 -4.16477 -0.245544 0
M  V30 1452 H 140.05 -3.14011 -0.74813 0
M  V30 1453 H 139.102 -3.42512 1.65499 0
M  V30 1454 H 140.414 -4.5823 1.97046 0
M  V30 1455 H 139.568 -6.06538 0.1402 0
M  V30 1456 H 138.307 -4.86939 -0.272431 0
M  V30 1457 H 137.312 -5.11369 2.01945 0
M  V30 1458 H 138.537 -6.34337 2.42474 0
M  V30 1459 H 136.483 -6.55722 0.190939 0
M  V30 1460 H 136.4 -7.36073 1.72432 0
M  V30 1461 H 137.668 -7.77123 0.608253 0
M  V30 1462 N 141.898 -0.863906 -1.31812 0
M  V30 1463 C 143.175 -0.39275 -1.91616 0
M  V30 1464 C 143.555 1.12461 -1.7865 0
M  V30 1465 O 142.903 1.95045 -1.19037 0
M  V30 1466 C 143.113 -0.867385 -3.38049 0
M  V30 1467 C 144.461 -0.889966 -4.15168 0
M  V30 1468 O 145.485 -0.812635 -3.46806 0
M  V30 1469 O 144.344 -1.00079 -5.37258 0
M  V30 1470 H 141.438 -0.116358 -0.818773 0
M  V30 1471 H 143.984 -0.951418 -1.40521 0
M  V30 1472 H 142.756 -1.91081 -3.41473 0
M  V30 1473 H 142.379 -0.286687 -3.96565 0
M  V30 1474 N 143.376 1.44774 -0.622745 0
M  V30 1475 C 144.653 1.95522 -0.0551974 0
M  V30 1476 C 145.033 1.5649 1.41683 0
M  V30 1477 O 144.381 0.834848 2.12703 0
M  V30 1478 C 144.591 3.4796 -0.269242 0
M  V30 1479 C 145.939 4.24306 -0.158014 0
M  V30 1480 O 146.963 3.55637 -0.200162 0
M  V30 1481 O 145.822 5.46471 -0.0558693 0
M  V30 1482 H 142.916 0.826556 0.0271015 0
M  V30 1483 H 145.462 1.54866 -0.693864 0
M  V30 1484 H 144.234 3.6939 -1.29099 0
M  V30 1485 H 143.857 3.95543 0.403966 0
M  V30 1486 N 144.854 0.36279 1.53368 0
M  V30 1487 C 146.131 -0.284021 1.93527 0
M  V30 1488 C 146.511 -1.66628 1.29608 0
M  V30 1489 O 145.859 -2.23942 0.45413 0
M  V30 1490 C 146.069 -0.337028 3.47369 0
M  V30 1491 C 147.417 -0.578708 4.20638 0
M  V30 1492 O 148.441 -0.418352 3.53735 0
M  V30 1493 O 147.3 -0.89074 5.39192 0
M  V30 1494 H 144.394 -0.169743 0.809393 0
M  V30 1495 H 146.94 0.41537 1.64538 0
M  V30 1496 H 145.712 0.632217 3.86159 0
M  V30 1497 H 145.335 -1.08243 3.82582 0
M  V30 1498 N 146.332 -1.57332 0.0918853 0
M  V30 1499 C 147.748 -1.57389 -0.264766 0
M  V30 1500 C 147.948 -1.10281 -1.68643 0
M  V30 1501 O 147.004 -0.777801 -2.40222 0
M  V30 1502 C 148.317 -3.00648 -0.0561195 0
M  V30 1503 C 149.865 -3.12754 -0.124116 0
M  V30 1504 C 150.34 -4.57965 0.0564972 0
M  V30 1505 N 151.831 -4.632 0.00155611 0
M  V30 1506 C 152.566 -5.73281 0.116598 0
M  V30 1507 N 152.062 -6.92208 0.286294 0
M  V30 1508 N 153.855 -5.6207 0.0580973 0
M  V30 1509 H 146.006 -1.86262 1.02079 0
M  V30 1510 H 148.269 -0.859579 0.399786 0
M  V30 1511 H 147.975 -3.393 0.925669 0
M  V30 1512 H 147.849 -3.68623 -0.799823 0
M  V30 1513 H 150.236 -2.73976 -1.09641 0
M  V30 1514 H 150.317 -2.47377 0.651024 0
M  V30 1515 H 149.961 -4.97436 1.02564 0
M  V30 1516 H 149.891 -5.21399 -0.738297 0
M  V30 1517 H 152.382 -3.77686 -0.127192 0
M  V30 1518 H 152.695 -7.71934 0.365676 0
M  V30 1519 H 151.04 -6.94254 0.32192 0
M  V30 1520 H 154.231 -4.68043 -0.0733204 0
M  V30 1521 H 154.404 -6.47824 0.151203 0
M  V30 1522 N 147.81 0.181792 -1.56548 0
M  V30 1523 C 149.059 0.898348 -1.8059 0
M  V30 1524 C 149.372 1.83862 -0.667379 0
M  V30 1525 O 150.578 2.59678 -0.792446 0
M  V30 1526 C 149.034 1.64791 -3.19956 0
M  V30 1527 C 148.642 0.751789 -4.41647 0
M  V30 1528 C 150.386 2.35331 -3.53298 0
M  V30 1529 C 148.293 1.50098 -5.72035 0
M  V30 1530 H 147.223 0.339194 -0.673397 0
M  V30 1531 H 149.874 0.151413 -1.82874 0
M  V30 1532 H 148.256 2.43921 -3.11959 0
M  V30 1533 H 149.43 -0.0018076 -4.608 0
M  V30 1534 H 147.745 0.156562 -4.16106 0
M  V30 1535 H 150.342 2.91958 -4.47956 0
M  V30 1536 H 150.685 3.10164 -2.77676 0
M  V30 1537 H 151.218 1.63154 -3.62803 0
M  V30 1538 H 147.957 0.795175 -6.50659 0
M  V30 1539 H 147.477 2.22817 -5.56878 0
M  V30 1540 H 149.156 2.05125 -6.13622 0
M  V30 1541 N 149.288 1.51039 0.449983 0
M  V30 1542 C 150.516 1.66869 1.2232 0
M  V30 1543 C 150.931 0.360727 1.85322 0
M  V30 1544 O 150.288 -0.659531 1.70166 0
M  V30 1545 C 150.339 2.77524 2.31652 0
M  V30 1546 O 150.06 4.03252 1.7123 0
M  V30 1547 C 151.561 3.04512 3.2216 0
M  V30 1548 H 148.781 0.560326 0.369155 0
M  V30 1549 H 151.325 1.97385 0.534719 0
M  V30 1550 H 149.48 2.49642 2.96239 0
M  V30 1551 H 149.894 4.64609 2.43389 0
M  V30 1552 H 151.368 3.85551 3.95038 0
M  V30 1553 H 151.845 2.16415 3.8218 0
M  V30 1554 H 152.451 3.34005 2.63288 0
M  V30 1555 N 150.766 -0.704594 1.40972 0
M  V30 1556 C 151.696 -1.83124 1.44872 0
M  V30 1557 C 152.677 -1.67281 0.30838 0
M  V30 1558 O 153.862 -1.87149 0.518556 0
M  V30 1559 C 150.992 -3.21181 1.32136 0
M  V30 1560 C 149.946 -3.51714 2.43888 0
M  V30 1561 C 149.272 -4.89032 2.16222 0
M  V30 1562 C 150.572 -3.516 3.86232 0
M  V30 1563 H 152.266 -1.80117 2.39161 0
M  V30 1564 H 149.812 -0.865145 1.15114 0
M  V30 1565 H 151.765 -3.99702 1.33479 0
M  V30 1566 H 150.489 -3.24791 0.343279 0
M  V30 1567 H 149.148 -2.75539 2.41813 0
M  V30 1568 H 148.796 -4.89256 1.16778 0
M  V30 1569 H 148.496 -5.10426 2.911 0
M  V30 1570 H 150.02 -5.69873 2.19265 0
M  V30 1571 H 151.434 -4.2014 3.9007 0
M  V30 1572 H 149.831 -3.84523 4.60719 0
M  V30 1573 H 150.901 -2.50757 4.15029 0
M  V30 1574 N 152.244 -1.26651 -0.937939 0
M  V30 1575 C 153.49 -1.12553 -1.687 0
M  V30 1576 C 153.823 0.329782 -1.91379 0
M  V30 1577 O 153.098 1.24202 -1.4968 0
M  V30 1578 C 153.381 -1.89862 -3.05981 0
M  V30 1579 C 153.234 -3.43318 -2.90607 0
M  V30 1580 C 154.553 -1.69499 -4.0615 0
M  V30 1581 H 151.672 -0.410257 -0.612257 0
M  V30 1582 H 154.314 -1.55685 -1.08913 0
M  V30 1583 H 152.464 -1.53204 -3.57017 0
M  V30 1584 H 154.136 -3.89747 -2.46769 0
M  V30 1585 H 152.379 -3.70179 -2.26164 0
M  V30 1586 H 153.05 -3.92642 -3.8799 0
M  V30 1587 H 155.526 -2.01442 -3.64088 0
M  V30 1588 H 154.402 -2.26002 -5.00214 0
M  V30 1589 H 154.663 -0.640365 -4.37438 0
M  V30 1590 N 153.722 1.14298 -1.08507 0
M  V30 1591 C 154.97 1.84993 -0.813763 0
M  V30 1592 C 155.291 1.83405 0.662393 0
M  V30 1593 O 154.561 1.28319 1.48024 0
M  V30 1594 H 153.141 0.684966 -0.298045 0
M  V30 1595 H 155.803 1.385 -1.37126 0
M  V30 1596 H 154.899 2.89788 -1.15884 0
M  V30 1597 N 155.201 0.870884 1.31352 0
M  V30 1598 C 156.426 0.495957 2.01383 0
M  V30 1599 C 156.851 -0.904324 1.64935 0
M  V30 1600 O 156.209 -1.59687 0.858466 0
M  V30 1601 C 156.257 0.661433 3.54482 0
M  V30 1602 O 155.361 -0.298851 4.11316 0
M  V30 1603 H 154.702 0.197158 0.634054 0
M  V30 1604 H 157.232 1.17455 1.67527 0
M  V30 1605 H 157.242 0.555072 4.04207 0
M  V30 1606 H 155.917 1.68246 3.8035 0
M  V30 1607 H 154.494 -0.147368 3.72609 0
M  V30 1608 N 156.679 -1.44442 0.630414 0
M  V30 1609 C 157.907 -2.06414 0.141671 0
M  V30 1610 C 158.322 -1.47105 -1.18345 0
M  V30 1611 O 157.679 -0.593662 -1.72574 0
M  V30 1612 C 157.73 -3.61494 0.0199784 0
M  V30 1613 O 157.451 -4.18594 1.29269 0
M  V30 1614 C 158.952 -4.40499 -0.497544 0
M  V30 1615 H 156.172 -0.666292 0.0793452 0
M  V30 1616 H 158.716 -1.85323 0.864614 0
M  V30 1617 H 156.871 -3.8185 -0.653402 0
M  V30 1618 H 157.285 -5.12026 1.13707 0
M  V30 1619 H 158.759 -5.49433 -0.531708 0
M  V30 1620 H 159.236 -4.11895 -1.52445 0
M  V30 1621 H 159.842 -4.25061 0.142562 0
M  V30 1622 N 158.157 -0.370918 -1.53173 0
M  V30 1623 C 159.104 0.473035 -2.259 0
M  V30 1624 C 160.074 1.07311 -1.26781 0
M  V30 1625 O 161.259 1.1046 -1.55574 0
M  V30 1626 C 158.399 1.60405 -3.05556 0
M  V30 1627 C 157.512 1.02863 -4.19575 0
M  V30 1628 C 156.647 2.12918 -4.86661 0
M  V30 1629 C 155.686 1.52869 -5.92704 0
M  V30 1630 N 154.823 2.56779 -6.53459 0
M  V30 1631 H 159.663 -0.153649 -2.97604 0
M  V30 1632 H 157.2 -0.0875946 -1.46839 0
M  V30 1633 H 159.158 2.27034 -3.50016 0
M  V30 1634 H 157.788 2.20131 -2.36097 0
M  V30 1635 H 156.84 0.252465 -3.79561 0
M  V30 1636 H 158.152 0.549642 -4.95762 0
M  V30 1637 H 157.306 2.87356 -5.34333 0
M  V30 1638 H 156.045 2.6417 -4.09958 0
M  V30 1639 H 155.05 0.769479 -5.44389 0
M  V30 1640 H 156.275 1.02435 -6.7133 0
M  V30 1641 H 154.221 3.07235 -5.79606 0
M  V30 1642 H 154.138 2.13583 -7.25202 0
M  V30 1643 H 155.406 3.30903 -7.05779 0
M  V30 1644 N 159.635 1.57281 -0.100228 0
M  V30 1645 C 160.545 2.17833 0.870965 0
M  V30 1646 C 161.561 1.14921 1.30649 0
M  V30 1647 O 162.737 1.47313 1.37335 0
M  V30 1648 C 159.802 2.75085 2.1102 0
M  V30 1649 C 158.863 3.9297 1.72838 0
M  V30 1650 C 158.096 4.47482 2.90854 0
M  V30 1651 O 158.319 4.00922 4.05731 0
M  V30 1652 O 157.253 5.38433 2.69023 0
M  V30 1653 H 161.079 3.0124 0.38575 0
M  V30 1654 H 158.664 1.48881 0.124397 0
M  V30 1655 H 160.546 3.11656 2.83634 0
M  V30 1656 H 159.221 1.94721 2.58584 0
M  V30 1657 H 158.128 3.61201 0.973883 0
M  V30 1658 H 159.461 4.74713 1.30033 0
M  V30 1659 N 161.113 -0.173488 1.56642 0
M  V30 1660 C 162.06 -1.21482 1.96242 0
M  V30 1661 C 163.03 -1.44104 0.826027 0
M  V30 1662 O 164.215 -1.5688 1.08597 0
M  V30 1663 C 161.355 -2.54964 2.32567 0
M  V30 1664 C 160.468 -2.39739 3.59373 0
M  V30 1665 C 159.603 -3.66072 3.84921 0
M  V30 1666 C 158.642 -3.45771 5.05083 0
M  V30 1667 N 157.779 -4.64169 5.26775 0
M  V30 1668 H 162.619 -0.870123 2.85014 0
M  V30 1669 H 160.156 -0.418245 1.41029 0
M  V30 1670 H 162.114 -3.32758 2.5165 0
M  V30 1671 H 160.744 -2.87433 1.46908 0
M  V30 1672 H 159.796 -1.53131 3.48217 0
M  V30 1673 H 161.108 -2.20683 4.47326 0
M  V30 1674 H 160.262 -4.52303 4.0436 0
M  V30 1675 H 159.001 -3.88105 2.9534 0
M  V30 1676 H 158.006 -2.57927 4.85545 0
M  V30 1677 H 159.231 -3.25163 5.96193 0
M  V30 1678 H 157.177 -4.86425 4.40144 0
M  V30 1679 H 157.094 -4.48019 6.08946 0
M  V30 1680 H 158.362 -5.51689 5.5069 0
M  V30 1681 N 162.591 -1.51276 -0.441967 0
M  V30 1682 C 163.524 -1.66933 -1.55591 0
M  V30 1683 C 164.502 -0.516958 -1.54163 0
M  V30 1684 O 165.686 -0.740209 -1.73358 0
M  V30 1685 C 162.813 -1.67866 -2.94174 0
M  V30 1686 C 161.859 -2.89013 -3.13646 0
M  V30 1687 S 162.692 -4.49897 -2.90436 0
M  V30 1688 C 163.848 -4.53568 -4.31308 0
M  V30 1689 H 164.081 -2.61155 -1.42076 0
M  V30 1690 H 161.614 -1.40902 -0.631341 0
M  V30 1691 H 163.572 -1.69089 -3.74058 0
M  V30 1692 H 162.233 -0.748296 -3.05056 0
M  V30 1693 H 161.426 -2.86054 -4.14957 0
M  V30 1694 H 161.028 -2.85509 -2.4158 0
M  V30 1695 H 163.32 -4.28924 -5.24434 0
M  V30 1696 H 164.263 -5.55355 -4.39303 0
M  V30 1697 H 164.671 -3.82943 -4.14747 0
M  V30 1698 N 164.069 0.697108 -1.41344 0
M  V30 1699 C 165.017 1.83237 -1.43272 0
M  V30 1700 C 166.011 1.66522 -0.310947 0
M  V30 1701 O 167.217 1.73402 -0.482899 0
M  V30 1702 H 163.592 0.603802 -0.448249 0
M  V30 1703 H 165.563 1.78727 -2.38954 0
M  V30 1704 C 164.312 3.21245 -1.33029 0
M  V30 1705 H 163.635 3.34723 -2.18633 0
M  V30 1706 H 165.075 4.00763 -1.38439 0
M  V30 1707 C 163.534 3.36873 -0.0424635 0
M  V30 1708 O 164.064 3.91177 0.913421 0
M  V30 1709 N 162.27 2.90581 0.0331145 0
M  V30 1710 H 161.817 2.46577 -0.745506 0
M  V30 1711 H 161.775 3.01416 0.894199 0
M  V30 1712 N 165.547 1.27147 0.931209 0
M  V30 1713 C 166.495 1.09398 2.05268 0
M  V30 1714 C 167.489 0.0180591 1.6939 0
M  V30 1715 O 168.695 0.17551 1.79142 0
M  V30 1716 H 165.07 0.336986 0.672268 0
M  V30 1717 H 167.041 2.04416 2.17386 0
M  V30 1718 C 165.79 0.75424 3.39421 0
M  V30 1719 H 165.113 1.57404 3.67511 0
M  V30 1720 H 166.553 0.669903 4.18674 0
M  V30 1721 C 165.012 -0.541197 3.32525 0
M  V30 1722 O 165.542 -1.57664 3.69466 0
M  V30 1723 N 163.748 -0.535517 2.85623 0
M  V30 1724 H 163.295 0.307511 2.55758 0
M  V30 1725 H 163.253 -1.40236 2.81392 0
M  V30 1726 N 167.025 -1.13721 1.09112 0
M  V30 1727 C 168.274 -1.84275 0.82009 0
M  V30 1728 C 168.587 -1.84253 -0.656509 0
M  V30 1729 O 169.793 -2.50668 -1.04296 0
M  V30 1730 C 168.249 -3.30825 1.41714 0
M  V30 1731 C 167.857 -3.39244 2.92605 0
M  V30 1732 C 169.601 -4.06443 1.22492 0
M  V30 1733 C 167.508 -4.80047 3.45411 0
M  V30 1734 H 166.438 -0.690387 0.30312 0
M  V30 1735 H 169.089 -1.28146 1.31343 0
M  V30 1736 H 167.471 -3.86737 0.851498 0
M  V30 1737 H 168.645 -2.93344 3.55367 0
M  V30 1738 H 166.96 -2.77088 3.10823 0
M  V30 1739 H 169.557 -5.10387 1.59402 0
M  V30 1740 H 169.9 -4.15972 0.165299 0
M  V30 1741 H 170.433 -3.56852 1.75788 0
M  V30 1742 H 167.172 -4.75709 4.50978 0
M  V30 1743 H 166.692 -5.26455 2.87411 0
M  V30 1744 H 168.371 -5.48957 3.42425 0
M  V30 1745 N 168.503 -0.877838 -1.30888 0
M  V30 1746 C 169.728 -0.506629 -2.01117 0
M  V30 1747 C 170.153 0.895564 -1.65412 0
M  V30 1748 O 169.511 1.5923 -0.866922 0
M  V30 1749 C 169.559 -0.680223 -3.54126 0
M  V30 1750 O 168.663 0.277033 -4.11468 0
M  V30 1751 H 168.004 -0.200518 -0.633 0
M  V30 1752 H 170.534 -1.18342 -1.66902 0
M  V30 1753 H 170.544 -0.5765 -4.03907 0
M  V30 1754 H 169.219 -1.70261 -3.79452 0
M  V30 1755 H 167.796 0.127606 -3.72682 0
M  V30 1756 N 169.982 1.44106 -0.638065 0
M  V30 1757 C 171.231 2.01194 -0.142744 0
M  V30 1758 C 171.544 1.50835 1.24532 0
M  V30 1759 O 172.75 2.00096 1.83504 0
M  V30 1760 C 171.206 3.59319 -0.20442 0
M  V30 1761 C 170.814 4.18674 -1.59423 0
M  V30 1762 C 172.558 4.23854 0.234079 0
M  V30 1763 C 170.465 5.69045 -1.61065 0
M  V30 1764 H 169.395 0.752367 -0.0495998 0
M  V30 1765 H 172.046 1.65246 -0.797881 0
M  V30 1766 H 170.428 3.92598 0.517946 0
M  V30 1767 H 171.602 3.96921 -2.34074 0
M  V30 1768 H 169.917 3.66453 -1.97741 0
M  V30 1769 H 172.514 5.34155 0.241443 0
M  V30 1770 H 172.857 3.96688 1.2627 0
M  V30 1771 H 173.39 3.95403 -0.436025 0
M  V30 1772 H 170.129 6.00956 -2.61787 0
M  V30 1773 H 169.649 5.929 -0.90718 0
M  V30 1774 H 171.328 6.32809 -1.34766 0
M  V30 1775 N 171.46 0.379036 1.52974 0
M  V30 1776 C 172.706 -0.206727 2.01744 0
M  V30 1777 C 173.039 -1.47314 1.26539 0
M  V30 1778 O 172.314 -1.91084 0.362903 0
M  V30 1779 C 172.597 -0.485066 3.56818 0
M  V30 1780 C 172.45 0.795919 4.42702 0
M  V30 1781 C 173.769 -1.28003 4.21074 0
M  V30 1782 H 170.888 -0.0736607 0.73331 0
M  V30 1783 H 173.53 0.506581 1.83122 0
M  V30 1784 H 171.68 -1.09272 3.72816 0
M  V30 1785 H 173.352 1.43307 4.38476 0
M  V30 1786 H 171.595 1.41344 4.10127 0
M  V30 1787 H 172.266 0.555947 5.49193 0
M  V30 1788 H 174.742 -0.765867 4.08991 0
M  V30 1789 H 173.618 -1.44352 5.29579 0
M  V30 1790 H 173.879 -2.29236 3.78026 0
M  V30 1791 N 172.938 -1.57226 0.108567 0
M  V30 1792 C 173.868 -2.17778 -0.84232 0
M  V30 1793 C 174.849 -1.11487 -1.2847 0
M  V30 1794 O 176.034 -1.39681 -1.34918 0
M  V30 1795 C 173.164 -2.76888 -2.09644 0
M  V30 1796 C 172.118 -3.88669 -1.79221 0
M  V30 1797 C 171.444 -4.34541 -3.11574 0
M  V30 1798 C 172.744 -5.11251 -1.06864 0
M  V30 1799 H 174.438 -2.97489 -0.337774 0
M  V30 1800 H 171.984 -1.43097 -0.161025 0
M  V30 1801 H 173.937 -3.17904 -2.76614 0
M  V30 1802 H 172.661 -1.94451 -2.62405 0
M  V30 1803 H 171.32 -3.48213 -1.14644 0
M  V30 1804 H 170.968 -3.48977 -3.62249 0
M  V30 1805 H 170.668 -5.09914 -2.91996 0
M  V30 1806 H 172.192 -4.782 -3.7968 0
M  V30 1807 H 173.606 -5.49352 -1.63968 0
M  V30 1808 H 172.003 -5.9214 -0.974178 0
M  V30 1809 H 173.073 -4.8487 -0.0536168 0
M  V30 1810 N 174.416 0.165178 -1.56732 0
M  V30 1811 C 175.832 0.517174 -1.50988 0
M  V30 1812 C 176.032 1.84331 -0.813894 0
M  V30 1813 O 175.088 2.49672 -0.37682 0
M  V30 1814 C 176.401 0.544261 -2.95733 0
M  V30 1815 C 177.949 0.631039 -3.06573 0
M  V30 1816 C 178.424 0.68896 -4.52788 0
M  V30 1817 N 179.915 0.751683 -4.5706 0
M  V30 1818 C 180.65 0.817177 -5.67547 0
M  V30 1819 N 180.146 0.843129 -6.8765 0
M  V30 1820 N 181.939 0.856668 -5.55534 0
M  V30 1821 H 174.09 -0.704318 -2.00382 0
M  V30 1822 H 176.353 -0.254687 -0.913148 0
M  V30 1823 H 176.059 -0.361607 -3.49836 0
M  V30 1824 H 175.933 1.3886 -3.5071 0
M  V30 1825 H 178.32 1.52733 -2.52501 0
M  V30 1826 H 178.401 -0.240095 -2.54671 0
M  V30 1827 H 178.045 -0.2031 -5.07494 0
M  V30 1828 H 177.975 1.57633 -5.02454 0
M  V30 1829 H 180.466 0.739661 -3.70591 0
M  V30 1830 H 180.779 0.894448 -7.67606 0
M  V30 1831 H 179.124 0.811304 -6.90248 0
M  V30 1832 H 182.315 0.833437 -4.60621 0
M  V30 1833 H 182.488 0.904247 -6.4166 0
M  V30 1834 N 175.894 1.51508 0.433938 0
M  V30 1835 C 177.171 1.54888 1.19453 0
M  V30 1836 C 177.551 0.315154 2.08734 0
M  V30 1837 O 176.899 -0.699558 2.17528 0
M  V30 1838 C 177.109 2.86467 1.99342 0
M  V30 1839 C 178.457 3.38545 2.56267 0
M  V30 1840 O 179.481 2.88041 2.0955 0
M  V30 1841 O 178.34 4.26675 3.41483 0
M  V30 1842 H 175.434 0.622863 0.544032 0
M  V30 1843 H 177.98 1.63823 0.442732 0
M  V30 1844 H 176.752 3.67718 1.33788 0
M  V30 1845 H 176.375 2.8071 2.8158 0
M  V30 1846 N 177.372 -0.689602 1.41712 0
M  V30 1847 C 178.302 -1.81577 1.46806 0
M  V30 1848 C 179.283 -1.66945 0.326105 0
M  V30 1849 O 180.468 -1.86588 0.538377 0
M  V30 1850 C 177.598 -3.19762 1.35535 0
M  V30 1851 C 176.552 -3.49107 2.47605 0
M  V30 1852 C 175.878 -4.86711 2.21397 0
M  V30 1853 C 177.178 -3.47483 3.89939 0
M  V30 1854 H 178.872 -1.7757 2.41058 0
M  V30 1855 H 176.418 -0.852887 1.16025 0
M  V30 1856 H 178.371 -3.98263 1.3771 0
M  V30 1857 H 177.095 -3.24409 0.377708 0
M  V30 1858 H 175.754 -2.72959 2.44722 0
M  V30 1859 H 175.402 -4.8799 1.21961 0
M  V30 1860 H 175.102 -5.0731 2.96497 0
M  V30 1861 H 176.626 -5.67515 2.25297 0
M  V30 1862 H 178.04 -4.1598 3.94505 0
M  V30 1863 H 176.437 -3.79615 4.64771 0
M  V30 1864 H 177.507 -2.46341 4.17665 0
M  V30 1865 N 178.85 -1.27639 -0.924453 0
M  V30 1866 C 179.76 -1.12466 -2.05885 0
M  V30 1867 C 180.776 -0.053869 -1.73917 0
M  V30 1868 O 181.952 -0.261012 -1.99702 0
M  V30 1869 C 179.017 -0.776768 -3.37886 0
M  V30 1870 C 178.078 -1.92878 -3.83532 0
M  V30 1871 C 177.311 -1.59739 -5.09234 0
M  V30 1872 O 177.534 -0.506782 -5.68144 0
M  V30 1873 O 176.468 -2.43761 -5.50331 0
M  V30 1874 H 180.294 -2.07671 -2.21599 0
M  V30 1875 H 177.879 -1.06857 -1.04413 0
M  V30 1876 H 179.761 -0.596229 -4.17161 0
M  V30 1877 H 178.436 0.145732 -3.23372 0
M  V30 1878 H 177.343 -2.1644 -3.0513 0
M  V30 1879 H 178.676 -2.8316 -4.02593 0
M  V30 1880 N 180.328 1.1314 -1.09713 0
M  V30 1881 C 181.575 1.84484 -0.834987 0
M  V30 1882 C 181.903 1.83689 0.639418 0
M  V30 1883 O 181.158 1.2724 1.4869 0
M  V30 1884 C 181.457 3.32167 -1.3191 0
M  V30 1885 C 181.123 3.53139 -2.80363 0
M  V30 1886 C 179.785 3.58571 -3.20905 0
M  V30 1887 C 182.137 3.60866 -3.76065 0
M  V30 1888 C 179.465 3.69267 -4.55916 0
M  V30 1889 C 181.817 3.73089 -5.10869 0
M  V30 1890 C 180.481 3.76775 -5.50996 0
M  V30 1891 H 179.751 0.675073 -0.305544 0
M  V30 1892 H 182.398 1.33554 -1.37243 0
M  V30 1893 H 180.703 3.85469 -0.701517 0
M  V30 1894 H 182.4 3.85821 -1.09284 0
M  V30 1895 H 178.99 3.49569 -2.47991 0
M  V30 1896 H 183.174 3.55946 -3.45855 0
M  V30 1897 H 178.43 3.70388 -4.86438 0
M  V30 1898 H 182.604 3.78011 -5.84877 0
M  V30 1899 H 180.231 3.84815 -6.55608 0
M  V30 1900 N 181.806 0.884767 1.30421 0
M  V30 1901 C 183.031 0.517288 2.00845 0
M  V30 1902 C 183.456 -0.886779 1.65885 0
M  V30 1903 O 182.814 -1.58768 0.875354 0
M  V30 1904 C 182.862 0.698994 3.5376 0
M  V30 1905 O 181.966 -0.255208 4.1161 0
M  V30 1906 H 181.307 0.203872 0.631927 0
M  V30 1907 H 183.837 1.19225 1.66272 0
M  V30 1908 H 183.847 0.597912 4.03595 0
M  V30 1909 H 182.522 1.72271 3.78544 0
M  V30 1910 H 181.099 -0.10784 3.72744 0
M  V30 1911 N 183.284 -1.43765 0.645699 0
M  V30 1912 C 184.561 -1.9541 0.0862963 0
M  V30 1913 C 184.941 -1.58725 -1.39175 0
M  V30 1914 O 184.289 -0.868581 -2.11348 0
M  V30 1915 C 184.499 -3.47488 0.324565 0
M  V30 1916 C 185.847 -4.24001 0.225497 0
M  V30 1917 O 186.871 -3.55274 0.256715 0
M  V30 1918 O 185.73 -5.46313 0.142801 0
M  V30 1919 H 182.824 -0.826882 -0.0139483 0
M  V30 1920 H 185.37 -1.53743 0.718415 0
M  V30 1921 H 184.142 -3.67289 1.3496 0
M  V30 1922 H 183.765 -3.96135 -0.340987 0
M  V30 1923 N 184.763 -0.387143 -1.52771 0
M  V30 1924 C 185.991 0.195869 -2.05971 0
M  V30 1925 C 186.406 1.40691 -1.25903 0
M  V30 1926 O 185.763 1.79931 -0.305134 0
M  V30 1927 C 185.814 0.56812 -3.57008 0
M  V30 1928 O 185.535 -0.594803 -4.34043 0
M  V30 1929 C 187.036 1.20723 -4.26545 0
M  V30 1930 H 184.256 0.0300578 -0.670326 0
M  V30 1931 H 186.8 -0.551749 -1.96916 0
M  V30 1932 H 184.955 1.26564 -3.66143 0
M  V30 1933 H 185.369 -0.289322 -5.23701 0
M  V30 1934 H 186.843 1.41807 -5.33474 0
M  V30 1935 H 187.32 2.17395 -3.81623 0
M  V30 1936 H 187.926 0.550535 -4.21722 0
M  V30 1937 N 186.241 1.57166 -0.116904 0
M  V30 1938 C 187.489 1.94737 0.540533 0
M  V30 1939 C 187.81 1.00096 1.67349 0
M  V30 1940 O 187.08 0.0568854 1.95817 0
M  V30 1941 H 185.66 0.718981 0.202669 0
M  V30 1942 H 188.322 1.94017 -0.185353 0
M  V30 1943 H 187.418 2.97719 0.936483 0
M  V30 1944 N 187.719 -0.156864 1.56817 0
M  V30 1945 C 188.666 -1.19394 1.97519 0
M  V30 1946 C 189.636 -1.4322 0.841265 0
M  V30 1947 O 190.821 -1.55719 1.10255 0
M  V30 1948 C 187.961 -2.52483 2.35258 0
M  V30 1949 C 187.074 -2.35914 3.61896 0
M  V30 1950 C 186.209 -3.61969 3.88782 0
M  V30 1951 C 185.248 -3.40395 5.08722 0
M  V30 1952 N 184.385 -4.58556 5.31668 0
M  V30 1953 H 189.225 -0.839845 2.85921 0
M  V30 1954 H 186.762 -0.403264 1.41464 0
M  V30 1955 H 188.72 -3.30071 2.55165 0
M  V30 1956 H 187.35 -2.85859 1.49949 0
M  V30 1957 H 186.402 -1.49429 3.49821 0
M  V30 1958 H 187.714 -2.15926 4.49641 0
M  V30 1959 H 186.868 -4.47989 4.09135 0
M  V30 1960 H 185.607 -3.84951 2.9944 0
M  V30 1961 H 184.612 -2.52763 4.88253 0
M  V30 1962 H 185.837 -3.18822 5.99608 0
M  V30 1963 H 183.783 -4.81729 4.45279 0
M  V30 1964 H 183.7 -4.41535 6.13664 0
M  V30 1965 H 184.968 -5.45817 5.5651 0
M  V30 1966 N 189.197 -1.51736 -0.425897 0
M  V30 1967 C 190.427 -1.68549 -1.19476 0
M  V30 1968 C 190.835 -0.387288 -1.85194 0
M  V30 1969 O 190.178 0.645142 -1.71999 0
M  V30 1970 C 190.24 -2.75275 -2.31223 0
M  V30 1971 C 189.904 -4.17534 -1.8578 0
M  V30 1972 C 190.901 -5.01936 -1.35485 0
M  V30 1973 C 188.586 -4.6369 -1.93123 0
M  V30 1974 C 190.58 -6.30559 -0.931347 0
M  V30 1975 C 188.267 -5.92307 -1.50384 0
M  V30 1976 C 189.265 -6.75569 -1.00473 0
M  V30 1977 O 188.953 -8.0178 -0.583452 0
M  V30 1978 H 188.685 -0.568525 -0.365725 0
M  V30 1979 H 191.239 -1.98982 -0.509444 0
M  V30 1980 H 189.469 -2.40182 -3.03067 0
M  V30 1981 H 191.158 -2.80853 -2.93047 0
M  V30 1982 H 191.924 -4.67475 -1.29197 0
M  V30 1983 H 187.803 -3.98997 -2.30916 0
M  V30 1984 H 191.347 -6.95498 -0.541084 0
M  V30 1985 H 187.244 -6.2628 -1.56346 0
M  V30 1986 H 188.012 -8.1543 -0.708275 0
M  V30 1987 N 190.675 0.682077 -1.42076 0
M  V30 1988 C 191.903 1.47057 -1.4554 0
M  V30 1989 C 192.318 1.8869 -0.0645779 0
M  V30 1990 O 191.675 1.57666 0.919115 0
M  V30 1991 C 191.726 2.72442 -2.37609 0
M  V30 1992 O 191.447 2.32559 -3.71279 0
M  V30 1993 C 192.948 3.66069 -2.50017 0
M  V30 1994 H 190.168 0.452737 -0.495248 0
M  V30 1995 H 192.712 0.838695 -1.8651 0
M  V30 1996 H 190.867 3.31835 -1.9991 0
M  V30 1997 H 191.281 3.13475 -4.20516 0
M  V30 1998 H 192.755 4.50792 -3.18576 0
M  V30 1999 H 193.232 4.11476 -1.53572 0
M  V30 2000 H 193.838 3.12572 -2.88407 0
M  V30 2001 N 192.153 1.28127 0.917671 0
M  V30 2002 C 193.393 1.163 1.68088 0
M  V30 2003 C 193.757 -0.284515 1.8988 0
M  V30 2004 O 194.958 -0.525413 2.63615 0
M  V30 2005 C 193.229 1.93546 3.00457 0
M  V30 2006 S 194.788 1.98048 3.91564 0
M  V30 2007 H 191.606 0.415005 0.577315 0
M  V30 2008 H 194.208 1.62173 1.09179 0
M  V30 2009 H 192.912 2.97888 2.82295 0
M  V30 2010 H 192.443 1.48207 3.64415 0
M  V30 2011 H 194.458 1.08415 4.84211 0
M  V30 2012 N 193.631 -1.12557 1.10312 0
M  V30 2013 C 194.581 -2.16331 0.720076 0
M  V30 2014 C 195.565 -1.58616 -0.270115 0
M  V30 2015 O 196.757 -1.76823 -0.0790507 0
M  V30 2016 C 193.886 -3.42963 0.152113 0
M  V30 2017 C 192.972 -4.07663 1.16927 0
M  V30 2018 N 193.363 -4.47392 2.35953 0
M  V30 2019 C 191.661 -4.34425 1.0095 0
M  V30 2020 C 192.362 -4.97932 3.0073 0
M  V30 2021 N 191.338 -4.93358 2.28252 0
M  V30 2022 H 195.14 -2.44813 1.62616 0
M  V30 2023 H 192.654 -1.29449 0.980654 0
M  V30 2024 H 194.651 -4.16664 -0.14037 0
M  V30 2025 H 193.311 -3.1595 -0.748701 0
M  V30 2026 H 194.322 -4.39802 2.73486 0
M  V30 2027 H 190.999 -4.17177 0.164134 0
M  V30 2028 H 192.389 -5.38397 4.01969 0
M  V30 2029 N 195.109 -0.891671 -1.2995 0
M  V30 2030 C 196.355 -0.514261 -1.96171 0
M  V30 2031 C 196.688 0.935506 -1.70182 0
M  V30 2032 O 195.963 1.66204 -1.01028 0
M  V30 2033 C 196.246 -0.797719 -3.51153 0
M  V30 2034 C 196.099 -2.2986 -3.86632 0
M  V30 2035 C 197.418 -0.278749 -4.39216 0
M  V30 2036 H 194.537 -0.188314 -0.712535 0
M  V30 2037 H 197.179 -1.11689 -1.53706 0
M  V30 2038 H 195.329 -0.284826 -3.87455 0
M  V30 2039 H 197.001 -2.88042 -3.60319 0
M  V30 2040 H 195.244 -2.76257 -3.34462 0
M  V30 2041 H 195.915 -2.44753 -4.94773 0
M  V30 2042 H 198.391 -0.717825 -4.09862 0
M  V30 2043 H 197.267 -0.506353 -5.46559 0
M  V30 2044 H 197.528 0.820266 -4.34424 0
M  V30 2045 N 196.587 1.43421 -0.653314 0
M  V30 2046 C 197.534 2.30768 0.0382271 0
M  V30 2047 C 198.504 1.44755 0.814576 0
M  V30 2048 O 199.689 1.73624 0.791162 0
M  V30 2049 C 196.829 3.30336 0.998599 0
M  V30 2050 C 195.942 4.31448 0.218342 0
M  V30 2051 C 195.077 5.18098 1.17252 0
M  V30 2052 C 194.116 6.10902 0.382702 0
M  V30 2053 N 193.253 6.90176 1.28848 0
M  V30 2054 H 198.093 2.89357 -0.712511 0
M  V30 2055 H 195.63 1.42548 -0.363128 0
M  V30 2056 H 197.588 3.86572 1.56901 0
M  V30 2057 H 196.218 2.73397 1.71621 0
M  V30 2058 H 195.27 3.77506 -0.46836 0
M  V30 2059 H 196.582 4.97227 -0.395812 0
M  V30 2060 H 195.736 5.7896 1.81356 0
M  V30 2061 H 194.475 4.52444 1.82058 0
M  V30 2062 H 193.48 5.49128 -0.27169 0
M  V30 2063 H 194.705 6.78598 -0.260957 0
M  V30 2064 H 192.651 6.27171 1.92334 0
M  V30 2065 H 192.568 7.52478 0.728887 0
M  V30 2066 H 193.836 7.55543 1.91766 0
M  V30 2067 N 198.065 0.39524 1.52563 0
M  V30 2068 C 199.013 -0.451859 2.28169 0
M  V30 2069 C 200.007 -1.05792 1.32304 0
M  V30 2070 O 201.213 -0.997718 1.49818 0
M  V30 2071 H 197.588 -0.164481 0.733792 0
M  V30 2072 H 199.559 0.207199 2.9768 0
M  V30 2073 C 198.308 -1.56385 3.10546 0
M  V30 2074 H 197.631 -1.10682 3.84174 0
M  V30 2075 H 199.071 -2.13067 3.66577 0
M  V30 2076 C 197.53 -2.52328 2.23231 0
M  V30 2077 O 198.06 -3.5588 1.86312 0
M  V30 2078 N 196.266 -2.22209 1.87274 0
M  V30 2079 H 195.813 -1.38033 2.17496 0
M  V30 2080 H 195.771 -2.86652 1.29143 0
M  V30 2081 N 199.544 -1.57102 0.125237 0
M  V30 2082 C 200.955 -1.82384 -0.399142 0
M  V30 2083 C 201.306 -1.04276 -1.66195 0
M  V30 2084 O 200.431 -0.281269 -2.14564 0
M  V30 2085 C 201.026 -3.30821 -0.730932 0
M  V30 2086 C 199.585 -3.56762 -1.19992 0
M  V30 2087 C 198.732 -2.7649 -0.211792 0
M  V30 2088 H 201.683 -1.54786 0.350277 0
M  V30 2089 H 201.704 -3.4579 -1.58775 0
M  V30 2090 H 201.216 -3.87643 0.188345 0
M  V30 2091 H 199.317 -3.05305 -2.13588 0
M  V30 2092 H 199.43 -4.65317 -1.14093 0
M  V30 2093 H 197.794 -2.4489 -0.700085 0
M  V30 2094 H 198.577 -3.36073 0.700691 0
M  V30 2095 N 201.022 0.148545 -1.56898 0
M  V30 2096 C 201.969 1.18345 -1.98149 0
M  V30 2097 C 202.939 1.42772 -0.848848 0
M  V30 2098 O 204.124 1.55132 -1.11079 0
M  V30 2099 C 201.264 2.51231 -2.36594 0
M  V30 2100 C 200.377 2.33991 -3.63142 0
M  V30 2101 C 199.512 3.59902 -3.90697 0
M  V30 2102 C 198.551 3.37692 -5.1052 0
M  V30 2103 N 197.688 4.5573 -5.34092 0
M  V30 2104 H 202.528 0.82467 -2.86362 0
M  V30 2105 H 200.065 0.395756 -1.41676 0
M  V30 2106 H 202.023 3.28713 -2.56912 0
M  V30 2107 H 200.653 2.85059 -1.51463 0
M  V30 2108 H 199.705 1.47572 -3.50609 0
M  V30 2109 H 201.017 2.13539 -4.5078 0
M  V30 2110 H 200.171 4.45813 -4.11505 0
M  V30 2111 H 198.91 3.83357 -3.01477 0
M  V30 2112 H 197.915 2.5017 -4.89587 0
M  V30 2113 H 199.14 3.15637 -6.0129 0
M  V30 2114 H 197.086 4.79361 -4.47827 0
M  V30 2115 H 197.003 4.38274 -6.15996 0
M  V30 2116 H 198.271 5.42858 -5.59397 0
M  V30 2117 N 202.5 1.5196 0.417844 0
M  V30 2118 C 203.41 1.77554 1.53336 0
M  V30 2119 C 204.426 0.660655 1.6097 0
M  V30 2120 O 205.602 0.945099 1.77848 0
M  V30 2121 C 202.667 1.91291 2.89152 0
M  V30 2122 C 201.728 3.15183 2.91475 0
M  V30 2123 C 200.961 3.28256 4.20813 0
M  V30 2124 O 201.184 2.46798 5.14244 0
M  V30 2125 O 200.118 4.21356 4.29817 0
M  V30 2126 H 203.944 2.7222 1.34647 0
M  V30 2127 H 201.529 1.36698 0.602828 0
M  V30 2128 H 203.411 2.02199 3.69721 0
M  V30 2129 H 202.086 0.998129 3.07927 0
M  V30 2130 H 200.993 3.09739 2.09791 0
M  V30 2131 H 202.326 4.06414 2.77648 0
M  V30 2132 N 203.978 -0.674533 1.42435 0
M  V30 2133 C 204.926 -1.80934 1.46169 0
M  V30 2134 C 205.92 -1.66006 0.3374 0
M  V30 2135 O 207.126 -1.72611 0.510425 0
M  V30 2136 H 203.501 -0.596594 0.457798 0
M  V30 2137 H 205.472 -1.74903 2.41767 0
M  V30 2138 C 204.221 -3.19088 1.38123 0
M  V30 2139 H 203.544 -3.31203 2.23931 0
M  V30 2140 H 204.984 -3.9851 1.44797 0
M  V30 2141 C 203.443 -3.36763 0.0960517 0
M  V30 2142 O 203.973 -3.92581 -0.851073 0
M  V30 2143 N 202.179 -2.90597 0.0131186 0
M  V30 2144 H 201.726 -2.45359 0.784639 0
M  V30 2145 H 201.684 -3.028 -0.846133 0
M  V30 2146 N 205.456 -1.28612 -0.910864 0
M  V30 2147 C 206.404 -1.1265 -2.03501 0
M  V30 2148 C 207.398 -0.0450054 -1.6934 0
M  V30 2149 O 208.604 -0.203988 -1.7884 0
M  V30 2150 H 204.979 -0.347639 -0.666822 0
M  V30 2151 H 206.95 -2.07849 -2.14106 0
M  V30 2152 C 205.699 -0.808143 -3.38178 0
M  V30 2153 H 205.022 -1.63231 -3.6496 0
M  V30 2154 H 206.462 -0.736426 -4.17556 0
M  V30 2155 C 204.921 0.488226 -3.33344 0
M  V30 2156 O 205.451 1.51766 -3.71927 0
M  V30 2157 N 203.657 0.490009 -2.86439 0
M  V30 2158 H 203.204 -0.348161 -2.55236 0
M  V30 2159 H 203.162 1.35741 -2.83587 0
M  V30 2160 N 206.934 1.1197 -1.10907 0
M  V30 2161 C 207.864 2.19928 -0.784473 0
M  V30 2162 C 208.845 1.6833 0.244726 0
M  V30 2163 O 210.03 1.93892 0.109418 0
M  V30 2164 C 207.16 3.46597 -0.220827 0
M  V30 2165 C 206.114 4.11376 -1.18127 0
M  V30 2166 C 205.44 5.32554 -0.478594 0
M  V30 2167 C 206.74 4.56945 -2.52979 0
M  V30 2168 H 208.434 2.47337 -1.68715 0
M  V30 2169 H 205.98 1.18879 -0.812642 0
M  V30 2170 H 207.933 4.21396 0.0184278 0
M  V30 2171 H 206.657 3.1863 0.717113 0
M  V30 2172 H 205.316 3.38564 -1.40606 0
M  V30 2173 H 204.964 5.00856 0.463976 0
M  V30 2174 H 204.664 5.76844 -1.11912 0
M  V30 2175 H 206.188 6.10096 -0.248 0
M  V30 2176 H 207.602 5.23093 -2.3462 0
M  V30 2177 H 205.999 5.1203 -3.12962 0
M  V30 2178 H 207.069 3.70676 -3.12614 0
M  V30 2179 N 208.412 0.89855 1.29475 0
M  V30 2180 C 209.344 0.332726 2.26772 0
M  V30 2181 C 210.357 -0.520323 1.54261 0
M  V30 2182 O 211.546 -0.337668 1.75277 0
M  V30 2183 C 208.646 -0.544334 3.345 0
M  V30 2184 C 207.819 0.282728 4.36485 0
M  V30 2185 C 206.878 -0.526982 5.23555 0
M  V30 2186 O 205.904 0.0551165 5.69173 0
M  V30 2187 N 207.106 -1.83331 5.5079 0
M  V30 2188 H 209.871 1.16897 2.75962 0
M  V30 2189 H 207.432 0.762919 1.42798 0
M  V30 2190 H 209.424 -1.09239 3.89678 0
M  V30 2191 H 207.994 -1.28127 2.85136 0
M  V30 2192 H 207.214 1.01221 3.80983 0
M  V30 2193 H 208.502 0.84918 5.01664 0
M  V30 2194 H 207.9 -2.32898 5.15534 0
M  V30 2195 H 206.457 -2.32852 6.08788 0
M  V30 2196 N 209.89 -1.43072 0.660911 0
M  V30 2197 C 210.84 -2.27948 -0.04847 0
M  V30 2198 C 211.824 -1.40325 -0.787246 0
M  V30 2199 O 213.016 -1.63893 -0.668446 0
M  V30 2200 C 210.145 -3.28143 -1.00881 0
M  V30 2201 C 209.231 -4.23252 -0.268108 0
M  V30 2202 N 209.622 -5.00656 0.719528 0
M  V30 2203 C 207.92 -4.43092 -0.508493 0
M  V30 2204 C 208.621 -5.70019 1.15988 0
M  V30 2205 N 207.597 -5.41364 0.492584 0
M  V30 2206 H 211.399 -2.85213 0.709279 0
M  V30 2207 H 208.913 -1.54869 0.488822 0
M  V30 2208 H 210.91 -3.87736 -1.53188 0
M  V30 2209 H 209.57 -2.7244 -1.76654 0
M  V30 2210 H 210.581 -5.06115 1.09855 0
M  V30 2211 H 207.258 -3.98449 -1.24679 0
M  V30 2212 H 208.648 -6.4214 1.97751 0
M  V30 2213 N 211.368 -0.403325 -1.52352 0
M  V30 2214 C 212.318 0.442244 -2.2367 0
M  V30 2215 C 213.302 1.01823 -1.24583 0
M  V30 2216 O 214.494 0.942005 -1.49851 0
M  V30 2217 C 211.623 1.5615 -3.05732 0
M  V30 2218 C 210.709 0.996575 -4.12225 0
M  V30 2219 N 211.1 0.157804 -5.05554 0
M  V30 2220 C 209.398 1.26767 -4.27605 0
M  V30 2221 C 210.099 -0.155853 -5.81491 0
M  V30 2222 N 209.075 0.451775 -5.41719 0
M  V30 2223 H 212.877 -0.204964 -2.93184 0
M  V30 2224 H 210.391 -0.213418 -1.60992 0
M  V30 2225 H 212.388 2.17981 -3.55373 0
M  V30 2226 H 211.048 2.21139 -2.37755 0
M  V30 2227 H 212.059 -0.206049 -5.1749 0
M  V30 2228 H 208.736 1.91757 -3.70858 0
M  V30 2229 H 210.126 -0.836329 -6.66675 0
M  V30 2230 N 212.846 1.57033 -0.133567 0
M  V30 2231 C 213.809 2.14897 0.796995 0
M  V30 2232 C 214.809 1.0874 1.18458 0
M  V30 2233 O 215.999 1.34446 1.1077 0
M  V30 2234 C 213.131 2.70112 2.07973 0
M  V30 2235 H 214.324 2.98457 0.293873 0
M  V30 2236 H 211.877 1.55871 0.115787 0
M  V30 2237 H 212.612 1.9018 2.62682 0
M  V30 2238 H 212.397 3.47764 1.81115 0
M  V30 2239 H 213.887 3.14738 2.74462 0
M  V30 2240 N 214.325 -0.140222 1.56975 0
M  V30 2241 C 215.553 -0.866437 1.87884 0
M  V30 2242 C 215.968 -1.74428 0.722517 0
M  V30 2243 O 215.325 -1.79891 -0.30749 0
M  V30 2244 C 215.376 -1.71753 3.18093 0
M  V30 2245 O 215.097 -0.875056 4.29272 0
M  V30 2246 C 216.598 -2.55074 3.62563 0
M  V30 2247 H 213.818 -0.25019 0.622612 0
M  V30 2248 H 216.362 -0.130977 2.0408 0
M  V30 2249 H 214.517 -2.40598 3.03631 0
M  V30 2250 H 214.931 -1.46002 5.03769 0
M  V30 2251 H 216.405 -3.10356 4.5649 0
M  V30 2252 H 216.882 -3.31434 2.88181 0
M  V30 2253 H 217.488 -1.91509 3.79743 0
M  V30 2254 N 215.803 -1.52179 -0.40978 0
M  V30 2255 C 217.052 -1.65434 -1.15388 0
M  V30 2256 C 217.365 -0.390056 -1.91671 0
M  V30 2257 O 218.571 -0.402399 -2.68501 0
M  V30 2258 C 217.027 -2.92279 -2.10003 0
M  V30 2259 C 216.635 -4.25813 -1.39239 0
M  V30 2260 C 218.379 -3.14897 -2.84675 0
M  V30 2261 C 216.286 -5.43782 -2.32498 0
M  V30 2262 H 215.216 -0.616267 -0.434432 0
M  V30 2263 H 217.867 -1.78666 -0.418401 0
M  V30 2264 H 216.249 -2.72744 -2.871 0
M  V30 2265 H 217.423 -4.55828 -0.675099 0
M  V30 2266 H 215.738 -4.09292 -0.766097 0
M  V30 2267 H 218.335 -4.0021 -3.54593 0
M  V30 2268 H 218.678 -2.29103 -3.47588 0
M  V30 2269 H 219.211 -3.34901 -2.14677 0
M  V30 2270 H 215.95 -6.3192 -1.74233 0
M  V30 2271 H 215.47 -5.18106 -3.02201 0
M  V30 2272 H 217.149 -5.76834 -2.93038 0
M  V30 2273 N 217.281 0.66697 -1.42791 0
M  V30 2274 C 218.528 1.42699 -1.43678 0
M  V30 2275 C 218.856 1.94419 -0.0560425 0
M  V30 2276 O 218.111 1.7182 0.936831 0
M  V30 2277 C 218.41 2.6349 -2.4147 0
M  V30 2278 C 218.076 2.30267 -3.8767 0
M  V30 2279 C 216.738 2.20918 -4.27491 0
M  V30 2280 C 219.09 2.03435 -4.79858 0
M  V30 2281 C 216.418 1.82873 -5.57471 0
M  V30 2282 C 218.77 1.66892 -6.10188 0
M  V30 2283 C 217.434 1.56058 -6.49001 0
M  V30 2284 H 216.704 0.522171 -0.525755 0
M  V30 2285 H 219.351 0.759785 -1.75783 0
M  V30 2286 H 217.656 3.35279 -2.0272 0
M  V30 2287 H 219.353 3.21684 -2.39417 0
M  V30 2288 H 215.943 2.38449 -3.56146 0
M  V30 2289 H 220.127 2.09586 -4.49875 0
M  V30 2290 H 215.383 1.7306 -5.86396 0
M  V30 2291 H 219.557 1.45157 -6.81104 0
M  V30 2292 H 217.184 1.26348 -7.49627 0
M  V30 2293 N 218.759 1.29093 0.90403 0
M  V30 2294 C 219.689 1.16401 2.02418 0
M  V30 2295 C 220.67 0.0593085 1.69997 0
M  V30 2296 O 221.855 0.238021 1.92736 0
M  V30 2297 C 218.985 0.835233 3.37107 0
M  V30 2298 C 217.939 1.89578 3.83724 0
M  V30 2299 C 217.265 1.42041 5.15489 0
M  V30 2300 C 218.565 3.30394 4.04521 0
M  V30 2301 H 220.259 2.10109 2.13295 0
M  V30 2302 H 217.805 1.01157 1.02486 0
M  V30 2303 H 219.758 0.733169 4.14973 0
M  V30 2304 H 218.482 -0.137543 3.2631 0
M  V30 2305 H 217.141 1.98715 3.08071 0
M  V30 2306 H 216.789 0.436426 5.01103 0
M  V30 2307 H 216.489 2.12964 5.4765 0
M  V30 2308 H 218.013 1.33176 5.959 0
M  V30 2309 H 219.427 3.24123 4.72882 0
M  V30 2310 H 217.824 3.99237 4.48029 0
M  V30 2311 H 218.894 3.73692 3.09002 0
M  V30 2312 N 220.237 -1.11381 1.11499 0
M  V30 2313 C 221.169 -2.17207 0.731704 0
M  V30 2314 C 222.182 -1.61066 -0.236957 0
M  V30 2315 O 223.371 -1.78489 -0.0197591 0
M  V30 2316 C 220.471 -3.38846 0.0607624 0
M  V30 2317 C 219.644 -4.24451 1.0564 0
M  V30 2318 C 218.703 -5.24562 0.4149 0
M  V30 2319 O 217.729 -5.59071 1.069 0
M  V30 2320 N 218.931 -5.74651 -0.821943 0
M  V30 2321 H 221.696 -2.50699 1.64225 0
M  V30 2322 H 219.257 -1.26908 1.00529 0
M  V30 2323 H 221.249 -4.02911 -0.380139 0
M  V30 2324 H 219.819 -3.03411 -0.752376 0
M  V30 2325 H 219.039 -3.56833 1.67524 0
M  V30 2326 H 220.327 -4.78486 1.72998 0
M  V30 2327 H 219.725 -5.48797 -1.37252 0
M  V30 2328 H 218.282 -6.40549 -1.20582 0
M  V30 2329 N 221.715 -0.905404 -1.28997 0
M  V30 2330 C 222.961 -0.535039 -1.95615 0
M  V30 2331 C 223.294 0.917404 -1.71165 0
M  V30 2332 O 222.569 1.65123 -1.02785 0
M  V30 2333 C 222.852 -0.834918 -3.50287 0
M  V30 2334 C 222.705 -2.33948 -3.84172 0
M  V30 2335 C 224.024 -0.325318 -4.38896 0
M  V30 2336 H 221.143 -0.195861 -0.710498 0
M  V30 2337 H 223.785 -1.13313 -1.52513 0
M  V30 2338 H 221.935 -0.325904 -3.87131 0
M  V30 2339 H 223.607 -2.91847 -3.57243 0
M  V30 2340 H 221.85 -2.79789 -3.31513 0
M  V30 2341 H 222.521 -2.49987 -4.92149 0
M  V30 2342 H 224.997 -0.761256 -4.09077 0
M  V30 2343 H 223.873 -0.564295 -5.45992 0
M  V30 2344 H 224.134 0.774144 -4.35269 0
M  V30 2345 N 223.193 1.4272 -0.668489 0
M  V30 2346 C 224.439 2.01923 -0.188419 0
M  V30 2347 C 224.772 1.52704 1.19979 0
M  V30 2348 O 224.047 0.726566 1.8042 0
M  V30 2349 C 224.33 3.59451 -0.216085 0
M  V30 2350 C 224.183 4.18864 -1.6393 0
M  V30 2351 C 225.502 4.37903 0.439179 0
M  V30 2352 H 222.621 0.733674 -0.0699412 0
M  V30 2353 H 225.263 1.69822 -0.852076 0
M  V30 2354 H 223.413 3.86929 0.349012 0
M  V30 2355 H 225.085 4.02362 -2.25616 0
M  V30 2356 H 223.328 3.74933 -2.18193 0
M  V30 2357 H 223.999 5.27987 -1.61039 0
M  V30 2358 H 226.475 4.16079 -0.0417878 0
M  V30 2359 H 225.351 5.47519 0.389157 0
M  V30 2360 H 225.612 4.15303 1.51577 0
M  V30 2361 N 224.671 0.411399 1.52136 0
M  V30 2362 C 225.948 -0.222308 1.94333 0
M  V30 2363 C 226.328 -1.6242 1.34844 0
M  V30 2364 O 225.676 -2.22384 0.525145 0
M  V30 2365 C 225.886 -0.226345 3.48265 0
M  V30 2366 C 227.234 -0.444592 4.22266 0
M  V30 2367 O 228.258 -0.305602 3.54887 0
M  V30 2368 O 227.117 -0.718749 5.41753 0
M  V30 2369 H 224.211 -0.143907 0.814383 0
M  V30 2370 H 226.757 0.467506 1.63133 0
M  V30 2371 H 225.529 0.75475 3.83952 0
M  V30 2372 H 225.152 -0.960163 3.85832 0
M  V30 2373 N 226.149 -1.5696 0.141893 0
M  V30 2374 C 227.565 -1.58151 -0.21456 0
M  V30 2375 C 227.765 -1.1559 -1.65049 0
M  V30 2376 O 226.821 -0.853832 -2.37626 0
M  V30 2377 C 228.134 -3.00674 0.0395576 0
M  V30 2378 C 229.682 -3.1299 -0.0245529 0
M  V30 2379 C 230.157 -4.57554 0.202167 0
M  V30 2380 N 231.648 -4.62961 0.148919 0
M  V30 2381 C 232.383 -5.7262 0.298924 0
M  V30 2382 N 231.879 -6.90947 0.50637 0
M  V30 2383 N 233.672 -5.61601 0.236886 0
M  V30 2384 H 225.823 -1.8292 1.07953 0
M  V30 2385 H 228.086 -0.846425 0.42693 0
M  V30 2386 H 227.792 -3.36183 1.03315 0
M  V30 2387 H 227.666 -3.70981 -0.682143 0
M  V30 2388 H 230.053 -2.77326 -1.00869 0
M  V30 2389 H 230.134 -2.4518 0.729396 0
M  V30 2390 H 229.778 -4.93922 1.18338 0
M  V30 2391 H 229.708 -5.23484 -0.572044 0
M  V30 2392 H 232.199 -3.77899 -0.00697015 0
M  V30 2393 H 232.512 -7.7038 0.611076 0
M  V30 2394 H 230.857 -6.92878 0.542628 0
M  V30 2395 H 234.048 -4.68039 0.0756209 0
M  V30 2396 H 234.221 -6.47015 0.357227 0
M  V30 2397 N 227.627 0.131896 -1.57047 0
M  V30 2398 C 228.557 1.16384 -2.02428 0
M  V30 2399 C 229.538 1.43936 -0.90644 0
M  V30 2400 O 230.723 1.54599 -1.17528 0
M  V30 2401 C 227.853 2.49328 -2.4177 0
M  V30 2402 C 226.807 2.36266 -3.56879 0
M  V30 2403 C 226.133 3.74057 -3.8208 0
M  V30 2404 C 227.433 1.834 -4.89042 0
M  V30 2405 H 229.127 0.786433 -2.88887 0
M  V30 2406 H 226.673 0.376855 -1.38981 0
M  V30 2407 H 228.626 3.21759 -2.7212 0
M  V30 2408 H 227.35 2.88934 -1.52266 0
M  V30 2409 H 226.009 1.66286 -3.26718 0
M  V30 2410 H 225.657 4.11125 -2.89803 0
M  V30 2411 H 225.357 3.66174 -4.59554 0
M  V30 2412 H 226.881 4.48012 -4.1487 0
M  V30 2413 H 228.295 2.45636 -5.18011 0
M  V30 2414 H 226.692 1.8637 -5.70426 0
M  V30 2415 H 227.762 0.790662 -4.7841 0
M  V30 2416 N 229.106 1.52395 0.401703 0
M  V30 2417 C 230.016 1.7917 1.51444 0
M  V30 2418 C 231.032 0.677691 1.6026 0
M  V30 2419 O 232.208 0.963909 1.76835 0
M  V30 2420 C 229.273 1.94347 2.87107 0
M  V30 2421 C 228.334 3.18257 2.88116 0
M  V30 2422 C 227.567 3.32701 4.17308 0
M  V30 2423 O 227.79 2.52238 5.11598 0
M  V30 2424 O 226.724 4.25891 4.25324 0
M  V30 2425 H 230.55 2.73633 1.31752 0
M  V30 2426 H 228.135 1.3733 0.588296 0
M  V30 2427 H 230.017 2.06109 3.67555 0
M  V30 2428 H 228.692 1.03073 3.06851 0
M  V30 2429 H 227.599 3.11947 2.06494 0
M  V30 2430 H 228.932 4.09336 2.73322 0
M  V30 2431 N 230.584 -0.659388 1.43143 0
M  V30 2432 C 231.494 -1.80167 1.50256 0
M  V30 2433 C 232.51 -1.69571 0.390106 0
M  V30 2434 O 233.686 -1.90849 0.643319 0
M  V30 2435 C 230.751 -3.16409 1.41725 0
M  V30 2436 C 229.812 -3.38848 2.63591 0
M  V30 2437 C 229.045 -4.68591 2.55458 0
M  V30 2438 O 229.268 -5.47532 1.59891 0
M  V30 2439 O 228.202 -4.92614 3.45854 0
M  V30 2440 H 232.028 -1.77121 2.46702 0
M  V30 2441 H 229.613 -0.817092 1.25076 0
M  V30 2442 H 231.495 -3.9768 1.39387 0
M  V30 2443 H 230.17 -3.20059 0.484118 0
M  V30 2444 H 229.077 -2.57366 2.71502 0
M  V30 2445 H 230.41 -3.4004 3.55856 0
M  V30 2446 N 232.062 -1.29571 -0.897171 0
M  V30 2447 C 233.308 -1.17863 -1.65034 0
M  V30 2448 C 233.641 0.268729 -1.92332 0
M  V30 2449 O 232.916 1.19378 -1.53555 0
M  V30 2450 C 233.199 -1.995 -2.99786 0
M  V30 2451 C 233.052 -3.5239 -2.79538 0
M  V30 2452 C 234.371 -1.82335 -4.00552 0
M  V30 2453 H 231.49 -0.429528 -0.598895 0
M  V30 2454 H 234.132 -1.59072 -1.03905 0
M  V30 2455 H 232.282 -1.64485 -3.51962 0
M  V30 2456 H 233.954 -3.97401 -2.34244 0
M  V30 2457 H 232.197 -3.77187 -2.14273 0
M  V30 2458 H 232.868 -4.04787 -3.75302 0
M  V30 2459 H 235.344 -2.12924 -3.57495 0
M  V30 2460 H 234.22 -2.41801 -4.92771 0
M  V30 2461 H 234.481 -0.779209 -4.35179 0
M  V30 2462 N 233.54 1.10788 -1.12088 0
M  V30 2463 C 234.817 1.79136 -0.785476 0
M  V30 2464 C 235.197 1.98246 0.725377 0
M  V30 2465 O 234.545 1.57258 1.65778 0
M  V30 2466 C 234.755 3.12375 -1.55636 0
M  V30 2467 C 236.103 3.8731 -1.74001 0
M  V30 2468 O 237.127 3.22085 -1.52117 0
M  V30 2469 O 235.986 5.04369 -2.10415 0
M  V30 2470 H 233.08 0.776226 -0.285311 0
M  V30 2471 H 235.626 1.1747 -1.2247 0
M  V30 2472 H 234.398 2.93863 -2.5838 0
M  V30 2473 H 234.021 3.81758 -1.11114 0
M  V30 2474 N 235.018 0.912232 1.28515 0
M  V30 2475 C 235.966 0.389597 2.29314 0
M  V30 2476 C 236.96 -0.517915 1.61289 0
M  V30 2477 O 238.166 -0.399328 1.75515 0
M  V30 2478 H 234.541 0.107386 0.744293 0
M  V30 2479 H 236.512 1.25286 2.70825 0
M  V30 2480 C 235.261 -0.356496 3.45868 0
M  V30 2481 H 234.584 0.332608 3.98414 0
M  V30 2482 H 236.024 -0.686851 4.184 0
M  V30 2483 C 234.483 -1.56383 2.98406 0
M  V30 2484 O 235.013 -2.66294 3.00749 0
M  V30 2485 N 233.219 -1.41029 2.54085 0
M  V30 2486 H 232.766 -0.516089 2.52377 0
M  V30 2487 H 232.724 -2.21939 2.22689 0
M  V30 2488 N 236.496 -1.42363 0.676048 0
M  V30 2489 C 237.724 -2.05859 0.207268 0
M  V30 2490 C 238.139 -1.50796 -1.13605 0
M  V30 2491 O 237.496 -0.648265 -1.70598 0
M  V30 2492 C 237.547 -3.61248 0.134975 0
M  V30 2493 O 237.268 -4.1427 1.42521 0
M  V30 2494 C 238.769 -4.41859 -0.357151 0
M  V30 2495 H 235.989 -0.663431 0.100503 0
M  V30 2496 H 238.533 -1.82479 0.923136 0
M  V30 2497 H 236.688 -3.83735 -0.531588 0
M  V30 2498 H 237.102 -5.0815 1.29939 0
M  V30 2499 H 238.576 -5.50847 -0.356641 0
M  V30 2500 H 239.053 -4.16536 -1.39264 0
M  V30 2501 H 239.659 -4.24392 0.27772 0
M  V30 2502 N 237.974 -0.419461 -1.51915 0
M  V30 2503 C 239.22 0.153166 -2.02221 0
M  V30 2504 C 239.553 1.43907 -1.30401 0
M  V30 2505 O 238.828 1.90055 -0.413438 0
M  V30 2506 C 239.111 0.390291 -3.57979 0
M  V30 2507 C 238.964 -0.913014 -4.40436 0
M  V30 2508 C 240.283 1.16794 -4.2432 0
M  V30 2509 H 237.402 0.0541924 -0.735005 0
M  V30 2510 H 240.044 -0.554955 -1.81715 0
M  V30 2511 H 238.194 0.993491 -3.75582 0
M  V30 2512 H 239.866 -1.54882 -4.34522 0
M  V30 2513 H 238.109 -1.52168 -4.06236 0
M  V30 2514 H 238.78 -0.701361 -5.47526 0
M  V30 2515 H 241.256 0.657161 -4.10878 0
M  V30 2516 H 240.132 1.3026 -5.3322 0
M  V30 2517 H 240.393 2.19132 -3.83971 0
M  V30 2518 N 239.452 1.56882 -0.150215 0
M  V30 2519 C 240.68 2.00593 0.506948 0
M  V30 2520 C 241.095 1.03033 1.58208 0
M  V30 2521 O 240.452 0.0278396 1.82479 0
M  V30 2522 C 240.503 3.44209 1.10465 0
M  V30 2523 O 240.224 4.3804 0.0724636 0
M  V30 2524 C 241.725 4.03214 1.84211 0
M  V30 2525 H 238.945 0.65795 0.13169 0
M  V30 2526 H 241.489 2.03018 -0.245743 0
M  V30 2527 H 239.644 3.42625 1.80795 0
M  V30 2528 H 240.058 5.22007 0.510793 0
M  V30 2529 H 241.532 5.0569 2.21318 0
M  V30 2530 H 242.009 3.44107 2.72923 0
M  V30 2531 H 242.615 4.08437 1.18572 0
M  V30 2532 N 240.93 -0.123565 1.57115 0
M  V30 2533 C 241.86 -1.15309 2.03042 0
M  V30 2534 C 242.841 -1.43454 0.914061 0
M  V30 2535 O 244.026 -1.53973 1.18347 0
M  V30 2536 C 241.156 -2.48043 2.43089 0
M  V30 2537 C 240.11 -2.3437 3.58127 0
M  V30 2538 C 239.436 -3.72026 3.84059 0
M  V30 2539 C 240.736 -1.80804 4.90007 0
M  V30 2540 H 242.43 -0.771102 2.893 0
M  V30 2541 H 239.976 -0.369479 1.39179 0
M  V30 2542 H 241.929 -3.20311 2.73823 0
M  V30 2543 H 240.653 -2.88122 1.53796 0
M  V30 2544 H 239.312 -1.64551 3.27595 0
M  V30 2545 H 238.96 -4.09582 2.91979 0
M  V30 2546 H 238.66 -3.63732 4.6149 0
M  V30 2547 H 240.184 -4.45806 4.1724 0
M  V30 2548 H 241.598 -2.42886 5.19307 0
M  V30 2549 H 239.995 -1.83343 5.71407 0
M  V30 2550 H 241.065 -0.76528 4.78823 0
M  V30 2551 N 242.408 -1.52605 -0.393616 0
M  V30 2552 C 243.657 -1.66649 -1.13627 0
M  V30 2553 C 243.97 -0.410364 -1.91247 0
M  V30 2554 O 245.176 -0.430854 -2.68059 0
M  V30 2555 C 243.632 -2.9449 -2.06891 0
M  V30 2556 C 243.24 -4.27266 -1.34714 0
M  V30 2557 C 244.984 -3.17899 -2.81319 0
M  V30 2558 C 242.891 -5.46217 -2.26717 0
M  V30 2559 H 241.821 -0.62084 -0.427871 0
M  V30 2560 H 244.472 -1.791 -0.399428 0
M  V30 2561 H 242.854 -2.75774 -2.84191 0
M  V30 2562 H 244.028 -4.56518 -0.626714 0
M  V30 2563 H 242.343 -4.10081 -0.722643 0
M  V30 2564 H 244.94 -4.03949 -3.50328 0
M  V30 2565 H 245.283 -2.32777 -3.45139 0
M  V30 2566 H 245.816 -3.37159 -2.11113 0
M  V30 2567 H 242.555 -6.33733 -1.67521 0
M  V30 2568 H 242.075 -5.21283 -2.96689 0
M  V30 2569 H 243.754 -5.7991 -2.86903 0
M  V30 2570 N 243.887 0.651787 -1.4349 0
M  V30 2571 C 245.136 1.40754 -1.44469 0
M  V30 2572 C 245.449 1.95463 -0.0731845 0
M  V30 2573 O 246.655 2.71471 0.0395721 0
M  V30 2574 C 245.111 2.54735 -2.5424 0
M  V30 2575 C 244.719 2.06628 -3.97504 0
M  V30 2576 C 246.463 3.32092 -2.64414 0
M  V30 2577 C 244.37 3.17829 -4.98737 0
M  V30 2578 H 243.3 0.528862 -0.53742 0
M  V30 2579 H 245.951 0.703365 -1.69485 0
M  V30 2580 H 244.333 3.2763 -2.22428 0
M  V30 2581 H 245.507 1.40734 -4.38783 0
M  V30 2582 H 243.822 1.42146 -3.91387 0
M  V30 2583 H 246.419 4.14952 -3.37223 0
M  V30 2584 H 246.762 3.80217 -1.69532 0
M  V30 2585 H 247.295 2.66279 -2.95534 0
M  V30 2586 H 244.034 2.74671 -5.95177 0
M  V30 2587 H 243.554 3.82429 -4.62069 0
M  V30 2588 H 245.233 3.82937 -5.21505 0
M  V30 2589 N 245.365 1.30045 0.890287 0
M  V30 2590 C 246.295 1.18541 2.01172 0
M  V30 2591 C 247.276 0.0773356 1.69924 0
M  V30 2592 O 248.461 0.25845 1.92473 0
M  V30 2593 C 245.591 0.870941 3.36202 0
M  V30 2594 C 244.545 1.93637 3.81692 0
M  V30 2595 C 243.871 1.475 5.13953 0
M  V30 2596 C 245.171 3.34666 4.00994 0
M  V30 2597 H 246.865 2.12359 2.11054 0
M  V30 2598 H 244.411 1.02238 1.01407 0
M  V30 2599 H 246.364 0.777141 4.14172 0
M  V30 2600 H 245.088 -0.102926 3.26438 0
M  V30 2601 H 243.747 2.01972 3.05946 0
M  V30 2602 H 243.395 0.489551 5.00612 0
M  V30 2603 H 243.095 2.1876 5.4536 0
M  V30 2604 H 244.619 1.39489 5.94454 0
M  V30 2605 H 246.033 3.2912 4.69417 0
M  V30 2606 H 244.43 4.03966 4.43769 0
M  V30 2607 H 245.5 3.76949 3.05021 0
M  V30 2608 N 246.843 -1.10192 1.12674 0
M  V30 2609 C 247.806 -2.14786 0.799979 0
M  V30 2610 C 248.806 -1.59711 -0.18685 0
M  V30 2611 O 249.996 -1.74156 0.0392558 0
M  V30 2612 C 247.128 -3.40374 0.189228 0
M  V30 2613 H 248.321 -2.45203 1.72671 0
M  V30 2614 H 245.874 -1.25597 0.930326 0
M  V30 2615 H 246.609 -3.15577 -0.747107 0
M  V30 2616 H 246.394 -3.81637 0.899766 0
M  V30 2617 H 247.884 -4.17594 -0.0228143 0
M  V30 2618 N 248.321 -0.919034 -1.28029 0
M  V30 2619 C 249.567 -0.555757 -1.95036 0
M  V30 2620 C 249.9 0.899198 -1.72128 0
M  V30 2621 O 249.175 1.64023 -1.04531 0
M  V30 2622 C 249.458 -0.872024 -3.49382 0
M  V30 2623 C 249.311 -2.3801 -3.81669 0
M  V30 2624 C 250.63 -0.37185 -4.38526 0
M  V30 2625 H 247.749 -0.203386 -0.708381 0
M  V30 2626 H 250.391 -1.14924 -1.51303 0
M  V30 2627 H 248.541 -0.366946 -3.86763 0
M  V30 2628 H 250.213 -2.9562 -3.54128 0
M  V30 2629 H 248.456 -2.83289 -3.28526 0
M  V30 2630 H 249.127 -2.55192 -4.8947 0
M  V30 2631 H 251.603 -0.804602 -4.08247 0
M  V30 2632 H 250.479 -0.622173 -5.45362 0
M  V30 2633 H 250.74 0.727934 -4.36066 0
M  V30 2634 N 249.799 1.42003 -0.683588 0
M  V30 2635 C 251.045 2.01712 -0.209825 0
M  V30 2636 C 251.378 1.53968 1.18353 0
M  V30 2637 O 250.653 0.745661 1.79639 0
M  V30 2638 C 250.936 3.59202 -0.254197 0
M  V30 2639 C 250.789 4.17102 -1.68363 0
M  V30 2640 C 252.108 4.38344 0.392709 0
M  V30 2641 H 249.227 0.732891 -0.0777189 0
M  V30 2642 H 251.869 1.68909 -0.87004 0
M  V30 2643 H 250.019 3.87278 0.307954 0
M  V30 2644 H 251.691 3.99946 -2.29871 0
M  V30 2645 H 249.934 3.72597 -2.22157 0
M  V30 2646 H 250.605 5.26249 -1.6663 0
M  V30 2647 H 253.081 4.16011 -0.0859162 0
M  V30 2648 H 251.957 5.47901 0.331063 0
M  V30 2649 H 252.218 4.16887 1.47164 0
M  V30 2650 N 251.277 0.427512 1.51691 0
M  V30 2651 C 252.525 -0.141948 2.01601 0
M  V30 2652 C 252.846 -1.44067 1.31414 0
M  V30 2653 O 252.116 -1.90763 0.445658 0
M  V30 2654 H 250.696 -0.0554468 0.744939 0
M  V30 2655 H 253.358 0.567968 1.86441 0
M  V30 2656 H 252.454 -0.324913 3.10404 0
M  V30 2657 N 252.755 -1.56801 0.158532 0
M  V30 2658 C 254.003 -1.96102 -0.488712 0
M  V30 2659 C 254.324 -1.04498 -1.64636 0
M  V30 2660 O 253.594 -0.108783 -1.95598 0
M  V30 2661 H 252.174 -0.724102 -0.183535 0
M  V30 2662 H 254.836 -1.93457 0.236728 0
M  V30 2663 H 253.932 -3.00097 -0.857219 0
M  V30 2664 N 254.233 0.115231 -1.57178 0
M  V30 2665 C 255.479 0.82357 -1.85325 0
M  V30 2666 C 255.812 1.79349 -0.744814 0
M  V30 2667 O 255.087 1.92899 0.249024 0
M  V30 2668 C 255.37 1.57014 -3.24066 0
M  V30 2669 C 255.223 0.619565 -4.45513 0
M  V30 2670 C 256.542 2.52545 -3.60429 0
M  V30 2671 H 253.661 0.297948 -0.674089 0
M  V30 2672 H 256.303 0.0877138 -1.89797 0
M  V30 2673 H 254.453 2.19742 -3.20383 0
M  V30 2674 H 256.125 0.000837639 -4.613 0
M  V30 2675 H 254.368 -0.0686174 -4.33746 0
M  V30 2676 H 255.039 1.17866 -5.3927 0
M  V30 2677 H 257.515 1.9992 -3.64926 0
M  V30 2678 H 256.391 3.01811 -4.58477 0
M  V30 2679 H 256.652 3.35383 -2.88047 0
M  V30 2680 N 255.711 1.52812 0.385517 0
M  V30 2681 C 256.96 1.67249 1.12741 0
M  V30 2682 C 257.273 0.4205 1.91027 0
M  V30 2683 O 258.479 0.445064 2.67827 0
M  V30 2684 C 256.935 2.95583 2.05326 0
M  V30 2685 C 256.543 4.27974 1.32447 0
M  V30 2686 C 258.287 3.19386 2.7963 0
M  V30 2687 C 256.194 5.47412 2.23818 0
M  V30 2688 H 255.124 0.6231 0.424573 0
M  V30 2689 H 257.775 1.79309 0.389924 0
M  V30 2690 H 256.157 2.77277 2.82725 0
M  V30 2691 H 257.331 4.56844 0.602495 0
M  V30 2692 H 255.646 4.10459 0.700885 0
M  V30 2693 H 258.243 4.05801 3.48181 0
M  V30 2694 H 258.586 2.34604 3.43899 0
M  V30 2695 H 259.119 3.38274 2.09322 0
M  V30 2696 H 255.858 6.34612 1.64157 0
M  V30 2697 H 255.378 5.22849 2.93921 0
M  V30 2698 H 257.057 5.81423 2.83824 0
M  V30 2699 N 257.189 -0.644168 1.43834 0
M  V30 2700 C 258.437 -1.40117 1.45642 0
M  V30 2701 C 258.758 -1.94814 0.0852413 0
M  V30 2702 O 258.028 -1.74988 -0.880688 0
M  V30 2703 H 256.608 -0.52005 0.536243 0
M  V30 2704 H 259.27 -0.7591 1.7951 0
M  V30 2705 H 258.366 -2.23902 2.17427 0
M  V30 2706 N 258.668 -1.30515 -0.883378 0
M  V30 2707 C 259.598 -1.19607 -2.00541 0
M  V30 2708 C 260.579 -0.086346 -1.69881 0
M  V30 2709 O 261.764 -0.268654 -1.92333 0
M  V30 2710 C 258.894 -0.888758 -3.35736 0
M  V30 2711 C 257.848 -1.95659 -3.8066 0
M  V30 2712 C 257.174 -1.50224 -5.13164 0
M  V30 2713 C 258.474 -3.36788 -3.99213 0
M  V30 2714 H 260.168 -2.13476 -2.09925 0
M  V30 2715 H 257.714 -1.02775 -1.00863 0
M  V30 2716 H 259.667 -0.799094 -4.13754 0
M  V30 2717 H 258.391 0.0856125 -3.26488 0
M  V30 2718 H 257.05 -2.03591 -3.04871 0
M  V30 2719 H 256.698 -0.516092 -5.00345 0
M  V30 2720 H 256.398 -2.2165 -5.44192 0
M  V30 2721 H 257.922 -1.42639 -5.93706 0
M  V30 2722 H 259.336 -3.31605 -4.67665 0
M  V30 2723 H 257.733 -4.06314 -4.41621 0
M  V30 2724 H 258.803 -3.78561 -3.03017 0
M  V30 2725 N 260.146 1.09593 -1.13257 0
M  V30 2726 C 261.076 2.18214 -0.830946 0
M  V30 2727 C 262.057 1.68812 0.208966 0
M  V30 2728 O 263.242 1.9408 0.0682666 0
M  V30 2729 C 260.372 3.46051 -0.294296 0
M  V30 2730 C 259.326 4.08778 -1.26826 0
M  V30 2731 C 258.652 5.31419 -0.591449 0
M  V30 2732 C 259.952 4.51476 -2.62615 0
M  V30 2733 H 261.646 2.43703 -1.73923 0
M  V30 2734 H 259.192 1.17128 -0.837675 0
M  V30 2735 H 261.145 4.2134 -0.0709606 0
M  V30 2736 H 259.869 3.20079 0.649366 0
M  V30 2737 H 258.528 3.35505 -1.47756 0
M  V30 2738 H 258.176 5.01727 0.357633 0
M  V30 2739 H 257.876 5.74341 -1.24123 0
M  V30 2740 H 259.4 6.09433 -0.377355 0
M  V30 2741 H 260.814 5.17999 -2.45663 0
M  V30 2742 H 259.211 5.05277 -3.23752 0
M  V30 2743 H 260.281 3.63962 -3.20406 0
M  V30 2744 N 261.624 0.925811 1.2754 0
M  V30 2745 C 262.873 0.561084 1.93739 0
M  V30 2746 C 263.186 -0.901685 1.73577 0
M  V30 2747 O 264.392 -1.37511 2.34101 0
M  V30 2748 C 262.848 0.952668 3.47062 0
M  V30 2749 C 262.456 2.43599 3.75983 0
M  V30 2750 C 264.2 0.659103 4.19352 0
M  V30 2751 C 262.107 2.76707 5.22673 0
M  V30 2752 H 261.037 0.206122 0.725279 0
M  V30 2753 H 263.688 1.12637 1.44863 0
M  V30 2754 H 262.07 0.316053 3.94737 0
M  V30 2755 H 263.244 3.12035 3.39073 0
M  V30 2756 H 261.559 2.70125 3.16893 0
M  V30 2757 H 264.156 0.882985 5.27359 0
M  V30 2758 H 264.499 -0.403607 4.14339 0
M  V30 2759 H 265.032 1.25473 3.77494 0
M  V30 2760 H 261.771 3.8188 5.32774 0
M  V30 2761 H 261.291 2.12919 5.60737 0
M  V30 2762 H 262.97 2.6435 5.90532 0
M  V30 2763 N 263.102 -1.41638 0.69111 0
M  V30 2764 C 264.032 -2.3347 0.037248 0
M  V30 2765 C 265.013 -1.51575 -0.771947 0
M  V30 2766 O 266.198 -1.80126 -0.72582 0
M  V30 2767 C 263.328 -3.35354 -0.903064 0
M  V30 2768 C 262.282 -4.27526 -0.201288 0
M  V30 2769 C 261.608 -5.19747 -1.25565 0
M  V30 2770 C 262.908 -5.13959 0.929689 0
M  V30 2771 H 264.602 -2.88397 0.804227 0
M  V30 2772 H 262.148 -1.38669 0.388189 0
M  V30 2773 H 264.101 -3.98519 -1.36969 0
M  V30 2774 H 262.825 -2.78767 -1.70166 0
M  V30 2775 H 261.484 -3.65779 0.245265 0
M  V30 2776 H 261.132 -4.59479 -2.04666 0
M  V30 2777 H 260.832 -5.8225 -0.791128 0
M  V30 2778 H 262.356 -5.85789 -1.72288 0
M  V30 2779 H 263.77 -5.70718 0.543546 0
M  V30 2780 H 262.167 -5.85379 1.32103 0
M  V30 2781 H 263.237 -4.51389 1.77133 0
M  V30 2782 N 264.58 -0.43555 -1.51462 0
M  V30 2783 C 265.829 0.133007 -2.01261 0
M  V30 2784 C 266.142 1.43942 -1.32439 0
M  V30 2785 O 267.348 2.09081 -1.73198 0
M  V30 2786 C 265.804 0.287581 -3.58749 0
M  V30 2787 C 265.412 -1.00829 -4.36506 0
M  V30 2788 C 267.156 0.810004 -4.167 0
M  V30 2789 C 265.063 -0.819454 -5.85695 0
M  V30 2790 H 263.993 0.0534822 -0.752101 0
M  V30 2791 H 266.644 -0.565038 -1.74584 0
M  V30 2792 H 265.026 1.04859 -3.81865 0
M  V30 2793 H 266.2 -1.77749 -4.25138 0
M  V30 2794 H 264.515 -1.45911 -3.89999 0
M  V30 2795 H 267.112 0.967743 -5.2587 0
M  V30 2796 H 267.455 1.79196 -3.75758 0
M  V30 2797 H 267.988 0.107357 -3.97655 0
M  V30 2798 H 264.727 -1.77374 -6.31046 0
M  V30 2799 H 264.247 -0.0900208 -5.99732 0
M  V30 2800 H 265.926 -0.471949 -6.45276 0
M  V30 2801 N 266.058 1.56714 -0.166846 0
M  V30 2802 C 266.988 2.20754 0.760913 0
M  V30 2803 C 267.969 1.16178 1.24244 0
M  V30 2804 O 269.154 1.44592 1.29641 0
M  V30 2805 C 266.284 2.84478 1.99223 0
M  V30 2806 C 265.238 3.95053 1.64672 0
M  V30 2807 C 264.564 4.45805 2.95232 0
M  V30 2808 C 265.864 5.14865 0.878155 0
M  V30 2809 H 267.558 2.98537 0.22713 0
M  V30 2810 H 265.104 1.43596 0.107805 0
M  V30 2811 H 267.057 3.27951 2.64624 0
M  V30 2812 H 265.781 2.04056 2.55007 0
M  V30 2813 H 264.44 3.52228 1.01641 0
M  V30 2814 H 264.088 3.62181 3.49047 0
M  V30 2815 H 263.788 5.204 2.7287 0
M  V30 2816 H 265.312 4.91962 3.6167 0
M  V30 2817 H 266.726 5.55059 1.43466 0
M  V30 2818 H 265.123 5.95348 0.753738 0
M  V30 2819 H 266.193 4.84735 -0.126377 0
M  V30 2820 N 267.536 -0.106894 1.57237 0
M  V30 2821 C 268.466 -1.13148 2.04254 0
M  V30 2822 C 269.447 -1.42476 0.929224 0
M  V30 2823 O 270.632 -1.52709 1.19973 0
M  V30 2824 C 267.762 -2.4545 2.45706 0
M  V30 2825 C 266.716 -2.30558 3.60592 0
M  V30 2826 C 266.042 -3.67931 3.87983 0
M  V30 2827 C 267.342 -1.75597 4.91897 0
M  V30 2828 H 269.036 -0.740374 2.90101 0
M  V30 2829 H 266.582 -0.354696 1.39563 0
M  V30 2830 H 268.535 -3.17389 2.77205 0
M  V30 2831 H 267.259 -2.86475 1.56843 0
M  V30 2832 H 265.918 -1.61067 3.29322 0
M  V30 2833 H 265.566 -4.06462 2.96306 0
M  V30 2834 H 265.266 -3.58817 4.65322 0
M  V30 2835 H 266.79 -4.41356 4.21945 0
M  V30 2836 H 268.204 -2.37364 5.21854 0
M  V30 2837 H 266.601 -1.77272 5.73319 0
M  V30 2838 H 267.671 -0.714451 4.79608 0
M  V30 2839 N 269.014 -1.53014 -0.377408 0
M  V30 2840 C 270.263 -1.67845 -1.11853 0
M  V30 2841 C 270.576 -0.430625 -1.90801 0
M  V30 2842 O 271.782 -0.459261 -2.67587 0
M  V30 2843 C 270.238 -2.96668 -2.03756 0
M  V30 2844 C 269.846 -4.28671 -1.30175 0
M  V30 2845 C 271.59 -3.20865 -2.77932 0
M  V30 2846 C 269.497 -5.48591 -2.20911 0
M  V30 2847 H 268.427 -0.625343 -0.421263 0
M  V30 2848 H 271.078 -1.79514 -0.380409 0
M  V30 2849 H 269.46 -2.78773 -2.8125 0
M  V30 2850 H 270.634 -4.57157 -0.578259 0
M  V30 2851 H 268.949 -4.10825 -0.679108 0
M  V30 2852 H 271.546 -4.07642 -3.46024 0
M  V30 2853 H 271.889 -2.36424 -3.4265 0
M  V30 2854 H 272.422 -3.39379 -2.07525 0
M  V30 2855 H 269.161 -6.35474 -1.6079 0
M  V30 2856 H 268.681 -5.244 -2.91144 0
M  V30 2857 H 270.36 -5.8292 -2.80736 0
M  V30 2858 N 270.492 0.636531 -1.44174 0
M  V30 2859 C 271.439 1.74875 -1.50624 0
M  V30 2860 C 272.409 1.62275 -0.35442 0
M  V30 2861 O 273.594 1.82276 -0.563908 0
M  V30 2862 C 270.734 3.13102 -1.45125 0
M  V30 2863 C 269.847 3.36717 -2.7064 0
M  V30 2864 C 268.982 4.64885 -2.57013 0
M  V30 2865 C 268.021 4.8166 -3.77717 0
M  V30 2866 N 267.158 6.01101 -3.62798 0
M  V30 2867 H 271.998 1.68697 -2.45653 0
M  V30 2868 H 269.535 0.823004 -1.21922 0
M  V30 2869 H 271.493 3.93034 -1.39929 0
M  V30 2870 H 270.123 3.18308 -0.536671 0
M  V30 2871 H 269.175 2.50763 -2.86046 0
M  V30 2872 H 270.487 3.44993 -3.60252 0
M  V30 2873 H 269.641 5.52969 -2.49619 0
M  V30 2874 H 268.38 4.58957 -1.64953 0
M  V30 2875 H 267.385 3.92007 -3.85501 0
M  V30 2876 H 268.61 4.89406 -4.70807 0
M  V30 2877 H 266.556 5.96273 -2.73486 0
M  V30 2878 H 266.473 6.10409 -4.46023 0
M  V30 2879 H 267.741 6.91761 -3.59286 0
M  V30 2880 N 271.97 1.30982 0.876444 0
M  V30 2881 C 272.917 1.18085 1.98304 0
M  V30 2882 C 273.887 0.0682263 1.6596 0
M  V30 2883 O 275.072 0.239937 1.89285 0
M  V30 2884 C 272.212 0.887475 3.33493 0
M  V30 2885 C 271.325 2.08281 3.78475 0
M  V30 2886 C 270.46 1.72678 5.0235 0
M  V30 2887 C 269.499 2.88657 5.39762 0
M  V30 2888 N 268.636 2.53292 6.54819 0
M  V30 2889 H 273.476 2.1275 2.08666 0
M  V30 2890 H 271.013 1.05839 1.02159 0
M  V30 2891 H 272.971 0.697961 4.1132 0
M  V30 2892 H 271.601 -0.022315 3.22792 0
M  V30 2893 H 270.653 2.3833 2.96484 0
M  V30 2894 H 271.965 2.95108 4.02135 0
M  V30 2895 H 271.119 1.50151 5.87826 0
M  V30 2896 H 269.858 0.830327 4.8058 0
M  V30 2897 H 268.863 3.1184 4.52809 0
M  V30 2898 H 270.088 3.79002 5.63502 0
M  V30 2899 H 268.034 1.66163 6.34607 0
M  V30 2900 H 267.951 3.3365 6.7839 0
M  V30 2901 H 269.219 2.34143 7.43503 0
M  V30 2902 N 273.449 -1.08991 1.13837 0
M  V30 2903 C 274.379 -2.17771 0.842507 0
M  V30 2904 C 275.36 -1.6892 -0.20001 0
M  V30 2905 O 276.545 -1.94113 -0.0579731 0
M  V30 2906 C 273.675 -3.4589 0.312644 0
M  V30 2907 C 272.629 -4.08099 1.28992 0
M  V30 2908 C 271.955 -5.31098 0.619623 0
M  V30 2909 C 273.255 -4.50077 2.65005 0
M  V30 2910 H 274.949 -2.42777 1.75213 0
M  V30 2911 H 272.495 -1.16682 0.843875 0
M  V30 2912 H 274.448 -4.21297 0.0933043 0
M  V30 2913 H 273.172 -3.20419 -0.632382 0
M  V30 2914 H 271.831 -3.34717 1.49533 0
M  V30 2915 H 271.479 -5.0191 -0.33102 0
M  V30 2916 H 271.179 -5.73674 1.27167 0
M  V30 2917 H 272.703 -6.09224 0.409669 0
M  V30 2918 H 274.117 -5.16688 2.48407 0
M  V30 2919 H 272.514 -5.03553 3.26427 0
M  V30 2920 H 273.584 -3.62257 3.22332 0
M  V30 2921 N 274.927 -0.932562 -1.27047 0
M  V30 2922 C 276.176 -0.571351 -1.93439 0
M  V30 2923 C 276.489 0.892467 -1.74053 0
M  V30 2924 O 277.695 1.36267 -2.34826 0
M  V30 2925 C 276.151 -0.97106 -3.46552 0
M  V30 2926 C 275.759 -2.4559 -3.74686 0
M  V30 2927 C 277.503 -0.681333 -4.18997 0
M  V30 2928 C 275.41 -2.79475 -5.21198 0
M  V30 2929 H 274.34 -0.209966 -0.724176 0
M  V30 2930 H 276.991 -1.13403 -1.44263 0
M  V30 2931 H 275.373 -0.336983 -3.94564 0
M  V30 2932 H 276.547 -3.13829 -3.37414 0
M  V30 2933 H 274.862 -2.71802 -3.15456 0
M  V30 2934 H 277.459 -0.910939 -5.26883 0
M  V30 2935 H 277.802 0.381628 -4.14547 0
M  V30 2936 H 278.335 -1.27473 -3.76823 0
M  V30 2937 H 275.074 -3.847 -5.30741 0
M  V30 2938 H 274.594 -2.1589 -5.596 0
M  V30 2939 H 276.273 -2.67478 -5.89122 0
M  V30 2940 N 276.405 1.4127 -0.698611 0
M  V30 2941 C 277.654 2.00408 -0.227949 0
M  V30 2942 C 277.967 1.55981 1.18023 0
M  V30 2943 O 279.173 2.07699 1.74852 0
M  V30 2944 C 277.629 3.58129 -0.356636 0
M  V30 2945 C 277.237 4.11536 -1.77037 0
M  V30 2946 C 278.981 4.24466 0.0540969 0
M  V30 2947 C 276.888 5.61701 -1.85055 0
M  V30 2948 H 275.818 0.749586 -0.0814657 0
M  V30 2949 H 278.469 1.61713 -0.867249 0
M  V30 2950 H 276.851 3.94442 0.350965 0
M  V30 2951 H 278.025 3.86636 -2.50698 0
M  V30 2952 H 276.34 3.57736 -2.13105 0
M  V30 2953 H 278.937 5.34698 0.0146723 0
M  V30 2954 H 279.28 4.01687 1.09332 0
M  V30 2955 H 279.813 3.93198 -0.603337 0
M  V30 2956 H 276.552 5.89312 -2.8704 0
M  V30 2957 H 276.072 5.88519 -1.15783 0
M  V30 2958 H 277.751 6.26524 -1.61484 0
M  V30 2959 N 277.883 0.443576 1.51229 0
M  V30 2960 C 279.13 -0.120796 2.02139 0
M  V30 2961 C 279.458 -1.42166 1.32736 0
M  V30 2962 O 278.713 -1.90849 0.43301 0
M  V30 2963 C 279.012 -0.380579 3.55368 0
M  V30 2964 C 278.678 0.83523 4.43097 0
M  V30 2965 C 277.34 1.16864 4.66794 0
M  V30 2966 C 279.692 1.64601 4.94526 0
M  V30 2967 C 277.02 2.31339 5.39165 0
M  V30 2968 C 279.372 2.78181 5.68153 0
M  V30 2969 C 278.036 3.11969 5.90112 0
M  V30 2970 H 277.306 -0.0442023 0.73968 0
M  V30 2971 H 279.953 0.592046 1.82118 0
M  V30 2972 H 278.258 -1.17538 3.73754 0
M  V30 2973 H 279.955 -0.830777 3.923 0
M  V30 2974 H 276.545 0.565437 4.24854 0
M  V30 2975 H 280.729 1.40163 4.76097 0
M  V30 2976 H 275.985 2.57823 5.5438 0
M  V30 2977 H 280.159 3.41371 6.06992 0
M  V30 2978 H 277.786 4.00784 6.45969 0
M  V30 2979 N 279.361 -1.56624 0.175154 0
M  V30 2980 C 280.61 -1.96173 -0.468921 0
M  V30 2981 C 280.923 -1.06401 -1.64128 0
M  V30 2982 O 282.129 -1.35648 -2.35185 0
M  V30 2983 C 280.585 -3.48833 -0.885633 0
M  V30 2984 C 280.193 -4.47237 0.261343 0
M  V30 2985 C 281.937 -3.97194 -1.49791 0
M  V30 2986 C 279.844 -5.9114 -0.175214 0
M  V30 2987 H 278.774 -0.732455 -0.178958 0
M  V30 2988 H 281.425 -1.81591 0.263997 0
M  V30 2989 H 279.807 -3.58848 -1.67464 0
M  V30 2990 H 280.981 -4.4894 1.03871 0
M  V30 2991 H 279.296 -4.08956 0.783827 0
M  V30 2992 H 281.893 -5.02167 -1.83665 0
M  V30 2993 H 282.236 -3.40351 -2.39722 0
M  V30 2994 H 282.769 -3.90212 -0.773267 0
M  V30 2995 H 279.508 -6.51865 0.689414 0
M  V30 2996 H 279.028 -5.92735 -0.91786 0
M  V30 2997 H 280.707 -6.44044 -0.617792 0
M  V30 2998 N 280.839 0.0985539 -1.57292 0
M  V30 2999 C 281.769 1.12064 -2.04851 0
M  V30 3000 C 282.75 1.41981 -0.936767 0
M  V30 3001 O 283.935 1.52071 -1.20781 0
M  V30 3002 C 281.065 2.44144 -2.47004 0
M  V30 3003 C 280.019 2.28643 -3.6181 0
M  V30 3004 C 279.345 3.65869 -3.89929 0
M  V30 3005 C 280.645 1.72986 -4.92822 0
M  V30 3006 H 282.339 0.724979 -2.9049 0
M  V30 3007 H 279.885 0.34729 -1.39749 0
M  V30 3008 H 281.838 3.15914 -2.78884 0
M  V30 3009 H 280.562 2.85639 -1.5836 0
M  V30 3010 H 279.221 1.59318 -3.30172 0
M  V30 3011 H 278.869 4.04885 -2.98458 0
M  V30 3012 H 278.569 3.56344 -4.67218 0
M  V30 3013 H 280.093 4.39112 -4.2428 0
M  V30 3014 H 281.507 2.34593 -5.23105 0
M  V30 3015 H 279.904 1.74229 -5.74251 0
M  V30 3016 H 280.974 0.689007 -4.7998 0
M  V30 3017 N 282.317 1.53212 0.369288 0
M  V30 3018 C 283.264 1.79388 1.45219 0
M  V30 3019 C 284.234 0.638059 1.53356 0
M  V30 3020 O 285.419 0.879852 1.69302 0
M  V30 3021 C 282.559 1.98623 2.82211 0
M  V30 3022 C 281.672 3.26337 2.8307 0
M  V30 3023 C 280.807 3.35779 4.11614 0
M  V30 3024 C 279.846 4.5754 4.06601 0
M  V30 3025 N 278.983 4.64155 5.26787 0
M  V30 3026 H 283.823 2.71794 1.22198 0
M  V30 3027 H 281.36 1.34642 0.592444 0
M  V30 3028 H 283.318 2.07761 3.61789 0
M  V30 3029 H 281.948 1.09558 3.03639 0
M  V30 3030 H 281 3.26171 1.95747 0
M  V30 3031 H 282.312 4.15988 2.75237 0
M  V30 3032 H 281.466 3.44208 4.99606 0
M  V30 3033 H 280.205 2.44137 4.22195 0
M  V30 3034 H 279.21 4.49215 3.16996 0
M  V30 3035 H 280.435 5.50519 3.97625 0
M  V30 3036 H 278.381 3.75413 5.3796 0
M  V30 3037 H 278.298 5.47706 5.21109 0
M  V30 3038 H 279.566 4.76863 6.16621 0
M  V30 3039 N 283.795 -0.628877 1.44509 0
M  V30 3040 C 284.742 -1.74074 1.51549 0
M  V30 3041 C 285.712 -1.62084 0.363021 0
M  V30 3042 O 286.897 -1.81975 0.573567 0
M  V30 3043 C 284.037 -3.12328 1.46784 0
M  V30 3044 C 283.15 -3.35277 2.72422 0
M  V30 3045 C 282.285 -4.63515 2.59475 0
M  V30 3046 C 281.324 -4.7965 3.80266 0
M  V30 3047 N 280.461 -5.99168 3.65981 0
M  V30 3048 H 285.301 -1.67392 2.46544 0
M  V30 3049 H 282.838 -0.816527 1.22357 0
M  V30 3050 H 284.796 -3.92286 1.42012 0
M  V30 3051 H 283.426 -3.18018 0.553544 0
M  V30 3052 H 282.478 -2.49242 2.87372 0
M  V30 3053 H 283.79 -3.43078 3.62076 0
M  V30 3054 H 282.944 -5.51638 2.52548 0
M  V30 3055 H 281.683 -4.58076 1.67384 0
M  V30 3056 H 280.688 -3.89957 3.87574 0
M  V30 3057 H 281.913 -4.86902 4.73395 0
M  V30 3058 H 279.859 -5.94814 2.76644 0
M  V30 3059 H 279.776 -6.08035 4.49254 0
M  V30 3060 H 281.044 -6.89846 3.6295 0
M  V30 3061 N 285.273 -1.31445 -0.869486 0
M  V30 3062 C 286.501 -1.24122 -1.65534 0
M  V30 3063 C 286.916 0.193387 -1.87807 0
M  V30 3064 O 286.273 1.12557 -1.43656 0
M  V30 3065 C 286.324 -1.98229 -3.02304 0
M  V30 3066 O 286.045 -3.3609 -2.81026 0
M  V30 3067 C 287.546 -1.97751 -3.96749 0
M  V30 3068 H 284.766 -0.428868 -0.516055 0
M  V30 3069 H 287.31 -1.73328 -1.08525 0
M  V30 3070 H 285.465 -1.52782 -3.56001 0
M  V30 3071 H 285.879 -3.7383 -3.67902 0
M  V30 3072 H 287.353 -2.54114 -4.90031 0
M  V30 3073 H 287.83 -0.960137 -4.28577 0
M  V30 3074 H 288.436 -2.43079 -3.48988 0
M  V30 3075 N 286.751 1.08385 -1.14413 0
M  V30 3076 C 288.167 1.32844 -0.884563 0
M  V30 3077 C 288.367 1.95841 0.474181 0
M  V30 3078 O 287.423 2.21158 1.21842 0
M  V30 3079 C 288.736 2.22978 -2.01745 0
M  V30 3080 C 290.284 2.36458 -2.05077 0
M  V30 3081 C 290.759 3.29934 -3.1766 0
M  V30 3082 N 292.25 3.37511 -3.17239 0
M  V30 3083 C 292.985 4.09871 -4.0099 0
M  V30 3084 N 292.481 4.84936 -4.94781 0
M  V30 3085 N 294.274 4.05704 -3.89051 0
M  V30 3086 H 286.425 0.658756 -2.01926 0
M  V30 3087 H 288.688 0.352821 -0.879899 0
M  V30 3088 H 288.394 1.83934 -2.99769 0
M  V30 3089 H 288.268 3.23441 -1.94077 0
M  V30 3090 H 290.655 2.7476 -1.0766 0
M  V30 3091 H 290.736 1.35736 -2.16816 0
M  V30 3092 H 290.38 2.92352 -4.15322 0
M  V30 3093 H 290.31 4.30584 -3.03158 0
M  V30 3094 H 292.801 2.83996 -2.49308 0
M  V30 3095 H 293.114 5.37612 -5.55151 0
M  V30 3096 H 291.459 4.83988 -4.98779 0
M  V30 3097 H 294.65 3.46167 -3.15097 0
M  V30 3098 H 294.823 4.61834 -4.54547 0
M  V30 3099 N 288.23 0.939286 1.26551 0
M  V30 3100 C 289.14 0.453432 2.30176 0
M  V30 3101 C 290.156 -0.471649 1.67486 0
M  V30 3102 O 291.332 -0.35164 1.98306 0
M  V30 3103 C 288.397 -0.275326 3.45605 0
M  V30 3104 C 287.458 0.686084 4.23782 0
M  V30 3105 C 286.691 -0.00798994 5.33699 0
M  V30 3106 O 286.914 -1.22528 5.57085 0
M  V30 3107 O 285.848 0.669746 5.98162 0
M  V30 3108 H 289.674 1.31416 2.73795 0
M  V30 3109 H 287.259 0.705095 1.31715 0
M  V30 3110 H 289.141 -0.685911 4.1578 0
M  V30 3111 H 287.816 -1.11147 3.0402 0
M  V30 3112 H 286.723 1.14658 3.56096 0
M  V30 3113 H 288.056 1.48979 4.69112 0
M  V30 3114 N 289.708 -1.40897 0.706093 0
M  V30 3115 C 290.655 -2.30751 0.0474474 0
M  V30 3116 C 291.625 -1.47678 -0.76029 0
M  V30 3117 O 292.81 -1.76441 -0.726177 0
M  V30 3118 C 289.95 -3.33815 -0.875309 0
M  V30 3119 C 289.063 -4.31961 -0.0580623 0
M  V30 3120 C 288.198 -5.22093 -0.979425 0
M  V30 3121 C 287.237 -6.11902 -0.155706 0
M  V30 3122 N 286.374 -6.94482 -1.03144 0
M  V30 3123 H 291.214 -2.86513 0.819413 0
M  V30 3124 H 288.751 -1.41102 0.415783 0
M  V30 3125 H 290.709 -3.92129 -1.42446 0
M  V30 3126 H 289.339 -2.79579 -1.61356 0
M  V30 3127 H 288.391 -3.75507 0.608147 0
M  V30 3128 H 289.703 -4.95415 0.580082 0
M  V30 3129 H 288.857 -5.85292 -1.59744 0
M  V30 3130 H 287.596 -4.5889 -1.65141 0
M  V30 3131 H 286.601 -5.47742 0.475309 0
M  V30 3132 H 287.826 -6.77162 0.512635 0
M  V30 3133 H 285.772 -6.33877 -1.68924 0
M  V30 3134 H 285.689 -7.54665 -0.449108 0
M  V30 3135 H 286.957 -7.6214 -1.63593 0
M  V30 3136 N 291.186 -0.45159 -1.50991 0
M  V30 3137 C 292.133 0.352625 -2.2809 0
M  V30 3138 C 293.103 1.0044 -1.32291 0
M  V30 3139 O 294.288 1.02058 -1.6121 0
M  V30 3140 C 291.428 1.43983 -3.13629 0
M  V30 3141 C 290.541 0.804772 -4.24438 0
M  V30 3142 C 289.676 1.86822 -4.97263 0
M  V30 3143 C 288.715 1.21236 -5.99973 0
M  V30 3144 N 287.852 2.2178 -6.66152 0
M  V30 3145 H 292.692 -0.311186 -2.96371 0
M  V30 3146 H 290.229 -0.165308 -1.46168 0
M  V30 3147 H 292.187 2.08161 -3.61559 0
M  V30 3148 H 290.817 2.07307 -2.47434 0
M  V30 3149 H 289.869 0.0509129 -3.80366 0
M  V30 3150 H 291.181 0.286076 -4.97979 0
M  V30 3151 H 290.335 2.58628 -5.48813 0
M  V30 3152 H 289.074 2.42068 -4.23385 0
M  V30 3153 H 288.079 0.479828 -5.47702 0
M  V30 3154 H 289.304 0.667051 -6.75816 0
M  V30 3155 H 287.25 2.76079 -5.95077 0
M  V30 3156 H 287.167 1.74841 -7.35504 0
M  V30 3157 H 288.435 2.93026 -7.22327 0
M  V30 3158 N 292.664 1.56529 -0.183458 0
M  V30 3159 C 293.611 2.18546 0.742055 0
M  V30 3160 C 294.581 1.12912 1.2182 0
M  V30 3161 O 295.766 1.41115 1.28418 0
M  V30 3162 C 292.906 2.83977 1.96089 0
M  V30 3163 C 292.019 4.04105 1.52719 0
M  V30 3164 C 291.154 4.57427 2.70063 0
M  V30 3165 C 290.193 5.69938 2.23243 0
M  V30 3166 N 289.33 6.17717 3.33722 0
M  V30 3167 H 294.17 2.97284 0.206432 0
M  V30 3168 H 291.707 1.46823 0.0901571 0
M  V30 3169 H 293.665 3.20077 2.67594 0
M  V30 3170 H 292.295 2.07822 2.47002 0
M  V30 3171 H 291.347 3.73745 0.708436 0
M  V30 3172 H 292.659 4.85513 1.1436 0
M  V30 3173 H 291.813 4.95772 3.49708 0
M  V30 3174 H 290.552 3.75101 3.11689 0
M  V30 3175 H 289.557 5.31133 1.42048 0
M  V30 3176 H 290.782 6.54073 1.82661 0
M  V30 3177 H 288.728 5.38317 3.74902 0
M  V30 3178 H 288.645 6.94146 2.99495 0
M  V30 3179 H 289.913 6.60713 4.13616 0
M  V30 3180 N 294.142 -0.090211 1.57342 0
M  V30 3181 C 295.052 -1.12735 2.05738 0
M  V30 3182 C 296.068 -1.43557 0.983231 0
M  V30 3183 O 297.244 -1.54101 1.29672 0
M  V30 3184 C 294.309 -2.42659 2.47624 0
M  V30 3185 C 293.37 -2.18975 3.69254 0
M  V30 3186 C 292.603 -3.42704 4.09133 0
M  V30 3187 O 292.826 -4.51127 3.49057 0
M  V30 3188 O 291.76 -3.32003 5.02053 0
M  V30 3189 H 295.586 -0.746279 2.94388 0
M  V30 3190 H 293.171 -0.303064 1.46294 0
M  V30 3191 H 295.053 -3.19155 2.7517 0
M  V30 3192 H 293.728 -2.80182 1.62109 0
M  V30 3193 H 292.635 -1.40244 3.46818 0
M  V30 3194 H 293.968 -1.86342 4.55563 0
M  V30 3195 N 295.62 -1.53406 -0.361157 0
M  V30 3196 C 296.86 -1.71507 -1.11197 0
M  V30 3197 C 297.224 -0.459337 -1.86425 0
M  V30 3198 O 298.425 -0.517102 -2.63779 0
M  V30 3199 C 296.696 -2.93307 -2.0422 0
M  V30 3200 S 298.255 -3.32135 -2.86761 0
M  V30 3201 H 295.073 -0.603448 -0.375995 0
M  V30 3202 H 297.675 -1.91516 -0.392642 0
M  V30 3203 H 296.379 -3.82891 -1.47724 0
M  V30 3204 H 295.91 -2.75712 -2.80618 0
M  V30 3205 H 297.925 -2.84493 -4.06544 0
M  V30 3206 N 297.098 0.621204 -1.44841 0
M  V30 3207 C 298.028 1.74366 -1.55303 0
M  V30 3208 C 299.009 1.65199 -0.405385 0
M  V30 3209 O 300.194 1.83807 -0.626787 0
M  V30 3210 C 297.324 3.12931 -1.50637 0
M  V30 3211 C 296.278 3.36896 -2.63979 0
M  V30 3212 C 295.604 4.75594 -2.44366 0
M  V30 3213 C 296.904 3.28483 -4.06074 0
M  V30 3214 H 298.598 1.65867 -2.49256 0
M  V30 3215 H 296.144 0.796558 -1.19962 0
M  V30 3216 H 298.097 3.9124 -1.56555 0
M  V30 3217 H 296.821 3.22237 -0.532057 0
M  V30 3218 H 295.48 2.60972 -2.57467 0
M  V30 3219 H 295.128 4.81616 -1.45105 0
M  V30 3220 H 294.828 4.92586 -3.20364 0
M  V30 3221 H 296.352 5.5612 -2.52117 0
M  V30 3222 H 297.766 3.96684 -4.13902 0
M  V30 3223 H 296.163 3.57008 -4.82354 0
M  V30 3224 H 297.233 2.26133 -4.28943 0
M  V30 3225 N 298.576 1.31904 0.862503 0
M  V30 3226 C 299.822 1.22197 1.61851 0
M  V30 3227 C 300.155 -0.217641 1.92977 0
M  V30 3228 O 299.43 -1.15264 1.56666 0
M  V30 3229 C 299.713 2.07378 2.94391 0
M  V30 3230 C 299.566 3.59678 2.70096 0
M  V30 3231 C 300.885 1.92891 3.95577 0
M  V30 3232 H 298.004 0.445255 0.587296 0
M  V30 3233 H 300.646 1.6177 0.99651 0
M  V30 3234 H 298.796 1.73758 3.47477 0
M  V30 3235 H 300.468 4.03472 2.23625 0
M  V30 3236 H 298.711 3.82735 2.04197 0
M  V30 3237 H 299.382 4.14595 3.64438 0
M  V30 3238 H 301.858 2.22327 3.51724 0
M  V30 3239 H 300.734 2.54781 4.86187 0
M  V30 3240 H 300.995 0.894315 4.3296 0
M  V30 3241 N 300.054 -1.07777 1.14986 0
M  V30 3242 C 301.279 -1.84558 0.946213 0
M  V30 3243 C 301.704 -1.81323 -0.500362 0
M  V30 3244 O 301.062 -1.20301 -1.35637 0
M  V30 3245 C 301.11 -3.29736 1.45968 0
M  V30 3246 O 300.214 -4.07149 0.65601 0
M  V30 3247 H 299.555 -0.571641 0.33782 0
M  V30 3248 H 302.085 -1.35991 1.52865 0
M  V30 3249 H 302.095 -3.80574 1.47063 0
M  V30 3250 H 300.77 -3.31406 2.51283 0
M  V30 3251 H 299.347 -3.65994 0.714322 0
M  V30 3252 N 301.532 -0.945985 -1.26051 0
M  V30 3253 C 302.757 -0.612525 -1.98149 0
M  V30 3254 C 303.182 0.806623 -1.69927 0
M  V30 3255 O 302.54 1.54411 -0.950108 0
M  V30 3256 C 302.588 -0.866981 -3.50023 0
M  V30 3257 O 301.692 0.0585333 -4.12358 0
M  V30 3258 H 301.033 -0.23379 -0.621481 0
M  V30 3259 H 303.563 -1.27023 -1.60395 0
M  V30 3260 H 303.573 -0.789792 -4.00283 0
M  V30 3261 H 302.248 -1.90135 -3.69894 0
M  V30 3262 H 300.825 -0.0701241 -3.72834 0
M  V30 3263 N 303.011 1.40521 -0.713556 0
M  V30 3264 C 304.236 2.05759 -0.26035 0
M  V30 3265 C 304.661 1.53403 1.08854 0
M  V30 3266 O 304.019 0.668535 1.68524 0
M  V30 3267 C 304.067 3.59745 -0.248122 0
M  V30 3268 O 303.171 4.05123 0.77131 0
M  V30 3269 H 302.512 0.652564 -0.122703 0
M  V30 3270 H 305.042 1.79958 -0.973467 0
M  V30 3271 H 305.052 4.07911 -0.0851129 0
M  V30 3272 H 303.727 3.97218 -1.2325 0
M  V30 3273 H 302.304 3.68422 0.57619 0
M  V30 3274 N 304.489 0.459591 1.5075 0
M  V30 3275 C 305.737 -0.0991532 2.01857 0
M  V30 3276 C 306.058 -1.41247 1.34441 0
M  V30 3277 O 305.328 -1.89775 0.486022 0
M  V30 3278 H 303.908 -0.039633 0.745948 0
M  V30 3279 H 306.57 0.607387 1.85194 0
M  V30 3280 H 305.666 -0.258998 3.11023 0
M  V30 3281 N 305.967 -1.56429 0.191757 0
M  V30 3282 C 306.915 -2.20273 -0.747174 0
M  V30 3283 C 307.909 -1.17288 -1.22229 0
M  V30 3284 O 309.115 -1.35441 -1.18557 0
M  V30 3285 H 305.49 -0.705885 -0.259289 0
M  V30 3286 H 307.461 -2.97826 -0.184963 0
M  V30 3287 C 306.21 -2.87356 -1.95759 0
M  V30 3288 H 305.533 -3.66341 -1.60106 0
M  V30 3289 H 306.973 -3.3547 -2.59299 0
M  V30 3290 C 305.432 -1.88213 -2.79423 0
M  V30 3291 O 305.962 -1.38033 -3.7724 0
M  V30 3292 N 304.168 -1.56516 -2.44849 0
M  V30 3293 H 303.715 -1.97516 -1.65364 0
M  V30 3294 H 303.673 -0.904369 -3.01112 0
M  V30 3295 N 307.445 0.0818655 -1.57387 0
M  V30 3296 C 308.722 0.815343 -1.77796 0
M  V30 3297 C 309.102 1.96289 -0.77679 0
M  V30 3298 O 308.45 2.27691 0.192106 0
M  V30 3299 C 308.66 1.29765 -3.23978 0
M  V30 3300 C 310.008 1.7351 -3.8753 0
M  V30 3301 O 311.032 1.39356 -3.27808 0
M  V30 3302 O 309.891 2.36708 -4.92576 0
M  V30 3303 H 306.985 0.389914 -0.729312 0
M  V30 3304 H 309.531 0.0627213 -1.69584 0
M  V30 3305 H 308.303 0.47608 -3.88393 0
M  V30 3306 H 307.926 2.11189 -3.36875 0
M  V30 3307 N 308.923 1.53595 0.353017 0
M  V30 3308 C 309.871 1.81605 1.45335 0
M  V30 3309 C 310.865 0.685923 1.54892 0
M  V30 3310 O 312.071 0.869095 1.57628 0
M  V30 3311 H 308.446 0.575204 0.484401 0
M  V30 3312 H 310.417 2.73679 1.18921 0
M  V30 3313 C 309.166 2.03406 2.81995 0
M  V30 3314 H 308.489 2.89814 2.75405 0
M  V30 3315 H 309.929 2.26975 3.58132 0
M  V30 3316 C 308.388 0.816794 3.26849 0
M  V30 3317 O 308.918 0.0115856 4.01698 0
M  V30 3318 N 307.124 0.636682 2.8354 0
M  V30 3319 H 306.671 1.2931 2.22793 0
M  V30 3320 H 306.629 -0.176336 3.13905 0
M  V30 3321 N 310.401 -0.613514 1.45168 0
M  V30 3322 C 311.629 -1.39946 1.5239 0
M  V30 3323 C 312.044 -1.88167 0.154531 0
M  V30 3324 O 311.401 -1.61872 -0.842843 0
M  V30 3325 C 311.452 -2.60795 2.50337 0
M  V30 3326 O 311.173 -2.1458 3.81952 0
M  V30 3327 C 312.674 -3.53723 2.67198 0
M  V30 3328 H 309.894 -0.428593 0.516284 0
M  V30 3329 H 312.438 -0.748753 1.903 0
M  V30 3330 H 310.593 -3.21919 2.15515 0
M  V30 3331 H 311.007 -2.93055 4.34993 0
M  V30 3332 H 312.481 -4.35079 3.39721 0
M  V30 3333 H 312.958 -4.0368 1.73029 0
M  V30 3334 H 313.564 -2.98456 3.02992 0
M  V30 3335 N 311.879 -1.3236 -0.855495 0
M  V30 3336 C 312.789 -1.23221 -1.99634 0
M  V30 3337 C 313.805 -0.145983 -1.73387 0
M  V30 3338 O 314.981 -0.366502 -1.98037 0
M  V30 3339 C 312.046 -0.954782 -3.33294 0
M  V30 3340 C 311.107 -2.12937 -3.72769 0
M  V30 3341 C 310.34 -1.86508 -5.00051 0
M  V30 3342 O 310.563 -0.807231 -5.64659 0
M  V30 3343 O 309.497 -2.72591 -5.36636 0
M  V30 3344 H 313.323 -2.19126 -2.1028 0
M  V30 3345 H 310.908 -1.12241 -0.986018 0
M  V30 3346 H 312.79 -0.816519 -4.13414 0
M  V30 3347 H 311.465 -0.0258854 -3.2369 0
M  V30 3348 H 310.372 -2.3231 -2.93228 0
M  V30 3349 H 311.705 -3.04102 -3.87018 0
M  V30 3350 N 313.357 1.07166 -1.15556 0
M  V30 3351 C 314.305 2.16517 -0.8499 0
M  V30 3352 C 315.299 1.68468 0.177454 0
M  V30 3353 O 316.505 1.79971 0.0323026 0
M  V30 3354 H 312.88 0.706652 -0.25719 0
M  V30 3355 H 314.851 2.39514 -1.77976 0
M  V30 3356 C 313.6 3.45855 -0.357682 0
M  V30 3357 H 312.923 3.83214 -1.13961 0
M  V30 3358 H 314.363 4.23607 -0.182489 0
M  V30 3359 C 312.822 3.24062 0.921152 0
M  V30 3360 O 313.352 3.48813 1.9923 0
M  V30 3361 N 311.558 2.77539 0.86141 0
M  V30 3362 H 311.105 2.57598 -0.0104408 0
M  V30 3363 H 311.063 2.63337 1.71758 0
M  V30 3364 N 314.835 0.952656 1.25548 0
M  V30 3365 C 316.083 0.605176 1.92826 0
M  V30 3366 C 316.404 -0.860261 1.74999 0
M  V30 3367 O 315.674 -1.6125 1.11244 0
M  V30 3368 H 314.254 0.220832 0.713612 0
M  V30 3369 H 316.916 1.21047 1.52754 0
M  V30 3370 H 316.012 0.832798 3.00784 0
M  V30 3371 N 316.313 -1.40141 0.720998 0
M  V30 3372 C 317.243 -2.33339 0.0867621 0
M  V30 3373 C 318.224 -1.53178 -0.739622 0
M  V30 3374 O 319.409 -1.81625 -0.687449 0
M  V30 3375 C 316.539 -3.37194 -0.831728 0
M  V30 3376 C 315.493 -4.27857 -0.110558 0
M  V30 3377 C 314.819 -5.22294 -1.14513 0
M  V30 3378 C 316.119 -5.11872 1.0385 0
M  V30 3379 H 317.813 -2.86626 0.865219 0
M  V30 3380 H 315.359 -1.37814 0.417516 0
M  V30 3381 H 317.312 -4.01335 -1.28485 0
M  V30 3382 H 316.036 -2.82314 -1.64214 0
M  V30 3383 H 314.695 -3.65176 0.322797 0
M  V30 3384 H 314.343 -4.63717 -1.94874 0
M  V30 3385 H 314.043 -5.83797 -0.667446 0
M  V30 3386 H 315.567 -5.89312 -1.59824 0
M  V30 3387 H 316.981 -5.69436 0.664482 0
M  V30 3388 H 315.378 -5.82445 1.4449 0
M  V30 3389 H 316.448 -4.4753 1.86668 0
M  V30 3390 N 317.792 -0.46758 -1.50504 0
M  V30 3391 C 319.203 -0.0116166 -1.86696 0
M  V30 3392 C 319.554 1.39202 -1.38265 0
M  V30 3393 O 318.679 2.0313 -0.746132 0
M  V30 3394 C 319.274 -0.0143044 -3.38797 0
M  V30 3395 C 317.833 0.386175 -3.74414 0
M  V30 3396 C 316.98 -0.401287 -2.74381 0
M  V30 3397 H 319.931 -0.682022 -1.43297 0
M  V30 3398 H 319.952 0.788641 -3.72237 0
M  V30 3399 H 319.464 -1.03602 -3.74016 0
M  V30 3400 H 317.565 1.41237 -3.44794 0
M  V30 3401 H 317.678 0.0899596 -4.79016 0
M  V30 3402 H 316.042 0.144536 -2.5429 0
M  V30 3403 H 316.825 -1.42244 -3.12444 0
M  V30 3404 N 319.27 1.56325 -0.20005 0
M  V30 3405 C 320.518 1.97329 0.436547 0
M  V30 3406 C 320.839 1.08826 1.61808 0
M  V30 3407 O 320.109 0.160604 1.95241 0
M  V30 3408 H 318.689 0.728714 0.164272 0
M  V30 3409 H 321.351 1.92761 -0.287937 0
M  V30 3410 H 320.447 3.02264 0.777353 0
M  V30 3411 N 320.748 -0.0735177 1.57428 0
M  V30 3412 C 321.973 -0.789787 1.91774 0
M  V30 3413 C 322.398 -1.70413 0.796306 0
M  V30 3414 O 321.756 -1.79555 -0.250961 0
M  V30 3415 C 321.804 -1.5609 3.25067 0
M  V30 3416 O 320.908 -2.67144 3.14178 0
M  V30 3417 H 320.249 -0.215582 0.628029 0
M  V30 3418 H 322.779 -0.0422781 2.04556 0
M  V30 3419 H 322.789 -1.94052 3.58898 0
M  V30 3420 H 321.464 -0.890015 4.06265 0
M  V30 3421 H 320.041 -2.32052 2.91901 0
M  V30 3422 N 322.226 -1.5378 -0.344866 0
M  V30 3423 C 323.173 -1.81676 -1.42346 0
M  V30 3424 C 324.143 -0.662376 -1.52321 0
M  V30 3425 O 325.328 -0.906675 -1.67881 0
M  V30 3426 C 322.468 -2.03087 -2.79015 0
M  V30 3427 C 321.581 -3.30799 -2.77842 0
M  V30 3428 C 320.716 -3.42285 -4.0622 0
M  V30 3429 C 319.755 -4.6395 -3.9927 0
M  V30 3430 N 318.892 -4.72477 -5.19336 0
M  V30 3431 H 323.732 -2.73703 -1.17858 0
M  V30 3432 H 321.269 -1.35568 -0.570949 0
M  V30 3433 H 323.227 -2.1349 -3.58438 0
M  V30 3434 H 321.857 -1.14375 -3.01858 0
M  V30 3435 H 320.909 -3.29244 -1.90533 0
M  V30 3436 H 322.221 -4.20314 -2.68584 0
M  V30 3437 H 321.375 -3.52113 -4.94066 0
M  V30 3438 H 320.114 -2.50823 -4.18258 0
M  V30 3439 H 319.119 -4.54201 -3.09809 0
M  V30 3440 H 320.344 -5.56775 -3.88817 0
M  V30 3441 H 318.29 -3.83924 -5.3192 0
M  V30 3442 H 318.207 -5.55927 -5.12329 0
M  V30 3443 H 319.475 -4.86613 -6.08957 0
M  V30 3444 N 323.704 0.605807 -1.45491 0
M  V30 3445 C 324.667 1.69836 -1.5391 0
M  V30 3446 C 325.667 1.55261 -0.418424 0
M  V30 3447 O 326.857 1.60296 -0.681965 0
M  V30 3448 C 323.989 3.09117 -1.43734 0
M  V30 3449 H 325.182 1.63738 -2.51257 0
M  V30 3450 H 322.735 0.821689 -1.32959 0
M  V30 3451 H 323.47 3.20791 -0.475788 0
M  V30 3452 H 323.255 3.21104 -2.25021 0
M  V30 3453 H 324.745 3.88696 -1.52661 0
M  V30 3454 N 325.182 1.32811 0.848464 0
M  V30 3455 C 326.092 1.24278 1.98978 0
M  V30 3456 C 327.108 0.155176 1.73307 0
M  V30 3457 O 328.284 0.376999 1.9784 0
M  V30 3458 C 325.349 0.972444 3.32783 0
M  V30 3459 C 324.41 2.14911 3.71634 0
M  V30 3460 C 323.643 1.89157 4.99054 0
M  V30 3461 O 323.866 0.837165 5.64223 0
M  V30 3462 O 322.8 2.75433 5.35183 0
M  V30 3463 H 326.626 2.20238 2.09115 0
M  V30 3464 H 324.211 1.12762 0.980052 0
M  V30 3465 H 326.093 0.838432 4.12975 0
M  V30 3466 H 324.768 0.043051 3.23671 0
M  V30 3467 H 323.675 2.33862 2.91992 0
M  V30 3468 H 325.008 3.06151 3.85399 0
M  V30 3469 N 326.66 -1.06551 1.16123 0
M  V30 3470 C 327.57 -2.17484 0.879662 0
M  V30 3471 C 328.586 -1.73377 -0.147104 0
M  V30 3472 O 329.762 -2.01379 0.0289128 0
M  V30 3473 C 326.827 -3.44591 0.381829 0
M  V30 3474 C 325.888 -4.0322 1.4735 0
M  V30 3475 C 325.121 -5.24261 0.999324 0
M  V30 3476 O 325.344 -5.70198 -0.151957 0
M  V30 3477 O 324.278 -5.74775 1.78653 0
M  V30 3478 H 328.104 -2.44075 1.80724 0
M  V30 3479 H 325.689 -1.16042 0.940992 0
M  V30 3480 H 327.571 -4.21254 0.111053 0
M  V30 3481 H 326.246 -3.19532 -0.51777 0
M  V30 3482 H 325.153 -3.2806 1.79798 0
M  V30 3483 H 326.486 -4.32568 2.34831 0
M  V30 3484 N 328.138 -0.959301 -1.25041 0
M  V30 3485 C 329.085 -0.482057 -2.2571 0
M  V30 3486 C 330.055 0.467939 -1.59372 0
M  V30 3487 O 331.24 0.380159 -1.86974 0
M  V30 3488 C 328.38 0.229623 -3.44335 0
M  V30 3489 C 327.493 -0.758156 -4.25295 0
M  V30 3490 C 326.628 -0.0234403 -5.31195 0
M  V30 3491 C 325.667 -1.00184 -6.03846 0
M  V30 3492 N 324.804 -0.29769 -7.01469 0
M  V30 3493 H 329.644 -1.34538 -2.65901 0
M  V30 3494 H 327.181 -0.674592 -1.3072 0
M  V30 3495 H 329.139 0.658856 -4.11965 0
M  V30 3496 H 327.769 1.05696 -3.05005 0
M  V30 3497 H 326.821 -1.30586 -3.57284 0
M  V30 3498 H 328.133 -1.50458 -4.75567 0
M  V30 3499 H 327.287 0.464201 -6.04922 0
M  V30 3500 H 326.026 0.755741 -4.81809 0
M  V30 3501 H 325.031 -1.50044 -5.2893 0
M  V30 3502 H 326.256 -1.78133 -6.55321 0
M  V30 3503 H 324.202 0.462668 -6.54366 0
M  V30 3504 H 324.119 -0.983128 -7.4958 0
M  V30 3505 H 325.387 0.16826 -7.79318 0
M  V30 3506 N 329.616 1.39756 -0.72842 0
M  V30 3507 C 331.027 1.83498 -0.344289 0
M  V30 3508 C 331.378 1.60868 1.12321 0
M  V30 3509 O 330.503 1.09634 1.86573 0
M  V30 3510 C 331.098 3.33114 -0.618112 0
M  V30 3511 C 329.657 3.753 -0.287549 0
M  V30 3512 C 328.804 2.62831 -0.884048 0
M  V30 3513 H 331.755 1.28842 -0.926578 0
M  V30 3514 H 331.776 3.80334 0.112349 0
M  V30 3515 H 331.288 3.49553 -1.68625 0
M  V30 3516 H 329.389 3.64451 0.775012 0
M  V30 3517 H 329.502 4.72945 -0.765512 0
M  V30 3518 H 327.866 2.52792 -0.311149 0
M  V30 3519 H 328.649 2.82078 -1.95671 0
M  V30 3520 N 331.094 0.475555 1.50254 0
M  V30 3521 C 332.505 0.0215174 1.86688 0
M  V30 3522 C 332.856 -1.38467 1.39001 0
M  V30 3523 O 331.981 -2.02732 0.756894 0
M  V30 3524 C 332.576 0.0322715 3.38785 0
M  V30 3525 C 331.135 -0.366314 3.74613 0
M  V30 3526 C 330.282 0.415832 2.74164 0
M  V30 3527 H 333.233 0.689612 1.42934 0
M  V30 3528 H 333.254 -0.76889 3.7265 0
M  V30 3529 H 332.766 1.05584 3.73462 0
M  V30 3530 H 330.867 -1.39406 3.45538 0
M  V30 3531 H 330.98 -0.064555 4.79057 0
M  V30 3532 H 329.344 -0.131048 2.54363 0
M  V30 3533 H 330.127 1.43899 3.11686 0
M  V30 3534 N 332.573 -1.56217 0.208337 0
M  V30 3535 C 333.798 -2.02782 -0.435222 0
M  V30 3536 C 334.223 -1.08738 -1.53485 0
M  V30 3537 O 333.581 -0.0731855 -1.81152 0
M  V30 3538 C 333.629 -3.47687 -0.956335 0
M  V30 3539 O 332.733 -3.56773 -2.06849 0
M  V30 3540 H 332.074 -0.656403 -0.100158 0
M  V30 3541 H 334.604 -2.02033 0.3231 0
M  V30 3542 H 334.614 -3.87745 -1.26955 0
M  V30 3543 H 333.289 -4.15624 -0.15143 0
M  V30 3544 H 331.866 -3.28597 -1.76292 0
M  V30 3545 N 334.051 0.0651679 -1.57465 0
M  V30 3546 C 334.998 1.07675 -2.04144 0
M  V30 3547 C 335.968 1.38071 -0.923335 0
M  V30 3548 O 337.153 1.49026 -1.19146 0
M  V30 3549 C 334.293 2.38337 -2.49579 0
M  V30 3550 C 333.406 2.14413 -3.75035 0
M  V30 3551 C 332.541 3.38686 -4.09225 0
M  V30 3552 C 331.58 3.10156 -5.27702 0
M  V30 3553 N 330.717 4.26778 -5.57499 0
M  V30 3554 H 335.557 0.671716 -2.90331 0
M  V30 3555 H 333.094 0.3201 -1.43575 0
M  V30 3556 H 335.052 3.14632 -2.73975 0
M  V30 3557 H 333.682 2.7663 -1.6636 0
M  V30 3558 H 332.734 1.2878 -3.57939 0
M  V30 3559 H 334.046 1.89344 -4.61466 0
M  V30 3560 H 333.2 4.23373 -4.34558 0
M  V30 3561 H 331.939 3.66837 -3.21374 0
M  V30 3562 H 330.944 2.23866 -5.02159 0
M  V30 3563 H 332.169 2.8332 -6.17176 0
M  V30 3564 H 330.115 4.54948 -4.72608 0
M  V30 3565 H 330.032 4.05005 -6.38362 0
M  V30 3566 H 331.3 5.12443 -5.87386 0
M  V30 3567 N 335.529 1.53961 0.336706 0
M  V30 3568 C 336.775 1.7179 1.07777 0
M  V30 3569 C 337.108 0.483263 1.88091 0
M  V30 3570 O 336.383 -0.519747 1.87427 0
M  V30 3571 C 336.666 2.98558 2.01334 0
M  V30 3572 C 336.519 4.32245 1.24437 0
M  V30 3573 C 337.838 3.21023 3.01052 0
M  V30 3574 H 334.957 0.625089 0.390426 0
M  V30 3575 H 337.599 1.86641 0.35567 0
M  V30 3576 H 335.749 2.86028 2.62908 0
M  V30 3577 H 337.421 4.56637 0.654243 0
M  V30 3578 H 335.664 4.30344 0.546458 0
M  V30 3579 H 336.335 5.17137 1.93063 0
M  V30 3580 H 338.811 3.32929 2.49595 0
M  V30 3581 H 337.687 4.11104 3.6371 0
M  V30 3582 H 337.948 2.37637 3.72802 0
M  V30 3583 O 337.046 -0.482677 1.54118 0
M  V30 3584 H 337.737 -1.13727 1.56799 0
M  V30 END ATOM
M  V30 BEGIN BOND
M  V30 END BOND
M  V30 END CTAB
M  END
$$$$
