drugbank_target|P14324 Farnesyl pyrophosphate synthase (DB00282; DB00399; DB00630; DB00710; DB00884; DB01785; DB02508; DB02552; DB04714; DB06255; DB06548; DB07780; DB07841)
 OpenBabel12092119393D

  0  0  0     0  0            999 V3000
M  V30 BEGIN CTAB
M  V30 COUNTS 6784 6867 0 0 0
M  V30 BEGIN ATOM
M  V30 1 H -0.908 1.98254 -0.117106 0
M  V30 2 N 0 1.576 0 0
M  V30 3 C 0.933 2.03868 1.02534 0
M  V30 4 C 1.911 0.928543 1.3348 0
M  V30 5 O 3.095 1.19667 1.45644 0
M  V30 6 C 0.222 2.43627 2.35294 0
M  V30 7 C -0.732 3.65373 2.2001 0
M  V30 8 S 0.101 5.13292 1.52614 0
M  V30 9 C 1.257 5.56322 2.86805 0
M  V30 10 H 1.49 2.90518 0.631377 0
M  V30 11 H -0.977 1.52953 0.210867 0
M  V30 12 H 0.981 2.67203 3.11629 0
M  V30 13 H -0.358 1.57376 2.7183 0
M  V30 14 H -1.165 3.90944 3.18086 0
M  V30 15 H -1.563 3.418 1.51819 0
M  V30 16 H 0.729 5.58782 3.83104 0
M  V30 17 H 1.672 6.56266 2.65933 0
M  V30 18 H 2.08 4.83886 2.90714 0
M  V30 19 N 1.4781 -0.272755 1.55222 0
M  V30 20 C 2.8891 -0.84378 1.66545 0
M  V30 21 C 3.2401 -1.87035 0.592641 0
M  V30 22 O 2.3651 -2.14761 -0.265818 0
M  V30 23 C 2.9601 -1.53723 3.01918 0
M  V30 24 C 1.5191 -2.05628 3.15268 0
M  V30 25 C 0.6661 -0.898424 2.62343 0
M  V30 26 H 3.6171 -0.0490998 1.58624 0
M  V30 27 H 3.6381 -2.40421 2.94921 0
M  V30 28 H 3.1501 -0.78983 3.79978 0
M  V30 29 H 1.2511 -2.83329 2.41983 0
M  V30 30 H 1.3641 -2.27142 4.21833 0
M  V30 31 H -0.2719 -1.29186 2.19506 0
M  V30 32 H 0.5111 -0.164528 3.42906 0
M  V30 33 N 2.9562 -1.48159 -0.537278 0
M  V30 34 C 3.8862 -1.65029 -1.6519 0
M  V30 35 C 4.8672 -0.499281 -1.62607 0
M  V30 36 O 6.0522 -0.730972 -1.79918 0
M  V30 37 C 3.1822 -1.68303 -3.03795 0
M  V30 38 C 2.1362 -2.8283 -3.21234 0
M  V30 39 C 1.4622 -2.71189 -4.60826 0
M  V30 40 C 2.7622 -4.24211 -3.04701 0
M  V30 41 H 4.4562 -2.58341 -1.51328 0
M  V30 42 H 2.0022 -1.24325 -0.726585 0
M  V30 43 H 3.9552 -1.78693 -3.81637 0
M  V30 44 H 2.6792 -0.715635 -3.18663 0
M  V30 45 H 1.3382 -2.71983 -2.45807 0
M  V30 46 H 0.9862 -1.72435 -4.7252 0
M  V30 47 H 0.6862 -3.48035 -4.7344 0
M  V30 48 H 2.2102 -2.83537 -5.40777 0
M  V30 49 H 3.6242 -4.3593 -3.72341 0
M  V30 50 H 2.0212 -5.01998 -3.28813 0
M  V30 51 H 3.0912 -4.41184 -2.01209 0
M  V30 52 N 4.4343 0.785586 -1.36625 0
M  V30 53 C 5.6593 1.57963 -1.34397 0
M  V30 54 C 6.0843 1.87964 0.071526 0
M  V30 55 O 5.4423 1.48182 1.0446 0
M  V30 56 C 5.4903 2.87511 -2.17646 0
M  V30 57 O 4.5943 3.81281 -1.57158 0
M  V30 58 H 3.9353 0.479014 -0.459828 0
M  V30 59 H 6.4653 0.973411 -1.79961 0
M  V30 60 H 6.4753 3.36745 -2.30362 0
M  V30 61 H 5.1503 2.65002 -3.20541 0
M  V30 62 H 3.7273 3.39885 -1.53403 0
M  V30 63 N 5.9124 1.20967 1.01018 0
M  V30 64 C 7.3284 0.965905 1.27053 0
M  V30 65 C 7.5284 -0.350785 1.98423 0
M  V30 66 O 6.5844 -1.07773 2.28344 0
M  V30 67 C 7.8974 2.15294 2.09926 0
M  V30 68 C 9.4454 2.19463 2.23171 0
M  V30 69 C 9.9204 3.3767 3.09424 0
M  V30 70 N 11.4114 3.37724 3.17012 0
M  V30 71 C 12.1464 4.25837 3.83993 0
M  V30 72 N 11.6424 5.24138 4.53047 0
M  V30 73 N 13.4354 4.1366 3.80581 0
M  V30 74 H 5.5864 2.0565 0.531194 0
M  V30 75 H 7.8494 0.90024 0.297106 0
M  V30 76 H 7.5554 3.10684 1.64828 0
M  V30 77 H 7.4294 2.13923 3.10672 0
M  V30 78 H 9.8164 1.24632 2.6749 0
M  V30 79 H 9.8974 2.2488 1.21912 0
M  V30 80 H 9.5414 4.32791 2.65808 0
M  V30 81 H 9.4714 3.29491 4.10784 0
M  V30 82 H 11.9624 2.6658 2.6785 0
M  V30 83 H 12.2754 5.87684 5.01844 0
M  V30 84 H 10.6204 5.28068 4.5185 0
M  V30 85 H 13.8114 3.36127 3.25785 0
M  V30 86 H 13.9844 4.82538 4.32505 0
M  V30 87 N 7.3905 -1.2043 1.01659 0
M  V30 88 C 8.6365 -1.90356 0.716674 0
M  V30 89 C 8.9915 -1.77367 -0.745557 0
M  V30 90 O 8.2845 -1.1471 -1.53467 0
M  V30 91 C 8.4785 -3.40464 1.08714 0
M  V30 92 C 8.3075 -3.6806 2.58384 0
M  V30 93 C 7.0775 -3.86775 3.25167 0
M  V30 94 C 9.2755 -3.70623 3.56572 0
M  V30 95 N 7.2575 -4.01889 4.64067 0
M  V30 96 C 8.6285 -3.91161 4.81034 0
M  V30 97 C 10.6835 -3.53586 3.50544 0
M  V30 98 C 9.3865 -3.96428 6.00198 0
M  V30 99 C 11.4125 -3.60125 4.6911 0
M  V30 100 C 10.7745 -3.81135 5.92381 0
M  V30 101 H 6.8735 -0.716226 0.313918 0
M  V30 102 H 9.4575 -1.44815 1.30141 0
M  V30 103 H 7.6285 -3.84757 0.530745 0
M  V30 104 H 9.3605 -3.97863 0.740763 0
M  V30 105 H 6.1155 -3.85156 2.75594 0
M  V30 106 H 6.5395 -4.13323 5.36184 0
M  V30 107 H 11.1815 -3.36308 2.56235 0
M  V30 108 H 8.8995 -4.12502 6.94887 0
M  V30 109 H 12.4855 -3.4825 4.66062 0
M  V30 110 H 11.3655 -3.86054 6.82592 0
M  V30 111 N 8.8686 -0.792821 -1.36206 0
M  V30 112 C 9.7986 -0.207853 -2.32573 0
M  V30 113 C 10.7796 0.659055 -1.56813 0
M  V30 114 O 11.9646 0.592176 -1.84951 0
M  V30 115 C 9.0946 0.655449 -3.41059 0
M  V30 116 C 8.0486 -0.111842 -4.27854 0
M  V30 117 C 7.3746 0.872274 -5.27537 0
M  V30 118 C 8.6746 -1.30299 -5.05786 0
M  V30 119 H 10.3686 -1.01294 -2.81744 0
M  V30 120 H 7.9146 -0.48854 -1.3546 0
M  V30 121 H 9.8676 1.07464 -4.07467 0
M  V30 122 H 8.5916 1.49328 -2.90463 0
M  V30 123 H 7.2506 -0.512053 -3.63006 0
M  V30 124 H 6.8986 1.70523 -4.73214 0
M  V30 125 H 6.5986 0.363291 -5.86476 0
M  V30 126 H 8.1226 1.28996 -5.96818 0
M  V30 127 H 9.5366 -0.959379 -5.65216 0
M  V30 128 H 7.9336 -1.7455 -5.74154 0
M  V30 129 H 9.0036 -2.09663 -4.37229 0
M  V30 130 N 10.3467 1.47872 -0.545128 0
M  V30 131 C 11.7627 1.5829 -0.204032 0
M  V30 132 C 11.9627 1.54529 1.29317 0
M  V30 133 O 11.0187 1.44232 2.07252 0
M  V30 134 C 12.3317 2.89304 -0.819987 0
M  V30 135 C 13.8797 3.02864 -0.790105 0
M  V30 136 C 14.3547 4.3656 -1.38491 0
M  V30 137 N 15.8457 4.43165 -1.34755 0
M  V30 138 C 16.5807 5.45153 -1.77753 0
M  V30 139 N 16.0767 6.54016 -2.2855 0
M  V30 140 N 17.8697 5.36125 -1.68897 0
M  V30 141 H 10.0207 1.4856 -1.51802 0
M  V30 142 H 12.2837 0.706305 -0.632327 0
M  V30 143 H 11.9897 2.97757 -1.87173 0
M  V30 144 H 11.8637 3.75957 -0.305915 0
M  V30 145 H 14.2507 2.94014 0.252913 0
M  V30 146 H 14.3317 2.17782 -1.34181 0
M  V30 147 H 13.9757 4.46164 -2.42693 0
M  V30 148 H 13.9057 5.20353 -0.808754 0
M  V30 149 H 16.3967 3.65083 -0.975855 0
M  V30 150 H 16.7097 7.27994 -2.59314 0
M  V30 151 H 15.0547 6.54938 -2.32553 0
M  V30 152 H 18.2457 4.49975 -1.28998 0
M  V30 153 H 18.4187 6.15472 -2.02726 0
M  V30 154 N 11.8248 0.280983 1.55075 0
M  V30 155 C 13.0498 -0.340154 2.04592 0
M  V30 156 C 13.4748 -1.48246 1.15779 0
M  V30 157 O 12.8328 -1.80614 0.15761 0
M  V30 158 C 12.8808 -0.793104 3.5177 0
M  V30 159 O 11.9848 -1.89981 3.66034 0
M  V30 160 H 11.3258 -0.0694289 0.66036 0
M  V30 161 H 13.8558 0.416993 2.00306 0
M  V30 162 H 13.8658 -1.08729 3.93245 0
M  V30 163 H 12.5408 0.0426163 4.15878 0
M  V30 164 H 11.1178 -1.60771 3.36463 0
M  V30 165 N 13.3029 -1.57598 0.00835791 0
M  V30 166 C 14.5489 -1.91211 -0.675732 0
M  V30 167 C 14.8819 -0.883139 -1.72958 0
M  V30 168 O 14.1569 0.097016 -1.94258 0
M  V30 169 C 14.4399 -3.35379 -1.31123 0
M  V30 170 C 14.2929 -4.48999 -0.268356 0
M  V30 171 C 15.6119 -3.7912 -2.23508 0
M  V30 172 H 12.7309 -0.695374 -0.244179 0
M  V30 173 H 15.3729 -1.89901 0.0613655 0
M  V30 174 H 13.5229 -3.36626 -1.93946 0
M  V30 175 H 15.1949 -4.59887 0.360844 0
M  V30 176 H 13.4379 -4.31873 0.408482 0
M  V30 177 H 14.1089 -5.46851 -0.752218 0
M  V30 178 H 16.5849 -3.79477 -1.70693 0
M  V30 179 H 15.4609 -4.80729 -2.64936 0
M  V30 180 H 15.7219 -3.13455 -3.11766 0
M  V30 181 N 14.781 0.264519 -1.55364 0
M  V30 182 C 16.029 0.993021 -1.76021 0
M  V30 183 C 16.35 1.86511 -0.569099 0
M  V30 184 O 15.62 1.91438 0.415735 0
M  V30 185 H 14.2 0.369639 -0.649135 0
M  V30 186 H 16.862 0.286707 -1.9278 0
M  V30 187 H 15.958 1.62502 -2.66457 0
M  V30 188 N 16.2591 1.48442 0.529413 0
M  V30 189 C 17.5051 1.5672 1.28711 0
M  V30 190 C 17.8381 0.2406 1.92704 0
M  V30 191 O 17.1131 -0.753454 1.79313 0
M  V30 192 C 17.3961 2.70587 2.37603 0
M  V30 193 C 17.2491 4.12953 1.78297 0
M  V30 194 C 18.5681 2.80212 3.39366 0
M  V30 195 H 15.6871 0.570474 0.466613 0
M  V30 196 H 18.3291 1.80617 0.589706 0
M  V30 197 H 16.4791 2.50342 2.97088 0
M  V30 198 H 18.1511 4.44639 1.22858 0
M  V30 199 H 16.3941 4.19927 1.0883 0
M  V30 200 H 17.0651 4.88448 2.57144 0
M  V30 201 H 19.5411 2.98553 2.89836 0
M  V30 202 H 18.4171 3.61611 4.12951 0
M  V30 203 H 18.6781 1.88393 3.99951 0
M  V30 204 N 17.7372 -0.778329 1.37039 0
M  V30 205 C 18.9842 -1.53665 1.31884 0
M  V30 206 C 19.3122 -1.9425 -0.0986303 0
M  V30 207 O 18.5672 -1.63832 -1.07041 0
M  V30 208 C 18.8662 -2.81845 2.19768 0
M  V30 209 C 18.5322 -2.60345 3.68146 0
M  V30 210 C 17.1942 -2.5419 4.08584 0
M  V30 211 C 19.5462 -2.40923 4.62175 0
M  V30 212 C 16.8742 -2.26594 5.41177 0
M  V30 213 C 19.2262 -2.14852 5.94997 0
M  V30 214 C 17.8902 -2.07137 6.34547 0
M  V30 215 H 17.1602 -0.562299 0.482598 0
M  V30 216 H 19.8072 -0.897069 1.69189 0
M  V30 217 H 18.1122 -3.50328 1.75436 0
M  V30 218 H 19.8092 -3.39692 2.13097 0
M  V30 219 H 16.3992 -2.65996 3.36072 0
M  V30 220 H 20.5832 -2.44673 4.31797 0
M  V30 221 H 15.8392 -2.19111 5.70789 0
M  V30 222 H 20.0132 -1.98822 6.67415 0
M  V30 223 H 17.6402 -1.85518 7.37216 0
M  V30 224 N 19.2153 -1.21501 -1.00376 0
M  V30 225 C 20.1453 -0.999478 -2.11028 0
M  V30 226 C 21.1263 0.0759671 -1.6993 0
M  V30 227 O 22.3113 -0.0841106 -1.94018 0
M  V30 228 C 19.4413 -0.564709 -3.42678 0
M  V30 229 C 18.3953 -1.58486 -3.97576 0
M  V30 230 C 17.7213 -1.00628 -5.25146 0
M  V30 231 C 19.0213 -2.97204 -4.29496 0
M  V30 232 H 20.7153 -1.92495 -2.29317 0
M  V30 233 H 18.2613 -0.92693 -1.102 0
M  V30 234 H 20.2143 -0.401091 -4.19487 0
M  V30 235 H 18.9383 0.396411 -3.24185 0
M  V30 236 H 17.5973 -1.73606 -3.22888 0
M  V30 237 H 17.2453 -0.0368439 -5.02987 0
M  V30 238 H 16.9453 -1.68771 -5.62841 0
M  V30 239 H 18.4693 -0.854015 -6.04598 0
M  V30 240 H 19.8833 -2.8552 -4.97143 0
M  V30 241 H 18.2803 -3.62372 -4.78338 0
M  V30 242 H 19.3503 -3.47956 -3.3772 0
M  V30 243 N 20.6934 1.19889 -1.02296 0
M  V30 244 C 21.6234 2.25141 -0.619174 0
M  V30 245 C 22.6044 1.66051 0.368915 0
M  V30 246 O 23.7894 1.92546 0.252941 0
M  V30 247 C 20.9194 3.4728 0.0368783 0
M  V30 248 C 19.8734 4.19005 -0.872865 0
M  V30 249 C 19.1994 5.34637 -0.0822402 0
M  V30 250 C 20.4994 4.74452 -2.18387 0
M  V30 251 H 22.1934 2.59171 -1.49903 0
M  V30 252 H 19.7394 1.24579 -0.722222 0
M  V30 253 H 21.6924 4.20098 0.330958 0
M  V30 254 H 20.4164 3.12433 0.95149 0
M  V30 255 H 19.0754 3.48061 -1.15105 0
M  V30 256 H 18.7234 4.96034 0.83422 0
M  V30 257 H 18.4234 5.83557 -0.688149 0
M  V30 258 H 19.9474 6.10255 0.205238 0
M  V30 259 H 21.3614 5.39055 -1.95172 0
M  V30 260 H 19.7584 5.33834 -2.74119 0
M  V30 261 H 20.8284 3.92844 -2.84257 0
M  V30 262 N 22.1715 0.800033 1.35784 0
M  V30 263 C 23.5825 0.439142 1.81462 0
M  V30 264 C 23.9335 -1.03813 1.66485 0
M  V30 265 O 23.0585 -1.80626 1.19177 0
M  V30 266 C 23.6535 0.790314 3.29453 0
M  V30 267 C 22.2125 0.482111 3.733 0
M  V30 268 C 21.3595 1.01938 2.57883 0
M  V30 269 H 24.3105 0.992254 1.23855 0
M  V30 270 H 24.3315 0.0853677 3.80404 0
M  V30 271 H 23.8435 1.86554 3.40322 0
M  V30 272 H 21.9445 -0.584652 3.67984 0
M  V30 273 H 22.0575 1.01015 4.6833 0
M  V30 274 H 20.4215 0.442043 2.50835 0
M  V30 275 H 21.2045 2.10059 2.71533 0
M  V30 276 N 23.6496 -1.47581 0.552962 0
M  V30 277 C 24.6126 -2.28439 -0.186605 0
M  V30 278 C 25.6126 -1.36706 -0.84665 0
M  V30 279 O 26.8026 -1.59378 -0.703164 0
M  V30 280 C 23.9346 -3.16264 -1.2724 0
M  V30 281 H 25.1276 -2.95294 0.523609 0
M  V30 282 H 22.6806 -1.532 0.309745 0
M  V30 283 H 23.4156 -2.54091 -2.01514 0
M  V30 284 H 23.2006 -3.83769 -0.803968 0
M  V30 285 H 24.6906 -3.77198 -1.79196 0
M  V30 286 N 25.1277 -0.289203 -1.54924 0
M  V30 287 C 26.5387 0.205791 -1.85562 0
M  V30 288 C 26.8897 1.54351 -1.2112 0
M  V30 289 O 26.0147 2.10435 -0.504601 0
M  V30 290 C 26.6097 0.380177 -3.3666 0
M  V30 291 C 25.1687 0.819395 -3.67373 0
M  V30 292 C 24.3157 -0.079159 -2.77187 0
M  V30 293 H 27.2667 -0.510577 -1.50262 0
M  V30 294 H 27.2877 1.21659 -3.60526 0
M  V30 295 H 26.7997 -0.593589 -3.83534 0
M  V30 296 H 24.9007 1.80413 -3.26009 0
M  V30 297 H 25.0137 0.646957 -4.74712 0
M  V30 298 H 23.3777 0.439565 -2.50878 0
M  V30 299 H 24.1607 -1.04906 -3.26878 0
M  V30 300 N 26.6058 1.57591 -0.0167156 0
M  V30 301 C 27.8358 1.95292 0.674149 0
M  V30 302 C 28.2438 0.891097 1.66901 0
M  V30 303 O 27.5868 -0.136908 1.83189 0
M  V30 304 C 27.6488 3.29072 1.44747 0
M  V30 305 C 27.3128 4.52879 0.612331 0
M  V30 306 C 28.3098 5.1979 -0.107126 0
M  V30 307 C 25.9948 4.99242 0.553381 0
M  V30 308 C 27.9888 6.31375 -0.874339 0
M  V30 309 C 25.6758 6.10713 -0.217546 0
M  V30 310 C 26.6738 6.76637 -0.930123 0
M  V30 311 O 26.3618 7.85969 -1.68844 0
M  V30 312 H 26.0938 0.648275 0.191615 0
M  V30 313 H 28.6478 2.05284 -0.0690148 0
M  V30 314 H 26.8778 3.15535 2.2355 0
M  V30 315 H 28.5668 3.51764 2.02526 0
M  V30 316 H 29.3328 4.84948 -0.0708392 0
M  V30 317 H 25.2118 4.47744 1.09757 0
M  V30 318 H 28.7558 6.82764 -1.43106 0
M  V30 319 H 24.6528 6.44994 -0.255593 0
M  V30 320 H 25.4208 8.02571 -1.6069 0
M  V30 321 N 28.0839 -0.256276 1.55502 0
M  V30 322 C 29.3299 -0.982884 1.78076 0
M  V30 323 C 29.6849 -1.83319 0.584109 0
M  V30 324 O 28.9779 -1.86875 -0.422877 0
M  V30 325 C 29.1719 -1.88432 3.03691 0
M  V30 326 C 29.0009 -1.12276 4.35459 0
M  V30 327 C 27.7709 -0.831647 4.98409 0
M  V30 328 C 29.9689 -0.504933 5.11815 0
M  V30 329 N 27.9509 -0.0450423 6.13883 0
M  V30 330 C 29.3219 0.146696 6.19826 0
M  V30 331 C 31.3769 -0.414455 4.96172 0
M  V30 332 C 30.0799 0.880103 7.13895 0
M  V30 333 C 32.1059 0.305398 5.90611 0
M  V30 334 C 31.4679 0.945701 6.98023 0
M  V30 335 H 27.5669 -0.341084 0.703694 0
M  V30 336 H 30.1509 -0.256909 1.92998 0
M  V30 337 H 28.3219 -2.58241 2.90114 0
M  V30 338 H 30.0539 -2.54579 3.14598 0
M  V30 339 H 26.8089 -1.14111 4.59647 0
M  V30 340 H 27.2329 0.336079 6.76165 0
M  V30 341 H 31.8749 -0.895163 4.13215 0
M  V30 342 H 29.5929 1.37244 7.9636 0
M  V30 343 H 33.1789 0.375946 5.80584 0
M  V30 344 H 32.0589 1.49383 7.6984 0
M  V30 345 N 29.562 -1.4872 -0.521534 0
M  V30 346 C 30.525 -1.63379 -1.60748 0
M  V30 347 C 31.525 -0.50661 -1.52611 0
M  V30 348 O 32.715 -0.772601 -1.5613 0
M  V30 349 C 29.847 -1.61192 -3.00383 0
M  V30 350 H 31.04 -2.60217 -1.49087 0
M  V30 351 H 28.593 -1.37444 -0.744235 0
M  V30 352 H 29.328 -0.65863 -3.17541 0
M  V30 353 H 29.113 -2.43032 -3.07698 0
M  V30 354 H 30.603 -1.7466 -3.7932 0
M  V30 355 N 31.0401 0.771051 -1.3745 0
M  V30 356 C 32.4511 1.34737 -1.29239 0
M  V30 357 C 32.8021 1.96109 0.0596908 0
M  V30 358 O 31.9271 1.93865 0.961534 0
M  V30 359 C 32.5221 2.44973 -2.34037 0
M  V30 360 C 31.0811 2.98372 -2.29458 0
M  V30 361 C 30.2281 1.71595 -2.17831 0
M  V30 362 H 33.1791 0.571256 -1.48062 0
M  V30 363 H 33.2001 3.24471 -1.98744 0
M  V30 364 H 32.7121 2.00276 -3.32432 0
M  V30 365 H 30.8131 3.47443 -1.34589 0
M  V30 366 H 30.9261 3.53939 -3.229 0
M  V30 367 H 29.2901 1.94547 -1.64388 0
M  V30 368 H 30.0731 1.29001 -3.18141 0
M  V30 369 N 32.5182 1.22032 0.997298 0
M  V30 370 C 33.9342 0.979326 1.26021 0
M  V30 371 C 34.1342 -0.32972 1.98784 0
M  V30 372 O 33.1902 -1.05345 2.29475 0
M  V30 373 C 34.5032 2.17509 2.07631 0
M  V30 374 C 36.0512 2.21817 2.2083 0
M  V30 375 C 36.5262 3.40933 3.05825 0
M  V30 376 N 38.0172 3.41067 3.13412 0
M  V30 377 C 38.7522 4.29885 3.79455 0
M  V30 378 N 38.2482 5.28914 4.47462 0
M  V30 379 N 40.0412 4.17673 3.76173 0
M  V30 380 H 32.1922 2.06202 0.509352 0
M  V30 381 H 34.4552 0.90334 0.287541 0
M  V30 382 H 34.1612 3.12415 1.61524 0
M  V30 383 H 34.0352 2.17206 3.08385 0
M  V30 384 H 36.4222 1.27462 2.66153 0
M  V30 385 H 36.5032 2.2616 1.1952 0
M  V30 386 H 36.1472 4.35586 2.61203 0
M  V30 387 H 36.0772 3.33829 4.07266 0
M  V30 388 H 38.5682 2.69406 2.65007 0
M  V30 389 H 38.8812 5.92973 4.95583 0
M  V30 390 H 37.2262 5.32831 4.46224 0
M  V30 391 H 40.4172 3.39564 3.22202 0
M  V30 392 H 40.5902 4.87098 4.27363 0
M  V30 393 N 33.9963 -1.19345 1.0293 0
M  V30 394 C 34.9063 -2.26245 0.620515 0
M  V30 395 C 35.9223 -1.70486 -0.347928 0
M  V30 396 O 37.0983 -2.00347 -0.205704 0
M  V30 397 C 34.1633 -3.46693 -0.0218957 0
M  V30 398 C 33.2243 -4.17632 0.994102 0
M  V30 399 C 32.4573 -5.32329 0.382253 0
M  V30 400 O 32.6803 -5.64552 -0.814676 0
M  V30 401 O 31.6143 -5.91664 1.10531 0
M  V30 402 H 35.4403 -2.63453 1.51083 0
M  V30 403 H 33.0253 -1.26207 0.799513 0
M  V30 404 H 34.9073 -4.19683 -0.380072 0
M  V30 405 H 33.5823 -3.11333 -0.886209 0
M  V30 406 H 32.4893 -3.4676 1.40387 0
M  V30 407 H 33.8223 -4.56964 1.8288 0
M  V30 408 N 35.4744 -0.807222 -1.35358 0
M  V30 409 C 36.8904 -0.491038 -1.51858 0
M  V30 410 C 37.0904 0.987648 -1.75635 0
M  V30 411 O 36.1464 1.77265 -1.79815 0
M  V30 412 C 37.4594 -1.33695 -2.69344 0
M  V30 413 C 39.0074 -1.33246 -2.83222 0
M  V30 414 C 39.4824 -2.1625 -4.03733 0
M  V30 415 N 40.9734 -2.1379 -4.10911 0
M  V30 416 C 41.7084 -2.74772 -5.03277 0
M  V30 417 N 41.2044 -3.44684 -6.0097 0
M  V30 418 N 42.9974 -2.6441 -4.96028 0
M  V30 419 H 35.1484 -1.76485 -1.18181 0
M  V30 420 H 37.4114 -0.751199 -0.578276 0
M  V30 421 H 37.1174 -2.38634 -2.58354 0
M  V30 422 H 36.9914 -0.990618 -3.6396 0
M  V30 423 H 39.3784 -0.290911 -2.93663 0
M  V30 424 H 39.4594 -1.71866 -1.89461 0
M  V30 425 H 39.1034 -3.20445 -3.94052 0
M  V30 426 H 39.0334 -1.74989 -4.96675 0
M  V30 427 H 41.5244 -1.62923 -3.40976 0
M  V30 428 H 41.8374 -3.88501 -6.68047 0
M  V30 429 H 40.1824 -3.48788 -6.01142 0
M  V30 430 H 43.3734 -2.0938 -4.18662 0
M  V30 431 H 43.5464 -3.12225 -5.6782 0
M  V30 432 N 36.9525 1.47285 -0.560781 0
M  V30 433 C 38.1985 2.03347 -0.0463654 0
M  V30 434 C 38.5535 1.42702 1.2905 0
M  V30 435 O 37.8465 0.574619 1.8278 0
M  V30 436 C 38.0405 3.57258 0.100784 0
M  V30 437 C 37.8695 4.32827 -1.22027 0
M  V30 438 C 36.6395 4.72588 -1.78854 0
M  V30 439 C 38.8375 4.67739 -2.13834 0
M  V30 440 N 36.8195 5.32816 -3.04927 0
M  V30 441 C 38.1905 5.28307 -3.24487 0
M  V30 442 C 40.2455 4.49667 -2.13784 0
M  V30 443 C 38.9485 5.72711 -4.35194 0
M  V30 444 C 40.9745 4.95073 -3.23506 0
M  V30 445 C 40.3365 5.55693 -4.32879 0
M  V30 446 H 36.4355 0.779755 -0.0592166 0
M  V30 447 H 39.0195 1.79723 -0.748857 0
M  V30 448 H 37.1905 3.80642 0.772404 0
M  V30 449 H 38.9225 3.9996 0.617589 0
M  V30 450 H 35.6775 4.54656 -1.32609 0
M  V30 451 H 36.1015 5.67471 -3.69197 0
M  V30 452 H 40.7435 4.02154 -1.30507 0
M  V30 453 H 38.4615 6.19214 -5.1923 0
M  V30 454 H 42.0475 4.82859 -3.24559 0
M  V30 455 H 40.9275 5.90188 -5.1638 0
M  V30 456 N 38.4306 0.297415 1.54768 0
M  V30 457 C 39.3606 -0.573494 2.26348 0
M  V30 458 C 40.3416 -1.14085 1.26169 0
M  V30 459 O 41.5266 -1.17086 1.54934 0
M  V30 460 C 38.6566 -1.74716 3.00153 0
M  V30 461 C 37.6106 -1.31032 4.07449 0
M  V30 462 C 36.9366 -2.56887 4.68949 0
M  V30 463 C 38.2366 -0.444183 5.20408 0
M  V30 464 H 39.9306 0.0235131 2.99391 0
M  V30 465 H 37.4766 0.0127488 1.43994 0
M  V30 466 H 39.4296 -2.3625 3.48947 0
M  V30 467 H 38.1536 -2.37035 2.24682 0
M  V30 468 H 36.8126 -0.718066 3.59499 0
M  V30 469 H 36.4606 -3.17512 3.90122 0
M  V30 470 H 36.1606 -2.2836 5.41411 0
M  V30 471 H 37.6846 -3.19229 5.20505 0
M  V30 472 H 39.0986 -0.9651 5.65118 0
M  V30 473 H 37.4956 -0.252846 5.99567 0
M  V30 474 H 38.5656 0.531609 4.81977 0
M  V30 475 N 39.9087 -1.5758 0.0250728 0
M  V30 476 C 41.1567 -1.91255 -0.653151 0
M  V30 477 C 41.4777 -0.901691 -1.729 0
M  V30 478 O 40.7477 0.0573785 -1.95816 0
M  V30 479 H 39.3277 -0.705942 -0.244243 0
M  V30 480 H 41.9897 -1.94767 0.0719209 0
M  V30 481 H 41.0857 -2.91752 -1.10847 0
M  V30 482 N 41.3868 0.248026 -1.55636 0
M  V30 483 C 42.6118 0.998028 -1.81808 0
M  V30 484 C 43.0368 1.78207 -0.601979 0
M  V30 485 O 42.3948 1.75653 0.448961 0
M  V30 486 C 42.4428 1.9125 -3.05705 0
M  V30 487 O 41.5468 3.00406 -2.82542 0
M  V30 488 H 40.8878 0.284045 -0.600179 0
M  V30 489 H 43.4178 0.269357 -2.02819 0
M  V30 490 H 43.4278 2.32737 -3.35108 0
M  V30 491 H 42.1028 1.33602 -3.93857 0
M  V30 492 H 40.6798 2.63056 -2.64303 0
M  V30 493 N 42.8649 1.48995 0.513639 0
M  V30 494 C 43.7949 1.67636 1.62544 0
M  V30 495 C 44.7759 0.525087 1.61793 0
M  V30 496 O 45.9609 0.759502 1.78732 0
M  V30 497 C 43.0909 1.73114 3.01079 0
M  V30 498 C 42.0449 2.87905 3.16693 0
M  V30 499 C 41.3709 2.78486 4.56453 0
M  V30 500 C 42.6709 4.29005 2.97913 0
M  V30 501 H 44.3649 2.60716 1.47198 0
M  V30 502 H 41.9109 1.25465 0.706714 0
M  V30 503 H 43.8639 1.84742 3.78746 0
M  V30 504 H 42.5879 0.766241 3.17484 0
M  V30 505 H 41.2469 2.75859 2.41448 0
M  V30 506 H 40.8949 1.7993 4.69717 0
M  V30 507 H 40.5949 3.55523 4.67843 0
M  V30 508 H 42.1189 2.92104 5.36197 0
M  V30 509 H 43.5329 4.41798 3.65359 0
M  V30 510 H 41.9299 5.07166 3.20785 0
M  V30 511 H 42.9999 4.44329 1.94165 0
M  V30 512 N 44.343 -0.763751 1.37857 0
M  V30 513 C 45.759 -1.06542 1.18832 0
M  V30 514 C 45.959 -2.01478 0.0299722 0
M  V30 515 O 45.015 -2.4458 -0.627447 0
M  V30 516 C 46.328 -1.65525 2.51042 0
M  V30 517 C 47.876 -1.77745 2.57635 0
M  V30 518 C 48.351 -2.4014 3.89996 0
M  V30 519 N 49.842 -2.47582 3.91481 0
M  V30 520 C 50.577 -2.96732 4.9065 0
M  V30 521 N 50.073 -3.45993 6.00217 0
M  V30 522 N 51.866 -2.95679 4.78048 0
M  V30 523 H 44.017 -0.133556 2.1198 0
M  V30 524 H 46.28 -0.121879 0.940133 0
M  V30 525 H 45.986 -1.03236 3.36207 0
M  V30 526 H 45.86 -2.64719 2.68707 0
M  V30 527 H 48.247 -2.39164 1.72872 0
M  V30 528 H 48.328 -0.772836 2.43846 0
M  V30 529 H 47.972 -1.79358 4.75177 0
M  V30 530 H 47.902 -3.41223 4.01092 0
M  V30 531 H 50.393 -2.1273 3.12337 0
M  V30 532 H 50.706 -3.81922 6.7183 0
M  V30 533 H 49.051 -3.44077 6.03851 0
M  V30 534 H 52.242 -2.56499 3.91568 0
M  V30 535 H 52.415 -3.33672 5.55488 0
M  V30 536 N 45.8211 -1.22559 -0.990812 0
M  V30 537 C 47.2371 -0.985996 -1.255 0
M  V30 538 C 47.4371 0.319173 -1.98956 0
M  V30 539 O 46.4931 1.04127 -2.3003 0
M  V30 540 C 47.8061 -2.18607 -2.06474 0
M  V30 541 C 49.3541 -2.22985 -2.19651 0
M  V30 542 C 49.8291 -3.4255 -3.04012 0
M  V30 543 N 51.3201 -3.42725 -3.11599 0
M  V30 544 C 52.0551 -4.31892 -3.7717 0
M  V30 545 N 51.5511 -5.31279 -4.44651 0
M  V30 546 N 53.3441 -4.19662 -3.73952 0
M  V30 547 H 45.4951 -2.06469 -0.49841 0
M  V30 548 H 47.7581 -0.904853 -0.282747 0
M  V30 549 H 47.4641 -3.13267 -1.59865 0
M  V30 550 H 47.3381 -2.18838 -3.07229 0
M  V30 551 H 49.7251 -1.28871 -2.65474 0
M  V30 552 H 49.8061 -2.26791 -1.18319 0
M  V30 553 H 49.4501 -4.36965 -2.58889 0
M  V30 554 H 49.3801 -3.35984 -4.0549 0
M  V30 555 H 51.8711 -2.70807 -2.63575 0
M  V30 556 H 52.1841 -5.95593 -4.92431 0
M  V30 557 H 50.5291 -5.3519 -4.43392 0
M  V30 558 H 53.7201 -3.41268 -3.20396 0
M  V30 559 H 53.8931 -4.89358 -4.24774 0
M  V30 560 N 47.2992 1.18797 -1.03562 0
M  V30 561 C 48.7102 1.70322 -0.764676 0
M  V30 562 C 49.0612 1.82708 0.714996 0
M  V30 563 O 48.1862 1.50299 1.55689 0
M  V30 564 C 48.7812 3.09356 -1.38145 0
M  V30 565 C 47.3402 3.58114 -1.15895 0
M  V30 566 C 46.4872 2.34798 -1.4753 0
M  V30 567 H 49.4382 1.03543 -1.20268 0
M  V30 568 H 49.4592 3.72378 -0.781977 0
M  V30 569 H 48.9712 3.00309 -2.45837 0
M  V30 570 H 47.0722 3.72464 -0.100544 0
M  V30 571 H 47.1852 4.4184 -1.8524 0
M  V30 572 H 45.5492 2.38464 -0.894829 0
M  V30 573 H 46.3322 2.28375 -2.56319 0
M  V30 574 N 48.7773 0.814389 1.34928 0
M  V30 575 C 50.0023 0.410097 2.03305 0
M  V30 576 C 50.4273 -0.973464 1.60951 0
M  V30 577 O 49.7853 -1.63185 0.789964 0
M  V30 578 C 49.8333 0.51049 3.56968 0
M  V30 579 O 48.9373 -0.473035 4.09678 0
M  V30 580 H 48.2783 0.170088 0.641846 0
M  V30 581 H 50.8083 1.10244 1.72358 0
M  V30 582 H 50.8183 0.383135 4.06197 0
M  V30 583 H 49.4933 1.51963 3.87144 0
M  V30 584 H 48.0703 -0.305272 3.71648 0
M  V30 585 N 50.2554 -1.46986 0.568584 0
M  V30 586 C 51.1854 -2.32946 -0.160753 0
M  V30 587 C 52.1664 -1.44487 -0.897631 0
M  V30 588 O 53.3514 -1.73327 -0.875867 0
M  V30 589 C 50.4814 -3.26494 -1.18403 0
M  V30 590 C 49.4354 -4.24282 -0.562895 0
M  V30 591 C 48.7614 -5.07236 -1.69163 0
M  V30 592 C 50.0614 -5.19989 0.490761 0
M  V30 593 H 51.7554 -2.94175 0.556916 0
M  V30 594 H 49.3014 -1.4146 0.26927 0
M  V30 595 H 51.2544 -3.85477 -1.70251 0
M  V30 596 H 49.9784 -2.63343 -1.93179 0
M  V30 597 H 48.6374 -3.66541 -0.0656164 0
M  V30 598 H 48.2854 -4.4048 -2.42871 0
M  V30 599 H 47.9854 -5.7345 -1.28174 0
M  V30 600 H 49.5094 -5.6908 -2.21314 0
M  V30 601 H 50.9234 -5.73271 0.0579047 0
M  V30 602 H 49.3204 -5.94469 0.820165 0
M  V30 603 H 50.3904 -4.64777 1.3824 0
M  V30 604 N 51.7335 -0.305618 -1.54608 0
M  V30 605 C 52.9795 0.302746 -2.00528 0
M  V30 606 C 53.3125 1.53184 -1.19367 0
M  V30 607 O 52.5875 1.92598 -0.271321 0
M  V30 608 C 52.8705 0.654756 -3.54097 0
M  V30 609 C 52.7235 -0.583793 -4.45995 0
M  V30 610 C 54.0425 1.47947 -4.14487 0
M  V30 611 H 51.1615 0.108564 -0.72896 0
M  V30 612 H 53.8035 -0.418634 -1.85331 0
M  V30 613 H 51.9535 1.26935 -3.67178 0
M  V30 614 H 53.6255 -1.22224 -4.44814 0
M  V30 615 H 51.8685 -1.21615 -4.16404 0
M  V30 616 H 52.5395 -0.293287 -5.5122 0
M  V30 617 H 55.0155 0.96013 -4.04871 0
M  V30 618 H 53.8915 1.69454 -5.22088 0
M  V30 619 H 54.1525 2.47011 -3.66658 0
M  V30 620 N 53.2116 1.57565 -0.0334293 0
M  V30 621 C 54.1616 2.06978 0.956237 0
M  V30 622 C 55.1456 0.971193 1.28283 0
M  V30 623 O 56.3376 1.23471 1.26822 0
M  V30 624 C 53.4666 2.60393 2.23719 0
M  V30 625 C 52.5526 3.7719 1.93877 0
M  V30 626 N 52.9436 4.87639 1.34321 0
M  V30 627 C 51.2416 3.85758 2.23845 0
M  V30 628 C 51.9426 5.68825 1.21709 0
M  V30 629 N 50.9186 5.1587 1.71404 0
M  V30 630 H 54.7206 2.89773 0.490815 0
M  V30 631 H 52.2346 1.61492 0.171478 0
M  V30 632 H 54.2316 2.94088 2.95496 0
M  V30 633 H 52.8916 1.79031 2.70884 0
M  V30 634 H 53.9026 5.07803 1.01767 0
M  V30 635 H 50.5796 3.1531 2.73653 0
M  V30 636 H 51.9696 6.67631 0.75621 0
M  V30 637 N 54.6897 -0.239769 1.55765 0
M  V30 638 C 55.9377 -0.964892 1.77579 0
M  V30 639 C 56.2587 -1.85582 0.598699 0
M  V30 640 O 55.5287 -1.92075 -0.385226 0
M  V30 641 H 54.1087 -0.359265 0.654933 0
M  V30 642 H 56.7707 -0.256001 1.93211 0
M  V30 643 H 55.8667 -1.58243 2.69009 0
M  V30 644 N 56.1678 -1.49265 -0.50573 0
M  V30 645 C 57.3978 -1.61979 -1.28243 0
M  V30 646 C 57.8058 -0.288576 -1.86986 0
M  V30 647 O 57.1488 0.735408 -1.68337 0
M  V30 648 C 57.2108 -2.62632 -2.45489 0
M  V30 649 C 56.8748 -4.071 -2.07651 0
M  V30 650 C 57.8718 -4.94049 -1.61901 0
M  V30 651 C 55.5568 -4.52801 -2.17431 0
M  V30 652 C 57.5508 -6.24736 -1.26428 0
M  V30 653 C 55.2378 -5.83503 -1.8157 0
M  V30 654 C 56.2358 -6.69294 -1.36142 0
M  V30 655 O 55.9238 -7.9756 -1.00764 0
M  V30 656 H 55.6558 -0.54834 -0.395347 0
M  V30 657 H 58.2098 -1.96002 -0.614204 0
M  V30 658 H 56.4398 -2.2378 -3.15372 0
M  V30 659 H 58.1288 -2.64925 -3.07522 0
M  V30 660 H 58.8948 -4.5997 -1.53795 0
M  V30 661 H 54.7738 -3.86196 -2.51742 0
M  V30 662 H 58.3178 -6.91652 -0.908992 0
M  V30 663 H 54.2148 -6.17112 -1.89324 0
M  V30 664 H 54.9828 -8.10529 -1.13952 0
M  V30 665 N 57.6459 0.756429 -1.3826 0
M  V30 666 C 59.0569 1.33359 -1.30661 0
M  V30 667 C 59.4079 1.96161 0.0388875 0
M  V30 668 O 58.5329 1.94874 0.940918 0
M  V30 669 C 59.1279 2.42477 -2.36622 0
M  V30 670 C 57.6869 2.95922 -2.3261 0
M  V30 671 C 56.8339 1.69275 -2.19639 0
M  V30 672 H 59.7849 0.55552 -1.4866 0
M  V30 673 H 59.8059 3.22345 -2.02174 0
M  V30 674 H 59.3179 1.96739 -3.34538 0
M  V30 675 H 57.4189 3.45996 -1.38267 0
M  V30 676 H 57.5319 3.50494 -3.26636 0
M  V30 677 H 55.8959 1.92793 -1.66442 0
M  V30 678 H 56.6789 1.25619 -3.19491 0
M  V30 679 N 59.124 1.23083 0.984299 0
M  V30 680 C 60.37 1.06214 1.72761 0
M  V30 681 C 60.703 -0.400584 1.90024 0
M  V30 682 O 59.978 -1.29672 1.44967 0
M  V30 683 C 60.261 1.78375 3.12817 0
M  V30 684 C 60.114 3.32296 3.03149 0
M  V30 685 C 61.433 1.54309 4.12161 0
M  V30 686 H 58.552 0.387251 0.627061 0
M  V30 687 H 61.194 1.51536 1.14616 0
M  V30 688 H 59.344 1.39848 3.62457 0
M  V30 689 H 61.016 3.8032 2.61064 0
M  V30 690 H 59.259 3.6153 2.39747 0
M  V30 691 H 59.93 3.77972 4.02295 0
M  V30 692 H 62.406 1.87791 3.71314 0
M  V30 693 H 61.282 2.07281 5.08258 0
M  V30 694 H 61.543 0.477572 4.39513 0
M  V30 695 N 60.6021 -1.18246 1.0419 0
M  V30 696 C 61.5321 -2.24127 0.654914 0
M  V30 697 C 62.5131 -1.66617 -0.342451 0
M  V30 698 O 63.6981 -1.92924 -0.222277 0
M  V30 699 C 60.8281 -3.47295 0.0183757 0
M  V30 700 C 59.7821 -4.17563 0.939414 0
M  V30 701 C 59.1081 -5.34438 0.167286 0
M  V30 702 C 60.4081 -4.70917 2.25908 0
M  V30 703 H 62.1021 -2.56753 1.54007 0
M  V30 704 H 59.6481 -1.23414 0.74195 0
M  V30 705 H 61.6011 -4.20572 -0.264082 0
M  V30 706 H 60.3251 -3.13907 -0.901664 0
M  V30 707 H 58.9841 -3.46186 1.20628 0
M  V30 708 H 58.6321 -4.97298 -0.7552 0
M  V30 709 H 58.3321 -5.82388 0.780901 0
M  V30 710 H 59.8561 -6.10504 -0.108125 0
M  V30 711 H 61.2701 -5.35882 2.03724 0
M  V30 712 H 59.6671 -5.29406 2.82577 0
M  V30 713 H 60.7371 -3.88272 2.9047 0
M  V30 714 N 62.0802 -0.821533 -1.34494 0
M  V30 715 C 63.0432 -0.247847 -2.27856 0
M  V30 716 C 64.0432 0.573453 -1.50227 0
M  V30 717 O 65.2332 0.389759 -1.69784 0
M  V30 718 C 62.3652 0.652698 -3.34593 0
M  V30 719 H 63.5582 -1.07146 -2.80107 0
M  V30 720 H 61.1112 -0.593291 -1.44602 0
M  V30 721 H 61.8462 1.49943 -2.87555 0
M  V30 722 H 61.6312 0.065292 -3.92046 0
M  V30 723 H 63.1212 1.04793 -4.04238 0
M  V30 724 N 63.5583 1.46682 -0.576371 0
M  V30 725 C 64.8043 2.03287 -0.0679305 0
M  V30 726 C 65.1593 1.44063 1.27529 0
M  V30 727 O 64.4523 0.593973 1.82161 0
M  V30 728 C 64.6463 3.57345 0.062886 0
M  V30 729 C 64.4753 4.31509 -1.26611 0
M  V30 730 C 63.2453 4.70664 -1.83856 0
M  V30 731 C 65.4433 4.65444 -2.18783 0
M  V30 732 N 63.4253 5.29552 -3.10561 0
M  V30 733 C 64.7963 5.24835 -3.30072 0
M  V30 734 C 66.8513 4.47375 -2.18542 0
M  V30 735 C 65.5543 5.68063 -4.41244 0
M  V30 736 C 67.5803 4.91614 -3.28739 0
M  V30 737 C 66.9423 5.51071 -4.38748 0
M  V30 738 H 63.0413 0.779083 -0.0674836 0
M  V30 739 H 65.6253 1.78918 -0.767877 0
M  V30 740 H 63.7963 3.8144 0.731988 0
M  V30 741 H 65.5283 4.00592 0.575134 0
M  V30 742 H 62.2833 4.53224 -1.37424 0
M  V30 743 H 62.7073 5.63523 -3.75195 0
M  V30 744 H 67.3493 4.00747 -1.34765 0
M  V30 745 H 65.0673 6.13672 -5.25768 0
M  V30 746 H 68.6533 4.79389 -3.29662 0
M  V30 747 H 67.5333 5.84678 -5.22611 0
M  V30 748 N 65.0364 0.313813 1.54444 0
M  V30 749 C 65.9864 -0.571898 2.20711 0
M  V30 750 C 66.9704 -1.08913 1.18435 0
M  V30 751 O 68.1624 -1.02777 1.44104 0
M  V30 752 C 65.2914 -1.7371 2.96108 0
M  V30 753 C 64.3774 -1.23522 4.05713 0
M  V30 754 N 64.7684 -0.452288 5.03774 0
M  V30 755 C 63.0664 -1.51482 4.19487 0
M  V30 756 C 63.7674 -0.183438 5.81411 0
M  V30 757 N 62.7434 -0.766845 5.38164 0
M  V30 758 H 66.5454 0.0336802 2.93881 0
M  V30 759 H 64.0594 0.119192 1.61962 0
M  V30 760 H 66.0564 -2.38329 3.4206 0
M  V30 761 H 64.7164 -2.34625 2.24458 0
M  V30 762 H 65.7274 -0.0960131 5.17811 0
M  V30 763 H 62.4044 -2.13053 3.59047 0
M  V30 764 H 63.7944 0.446216 6.70417 0
M  V30 765 N 66.5145 -1.57545 0.0417849 0
M  V30 766 C 67.7395 -1.97035 -0.647455 0
M  V30 767 C 68.1645 -0.918775 -1.64135 0
M  V30 768 O 67.5225 0.119006 -1.80909 0
M  V30 769 C 67.5705 -3.35609 -1.31905 0
M  V30 770 O 66.6745 -3.3287 -2.43457 0
M  V30 771 H 66.0155 -0.64211 -0.169086 0
M  V30 772 H 68.5455 -2.04318 0.107399 0
M  V30 773 H 68.5555 -3.72126 -1.67291 0
M  V30 774 H 67.2305 -4.11685 -0.590586 0
M  V30 775 H 65.8075 -3.08087 -2.10088 0
M  V30 776 N 67.9926 0.231505 -1.5589 0
M  V30 777 C 68.9556 1.27028 -1.90779 0
M  V30 778 C 69.9556 1.40308 -0.785507 0
M  V30 779 O 71.1456 1.38744 -1.05336 0
M  V30 780 C 68.2776 2.64566 -2.14983 0
M  V30 781 H 69.4706 0.973017 -2.83677 0
M  V30 782 H 67.0236 0.471486 -1.49019 0
M  V30 783 H 67.7586 2.99406 -1.24604 0
M  V30 784 H 67.5436 2.56305 -2.96732 0
M  V30 785 H 69.0336 3.39543 -2.43105 0
M  V30 786 N 69.4707 1.49531 0.497807 0
M  V30 787 C 70.8867 1.36365 0.829266 0
M  V30 788 C 71.0867 0.399184 1.97506 0
M  V30 789 O 70.1427 -0.167977 2.51941 0
M  V30 790 C 71.4557 2.77153 1.16647 0
M  V30 791 C 73.0037 2.85877 1.27449 0
M  V30 792 C 73.4787 4.2744 1.64497 0
M  V30 793 N 74.9697 4.30265 1.7154 0
M  V30 794 C 75.7047 5.3677 2.01656 0
M  V30 795 N 75.2007 6.53516 2.29976 0
M  V30 796 N 76.9937 5.24189 2.02934 0
M  V30 797 H 69.1447 2.10831 -0.257703 0
M  V30 798 H 71.4077 0.946534 -0.0527091 0
M  V30 799 H 71.1137 3.49442 0.397872 0
M  V30 800 H 70.9877 3.12722 2.10915 0
M  V30 801 H 73.3747 2.13824 2.0338 0
M  V30 802 H 73.4557 2.53887 0.312244 0
M  V30 803 H 73.0997 5.00021 0.891151 0
M  V30 804 H 73.0297 4.56896 2.61827 0
M  V30 805 H 75.5207 3.4607 1.51802 0
M  V30 806 H 75.8337 7.30506 2.52153 0
M  V30 807 H 74.1787 6.56737 2.27425 0
M  V30 808 H 77.3697 4.31988 1.80289 0
M  V30 809 H 77.5427 6.07286 2.26071 0
M  V30 810 N 70.9488 -0.749086 1.3866 0
M  V30 811 C 72.1888 -1.52112 1.36534 0
M  V30 812 C 72.5528 -1.91951 -0.0432316 0
M  V30 813 O 73.7538 -2.68132 -0.189396 0
M  V30 814 C 72.0248 -2.73704 2.29828 0
M  V30 815 S 73.5838 -3.63519 2.45763 0
M  V30 816 H 70.4018 -0.520482 0.484375 0
M  V30 817 H 73.0038 -0.878963 1.74627 0
M  V30 818 H 71.7078 -2.42552 3.31054 0
M  V30 819 H 71.2388 -3.4286 1.929 0
M  V30 820 H 73.2538 -4.66712 1.68505 0
M  V30 821 N 72.4269 -1.23603 -0.977757 0
M  V30 822 C 73.6729 -1.08136 -1.72274 0
M  V30 823 C 74.0279 0.377453 -1.88661 0
M  V30 824 O 73.3209 1.27552 -1.42972 0
M  V30 825 C 73.5149 -1.7433 -3.11999 0
M  V30 826 C 73.3439 -3.26498 -3.0924 0
M  V30 827 C 72.1139 -3.9567 -3.14282 0
M  V30 828 C 74.3119 -4.2323 -2.92201 0
M  V30 829 N 72.2939 -5.34799 -3.01436 0
M  V30 830 C 73.6649 -5.49289 -2.87544 0
M  V30 831 C 75.7199 -4.13931 -2.76705 0
M  V30 832 C 74.4229 -6.67116 -2.68978 0
M  V30 833 C 76.4489 -5.31424 -2.59504 0
M  V30 834 C 75.8109 -6.5641 -2.55548 0
M  V30 835 H 71.9099 -0.450247 -0.639376 0
M  V30 836 H 74.4939 -1.5637 -1.16002 0
M  V30 837 H 72.6649 -1.28624 -3.66484 0
M  V30 838 H 74.3969 -1.51815 -3.75146 0
M  V30 839 H 71.1519 -3.46767 -3.22567 0
M  V30 840 H 71.5759 -6.07748 -2.98281 0
M  V30 841 H 76.2179 -3.1807 -2.78552 0
M  V30 842 H 73.9359 -7.63109 -2.65876 0
M  V30 843 H 77.5219 -5.26072 -2.48474 0
M  V30 844 H 76.4019 -7.45795 -2.42405 0
M  V30 845 N 73.905 1.17692 -1.04816 0
M  V30 846 C 75.145 1.89545 -0.764979 0
M  V30 847 C 75.509 1.78979 0.695028 0
M  V30 848 O 76.71 2.45613 1.09215 0
M  V30 849 C 74.981 3.35659 -1.22751 0
M  V30 850 S 76.54 4.25526 -1.07112 0
M  V30 851 H 73.358 0.654432 -0.27792 0
M  V30 852 H 75.96 1.42163 -1.34201 0
M  V30 853 H 74.664 3.40882 -2.28533 0
M  V30 854 H 74.195 3.88083 -0.644594 0
M  V30 855 H 76.21 4.962 0.00697508 0
M  V30 856 N 75.3831 0.828654 1.34056 0
M  V30 857 C 76.3151 0.212052 2.28217 0
M  V30 858 C 77.3281 -0.601362 1.51286 0
M  V30 859 O 78.5171 -0.430104 1.73241 0
M  V30 860 C 75.6171 -0.72088 3.31144 0
M  V30 861 C 74.7901 0.0509587 4.3737 0
M  V30 862 C 73.8491 -0.803766 5.20025 0
M  V30 863 O 72.8751 -0.246667 5.68665 0
M  V30 864 N 74.0771 -2.1227 5.40298 0
M  V30 865 H 76.8421 1.02105 2.81771 0
M  V30 866 H 74.4031 0.686153 1.46641 0
M  V30 867 H 76.3951 -1.29742 3.8334 0
M  V30 868 H 74.9651 -1.43061 2.77943 0
M  V30 869 H 74.1851 0.808831 3.85813 0
M  V30 870 H 75.4731 0.582065 5.0546 0
M  V30 871 H 74.8711 -2.59898 5.02464 0
M  V30 872 H 73.4281 -2.64796 5.95589 0
M  V30 873 N 76.8612 -1.46375 0.584142 0
M  V30 874 C 77.8242 -2.28784 -0.138108 0
M  V30 875 C 78.8242 -1.38471 -0.817462 0
M  V30 876 O 80.0142 -1.60833 -0.669199 0
M  V30 877 C 77.1462 -3.18892 -1.20503 0
M  V30 878 H 78.3392 -2.94117 0.586127 0
M  V30 879 H 75.8922 -1.52509 0.342171 0
M  V30 880 H 76.6272 -2.58309 -1.96079 0
M  V30 881 H 76.4122 -3.85388 -0.722384 0
M  V30 882 H 77.9022 -3.80914 -1.71155 0
M  V30 883 N 78.3393 -0.321999 -1.54275 0
M  V30 884 C 79.5853 0.274234 -2.01543 0
M  V30 885 C 79.9403 1.499 -1.20614 0
M  V30 886 O 79.2333 1.89546 -0.279804 0
M  V30 887 C 79.4273 0.661769 -3.5122 0
M  V30 888 C 79.2563 -0.523892 -4.46638 0
M  V30 889 C 78.0263 -1.02251 -4.94846 0
M  V30 890 C 80.2243 -1.37558 -4.95563 0
M  V30 891 N 78.2063 -2.17274 -5.74165 0
M  V30 892 C 79.5773 -2.37301 -5.7279 0
M  V30 893 C 81.6323 -1.40353 -4.77709 0
M  V30 894 C 80.3353 -3.3964 -6.34064 0
M  V30 895 C 82.3613 -2.41562 -5.39817 0
M  V30 896 C 81.7233 -3.40031 -6.16894 0
M  V30 897 H 77.8223 0.0642367 -0.779357 0
M  V30 898 H 80.4063 -0.456683 -1.89268 0
M  V30 899 H 78.5773 1.36182 -3.63743 0
M  V30 900 H 80.3093 1.23934 -3.85256 0
M  V30 901 H 77.0643 -0.594046 -4.6986 0
M  V30 902 H 77.4883 -2.75289 -6.18502 0
M  V30 903 H 82.1303 -0.655907 -4.17681 0
M  V30 904 H 79.8483 -4.15309 -6.93213 0
M  V30 905 H 83.4343 -2.44524 -5.2792 0
M  V30 906 H 82.3143 -4.17063 -6.64099 0
M  V30 907 N 79.8174 1.5752 -0.0501392 0
M  V30 908 C 81.0454 1.96963 0.633492 0
M  V30 909 C 81.4604 0.927631 1.6444 0
M  V30 910 O 80.8174 -0.0882665 1.82286 0
M  V30 911 C 80.8684 3.36487 1.32132 0
M  V30 912 O 80.5894 4.36693 0.350894 0
M  V30 913 C 82.0904 3.90682 2.09481 0
M  V30 914 H 79.3104 0.648244 0.173266 0
M  V30 915 H 81.8544 2.0417 -0.116134 0
M  V30 916 H 80.0094 3.30434 2.02218 0
M  V30 917 H 80.4234 5.17702 0.841735 0
M  V30 918 H 81.8974 4.90591 2.5303 0
M  V30 919 H 82.3744 3.26053 2.94255 0
M  V30 920 H 82.9804 4.00069 1.44307 0
M  V30 921 N 81.2955 -0.223234 1.56011 0
M  V30 922 C 82.2055 -1.29766 1.95443 0
M  V30 923 C 83.2215 -1.51373 0.858028 0
M  V30 924 O 84.3975 -1.64536 1.16146 0
M  V30 925 C 81.4625 -2.62772 2.26167 0
M  V30 926 C 80.5235 -2.49482 3.49367 0
M  V30 927 C 79.7565 -3.76145 3.78616 0
M  V30 928 O 79.9795 -4.79087 3.09568 0
M  V30 929 O 78.9135 -3.73358 4.72109 0
M  V30 930 H 82.7395 -0.99309 2.87004 0
M  V30 931 H 80.3245 -0.425958 1.43199 0
M  V30 932 H 82.2065 -3.41327 2.47131 0
M  V30 933 H 80.8815 -2.92913 1.37781 0
M  V30 934 H 79.7885 -1.69133 3.33684 0
M  V30 935 H 81.1215 -2.2428 4.38131 0
M  V30 936 N 82.7736 -1.49793 -0.48987 0
M  V30 937 C 83.6836 -1.70036 -1.61632 0
M  V30 938 C 84.6996 -0.583102 -1.63939 0
M  V30 939 O 85.8756 -0.859169 -1.82154 0
M  V30 940 C 82.9406 -1.77277 -2.97949 0
M  V30 941 C 82.0016 -3.00918 -3.06181 0
M  V30 942 C 81.2346 -3.07804 -4.35996 0
M  V30 943 O 81.4576 -2.21982 -5.25433 0
M  V30 944 O 80.3916 -4.00369 -4.49431 0
M  V30 945 H 84.2176 -2.65486 -1.47482 0
M  V30 946 H 81.8026 -1.33666 -0.667362 0
M  V30 947 H 83.6846 -1.84329 -3.78947 0
M  V30 948 H 82.3596 -0.850076 -3.12339 0
M  V30 949 H 81.2666 -2.99377 -2.2433 0
M  V30 950 H 82.5996 -3.92704 -2.96723 0
M  V30 951 N 84.2517 0.741722 -1.39055 0
M  V30 952 C 85.6627 1.31966 -1.32068 0
M  V30 953 C 86.0137 1.96192 0.0180797 0
M  V30 954 O 85.1387 1.95861 0.920196 0
M  V30 955 C 85.7337 2.39954 -2.39181 0
M  V30 956 C 84.2927 2.93438 -2.35735 0
M  V30 957 C 83.4397 1.66936 -2.21422 0
M  V30 958 H 86.3907 0.539721 -1.4924 0
M  V30 959 H 86.4117 3.20182 -2.05581 0
M  V30 960 H 85.9237 1.9318 -3.36605 0
M  V30 961 H 84.0247 3.4451 -1.41929 0
M  V30 962 H 84.1377 3.4701 -3.30335 0
M  V30 963 H 82.5017 1.91016 -1.68478 0
M  V30 964 H 83.2847 1.22224 -3.20806 0
M  V30 965 N 85.7298 1.2412 0.971189 0
M  V30 966 C 87.1458 1.00584 1.23916 0
M  V30 967 C 87.3458 -0.287481 1.99439 0
M  V30 968 O 86.4018 -1.00454 2.31658 0
M  V30 969 C 87.7148 2.21864 2.0297 0
M  V30 970 C 89.2628 2.26452 2.16076 0
M  V30 971 C 89.7378 3.47343 2.98524 0
M  V30 972 N 91.2288 3.47639 3.06107 0
M  V30 973 C 91.9638 4.37837 3.70251 0
M  V30 974 N 91.4598 5.38286 4.36142 0
M  V30 975 N 93.2528 4.25558 3.67228 0
M  V30 976 H 85.4038 2.07236 0.465499 0
M  V30 977 H 87.6668 0.909236 0.268315 0
M  V30 978 H 87.3728 3.15771 1.54861 0
M  V30 979 H 87.2468 2.23698 3.03709 0
M  V30 980 H 89.6338 1.33078 2.6339 0
M  V30 981 H 89.7148 2.28645 1.14696 0
M  V30 982 H 89.3588 4.41029 2.51905 0
M  V30 983 H 89.2888 3.42393 4.00093 0
M  V30 984 H 91.7798 2.74966 2.59233 0
M  V30 985 H 92.0928 6.03352 4.82894 0
M  V30 986 H 90.4378 5.42176 4.34822 0
M  V30 987 H 93.6288 3.46322 3.14927 0
M  V30 988 H 93.8018 4.96054 4.16935 0
M  V30 989 N 87.2079 -1.17134 1.05439 0
M  V30 990 C 88.1709 -2.19439 0.661764 0
M  V30 991 C 89.1709 -1.58199 -0.288042 0
M  V30 992 O 90.3609 -1.74053 -0.0715803 0
M  V30 993 C 87.4929 -3.40889 -0.0276209 0
M  V30 994 H 88.6859 -2.55688 1.56728 0
M  V30 995 H 86.2389 -1.31259 0.848567 0
M  V30 996 H 86.9739 -3.10187 -0.94629 0
M  V30 997 H 86.7589 -3.86586 0.655238 0
M  V30 998 H 88.2489 -4.16603 -0.288342 0
M  V30 999 N 88.686 -0.835752 -1.33615 0
M  V30 1000 C 89.616 -0.281739 -2.31794 0
M  V30 1001 C 90.597 0.608833 -1.58831 0
M  V30 1002 O 91.782 0.533035 -1.86741 0
M  V30 1003 C 88.912 0.546612 -3.42971 0
M  V30 1004 C 87.866 -0.247904 -4.27281 0
M  V30 1005 C 87.192 0.704001 -5.30045 0
M  V30 1006 C 88.492 -1.46324 -5.01385 0
M  V30 1007 H 90.186 -1.10206 -2.78379 0
M  V30 1008 H 87.732 -0.531388 -1.33837 0
M  V30 1009 H 89.685 0.944467 -4.1068 0
M  V30 1010 H 88.409 1.40011 -2.95067 0
M  V30 1011 H 87.068 -0.627281 -3.61194 0
M  V30 1012 H 86.716 1.55381 -4.78399 0
M  V30 1013 H 86.416 0.176524 -5.87335 0
M  V30 1014 H 87.94 1.09944 -6.0062 0
M  V30 1015 H 89.354 -1.13871 -5.61877 0
M  V30 1016 H 87.751 -1.92728 -5.6831 0
M  V30 1017 H 88.821 -2.23467 -4.30338 0
M  V30 1018 N 90.1641 1.46063 -0.591896 0
M  V30 1019 C 91.4041 2.04228 -0.0838014 0
M  V30 1020 C 91.7681 1.45231 1.25587 0
M  V30 1021 O 92.9691 1.94653 1.85375 0
M  V30 1022 C 91.2401 3.57389 -0.0286282 0
M  V30 1023 S 92.7991 4.3678 0.420557 0
M  V30 1024 H 89.6171 0.709762 -0.0419319 0
M  V30 1025 H 92.2191 1.78983 -0.786465 0
M  V30 1026 H 90.9231 3.97843 -1.00743 0
M  V30 1027 H 90.4541 3.87185 0.69652 0
M  V30 1028 H 92.4691 4.67131 1.67341 0
M  V30 1029 N 91.6422 0.330177 1.54103 0
M  V30 1030 C 92.8672 -0.274893 2.0557 0
M  V30 1031 C 93.2922 -1.44487 1.20437 0
M  V30 1032 O 92.6502 -1.80021 0.214991 0
M  V30 1033 C 92.6982 -0.68079 3.54115 0
M  V30 1034 O 91.8022 -1.7824 3.71893 0
M  V30 1035 H 91.1432 -0.0483849 0.662235 0
M  V30 1036 H 93.6732 0.480508 1.98878 0
M  V30 1037 H 93.6832 -0.961635 3.96505 0
M  V30 1038 H 92.3582 0.174903 4.15532 0
M  V30 1039 H 90.9352 -1.49985 3.41407 0
M  V30 1040 N 93.1203 -1.57491 0.0584922 0
M  V30 1041 C 94.3453 -1.97711 -0.62652 0
M  V30 1042 C 94.7703 -0.936132 -1.63151 0
M  V30 1043 O 94.1283 0.099811 -1.81025 0
M  V30 1044 C 94.1763 -3.36989 -1.28338 0
M  V30 1045 O 93.2803 -3.35433 -2.39913 0
M  V30 1046 H 92.6213 -0.643868 -0.162266 0
M  V30 1047 H 95.1513 -2.04193 0.129064 0
M  V30 1048 H 95.1613 -3.73879 -1.63335 0
M  V30 1049 H 93.8363 -4.12289 -0.546889 0
M  V30 1050 H 92.4133 -3.10298 -2.06809 0
M  V30 1051 N 94.5984 0.214957 -1.56127 0
M  V30 1052 C 95.5284 1.2695 -1.95974 0
M  V30 1053 C 96.5094 1.48539 -0.828868 0
M  V30 1054 O 97.6944 1.60611 -1.09168 0
M  V30 1055 C 94.8244 2.61794 -2.28214 0
M  V30 1056 C 93.7784 2.54851 -3.43853 0
M  V30 1057 C 93.1044 3.93785 -3.61715 0
M  V30 1058 C 94.4044 2.09065 -4.78632 0
M  V30 1059 H 96.0984 0.93846 -2.84312 0
M  V30 1060 H 93.6444 0.449996 -1.36788 0
M  V30 1061 H 95.5974 3.35731 -2.54682 0
M  V30 1062 H 94.3214 2.96599 -1.36736 0
M  V30 1063 H 92.9804 1.8337 -3.17444 0
M  V30 1064 H 92.6284 4.25908 -2.67602 0
M  V30 1065 H 92.3284 3.90019 -4.39498 0
M  V30 1066 H 93.8524 4.69374 -3.90539 0
M  V30 1067 H 95.2664 2.7275 -5.04262 0
M  V30 1068 H 93.6634 2.16346 -5.59745 0
M  V30 1069 H 94.7334 1.04315 -4.73547 0
M  V30 1070 N 96.0765 1.50051 0.48192 0
M  V30 1071 C 97.4925 1.37237 0.814756 0
M  V30 1072 C 97.6925 0.420109 1.97072 0
M  V30 1073 O 96.7485 -0.141246 2.52105 0
M  V30 1074 C 98.0615 2.78375 1.13701 0
M  V30 1075 C 99.6095 2.87213 1.2441 0
M  V30 1076 C 100.084 4.29161 1.59954 0
M  V30 1077 N 101.575 4.32061 1.66967 0
M  V30 1078 C 102.31 5.38879 1.95952 0
M  V30 1079 N 101.806 6.55918 2.23031 0
M  V30 1080 N 103.599 5.26312 1.97363 0
M  V30 1081 H 95.7505 2.10546 -0.28005 0
M  V30 1082 H 98.0135 0.945921 -0.0627454 0
M  V30 1083 H 97.7195 3.49845 0.360787 0
M  V30 1084 H 97.5935 3.14941 2.07586 0
M  V30 1085 H 99.9805 2.15969 2.01101 0
M  V30 1086 H 100.061 2.54204 0.285299 0
M  V30 1087 H 99.7055 5.00938 0.838067 0
M  V30 1088 H 99.6355 4.59648 2.56966 0
M  V30 1089 H 102.126 3.47661 1.48123 0
M  V30 1090 H 102.439 7.33139 2.44391 0
M  V30 1091 H 100.784 6.59112 2.20447 0
M  V30 1092 H 103.975 4.33876 1.75697 0
M  V30 1093 H 104.148 6.09649 2.19618 0
M  V30 1094 N 97.5546 -0.734337 1.39446 0
M  V30 1095 C 98.4876 -1.85715 1.32609 0
M  V30 1096 C 99.4656 -1.6137 0.199636 0
M  V30 1097 O 100.65 -1.84626 0.380195 0
M  V30 1098 C 97.7766 -3.21709 1.05929 0
M  V30 1099 C 96.8226 -3.64913 2.20773 0
M  V30 1100 S 97.6556 -3.74203 3.83056 0
M  V30 1101 C 98.8116 -5.12986 3.58603 0
M  V30 1102 H 99.0446 -1.91232 2.27635 0
M  V30 1103 H 96.5776 -0.899263 1.25509 0
M  V30 1104 H 98.5356 -4.00236 0.912203 0
M  V30 1105 H 97.1966 -3.13848 0.125883 0
M  V30 1106 H 96.3896 -4.63606 1.97699 0
M  V30 1107 H 95.9916 -2.93593 2.31688 0
M  V30 1108 H 98.2836 -5.99339 3.15909 0
M  V30 1109 H 99.2266 -5.41088 4.5676 0
M  V30 1110 H 99.6346 -4.82694 2.9269 0
M  V30 1111 N 99.0327 -1.24633 -0.964593 0
M  V30 1112 C 99.9807 -1.03917 -2.08096 0
M  V30 1113 C 100.975 0.0268581 -1.69379 0
M  V30 1114 O 102.181 -0.127952 -1.79545 0
M  V30 1115 H 98.5557 -0.319044 -0.680966 0
M  V30 1116 H 100.527 -1.98581 -2.22729 0
M  V30 1117 C 99.2757 -0.663983 -3.41301 0
M  V30 1118 H 98.5987 -1.47605 -3.71555 0
M  V30 1119 H 100.039 -0.558663 -4.20303 0
M  V30 1120 C 98.4977 0.629169 -3.30973 0
M  V30 1121 O 99.0277 1.67404 -3.65156 0
M  V30 1122 N 97.2337 0.611057 -2.84103 0
M  V30 1123 H 96.7807 -0.239593 -2.56483 0
M  V30 1124 H 96.7387 1.47647 -2.77575 0
M  V30 1125 N 100.511 1.16574 -1.06058 0
M  V30 1126 C 101.759 1.86677 -0.77434 0
M  V30 1127 C 102.08 1.81959 0.701147 0
M  V30 1128 O 101.35 1.2515 1.50713 0
M  V30 1129 H 99.9298 0.691134 -0.283449 0
M  V30 1130 H 102.592 1.41378 -1.34158 0
M  V30 1131 H 101.688 2.92181 -1.09711 0
M  V30 1132 N 101.989 0.842826 1.3317 0
M  V30 1133 C 103.266 0.362216 1.92217 0
M  V30 1134 C 103.646 -1.15289 1.76838 0
M  V30 1135 O 102.994 -1.96914 1.15919 0
M  V30 1136 C 103.204 0.813495 3.39387 0
M  V30 1137 C 104.552 0.823804 4.16532 0
M  V30 1138 O 105.576 0.757358 3.48055 0
M  V30 1139 O 104.435 0.915193 5.38782 0
M  V30 1140 H 101.529 0.103317 0.820521 0
M  V30 1141 H 104.075 0.928942 1.42017 0
M  V30 1142 H 102.847 1.85624 3.4447 0
M  V30 1143 H 102.47 0.223561 3.96971 0
M  V30 1144 N 103.467 -1.45747 0.599634 0
M  V30 1145 C 104.399 -2.28628 -0.161879 0
M  V30 1146 C 105.412 -1.39494 -0.839367 0
M  V30 1147 O 106.601 -1.63941 -0.706089 0
M  V30 1148 C 103.701 -3.15014 -1.24976 0
M  V30 1149 C 102.874 -4.32378 -0.660935 0
M  V30 1150 C 101.933 -5.00033 -1.63869 0
M  V30 1151 O 100.959 -5.57085 -1.1681 0
M  V30 1152 N 102.161 -4.98589 -2.97303 0
M  V30 1153 H 104.926 -2.94624 0.549265 0
M  V30 1154 H 102.487 -1.55847 0.438565 0
M  V30 1155 H 104.479 -3.5714 -1.9035 0
M  V30 1156 H 103.049 -2.5098 -1.86354 0
M  V30 1157 H 102.269 -3.9383 0.170688 0
M  V30 1158 H 103.557 -5.08197 -0.247619 0
M  V30 1159 H 102.955 -4.53514 -3.38145 0
M  V30 1160 H 101.512 -5.44603 -3.58121 0
M  V30 1161 N 104.945 -0.338344 -1.53925 0
M  V30 1162 C 105.893 0.536231 -2.26335 0
M  V30 1163 C 106.887 1.1063 -1.28286 0
M  V30 1164 O 108.093 1.05264 -1.46012 0
M  V30 1165 H 104.468 0.191602 -0.727181 0
M  V30 1166 H 106.439 -0.0965747 -2.98244 0
M  V30 1167 C 105.188 1.67803 -3.04528 0
M  V30 1168 H 104.511 1.24864 -3.79801 0
M  V30 1169 H 105.951 2.26526 -3.58416 0
M  V30 1170 C 104.41 2.60439 -2.13712 0
M  V30 1171 O 104.94 3.6255 -1.72975 0
M  V30 1172 N 103.146 2.29006 -1.78898 0
M  V30 1173 H 102.693 1.46011 -2.12223 0
M  V30 1174 H 102.651 2.91248 -1.18416 0
M  V30 1175 N 106.423 1.57458 -0.0668435 0
M  V30 1176 C 107.648 1.9804 0.616027 0
M  V30 1177 C 108.073 0.944771 1.62652 0
M  V30 1178 O 107.431 -0.0902094 1.81075 0
M  V30 1179 C 107.479 3.37665 1.26549 0
M  V30 1180 O 106.583 3.36701 2.38131 0
M  V30 1181 H 105.924 0.644719 0.158849 0
M  V30 1182 H 108.454 2.04121 -0.139891 0
M  V30 1183 H 108.464 3.7474 1.6135 0
M  V30 1184 H 107.139 4.12573 0.525016 0
M  V30 1185 H 105.716 3.1139 2.0516 0
M  V30 1186 N 107.901 -0.206675 1.56239 0
M  V30 1187 C 109.178 -0.954051 1.70755 0
M  V30 1188 C 109.558 -2.01841 0.618353 0
M  V30 1189 O 108.906 -2.25444 -0.372434 0
M  V30 1190 C 109.116 -1.551 3.12642 0
M  V30 1191 C 110.464 -2.03757 3.72516 0
M  V30 1192 O 111.488 -1.64965 3.15698 0
M  V30 1193 O 110.347 -2.75103 4.72208 0
M  V30 1194 H 107.441 -0.446636 0.696021 0
M  V30 1195 H 109.987 -0.197283 1.68549 0
M  V30 1196 H 108.759 -0.783212 3.83382 0
M  V30 1197 H 108.382 -2.37291 3.19028 0
M  V30 1198 N 109.379 -1.50304 -0.473955 0
M  V30 1199 C 110.625 -1.61389 -1.22806 0
M  V30 1200 C 110.958 -0.311955 -1.91678 0
M  V30 1201 O 110.233 0.686384 -1.81986 0
M  V30 1202 C 110.516 -2.79219 -2.27396 0
M  V30 1203 C 110.369 -4.19286 -1.62848 0
M  V30 1204 C 111.688 -2.92614 -3.28732 0
M  V30 1205 H 108.807 -0.587399 -0.445119 0
M  V30 1206 H 111.449 -1.82681 -0.522265 0
M  V30 1207 H 109.599 -2.61195 -2.87592 0
M  V30 1208 H 111.271 -4.48892 -1.06271 0
M  V30 1209 H 109.514 -4.23677 -0.931693 0
M  V30 1210 H 110.185 -4.97655 -2.38838 0
M  V30 1211 H 112.661 -3.09105 -2.78556 0
M  V30 1212 H 111.537 -3.76688 -3.99246 0
M  V30 1213 H 111.798 -2.03107 -3.92683 0
M  V30 1214 N 110.857 0.726932 -1.39834 0
M  V30 1215 C 112.087 1.51393 -1.40583 0
M  V30 1216 C 112.495 1.892 -0.000740625 0
M  V30 1217 O 111.838 1.55189 0.982951 0
M  V30 1218 C 111.9 2.82588 -2.22226 0
M  V30 1219 C 111.564 2.67169 -3.70769 0
M  V30 1220 C 112.561 2.3518 -4.63666 0
M  V30 1221 C 110.246 2.83788 -4.14451 0
M  V30 1222 C 112.24 2.20002 -5.98229 0
M  V30 1223 C 109.927 2.68229 -5.49087 0
M  V30 1224 C 110.925 2.36382 -6.4079 0
M  V30 1225 O 110.613 2.2093 -7.72946 0
M  V30 1226 H 110.345 0.474168 -0.48181 0
M  V30 1227 H 112.899 0.905247 -1.84376 0
M  V30 1228 H 111.129 3.45746 -1.73195 0
M  V30 1229 H 112.818 3.44247 -2.15055 0
M  V30 1230 H 113.584 2.21984 -4.31217 0
M  V30 1231 H 109.463 3.07566 -3.43401 0
M  V30 1232 H 113.007 1.95067 -6.69772 0
M  V30 1233 H 108.904 2.81006 -5.81125 0
M  V30 1234 H 109.672 2.35937 -7.83757 0
M  V30 1235 N 112.336 1.25143 0.95797 0
M  V30 1236 C 113.299 1.05321 2.03569 0
M  V30 1237 C 114.299 0.007152 1.60798 0
M  V30 1238 O 115.489 0.24903 1.72411 0
M  V30 1239 C 112.621 0.598394 3.35607 0
M  V30 1240 H 113.814 2.00986 2.22586 0
M  V30 1241 H 111.367 1.07502 1.13459 0
M  V30 1242 H 112.102 -0.361014 3.22284 0
M  V30 1243 H 111.887 1.35351 3.67998 0
M  V30 1244 H 113.377 0.48104 4.1482 0
M  V30 1245 N 113.814 -1.1601 1.06675 0
M  V30 1246 C 114.746 -2.20115 0.638921 0
M  V30 1247 C 115.759 -1.59916 -0.305057 0
M  V30 1248 O 116.948 -1.78245 -0.0954446 0
M  V30 1249 C 114.048 -3.38798 -0.0830083 0
M  V30 1250 C 113.221 -4.2855 0.875426 0
M  V30 1251 C 112.28 -5.25849 0.192042 0
M  V30 1252 O 111.306 -5.63102 0.830921 0
M  V30 1253 N 112.508 -5.70648 -1.06493 0
M  V30 1254 H 115.273 -2.57439 1.53444 0
M  V30 1255 H 112.834 -1.31057 0.950557 0
M  V30 1256 H 114.826 -4.00936 -0.550685 0
M  V30 1257 H 113.396 -2.99947 -0.880386 0
M  V30 1258 H 112.616 -3.63617 1.52238 0
M  V30 1259 H 113.904 -4.85393 1.52548 0
M  V30 1260 H 113.302 -5.42482 -1.60405 0
M  V30 1261 H 111.859 -6.34859 -1.47641 0
M  V30 1262 N 115.292 -0.849877 -1.32721 0
M  V30 1263 C 116.202 -0.293791 -2.32753 0
M  V30 1264 C 117.218 0.585906 -1.63839 0
M  V30 1265 O 118.394 0.487413 -1.95413 0
M  V30 1266 C 115.459 0.512752 -3.42887 0
M  V30 1267 C 114.52 -0.39252 -4.27502 0
M  V30 1268 C 113.753 0.375625 -5.32377 0
M  V30 1269 O 113.976 1.60613 -5.4732 0
M  V30 1270 O 112.91 -0.256094 -6.01355 0
M  V30 1271 H 116.736 -1.12242 -2.82197 0
M  V30 1272 H 114.321 -0.612685 -1.36259 0
M  V30 1273 H 116.203 0.970704 -4.10067 0
M  V30 1274 H 114.878 1.31826 -2.95641 0
M  V30 1275 H 113.785 -0.898547 -3.63149 0
M  V30 1276 H 115.118 -1.16309 -4.7826 0
M  V30 1277 N 116.77 1.45427 -0.607355 0
M  V30 1278 C 117.717 2.3053 0.111625 0
M  V30 1279 C 118.687 1.4209 0.860216 0
M  V30 1280 O 119.872 1.71019 0.845998 0
M  V30 1281 C 117.012 3.26992 1.10319 0
M  V30 1282 C 116.125 4.30535 0.355493 0
M  V30 1283 C 115.26 5.14105 1.33676 0
M  V30 1284 C 114.299 6.09376 0.576862 0
M  V30 1285 N 113.436 6.85727 1.5074 0
M  V30 1286 H 118.276 2.91477 -0.620093 0
M  V30 1287 H 115.813 1.43631 -0.317594 0
M  V30 1288 H 117.771 3.81385 1.6912 0
M  V30 1289 H 116.401 2.67799 1.80232 0
M  V30 1290 H 115.453 3.78805 -0.348023 0
M  V30 1291 H 116.765 4.98235 -0.237423 0
M  V30 1292 H 115.919 5.72897 1.99684 0
M  V30 1293 H 114.658 4.46423 1.9636 0
M  V30 1294 H 113.663 5.49715 -0.0968519 0
M  V30 1295 H 114.888 6.79085 -0.0449341 0
M  V30 1296 H 112.834 6.20735 2.12189 0
M  V30 1297 H 112.751 7.49778 0.967913 0
M  V30 1298 H 114.019 7.4906 2.15706 0
M  V30 1299 N 118.248 0.346503 1.53744 0
M  V30 1300 C 119.18 -0.543316 2.22667 0
M  V30 1301 C 120.193 -1.06159 1.23427 0
M  V30 1302 O 121.382 -0.971235 1.49764 0
M  V30 1303 C 118.482 -1.76076 2.89569 0
M  V30 1304 C 117.655 -1.37727 4.15151 0
M  V30 1305 C 116.714 -2.45471 4.65436 0
M  V30 1306 O 115.74 -2.08655 5.29577 0
M  V30 1307 N 116.942 -3.7677 4.41616 0
M  V30 1308 H 119.707 0.0469703 2.99663 0
M  V30 1309 H 117.268 0.170766 1.60997 0
M  V30 1310 H 119.26 -2.47593 3.20125 0
M  V30 1311 H 117.83 -2.25835 2.16142 0
M  V30 1312 H 117.05 -0.492746 3.91108 0
M  V30 1313 H 118.338 -1.09708 4.96832 0
M  V30 1314 H 117.736 -4.09467 3.90325 0
M  V30 1315 H 116.293 -4.44448 4.7677 0
M  V30 1316 N 119.726 -1.57421 0.075193 0
M  V30 1317 C 121.003 -1.85029 -0.634329 0
M  V30 1318 C 121.383 -0.968305 -1.87582 0
M  V30 1319 O 120.731 -0.0354749 -2.28472 0
M  V30 1320 C 120.941 -3.35286 -0.968742 0
M  V30 1321 C 122.289 -4.02875 -1.34077 0
M  V30 1322 O 123.313 -3.40051 -1.06037 0
M  V30 1323 O 122.172 -5.13691 -1.86506 0
M  V30 1324 H 119.266 -0.7645 -0.315387 0
M  V30 1325 H 121.812 -1.69366 0.106382 0
M  V30 1326 H 120.584 -3.91203 -0.0871376 0
M  V30 1327 H 120.207 -3.56223 -1.7661 0
M  V30 1328 N 121.204 0.198386 -1.56346 0
M  V30 1329 C 122.451 0.919286 -1.80431 0
M  V30 1330 C 122.779 1.83393 -0.647866 0
M  V30 1331 O 122.034 1.92236 0.366556 0
M  V30 1332 C 122.333 1.77031 -3.10475 0
M  V30 1333 C 121.999 1.00693 -4.39513 0
M  V30 1334 C 120.661 0.796145 -4.74568 0
M  V30 1335 C 123.013 0.469559 -5.19081 0
M  V30 1336 C 120.341 0.0364588 -5.86689 0
M  V30 1337 C 122.693 -0.2769 -6.31994 0
M  V30 1338 C 121.357 -0.49873 -6.65634 0
M  V30 1339 H 120.627 0.336391 -0.660244 0
M  V30 1340 H 123.274 0.185872 -1.90596 0
M  V30 1341 H 121.579 2.5723 -2.95533 0
M  V30 1342 H 123.276 2.33065 -3.26315 0
M  V30 1343 H 119.866 1.18122 -4.12001 0
M  V30 1344 H 124.05 0.619816 -4.92414 0
M  V30 1345 H 119.306 -0.145412 -6.11227 0
M  V30 1346 H 123.48 -0.700684 -6.92866 0
M  V30 1347 H 121.107 -1.0893 -7.52355 0
M  V30 1348 N 122.682 1.50554 0.465978 0
M  V30 1349 C 123.928 1.62038 1.21949 0
M  V30 1350 C 124.261 0.322116 1.9151 0
M  V30 1351 O 123.536 -0.676723 1.82348 0
M  V30 1352 C 123.819 2.80421 2.25912 0
M  V30 1353 C 123.672 4.20144 1.60622 0
M  V30 1354 C 124.991 2.94354 3.27176 0
M  V30 1355 H 122.11 0.589752 0.441998 0
M  V30 1356 H 124.752 1.82956 0.51257 0
M  V30 1357 H 122.902 2.62717 2.86203 0
M  V30 1358 H 124.574 4.49449 1.03889 0
M  V30 1359 H 122.817 4.24165 0.909211 0
M  V30 1360 H 123.488 4.98914 2.36196 0
M  V30 1361 H 125.964 3.10578 2.76913 0
M  V30 1362 H 124.84 3.788 3.97242 0
M  V30 1363 H 125.101 2.05186 3.916 0
M  V30 1364 N 124.16 -0.719506 1.40217 0
M  V30 1365 C 125.092 -1.84428 1.36084 0
M  V30 1366 C 126.105 -1.60597 0.266913 0
M  V30 1367 O 127.294 -1.70544 0.526983 0
M  V30 1368 C 124.394 -3.20757 1.094 0
M  V30 1369 C 123.567 -3.71817 2.30372 0
M  V30 1370 C 122.626 -4.86748 1.99907 0
M  V30 1371 O 121.652 -4.99603 2.72737 0
M  V30 1372 N 122.854 -5.7226 0.974635 0
M  V30 1373 H 125.619 -1.88473 2.33019 0
M  V30 1374 H 123.18 -0.900885 1.3452 0
M  V30 1375 H 125.172 -3.95235 0.870116 0
M  V30 1376 H 123.742 -3.11884 0.211452 0
M  V30 1377 H 122.962 -2.88514 2.68614 0
M  V30 1378 H 124.25 -4.02666 3.11026 0
M  V30 1379 H 123.648 -5.6448 0.371368 0
M  V30 1380 H 122.205 -6.46739 0.810656 0
M  V30 1381 N 125.638 -1.25649 -0.95132 0
M  V30 1382 C 126.588 -1.03004 -2.03406 0
M  V30 1383 C 127.572 0.034187 -1.60864 0
M  V30 1384 O 128.764 -0.181549 -1.76066 0
M  V30 1385 C 125.893 -0.654255 -3.37008 0
M  V30 1386 C 124.979 -1.75542 -3.86065 0
M  V30 1387 N 125.37 -2.99113 -4.07879 0
M  V30 1388 C 123.668 -1.63669 -4.14884 0
M  V30 1389 C 124.369 -3.70611 -4.48356 0
M  V30 1390 N 123.345 -2.98247 -4.54477 0
M  V30 1391 H 127.147 -1.96813 -2.1827 0
M  V30 1392 H 124.661 -1.16017 -1.13639 0
M  V30 1393 H 126.658 -0.473206 -4.14206 0
M  V30 1394 H 125.318 0.276468 -3.23521 0
M  V30 1395 H 126.329 -3.35124 -3.94857 0
M  V30 1396 H 123.006 -0.775161 -4.10241 0
M  V30 1397 H 124.396 -4.76695 -4.73509 0
M  V30 1398 N 127.117 1.15442 -1.07289 0
M  V30 1399 C 128.364 1.86213 -0.795668 0
M  V30 1400 C 128.692 1.82291 0.678238 0
M  V30 1401 O 127.947 1.24057 1.51355 0
M  V30 1402 C 128.246 3.3489 -1.24834 0
M  V30 1403 C 127.912 3.59007 -2.72809 0
M  V30 1404 C 126.574 3.65298 -3.13227 0
M  V30 1405 C 128.926 3.68762 -3.68326 0
M  V30 1406 C 126.254 3.78854 -4.4798 0
M  V30 1407 C 128.606 3.83842 -5.0284 0
M  V30 1408 C 127.27 3.88378 -5.4288 0
M  V30 1409 H 126.54 0.681403 -0.291155 0
M  V30 1410 H 129.187 1.36435 -1.34379 0
M  V30 1411 H 127.492 3.8687 -0.619595 0
M  V30 1412 H 129.189 3.88052 -1.01076 0
M  V30 1413 H 125.779 3.5475 -2.40521 0
M  V30 1414 H 129.963 3.63202 -3.38227 0
M  V30 1415 H 125.219 3.80623 -4.78472 0
M  V30 1416 H 129.393 3.90332 -5.76727 0
M  V30 1417 H 127.02 3.98635 -6.47298 0
M  V30 1418 N 128.595 0.856903 1.32268 0
M  V30 1419 C 129.82 0.474569 2.01897 0
M  V30 1420 C 130.245 -0.921766 1.63967 0
M  V30 1421 O 129.603 -1.60589 0.84148 0
M  V30 1422 C 129.651 0.623799 3.55164 0
M  V30 1423 O 128.755 -0.342459 4.10976 0
M  V30 1424 H 128.096 0.190422 0.63611 0
M  V30 1425 H 130.626 1.15672 1.68764 0
M  V30 1426 H 130.636 0.512169 4.04773 0
M  V30 1427 H 129.311 1.64202 3.82113 0
M  V30 1428 H 127.888 -0.18688 3.72431 0
M  V30 1429 N 130.073 -1.45103 0.615059 0
M  V30 1430 C 131.005 -2.28786 -0.13762 0
M  V30 1431 C 132.018 -1.40376 -0.824525 0
M  V30 1432 O 133.207 -1.64681 -0.688662 0
M  V30 1433 C 130.307 -3.16322 -1.21628 0
M  V30 1434 C 129.48 -4.33054 -0.615039 0
M  V30 1435 C 128.539 -5.01743 -1.58556 0
M  V30 1436 O 127.565 -5.58293 -1.10895 0
M  V30 1437 N 128.767 -5.01714 -2.91998 0
M  V30 1438 H 131.532 -2.94025 0.580483 0
M  V30 1439 H 129.093 -1.55373 0.45507 0
M  V30 1440 H 131.085 -3.59139 -1.86552 0
M  V30 1441 H 129.655 -2.52943 -1.83681 0
M  V30 1442 H 128.875 -3.93627 0.21245 0
M  V30 1443 H 130.163 -5.08431 -0.193704 0
M  V30 1444 H 129.561 -4.57075 -3.33316 0
M  V30 1445 H 128.118 -5.48371 -3.52325 0
M  V30 1446 N 131.551 -0.354651 -1.53558 0
M  V30 1447 C 132.8 0.239504 -2.00273 0
M  V30 1448 C 133.113 1.50759 -1.24623 0
M  V30 1449 O 134.319 2.17968 -1.61871 0
M  V30 1450 C 132.775 0.477341 -3.5672 0
M  V30 1451 C 132.383 -0.775488 -4.41237 0
M  V30 1452 C 134.127 1.02975 -4.11821 0
M  V30 1453 C 132.034 -0.507838 -5.89216 0
M  V30 1454 H 130.964 0.0932743 -0.748208 0
M  V30 1455 H 133.615 -0.471701 -1.77334 0
M  V30 1456 H 131.997 1.24953 -3.7577 0
M  V30 1457 H 133.171 -1.54963 -4.33962 0
M  V30 1458 H 131.486 -1.25033 -3.97185 0
M  V30 1459 H 134.083 1.24513 -5.2 0
M  V30 1460 H 134.426 1.98862 -3.65731 0
M  V30 1461 H 134.959 0.317994 -3.96527 0
M  V30 1462 H 131.698 -1.43674 -6.39561 0
M  V30 1463 H 131.218 0.228011 -5.99366 0
M  V30 1464 H 132.897 -0.129238 -6.46871 0
M  V30 1465 N 133.029 1.57378 -0.0835403 0
M  V30 1466 C 134.275 1.94217 0.583733 0
M  V30 1467 C 134.608 0.964653 1.68547 0
M  V30 1468 O 133.883 -0.00422258 1.945 0
M  V30 1469 C 134.166 3.41253 1.14972 0
M  V30 1470 C 134.019 4.49768 0.0538277 0
M  V30 1471 C 135.338 3.89352 2.05166 0
M  V30 1472 H 132.457 0.706233 0.210724 0
M  V30 1473 H 135.099 1.89392 -0.1519 0
M  V30 1474 H 133.249 3.45496 1.77665 0
M  V30 1475 H 134.921 4.57641 -0.579851 0
M  V30 1476 H 133.164 4.29432 -0.614068 0
M  V30 1477 H 133.835 5.49817 0.490452 0
M  V30 1478 H 136.311 3.87189 1.52393 0
M  V30 1479 H 135.187 4.92822 2.41698 0
M  V30 1480 H 135.448 3.27973 2.96456 0
M  V30 1481 N 134.507 -0.190092 1.56449 0
M  V30 1482 C 135.923 -0.54113 1.50146 0
M  V30 1483 C 136.123 -1.85603 0.784465 0
M  V30 1484 O 135.179 -2.5024 0.337051 0
M  V30 1485 C 136.492 -0.591241 2.9483 0
M  V30 1486 C 138.04 -0.679732 3.0553 0
M  V30 1487 C 138.515 -0.760908 4.51635 0
M  V30 1488 N 140.006 -0.824302 4.55806 0
M  V30 1489 C 140.741 -0.907365 5.66175 0
M  V30 1490 N 140.237 -0.952422 6.86222 0
M  V30 1491 N 142.03 -0.94494 5.541 0
M  V30 1492 H 134.181 0.67235 2.01478 0
M  V30 1493 H 136.444 0.240127 0.917084 0
M  V30 1494 H 136.15 0.305905 3.50367 0
M  V30 1495 H 136.024 -1.44422 3.48457 0
M  V30 1496 H 138.411 -1.56731 2.50039 0
M  V30 1497 H 138.492 0.199549 2.5502 0
M  V30 1498 H 138.136 0.122336 5.07753 0
M  V30 1499 H 138.066 -1.65606 4.99882 0
M  V30 1500 H 140.557 -0.798526 3.69367 0
M  V30 1501 H 140.87 -1.01645 7.66086 0
M  V30 1502 H 139.215 -0.921014 6.8887 0
M  V30 1503 H 142.406 -0.906612 4.59236 0
M  V30 1504 H 142.579 -1.00622 6.4014 0
M  V30 1505 N 135.985 -1.50799 -0.457987 0
M  V30 1506 C 137.231 -1.62683 -1.21088 0
M  V30 1507 C 137.564 -0.332268 -1.91336 0
M  V30 1508 O 136.839 0.667043 -1.82704 0
M  V30 1509 C 137.122 -2.81615 -2.24422 0
M  V30 1510 C 136.975 -4.20989 -1.58392 0
M  V30 1511 C 138.294 -2.96085 -3.2561 0
M  V30 1512 H 135.413 -0.592087 -0.438864 0
M  V30 1513 H 138.055 -1.83225 -0.50286 0
M  V30 1514 H 136.205 -2.64231 -2.84806 0
M  V30 1515 H 137.877 -4.49994 -1.01504 0
M  V30 1516 H 136.12 -4.24641 -0.886704 0
M  V30 1517 H 136.791 -5.0016 -2.33547 0
M  V30 1518 H 139.267 -3.12042 -2.75262 0
M  V30 1519 H 138.143 -3.80902 -3.95228 0
M  V30 1520 H 138.404 -2.0726 -3.90507 0
M  V30 1521 N 137.463 0.71206 -1.40597 0
M  V30 1522 C 138.393 1.83889 -1.43899 0
M  V30 1523 C 139.374 1.67442 -0.299504 0
M  V30 1524 O 140.559 1.87421 -0.508624 0
M  V30 1525 C 137.689 3.21877 -1.30431 0
M  V30 1526 C 136.643 3.53002 -2.42019 0
M  V30 1527 C 135.969 4.90172 -2.13626 0
M  V30 1528 C 137.269 3.53643 -3.84362 0
M  V30 1529 H 138.963 1.81383 -2.38203 0
M  V30 1530 H 136.509 0.871237 -1.14654 0
M  V30 1531 H 138.462 4.00404 -1.31357 0
M  V30 1532 H 137.186 3.24968 -0.326049 0
M  V30 1533 H 135.845 2.76818 -2.40349 0
M  V30 1534 H 135.493 4.89869 -1.14182 0
M  V30 1535 H 135.193 5.11962 -2.88389 0
M  V30 1536 H 136.717 5.71028 -2.1624 0
M  V30 1537 H 138.131 4.22203 -3.87837 0
M  V30 1538 H 136.528 3.86961 -4.58673 0
M  V30 1539 H 137.598 2.52954 -4.13693 0
M  V30 1540 N 138.941 1.26152 0.944643 0
M  V30 1541 C 140.169 1.14259 1.72489 0
M  V30 1542 C 140.584 -0.302555 1.8636 0
M  V30 1543 O 139.941 -1.20741 1.36849 0
M  V30 1544 C 139.992 1.80266 3.13347 0
M  V30 1545 O 139.713 3.19133 3.00143 0
M  V30 1546 C 141.214 1.74283 4.07603 0
M  V30 1547 H 138.434 0.398051 0.540181 0
M  V30 1548 H 140.978 1.66706 1.18446 0
M  V30 1549 H 139.133 1.31766 3.64303 0
M  V30 1550 H 139.547 3.51744 3.89071 0
M  V30 1551 H 141.021 2.25111 5.04013 0
M  V30 1552 H 141.498 0.708631 4.33446 0
M  V30 1553 H 142.104 2.22319 3.62567 0
M  V30 1554 N 140.419 -1.14872 1.07899 0
M  V30 1555 C 141.329 -2.2341 0.715915 0
M  V30 1556 C 142.345 -1.71808 -0.275306 0
M  V30 1557 O 143.521 -2.01039 -0.120545 0
M  V30 1558 C 140.586 -3.46474 0.125168 0
M  V30 1559 C 139.647 -4.13039 1.17034 0
M  V30 1560 C 138.88 -5.30229 0.607688 0
M  V30 1561 O 139.103 -5.675 -0.574497 0
M  V30 1562 O 138.037 -5.86444 1.35526 0
M  V30 1563 H 141.863 -2.56808 1.62121 0
M  V30 1564 H 139.448 -1.22702 0.852322 0
M  V30 1565 H 141.33 -4.20917 -0.201729 0
M  V30 1566 H 140.005 -3.14811 -0.753364 0
M  V30 1567 H 138.912 -3.40493 1.54968 0
M  V30 1568 H 140.245 -4.48796 2.02097 0
M  V30 1569 N 141.898 -0.863906 -1.31812 0
M  V30 1570 C 143.175 -0.39275 -1.91616 0
M  V30 1571 C 143.555 1.12461 -1.7865 0
M  V30 1572 O 142.903 1.95045 -1.19037 0
M  V30 1573 C 143.113 -0.867385 -3.38049 0
M  V30 1574 C 144.461 -0.889966 -4.15168 0
M  V30 1575 O 145.485 -0.812635 -3.46806 0
M  V30 1576 O 144.344 -1.00079 -5.37258 0
M  V30 1577 H 141.438 -0.116358 -0.818773 0
M  V30 1578 H 143.984 -0.951418 -1.40521 0
M  V30 1579 H 142.756 -1.91081 -3.41473 0
M  V30 1580 H 142.379 -0.286687 -3.96565 0
M  V30 1581 N 143.376 1.44774 -0.622745 0
M  V30 1582 C 144.286 2.34433 0.0886031 0
M  V30 1583 C 145.302 1.52131 0.844529 0
M  V30 1584 O 146.478 1.84886 0.798691 0
M  V30 1585 C 143.543 3.29986 1.0635 0
M  V30 1586 C 142.604 4.28195 0.307873 0
M  V30 1587 C 141.837 5.19183 1.23633 0
M  V30 1588 O 142.06 5.13918 2.47476 0
M  V30 1589 O 140.994 5.97515 0.725189 0
M  V30 1590 H 144.82 2.96693 -0.648599 0
M  V30 1591 H 142.405 1.44408 -0.382957 0
M  V30 1592 H 144.287 3.88825 1.6246 0
M  V30 1593 H 142.962 2.70269 1.78146 0
M  V30 1594 H 141.869 3.72927 -0.296064 0
M  V30 1595 H 143.202 4.90808 -0.3699 0
M  V30 1596 N 144.854 0.36279 1.53368 0
M  V30 1597 C 145.787 -0.528507 2.21996 0
M  V30 1598 C 146.765 -1.0852 1.21087 0
M  V30 1599 O 147.949 -1.14186 1.4998 0
M  V30 1600 C 145.076 -1.72893 2.91249 0
M  V30 1601 C 144.122 -1.29994 4.06207 0
M  V30 1602 S 144.955 -0.303575 5.34639 0
M  V30 1603 C 146.111 -1.51039 6.07403 0
M  V30 1604 H 146.344 0.0543423 2.9725 0
M  V30 1605 H 143.877 0.146889 1.537 0
M  V30 1606 H 145.835 -2.41751 3.31763 0
M  V30 1607 H 144.496 -2.28303 2.15724 0
M  V30 1608 H 143.689 -2.19549 4.53667 0
M  V30 1609 H 143.291 -0.690608 3.67569 0
M  V30 1610 H 145.583 -2.44186 6.31965 0
M  V30 1611 H 146.526 -1.07721 6.99858 0
M  V30 1612 H 146.934 -1.71518 5.37812 0
M  V30 1613 N 146.332 -1.57332 0.0918853 0
M  V30 1614 C 147.58 -1.93853 -0.571446 0
M  V30 1615 C 147.901 -0.974212 -1.6892 0
M  V30 1616 O 147.171 -0.0257254 -1.95883 0
M  V30 1617 H 145.751 -0.715666 -0.214082 0
M  V30 1618 H 148.413 -1.94287 0.154464 0
M  V30 1619 H 147.509 -2.96191 -0.983729 0
M  V30 1620 N 147.81 0.181792 -1.56548 0
M  V30 1621 C 148.76 1.22961 -1.92002 0
M  V30 1622 C 149.744 1.40331 -0.787146 0
M  V30 1623 O 150.936 1.42478 -1.05019 0
M  V30 1624 C 148.065 2.57144 -2.27446 0
M  V30 1625 C 147.151 2.43512 -3.47222 0
M  V30 1626 N 147.542 1.99577 -4.64761 0
M  V30 1627 C 145.84 2.74368 -3.51622 0
M  V30 1628 C 146.541 1.98156 -5.46909 0
M  V30 1629 N 145.517 2.40164 -4.8767 0
M  V30 1630 H 149.319 0.881462 -2.8037 0
M  V30 1631 H 146.833 0.390141 -1.57644 0
M  V30 1632 H 148.83 3.32847 -2.51035 0
M  V30 1633 H 147.49 2.92771 -1.40411 0
M  V30 1634 H 148.501 1.70078 -4.89177 0
M  V30 1635 H 145.178 3.14102 -2.75038 0
M  V30 1636 H 146.568 1.65975 -6.51077 0
M  V30 1637 N 149.288 1.51039 0.449983 0
M  V30 1638 C 150.699 1.557 1.03026 0
M  V30 1639 C 151.05 0.372939 1.92623 0
M  V30 1640 O 150.175 -0.511771 2.10261 0
M  V30 1641 C 150.77 2.82171 1.87523 0
M  V30 1642 C 149.329 2.89444 2.40622 0
M  V30 1643 C 148.476 2.50228 1.19504 0
M  V30 1644 H 151.427 1.56999 0.231745 0
M  V30 1645 H 151.448 2.65219 2.72835 0
M  V30 1646 H 150.96 3.68331 1.22286 0
M  V30 1647 H 149.061 2.07685 3.0935 0
M  V30 1648 H 149.174 3.92816 2.74285 0
M  V30 1649 H 147.538 2.03139 1.53644 0
M  V30 1650 H 148.321 3.38719 0.558972 0
M  V30 1651 N 150.766 -0.704594 1.40972 0
M  V30 1652 C 151.676 -1.84856 1.44448 0
M  V30 1653 C 152.692 -1.70726 0.335961 0
M  V30 1654 O 153.868 -1.92799 0.582276 0
M  V30 1655 C 150.933 -3.20758 1.31587 0
M  V30 1656 C 149.994 -3.47063 2.52677 0
M  V30 1657 C 149.227 -4.76481 2.4042 0
M  V30 1658 O 149.45 -5.52341 1.42391 0
M  V30 1659 O 148.384 -5.03367 3.30007 0
M  V30 1660 H 152.21 -1.8488 2.40942 0
M  V30 1661 H 149.795 -0.85647 1.22413 0
M  V30 1662 H 151.677 -4.01913 1.26665 0
M  V30 1663 H 150.352 -3.21438 0.382049 0
M  V30 1664 H 149.259 -2.65873 2.63177 0
M  V30 1665 H 150.592 -3.5119 3.44858 0
M  V30 1666 N 152.244 -1.26651 -0.937939 0
M  V30 1667 C 153.493 -1.11775 -1.67897 0
M  V30 1668 C 153.806 0.33794 -1.92659 0
M  V30 1669 O 155.012 0.607434 -2.64618 0
M  V30 1670 C 153.468 -1.9523 -3.02346 0
M  V30 1671 C 153.076 -3.45393 -2.8532 0
M  V30 1672 C 154.82 -1.88972 -3.80118 0
M  V30 1673 C 152.727 -4.21083 -4.15263 0
M  V30 1674 H 151.657 -0.414696 -0.629717 0
M  V30 1675 H 154.308 -1.50988 -1.04283 0
M  V30 1676 H 152.69 -1.48853 -3.66959 0
M  V30 1677 H 153.864 -3.99561 -2.29537 0
M  V30 1678 H 152.179 -3.52921 -2.20988 0
M  V30 1679 H 154.776 -2.42805 -4.76392 0
M  V30 1680 H 155.119 -0.86113 -4.07296 0
M  V30 1681 H 155.652 -2.33189 -3.22285 0
M  V30 1682 H 152.391 -5.24425 -3.93267 0
M  V30 1683 H 151.911 -3.71695 -4.70747 0
M  V30 1684 H 153.59 -4.29706 -4.83696 0
M  V30 1685 N 153.722 1.14298 -1.08507 0
M  V30 1686 C 154.97 1.84993 -0.813763 0
M  V30 1687 C 155.291 1.83405 0.662393 0
M  V30 1688 O 154.561 1.28319 1.48024 0
M  V30 1689 H 153.141 0.684966 -0.298045 0
M  V30 1690 H 155.803 1.385 -1.37126 0
M  V30 1691 H 154.899 2.89788 -1.15884 0
M  V30 1692 N 155.201 0.870884 1.31352 0
M  V30 1693 C 156.478 0.402907 1.91405 0
M  V30 1694 C 156.858 -1.11512 1.79244 0
M  V30 1695 O 156.206 -1.94411 1.2007 0
M  V30 1696 C 156.416 0.885301 3.37585 0
M  V30 1697 C 157.764 0.911971 4.14691 0
M  V30 1698 O 158.788 0.831016 3.46371 0
M  V30 1699 O 157.647 1.02927 5.3672 0
M  V30 1700 H 154.741 0.120698 0.818145 0
M  V30 1701 H 157.287 0.958857 1.40014 0
M  V30 1702 H 156.059 1.92889 3.40455 0
M  V30 1703 H 155.682 0.307714 3.96407 0
M  V30 1704 N 156.679 -1.44442 0.630414 0
M  V30 1705 C 157.642 -2.29107 -0.0652523 0
M  V30 1706 C 158.642 -1.41002 -0.772995 0
M  V30 1707 O 159.832 -1.62881 -0.617692 0
M  V30 1708 C 156.964 -3.22564 -1.10296 0
M  V30 1709 H 158.157 -2.92103 0.679401 0
M  V30 1710 H 155.71 -1.51343 0.390517 0
M  V30 1711 H 156.445 -2.64416 -1.87762 0
M  V30 1712 H 156.23 -3.87491 -0.59941 0
M  V30 1713 H 157.72 -3.86167 -1.5895 0
M  V30 1714 N 158.157 -0.370918 -1.53173 0
M  V30 1715 C 159.406 0.218249 -2.00516 0
M  V30 1716 C 159.719 1.49429 -1.26215 0
M  V30 1717 O 160.925 2.16239 -1.64174 0
M  V30 1718 C 159.381 0.43948 -3.57207 0
M  V30 1719 C 158.989 -0.822244 -4.4039 0
M  V30 1720 C 160.733 0.986012 -4.1289 0
M  V30 1721 C 158.64 -0.570304 -5.88644 0
M  V30 1722 H 157.57 0.0853333 -0.749156 0
M  V30 1723 H 160.221 -0.490483 -1.76823 0
M  V30 1724 H 158.603 1.20961 -3.77074 0
M  V30 1725 H 159.777 -1.59557 -4.32294 0
M  V30 1726 H 158.092 -1.29238 -3.95836 0
M  V30 1727 H 160.689 1.18991 -5.21292 0
M  V30 1728 H 161.032 1.94972 -3.6782 0
M  V30 1729 H 161.565 0.27592 -3.96842 0
M  V30 1730 H 158.304 -1.50449 -6.38001 0
M  V30 1731 H 157.824 0.164427 -5.99575 0
M  V30 1732 H 159.503 -0.19784 -6.46697 0
M  V30 1733 N 159.635 1.57281 -0.100228 0
M  V30 1734 C 160.598 2.13158 0.842398 0
M  V30 1735 C 161.598 1.06202 1.20738 0
M  V30 1736 O 162.788 1.32066 1.13597 0
M  V30 1737 C 159.92 2.65639 2.13655 0
M  V30 1738 H 161.113 2.97766 0.357114 0
M  V30 1739 H 158.666 1.5559 0.148823 0
M  V30 1740 H 159.401 1.84566 2.66657 0
M  V30 1741 H 159.186 3.43844 1.88451 0
M  V30 1742 H 160.676 3.08846 2.81077 0
M  V30 1743 N 161.113 -0.173488 1.56642 0
M  V30 1744 C 162.529 -0.525174 1.50712 0
M  V30 1745 C 162.729 -1.8476 0.804107 0
M  V30 1746 O 161.785 -2.49869 0.363574 0
M  V30 1747 C 163.098 -0.559937 2.95441 0
M  V30 1748 C 164.646 -0.647288 3.06234 0
M  V30 1749 C 165.121 -0.712963 4.52417 0
M  V30 1750 N 166.612 -0.775911 4.56655 0
M  V30 1751 C 167.347 -0.847264 5.67106 0
M  V30 1752 N 166.843 -0.879585 6.87194 0
M  V30 1753 N 168.636 -0.886117 5.55071 0
M  V30 1754 H 160.787 0.693681 2.00753 0
M  V30 1755 H 163.05 0.249841 0.914485 0
M  V30 1756 H 162.756 0.343049 3.50023 0
M  V30 1757 H 162.63 -1.40718 3.49969 0
M  V30 1758 H 165.017 -1.5407 2.51687 0
M  V30 1759 H 165.098 0.226586 2.54794 0
M  V30 1760 H 164.742 0.176183 5.07594 0
M  V30 1761 H 164.672 -1.60295 5.0161 0
M  V30 1762 H 167.163 -0.759304 3.70193 0
M  V30 1763 H 167.476 -0.935144 7.67121 0
M  V30 1764 H 165.821 -0.847898 6.89808 0
M  V30 1765 H 169.012 -0.857853 4.60172 0
M  V30 1766 H 169.185 -0.938263 6.41171 0
M  V30 1767 N 162.591 -1.51276 -0.441967 0
M  V30 1768 C 163.521 -1.752 -1.54361 0
M  V30 1769 C 164.502 -0.601682 -1.59103 0
M  V30 1770 O 165.687 -0.843913 -1.74905 0
M  V30 1771 C 162.817 -1.87282 -2.92477 0
M  V30 1772 C 161.771 -3.02687 -3.02596 0
M  V30 1773 C 161.097 -2.99947 -4.42647 0
M  V30 1774 C 162.397 -4.4273 -2.77106 0
M  V30 1775 H 164.091 -2.67442 -1.34592 0
M  V30 1776 H 161.637 -1.28694 -0.646048 0
M  V30 1777 H 163.59 -2.02602 -3.695 0
M  V30 1778 H 162.314 -0.916844 -3.13467 0
M  V30 1779 H 160.973 -2.87065 -2.28012 0
M  V30 1780 H 160.621 -2.02136 -4.60597 0
M  V30 1781 H 160.321 -3.77439 -4.50348 0
M  V30 1782 H 161.845 -3.17354 -5.2165 0
M  V30 1783 H 163.259 -4.58727 -3.43864 0
M  V30 1784 H 161.656 -5.21893 -2.96222 0
M  V30 1785 H 162.726 -4.53087 -1.72744 0
M  V30 1786 N 164.069 0.697108 -1.41344 0
M  V30 1787 C 165.016 1.81106 -1.43071 0
M  V30 1788 C 165.986 1.63632 -0.285275 0
M  V30 1789 O 167.171 1.84504 -0.486091 0
M  V30 1790 C 164.311 3.18975 -1.31715 0
M  V30 1791 C 163.424 3.47892 -2.56115 0
M  V30 1792 C 162.559 4.75367 -2.37064 0
M  V30 1793 C 161.598 4.97247 -3.56948 0
M  V30 1794 N 160.735 6.15947 -3.36977 0
M  V30 1795 H 165.575 1.78965 -2.38276 0
M  V30 1796 H 163.112 0.873975 -1.18322 0
M  V30 1797 H 165.07 3.98615 -1.23133 0
M  V30 1798 H 163.7 3.20297 -0.401183 0
M  V30 1799 H 162.752 2.62669 -2.75153 0
M  V30 1800 H 164.064 3.59962 -3.45295 0
M  V30 1801 H 163.218 5.63059 -2.25941 0
M  V30 1802 H 161.957 4.65541 -1.45338 0
M  V30 1803 H 160.962 4.08004 -3.68527 0
M  V30 1804 H 162.187 5.08934 -4.49626 0
M  V30 1805 H 160.133 6.07336 -2.47949 0
M  V30 1806 H 160.05 6.28777 -4.19732 0
M  V30 1807 H 161.318 7.06377 -3.29623 0
M  V30 1808 N 165.547 1.27147 0.931209 0
M  V30 1809 C 166.457 1.11372 2.06478 0
M  V30 1810 C 167.473 0.044645 1.73943 0
M  V30 1811 O 168.649 0.250417 1.99837 0
M  V30 1812 C 165.714 0.758838 3.38294 0
M  V30 1813 C 164.775 1.90841 3.84549 0
M  V30 1814 C 164.008 1.57036 5.10074 0
M  V30 1815 O 164.231 0.476645 5.68405 0
M  V30 1816 O 163.165 2.40839 5.51616 0
M  V30 1817 H 166.991 2.06493 2.22698 0
M  V30 1818 H 164.576 1.06301 1.04978 0
M  V30 1819 H 166.458 0.574098 4.17471 0
M  V30 1820 H 165.133 -0.162879 3.2329 0
M  V30 1821 H 164.04 2.14819 3.06274 0
M  V30 1822 H 165.373 2.81021 4.04089 0
M  V30 1823 N 167.025 -1.13721 1.09112 0
M  V30 1824 C 168.271 -1.85198 0.826414 0
M  V30 1825 C 168.604 -1.83129 -0.646319 0
M  V30 1826 O 167.879 -1.2671 -1.47563 0
M  V30 1827 C 168.162 -3.33507 1.35812 0
M  V30 1828 C 168.015 -3.44108 2.89672 0
M  V30 1829 C 169.334 -4.28838 0.989256 0
M  V30 1830 H 166.453 -0.67243 0.301675 0
M  V30 1831 H 169.095 -1.33499 1.35197 0
M  V30 1832 H 167.245 -3.77666 0.911082 0
M  V30 1833 H 168.917 -3.08684 3.428 0
M  V30 1834 H 167.16 -2.85087 3.26967 0
M  V30 1835 H 167.831 -4.48388 3.21951 0
M  V30 1836 H 170.307 -3.92734 1.37475 0
M  V30 1837 H 169.183 -5.31051 1.38838 0
M  V30 1838 H 169.444 -4.4198 -0.102924 0
M  V30 1839 N 168.503 -0.877838 -1.30888 0
M  V30 1840 C 169.433 -0.35534 -2.3078 0
M  V30 1841 C 170.414 0.557994 -1.60687 0
M  V30 1842 O 171.599 0.473355 -1.88343 0
M  V30 1843 C 168.729 0.437221 -3.44537 0
M  V30 1844 C 167.683 -0.383715 -4.26276 0
M  V30 1845 C 167.009 0.535014 -5.32017 0
M  V30 1846 C 168.309 -1.62201 -4.96476 0
M  V30 1847 H 170.003 -1.19007 -2.74732 0
M  V30 1848 H 167.549 -0.573698 -1.32078 0
M  V30 1849 H 169.502 0.813334 -4.13477 0
M  V30 1850 H 168.226 1.30553 -2.99372 0
M  V30 1851 H 166.885 -0.741874 -3.59015 0
M  V30 1852 H 166.533 1.40083 -4.831 0
M  V30 1853 H 166.233 -0.0104211 -5.87599 0
M  V30 1854 H 167.757 0.907799 -6.03814 0
M  V30 1855 H 169.171 -1.31689 -5.5797 0
M  V30 1856 H 167.568 -2.10711 -5.61891 0
M  V30 1857 H 168.638 -2.37044 -4.23011 0
M  V30 1858 N 169.982 1.44106 -0.638065 0
M  V30 1859 C 170.892 2.34513 0.0637334 0
M  V30 1860 C 171.908 1.53018 0.828346 0
M  V30 1861 O 173.084 1.85723 0.779036 0
M  V30 1862 C 170.149 3.31095 1.02844 0
M  V30 1863 C 169.21 4.28497 0.26244 0
M  V30 1864 C 168.443 5.20465 1.1812 0
M  V30 1865 O 168.666 5.16514 2.42011 0
M  V30 1866 O 167.6 5.98251 0.661774 0
M  V30 1867 H 171.426 2.95989 -0.68003 0
M  V30 1868 H 169.011 1.43994 -0.398252 0
M  V30 1869 H 170.893 3.90526 1.58327 0
M  V30 1870 H 169.568 2.72144 1.7527 0
M  V30 1871 H 168.475 3.72592 -0.335602 0
M  V30 1872 H 169.808 4.90388 -0.421936 0
M  V30 1873 N 171.46 0.379036 1.52974 0
M  V30 1874 C 172.69 -0.20649 2.05566 0
M  V30 1875 C 173.098 -1.41906 1.25137 0
M  V30 1876 O 172.441 -1.81421 0.288464 0
M  V30 1877 C 172.503 -0.651086 3.53555 0
M  V30 1878 C 172.167 0.446626 4.54812 0
M  V30 1879 C 173.164 1.30079 5.03364 0
M  V30 1880 C 170.849 0.610719 4.98573 0
M  V30 1881 C 172.843 2.30426 5.94292 0
M  V30 1882 C 170.53 1.61754 5.89304 0
M  V30 1883 C 171.528 2.46274 6.37054 0
M  V30 1884 O 171.216 3.45237 7.25994 0
M  V30 1885 H 170.948 -0.0372381 0.674974 0
M  V30 1886 H 173.502 0.539718 1.98182 0
M  V30 1887 H 171.732 -1.44911 3.58522 0
M  V30 1888 H 173.421 -1.16112 3.88938 0
M  V30 1889 H 174.187 1.18527 4.70294 0
M  V30 1890 H 170.066 -0.0374044 4.60985 0
M  V30 1891 H 173.61 2.96432 6.31485 0
M  V30 1892 H 169.507 1.73348 6.21788 0
M  V30 1893 H 170.275 3.41124 7.44027 0
M  V30 1894 N 172.938 -1.57226 0.108567 0
M  V30 1895 C 173.886 -2.16002 -0.862885 0
M  V30 1896 C 174.88 -1.10644 -1.28274 0
M  V30 1897 O 176.086 -1.28966 -1.2557 0
M  V30 1898 H 172.461 -0.691148 -0.296342 0
M  V30 1899 H 174.432 -2.96427 -0.342575 0
M  V30 1900 C 173.181 -2.76576 -2.10716 0
M  V30 1901 H 172.504 -3.5734 -1.793 0
M  V30 1902 H 173.944 -3.21253 -2.76717 0
M  V30 1903 C 172.403 -1.73137 -2.89007 0
M  V30 1904 O 172.933 -1.17842 -3.84026 0
M  V30 1905 N 171.139 -1.43317 -2.52801 0
M  V30 1906 H 170.686 -1.88473 -1.75601 0
M  V30 1907 H 170.644 -0.743485 -3.05483 0
M  V30 1908 N 174.416 0.165178 -1.56732 0
M  V30 1909 C 175.379 1.18822 -1.95995 0
M  V30 1910 C 176.379 1.3685 -0.84431 0
M  V30 1911 O 177.569 1.34152 -1.11126 0
M  V30 1912 C 174.701 2.5521 -2.26011 0
M  V30 1913 H 175.894 0.851825 -2.87548 0
M  V30 1914 H 173.447 0.407857 -1.50885 0
M  V30 1915 H 174.182 2.93852 -1.37191 0
M  V30 1916 H 173.967 2.43489 -3.07336 0
M  V30 1917 H 175.457 3.28927 -2.57288 0
M  V30 1918 N 175.894 1.51508 0.433938 0
M  V30 1919 C 177.143 1.63578 1.18005 0
M  V30 1920 C 177.456 0.359514 1.92268 0
M  V30 1921 O 178.662 0.359632 2.69108 0
M  V30 1922 C 177.118 2.88901 2.14626 0
M  V30 1923 C 176.726 4.23544 1.45995 0
M  V30 1924 C 178.47 3.10328 2.89649 0
M  V30 1925 C 176.377 5.40014 2.4112 0
M  V30 1926 H 175.307 0.609277 0.444182 0
M  V30 1927 H 177.958 1.77978 0.446773 0
M  V30 1928 H 176.34 2.68142 2.91403 0
M  V30 1929 H 177.514 4.54696 0.747532 0
M  V30 1930 H 175.829 4.08021 0.831115 0
M  V30 1931 H 178.426 3.94518 3.60915 0
M  V30 1932 H 178.769 2.23544 3.51189 0
M  V30 1933 H 179.302 3.31443 2.19978 0
M  V30 1934 H 176.041 6.29068 1.84264 0
M  V30 1935 H 175.561 5.13233 3.10406 0
M  V30 1936 H 177.24 5.72099 3.02177 0
M  V30 1937 N 177.372 -0.689602 1.41712 0
M  V30 1938 C 178.62 -1.4468 1.4111 0
M  V30 1939 C 178.941 -1.94986 0.0232196 0
M  V30 1940 O 178.211 -1.72097 -0.935913 0
M  V30 1941 H 176.791 -0.536847 0.519427 0
M  V30 1942 H 179.453 -0.815825 1.77004 0
M  V30 1943 H 178.549 -2.30706 2.10193 0
M  V30 1944 N 178.85 -1.27639 -0.924453 0
M  V30 1945 C 180.098 -1.13941 -1.66918 0
M  V30 1946 C 180.419 0.314589 -1.92446 0
M  V30 1947 O 179.689 1.21964 -1.53303 0
M  V30 1948 H 178.269 -0.418678 -0.618642 0
M  V30 1949 H 180.931 -1.60213 -1.10985 0
M  V30 1950 H 180.027 -1.67094 -2.63602 0
M  V30 1951 N 180.328 1.1314 -1.09713 0
M  V30 1952 C 181.275 2.18642 -0.739196 0
M  V30 1953 C 182.245 1.63706 0.280978 0
M  V30 1954 O 183.43 1.90111 0.161946 0
M  V30 1955 C 180.57 3.44685 -0.169102 0
M  V30 1956 C 179.683 4.13711 -1.24367 0
M  V30 1957 C 178.818 5.27379 -0.636019 0
M  V30 1958 C 177.857 5.88259 -1.69169 0
M  V30 1959 N 176.994 6.93352 -1.10485 0
M  V30 1960 H 181.834 2.48607 -1.64312 0
M  V30 1961 H 179.371 1.22066 -0.820875 0
M  V30 1962 H 181.329 4.16815 0.179256 0
M  V30 1963 H 179.959 3.15161 0.698079 0
M  V30 1964 H 179.011 3.39835 -1.70927 0
M  V30 1965 H 180.323 4.55037 -2.04311 0
M  V30 1966 H 179.477 6.06238 -0.236677 0
M  V30 1967 H 178.216 4.8731 0.194928 0
M  V30 1968 H 177.221 5.08092 -2.10055 0
M  V30 1969 H 178.446 6.30399 -2.52536 0
M  V30 1970 H 176.392 6.55335 -0.295234 0
M  V30 1971 H 176.309 7.33236 -1.84121 0
M  V30 1972 H 177.577 7.76057 -0.73181 0
M  V30 1973 N 181.806 0.884767 1.30421 0
M  V30 1974 C 183.036 0.517293 2.00019 0
M  V30 1975 C 183.444 -0.898632 1.66497 0
M  V30 1976 O 182.787 -1.60245 0.898181 0
M  V30 1977 C 182.849 0.612025 3.54252 0
M  V30 1978 C 182.513 1.99222 4.1129 0
M  V30 1979 C 183.51 2.9616 4.273 0
M  V30 1980 C 181.195 2.29755 4.46674 0
M  V30 1981 C 183.189 4.21764 4.77906 0
M  V30 1982 C 180.876 3.55606 4.96979 0
M  V30 1983 C 181.874 4.51425 5.12547 0
M  V30 1984 O 181.562 5.75043 5.61766 0
M  V30 1985 H 181.294 0.198529 0.64619 0
M  V30 1986 H 183.848 1.1919 1.67281 0
M  V30 1987 H 182.078 -0.119561 3.86515 0
M  V30 1988 H 183.767 0.255859 4.05093 0
M  V30 1989 H 184.533 2.73882 4.00267 0
M  V30 1990 H 180.412 1.55942 4.33824 0
M  V30 1991 H 183.956 4.96561 4.89972 0
M  V30 1992 H 179.853 3.7772 5.23448 0
M  V30 1993 H 180.621 5.77422 5.80109 0
M  V30 1994 N 183.284 -1.43765 0.645699 0
M  V30 1995 C 184.232 -2.32516 -0.0624849 0
M  V30 1996 C 185.226 -1.48183 -0.820855 0
M  V30 1997 O 186.432 -1.64439 -0.732106 0
M  V30 1998 H 182.807 -0.750989 -0.0389864 0
M  V30 1999 H 184.778 -2.89979 0.703892 0
M  V30 2000 C 183.527 -3.32389 -1.02044 0
M  V30 2001 H 182.85 -3.97301 -0.446312 0
M  V30 2002 H 184.29 -3.97138 -1.48517 0
M  V30 2003 C 182.749 -2.62416 -2.11281 0
M  V30 2004 O 183.279 -2.434 -3.19561 0
M  V30 2005 N 181.485 -2.21913 -1.87624 0
M  V30 2006 H 181.032 -2.37578 -0.995703 0
M  V30 2007 H 180.99 -1.75424 -2.6091 0
M  V30 2008 N 184.763 -0.387143 -1.52771 0
M  V30 2009 C 186.179 -0.037007 -1.59557 0
M  V30 2010 C 186.379 1.44801 -1.40124 0
M  V30 2011 O 185.435 2.21227 -1.21716 0
M  V30 2012 C 186.748 -0.512256 -2.96305 0
M  V30 2013 C 188.296 -0.468328 -3.09476 0
M  V30 2014 C 188.771 -0.919731 -4.4867 0
M  V30 2015 N 190.262 -0.875656 -4.54848 0
M  V30 2016 C 190.997 -1.19637 -5.6078 0
M  V30 2017 N 190.493 -1.58745 -6.74368 0
M  V30 2018 N 192.286 -1.11776 -5.50874 0
M  V30 2019 H 184.437 -1.35395 -1.63652 0
M  V30 2020 H 186.7 -0.554818 -0.768688 0
M  V30 2021 H 186.406 -1.54935 -3.15734 0
M  V30 2022 H 186.28 0.089805 -3.77093 0
M  V30 2023 H 188.667 0.559671 -2.89744 0
M  V30 2024 H 188.748 -1.10616 -2.30646 0
M  V30 2025 H 188.392 -1.94595 -4.69143 0
M  V30 2026 H 188.322 -0.258927 -5.25963 0
M  V30 2027 H 190.813 -0.587843 -3.733 0
M  V30 2028 H 191.126 -1.81586 -7.51163 0
M  V30 2029 H 189.471 -1.6263 -6.75705 0
M  V30 2030 H 192.662 -0.811264 -4.61016 0
M  V30 2031 H 192.835 -1.37103 -6.3333 0
M  V30 2032 N 186.241 1.57166 -0.116904 0
M  V30 2033 C 187.489 1.94737 0.540533 0
M  V30 2034 C 187.81 1.00096 1.67349 0
M  V30 2035 O 187.08 0.0568854 1.95817 0
M  V30 2036 H 185.66 0.718981 0.202669 0
M  V30 2037 H 188.322 1.94017 -0.185353 0
M  V30 2038 H 187.418 2.97719 0.936483 0
M  V30 2039 N 187.719 -0.156864 1.56817 0
M  V30 2040 C 188.649 -1.19589 2.00551 0
M  V30 2041 C 189.63 -1.4536 0.883426 0
M  V30 2042 O 190.815 -1.56449 1.15054 0
M  V30 2043 C 187.945 -2.53143 2.37773 0
M  V30 2044 C 186.899 -2.41913 3.53075 0
M  V30 2045 C 186.225 -3.80088 3.76081 0
M  V30 2046 C 187.525 -1.91157 4.86062 0
M  V30 2047 H 189.219 -0.832293 2.87599 0
M  V30 2048 H 186.765 -0.398918 1.38364 0
M  V30 2049 H 188.718 -3.26047 2.66967 0
M  V30 2050 H 187.442 -2.91319 1.4765 0
M  V30 2051 H 186.101 -1.71462 3.24031 0
M  V30 2052 H 185.749 -4.15683 2.83225 0
M  V30 2053 H 185.449 -3.73439 4.53671 0
M  V30 2054 H 186.973 -4.54556 4.0769 0
M  V30 2055 H 188.387 -2.53846 5.14038 0
M  V30 2056 H 186.784 -1.95422 5.67389 0
M  V30 2057 H 187.854 -0.866673 4.77092 0
M  V30 2058 N 189.197 -1.51736 -0.425897 0
M  V30 2059 C 190.425 -1.68794 -1.1965 0
M  V30 2060 C 190.84 -0.390164 -1.84725 0
M  V30 2061 O 190.197 0.632376 -1.71194 0
M  V30 2062 C 190.248 -2.81174 -2.27208 0
M  V30 2063 O 189.969 -4.05925 -1.64793 0
M  V30 2064 C 191.47 -3.09599 -3.17275 0
M  V30 2065 H 188.69 -0.566128 -0.360194 0
M  V30 2066 H 191.234 -1.98211 -0.503249 0
M  V30 2067 H 189.389 -2.54324 -2.9223 0
M  V30 2068 H 189.803 -4.68423 -2.35967 0
M  V30 2069 H 191.277 -3.91786 -3.88854 0
M  V30 2070 H 191.754 -2.22468 -3.78688 0
M  V30 2071 H 192.36 -3.38151 -2.57941 0
M  V30 2072 N 190.675 0.682077 -1.42076 0
M  V30 2073 C 191.921 1.44428 -1.42367 0
M  V30 2074 C 192.254 1.94164 -0.0373056 0
M  V30 2075 O 191.529 1.70429 0.937239 0
M  V30 2076 C 191.812 2.64654 -2.44194 0
M  V30 2077 C 191.665 2.20596 -3.91991 0
M  V30 2078 C 192.984 3.66865 -2.431 0
M  V30 2079 H 190.103 0.523834 -0.518428 0
M  V30 2080 H 192.745 0.77576 -1.73442 0
M  V30 2081 H 190.895 3.2169 -2.17826 0
M  V30 2082 H 192.567 1.68783 -4.29313 0
M  V30 2083 H 190.81 1.52242 -4.06208 0
M  V30 2084 H 191.481 3.06921 -4.58807 0
M  V30 2085 H 193.957 3.19531 -2.66532 0
M  V30 2086 H 192.833 4.48577 -3.16339 0
M  V30 2087 H 193.094 4.17493 -1.45437 0
M  V30 2088 N 192.153 1.28127 0.917671 0
M  V30 2089 C 193.399 1.15223 1.66888 0
M  V30 2090 C 193.732 -0.299293 1.9188 0
M  V30 2091 O 193.007 -1.21805 1.51637 0
M  V30 2092 C 193.29 1.94706 3.02922 0
M  V30 2093 C 193.143 3.47898 2.85109 0
M  V30 2094 C 194.462 1.75939 4.03402 0
M  V30 2095 H 191.581 0.419946 0.605652 0
M  V30 2096 H 194.223 1.57398 1.06423 0
M  V30 2097 H 192.373 1.58864 3.54534 0
M  V30 2098 H 194.045 3.93624 2.40537 0
M  V30 2099 H 192.288 3.7373 2.20246 0
M  V30 2100 H 192.959 3.98765 3.81694 0
M  V30 2101 H 195.435 2.07209 3.60837 0
M  V30 2102 H 194.311 2.33931 4.96556 0
M  V30 2103 H 194.572 0.709877 4.36364 0
M  V30 2104 N 193.631 -1.12557 1.10312 0
M  V30 2105 C 194.877 -1.84311 0.846011 0
M  V30 2106 C 195.21 -1.83805 -0.626859 0
M  V30 2107 O 194.485 -1.28268 -1.46211 0
M  V30 2108 C 194.768 -3.32048 1.39341 0
M  V30 2109 C 194.621 -3.41016 2.93305 0
M  V30 2110 C 195.94 -4.27764 1.03468 0
M  V30 2111 H 193.059 -0.669192 0.30879 0
M  V30 2112 H 195.701 -1.32057 1.36605 0
M  V30 2113 H 193.851 -3.76678 0.951087 0
M  V30 2114 H 195.523 -3.05031 3.46055 0
M  V30 2115 H 193.766 -2.81603 3.29973 0
M  V30 2116 H 194.437 -4.44948 3.26689 0
M  V30 2117 H 196.913 -3.91253 1.41633 0
M  V30 2118 H 195.789 -5.29549 1.44463 0
M  V30 2119 H 196.05 -4.42064 -0.0560404 0
M  V30 2120 N 195.109 -0.891671 -1.2995 0
M  V30 2121 C 196.072 -0.36828 -2.26222 0
M  V30 2122 C 197.072 0.493014 -1.53056 0
M  V30 2123 O 198.262 0.299213 -1.71611 0
M  V30 2124 C 195.394 0.47442 -3.37583 0
M  V30 2125 H 196.587 -1.21844 -2.74033 0
M  V30 2126 H 194.14 -0.669107 -1.41254 0
M  V30 2127 H 194.875 1.34489 -2.95099 0
M  V30 2128 H 194.66 -0.142615 -3.91841 0
M  V30 2129 H 196.15 0.83218 -4.09224 0
M  V30 2130 N 196.587 1.43421 -0.653314 0
M  V30 2131 C 197.834 2.01812 -0.166745 0
M  V30 2132 C 198.162 1.51535 1.21931 0
M  V30 2133 O 197.417 0.698975 1.82792 0
M  V30 2134 C 197.716 3.57176 -0.126623 0
M  V30 2135 C 197.382 4.26798 -1.45444 0
M  V30 2136 C 196.044 4.45534 -1.81805 0
M  V30 2137 C 198.396 4.66225 -2.32989 0
M  V30 2138 C 195.724 5.00961 -3.05377 0
M  V30 2139 C 198.076 5.23021 -3.55853 0
M  V30 2140 C 196.74 5.39973 -3.9241 0
M  V30 2141 H 196.01 0.738484 -0.0610162 0
M  V30 2142 H 198.657 1.71896 -0.84404 0
M  V30 2143 H 196.962 3.86634 0.634123 0
M  V30 2144 H 198.659 4.00112 0.266723 0
M  V30 2145 H 195.249 4.12561 -1.16153 0
M  V30 2146 H 199.433 4.51443 -2.06187 0
M  V30 2147 H 194.689 5.12271 -3.3375 0
M  V30 2148 H 198.863 5.52518 -4.23907 0
M  V30 2149 H 196.49 5.82687 -4.88242 0
M  V30 2150 N 198.065 0.39524 1.52563 0
M  V30 2151 C 199.481 0.0454682 1.59535 0
M  V30 2152 C 199.681 -1.44056 1.4089 0
M  V30 2153 O 198.737 -2.20579 1.22888 0
M  V30 2154 C 200.05 0.527963 2.96029 0
M  V30 2155 C 201.598 0.484733 3.09224 0
M  V30 2156 C 202.073 0.943512 4.48176 0
M  V30 2157 N 203.564 0.899765 4.54377 0
M  V30 2158 C 204.299 1.22609 5.60138 0
M  V30 2159 N 203.795 1.62319 6.73516 0
M  V30 2160 N 205.588 1.14696 5.50274 0
M  V30 2161 H 197.739 1.36261 1.62931 0
M  V30 2162 H 200.002 0.558887 0.765735 0
M  V30 2163 H 199.708 1.56607 3.14908 0
M  V30 2164 H 199.582 -0.0698056 3.77135 0
M  V30 2165 H 201.969 -0.544298 2.90037 0
M  V30 2166 H 202.05 1.11838 2.30056 0
M  V30 2167 H 201.694 1.9708 4.68104 0
M  V30 2168 H 201.624 0.286817 5.25818 0
M  V30 2169 H 204.115 0.607632 3.72983 0
M  V30 2170 H 204.428 1.85567 7.5019 0
M  V30 2171 H 202.773 1.66211 6.74833 0
M  V30 2172 H 205.964 0.835701 4.6058 0
M  V30 2173 H 206.137 1.40459 6.32594 0
M  V30 2174 N 199.544 -1.57102 0.125237 0
M  V30 2175 C 200.454 -2.19191 -0.8362 0
M  V30 2176 C 201.47 -1.16985 -1.28805 0
M  V30 2177 O 202.646 -1.49479 -1.34974 0
M  V30 2178 C 199.711 -2.78407 -2.06617 0
M  V30 2179 C 198.772 -3.9567 -1.66565 0
M  V30 2180 C 198.005 -4.52052 -2.83698 0
M  V30 2181 O 198.228 -4.07326 -3.99302 0
M  V30 2182 O 197.162 -5.42645 -2.60423 0
M  V30 2183 H 200.988 -3.01816 -0.337776 0
M  V30 2184 H 198.573 -1.4906 -0.100695 0
M  V30 2185 H 200.455 -3.16129 -2.7864 0
M  V30 2186 H 199.13 -1.9881 -2.55453 0
M  V30 2187 H 198.037 -3.62705 -0.916296 0
M  V30 2188 H 199.37 -4.76722 -1.22464 0
M  V30 2189 N 201.022 0.148545 -1.56898 0
M  V30 2190 C 201.952 1.18524 -2.01182 0
M  V30 2191 C 202.933 1.4489 -0.891123 0
M  V30 2192 O 204.118 1.55836 -1.15882 0
M  V30 2193 C 201.248 2.51879 -2.39112 0
M  V30 2194 C 200.202 2.40038 -3.54353 0
M  V30 2195 C 199.528 3.78089 -3.78091 0
M  V30 2196 C 200.828 1.88577 -4.87069 0
M  V30 2197 H 202.522 0.817029 -2.88036 0
M  V30 2198 H 200.068 0.391575 -1.38574 0
M  V30 2199 H 202.021 3.24627 -2.68692 0
M  V30 2200 H 200.745 2.90532 -1.49193 0
M  V30 2201 H 199.404 1.69742 -3.24936 0
M  V30 2202 H 199.052 4.14175 -2.85426 0
M  V30 2203 H 198.752 3.71028 -4.55645 0
M  V30 2204 H 200.276 4.52387 -4.10095 0
M  V30 2205 H 201.69 2.51117 -5.15377 0
M  V30 2206 H 200.087 1.9241 -5.68417 0
M  V30 2207 H 201.157 0.84136 -4.77545 0
M  V30 2208 N 202.5 1.5196 0.417844 0
M  V30 2209 C 203.746 1.65836 1.16732 0
M  V30 2210 C 204.079 0.382881 1.90388 0
M  V30 2211 O 203.354 -0.618368 1.84408 0
M  V30 2212 C 203.637 2.87466 2.16876 0
M  V30 2213 C 203.49 4.25041 1.47174 0
M  V30 2214 C 204.809 3.04613 3.17646 0
M  V30 2215 H 201.928 0.603515 0.423011 0
M  V30 2216 H 204.57 1.84494 0.454105 0
M  V30 2217 H 202.72 2.71689 2.777 0
M  V30 2218 H 204.392 4.52527 0.895376 0
M  V30 2219 H 202.635 4.26843 0.773806 0
M  V30 2220 H 203.306 5.06176 2.20204 0
M  V30 2221 H 205.782 3.1923 2.66892 0
M  V30 2222 H 204.658 3.91247 3.8499 0
M  V30 2223 H 204.919 2.17541 3.84874 0
M  V30 2224 N 203.978 -0.674533 1.42435 0
M  V30 2225 C 204.888 -1.81751 1.48337 0
M  V30 2226 C 205.904 -1.69975 0.372099 0
M  V30 2227 O 207.08 -1.91521 0.62304 0
M  V30 2228 C 204.145 -3.17895 1.38361 0
M  V30 2229 C 203.206 -3.41625 2.59982 0
M  V30 2230 C 202.439 -4.71274 2.50473 0
M  V30 2231 O 202.662 -5.49197 1.54075 0
M  V30 2232 O 201.596 -4.96254 3.4061 0
M  V30 2233 H 205.422 -1.79728 2.44809 0
M  V30 2234 H 203.007 -0.830312 1.24202 0
M  V30 2235 H 204.889 -3.99136 1.35161 0
M  V30 2236 H 203.564 -3.20555 0.450144 0
M  V30 2237 H 202.471 -2.60231 2.68757 0
M  V30 2238 H 203.804 -3.43796 3.52229 0
M  V30 2239 N 205.456 -1.28612 -0.910864 0
M  V30 2240 C 206.867 -1.14406 -1.47541 0
M  V30 2241 C 207.218 0.264901 -1.94403 0
M  V30 2242 O 206.343 1.15942 -1.82719 0
M  V30 2243 C 206.938 -2.07073 -2.68153 0
M  V30 2244 C 205.497 -1.96923 -3.20778 0
M  V30 2245 C 204.644 -1.98646 -1.93481 0
M  V30 2246 H 207.595 -1.41259 -0.723291 0
M  V30 2247 H 207.616 -1.63642 -3.43514 0
M  V30 2248 H 207.128 -3.09611 -2.34015 0
M  V30 2249 H 205.229 -0.97433 -3.59635 0
M  V30 2250 H 205.342 -2.84026 -3.85832 0
M  V30 2251 H 203.706 -1.43093 -2.10705 0
M  V30 2252 H 204.489 -3.02868 -1.61634 0
M  V30 2253 N 206.934 1.1197 -1.10907 0
M  V30 2254 C 208.35 1.35591 -0.841852 0
M  V30 2255 C 208.55 1.94233 0.536246 0
M  V30 2256 O 207.606 2.1717 1.28816 0
M  V30 2257 C 208.919 2.29284 -1.94549 0
M  V30 2258 C 210.467 2.42862 -1.97451 0
M  V30 2259 C 210.942 3.39873 -3.07002 0
M  V30 2260 N 212.433 3.47433 -3.06341 0
M  V30 2261 C 213.168 4.22421 -3.87748 0
M  V30 2262 N 212.664 5.00432 -4.79103 0
M  V30 2263 N 214.457 4.17876 -3.75946 0
M  V30 2264 H 206.608 0.722664 -1.99728 0
M  V30 2265 H 208.871 0.380635 -0.868229 0
M  V30 2266 H 208.577 1.93378 -2.93765 0
M  V30 2267 H 208.451 3.29452 -1.83688 0
M  V30 2268 H 210.838 2.78046 -0.988645 0
M  V30 2269 H 210.919 1.42566 -2.12388 0
M  V30 2270 H 210.563 3.05417 -4.05811 0
M  V30 2271 H 210.493 4.40011 -2.89306 0
M  V30 2272 H 212.984 2.91784 -2.40147 0
M  V30 2273 H 213.297 5.55002 -5.37766 0
M  V30 2274 H 211.642 4.99612 -4.83128 0
M  V30 2275 H 214.833 3.56016 -3.03924 0
M  V30 2276 H 215.006 4.76061 -4.39624 0
M  V30 2277 N 208.412 0.89855 1.29475 0
M  V30 2278 C 209.359 0.373819 2.27753 0
M  V30 2279 C 210.329 -0.543444 1.56958 0
M  V30 2280 O 211.514 -0.468934 1.84948 0
M  V30 2281 C 208.654 -0.393648 3.42848 0
M  V30 2282 C 207.767 0.554379 4.28428 0
M  V30 2283 C 206.902 -0.230026 5.30702 0
M  V30 2284 C 205.941 0.712599 6.07938 0
M  V30 2285 N 205.078 -0.0373283 7.0209 0
M  V30 2286 H 209.918 1.21699 2.72017 0
M  V30 2287 H 207.455 0.611456 1.33789 0
M  V30 2288 H 209.413 -0.85466 4.08352 0
M  V30 2289 H 208.043 -1.20128 2.99615 0
M  V30 2290 H 207.095 1.13391 3.63107 0
M  V30 2291 H 208.407 1.27597 4.82204 0
M  V30 2292 H 207.561 -0.752288 6.02018 0
M  V30 2293 H 206.3 -0.984758 4.77654 0
M  V30 2294 H 205.305 1.24637 5.35486 0
M  V30 2295 H 206.53 1.46664 6.63074 0
M  V30 2296 H 204.476 -0.774348 6.51414 0
M  V30 2297 H 204.393 0.624374 7.53417 0
M  V30 2298 H 205.661 -0.539891 7.77628 0
M  V30 2299 N 209.89 -1.43072 0.660911 0
M  V30 2300 C 210.822 -2.29108 -0.0647641 0
M  V30 2301 C 211.835 -1.42928 -0.779448 0
M  V30 2302 O 213.024 -1.66788 -0.635921 0
M  V30 2303 C 210.124 -3.20032 -1.11503 0
M  V30 2304 C 209.297 -4.34792 -0.476955 0
M  V30 2305 C 208.356 -5.06534 -1.42513 0
M  V30 2306 O 207.382 -5.61538 -0.930771 0
M  V30 2307 N 208.584 -5.1075 -2.75889 0
M  V30 2308 H 211.349 -2.92029 0.673731 0
M  V30 2309 H 208.91 -1.53846 0.50427 0
M  V30 2310 H 210.902 -3.64892 -1.75032 0
M  V30 2311 H 209.472 -2.58658 -1.75541 0
M  V30 2312 H 208.692 -3.92752 0.337572 0
M  V30 2313 H 209.98 -5.0879 -0.0318525 0
M  V30 2314 H 209.378 -4.67447 -3.18606 0
M  V30 2315 H 207.935 -5.59302 -3.347 0
M  V30 2316 N 211.368 -0.403325 -1.52352 0
M  V30 2317 C 212.645 0.232611 -1.94212 0
M  V30 2318 C 213.025 1.63133 -1.33981 0
M  V30 2319 O 212.373 2.22659 -0.513344 0
M  V30 2320 C 212.583 0.244811 -3.4814 0
M  V30 2321 C 213.931 0.46698 -4.22024 0
M  V30 2322 O 214.955 0.324419 -3.5472 0
M  V30 2323 O 213.814 0.74747 -5.41364 0
M  V30 2324 H 210.908 0.148223 -0.813609 0
M  V30 2325 H 213.454 -0.458848 -1.63379 0
M  V30 2326 H 212.226 -0.734378 -3.84347 0
M  V30 2327 H 211.849 0.980611 -3.85318 0
M  V30 2328 N 212.846 1.57033 -0.133567 0
M  V30 2329 C 213.809 2.14897 0.796995 0
M  V30 2330 C 214.809 1.0874 1.18458 0
M  V30 2331 O 215.999 1.34446 1.1077 0
M  V30 2332 C 213.131 2.70112 2.07973 0
M  V30 2333 H 214.324 2.98457 0.293873 0
M  V30 2334 H 211.877 1.55871 0.115787 0
M  V30 2335 H 212.612 1.9018 2.62682 0
M  V30 2336 H 212.397 3.47764 1.81115 0
M  V30 2337 H 213.887 3.14738 2.74462 0
M  V30 2338 N 214.325 -0.140222 1.56975 0
M  V30 2339 C 215.602 -0.880769 1.74648 0
M  V30 2340 C 215.982 -1.99036 0.703404 0
M  V30 2341 O 215.33 -2.26821 -0.27648 0
M  V30 2342 C 215.54 -1.417 3.18939 0
M  V30 2343 C 216.888 -1.87774 3.80823 0
M  V30 2344 O 217.912 -1.51427 3.2241 0
M  V30 2345 O 216.771 -2.54827 4.83452 0
M  V30 2346 H 213.865 -0.416713 0.714338 0
M  V30 2347 H 216.411 -0.125618 1.69234 0
M  V30 2348 H 215.183 -0.619902 3.86359 0
M  V30 2349 H 214.806 -2.23546 3.28805 0
M  V30 2350 N 215.803 -1.52179 -0.40978 0
M  V30 2351 C 217.028 -1.70347 -1.18308 0
M  V30 2352 C 217.453 -0.411887 -1.83535 0
M  V30 2353 O 216.811 0.630587 -1.6998 0
M  V30 2354 C 216.859 -2.83977 -2.22238 0
M  V30 2355 O 215.963 -2.495 -3.28365 0
M  V30 2356 H 215.304 -0.567103 -0.345384 0
M  V30 2357 H 217.834 -1.98879 -0.480445 0
M  V30 2358 H 217.844 -3.0887 -2.66577 0
M  V30 2359 H 216.519 -3.77685 -1.74146 0
M  V30 2360 H 215.096 -2.35277 -2.89308 0
M  V30 2361 N 217.281 0.66697 -1.42791 0
M  V30 2362 C 218.211 1.79218 -1.49677 0
M  V30 2363 C 219.192 1.66405 -0.352623 0
M  V30 2364 O 220.377 1.85708 -0.567993 0
M  V30 2365 C 217.507 3.17565 -1.40605 0
M  V30 2366 C 216.461 3.45124 -2.53127 0
M  V30 2367 C 215.787 4.83127 -2.29112 0
M  V30 2368 C 217.087 3.41236 -3.95418 0
M  V30 2369 H 218.781 1.73713 -2.43853 0
M  V30 2370 H 216.327 0.83432 -1.17367 0
M  V30 2371 H 218.28 3.96022 -1.44029 0
M  V30 2372 H 217.004 3.23767 -0.429271 0
M  V30 2373 H 215.663 2.69031 -2.49034 0
M  V30 2374 H 215.311 4.85988 -1.29709 0
M  V30 2375 H 215.011 5.02528 -3.04531 0
M  V30 2376 H 216.535 5.63859 -2.34297 0
M  V30 2377 H 217.949 4.09651 -4.01073 0
M  V30 2378 H 216.346 3.72173 -4.70752 0
M  V30 2379 H 217.416 2.39665 -4.21532 0
M  V30 2380 N 218.759 1.29093 0.90403 0
M  V30 2381 C 219.691 1.09658 2.01266 0
M  V30 2382 C 220.704 0.0453729 1.62737 0
M  V30 2383 O 221.893 0.289446 1.76138 0
M  V30 2384 C 218.993 0.646278 3.32681 0
M  V30 2385 C 218.166 1.77505 3.99763 0
M  V30 2386 C 217.225 1.31649 5.09465 0
M  V30 2387 O 216.251 2.02045 5.32134 0
M  V30 2388 N 217.453 0.184997 5.80205 0
M  V30 2389 H 220.218 2.05135 2.18494 0
M  V30 2390 H 217.779 1.20975 1.07594 0
M  V30 2391 H 219.771 0.322906 4.0341 0
M  V30 2392 H 218.341 -0.215916 3.11853 0
M  V30 2393 H 217.561 2.26752 3.22455 0
M  V30 2394 H 218.849 2.53198 4.41325 0
M  V30 2395 H 218.247 -0.402021 5.6427 0
M  V30 2396 H 216.804 -0.0790358 6.51752 0
M  V30 2397 N 220.237 -1.11381 1.11499 0
M  V30 2398 C 221.653 -1.35143 0.849031 0
M  V30 2399 C 221.853 -1.94515 -0.525938 0
M  V30 2400 O 220.909 -2.1785 -1.27662 0
M  V30 2401 C 222.222 -2.28249 1.95762 0
M  V30 2402 C 223.77 -2.41812 1.98736 0
M  V30 2403 C 224.245 -3.3824 3.088 0
M  V30 2404 N 225.736 -3.45803 3.08179 0
M  V30 2405 C 226.471 -4.20358 3.89982 0
M  V30 2406 N 225.967 -4.97884 4.8175 0
M  V30 2407 N 227.76 -4.15877 3.78157 0
M  V30 2408 H 219.911 -0.712062 2.00109 0
M  V30 2409 H 222.174 -0.376025 0.870235 0
M  V30 2410 H 221.88 -1.91817 2.94787 0
M  V30 2411 H 221.754 -3.28473 1.85433 0
M  V30 2412 H 224.141 -2.77518 1.00338 0
M  V30 2413 H 224.222 -1.41437 2.13141 0
M  V30 2414 H 223.866 -3.03261 4.07425 0
M  V30 2415 H 223.796 -4.38471 2.91635 0
M  V30 2416 H 226.287 -2.90506 2.41691 0
M  V30 2417 H 226.6 -5.52142 5.40702 0
M  V30 2418 H 224.945 -4.97043 4.85771 0
M  V30 2419 H 228.136 -3.544 3.05808 0
M  V30 2420 H 228.309 -4.73723 4.42143 0
M  V30 2421 N 221.715 -0.905404 -1.28997 0
M  V30 2422 C 222.678 -0.392253 -2.25819 0
M  V30 2423 C 223.678 0.476753 -1.5357 0
M  V30 2424 O 224.868 0.280994 -1.71919 0
M  V30 2425 C 222 0.438588 -3.38067 0
M  V30 2426 H 223.193 -1.24743 -2.72725 0
M  V30 2427 H 220.746 -0.684051 -1.40536 0
M  V30 2428 H 221.481 1.31352 -2.96508 0
M  V30 2429 H 221.266 -0.184167 -3.91667 0
M  V30 2430 H 222.756 0.78873 -4.10084 0
M  V30 2431 N 223.193 1.4272 -0.668489 0
M  V30 2432 C 224.439 2.02443 -0.197076 0
M  V30 2433 C 224.794 1.51882 1.18109 0
M  V30 2434 O 224.087 0.708618 1.78015 0
M  V30 2435 C 224.281 3.57021 -0.164499 0
M  V30 2436 C 224.11 4.22583 -1.53797 0
M  V30 2437 C 222.88 4.58019 -2.13416 0
M  V30 2438 C 225.078 4.50588 -2.47941 0
M  V30 2439 N 223.06 5.08729 -3.4361 0
M  V30 2440 C 224.431 5.02782 -3.62782 0
M  V30 2441 C 226.486 4.32571 -2.46551 0
M  V30 2442 C 225.189 5.38852 -4.76478 0
M  V30 2443 C 227.215 4.69713 -3.59338 0
M  V30 2444 C 226.577 5.22053 -4.72906 0
M  V30 2445 H 222.676 0.773214 -0.116894 0
M  V30 2446 H 225.26 1.73673 -0.880108 0
M  V30 2447 H 223.431 3.85323 0.487925 0
M  V30 2448 H 225.163 4.03439 0.319207 0
M  V30 2449 H 221.918 4.43566 -1.65969 0
M  V30 2450 H 222.342 5.38521 -4.10273 0
M  V30 2451 H 226.984 3.91365 -1.59978 0
M  V30 2452 H 224.702 5.78993 -5.63731 0
M  V30 2453 H 228.288 4.57454 -3.59482 0
M  V30 2454 H 227.168 5.50258 -5.58736 0
M  V30 2455 N 224.671 0.411399 1.52136 0
M  V30 2456 C 225.899 -0.163076 2.06256 0
M  V30 2457 C 226.314 -1.3867 1.28125 0
M  V30 2458 O 225.671 -1.79423 0.333721 0
M  V30 2459 C 225.722 -0.511252 3.57867 0
M  V30 2460 O 225.443 0.66378 4.33042 0
M  V30 2461 C 226.944 -1.13921 4.28412 0
M  V30 2462 H 224.164 -0.0193897 0.67072 0
M  V30 2463 H 226.708 0.583007 1.96013 0
M  V30 2464 H 224.863 -1.20723 3.6811 0
M  V30 2465 H 225.277 0.372601 5.23175 0
M  V30 2466 H 226.751 -1.33302 5.35663 0
M  V30 2467 H 227.228 -2.11296 3.85033 0
M  V30 2468 H 227.834 -0.483373 4.22544 0
M  V30 2469 N 226.149 -1.5696 0.141893 0
M  V30 2470 C 227.395 -1.9625 -0.511248 0
M  V30 2471 C 227.728 -1.02654 -1.64851 0
M  V30 2472 O 227.003 -0.0679676 -1.94381 0
M  V30 2473 C 227.286 -3.45285 -1.02227 0
M  V30 2474 C 227.139 -4.49658 0.113138 0
M  V30 2475 C 228.458 -3.96698 -1.90574 0
M  V30 2476 H 225.577 -0.713567 -0.184367 0
M  V30 2477 H 228.219 -1.88698 0.222087 0
M  V30 2478 H 226.369 -3.51852 -1.64719 0
M  V30 2479 H 228.041 -4.55174 0.749302 0
M  V30 2480 H 226.284 -4.26857 0.773026 0
M  V30 2481 H 226.955 -5.51258 -0.286053 0
M  V30 2482 H 229.431 -3.92578 -1.37918 0
M  V30 2483 H 228.307 -5.01453 -2.2324 0
M  V30 2484 H 228.568 -3.3875 -2.84079 0
M  V30 2485 N 227.627 0.131896 -1.57047 0
M  V30 2486 C 228.875 0.840269 -1.83804 0
M  V30 2487 C 229.196 1.81017 -0.72512 0
M  V30 2488 O 228.466 1.94272 0.251995 0
M  V30 2489 H 227.046 0.313294 -0.678127 0
M  V30 2490 H 229.708 0.122294 -1.94516 0
M  V30 2491 H 228.804 1.39335 -2.79271 0
M  V30 2492 N 229.106 1.52395 0.401703 0
M  V30 2493 C 230.352 1.68019 1.14635 0
M  V30 2494 C 230.707 0.408722 1.88009 0
M  V30 2495 O 230 -0.597133 1.82057 0
M  V30 2496 C 230.194 2.84578 2.16217 0
M  V30 2497 C 230.023 4.22938 1.5282 0
M  V30 2498 C 228.793 4.88352 1.29772 0
M  V30 2499 C 230.991 5.04778 0.985094 0
M  V30 2500 N 228.973 6.10726 0.623455 0
M  V30 2501 C 230.344 6.1845 0.438172 0
M  V30 2502 C 232.399 4.90057 0.880275 0
M  V30 2503 C 231.102 7.19013 -0.203306 0
M  V30 2504 C 233.128 5.9086 0.252639 0
M  V30 2505 C 232.49 7.03829 -0.283573 0
M  V30 2506 H 228.589 0.668413 0.405892 0
M  V30 2507 H 231.173 1.89717 0.437674 0
M  V30 2508 H 229.344 2.64483 2.84435 0
M  V30 2509 H 231.076 2.89202 2.83098 0
M  V30 2510 H 227.831 4.46846 1.56926 0
M  V30 2511 H 228.255 6.76323 0.302733 0
M  V30 2512 H 232.897 4.02938 1.28065 0
M  V30 2513 H 230.615 8.05751 -0.615726 0
M  V30 2514 H 234.201 5.81543 0.172954 0
M  V30 2515 H 233.081 7.80493 -0.761575 0
M  V30 2516 N 230.584 -0.659388 1.43143 0
M  V30 2517 C 231.824 -1.43121 1.45931 0
M  V30 2518 C 232.188 -1.91838 0.0789298 0
M  V30 2519 O 233.389 -2.68794 -0.018491 0
M  V30 2520 C 231.66 -2.58534 2.46769 0
M  V30 2521 S 233.219 -3.47154 2.68384 0
M  V30 2522 H 230.037 -0.488624 0.516496 0
M  V30 2523 H 232.639 -0.766128 1.79863 0
M  V30 2524 H 231.343 -2.21007 3.45809 0
M  V30 2525 H 230.874 -3.29898 2.14315 0
M  V30 2526 H 232.889 -4.55051 1.97845 0
M  V30 2527 N 232.062 -1.29571 -0.897171 0
M  V30 2528 C 233.308 -1.17863 -1.65034 0
M  V30 2529 C 233.641 0.268729 -1.92332 0
M  V30 2530 O 232.916 1.19378 -1.53555 0
M  V30 2531 C 233.199 -1.995 -2.99786 0
M  V30 2532 C 233.052 -3.5239 -2.79538 0
M  V30 2533 C 234.371 -1.82335 -4.00552 0
M  V30 2534 H 231.49 -0.429528 -0.598895 0
M  V30 2535 H 234.132 -1.59072 -1.03905 0
M  V30 2536 H 232.282 -1.64485 -3.51962 0
M  V30 2537 H 233.954 -3.97401 -2.34244 0
M  V30 2538 H 232.197 -3.77187 -2.14273 0
M  V30 2539 H 232.868 -4.04787 -3.75302 0
M  V30 2540 H 235.344 -2.12924 -3.57495 0
M  V30 2541 H 234.22 -2.41801 -4.92771 0
M  V30 2542 H 234.481 -0.779209 -4.35179 0
M  V30 2543 N 233.54 1.10788 -1.12088 0
M  V30 2544 C 234.45 2.20599 -0.798338 0
M  V30 2545 C 235.466 1.72712 0.21135 0
M  V30 2546 O 236.642 2.01348 0.0458477 0
M  V30 2547 C 233.707 3.45771 -0.253674 0
M  V30 2548 C 232.768 4.08411 -1.32283 0
M  V30 2549 C 232.001 5.27608 -0.80406 0
M  V30 2550 O 232.224 5.69241 0.363478 0
M  V30 2551 O 231.158 5.8101 -1.57198 0
M  V30 2552 H 234.984 2.50614 -1.7154 0
M  V30 2553 H 232.569 1.19454 -0.897275 0
M  V30 2554 H 234.451 4.21376 0.0453691 0
M  V30 2555 H 233.126 3.1739 0.636005 0
M  V30 2556 H 232.033 3.34507 -1.67499 0
M  V30 2557 H 233.366 4.40986 -2.18614 0
M  V30 2558 N 235.018 0.912232 1.28515 0
M  V30 2559 C 235.948 0.416403 2.29757 0
M  V30 2560 C 236.929 -0.515194 1.6211 0
M  V30 2561 O 238.114 -0.423253 1.89532 0
M  V30 2562 C 235.244 -0.34572 3.45575 0
M  V30 2563 C 234.198 0.496599 4.25109 0
M  V30 2564 C 233.524 -0.393771 5.33248 0
M  V30 2565 C 234.824 1.75307 4.92001 0
M  V30 2566 H 236.518 1.26249 2.7148 0
M  V30 2567 H 234.064 0.608515 1.30511 0
M  V30 2568 H 236.017 -0.703422 4.15488 0
M  V30 2569 H 234.741 -1.2257 3.02728 0
M  V30 2570 H 233.4 0.8368 3.56922 0
M  V30 2571 H 233.048 -1.27225 4.86644 0
M  V30 2572 H 232.748 0.166209 5.87365 0
M  V30 2573 H 234.272 -0.747389 6.06009 0
M  V30 2574 H 235.686 1.46437 5.54283 0
M  V30 2575 H 234.083 2.25534 5.56106 0
M  V30 2576 H 235.153 2.48176 4.16577 0
M  V30 2577 N 236.496 -1.42363 0.676048 0
M  V30 2578 C 237.426 -2.33497 0.0124832 0
M  V30 2579 C 238.407 -1.50748 -0.787981 0
M  V30 2580 O 239.592 -1.79346 -0.744884 0
M  V30 2581 C 236.722 -3.34377 -0.938582 0
M  V30 2582 C 235.676 -4.27289 -0.246622 0
M  V30 2583 C 235.002 -5.18386 -1.31071 0
M  V30 2584 C 236.302 -5.14916 0.875125 0
M  V30 2585 H 237.996 -2.89233 0.773593 0
M  V30 2586 H 235.542 -1.39073 0.37346 0
M  V30 2587 H 237.495 -3.97044 -1.41188 0
M  V30 2588 H 236.219 -2.76947 -1.73113 0
M  V30 2589 H 234.878 -3.66018 0.206456 0
M  V30 2590 H 234.526 -4.57282 -2.09528 0
M  V30 2591 H 234.226 -5.81378 -0.852839 0
M  V30 2592 H 235.75 -5.83929 -1.78492 0
M  V30 2593 H 237.164 -5.71262 0.482983 0
M  V30 2594 H 235.561 -5.86747 1.25887 0
M  V30 2595 H 236.631 -4.53242 1.72335 0
M  V30 2596 N 237.974 -0.419461 -1.51915 0
M  V30 2597 C 238.906 0.43646 -2.25006 0
M  V30 2598 C 239.919 1.00149 -1.28351 0
M  V30 2599 O 241.108 0.898674 -1.54227 0
M  V30 2600 C 238.208 1.6206 -2.9764 0
M  V30 2601 C 237.381 1.17763 -4.21249 0
M  V30 2602 C 236.44 2.22985 -4.76617 0
M  V30 2603 O 235.466 1.83151 -5.38929 0
M  V30 2604 N 236.668 3.55271 -4.59089 0
M  V30 2605 H 239.433 -0.18989 -2.99098 0
M  V30 2606 H 236.994 -0.247386 -1.59999 0
M  V30 2607 H 238.986 2.32038 -3.31573 0
M  V30 2608 H 237.556 2.15266 -2.2667 0
M  V30 2609 H 236.776 0.305582 -3.93014 0
M  V30 2610 H 238.064 0.858781 -5.015 0
M  V30 2611 H 237.462 3.90377 -4.09417 0
M  V30 2612 H 236.019 4.21195 -4.97432 0
M  V30 2613 N 239.452 1.56882 -0.150215 0
M  V30 2614 C 240.415 2.1573 0.774157 0
M  V30 2615 C 241.415 1.0999 1.17298 0
M  V30 2616 O 242.605 1.35613 1.09338 0
M  V30 2617 C 239.737 2.72302 2.05096 0
M  V30 2618 H 240.93 2.98752 0.262201 0
M  V30 2619 H 238.483 1.55985 0.099248 0
M  V30 2620 H 239.218 1.92956 2.6065 0
M  V30 2621 H 239.003 3.49665 1.77416 0
M  V30 2622 H 240.493 3.17632 2.71109 0
M  V30 2623 N 240.93 -0.123565 1.57115 0
M  V30 2624 C 242.177 -0.832153 1.84612 0
M  V30 2625 C 242.505 -1.80093 0.734627 0
M  V30 2626 O 241.76 -1.93766 -0.27442 0
M  V30 2627 C 242.059 -1.62016 3.18568 0
M  V30 2628 C 241.725 -0.796084 4.43817 0
M  V30 2629 C 240.387 -0.568816 4.77826 0
M  V30 2630 C 242.739 -0.221364 5.2073 0
M  V30 2631 C 240.067 0.243499 5.86194 0
M  V30 2632 C 242.419 0.578117 6.29953 0
M  V30 2633 C 241.083 0.815744 6.62497 0
M  V30 2634 H 240.353 -0.304507 0.675542 0
M  V30 2635 H 243 -0.0947248 1.91266 0
M  V30 2636 H 241.305 -2.42837 3.0747 0
M  V30 2637 H 243.002 -2.17231 3.37064 0
M  V30 2638 H 239.592 -0.983307 4.17168 0
M  V30 2639 H 243.776 -0.384173 4.94811 0
M  V30 2640 H 239.032 0.436871 6.09837 0
M  V30 2641 H 243.206 1.03046 6.88734 0
M  V30 2642 H 240.833 1.44701 7.46301 0
M  V30 2643 N 242.408 -1.52605 -0.393616 0
M  V30 2644 C 243.655 -1.67424 -1.1391 0
M  V30 2645 C 243.983 -0.411859 -1.90089 0
M  V30 2646 O 243.238 0.605626 -1.86093 0
M  V30 2647 C 243.537 -2.85721 -2.14705 0
M  V30 2648 C 243.203 -4.23342 -1.55218 0
M  V30 2649 C 241.865 -4.60771 -1.3872 0
M  V30 2650 C 244.217 -5.09041 -1.11924 0
M  V30 2651 C 241.545 -5.81563 -0.774689 0
M  V30 2652 C 243.897 -6.30452 -0.520853 0
M  V30 2653 C 242.561 -6.66617 -0.343134 0
M  V30 2654 H 241.831 -0.612648 -0.416826 0
M  V30 2655 H 244.478 -1.8674 -0.424315 0
M  V30 2656 H 242.783 -2.60803 -2.92385 0
M  V30 2657 H 244.48 -2.94382 -2.72288 0
M  V30 2658 H 241.07 -3.93855 -1.69045 0
M  V30 2659 H 245.254 -4.80695 -1.23473 0
M  V30 2660 H 240.51 -6.08196 -0.625154 0
M  V30 2661 H 244.684 -6.96175 -0.177065 0
M  V30 2662 H 242.311 -7.60083 0.133571 0
M  V30 2663 N 243.887 0.651787 -1.4349 0
M  V30 2664 C 244.817 1.77621 -1.51569 0
M  V30 2665 C 245.798 1.66022 -0.370253 0
M  V30 2666 O 246.983 1.85095 -0.587658 0
M  V30 2667 C 244.113 3.16056 -1.43966 0
M  V30 2668 C 243.067 3.4242 -2.56774 0
M  V30 2669 C 242.393 4.8067 -2.34223 0
M  V30 2670 C 243.693 3.37023 -3.99015 0
M  V30 2671 H 245.387 1.71117 -2.45681 0
M  V30 2672 H 242.933 0.821825 -1.18246 0
M  V30 2673 H 244.886 3.94472 -1.48221 0
M  V30 2674 H 243.61 3.23293 -0.463586 0
M  V30 2675 H 242.269 2.66375 -2.51873 0
M  V30 2676 H 241.917 4.84585 -1.34856 0
M  V30 2677 H 241.617 4.9927 -3.09844 0
M  V30 2678 H 243.141 5.61342 -2.40265 0
M  V30 2679 H 244.555 4.05374 -4.05395 0
M  V30 2680 H 242.952 3.67159 -4.74673 0
M  V30 2681 H 244.022 2.3518 -4.2405 0
M  V30 2682 N 245.365 1.30045 0.890287 0
M  V30 2683 C 246.611 1.18737 1.64406 0
M  V30 2684 C 246.944 -0.258525 1.92472 0
M  V30 2685 O 246.219 -1.18562 1.54186 0
M  V30 2686 C 246.502 2.01087 2.98724 0
M  V30 2687 C 246.355 3.53867 2.77665 0
M  V30 2688 C 247.674 1.84457 3.9958 0
M  V30 2689 H 244.793 0.432698 0.596608 0
M  V30 2690 H 247.435 1.5962 1.0306 0
M  V30 2691 H 245.585 1.66349 3.51084 0
M  V30 2692 H 247.257 3.98637 2.32133 0
M  V30 2693 H 245.5 3.78318 2.12269 0
M  V30 2694 H 246.171 4.06772 3.7315 0
M  V30 2695 H 248.647 2.14817 3.56361 0
M  V30 2696 H 247.523 2.44411 4.91482 0
M  V30 2697 H 247.784 0.802276 4.3476 0
M  V30 2698 N 246.843 -1.10192 1.12674 0
M  V30 2699 C 247.806 -2.14786 0.799979 0
M  V30 2700 C 248.806 -1.59711 -0.18685 0
M  V30 2701 O 249.996 -1.74156 0.0392558 0
M  V30 2702 C 247.128 -3.40374 0.189228 0
M  V30 2703 H 248.321 -2.45203 1.72671 0
M  V30 2704 H 245.874 -1.25597 0.930326 0
M  V30 2705 H 246.609 -3.15577 -0.747107 0
M  V30 2706 H 246.394 -3.81637 0.899766 0
M  V30 2707 H 247.884 -4.17594 -0.0228143 0
M  V30 2708 N 248.321 -0.919034 -1.28029 0
M  V30 2709 C 249.598 -0.473668 -1.89778 0
M  V30 2710 C 249.978 1.04783 -1.83259 0
M  V30 2711 O 249.326 1.8982 -1.27202 0
M  V30 2712 C 249.536 -1.00998 -3.34066 0
M  V30 2713 C 250.884 -1.06525 -4.1102 0
M  V30 2714 O 251.908 -0.958996 -3.43048 0
M  V30 2715 O 250.767 -1.22776 -5.3253 0
M  V30 2716 H 247.861 -0.15098 -0.813101 0
M  V30 2717 H 250.407 -1.01016 -1.36359 0
M  V30 2718 H 249.179 -2.05392 -3.33061 0
M  V30 2719 H 248.802 -0.454626 -3.94992 0
M  V30 2720 N 249.799 1.42003 -0.683588 0
M  V30 2721 C 251.076 1.95112 -0.138075 0
M  V30 2722 C 251.456 1.62359 1.34918 0
M  V30 2723 O 250.804 0.924311 2.08971 0
M  V30 2724 C 251.014 3.46505 -0.416581 0
M  V30 2725 C 252.362 4.23254 -0.337834 0
M  V30 2726 O 253.386 3.54468 -0.35082 0
M  V30 2727 O 252.245 5.45743 -0.287596 0
M  V30 2728 H 249.339 0.826961 -0.00797996 0
M  V30 2729 H 251.885 1.51784 -0.758924 0
M  V30 2730 H 250.657 3.63582 -1.4465 0
M  V30 2731 H 250.28 3.969 0.235839 0
M  V30 2732 N 251.277 0.427512 1.51691 0
M  V30 2733 C 252.526 -0.143679 2.01188 0
M  V30 2734 C 252.839 -1.44642 1.31674 0
M  V30 2735 O 254.045 -2.09997 1.72086 0
M  V30 2736 C 252.501 -0.306602 3.58592 0
M  V30 2737 C 252.109 0.985125 4.37035 0
M  V30 2738 C 253.853 -0.832091 4.16265 0
M  V30 2739 C 251.76 0.788382 5.86122 0
M  V30 2740 H 250.69 -0.0574701 0.751807 0
M  V30 2741 H 253.341 0.555772 1.74881 0
M  V30 2742 H 251.723 -1.06882 3.81303 0
M  V30 2743 H 252.897 1.75492 4.26074 0
M  V30 2744 H 251.212 1.4384 3.90767 0
M  V30 2745 H 253.809 -0.995617 5.25349 0
M  V30 2746 H 254.152 -1.81186 3.74803 0
M  V30 2747 H 254.685 -0.128444 3.97593 0
M  V30 2748 H 251.424 1.74025 6.31978 0
M  V30 2749 H 250.944 0.0582143 5.99772 0
M  V30 2750 H 252.623 0.437722 6.45518 0
M  V30 2751 N 252.755 -1.56801 0.158532 0
M  V30 2752 C 253.688 -2.13148 -0.815065 0
M  V30 2753 C 254.666 -1.0581 -1.23462 0
M  V30 2754 O 255.85 -1.3371 -1.32868 0
M  V30 2755 C 252.977 -2.6606 -2.09594 0
M  V30 2756 C 252.023 -3.85651 -1.82141 0
M  V30 2757 S 252.856 -5.26041 -1.00207 0
M  V30 2758 C 254.012 -5.8235 -2.29389 0
M  V30 2759 H 254.245 -2.95396 -0.335937 0
M  V30 2760 H 251.778 -1.54299 -0.0559391 0
M  V30 2761 H 253.736 -2.97195 -2.8317 0
M  V30 2762 H 252.397 -1.83921 -2.54621 0
M  V30 2763 H 251.59 -4.20958 -2.77147 0
M  V30 2764 H 251.192 -3.55338 -1.16667 0
M  V30 2765 H 253.484 -5.94485 -3.24952 0
M  V30 2766 H 254.427 -6.79688 -1.9857 0
M  V30 2767 H 254.835 -5.10675 -2.40564 0
M  V30 2768 N 254.233 0.115231 -1.57178 0
M  V30 2769 C 255.51 0.852873 -1.76027 0
M  V30 2770 C 255.89 1.97892 -0.73498 0
M  V30 2771 O 255.238 2.27232 0.24036 0
M  V30 2772 C 255.448 1.36608 -3.21153 0
M  V30 2773 C 256.796 1.81692 -3.83762 0
M  V30 2774 O 257.82 1.46278 -3.24779 0
M  V30 2775 O 256.679 2.47104 -4.87444 0
M  V30 2776 H 253.773 0.405296 -0.720877 0
M  V30 2777 H 256.319 0.0986785 -1.69413 0
M  V30 2778 H 255.091 0.558357 -3.87296 0
M  V30 2779 H 254.714 2.18287 -3.3232 0
M  V30 2780 N 255.711 1.52812 0.385517 0
M  V30 2781 C 256.936 1.72207 1.15583 0
M  V30 2782 C 257.361 0.441034 1.82857 0
M  V30 2783 O 256.719 -0.603465 1.70962 0
M  V30 2784 C 256.767 2.87476 2.17692 0
M  V30 2785 O 255.871 2.54693 3.24354 0
M  V30 2786 H 255.212 0.572526 0.336319 0
M  V30 2787 H 257.742 1.99618 0.448744 0
M  V30 2788 H 257.752 3.13072 2.6163 0
M  V30 2789 H 256.427 3.80408 1.68115 0
M  V30 2790 H 255.004 2.3985 2.85529 0
M  V30 2791 N 257.189 -0.644168 1.43834 0
M  V30 2792 C 258.414 -1.43642 1.49605 0
M  V30 2793 C 258.839 -1.8773 0.117913 0
M  V30 2794 O 258.197 -1.57938 -0.890239 0
M  V30 2795 C 258.245 -2.6416 2.45463 0
M  V30 2796 O 257.349 -3.63538 1.94714 0
M  V30 2797 H 256.69 -0.430329 0.50568 0
M  V30 2798 H 259.22 -0.787448 1.8884 0
M  V30 2799 H 259.23 -3.11864 2.63068 0
M  V30 2800 H 257.905 -2.31414 3.45572 0
M  V30 2801 H 256.482 -3.2273 1.86814 0
M  V30 2802 N 258.668 -1.30515 -0.883378 0
M  V30 2803 C 259.598 -1.19607 -2.00541 0
M  V30 2804 C 260.579 -0.086346 -1.69881 0
M  V30 2805 O 261.764 -0.268654 -1.92333 0
M  V30 2806 C 258.894 -0.888758 -3.35736 0
M  V30 2807 C 257.848 -1.95659 -3.8066 0
M  V30 2808 C 257.174 -1.50224 -5.13164 0
M  V30 2809 C 258.474 -3.36788 -3.99213 0
M  V30 2810 H 260.168 -2.13476 -2.09925 0
M  V30 2811 H 257.714 -1.02775 -1.00863 0
M  V30 2812 H 259.667 -0.799094 -4.13754 0
M  V30 2813 H 258.391 0.0856125 -3.26488 0
M  V30 2814 H 257.05 -2.03591 -3.04871 0
M  V30 2815 H 256.698 -0.516092 -5.00345 0
M  V30 2816 H 256.398 -2.2165 -5.44192 0
M  V30 2817 H 257.922 -1.42639 -5.93706 0
M  V30 2818 H 259.336 -3.31605 -4.67665 0
M  V30 2819 H 257.733 -4.06314 -4.41621 0
M  V30 2820 H 258.803 -3.78561 -3.03017 0
M  V30 2821 N 260.146 1.09593 -1.13257 0
M  V30 2822 C 261.374 1.855 -0.916378 0
M  V30 2823 C 261.789 1.81069 0.534738 0
M  V30 2824 O 261.146 1.20562 1.37007 0
M  V30 2825 C 261.197 3.33546 -1.39388 0
M  V30 2826 O 260.918 3.37927 -2.78813 0
M  V30 2827 C 262.419 4.26299 -1.21588 0
M  V30 2828 H 259.639 0.585991 -0.326887 0
M  V30 2829 H 262.183 1.38488 -1.5047 0
M  V30 2830 H 260.338 3.77992 -0.848597 0
M  V30 2831 H 260.752 4.30254 -2.9997 0
M  V30 2832 H 262.226 5.28341 -1.59876 0
M  V30 2833 H 262.703 4.38918 -0.157376 0
M  V30 2834 H 263.309 3.87668 -1.7491 0
M  V30 2835 N 261.624 0.925811 1.2754 0
M  V30 2836 C 263.04 0.625767 1.46821 0
M  V30 2837 C 263.24 -0.825506 1.83814 0
M  V30 2838 O 262.296 -1.60356 1.95044 0
M  V30 2839 C 263.609 1.57402 2.56213 0
M  V30 2840 C 265.157 1.58204 2.70075 0
M  V30 2841 C 265.632 2.51721 3.82623 0
M  V30 2842 N 267.123 2.49917 3.89994 0
M  V30 2843 C 267.858 3.18968 4.76494 0
M  V30 2844 N 267.354 3.97391 5.67496 0
M  V30 2845 N 269.147 3.07996 4.70208 0
M  V30 2846 H 261.298 1.86409 1.01811 0
M  V30 2847 H 263.561 0.800213 0.508295 0
M  V30 2848 H 263.267 2.60925 2.35819 0
M  V30 2849 H 263.141 1.31428 3.53563 0
M  V30 2850 H 265.528 0.554124 2.89851 0
M  V30 2851 H 265.609 1.88226 1.73218 0
M  V30 2852 H 265.253 3.54622 3.63601 0
M  V30 2853 H 265.183 2.18996 4.78903 0
M  V30 2854 H 267.674 1.9296 3.24923 0
M  V30 2855 H 267.987 4.4707 6.30356 0
M  V30 2856 H 266.332 4.01495 5.67298 0
M  V30 2857 H 269.523 2.46223 3.9811 0
M  V30 2858 H 269.696 3.6208 5.37403 0
M  V30 2859 N 263.102 -1.41638 0.69111 0
M  V30 2860 C 264.518 -1.55435 0.362224 0
M  V30 2861 C 264.718 -1.66754 -1.13117 0
M  V30 2862 O 263.774 -1.64348 -1.91692 0
M  V30 2863 C 265.087 -2.79588 1.10684 0
M  V30 2864 C 266.635 -2.9338 1.09075 0
M  V30 2865 C 267.11 -4.20414 1.81703 0
M  V30 2866 N 268.601 -4.27362 1.7865 0
M  V30 2867 C 269.336 -5.24507 2.31689 0
M  V30 2868 N 268.832 -6.27708 2.93179 0
M  V30 2869 N 270.625 -5.16416 2.2197 0
M  V30 2870 H 262.776 -1.32536 1.65976 0
M  V30 2871 H 265.039 -0.639115 0.700168 0
M  V30 2872 H 264.745 -2.77419 2.16175 0
M  V30 2873 H 264.619 -3.70973 0.682545 0
M  V30 2874 H 267.006 -2.95067 0.0441238 0
M  V30 2875 H 267.087 -2.0318 1.55407 0
M  V30 2876 H 266.731 -4.19488 2.86343 0
M  V30 2877 H 266.661 -5.09578 1.32808 0
M  V30 2878 H 269.152 -3.53415 1.33815 0
M  V30 2879 H 269.465 -6.98217 3.31229 0
M  V30 2880 H 267.81 -6.28223 2.97255 0
M  V30 2881 H 271.001 -4.34716 1.73607 0
M  V30 2882 H 271.174 -5.91958 2.63609 0
M  V30 2883 N 264.58 -0.43555 -1.51462 0
M  V30 2884 C 265.828 0.131254 -2.01673 0
M  V30 2885 C 266.149 1.43368 -1.32177 0
M  V30 2886 O 265.419 1.90524 -0.455769 0
M  V30 2887 H 263.999 0.0514954 -0.745223 0
M  V30 2888 H 266.661 -0.577847 -1.86137 0
M  V30 2889 H 265.757 0.308446 -3.10572 0
M  V30 2890 N 266.058 1.56714 -0.166846 0
M  V30 2891 C 266.99 2.14914 0.796537 0
M  V30 2892 C 268.003 1.10357 1.19688 0
M  V30 2893 O 269.192 1.37561 1.13751 0
M  V30 2894 C 266.292 2.67326 2.08303 0
M  V30 2895 C 265.465 3.96493 1.84696 0
M  V30 2896 C 264.524 4.34014 2.97521 0
M  V30 2897 O 263.55 5.01973 2.6835 0
M  V30 2898 N 264.752 3.95208 4.25196 0
M  V30 2899 H 267.517 2.98205 0.299006 0
M  V30 2900 H 265.078 1.61892 0.0160839 0
M  V30 2901 H 267.07 2.89428 2.82867 0
M  V30 2902 H 265.64 1.88649 2.4926 0
M  V30 2903 H 264.86 3.82814 0.940602 0
M  V30 2904 H 266.148 4.8086 1.66285 0
M  V30 2905 H 265.546 3.40487 4.51758 0
M  V30 2906 H 264.103 4.2232 4.96477 0
M  V30 2907 N 267.536 -0.106894 1.57237 0
M  V30 2908 C 268.785 -0.811163 1.8467 0
M  V30 2909 C 269.098 -1.80469 0.754342 0
M  V30 2910 O 270.304 -2.55601 0.915439 0
M  V30 2911 C 268.76 -1.49337 3.27454 0
M  V30 2912 C 268.368 -0.540217 4.44731 0
M  V30 2913 C 270.112 -2.18206 3.64124 0
M  V30 2914 C 268.019 -1.22634 5.78545 0
M  V30 2915 H 266.949 -0.306679 0.688813 0
M  V30 2916 H 269.6 -0.0639887 1.83388 0
M  V30 2917 H 267.982 -2.2876 3.23241 0
M  V30 2918 H 269.156 0.221659 4.60267 0
M  V30 2919 H 267.471 0.042146 4.16379 0
M  V30 2920 H 270.068 -2.70253 4.61376 0
M  V30 2921 H 270.411 -2.96562 2.92158 0
M  V30 2922 H 270.944 -1.45658 3.70174 0
M  V30 2923 H 267.683 -0.483832 6.53712 0
M  V30 2924 H 267.203 -1.95993 5.66874 0
M  V30 2925 H 268.882 -1.75615 6.2271 0
M  V30 2926 N 269.014 -1.53014 -0.377408 0
M  V30 2927 C 270.254 -1.70318 -1.1301 0
M  V30 2928 C 270.618 -0.439538 -1.86901 0
M  V30 2929 O 271.819 -0.489095 -2.64313 0
M  V30 2930 C 270.09 -2.91125 -2.07319 0
M  V30 2931 S 271.649 -3.29075 -2.90268 0
M  V30 2932 H 268.467 -0.599426 -0.382374 0
M  V30 2933 H 271.069 -1.91089 -0.412933 0
M  V30 2934 H 269.773 -3.81303 -1.51777 0
M  V30 2935 H 269.304 -2.7272 -2.83526 0
M  V30 2936 H 271.319 -2.80165 -4.09539 0
M  V30 2937 N 270.492 0.636531 -1.44174 0
M  V30 2938 C 271.738 1.39649 -1.47884 0
M  V30 2939 C 272.093 1.92098 -0.107747 0
M  V30 2940 O 271.386 1.70391 0.876208 0
M  V30 2941 C 271.58 2.58309 -2.47005 0
M  V30 2942 C 271.409 2.17476 -3.93617 0
M  V30 2943 C 270.179 2.0501 -4.61843 0
M  V30 2944 C 272.377 1.76722 -4.82984 0
M  V30 2945 N 270.359 1.57683 -5.93304 0
M  V30 2946 C 271.73 1.40601 -6.03847 0
M  V30 2947 C 273.785 1.64054 -4.70096 0
M  V30 2948 C 272.488 0.930787 -7.13252 0
M  V30 2949 C 274.514 1.17937 -5.79521 0
M  V30 2950 C 273.876 0.827625 -6.99521 0
M  V30 2951 H 269.975 0.506027 -0.596205 0
M  V30 2952 H 272.559 0.730791 -1.80465 0
M  V30 2953 H 270.73 3.22514 -2.16423 0
M  V30 2954 H 272.462 3.25083 -2.41045 0
M  V30 2955 H 269.217 2.25294 -4.16581 0
M  V30 2956 H 269.641 1.36334 -6.63131 0
M  V30 2957 H 274.283 1.89882 -3.77762 0
M  V30 2958 H 272.001 0.660012 -8.054 0
M  V30 2959 H 275.587 1.08601 -5.71574 0
M  V30 2960 H 274.467 0.476231 -7.82753 0
M  V30 2961 N 271.97 1.30982 0.876444 0
M  V30 2962 C 273.2 1.23063 1.65949 0
M  V30 2963 C 273.608 -0.207537 1.88058 0
M  V30 2964 O 272.951 -1.14781 1.43426 0
M  V30 2965 C 273.013 1.89768 3.05333 0
M  V30 2966 C 272.677 3.39106 3.0636 0
M  V30 2967 C 273.674 4.3496 2.84791 0
M  V30 2968 C 271.359 3.80693 3.27686 0
M  V30 2969 C 273.353 5.70375 2.84519 0
M  V30 2970 C 271.04 5.16223 3.27043 0
M  V30 2971 C 272.038 6.10875 3.05485 0
M  V30 2972 O 271.726 7.43928 3.04674 0
M  V30 2973 H 271.458 0.426685 0.524324 0
M  V30 2974 H 274.012 1.7329 1.10271 0
M  V30 2975 H 272.242 1.34082 3.6271 0
M  V30 2976 H 273.931 1.75853 3.65829 0
M  V30 2977 H 274.697 4.0416 2.68103 0
M  V30 2978 H 270.576 3.07457 3.43499 0
M  V30 2979 H 274.12 6.44228 2.67611 0
M  V30 2980 H 270.017 5.4666 3.43269 0
M  V30 2981 H 270.785 7.53022 3.2078 0
M  V30 2982 N 273.449 -1.08991 1.13837 0
M  V30 2983 C 274.381 -2.15606 0.777612 0
M  V30 2984 C 275.394 -1.61533 -0.202739 0
M  V30 2985 O 276.583 -1.78491 0.0181055 0
M  V30 2986 C 273.683 -3.3864 0.132623 0
M  V30 2987 C 272.856 -4.22115 1.1462 0
M  V30 2988 C 271.915 -5.23564 0.526074 0
M  V30 2989 O 270.941 -5.56678 1.18735 0
M  V30 2990 N 272.143 -5.76266 -0.699866 0
M  V30 2991 H 274.908 -2.47159 1.69506 0
M  V30 2992 H 272.469 -1.24747 1.03198 0
M  V30 2993 H 274.461 -4.03626 -0.29459 0
M  V30 2994 H 273.031 -3.04938 -0.687849 0
M  V30 2995 H 272.251 -3.53199 1.75055 0
M  V30 2996 H 273.539 -4.74709 1.83109 0
M  V30 2997 H 272.937 -5.51585 -1.25581 0
M  V30 2998 H 271.494 -6.42963 -1.06968 0
M  V30 2999 N 274.927 -0.932562 -1.27047 0
M  V30 3000 C 275.874 -0.434072 -2.26681 0
M  V30 3001 C 276.844 0.501639 -1.58344 0
M  V30 3002 O 278.029 0.419734 -1.86126 0
M  V30 3003 C 275.169 0.30261 -3.43771 0
M  V30 3004 C 274.282 -0.667774 -4.26808 0
M  V30 3005 C 273.417 0.0892393 -5.31125 0
M  V30 3006 C 272.456 -0.873532 -6.05835 0
M  V30 3007 N 271.593 -0.148832 -7.01942 0
M  V30 3008 H 276.433 -1.28868 -2.68695 0
M  V30 3009 H 273.97 -0.646713 -1.32121 0
M  V30 3010 H 275.928 0.746092 -4.10474 0
M  V30 3011 H 274.558 1.12142 -3.02695 0
M  V30 3012 H 273.61 -1.22978 -3.59973 0
M  V30 3013 H 274.922 -1.40337 -4.78651 0
M  V30 3014 H 274.076 0.592409 -6.03801 0
M  V30 3015 H 272.815 0.85777 -4.80097 0
M  V30 3016 H 271.82 -1.38791 -5.31994 0
M  V30 3017 H 273.045 -1.64193 -6.58952 0
M  V30 3018 H 270.991 0.601365 -6.53238 0
M  V30 3019 H 270.908 -0.82391 -7.51497 0
M  V30 3020 H 272.176 0.333527 -7.78786 0
M  V30 3021 N 276.405 1.4127 -0.698611 0
M  V30 3022 C 277.816 1.84187 -0.305289 0
M  V30 3023 C 278.167 1.58449 1.15708 0
M  V30 3024 O 277.292 1.05651 1.88856 0
M  V30 3025 C 277.887 3.3435 -0.547314 0
M  V30 3026 C 276.446 3.75826 -0.207878 0
M  V30 3027 C 275.593 2.64647 -0.828099 0
M  V30 3028 H 278.544 1.30778 -0.89904 0
M  V30 3029 H 278.565 3.8001 0.192998 0
M  V30 3030 H 278.077 3.53051 -1.61172 0
M  V30 3031 H 276.178 3.62725 0.852143 0
M  V30 3032 H 276.291 4.74462 -0.665021 0
M  V30 3033 H 274.655 2.53395 -0.257458 0
M  V30 3034 H 275.438 2.86165 -1.89643 0
M  V30 3035 N 277.883 0.443576 1.51229 0
M  V30 3036 C 279.131 -0.120557 2.0174 0
M  V30 3037 C 279.452 -1.42665 1.32935 0
M  V30 3038 O 278.722 -1.9028 0.465866 0
M  V30 3039 H 277.302 -0.0475426 0.745486 0
M  V30 3040 H 279.964 0.587711 1.85828 0
M  V30 3041 H 279.06 -0.291972 3.10731 0
M  V30 3042 N 279.361 -1.56624 0.175154 0
M  V30 3043 C 280.607 -1.9729 -0.469506 0
M  V30 3044 C 280.94 -1.06128 -1.62636 0
M  V30 3045 O 280.215 -0.109183 -1.94193 0
M  V30 3046 C 280.498 -3.47375 -0.948804 0
M  V30 3047 C 280.351 -4.49317 0.208491 0
M  V30 3048 C 281.67 -4.00652 -1.82116 0
M  V30 3049 H 278.789 -0.717317 -0.16919 0
M  V30 3050 H 281.431 -1.88184 0.262062 0
M  V30 3051 H 279.581 -3.55267 -1.57219 0
M  V30 3052 H 281.253 -4.53482 0.845682 0
M  V30 3053 H 279.496 -4.25121 0.863395 0
M  V30 3054 H 280.167 -5.51741 -0.169059 0
M  V30 3055 H 282.643 -3.95416 -1.2956 0
M  V30 3056 H 281.519 -5.06075 -2.12554 0
M  V30 3057 H 281.78 -3.44699 -2.7683 0
M  V30 3058 N 280.839 0.0985539 -1.57292 0
M  V30 3059 C 282.087 0.801092 -1.85545 0
M  V30 3060 C 282.408 1.79438 -0.763353 0
M  V30 3061 O 281.678 1.94763 0.21073 0
M  V30 3062 H 280.258 0.29884 -0.684619 0
M  V30 3063 H 282.92 0.0810064 -1.94732 0
M  V30 3064 H 282.016 1.3338 -2.82163 0
M  V30 3065 N 282.317 1.53212 0.369288 0
M  V30 3066 C 283.247 1.82365 1.45826 0
M  V30 3067 C 284.228 0.676907 1.56051 0
M  V30 3068 O 285.413 0.926401 1.70679 0
M  V30 3069 C 282.543 2.01023 2.83208 0
M  V30 3070 C 281.497 3.1678 2.8781 0
M  V30 3071 C 280.823 3.20724 4.27832 0
M  V30 3072 C 282.123 4.55447 2.55667 0
M  V30 3073 H 283.817 2.73559 1.21678 0
M  V30 3074 H 281.363 1.3163 0.583911 0
M  V30 3075 H 283.316 2.20001 3.59413 0
M  V30 3076 H 282.04 1.06536 3.08736 0
M  V30 3077 H 280.699 2.97616 2.14056 0
M  V30 3078 H 280.347 2.23882 4.50429 0
M  V30 3079 H 280.047 3.98496 4.31827 0
M  V30 3080 H 281.571 3.41881 5.05915 0
M  V30 3081 H 282.985 4.74611 3.21586 0
M  V30 3082 H 281.382 5.35432 2.70984 0
M  V30 3083 H 282.452 4.60812 1.5093 0
M  V30 3084 N 283.795 -0.628877 1.44509 0
M  V30 3085 C 285.072 -1.38733 1.37886 0
M  V30 3086 C 285.452 -2.11065 0.0387008 0
M  V30 3087 O 284.8 -2.06476 -0.97878 0
M  V30 3088 C 285.01 -2.35188 2.57852 0
M  V30 3089 C 286.358 -2.9845 3.02014 0
M  V30 3090 O 287.382 -2.45513 2.58073 0
M  V30 3091 O 286.241 -3.94487 3.78209 0
M  V30 3092 H 283.335 -0.621015 0.54614 0
M  V30 3093 H 285.881 -0.653744 1.56602 0
M  V30 3094 H 284.653 -1.80855 3.46998 0
M  V30 3095 H 284.276 -3.1596 2.4136 0
M  V30 3096 N 285.273 -1.31445 -0.869486 0
M  V30 3097 C 286.236 -1.19094 -1.9583 0
M  V30 3098 C 287.236 -0.117906 -1.60367 0
M  V30 3099 O 288.426 -0.367208 -1.70286 0
M  V30 3100 C 285.558 -0.828165 -3.30688 0
M  V30 3101 H 286.751 -2.15842 -2.08212 0
M  V30 3102 H 284.304 -1.15063 -1.05784 0
M  V30 3103 H 285.039 0.138142 -3.24006 0
M  V30 3104 H 284.824 -1.6038 -3.578 0
M  V30 3105 H 286.314 -0.765658 -4.10521 0
M  V30 3106 N 286.751 1.08385 -1.14413 0
M  V30 3107 C 288 1.80153 -0.907076 0
M  V30 3108 C 288.313 1.87176 0.567851 0
M  V30 3109 O 289.519 2.55359 0.922172 0
M  V30 3110 C 287.975 3.23687 -1.57336 0
M  V30 3111 C 287.583 3.24897 -3.08457 0
M  V30 3112 C 289.327 4.00136 -1.41744 0
M  V30 3113 C 287.234 4.6302 -3.67921 0
M  V30 3114 H 286.164 0.675139 -0.335714 0
M  V30 3115 H 288.815 1.21733 -1.37307 0
M  V30 3116 H 287.197 3.82234 -1.03505 0
M  V30 3117 H 288.371 2.76055 -3.68958 0
M  V30 3118 H 286.686 2.61943 -3.2369 0
M  V30 3119 H 289.283 5.02201 -1.83572 0
M  V30 3120 H 289.626 4.14709 -0.363576 0
M  V30 3121 H 290.159 3.48058 -1.92614 0
M  V30 3122 H 286.898 4.5365 -4.73161 0
M  V30 3123 H 286.418 5.12143 -3.12201 0
M  V30 3124 H 288.097 5.31994 -3.68227 0
M  V30 3125 N 288.23 0.939286 1.26551 0
M  V30 3126 C 289.178 0.43815 2.28436 0
M  V30 3127 C 290.172 -0.483587 1.62351 0
M  V30 3128 O 291.378 -0.362009 1.76322 0
M  V30 3129 H 287.753 0.123149 0.741848 0
M  V30 3130 H 289.724 1.31002 2.68106 0
M  V30 3131 C 288.473 -0.283052 3.46546 0
M  V30 3132 H 287.796 0.417043 3.97619 0
M  V30 3133 H 289.236 -0.597948 4.19763 0
M  V30 3134 C 287.695 -1.50018 3.01656 0
M  V30 3135 O 288.225 -2.59855 3.0633 0
M  V30 3136 N 286.431 -1.35608 2.57019 0
M  V30 3137 H 285.978 -0.46244 2.53415 0
M  V30 3138 H 285.936 -2.17165 2.27347 0
M  V30 3139 N 289.708 -1.40897 0.706093 0
M  V30 3140 C 290.985 -1.94868 0.169099 0
M  V30 3141 C 291.365 -1.64485 -1.32318 0
M  V30 3142 O 290.713 -0.95744 -2.07474 0
M  V30 3143 C 290.923 -3.45798 0.471654 0
M  V30 3144 C 292.271 -4.22663 0.405127 0
M  V30 3145 O 293.295 -3.53865 0.407168 0
M  V30 3146 O 292.154 -5.45216 0.374383 0
M  V30 3147 H 289.248 -0.82673 0.0211352 0
M  V30 3148 H 291.794 -1.50558 0.782976 0
M  V30 3149 H 290.566 -3.61235 1.50416 0
M  V30 3150 H 290.189 -3.97225 -0.172666 0
M  V30 3151 N 291.186 -0.45159 -1.50991 0
M  V30 3152 C 292.149 0.341117 -2.26647 0
M  V30 3153 C 293.149 0.937422 -1.30649 0
M  V30 3154 O 294.339 0.809644 -1.54241 0
M  V30 3155 C 291.471 1.48398 -3.06905 0
M  V30 3156 H 292.664 -0.322117 -2.98165 0
M  V30 3157 H 290.217 -0.205122 -1.54948 0
M  V30 3158 H 290.952 2.18284 -2.39838 0
M  V30 3159 H 290.737 1.06241 -3.77432 0
M  V30 3160 H 292.227 2.04367 -3.64176 0
M  V30 3161 N 292.664 1.56529 -0.183458 0
M  V30 3162 C 293.612 2.19873 0.758845 0
M  V30 3163 C 294.606 1.16638 1.22849 0
M  V30 3164 O 295.812 1.3481 1.19274 0
M  V30 3165 H 292.187 0.7045 0.263029 0
M  V30 3166 H 294.158 2.97724 0.200755 0
M  V30 3167 C 292.907 2.86314 1.9728 0
M  V30 3168 H 292.23 3.65487 1.62047 0
M  V30 3169 H 293.67 3.3409 2.61075 0
M  V30 3170 C 292.129 1.86729 2.80418 0
M  V30 3171 O 292.659 1.36031 3.77966 0
M  V30 3172 N 290.865 1.55216 2.45675 0
M  V30 3173 H 290.412 1.96636 1.66409 0
M  V30 3174 H 290.37 0.888388 3.01588 0
M  V30 3175 N 294.142 -0.090211 1.57342 0
M  V30 3176 C 295.072 -1.10976 2.05443 0
M  V30 3177 C 296.053 -1.41482 0.944284 0
M  V30 3178 O 297.238 -1.51428 1.21586 0
M  V30 3179 C 294.368 -2.42831 2.48295 0
M  V30 3180 C 293.322 -2.26721 3.63018 0
M  V30 3181 C 292.648 -3.63796 3.91863 0
M  V30 3182 C 293.948 -1.7037 4.93732 0
M  V30 3183 H 295.642 -0.709564 2.9087 0
M  V30 3184 H 293.188 -0.339874 1.39932 0
M  V30 3185 H 295.141 -3.14431 2.80555 0
M  V30 3186 H 293.865 -2.84795 1.59873 0
M  V30 3187 H 292.524 -1.57565 3.31012 0
M  V30 3188 H 292.172 -4.03297 3.00601 0
M  V30 3189 H 291.872 -3.53861 4.69101 0
M  V30 3190 H 293.396 -4.36855 4.26603 0
M  V30 3191 H 294.81 -2.31816 5.24342 0
M  V30 3192 H 293.207 -1.71181 5.75167 0
M  V30 3193 H 294.277 -0.663542 4.80339 0
M  V30 3194 N 295.62 -1.53406 -0.361157 0
M  V30 3195 C 296.55 -1.83136 -1.44857 0
M  V30 3196 C 297.531 -0.685174 -1.5569 0
M  V30 3197 O 298.716 -0.93544 -1.70186 0
M  V30 3198 C 295.846 -2.02522 -2.82138 0
M  V30 3199 C 294.8 -3.18302 -2.86126 0
M  V30 3200 C 294.126 -3.22989 -4.26125 0
M  V30 3201 C 295.426 -4.56796 -2.53248 0
M  V30 3202 H 297.12 -2.74201 -1.20226 0
M  V30 3203 H 294.666 -1.31938 -0.576922 0
M  V30 3204 H 296.619 -2.21904 -3.58241 0
M  V30 3205 H 295.343 -1.08172 -3.08166 0
M  V30 3206 H 294.002 -2.98747 -2.12475 0
M  V30 3207 H 293.65 -2.26267 -4.49235 0
M  V30 3208 H 293.35 -4.00781 -4.29708 0
M  V30 3209 H 294.874 -3.44559 -5.04094 0
M  V30 3210 H 296.288 -4.7631 -3.19064 0
M  V30 3211 H 294.685 -5.36862 -2.68141 0
M  V30 3212 H 295.755 -4.61606 -1.48484 0
M  V30 3213 N 297.098 0.621204 -1.44841 0
M  V30 3214 C 298.008 1.7612 -1.5498 0
M  V30 3215 C 299.024 1.68477 -0.434927 0
M  V30 3216 O 300.2 1.89076 -0.693693 0
M  V30 3217 C 297.265 3.1254 -1.50065 0
M  V30 3218 C 296.326 3.31741 -2.72482 0
M  V30 3219 C 295.559 4.61653 -2.67792 0
M  V30 3220 O 295.782 5.431 -1.74352 0
M  V30 3221 O 294.716 4.83271 -3.58794 0
M  V30 3222 H 298.542 1.70518 -2.51311 0
M  V30 3223 H 296.127 0.783643 -1.27198 0
M  V30 3224 H 298.009 3.93844 -1.49882 0
M  V30 3225 H 296.684 3.18663 -0.568806 0
M  V30 3226 H 295.591 2.50077 -2.7823 0
M  V30 3227 H 296.924 3.30486 -3.64746 0
M  V30 3228 N 298.576 1.31904 0.862503 0
M  V30 3229 C 299.539 1.20131 1.95195 0
M  V30 3230 C 300.539 0.126409 1.60302 0
M  V30 3231 O 301.729 0.376234 1.70089 0
M  V30 3232 C 298.861 0.845691 3.30244 0
M  V30 3233 H 300.054 2.16943 2.07064 0
M  V30 3234 H 297.607 1.15622 1.05172 0
M  V30 3235 H 298.342 -0.120957 3.24074 0
M  V30 3236 H 298.127 1.62276 3.56944 0
M  V30 3237 H 299.617 0.787418 4.10109 0
M  V30 3238 N 300.054 -1.07777 1.14986 0
M  V30 3239 C 301.294 -1.81888 0.932527 0
M  V30 3240 C 301.658 -1.84509 -0.531064 0
M  V30 3241 O 302.859 -2.54448 -0.866577 0
M  V30 3242 C 301.13 -3.23244 1.52473 0
M  V30 3243 S 302.689 -4.14154 1.44989 0
M  V30 3244 H 299.507 -0.626752 0.335712 0
M  V30 3245 H 302.109 -1.29503 1.46455 0
M  V30 3246 H 300.813 -3.18922 2.58296 0
M  V30 3247 H 300.344 -3.80704 0.991381 0
M  V30 3248 H 302.359 -4.94247 0.439799 0
M  V30 3249 N 301.532 -0.945985 -1.26051 0
M  V30 3250 C 302.781 -0.591836 -1.92822 0
M  V30 3251 C 303.094 0.873956 -1.7499 0
M  V30 3252 O 304.3 1.33769 -2.36259 0
M  V30 3253 C 302.756 -1.00776 -3.45503 0
M  V30 3254 C 302.364 -2.4955 -3.7206 0
M  V30 3255 C 304.108 -0.725735 -4.1825 0
M  V30 3256 C 302.015 -2.84988 -5.18205 0
M  V30 3257 H 300.945 -0.217635 -0.721908 0
M  V30 3258 H 303.596 -1.14927 -1.43052 0
M  V30 3259 H 301.978 -0.378812 -3.94184 0
M  V30 3260 H 303.152 -3.1739 -3.34066 0
M  V30 3261 H 301.467 -2.75133 -3.12555 0
M  V30 3262 H 304.064 -0.966771 -5.25887 0
M  V30 3263 H 304.407 0.337639 -4.14929 0
M  V30 3264 H 304.94 -1.31463 -3.7545 0
M  V30 3265 H 301.679 -3.90307 -5.26631 0
M  V30 3266 H 301.199 -2.21813 -5.57278 0
M  V30 3267 H 302.878 -2.73712 -5.86252 0
M  V30 3268 N 303.011 1.40521 -0.713556 0
M  V30 3269 C 304.241 2.0494 -0.261395 0
M  V30 3270 C 304.649 1.53861 1.10107 0
M  V30 3271 O 303.992 0.689321 1.70276 0
M  V30 3272 C 304.054 3.59138 -0.161227 0
M  V30 3273 C 303.718 4.33096 -1.45865 0
M  V30 3274 C 304.715 4.61182 -2.40016 0
M  V30 3275 C 302.4 4.72043 -1.71701 0
M  V30 3276 C 304.394 5.27196 -3.58251 0
M  V30 3277 C 302.081 5.37789 -2.90218 0
M  V30 3278 C 303.079 5.65295 -3.83315 0
M  V30 3279 O 302.767 6.29683 -4.99754 0
M  V30 3280 H 302.499 0.666041 -0.115608 0
M  V30 3281 H 305.053 1.80954 -0.971849 0
M  V30 3282 H 303.283 3.81936 0.605153 0
M  V30 3283 H 304.972 4.05091 0.256105 0
M  V30 3284 H 305.738 4.31559 -2.21318 0
M  V30 3285 H 301.617 4.50003 -1.00092 0
M  V30 3286 H 305.161 5.48582 -4.30934 0
M  V30 3287 H 301.058 5.66831 -3.08825 0
M  V30 3288 H 301.826 6.4818 -4.99805 0
M  V30 3289 N 304.489 0.459591 1.5075 0
M  V30 3290 C 305.905 0.113092 1.59199 0
M  V30 3291 C 306.105 -1.37951 1.46874 0
M  V30 3292 O 305.161 -2.15168 1.32132 0
M  V30 3293 C 306.474 0.653043 2.93523 0
M  V30 3294 C 308.022 0.615449 3.0689 0
M  V30 3295 C 308.497 1.13275 4.43771 0
M  V30 3296 N 309.988 1.09167 4.50152 0
M  V30 3297 C 310.723 1.46256 5.54434 0
M  V30 3298 N 310.219 1.90739 6.66026 0
M  V30 3299 N 312.012 1.37932 5.44914 0
M  V30 3300 H 304.163 1.43049 1.57005 0
M  V30 3301 H 306.426 0.590861 0.741341 0
M  V30 3302 H 306.132 1.69822 3.07983 0
M  V30 3303 H 306.006 0.0902132 3.77092 0
M  V30 3304 H 308.393 -0.420793 2.92084 0
M  V30 3305 H 308.474 1.21495 2.25106 0
M  V30 3306 H 308.118 2.16757 4.59324 0
M  V30 3307 H 308.048 0.509576 5.24129 0
M  V30 3308 H 310.539 0.76528 3.7007 0
M  V30 3309 H 310.852 2.17218 7.41644 0
M  V30 3310 H 309.197 1.94683 6.67176 0
M  V30 3311 H 312.388 1.0303 4.56621 0
M  V30 3312 H 312.561 1.67164 6.26067 0
M  V30 3313 N 305.967 -1.56429 0.191757 0
M  V30 3314 C 306.897 -2.21937 -0.725696 0
M  V30 3315 C 307.878 -1.1814 -1.2238 0
M  V30 3316 O 309.063 -1.46636 -1.27325 0
M  V30 3317 C 306.193 -2.87611 -1.94672 0
M  V30 3318 C 305.147 -3.97623 -1.58366 0
M  V30 3319 C 304.473 -4.50446 -2.88102 0
M  V30 3320 C 305.773 -5.16197 -0.796133 0
M  V30 3321 H 307.467 -2.98861 -0.179606 0
M  V30 3322 H 305.013 -1.43749 -0.0849464 0
M  V30 3323 H 306.966 -3.3212 -2.59373 0
M  V30 3324 H 305.69 -2.08087 -2.51728 0
M  V30 3325 H 304.349 -3.53801 -0.960247 0
M  V30 3326 H 303.997 -3.67688 -3.43241 0
M  V30 3327 H 303.697 -5.24675 -2.64556 0
M  V30 3328 H 305.221 -4.97654 -3.53798 0
M  V30 3329 H 306.635 -5.57271 -1.34618 0
M  V30 3330 H 305.032 -5.96471 -0.658928 0
M  V30 3331 H 306.102 -4.84473 0.203478 0
M  V30 3332 N 307.445 0.0818655 -1.57387 0
M  V30 3333 C 308.375 1.09885 -2.06028 0
M  V30 3334 C 309.356 1.4098 -0.951774 0
M  V30 3335 O 310.541 1.50781 -1.22387 0
M  V30 3336 C 307.671 2.4151 -2.4958 0
M  V30 3337 C 306.625 2.24792 -3.64215 0
M  V30 3338 C 305.951 3.61712 -3.93787 0
M  V30 3339 C 307.251 1.67749 -4.94629 0
M  V30 3340 H 308.945 0.694128 -2.91243 0
M  V30 3341 H 306.491 0.332448 -1.4011 0
M  V30 3342 H 308.444 3.12939 -2.82219 0
M  V30 3343 H 307.168 2.83943 -1.61381 0
M  V30 3344 H 305.827 1.55807 -3.31843 0
M  V30 3345 H 305.475 4.01697 -3.02735 0
M  V30 3346 H 305.175 3.51368 -4.70971 0
M  V30 3347 H 306.699 4.34587 -4.28913 0
M  V30 3348 H 308.113 2.29032 -5.25564 0
M  V30 3349 H 306.51 1.68128 -5.76067 0
M  V30 3350 H 307.58 0.638059 -4.80684 0
M  V30 3351 N 308.923 1.53595 0.353017 0
M  V30 3352 C 309.87 1.80919 1.43308 0
M  V30 3353 C 310.84 0.654288 1.5267 0
M  V30 3354 O 312.025 0.897759 1.6836 0
M  V30 3355 C 309.165 2.01605 2.80089 0
M  V30 3356 C 308.278 3.29321 2.79593 0
M  V30 3357 C 307.413 3.40125 4.0803 0
M  V30 3358 C 306.452 4.61826 4.01725 0
M  V30 3359 N 305.589 4.69716 5.21834 0
M  V30 3360 H 310.429 2.73074 1.19308 0
M  V30 3361 H 307.966 1.35263 0.578131 0
M  V30 3362 H 309.924 2.11586 3.59565 0
M  V30 3363 H 308.554 1.12772 3.0246 0
M  V30 3364 H 307.606 3.28229 1.92276 0
M  V30 3365 H 308.918 4.18884 2.70809 0
M  V30 3366 H 308.072 3.49488 4.95927 0
M  V30 3367 H 306.811 2.48601 4.19582 0
M  V30 3368 H 305.816 4.52552 3.12213 0
M  V30 3369 H 307.041 5.54705 3.91764 0
M  V30 3370 H 304.987 3.81097 5.33948 0
M  V30 3371 H 304.904 5.53202 5.1527 0
M  V30 3372 H 306.172 4.83376 6.11529 0
M  V30 3373 N 310.401 -0.613514 1.45168 0
M  V30 3374 C 311.331 -1.7354 1.56225 0
M  V30 3375 C 312.312 -1.64981 0.41414 0
M  V30 3376 O 313.497 -1.83472 0.636526 0
M  V30 3377 C 310.627 -3.12128 1.52295 0
M  V30 3378 C 309.581 -3.35491 2.65762 0
M  V30 3379 C 308.907 -4.74291 2.46885 0
M  V30 3380 C 310.207 -3.26325 4.0781 0
M  V30 3381 H 311.901 -1.64543 2.50132 0
M  V30 3382 H 309.447 -0.790185 1.20383 0
M  V30 3383 H 311.4 -3.90404 1.58628 0
M  V30 3384 H 310.124 -3.2195 0.549139 0
M  V30 3385 H 308.783 -2.59603 2.58847 0
M  V30 3386 H 308.431 -4.80839 1.47657 0
M  V30 3387 H 308.131 -4.9088 3.22972 0
M  V30 3388 H 309.655 -5.54775 2.55063 0
M  V30 3389 H 311.069 -3.94483 4.16 0
M  V30 3390 H 309.466 -3.54445 4.8424 0
M  V30 3391 H 310.536 -2.23855 4.30136 0
M  V30 3392 N 311.879 -1.3236 -0.855495 0
M  V30 3393 C 313.109 -1.25688 -1.6397 0
M  V30 3394 C 313.517 0.177592 -1.88365 0
M  V30 3395 O 312.86 1.12485 -1.45234 0
M  V30 3396 C 312.922 -1.94602 -3.02275 0
M  V30 3397 C 312.586 -3.43937 -3.00926 0
M  V30 3398 C 313.583 -4.39435 -2.77835 0
M  V30 3399 C 311.268 -3.85858 -3.21588 0
M  V30 3400 C 313.262 -5.74829 -2.75409 0
M  V30 3401 C 310.949 -5.21361 -3.18789 0
M  V30 3402 C 311.947 -6.15658 -2.95727 0
M  V30 3403 O 311.635 -7.48681 -2.928 0
M  V30 3404 H 311.367 -0.434972 -0.51747 0
M  V30 3405 H 313.921 -1.75023 -1.075 0
M  V30 3406 H 312.151 -1.39836 -3.60531 0
M  V30 3407 H 313.84 -1.81651 -3.62985 0
M  V30 3408 H 314.606 -4.08374 -2.6164 0
M  V30 3409 H 310.485 -3.12883 -3.38564 0
M  V30 3410 H 314.029 -6.48404 -2.57328 0
M  V30 3411 H 309.926 -5.52052 -3.34528 0
M  V30 3412 H 310.694 -7.5803 -3.0876 0
M  V30 3413 N 313.357 1.07166 -1.15556 0
M  V30 3414 C 314.597 1.81391 -0.94216 0
M  V30 3415 C 314.961 1.84788 0.521272 0
M  V30 3416 O 316.162 2.54904 0.85307 0
M  V30 3417 C 314.433 3.22431 -1.54185 0
M  V30 3418 S 315.992 4.13379 -1.47183 0
M  V30 3419 H 312.81 0.624963 -0.339031 0
M  V30 3420 H 315.412 1.28725 -1.4714 0
M  V30 3421 H 314.116 3.17548 -2.59984 0
M  V30 3422 H 313.647 3.80172 -1.01156 0
M  V30 3423 H 315.662 4.94007 -0.466004 0
M  V30 3424 N 314.835 0.952656 1.25548 0
M  V30 3425 C 316.251 0.656769 1.4546 0
M  V30 3426 C 316.451 -0.78633 1.85524 0
M  V30 3427 O 315.507 -1.56183 1.98402 0
M  V30 3428 C 316.82 1.62801 2.52817 0
M  V30 3429 C 318.368 1.63897 2.66659 0
M  V30 3430 C 318.843 2.5978 3.77198 0
M  V30 3431 N 320.334 2.58133 3.84606 0
M  V30 3432 C 321.069 3.29003 4.69621 0
M  V30 3433 N 320.565 4.09339 5.58939 0
M  V30 3434 N 322.358 3.179 4.63569 0
M  V30 3435 H 314.509 1.88526 0.978344 0
M  V30 3436 H 316.772 0.810815 0.491206 0
M  V30 3437 H 316.478 2.65869 2.30232 0
M  V30 3438 H 316.352 1.38898 3.50695 0
M  V30 3439 H 318.739 0.615481 2.8861 0
M  V30 3440 H 318.82 1.91858 1.69187 0
M  V30 3441 H 318.464 3.62254 3.55997 0
M  V30 3442 H 318.394 2.29105 4.7415 0
M  V30 3443 H 320.885 1.99809 3.20757 0
M  V30 3444 H 321.198 4.6034 6.20731 0
M  V30 3445 H 319.543 4.13438 5.58654 0
M  V30 3446 H 322.734 2.54612 3.92798 0
M  V30 3447 H 322.907 3.73398 5.29602 0
M  V30 3448 N 316.313 -1.40141 0.720998 0
M  V30 3449 C 317.223 -2.34486 0.0731031 0
M  V30 3450 C 318.239 -1.57587 -0.737723 0
M  V30 3451 O 319.415 -1.89949 -0.669429 0
M  V30 3452 C 316.48 -3.36528 -0.833656 0
M  V30 3453 C 315.541 -4.29298 -0.0121673 0
M  V30 3454 C 314.774 -5.26466 -0.875742 0
M  V30 3455 O 314.997 -5.29745 -2.11485 0
M  V30 3456 O 313.931 -6.01092 -0.31185 0
M  V30 3457 H 317.757 -2.9152 0.851444 0
M  V30 3458 H 315.342 -1.41427 0.481527 0
M  V30 3459 H 317.224 -3.99093 -1.35289 0
M  V30 3460 H 315.899 -2.81899 -1.59105 0
M  V30 3461 H 314.806 -3.70001 0.552262 0
M  V30 3462 H 316.139 -4.87094 0.707129 0
M  V30 3463 N 317.792 -0.46758 -1.50504 0
M  V30 3464 C 318.724 0.364655 -2.26281 0
M  V30 3465 C 319.737 0.960151 -1.31472 0
M  V30 3466 O 320.926 0.849153 -1.57008 0
M  V30 3467 C 318.026 1.52509 -3.02645 0
M  V30 3468 C 317.199 1.04302 -4.24782 0
M  V30 3469 C 316.258 2.07709 -4.8347 0
M  V30 3470 O 315.284 1.65913 -5.44483 0
M  V30 3471 N 316.486 3.40485 -4.70159 0
M  V30 3472 H 319.251 -0.28495 -2.98342 0
M  V30 3473 H 316.812 -0.298163 -1.59131 0
M  V30 3474 H 318.804 2.21371 -3.38787 0
M  V30 3475 H 317.374 2.07945 -2.33404 0
M  V30 3476 H 316.594 0.180393 -3.93787 0
M  V30 3477 H 317.882 0.698798 -5.03978 0
M  V30 3478 H 317.28 3.77155 -4.21629 0
M  V30 3479 H 315.837 4.05156 -5.1058 0
M  V30 3480 N 319.27 1.56325 -0.20005 0
M  V30 3481 C 320.681 1.8408 0.31167 0
M  V30 3482 C 321.032 1.12087 1.61031 0
M  V30 3483 O 320.157 0.38332 2.12978 0
M  V30 3484 C 320.752 3.33932 0.57226 0
M  V30 3485 C 319.311 3.6208 1.02834 0
M  V30 3486 C 318.458 2.77186 0.079634 0
M  V30 3487 H 321.409 1.52939 -0.423729 0
M  V30 3488 H 321.43 3.52971 1.42096 0
M  V30 3489 H 320.942 3.86303 -0.37308 0
M  V30 3490 H 319.043 3.15147 1.98778 0
M  V30 3491 H 319.156 4.7023 0.917624 0
M  V30 3492 H 317.52 2.47951 0.582448 0
M  V30 3493 H 318.303 3.32347 -0.860238 0
M  V30 3494 N 320.748 -0.0735177 1.57428 0
M  V30 3495 C 321.978 -0.78483 1.91112 0
M  V30 3496 C 322.386 -1.71729 0.7941 0
M  V30 3497 O 321.729 -1.82105 -0.241542 0
M  V30 3498 C 321.791 -1.63346 3.20247 0
M  V30 3499 C 321.455 -0.870557 4.48632 0
M  V30 3500 C 322.452 -0.19058 5.19551 0
M  V30 3501 C 320.137 -0.838242 4.95256 0
M  V30 3502 C 322.131 0.511503 6.35344 0
M  V30 3503 C 319.818 -0.132386 6.10957 0
M  V30 3504 C 320.816 0.541288 6.80852 0
M  V30 3505 O 320.504 1.23578 7.94345 0
M  V30 3506 H 320.236 -0.228408 0.636244 0
M  V30 3507 H 322.79 -0.0486039 2.05342 0
M  V30 3508 H 321.02 -2.41245 3.02222 0
M  V30 3509 H 322.709 -2.22329 3.39595 0
M  V30 3510 H 323.475 -0.206864 4.84559 0
M  V30 3511 H 319.354 -1.35206 4.40727 0
M  V30 3512 H 322.898 1.03789 6.89836 0
M  V30 3513 H 318.795 -0.114023 6.45399 0
M  V30 3514 H 319.563 1.14487 8.10454 0
M  V30 3515 N 322.226 -1.5378 -0.344866 0
M  V30 3516 C 323.456 -1.74646 -1.10374 0
M  V30 3517 C 323.864 -0.48491 -1.8288 0
M  V30 3518 O 323.207 0.553062 -1.75177 0
M  V30 3519 C 323.269 -2.87145 -2.16306 0
M  V30 3520 C 322.933 -4.26795 -1.63386 0
M  V30 3521 C 323.93 -5.08412 -1.08688 0
M  V30 3522 C 321.615 -4.73276 -1.68272 0
M  V30 3523 C 323.609 -6.34609 -0.595792 0
M  V30 3524 C 321.296 -5.99446 -1.18776 0
M  V30 3525 C 322.294 -6.79946 -0.645215 0
M  V30 3526 O 321.982 -8.03745 -0.157626 0
M  V30 3527 H 321.714 -0.587112 -0.335075 0
M  V30 3528 H 324.268 -2.01403 -0.403252 0
M  V30 3529 H 322.498 -2.55909 -2.89909 0
M  V30 3530 H 324.187 -2.95992 -2.77747 0
M  V30 3531 H 324.953 -4.73666 -1.04236 0
M  V30 3532 H 320.832 -4.10677 -2.09442 0
M  V30 3533 H 324.376 -6.97389 -0.171654 0
M  V30 3534 H 320.273 -6.33687 -1.22928 0
M  V30 3535 H 321.041 -8.18038 -0.275037 0
M  V30 3536 N 323.704 0.605807 -1.45491 0
M  V30 3537 C 324.634 1.72709 -1.57143 0
M  V30 3538 C 325.615 1.6476 -0.422884 0
M  V30 3539 O 326.8 1.83132 -0.646247 0
M  V30 3540 C 323.93 3.11316 -1.53948 0
M  V30 3541 C 322.884 3.34077 -2.67537 0
M  V30 3542 C 322.21 4.72975 -2.49397 0
M  V30 3543 C 323.51 3.24158 -4.09535 0
M  V30 3544 H 325.204 1.63214 -2.51001 0
M  V30 3545 H 322.75 0.78379 -1.208 0
M  V30 3546 H 324.703 3.89557 -1.60696 0
M  V30 3547 H 323.427 3.21655 -0.566205 0
M  V30 3548 H 322.086 2.58227 -2.6022 0
M  V30 3549 H 321.734 4.8005 -1.50205 0
M  V30 3550 H 321.434 4.8916 -3.25571 0
M  V30 3551 H 322.958 5.53414 -2.58002 0
M  V30 3552 H 324.372 3.92271 -4.18086 0
M  V30 3553 H 322.769 3.51872 -4.86113 0
M  V30 3554 H 323.839 2.2157 -4.31317 0
M  V30 3555 N 325.182 1.32811 0.848464 0
M  V30 3556 C 326.13 1.22231 1.97895 0
M  V30 3557 C 327.124 0.125749 1.68933 0
M  V30 3558 O 328.33 0.289083 1.77663 0
M  V30 3559 H 324.705 0.379058 0.649476 0
M  V30 3560 H 326.676 2.17828 2.03945 0
M  V30 3561 C 325.425 0.968572 3.33937 0
M  V30 3562 H 324.748 1.80458 3.56756 0
M  V30 3563 H 326.188 0.934808 4.13567 0
M  V30 3564 C 324.647 -0.328628 3.35293 0
M  V30 3565 O 325.177 -1.33848 3.78745 0
M  V30 3566 N 323.383 -0.352788 2.88451 0
M  V30 3567 H 322.93 0.469541 2.53285 0
M  V30 3568 H 322.888 -1.22057 2.89741 0
M  V30 3569 N 326.66 -1.06551 1.16123 0
M  V30 3570 C 327.59 -2.15935 0.88851 0
M  V30 3571 C 328.571 -1.69306 -0.164135 0
M  V30 3572 O 329.756 -1.94193 -0.0167857 0
M  V30 3573 C 326.886 -3.45149 0.385942 0
M  V30 3574 C 325.84 -4.05271 1.3762 0
M  V30 3575 C 325.166 -5.29664 0.732137 0
M  V30 3576 C 326.466 -4.44355 2.74493 0
M  V30 3577 H 328.16 -2.39006 1.80323 0
M  V30 3578 H 325.706 -1.14866 0.868435 0
M  V30 3579 H 327.659 -4.21004 0.182647 0
M  V30 3580 H 326.383 -3.21689 -0.564274 0
M  V30 3581 H 325.042 -3.3147 1.56599 0
M  V30 3582 H 324.69 -5.02499 -0.224483 0
M  V30 3583 H 324.39 -5.70848 1.39307 0
M  V30 3584 H 325.914 -6.08218 0.538802 0
M  V30 3585 H 327.328 -5.11303 2.59311 0
M  V30 3586 H 325.725 -4.96515 3.37035 0
M  V30 3587 H 326.795 -3.55339 3.29943 0
M  V30 3588 N 328.138 -0.959301 -1.25041 0
M  V30 3589 C 329.387 -0.612254 -1.92183 0
M  V30 3590 C 329.7 0.855347 -1.75907 0
M  V30 3591 O 330.906 1.31256 -2.37664 0
M  V30 3592 C 329.362 -1.04435 -3.44414 0
M  V30 3593 C 328.97 -2.53482 -3.69393 0
M  V30 3594 C 330.714 -0.770055 -4.17457 0
M  V30 3595 C 328.621 -2.90468 -5.15153 0
M  V30 3596 H 327.551 -0.225279 -0.719559 0
M  V30 3597 H 330.202 -1.16438 -1.41825 0
M  V30 3598 H 328.584 -0.4206 -3.9376 0
M  V30 3599 H 329.758 -3.20916 -3.30681 0
M  V30 3600 H 328.073 -2.78432 -3.0962 0
M  V30 3601 H 330.67 -1.02249 -5.24832 0
M  V30 3602 H 331.013 0.293611 -4.15263 0
M  V30 3603 H 331.546 -1.35437 -3.74034 0
M  V30 3604 H 328.285 -3.95871 -5.22462 0
M  V30 3605 H 327.805 -2.27711 -5.54894 0
M  V30 3606 H 329.484 -2.79914 -5.83315 0
M  V30 3607 N 329.616 1.39756 -0.72842 0
M  V30 3608 C 330.526 2.34444 -0.0855374 0
M  V30 3609 C 331.542 1.57976 0.729356 0
M  V30 3610 O 332.718 1.90301 0.659346 0
M  V30 3611 C 329.783 3.36965 0.815798 0
M  V30 3612 C 328.844 4.29299 -0.0105996 0
M  V30 3613 C 328.077 5.26923 0.84781 0
M  V30 3614 O 328.3 5.30859 2.08673 0
M  V30 3615 O 327.234 6.01249 0.279969 0
M  V30 3616 H 331.06 2.91065 -0.866892 0
M  V30 3617 H 328.645 1.4117 -0.48902 0
M  V30 3618 H 330.527 3.99804 1.33171 0
M  V30 3619 H 329.202 2.82739 1.57608 0
M  V30 3620 H 328.109 3.69703 -0.571877 0
M  V30 3621 H 329.442 4.86712 -0.73295 0
M  V30 3622 N 331.094 0.475555 1.50254 0
M  V30 3623 C 332.024 -0.30611 2.31485 0
M  V30 3624 C 333.005 -0.986228 1.38591 0
M  V30 3625 O 334.19 -0.982541 1.67511 0
M  V30 3626 C 331.32 -1.38588 3.1845 0
M  V30 3627 C 330.274 -0.827115 4.19932 0
M  V30 3628 C 329.6 -2.00551 4.95665 0
M  V30 3629 C 330.9 0.16463 5.2204 0
M  V30 3630 H 332.594 0.371866 2.97082 0
M  V30 3631 H 330.14 0.180282 1.42867 0
M  V30 3632 H 332.093 -1.94023 3.74076 0
M  V30 3633 H 330.817 -2.09269 2.50747 0
M  V30 3634 H 329.476 -0.294702 3.65414 0
M  V30 3635 H 329.124 -2.6994 4.2443 0
M  V30 3636 H 328.824 -1.63784 5.64313 0
M  V30 3637 H 330.348 -2.56468 5.54127 0
M  V30 3638 H 331.762 -0.300699 5.72511 0
M  V30 3639 H 330.159 0.446813 5.98434 0
M  V30 3640 H 331.229 1.08905 4.72512 0
M  V30 3641 N 332.573 -1.56217 0.208337 0
M  V30 3642 C 333.82 -1.97949 -0.42692 0
M  V30 3643 C 334.148 -1.09562 -1.60706 0
M  V30 3644 O 333.403 -0.137616 -1.95216 0
M  V30 3645 C 333.702 -3.45441 -0.916797 0
M  V30 3646 C 333.368 -4.50646 0.151391 0
M  V30 3647 C 332.03 -4.79139 0.444867 0
M  V30 3648 C 334.382 -5.13811 0.874492 0
M  V30 3649 C 331.71 -5.68084 1.46619 0
M  V30 3650 C 334.062 -6.03861 1.88506 0
M  V30 3651 C 332.726 -6.30704 2.18559 0
M  V30 3652 H 331.996 -0.724345 -0.156221 0
M  V30 3653 H 334.643 -1.89006 0.308084 0
M  V30 3654 H 332.948 -3.51521 -1.73032 0
M  V30 3655 H 334.645 -3.75094 -1.41794 0
M  V30 3656 H 331.235 -4.28511 -0.0875068 0
M  V30 3657 H 335.419 -4.91879 0.660996 0
M  V30 3658 H 330.675 -5.87151 1.7048 0
M  V30 3659 H 334.849 -6.51861 2.45051 0
M  V30 3660 H 332.476 -6.99424 2.97843 0
M  V30 3661 N 334.051 0.0651679 -1.57465 0
M  V30 3662 C 334.981 1.07693 -2.07182 0
M  V30 3663 C 335.962 1.39962 -0.966673 0
M  V30 3664 O 337.147 1.49475 -1.2398 0
M  V30 3665 C 334.277 2.3885 -2.52127 0
M  V30 3666 C 333.231 2.20917 -3.66579 0
M  V30 3667 C 332.557 3.57515 -3.97601 0
M  V30 3668 C 333.857 1.62493 -4.9638 0
M  V30 3669 H 335.551 0.663199 -2.91962 0
M  V30 3670 H 333.097 0.317569 -1.40455 0
M  V30 3671 H 335.05 3.09928 -2.85522 0
M  V30 3672 H 333.774 2.82215 -1.64384 0
M  V30 3673 H 332.433 1.52279 -3.33477 0
M  V30 3674 H 332.081 3.98463 -3.06979 0
M  V30 3675 H 331.781 3.46353 -4.74672 0
M  V30 3676 H 333.305 4.30013 -4.33499 0
M  V30 3677 H 334.719 2.23445 -5.27963 0
M  V30 3678 H 333.116 1.62009 -5.77818 0
M  V30 3679 H 334.186 0.587041 -4.81333 0
M  V30 3680 N 335.529 1.53961 0.336706 0
M  V30 3681 C 336.461 1.78751 1.4346 0
M  V30 3682 C 337.474 0.669019 1.48418 0
M  V30 3683 O 338.663 0.945884 1.51378 0
M  V30 3684 C 335.763 1.87844 2.82078 0
M  V30 3685 C 334.936 3.17854 3.00479 0
M  V30 3686 C 333.995 3.17816 4.19379 0
M  V30 3687 O 333.021 3.91511 4.13168 0
M  V30 3688 N 334.223 2.40669 5.2826 0
M  V30 3689 H 336.988 2.73493 1.22563 0
M  V30 3690 H 334.549 1.53096 0.526625 0
M  V30 3691 H 336.541 1.85261 3.59806 0
M  V30 3692 H 335.111 1.00257 2.96086 0
M  V30 3693 H 334.331 3.33504 2.10163 0
M  V30 3694 H 335.619 4.03718 3.0966 0
M  V30 3695 H 335.017 1.8036 5.36178 0
M  V30 3696 H 333.574 2.43877 6.04456 0
M  V30 3697 N 337.007 -0.598083 1.45811 0
M  V30 3698 C 338.232 -1.3881 1.54099 0
M  V30 3699 C 338.657 -1.8726 0.177578 0
M  V30 3700 O 338.015 -1.6069 -0.839541 0
M  V30 3701 C 338.063 -2.56217 2.53743 0
M  V30 3702 O 337.167 -3.5716 2.06182 0
M  V30 3703 H 336.508 -0.414024 0.519115 0
M  V30 3704 H 339.038 -0.726971 1.91249 0
M  V30 3705 H 339.048 -3.03337 2.72856 0
M  V30 3706 H 337.723 -2.20303 3.5276 0
M  V30 3707 H 336.3 -3.16624 1.96987 0
M  V30 3708 N 338.485 -1.33259 -0.841409 0
M  V30 3709 C 339.71 -1.2775 -1.63385 0
M  V30 3710 C 340.135 0.149188 -1.87507 0
M  V30 3711 O 339.493 1.10498 -1.43736 0
M  V30 3712 C 339.541 -2.05571 -2.96265 0
M  V30 3713 O 338.645 -1.41257 -3.87453 0
M  V30 3714 H 337.986 -0.439627 -0.497618 0
M  V30 3715 H 340.516 -1.75782 -1.04699 0
M  V30 3716 H 340.526 -2.16241 -3.45982 0
M  V30 3717 H 339.201 -3.09309 -2.7803 0
M  V30 3718 H 337.778 -1.39217 -3.45938 0
M  V30 3719 N 339.963 1.05934 -1.16686 0
M  V30 3720 C 341.193 1.82226 -0.973515 0
M  V30 3721 C 341.601 1.8297 0.481532 0
M  V30 3722 O 340.944 1.25009 1.34604 0
M  V30 3723 C 341.006 3.29897 -1.42858 0
M  V30 3724 C 340.67 3.52849 -2.90425 0
M  V30 3725 C 341.667 3.45595 -3.88407 0
M  V30 3726 C 339.352 3.80053 -3.28428 0
M  V30 3727 C 341.346 3.65217 -5.22394 0
M  V30 3728 C 339.033 3.99325 -4.62583 0
M  V30 3729 C 340.031 3.91905 -5.59374 0
M  V30 3730 O 339.719 4.10647 -6.91104 0
M  V30 3731 H 339.451 0.581314 -0.345036 0
M  V30 3732 H 342.005 1.3453 -1.55212 0
M  V30 3733 H 340.235 3.78472 -0.793477 0
M  V30 3734 H 341.924 3.87692 -1.20207 0
M  V30 3735 H 342.69 3.24564 -3.60393 0
M  V30 3736 H 338.569 3.84936 -2.53664 0
M  V30 3737 H 342.113 3.59341 -5.9793 0
M  V30 3738 H 338.01 4.19846 -4.90306 0
M  V30 3739 H 338.778 4.27915 -6.97733 0
M  V30 3740 N 341.441 0.965919 1.2453 0
M  V30 3741 C 342.373 0.452465 2.2469 0
M  V30 3742 C 343.386 -0.437821 1.56802 0
M  V30 3743 O 344.575 -0.244283 1.76821 0
M  V30 3744 C 341.675 -0.366258 3.36915 0
M  V30 3745 C 340.848 0.513701 4.34373 0
M  V30 3746 C 339.907 -0.248716 5.25612 0
M  V30 3747 O 338.933 0.356745 5.68081 0
M  V30 3748 N 340.135 -1.53877 5.59734 0
M  V30 3749 H 342.9 1.31361 2.69378 0
M  V30 3750 H 340.461 0.837541 1.38553 0
M  V30 3751 H 342.453 -0.884297 3.94921 0
M  V30 3752 H 341.023 -1.12832 2.91526 0
M  V30 3753 H 340.243 1.21273 3.75082 0
M  V30 3754 H 341.531 1.11391 4.96457 0
M  V30 3755 H 340.929 -2.05243 5.27154 0
M  V30 3756 H 339.486 -2.00254 6.20275 0
M  V30 3757 N 342.919 -1.39368 0.735821 0
M  V30 3758 C 344.147 -2.04795 0.294393 0
M  V30 3759 C 344.562 -1.55478 -1.07107 0
M  V30 3760 O 343.919 -0.720038 -1.67695 0
M  V30 3761 C 343.97 -3.6035 0.288071 0
M  V30 3762 O 343.691 -4.07852 1.59963 0
M  V30 3763 C 345.192 -4.42976 -0.169422 0
M  V30 3764 H 342.412 -0.658571 0.128551 0
M  V30 3765 H 344.956 -1.78399 0.999701 0
M  V30 3766 H 343.111 -3.85645 -0.368355 0
M  V30 3767 H 343.525 -5.02181 1.51375 0
M  V30 3768 H 344.999 -5.51864 -0.122687 0
M  V30 3769 H 345.476 -4.22068 -1.21472 0
M  V30 3770 H 346.082 -4.22832 0.457469 0
M  V30 3771 N 344.397 -0.483516 -1.5 0
M  V30 3772 C 345.307 0.309172 -2.32554 0
M  V30 3773 C 346.323 0.984159 -1.43493 0
M  V30 3774 O 347.499 0.969399 -1.76535 0
M  V30 3775 C 344.564 1.36979 -3.18493 0
M  V30 3776 C 343.625 0.710095 -4.23387 0
M  V30 3777 C 342.858 1.72018 -5.05218 0
M  V30 3778 O 343.081 2.94813 -4.88305 0
M  V30 3779 O 342.015 1.28515 -5.8802 0
M  V30 3780 H 345.841 -0.366064 -3.01486 0
M  V30 3781 H 343.426 -0.24514 -1.47375 0
M  V30 3782 H 345.308 1.98385 -3.71781 0
M  V30 3783 H 343.983 2.02828 -2.52275 0
M  V30 3784 H 342.89 0.0567539 -3.74057 0
M  V30 3785 H 344.223 0.0943557 -4.9211 0
M  V30 3786 N 345.875 1.56104 -0.216619 0
M  V30 3787 C 347.124 1.97348 0.416744 0
M  V30 3788 C 347.437 1.10715 1.6125 0
M  V30 3789 O 348.643 1.41836 2.31506 0
M  V30 3790 C 347.099 3.51059 0.792835 0
M  V30 3791 C 346.707 4.46387 -0.379828 0
M  V30 3792 C 348.451 4.01026 1.39208 0
M  V30 3793 C 346.358 5.91397 0.0184223 0
M  V30 3794 H 345.288 0.736942 0.159475 0
M  V30 3795 H 347.939 1.80827 -0.31205 0
M  V30 3796 H 346.321 3.63162 1.57891 0
M  V30 3797 H 347.495 4.46029 -1.15737 0
M  V30 3798 H 345.81 4.06734 -0.891979 0
M  V30 3799 H 348.407 5.0686 1.70286 0
M  V30 3800 H 348.75 3.46587 2.30614 0
M  V30 3801 H 349.283 3.92125 0.669537 0
M  V30 3802 H 346.022 6.49807 -0.862002 0
M  V30 3803 H 345.542 5.94961 0.760384 0
M  V30 3804 H 347.221 6.45455 0.446818 0
M  V30 3805 N 347.353 -0.0568162 1.57498 0
M  V30 3806 C 348.601 -0.751617 1.87604 0
M  V30 3807 C 348.922 -1.77351 0.81066 0
M  V30 3808 O 348.192 -1.95254 -0.159018 0
M  V30 3809 H 346.772 -0.280583 0.692302 0
M  V30 3810 H 349.434 -0.0293483 1.94878 0
M  V30 3811 H 348.53 -1.25852 2.856 0
M  V30 3812 N 348.832 -1.54138 -0.328536 0
M  V30 3813 C 349.764 -1.79509 -1.4251 0
M  V30 3814 C 350.777 -0.67688 -1.48061 0
M  V30 3815 O 351.966 -0.953898 -1.50874 0
M  V30 3816 C 349.066 -1.89337 -2.81078 0
M  V30 3817 C 348.239 -3.19443 -2.98789 0
M  V30 3818 C 347.298 -3.20036 -4.17688 0
M  V30 3819 O 346.324 -3.93697 -4.11086 0
M  V30 3820 N 347.526 -2.43467 -5.26976 0
M  V30 3821 H 350.291 -2.74139 -1.21111 0
M  V30 3822 H 347.852 -1.53373 -0.518499 0
M  V30 3823 H 349.844 -1.87167 -3.58818 0
M  V30 3824 H 348.414 -1.01826 -2.95551 0
M  V30 3825 H 347.634 -3.34614 -2.08391 0
M  V30 3826 H 348.922 -4.05354 -3.07515 0
M  V30 3827 H 348.32 -1.83201 -5.35214 0
M  V30 3828 H 346.877 -2.4708 -6.03154 0
M  V30 3829 N 350.31 0.590341 -1.46126 0
M  V30 3830 C 351.538 1.37504 -1.54597 0
M  V30 3831 C 351.953 1.87897 -0.184447 0
M  V30 3832 O 351.31 1.63192 0.816984 0
M  V30 3833 C 351.361 2.56779 -2.54454 0
M  V30 3834 O 351.082 2.08476 -3.85317 0
M  V30 3835 C 352.583 3.49427 -2.72792 0
M  V30 3836 H 349.803 0.420325 -0.523037 0
M  V30 3837 H 352.347 0.718383 -1.91467 0
M  V30 3838 H 350.502 3.1845 -2.20609 0
M  V30 3839 H 350.916 2.86097 -4.396 0
M  V30 3840 H 352.39 4.29619 -3.466 0
M  V30 3841 H 352.867 4.00876 -1.79429 0
M  V30 3842 H 353.473 2.93598 -3.07702 0
M  V30 3843 N 351.788 1.33704 0.83433 0
M  V30 3844 C 352.718 1.26967 1.95963 0
M  V30 3845 C 353.699 0.149337 1.69443 0
M  V30 3846 O 354.884 0.339852 1.91203 0
M  V30 3847 C 352.014 1.01275 3.32206 0
M  V30 3848 C 350.968 2.09652 3.73136 0
M  V30 3849 C 350.294 1.69166 5.07235 0
M  V30 3850 C 351.594 3.51372 3.86439 0
M  V30 3851 H 353.288 2.2112 2.01857 0
M  V30 3852 H 350.834 1.06447 0.969793 0
M  V30 3853 H 352.787 0.952106 4.10503 0
M  V30 3854 H 351.511 0.0356203 3.26581 0
M  V30 3855 H 350.17 2.14766 2.97104 0
M  V30 3856 H 349.818 0.701437 4.98085 0
M  V30 3857 H 349.518 2.41694 5.35591 0
M  V30 3858 H 351.042 1.64576 5.88003 0
M  V30 3859 H 352.456 3.48734 4.55036 0
M  V30 3860 H 350.853 4.22425 4.26236 0
M  V30 3861 H 351.923 3.89546 2.88759 0
M  V30 3862 N 353.266 -1.05314 1.17247 0
M  V30 3863 C 354.543 -1.75184 0.87005 0
M  V30 3864 C 354.923 -2.01481 -0.629965 0
M  V30 3865 O 354.271 -1.64988 -1.58086 0
M  V30 3866 C 354.481 -3.04594 1.70363 0
M  V30 3867 C 355.829 -3.78567 1.92281 0
M  V30 3868 O 356.853 -3.14461 1.67311 0
M  V30 3869 O 355.712 -4.93755 2.3424 0
M  V30 3870 H 352.806 -0.761729 0.322021 0
M  V30 3871 H 355.352 -1.11493 1.27935 0
M  V30 3872 H 354.124 -2.81201 2.72106 0
M  V30 3873 H 353.747 -3.76022 1.29202 0
M  V30 3874 N 354.744 -0.972509 -1.24016 0
M  V30 3875 C 355.674 -0.525548 -2.27509 0
M  V30 3876 C 356.655 0.437262 -1.64384 0
M  V30 3877 O 357.84 0.332343 -1.91335 0
M  V30 3878 C 354.97 0.180448 -3.46831 0
M  V30 3879 C 353.924 -0.698859 -4.22256 0
M  V30 3880 C 353.25 0.138903 -5.3452 0
M  V30 3881 C 354.55 -1.98582 -4.83076 0
M  V30 3882 H 356.244 -1.39058 -2.65148 0
M  V30 3883 H 353.79 -0.67009 -1.27459 0
M  V30 3884 H 355.743 0.504387 -4.18371 0
M  V30 3885 H 354.467 1.07987 -3.08231 0
M  V30 3886 H 353.126 -1.00614 -3.52523 0
M  V30 3887 H 352.774 1.03862 -4.9216 0
M  V30 3888 H 352.474 -0.446259 -5.85903 0
M  V30 3889 H 353.998 0.457404 -6.08884 0
M  V30 3890 H 355.412 -1.72715 -5.46665 0
M  V30 3891 H 353.809 -2.5181 -5.44713 0
M  V30 3892 H 354.879 -2.67769 -4.04262 0
M  V30 3893 N 356.222 1.38976 -0.743202 0
M  V30 3894 C 357.152 2.33171 -0.123873 0
M  V30 3895 C 358.133 1.54336 0.71516 0
M  V30 3896 O 359.318 1.82696 0.658467 0
M  V30 3897 C 356.448 3.38474 0.777978 0
M  V30 3898 C 355.402 4.27979 0.0424758 0
M  V30 3899 C 354.728 5.2405 1.06189 0
M  V30 3900 C 356.028 5.10155 -1.1198 0
M  V30 3901 H 357.722 2.85213 -0.910709 0
M  V30 3902 H 355.268 1.37133 -0.439388 0
M  V30 3903 H 357.221 4.03328 1.22084 0
M  V30 3904 H 355.945 2.84891 1.59702 0
M  V30 3905 H 354.604 3.64616 -0.380853 0
M  V30 3906 H 354.252 4.66758 1.87472 0
M  V30 3907 H 353.952 5.84785 0.574485 0
M  V30 3908 H 355.476 5.9178 1.50428 0
M  V30 3909 H 356.89 5.68307 -0.75499 0
M  V30 3910 H 355.287 5.80073 -1.53738 0
M  V30 3911 H 356.357 4.44504 -1.93764 0
M  V30 3912 N 357.7 0.491464 1.49741 0
M  V30 3913 C 358.928 -0.0535151 2.06831 0
M  V30 3914 C 359.343 -1.31683 1.35296 0
M  V30 3915 O 358.7 -1.77402 0.42836 0
M  V30 3916 C 358.751 -0.320835 3.60073 0
M  V30 3917 O 358.472 0.892394 4.28915 0
M  V30 3918 C 359.973 -0.910519 4.33848 0
M  V30 3919 H 357.193 0.0161909 0.670805 0
M  V30 3920 H 359.737 0.68609 1.92647 0
M  V30 3921 H 357.892 -1.0104 3.73991 0
M  V30 3922 H 358.306 0.649401 5.20464 0
M  V30 3923 H 359.78 -1.04721 5.41976 0
M  V30 3924 H 360.257 -1.90589 3.95692 0
M  V30 3925 H 360.863 -0.258712 4.24512 0
M  V30 3926 N 359.178 -1.55987 0.224894 0
M  V30 3927 C 360.141 -2.19178 -0.670348 0
M  V30 3928 C 361.141 -1.15461 -1.11917 0
M  V30 3929 O 362.331 -1.40675 -1.02743 0
M  V30 3930 C 359.463 -2.81777 -1.9187 0
M  V30 3931 H 360.656 -2.99662 -0.119364 0
M  V30 3932 H 358.209 -1.5628 -0.0247128 0
M  V30 3933 H 358.944 -2.05172 -2.51147 0
M  V30 3934 H 358.729 -3.57732 -1.60531 0
M  V30 3935 H 360.219 -3.30205 -2.55645 0
M  V30 3936 N 360.656 0.0484629 -1.57525 0
M  V30 3937 C 362.067 0.597486 -1.76881 0
M  V30 3938 C 362.418 1.76664 -0.853475 0
M  V30 3939 O 361.543 2.16357 -0.0433656 0
M  V30 3940 C 362.138 1.09066 -3.20765 0
M  V30 3941 C 360.697 1.58535 -3.41385 0
M  V30 3942 C 359.844 0.514868 -2.72478 0
M  V30 3943 H 362.795 -0.177758 -1.57701 0
M  V30 3944 H 362.816 1.95875 -3.2621 0
M  V30 3945 H 362.328 0.239521 -3.8736 0
M  V30 3946 H 360.429 2.45898 -2.79937 0
M  V30 3947 H 360.542 1.64622 -4.49929 0
M  V30 3948 H 358.906 0.965407 -2.35695 0
M  V30 3949 H 359.689 -0.32648 -3.41744 0
M  V30 3950 N 362.134 1.5431 0.320358 0
M  V30 3951 C 363.066 1.80262 1.41556 0
M  V30 3952 C 364.079 0.684723 1.477 0
M  V30 3953 O 365.268 0.961886 1.50366 0
M  V30 3954 C 362.368 1.90825 2.8007 0
M  V30 3955 C 361.541 3.21023 2.97091 0
M  V30 3956 C 360.6 3.22247 4.15985 0
M  V30 3957 O 359.626 3.95871 4.08992 0
M  V30 3958 N 360.828 2.46258 5.25678 0
M  V30 3959 H 363.593 2.74778 1.19655 0
M  V30 3960 H 361.154 1.53646 0.510358 0
M  V30 3961 H 363.146 1.89067 3.57821 0
M  V30 3962 H 361.716 1.03392 2.95006 0
M  V30 3963 H 360.936 3.35715 2.06614 0
M  V30 3964 H 362.224 4.0698 3.05361 0
M  V30 3965 H 361.622 1.86037 5.34235 0
M  V30 3966 H 360.179 2.50275 6.01835 0
M  V30 3967 N 363.613 -0.582584 1.46437 0
M  V30 3968 C 364.861 -1.33814 1.51453 0
M  V30 3969 C 365.182 -1.94277 0.167792 0
M  V30 3970 O 364.452 -1.78566 -0.805677 0
M  V30 3971 H 363.032 -0.496838 0.557818 0
M  V30 3972 H 365.694 -0.682281 1.82568 0
M  V30 3973 H 364.79 -2.14479 2.26728 0
M  V30 3974 N 365.091 -1.34144 -0.827227 0
M  V30 3975 C 366.039 -1.25364 -1.95925 0
M  V30 3976 C 367.033 -0.152608 -1.68711 0
M  V30 3977 O 368.239 -0.317311 -1.77181 0
M  V30 3978 H 364.614 -0.389342 -0.643364 0
M  V30 3979 H 366.585 -2.21045 -2.00454 0
M  V30 3980 C 365.334 -1.02158 -3.32354 0
M  V30 3981 H 364.657 -1.86111 -3.5384 0
M  V30 3982 H 366.097 -1.00048 -4.12027 0
M  V30 3983 C 364.556 0.275244 -3.35774 0
M  V30 3984 O 365.086 1.27806 -3.80826 0
M  V30 3985 N 363.292 0.306853 -2.88975 0
M  V30 3986 H 362.839 -0.509777 -2.52506 0
M  V30 3987 H 362.797 1.17432 -2.91646 0
M  V30 3988 N 366.569 1.04691 -1.17803 0
M  V30 3989 C 367.815 1.78045 -0.970969 0
M  V30 3990 C 368.148 1.87686 0.498751 0
M  V30 3991 O 367.423 1.38035 1.37027 0
M  V30 3992 C 367.706 3.2166 -1.61884 0
M  V30 3993 C 367.559 3.20001 -3.161 0
M  V30 3994 C 368.878 4.1962 -1.3269 0
M  V30 3995 H 365.997 0.64633 -0.354155 0
M  V30 3996 H 368.639 1.22333 -1.45378 0
M  V30 3997 H 366.789 3.69232 -1.20831 0
M  V30 3998 H 368.461 2.80467 -3.66246 0
M  V30 3999 H 366.704 2.58203 -3.48588 0
M  V30 4000 H 367.375 4.21386 -3.56564 0
M  V30 4001 H 369.851 3.80567 -1.68249 0
M  V30 4002 H 368.727 5.18339 -1.80599 0
M  V30 4003 H 368.988 4.414 -0.248622 0
M  V30 4004 N 368.047 0.979072 1.23499 0
M  V30 4005 C 369.324 0.563674 1.87302 0
M  V30 4006 C 369.704 -0.959199 1.88049 0
M  V30 4007 O 369.052 -1.83535 1.36114 0
M  V30 4008 C 369.262 1.16822 3.28867 0
M  V30 4009 C 370.61 1.26014 4.0547 0
M  V30 4010 O 371.634 1.12158 3.38082 0
M  V30 4011 O 370.493 1.48044 5.26066 0
M  V30 4012 H 367.587 0.189602 0.804972 0
M  V30 4013 H 370.133 1.07407 1.31384 0
M  V30 4014 H 368.905 2.21049 3.22883 0
M  V30 4015 H 368.528 0.642564 3.92373 0
M  V30 4016 N 369.525 -1.3858 0.750561 0
M  V30 4017 C 370.455 -2.33102 0.136237 0
M  V30 4018 C 371.436 -1.54713 -0.706965 0
M  V30 4019 O 372.621 -1.83043 -0.648769 0
M  V30 4020 C 369.751 -3.38882 -0.760017 0
M  V30 4021 C 368.705 -4.27995 -0.0197785 0
M  V30 4022 C 368.031 -5.24605 -1.03408 0
M  V30 4023 C 369.331 -5.09554 1.14684 0
M  V30 4024 H 371.025 -2.84726 0.925822 0
M  V30 4025 H 368.571 -1.36898 0.446654 0
M  V30 4026 H 370.524 -4.0397 -1.19943 0
M  V30 4027 H 369.248 -2.85734 -1.58189 0
M  V30 4028 H 367.907 -3.64409 0.400184 0
M  V30 4029 H 367.555 -4.67746 -1.84994 0
M  V30 4030 H 367.255 -5.85081 -0.543464 0
M  V30 4031 H 368.779 -5.9257 -1.47288 0
M  V30 4032 H 370.193 -5.67899 0.785118 0
M  V30 4033 H 368.59 -5.7925 1.56812 0
M  V30 4034 H 369.66 -4.4347 1.96118 0
M  V30 4035 N 371.003 -0.499398 -1.49478 0
M  V30 4036 C 372.249 0.0457576 -2.02748 0
M  V30 4037 C 372.582 1.36793 -1.37846 0
M  V30 4038 O 371.857 1.87596 -0.513601 0
M  V30 4039 C 372.14 0.199986 -3.59544 0
M  V30 4040 C 371.993 -1.1452 -4.34977 0
M  V30 4041 C 373.312 0.94137 -4.29914 0
M  V30 4042 H 370.431 0.0151552 -0.736844 0
M  V30 4043 H 373.073 -0.650498 -1.78518 0
M  V30 4044 H 371.223 0.793007 -3.8032 0
M  V30 4045 H 372.895 -1.77697 -4.25701 0
M  V30 4046 H 371.138 -1.73488 -3.97598 0
M  V30 4047 H 371.809 -0.990607 -5.43039 0
M  V30 4048 H 374.285 0.43844 -4.13784 0
M  V30 4049 H 373.161 1.01812 -5.39375 0
M  V30 4050 H 373.422 1.98471 -3.95046 0
M  V30 4051 N 372.481 1.55866 -0.233164 0
M  V30 4052 C 373.897 1.59133 0.121988 0
M  V30 4053 C 374.097 1.25016 1.58029 0
M  V30 4054 O 373.153 0.990922 2.32243 0
M  V30 4055 C 374.466 2.99932 -0.214792 0
M  V30 4056 C 376.014 3.12601 -0.157971 0
M  V30 4057 C 376.489 4.55597 -0.46859 0
M  V30 4058 N 377.98 4.61305 -0.418585 0
M  V30 4059 C 378.715 5.69903 -0.63227 0
M  V30 4060 N 378.211 6.86819 -0.90835 0
M  V30 4061 N 380.004 5.59264 -0.563913 0
M  V30 4062 H 372.155 1.76315 -1.18434 0
M  V30 4063 H 374.418 0.820093 -0.475553 0
M  V30 4064 H 374.124 3.29588 -1.22739 0
M  V30 4065 H 373.998 3.74327 0.464691 0
M  V30 4066 H 376.385 2.82735 0.845283 0
M  V30 4067 H 376.466 2.40511 -0.871102 0
M  V30 4068 H 376.11 4.86182 -1.46934 0
M  V30 4069 H 376.04 5.25928 0.265865 0
M  V30 4070 H 378.531 3.77297 -0.213368 0
M  V30 4071 H 378.844 7.65507 -1.05919 0
M  V30 4072 H 377.189 6.88536 -0.945673 0
M  V30 4073 H 380.38 4.66802 -0.348372 0
M  V30 4074 H 380.553 6.43831 -0.733847 0
M  V30 4075 N 373.959 -0.0401083 1.57549 0
M  V30 4076 C 375.206 -0.733125 1.88763 0
M  V30 4077 C 375.534 -1.75946 0.829058 0
M  V30 4078 O 374.789 -1.94949 -0.171323 0
M  V30 4079 C 375.088 -1.44902 3.26708 0
M  V30 4080 C 374.754 -0.559707 4.47413 0
M  V30 4081 C 373.416 -0.314731 4.8017 0
M  V30 4082 C 375.768 0.0549743 5.21171 0
M  V30 4083 C 373.096 0.553886 5.8408 0
M  V30 4084 C 375.448 0.911229 6.26003 0
M  V30 4085 C 374.112 1.16577 6.57241 0
M  V30 4086 H 373.382 -0.268269 0.690733 0
M  V30 4087 H 376.029 0.00679408 1.91499 0
M  V30 4088 H 374.334 -2.26197 3.1991 0
M  V30 4089 H 376.031 -1.99058 3.48105 0
M  V30 4090 H 372.621 -0.760793 4.21794 0
M  V30 4091 H 376.805 -0.121344 4.96152 0
M  V30 4092 H 372.061 0.759518 6.06664 0
M  V30 4093 H 376.235 1.3941 6.82303 0
M  V30 4094 H 373.862 1.84058 7.37582 0
M  V30 4095 N 375.437 -1.54477 -0.31217 0
M  V30 4096 C 376.665 -1.77205 -1.068 0
M  V30 4097 C 377.08 -0.526114 -1.81321 0
M  V30 4098 O 376.437 0.503647 -1.75413 0
M  V30 4099 C 376.488 -2.97253 -2.05725 0
M  V30 4100 O 376.209 -4.1703 -1.34228 0
M  V30 4101 C 377.71 -3.32281 -2.93435 0
M  V30 4102 H 374.93 -0.591287 -0.317208 0
M  V30 4103 H 377.474 -2.01398 -0.354834 0
M  V30 4104 H 375.629 -2.753 -2.72559 0
M  V30 4105 H 376.043 -4.84636 -2.00571 0
M  V30 4106 H 377.517 -4.19551 -3.58721 0
M  V30 4107 H 377.994 -2.49945 -3.61143 0
M  V30 4108 H 378.6 -3.56353 -2.32147 0
M  V30 4109 N 376.915 0.57481 -1.46744 0
M  V30 4110 C 377.825 1.711 -1.60505 0
M  V30 4111 C 378.841 1.67008 -0.488307 0
M  V30 4112 O 380.017 1.86774 -0.753495 0
M  V30 4113 C 377.082 3.07608 -1.59932 0
M  V30 4114 C 376.143 3.22904 -2.82898 0
M  V30 4115 C 375.376 4.529 -2.82343 0
M  V30 4116 O 375.599 5.37278 -1.91542 0
M  V30 4117 O 374.533 4.71611 -3.73987 0
M  V30 4118 H 378.359 1.62436 -2.56609 0
M  V30 4119 H 375.944 0.742779 -1.29627 0
M  V30 4120 H 377.826 3.88877 -1.62336 0
M  V30 4121 H 376.501 3.16692 -0.669898 0
M  V30 4122 H 375.408 2.41099 -2.86046 0
M  V30 4123 H 376.741 3.18715 -3.75076 0
M  V30 4124 N 378.394 1.34581 0.820102 0
M  V30 4125 C 379.341 1.2639 1.93117 0
M  V30 4126 C 380.311 0.138554 1.65521 0
M  V30 4127 O 381.496 0.320004 1.88097 0
M  V30 4128 C 378.636 1.02812 3.29429 0
M  V30 4129 C 377.749 2.24146 3.693 0
M  V30 4130 C 376.884 1.93829 4.94574 0
M  V30 4131 C 375.923 3.1129 5.27034 0
M  V30 4132 N 375.06 2.80838 6.43486 0
M  V30 4133 H 379.9 2.21408 1.99455 0
M  V30 4134 H 377.437 1.10077 0.975784 0
M  V30 4135 H 379.395 0.871788 4.0799 0
M  V30 4136 H 378.025 0.114612 3.22596 0
M  V30 4137 H 377.077 2.50691 2.86109 0
M  V30 4138 H 378.389 3.11899 3.89257 0
M  V30 4139 H 377.543 1.74948 5.80929 0
M  V30 4140 H 376.282 1.03341 4.76626 0
M  V30 4141 H 375.287 3.30764 4.39175 0
M  V30 4142 H 376.512 4.02561 5.4692 0
M  V30 4143 H 374.458 1.92929 6.26988 0
M  V30 4144 H 374.375 3.62123 6.63629 0
M  V30 4145 H 375.643 2.65467 7.32903 0
M  V30 4146 N 379.872 -1.04064 1.18357 0
M  V30 4147 C 381.288 -1.2947 0.933258 0
M  V30 4148 C 381.488 -1.97466 -0.401169 0
M  V30 4149 O 380.544 -2.25528 -1.13549 0
M  V30 4150 C 381.857 -2.15337 2.09882 0
M  V30 4151 C 383.405 -2.28683 2.13712 0
M  V30 4152 C 383.88 -3.17917 3.29686 0
M  V30 4153 N 385.371 -3.25504 3.29547 0
M  V30 4154 C 386.106 -3.94706 4.15926 0
M  V30 4155 N 385.602 -4.66239 5.12439 0
M  V30 4156 N 387.395 -3.90986 4.0384 0
M  V30 4157 H 379.546 -0.583359 2.04232 0
M  V30 4158 H 381.809 -0.319921 0.892387 0
M  V30 4159 H 381.515 -1.72682 3.06389 0
M  V30 4160 H 381.389 -3.16015 2.05947 0
M  V30 4161 H 383.776 -2.70575 1.17784 0
M  V30 4162 H 383.857 -1.27596 2.21705 0
M  V30 4163 H 383.501 -2.76736 4.25887 0
M  V30 4164 H 383.431 -4.19036 3.1893 0
M  V30 4165 H 385.922 -2.74547 2.59677 0
M  V30 4166 H 386.235 -5.16638 5.74722 0
M  V30 4167 H 384.58 -4.65143 5.16398 0
M  V30 4168 H 387.771 -3.34234 3.27727 0
M  V30 4169 H 387.944 -4.44646 4.71375 0
M  V30 4170 N 381.35 -0.985608 -1.22978 0
M  V30 4171 C 382.58 -0.674603 -1.95276 0
M  V30 4172 C 382.988 0.763483 -1.73111 0
M  V30 4173 O 382.331 1.52601 -1.02268 0
M  V30 4174 C 382.393 -0.891597 -3.48268 0
M  V30 4175 C 382.057 -2.31275 -3.94158 0
M  V30 4176 C 383.054 -3.29179 -4.02415 0
M  V30 4177 C 380.739 -2.64524 -4.27004 0
M  V30 4178 C 382.733 -4.58407 -4.42879 0
M  V30 4179 C 380.42 -3.93974 -4.67149 0
M  V30 4180 C 381.418 -4.90727 -4.75053 0
M  V30 4181 O 381.106 -6.17865 -5.14294 0
M  V30 4182 H 380.838 -0.249251 -0.628371 0
M  V30 4183 H 383.392 -1.32106 -1.5728 0
M  V30 4184 H 381.622 -0.187962 -3.86243 0
M  V30 4185 H 383.311 -0.576957 -4.01779 0
M  V30 4186 H 384.077 -3.04823 -3.77237 0
M  V30 4187 H 379.956 -1.89923 -4.2006 0
M  V30 4188 H 383.5 -5.33926 -4.48964 0
M  V30 4189 H 379.397 -4.18122 -4.91777 0
M  V30 4190 H 380.165 -6.21694 -5.32389 0
M  V30 4191 N 382.828 1.3818 -0.7579 0
M  V30 4192 C 383.775 2.30416 -0.133057 0
M  V30 4193 C 384.745 1.50398 0.704957 0
M  V30 4194 O 385.93 1.79014 0.660192 0
M  V30 4195 C 383.07 3.36834 0.750813 0
M  V30 4196 C 382.183 4.31879 -0.102297 0
M  V30 4197 C 381.318 5.25368 0.784979 0
M  V30 4198 C 380.357 6.12058 -0.0715046 0
M  V30 4199 N 379.494 6.97832 0.772972 0
M  V30 4200 H 384.334 2.83274 -0.925186 0
M  V30 4201 H 381.871 1.39461 -0.467866 0
M  V30 4202 H 383.829 3.97145 1.27794 0
M  V30 4203 H 382.459 2.85374 1.50868 0
M  V30 4204 H 381.511 3.72991 -0.747095 0
M  V30 4205 H 382.823 4.92921 -0.763552 0
M  V30 4206 H 381.977 5.90818 1.37911 0
M  V30 4207 H 380.716 4.64703 1.47996 0
M  V30 4208 H 379.721 5.456 -0.678272 0
M  V30 4209 H 380.946 6.74793 -0.763606 0
M  V30 4210 H 378.892 6.3971 1.45282 0
M  V30 4211 H 378.809 7.55812 0.168709 0
M  V30 4212 H 380.077 7.67687 1.35194 0
M  V30 4213 N 384.306 0.507319 1.49211 0
M  V30 4214 C 385.531 -0.033725 2.07373 0
M  V30 4215 C 385.956 -1.29485 1.36437 0
M  V30 4216 O 385.314 -1.76294 0.423087 0
M  V30 4217 C 385.362 -0.263945 3.59633 0
M  V30 4218 O 384.466 -1.33737 3.90113 0
M  V30 4219 H 383.807 0.0290331 0.663365 0
M  V30 4220 H 386.337 0.708749 1.91932 0
M  V30 4221 H 386.347 -0.493536 4.05004 0
M  V30 4222 H 385.022 0.657424 4.10671 0
M  V30 4223 H 383.599 -1.09224 3.56545 0
M  V30 4224 N 385.784 -1.5574 0.241426 0
M  V30 4225 C 387.033 -1.97986 -0.385295 0
M  V30 4226 C 387.346 -1.13267 -1.59468 0
M  V30 4227 O 388.552 -1.45501 -2.2922 0
M  V30 4228 C 387.008 -3.52275 -0.736884 0
M  V30 4229 C 386.616 -4.45726 0.450796 0
M  V30 4230 C 388.36 -4.03189 -1.3281 0
M  V30 4231 C 386.267 -5.91352 0.0756662 0
M  V30 4232 H 385.197 -0.739386 -0.147731 0
M  V30 4233 H 387.848 -1.80308 0.340779 0
M  V30 4234 H 386.23 -3.65628 -1.52094 0
M  V30 4235 H 387.404 -4.44131 1.22819 0
M  V30 4236 H 385.719 -4.05264 0.956573 0
M  V30 4237 H 388.316 -5.09505 -1.62201 0
M  V30 4238 H 388.659 -3.50212 -2.25071 0
M  V30 4239 H 389.192 -3.93141 -0.607069 0
M  V30 4240 H 385.931 -6.48354 0.965272 0
M  V30 4241 H 385.451 -5.96095 -0.665635 0
M  V30 4242 H 387.13 -6.46084 -0.344075 0
M  V30 4243 N 387.262 0.0317525 -1.57568 0
M  V30 4244 C 388.508 0.724175 -1.8943 0
M  V30 4245 C 388.841 1.75149 -0.838836 0
M  V30 4246 O 388.116 1.93948 0.146422 0
M  V30 4247 C 388.399 1.39615 -3.31933 0
M  V30 4248 C 388.252 0.382537 -4.4817 0
M  V30 4249 C 389.571 2.33084 -3.73309 0
M  V30 4250 H 386.69 0.261797 -0.688935 0
M  V30 4251 H 389.332 -0.013017 -1.89996 0
M  V30 4252 H 387.482 2.02451 -3.31581 0
M  V30 4253 H 389.154 -0.243689 -4.60656 0
M  V30 4254 H 387.397 -0.29844 -4.32772 0
M  V30 4255 H 388.068 0.891145 -5.44759 0
M  V30 4256 H 390.544 1.80295 -3.7501 0
M  V30 4257 H 389.42 2.77084 -4.73831 0
M  V30 4258 H 389.681 3.19643 -3.05419 0
M  V30 4259 N 388.74 1.54641 0.303973 0
M  V30 4260 C 389.687 1.85386 1.37479 0
M  V30 4261 C 390.657 0.702528 1.50512 0
M  V30 4262 O 391.842 0.950867 1.65418 0
M  V30 4263 C 388.982 2.10413 2.73533 0
M  V30 4264 C 388.095 3.38049 2.68974 0
M  V30 4265 C 387.23 3.52934 3.97002 0
M  V30 4266 C 386.269 4.74373 3.86829 0
M  V30 4267 N 385.406 4.8608 5.06627 0
M  V30 4268 H 390.246 2.76732 1.1056 0
M  V30 4269 H 387.783 1.37034 0.534805 0
M  V30 4270 H 389.741 2.22919 3.52652 0
M  V30 4271 H 388.371 1.22338 2.98719 0
M  V30 4272 H 387.423 3.3418 1.81736 0
M  V30 4273 H 388.735 4.27288 2.57346 0
M  V30 4274 H 387.889 3.65088 4.84557 0
M  V30 4275 H 386.628 2.61824 4.1146 0
M  V30 4276 H 385.633 4.62255 2.97658 0
M  V30 4277 H 386.858 5.66888 3.73918 0
M  V30 4278 H 384.804 3.97891 5.21554 0
M  V30 4279 H 384.721 5.69315 4.9741 0
M  V30 4280 H 385.989 5.02587 5.95841 0
M  V30 4281 N 390.218 -0.567019 1.47046 0
M  V30 4282 C 391.448 -1.34831 1.56538 0
M  V30 4283 C 391.856 -1.8802 0.21101 0
M  V30 4284 O 391.199 -1.65152 -0.804387 0
M  V30 4285 C 391.261 -2.56139 2.52256 0
M  V30 4286 C 390.925 -2.24307 3.98165 0
M  V30 4287 C 391.922 -1.82192 4.86931 0
M  V30 4288 C 389.607 -2.35968 4.43423 0
M  V30 4289 C 391.601 -1.52153 6.18973 0
M  V30 4290 C 389.288 -2.05542 5.75496 0
M  V30 4291 C 390.286 -1.63701 6.63092 0
M  V30 4292 O 389.974 -1.33657 7.92711 0
M  V30 4293 H 389.706 -0.417683 0.531523 0
M  V30 4294 H 392.26 -0.694726 1.93294 0
M  V30 4295 H 390.49 -3.24356 2.10548 0
M  V30 4296 H 392.179 -3.18214 2.51982 0
M  V30 4297 H 392.945 -1.72684 4.53217 0
M  V30 4298 H 388.824 -2.67495 3.75456 0
M  V30 4299 H 392.368 -1.19421 6.87302 0
M  V30 4300 H 388.265 -2.14679 6.08755 0
M  V30 4301 H 389.033 -1.4737 8.05124 0
M  V30 4302 N 391.696 -1.35014 -0.812953 0
M  V30 4303 C 392.643 -1.27412 -1.92444 0
M  V30 4304 C 393.613 -0.14733 -1.65445 0
M  V30 4305 O 394.798 -0.329974 -1.87925 0
M  V30 4306 C 391.938 -1.04558 -3.28879 0
M  V30 4307 C 391.051 -2.26101 -3.68106 0
M  V30 4308 C 390.186 -1.96449 -4.9354 0
M  V30 4309 C 389.225 -3.14081 -5.25376 0
M  V30 4310 N 388.362 -2.84246 -6.41988 0
M  V30 4311 H 393.202 -2.22463 -1.98278 0
M  V30 4312 H 390.739 -1.10593 -0.969933 0
M  V30 4313 H 392.697 -0.893413 -4.07522 0
M  V30 4314 H 391.327 -0.131719 -3.22531 0
M  V30 4315 H 390.379 -2.52204 -2.84775 0
M  V30 4316 H 391.691 -3.13959 -3.87597 0
M  V30 4317 H 390.845 -1.78026 -5.79993 0
M  V30 4318 H 389.584 -1.05867 -4.76071 0
M  V30 4319 H 388.589 -3.33089 -4.37415 0
M  V30 4320 H 389.814 -4.05455 -5.44778 0
M  V30 4321 H 387.76 -1.96252 -6.25956 0
M  V30 4322 H 387.677 -3.65637 -6.61699 0
M  V30 4323 H 388.945 -2.6935 -7.31485 0
M  V30 4324 N 393.175 1.03435 -1.18907 0
M  V30 4325 C 394.403 1.80381 -1.01342 0
M  V30 4326 C 394.818 1.83649 0.438005 0
M  V30 4327 O 394.175 1.27655 1.30424 0
M  V30 4328 C 394.226 3.25689 -1.56873 0
M  V30 4329 O 393.947 3.22673 -2.96334 0
M  V30 4330 C 395.448 4.19255 -1.44014 0
M  V30 4331 H 392.668 0.56784 -0.35749 0
M  V30 4332 H 395.212 1.30317 -1.576 0
M  V30 4333 H 393.367 3.72962 -1.04777 0
M  V30 4334 H 393.781 4.13748 -3.22355 0
M  V30 4335 H 395.255 5.19123 -1.87657 0
M  V30 4336 H 395.732 4.37467 -0.389815 0
M  V30 4337 H 396.338 3.77851 -1.95214 0
M  V30 4338 N 394.653 0.992116 1.22453 0
M  V30 4339 C 395.616 0.546883 2.2258 0
M  V30 4340 C 396.616 -0.369829 1.56489 0
M  V30 4341 O 397.806 -0.161896 1.73446 0
M  V30 4342 C 394.938 -0.204659 3.40285 0
M  V30 4343 H 396.131 1.43234 2.63484 0
M  V30 4344 H 393.684 0.779239 1.3549 0
M  V30 4345 H 394.419 -1.10614 3.04853 0
M  V30 4346 H 394.204 0.45354 3.89468 0
M  V30 4347 H 395.694 -0.504358 4.14543 0
M  V30 4348 N 396.131 -1.37776 0.765217 0
M  V30 4349 C 397.378 -1.99849 0.326588 0
M  V30 4350 C 397.706 -1.60746 -1.09504 0
M  V30 4351 O 396.961 -0.84202 -1.76659 0
M  V30 4352 C 397.26 -3.5504 0.410053 0
M  V30 4353 C 396.926 -4.13891 1.78899 0
M  V30 4354 C 395.588 -4.29678 2.16635 0
M  V30 4355 C 397.94 -4.46236 2.69301 0
M  V30 4356 C 395.268 -4.7511 3.44221 0
M  V30 4357 C 397.62 -4.93089 3.9629 0
M  V30 4358 C 396.284 -5.07082 4.34078 0
M  V30 4359 H 395.554 -0.7313 0.119507 0
M  V30 4360 H 398.201 -1.64645 0.977968 0
M  V30 4361 H 396.506 -3.90451 -0.324878 0
M  V30 4362 H 398.203 -4.00966 0.0520699 0
M  V30 4363 H 394.793 -4.02026 1.48569 0
M  V30 4364 H 398.977 -4.3363 2.41409 0
M  V30 4365 H 394.233 -4.84129 3.73402 0
M  V30 4366 H 398.407 -5.17084 4.66472 0
M  V30 4367 H 396.034 -5.42046 5.33001 0
M  V30 4368 N 397.609 -0.515225 -1.4894 0
M  V30 4369 C 398.839 0.0205735 -2.0659 0
M  V30 4370 C 399.247 1.30064 -1.37405 0
M  V30 4371 O 398.59 1.78087 -0.450632 0
M  V30 4372 C 398.652 0.330124 -3.57981 0
M  V30 4373 C 398.316 -0.854295 -4.48944 0
M  V30 4374 C 399.313 -1.7487 -4.89609 0
M  V30 4375 C 396.998 -1.05712 -4.9105 0
M  V30 4376 C 398.992 -2.82996 -5.71132 0
M  V30 4377 C 396.679 -2.14154 -5.72347 0
M  V30 4378 C 397.677 -3.0263 -6.12294 0
M  V30 4379 O 397.365 -4.09198 -6.91962 0
M  V30 4380 H 397.097 -0.0236833 -0.675585 0
M  V30 4381 H 399.651 -0.715956 -1.92518 0
M  V30 4382 H 397.881 1.12044 -3.70112 0
M  V30 4383 H 399.57 0.806233 -3.97812 0
M  V30 4384 H 400.336 -1.60388 -4.57712 0
M  V30 4385 H 396.215 -0.377788 -4.59449 0
M  V30 4386 H 399.759 -3.52083 -6.02232 0
M  V30 4387 H 395.656 -2.28626 -6.03656 0
M  V30 4388 H 396.424 -4.06726 -7.10293 0
M  V30 4389 N 399.087 1.5561 -0.249682 0
M  V30 4390 C 400.312 2.03865 0.381305 0
M  V30 4391 C 400.737 1.12769 1.50548 0
M  V30 4392 O 400.095 0.121189 1.80895 0
M  V30 4393 C 400.143 3.50101 0.863816 0
M  V30 4394 O 399.247 3.62132 1.97318 0
M  V30 4395 H 398.588 0.658827 0.0827194 0
M  V30 4396 H 401.118 2.01105 -0.376552 0
M  V30 4397 H 401.128 3.90975 1.1663 0
M  V30 4398 H 399.803 4.1588 0.0411816 0
M  V30 4399 H 398.38 3.33155 1.67517 0
M  V30 4400 N 400.565 -0.0233959 1.57583 0
M  V30 4401 C 401.812 -0.713063 1.8953 0
M  V30 4402 C 402.14 -1.75056 0.847673 0
M  V30 4403 O 401.395 -1.95119 -0.150636 0
M  V30 4404 C 401.694 -1.41428 3.28227 0
M  V30 4405 C 401.36 -0.512222 4.47981 0
M  V30 4406 C 400.022 -0.263785 4.80476 0
M  V30 4407 C 402.374 0.110248 5.21083 0
M  V30 4408 C 399.702 0.615804 5.83459 0
M  V30 4409 C 402.054 0.977573 6.25001 0
M  V30 4410 C 400.718 1.23542 6.55968 0
M  V30 4411 H 399.988 -0.260928 0.69354 0
M  V30 4412 H 402.635 0.0271047 1.91481 0
M  V30 4413 H 400.94 -2.22791 3.22291 0
M  V30 4414 H 402.637 -1.95355 3.50196 0
M  V30 4415 H 399.227 -0.716013 4.22577 0
M  V30 4416 H 403.411 -0.0687137 4.96252 0
M  V30 4417 H 398.667 0.82382 6.05824 0
M  V30 4418 H 402.841 1.46638 6.80786 0
M  V30 4419 H 400.468 1.91871 7.35588 0
M  V30 4420 N 402.043 -1.548 -0.295768 0
M  V30 4421 C 403.273 -1.78069 -1.04762 0
M  V30 4422 C 403.681 -0.542847 -1.81245 0
M  V30 4423 O 403.024 0.497051 -1.76848 0
M  V30 4424 C 403.086 -2.93881 -2.07061 0
M  V30 4425 C 402.75 -4.31777 -1.49725 0
M  V30 4426 C 403.747 -5.11613 -0.924581 0
M  V30 4427 C 401.432 -4.78389 -1.5313 0
M  V30 4428 C 403.426 -6.36184 -0.393594 0
M  V30 4429 C 401.113 -6.02921 -0.996447 0
M  V30 4430 C 402.111 -6.81654 -0.428569 0
M  V30 4431 O 401.799 -8.0384 0.0981593 0
M  V30 4432 H 401.531 -0.597475 -0.316226 0
M  V30 4433 H 404.085 -2.02584 -0.338973 0
M  V30 4434 H 402.315 -2.65003 -2.81621 0
M  V30 4435 H 404.004 -3.04679 -2.6819 0
M  V30 4436 H 404.77 -4.76743 -0.891136 0
M  V30 4437 H 400.649 -4.17132 -1.9627 0
M  V30 4438 H 404.193 -6.97582 0.0503014 0
M  V30 4439 H 400.09 -6.37277 -1.02706 0
M  V30 4440 H 400.858 -8.18499 -0.0146455 0
M  V30 4441 N 403.521 0.559213 -1.47345 0
M  V30 4442 C 404.451 1.67622 -1.62558 0
M  V30 4443 C 405.432 1.63331 -0.475087 0
M  V30 4444 O 406.617 1.80983 -0.704182 0
M  V30 4445 C 403.747 3.0626 -1.63774 0
M  V30 4446 C 402.701 3.25397 -2.7803 0
M  V30 4447 C 402.027 4.64801 -2.64318 0
M  V30 4448 C 403.327 3.10965 -4.19641 0
M  V30 4449 H 405.021 1.55146 -2.56067 0
M  V30 4450 H 402.567 0.744961 -1.23233 0
M  V30 4451 H 404.52 3.84247 -1.73008 0
M  V30 4452 H 403.244 3.1969 -0.66825 0
M  V30 4453 H 401.903 2.49817 -2.68304 0
M  V30 4454 H 401.551 4.75028 -1.65401 0
M  V30 4455 H 401.251 4.78555 -3.40968 0
M  V30 4456 H 402.775 5.44926 -2.75478 0
M  V30 4457 H 404.189 3.78772 -4.30354 0
M  V30 4458 H 402.586 3.36229 -4.97062 0
M  V30 4459 H 403.656 2.07736 -4.38148 0
M  V30 4460 N 404.999 1.35443 0.805782 0
M  V30 4461 C 406.41 1.25768 1.37983 0
M  V30 4462 C 406.761 -0.10958 1.95894 0
M  V30 4463 O 405.886 -1.01056 1.91355 0
M  V30 4464 C 406.481 2.27727 2.5085 0
M  V30 4465 C 405.04 2.2179 3.04115 0
M  V30 4466 C 404.187 2.13393 1.77084 0
M  V30 4467 H 407.138 1.4656 0.608752 0
M  V30 4468 H 407.159 1.90422 3.29424 0
M  V30 4469 H 406.671 3.27227 2.08671 0
M  V30 4470 H 404.772 1.25703 3.50756 0
M  V30 4471 H 404.885 3.13788 3.62042 0
M  V30 4472 H 403.249 1.59384 1.98668 0
M  V30 4473 H 404.032 3.14755 1.37056 0
M  V30 4474 N 406.477 -1.02803 1.19454 0
M  V30 4475 C 407.726 -1.7562 0.991996 0
M  V30 4476 C 408.039 -1.89672 -0.477901 0
M  V30 4477 O 409.245 -2.59468 -0.799287 0
M  V30 4478 C 407.701 -3.15812 1.72601 0
M  V30 4479 C 407.309 -3.0981 3.23607 0
M  V30 4480 C 409.053 -3.92918 1.60674 0
M  V30 4481 C 406.96 -4.44939 3.89594 0
M  V30 4482 H 405.89 -0.658352 0.367543 0
M  V30 4483 H 408.541 -1.15044 1.42959 0
M  V30 4484 H 406.923 -3.7686 1.21624 0
M  V30 4485 H 408.097 -2.58138 3.81709 0
M  V30 4486 H 406.412 -2.46201 3.35819 0
M  V30 4487 H 409.009 -4.9287 2.07323 0
M  V30 4488 H 409.352 -4.12502 0.561025 0
M  V30 4489 H 409.885 -3.38472 2.09001 0
M  V30 4490 H 406.624 -4.30559 4.94267 0
M  V30 4491 H 406.144 -4.96664 3.36281 0
M  V30 4492 H 407.823 -5.1382 3.93189 0
M  V30 4493 N 407.956 -0.998596 -1.21925 0
M  V30 4494 C 408.919 -0.558679 -2.22287 0
M  V30 4495 C 409.919 0.361525 -1.56683 0
M  V30 4496 O 411.109 0.152695 -1.73529 0
M  V30 4497 C 408.241 0.18661 -3.40389 0
M  V30 4498 H 409.434 -1.4463 -2.62721 0
M  V30 4499 H 406.987 -0.786413 -1.35075 0
M  V30 4500 H 407.722 1.08996 -3.05435 0
M  V30 4501 H 407.507 -0.474188 -3.89222 0
M  V30 4502 H 408.997 0.482367 -4.14805 0
M  V30 4503 N 409.434 1.37368 -0.772513 0
M  V30 4504 C 410.397 2.28601 -0.165541 0
M  V30 4505 C 411.397 1.48062 0.627238 0
M  V30 4506 O 412.587 1.68268 0.450715 0
M  V30 4507 C 409.719 3.32023 0.772897 0
M  V30 4508 H 410.912 2.83787 -0.969787 0
M  V30 4509 H 408.465 1.46647 -0.540775 0
M  V30 4510 H 409.2 2.81962 1.60212 0
M  V30 4511 H 408.985 3.91555 0.206585 0
M  V30 4512 H 410.475 4.00197 1.19298 0
M  V30 4513 N 410.912 0.523116 1.48665 0
M  V30 4514 C 411.875 -0.232592 2.28017 0
M  V30 4515 C 412.875 -0.874021 1.34972 0
M  V30 4516 O 414.065 -0.735132 1.57929 0
M  V30 4517 C 411.197 -1.33586 3.13636 0
M  V30 4518 H 412.39 0.464008 2.96289 0
M  V30 4519 H 409.943 0.278816 1.53793 0
M  V30 4520 H 410.678 -2.06593 2.4998 0
M  V30 4521 H 410.463 -0.881125 3.82071 0
M  V30 4522 H 411.953 -1.86759 3.73511 0
M  V30 4523 N 412.39 -1.55475 0.257931 0
M  V30 4524 C 413.323 -2.179 -0.677862 0
M  V30 4525 C 414.301 -1.13448 -1.16483 0
M  V30 4526 O 415.485 -1.41889 -1.24095 0
M  V30 4527 C 412.612 -2.78851 -1.92249 0
M  V30 4528 C 411.658 -3.96454 -1.57246 0
M  V30 4529 S 412.491 -5.31349 -0.665501 0
M  V30 4530 C 413.647 -5.9576 -1.91889 0
M  V30 4531 H 413.88 -2.96934 -0.147396 0
M  V30 4532 H 411.413 -1.54342 0.0423023 0
M  V30 4533 H 413.371 -3.14602 -2.63697 0
M  V30 4534 H 412.032 -1.99742 -2.42409 0
M  V30 4535 H 411.225 -4.37731 -2.49814 0
M  V30 4536 H 410.827 -3.62038 -0.938325 0
M  V30 4537 H 413.119 -6.13947 -2.86487 0
M  V30 4538 H 414.062 -6.9094 -1.54942 0
M  V30 4539 H 414.47 -5.2494 -2.076 0
M  V30 4540 N 413.868 0.0150385 -1.57593 0
M  V30 4541 C 415.098 0.713359 -1.93894 0
M  V30 4542 C 415.506 1.68663 -0.857289 0
M  V30 4543 O 414.849 1.82876 0.173788 0
M  V30 4544 C 414.911 1.51348 -3.26089 0
M  V30 4545 C 414.575 0.703451 -4.51554 0
M  V30 4546 C 415.572 -0.00237924 -5.199 0
M  V30 4547 C 413.257 0.653854 -4.98026 0
M  V30 4548 C 415.251 -0.746955 -6.33008 0
M  V30 4549 C 412.938 -0.0944578 -6.11027 0
M  V30 4550 C 413.936 -0.793609 -6.78374 0
M  V30 4551 O 413.624 -1.52974 -7.89211 0
M  V30 4552 H 413.356 0.204637 -0.644282 0
M  V30 4553 H 415.91 -0.0276411 -2.05381 0
M  V30 4554 H 414.14 2.29862 -3.10967 0
M  V30 4555 H 415.829 2.09572 -3.47612 0
M  V30 4556 H 416.595 0.0268803 -4.84993 0
M  V30 4557 H 412.474 1.18756 -4.45441 0
M  V30 4558 H 416.018 -1.2932 -6.85509 0
M  V30 4559 H 411.915 -0.125591 -6.45378 0
M  V30 4560 H 412.683 -1.44488 -8.05646 0
M  V30 4561 N 415.346 1.54954 0.287554 0
M  V30 4562 C 416.279 1.81737 1.3801 0
M  V30 4563 C 417.257 0.669412 1.48181 0
M  V30 4564 O 418.441 0.910839 1.65033 0
M  V30 4565 C 415.568 1.96606 2.75796 0
M  V30 4566 C 414.614 3.19098 2.82982 0
M  V30 4567 S 415.447 4.7683 2.43707 0
M  V30 4568 C 416.603 4.94653 3.83496 0
M  V30 4569 H 416.836 2.74122 1.15085 0
M  V30 4570 H 414.369 1.46538 0.486403 0
M  V30 4571 H 416.327 2.05858 3.55152 0
M  V30 4572 H 414.988 1.05136 2.95982 0
M  V30 4573 H 414.181 3.26344 3.84077 0
M  V30 4574 H 413.783 3.08361 2.11635 0
M  V30 4575 H 416.075 4.79502 4.78628 0
M  V30 4576 H 417.018 5.96728 3.8121 0
M  V30 4577 H 417.426 4.2272 3.74123 0
M  V30 4578 N 416.824 -0.551391 1.4764 0
M  V30 4579 C 417.787 -1.64007 1.60107 0
M  V30 4580 C 418.787 -1.53601 0.47576 0
M  V30 4581 O 419.977 -1.57655 0.740988 0
M  V30 4582 C 417.109 -3.03569 1.55108 0
M  V30 4583 H 418.302 -1.543 2.57161 0
M  V30 4584 H 415.855 -0.771776 1.35917 0
M  V30 4585 H 416.59 -3.18804 0.594519 0
M  V30 4586 H 416.375 -3.12532 2.36783 0
M  V30 4587 H 417.865 -3.82762 1.66982 0
M  V30 4588 N 418.302 -1.35869 -0.798587 0
M  V30 4589 C 419.55 -1.29332 -1.55298 0
M  V30 4590 C 419.871 0.129729 -1.94568 0
M  V30 4591 O 419.141 1.06796 -1.6423 0
M  V30 4592 H 417.721 -0.475737 -0.57592 0
M  V30 4593 H 420.383 -1.70062 -0.952093 0
M  V30 4594 H 419.479 -1.91458 -2.46476 0
M  V30 4595 N 419.78 1.02168 -1.19998 0
M  V30 4596 C 421.029 1.75091 -1.0013 0
M  V30 4597 C 421.342 1.89923 0.467835 0
M  V30 4598 O 422.548 2.59888 0.785515 0
M  V30 4599 C 421.004 3.14892 -1.74273 0
M  V30 4600 C 420.612 3.0809 -3.25245 0
M  V30 4601 C 422.356 3.9206 -1.62755 0
M  V30 4602 C 420.263 4.42867 -3.91948 0
M  V30 4603 H 419.193 0.656394 -0.37103 0
M  V30 4604 H 421.844 1.14284 -1.43567 0
M  V30 4605 H 420.226 3.7621 -1.2362 0
M  V30 4606 H 421.4 2.5611 -3.83072 0
M  V30 4607 H 419.715 2.44416 -3.3712 0
M  V30 4608 H 422.312 4.91764 -2.09934 0
M  V30 4609 H 422.655 4.12199 -0.582894 0
M  V30 4610 H 423.188 3.37359 -2.10793 0
M  V30 4611 H 419.927 4.27931 -4.96543 0
M  V30 4612 H 419.447 4.94874 -3.3891 0
M  V30 4613 H 421.126 5.11728 -3.95909 0
M  V30 4614 N 421.258 1.00505 1.21394 0
M  V30 4615 C 422.535 0.603277 1.86064 0
M  V30 4616 C 422.915 -0.919095 1.90042 0
M  V30 4617 O 422.263 -1.80607 1.39977 0
M  V30 4618 C 422.473 1.23772 3.26315 0
M  V30 4619 C 423.821 1.34586 4.02705 0
M  V30 4620 O 424.845 1.19304 3.35626 0
M  V30 4621 O 423.704 1.59169 5.22807 0
M  V30 4622 H 420.798 0.206634 0.800769 0
M  V30 4623 H 423.344 1.1017 1.29076 0
M  V30 4624 H 422.116 2.27848 3.18121 0
M  V30 4625 H 421.739 0.725648 3.90922 0
M  V30 4626 N 422.737 -1.36956 0.779787 0
M  V30 4627 C 423.985 -1.99097 0.347079 0
M  V30 4628 C 424.306 -1.62206 -1.08232 0
M  V30 4629 O 423.576 -0.891373 -1.74446 0
M  V30 4630 H 422.156 -0.736409 0.125342 0
M  V30 4631 H 424.818 -1.67308 0.999696 0
M  V30 4632 H 423.914 -3.09107 0.431162 0
M  V30 4633 N 424.215 -0.530993 -1.48385 0
M  V30 4634 C 425.125 0.23503 -2.3342 0
M  V30 4635 C 426.141 0.93801 -1.46552 0
M  V30 4636 O 427.317 0.912745 -1.7953 0
M  V30 4637 C 424.382 1.26778 -3.22689 0
M  V30 4638 C 423.443 0.575038 -4.25431 0
M  V30 4639 C 422.676 1.55858 -5.10435 0
M  V30 4640 O 422.899 2.79129 -4.97437 0
M  V30 4641 O 421.833 1.09742 -5.91811 0
M  V30 4642 H 425.659 -0.461794 -3.00169 0
M  V30 4643 H 423.244 -0.291903 -1.46521 0
M  V30 4644 H 425.126 1.86457 -3.77904 0
M  V30 4645 H 423.801 1.94699 -2.586 0
M  V30 4646 H 422.708 -0.0622782 -3.74048 0
M  V30 4647 H 424.041 -0.062253 -4.92161 0
M  V30 4648 N 425.693 1.55336 -0.266172 0
M  V30 4649 C 426.64 2.22172 0.625165 0
M  V30 4650 C 427.61 1.19211 1.15663 0
M  V30 4651 O 428.795 1.47723 1.20758 0
M  V30 4652 C 425.935 2.93972 1.8076 0
M  V30 4653 C 425.048 4.11632 1.31084 0
M  V30 4654 C 424.183 4.71099 2.45436 0
M  V30 4655 C 423.222 5.8097 1.92718 0
M  V30 4656 N 422.359 6.34538 3.00509 0
M  V30 4657 H 427.199 2.9796 0.0485582 0
M  V30 4658 H 424.736 1.47095 0.0122024 0
M  V30 4659 H 426.694 3.33811 2.50251 0
M  V30 4660 H 425.324 2.20623 2.35638 0
M  V30 4661 H 424.376 3.76975 0.509326 0
M  V30 4662 H 425.688 4.90893 0.884633 0
M  V30 4663 H 424.842 5.13612 3.22936 0
M  V30 4664 H 423.581 3.91096 2.91368 0
M  V30 4665 H 422.586 5.37916 1.13695 0
M  V30 4666 H 423.811 6.62836 1.47733 0
M  V30 4667 H 421.757 5.57433 3.45839 0
M  V30 4668 H 421.674 7.09046 2.62279 0
M  V30 4669 H 422.942 6.81709 3.78011 0
M  V30 4670 N 427.171 -0.0066808 1.57599 0
M  V30 4671 C 428.081 -1.01671 2.11424 0
M  V30 4672 C 429.097 -1.38143 1.05795 0
M  V30 4673 O 430.273 -1.47011 1.37658 0
M  V30 4674 C 427.338 -2.29192 2.60139 0
M  V30 4675 C 426.399 -1.99094 3.80342 0
M  V30 4676 C 425.632 -3.20535 4.26724 0
M  V30 4677 O 425.855 -4.3199 3.72479 0
M  V30 4678 O 424.789 -3.04924 5.18946 0
M  V30 4679 H 428.615 -0.589181 2.9793 0
M  V30 4680 H 426.2 -0.225091 1.47695 0
M  V30 4681 H 428.082 -3.0412 2.917 0
M  V30 4682 H 426.757 -2.71195 1.76733 0
M  V30 4683 H 425.664 -1.21663 3.53764 0
M  V30 4684 H 426.997 -1.61931 4.648 0
M  V30 4685 N 428.649 -1.55105 -0.279332 0
M  V30 4686 C 429.599 -1.83937 -1.34727 0
M  V30 4687 C 430.583 -0.69785 -1.44979 0
M  V30 4688 O 431.775 -0.95904 -1.48766 0
M  V30 4689 C 428.904 -2.1092 -2.70864 0
M  V30 4690 C 427.99 -3.31314 -2.64748 0
M  V30 4691 N 428.381 -4.51371 -2.2825 0
M  V30 4692 C 426.679 -3.33777 -2.95819 0
M  V30 4693 C 427.38 -5.33447 -2.31969 0
M  V30 4694 N 426.356 -4.71697 -2.7019 0
M  V30 4695 H 430.158 -2.74309 -1.05506 0
M  V30 4696 H 427.672 -1.54896 -0.487959 0
M  V30 4697 H 429.669 -2.2973 -3.47893 0
M  V30 4698 H 428.329 -1.21828 -3.00979 0
M  V30 4699 H 429.34 -4.77584 -2.00335 0
M  V30 4700 H 426.017 -2.54858 -3.30687 0
M  V30 4701 H 427.407 -6.39424 -2.06365 0
M  V30 4702 N 430.127 0.543554 -1.4793 0
M  V30 4703 C 431.09 1.63156 -1.60975 0
M  V30 4704 C 432.09 1.53346 -0.483899 0
M  V30 4705 O 433.28 1.5726 -0.749339 0
M  V30 4706 C 430.412 3.02743 -1.56716 0
M  V30 4707 H 431.605 1.52934 -2.57975 0
M  V30 4708 H 429.158 0.764557 -1.36324 0
M  V30 4709 H 429.893 3.18484 -0.611418 0
M  V30 4710 H 429.678 3.11272 -2.38438 0
M  V30 4711 H 431.168 3.81871 -1.6901 0
M  V30 4712 N 431.605 1.3629 0.791371 0
M  V30 4713 C 432.553 1.30514 1.92533 0
M  V30 4714 C 433.547 0.197285 1.68247 0
M  V30 4715 O 434.753 0.364176 1.76278 0
M  V30 4716 H 431.128 0.406263 0.632815 0
M  V30 4717 H 433.099 2.26282 1.94523 0
M  V30 4718 C 431.848 1.10933 3.29529 0
M  V30 4719 H 431.171 1.95427 3.48781 0
M  V30 4720 H 432.611 1.10937 4.0923 0
M  V30 4721 C 431.07 -0.186123 3.36385 0
M  V30 4722 O 431.6 -1.17664 3.84081 0
M  V30 4723 N 429.806 -0.230128 2.89687 0
M  V30 4724 H 429.353 0.576545 2.51065 0
M  V30 4725 H 429.311 -1.09658 2.94657 0
M  V30 4726 N 433.083 -1.0153 1.20538 0
M  V30 4727 C 434.046 -2.0826 0.957098 0
M  V30 4728 C 435.046 -1.60657 -0.0678655 0
M  V30 4729 O 436.236 -1.73385 0.168332 0
M  V30 4730 C 433.368 -3.38033 0.441188 0
M  V30 4731 H 434.561 -2.31719 1.90384 0
M  V30 4732 H 432.114 -1.1835 1.02093 0
M  V30 4733 H 432.849 -3.20249 -0.510961 0
M  V30 4734 H 432.634 -3.73911 1.18038 0
M  V30 4735 H 434.124 -4.16613 0.287009 0
M  V30 4736 N 434.561 -1.01147 -1.20859 0
M  V30 4737 C 435.508 -0.577354 -2.23462 0
M  V30 4738 C 436.478 0.399922 -1.61214 0
M  V30 4739 O 437.663 0.300515 -1.88419 0
M  V30 4740 C 434.803 0.083372 -3.44999 0
M  V30 4741 C 433.916 -0.937856 -4.21697 0
M  V30 4742 C 433.051 -0.248717 -5.30617 0
M  V30 4743 C 432.09 -1.25705 -5.99053 0
M  V30 4744 N 431.227 -0.594939 -6.99575 0
M  V30 4745 H 436.067 -1.45695 -2.59956 0
M  V30 4746 H 433.604 -0.729428 -1.27741 0
M  V30 4747 H 435.562 0.483535 -4.14388 0
M  V30 4748 H 434.192 0.926645 -3.09214 0
M  V30 4749 H 433.244 -1.45622 -3.51423 0
M  V30 4750 H 434.556 -1.70493 -4.68757 0
M  V30 4751 H 433.71 0.207215 -6.06346 0
M  V30 4752 H 432.449 0.55071 -4.84581 0
M  V30 4753 H 431.454 -1.72343 -5.2209 0
M  V30 4754 H 432.679 -2.05767 -6.47176 0
M  V30 4755 H 430.625 0.184713 -6.5574 0
M  V30 4756 H 430.542 -1.30017 -7.44736 0
M  V30 4757 H 431.81 -0.162427 -7.79331 0
M  V30 4758 N 436.039 1.36541 -0.78704 0
M  V30 4759 C 436.986 2.30082 -0.181901 0
M  V30 4760 C 437.956 1.5186 0.672896 0
M  V30 4761 O 439.141 1.80374 0.622072 0
M  V30 4762 C 436.281 3.3835 0.679197 0
M  V30 4763 C 435.394 4.31565 -0.193882 0
M  V30 4764 C 434.529 5.26915 0.673364 0
M  V30 4765 C 433.568 6.11769 -0.201315 0
M  V30 4766 N 432.705 6.99315 0.624777 0
M  V30 4767 H 437.545 2.81248 -0.985064 0
M  V30 4768 H 435.082 1.38437 -0.497342 0
M  V30 4769 H 437.04 3.99767 1.19341 0
M  V30 4770 H 435.67 2.8851 1.44781 0
M  V30 4771 H 434.722 3.71323 -0.826044 0
M  V30 4772 H 436.034 4.91191 -0.867937 0
M  V30 4773 H 435.188 5.9361 1.25348 0
M  V30 4774 H 433.927 4.67737 1.38105 0
M  V30 4775 H 432.932 5.44039 -0.793849 0
M  V30 4776 H 434.157 6.73022 -0.906568 0
M  V30 4777 H 432.103 6.42648 1.3168 0
M  V30 4778 H 432.02 7.56 0.00835237 0
M  V30 4779 H 433.288 7.70382 1.18879 0
M  V30 4780 N 437.518 0.538854 1.48102 0
M  V30 4781 C 438.767 0.0059532 2.01699 0
M  V30 4782 C 439.08 -1.34476 1.42041 0
M  V30 4783 O 440.286 -1.96653 1.87189 0
M  V30 4784 C 438.742 -0.0397627 3.59878 0
M  V30 4785 C 438.35 1.30659 4.28523 0
M  V30 4786 C 440.094 -0.521024 4.2129 0
M  V30 4787 C 438.001 1.22098 5.78659 0
M  V30 4788 H 436.931 -0.00154456 0.753998 0
M  V30 4789 H 439.582 0.683963 1.70277 0
M  V30 4790 H 437.964 -0.783037 3.88181 0
M  V30 4791 H 439.138 2.06613 4.11883 0
M  V30 4792 H 437.453 1.7243 3.79021 0
M  V30 4793 H 440.05 -0.603184 5.31287 0
M  V30 4794 H 440.393 -1.52885 3.8721 0
M  V30 4795 H 440.926 0.166834 3.9745 0
M  V30 4796 H 437.665 2.20424 6.17328 0
M  V30 4797 H 437.185 0.50295 5.97688 0
M  V30 4798 H 438.864 0.915345 6.40492 0
M  V30 4799 N 438.996 -1.55193 0.274407 0
M  V30 4800 C 439.926 -2.25471 -0.607032 0
M  V30 4801 C 440.907 -1.24461 -1.15946 0
M  V30 4802 O 442.092 -1.53179 -1.19373 0
M  V30 4803 C 439.222 -2.97526 -1.79153 0
M  V30 4804 C 438.176 -4.05459 -1.37067 0
M  V30 4805 C 437.502 -4.65084 -2.6382 0
M  V30 4806 C 438.802 -5.19691 -0.521389 0
M  V30 4807 H 440.496 -2.99393 -0.0209343 0
M  V30 4808 H 438.042 -1.43997 -0.00862866 0
M  V30 4809 H 439.995 -3.45402 -2.41404 0
M  V30 4810 H 438.719 -2.21138 -2.40344 0
M  V30 4811 H 437.378 -3.58393 -0.771355 0
M  V30 4812 H 437.026 -3.85365 -3.23268 0
M  V30 4813 H 436.726 -5.37961 -2.36372 0
M  V30 4814 H 438.25 -5.15708 -3.26921 0
M  V30 4815 H 439.664 -5.63623 -1.04889 0
M  V30 4816 H 438.061 -5.99126 -0.341825 0
M  V30 4817 H 439.131 -4.82713 0.46 0
M  V30 4818 N 440.474 -0.00167713 -1.576 0
M  V30 4819 C 441.404 0.988091 -2.11563 0
M  V30 4820 C 442.385 1.35736 -1.02517 0
M  V30 4821 O 443.57 1.44082 -1.30208 0
M  V30 4822 C 440.7 2.27941 -2.62031 0
M  V30 4823 C 439.654 2.0517 -3.75619 0
M  V30 4824 C 438.98 3.4033 -4.12407 0
M  V30 4825 C 440.28 1.41294 -5.02825 0
M  V30 4826 H 441.974 0.538771 -2.94513 0
M  V30 4827 H 439.52 0.257712 -1.41675 0
M  V30 4828 H 441.473 2.97539 -2.9841 0
M  V30 4829 H 440.197 2.74989 -1.76205 0
M  V30 4830 H 438.856 1.37998 -3.39635 0
M  V30 4831 H 438.504 3.85085 -3.23603 0
M  V30 4832 H 438.204 3.25909 -4.88935 0
M  V30 4833 H 439.728 4.1124 -4.51347 0
M  V30 4834 H 441.142 2.00851 -5.36965 0
M  V30 4835 H 439.539 1.37356 -5.84169 0
M  V30 4836 H 440.609 0.382362 -4.8339 0
M  V30 4837 N 441.952 1.55251 0.271103 0
M  V30 4838 C 442.862 1.9136 1.35714 0
M  V30 4839 C 443.878 0.811075 1.5394 0
M  V30 4840 O 445.054 1.11031 1.6803 0
M  V30 4841 C 442.119 2.1798 2.69603 0
M  V30 4842 C 441.18 3.4153 2.60107 0
M  V30 4843 C 440.413 3.66871 3.8761 0
M  V30 4844 O 440.636 2.94689 4.8838 0
M  V30 4845 O 439.57 4.60405 3.87699 0
M  V30 4846 H 443.396 2.83815 1.08088 0
M  V30 4847 H 440.981 1.41821 0.469792 0
M  V30 4848 H 442.863 2.36518 3.48765 0
M  V30 4849 H 441.538 1.28708 2.97012 0
M  V30 4850 H 440.445 3.28325 1.79314 0
M  V30 4851 H 441.778 4.31027 2.37647 0
M  V30 4852 N 443.43 -0.535701 1.48216 0
M  V30 4853 C 444.363 -1.65726 1.56876 0
M  V30 4854 C 445.341 -1.57094 0.419542 0
M  V30 4855 O 446.525 -1.77648 0.630352 0
M  V30 4856 C 443.652 -3.04096 1.49142 0
M  V30 4857 C 442.698 -3.31105 2.68834 0
M  V30 4858 S 443.531 -3.18001 4.30854 0
M  V30 4859 C 444.687 -4.58828 4.25709 0
M  V30 4860 H 444.92 -1.58129 2.51759 0
M  V30 4861 H 442.453 -0.718218 1.36678 0
M  V30 4862 H 444.411 -3.839 1.45366 0
M  V30 4863 H 443.072 -3.09139 0.556067 0
M  V30 4864 H 442.265 -4.32033 2.59545 0
M  V30 4865 H 441.867 -2.58961 2.69843 0
M  V30 4866 H 444.159 -5.5023 3.95289 0
M  V30 4867 H 445.102 -4.73172 5.26796 0
M  V30 4868 H 445.51 -4.37883 3.56257 0
M  V30 4869 N 444.908 -1.36708 -0.784132 0
M  V30 4870 C 446.156 -1.30972 -1.53918 0
M  V30 4871 C 446.477 0.109086 -1.94695 0
M  V30 4872 O 445.747 1.05048 -1.65353 0
M  V30 4873 H 444.327 -0.481819 -0.570841 0
M  V30 4874 H 446.989 -1.71063 -0.934002 0
M  V30 4875 H 446.085 -1.94061 -2.44431 0
M  V30 4876 N 446.386 1.0089 -1.21074 0
M  V30 4877 C 447.296 2.13039 -0.982425 0
M  V30 4878 C 448.312 1.73881 0.0642161 0
M  V30 4879 O 449.488 2.01012 -0.12496 0
M  V30 4880 C 446.553 3.42377 -0.545803 0
M  V30 4881 C 445.614 3.95731 -1.6642 0
M  V30 4882 C 444.847 5.18896 -1.24832 0
M  V30 4883 O 445.07 5.70273 -0.120265 0
M  V30 4884 O 444.004 5.65597 -2.05873 0
M  V30 4885 H 447.83 2.35175 -1.92163 0
M  V30 4886 H 445.415 1.1142 -0.995285 0
M  V30 4887 H 447.297 4.20244 -0.311912 0
M  V30 4888 H 445.972 3.21639 0.364727 0
M  V30 4889 H 444.879 3.19108 -1.95246 0
M  V30 4890 H 446.212 4.20872 -2.55201 0
M  V30 4891 N 447.864 1.01787 1.20321 0
M  V30 4892 C 449.111 0.707936 1.89722 0
M  V30 4893 C 449.439 -0.762535 1.78929 0
M  V30 4894 O 448.694 -1.56977 1.16861 0
M  V30 4895 C 448.993 1.09076 3.40349 0
M  V30 4896 C 448.659 2.55765 3.71342 0
M  V30 4897 C 447.321 2.95845 3.79511 0
M  V30 4898 C 449.673 3.50723 3.85542 0
M  V30 4899 C 447.001 4.2982 3.99339 0
M  V30 4900 C 449.353 4.84387 4.06881 0
M  V30 4901 C 448.017 5.24172 4.1328 0
M  V30 4902 H 447.287 0.259052 0.694243 0
M  V30 4903 H 449.934 1.27868 1.42555 0
M  V30 4904 H 448.239 0.438453 3.89339 0
M  V30 4905 H 449.936 0.828636 3.92345 0
M  V30 4906 H 446.526 2.2371 3.65584 0
M  V30 4907 H 450.71 3.20916 3.78585 0
M  V30 4908 H 445.966 4.60196 4.02529 0
M  V30 4909 H 450.14 5.57891 4.1681 0
M  V30 4910 H 447.767 6.27997 4.28396 0
M  V30 4911 N 449.342 -1.36122 0.79427 0
M  V30 4912 C 450.589 -1.99111 0.368905 0
M  V30 4913 C 450.917 -1.63032 -1.0607 0
M  V30 4914 O 450.172 -0.879303 -1.74833 0
M  V30 4915 C 450.471 -3.5409 0.48527 0
M  V30 4916 C 450.137 -4.10003 1.87638 0
M  V30 4917 C 448.799 -4.24986 2.257 0
M  V30 4918 C 451.151 -4.40423 2.78706 0
M  V30 4919 C 448.479 -4.67701 3.54221 0
M  V30 4920 C 450.831 -4.84573 4.0666 0
M  V30 4921 C 449.495 -4.97761 4.44737 0
M  V30 4922 H 448.765 -0.7286 0.134992 0
M  V30 4923 H 451.412 -1.62534 1.01267 0
M  V30 4924 H 449.717 -3.91052 -0.241984 0
M  V30 4925 H 451.414 -4.00766 0.137109 0
M  V30 4926 H 448.004 -3.98784 1.57064 0
M  V30 4927 H 452.188 -4.28412 2.50553 0
M  V30 4928 H 447.444 -4.761 3.83587 0
M  V30 4929 H 451.618 -5.07074 4.77336 0
M  V30 4930 H 449.245 -5.30618 5.44379 0
M  V30 4931 N 450.82 -0.546701 -1.47814 0
M  V30 4932 C 451.752 0.244196 -2.27895 0
M  V30 4933 C 452.765 0.88911 -1.36377 0
M  V30 4934 O 453.954 0.764733 -1.61289 0
M  V30 4935 C 451.054 1.36252 -3.10304 0
M  V30 4936 C 450.227 0.816382 -4.29714 0
M  V30 4937 C 449.286 1.81789 -4.93801 0
M  V30 4938 O 448.312 1.36818 -5.52512 0
M  V30 4939 N 449.514 3.15085 -4.87547 0
M  V30 4940 H 452.279 -0.442694 -2.96412 0
M  V30 4941 H 449.84 -0.382095 -1.57327 0
M  V30 4942 H 451.832 2.03102 -3.50045 0
M  V30 4943 H 450.402 1.95281 -2.44099 0
M  V30 4944 H 449.622 -0.0285981 -3.9419 0
M  V30 4945 H 450.91 0.430668 -5.06974 0
M  V30 4946 H 450.308 3.54275 -4.41028 0
M  V30 4947 H 448.865 3.77522 -5.31339 0
M  V30 4948 N 452.299 1.55045 -0.282633 0
M  V30 4949 C 453.548 1.98938 0.332667 0
M  V30 4950 C 453.861 1.17455 1.56409 0
M  V30 4951 O 455.067 1.51527 2.25282 0
M  V30 4952 C 453.523 3.54105 0.643226 0
M  V30 4953 C 453.131 4.44374 -0.568814 0
M  V30 4954 C 454.875 4.06569 1.22074 0
M  V30 4955 C 452.782 5.90943 -0.232426 0
M  V30 4956 H 451.712 0.743043 0.128075 0
M  V30 4957 H 454.363 1.79341 -0.388464 0
M  V30 4958 H 452.745 3.69532 1.42346 0
M  V30 4959 H 453.919 4.40718 -1.34551 0
M  V30 4960 H 452.234 4.02585 -1.06369 0
M  V30 4961 H 454.831 5.13626 1.48635 0
M  V30 4962 H 455.174 3.56057 2.15707 0
M  V30 4963 H 455.707 3.94612 0.502621 0
M  V30 4964 H 452.446 6.45567 -1.13683 0
M  V30 4965 H 451.966 5.9765 0.507357 0
M  V30 4966 H 453.645 6.4677 0.172657 0
M  V30 4967 N 453.777 0.010035 1.57597 0
M  V30 4968 C 454.709 -1.00649 2.05918 0
M  V30 4969 C 455.722 -1.30077 0.978964 0
M  V30 4970 O 456.911 -1.26878 1.25556 0
M  V30 4971 C 454.011 -2.33876 2.45265 0
M  V30 4972 C 453.184 -2.23242 3.7614 0
M  V30 4973 C 452.243 -3.39242 4.02245 0
M  V30 4974 O 451.269 -3.1698 4.72771 0
M  V30 4975 N 452.471 -4.6242 3.50924 0
M  V30 4976 H 455.236 -0.594333 2.93748 0
M  V30 4977 H 452.797 -0.17714 1.60928 0
M  V30 4978 H 454.789 -3.1027 2.59836 0
M  V30 4979 H 453.359 -2.66799 1.62902 0
M  V30 4980 H 452.579 -1.31696 3.71551 0
M  V30 4981 H 453.867 -2.13321 4.61922 0
M  V30 4982 H 453.265 -4.83404 2.93832 0
M  V30 4983 H 451.822 -5.36046 3.70807 0
M  V30 4984 N 455.255 -1.55392 -0.262866 0
M  V30 4985 C 456.532 -1.67204 -1.01499 0
M  V30 4986 C 456.912 -0.545186 -2.03939 0
M  V30 4987 O 456.26 0.453467 -2.23955 0
M  V30 4988 C 456.47 -3.06847 -1.6627 0
M  V30 4989 C 457.818 -3.64928 -2.17054 0
M  V30 4990 O 458.842 -3.09545 -1.76239 0
M  V30 4991 O 457.701 -4.61984 -2.91947 0
M  V30 4992 H 454.795 -0.679467 -0.471438 0
M  V30 4993 H 457.341 -1.67729 -0.257918 0
M  V30 4994 H 456.113 -3.80309 -0.920915 0
M  V30 4995 H 455.736 -3.10266 -2.48638 0
M  V30 4996 N 456.733 0.527833 -1.48498 0
M  V30 4997 C 458.01 1.28905 -1.47115 0
M  V30 4998 C 458.39 2.10297 -0.184007 0
M  V30 4999 O 457.738 2.12728 0.834218 0
M  V30 5000 C 457.948 2.16866 -2.73441 0
M  V30 5001 C 459.296 2.76936 -3.21857 0
M  V30 5002 O 460.32 2.27152 -2.74373 0
M  V30 5003 O 459.179 3.67496 -4.04486 0
M  V30 5004 H 456.273 0.581918 -0.587623 0
M  V30 5005 H 458.819 0.544311 -1.60734 0
M  V30 5006 H 457.591 1.56521 -3.58632 0
M  V30 5007 H 457.214 2.98583 -2.62553 0
M  V30 5008 N 458.211 1.37122 0.776871 0
M  V30 5009 C 459.441 1.35034 1.56363 0
M  V30 5010 C 459.849 -0.0674681 1.8908 0
M  V30 5011 O 459.192 -1.03826 1.51545 0
M  V30 5012 C 459.254 2.11894 2.90415 0
M  V30 5013 C 458.918 3.60897 2.80362 0
M  V30 5014 C 459.915 4.54887 2.51742 0
M  V30 5015 C 457.6 4.03951 2.98545 0
M  V30 5016 C 459.594 5.89909 2.41426 0
M  V30 5017 C 457.281 5.3906 2.87849 0
M  V30 5018 C 458.279 6.31852 2.5933 0
M  V30 5019 O 457.967 7.64479 2.48651 0
M  V30 5020 H 457.699 0.464402 0.49123 0
M  V30 5021 H 460.253 1.80992 0.971127 0
M  V30 5022 H 458.483 1.60618 3.51765 0
M  V30 5023 H 460.172 2.02505 3.51776 0
M  V30 5024 H 460.938 4.22934 2.37385 0
M  V30 5025 H 456.817 3.3209 3.19746 0
M  V30 5026 H 460.361 6.62304 2.19086 0
M  V30 5027 H 456.258 5.70617 3.01773 0
M  V30 5028 H 457.026 7.74742 2.64039 0
M  V30 5029 N 459.689 -1.00246 1.21608 0
M  V30 5030 C 460.619 -2.10921 1.00172 0
M  V30 5031 C 461.6 -1.69938 -0.0741587 0
M  V30 5032 O 462.785 -1.94009 0.0861753 0
M  V30 5033 C 459.915 -3.42618 0.568355 0
M  V30 5034 C 458.869 -3.97407 1.58909 0
M  V30 5035 C 458.195 -5.25038 1.01187 0
M  V30 5036 C 459.495 -4.2918 2.97661 0
M  V30 5037 H 461.189 -2.29112 1.92739 0
M  V30 5038 H 458.735 -1.10101 0.928102 0
M  V30 5039 H 460.688 -4.19444 0.405555 0
M  V30 5040 H 459.412 -3.24227 -0.392961 0
M  V30 5041 H 458.071 -3.22703 1.73949 0
M  V30 5042 H 457.719 -5.02982 0.0421965 0
M  V30 5043 H 457.419 -5.62661 1.6937 0
M  V30 5044 H 458.943 -6.04507 0.860448 0
M  V30 5045 H 460.357 -4.96839 2.86049 0
M  V30 5046 H 458.754 -4.77952 3.6288 0
M  V30 5047 H 459.824 -3.3735 3.48315 0
M  V30 5048 N 461.167 -1.02423 -1.1978 0
M  V30 5049 C 462.444 -0.632802 -1.85081 0
M  V30 5050 C 462.824 0.888745 -1.9148 0
M  V30 5051 O 462.172 1.78357 -1.42832 0
M  V30 5052 C 462.382 -1.28947 -3.24305 0
M  V30 5053 C 463.73 -1.40976 -4.00513 0
M  V30 5054 O 464.754 -1.24628 -3.33686 0
M  V30 5055 O 463.613 -1.67467 -5.20209 0
M  V30 5056 H 460.707 -0.219348 -0.79738 0
M  V30 5057 H 463.253 -1.12209 -1.27307 0
M  V30 5058 H 462.025 -2.3288 -3.14456 0
M  V30 5059 H 461.648 -0.787748 -3.89718 0
M  V30 5060 N 462.645 1.35699 -0.801477 0
M  V30 5061 C 463.575 2.32436 -0.222658 0
M  V30 5062 C 464.556 1.5723 0.649057 0
M  V30 5063 O 465.741 1.85324 0.580387 0
M  V30 5064 C 462.871 3.41469 0.633719 0
M  V30 5065 C 461.825 4.27774 -0.139083 0
M  V30 5066 C 461.151 5.28082 0.838666 0
M  V30 5067 C 462.451 5.04946 -1.33517 0
M  V30 5068 H 464.145 2.81094 -1.03086 0
M  V30 5069 H 461.691 1.35146 -0.497155 0
M  V30 5070 H 463.644 4.08143 1.04868 0
M  V30 5071 H 462.368 2.91408 1.47475 0
M  V30 5072 H 461.027 3.62673 -0.535156 0
M  V30 5073 H 460.675 4.7429 1.67506 0
M  V30 5074 H 460.375 5.86695 0.32594 0
M  V30 5075 H 461.899 5.97628 1.25194 0
M  V30 5076 H 463.313 5.64593 -0.995349 0
M  V30 5077 H 461.71 5.7303 -1.78202 0
M  V30 5078 H 462.78 4.35886 -2.12442 0
M  V30 5079 N 464.123 0.554532 1.47522 0
M  V30 5080 C 465.37 0.029479 2.02479 0
M  V30 5081 C 465.698 -1.31929 1.42916 0
M  V30 5082 O 464.953 -1.87112 0.573385 0
M  V30 5083 C 465.252 -0.115927 3.57212 0
M  V30 5084 C 464.918 1.16161 4.3568 0
M  V30 5085 C 463.58 1.51168 4.56839 0
M  V30 5086 C 465.932 2.0083 4.80954 0
M  V30 5087 C 463.26 2.70696 5.2052 0
M  V30 5088 C 465.612 3.19559 5.45953 0
M  V30 5089 C 464.276 3.54882 5.65345 0
M  V30 5090 H 463.546 0.0107871 0.740921 0
M  V30 5091 H 466.193 0.725506 1.77225 0
M  V30 5092 H 464.498 -0.894902 3.81443 0
M  V30 5093 H 466.195 -0.53749 3.97381 0
M  V30 5094 H 462.785 0.879026 4.19489 0
M  V30 5095 H 466.969 1.75093 4.64388 0
M  V30 5096 H 462.225 2.98236 5.33728 0
M  V30 5097 H 466.399 3.85456 5.79997 0
M  V30 5098 H 464.026 4.47596 6.1446 0
M  V30 5099 N 465.601 -1.54893 0.290851 0
M  V30 5100 C 466.849 -1.99538 -0.320756 0
M  V30 5101 C 467.17 -1.18075 -1.55188 0
M  V30 5102 O 466.44 -0.274162 -1.93972 0
M  V30 5103 H 465.02 -0.737052 -0.121507 0
M  V30 5104 H 467.682 -1.90755 0.399832 0
M  V30 5105 H 466.778 -3.06282 -0.599802 0
M  V30 5106 N 467.08 -0.0183926 -1.57589 0
M  V30 5107 C 468.357 0.700621 -1.82622 0
M  V30 5108 C 468.737 1.90951 -0.90005 0
M  V30 5109 O 468.085 2.28452 0.0469145 0
M  V30 5110 C 468.295 1.08899 -3.31575 0
M  V30 5111 C 469.643 1.48514 -3.9778 0
M  V30 5112 O 470.667 1.18227 -3.36007 0
M  V30 5113 O 469.526 2.04903 -5.06633 0
M  V30 5114 H 466.62 0.342743 -0.752633 0
M  V30 5115 H 469.166 -0.0452548 -1.6964 0
M  V30 5116 H 467.938 0.228113 -3.90635 0
M  V30 5117 H 467.561 1.89338 -3.49624 0
M  V30 5118 N 468.558 1.5553 0.254621 0
M  V30 5119 C 469.969 1.67518 0.824286 0
M  V30 5120 C 470.32 0.614429 1.86331 0
M  V30 5121 O 469.445 -0.240736 2.15057 0
M  V30 5122 C 470.04 3.03692 1.50189 0
M  V30 5123 C 468.599 3.17646 2.01935 0
M  V30 5124 C 467.746 2.63373 0.867746 0
M  V30 5125 H 470.697 1.58671 0.0305843 0
M  V30 5126 H 470.718 2.97706 2.36962 0
M  V30 5127 H 470.23 3.80874 0.745431 0
M  V30 5128 H 468.331 2.45273 2.80485 0
M  V30 5129 H 468.444 4.24455 2.22204 0
M  V30 5130 H 466.808 2.20999 1.26616 0
M  V30 5131 H 467.591 3.43074 0.124498 0
M  V30 5132 N 470.036 -0.519951 1.48776 0
M  V30 5133 C 471.261 -1.30447 1.6124 0
M  V30 5134 C 471.686 -1.86055 0.276591 0
M  V30 5135 O 471.044 -1.64915 -0.753183 0
M  V30 5136 C 471.092 -2.42406 2.66967 0
M  V30 5137 O 470.196 -3.45728 2.24824 0
M  V30 5138 H 469.537 -0.385924 0.540332 0
M  V30 5139 H 472.067 -0.624572 1.94834 0
M  V30 5140 H 472.077 -2.88447 2.88552 0
M  V30 5141 H 470.752 -2.01294 3.63941 0
M  V30 5142 H 469.329 -3.05737 2.13494 0
M  V30 5143 N 471.514 -1.37532 -0.769588 0
M  V30 5144 C 472.76 -1.33057 -1.53048 0
M  V30 5145 C 473.093 0.0841865 -1.94017 0
M  V30 5146 O 472.368 1.04198 -1.64235 0
M  V30 5147 C 472.651 -2.27166 -2.79406 0
M  V30 5148 C 472.504 -3.77429 -2.44677 0
M  V30 5149 C 473.823 -2.19683 -3.81349 0
M  V30 5150 H 470.942 -0.484655 -0.555228 0
M  V30 5151 H 473.584 -1.68251 -0.882702 0
M  V30 5152 H 471.734 -1.97283 -3.34682 0
M  V30 5153 H 473.406 -4.17918 -1.953 0
M  V30 5154 H 471.649 -3.95892 -1.77346 0
M  V30 5155 H 472.32 -4.38716 -3.35011 0
M  V30 5156 H 474.796 -2.46029 -3.35573 0
M  V30 5157 H 473.672 -2.87668 -4.67481 0
M  V30 5158 H 473.933 -1.19045 -4.25771 0
M  V30 5159 N 472.992 0.995999 -1.22138 0
M  V30 5160 C 474.22 1.77066 -1.07029 0
M  V30 5161 C 474.635 1.8495 0.379357 0
M  V30 5162 O 473.992 1.3174 1.26297 0
M  V30 5163 C 474.043 3.20533 -1.67155 0
M  V30 5164 O 473.764 3.13082 -3.06449 0
M  V30 5165 C 475.265 4.14461 -1.5728 0
M  V30 5166 H 472.485 0.556179 -0.375374 0
M  V30 5167 H 475.029 1.25238 -1.61666 0
M  V30 5168 H 473.184 3.6944 -1.16589 0
M  V30 5169 H 473.598 4.03283 -3.35355 0
M  V30 5170 H 475.072 5.1289 -2.04078 0
M  V30 5171 H 475.549 4.36005 -0.528795 0
M  V30 5172 H 476.155 3.71449 -2.07136 0
M  V30 5173 N 474.47 1.03057 1.19235 0
M  V30 5174 C 475.718 0.726581 1.88587 0
M  V30 5175 C 476.039 -0.747227 1.80115 0
M  V30 5176 O 475.309 -1.53849 1.21274 0
M  V30 5177 H 473.889 0.265768 0.698124 0
M  V30 5178 H 476.551 1.30516 1.44746 0
M  V30 5179 H 475.647 1.0224 2.94879 0
M  V30 5180 N 475.948 -1.35272 0.808662 0
M  V30 5181 C 476.895 -2.29764 0.218482 0
M  V30 5182 C 477.865 -1.52911 -0.648652 0
M  V30 5183 O 479.05 -1.81341 -0.593297 0
M  V30 5184 C 476.19 -3.39388 -0.625282 0
M  V30 5185 C 475.303 -4.31202 0.262516 0
M  V30 5186 C 474.438 -5.27919 -0.589451 0
M  V30 5187 C 473.477 -6.11371 0.298617 0
M  V30 5188 N 472.614 -7.0022 -0.513443 0
M  V30 5189 H 477.454 -2.79645 1.02968 0
M  V30 5190 H 474.991 -1.37629 0.519303 0
M  V30 5191 H 476.949 -4.01615 -1.12966 0
M  V30 5192 H 475.579 -2.90777 -1.40173 0
M  V30 5193 H 474.631 -3.69962 0.885013 0
M  V30 5194 H 475.943 -4.89748 0.945971 0
M  V30 5195 H 475.097 -5.95529 -1.15888 0
M  V30 5196 H 473.836 -4.69875 -1.30647 0
M  V30 5197 H 472.841 -5.42707 0.880301 0
M  V30 5198 H 474.066 -6.71494 1.01352 0
M  V30 5199 H 472.012 -6.44662 -1.21439 0
M  V30 5200 H 471.929 -7.55917 0.111922 0
M  V30 5201 H 473.197 -7.72175 -1.06608 0
M  V30 5202 N 477.426 -0.562348 -1.47226 0
M  V30 5203 C 478.675 -0.038041 -2.01664 0
M  V30 5204 C 478.988 1.32199 -1.44162 0
M  V30 5205 O 480.194 1.9365 -1.90294 0
M  V30 5206 C 478.65 -0.0174958 -3.59896 0
M  V30 5207 C 478.258 -1.3746 -4.2639 0
M  V30 5208 C 480.002 0.453934 -4.22066 0
M  V30 5209 C 477.909 -1.31289 -5.76643 0
M  V30 5210 H 476.839 -0.0104511 -0.753928 0
M  V30 5211 H 479.49 -0.710966 -1.69167 0
M  V30 5212 H 477.872 0.721182 -3.89378 0
M  V30 5213 H 479.046 -2.1314 -4.08544 0
M  V30 5214 H 477.361 -1.78438 -3.7623 0
M  V30 5215 H 479.958 0.518584 -5.32179 0
M  V30 5216 H 480.301 1.46706 -3.89594 0
M  V30 5217 H 480.834 -0.230044 -3.97134 0
M  V30 5218 H 477.573 -2.30217 -6.13743 0
M  V30 5219 H 477.093 -0.597973 -5.96812 0
M  V30 5220 H 478.772 -1.01713 -6.38955 0
M  V30 5221 N 478.904 1.54736 -0.299062 0
M  V30 5222 C 480.152 1.99706 0.31017 0
M  V30 5223 C 480.473 1.18896 1.54559 0
M  V30 5224 O 479.743 0.284445 1.93824 0
M  V30 5225 H 478.323 0.737686 0.117596 0
M  V30 5226 H 480.985 1.9054 -0.409943 0
M  V30 5227 H 480.081 3.06596 0.58355 0
M  V30 5228 N 480.382 0.0267497 1.57577 0
M  V30 5229 C 481.61 -0.662661 1.96001 0
M  V30 5230 C 482.025 -1.65799 0.903117 0
M  V30 5231 O 481.382 -1.82135 -0.115317 0
M  V30 5232 C 481.433 -1.37112 3.34488 0
M  V30 5233 O 481.154 -0.415683 4.36123 0
M  V30 5234 C 482.655 -2.15257 3.8753 0
M  V30 5235 H 479.875 -0.18287 0.6456 0
M  V30 5236 H 482.419 0.0858116 2.0432 0
M  V30 5237 H 480.574 -2.07101 3.27395 0
M  V30 5238 H 480.988 -0.918496 5.16395 0
M  V30 5239 H 482.462 -2.60285 4.86781 0
M  V30 5240 H 482.939 -2.99063 3.21649 0
M  V30 5241 H 483.545 -1.50231 3.97883 0
M  V30 5242 N 481.861 -1.55662 -0.24637 0
M  V30 5243 C 483.138 -1.68272 -0.997198 0
M  V30 5244 C 483.518 -0.566785 -2.03349 0
M  V30 5245 O 482.866 0.429688 -2.24424 0
M  V30 5246 C 483.076 -3.08594 -1.63006 0
M  V30 5247 C 484.424 -3.6721 -2.13171 0
M  V30 5248 O 485.448 -3.11397 -1.72946 0
M  V30 5249 O 484.307 -4.65054 -2.87031 0
M  V30 5250 H 481.401 -0.684429 -0.464205 0
M  V30 5251 H 483.947 -1.67993 -0.240114 0
M  V30 5252 H 482.719 -3.81264 -0.880527 0
M  V30 5253 H 482.342 -3.12886 -2.45333 0
M  V30 5254 N 483.339 0.512053 -1.4905 0
M  V30 5255 C 484.588 1.26343 -1.57227 0
M  V30 5256 C 484.901 1.93876 -0.259155 0
M  V30 5257 O 486.107 2.70612 -0.219358 0
M  V30 5258 C 484.563 2.29343 -2.77362 0
M  V30 5259 C 484.171 1.67799 -4.15388 0
M  V30 5260 C 485.915 3.05378 -2.94864 0
M  V30 5261 C 483.822 2.68845 -5.2676 0
M  V30 5262 H 482.752 0.475231 -0.585382 0
M  V30 5263 H 485.403 0.53862 -1.75417 0
M  V30 5264 H 483.785 3.04938 -2.52643 0
M  V30 5265 H 484.959 0.982715 -4.50199 0
M  V30 5266 H 483.274 1.04194 -4.03153 0
M  V30 5267 H 485.871 3.80921 -3.75238 0
M  V30 5268 H 486.214 3.62327 -2.05 0
M  V30 5269 H 486.747 2.36898 -3.19569 0
M  V30 5270 H 483.486 2.16692 -6.18647 0
M  V30 5271 H 483.006 3.36647 -4.96416 0
M  V30 5272 H 484.685 3.31487 -5.5563 0
M  V30 5273 N 484.817 1.37938 0.762283 0
M  V30 5274 C 485.749 1.30349 1.88525 0
M  V30 5275 C 486.762 0.217402 1.61342 0
M  V30 5276 O 487.951 0.474291 1.72084 0
M  V30 5277 C 485.051 0.994844 3.23969 0
M  V30 5278 C 484.224 2.18829 3.78725 0
M  V30 5279 C 483.283 1.84844 4.92665 0
M  V30 5280 O 482.309 2.57244 5.07754 0
M  V30 5281 N 483.511 0.798201 5.74986 0
M  V30 5282 H 486.276 2.27114 1.95549 0
M  V30 5283 H 483.837 1.31686 0.941825 0
M  V30 5284 H 485.829 0.748168 3.97724 0
M  V30 5285 H 484.399 0.115446 3.12387 0
M  V30 5286 H 483.619 2.59615 2.96637 0
M  V30 5287 H 484.907 2.98497 4.1204 0
M  V30 5288 H 484.305 0.197611 5.65355 0
M  V30 5289 H 482.862 0.611396 6.48926 0
M  V30 5290 N 486.295 -0.989507 1.22664 0
M  V30 5291 C 487.572 -1.70326 0.961688 0
M  V30 5292 C 487.952 -2.04537 -0.522279 0
M  V30 5293 O 487.3 -1.73136 -1.49118 0
M  V30 5294 C 487.51 -2.95135 1.86269 0
M  V30 5295 C 488.858 -3.67842 2.12078 0
M  V30 5296 O 489.882 -3.0515 1.83745 0
M  V30 5297 O 488.741 -4.80644 2.60083 0
M  V30 5298 H 485.835 -0.743589 0.361946 0
M  V30 5299 H 488.381 -1.04555 1.33665 0
M  V30 5300 H 487.153 -2.66382 2.8663 0
M  V30 5301 H 486.776 -3.68645 1.48952 0
M  V30 5302 N 487.773 -1.03688 -1.18687 0
M  V30 5303 C 488.721 -0.618292 -2.24232 0
M  V30 5304 C 489.715 0.353045 -1.6568 0
M  V30 5305 O 490.921 0.220749 -1.78641 0
M  V30 5306 H 487.296 -0.181711 -0.729716 0
M  V30 5307 H 489.267 -1.51893 -2.56848 0
M  V30 5308 C 488.016 0.00677342 -3.47699 0
M  V30 5309 H 487.339 -0.731692 -3.93047 0
M  V30 5310 H 488.779 0.262492 -4.23187 0
M  V30 5311 C 487.238 1.25572 -3.12623 0
M  V30 5312 O 487.768 2.34691 -3.26011 0
M  V30 5313 N 485.974 1.14755 -2.66982 0
M  V30 5314 H 485.521 0.259601 -2.56289 0
M  V30 5315 H 485.479 1.98412 -2.43885 0
M  V30 5316 N 489.251 1.34841 -0.815825 0
M  V30 5317 C 490.198 2.29644 -0.230664 0
M  V30 5318 C 491.168 1.53253 0.640533 0
M  V30 5319 O 492.353 1.81653 0.583672 0
M  V30 5320 C 489.493 3.39715 0.607275 0
M  V30 5321 C 488.606 4.31056 -0.28538 0
M  V30 5322 C 487.741 5.28225 0.561446 0
M  V30 5323 C 486.78 6.11204 -0.331035 0
M  V30 5324 N 485.917 7.00483 0.476302 0
M  V30 5325 H 490.757 2.79095 -1.0445 0
M  V30 5326 H 488.294 1.37351 -0.526595 0
M  V30 5327 H 490.252 4.02208 1.10835 0
M  V30 5328 H 488.882 2.91517 1.38629 0
M  V30 5329 H 487.934 3.69487 -0.904621 0
M  V30 5330 H 489.246 4.89239 -0.97193 0
M  V30 5331 H 488.4 5.96135 1.12728 0
M  V30 5332 H 487.139 4.70562 1.28153 0
M  V30 5333 H 486.144 5.42232 -0.909069 0
M  V30 5334 H 487.369 6.70947 -1.04912 0
M  V30 5335 H 485.315 6.45296 1.18019 0
M  V30 5336 H 485.232 7.55847 -0.152008 0
M  V30 5337 H 486.5 7.7273 1.02512 0
M  V30 5338 N 490.729 0.570148 1.46925 0
M  V30 5339 C 491.969 0.0534743 2.0433 0
M  V30 5340 C 492.333 -1.27729 1.4335 0
M  V30 5341 O 493.534 -1.88244 1.91879 0
M  V30 5342 C 491.805 -0.0244296 3.57392 0
M  V30 5343 S 493.364 -0.485351 4.36108 0
M  V30 5344 H 490.182 0.0313908 0.710307 0
M  V30 5345 H 492.784 0.759808 1.80131 0
M  V30 5346 H 491.488 0.948261 3.99295 0
M  V30 5347 H 491.019 -0.753922 3.86108 0
M  V30 5348 H 493.034 -1.74258 4.64595 0
M  V30 5349 N 492.207 -1.54576 0.307264 0
M  V30 5350 C 493.432 -2.05139 -0.305379 0
M  V30 5351 C 493.857 -1.18278 -1.46259 0
M  V30 5352 O 493.215 -0.188243 -1.8032 0
M  V30 5353 C 493.263 -3.53066 -0.733283 0
M  V30 5354 O 492.367 -3.69206 -1.83741 0
M  V30 5355 H 491.708 -0.661444 -0.0582105 0
M  V30 5356 H 494.238 -1.99569 0.450931 0
M  V30 5357 H 494.248 -3.95034 -1.02039 0
M  V30 5358 H 492.923 -4.15746 0.113198 0
M  V30 5359 H 491.5 -3.39143 -1.55037 0
M  V30 5360 N 493.685 -0.035106 -1.57561 0
M  V30 5361 C 494.931 0.637362 -1.93156 0
M  V30 5362 C 495.286 1.69391 -0.912392 0
M  V30 5363 O 494.579 1.91469 0.070735 0
M  V30 5364 C 494.773 1.29149 -3.3325 0
M  V30 5365 C 494.602 0.29983 -4.48699 0
M  V30 5366 C 493.372 -0.102454 -5.05196 0
M  V30 5367 C 495.57 -0.448297 -5.12342 0
M  V30 5368 N 493.552 -1.08866 -6.0417 0
M  V30 5369 C 494.923 -1.28807 -6.06472 0
M  V30 5370 C 496.978 -0.508351 -4.95298 0
M  V30 5371 C 495.681 -2.18248 -6.85391 0
M  V30 5372 C 497.707 -1.39013 -5.7483 0
M  V30 5373 C 497.069 -2.21766 -6.6858 0
M  V30 5374 H 493.168 0.205358 -0.754554 0
M  V30 5375 H 495.752 -0.103682 -1.94424 0
M  V30 5376 H 493.923 2.00264 -3.3279 0
M  V30 5377 H 495.655 1.92147 -3.56177 0
M  V30 5378 H 492.41 0.273223 -4.72811 0
M  V30 5379 H 492.834 -1.57817 -6.58348 0
M  V30 5380 H 497.476 0.117197 -4.22638 0
M  V30 5381 H 495.194 -2.81855 -7.57353 0
M  V30 5382 H 498.78 -1.44096 -5.63673 0
M  V30 5383 H 497.66 -2.88892 -7.29048 0
M  V30 5384 N 495.163 1.55791 0.238111 0
M  V30 5385 C 496.093 1.94068 1.29846 0
M  V30 5386 C 497.074 0.806726 1.49753 0
M  V30 5387 O 498.259 1.06772 1.62214 0
M  V30 5388 C 495.389 2.24302 2.65153 0
M  V30 5389 C 494.343 3.40032 2.59927 0
M  V30 5390 C 493.669 3.55829 3.99111 0
M  V30 5391 C 494.969 4.75476 2.16148 0
M  V30 5392 H 496.663 2.82887 0.980563 0
M  V30 5393 H 494.209 1.36105 0.470253 0
M  V30 5394 H 496.162 2.4967 3.39475 0
M  V30 5395 H 494.886 1.32318 2.98596 0
M  V30 5396 H 493.545 3.14687 1.88063 0
M  V30 5397 H 493.193 2.6125 4.29834 0
M  V30 5398 H 492.893 4.3366 3.96501 0
M  V30 5399 H 494.417 3.83528 4.7512 0
M  V30 5400 H 495.831 5.00158 2.80205 0
M  V30 5401 H 494.228 5.56472 2.24631 0
M  V30 5402 H 495.298 4.71946 1.11333 0
M  V30 5403 N 496.642 -0.504142 1.49319 0
M  V30 5404 C 497.888 -1.26033 1.58882 0
M  V30 5405 C 498.221 -1.92268 0.273274 0
M  V30 5406 O 497.496 -1.80567 -0.72291 0
M  V30 5407 C 497.779 -2.32976 2.7458 0
M  V30 5408 C 497.632 -1.71263 4.1592 0
M  V30 5409 C 498.951 -3.34561 2.85932 0
M  V30 5410 H 496.07 -0.456863 0.578312 0
M  V30 5411 H 498.712 -0.558965 1.81592 0
M  V30 5412 H 496.862 -2.92796 2.55348 0
M  V30 5413 H 498.534 -1.15294 4.4666 0
M  V30 5414 H 496.777 -1.01686 4.21714 0
M  V30 5415 H 497.448 -2.48816 4.92742 0
M  V30 5416 H 499.924 -2.84727 3.0343 0
M  V30 5417 H 498.8 -4.06754 3.68568 0
M  V30 5418 H 499.061 -3.96695 1.95154 0
M  V30 5419 N 498.12 -1.38341 -0.754957 0
M  V30 5420 C 499.366 -1.34672 -1.51628 0
M  V30 5421 C 499.699 0.0636036 -1.94096 0
M  V30 5422 O 498.974 1.0245 -1.6533 0
M  V30 5423 C 499.257 -2.30116 -2.76981 0
M  V30 5424 C 499.11 -3.80003 -2.4066 0
M  V30 5425 C 500.429 -2.23715 -3.78998 0
M  V30 5426 H 497.548 -0.490517 -0.550056 0
M  V30 5427 H 500.19 -1.69178 -0.864807 0
M  V30 5428 H 498.34 -2.00821 -3.3257 0
M  V30 5429 H 500.012 -4.19966 -1.90856 0
M  V30 5430 H 498.255 -3.97751 -1.73137 0
M  V30 5431 H 498.926 -4.42244 -3.30339 0
M  V30 5432 H 501.402 -2.49574 -3.32945 0
M  V30 5433 H 500.278 -2.9261 -4.64403 0
M  V30 5434 H 500.539 -1.23554 -4.24484 0
M  V30 5435 N 499.598 0.982988 -1.23187 0
M  V30 5436 C 500.53 2.07729 -0.968572 0
M  V30 5437 C 501.543 1.62702 0.0564821 0
M  V30 5438 O 502.732 1.77603 -0.178733 0
M  V30 5439 C 499.832 3.36071 -0.436974 0
M  V30 5440 C 499.005 4.10081 -1.52159 0
M  V30 5441 C 498.064 5.16701 -0.99532 0
M  V30 5442 O 497.09 5.43727 -1.68373 0
M  V30 5443 N 498.292 5.80226 0.178192 0
M  V30 5444 H 501.057 2.30894 -1.9107 0
M  V30 5445 H 498.618 1.14949 -1.1401 0
M  V30 5446 H 500.61 4.04639 -0.0700051 0
M  V30 5447 H 499.18 3.09893 0.410509 0
M  V30 5448 H 498.4 3.36004 -2.06144 0
M  V30 5449 H 499.688 4.56295 -2.25105 0
M  V30 5450 H 499.086 5.60651 0.754096 0
M  V30 5451 H 497.643 6.49982 0.486449 0
M  V30 5452 N 501.076 1.04316 1.18135 0
M  V30 5453 C 502.316 0.756937 1.89868 0
M  V30 5454 C 502.68 -0.702609 1.78682 0
M  V30 5455 O 503.881 -1.10255 2.45148 0
M  V30 5456 C 502.152 1.21327 3.36176 0
M  V30 5457 S 503.711 1.05307 4.25976 0
M  V30 5458 H 500.529 0.275143 0.655604 0
M  V30 5459 H 503.131 1.33597 1.42731 0
M  V30 5460 H 501.835 2.27086 3.41848 0
M  V30 5461 H 501.366 0.628137 3.88353 0
M  V30 5462 H 503.381 -0.0280093 4.96192 0
M  V30 5463 N 502.554 -1.34406 0.822964 0
M  V30 5464 C 503.484 -2.32052 0.259608 0
M  V30 5465 C 504.465 -1.58243 -0.623961 0
M  V30 5466 O 505.65 -1.86224 -0.55083 0
M  V30 5467 C 502.78 -3.42434 -0.579314 0
M  V30 5468 C 501.734 -4.27499 0.20712 0
M  V30 5469 C 501.06 -5.29349 -0.754547 0
M  V30 5470 C 502.36 -5.02758 1.41533 0
M  V30 5471 H 504.054 -2.79418 1.07545 0
M  V30 5472 H 501.6 -1.34338 0.518593 0
M  V30 5473 H 503.553 -4.0976 -0.983612 0
M  V30 5474 H 502.277 -2.93717 -1.4282 0
M  V30 5475 H 500.936 -3.61776 0.592787 0
M  V30 5476 H 500.584 -4.76895 -1.59939 0
M  V30 5477 H 500.284 -5.8714 -0.232561 0
M  V30 5478 H 501.808 -5.99544 -1.1567 0
M  V30 5479 H 503.222 -5.62938 1.08504 0
M  V30 5480 H 501.619 -5.70123 1.87296 0
M  V30 5481 H 502.689 -4.32451 2.1935 0
M  V30 5482 N 504.032 -0.577932 -1.46621 0
M  V30 5483 C 504.964 0.195801 -2.28362 0
M  V30 5484 C 505.977 0.859983 -1.38232 0
M  V30 5485 O 507.166 0.730349 -1.62875 0
M  V30 5486 C 504.266 1.29639 -3.13124 0
M  V30 5487 C 503.439 0.725049 -4.31349 0
M  V30 5488 C 502.498 1.71274 -4.97546 0
M  V30 5489 O 501.524 1.25067 -5.5529 0
M  V30 5490 N 502.726 3.04672 -4.94121 0
M  V30 5491 H 505.491 -0.505468 -2.95407 0
M  V30 5492 H 503.052 -0.415381 -1.56481 0
M  V30 5493 H 505.044 1.95631 -3.54275 0
M  V30 5494 H 503.614 1.90059 -2.48186 0
M  V30 5495 H 502.834 -0.112205 -3.9404 0
M  V30 5496 H 504.122 0.323034 -5.07774 0
M  V30 5497 H 503.52 3.4484 -4.48444 0
M  V30 5498 H 502.077 3.66166 -5.39227 0
M  V30 5499 N 505.51 1.54411 -0.315457 0
M  V30 5500 C 506.926 1.59556 0.037464 0
M  V30 5501 C 507.126 1.33217 1.5118 0
M  V30 5502 O 506.182 1.11264 2.26664 0
M  V30 5503 C 507.495 2.98372 -0.373477 0
M  V30 5504 C 509.043 3.11324 -0.323452 0
M  V30 5505 C 509.518 4.52472 -0.709433 0
M  V30 5506 N 511.009 4.58437 -0.662524 0
M  V30 5507 C 511.744 5.65751 -0.933474 0
M  V30 5508 N 511.24 6.81039 -1.27114 0
M  V30 5509 N 513.033 5.55489 -0.859573 0
M  V30 5510 H 505.184 1.6979 -1.27614 0
M  V30 5511 H 507.447 0.793732 -0.518356 0
M  V30 5512 H 507.153 3.22618 -1.40037 0
M  V30 5513 H 507.027 3.76264 0.265615 0
M  V30 5514 H 509.414 2.86818 0.694223 0
M  V30 5515 H 509.495 2.35555 -0.997367 0
M  V30 5516 H 509.139 4.7771 -1.72498 0
M  V30 5517 H 509.069 5.26598 -0.0132923 0
M  V30 5518 H 511.56 3.75636 -0.413065 0
M  V30 5519 H 511.873 7.58816 -1.46348 0
M  V30 5520 H 510.218 6.82555 -1.30932 0
M  V30 5521 H 513.409 4.64299 -0.595324 0
M  V30 5522 H 513.582 6.39036 -1.0741 0
M  V30 5523 N 506.988 0.0434614 1.5754 0
M  V30 5524 C 507.951 -0.918696 2.09982 0
M  V30 5525 C 508.951 -1.24488 1.01781 0
M  V30 5526 O 510.141 -1.18284 1.27885 0
M  V30 5527 C 507.273 -2.23093 2.57764 0
M  V30 5528 H 508.466 -0.464229 2.96285 0
M  V30 5529 H 506.019 -0.204818 1.54952 0
M  V30 5530 H 506.754 -2.73137 1.74832 0
M  V30 5531 H 506.539 -2.00724 3.36827 0
M  V30 5532 H 508.029 -2.92028 2.98512 0
M  V30 5533 N 508.466 -1.55915 -0.229846 0
M  V30 5534 C 509.694 -1.82617 -0.972562 0
M  V30 5535 C 510.109 -0.621488 -1.78278 0
M  V30 5536 O 509.466 0.409956 -1.77836 0
M  V30 5537 C 509.517 -3.0774 -1.89679 0
M  V30 5538 O 509.238 -4.23559 -1.11934 0
M  V30 5539 C 510.739 -3.47368 -2.75409 0
M  V30 5540 H 507.959 -0.60727 -0.285419 0
M  V30 5541 H 510.503 -2.02996 -0.247579 0
M  V30 5542 H 508.658 -2.89361 -2.57583 0
M  V30 5543 H 509.072 -4.94586 -1.74599 0
M  V30 5544 H 510.546 -4.37977 -3.35977 0
M  V30 5545 H 511.023 -2.68737 -3.47386 0
M  V30 5546 H 511.629 -3.68158 -2.12931 0
M  V30 5547 N 509.944 0.496216 -1.49584 0
M  V30 5548 C 511.355 1.07765 -1.52459 0
M  V30 5549 C 511.706 1.93679 -0.31353 0
M  V30 5550 O 510.831 2.08588 0.576186 0
M  V30 5551 C 511.426 1.96111 -2.76271 0
M  V30 5552 C 509.985 2.49409 -2.81908 0
M  V30 5553 C 509.132 1.27142 -2.46435 0
M  V30 5554 H 512.083 0.279914 -1.56212 0
M  V30 5555 H 512.104 2.80862 -2.56704 0
M  V30 5556 H 511.616 1.33555 -3.64396 0
M  V30 5557 H 509.717 3.1559 -1.98074 0
M  V30 5558 H 509.83 2.86234 -3.84196 0
M  V30 5559 H 508.194 1.59818 -1.98319 0
M  V30 5560 H 508.977 0.662866 -3.3684 0
M  V30 5561 N 511.423 1.38739 0.74761 0
M  V30 5562 C 512.333 1.38696 1.89211 0
M  V30 5563 C 513.349 0.283303 1.71678 0
M  V30 5564 O 514.525 0.522713 1.94498 0
M  V30 5565 C 511.59 1.21662 3.24653 0
M  V30 5566 C 510.651 2.41886 3.54669 0
M  V30 5567 C 509.884 2.25655 4.83648 0
M  V30 5568 O 510.107 1.25339 5.56459 0
M  V30 5569 O 509.041 3.14372 5.13277 0
M  V30 5570 H 512.867 2.35143 1.92202 0
M  V30 5571 H 510.452 1.19721 0.893708 0
M  V30 5572 H 512.334 1.14246 4.05618 0
M  V30 5573 H 511.009 0.283024 3.2246 0
M  V30 5574 H 509.916 2.54877 2.73841 0
M  V30 5575 H 511.249 3.33895 3.61628 0
M  V30 5576 N 512.901 -0.976442 1.23707 0
M  V30 5577 C 513.833 -2.07212 0.979574 0
M  V30 5578 C 514.846 -1.6273 -0.0478528 0
M  V30 5579 O 516.035 -1.77506 0.18815 0
M  V30 5580 C 513.135 -3.35835 0.45479 0
M  V30 5581 C 512.308 -4.09268 1.54331 0
M  V30 5582 C 511.367 -5.16166 1.02271 0
M  V30 5583 O 510.393 -5.42827 1.71254 0
M  V30 5584 N 511.595 -5.80313 -0.147419 0
M  V30 5585 H 514.36 -2.29878 1.92292 0
M  V30 5586 H 511.921 -1.14343 1.14618 0
M  V30 5587 H 513.913 -4.04597 0.0914631 0
M  V30 5588 H 512.483 -3.10106 -0.394068 0
M  V30 5589 H 511.703 -3.34906 2.07923 0
M  V30 5590 H 512.991 -4.55095 2.27522 0
M  V30 5591 H 512.389 -5.61043 -0.724353 0
M  V30 5592 H 510.946 -6.50231 -0.451972 0
M  V30 5593 N 514.379 -1.04941 -1.1758 0
M  V30 5594 C 515.609 -0.777166 -1.91425 0
M  V30 5595 C 516.017 0.670647 -1.76915 0
M  V30 5596 O 515.36 1.46965 -1.10213 0
M  V30 5597 C 515.422 -1.07495 -3.43052 0
M  V30 5598 C 515.086 -2.51844 -3.81345 0
M  V30 5599 C 516.083 -3.50047 -3.844 0
M  V30 5600 C 513.768 -2.86787 -4.12382 0
M  V30 5601 C 515.762 -4.81239 -4.17957 0
M  V30 5602 C 513.449 -4.18182 -4.45608 0
M  V30 5603 C 514.447 -5.15219 -4.48373 0
M  V30 5604 O 514.135 -6.44258 -4.80819 0
M  V30 5605 H 513.867 -0.282209 -0.614275 0
M  V30 5606 H 516.421 -1.40258 -1.50056 0
M  V30 5607 H 514.651 -0.392437 -3.84704 0
M  V30 5608 H 516.34 -0.78912 -3.98155 0
M  V30 5609 H 517.106 -3.24391 -3.60548 0
M  V30 5610 H 512.985 -2.11922 -4.09402 0
M  V30 5611 H 516.529 -5.56974 -4.2003 0
M  V30 5612 H 512.426 -4.43602 -4.68922 0
M  V30 5613 H 513.194 -6.49041 -4.98686 0
M  V30 5614 N 515.857 1.33968 -0.830081 0
M  V30 5615 C 516.789 2.28194 -0.21448 0
M  V30 5616 C 517.802 1.5135 0.599752 0
M  V30 5617 O 518.991 1.73286 0.42826 0
M  V30 5618 C 516.091 3.31221 0.717356 0
M  V30 5619 C 515.264 4.37365 -0.055613 0
M  V30 5620 C 514.323 5.2011 0.798231 0
M  V30 5621 O 513.349 5.68691 0.240616 0
M  V30 5622 N 514.551 5.40523 2.11695 0
M  V30 5623 H 517.316 2.81662 -1.02405 0
M  V30 5624 H 514.877 1.46568 -0.687713 0
M  V30 5625 H 516.869 3.83477 1.29334 0
M  V30 5626 H 515.439 2.78095 1.42765 0
M  V30 5627 H 514.659 3.85727 -0.812936 0
M  V30 5628 H 515.947 5.05397 -0.587444 0
M  V30 5629 H 515.345 5.0274 2.59363 0
M  V30 5630 H 513.902 5.95871 2.64162 0
M  V30 5631 N 517.335 0.585699 1.46312 0
M  V30 5632 C 518.584 0.0701192 2.01578 0
M  V30 5633 C 518.897 -1.29889 1.46247 0
M  V30 5634 O 520.103 -1.90598 1.93351 0
M  V30 5635 C 518.559 0.0747499 3.59822 0
M  V30 5636 C 518.167 1.44226 4.24149 0
M  V30 5637 C 519.911 -0.38673 4.22735 0
M  V30 5638 C 517.818 1.40446 5.74481 0
M  V30 5639 H 516.748 0.0224441 0.753666 0
M  V30 5640 H 519.399 0.737789 1.68015 0
M  V30 5641 H 517.781 -0.659144 3.90476 0
M  V30 5642 H 518.955 2.19612 4.05101 0
M  V30 5643 H 517.27 1.84401 3.73343 0
M  V30 5644 H 519.867 -0.433853 5.32937 0
M  V30 5645 H 520.21 -1.40489 3.91878 0
M  V30 5646 H 520.743 0.293195 3.96718 0
M  V30 5647 H 517.482 2.39952 6.10003 0
M  V30 5648 H 517.002 0.692845 5.95785 0
M  V30 5649 H 518.681 1.11865 6.37256 0
M  V30 5650 N 518.813 -1.54241 0.323641 0
M  V30 5651 C 519.743 -2.27289 -0.534993 0
M  V30 5652 C 520.724 -1.28087 -1.11927 0
M  V30 5653 O 521.909 -1.56899 -1.14439 0
M  V30 5654 C 519.039 -3.03075 -1.69596 0
M  V30 5655 C 517.993 -4.09614 -1.24098 0
M  V30 5656 C 517.319 -4.73242 -2.4889 0
M  V30 5657 C 518.619 -5.21087 -0.355789 0
M  V30 5658 H 520.313 -2.99308 0.0743257 0
M  V30 5659 H 517.859 -1.43952 0.0371874 0
M  V30 5660 H 519.812 -3.52907 -2.30293 0
M  V30 5661 H 518.536 -2.28673 -2.33187 0
M  V30 5662 H 517.195 -3.60666 -0.656945 0
M  V30 5663 H 516.843 -3.95455 -3.10845 0
M  V30 5664 H 516.543 -5.45209 -2.19138 0
M  V30 5665 H 518.067 -5.25848 -3.10348 0
M  V30 5666 H 519.481 -5.66675 -0.869042 0
M  V30 5667 H 517.878 -5.9991 -0.151045 0
M  V30 5668 H 518.948 -4.81005 0.613339 0
M  V30 5669 N 520.291 -0.0518155 -1.57515 0
M  V30 5670 C 521.238 0.922352 -2.11569 0
M  V30 5671 C 522.208 1.30842 -1.02321 0
M  V30 5672 O 523.393 1.39778 -1.29872 0
M  V30 5673 C 520.533 2.19167 -2.6657 0
M  V30 5674 C 519.646 1.86003 -3.89906 0
M  V30 5675 C 518.781 3.07398 -4.33221 0
M  V30 5676 C 517.82 2.70158 -5.49255 0
M  V30 5677 N 516.957 3.84248 -5.8762 0
M  V30 5678 H 521.797 0.454506 -2.94514 0
M  V30 5679 H 519.334 0.212718 -1.45554 0
M  V30 5680 H 521.292 2.93443 -2.96559 0
M  V30 5681 H 519.922 2.63528 -1.86421 0
M  V30 5682 H 518.974 1.01874 -3.66505 0
M  V30 5683 H 520.286 1.54592 -4.74239 0
M  V30 5684 H 519.44 3.89972 -4.64765 0
M  V30 5685 H 518.179 3.41988 -3.477 0
M  V30 5686 H 517.184 1.86001 -5.17382 0
M  V30 5687 H 518.409 2.36759 -6.36492 0
M  V30 5688 H 516.355 4.18638 -5.05053 0
M  V30 5689 H 516.272 3.56538 -6.66646 0
M  V30 5690 H 517.54 4.6746 -6.2378 0
M  V30 5691 N 521.769 1.56035 0.221574 0
M  V30 5692 C 522.679 1.95581 1.29558 0
M  V30 5693 C 523.695 0.859639 1.51282 0
M  V30 5694 O 524.871 1.16321 1.64413 0
M  V30 5695 C 521.936 2.26447 2.62531 0
M  V30 5696 C 520.997 3.49632 2.4911 0
M  V30 5697 C 520.23 3.79017 3.75742 0
M  V30 5698 O 520.453 3.10077 4.78757 0
M  V30 5699 O 519.387 4.72507 3.72855 0
M  V30 5700 H 523.213 2.8711 0.990035 0
M  V30 5701 H 520.798 1.43244 0.424434 0
M  V30 5702 H 522.68 2.47494 3.41064 0
M  V30 5703 H 521.355 1.38092 2.92766 0
M  V30 5704 H 520.262 3.33864 1.68777 0
M  V30 5705 H 521.595 4.3837 2.23814 0
M  V30 5706 N 523.247 -0.488276 1.49845 0
M  V30 5707 C 524.195 -1.60917 1.67954 0
M  V30 5708 C 525.189 -1.6038 0.54539 0
M  V30 5709 O 526.395 -1.64736 0.7254 0
M  V30 5710 H 522.77 -0.533658 0.529824 0
M  V30 5711 H 524.741 -1.428 2.62013 0
M  V30 5712 C 523.49 -2.98975 1.77509 0
M  V30 5713 H 522.813 -3.00099 2.6416 0
M  V30 5714 H 524.253 -3.76906 1.9421 0
M  V30 5715 C 522.712 -3.3282 0.522745 0
M  V30 5716 O 523.242 -4.00208 -0.345866 0
M  V30 5717 N 521.448 -2.8808 0.381882 0
M  V30 5718 H 520.995 -2.33415 1.08974 0
M  V30 5719 H 520.953 -3.11091 -0.454929 0
M  V30 5720 N 524.725 -1.39134 -0.740242 0
M  V30 5721 C 525.955 -1.39132 -1.52728 0
M  V30 5722 C 526.363 0.0173133 -1.89192 0
M  V30 5723 O 525.706 0.997715 -1.54244 0
M  V30 5724 C 525.768 -2.1952 -2.84695 0
M  V30 5725 C 525.432 -3.68203 -2.70695 0
M  V30 5726 C 526.429 -4.61401 -2.39593 0
M  V30 5727 C 524.114 -4.11724 -2.8773 0
M  V30 5728 C 526.108 -5.96102 -2.25701 0
M  V30 5729 C 523.795 -5.46503 -2.73456 0
M  V30 5730 C 524.793 -6.38506 -2.42486 0
M  V30 5731 O 524.481 -7.70803 -2.28295 0
M  V30 5732 H 524.213 -0.477263 -0.478744 0
M  V30 5733 H 526.767 -1.83504 -0.922799 0
M  V30 5734 H 524.997 -1.69888 -3.47383 0
M  V30 5735 H 526.686 -2.1176 -3.46284 0
M  V30 5736 H 527.452 -4.29079 -2.26088 0
M  V30 5737 H 523.331 -3.4045 -3.10829 0
M  V30 5738 H 526.875 -6.6788 -2.0145 0
M  V30 5739 H 522.772 -5.78417 -2.86538 0
M  V30 5740 H 523.54 -7.8147 -2.43405 0
M  V30 5741 N 526.204 0.969867 -1.24223 0
M  V30 5742 C 527.452 1.70918 -1.0785 0
M  V30 5743 C 527.773 1.91186 0.383763 0
M  V30 5744 O 527.043 1.48806 1.27411 0
M  V30 5745 H 525.623 0.633334 -0.396103 0
M  V30 5746 H 528.285 1.16689 -1.56108 0
M  V30 5747 H 527.381 2.69455 -1.57482 0
M  V30 5748 N 527.682 1.05563 1.17022 0
M  V30 5749 C 528.614 0.617888 2.20714 0
M  V30 5750 C 529.627 -0.320303 1.59618 0
M  V30 5751 O 530.816 -0.112449 1.78145 0
M  V30 5752 C 527.916 -0.115333 3.38704 0
M  V30 5753 C 527.089 0.834493 4.29366 0
M  V30 5754 C 526.148 0.141855 5.26009 0
M  V30 5755 O 525.174 0.777151 5.6387 0
M  V30 5756 N 526.376 -1.11934 5.69606 0
M  V30 5757 H 529.141 1.50981 2.58892 0
M  V30 5758 H 526.702 0.938008 1.31958 0
M  V30 5759 H 528.694 -0.588918 4.00392 0
M  V30 5760 H 527.264 -0.908967 2.99093 0
M  V30 5761 H 526.484 1.48762 3.65053 0
M  V30 5762 H 527.772 1.4791 4.86827 0
M  V30 5763 H 527.17 -1.65574 5.40927 0
M  V30 5764 H 525.727 -1.53692 6.33421 0
M  V30 5765 N 529.16 -1.33526 0.837174 0
M  V30 5766 C 530.107 -2.29248 0.267169 0
M  V30 5767 C 531.077 -1.54252 -0.616071 0
M  V30 5768 O 532.262 -1.82559 -0.554699 0
M  V30 5769 C 529.402 -3.40638 -0.553152 0
M  V30 5770 C 528.515 -4.30548 0.353921 0
M  V30 5771 C 527.65 -5.29051 -0.477339 0
M  V30 5772 C 526.689 -6.106 0.42823 0
M  V30 5773 N 525.826 -7.01152 -0.364801 0
M  V30 5774 H 530.666 -2.77398 1.08877 0
M  V30 5775 H 528.203 -1.36496 0.54838 0
M  V30 5776 H 530.161 -4.03921 -1.04422 0
M  V30 5777 H 528.791 -2.93685 -1.33973 0
M  V30 5778 H 527.843 -3.68001 0.963289 0
M  V30 5779 H 529.155 -4.87631 1.04964 0
M  V30 5780 H 528.309 -5.97853 -1.0323 0
M  V30 5781 H 527.048 -4.72541 -1.2065 0
M  V30 5782 H 526.053 -5.40718 0.995219 0
M  V30 5783 H 527.278 -6.69193 1.15573 0
M  V30 5784 H 525.224 -6.47092 -1.07738 0
M  V30 5785 H 525.141 -7.5551 0.272238 0
M  V30 5786 H 526.409 -7.74263 -0.902054 0
M  V30 5787 N 530.638 -0.59345 -1.46 0
M  V30 5788 C 531.548 0.135817 -2.34207 0
M  V30 5789 C 532.564 0.875008 -1.50398 0
M  V30 5790 O 533.74 0.835778 -1.83239 0
M  V30 5791 C 530.805 1.12977 -3.27776 0
M  V30 5792 C 529.866 0.394081 -4.27487 0
M  V30 5793 C 529.099 1.34068 -5.16586 0
M  V30 5794 O 529.322 2.5778 -5.08828 0
M  V30 5795 O 528.256 0.845426 -5.95933 0
M  V30 5796 H 532.082 -0.588691 -2.9794 0
M  V30 5797 H 529.667 -0.353784 -1.45151 0
M  V30 5798 H 531.549 1.70261 -3.85473 0
M  V30 5799 H 530.224 1.83556 -2.66625 0
M  V30 5800 H 529.131 -0.220869 -3.73447 0
M  V30 5801 H 530.464 -0.270939 -4.91454 0
M  V30 5802 N 532.116 1.54067 -0.331816 0
M  V30 5803 C 533.079 2.23275 0.517768 0
M  V30 5804 C 534.079 1.22897 1.03697 0
M  V30 5805 O 535.269 1.47419 0.928084 0
M  V30 5806 C 532.401 2.94326 1.72004 0
M  V30 5807 H 533.594 2.99773 -0.0873507 0
M  V30 5808 H 531.147 1.56079 -0.0830042 0
M  V30 5809 H 531.882 2.21986 2.36417 0
M  V30 5810 H 531.667 3.67941 1.35507 0
M  V30 5811 H 533.157 3.47031 2.32291 0
M  V30 5812 N 533.594 0.0601682 1.57485 0
M  V30 5813 C 534.504 -0.926121 2.15546 0
M  V30 5814 C 535.52 -1.33532 1.11558 0
M  V30 5815 O 536.696 -1.4104 1.4377 0
M  V30 5816 C 533.761 -2.17952 2.69625 0
M  V30 5817 C 532.822 -1.82783 3.88444 0
M  V30 5818 C 532.055 -3.02148 4.39935 0
M  V30 5819 O 532.278 -4.15803 3.90466 0
M  V30 5820 O 531.212 -2.82639 5.31412 0
M  V30 5821 H 535.038 -0.462289 3.00161 0
M  V30 5822 H 532.623 -0.162246 1.48516 0
M  V30 5823 H 534.505 -2.91474 3.04337 0
M  V30 5824 H 533.18 -2.63456 1.88077 0
M  V30 5825 H 532.087 -1.06549 3.58606 0
M  V30 5826 H 533.42 -1.42072 4.7125 0
M  V30 5827 N 535.072 -1.5615 -0.213296 0
M  V30 5828 C 536.019 -1.93086 -1.26437 0
M  V30 5829 C 536.989 -0.789086 -1.4616 0
M  V30 5830 O 538.174 -1.04569 -1.59593 0
M  V30 5831 C 535.314 -2.26003 -2.608 0
M  V30 5832 C 534.427 -3.53156 -2.48807 0
M  V30 5833 C 533.562 -3.7548 -3.7575 0
M  V30 5834 C 532.601 -4.96119 -3.58514 0
M  V30 5835 N 531.738 -5.14791 -4.77425 0
M  V30 5836 H 536.578 -2.82707 -0.942376 0
M  V30 5837 H 534.115 -1.39919 -0.454001 0
M  V30 5838 H 536.073 -2.431 -3.39055 0
M  V30 5839 H 534.703 -1.39546 -2.91079 0
M  V30 5840 H 533.755 -3.44207 -1.61944 0
M  V30 5841 H 535.067 -4.41565 -2.31996 0
M  V30 5842 H 534.221 -3.92718 -4.62447 0
M  V30 5843 H 532.96 -2.85368 -3.95495 0
M  V30 5844 H 531.965 -4.78823 -2.70201 0
M  V30 5845 H 533.19 -5.87724 -3.40231 0
M  V30 5846 H 531.136 -4.27623 -4.97468 0
M  V30 5847 H 531.053 -5.97347 -4.63371 0
M  V30 5848 H 532.321 -5.36471 -5.65525 0
M  V30 5849 N 536.55 0.480323 -1.50102 0
M  V30 5850 C 537.796 1.23489 -1.60867 0
M  V30 5851 C 538.129 1.91809 -0.303827 0
M  V30 5852 O 537.404 1.81694 0.694092 0
M  V30 5853 C 537.687 2.28578 -2.78252 0
M  V30 5854 C 537.54 1.64624 -4.18592 0
M  V30 5855 C 538.859 3.2997 -2.91218 0
M  V30 5856 H 535.978 0.447605 -0.585507 0
M  V30 5857 H 538.62 0.530005 -1.82458 0
M  V30 5858 H 536.77 2.88697 -2.59974 0
M  V30 5859 H 538.442 1.08173 -4.48438 0
M  V30 5860 H 536.685 0.949645 -4.23278 0
M  V30 5861 H 537.356 2.40946 -4.96638 0
M  V30 5862 H 539.832 2.79864 -3.07921 0
M  V30 5863 H 538.708 4.00839 -3.74993 0
M  V30 5864 H 538.969 3.93541 -2.0144 0
M  V30 5865 N 538.028 1.39524 0.732853 0
M  V30 5866 C 538.991 1.38189 1.82857 0
M  V30 5867 C 539.991 0.278624 1.58368 0
M  V30 5868 O 541.181 0.536639 1.65728 0
M  V30 5869 C 538.313 1.15661 3.2068 0
M  V30 5870 H 539.506 2.35692 1.85444 0
M  V30 5871 H 537.059 1.2512 0.936728 0
M  V30 5872 H 537.794 0.188482 3.23752 0
M  V30 5873 H 537.579 1.95559 3.39852 0
M  V30 5874 H 539.069 1.17472 4.00737 0
M  V30 5875 N 539.506 -0.963266 1.24736 0
M  V30 5876 C 540.922 -1.23273 1.01371 0
M  V30 5877 C 541.122 -1.99618 -0.274776 0
M  V30 5878 O 540.178 -2.32293 -0.989769 0
M  V30 5879 C 541.491 -2.01554 2.23152 0
M  V30 5880 C 543.039 -2.14629 2.27823 0
M  V30 5881 C 543.514 -2.96307 3.49237 0
M  V30 5882 N 545.005 -3.03887 3.49581 0
M  V30 5883 C 545.74 -3.67456 4.40186 0
M  V30 5884 N 545.236 -4.32706 5.41052 0
M  V30 5885 N 547.029 -3.64511 4.27888 0
M  V30 5886 H 539.18 -0.452294 2.07528 0
M  V30 5887 H 541.443 -0.262521 0.910926 0
M  V30 5888 H 541.149 -1.52847 3.1675 0
M  V30 5889 H 541.023 -3.02278 2.25628 0
M  V30 5890 H 543.41 -2.62537 1.34753 0
M  V30 5891 H 543.491 -1.13238 2.2937 0
M  V30 5892 H 543.135 -2.49091 4.42624 0
M  V30 5893 H 543.065 -3.97905 3.44933 0
M  V30 5894 H 545.556 -2.57477 2.76611 0
M  V30 5895 H 545.869 -4.79042 6.06415 0
M  V30 5896 H 544.214 -4.31361 5.44934 0
M  V30 5897 H 547.405 -3.12715 3.4832 0
M  V30 5898 H 547.578 -4.13768 4.98698 0
M  V30 5899 N 540.985 -1.06182 -1.16461 0
M  V30 5900 C 542.231 -0.779015 -1.87241 0
M  V30 5901 C 542.564 0.692715 -1.81425 0
M  V30 5902 O 541.839 1.5074 -1.22913 0
M  V30 5903 C 542.122 -1.2728 -3.36856 0
M  V30 5904 C 541.975 -2.80821 -3.51368 0
M  V30 5905 C 543.294 -0.879799 -4.31216 0
M  V30 5906 H 540.413 -0.284464 -0.679889 0
M  V30 5907 H 543.055 -1.31755 -1.36896 0
M  V30 5908 H 541.205 -0.814673 -3.79862 0
M  V30 5909 H 542.877 -3.34833 -3.17308 0
M  V30 5910 H 541.12 -3.19606 -2.93316 0
M  V30 5911 H 541.791 -3.10435 -4.56436 0
M  V30 5912 H 544.267 -1.27436 -3.96105 0
M  V30 5913 H 543.143 -1.25278 -5.34412 0
M  V30 5914 H 543.404 0.215372 -4.41575 0
M  V30 5915 N 542.463 1.3308 -0.844243 0
M  V30 5916 C 543.41 2.29104 -0.279323 0
M  V30 5917 C 544.38 1.54577 0.607882 0
M  V30 5918 O 545.565 1.8285 0.545009 0
M  V30 5919 C 542.705 3.40927 0.53508 0
M  V30 5920 C 541.818 4.30354 -0.376749 0
M  V30 5921 C 540.953 5.29297 0.449276 0
M  V30 5922 C 539.992 6.10365 -0.460606 0
M  V30 5923 N 539.129 7.01335 0.327612 0
M  V30 5924 H 543.969 2.76817 -1.10346 0
M  V30 5925 H 541.506 1.36203 -0.555611 0
M  V30 5926 H 543.464 4.04469 1.02278 0
M  V30 5927 H 542.094 2.94391 1.32414 0
M  V30 5928 H 541.146 3.67485 -0.982791 0
M  V30 5929 H 542.458 4.87067 -1.07549 0
M  V30 5930 H 541.612 5.98392 1.00058 0
M  V30 5931 H 540.351 4.73174 1.18143 0
M  V30 5932 H 539.356 5.40182 -1.02388 0
M  V30 5933 H 540.581 6.68571 -1.1912 0
M  V30 5934 H 538.527 6.47655 1.04305 0
M  V30 5935 H 538.444 7.55355 -0.3123 0
M  V30 5936 H 539.712 7.74731 0.86098 0
M  V30 5937 N 543.941 0.601185 1.45683 0
M  V30 5938 C 544.904 -0.111398 2.28929 0
M  V30 5939 C 545.904 -0.801246 1.39416 0
M  V30 5940 O 547.094 -0.650383 1.61603 0
M  V30 5941 C 544.226 -1.16773 3.20276 0
M  V30 5942 H 545.419 0.620412 2.93413 0
M  V30 5943 H 542.972 0.359946 1.52099 0
M  V30 5944 H 543.707 -1.93051 2.60579 0
M  V30 5945 H 543.492 -0.677358 3.86205 0
M  V30 5946 H 544.982 -1.66698 3.82886 0
M  V30 5947 N 545.419 -1.53889 0.339982 0
M  V30 5948 C 546.349 -2.27843 -0.510856 0
M  V30 5949 C 547.33 -1.29267 -1.10563 0
M  V30 5950 O 548.515 -1.58104 -1.12768 0
M  V30 5951 C 545.645 -3.04857 -1.66372 0
M  V30 5952 C 544.599 -4.10907 -1.19746 0
M  V30 5953 C 543.925 -4.75855 -2.43857 0
M  V30 5954 C 545.225 -5.21435 -0.300501 0
M  V30 5955 H 546.919 -2.99212 0.106067 0
M  V30 5956 H 544.465 -1.43904 0.0524533 0
M  V30 5957 H 546.418 -3.5533 -2.26537 0
M  V30 5958 H 545.142 -2.31133 -2.30749 0
M  V30 5959 H 543.801 -3.61342 -0.618654 0
M  V30 5960 H 543.449 -3.9873 -3.06633 0
M  V30 5961 H 543.149 -5.47502 -2.13343 0
M  V30 5962 H 544.673 -5.2911 -3.04754 0
M  V30 5963 H 546.087 -5.67565 -0.80889 0
M  V30 5964 H 544.484 -6.00036 -0.0874076 0
M  V30 5965 H 545.554 -4.80328 0.664321 0
M  V30 5966 N 546.897 -0.0685191 -1.57451 0
M  V30 5967 C 548.127 0.609577 -1.97402 0
M  V30 5968 C 548.535 1.63882 -0.945489 0
M  V30 5969 O 547.878 1.8354 0.0766052 0
M  V30 5970 C 547.94 1.3385 -3.33653 0
M  V30 5971 C 547.604 0.463103 -4.54648 0
M  V30 5972 C 548.601 -0.277964 -5.19156 0
M  V30 5973 C 546.286 0.388941 -5.00792 0
M  V30 5974 C 548.28 -1.08145 -6.28159 0
M  V30 5975 C 545.967 -0.418217 -6.09667 0
M  V30 5976 C 546.965 -1.15208 -6.73213 0
M  V30 5977 O 546.653 -1.94594 -7.79993 0
M  V30 5978 H 546.385 0.170197 -0.654224 0
M  V30 5979 H 548.939 -0.13647 -2.04946 0
M  V30 5980 H 547.169 2.13055 -3.22714 0
M  V30 5981 H 548.858 1.90851 -3.58233 0
M  V30 5982 H 549.624 -0.230241 -4.84453 0
M  V30 5983 H 545.503 0.949769 -4.5111 0
M  V30 5984 H 549.047 -1.65476 -6.7769 0
M  V30 5985 H 544.944 -0.467515 -6.43805 0
M  V30 5986 H 545.712 -1.8699 -7.96854 0
M  V30 5987 N 548.375 1.56261 0.205012 0
M  V30 5988 C 549.285 1.96944 1.27476 0
M  V30 5989 C 550.301 0.875636 1.50362 0
M  V30 5990 O 551.477 1.18058 1.6317 0
M  V30 5991 C 548.542 2.29219 2.60115 0
M  V30 5992 C 547.603 3.52255 2.45387 0
M  V30 5993 C 546.836 3.8298 3.71701 0
M  V30 5994 O 547.059 3.15138 4.75441 0
M  V30 5995 O 545.993 4.76435 3.67823 0
M  V30 5996 H 549.819 2.88144 0.959527 0
M  V30 5997 H 547.404 1.43686 0.409217 0
M  V30 5998 H 549.286 2.51098 3.3842 0
M  V30 5999 H 547.961 1.4119 2.91285 0
M  V30 6000 H 546.868 3.35635 1.65227 0
M  V30 6001 H 548.201 4.40719 2.19152 0
M  V30 6002 N 549.853 -0.472356 1.50355 0
M  V30 6003 C 550.763 -1.59637 1.7191 0
M  V30 6004 C 551.779 -1.63247 0.602195 0
M  V30 6005 O 552.955 -1.81139 0.880369 0
M  V30 6006 C 550.02 -2.9586 1.80742 0
M  V30 6007 C 549.081 -3.02649 3.04471 0
M  V30 6008 C 548.314 -4.32374 3.12872 0
M  V30 6009 O 548.537 -5.22807 2.28099 0
M  V30 6010 O 547.471 -4.44728 4.05587 0
M  V30 6011 H 551.297 -1.44373 2.67189 0
M  V30 6012 H 548.882 -0.651717 1.34436 0
M  V30 6013 H 550.764 -3.7677 1.88739 0
M  V30 6014 H 549.439 -3.11325 0.88647 0
M  V30 6015 H 548.346 -2.20821 3.01975 0
M  V30 6016 H 549.679 -2.92119 3.9614 0
M  V30 6017 N 551.331 -1.39911 -0.725443 0
M  V30 6018 C 552.261 -1.42138 -1.85254 0
M  V30 6019 C 553.242 -0.283513 -1.67721 0
M  V30 6020 O 554.427 -0.490717 -1.87898 0
M  V30 6021 C 551.557 -1.27354 -3.23107 0
M  V30 6022 C 550.511 -2.3864 -3.55296 0
M  V30 6023 C 549.837 -2.08939 -4.92188 0
M  V30 6024 C 551.137 -3.8097 -3.57295 0
M  V30 6025 H 552.831 -2.36461 -1.83648 0
M  V30 6026 H 550.377 -1.13817 -0.882138 0
M  V30 6027 H 552.33 -1.2753 -4.01639 0
M  V30 6028 H 551.054 -0.295025 -3.25265 0
M  V30 6029 H 549.713 -2.37696 -2.79099 0
M  V30 6030 H 549.361 -1.09502 -4.90936 0
M  V30 6031 H 549.061 -2.83491 -5.14691 0
M  V30 6032 H 550.585 -2.10781 -5.73065 0
M  V30 6033 H 551.999 -3.8379 -4.25885 0
M  V30 6034 H 550.396 -4.5496 -3.9132 0
M  V30 6035 H 551.466 -4.11261 -2.5689 0
M  V30 6036 N 552.809 0.956637 -1.25245 0
M  V30 6037 C 554.086 1.67716 -1.00651 0
M  V30 6038 C 554.466 2.0585 0.467866 0
M  V30 6039 O 553.814 1.77029 1.44475 0
M  V30 6040 C 554.024 2.90093 -1.94028 0
M  V30 6041 C 555.372 3.6209 -2.21756 0
M  V30 6042 O 556.396 3.00171 -1.9177 0
M  V30 6043 O 555.255 4.7358 -2.72735 0
M  V30 6044 H 552.349 0.733731 -0.381533 0
M  V30 6045 H 554.895 1.00974 -1.3639 0
M  V30 6046 H 553.667 2.58689 -2.93591 0
M  V30 6047 H 553.29 3.64566 -1.58674 0
M  V30 6048 N 554.287 1.06798 1.15896 0
M  V30 6049 C 555.217 0.704677 2.22613 0
M  V30 6050 C 556.198 -0.305252 1.67339 0
M  V30 6051 O 557.383 -0.179247 1.93371 0
M  V30 6052 C 554.513 0.0957325 3.47168 0
M  V30 6053 C 553.467 1.0322 4.15367 0
M  V30 6054 C 552.793 0.286293 5.33933 0
M  V30 6055 C 554.093 2.36341 4.65768 0
M  V30 6056 H 555.787 1.59688 2.53259 0
M  V30 6057 H 553.333 0.769257 1.21731 0
M  V30 6058 H 555.286 -0.170333 4.21056 0
M  V30 6059 H 554.01 -0.831516 3.15838 0
M  V30 6060 H 552.669 1.28309 3.43413 0
M  V30 6061 H 552.317 -0.644237 4.98857 0
M  V30 6062 H 552.017 0.910436 5.80504 0
M  V30 6063 H 553.541 0.0278938 6.10594 0
M  V30 6064 H 554.955 2.1561 5.31211 0
M  V30 6065 H 553.352 2.94299 5.2298 0
M  V30 6066 H 554.422 2.99047 3.81705 0
M  V30 6067 N 555.766 -1.3263 0.851289 0
M  V30 6068 C 557.177 -1.79653 0.5081 0
M  V30 6069 C 557.528 -1.70327 -0.973815 0
M  V30 6070 O 556.653 -1.25986 -1.75944 0
M  V30 6071 C 557.248 -3.26196 0.915515 0
M  V30 6072 C 555.807 -3.71187 0.624277 0
M  V30 6073 C 554.954 -2.53804 1.11709 0
M  V30 6074 H 557.905 -1.19976 1.03882 0
M  V30 6075 H 557.926 -3.79801 0.230535 0
M  V30 6076 H 557.438 -3.32952 1.99411 0
M  V30 6077 H 555.539 -3.69948 -0.443737 0
M  V30 6078 H 555.652 -4.64132 1.18821 0
M  V30 6079 H 554.016 -2.48964 0.537484 0
M  V30 6080 H 554.799 -2.63315 2.20272 0
M  V30 6081 N 557.244 -0.608902 -1.45362 0
M  V30 6082 C 558.207 0.0992563 -2.28985 0
M  V30 6083 C 559.207 0.793841 -1.39838 0
M  V30 6084 O 560.397 0.641804 -1.61946 0
M  V30 6085 C 557.529 1.15073 -3.20891 0
M  V30 6086 H 558.722 -0.635964 -2.93079 0
M  V30 6087 H 556.275 -0.368007 -1.51906 0
M  V30 6088 H 557.01 1.91667 -2.616 0
M  V30 6089 H 556.795 0.656867 -3.86559 0
M  V30 6090 H 558.285 1.64665 -3.83765 0
M  V30 6091 N 558.722 1.53707 -0.348139 0
M  V30 6092 C 559.968 2.01286 0.247332 0
M  V30 6093 C 560.301 1.23546 1.49834 0
M  V30 6094 O 559.576 0.324331 1.91777 0
M  V30 6095 C 559.859 3.55768 0.556858 0
M  V30 6096 C 559.712 4.44216 -0.706564 0
M  V30 6097 C 561.031 4.1841 1.3646 0
M  V30 6098 H 558.15 0.731677 0.0884201 0
M  V30 6099 H 560.792 1.84106 -0.469584 0
M  V30 6100 H 558.942 3.70539 1.16761 0
M  V30 6101 H 560.614 4.41274 -1.34444 0
M  V30 6102 H 558.857 4.12892 -1.33052 0
M  V30 6103 H 559.528 5.50202 -0.445186 0
M  V30 6104 H 562.004 4.07365 0.848113 0
M  V30 6105 H 560.88 5.26563 1.54992 0
M  V30 6106 H 561.141 3.7333 2.36805 0
M  V30 6107 N 560.2 0.0768682 1.57412 0
M  V30 6108 C 561.447 -0.591085 1.93681 0
M  V30 6109 C 561.775 -1.69311 0.957286 0
M  V30 6110 O 561.03 -1.95682 -0.0262428 0
M  V30 6111 C 561.329 -1.20268 3.36557 0
M  V30 6112 C 560.995 -0.226286 4.50332 0
M  V30 6113 C 559.657 0.0423142 4.81181 0
M  V30 6114 C 562.009 0.441415 5.19327 0
M  V30 6115 C 559.337 0.985616 5.78362 0
M  V30 6116 C 561.689 1.37307 6.17519 0
M  V30 6117 C 560.353 1.65009 6.46783 0
M  V30 6118 H 559.623 -0.216293 0.70873 0
M  V30 6119 H 562.27 0.148824 1.90921 0
M  V30 6120 H 560.575 -2.01844 3.35807 0
M  V30 6121 H 562.272 -1.72688 3.61911 0
M  V30 6122 H 558.862 -0.445821 4.26275 0
M  V30 6123 H 563.046 0.247023 4.95685 0
M  V30 6124 H 558.302 1.20743 5.99359 0
M  V30 6125 H 562.476 1.89637 6.70083 0
M  V30 6126 H 560.103 2.38263 7.21897 0
M  V30 6127 N 561.678 -1.56367 -0.196722 0
M  V30 6128 C 562.608 -1.97442 -1.24655 0
M  V30 6129 C 563.589 -0.846147 -1.47561 0
M  V30 6130 O 564.774 -1.11035 -1.59326 0
M  V30 6131 C 561.904 -2.31253 -2.59112 0
M  V30 6132 C 560.858 -3.46804 -2.50821 0
M  V30 6133 C 560.184 -3.66286 -3.89536 0
M  V30 6134 C 561.484 -4.8104 -2.03465 0
M  V30 6135 H 563.178 -2.85388 -0.905216 0
M  V30 6136 H 560.724 -1.37304 -0.434002 0
M  V30 6137 H 562.677 -2.58583 -3.32736 0
M  V30 6138 H 561.401 -1.40188 -2.94983 0
M  V30 6139 H 560.06 -3.19563 -1.79653 0
M  V30 6140 H 559.708 -2.72555 -4.22756 0
M  V30 6141 H 559.408 -4.4402 -3.84864 0
M  V30 6142 H 560.932 -3.9599 -4.64784 0
M  V30 6143 H 562.346 -5.07411 -2.66846 0
M  V30 6144 H 560.743 -5.62232 -2.09798 0
M  V30 6145 H 561.813 -4.74732 -0.98781 0
M  V30 6146 N 563.156 0.464375 -1.50603 0
M  V30 6147 C 564.088 1.57916 -1.66118 0
M  V30 6148 C 565.101 1.53497 -0.54246 0
M  V30 6149 O 566.29 1.58763 -0.815877 0
M  V30 6150 C 563.39 2.96809 -1.63577 0
M  V30 6151 C 562.563 3.26026 -2.91592 0
M  V30 6152 C 561.622 4.44506 -2.81604 0
M  V30 6153 O 560.648 4.44484 -3.55559 0
M  V30 6154 N 561.85 5.46549 -1.95614 0
M  V30 6155 H 564.615 1.45022 -2.62276 0
M  V30 6156 H 562.176 0.652903 -1.48151 0
M  V30 6157 H 564.168 3.74048 -1.54499 0
M  V30 6158 H 562.738 3.03438 -0.751262 0
M  V30 6159 H 561.958 2.37337 -3.14746 0
M  V30 6160 H 563.246 3.42361 -3.76386 0
M  V30 6161 H 562.644 5.49391 -1.34854 0
M  V30 6162 H 561.201 6.22746 -1.92435 0
M  V30 6163 N 564.634 1.40294 0.718013 0
M  V30 6164 C 565.864 1.41544 1.50495 0
M  V30 6165 C 566.272 0.0127877 1.89196 0
M  V30 6166 O 565.615 -0.97305 1.55812 0
M  V30 6167 C 565.677 2.24021 2.81167 0
M  V30 6168 C 565.341 3.72463 2.64803 0
M  V30 6169 C 566.338 4.65154 2.32223 0
M  V30 6170 C 564.023 4.1625 2.81143 0
M  V30 6171 C 566.017 5.99618 2.16189 0
M  V30 6172 C 563.704 5.50784 2.64727 0
M  V30 6173 C 564.702 6.42283 2.32297 0
M  V30 6174 O 564.39 7.74337 2.16004 0
M  V30 6175 H 564.122 0.484819 0.471091 0
M  V30 6176 H 566.676 1.84948 0.893488 0
M  V30 6177 H 564.906 1.75393 3.44636 0
M  V30 6178 H 566.595 2.17243 3.42871 0
M  V30 6179 H 567.361 4.32622 2.19234 0
M  V30 6180 H 563.24 3.45352 3.05373 0
M  V30 6181 H 566.784 6.71 1.90799 0
M  V30 6182 H 562.681 5.82902 2.773 0
M  V30 6183 H 563.449 7.85244 2.30942 0
M  V30 6184 N 566.112 -0.949982 1.2575 0
M  V30 6185 C 567.022 -2.08109 1.08295 0
M  V30 6186 C 568.038 -1.7399 0.0188181 0
M  V30 6187 O 569.214 -2.00187 0.220724 0
M  V30 6188 C 566.279 -3.39383 0.708534 0
M  V30 6189 C 565.34 -3.8734 1.85111 0
M  V30 6190 C 564.573 -5.12349 1.49447 0
M  V30 6191 O 564.796 -5.6905 0.392212 0
M  V30 6192 O 563.73 -5.5513 2.32624 0
M  V30 6193 H 567.556 -2.25738 2.03165 0
M  V30 6194 H 565.141 -1.06545 1.04731 0
M  V30 6195 H 567.023 -4.18277 0.512061 0
M  V30 6196 H 565.698 -3.23013 -0.210854 0
M  V30 6197 H 564.605 -3.09429 2.10248 0
M  V30 6198 H 565.938 -4.08216 2.74991 0
M  V30 6199 N 567.59 -1.07411 -1.15328 0
M  V30 6200 C 568.5 -0.706438 -2.23711 0
M  V30 6201 C 569.516 0.282586 -1.7169 0
M  V30 6202 O 570.692 0.129066 -2.00986 0
M  V30 6203 C 567.757 -0.11048 -3.46524 0
M  V30 6204 C 566.818 -1.15282 -4.13532 0
M  V30 6205 C 566.051 -0.585205 -5.30482 0
M  V30 6206 O 566.274 0.598549 -5.67251 0
M  V30 6207 O 565.208 -1.33039 -5.87013 0
M  V30 6208 H 569.034 -1.61031 -2.57493 0
M  V30 6209 H 566.619 -0.847113 -1.23062 0
M  V30 6210 H 568.501 0.21957 -4.20828 0
M  V30 6211 H 567.176 0.766703 -3.14489 0
M  V30 6212 H 566.083 -1.53523 -3.41147 0
M  V30 6213 H 567.416 -2.00192 -4.49649 0
M  V30 6214 N 569.068 1.32177 -0.85831 0
M  V30 6215 C 570.345 1.91781 -0.384624 0
M  V30 6216 C 570.725 1.78171 1.13217 0
M  V30 6217 O 570.073 1.18209 1.95548 0
M  V30 6218 C 570.283 3.38414 -0.853047 0
M  V30 6219 C 571.631 4.15542 -0.872359 0
M  V30 6220 O 572.655 3.47148 -0.797926 0
M  V30 6221 O 571.514 5.37678 -0.978009 0
M  V30 6222 H 568.608 0.819259 -0.112886 0
M  V30 6223 H 571.154 1.40923 -0.945453 0
M  V30 6224 H 569.926 3.4228 -1.89632 0
M  V30 6225 H 569.549 3.96683 -0.269874 0
M  V30 6226 N 570.547 0.616602 1.45037 0
M  V30 6227 C 571.772 0.120192 2.07051 0
M  V30 6228 C 572.197 -1.19008 1.45666 0
M  V30 6229 O 571.555 -1.7267 0.552692 0
M  V30 6230 C 571.603 0.00354901 3.606 0
M  V30 6231 O 570.707 -1.04431 3.98958 0
M  V30 6232 H 570.048 0.0781599 0.659384 0
M  V30 6233 H 572.578 0.849167 1.86146 0
M  V30 6234 H 572.588 -0.191754 4.07549 0
M  V30 6235 H 571.263 0.960239 4.04663 0
M  V30 6236 H 569.84 -0.824749 3.63665 0
M  V30 6237 N 572.025 -1.5352 0.356285 0
M  V30 6238 C 573.255 -2.05236 -0.236983 0
M  V30 6239 C 573.663 -1.23016 -1.43749 0
M  V30 6240 O 573.006 -0.2615 -1.81829 0
M  V30 6241 C 573.068 -3.52549 -0.7035 0
M  V30 6242 C 572.732 -4.55425 0.379059 0
M  V30 6243 C 573.729 -5.0524 1.22592 0
M  V30 6244 C 571.414 -4.99425 0.536638 0
M  V30 6245 C 573.408 -5.97647 2.21578 0
M  V30 6246 C 571.095 -5.9164 1.52988 0
M  V30 6247 C 572.093 -6.4064 2.3679 0
M  V30 6248 O 571.781 -7.31039 3.34421 0
M  V30 6249 H 571.513 -0.674346 -0.047254 0
M  V30 6250 H 574.067 -1.98962 0.510238 0
M  V30 6251 H 572.297 -3.56331 -1.50217 0
M  V30 6252 H 573.986 -3.87171 -1.21873 0
M  V30 6253 H 574.752 -4.72002 1.11532 0
M  V30 6254 H 570.631 -4.60879 -0.105834 0
M  V30 6255 H 574.175 -6.35816 2.87025 0
M  V30 6256 H 570.072 -6.24293 1.64099 0
M  V30 6257 H 570.84 -7.49009 3.30041 0
M  V30 6258 N 573.503 -0.0852151 -1.57369 0
M  V30 6259 C 574.728 0.592872 -1.98746 0
M  V30 6260 C 575.153 1.61538 -0.963689 0
M  V30 6261 O 574.511 1.81168 0.069071 0
M  V30 6262 C 574.559 1.22599 -3.39119 0
M  V30 6263 O 573.663 2.34185 -3.39457 0
M  V30 6264 H 573.004 0.151314 -0.646529 0
M  V30 6265 H 575.534 -0.163703 -2.03944 0
M  V30 6266 H 575.544 1.56965 -3.76598 0
M  V30 6267 H 574.219 0.476831 -4.13158 0
M  V30 6268 H 572.796 2.01512 -3.13763 0
M  V30 6269 N 574.981 1.5647 0.188427 0
M  V30 6270 C 575.931 1.91479 1.23774 0
M  V30 6271 C 576.915 0.78119 1.40664 0
M  V30 6272 O 578.107 1.04414 1.42922 0
M  V30 6273 C 575.236 2.26354 2.58106 0
M  V30 6274 C 574.322 3.46186 2.44981 0
M  V30 6275 N 574.713 4.63911 2.01546 0
M  V30 6276 C 573.011 3.50456 2.75856 0
M  V30 6277 C 573.712 5.46064 2.00472 0
M  V30 6278 N 572.688 4.86648 2.42229 0
M  V30 6279 H 576.49 2.79994 0.893339 0
M  V30 6280 H 574.004 1.57477 0.39682 0
M  V30 6281 H 576.001 2.49622 3.33908 0
M  V30 6282 H 574.661 1.39168 2.93364 0
M  V30 6283 H 575.672 4.88451 1.7215 0
M  V30 6284 H 572.349 2.73704 3.15265 0
M  V30 6285 H 573.739 6.50368 1.68734 0
M  V30 6286 N 576.459 -0.456382 1.50847 0
M  V30 6287 C 577.708 -1.2042 1.61808 0
M  V30 6288 C 578.021 -1.9278 0.330932 0
M  V30 6289 O 579.227 -2.69612 0.319643 0
M  V30 6290 C 577.683 -2.18891 2.85683 0
M  V30 6291 C 577.291 -1.52267 4.2133 0
M  V30 6292 C 579.035 -2.94224 3.05994 0
M  V30 6293 C 576.942 -2.4911 5.36375 0
M  V30 6294 H 575.872 -0.453177 0.602616 0
M  V30 6295 H 578.523 -0.473144 1.77295 0
M  V30 6296 H 576.905 -2.95351 2.63787 0
M  V30 6297 H 578.079 -0.814949 4.53536 0
M  V30 6298 H 576.394 -0.891594 4.06743 0
M  V30 6299 H 578.991 -3.66732 3.89117 0
M  V30 6300 H 579.334 -3.54469 2.18306 0
M  V30 6301 H 579.867 -2.24874 3.28141 0
M  V30 6302 H 576.606 -1.93582 6.26264 0
M  V30 6303 H 576.126 -3.17991 5.08569 0
M  V30 6304 H 577.805 -3.10637 5.67551 0
M  V30 6305 N 577.937 -1.40673 -0.710563 0
M  V30 6306 C 578.87 -1.35742 -1.83438 0
M  V30 6307 C 579.848 -0.226997 -1.61008 0
M  V30 6308 O 581.032 -0.411477 -1.83954 0
M  V30 6309 C 578.159 -1.11374 -3.19865 0
M  V30 6310 C 577.205 -2.26935 -3.61113 0
M  V30 6311 S 578.038 -3.89352 -3.67648 0
M  V30 6312 C 579.194 -3.67258 -5.06826 0
M  V30 6313 H 579.427 -2.30848 -1.87341 0
M  V30 6314 H 576.96 -1.27018 -0.877831 0
M  V30 6315 H 578.918 -0.980004 -3.9863 0
M  V30 6316 H 577.579 -0.179135 -3.13589 0
M  V30 6317 H 576.772 -2.0554 -4.60184 0
M  V30 6318 H 576.374 -2.36638 -2.89618 0
M  V30 6319 H 578.666 -3.26036 -5.93891 0
M  V30 6320 H 579.609 -4.65878 -5.33257 0
M  V30 6321 H 580.017 -3.0084 -4.77656 0
M  V30 6322 N 579.415 0.9433 -1.26252 0
M  V30 6323 C 580.378 2.02326 -1.07689 0
M  V30 6324 C 581.378 1.60779 -0.0259174 0
M  V30 6325 O 582.568 1.72108 -0.269134 0
M  V30 6326 C 579.7 3.34886 -0.63752 0
M  V30 6327 H 580.893 2.20225 -2.0357 0
M  V30 6328 H 578.446 1.12197 -1.08819 0
M  V30 6329 H 579.181 3.22684 0.323377 0
M  V30 6330 H 578.966 3.66393 -1.39637 0
M  V30 6331 H 580.456 4.14231 -0.529418 0
M  V30 6332 N 580.893 1.08022 1.14757 0
M  V30 6333 C 581.823 0.728248 2.21853 0
M  V30 6334 C 582.804 -0.287486 1.67653 0
M  V30 6335 O 583.989 -0.158727 1.9355 0
M  V30 6336 C 581.119 0.132549 3.47047 0
M  V30 6337 C 580.073 1.07619 4.14249 0
M  V30 6338 C 579.399 0.342907 5.33599 0
M  V30 6339 C 580.699 2.41268 4.63235 0
M  V30 6340 H 582.393 1.62365 2.51551 0
M  V30 6341 H 579.939 0.782125 1.20908 0
M  V30 6342 H 581.892 -0.125665 4.21213 0
M  V30 6343 H 580.616 -0.797971 3.16702 0
M  V30 6344 H 579.275 1.31944 3.42033 0
M  V30 6345 H 578.923 -0.59129 4.99513 0
M  V30 6346 H 578.623 0.971955 5.79506 0
M  V30 6347 H 580.147 0.0926538 6.1053 0
M  V30 6348 H 581.561 2.21232 5.28894 0
M  V30 6349 H 579.958 2.9983 5.19829 0
M  V30 6350 H 581.028 3.03079 3.78512 0
M  V30 6351 N 582.371 -1.3172 0.865308 0
M  V30 6352 C 583.62 -1.96145 0.470098 0
M  V30 6353 C 583.933 -1.69182 -0.981674 0
M  V30 6354 O 585.139 -2.27431 -1.48281 0
M  V30 6355 C 583.595 -3.51129 0.789732 0
M  V30 6356 C 583.203 -3.86938 2.25795 0
M  V30 6357 C 584.947 -4.2197 0.462765 0
M  V30 6358 C 582.854 -5.35012 2.52024 0
M  V30 6359 H 581.784 -0.734105 0.172065 0
M  V30 6360 H 584.435 -1.49959 1.05757 0
M  V30 6361 H 582.817 -3.95781 0.131571 0
M  V30 6362 H 583.991 -3.5326 2.95879 0
M  V30 6363 H 582.306 -3.29149 2.55049 0
M  V30 6364 H 584.903 -5.30904 0.636019 0
M  V30 6365 H 585.246 -4.12005 -0.59645 0
M  V30 6366 H 585.779 -3.82936 1.07727 0
M  V30 6367 H 582.518 -5.50008 3.56611 0
M  V30 6368 H 582.038 -5.70058 1.8653 0
M  V30 6369 H 583.717 -6.0222 2.36515 0
M  V30 6370 N 583.85 -0.624285 -1.44708 0
M  V30 6371 C 584.76 0.0861083 -2.34442 0
M  V30 6372 C 585.776 0.84291 -1.5222 0
M  V30 6373 O 586.952 0.796723 -1.84971 0
M  V30 6374 C 584.017 1.05999 -3.30099 0
M  V30 6375 C 583.077 0.303316 -4.28227 0
M  V30 6376 C 582.311 1.23081 -5.19314 0
M  V30 6377 O 582.534 2.46929 -5.14181 0
M  V30 6378 O 581.468 0.71883 -5.97592 0
M  V30 6379 H 585.293 -0.651756 -2.96624 0
M  V30 6380 H 582.879 -0.384493 -1.44368 0
M  V30 6381 H 584.76 1.62046 -3.88997 0
M  V30 6382 H 583.436 1.77859 -2.70459 0
M  V30 6383 H 582.343 -0.300033 -3.72895 0
M  V30 6384 H 583.676 -0.375123 -4.90768 0
M  V30 6385 N 585.328 1.53329 -0.364422 0
M  V30 6386 C 586.26 2.23286 0.517293 0
M  V30 6387 C 587.273 1.24657 1.04711 0
M  V30 6388 O 588.462 1.50887 0.95369 0
M  V30 6389 C 585.562 2.91604 1.72685 0
M  V30 6390 C 584.735 4.1673 1.32873 0
M  V30 6391 C 583.794 4.68269 2.40022 0
M  V30 6392 O 582.82 5.31976 2.02461 0
M  V30 6393 N 584.022 4.45983 3.7159 0
M  V30 6394 H 586.787 2.99588 -0.0819391 0
M  V30 6395 H 584.348 1.60787 -0.189544 0
M  V30 6396 H 586.34 3.22992 2.4384 0
M  V30 6397 H 584.91 2.18763 2.23297 0
M  V30 6398 H 584.13 3.91657 0.447069 0
M  V30 6399 H 585.418 4.98078 1.03902 0
M  V30 6400 H 584.816 3.95077 4.04883 0
M  V30 6401 H 583.373 4.81924 4.38854 0
M  V30 6402 N 586.806 0.0935595 1.57322 0
M  V30 6403 C 588.036 -0.578095 1.98347 0
M  V30 6404 C 588.444 -1.62357 0.971441 0
M  V30 6405 O 587.787 -1.83639 -0.0473959 0
M  V30 6406 C 587.849 -1.28525 3.3574 0
M  V30 6407 C 587.513 -0.390714 4.55327 0
M  V30 6408 C 588.51 0.360522 5.18648 0
M  V30 6409 C 586.195 -0.309221 5.01347 0
M  V30 6410 C 588.189 1.18125 6.26359 0
M  V30 6411 C 585.876 0.515157 6.08925 0
M  V30 6412 C 586.874 1.25904 6.71295 0
M  V30 6413 O 586.562 2.06978 7.76798 0
M  V30 6414 H 586.294 -0.159767 0.656849 0
M  V30 6415 H 588.848 0.169058 2.04703 0
M  V30 6416 H 587.078 -2.07894 3.26063 0
M  V30 6417 H 588.767 -1.85128 3.61223 0
M  V30 6418 H 589.533 0.307285 4.84026 0
M  V30 6419 H 585.412 -0.877881 4.52564 0
M  V30 6420 H 588.956 1.76236 6.74971 0
M  V30 6421 H 584.853 0.56988 6.42979 0
M  V30 6422 H 585.621 1.99644 7.93779 0
M  V30 6423 N 588.284 -1.56567 -0.180126 0
M  V30 6424 C 589.247 -1.94852 -1.20686 0
M  V30 6425 C 590.247 -0.831212 -1.3765 0
M  V30 6426 O 591.437 -1.09841 -1.35206 0
M  V30 6427 C 588.569 -2.23565 -2.57355 0
M  V30 6428 H 589.762 -2.86722 -0.879225 0
M  V30 6429 H 587.315 -1.50489 -0.422237 0
M  V30 6430 H 588.05 -1.34381 -2.95148 0
M  V30 6431 H 587.835 -3.04999 -2.46411 0
M  V30 6432 H 589.325 -2.54137 -3.31367 0
M  V30 6433 N 589.762 0.448376 -1.51087 0
M  V30 6434 C 590.725 1.52588 -1.71025 0
M  V30 6435 C 591.725 1.49958 -0.580442 0
M  V30 6436 O 592.915 1.52176 -0.847833 0
M  V30 6437 C 590.047 2.92163 -1.75652 0
M  V30 6438 H 591.24 1.36218 -2.67179 0
M  V30 6439 H 588.793 0.676313 -1.4091 0
M  V30 6440 H 589.528 3.13951 -0.812724 0
M  V30 6441 H 589.313 2.95478 -2.57751 0
M  V30 6442 H 590.803 3.70349 -1.92953 0
M  V30 6443 N 591.24 1.41047 0.703093 0
M  V30 6444 C 592.651 1.35657 1.28274 0
M  V30 6445 C 593.002 0.0360309 1.96167 0
M  V30 6446 O 592.127 -0.865833 1.98324 0
M  V30 6447 C 592.722 2.45707 2.33267 0
M  V30 6448 C 591.281 2.43738 2.86825 0
M  V30 6449 C 590.428 2.25941 1.60767 0
M  V30 6450 H 593.379 1.50672 0.49836 0
M  V30 6451 H 593.4 2.14333 3.14391 0
M  V30 6452 H 592.912 3.41805 1.83824 0
M  V30 6453 H 591.013 1.51375 3.40465 0
M  V30 6454 H 591.126 3.39779 3.37768 0
M  V30 6455 H 589.49 1.73681 1.86298 0
M  V30 6456 H 590.273 3.24054 1.1333 0
M  V30 6457 N 592.718 -0.936591 1.26751 0
M  V30 6458 C 593.648 -2.05315 1.11212 0
M  V30 6459 C 594.629 -1.70092 0.0160262 0
M  V30 6460 O 595.814 -1.93279 0.188894 0
M  V30 6461 C 592.944 -3.39123 0.749171 0
M  V30 6462 C 591.898 -3.88425 1.79751 0
M  V30 6463 C 591.224 -5.18936 1.28876 0
M  V30 6464 C 592.524 -4.12798 3.19992 0
M  V30 6465 H 594.218 -2.18573 2.04613 0
M  V30 6466 H 591.764 -1.05027 0.985159 0
M  V30 6467 H 593.717 -4.16704 0.627323 0
M  V30 6468 H 592.441 -3.25855 -0.220543 0
M  V30 6469 H 591.1 -3.13028 1.90811 0
M  V30 6470 H 590.748 -5.02051 0.308757 0
M  V30 6471 H 590.448 -5.52892 1.98958 0
M  V30 6472 H 591.972 -5.99096 1.17967 0
M  V30 6473 H 593.386 -4.80977 3.11983 0
M  V30 6474 H 591.783 -4.58044 3.87705 0
M  V30 6475 H 592.853 -3.18412 3.65707 0
M  V30 6476 N 594.196 -1.08629 -1.14182 0
M  V30 6477 C 595.607 -0.838003 -1.66836 0
M  V30 6478 C 595.958 0.634885 -1.85644 0
M  V30 6479 O 595.083 1.49008 -1.56926 0
M  V30 6480 C 595.678 -1.51465 -3.03058 0
M  V30 6481 C 594.237 -1.31355 -3.52736 0
M  V30 6482 C 593.384 -1.57599 -2.28162 0
M  V30 6483 H 596.335 -1.24656 -0.982165 0
M  V30 6484 H 596.356 -0.943134 -3.68626 0
M  V30 6485 H 595.868 -2.58661 -2.89337 0
M  V30 6486 H 593.969 -0.262384 -3.71675 0
M  V30 6487 H 594.082 -2.04275 -4.33369 0
M  V30 6488 H 592.446 -0.997659 -2.34348 0
M  V30 6489 H 593.229 -2.66006 -2.17015 0
M  V30 6490 N 595.674 1.31259 -0.872281 0
M  V30 6491 C 597.085 1.78822 -0.536617 0
M  V30 6492 C 597.436 1.71855 0.946594 0
M  V30 6493 O 596.561 1.28769 1.73918 0
M  V30 6494 C 597.156 3.24698 -0.967294 0
M  V30 6495 C 595.715 3.70147 -0.683251 0
M  V30 6496 C 594.862 2.51994 -1.15733 0
M  V30 6497 H 597.813 1.18308 -1.05777 0
M  V30 6498 H 597.834 3.79386 -0.290929 0
M  V30 6499 H 597.346 3.29737 -2.04683 0
M  V30 6500 H 595.447 3.70607 0.384825 0
M  V30 6501 H 595.56 4.62183 -1.2619 0
M  V30 6502 H 593.924 2.48078 -0.577024 0
M  V30 6503 H 594.707 2.59778 -2.24434 0
M  V30 6504 N 597.152 0.631951 1.44375 0
M  V30 6505 C 598.115 -0.0628142 2.29114 0
M  V30 6506 C 599.115 -0.771494 1.41084 0
M  V30 6507 O 600.305 -0.615959 1.62947 0
M  V30 6508 C 597.437 -1.09953 3.22681 0
M  V30 6509 H 598.63 0.682509 2.92031 0
M  V30 6510 H 596.183 0.392128 1.51301 0
M  V30 6511 H 596.918 -1.87481 2.64616 0
M  V30 6512 H 596.703 -0.595286 3.87555 0
M  V30 6513 H 598.193 -1.58538 3.86336 0
M  V30 6514 N 598.631 -1.53133 0.372548 0
M  V30 6515 C 599.877 -2.01654 -0.215277 0
M  V30 6516 C 600.21 -1.25914 -1.47849 0
M  V30 6517 O 599.485 -0.3548 -1.91237 0
M  V30 6518 C 599.768 -3.56609 -0.500187 0
M  V30 6519 C 599.621 -4.43036 0.777145 0
M  V30 6520 C 600.94 -4.20528 -1.29786 0
M  V30 6521 H 598.059 -0.732991 -0.0767686 0
M  V30 6522 H 600.701 -1.83335 0.498814 0
M  V30 6523 H 598.851 -3.7235 -1.10852 0
M  V30 6524 H 600.523 -4.39079 1.41447 0
M  V30 6525 H 598.766 -4.10723 1.39604 0
M  V30 6526 H 599.437 -5.49424 0.532662 0
M  V30 6527 H 601.913 -4.08663 -0.783198 0
M  V30 6528 H 600.789 -5.28962 -1.46596 0
M  V30 6529 H 601.05 -3.77051 -2.30836 0
M  V30 6530 N 600.109 -0.101901 -1.5727 0
M  V30 6531 C 601.356 0.560197 -1.94597 0
M  V30 6532 C 601.684 1.67767 -0.984101 0
M  V30 6533 O 600.939 1.95699 -0.00489193 0
M  V30 6534 C 601.238 1.14898 -3.38427 0
M  V30 6535 C 600.904 0.154613 -4.50635 0
M  V30 6536 C 599.566 -0.118861 -4.81053 0
M  V30 6537 C 601.918 -0.523979 -5.18559 0
M  V30 6538 C 599.246 -1.0775 -5.76721 0
M  V30 6539 C 601.598 -1.47114 -6.15256 0
M  V30 6540 C 600.262 -1.75278 -6.44076 0
M  V30 6541 H 599.532 0.204991 -0.712081 0
M  V30 6542 H 602.179 -0.17918 -1.9066 0
M  V30 6543 H 600.484 1.96476 -3.38976 0
M  V30 6544 H 602.181 1.66909 -3.64613 0
M  V30 6545 H 598.771 0.377948 -4.2693 0
M  V30 6546 H 602.955 -0.325851 -4.95229 0
M  V30 6547 H 598.211 -1.30263 -5.97362 0
M  V30 6548 H 602.385 -2.00274 -6.66981 0
M  V30 6549 H 600.012 -2.49717 -7.18015 0
M  V30 6550 N 601.587 1.56661 0.17182 0
M  V30 6551 C 602.517 1.99401 1.21498 0
M  V30 6552 C 603.498 0.869516 1.46197 0
M  V30 6553 O 604.683 1.13556 1.57539 0
M  V30 6554 C 601.813 2.35346 2.55401 0
M  V30 6555 C 600.767 3.5075 2.45272 0
M  V30 6556 C 600.093 3.72437 3.8366 0
M  V30 6557 C 601.393 4.84216 1.95787 0
M  V30 6558 H 603.087 2.86792 0.859699 0
M  V30 6559 H 600.633 1.37977 0.412103 0
M  V30 6560 H 602.586 2.63843 3.2858 0
M  V30 6561 H 601.31 1.44864 2.92715 0
M  V30 6562 H 599.969 3.2238 1.74547 0
M  V30 6563 H 599.617 2.79246 4.18367 0
M  V30 6564 H 599.317 4.50087 3.77751 0
M  V30 6565 H 600.841 4.03334 4.58426 0
M  V30 6566 H 602.255 5.11592 2.5874 0
M  V30 6567 H 600.652 5.65498 2.00827 0
M  V30 6568 H 601.722 4.76243 0.912159 0
M  V30 6569 N 603.065 -0.440357 1.51323 0
M  V30 6570 C 604.313 -1.18769 1.63518 0
M  V30 6571 C 604.634 -1.91793 0.352201 0
M  V30 6572 O 603.904 -1.85432 -0.631811 0
M  V30 6573 H 602.484 -0.441408 0.602634 0
M  V30 6574 H 605.146 -0.505162 1.8824 0
M  V30 6575 H 604.242 -1.91892 2.46138 0
M  V30 6576 N 604.543 -1.41418 -0.695603 0
M  V30 6577 C 605.473 -1.46035 -1.82197 0
M  V30 6578 C 606.454 -0.319025 -1.67082 0
M  V30 6579 O 607.639 -0.530462 -1.86815 0
M  V30 6580 C 604.769 -1.34179 -3.20333 0
M  V30 6581 C 603.723 -2.46123 -3.50154 0
M  V30 6582 C 603.049 -2.19332 -4.87645 0
M  V30 6583 C 604.349 -3.88463 -3.49133 0
M  V30 6584 H 606.043 -2.40303 -1.78591 0
M  V30 6585 H 603.589 -1.15663 -0.857797 0
M  V30 6586 H 605.542 -1.36021 -3.98844 0
M  V30 6587 H 604.266 -0.363952 -3.24566 0
M  V30 6588 H 602.925 -2.43563 -2.73994 0
M  V30 6589 H 602.573 -1.19891 -4.88503 0
M  V30 6590 H 602.273 -2.94344 -5.08562 0
M  V30 6591 H 603.797 -2.22889 -5.68465 0
M  V30 6592 H 605.211 -3.92738 -4.17648 0
M  V30 6593 H 603.608 -4.63158 -3.81582 0
M  V30 6594 H 604.678 -4.16617 -2.48109 0
M  V30 6595 N 606.021 0.929856 -1.27246 0
M  V30 6596 C 606.984 2.01172 -1.09829 0
M  V30 6597 C 607.984 1.60743 -0.0429687 0
M  V30 6598 O 609.174 1.71813 -0.287373 0
M  V30 6599 C 606.306 3.34191 -0.673003 0
M  V30 6600 H 607.499 2.18054 -2.05895 0
M  V30 6601 H 605.052 1.11036 -1.10003 0
M  V30 6602 H 605.787 3.23009 0.289134 0
M  V30 6603 H 605.572 3.64892 -1.43515 0
M  V30 6604 H 607.062 4.13646 -0.573323 0
M  V30 6605 N 607.499 1.09233 1.13605 0
M  V30 6606 C 608.915 0.82163 1.36826 0
M  V30 6607 C 609.115 -0.565021 1.93416 0
M  V30 6608 O 608.171 -1.32026 2.15234 0
M  V30 6609 C 609.484 1.91124 2.32147 0
M  V30 6610 C 611.032 1.93824 2.45767 0
M  V30 6611 C 611.507 3.01923 3.44393 0
M  V30 6612 N 612.998 3.01149 3.51942 0
M  V30 6613 C 613.733 3.81434 4.2813 0
M  V30 6614 N 613.229 4.71621 5.07489 0
M  V30 6615 N 615.022 3.69702 4.23411 0
M  V30 6616 H 607.173 1.98633 0.752234 0
M  V30 6617 H 609.436 0.862482 0.393482 0
M  V30 6618 H 609.142 2.90862 1.97717 0
M  V30 6619 H 609.016 1.78777 3.32142 0
M  V30 6620 H 611.403 0.94726 2.79483 0
M  V30 6621 H 611.484 2.10248 1.45703 0
M  V30 6622 H 611.128 4.01232 3.11408 0
M  V30 6623 H 611.058 2.82742 4.44257 0
M  V30 6624 H 613.549 2.35789 2.95317 0
M  V30 6625 H 613.862 5.29468 5.62924 0
M  V30 6626 H 612.207 4.75658 5.06729 0
M  V30 6627 H 615.398 2.98606 3.60489 0
M  V30 6628 H 615.571 4.32509 4.82535 0
M  V30 6629 N 608.977 -1.30795 0.87923 0
M  V30 6630 C 609.924 -2.28282 0.339968 0
M  V30 6631 C 610.894 -1.56134 -0.566685 0
M  V30 6632 O 612.079 -1.84231 -0.496338 0
M  V30 6633 C 609.219 -3.42225 -0.444501 0
M  V30 6634 C 608.332 -4.29204 0.490717 0
M  V30 6635 C 607.467 -5.30302 -0.308784 0
M  V30 6636 C 606.506 -6.08929 0.622272 0
M  V30 6637 N 605.643 -7.01957 -0.14155 0
M  V30 6638 H 610.483 -2.73794 1.17647 0
M  V30 6639 H 608.02 -1.34682 0.591527 0
M  V30 6640 H 609.978 -4.07038 -0.915186 0
M  V30 6641 H 608.608 -2.97799 -1.24562 0
M  V30 6642 H 607.66 -3.6475 1.07988 0
M  V30 6643 H 608.972 -4.84045 1.20425 0
M  V30 6644 H 608.126 -6.00835 -0.841575 0
M  V30 6645 H 606.865 -4.7614 -1.05556 0
M  V30 6646 H 605.87 -5.37278 1.16674 0
M  V30 6647 H 607.095 -6.65178 1.36804 0
M  V30 6648 H 605.041 -6.50192 -0.870966 0
M  V30 6649 H 604.958 -7.54261 0.51246 0
M  V30 6650 H 606.226 -7.76741 -0.655271 0
M  V30 6651 N 610.455 -0.639598 -1.44038 0
M  V30 6652 C 611.704 -0.144885 -2.01179 0
M  V30 6653 C 612.017 1.24372 -1.50967 0
M  V30 6654 O 613.223 1.83291 -2.00292 0
M  V30 6655 C 611.679 -0.208244 -3.59297 0
M  V30 6656 C 611.287 -1.59869 -4.18504 0
M  V30 6657 C 613.031 0.229568 -4.23879 0
M  V30 6658 C 610.938 -1.61671 -5.68873 0
M  V30 6659 H 609.868 -0.0504005 -0.752314 0
M  V30 6660 H 612.519 -0.799639 -1.65161 0
M  V30 6661 H 610.901 0.513767 -3.92653 0
M  V30 6662 H 612.075 -2.34496 -3.96671 0
M  V30 6663 H 610.39 -1.98131 -3.66242 0
M  V30 6664 H 612.987 0.235758 -5.3418 0
M  V30 6665 H 613.33 1.25848 -3.96822 0
M  V30 6666 H 613.863 -0.440233 -3.95357 0
M  V30 6667 H 610.602 -2.62427 -6.00677 0
M  V30 6668 H 610.122 -0.913489 -5.92803 0
M  V30 6669 H 611.801 -1.35439 -6.32665 0
M  V30 6670 N 611.933 1.52934 -0.380664 0
M  V30 6671 C 613.163 2.05587 0.204302 0
M  V30 6672 C 613.571 1.25288 1.41773 0
M  V30 6673 O 612.914 0.290394 1.8139 0
M  V30 6674 C 612.976 3.53624 0.647324 0
M  V30 6675 C 612.64 4.54765 -0.451465 0
M  V30 6676 C 613.637 5.03226 -1.30614 0
M  V30 6677 C 611.322 4.98508 -0.616025 0
M  V30 6678 C 613.316 5.94046 -2.31058 0
M  V30 6679 C 611.003 5.89131 -1.62381 0
M  V30 6680 C 612.001 6.36792 -2.46952 0
M  V30 6681 O 611.689 7.25626 -3.46009 0
M  V30 6682 H 611.421 0.675013 0.0365198 0
M  V30 6683 H 613.975 1.98125 -0.541827 0
M  V30 6684 H 612.205 3.58676 1.44529 0
M  V30 6685 H 613.894 3.89061 1.15698 0
M  V30 6686 H 614.66 4.70167 -1.19027 0
M  V30 6687 H 610.539 4.60989 0.0324987 0
M  V30 6688 H 614.083 6.3117 -2.97104 0
M  V30 6689 H 609.98 6.21603 -1.7401 0
M  V30 6690 H 610.748 7.43664 -3.41916 0
M  V30 6691 N 613.412 0.11024 1.57214 0
M  V30 6692 C 614.359 -0.843195 2.14846 0
M  V30 6693 C 615.329 -1.26954 1.07107 0
M  V30 6694 O 616.514 -1.34861 1.34971 0
M  V30 6695 C 613.654 -2.09123 2.74521 0
M  V30 6696 C 612.767 -1.71404 3.96541 0
M  V30 6697 C 611.902 -2.91107 4.44331 0
M  V30 6698 C 610.941 -2.49586 5.58903 0
M  V30 6699 N 610.078 -3.62175 6.01477 0
M  V30 6700 H 614.918 -0.344886 2.95998 0
M  V30 6701 H 612.455 -0.15855 1.46243 0
M  V30 6702 H 614.413 -2.82234 3.07246 0
M  V30 6703 H 613.043 -2.56427 1.96074 0
M  V30 6704 H 612.095 -0.88201 3.70033 0
M  V30 6705 H 613.407 -1.36884 4.7965 0
M  V30 6706 H 612.561 -3.72454 4.78919 0
M  V30 6707 H 611.3 -3.28848 3.60153 0
M  V30 6708 H 610.305 -1.6667 5.23929 0
M  V30 6709 H 611.53 -2.12973 6.4484 0
M  V30 6710 H 609.476 -3.99605 5.20242 0
M  V30 6711 H 609.393 -3.3155 6.79419 0
M  V30 6712 H 610.661 -4.43987 6.407 0
M  V30 6713 N 614.89 -1.56749 -0.16351 0
M  V30 6714 C 616.306 -1.51043 -0.515567 0
M  V30 6715 C 616.506 -0.815855 -1.84245 0
M  V30 6716 O 615.562 -0.379477 -2.49632 0
M  V30 6717 C 616.875 -2.95791 -0.541114 0
M  V30 6718 C 618.423 -3.0664 -0.627776 0
M  V30 6719 C 618.898 -4.52861 -0.684141 0
M  V30 6720 N 620.389 -4.5714 -0.746818 0
M  V30 6721 C 621.124 -5.67634 -0.811137 0
M  V30 6722 N 620.62 -6.8774 -0.835811 0
M  V30 6723 N 622.413 -5.55624 -0.850756 0
M  V30 6724 H 614.564 -2.00307 0.70645 0
M  V30 6725 H 616.827 -0.912876 0.255659 0
M  V30 6726 H 616.533 -3.49797 0.365329 0
M  V30 6727 H 616.407 -3.50858 -1.38487 0
M  V30 6728 H 618.794 -2.52663 -1.52464 0
M  V30 6729 H 618.875 -2.54645 0.242805 0
M  V30 6730 H 618.519 -5.07472 0.2085 0
M  V30 6731 H 618.449 -5.02621 -1.57098 0
M  V30 6732 H 620.94 -3.70669 -0.735717 0
M  V30 6733 H 621.253 -7.67701 -0.886279 0
M  V30 6734 H 619.598 -6.90334 -0.803958 0
M  V30 6735 H 622.789 -4.60709 -0.828535 0
M  V30 6736 H 622.962 -6.41756 -0.897418 0
M  V30 6737 N 616.368 0.432326 -1.51554 0
M  V30 6738 C 617.784 0.769195 -1.39841 0
M  V30 6739 C 617.984 1.95584 -0.484675 0
M  V30 6740 O 617.04 2.52433 0.0582829 0
M  V30 6741 C 618.353 1.04487 -2.81963 0
M  V30 6742 C 619.901 1.149 -2.91148 0
M  V30 6743 C 620.376 1.45758 -4.34187 0
M  V30 6744 N 621.867 1.52671 -4.37317 0
M  V30 6745 C 622.602 1.78129 -5.4503 0
M  V30 6746 N 622.098 2.01345 -6.62897 0
M  V30 6747 N 623.891 1.79953 -5.32516 0
M  V30 6748 H 616.042 -0.349122 -2.09511 0
M  V30 6749 H 618.305 -0.0938113 -0.943347 0
M  V30 6750 H 618.011 0.24557 -3.50842 0
M  V30 6751 H 617.885 1.97119 -3.21596 0
M  V30 6752 H 620.272 1.93891 -2.22464 0
M  V30 6753 H 620.353 0.201568 -2.55005 0
M  V30 6754 H 619.997 0.672917 -5.03423 0
M  V30 6755 H 619.927 2.41715 -4.67848 0
M  V30 6756 H 622.418 1.36612 -3.52343 0
M  V30 6757 H 622.731 2.20155 -7.40778 0
M  V30 6758 H 621.076 1.98657 -6.66003 0
M  V30 6759 H 624.267 1.61337 -4.39418 0
M  V30 6760 H 624.44 1.99455 -6.1654 0
M  V30 6761 N 617.846 1.41785 0.688094 0
M  V30 6762 C 618.793 1.44221 1.80191 0
M  V30 6763 C 619.763 0.295688 1.63447 0
M  V30 6764 O 620.948 0.49783 1.84191 0
M  V30 6765 C 618.088 1.33743 3.1813 0
M  V30 6766 C 617.201 2.58325 3.46254 0
M  V30 6767 C 616.336 2.40086 4.73848 0
M  V30 6768 C 615.375 3.60107 4.94964 0
M  V30 6769 N 614.512 3.40892 6.13789 0
M  V30 6770 H 619.352 2.39411 1.77444 0
M  V30 6771 H 616.889 1.18876 0.866423 0
M  V30 6772 H 618.847 1.25669 3.97823 0
M  V30 6773 H 617.477 0.42157 3.20035 0
M  V30 6774 H 616.529 2.7682 2.60912 0
M  V30 6775 H 617.841 3.4758 3.57756 0
M  V30 6776 H 616.995 2.29522 5.61609 0
M  V30 6777 H 615.734 1.483 4.64606 0
M  V30 6778 H 614.739 3.71118 4.05649 0
M  V30 6779 H 615.964 4.52857 5.06061 0
M  V30 6780 H 613.91 2.51812 6.05745 0
M  V30 6781 H 613.827 4.23727 6.26092 0
M  V30 6782 H 615.095 3.34114 7.04264 0
M  V30 6783 O 619.363 -0.830368 1.38518 0
M  V30 6784 H 620.054 -1.47302 1.25785 0
M  V30 END ATOM
M  V30 BEGIN BOND
M  V30 END BOND
M  V30 END CTAB
M  END
$$$$
