drugbank_target|Q83LD8 4-diphosphocytidyl-2-C-methyl-D-erythritol kinase (DB03687; DB04395)
 OpenBabel12092119563D

  0  0  0     0  0            999 V3000
M  V30 BEGIN CTAB
M  V30 COUNTS 4351 4400 0 0 0
M  V30 BEGIN ATOM
M  V30 1 H -0.908 1.98254 -0.117106 0
M  V30 2 N 0 1.576 0 0
M  V30 3 C 0.933 2.03868 1.02534 0
M  V30 4 C 1.911 0.928543 1.3348 0
M  V30 5 O 3.095 1.19667 1.45644 0
M  V30 6 C 0.222 2.43627 2.35294 0
M  V30 7 C -0.732 3.65373 2.2001 0
M  V30 8 S 0.101 5.13292 1.52614 0
M  V30 9 C 1.257 5.56322 2.86805 0
M  V30 10 H 1.49 2.90518 0.631377 0
M  V30 11 H -0.977 1.52953 0.210867 0
M  V30 12 H 0.981 2.67203 3.11629 0
M  V30 13 H -0.358 1.57376 2.7183 0
M  V30 14 H -1.165 3.90944 3.18086 0
M  V30 15 H -1.563 3.418 1.51819 0
M  V30 16 H 0.729 5.58782 3.83104 0
M  V30 17 H 1.672 6.56266 2.65933 0
M  V30 18 H 2.08 4.83886 2.90714 0
M  V30 19 N 1.4781 -0.272755 1.55222 0
M  V30 20 C 2.8941 -0.619959 1.47067 0
M  V30 21 C 3.0941 -1.895 0.684978 0
M  V30 22 O 2.1501 -2.51675 0.203931 0
M  V30 23 C 3.4631 -0.746693 2.91282 0
M  V30 24 C 5.0111 -0.840731 3.01497 0
M  V30 25 C 5.4861 -0.99924 4.46967 0
M  V30 26 N 6.9771 -1.06476 4.50796 0
M  V30 27 C 7.7121 -1.20621 5.6057 0
M  V30 28 N 7.2081 -1.31483 6.80209 0
M  V30 29 N 9.0011 -1.23733 5.48312 0
M  V30 30 H 1.1521 0.564606 2.04758 0
M  V30 31 H 3.4151 0.191177 0.928523 0
M  V30 32 H 3.1211 0.119753 3.51496 0
M  V30 33 H 2.9951 -1.6269 3.40311 0
M  V30 34 H 5.3821 -1.69764 2.41379 0
M  V30 35 H 5.4631 0.0640874 2.5572 0
M  V30 36 H 5.1071 -0.146984 5.07687 0
M  V30 37 H 5.0371 -1.91871 4.90401 0
M  V30 38 H 7.5281 -0.993196 3.64615 0
M  V30 39 H 7.8411 -1.42111 7.59621 0
M  V30 40 H 6.1861 -1.28487 6.8302 0
M  V30 41 H 9.3771 -1.14877 4.53785 0
M  V30 42 H 9.5501 -1.34412 6.33906 0
M  V30 43 N 2.9562 -1.48159 -0.537278 0
M  V30 44 C 4.1842 -1.59454 -1.31841 0
M  V30 45 C 4.5992 -0.252065 -1.8711 0
M  V30 46 O 3.9562 0.757621 -1.66031 0
M  V30 47 C 4.0072 -2.63546 -2.47439 0
M  V30 48 O 3.7282 -3.92583 -1.94449 0
M  V30 49 C 5.2292 -2.85212 -3.39366 0
M  V30 50 H 2.4492 -0.53785 -0.401196 0
M  V30 51 H 4.9932 -1.93932 -0.648891 0
M  V30 52 H 3.1482 -2.31946 -3.1029 0
M  V30 53 H 3.5622 -4.49629 -2.70063 0
M  V30 54 H 5.0362 -3.61863 -4.16844 0
M  V30 55 H 5.5132 -1.93765 -3.94147 0
M  V30 56 H 6.1192 -3.18086 -2.82314 0
M  V30 57 N 4.4343 0.785586 -1.36625 0
M  V30 58 C 5.3663 1.90711 -1.2713 0
M  V30 59 C 6.3793 1.61688 -0.189986 0
M  V30 60 O 7.5683 1.72864 -0.445014 0
M  V30 61 C 4.6683 3.25611 -0.939713 0
M  V30 62 C 3.8413 3.82385 -2.12369 0
M  V30 63 C 2.9003 4.95732 -1.76456 0
M  V30 64 O 1.9263 5.12047 -2.48589 0
M  V30 65 N 3.1283 5.76258 -0.700492 0
M  V30 66 H 5.8933 1.99376 -2.23762 0
M  V30 67 H 3.4543 0.964041 -1.30069 0
M  V30 68 H 5.4463 3.98937 -0.680554 0
M  V30 69 H 4.0163 3.12538 -0.0624074 0
M  V30 70 H 3.2363 3.01001 -2.54543 0
M  V30 71 H 4.5243 4.17047 -2.9146 0
M  V30 72 H 3.9223 5.65609 -0.101624 0
M  V30 73 H 2.4793 6.4987 -0.501165 0
M  V30 74 N 5.9124 1.20967 1.01018 0
M  V30 75 C 7.1584 1.0353 1.7508 0
M  V30 76 C 7.5134 -0.42734 1.87594 0
M  V30 77 O 6.8064 -1.31298 1.3954 0
M  V30 78 C 7.0004 1.65997 3.16512 0
M  V30 79 C 6.8294 3.18184 3.17788 0
M  V30 80 C 5.5994 3.87198 3.24662 0
M  V30 81 C 7.7974 4.15334 3.03319 0
M  V30 82 N 5.7794 5.26618 3.15509 0
M  V30 83 C 7.1504 5.41472 3.02007 0
M  V30 84 C 9.2054 4.06449 2.87583 0
M  V30 85 C 7.9084 6.5975 2.86571 0
M  V30 86 C 9.9344 5.24357 2.73503 0
M  V30 87 C 9.2964 6.49404 2.72862 0
M  V30 88 H 5.3954 0.433137 0.651089 0
M  V30 89 H 7.9794 1.5324 1.20107 0
M  V30 90 H 6.1504 1.18863 3.69765 0
M  V30 91 H 7.8824 1.41816 3.79039 0
M  V30 92 H 4.6374 3.38093 3.31648 0
M  V30 93 H 5.0614 5.99626 3.14289 0
M  V30 94 H 9.7034 3.10573 2.86887 0
M  V30 95 H 7.4214 7.55792 2.86015 0
M  V30 96 H 11.0074 5.19299 2.62334 0
M  V30 97 H 9.8874 7.39105 2.62093 0
M  V30 98 N 7.3905 -1.2043 1.01659 0
M  V30 99 C 8.8015 -1.71517 0.737482 0
M  V30 100 C 9.1525 -1.81547 -0.743973 0
M  V30 101 O 8.2775 -1.47803 -1.58061 0
M  V30 102 C 8.8725 -3.11515 1.33206 0
M  V30 103 C 7.4315 -3.59912 1.10183 0
M  V30 104 C 6.5785 -2.37116 1.43776 0
M  V30 105 H 9.5295 -1.05444 1.18606 0
M  V30 106 H 9.5505 -3.73575 0.722636 0
M  V30 107 H 9.0625 -3.04182 2.41028 0
M  V30 108 H 7.1635 -3.72577 0.0412756 0
M  V30 109 H 7.2765 -4.44731 1.78188 0
M  V30 110 H 5.6405 -2.39857 0.856778 0
M  V30 111 H 6.4235 -2.32424 2.52654 0
M  V30 112 N 8.8686 -0.792821 -1.36206 0
M  V30 113 C 10.0936 -0.377701 -2.03932 0
M  V30 114 C 10.5186 0.998947 -1.59382 0
M  V30 115 O 9.8766 1.64421 -0.763903 0
M  V30 116 C 9.9246 -0.453635 -3.57735 0
M  V30 117 O 9.0286 0.538151 -4.08874 0
M  V30 118 H 8.3696 -0.159855 -0.644471 0
M  V30 119 H 10.8996 -1.07488 -1.7409 0
M  V30 120 H 10.9096 -0.318464 -4.06755 0
M  V30 121 H 9.5846 -1.45784 -3.89512 0
M  V30 122 H 8.1616 0.364359 -3.71116 0
M  V30 123 N 10.3467 1.47872 -0.545128 0
M  V30 124 C 11.7577 1.86384 -0.108581 0
M  V30 125 C 12.1087 1.45309 1.31832 0
M  V30 126 O 11.2337 0.850641 1.9898 0
M  V30 127 C 11.8287 3.38265 -0.190274 0
M  V30 128 C 10.3877 3.75914 0.191164 0
M  V30 129 C 9.5347 2.71926 -0.543273 0
M  V30 130 H 12.4857 1.39561 -0.755537 0
M  V30 131 H 12.5067 3.75831 0.594217 0
M  V30 132 H 12.0187 3.6813 -1.2289 0
M  V30 133 H 10.1197 3.51665 1.23136 0
M  V30 134 H 10.2327 4.78836 -0.158987 0
M  V30 135 H 8.5967 2.54697 0.0122495 0
M  V30 136 H 9.3797 3.04634 -1.58282 0
M  V30 137 N 11.8248 0.280983 1.55075 0
M  V30 138 C 12.7878 -0.590896 2.21452 0
M  V30 139 C 13.7878 -1.07682 1.19421 0
M  V30 140 O 14.9778 -0.97605 1.44288 0
M  V30 141 C 12.1098 -1.81587 2.88511 0
M  V30 142 H 13.3028 -0.0112554 2.99898 0
M  V30 143 H 10.8558 0.0316438 1.56268 0
M  V30 144 H 11.5908 -2.43587 2.14093 0
M  V30 145 H 11.3758 -1.4753 3.63287 0
M  V30 146 H 12.8658 -2.43575 3.39206 0
M  V30 147 N 13.3029 -1.57598 0.00835791 0
M  V30 148 C 14.2499 -2.08945 -0.980346 0
M  V30 149 C 15.2199 -0.986738 -1.33614 0
M  V30 150 O 16.4049 -1.25968 -1.43306 0
M  V30 151 C 13.5449 -2.60425 -2.26435 0
M  V30 152 C 12.6579 -3.84628 -1.96685 0
M  V30 153 C 11.7929 -4.24579 -3.19228 0
M  V30 154 C 10.8319 -5.41596 -2.85202 0
M  V30 155 N 9.9689 -5.768 -4.00307 0
M  V30 156 H 14.8089 -2.93148 -0.535551 0
M  V30 157 H 12.3459 -1.44912 -0.252776 0
M  V30 158 H 14.3039 -2.88354 -3.01509 0
M  V30 159 H 12.9339 -1.79083 -2.68568 0
M  V30 160 H 11.9859 -3.63556 -1.11942 0
M  V30 161 H 13.2979 -4.69796 -1.67611 0
M  V30 162 H 12.4519 -4.53834 -4.02641 0
M  V30 163 H 11.1909 -3.38137 -3.51447 0
M  V30 164 H 10.1959 -5.12056 -2.00198 0
M  V30 165 H 11.4209 -6.29721 -2.54222 0
M  V30 166 H 9.3669 -4.93316 -4.32407 0
M  V30 167 H 9.2839 -6.5656 -3.74786 0
M  V30 168 H 10.5519 -6.10652 -4.84484 0
M  V30 169 N 14.781 0.264519 -1.55364 0
M  V30 170 C 15.711 1.33121 -1.91836 0
M  V30 171 C 16.692 1.51101 -0.781192 0
M  V30 172 O 17.877 1.64003 -1.04003 0
M  V30 173 C 15.007 2.68921 -2.19769 0
M  V30 174 C 13.961 2.65661 -3.35571 0
M  V30 175 C 13.287 4.05093 -3.49004 0
M  V30 176 C 14.587 2.24187 -4.71739 0
M  V30 177 H 16.281 1.02844 -2.81182 0
M  V30 178 H 13.827 0.493286 -1.35287 0
M  V30 179 H 15.78 3.43663 -2.43872 0
M  V30 180 H 14.504 3.00799 -1.27231 0
M  V30 181 H 13.163 1.93377 -3.1145 0
M  V30 182 H 12.811 4.34206 -2.53917 0
M  V30 183 H 12.511 4.03804 -4.26868 0
M  V30 184 H 14.035 4.81561 -3.75408 0
M  V30 185 H 15.449 2.88654 -4.9533 0
M  V30 186 H 13.846 2.34044 -5.52579 0
M  V30 187 H 14.916 1.19327 -4.69988 0
M  V30 188 N 16.2591 1.48442 0.529413 0
M  V30 189 C 17.2071 1.63452 1.65487 0
M  V30 190 C 18.2011 0.500955 1.61823 0
M  V30 191 O 19.4071 0.679695 1.66674 0
M  V30 192 H 15.7821 0.514905 0.548066 0
M  V30 193 H 17.7531 2.57975 1.49971 0
M  V30 194 C 16.5021 1.69196 3.03756 0
M  V30 195 H 15.8251 2.55784 3.07269 0
M  V30 196 H 17.2651 1.83743 3.82119 0
M  V30 197 C 15.7241 0.430765 3.34135 0
M  V30 198 O 16.2541 -0.4561 3.99102 0
M  V30 199 N 14.4601 0.302293 2.89023 0
M  V30 200 H 14.0071 1.02496 2.36331 0
M  V30 201 H 13.9651 -0.540546 3.09718 0
M  V30 202 N 17.7372 -0.778329 1.37039 0
M  V30 203 C 18.6672 -1.90546 1.34962 0
M  V30 204 C 19.6482 -1.68681 0.219274 0
M  V30 205 O 20.8332 -1.89634 0.418624 0
M  V30 206 C 17.9632 -3.27734 1.14925 0
M  V30 207 C 16.9172 -3.64147 2.24902 0
M  V30 208 C 16.2432 -4.99806 1.89996 0
M  V30 209 C 17.5432 -3.71579 3.67051 0
M  V30 210 H 19.2372 -1.92541 2.29277 0
M  V30 211 H 16.7832 -0.924948 1.10366 0
M  V30 212 H 18.7362 -4.06215 1.12104 0
M  V30 213 H 17.4602 -3.26154 0.170631 0
M  V30 214 H 16.1192 -2.8797 2.26868 0
M  V30 215 H 15.7672 -4.94759 0.906796 0
M  V30 216 H 15.4672 -5.25139 2.63634 0
M  V30 217 H 16.9912 -5.80694 1.88749 0
M  V30 218 H 18.4052 -4.40227 3.67251 0
M  V30 219 H 16.8022 -4.08405 4.39688 0
M  V30 220 H 17.8722 -2.72404 4.01154 0
M  V30 221 N 19.2153 -1.21501 -1.00376 0
M  V30 222 C 20.4623 -1.03299 -1.74171 0
M  V30 223 C 20.7903 0.433326 -1.89612 0
M  V30 224 O 20.0453 1.33779 -1.42834 0
M  V30 225 C 20.3443 -1.67673 -3.15627 0
M  V30 226 C 20.0103 -3.17533 -3.2013 0
M  V30 227 C 18.6723 -3.58427 -3.21067 0
M  V30 228 C 21.0243 -4.13504 -3.17275 0
M  V30 229 C 18.3523 -4.93794 -3.16835 0
M  V30 230 C 20.7043 -5.48834 -3.14585 0
M  V30 231 C 19.3683 -5.89123 -3.13831 0
M  V30 232 H 18.6383 -0.377999 -0.637336 0
M  V30 233 H 21.2853 -1.51111 -1.17634 0
M  V30 234 H 19.5903 -1.12158 -3.75404 0
M  V30 235 H 21.2873 -1.51091 -3.71446 0
M  V30 236 H 17.8773 -2.84965 -3.20145 0
M  V30 237 H 22.0613 -3.82936 -3.15711 0
M  V30 238 H 17.3173 -5.24255 -3.1459 0
M  V30 239 H 21.4913 -6.22934 -3.1133 0
M  V30 240 H 19.1183 -6.93984 -3.10307 0
M  V30 241 N 20.6934 1.19889 -1.02296 0
M  V30 242 C 21.6234 2.25141 -0.619174 0
M  V30 243 C 22.6044 1.66051 0.368915 0
M  V30 244 O 23.7894 1.92546 0.252941 0
M  V30 245 C 20.9194 3.4728 0.0368783 0
M  V30 246 C 19.8734 4.19005 -0.872865 0
M  V30 247 C 19.1994 5.34637 -0.0822402 0
M  V30 248 C 20.4994 4.74452 -2.18387 0
M  V30 249 H 22.1934 2.59171 -1.49903 0
M  V30 250 H 19.7394 1.24579 -0.722222 0
M  V30 251 H 21.6924 4.20098 0.330958 0
M  V30 252 H 20.4164 3.12433 0.95149 0
M  V30 253 H 19.0754 3.48061 -1.15105 0
M  V30 254 H 18.7234 4.96034 0.83422 0
M  V30 255 H 18.4234 5.83557 -0.688149 0
M  V30 256 H 19.9474 6.10255 0.205238 0
M  V30 257 H 21.3614 5.39055 -1.95172 0
M  V30 258 H 19.7584 5.33834 -2.74119 0
M  V30 259 H 20.8284 3.92844 -2.84257 0
M  V30 260 N 22.1715 0.800033 1.35784 0
M  V30 261 C 23.4015 0.389041 2.02904 0
M  V30 262 C 23.8095 -1.0027 1.60445 0
M  V30 263 O 23.1525 -1.65633 0.794453 0
M  V30 264 C 23.2145 0.385495 3.57427 0
M  V30 265 C 22.8785 1.72662 4.23127 0
M  V30 266 C 23.8755 2.68385 4.4527 0
M  V30 267 C 21.5605 2.00883 4.60381 0
M  V30 268 C 23.5545 3.90517 5.03761 0
M  V30 269 C 21.2415 3.2328 5.18588 0
M  V30 270 C 22.2395 4.17915 5.40218 0
M  V30 271 O 21.9275 5.38153 5.97199 0
M  V30 272 H 21.6595 0.157032 0.657508 0
M  V30 273 H 24.2135 1.08311 1.74522 0
M  V30 274 H 22.4435 -0.365128 3.84972 0
M  V30 275 H 24.1325 -0.00228296 4.059 0
M  V30 276 H 24.8985 2.47872 4.16874 0
M  V30 277 H 20.7775 1.28037 4.42863 0
M  V30 278 H 24.3215 4.64395 5.2056 0
M  V30 279 H 20.2185 3.43667 5.4641 0
M  V30 280 H 20.9865 5.3936 6.15656 0
M  V30 281 N 23.6496 -1.47581 0.552962 0
M  V30 282 C 24.8986 -2.01684 0.0251995 0
M  V30 283 C 25.2116 -1.43317 -1.33115 0
M  V30 284 O 26.4176 -1.89057 -1.94858 0
M  V30 285 C 24.8736 -3.599 -0.00542052 0
M  V30 286 C 24.4816 -4.27257 1.34742 0
M  V30 287 C 26.2256 -4.21768 -0.4808 0
M  V30 288 C 24.1326 -5.77467 1.27614 0
M  V30 289 H 23.0626 -0.753979 0.00565033 0
M  V30 290 H 25.7136 -1.69616 0.70018 0
M  V30 291 H 24.0956 -3.88911 -0.745961 0
M  V30 292 H 25.2696 -4.09893 2.10534 0
M  V30 293 H 23.5846 -3.77358 1.76039 0
M  V30 294 H 26.1816 -5.31838 -0.55246 0
M  V30 295 H 26.5246 -3.88651 -1.49184 0
M  V30 296 H 27.0576 -3.97273 0.204752 0
M  V30 297 H 23.7966 -6.15196 2.26304 0
M  V30 298 H 23.3166 -5.9718 0.55996 0
M  V30 299 H 24.9956 -6.3959 0.976421 0
M  V30 300 N 25.1277 -0.289203 -1.54924 0
M  V30 301 C 26.3557 0.326463 -2.04308 0
M  V30 302 C 26.7707 1.48413 -1.16701 0
M  V30 303 O 26.1277 1.81507 -0.190087 0
M  V30 304 C 26.1787 0.794014 -3.52672 0
M  V30 305 O 25.8997 -0.317564 -4.36948 0
M  V30 306 C 27.4007 1.47605 -4.18004 0
M  V30 307 H 24.6207 0.0726272 -0.667058 0
M  V30 308 H 27.1647 -0.425401 -2.00026 0
M  V30 309 H 25.3197 1.49593 -3.57352 0
M  V30 310 H 25.7337 0.0443186 -5.24481 0
M  V30 311 H 27.2077 1.75447 -5.23376 0
M  V30 312 H 27.6847 2.41224 -3.67025 0
M  V30 313 H 28.2907 0.81762 -4.17367 0
M  V30 314 N 26.6058 1.57591 -0.0167156 0
M  V30 315 C 27.8538 1.90906 0.663285 0
M  V30 316 C 28.1748 0.892509 1.73376 0
M  V30 317 O 27.4448 -0.0677623 1.95783 0
M  V30 318 H 26.0248 0.704637 0.247983 0
M  V30 319 H 28.6868 1.94803 -0.0615909 0
M  V30 320 H 27.7828 2.9116 1.12393 0
M  V30 321 N 28.0839 -0.256276 1.55502 0
M  V30 322 C 29.0159 -1.33981 1.85962 0
M  V30 323 C 30.0289 -1.44743 0.745212 0
M  V30 324 O 31.2179 -1.4626 1.02324 0
M  V30 325 C 28.3179 -2.7194 2.02242 0
M  V30 326 C 27.4909 -2.83562 3.33033 0
M  V30 327 C 26.5499 -4.02304 3.39172 0
M  V30 328 O 25.5759 -3.92273 4.12444 0
M  V30 329 N 26.7779 -5.15045 2.67784 0
M  V30 330 H 29.5429 -1.08191 2.7949 0
M  V30 331 H 27.1039 -0.446388 1.55624 0
M  V30 332 H 29.0959 -3.49697 2.03701 0
M  V30 333 H 27.6659 -2.90479 1.15502 0
M  V30 334 H 26.8859 -1.92555 3.43971 0
M  V30 335 H 28.1739 -2.88271 4.19258 0
M  V30 336 H 27.5719 -5.26085 2.07968 0
M  V30 337 H 26.1289 -5.90972 2.74947 0
M  V30 338 N 29.562 -1.4872 -0.521534 0
M  V30 339 C 30.978 -1.35028 -0.850855 0
M  V30 340 C 31.178 -0.367712 -1.98116 0
M  V30 341 O 30.234 0.208037 -2.51642 0
M  V30 342 C 31.547 -2.75263 -1.21041 0
M  V30 343 C 33.095 -2.83813 -1.31981 0
M  V30 344 C 33.57 -4.24769 -1.71276 0
M  V30 345 N 35.061 -4.27482 -1.78363 0
M  V30 346 C 35.796 -5.33494 -2.1017 0
M  V30 347 N 35.292 -6.49775 -2.40343 0
M  V30 348 N 37.085 -5.20894 -2.11248 0
M  V30 349 H 29.236 -2.11214 0.22413 0
M  V30 350 H 31.499 -0.947252 0.0376439 0
M  V30 351 H 31.205 -3.48765 -0.453415 0
M  V30 352 H 31.079 -3.09327 -2.15863 0
M  V30 353 H 33.466 -2.10561 -2.06756 0
M  V30 354 H 33.547 -2.53358 -0.352596 0
M  V30 355 H 33.191 -4.9854 -0.970588 0
M  V30 356 H 33.121 -4.52673 -2.69062 0
M  V30 357 H 35.612 -3.43611 -1.57288 0
M  V30 358 H 35.925 -7.26402 -2.63743 0
M  V30 359 H 34.27 -6.53035 -2.37844 0
M  V30 360 H 37.461 -4.29065 -1.87139 0
M  V30 361 H 37.634 -6.03612 -2.35704 0
M  V30 362 N 31.0401 0.771051 -1.3745 0
M  V30 363 C 32.0031 1.86598 -1.33093 0
M  V30 364 C 33.0031 1.59076 -0.234845 0
M  V30 365 O 34.1931 1.67145 -0.490732 0
M  V30 366 C 31.3251 3.23747 -1.06773 0
M  V30 367 H 32.5181 1.91873 -2.30488 0
M  V30 368 H 30.0711 0.970876 -1.2249 0
M  V30 369 H 30.8061 3.24148 -0.099129 0
M  V30 370 H 30.5911 3.45115 -1.86112 0
M  V30 371 H 32.0811 4.03824 -1.06377 0
M  V30 372 N 32.5182 1.22032 0.997298 0
M  V30 373 C 33.7952 0.950823 1.70935 0
M  V30 374 C 34.1752 -0.535292 2.042 0
M  V30 375 O 33.5232 -1.50217 1.72183 0
M  V30 376 C 33.7332 1.84386 2.96315 0
M  V30 377 C 35.0812 2.09732 3.69185 0
M  V30 378 O 36.1052 1.81798 3.06314 0
M  V30 379 O 34.9642 2.57018 4.82291 0
M  V30 380 H 32.0582 0.357204 0.745878 0
M  V30 381 H 34.6042 1.32997 1.05404 0
M  V30 382 H 33.3762 2.84928 2.68201 0
M  V30 383 H 32.9992 1.46602 3.69586 0
M  V30 384 N 33.9963 -1.19345 1.0293 0
M  V30 385 C 35.2443 -1.88665 0.724574 0
M  V30 386 C 35.5653 -1.80036 -0.749144 0
M  V30 387 O 34.8353 -1.2111 -1.53978 0
M  V30 388 H 33.4153 -0.698406 0.265025 0
M  V30 389 H 36.0773 -1.44885 1.30362 0
M  V30 390 H 35.1733 -2.94987 1.01926 0
M  V30 391 N 35.4744 -0.807222 -1.35358 0
M  V30 392 C 36.7044 -0.399796 -2.02695 0
M  V30 393 C 37.1124 0.994176 -1.60974 0
M  V30 394 O 36.4554 1.65209 -0.803226 0
M  V30 395 C 36.5174 -0.404445 -3.57218 0
M  V30 396 C 36.1814 -1.74904 -4.22206 0
M  V30 397 C 37.1784 -2.70743 -4.4384 0
M  V30 398 C 34.8634 -2.03322 -4.5931 0
M  V30 399 C 36.8574 -3.93183 -5.01683 0
M  V30 400 C 34.5444 -3.26026 -5.16866 0
M  V30 401 C 35.5424 -4.20774 -5.37994 0
M  V30 402 O 35.2304 -5.41312 -5.94337 0
M  V30 403 H 34.9624 -0.160517 -0.656666 0
M  V30 404 H 37.5164 -1.09235 -1.73945 0
M  V30 405 H 35.7464 0.344707 -3.85161 0
M  V30 406 H 37.4354 -0.0192429 -4.05895 0
M  V30 407 H 38.2014 -2.5008 -4.15554 0
M  V30 408 H 34.0804 -1.30384 -4.42178 0
M  V30 409 H 37.6244 -4.6715 -5.1809 0
M  V30 410 H 33.5214 -3.46559 -5.44579 0
M  V30 411 H 34.2894 -5.42618 -6.12787 0
M  V30 412 N 36.9525 1.47285 -0.560781 0
M  V30 413 C 37.9025 2.27073 0.205384 0
M  V30 414 C 38.8865 1.34569 0.882044 0
M  V30 415 O 40.0785 1.58899 0.77976 0
M  V30 416 C 37.2075 3.20414 1.23247 0
M  V30 417 C 36.2935 4.20399 0.559041 0
M  V30 418 N 36.6845 5.04423 -0.372927 0
M  V30 419 C 34.9825 4.38536 0.812522 0
M  V30 420 C 35.6835 5.76655 -0.764446 0
M  V30 421 N 34.6595 5.43471 -0.11848 0
M  V30 422 H 38.4615 2.89422 -0.511117 0
M  V30 423 H 35.9755 1.57868 -0.380975 0
M  V30 424 H 37.9725 3.76262 1.79534 0
M  V30 425 H 36.6325 2.59623 1.95002 0
M  V30 426 H 37.6435 5.1248 -0.747287 0
M  V30 427 H 34.3205 3.88913 1.51832 0
M  V30 428 H 35.7105 6.54238 -1.53045 0
M  V30 429 N 38.4306 0.297415 1.54768 0
M  V30 430 C 39.6586 -0.315623 2.04478 0
M  V30 431 C 40.0736 -1.47792 1.17486 0
M  V30 432 O 39.4306 -1.81404 0.19971 0
M  V30 433 C 39.4816 -0.7753 3.53088 0
M  V30 434 O 39.2026 0.340732 4.36773 0
M  V30 435 C 40.7036 -1.45386 4.18781 0
M  V30 436 H 37.9236 -0.0690887 0.667434 0
M  V30 437 H 40.4676 0.436003 1.99798 0
M  V30 438 H 38.6226 -1.47696 3.58141 0
M  V30 439 H 39.0366 -0.0165035 5.24497 0
M  V30 440 H 40.5106 -1.72669 5.24299 0
M  V30 441 H 40.9876 -2.39275 3.68299 0
M  V30 442 H 41.5936 -0.795475 4.17795 0
M  V30 443 N 39.9087 -1.5758 0.0250728 0
M  V30 444 C 40.8387 -2.13007 -0.956575 0
M  V30 445 C 41.8197 -1.0452 -1.342 0
M  V30 446 O 43.0047 -1.32332 -1.42133 0
M  V30 447 C 40.1347 -2.65386 -2.24026 0
M  V30 448 C 39.0887 -3.78623 -1.99571 0
M  V30 449 C 38.4147 -4.17414 -3.3417 0
M  V30 450 C 39.7147 -5.04867 -1.33814 0
M  V30 451 H 41.4087 -2.9528 -0.494991 0
M  V30 452 H 38.9547 -1.42042 -0.236651 0
M  V30 453 H 40.9077 -3.02794 -2.93076 0
M  V30 454 H 39.6317 -1.80268 -2.72343 0
M  V30 455 H 38.2907 -3.41646 -1.32941 0
M  V30 456 H 37.9387 -3.29284 -3.80238 0
M  V30 457 H 37.6387 -4.93719 -3.18615 0
M  V30 458 H 39.1627 -4.57402 -4.04495 0
M  V30 459 H 40.5767 -5.39888 -1.92857 0
M  V30 460 H 38.9737 -5.86144 -1.28669 0
M  V30 461 H 40.0437 -4.83904 -0.310561 0
M  V30 462 N 41.3868 0.248026 -1.55636 0
M  V30 463 C 42.3188 1.32993 -1.8667 0
M  V30 464 C 43.3318 1.44345 -0.752877 0
M  V30 465 O 44.5208 1.45715 -1.03098 0
M  V30 466 C 41.6208 2.70863 -2.03682 0
M  V30 467 C 40.7938 2.81792 -3.34532 0
M  V30 468 C 39.8528 4.005 -3.41301 0
M  V30 469 O 38.8788 3.9008 -4.14519 0
M  V30 470 N 40.0808 5.13618 -2.70512 0
M  V30 471 H 42.8458 1.06707 -2.8006 0
M  V30 472 H 40.4068 0.438129 -1.55859 0
M  V30 473 H 42.3988 3.48612 -2.05553 0
M  V30 474 H 40.9688 2.89862 -1.17041 0
M  V30 475 H 40.1888 1.90729 -3.44987 0
M  V30 476 H 41.4768 2.86043 -4.20781 0
M  V30 477 H 40.8748 5.24975 -2.10755 0
M  V30 478 H 39.4318 5.89505 -2.78077 0
M  V30 479 N 42.8649 1.48995 0.513639 0
M  V30 480 C 44.0929 1.61531 1.29288 0
M  V30 481 C 44.5079 0.281801 1.86685 0
M  V30 482 O 43.8649 -0.731111 1.67215 0
M  V30 483 C 43.9159 2.67449 2.43215 0
M  V30 484 O 43.6369 3.95626 1.88179 0
M  V30 485 C 45.1379 2.90575 3.34785 0
M  V30 486 H 42.3579 0.544165 0.392588 0
M  V30 487 H 44.9019 1.9494 0.617956 0
M  V30 488 H 43.0569 2.36853 3.0656 0
M  V30 489 H 43.4709 4.53868 2.62876 0
M  V30 490 H 44.9449 3.68449 4.11035 0
M  V30 491 H 45.4219 2.00011 3.91015 0
M  V30 492 H 46.0279 3.22538 2.77218 0
M  V30 493 N 44.343 -0.763751 1.37857 0
M  V30 494 C 45.273 -1.89103 1.36975 0
M  V30 495 C 46.254 -1.68439 0.237152 0
M  V30 496 O 47.439 -1.8918 0.438713 0
M  V30 497 C 44.569 -3.26496 1.18395 0
M  V30 498 C 43.523 -3.61741 2.28751 0
M  V30 499 C 42.849 -4.97762 1.95286 0
M  V30 500 C 44.149 -3.67665 3.70972 0
M  V30 501 H 45.843 -1.90099 2.31307 0
M  V30 502 H 43.389 -0.91319 1.11341 0
M  V30 503 H 45.342 -4.05003 1.16406 0
M  V30 504 H 44.066 -3.25955 0.205215 0
M  V30 505 H 42.725 -2.85547 2.29909 0
M  V30 506 H 42.373 -4.93769 0.959221 0
M  V30 507 H 42.073 -5.22313 2.69189 0
M  V30 508 H 43.597 -5.7866 1.94898 0
M  V30 509 H 45.011 -4.36307 3.719 0
M  V30 510 H 43.408 -4.03718 4.43995 0
M  V30 511 H 44.478 -2.68134 4.0402 0
M  V30 512 N 45.8211 -1.22559 -0.990812 0
M  V30 513 C 47.0681 -1.05141 -1.73065 0
M  V30 514 C 47.3961 0.413191 -1.9006 0
M  V30 515 O 46.6511 1.32257 -1.44245 0
M  V30 516 C 46.9501 -1.71011 -3.13831 0
M  V30 517 C 46.6161 -3.20911 -3.16745 0
M  V30 518 C 45.2781 -3.61812 -3.17247 0
M  V30 519 C 47.6301 -4.16846 -3.12872 0
M  V30 520 C 44.9581 -4.97127 -3.1158 0
M  V30 521 C 47.3101 -5.5214 -3.08746 0
M  V30 522 C 45.9741 -5.92419 -3.07565 0
M  V30 523 H 45.2441 -0.384738 -0.633291 0
M  V30 524 H 47.8911 -1.5235 -1.16025 0
M  V30 525 H 46.1961 -1.16133 -3.74193 0
M  V30 526 H 47.8931 -1.55023 -3.69823 0
M  V30 527 H 44.4831 -2.88344 -3.17105 0
M  V30 528 H 48.6671 -3.86263 -3.11632 0
M  V30 529 H 43.9231 -5.27562 -3.09012 0
M  V30 530 H 48.0971 -6.26201 -3.04705 0
M  V30 531 H 45.7241 -6.97236 -3.02929 0
M  V30 532 N 47.2992 1.18797 -1.03562 0
M  V30 533 C 48.2312 2.21731 -0.580337 0
M  V30 534 C 49.2442 1.59051 0.347349 0
M  V30 535 O 50.4332 1.77929 0.142669 0
M  V30 536 C 47.5332 3.38459 0.172805 0
M  V30 537 C 46.7062 4.3072 -0.761496 0
M  V30 538 C 45.7652 5.26174 -0.0525547 0
M  V30 539 O 44.7912 5.65108 -0.681333 0
M  V30 540 N 45.9932 5.67624 1.21586 0
M  V30 541 H 48.7582 2.61417 -1.46565 0
M  V30 542 H 46.3192 1.33531 -0.915476 0
M  V30 543 H 48.3112 3.99335 0.656793 0
M  V30 544 H 46.8812 2.97507 0.959602 0
M  V30 545 H 46.1012 3.67525 -1.42544 0
M  V30 546 H 47.3892 4.89267 -1.39626 0
M  V30 547 H 46.7872 5.38038 1.74732 0
M  V30 548 H 45.3442 6.30721 1.64421 0
M  V30 549 N 48.7773 0.814389 1.34928 0
M  V30 550 C 50.0243 0.398423 1.98542 0
M  V30 551 C 50.3523 -1.03638 1.64589 0
M  V30 552 O 49.6073 -1.73509 0.90516 0
M  V30 553 C 49.9063 0.537781 3.53331 0
M  V30 554 C 49.5723 1.93704 4.07172 0
M  V30 555 C 48.2343 2.31984 4.21589 0
M  V30 556 C 50.5863 2.85213 4.36237 0
M  V30 557 C 47.9143 3.61125 4.62391 0
M  V30 558 C 50.2663 4.13809 4.78482 0
M  V30 559 C 48.9303 4.52077 4.91104 0
M  V30 560 H 48.2003 0.145793 0.726516 0
M  V30 561 H 50.8473 1.03669 1.61012 0
M  V30 562 H 49.1523 -0.183906 3.91368 0
M  V30 563 H 50.8493 0.196588 4.00518 0
M  V30 564 H 47.4393 1.62966 3.96409 0
M  V30 565 H 51.6233 2.56885 4.24645 0
M  V30 566 H 46.8793 3.90612 4.70353 0
M  V30 567 H 51.0533 4.84811 4.99932 0
M  V30 568 H 48.6803 5.52196 5.22478 0
M  V30 569 N 50.2554 -1.46986 0.568584 0
M  V30 570 C 51.1854 -2.32946 -0.160753 0
M  V30 571 C 52.1664 -1.44487 -0.897631 0
M  V30 572 O 53.3514 -1.73327 -0.875867 0
M  V30 573 C 50.4814 -3.26494 -1.18403 0
M  V30 574 C 49.4354 -4.24282 -0.562895 0
M  V30 575 C 48.7614 -5.07236 -1.69163 0
M  V30 576 C 50.0614 -5.19989 0.490761 0
M  V30 577 H 51.7554 -2.94175 0.556916 0
M  V30 578 H 49.3014 -1.4146 0.26927 0
M  V30 579 H 51.2544 -3.85477 -1.70251 0
M  V30 580 H 49.9784 -2.63343 -1.93179 0
M  V30 581 H 48.6374 -3.66541 -0.0656164 0
M  V30 582 H 48.2854 -4.4048 -2.42871 0
M  V30 583 H 47.9854 -5.7345 -1.28174 0
M  V30 584 H 49.5094 -5.6908 -2.21314 0
M  V30 585 H 50.9234 -5.73271 0.0579047 0
M  V30 586 H 49.3204 -5.94469 0.820165 0
M  V30 587 H 50.3904 -4.64777 1.3824 0
M  V30 588 N 51.7335 -0.305618 -1.54608 0
M  V30 589 C 53.0105 0.355652 -1.92339 0
M  V30 590 C 53.3905 1.71324 -1.23335 0
M  V30 591 O 52.7385 2.25473 -0.370702 0
M  V30 592 C 52.9485 0.46572 -3.45879 0
M  V30 593 C 54.2965 0.734426 -4.182 0
M  V30 594 O 55.3205 0.54935 -3.51938 0
M  V30 595 O 54.1795 1.09024 -5.35515 0
M  V30 596 H 51.2735 0.199666 -0.802535 0
M  V30 597 H 53.8195 -0.354017 -1.65966 0
M  V30 598 H 52.5915 -0.488461 -3.88239 0
M  V30 599 H 52.2145 1.22367 -3.78301 0
M  V30 600 N 53.2116 1.57565 -0.0334293 0
M  V30 601 C 54.4416 1.95996 0.653398 0
M  V30 602 C 54.8496 0.908749 1.65947 0
M  V30 603 O 54.1926 -0.117471 1.83324 0
M  V30 604 C 54.2546 3.30589 1.41249 0
M  V30 605 C 53.9186 4.53503 0.564263 0
M  V30 606 C 54.9156 5.19647 -0.16225 0
M  V30 607 C 52.6006 4.99801 0.500398 0
M  V30 608 C 54.5946 6.30412 -0.941255 0
M  V30 609 C 52.2816 6.10448 -0.282308 0
M  V30 610 C 53.2796 6.75612 -1.00184 0
M  V30 611 O 52.9676 7.84134 -1.77171 0
M  V30 612 H 52.6996 0.65027 0.184728 0
M  V30 613 H 55.2536 2.05199 -0.0907841 0
M  V30 614 H 53.4836 3.17888 2.20191 0
M  V30 615 H 55.1726 3.53892 1.98784 0
M  V30 616 H 55.9386 4.84846 -0.12227 0
M  V30 617 H 51.8176 4.48883 1.05002 0
M  V30 618 H 55.3616 6.81208 -1.50339 0
M  V30 619 H 51.2586 6.44686 -0.323989 0
M  V30 620 H 52.0266 8.00822 -1.69194 0
M  V30 621 N 54.6897 -0.239769 1.55765 0
M  V30 622 C 55.9377 -0.964892 1.77579 0
M  V30 623 C 56.2587 -1.85582 0.598699 0
M  V30 624 O 55.5287 -1.92075 -0.385226 0
M  V30 625 H 54.1087 -0.359265 0.654933 0
M  V30 626 H 56.7707 -0.256001 1.93211 0
M  V30 627 H 55.8667 -1.58243 2.69009 0
M  V30 628 N 56.1678 -1.49265 -0.50573 0
M  V30 629 C 57.4448 -1.49012 -1.26707 0
M  V30 630 C 57.8248 -0.215205 -2.1 0
M  V30 631 O 57.1728 0.802547 -2.13943 0
M  V30 632 C 57.3828 -2.7663 -2.12783 0
M  V30 633 C 58.7308 -3.25932 -2.72127 0
M  V30 634 O 59.7548 -2.77715 -2.23054 0
M  V30 635 O 58.6138 -4.09897 -3.61451 0
M  V30 636 H 55.7078 -0.596197 -0.57313 0
M  V30 637 H 58.2538 -1.61524 -0.52039 0
M  V30 638 H 57.0258 -3.60916 -1.5118 0
M  V30 639 H 56.6488 -2.66956 -2.94653 0
M  V30 640 N 57.6459 0.756429 -1.3826 0
M  V30 641 C 58.8739 1.54565 -1.3754 0
M  V30 642 C 59.2889 1.88767 0.0355331 0
M  V30 643 O 58.6459 1.52572 1.0014 0
M  V30 644 C 58.6969 2.84654 -2.22833 0
M  V30 645 O 58.4179 2.51912 -3.5843 0
M  V30 646 C 59.9189 3.78807 -2.30261 0
M  V30 647 H 57.1389 0.478353 -0.470553 0
M  V30 648 H 59.6829 0.936381 -1.81803 0
M  V30 649 H 57.8379 3.41965 -1.8204 0
M  V30 650 H 58.2519 3.35325 -4.03308 0
M  V30 651 H 59.7259 4.67045 -2.94233 0
M  V30 652 H 60.2029 4.19038 -1.31545 0
M  V30 653 H 60.8089 3.2742 -2.71433 0
M  V30 654 N 59.124 1.23083 0.984299 0
M  V30 655 C 60.373 1.05466 1.71929 0
M  V30 656 C 60.686 -0.409211 1.91272 0
M  V30 657 O 61.892 -0.705226 2.62181 0
M  V30 658 C 60.348 1.83874 3.09384 0
M  V30 659 C 59.956 3.34566 2.97943 0
M  V30 660 C 61.7 1.74734 3.8687 0
M  V30 661 C 59.607 4.05381 4.30605 0
M  V30 662 H 58.537 0.391039 0.644674 0
M  V30 663 H 61.188 1.47013 1.09815 0
M  V30 664 H 59.57 1.35131 3.72231 0
M  V30 665 H 60.744 3.90767 2.44209 0
M  V30 666 H 59.059 3.44476 2.33934 0
M  V30 667 H 61.656 2.24957 4.85076 0
M  V30 668 H 61.999 0.709372 4.10212 0
M  V30 669 H 62.532 2.21067 3.30717 0
M  V30 670 H 59.271 5.09467 4.1246 0
M  V30 671 H 58.791 3.53967 4.84218 0
M  V30 672 H 60.47 4.11458 4.99311 0
M  V30 673 N 60.6021 -1.18246 1.0419 0
M  V30 674 C 61.8271 -1.92736 0.765996 0
M  V30 675 C 62.2521 -1.75728 -0.67091 0
M  V30 676 O 61.6101 -1.06825 -1.46486 0
M  V30 677 C 61.6581 -3.42148 1.13875 0
M  V30 678 O 60.7621 -4.11548 0.264954 0
M  V30 679 H 60.1031 -0.601238 0.281797 0
M  V30 680 H 62.6331 -1.49942 1.39207 0
M  V30 681 H 62.6431 -3.92858 1.1012 0
M  V30 682 H 61.3181 -3.53848 2.18551 0
M  V30 683 H 59.8951 -3.71137 0.362226 0
M  V30 684 N 62.0802 -0.821533 -1.34494 0
M  V30 685 C 63.3292 -0.405355 -1.97585 0
M  V30 686 C 63.6422 1.03677 -1.65863 0
M  V30 687 O 64.8482 1.55679 -2.22433 0
M  V30 688 C 63.3042 -0.673861 -3.53535 0
M  V30 689 C 62.9122 -2.12951 -3.94152 0
M  V30 690 C 64.6562 -0.32378 -4.23263 0
M  V30 691 C 62.5632 -2.34298 -5.43009 0
M  V30 692 H 61.4932 -0.147836 -0.739365 0
M  V30 693 H 64.1442 -1.00769 -1.53355 0
M  V30 694 H 62.5262 -0.00137554 -3.96 0
M  V30 695 H 63.7002 -2.84104 -3.62797 0
M  V30 696 H 62.0152 -2.44089 -3.37356 0
M  V30 697 H 64.6122 -0.461126 -5.32708 0
M  V30 698 H 64.9552 0.731586 -4.09821 0
M  V30 699 H 65.4882 -0.950786 -3.8627 0
M  V30 700 H 62.2272 -3.38335 -5.61435 0
M  V30 701 H 61.7472 -1.67687 -5.75883 0
M  V30 702 H 63.4262 -2.16588 -6.09671 0
M  V30 703 N 63.5583 1.46682 -0.576371 0
M  V30 704 C 64.4683 2.34032 0.163141 0
M  V30 705 C 65.4843 1.49367 0.892501 0
M  V30 706 O 66.6603 1.82252 0.857106 0
M  V30 707 C 63.7253 3.26435 1.16795 0
M  V30 708 C 62.7863 4.26998 0.443944 0
M  V30 709 C 62.0193 5.14986 1.40088 0
M  V30 710 O 62.2423 5.05785 2.637 0
M  V30 711 O 61.1763 5.94906 0.914917 0
M  V30 712 H 65.0023 2.98607 -0.55388 0
M  V30 713 H 62.5873 1.45554 -0.336821 0
M  V30 714 H 64.4693 3.83459 1.74748 0
M  V30 715 H 63.1443 2.64465 1.86655 0
M  V30 716 H 62.0513 3.7368 -0.177271 0
M  V30 717 H 63.3843 4.91736 -0.213566 0
M  V30 718 N 65.0364 0.313813 1.54444 0
M  V30 719 C 65.9664 -0.549454 2.26943 0
M  V30 720 C 66.9474 -1.12741 1.27372 0
M  V30 721 O 68.1324 -1.15436 1.56167 0
M  V30 722 C 65.2624 -1.71523 3.01989 0
M  V30 723 C 64.2164 -1.26703 4.08816 0
M  V30 724 C 63.5424 -2.51898 4.71647 0
M  V30 725 C 64.8424 -0.388962 5.2085 0
M  V30 726 H 66.5364 0.0552661 2.99349 0
M  V30 727 H 64.0824 0.0280207 1.43973 0
M  V30 728 H 66.0354 -2.32535 3.51433 0
M  V30 729 H 64.7594 -2.34639 2.27183 0
M  V30 730 H 63.4184 -0.679896 3.6024 0
M  V30 731 H 63.0664 -3.13356 3.93468 0
M  V30 732 H 62.7664 -2.22605 5.43802 0
M  V30 733 H 64.2904 -3.1369 5.23861 0
M  V30 734 H 65.7044 -0.905107 5.6611 0
M  V30 735 H 64.1014 -0.18924 5.99802 0
M  V30 736 H 65.1714 0.582699 4.81386 0
M  V30 737 N 66.5145 -1.57545 0.0417849 0
M  V30 738 C 67.9305 -1.56467 -0.314704 0
M  V30 739 C 68.1305 -1.04859 -1.72066 0
M  V30 740 O 67.1865 -0.700983 -2.42575 0
M  V30 741 C 68.4995 -3.00317 -0.15174 0
M  V30 742 C 70.0475 -3.12201 -0.223553 0
M  V30 743 C 70.5225 -4.57913 -0.0892295 0
M  V30 744 N 72.0135 -4.6297 -0.145808 0
M  V30 745 C 72.7485 -5.73362 -0.0658459 0
M  V30 746 N 72.2445 -6.92769 0.0659282 0
M  V30 747 N 74.0375 -5.6197 -0.12075 0
M  V30 748 H 66.1885 -1.89416 0.961014 0
M  V30 749 H 68.4515 -0.871862 0.372237 0
M  V30 750 H 68.1575 -3.42073 0.817254 0
M  V30 751 H 68.0315 -3.65892 -0.916692 0
M  V30 752 H 70.4185 -2.70349 -1.18301 0
M  V30 753 H 70.4995 -2.49323 0.571994 0
M  V30 754 H 70.1435 -5.00448 0.866867 0
M  V30 755 H 70.0735 -5.18786 -0.903802 0
M  V30 756 H 72.5645 -3.7709 -0.247286 0
M  V30 757 H 72.8775 -7.72707 0.119905 0
M  V30 758 H 71.2225 -6.94927 0.100885 0
M  V30 759 H 74.4135 -4.67572 -0.222187 0
M  V30 760 H 74.5865 -6.47977 -0.0549735 0
M  V30 761 N 67.9926 0.231505 -1.5589 0
M  V30 762 C 69.2696 0.981096 -1.69215 0
M  V30 763 C 69.6496 2.02799 -0.586164 0
M  V30 764 O 68.9976 2.24823 0.408253 0
M  V30 765 C 69.2076 1.60054 -3.10135 0
M  V30 766 C 70.5556 2.09658 -3.69227 0
M  V30 767 O 71.5796 1.69967 -3.13033 0
M  V30 768 O 70.4386 2.8258 -4.67772 0
M  V30 769 H 67.5326 0.457653 -0.688827 0
M  V30 770 H 70.0786 0.224073 -1.68214 0
M  V30 771 H 68.8506 0.844105 -3.82087 0
M  V30 772 H 68.4736 2.42336 -3.15212 0
M  V30 773 N 69.4707 1.49531 0.497807 0
M  V30 774 C 70.7477 1.49682 1.25915 0
M  V30 775 C 71.1277 0.226339 2.09883 0
M  V30 776 O 70.4757 -0.791189 2.14365 0
M  V30 777 C 70.6857 2.77755 2.11313 0
M  V30 778 C 72.0337 3.27371 2.70395 0
M  V30 779 O 73.0577 2.78894 2.21578 0
M  V30 780 O 71.9167 4.11808 3.59272 0
M  V30 781 H 69.0107 0.599228 0.56996 0
M  V30 782 H 71.5567 1.61798 0.511816 0
M  V30 783 H 70.3287 3.61713 1.49264 0
M  V30 784 H 69.9517 2.68515 2.93233 0
M  V30 785 N 70.9488 -0.749086 1.3866 0
M  V30 786 C 72.1968 -1.50535 1.34847 0
M  V30 787 C 72.5178 -1.94909 -0.0595016 0
M  V30 788 O 71.7878 -1.67973 -1.00806 0
M  V30 789 H 70.3678 -0.558395 0.49619 0
M  V30 790 H 73.0298 -0.890165 1.73384 0
M  V30 791 H 72.1258 -2.39413 2.00219 0
M  V30 792 N 72.4269 -1.23603 -0.977757 0
M  V30 793 C 73.7039 -0.977897 -1.69401 0
M  V30 794 C 74.0839 0.502738 -2.05026 0
M  V30 795 O 73.4319 1.47459 -1.74551 0
M  V30 796 C 73.6419 -1.89077 -2.93345 0
M  V30 797 C 74.9899 -2.15579 -3.65802 0
M  V30 798 O 76.0139 -1.86648 -3.03383 0
M  V30 799 O 74.8729 -2.64658 -4.78141 0
M  V30 800 H 71.9669 -0.369025 -0.740101 0
M  V30 801 H 74.5129 -1.34657 -1.03274 0
M  V30 802 H 73.2849 -2.89158 -2.63634 0
M  V30 803 H 72.9079 -1.52463 -3.67207 0
M  V30 804 N 73.905 1.17692 -1.04816 0
M  V30 805 C 75.154 1.87192 -0.751132 0
M  V30 806 C 75.467 1.8169 0.724441 0
M  V30 807 O 76.673 2.46625 1.13527 0
M  V30 808 C 75.129 3.35857 -1.29338 0
M  V30 809 C 74.737 3.4987 -2.79812 0
M  V30 810 C 76.481 4.10709 -1.07322 0
M  V30 811 C 74.388 4.92536 -3.27356 0
M  V30 812 H 73.318 0.701162 -0.277288 0
M  V30 813 H 75.969 1.32932 -1.26496 0
M  V30 814 H 74.351 3.89631 -0.707376 0
M  V30 815 H 75.525 3.06332 -3.44235 0
M  V30 816 H 73.84 2.88433 -3.00325 0
M  V30 817 H 76.437 5.15952 -1.4035 0
M  V30 818 H 76.78 4.16299 -0.0108001 0
M  V30 819 H 77.313 3.6313 -1.62423 0
M  V30 820 H 74.052 4.92119 -4.33012 0
M  V30 821 H 73.572 5.3676 -2.67673 0
M  V30 822 H 75.251 5.61288 -3.21815 0
M  V30 823 N 75.3831 0.828654 1.34056 0
M  V30 824 C 76.7991 0.515135 1.51058 0
M  V30 825 C 76.9991 -0.959581 1.77184 0
M  V30 826 O 76.0551 -1.74382 1.82612 0
M  V30 827 C 77.3681 1.37963 2.67183 0
M  V30 828 C 78.9161 1.37735 2.81066 0
M  V30 829 C 79.3911 2.22645 4.00241 0
M  V30 830 N 80.8821 2.203 4.07458 0
M  V30 831 C 81.6171 2.82744 4.98842 0
M  V30 832 N 81.1131 3.54201 5.9541 0
M  V30 833 N 82.9061 2.72268 4.91759 0
M  V30 834 H 75.0571 1.78343 1.15358 0
M  V30 835 H 77.3201 0.760304 0.566252 0
M  V30 836 H 77.0261 2.42714 2.54525 0
M  V30 837 H 76.9001 1.0484 3.62338 0
M  V30 838 H 79.2871 0.337593 2.93163 0
M  V30 839 H 79.3681 1.74859 1.86703 0
M  V30 840 H 79.0121 3.26674 3.88905 0
M  V30 841 H 78.9421 1.82869 4.93829 0
M  V30 842 H 81.4331 1.68327 3.38341 0
M  V30 843 H 81.7461 3.9908 6.61782 0
M  V30 844 H 80.0911 3.58308 5.95517 0
M  V30 845 H 83.2821 2.16014 4.15278 0
M  V30 846 H 83.4551 3.21219 5.62781 0
M  V30 847 N 76.8612 -1.46375 0.584142 0
M  V30 848 C 77.7912 -2.33103 -0.136037 0
M  V30 849 C 78.7722 -1.45431 -0.882255 0
M  V30 850 O 79.9572 -1.74246 -0.857434 0
M  V30 851 C 77.0872 -3.27731 -1.14933 0
M  V30 852 C 76.0412 -4.24855 -0.517862 0
M  V30 853 C 75.3672 -5.09001 -1.63773 0
M  V30 854 C 76.6672 -5.19439 0.545886 0
M  V30 855 H 78.3612 -2.93568 0.588086 0
M  V30 856 H 75.9072 -1.41166 0.284259 0
M  V30 857 H 77.8602 -3.87261 -1.66153 0
M  V30 858 H 76.5842 -2.65377 -1.90375 0
M  V30 859 H 75.2432 -3.6659 -0.0267361 0
M  V30 860 H 74.8912 -4.43031 -2.38185 0
M  V30 861 H 74.5912 -5.74777 -1.22085 0
M  V30 862 H 76.1152 -5.71396 -2.15266 0
M  V30 863 H 77.5292 -5.73177 0.118704 0
M  V30 864 H 75.9262 -5.93566 0.88317 0
M  V30 865 H 76.9962 -4.63285 1.43162 0
M  V30 866 N 78.3393 -0.321999 -1.54275 0
M  V30 867 C 79.2693 0.537411 -2.27231 0
M  V30 868 C 80.2503 1.12064 -1.27968 0
M  V30 869 O 81.4353 1.14606 -1.56777 0
M  V30 870 C 78.5653 1.69919 -3.02894 0
M  V30 871 C 77.5193 1.24534 -4.09482 0
M  V30 872 C 76.8453 2.49394 -4.72977 0
M  V30 873 C 78.1453 0.361335 -5.21049 0
M  V30 874 H 79.8393 -0.0711406 -2.99315 0
M  V30 875 H 77.3853 -0.0356555 -1.43956 0
M  V30 876 H 79.3383 2.30668 -3.52662 0
M  V30 877 H 78.0623 2.33431 -2.28424 0
M  V30 878 H 76.7213 0.660782 -3.60596 0
M  V30 879 H 76.3693 3.11265 -3.95124 0
M  V30 880 H 76.0693 2.19718 -5.44975 0
M  V30 881 H 77.5933 3.10908 -5.25517 0
M  V30 882 H 79.0073 0.875072 -5.66582 0
M  V30 883 H 77.4043 0.157428 -5.99893 0
M  V30 884 H 78.4743 -0.60822 -4.8107 0
M  V30 885 N 79.8174 1.5752 -0.0501392 0
M  V30 886 C 81.0454 1.96963 0.633492 0
M  V30 887 C 81.4604 0.927631 1.6444 0
M  V30 888 O 80.8174 -0.0882665 1.82286 0
M  V30 889 C 80.8684 3.36487 1.32132 0
M  V30 890 O 80.5894 4.36693 0.350894 0
M  V30 891 C 82.0904 3.90682 2.09481 0
M  V30 892 H 79.3104 0.648244 0.173266 0
M  V30 893 H 81.8544 2.0417 -0.116134 0
M  V30 894 H 80.0094 3.30434 2.02218 0
M  V30 895 H 80.4234 5.17702 0.841735 0
M  V30 896 H 81.8974 4.90591 2.5303 0
M  V30 897 H 82.3744 3.26053 2.94255 0
M  V30 898 H 82.9804 4.00069 1.44307 0
M  V30 899 N 81.2955 -0.223234 1.56011 0
M  V30 900 C 82.7065 -0.790368 1.69145 0
M  V30 901 C 83.0575 -1.85055 0.651845 0
M  V30 902 O 82.1825 -2.15498 -0.197359 0
M  V30 903 C 82.7775 -1.4404 3.06656 0
M  V30 904 C 81.3365 -1.95494 3.2165 0
M  V30 905 C 80.4835 -0.814506 2.65068 0
M  V30 906 H 83.4345 0.00139011 1.587 0
M  V30 907 H 83.4555 -2.30916 3.0242 0
M  V30 908 H 82.9675 -0.668543 3.82298 0
M  V30 909 H 81.0685 -2.75487 2.50874 0
M  V30 910 H 81.1815 -2.13607 4.28846 0
M  V30 911 H 79.5455 -1.22137 2.23505 0
M  V30 912 H 80.3285 -0.0553515 3.43255 0
M  V30 913 N 82.7736 -1.49793 -0.48987 0
M  V30 914 C 84.0196 -1.60078 -1.24511 0
M  V30 915 C 84.3526 -0.291608 -1.91998 0
M  V30 916 O 83.6276 0.705647 -1.81248 0
M  V30 917 C 83.9106 -2.76791 -2.30345 0
M  V30 918 C 83.7636 -4.17535 -1.67286 0
M  V30 919 C 85.0826 -2.89111 -3.31817 0
M  V30 920 H 82.2016 -0.582645 -0.451324 0
M  V30 921 H 84.8436 -1.82117 -0.541612 0
M  V30 922 H 82.9936 -2.5813 -2.90346 0
M  V30 923 H 84.6656 -4.4774 -1.11026 0
M  V30 924 H 82.9086 -4.22665 -0.976577 0
M  V30 925 H 83.5796 -4.95094 -2.44103 0
M  V30 926 H 86.0556 -3.06133 -2.81819 0
M  V30 927 H 84.9316 -3.72433 -4.03219 0
M  V30 928 H 85.1926 -1.9893 -3.94815 0
M  V30 929 N 84.2517 0.741722 -1.39055 0
M  V30 930 C 85.1617 1.88621 -1.39496 0
M  V30 931 C 86.1777 1.71557 -0.290578 0
M  V30 932 O 87.3537 1.94275 -0.530954 0
M  V30 933 C 84.4187 3.24134 -1.23037 0
M  V30 934 C 83.4797 3.5364 -2.43387 0
M  V30 935 C 82.7127 4.82687 -2.27703 0
M  V30 936 O 82.9357 5.55922 -1.27696 0
M  V30 937 O 81.8697 5.1194 -3.16545 0
M  V30 938 H 85.6957 1.91203 -2.35956 0
M  V30 939 H 83.2807 0.888625 -1.20099 0
M  V30 940 H 85.1627 4.0513 -1.15964 0
M  V30 941 H 83.8377 3.22337 -0.296691 0
M  V30 942 H 82.7447 2.72758 -2.56035 0
M  V30 943 H 84.0777 3.60209 -3.35425 0
M  V30 944 N 85.7298 1.2412 0.971189 0
M  V30 945 C 86.9778 1.07668 1.71032 0
M  V30 946 C 87.2988 -0.385797 1.91146 0
M  V30 947 O 86.5688 -1.27569 1.4867 0
M  V30 948 H 85.1488 0.395429 0.633755 0
M  V30 949 H 87.8108 1.55984 1.16855 0
M  V30 950 H 86.9068 1.57195 2.69622 0
M  V30 951 N 87.2079 -1.17134 1.05439 0
M  V30 952 C 88.4539 -1.87733 0.767077 0
M  V30 953 C 88.7869 -1.8098 -0.704253 0
M  V30 954 O 88.0619 -1.21951 -1.5152 0
M  V30 955 C 88.3449 -3.37659 1.25133 0
M  V30 956 C 88.1979 -3.53149 2.78578 0
M  V30 957 C 89.5169 -4.31768 0.852324 0
M  V30 958 H 86.6359 -0.681687 0.280129 0
M  V30 959 H 89.2779 -1.37732 1.30881 0
M  V30 960 H 87.4279 -3.80373 0.790469 0
M  V30 961 H 89.0999 -3.19434 3.32806 0
M  V30 962 H 87.3429 -2.95345 3.17732 0
M  V30 963 H 88.0139 -4.58403 3.07523 0
M  V30 964 H 90.4899 -3.96909 1.24911 0
M  V30 965 H 89.3659 -5.35199 1.21873 0
M  V30 966 H 89.6269 -4.41429 -0.243485 0
M  V30 967 N 88.686 -0.835752 -1.33615 0
M  V30 968 C 89.596 -0.269088 -2.33052 0
M  V30 969 C 90.612 0.603251 -1.63208 0
M  V30 970 O 91.788 0.508112 -1.94885 0
M  V30 971 C 88.853 0.549091 -3.42324 0
M  V30 972 C 87.914 -0.347156 -4.27894 0
M  V30 973 C 87.147 0.43207 -5.31948 0
M  V30 974 O 87.37 1.66409 -5.45586 0
M  V30 975 O 86.304 -0.192298 -6.01593 0
M  V30 976 H 90.13 -1.09243 -2.83372 0
M  V30 977 H 87.715 -0.598198 -1.36901 0
M  V30 978 H 89.597 1.01414 -4.09015 0
M  V30 979 H 88.272 1.34955 -2.94226 0
M  V30 980 H 87.179 -0.859979 -3.64081 0
M  V30 981 H 88.512 -1.1123 -4.79467 0
M  V30 982 N 90.1641 1.46063 -0.591896 0
M  V30 983 C 91.1141 2.27458 0.157172 0
M  V30 984 C 92.0981 1.3641 0.853301 0
M  V30 985 O 93.2901 1.60517 0.74588 0
M  V30 986 C 90.4191 3.22956 1.16423 0
M  V30 987 C 89.5051 4.2149 0.469742 0
M  V30 988 N 89.8961 5.03519 -0.479839 0
M  V30 989 C 88.1941 4.40161 0.719319 0
M  V30 990 C 88.8951 5.74904 -0.886591 0
M  V30 991 N 87.8711 5.43097 -0.233731 0
M  V30 992 H 91.6731 2.88272 -0.572392 0
M  V30 993 H 89.1871 1.57024 -0.414375 0
M  V30 994 H 91.1841 3.79986 1.71513 0
M  V30 995 H 89.8441 2.63701 1.89451 0
M  V30 996 H 90.8551 5.1078 -0.855823 0
M  V30 997 H 87.5321 3.92046 1.43548 0
M  V30 998 H 88.9221 6.50844 -1.66888 0
M  V30 999 N 91.6422 0.330177 1.54103 0
M  V30 1000 C 92.5522 -0.541534 2.28264 0
M  V30 1001 C 93.5682 -1.12351 1.32866 0
M  V30 1002 O 94.7442 -1.14206 1.65888 0
M  V30 1003 C 91.8092 -1.68322 3.03098 0
M  V30 1004 C 90.8702 -1.13238 4.14096 0
M  V30 1005 C 90.1032 -2.21966 4.85352 0
M  V30 1006 O 90.3262 -3.42437 4.56172 0
M  V30 1007 O 89.2602 -1.87013 5.7211 0
M  V30 1008 H 93.0862 0.060938 3.03639 0
M  V30 1009 H 90.6712 0.09565 1.49093 0
M  V30 1010 H 92.5532 -2.34777 3.49939 0
M  V30 1011 H 91.2282 -2.27176 2.30593 0
M  V30 1012 H 90.1352 -0.432736 3.71589 0
M  V30 1013 H 91.4682 -0.588898 4.88664 0
M  V30 1014 N 93.1203 -1.57491 0.0584922 0
M  V30 1015 C 94.3973 -1.84346 -0.653918 0
M  V30 1016 C 94.7773 -0.948355 -1.88599 0
M  V30 1017 O 94.1253 -0.0112403 -2.28497 0
M  V30 1018 C 94.3353 -3.34239 -1.00425 0
M  V30 1019 C 95.6833 -4.01431 -1.38342 0
M  V30 1020 O 96.7073 -3.38907 -1.09637 0
M  V30 1021 O 95.5663 -5.11683 -1.91943 0
M  V30 1022 H 92.6603 -0.761112 -0.323478 0
M  V30 1023 H 95.2063 -1.6947 0.0884125 0
M  V30 1024 H 93.9783 -3.91089 -0.128625 0
M  V30 1025 H 93.6013 -3.54329 -1.80378 0
M  V30 1026 N 94.5984 0.214957 -1.56127 0
M  V30 1027 C 95.5464 1.28601 -1.93816 0
M  V30 1028 C 96.5404 1.48175 -0.821016 0
M  V30 1029 O 97.7464 1.49271 -1.0059 0
M  V30 1030 H 94.1214 0.431302 -0.616022 0
M  V30 1031 H 96.0924 0.940991 -2.83175 0
M  V30 1032 C 94.8414 2.62779 -2.27689 0
M  V30 1033 H 94.1644 2.48527 -3.13168 0
M  V30 1034 H 95.6044 3.36517 -2.57939 0
M  V30 1035 C 94.0634 3.18285 -1.10436 0
M  V30 1036 O 94.5934 4.00002 -0.368945 0
M  V30 1037 N 92.7994 2.7675 -0.886433 0
M  V30 1038 H 92.3464 2.10404 -1.48619 0
M  V30 1039 H 92.3044 3.14229 -0.103656 0
M  V30 1040 N 96.0765 1.50051 0.48192 0
M  V30 1041 C 97.0065 1.71046 1.58951 0
M  V30 1042 C 97.9875 0.559288 1.60642 0
M  V30 1043 O 99.1725 0.797243 1.77081 0
M  V30 1044 C 96.3025 1.79462 2.97339 0
M  V30 1045 C 95.2565 2.94558 3.10515 0
M  V30 1046 C 94.5825 2.88105 4.50444 0
M  V30 1047 C 95.8825 4.35227 2.88747 0
M  V30 1048 H 97.5765 2.6378 1.41635 0
M  V30 1049 H 95.1225 1.26936 0.679942 0
M  V30 1050 H 97.0755 1.92734 3.74742 0
M  V30 1051 H 95.7995 0.833412 3.15788 0
M  V30 1052 H 94.4585 2.80918 2.35543 0
M  V30 1053 H 94.1065 1.89853 4.65795 0
M  V30 1054 H 93.8065 3.65366 4.60197 0
M  V30 1055 H 95.3305 3.03412 5.29881 0
M  V30 1056 H 96.7445 4.49449 3.55905 0
M  V30 1057 H 95.1415 5.13856 3.09955 0
M  V30 1058 H 96.2115 4.48347 1.84696 0
M  V30 1059 N 97.5546 -0.734337 1.39446 0
M  V30 1060 C 98.8036 -1.48937 1.36017 0
M  V30 1061 C 99.1166 -1.95557 -0.0409005 0
M  V30 1062 O 100.323 -2.70779 -0.19778 0
M  V30 1063 C 98.7786 -2.69125 2.38955 0
M  V30 1064 C 98.3866 -2.29452 3.8478 0
M  V30 1065 C 100.131 -3.46944 2.44603 0
M  V30 1066 C 98.0376 -3.46366 4.79358 0
M  V30 1067 H 96.9676 -0.559296 0.505672 0
M  V30 1068 H 99.6186 -0.800983 1.65095 0
M  V30 1069 H 98.0006 -3.40041 2.02948 0
M  V30 1070 H 99.1746 -1.66077 4.29831 0
M  V30 1071 H 97.4896 -1.64723 3.82433 0
M  V30 1072 H 100.087 -4.33907 3.12456 0
M  V30 1073 H 100.43 -3.89454 1.47076 0
M  V30 1074 H 100.963 -2.83056 2.79507 0
M  V30 1075 H 97.7016 -3.08905 5.78151 0
M  V30 1076 H 97.2216 -4.08719 4.38986 0
M  V30 1077 H 98.9006 -4.12691 4.98292 0
M  V30 1078 N 99.0327 -1.24633 -0.964593 0
M  V30 1079 C 100.279 -1.08949 -1.71049 0
M  V30 1080 C 100.612 0.370302 -1.90637 0
M  V30 1081 O 99.8867 1.27349 -1.47011 0
M  V30 1082 C 100.17 -1.83329 -3.0994 0
M  V30 1083 C 100.023 -3.37077 -2.97824 0
M  V30 1084 C 101.342 -1.60846 -4.09654 0
M  V30 1085 H 98.4607 -0.397178 -0.620821 0
M  V30 1086 H 101.103 -1.5334 -1.12191 0
M  V30 1087 H 99.2527 -1.45597 -3.60186 0
M  V30 1088 H 100.925 -3.84425 -2.5498 0
M  V30 1089 H 99.1677 -3.65298 -2.33965 0
M  V30 1090 H 99.8387 -3.84324 -3.96231 0
M  V30 1091 H 102.315 -1.93674 -3.68279 0
M  V30 1092 H 101.191 -2.1534 -5.04896 0
M  V30 1093 H 101.452 -0.547434 -4.38698 0
M  V30 1094 N 100.511 1.16574 -1.06058 0
M  V30 1095 C 101.927 1.3904 -0.783585 0
M  V30 1096 C 102.127 1.91784 0.618145 0
M  V30 1097 O 101.183 2.11511 1.37911 0
M  V30 1098 C 102.496 2.37329 -1.84649 0
M  V30 1099 C 104.044 2.51018 -1.86973 0
M  V30 1100 C 104.519 3.52588 -2.92311 0
M  V30 1101 N 106.01 3.60113 -2.91329 0
M  V30 1102 C 106.745 4.38486 -3.69482 0
M  V30 1103 N 106.241 5.20302 -4.57447 0
M  V30 1104 N 108.034 4.33446 -3.57885 0
M  V30 1105 H 100.185 0.806725 -1.96483 0
M  V30 1106 H 102.448 0.417117 -0.851303 0
M  V30 1107 H 102.154 2.05663 -2.85299 0
M  V30 1108 H 102.028 3.36946 -1.6955 0
M  V30 1109 H 104.415 2.81989 -0.869827 0
M  V30 1110 H 104.496 1.51445 -2.0615 0
M  V30 1111 H 104.14 3.22354 -3.92492 0
M  V30 1112 H 104.07 4.51886 -2.70383 0
M  V30 1113 H 106.561 3.01707 -2.27555 0
M  V30 1114 H 106.874 5.77311 -5.13743 0
M  V30 1115 H 105.219 5.19653 -4.61503 0
M  V30 1116 H 108.41 3.68586 -2.88551 0
M  V30 1117 H 108.583 4.94279 -4.19037 0
M  V30 1118 N 101.989 0.842826 1.3317 0
M  V30 1119 C 102.952 0.284065 2.27433 0
M  V30 1120 C 103.952 -0.54948 1.5112 0
M  V30 1121 O 105.142 -0.362699 1.70382 0
M  V30 1122 C 102.274 -0.599384 3.35589 0
M  V30 1123 H 103.467 1.11589 2.78366 0
M  V30 1124 H 101.02 0.616221 1.4364 0
M  V30 1125 H 101.755 -1.45349 2.89904 0
M  V30 1126 H 101.54 -0.00291266 3.921 0
M  V30 1127 H 103.03 -0.983488 4.05854 0
M  V30 1128 N 103.467 -1.45747 0.599634 0
M  V30 1129 C 104.43 -2.28917 -0.113835 0
M  V30 1130 C 105.43 -1.3933 -0.802729 0
M  V30 1131 O 106.62 -1.61534 -0.652103 0
M  V30 1132 C 103.752 -3.20152 -1.17114 0
M  V30 1133 H 104.945 -2.93478 0.617289 0
M  V30 1134 H 102.498 -1.52137 0.358327 0
M  V30 1135 H 103.233 -2.60374 -1.93329 0
M  V30 1136 H 103.018 -3.86133 -0.681468 0
M  V30 1137 H 104.508 -3.82708 -1.67105 0
M  V30 1138 N 104.945 -0.338344 -1.53925 0
M  V30 1139 C 106.361 0.0137736 -1.59594 0
M  V30 1140 C 106.561 1.49186 -1.35447 0
M  V30 1141 O 105.617 2.24987 -1.14616 0
M  V30 1142 C 106.93 -0.41773 -2.97784 0
M  V30 1143 C 108.478 -0.369633 -3.1081 0
M  V30 1144 C 108.953 -0.776524 -4.51369 0
M  V30 1145 N 110.444 -0.730506 -4.57403 0
M  V30 1146 C 111.179 -1.01736 -5.64303 0
M  V30 1147 N 110.675 -1.3721 -6.79077 0
M  V30 1148 N 112.468 -0.941942 -5.54151 0
M  V30 1149 H 104.619 -1.3012 -1.67876 0
M  V30 1150 H 106.882 -0.530082 -0.78595 0
M  V30 1151 H 106.588 -1.44811 -3.20504 0
M  V30 1152 H 106.462 0.209729 -3.76616 0
M  V30 1153 H 108.849 0.651568 -2.87817 0
M  V30 1154 H 108.93 -1.03223 -2.34049 0
M  V30 1155 H 108.574 -1.79571 -4.75096 0
M  V30 1156 H 108.504 -0.0914649 -5.26521 0
M  V30 1157 H 110.995 -0.468783 -3.74981 0
M  V30 1158 H 111.308 -1.57597 -7.5656 0
M  V30 1159 H 109.653 -1.4105 -6.80536 0
M  V30 1160 H 112.844 -0.664184 -4.63364 0
M  V30 1161 H 113.017 -1.16884 -6.37371 0
M  V30 1162 N 106.423 1.57458 -0.0668435 0
M  V30 1163 C 107.353 2.15468 0.899764 0
M  V30 1164 C 108.334 1.08042 1.31381 0
M  V30 1165 O 109.519 1.36054 1.38574 0
M  V30 1166 C 106.649 2.71232 2.16911 0
M  V30 1167 C 105.603 3.83781 1.89463 0
M  V30 1168 C 104.929 4.26127 3.22986 0
M  V30 1169 C 106.229 5.08238 1.20381 0
M  V30 1170 H 107.923 2.96488 0.416529 0
M  V30 1171 H 105.469 1.4262 0.198908 0
M  V30 1172 H 107.422 3.10458 2.84945 0
M  V30 1173 H 106.146 1.87426 2.67468 0
M  V30 1174 H 104.805 3.45051 1.23836 0
M  V30 1175 H 104.453 3.39249 3.71374 0
M  V30 1176 H 104.153 5.01993 3.05413 0
M  V30 1177 H 105.677 4.67966 3.92225 0
M  V30 1178 H 107.091 5.44811 1.78475 0
M  V30 1179 H 105.488 5.89349 1.13083 0
M  V30 1180 H 106.558 4.84558 0.182153 0
M  V30 1181 N 107.901 -0.206675 1.56239 0
M  V30 1182 C 108.831 -1.25909 1.96645 0
M  V30 1183 C 109.812 -1.48097 0.836734 0
M  V30 1184 O 110.997 -1.6003 1.10019 0
M  V30 1185 C 108.127 -2.6058 2.29599 0
M  V30 1186 C 107.081 -2.53024 3.452 0
M  V30 1187 C 106.407 -3.91861 3.63798 0
M  V30 1188 C 107.707 -2.06524 4.79734 0
M  V30 1189 H 109.401 -0.923369 2.84806 0
M  V30 1190 H 106.947 -0.442735 1.37025 0
M  V30 1191 H 108.9 -3.34375 2.56459 0
M  V30 1192 H 107.624 -2.95869 1.38307 0
M  V30 1193 H 106.283 -1.81684 3.18412 0
M  V30 1194 H 105.931 -4.24483 2.69857 0
M  V30 1195 H 105.631 -3.87683 4.4156 0
M  V30 1196 H 107.155 -4.67296 3.93022 0
M  V30 1197 H 108.569 -2.70072 5.05702 0
M  V30 1198 H 106.966 -2.13374 5.60885 0
M  V30 1199 H 108.036 -1.01802 4.74093 0
M  V30 1200 N 109.379 -1.50304 -0.473955 0
M  V30 1201 C 110.312 -1.63595 -1.59097 0
M  V30 1202 C 111.29 -0.484142 -1.55225 0
M  V30 1203 O 112.474 -0.703271 -1.7489 0
M  V30 1204 C 109.601 -1.61589 -2.97669 0
M  V30 1205 C 108.647 -2.82295 -3.19705 0
M  V30 1206 S 109.48 -4.43635 -2.99913 0
M  V30 1207 C 110.636 -4.44317 -4.40832 0
M  V30 1208 H 110.869 -2.58082 -1.47583 0
M  V30 1209 H 108.402 -1.39531 -0.661087 0
M  V30 1210 H 110.36 -1.61116 -3.7756 0
M  V30 1211 H 109.021 -0.683421 -3.06575 0
M  V30 1212 H 108.214 -2.77188 -4.20931 0
M  V30 1213 H 107.816 -2.8032 -2.47582 0
M  V30 1214 H 110.108 -4.17703 -5.33414 0
M  V30 1215 H 111.051 -5.45911 -4.50984 0
M  V30 1216 H 111.459 -3.74059 -4.22777 0
M  V30 1217 N 110.857 0.726932 -1.39834 0
M  V30 1218 C 111.804 1.841 -1.39197 0
M  V30 1219 C 112.774 1.642 -0.250502 0
M  V30 1220 O 113.959 1.85494 -0.446846 0
M  V30 1221 C 111.099 3.21697 -1.24919 0
M  V30 1222 C 110.212 3.53247 -2.48678 0
M  V30 1223 C 109.347 4.80289 -2.26928 0
M  V30 1224 C 108.386 5.04707 -3.4632 0
M  V30 1225 N 107.523 6.22956 -3.23836 0
M  V30 1226 H 112.363 1.83979 -2.34427 0
M  V30 1227 H 109.9 0.898876 -1.16442 0
M  V30 1228 H 111.858 4.01137 -1.1465 0
M  V30 1229 H 110.488 3.21076 -0.333153 0
M  V30 1230 H 109.54 2.68447 -2.69519 0
M  V30 1231 H 110.852 3.67205 -3.37582 0
M  V30 1232 H 110.006 5.67725 -2.13947 0
M  V30 1233 H 108.745 4.68519 -1.35431 0
M  V30 1234 H 107.75 4.1573 -3.5979 0
M  V30 1235 H 108.975 5.18357 -4.38729 0
M  V30 1236 H 106.921 6.12459 -2.35011 0
M  V30 1237 H 106.838 6.37539 -4.063 0
M  V30 1238 H 108.106 7.1321 -3.14566 0
M  V30 1239 N 112.336 1.25143 0.95797 0
M  V30 1240 C 113.564 1.12424 1.73691 0
M  V30 1241 C 113.979 -0.322304 1.86029 0
M  V30 1242 O 113.336 -1.22186 1.35561 0
M  V30 1243 C 113.387 1.76933 3.15241 0
M  V30 1244 O 113.108 3.15932 3.03511 0
M  V30 1245 C 114.609 1.6995 4.09429 0
M  V30 1246 H 111.829 0.3923 0.544373 0
M  V30 1247 H 114.373 1.6544 1.20207 0
M  V30 1248 H 112.528 1.27895 3.6568 0
M  V30 1249 H 112.942 3.47598 3.9278 0
M  V30 1250 H 114.416 2.19753 5.06372 0
M  V30 1251 H 114.893 0.662619 4.34173 0
M  V30 1252 H 115.499 2.18461 3.64904 0
M  V30 1253 N 113.814 -1.1601 1.06675 0
M  V30 1254 C 114.777 -2.18724 0.685001 0
M  V30 1255 C 115.777 -1.58496 -0.271246 0
M  V30 1256 O 116.967 -1.74119 -0.0531156 0
M  V30 1257 C 114.099 -3.40899 0.00853648 0
M  V30 1258 H 115.292 -2.54011 1.59431 0
M  V30 1259 H 112.845 -1.30352 0.862441 0
M  V30 1260 H 113.58 -3.11173 -0.913337 0
M  V30 1261 H 113.365 -3.8587 0.696204 0
M  V30 1262 H 114.855 -4.16886 -0.24414 0
M  V30 1263 N 115.292 -0.849877 -1.32721 0
M  V30 1264 C 116.255 -0.296122 -2.27279 0
M  V30 1265 C 117.255 0.541458 -1.5141 0
M  V30 1266 O 118.445 0.353658 -1.70572 0
M  V30 1267 C 115.577 0.581579 -3.35902 0
M  V30 1268 H 116.77 -1.13064 -2.77771 0
M  V30 1269 H 114.323 -0.62383 -1.43311 0
M  V30 1270 H 115.058 1.43809 -2.9067 0
M  V30 1271 H 114.843 -0.0178814 -3.92096 0
M  V30 1272 H 116.333 0.961951 -4.0637 0
M  V30 1273 N 116.77 1.45427 -0.607355 0
M  V30 1274 C 118.047 1.9557 -0.0344566 0
M  V30 1275 C 118.427 1.54979 1.43334 0
M  V30 1276 O 117.775 0.812241 2.13576 0
M  V30 1277 C 117.985 3.48226 -0.232321 0
M  V30 1278 C 119.333 4.2445 -0.113001 0
M  V30 1279 O 120.357 3.55829 -0.162431 0
M  V30 1280 O 119.216 5.465 0.00209442 0
M  V30 1281 H 116.31 0.826222 0.0358667 0
M  V30 1282 H 118.856 1.55594 -0.6774 0
M  V30 1283 H 117.628 3.70739 -1.25174 0
M  V30 1284 H 117.251 3.95092 0.445896 0
M  V30 1285 N 118.248 0.346503 1.53744 0
M  V30 1286 C 119.473 -0.253074 2.0585 0
M  V30 1287 C 119.898 -1.43202 1.21962 0
M  V30 1288 O 119.256 -1.79783 0.234073 0
M  V30 1289 C 119.304 -0.643193 3.54817 0
M  V30 1290 O 118.408 -1.74286 3.73762 0
M  V30 1291 H 117.749 -0.0413583 0.662711 0
M  V30 1292 H 120.279 0.501574 1.98357 0
M  V30 1293 H 120.289 -0.919526 3.97503 0
M  V30 1294 H 118.964 0.218966 4.15323 0
M  V30 1295 H 117.541 -1.46356 3.42979 0
M  V30 1296 N 119.726 -1.57421 0.075193 0
M  V30 1297 C 120.974 -1.93236 -0.591974 0
M  V30 1298 C 121.295 -0.956241 -1.69944 0
M  V30 1299 O 120.565 -0.00494792 -1.95899 0
M  V30 1300 H 119.145 -0.713355 -0.22166 0
M  V30 1301 H 121.807 -1.9444 0.133848 0
M  V30 1302 H 120.903 -2.95131 -1.01509 0
M  V30 1303 N 121.204 0.198386 -1.56346 0
M  V30 1304 C 122.62 0.549085 -1.49857 0
M  V30 1305 C 122.82 1.86016 -0.774611 0
M  V30 1306 O 121.876 2.50416 -0.323776 0
M  V30 1307 C 123.189 0.606868 -2.94512 0
M  V30 1308 C 124.737 0.695925 -3.05165 0
M  V30 1309 C 125.212 0.784848 -4.51225 0
M  V30 1310 N 126.703 0.848463 -4.55363 0
M  V30 1311 C 127.438 0.937378 -5.65686 0
M  V30 1312 N 126.934 0.9888 -6.85707 0
M  V30 1313 N 128.727 0.974312 -5.53592 0
M  V30 1314 H 120.878 -0.661655 -2.01831 0
M  V30 1315 H 123.141 -0.235261 -0.918344 0
M  V30 1316 H 122.847 -0.28732 -3.50524 0
M  V30 1317 H 122.721 1.46268 -3.47686 0
M  V30 1318 H 125.108 1.58055 -2.49204 0
M  V30 1319 H 125.189 -0.186022 -2.55123 0
M  V30 1320 H 124.833 -0.0954072 -5.0781 0
M  V30 1321 H 124.763 1.68255 -4.98997 0
M  V30 1322 H 127.254 0.818103 -3.68938 0
M  V30 1323 H 127.567 1.05707 -7.65536 0
M  V30 1324 H 125.912 0.957534 -6.88372 0
M  V30 1325 H 129.103 0.930954 -4.58749 0
M  V30 1326 H 129.276 1.04015 -6.39597 0
M  V30 1327 N 122.682 1.50554 0.465978 0
M  V30 1328 C 123.612 1.72722 1.57128 0
M  V30 1329 C 124.593 0.576294 1.6004 0
M  V30 1330 O 125.778 0.81598 1.76225 0
M  V30 1331 C 122.908 1.82605 2.95419 0
M  V30 1332 C 121.862 2.97835 3.07373 0
M  V30 1333 C 121.188 2.92867 4.47363 0
M  V30 1334 C 122.488 4.38265 2.84114 0
M  V30 1335 H 124.182 2.65267 1.38829 0
M  V30 1336 H 121.728 1.2765 0.666441 0
M  V30 1337 H 123.681 1.96698 3.72677 0
M  V30 1338 H 122.405 0.866858 3.14886 0
M  V30 1339 H 121.064 2.83401 2.3255 0
M  V30 1340 H 120.712 1.94783 4.63755 0
M  V30 1341 H 120.412 3.70227 4.56296 0
M  V30 1342 H 121.936 3.09015 5.26633 0
M  V30 1343 H 123.35 4.53198 3.51118 0
M  V30 1344 H 121.747 5.17115 3.04487 0
M  V30 1345 H 122.817 4.50281 1.7993 0
M  V30 1346 N 124.16 -0.719506 1.40217 0
M  V30 1347 C 125.571 -1.29848 1.34151 0
M  V30 1348 C 125.922 -1.96196 0.0131349 0
M  V30 1349 O 125.047 -1.973 -0.88892 0
M  V30 1350 C 125.642 -2.36118 2.42968 0
M  V30 1351 C 124.201 -2.8965 2.40374 0
M  V30 1352 C 123.348 -1.63393 2.24049 0
M  V30 1353 H 126.299 -0.51591 1.5008 0
M  V30 1354 H 126.32 -3.16871 2.10649 0
M  V30 1355 H 125.832 -1.878 3.39636 0
M  V30 1356 H 123.933 -3.42208 1.47392 0
M  V30 1357 H 124.046 -3.4171 3.35814 0
M  V30 1358 H 122.41 -1.88312 1.71495 0
M  V30 1359 H 123.193 -1.17104 3.2271 0
M  V30 1360 N 125.638 -1.25649 -0.95132 0
M  V30 1361 C 126.866 -1.13343 -1.73092 0
M  V30 1362 C 127.281 0.312434 -1.86197 0
M  V30 1363 O 126.638 1.21465 -1.36207 0
M  V30 1364 C 126.689 -1.78602 -3.14299 0
M  V30 1365 O 126.41 -3.17537 -3.01831 0
M  V30 1366 C 127.911 -1.72119 -4.08522 0
M  V30 1367 H 125.131 -0.395181 -0.542285 0
M  V30 1368 H 127.675 -1.66076 -1.19328 0
M  V30 1369 H 125.83 -1.29832 -3.64996 0
M  V30 1370 H 126.244 -3.49676 -3.90931 0
M  V30 1371 H 127.718 -2.22435 -5.052 0
M  V30 1372 H 128.195 -0.685635 -4.33815 0
M  V30 1373 H 128.801 -2.20393 -3.63741 0
M  V30 1374 N 127.117 1.15442 -1.07289 0
M  V30 1375 C 128.365 1.85845 -0.794096 0
M  V30 1376 C 128.686 1.82692 0.681809 0
M  V30 1377 O 127.956 1.26741 1.49377 0
M  V30 1378 H 126.536 0.688089 -0.290763 0
M  V30 1379 H 129.198 1.39947 -1.3565 0
M  V30 1380 H 128.294 2.91001 -1.12804 0
M  V30 1381 N 128.595 0.856903 1.32268 0
M  V30 1382 C 129.82 0.474569 2.01897 0
M  V30 1383 C 130.245 -0.921766 1.63967 0
M  V30 1384 O 129.603 -1.60589 0.84148 0
M  V30 1385 C 129.651 0.623799 3.55164 0
M  V30 1386 O 128.755 -0.342459 4.10976 0
M  V30 1387 H 128.096 0.190422 0.63611 0
M  V30 1388 H 130.626 1.15672 1.68764 0
M  V30 1389 H 130.636 0.512169 4.04773 0
M  V30 1390 H 129.311 1.64202 3.82113 0
M  V30 1391 H 127.888 -0.18688 3.72431 0
M  V30 1392 N 130.073 -1.45103 0.615059 0
M  V30 1393 C 131.321 -2.01784 0.112955 0
M  V30 1394 C 131.642 -1.48504 -1.26378 0
M  V30 1395 O 130.912 -0.682245 -1.83636 0
M  V30 1396 H 129.492 -0.745993 0.0387668 0
M  V30 1397 H 132.154 -1.77808 0.798141 0
M  V30 1398 H 131.25 -3.12025 0.0684069 0
M  V30 1399 N 131.551 -0.354651 -1.53558 0
M  V30 1400 C 132.514 0.484566 -2.24019 0
M  V30 1401 C 133.514 1.01861 -1.24422 0
M  V30 1402 O 134.704 0.906097 -1.4878 0
M  V30 1403 C 131.836 1.67615 -2.96847 0
M  V30 1404 H 133.029 -0.131843 -2.9961 0
M  V30 1405 H 130.582 -0.106165 -1.55939 0
M  V30 1406 H 131.317 2.33095 -2.25471 0
M  V30 1407 H 131.102 1.30029 -3.69912 0
M  V30 1408 H 132.592 2.27114 -3.50441 0
M  V30 1409 N 133.029 1.57378 -0.0835403 0
M  V30 1410 C 133.977 2.14602 0.89714 0
M  V30 1411 C 134.971 1.08589 1.30018 0
M  V30 1412 O 136.177 1.26952 1.27606 0
M  V30 1413 H 132.552 0.686346 0.3073 0
M  V30 1414 H 134.523 2.95845 0.38969 0
M  V30 1415 C 133.272 2.73188 2.15089 0
M  V30 1416 H 132.595 3.54442 1.84962 0
M  V30 1417 H 134.035 3.1681 2.81793 0
M  V30 1418 C 132.494 1.68517 2.91725 0
M  V30 1419 O 133.024 1.11718 3.85852 0
M  V30 1420 N 131.23 1.39277 2.55049 0
M  V30 1421 H 130.777 1.85655 1.78577 0
M  V30 1422 H 130.735 0.694791 3.06627 0
M  V30 1423 N 134.507 -0.190092 1.56449 0
M  V30 1424 C 135.756 -0.907912 1.80111 0
M  V30 1425 C 136.069 -1.84214 0.657619 0
M  V30 1426 O 137.275 -2.60094 0.778663 0
M  V30 1427 C 135.731 -1.66485 3.19078 0
M  V30 1428 C 135.339 -0.7752 4.41242 0
M  V30 1429 C 137.083 -2.37201 3.52045 0
M  V30 1430 C 134.99 -1.53129 5.71231 0
M  V30 1431 H 133.92 -0.34276 0.671589 0
M  V30 1432 H 136.571 -0.161109 1.82791 0
M  V30 1433 H 134.953 -2.45572 3.10661 0
M  V30 1434 H 136.127 -0.0226298 4.60794 0
M  V30 1435 H 134.442 -0.178627 4.16017 0
M  V30 1436 H 137.039 -2.94329 4.46402 0
M  V30 1437 H 137.382 -3.11632 2.76028 0
M  V30 1438 H 137.915 -1.65075 3.61932 0
M  V30 1439 H 134.654 -0.82967 6.50228 0
M  V30 1440 H 134.174 -2.25767 5.55688 0
M  V30 1441 H 135.853 -2.08377 6.12526 0
M  V30 1442 N 135.985 -1.50799 -0.457987 0
M  V30 1443 C 137.21 -1.66496 -1.23668 0
M  V30 1444 C 137.635 -0.353288 -1.84752 0
M  V30 1445 O 136.993 0.684346 -1.67888 0
M  V30 1446 C 137.041 -2.76763 -2.3116 0
M  V30 1447 O 136.145 -2.38928 -3.36136 0
M  V30 1448 H 135.486 -0.555828 -0.363252 0
M  V30 1449 H 138.016 -1.9725 -0.543474 0
M  V30 1450 H 138.026 -3.00232 -2.76269 0
M  V30 1451 H 136.701 -3.71954 -1.86073 0
M  V30 1452 H 135.278 -2.25953 -2.96647 0
M  V30 1453 N 137.463 0.71206 -1.40597 0
M  V30 1454 C 138.712 1.46754 -1.38369 0
M  V30 1455 C 139.025 1.95598 0.0097839 0
M  V30 1456 O 140.231 2.71059 0.154677 0
M  V30 1457 C 138.687 2.65289 -2.43207 0
M  V30 1458 C 138.295 2.23301 -3.88382 0
M  V30 1459 C 140.039 3.43008 -2.50091 0
M  V30 1460 C 137.946 3.38696 -4.84808 0
M  V30 1461 H 136.876 0.55118 -0.514506 0
M  V30 1462 H 139.527 0.774616 -1.66349 0
M  V30 1463 H 137.909 3.36769 -2.08332 0
M  V30 1464 H 139.083 1.59218 -4.32419 0
M  V30 1465 H 137.398 1.58618 -3.85006 0
M  V30 1466 H 139.995 4.28881 -3.1932 0
M  V30 1467 H 140.338 3.87065 -1.53253 0
M  V30 1468 H 140.871 2.78574 -2.83974 0
M  V30 1469 H 137.61 2.99668 -5.82992 0
M  V30 1470 H 137.13 4.01683 -4.45433 0
M  V30 1471 H 138.809 4.04712 -5.04794 0
M  V30 1472 N 138.941 1.26152 0.944643 0
M  V30 1473 C 140.218 1.02247 1.66748 0
M  V30 1474 C 140.598 -0.448202 2.06287 0
M  V30 1475 O 139.946 -1.42779 1.78399 0
M  V30 1476 C 140.156 1.96788 2.88228 0
M  V30 1477 C 141.504 2.25201 3.59958 0
M  V30 1478 O 142.528 1.94626 2.98327 0
M  V30 1479 O 141.387 2.77242 4.70956 0
M  V30 1480 H 138.481 0.388517 0.730057 0
M  V30 1481 H 141.027 1.37348 0.99668 0
M  V30 1482 H 139.799 2.96047 2.55875 0
M  V30 1483 H 139.422 1.62145 3.63035 0
M  V30 1484 N 140.419 -1.14872 1.07899 0
M  V30 1485 C 141.366 -2.19791 0.704319 0
M  V30 1486 C 142.336 -1.63238 -0.306987 0
M  V30 1487 O 143.521 -1.8983 -0.192171 0
M  V30 1488 C 140.661 -3.44911 0.114244 0
M  V30 1489 C 139.774 -4.15637 1.1777 0
M  V30 1490 C 138.909 -5.28324 0.552037 0
M  V30 1491 C 137.948 -5.90875 1.59789 0
M  V30 1492 N 137.085 -6.95022 0.994404 0
M  V30 1493 H 141.925 -2.5119 1.60336 0
M  V30 1494 H 139.462 -1.23356 0.801352 0
M  V30 1495 H 141.42 -4.16477 -0.245544 0
M  V30 1496 H 140.05 -3.14011 -0.74813 0
M  V30 1497 H 139.102 -3.42512 1.65499 0
M  V30 1498 H 140.414 -4.5823 1.97046 0
M  V30 1499 H 139.568 -6.06538 0.1402 0
M  V30 1500 H 138.307 -4.86939 -0.272431 0
M  V30 1501 H 137.312 -5.11369 2.01945 0
M  V30 1502 H 138.537 -6.34337 2.42474 0
M  V30 1503 H 136.483 -6.55722 0.190939 0
M  V30 1504 H 136.4 -7.36073 1.72432 0
M  V30 1505 H 137.668 -7.77123 0.608253 0
M  V30 1506 N 141.898 -0.863906 -1.31812 0
M  V30 1507 C 143.314 -0.555004 -1.49639 0
M  V30 1508 C 143.514 0.912266 -1.79666 0
M  V30 1509 O 142.57 1.69479 -1.87171 0
M  V30 1510 C 143.883 -1.44998 -2.63431 0
M  V30 1511 C 145.431 -1.45138 -2.77316 0
M  V30 1512 C 145.906 -2.33179 -3.94197 0
M  V30 1513 N 147.397 -2.31025 -4.01474 0
M  V30 1514 C 148.132 -2.95871 -4.9117 0
M  V30 1515 N 147.628 -3.69863 -5.8581 0
M  V30 1516 N 149.421 -2.85211 -4.84367 0
M  V30 1517 H 141.572 -1.81339 -1.10589 0
M  V30 1518 H 143.835 -0.77505 -0.545895 0
M  V30 1519 H 143.541 -2.49377 -2.48 0
M  V30 1520 H 143.415 -1.14409 -3.59431 0
M  V30 1521 H 145.802 -0.415201 -2.92164 0
M  V30 1522 H 145.883 -1.79747 -1.82001 0
M  V30 1523 H 145.527 -3.3687 -3.80107 0
M  V30 1524 H 145.457 -1.95897 -4.88807 0
M  V30 1525 H 147.948 -1.77238 -3.33759 0
M  V30 1526 H 148.261 -4.16486 -6.50968 0
M  V30 1527 H 146.606 -3.73971 -5.85808 0
M  V30 1528 H 149.797 -2.26948 -4.09405 0
M  V30 1529 H 149.97 -3.36027 -5.54066 0
M  V30 1530 N 143.376 1.44774 -0.622745 0
M  V30 1531 C 144.306 2.33382 0.0741861 0
M  V30 1532 C 145.287 1.47719 0.843387 0
M  V30 1533 O 146.472 1.76458 0.810934 0
M  V30 1534 C 143.602 3.30663 1.06204 0
M  V30 1535 C 142.556 4.26079 0.405037 0
M  V30 1536 C 141.882 5.13165 1.5022 0
M  V30 1537 C 143.182 5.1781 -0.683414 0
M  V30 1538 H 144.876 2.91905 -0.665713 0
M  V30 1539 H 142.422 1.40363 -0.321587 0
M  V30 1540 H 144.375 3.9153 1.55827 0
M  V30 1541 H 143.099 2.70331 1.83272 0
M  V30 1542 H 141.758 3.66532 -0.0704683 0
M  V30 1543 H 141.406 4.49191 2.26355 0
M  V30 1544 H 141.106 5.77812 1.06803 0
M  V30 1545 H 142.63 5.76902 2.00041 0
M  V30 1546 H 144.044 5.72661 -0.270631 0
M  V30 1547 H 142.441 5.91015 -1.04023 0
M  V30 1548 H 143.511 4.59326 -1.55395 0
M  V30 1549 N 144.854 0.36279 1.53368 0
M  V30 1550 C 146.265 -0.117022 1.86333 0
M  V30 1551 C 146.616 -1.48397 1.28347 0
M  V30 1552 O 145.741 -2.07787 0.604428 0
M  V30 1553 C 146.336 -0.21912 3.38091 0
M  V30 1554 C 144.895 -0.643184 3.70864 0
M  V30 1555 C 144.042 0.211318 2.76494 0
M  V30 1556 H 146.993 0.581687 1.47655 0
M  V30 1557 H 147.014 -1.04319 3.6592 0
M  V30 1558 H 146.526 0.775902 3.80265 0
M  V30 1559 H 144.627 -1.64654 3.34245 0
M  V30 1560 H 144.74 -0.41973 4.77258 0
M  V30 1561 H 143.104 -0.319367 2.5269 0
M  V30 1562 H 143.887 1.20383 3.21501 0
M  V30 1563 N 146.332 -1.57332 0.0918853 0
M  V30 1564 C 147.265 -2.09499 -0.904735 0
M  V30 1565 C 148.243 -1.00479 -1.27839 0
M  V30 1566 O 149.427 -1.27954 -1.38419 0
M  V30 1567 C 146.554 -2.56931 -2.2069 0
M  V30 1568 C 145.6 -3.77579 -1.98334 0
M  V30 1569 S 146.433 -5.21317 -1.22428 0
M  V30 1570 C 147.589 -5.72097 -2.53882 0
M  V30 1571 H 147.822 -2.93705 -0.460922 0
M  V30 1572 H 145.355 -1.53923 -0.121332 0
M  V30 1573 H 147.313 -2.84917 -2.95521 0
M  V30 1574 H 145.974 -1.72956 -2.62192 0
M  V30 1575 H 145.167 -4.08824 -2.94752 0
M  V30 1576 H 144.769 -3.5007 -1.31633 0
M  V30 1577 H 147.061 -5.80168 -3.49874 0
M  V30 1578 H 148.004 -6.70654 -2.27219 0
M  V30 1579 H 148.412 -5.00012 -2.62007 0
M  V30 1580 N 147.81 0.181792 -1.56548 0
M  V30 1581 C 149.058 0.89832 -1.81038 0
M  V30 1582 C 149.379 1.83232 -0.667164 0
M  V30 1583 O 148.649 1.93372 0.313673 0
M  V30 1584 H 147.229 0.33471 -0.667816 0
M  V30 1585 H 149.891 0.184116 -1.94028 0
M  V30 1586 H 148.987 1.4815 -2.74696 0
M  V30 1587 N 149.288 1.51039 0.449983 0
M  V30 1588 C 150.536 1.62759 1.19808 0
M  V30 1589 C 150.857 0.339981 1.92013 0
M  V30 1590 O 150.127 -0.643606 1.85026 0
M  V30 1591 H 148.707 0.599811 0.445237 0
M  V30 1592 H 151.369 1.87914 0.517138 0
M  V30 1593 H 150.465 2.44911 1.93455 0
M  V30 1594 N 150.766 -0.704594 1.40972 0
M  V30 1595 C 152.014 -1.46169 1.39568 0
M  V30 1596 C 152.335 -1.95 0.00253745 0
M  V30 1597 O 151.605 -1.71095 -0.954114 0
M  V30 1598 H 150.185 -0.542326 0.513704 0
M  V30 1599 H 152.847 -0.834553 1.76128 0
M  V30 1600 H 151.943 -2.32922 2.07735 0
M  V30 1601 N 152.244 -1.26651 -0.937939 0
M  V30 1602 C 153.174 -1.10993 -2.05433 0
M  V30 1603 C 154.155 -0.0142161 -1.70094 0
M  V30 1604 O 155.34 -0.186837 -1.93299 0
M  V30 1605 C 152.47 -0.745561 -3.39203 0
M  V30 1606 C 151.424 -1.79337 -3.88616 0
M  V30 1607 C 150.75 -1.28324 -5.19073 0
M  V30 1608 C 152.05 -3.19553 -4.13138 0
M  V30 1609 H 153.744 -2.0438 -2.1879 0
M  V30 1610 H 151.29 -0.984041 -1.05131 0
M  V30 1611 H 153.243 -0.622888 -4.16771 0
M  V30 1612 H 151.967 0.22401 -3.25831 0
M  V30 1613 H 150.626 -1.90477 -3.13231 0
M  V30 1614 H 150.274 -0.303414 -5.02084 0
M  V30 1615 H 149.974 -1.98369 -5.53103 0
M  V30 1616 H 151.498 -1.1733 -5.99221 0
M  V30 1617 H 152.912 -3.11471 -4.81309 0
M  V30 1618 H 151.309 -3.87218 -4.58457 0
M  V30 1619 H 152.379 -3.65368 -3.18801 0
M  V30 1620 N 153.722 1.14298 -1.08507 0
M  V30 1621 C 154.97 1.84993 -0.813763 0
M  V30 1622 C 155.291 1.83405 0.662393 0
M  V30 1623 O 154.561 1.28319 1.48024 0
M  V30 1624 H 153.141 0.684966 -0.298045 0
M  V30 1625 H 155.803 1.385 -1.37126 0
M  V30 1626 H 154.899 2.89788 -1.15884 0
M  V30 1627 N 155.201 0.870884 1.31352 0
M  V30 1628 C 156.449 0.48132 1.96285 0
M  V30 1629 C 156.77 -0.969813 1.69173 0
M  V30 1630 O 156.04 -1.67998 1.00764 0
M  V30 1631 H 154.62 0.175002 0.726212 0
M  V30 1632 H 157.282 1.11087 1.60143 0
M  V30 1633 H 156.378 0.639825 3.05471 0
M  V30 1634 N 156.679 -1.44442 0.630414 0
M  V30 1635 C 157.927 -2.01653 0.134351 0
M  V30 1636 C 158.248 -1.49836 -1.24796 0
M  V30 1637 O 157.518 -0.701684 -1.82902 0
M  V30 1638 H 156.098 -0.74554 0.0466769 0
M  V30 1639 H 158.76 -1.76952 0.816955 0
M  V30 1640 H 157.856 -3.11935 0.101498 0
M  V30 1641 N 158.157 -0.370918 -1.53173 0
M  V30 1642 C 159.382 0.220293 -2.06227 0
M  V30 1643 C 159.807 1.41243 -1.24225 0
M  V30 1644 O 159.165 1.79387 -0.262645 0
M  V30 1645 C 159.213 0.586663 -3.55796 0
M  V30 1646 O 158.317 1.68317 -3.76488 0
M  V30 1647 H 157.658 0.0308099 -0.663285 0
M  V30 1648 H 160.188 -0.533068 -1.97534 0
M  V30 1649 H 160.198 0.85617 -3.98916 0
M  V30 1650 H 158.873 -0.285013 -4.14922 0
M  V30 1651 H 157.45 1.40881 -3.45264 0
M  V30 1652 N 159.635 1.57281 -0.100228 0
M  V30 1653 C 160.86 1.99302 0.573881 0
M  V30 1654 C 161.285 0.979059 1.60611 0
M  V30 1655 O 160.643 -0.0517803 1.81226 0
M  V30 1656 C 160.691 3.40274 1.19358 0
M  V30 1657 O 159.795 3.41676 2.30935 0
M  V30 1658 H 159.136 0.647944 0.145138 0
M  V30 1659 H 161.666 2.03779 -0.183156 0
M  V30 1660 H 161.676 3.78078 1.53365 0
M  V30 1661 H 160.351 4.13594 0.437385 0
M  V30 1662 H 158.928 3.15672 1.98509 0
M  V30 1663 N 161.113 -0.173488 1.56642 0
M  V30 1664 C 162.061 -1.23417 1.97157 0
M  V30 1665 C 163.055 -1.45946 0.860013 0
M  V30 1666 O 164.261 -1.46551 1.04512 0
M  V30 1667 H 160.636 -0.414818 0.62724 0
M  V30 1668 H 162.607 -0.865582 2.8557 0
M  V30 1669 C 161.356 -2.5665 2.34576 0
M  V30 1670 H 160.679 -2.40137 3.19647 0
M  V30 1671 H 162.119 -3.2956 2.6677 0
M  V30 1672 C 160.578 -3.15245 1.18836 0
M  V30 1673 O 161.108 -3.98883 0.474869 0
M  V30 1674 N 159.314 -2.74303 0.959497 0
M  V30 1675 H 158.861 -2.0639 1.54146 0
M  V30 1676 H 158.819 -3.13844 0.186932 0
M  V30 1677 N 162.591 -1.51276 -0.441967 0
M  V30 1678 C 163.554 -1.7167 -1.51862 0
M  V30 1679 C 164.554 -0.586793 -1.49711 0
M  V30 1680 O 165.744 -0.854276 -1.51815 0
M  V30 1681 C 162.876 -1.76889 -2.91416 0
M  V30 1682 H 164.069 -2.67754 -1.35084 0
M  V30 1683 H 161.622 -1.41196 -0.670333 0
M  V30 1684 H 162.357 -0.826026 -3.13604 0
M  V30 1685 H 162.142 -2.59001 -2.94382 0
M  V30 1686 H 163.632 -1.94522 -3.69528 0
M  V30 1687 N 164.069 0.697108 -1.41344 0
M  V30 1688 C 165.032 1.79281 -1.42797 0
M  V30 1689 C 166.032 1.57607 -0.318837 0
M  V30 1690 O 167.222 1.64309 -0.578642 0
M  V30 1691 C 164.354 3.17632 -1.23785 0
M  V30 1692 H 165.547 1.79385 -2.40335 0
M  V30 1693 H 163.1 0.904582 -1.27464 0
M  V30 1694 H 163.835 3.23167 -0.270814 0
M  V30 1695 H 163.62 3.34765 -2.04144 0
M  V30 1696 H 165.11 3.97617 -1.27633 0
M  V30 1697 N 165.547 1.27147 0.931209 0
M  V30 1698 C 166.775 1.16082 1.71267 0
M  V30 1699 C 167.19 -0.282772 1.8667 0
M  V30 1700 O 166.547 -1.19283 1.38122 0
M  V30 1701 C 166.598 1.8358 3.11417 0
M  V30 1702 O 166.319 3.22299 2.96741 0
M  V30 1703 C 167.82 1.78597 4.05732 0
M  V30 1704 H 165.04 0.403758 0.535929 0
M  V30 1705 H 167.584 1.67953 1.16671 0
M  V30 1706 H 165.739 1.35623 3.62885 0
M  V30 1707 H 166.153 3.55851 3.85319 0
M  V30 1708 H 167.627 2.30444 5.01597 0
M  V30 1709 H 168.104 0.754564 4.3267 0
M  V30 1710 H 168.71 2.26152 3.60188 0
M  V30 1711 N 167.025 -1.13721 1.09112 0
M  V30 1712 C 168.271 -1.85198 0.826414 0
M  V30 1713 C 168.604 -1.83129 -0.646319 0
M  V30 1714 O 167.879 -1.2671 -1.47563 0
M  V30 1715 C 168.162 -3.33507 1.35812 0
M  V30 1716 C 168.015 -3.44108 2.89672 0
M  V30 1717 C 169.334 -4.28838 0.989256 0
M  V30 1718 H 166.453 -0.67243 0.301675 0
M  V30 1719 H 169.095 -1.33499 1.35197 0
M  V30 1720 H 167.245 -3.77666 0.911082 0
M  V30 1721 H 168.917 -3.08684 3.428 0
M  V30 1722 H 167.16 -2.85087 3.26967 0
M  V30 1723 H 167.831 -4.48388 3.21951 0
M  V30 1724 H 170.307 -3.92734 1.37475 0
M  V30 1725 H 169.183 -5.31051 1.38838 0
M  V30 1726 H 169.444 -4.4198 -0.102924 0
M  V30 1727 N 168.503 -0.877838 -1.30888 0
M  V30 1728 C 169.433 -0.35534 -2.3078 0
M  V30 1729 C 170.414 0.557994 -1.60687 0
M  V30 1730 O 171.599 0.473355 -1.88343 0
M  V30 1731 C 168.729 0.437221 -3.44537 0
M  V30 1732 C 167.683 -0.383715 -4.26276 0
M  V30 1733 C 167.009 0.535014 -5.32017 0
M  V30 1734 C 168.309 -1.62201 -4.96476 0
M  V30 1735 H 170.003 -1.19007 -2.74732 0
M  V30 1736 H 167.549 -0.573698 -1.32078 0
M  V30 1737 H 169.502 0.813334 -4.13477 0
M  V30 1738 H 168.226 1.30553 -2.99372 0
M  V30 1739 H 166.885 -0.741874 -3.59015 0
M  V30 1740 H 166.533 1.40083 -4.831 0
M  V30 1741 H 166.233 -0.0104211 -5.87599 0
M  V30 1742 H 167.757 0.907799 -6.03814 0
M  V30 1743 H 169.171 -1.31689 -5.5797 0
M  V30 1744 H 167.568 -2.10711 -5.61891 0
M  V30 1745 H 168.638 -2.37044 -4.23011 0
M  V30 1746 N 169.982 1.44106 -0.638065 0
M  V30 1747 C 171.228 2.02277 -0.145546 0
M  V30 1748 C 171.561 1.50125 1.23191 0
M  V30 1749 O 170.836 0.688133 1.8192 0
M  V30 1750 C 171.119 3.59829 -0.139791 0
M  V30 1751 C 170.972 4.22247 -1.55008 0
M  V30 1752 C 172.291 4.36873 0.531966 0
M  V30 1753 H 169.41 0.734992 -0.0543632 0
M  V30 1754 H 172.052 1.71592 -0.815863 0
M  V30 1755 H 170.202 3.86102 0.431007 0
M  V30 1756 H 171.874 4.07057 -2.1703 0
M  V30 1757 H 170.117 3.79476 -2.10191 0
M  V30 1758 H 170.788 5.31284 -1.49804 0
M  V30 1759 H 173.264 4.16074 0.0464781 0
M  V30 1760 H 172.14 5.4657 0.505206 0
M  V30 1761 H 172.401 4.11995 1.60352 0
M  V30 1762 N 171.46 0.379036 1.52974 0
M  V30 1763 C 172.423 -0.448865 2.24762 0
M  V30 1764 C 173.423 -0.998689 1.26027 0
M  V30 1765 O 174.613 -0.882313 1.50203 0
M  V30 1766 C 171.745 -1.62872 2.99476 0
M  V30 1767 H 172.938 0.179491 2.99362 0
M  V30 1768 H 170.491 0.13096 1.5575 0
M  V30 1769 H 171.226 -2.29479 2.29151 0
M  V30 1770 H 171.011 -1.24128 3.71934 0
M  V30 1771 H 172.501 -2.2151 3.5401 0
M  V30 1772 N 172.938 -1.57226 0.108567 0
M  V30 1773 C 173.868 -2.17778 -0.84232 0
M  V30 1774 C 174.849 -1.11487 -1.2847 0
M  V30 1775 O 176.034 -1.39681 -1.34918 0
M  V30 1776 C 173.164 -2.76888 -2.09644 0
M  V30 1777 C 172.118 -3.88669 -1.79221 0
M  V30 1778 C 171.444 -4.34541 -3.11574 0
M  V30 1779 C 172.744 -5.11251 -1.06864 0
M  V30 1780 H 174.438 -2.97489 -0.337774 0
M  V30 1781 H 171.984 -1.43097 -0.161025 0
M  V30 1782 H 173.937 -3.17904 -2.76614 0
M  V30 1783 H 172.661 -1.94451 -2.62405 0
M  V30 1784 H 171.32 -3.48213 -1.14644 0
M  V30 1785 H 170.968 -3.48977 -3.62249 0
M  V30 1786 H 170.668 -5.09914 -2.91996 0
M  V30 1787 H 172.192 -4.782 -3.7968 0
M  V30 1788 H 173.606 -5.49352 -1.63968 0
M  V30 1789 H 172.003 -5.9214 -0.974178 0
M  V30 1790 H 173.073 -4.8487 -0.0536168 0
M  V30 1791 N 174.416 0.165178 -1.56732 0
M  V30 1792 C 175.364 1.22369 -1.97809 0
M  V30 1793 C 176.358 1.45488 -0.867741 0
M  V30 1794 O 177.564 1.45995 -1.05288 0
M  V30 1795 H 173.939 0.411486 -0.629431 0
M  V30 1796 H 175.91 0.850425 -2.86025 0
M  V30 1797 C 174.659 2.55403 -2.35934 0
M  V30 1798 H 173.982 2.38438 -3.20916 0
M  V30 1799 H 175.422 3.2814 -2.68514 0
M  V30 1800 C 173.881 3.14611 -1.20506 0
M  V30 1801 O 174.411 3.98626 -0.496016 0
M  V30 1802 N 172.617 2.7379 -0.97403 0
M  V30 1803 H 172.164 2.0557 -1.55238 0
M  V30 1804 H 172.122 3.1374 -0.203573 0
M  V30 1805 N 175.894 1.51508 0.433938 0
M  V30 1806 C 176.844 1.69451 1.52546 0
M  V30 1807 C 177.828 0.548474 1.51263 0
M  V30 1808 O 179.02 0.804529 1.57659 0
M  V30 1809 C 176.149 1.82604 2.90707 0
M  V30 1810 C 175.235 3.03002 2.96733 0
M  V30 1811 N 175.626 4.26121 2.72496 0
M  V30 1812 C 173.924 3.02327 3.27894 0
M  V30 1813 C 174.625 5.07407 2.84452 0
M  V30 1814 N 173.601 4.42126 3.16269 0
M  V30 1815 H 177.403 2.62305 1.32564 0
M  V30 1816 H 174.917 1.49202 0.641297 0
M  V30 1817 H 176.914 1.93569 3.69238 0
M  V30 1818 H 175.574 0.909339 3.11707 0
M  V30 1819 H 176.585 4.55009 2.4736 0
M  V30 1820 H 173.262 2.20301 3.54646 0
M  V30 1821 H 174.652 6.15422 2.69639 0
M  V30 1822 N 177.372 -0.689602 1.41712 0
M  V30 1823 C 178.302 -1.81577 1.46806 0
M  V30 1824 C 179.283 -1.66945 0.326105 0
M  V30 1825 O 180.468 -1.86588 0.538377 0
M  V30 1826 C 177.598 -3.19762 1.35535 0
M  V30 1827 C 176.552 -3.49107 2.47605 0
M  V30 1828 C 175.878 -4.86711 2.21397 0
M  V30 1829 C 177.178 -3.47483 3.89939 0
M  V30 1830 H 178.872 -1.7757 2.41058 0
M  V30 1831 H 176.418 -0.852887 1.16025 0
M  V30 1832 H 178.371 -3.98263 1.3771 0
M  V30 1833 H 177.095 -3.24409 0.377708 0
M  V30 1834 H 175.754 -2.72959 2.44722 0
M  V30 1835 H 175.402 -4.8799 1.21961 0
M  V30 1836 H 175.102 -5.0731 2.96497 0
M  V30 1837 H 176.626 -5.67515 2.25297 0
M  V30 1838 H 178.04 -4.1598 3.94505 0
M  V30 1839 H 176.437 -3.79615 4.64771 0
M  V30 1840 H 177.507 -2.46341 4.17665 0
M  V30 1841 N 178.85 -1.27639 -0.924453 0
M  V30 1842 C 180.096 -1.15345 -1.67532 0
M  V30 1843 C 180.451 0.297096 -1.90092 0
M  V30 1844 O 179.744 1.21374 -1.48253 0
M  V30 1845 C 179.938 -1.87407 -3.04325 0
M  V30 1846 C 179.767 -3.3932 -2.95114 0
M  V30 1847 C 178.537 -4.08644 -2.97218 0
M  V30 1848 C 180.735 -4.35242 -2.73987 0
M  V30 1849 N 178.717 -5.47102 -2.78482 0
M  V30 1850 C 180.088 -5.6099 -2.63988 0
M  V30 1851 C 182.143 -4.25294 -2.589 0
M  V30 1852 C 180.846 -6.77924 -2.40442 0
M  V30 1853 C 182.872 -5.41952 -2.36731 0
M  V30 1854 C 182.234 -6.66658 -2.27478 0
M  V30 1855 H 178.333 -0.47696 -0.619704 0
M  V30 1856 H 180.917 -1.6115 -1.09265 0
M  V30 1857 H 179.088 -1.44053 -3.60699 0
M  V30 1858 H 180.82 -1.6759 -3.68369 0
M  V30 1859 H 177.575 -3.60136 -3.07569 0
M  V30 1860 H 177.999 -6.19852 -2.72236 0
M  V30 1861 H 182.641 -3.29598 -2.64811 0
M  V30 1862 H 180.359 -7.73699 -2.3327 0
M  V30 1863 H 183.945 -5.36137 -2.25938 0
M  V30 1864 H 182.825 -7.55405 -2.10555 0
M  V30 1865 N 180.328 1.1314 -1.09713 0
M  V30 1866 C 181.26 2.18343 -0.697056 0
M  V30 1867 C 182.273 1.60669 0.262551 0
M  V30 1868 O 183.462 1.78435 0.0481527 0
M  V30 1869 C 180.562 3.38899 -0.00684728 0
M  V30 1870 C 179.735 4.26078 -0.988741 0
M  V30 1871 C 178.794 5.25155 -0.331394 0
M  V30 1872 O 177.82 5.60701 -0.979926 0
M  V30 1873 N 179.022 5.73271 0.913261 0
M  V30 1874 H 181.787 2.5328 -1.60216 0
M  V30 1875 H 179.348 1.28491 -0.984971 0
M  V30 1876 H 181.34 4.02255 0.444191 0
M  V30 1877 H 179.91 3.02175 0.800551 0
M  V30 1878 H 179.13 3.59453 -1.61826 0
M  V30 1879 H 180.418 4.81178 -1.65364 0
M  V30 1880 H 179.816 5.46544 1.45966 0
M  V30 1881 H 178.373 6.3855 1.30757 0
M  V30 1882 N 181.806 0.884767 1.30421 0
M  V30 1883 C 183.046 0.509806 1.9794 0
M  V30 1884 C 183.41 -0.923736 1.68319 0
M  V30 1885 O 184.611 -1.40481 2.29169 0
M  V30 1886 C 182.882 0.776732 3.48858 0
M  V30 1887 S 184.441 0.503843 4.35898 0
M  V30 1888 H 181.259 0.189699 0.685227 0
M  V30 1889 H 183.861 1.14399 1.58535 0
M  V30 1890 H 182.565 1.81857 3.67908 0
M  V30 1891 H 182.096 0.1301 3.93185 0
M  V30 1892 H 184.111 -0.657625 4.91823 0
M  V30 1893 N 183.284 -1.43765 0.645699 0
M  V30 1894 C 184.532 -2.01499 0.155731 0
M  V30 1895 C 184.853 -1.51151 -1.232 0
M  V30 1896 O 184.123 -0.721044 -1.82148 0
M  V30 1897 H 182.703 -0.745003 0.0545817 0
M  V30 1898 H 185.365 -1.76075 0.835677 0
M  V30 1899 H 184.461 -3.1181 0.134577 0
M  V30 1900 N 184.763 -0.387143 -1.52771 0
M  V30 1901 C 185.693 0.440551 -2.29306 0
M  V30 1902 C 186.674 1.06535 -1.32606 0
M  V30 1903 O 187.859 1.07853 -1.61497 0
M  V30 1904 C 184.989 1.56919 -3.09829 0
M  V30 1905 C 183.943 1.07054 -4.14395 0
M  V30 1906 C 183.269 2.29109 -4.83129 0
M  V30 1907 C 184.569 0.140015 -5.22112 0
M  V30 1908 H 186.263 -0.198026 -2.98744 0
M  V30 1909 H 183.809 -0.09668 -1.43675 0
M  V30 1910 H 185.762 2.15503 -3.62128 0
M  V30 1911 H 184.486 2.23532 -2.3812 0
M  V30 1912 H 183.145 0.507247 -3.63074 0
M  V30 1913 H 182.793 2.94227 -4.0797 0
M  V30 1914 H 182.493 1.96406 -5.53804 0
M  V30 1915 H 184.017 2.88339 -5.38231 0
M  V30 1916 H 185.431 0.633978 -5.69784 0
M  V30 1917 H 183.828 -0.0971485 -6.00021 0
M  V30 1918 H 184.898 -0.811711 -4.78058 0
M  V30 1919 N 186.241 1.57166 -0.116904 0
M  V30 1920 C 187.466 1.999 0.55271 0
M  V30 1921 C 187.891 0.996039 1.59564 0
M  V30 1922 O 187.249 -0.032556 1.81271 0
M  V30 1923 C 187.297 3.4152 1.15742 0
M  V30 1924 O 186.401 3.44106 2.27299 0
M  V30 1925 H 185.742 0.649447 0.138258 0
M  V30 1926 H 188.272 2.03573 -0.204759 0
M  V30 1927 H 188.282 3.79684 1.49346 0
M  V30 1928 H 186.957 4.14034 0.393493 0
M  V30 1929 H 185.534 3.17759 1.9515 0
M  V30 1930 N 187.719 -0.156864 1.56817 0
M  V30 1931 C 188.652 -1.22316 1.9265 0
M  V30 1932 C 189.63 -1.42059 0.791076 0
M  V30 1933 O 190.814 -1.56831 1.04576 0
M  V30 1934 C 187.941 -2.58375 2.18998 0
M  V30 1935 C 186.987 -2.55284 3.41661 0
M  V30 1936 S 187.82 -2.02946 4.95553 0
M  V30 1937 C 188.976 -3.40753 5.25013 0
M  V30 1938 H 189.209 -0.917403 2.82791 0
M  V30 1939 H 186.742 -0.362059 1.50095 0
M  V30 1940 H 188.7 -3.36677 2.34859 0
M  V30 1941 H 187.361 -2.86145 1.29538 0
M  V30 1942 H 186.554 -3.55418 3.57343 0
M  V30 1943 H 186.156 -1.85086 3.24991 0
M  V30 1944 H 188.448 -4.36819 5.17876 0
M  V30 1945 H 189.391 -3.29933 6.26538 0
M  V30 1946 H 189.799 -3.37433 4.52548 0
M  V30 1947 N 189.197 -1.51736 -0.425897 0
M  V30 1948 C 190.474 -1.55519 -1.1863 0
M  V30 1949 C 190.854 -0.326219 -2.08564 0
M  V30 1950 O 190.202 0.688012 -2.17896 0
M  V30 1951 C 190.412 -2.87521 -1.9782 0
M  V30 1952 C 191.76 -3.39899 -2.54468 0
M  V30 1953 O 192.784 -2.89148 -2.08019 0
M  V30 1954 O 191.643 -4.2848 -3.39215 0
M  V30 1955 H 188.737 -0.625739 -0.540721 0
M  V30 1956 H 191.283 -1.64055 -0.434038 0
M  V30 1957 H 190.055 -3.68422 -1.31836 0
M  V30 1958 H 189.678 -2.822 -2.80088 0
M  V30 1959 N 190.675 0.682077 -1.42076 0
M  V30 1960 C 191.585 1.82535 -1.47371 0
M  V30 1961 C 192.601 1.7017 -0.363079 0
M  V30 1962 O 193.777 1.91848 -0.612875 0
M  V30 1963 C 190.842 3.18624 -1.36674 0
M  V30 1964 C 189.903 3.42999 -2.58167 0
M  V30 1965 C 189.136 4.72595 -2.4797 0
M  V30 1966 O 189.359 5.50006 -1.5116 0
M  V30 1967 O 188.293 4.98054 -3.37974 0
M  V30 1968 H 192.119 1.81023 -2.43853 0
M  V30 1969 H 189.704 0.836887 -1.2376 0
M  V30 1970 H 191.586 3.99847 -1.33043 0
M  V30 1971 H 190.261 3.20789 -0.433138 0
M  V30 1972 H 189.168 2.61653 -2.67373 0
M  V30 1973 H 190.501 3.45659 -3.50401 0
M  V30 1974 N 192.153 1.28127 0.917671 0
M  V30 1975 C 193.083 1.14248 2.03641 0
M  V30 1976 C 194.064 0.0412748 1.7005 0
M  V30 1977 O 195.249 0.217566 1.92977 0
M  V30 1978 C 192.379 0.799431 3.37974 0
M  V30 1979 C 191.333 1.85497 3.85713 0
M  V30 1980 C 190.659 1.36565 5.16966 0
M  V30 1981 C 191.959 3.26085 4.08002 0
M  V30 1982 H 193.653 2.07835 2.15511 0
M  V30 1983 H 191.199 1.00064 1.03553 0
M  V30 1984 H 193.152 0.689114 4.15727 0
M  V30 1985 H 191.876 -0.172145 3.26146 0
M  V30 1986 H 190.535 1.95437 3.10161 0
M  V30 1987 H 190.183 0.383253 5.01538 0
M  V30 1988 H 189.883 2.07143 5.49878 0
M  V30 1989 H 191.407 1.26848 5.97279 0
M  V30 1990 H 192.821 3.19089 4.76293 0
M  V30 1991 H 191.218 3.94462 4.52238 0
M  V30 1992 H 192.288 3.70394 3.12948 0
M  V30 1993 N 193.631 -1.12557 1.10312 0
M  V30 1994 C 194.594 -2.16434 0.75424 0
M  V30 1995 C 195.594 -1.59278 -0.220685 0
M  V30 1996 O 196.784 -1.742 0.00230591 0
M  V30 1997 C 193.916 -3.40699 0.116987 0
M  V30 1998 H 195.109 -2.48811 1.67431 0
M  V30 1999 H 192.662 -1.27542 0.903475 0
M  V30 2000 H 193.397 -3.13921 -0.813877 0
M  V30 2001 H 193.182 -3.83459 0.818613 0
M  V30 2002 H 194.672 -4.17451 -0.111387 0
M  V30 2003 N 195.109 -0.891671 -1.2995 0
M  V30 2004 C 196.019 -0.367691 -2.31701 0
M  V30 2005 C 197.035 0.533486 -1.6562 0
M  V30 2006 O 198.211 0.424997 -1.96865 0
M  V30 2007 C 195.276 0.403406 -3.44345 0
M  V30 2008 C 194.337 -0.528328 -4.26037 0
M  V30 2009 C 193.57 0.206063 -5.33302 0
M  V30 2010 O 193.793 1.43119 -5.52153 0
M  V30 2011 O 192.727 -0.447281 -6.00236 0
M  V30 2012 H 196.553 -1.21163 -2.78484 0
M  V30 2013 H 194.138 -0.655725 -1.34241 0
M  V30 2014 H 196.02 0.839753 -4.12948 0
M  V30 2015 H 194.695 1.22354 -2.99685 0
M  V30 2016 H 193.602 -1.01362 -3.60106 0
M  V30 2017 H 194.935 -1.31465 -4.74318 0
M  V30 2018 N 196.587 1.43421 -0.653314 0
M  V30 2019 C 197.52 2.2803 0.0879804 0
M  V30 2020 C 198.498 1.39833 0.82979 0
M  V30 2021 O 199.682 1.69275 0.829341 0
M  V30 2022 C 196.809 3.19247 1.13132 0
M  V30 2023 C 195.855 4.23704 0.487546 0
M  V30 2024 S 196.688 5.30377 -0.738961 0
M  V30 2025 C 197.844 6.25162 0.30384 0
M  V30 2026 H 198.077 2.90554 -0.629739 0
M  V30 2027 H 195.61 1.47934 -0.442156 0
M  V30 2028 H 197.568 3.72346 1.72827 0
M  V30 2029 H 196.229 2.55901 1.82136 0
M  V30 2030 H 195.422 4.87631 1.27407 0
M  V30 2031 H 195.024 3.73983 -0.0352915 0
M  V30 2032 H 197.316 6.67321 1.17 0
M  V30 2033 H 198.259 7.07463 -0.300402 0
M  V30 2034 H 198.667 5.60864 0.63969 0
M  V30 2035 N 198.065 0.39524 1.52563 0
M  V30 2036 C 199.313 -0.184678 2.01254 0
M  V30 2037 C 199.634 -1.46822 1.28329 0
M  V30 2038 O 198.904 -1.91666 0.405094 0
M  V30 2039 H 197.484 -0.0712355 0.743596 0
M  V30 2040 H 200.146 0.528293 1.87603 0
M  V30 2041 H 199.242 -0.390681 3.09645 0
M  V30 2042 N 199.544 -1.57102 0.125237 0
M  V30 2043 C 200.474 -2.18659 -0.819174 0
M  V30 2044 C 201.455 -1.12843 -1.27281 0
M  V30 2045 O 202.64 -1.41104 -1.33429 0
M  V30 2046 C 199.77 -2.79096 -2.06695 0
M  V30 2047 C 198.724 -3.90548 -1.75088 0
M  V30 2048 C 198.05 -4.37821 -3.06948 0
M  V30 2049 C 199.35 -5.12356 -1.01435 0
M  V30 2050 H 201.044 -2.9783 -0.306202 0
M  V30 2051 H 198.59 -1.4326 -0.145839 0
M  V30 2052 H 200.543 -3.2082 -2.73226 0
M  V30 2053 H 199.267 -1.97223 -2.60328 0
M  V30 2054 H 197.926 -3.49409 -1.10944 0
M  V30 2055 H 197.574 -3.52799 -3.58527 0
M  V30 2056 H 197.274 -5.12982 -2.86571 0
M  V30 2057 H 198.798 -4.822 -3.74587 0
M  V30 2058 H 200.212 -5.5106 -1.58132 0
M  V30 2059 H 198.609 -5.9314 -0.911319 0
M  V30 2060 H 199.679 -4.849 -0.00218681 0
M  V30 2061 N 201.022 0.148545 -1.56898 0
M  V30 2062 C 202.25 0.876389 -1.87422 0
M  V30 2063 C 202.665 1.74809 -0.713256 0
M  V30 2064 O 202.022 1.79725 0.317025 0
M  V30 2065 C 202.073 1.73438 -3.17178 0
M  V30 2066 O 201.794 0.897809 -4.28802 0
M  V30 2067 C 203.295 2.56993 -3.61205 0
M  V30 2068 H 200.515 0.253489 -0.621277 0
M  V30 2069 H 203.059 0.141798 -2.04008 0
M  V30 2070 H 201.214 2.42205 -3.0235 0
M  V30 2071 H 201.628 1.48672 -5.02988 0
M  V30 2072 H 203.102 3.12773 -4.54838 0
M  V30 2073 H 203.579 3.32958 -2.86419 0
M  V30 2074 H 204.185 1.9352 -3.78722 0
M  V30 2075 N 202.5 1.5196 0.417844 0
M  V30 2076 C 203.43 1.77634 1.51554 0
M  V30 2077 C 204.411 0.626918 1.58126 0
M  V30 2078 O 205.596 0.871632 1.7354 0
M  V30 2079 C 202.726 1.91911 2.8946 0
M  V30 2080 C 201.68 3.07463 2.97743 0
M  V30 2081 C 201.006 3.06951 4.37819 0
M  V30 2082 C 202.306 4.47082 2.70027 0
M  V30 2083 H 204 2.6955 1.3032 0
M  V30 2084 H 201.546 1.29706 0.625492 0
M  V30 2085 H 203.499 2.08455 3.6623 0
M  V30 2086 H 202.223 0.966598 3.11969 0
M  V30 2087 H 200.882 2.90656 2.23416 0
M  V30 2088 H 200.53 2.09438 4.57323 0
M  V30 2089 H 200.23 3.84556 4.44286 0
M  V30 2090 H 201.754 3.25613 5.16535 0
M  V30 2091 H 203.168 4.6414 3.36522 0
M  V30 2092 H 201.565 5.2654 2.87881 0
M  V30 2093 H 202.635 4.55777 1.65514 0
M  V30 2094 N 203.978 -0.674533 1.42435 0
M  V30 2095 C 205.226 -1.43175 1.42637 0
M  V30 2096 C 205.547 -1.94951 0.0438992 0
M  V30 2097 O 204.817 -1.7308 -0.917607 0
M  V30 2098 H 203.397 -0.531307 0.525092 0
M  V30 2099 H 206.059 -0.797006 1.77859 0
M  V30 2100 H 205.155 -2.28463 2.12629 0
M  V30 2101 N 205.456 -1.28612 -0.910864 0
M  V30 2102 C 206.419 -1.12803 -1.9952 0
M  V30 2103 C 207.419 -0.0668264 -1.60661 0
M  V30 2104 O 208.609 -0.312847 -1.71368 0
M  V30 2105 C 205.741 -0.72254 -3.33155 0
M  V30 2106 H 206.934 -2.09109 -2.14973 0
M  V30 2107 H 204.487 -1.11639 -1.09391 0
M  V30 2108 H 205.222 0.241152 -3.23402 0
M  V30 2109 H 205.007 -1.48916 -3.62721 0
M  V30 2110 H 206.497 -0.634666 -4.12749 0
M  V30 2111 N 206.934 1.1197 -1.10907 0
M  V30 2112 C 208.211 1.79959 -0.766432 0
M  V30 2113 C 208.591 1.97466 0.746363 0
M  V30 2114 O 207.939 1.55491 1.67436 0
M  V30 2115 C 208.149 3.14009 -1.52314 0
M  V30 2116 C 209.497 3.89134 -1.69883 0
M  V30 2117 O 210.521 3.2368 -1.48692 0
M  V30 2118 O 209.38 5.06572 -2.05054 0
M  V30 2119 H 206.474 0.779208 -0.277062 0
M  V30 2120 H 209.02 1.18762 -1.21217 0
M  V30 2121 H 207.792 2.96587 -2.55249 0
M  V30 2122 H 207.415 3.82915 -1.07059 0
M  V30 2123 N 208.412 0.89855 1.29475 0
M  V30 2124 C 209.658 0.524658 1.95896 0
M  V30 2125 C 209.991 -0.926468 1.70676 0
M  V30 2126 O 209.266 -1.65665 1.01908 0
M  V30 2127 C 209.549 0.81633 3.50725 0
M  V30 2128 C 209.402 2.31907 3.85408 0
M  V30 2129 C 210.721 0.302038 4.39062 0
M  V30 2130 H 207.84 0.19209 0.711527 0
M  V30 2131 H 210.482 1.12502 1.53112 0
M  V30 2132 H 208.632 0.305369 3.87298 0
M  V30 2133 H 210.304 2.89949 3.58786 0
M  V30 2134 H 208.547 2.78027 3.32992 0
M  V30 2135 H 209.218 2.47373 4.93468 0
M  V30 2136 H 211.694 0.739551 4.09475 0
M  V30 2137 H 210.57 0.535331 5.46283 0
M  V30 2138 H 210.831 -0.797216 4.34853 0
M  V30 2139 N 209.89 -1.43072 0.660911 0
M  V30 2140 C 211.301 -1.84932 0.256348 0
M  V30 2141 C 211.652 -1.55325 -1.19868 0
M  V30 2142 O 210.777 -1.00607 -1.91591 0
M  V30 2143 C 211.372 -3.35684 0.458475 0
M  V30 2144 C 209.931 -3.76245 0.108161 0
M  V30 2145 C 209.078 -2.66749 0.757641 0
M  V30 2146 H 212.029 -1.33116 0.864051 0
M  V30 2147 H 212.05 -3.79365 -0.293683 0
M  V30 2148 H 211.562 -3.572 1.51755 0
M  V30 2149 H 209.663 -3.60338 -0.948014 0
M  V30 2150 H 209.776 -4.76058 0.538992 0
M  V30 2151 H 208.14 -2.53989 0.190185 0
M  V30 2152 H 208.923 -2.91092 1.81989 0
M  V30 2153 N 211.368 -0.403325 -1.52352 0
M  V30 2154 C 212.614 0.174605 -2.02047 0
M  V30 2155 C 212.947 1.45282 -1.28867 0
M  V30 2156 O 212.222 1.90483 -0.393257 0
M  V30 2157 C 212.505 0.428238 -3.57545 0
M  V30 2158 C 212.358 -0.866248 -4.4138 0
M  V30 2159 C 213.677 1.21287 -4.23057 0
M  V30 2160 H 210.796 0.0619851 -0.734389 0
M  V30 2161 H 213.438 -0.53565 -1.82293 0
M  V30 2162 H 211.588 1.03327 -3.74507 0
M  V30 2163 H 213.26 -1.50265 -4.3614 0
M  V30 2164 H 211.503 -1.47851 -4.07827 0
M  V30 2165 H 212.174 -0.643249 -5.48239 0
M  V30 2166 H 214.65 0.700703 -4.10158 0
M  V30 2167 H 213.526 1.35909 -5.31808 0
M  V30 2168 H 213.787 2.23193 -3.81625 0
M  V30 2169 N 212.846 1.57033 -0.133567 0
M  V30 2170 C 214.093 1.95686 0.520877 0
M  V30 2171 C 214.421 1.0177 1.6575 0
M  V30 2172 O 213.676 0.0443195 1.9565 0
M  V30 2173 C 213.975 3.40674 1.08057 0
M  V30 2174 C 213.641 4.50855 0.0637899 0
M  V30 2175 C 212.303 4.80716 -0.215757 0
M  V30 2176 C 214.655 5.17398 -0.62835 0
M  V30 2177 C 211.983 5.74433 -1.19348 0
M  V30 2178 C 214.335 6.12167 -1.5948 0
M  V30 2179 C 212.999 6.40414 -1.88218 0
M  V30 2180 H 212.269 0.716067 0.190602 0
M  V30 2181 H 214.916 1.9026 -0.217556 0
M  V30 2182 H 213.221 3.42865 1.89606 0
M  V30 2183 H 214.918 3.67902 1.59529 0
M  V30 2184 H 211.508 4.27605 0.291855 0
M  V30 2185 H 215.692 4.94472 -0.425562 0
M  V30 2186 H 210.948 5.94616 -1.42272 0
M  V30 2187 H 215.122 6.6281 -2.13671 0
M  V30 2188 H 212.749 7.12838 -2.64133 0
M  V30 2189 N 214.325 -0.140222 1.56975 0
M  V30 2190 C 215.571 -0.852949 1.83991 0
M  V30 2191 C 215.904 -1.80512 0.716187 0
M  V30 2192 O 215.179 -1.92479 -0.279681 0
M  V30 2193 C 215.462 -1.6215 3.21527 0
M  V30 2194 C 215.315 -0.690363 4.4447 0
M  V30 2195 C 216.634 -2.58247 3.56366 0
M  V30 2196 H 213.753 -0.308634 0.669264 0
M  V30 2197 H 216.395 -0.117898 1.89634 0
M  V30 2198 H 214.545 -2.24812 3.16847 0
M  V30 2199 H 216.217 -0.0742264 4.6124 0
M  V30 2200 H 214.46 -0.000396433 4.338 0
M  V30 2201 H 215.131 -1.2643 5.37326 0
M  V30 2202 H 217.607 -2.05701 3.61699 0
M  V30 2203 H 216.483 -3.09067 4.53617 0
M  V30 2204 H 216.744 -3.39923 2.82674 0
M  V30 2205 N 215.803 -1.52179 -0.40978 0
M  V30 2206 C 217.219 -1.40968 -0.74835 0
M  V30 2207 C 217.419 -0.513657 -1.94843 0
M  V30 2208 O 216.475 0.0208026 -2.52491 0
M  V30 2209 C 217.788 -2.83483 -1.0029 0
M  V30 2210 C 219.336 -2.92821 -1.10565 0
M  V30 2211 C 219.811 -4.36303 -1.39296 0
M  V30 2212 N 221.302 -4.39535 -1.46162 0
M  V30 2213 C 222.037 -5.47614 -1.70018 0
M  V30 2214 N 221.533 -6.65812 -1.91483 0
M  V30 2215 N 223.326 -5.35129 -1.72027 0
M  V30 2216 H 215.477 -2.0897 0.380186 0
M  V30 2217 H 217.74 -0.94185 0.107805 0
M  V30 2218 H 217.446 -3.51168 -0.193461 0
M  V30 2219 H 217.32 -3.24487 -1.92323 0
M  V30 2220 H 219.707 -2.25318 -1.90568 0
M  V30 2221 H 219.788 -2.55276 -0.16369 0
M  V30 2222 H 219.432 -5.04366 -0.598109 0
M  V30 2223 H 219.362 -4.71385 -2.34743 0
M  V30 2224 H 221.853 -3.54332 -1.31367 0
M  V30 2225 H 222.166 -7.43964 -2.09134 0
M  V30 2226 H 220.511 -6.68879 -1.88749 0
M  V30 2227 H 223.702 -4.41764 -1.54796 0
M  V30 2228 H 223.875 -6.19433 -1.9028 0
M  V30 2229 N 217.281 0.66697 -1.42791 0
M  V30 2230 C 218.529 1.42417 -1.43394 0
M  V30 2231 C 218.85 1.94925 -0.0542373 0
M  V30 2232 O 218.12 1.73564 0.908415 0
M  V30 2233 H 216.7 0.528515 -0.527902 0
M  V30 2234 H 219.362 0.787562 -1.78279 0
M  V30 2235 H 218.458 2.27333 -2.13837 0
M  V30 2236 N 218.759 1.29093 0.90403 0
M  V30 2237 C 219.709 1.10482 1.99443 0
M  V30 2238 C 220.693 0.0255401 1.6088 0
M  V30 2239 O 221.885 0.24677 1.75271 0
M  V30 2240 C 219.014 0.778882 3.34348 0
M  V30 2241 C 218.1 1.89749 3.79284 0
M  V30 2242 N 218.491 3.14045 3.96497 0
M  V30 2243 C 216.789 1.78955 4.08523 0
M  V30 2244 C 217.49 3.86996 4.34292 0
M  V30 2245 N 216.466 3.14909 4.43095 0
M  V30 2246 H 220.268 2.04778 2.10815 0
M  V30 2247 H 217.782 1.20155 1.09255 0
M  V30 2248 H 219.779 0.62661 4.12164 0
M  V30 2249 H 218.439 -0.156205 3.24324 0
M  V30 2250 H 219.45 3.49548 3.82148 0
M  V30 2251 H 216.127 0.926886 4.07081 0
M  V30 2252 H 217.517 4.93941 4.55491 0
M  V30 2253 N 220.237 -1.11381 1.11499 0
M  V30 2254 C 221.2 -2.15622 0.777153 0
M  V30 2255 C 222.2 -1.59504 -0.203779 0
M  V30 2256 O 223.39 -1.74188 0.020782 0
M  V30 2257 C 220.522 -3.40556 0.153116 0
M  V30 2258 H 221.715 -2.47021 1.70061 0
M  V30 2259 H 219.268 -1.26577 0.916952 0
M  V30 2260 H 220.003 -3.14767 -0.780536 0
M  V30 2261 H 219.788 -3.8257 0.859238 0
M  V30 2262 H 221.278 -4.17546 -0.0671044 0
M  V30 2263 N 221.715 -0.905404 -1.28997 0
M  V30 2264 C 222.678 -0.392253 -2.25819 0
M  V30 2265 C 223.678 0.476753 -1.5357 0
M  V30 2266 O 224.868 0.280994 -1.71919 0
M  V30 2267 C 222 0.438588 -3.38067 0
M  V30 2268 H 223.193 -1.24743 -2.72725 0
M  V30 2269 H 220.746 -0.684051 -1.40536 0
M  V30 2270 H 221.481 1.31352 -2.96508 0
M  V30 2271 H 221.266 -0.184167 -3.91667 0
M  V30 2272 H 222.756 0.78873 -4.10084 0
M  V30 2273 N 223.193 1.4272 -0.668489 0
M  V30 2274 C 224.44 2.01624 -0.18814 0
M  V30 2275 C 224.768 1.5282 1.20317 0
M  V30 2276 O 224.023 0.718323 1.8204 0
M  V30 2277 C 224.322 3.57021 -0.164499 0
M  V30 2278 C 223.988 4.25232 -1.49962 0
M  V30 2279 C 222.65 4.4358 -1.8652 0
M  V30 2280 C 225.002 4.63727 -2.37921 0
M  V30 2281 C 222.33 4.97694 -3.10674 0
M  V30 2282 C 224.682 5.19218 -3.6138 0
M  V30 2283 C 223.346 5.3578 -3.98115 0
M  V30 2284 H 222.616 0.737795 -0.0688454 0
M  V30 2285 H 225.263 1.70991 -0.862225 0
M  V30 2286 H 223.568 3.87285 0.593079 0
M  V30 2287 H 225.265 4.00372 0.224271 0
M  V30 2288 H 221.855 4.11306 -1.20522 0
M  V30 2289 H 226.039 4.4923 -2.10964 0
M  V30 2290 H 221.295 5.08702 -3.39164 0
M  V30 2291 H 225.469 5.4799 -4.29743 0
M  V30 2292 H 223.096 5.77475 -4.94395 0
M  V30 2293 N 224.671 0.411399 1.52136 0
M  V30 2294 C 225.634 -0.401089 2.25663 0
M  V30 2295 C 226.634 -0.971732 1.28117 0
M  V30 2296 O 227.824 -0.850254 1.52041 0
M  V30 2297 C 224.956 -1.56483 3.02863 0
M  V30 2298 H 226.149 0.24295 2.98914 0
M  V30 2299 H 223.702 0.163968 1.55438 0
M  V30 2300 H 224.437 -2.24567 2.33967 0
M  V30 2301 H 224.222 -1.16211 3.74483 0
M  V30 2302 H 225.712 -2.13951 3.58629 0
M  V30 2303 N 226.149 -1.5696 0.141893 0
M  V30 2304 C 227.059 -2.20066 -0.812905 0
M  V30 2305 C 228.075 -1.18344 -1.27557 0
M  V30 2306 O 229.251 -1.50902 -1.33381 0
M  V30 2307 C 226.316 -2.80583 -2.03652 0
M  V30 2308 C 225.377 -3.97414 -1.62359 0
M  V30 2309 C 224.61 -4.55036 -2.78887 0
M  V30 2310 O 224.833 -4.11538 -3.94959 0
M  V30 2311 O 223.767 -5.45376 -2.54653 0
M  V30 2312 H 227.593 -3.02157 -0.305746 0
M  V30 2313 H 225.178 -1.49159 -0.0848799 0
M  V30 2314 H 227.06 -3.19067 -2.75272 0
M  V30 2315 H 225.735 -2.01508 -2.5333 0
M  V30 2316 H 224.642 -3.63656 -0.877775 0
M  V30 2317 H 225.975 -4.77994 -1.17401 0
M  V30 2318 N 227.627 0.131896 -1.57047 0
M  V30 2319 C 228.875 0.840269 -1.83804 0
M  V30 2320 C 229.196 1.81017 -0.72512 0
M  V30 2321 O 228.466 1.94272 0.251995 0
M  V30 2322 H 227.046 0.313294 -0.678127 0
M  V30 2323 H 229.708 0.122294 -1.94516 0
M  V30 2324 H 228.804 1.39335 -2.79271 0
M  V30 2325 N 229.106 1.52395 0.401703 0
M  V30 2326 C 230.352 1.67065 1.14966 0
M  V30 2327 C 230.685 0.403052 1.89971 0
M  V30 2328 O 229.96 -0.598774 1.85054 0
M  V30 2329 C 230.243 2.8975 2.13815 0
M  V30 2330 C 230.096 4.26578 1.42658 0
M  V30 2331 C 231.415 3.07965 3.14397 0
M  V30 2332 H 228.534 0.607968 0.416587 0
M  V30 2333 H 231.176 1.84965 0.434511 0
M  V30 2334 H 229.326 2.74619 2.74803 0
M  V30 2335 H 230.998 4.53451 0.847329 0
M  V30 2336 H 229.241 4.27639 0.72849 0
M  V30 2337 H 229.912 5.08483 2.14823 0
M  V30 2338 H 232.388 3.22043 2.63491 0
M  V30 2339 H 231.264 3.95308 3.80819 0
M  V30 2340 H 231.525 2.21611 3.82545 0
M  V30 2341 N 230.584 -0.659388 1.43143 0
M  V30 2342 C 231.832 -1.41654 1.44147 0
M  V30 2343 C 232.153 -1.94893 0.0645739 0
M  V30 2344 O 231.423 -1.74044 -0.899198 0
M  V30 2345 H 230.003 -0.525708 0.530697 0
M  V30 2346 H 232.665 -0.778097 1.78694 0
M  V30 2347 H 231.761 -2.26195 2.1504 0
M  V30 2348 N 232.062 -1.29571 -0.897171 0
M  V30 2349 C 232.972 -1.16808 -2.03453 0
M  V30 2350 C 233.988 -0.0907471 -1.73763 0
M  V30 2351 O 235.164 -0.303312 -1.99103 0
M  V30 2352 C 232.229 -0.848264 -3.36163 0
M  V30 2353 C 231.29 -2.0097 -3.79354 0
M  V30 2354 C 230.523 -1.70505 -5.05731 0
M  V30 2355 O 230.746 -0.62718 -5.66941 0
M  V30 2356 O 229.68 -2.5538 -5.45036 0
M  V30 2357 H 233.506 -2.12325 -2.17144 0
M  V30 2358 H 231.091 -1.09047 -1.02123 0
M  V30 2359 H 232.973 -0.684581 -4.15802 0
M  V30 2360 H 231.648 0.0771071 -3.23608 0
M  V30 2361 H 230.555 -2.22863 -3.00471 0
M  V30 2362 H 231.888 -2.91636 -3.96496 0
M  V30 2363 N 233.54 1.10788 -1.12088 0
M  V30 2364 C 234.789 1.82036 -0.868659 0
M  V30 2365 C 235.102 1.85929 0.607426 0
M  V30 2366 O 236.308 2.53346 0.97613 0
M  V30 2367 C 234.764 3.26951 -1.50435 0
M  V30 2368 C 234.372 3.31367 -3.01496 0
M  V30 2369 C 236.116 4.03053 -1.33225 0
M  V30 2370 C 234.023 4.7072 -3.58017 0
M  V30 2371 H 232.953 0.682108 -0.321318 0
M  V30 2372 H 235.604 1.24618 -1.34694 0
M  V30 2373 H 233.986 3.84343 -0.953735 0
M  V30 2374 H 235.16 2.83819 -3.6302 0
M  V30 2375 H 233.475 2.6875 -3.18061 0
M  V30 2376 H 236.072 5.05981 -1.72878 0
M  V30 2377 H 236.415 4.15387 -0.275529 0
M  V30 2378 H 236.948 3.52066 -1.85188 0
M  V30 2379 H 233.687 4.63585 -4.63432 0
M  V30 2380 H 233.207 5.1865 -3.01268 0
M  V30 2381 H 234.886 5.39685 -3.56859 0
M  V30 2382 N 235.018 0.912232 1.28515 0
M  V30 2383 C 235.948 0.416403 2.29757 0
M  V30 2384 C 236.929 -0.515194 1.6211 0
M  V30 2385 O 238.114 -0.423253 1.89532 0
M  V30 2386 C 235.244 -0.34572 3.45575 0
M  V30 2387 C 234.198 0.496599 4.25109 0
M  V30 2388 C 233.524 -0.393771 5.33248 0
M  V30 2389 C 234.824 1.75307 4.92001 0
M  V30 2390 H 236.518 1.26249 2.7148 0
M  V30 2391 H 234.064 0.608515 1.30511 0
M  V30 2392 H 236.017 -0.703422 4.15488 0
M  V30 2393 H 234.741 -1.2257 3.02728 0
M  V30 2394 H 233.4 0.8368 3.56922 0
M  V30 2395 H 233.048 -1.27225 4.86644 0
M  V30 2396 H 232.748 0.166209 5.87365 0
M  V30 2397 H 234.272 -0.747389 6.06009 0
M  V30 2398 H 235.686 1.46437 5.54283 0
M  V30 2399 H 234.083 2.25534 5.56106 0
M  V30 2400 H 235.153 2.48176 4.16577 0
M  V30 2401 N 236.496 -1.42363 0.676048 0
M  V30 2402 C 237.724 -2.05859 0.207268 0
M  V30 2403 C 238.139 -1.50796 -1.13605 0
M  V30 2404 O 237.496 -0.648265 -1.70598 0
M  V30 2405 C 237.547 -3.61248 0.134975 0
M  V30 2406 O 237.268 -4.1427 1.42521 0
M  V30 2407 C 238.769 -4.41859 -0.357151 0
M  V30 2408 H 235.989 -0.663431 0.100503 0
M  V30 2409 H 238.533 -1.82479 0.923136 0
M  V30 2410 H 236.688 -3.83735 -0.531588 0
M  V30 2411 H 237.102 -5.0815 1.29939 0
M  V30 2412 H 238.576 -5.50847 -0.356641 0
M  V30 2413 H 239.053 -4.16536 -1.39264 0
M  V30 2414 H 239.659 -4.24392 0.27772 0
M  V30 2415 N 237.974 -0.419461 -1.51915 0
M  V30 2416 C 239.385 0.0477853 -1.86639 0
M  V30 2417 C 239.736 1.43531 -1.33766 0
M  V30 2418 O 238.861 2.05401 -0.68113 0
M  V30 2419 C 239.456 0.0934885 -3.38671 0
M  V30 2420 C 238.015 0.505097 -3.72996 0
M  V30 2421 C 237.162 -0.313792 -2.75519 0
M  V30 2422 H 240.113 -0.636088 -1.45395 0
M  V30 2423 H 240.134 0.906667 -3.6954 0
M  V30 2424 H 239.646 -0.916501 -3.77123 0
M  V30 2425 H 237.747 1.52135 -3.40126 0
M  V30 2426 H 237.86 0.242309 -4.78487 0
M  V30 2427 H 236.224 0.225363 -2.53701 0
M  V30 2428 H 237.007 -1.32232 -3.16812 0
M  V30 2429 N 239.452 1.56882 -0.150215 0
M  V30 2430 C 240.698 1.96518 0.500834 0
M  V30 2431 C 241.031 1.03527 1.64304 0
M  V30 2432 O 240.306 0.0782751 1.94342 0
M  V30 2433 C 240.589 3.45822 1.00395 0
M  V30 2434 C 240.442 4.49591 -0.136983 0
M  V30 2435 C 241.761 3.97704 1.88467 0
M  V30 2436 H 238.88 0.714535 0.18058 0
M  V30 2437 H 241.522 1.88577 -0.232091 0
M  V30 2438 H 239.672 3.5272 1.62851 0
M  V30 2439 H 241.344 4.5477 -0.77343 0
M  V30 2440 H 239.587 4.26441 -0.795652 0
M  V30 2441 H 240.258 5.51402 0.256815 0
M  V30 2442 H 242.734 3.93304 1.35834 0
M  V30 2443 H 241.61 5.0263 2.20578 0
M  V30 2444 H 241.871 3.40252 2.82279 0
M  V30 2445 N 240.93 -0.123565 1.57115 0
M  V30 2446 C 242.207 -0.862196 1.75572 0
M  V30 2447 C 242.587 -1.98279 0.724475 0
M  V30 2448 O 241.935 -2.27102 -0.252407 0
M  V30 2449 C 242.145 -1.38309 3.20424 0
M  V30 2450 C 243.493 -1.83724 3.82793 0
M  V30 2451 O 244.517 -1.47999 3.23998 0
M  V30 2452 O 243.376 -2.49685 4.86127 0
M  V30 2453 H 240.47 -0.409113 0.718718 0
M  V30 2454 H 243.016 -0.107661 1.69358 0
M  V30 2455 H 241.788 -0.578889 3.86994 0
M  V30 2456 H 241.411 -2.20046 3.31158 0
M  V30 2457 N 242.408 -1.52605 -0.393616 0
M  V30 2458 C 243.819 -1.59417 -0.971761 0
M  V30 2459 C 244.17 -0.444173 -1.91106 0
M  V30 2460 O 243.295 0.433382 -2.12016 0
M  V30 2461 C 243.89 -2.88936 -1.76921 0
M  V30 2462 C 242.449 -2.98175 -2.29714 0
M  V30 2463 C 241.596 -2.54491 -1.10135 0
M  V30 2464 H 244.547 -1.57751 -0.173317 0
M  V30 2465 H 244.568 -2.75163 -2.62804 0
M  V30 2466 H 244.08 -3.72616 -1.08532 0
M  V30 2467 H 242.181 -2.19024 -3.01429 0
M  V30 2468 H 242.294 -4.02726 -2.59517 0
M  V30 2469 H 240.658 -2.08702 -1.45999 0
M  V30 2470 H 241.441 -3.4056 -0.432874 0
M  V30 2471 N 243.887 0.651787 -1.4349 0
M  V30 2472 C 245.298 1.233 -1.40193 0
M  V30 2473 C 245.649 1.9591 -0.106727 0
M  V30 2474 O 244.774 2.01316 0.793773 0
M  V30 2475 C 245.369 2.24257 -2.53957 0
M  V30 2476 C 243.928 2.77852 -2.5392 0
M  V30 2477 C 243.075 1.52517 -2.3159 0
M  V30 2478 H 246.026 0.443717 -1.52371 0
M  V30 2479 H 246.047 3.0646 -2.25528 0
M  V30 2480 H 245.559 1.71382 -3.4821 0
M  V30 2481 H 243.66 3.34786 -1.63551 0
M  V30 2482 H 243.773 3.25299 -3.51735 0
M  V30 2483 H 242.137 1.79915 -1.80285 0
M  V30 2484 H 242.92 1.01574 -3.27929 0
M  V30 2485 N 245.365 1.30045 0.890287 0
M  V30 2486 C 246.275 1.17885 2.02831 0
M  V30 2487 C 247.291 0.0999609 1.73713 0
M  V30 2488 O 248.467 0.313867 1.98939 0
M  V30 2489 C 245.532 0.866079 3.35708 0
M  V30 2490 C 244.593 2.02979 3.78283 0
M  V30 2491 C 243.826 1.73184 5.0482 0
M  V30 2492 O 244.049 0.657237 5.66601 0
M  V30 2493 O 242.983 2.58267 5.43674 0
M  V30 2494 H 246.809 2.13474 2.16015 0
M  V30 2495 H 244.394 1.09587 1.01543 0
M  V30 2496 H 246.276 0.706623 4.15433 0
M  V30 2497 H 244.951 -0.0599443 3.23644 0
M  V30 2498 H 243.858 2.24454 2.99285 0
M  V30 2499 H 245.191 2.93734 3.94944 0
M  V30 2500 N 246.843 -1.10192 1.12674 0
M  V30 2501 C 247.79 -2.16606 0.796906 0
M  V30 2502 C 248.76 -1.64394 -0.237476 0
M  V30 2503 O 249.945 -1.90474 -0.111484 0
M  V30 2504 C 247.085 -3.44116 0.26043 0
M  V30 2505 C 246.198 -4.10268 1.35293 0
M  V30 2506 C 245.333 -5.25507 0.775621 0
M  V30 2507 C 244.372 -5.83567 1.84706 0
M  V30 2508 N 243.509 -6.90179 1.28829 0
M  V30 2509 H 248.349 -2.44163 1.70846 0
M  V30 2510 H 245.886 -1.19846 0.85295 0
M  V30 2511 H 247.844 -4.17143 -0.0686814 0
M  V30 2512 H 246.474 -3.16901 -0.614274 0
M  V30 2513 H 245.526 -3.35184 1.79877 0
M  V30 2514 H 246.838 -4.4946 2.16303 0
M  V30 2515 H 245.992 -6.05398 0.397327 0
M  V30 2516 H 244.731 -4.87656 -0.0656581 0
M  V30 2517 H 243.736 -5.02344 2.23452 0
M  V30 2518 H 244.961 -6.23482 2.69161 0
M  V30 2519 H 242.907 -6.54322 0.468881 0
M  V30 2520 H 242.824 -7.28097 2.03497 0
M  V30 2521 H 244.092 -7.73844 0.937311 0
M  V30 2522 N 248.321 -0.919034 -1.28029 0
M  V30 2523 C 249.567 -0.565221 -1.95389 0
M  V30 2524 C 249.922 0.882325 -1.70976 0
M  V30 2525 O 249.215 1.61988 -1.02325 0
M  V30 2526 C 249.409 -0.816855 -3.4794 0
M  V30 2527 C 249.238 -2.28731 -3.87185 0
M  V30 2528 C 248.008 -2.93841 -4.11079 0
M  V30 2529 C 250.206 -3.26415 -3.97439 0
M  V30 2530 N 248.188 -4.31129 -4.37037 0
M  V30 2531 C 249.559 -4.48884 -4.27672 0
M  V30 2532 C 251.614 -3.21742 -3.79982 0
M  V30 2533 C 250.317 -5.67268 -4.42266 0
M  V30 2534 C 252.343 -4.39431 -3.95796 0
M  V30 2535 C 251.705 -5.60675 -4.26407 0
M  V30 2536 H 247.804 -0.256797 -0.738633 0
M  V30 2537 H 250.388 -1.18386 -1.54573 0
M  V30 2538 H 248.559 -0.227445 -3.87733 0
M  V30 2539 H 250.291 -0.426542 -4.02446 0
M  V30 2540 H 247.046 -2.44547 -4.05578 0
M  V30 2541 H 247.47 -5.02127 -4.5409 0
M  V30 2542 H 252.112 -2.29079 -3.55363 0
M  V30 2543 H 249.83 -6.60406 -4.65714 0
M  V30 2544 H 253.416 -4.37323 -3.83719 0
M  V30 2545 H 252.296 -6.50223 -4.38383 0
M  V30 2546 N 249.799 1.42003 -0.683588 0
M  V30 2547 C 251.029 2.05448 -0.217866 0
M  V30 2548 C 251.437 1.51491 1.13346 0
M  V30 2549 O 250.78 0.653048 1.717 0
M  V30 2550 C 250.842 3.59399 -0.0850118 0
M  V30 2551 C 250.506 4.36093 -1.36645 0
M  V30 2552 C 251.503 4.66169 -2.30179 0
M  V30 2553 C 249.188 4.75578 -1.61649 0
M  V30 2554 C 251.182 5.34676 -3.46988 0
M  V30 2555 C 248.869 5.43824 -2.78745 0
M  V30 2556 C 249.867 5.73299 -3.71238 0
M  V30 2557 O 249.555 6.40142 -4.86285 0
M  V30 2558 H 249.287 0.668344 -0.101454 0
M  V30 2559 H 251.841 1.82974 -0.933248 0
M  V30 2560 H 250.071 3.80566 0.686031 0
M  V30 2561 H 251.76 4.04457 0.341973 0
M  V30 2562 H 252.526 4.36156 -2.12115 0
M  V30 2563 H 248.405 4.52025 -0.905243 0
M  V30 2564 H 251.949 5.57599 -4.19201 0
M  V30 2565 H 247.846 5.73254 -2.96732 0
M  V30 2566 H 248.614 6.58636 -4.85944 0
M  V30 2567 N 251.277 0.427512 1.51691 0
M  V30 2568 C 252.207 -0.3796 2.30394 0
M  V30 2569 C 253.188 -1.02982 1.35384 0
M  V30 2570 O 254.373 -1.03534 1.643 0
M  V30 2571 C 251.503 -1.48649 3.1388 0
M  V30 2572 C 250.457 -0.960294 4.17088 0
M  V30 2573 C 249.783 -2.16219 4.89033 0
M  V30 2574 C 251.083 -0.00153679 5.223 0
M  V30 2575 H 252.777 0.277164 2.98114 0
M  V30 2576 H 250.323 0.134739 1.43368 0
M  V30 2577 H 252.276 -2.05826 3.67714 0
M  V30 2578 H 251 -2.1714 2.43962 0
M  V30 2579 H 249.659 -0.410806 3.64291 0
M  V30 2580 H 249.307 -2.83307 4.15628 0
M  V30 2581 H 249.007 -1.81654 5.58816 0
M  V30 2582 H 250.531 -2.73968 5.45687 0
M  V30 2583 H 251.945 -0.482687 5.71264 0
M  V30 2584 H 250.342 0.256199 5.99553 0
M  V30 2585 H 251.412 0.938174 4.75738 0
M  V30 2586 N 252.755 -1.56801 0.158532 0
M  V30 2587 C 254.001 -1.96781 -0.490405 0
M  V30 2588 C 254.334 -1.04397 -1.63753 0
M  V30 2589 O 253.609 -0.0885805 -1.94298 0
M  V30 2590 C 253.892 -3.4635 -0.985594 0
M  V30 2591 C 253.745 -4.49512 0.160824 0
M  V30 2592 C 255.064 -3.98697 -1.86355 0
M  V30 2593 H 252.183 -0.715482 -0.176788 0
M  V30 2594 H 254.825 -1.88451 0.242088 0
M  V30 2595 H 252.975 -3.53579 -1.60978 0
M  V30 2596 H 254.647 -4.54353 0.797537 0
M  V30 2597 H 252.89 -4.26013 0.818256 0
M  V30 2598 H 253.561 -5.51531 -0.227569 0
M  V30 2599 H 256.037 -3.94019 -1.33746 0
M  V30 2600 H 254.913 -5.03792 -2.17909 0
M  V30 2601 H 255.174 -3.41744 -2.8047 0
M  V30 2602 N 254.233 0.115231 -1.57178 0
M  V30 2603 C 255.196 1.12526 -1.99676 0
M  V30 2604 C 256.196 1.34095 -0.88742 0
M  V30 2605 O 257.386 1.30548 -1.15337 0
M  V30 2606 C 254.518 2.4789 -2.34015 0
M  V30 2607 H 255.711 0.759912 -2.90113 0
M  V30 2608 H 253.264 0.359648 -1.52106 0
M  V30 2609 H 253.999 2.89339 -1.4647 0
M  V30 2610 H 253.784 2.33588 -3.14927 0
M  V30 2611 H 255.274 3.20575 -2.67622 0
M  V30 2612 N 255.711 1.52812 0.385517 0
M  V30 2613 C 256.661 1.74219 1.47078 0
M  V30 2614 C 257.645 0.59632 1.49442 0
M  V30 2615 O 258.837 0.85428 1.5502 0
M  V30 2616 C 255.966 1.9176 2.84751 0
M  V30 2617 C 255.052 3.12289 2.86943 0
M  V30 2618 N 255.443 4.34575 2.58802 0
M  V30 2619 C 253.741 3.12605 3.1811 0
M  V30 2620 C 254.442 5.162 2.68166 0
M  V30 2621 N 253.418 4.51964 3.02043 0
M  V30 2622 H 257.22 2.6639 1.24152 0
M  V30 2623 H 254.734 1.51166 0.593504 0
M  V30 2624 H 256.731 2.05218 3.62893 0
M  V30 2625 H 255.391 1.00805 3.08656 0
M  V30 2626 H 256.402 4.62649 2.32759 0
M  V30 2627 H 253.079 2.31472 3.47458 0
M  V30 2628 H 254.469 6.23689 2.49923 0
M  V30 2629 N 257.189 -0.644168 1.43834 0
M  V30 2630 C 258.6 -1.22554 1.40845 0
M  V30 2631 C 258.951 -1.9585 0.117115 0
M  V30 2632 O 258.076 -2.01734 -0.783086 0
M  V30 2633 C 258.671 -2.22907 2.55143 0
M  V30 2634 C 257.23 -2.76501 2.5539 0
M  V30 2635 C 256.377 -1.51287 2.32396 0
M  V30 2636 H 259.328 -0.43563 1.52604 0
M  V30 2637 H 259.349 -3.05259 2.2715 0
M  V30 2638 H 258.861 -1.69533 3.49114 0
M  V30 2639 H 256.962 -3.33914 1.65324 0
M  V30 2640 H 257.075 -3.23429 3.53455 0
M  V30 2641 H 255.439 -1.78957 1.81236 0
M  V30 2642 H 256.222 -0.998336 3.28463 0
M  V30 2643 N 258.668 -1.30515 -0.883378 0
M  V30 2644 C 259.916 -1.19194 -1.63209 0
M  V30 2645 C 260.237 0.253205 -1.93349 0
M  V30 2646 O 259.507 1.17025 -1.57105 0
M  V30 2647 H 258.087 -0.438148 -0.605009 0
M  V30 2648 H 260.749 -1.63663 -1.05832 0
M  V30 2649 H 259.845 -1.75396 -2.58153 0
M  V30 2650 N 260.146 1.09593 -1.13257 0
M  V30 2651 C 261.392 1.82003 -0.89458 0
M  V30 2652 C 261.725 1.85402 0.577906 0
M  V30 2653 O 261 1.32099 1.42759 0
M  V30 2654 C 261.283 3.28237 -1.48096 0
M  V30 2655 C 261.136 3.3312 -3.02244 0
M  V30 2656 C 262.455 4.24871 -1.14774 0
M  V30 2657 H 259.574 0.66077 -0.326424 0
M  V30 2658 H 262.216 1.28389 -1.40058 0
M  V30 2659 H 260.366 3.74024 -1.05062 0
M  V30 2660 H 262.038 2.95748 -3.54021 0
M  V30 2661 H 260.281 2.72756 -3.37323 0
M  V30 2662 H 260.952 4.3613 -3.38371 0
M  V30 2663 H 263.428 3.87361 -1.51957 0
M  V30 2664 H 262.304 5.25532 -1.58452 0
M  V30 2665 H 262.565 4.42058 -0.0611849 0
M  V30 2666 N 261.624 0.925811 1.2754 0
M  V30 2667 C 262.849 0.580924 1.99098 0
M  V30 2668 C 263.274 -0.833555 1.68622 0
M  V30 2669 O 262.632 -1.55903 0.925422 0
M  V30 2670 C 262.68 0.811186 3.51358 0
M  V30 2671 O 261.784 -0.124129 4.12213 0
M  V30 2672 H 261.125 0.223873 0.625122 0
M  V30 2673 H 263.655 1.24455 1.62395 0
M  V30 2674 H 263.665 0.72601 4.01489 0
M  V30 2675 H 262.34 1.84227 3.72872 0
M  V30 2676 H 260.917 0.0108006 3.72898 0
M  V30 2677 N 263.102 -1.41638 0.69111 0
M  V30 2678 C 264.351 -2.00526 0.217318 0
M  V30 2679 C 264.664 -1.55353 -1.18848 0
M  V30 2680 O 265.87 -2.06769 -1.75951 0
M  V30 2681 C 264.326 -3.58313 0.337639 0
M  V30 2682 C 263.934 -4.12469 1.74852 0
M  V30 2683 C 265.678 -4.24431 -0.0766066 0
M  V30 2684 C 263.585 -5.62675 1.82074 0
M  V30 2685 H 262.515 -0.750008 0.0774893 0
M  V30 2686 H 265.166 -1.6217 0.858661 0
M  V30 2687 H 263.548 -3.9425 -0.371879 0
M  V30 2688 H 264.722 -3.8796 2.48644 0
M  V30 2689 H 263.037 -3.58861 2.11205 0
M  V30 2690 H 265.634 -5.34683 -0.0430284 0
M  V30 2691 H 265.977 -4.01101 -1.1146 0
M  V30 2692 H 266.51 -3.93512 0.582476 0
M  V30 2693 H 263.249 -5.90826 2.83911 0
M  V30 2694 H 262.769 -5.89124 1.12661 0
M  V30 2695 H 264.448 -6.27371 1.58159 0
M  V30 2696 N 264.58 -0.43555 -1.51462 0
M  V30 2697 C 265.991 0.0279871 -1.86679 0
M  V30 2698 C 266.342 1.42104 -1.35281 0
M  V30 2699 O 265.467 2.04667 -0.702878 0
M  V30 2700 C 266.062 0.0575626 -3.38751 0
M  V30 2701 C 264.621 0.465507 -3.7351 0
M  V30 2702 C 263.768 -0.342996 -2.75171 0
M  V30 2703 H 266.719 -0.651473 -1.44712 0
M  V30 2704 H 266.74 0.867421 -3.70481 0
M  V30 2705 H 266.252 -0.956448 -3.7613 0
M  V30 2706 H 264.353 1.48519 -3.41721 0
M  V30 2707 H 264.466 0.191546 -4.78717 0
M  V30 2708 H 262.83 0.198442 -2.53926 0
M  V30 2709 H 263.613 -1.35585 -3.15391 0
M  V30 2710 N 266.058 1.56714 -0.166846 0
M  V30 2711 C 267.286 2.0112 0.485644 0
M  V30 2712 C 267.701 1.04705 1.57106 0
M  V30 2713 O 267.058 0.0471923 1.82439 0
M  V30 2714 C 267.109 3.45361 1.06808 0
M  V30 2715 O 266.83 4.38092 0.0259995 0
M  V30 2716 C 268.331 4.05145 1.79924 0
M  V30 2717 H 265.551 0.65931 0.124704 0
M  V30 2718 H 268.095 2.02746 -0.267262 0
M  V30 2719 H 266.25 3.44524 1.7715 0
M  V30 2720 H 266.664 5.22519 0.455398 0
M  V30 2721 H 268.138 5.08009 2.15942 0
M  V30 2722 H 268.615 3.46982 2.69258 0
M  V30 2723 H 269.221 4.09672 1.14234 0
M  V30 2724 N 267.536 -0.106894 1.57237 0
M  V30 2725 C 268.947 -0.662723 1.74542 0
M  V30 2726 C 269.298 -1.7971 0.787319 0
M  V30 2727 O 268.423 -2.16368 -0.0369636 0
M  V30 2728 C 269.018 -1.20896 3.16496 0
M  V30 2729 C 267.577 -1.71096 3.35266 0
M  V30 2730 C 266.724 -0.615642 2.7038 0
M  V30 2731 H 269.675 0.119106 1.58252 0
M  V30 2732 H 269.696 -2.07847 3.18716 0
M  V30 2733 H 269.208 -0.383122 3.86204 0
M  V30 2734 H 267.309 -2.56119 2.70618 0
M  V30 2735 H 267.422 -1.81208 4.43509 0
M  V30 2736 H 265.786 -1.05222 2.31949 0
M  V30 2737 H 266.569 0.199419 3.4272 0
M  V30 2738 N 269.014 -1.53014 -0.377408 0
M  V30 2739 C 270.26 -1.68872 -1.12294 0
M  V30 2740 C 270.593 -0.433224 -1.89306 0
M  V30 2741 O 269.868 0.569258 -1.85983 0
M  V30 2742 C 270.151 -2.93115 -2.09179 0
M  V30 2743 C 270.004 -4.28794 -1.35853 0
M  V30 2744 C 271.323 -3.12928 -3.09458 0
M  V30 2745 H 268.442 -0.614518 -0.406862 0
M  V30 2746 H 271.084 -1.85633 -0.40503 0
M  V30 2747 H 269.234 -2.78956 -2.70399 0
M  V30 2748 H 270.906 -4.54742 -0.775082 0
M  V30 2749 H 269.149 -4.28744 -0.660364 0
M  V30 2750 H 269.82 -5.11837 -2.06706 0
M  V30 2751 H 272.296 -3.26194 -2.58334 0
M  V30 2752 H 271.172 -4.01316 -3.74482 0
M  V30 2753 H 271.433 -2.27669 -3.78971 0
M  V30 2754 N 270.492 0.636531 -1.44174 0
M  V30 2755 C 271.741 1.39213 -1.45954 0
M  V30 2756 C 272.054 1.95374 -0.0939119 0
M  V30 2757 O 273.26 2.71498 0.0107767 0
M  V30 2758 C 271.716 2.52025 -2.56927 0
M  V30 2759 C 271.324 2.024 -3.99673 0
M  V30 2760 C 273.068 3.29269 -2.67922 0
M  V30 2761 C 270.975 3.12521 -5.0208 0
M  V30 2762 H 269.905 0.523132 -0.542999 0
M  V30 2763 H 272.556 0.685349 -1.70221 0
M  V30 2764 H 270.938 3.25253 -2.25891 0
M  V30 2765 H 272.112 1.36073 -4.40251 0
M  V30 2766 H 270.427 1.37987 -3.92872 0
M  V30 2767 H 273.024 4.11352 -3.41605 0
M  V30 2768 H 273.367 3.78397 -1.73555 0
M  V30 2769 H 273.9 2.63129 -2.98342 0
M  V30 2770 H 270.639 2.68343 -5.98057 0
M  V30 2771 H 270.159 3.77507 -4.66099 0
M  V30 2772 H 271.838 3.77385 -5.25538 0
M  V30 2773 N 271.97 1.30982 0.876444 0
M  V30 2774 C 273.217 1.20296 1.62896 0
M  V30 2775 C 273.545 -0.240395 1.93009 0
M  V30 2776 O 272.8 -1.18733 1.55567 0
M  V30 2777 C 273.099 1.98572 2.9716 0
M  V30 2778 C 272.765 3.48125 2.86566 0
M  V30 2779 C 271.427 3.88905 2.83383 0
M  V30 2780 C 273.779 4.43322 2.74071 0
M  V30 2781 C 271.107 5.2316 2.65556 0
M  V30 2782 C 273.459 5.77695 2.57781 0
M  V30 2783 C 272.123 6.17704 2.52979 0
M  V30 2784 H 271.393 0.440193 0.59608 0
M  V30 2785 H 274.04 1.62177 1.01837 0
M  V30 2786 H 272.345 1.49352 3.62217 0
M  V30 2787 H 274.042 1.8769 3.54364 0
M  V30 2788 H 270.632 3.15723 2.89856 0
M  V30 2789 H 274.816 4.12752 2.75589 0
M  V30 2790 H 270.072 5.53241 2.60259 0
M  V30 2791 H 274.246 6.51091 2.47089 0
M  V30 2792 H 271.873 7.21678 2.38924 0
M  V30 2793 N 273.449 -1.08991 1.13837 0
M  V30 2794 C 274.396 -2.15748 0.819835 0
M  V30 2795 C 275.366 -1.64636 -0.220026 0
M  V30 2796 O 276.551 -1.90582 -0.0912757 0
M  V30 2797 C 273.691 -3.4382 0.296913 0
M  V30 2798 C 272.804 -4.0881 1.39636 0
M  V30 2799 C 271.939 -5.24655 0.831314 0
M  V30 2800 C 270.978 -5.81575 1.90886 0
M  V30 2801 N 270.115 -6.88774 1.36142 0
M  V30 2802 H 274.955 -2.42338 1.73426 0
M  V30 2803 H 272.492 -1.18935 0.865613 0
M  V30 2804 H 274.45 -4.17193 -0.0244339 0
M  V30 2805 H 273.08 -3.17535 -0.580628 0
M  V30 2806 H 272.132 -3.33258 1.83422 0
M  V30 2807 H 273.444 -4.47141 2.21058 0
M  V30 2808 H 272.598 -6.04942 0.461515 0
M  V30 2809 H 271.337 -4.87698 -0.013932 0
M  V30 2810 H 270.342 -4.99946 2.28767 0
M  V30 2811 H 271.567 -6.20592 2.75758 0
M  V30 2812 H 269.513 -6.53788 0.538254 0
M  V30 2813 H 269.43 -7.25898 2.11208 0
M  V30 2814 H 270.698 -7.72806 1.01933 0
M  V30 2815 N 274.927 -0.932562 -1.27047 0
M  V30 2816 C 276.204 -0.49377 -1.89265 0
M  V30 2817 C 276.584 1.02833 -1.8436 0
M  V30 2818 O 275.932 1.88461 -1.29209 0
M  V30 2819 C 276.142 -1.04536 -3.32976 0
M  V30 2820 C 277.49 -1.10879 -4.09867 0
M  V30 2821 O 278.514 -0.995327 -3.42011 0
M  V30 2822 O 277.373 -1.28417 -5.31198 0
M  V30 2823 H 274.467 -0.159596 -0.811454 0
M  V30 2824 H 277.013 -1.02457 -1.3528 0
M  V30 2825 H 275.785 -2.08913 -3.30864 0
M  V30 2826 H 275.408 -0.496494 -3.94488 0
M  V30 2827 N 276.405 1.4127 -0.698611 0
M  V30 2828 C 277.816 1.84187 -0.305289 0
M  V30 2829 C 278.167 1.58449 1.15708 0
M  V30 2830 O 277.292 1.05651 1.88856 0
M  V30 2831 C 277.887 3.3435 -0.547314 0
M  V30 2832 C 276.446 3.75826 -0.207878 0
M  V30 2833 C 275.593 2.64647 -0.828099 0
M  V30 2834 H 278.544 1.30778 -0.89904 0
M  V30 2835 H 278.565 3.8001 0.192998 0
M  V30 2836 H 278.077 3.53051 -1.61172 0
M  V30 2837 H 276.178 3.62725 0.852143 0
M  V30 2838 H 276.291 4.74462 -0.665021 0
M  V30 2839 H 274.655 2.53395 -0.257458 0
M  V30 2840 H 275.438 2.86165 -1.89643 0
M  V30 2841 N 277.883 0.443576 1.51229 0
M  V30 2842 C 278.793 -0.370721 2.31652 0
M  V30 2843 C 279.809 -1.02186 1.40833 0
M  V30 2844 O 280.985 -1.01586 1.73903 0
M  V30 2845 C 278.05 -1.45376 3.14749 0
M  V30 2846 C 277.111 -0.822099 4.21355 0
M  V30 2847 C 276.344 -1.85353 5.0048 0
M  V30 2848 O 276.567 -3.07656 4.80316 0
M  V30 2849 O 275.501 -1.4406 5.84406 0
M  V30 2850 H 279.327 0.286002 3.0235 0
M  V30 2851 H 276.912 0.20598 1.47973 0
M  V30 2852 H 278.794 -2.08173 3.66391 0
M  V30 2853 H 277.469 -2.09445 2.46809 0
M  V30 2854 H 276.376 -0.155909 3.73775 0
M  V30 2855 H 277.709 -0.224797 4.91686 0
M  V30 2856 N 279.361 -1.56624 0.175154 0
M  V30 2857 C 280.291 -2.21155 -0.749195 0
M  V30 2858 C 281.272 -1.16836 -1.23626 0
M  V30 2859 O 282.457 -1.45277 -1.28873 0
M  V30 2860 C 279.587 -2.8553 -1.97711 0
M  V30 2861 C 278.541 -3.95921 -1.62575 0
M  V30 2862 C 277.867 -4.47365 -2.92864 0
M  V30 2863 C 279.167 -5.15323 -0.850838 0
M  V30 2864 H 280.861 -2.98653 -0.211295 0
M  V30 2865 H 278.407 -1.43651 -0.100188 0
M  V30 2866 H 280.36 -3.2935 -2.62881 0
M  V30 2867 H 279.084 -2.05406 -2.53921 0
M  V30 2868 H 277.743 -3.52762 -0.997719 0
M  V30 2869 H 277.391 -3.64027 -3.47122 0
M  V30 2870 H 277.091 -5.21839 -2.70106 0
M  V30 2871 H 278.615 -4.93873 -3.59056 0
M  V30 2872 H 280.029 -5.55812 -1.40521 0
M  V30 2873 H 278.426 -5.95739 -0.722154 0
M  V30 2874 H 279.496 -4.84661 0.152082 0
M  V30 2875 N 280.839 0.0985539 -1.57292 0
M  V30 2876 C 282.25 0.653457 -1.74891 0
M  V30 2877 C 282.601 1.7929 -0.796838 0
M  V30 2878 O 281.726 2.16385 0.0254886 0
M  V30 2879 C 282.321 1.19216 -3.17133 0
M  V30 2880 C 280.88 1.69316 -3.36168 0
M  V30 2881 C 280.027 0.601294 -2.70702 0
M  V30 2882 H 282.978 -0.127497 -1.58187 0
M  V30 2883 H 282.999 2.06154 -3.19814 0
M  V30 2884 H 282.511 0.362635 -3.86402 0
M  V30 2885 H 280.612 2.5468 -2.71972 0
M  V30 2886 H 280.725 1.78853 -4.44464 0
M  V30 2887 H 279.089 1.0399 -2.32504 0
M  V30 2888 H 279.872 -0.217592 -3.4261 0
M  V30 2889 N 282.317 1.53212 0.369288 0
M  V30 2890 C 283.733 1.42902 0.710712 0
M  V30 2891 C 283.933 0.565135 1.93413 0
M  V30 2892 O 282.989 0.0461484 2.52458 0
M  V30 2893 C 284.302 2.86042 0.927382 0
M  V30 2894 C 285.85 2.9565 1.02762 0
M  V30 2895 C 286.325 4.39843 1.27679 0
M  V30 2896 N 287.816 4.43256 1.34457 0
M  V30 2897 C 288.551 5.51929 1.55439 0
M  V30 2898 N 288.047 6.70655 1.73762 0
M  V30 2899 N 289.84 5.39502 1.57779 0
M  V30 2900 H 281.991 2.07888 -0.435457 0
M  V30 2901 H 284.254 0.938661 -0.132739 0
M  V30 2902 H 283.96 3.51557 0.100287 0
M  V30 2903 H 283.834 3.29472 1.83653 0
M  V30 2904 H 286.221 2.30291 1.84527 0
M  V30 2905 H 286.302 2.5562 0.0959504 0
M  V30 2906 H 285.946 5.05774 0.464175 0
M  V30 2907 H 285.876 4.77443 2.22162 0
M  V30 2908 H 288.367 3.5769 1.21926 0
M  V30 2909 H 288.68 7.49248 1.89335 0
M  V30 2910 H 287.025 6.73648 1.70948 0
M  V30 2911 H 290.216 4.45713 1.43029 0
M  V30 2912 H 290.389 6.2426 1.7379 0
M  V30 2913 N 283.795 -0.628877 1.44509 0
M  V30 2914 C 284.743 -1.76193 1.51852 0
M  V30 2915 C 285.737 -1.64849 0.390042 0
M  V30 2916 O 286.943 -1.709 0.565082 0
M  V30 2917 H 283.318 -0.581728 0.476547 0
M  V30 2918 H 285.289 -1.67123 2.47209 0
M  V30 2919 C 284.038 -3.14533 1.48204 0
M  V30 2920 H 283.361 -3.23911 2.34354 0
M  V30 2921 H 284.801 -3.93701 1.57402 0
M  V30 2922 C 283.26 -3.36287 0.203142 0
M  V30 2923 O 283.79 -3.9509 -0.725745 0
M  V30 2924 N 281.996 -2.90408 0.105563 0
M  V30 2925 H 281.543 -2.42739 0.862301 0
M  V30 2926 H 281.501 -3.05339 -0.749371 0
M  V30 2927 N 285.273 -1.31445 -0.869486 0
M  V30 2928 C 286.501 -1.24122 -1.65534 0
M  V30 2929 C 286.916 0.193387 -1.87807 0
M  V30 2930 O 286.273 1.12557 -1.43656 0
M  V30 2931 C 286.324 -1.98229 -3.02304 0
M  V30 2932 O 286.045 -3.3609 -2.81026 0
M  V30 2933 C 287.546 -1.97751 -3.96749 0
M  V30 2934 H 284.766 -0.428868 -0.516055 0
M  V30 2935 H 287.31 -1.73328 -1.08525 0
M  V30 2936 H 285.465 -1.52782 -3.56001 0
M  V30 2937 H 285.879 -3.7383 -3.67902 0
M  V30 2938 H 287.353 -2.54114 -4.90031 0
M  V30 2939 H 287.83 -0.960137 -4.28577 0
M  V30 2940 H 288.436 -2.43079 -3.48988 0
M  V30 2941 N 286.751 1.08385 -1.14413 0
M  V30 2942 C 288.162 1.62258 -0.923535 0
M  V30 2943 C 288.513 1.88691 0.537595 0
M  V30 2944 O 287.638 1.64454 1.40655 0
M  V30 2945 C 288.233 2.94781 -1.67002 0
M  V30 2946 C 286.792 3.45437 -1.495 0
M  V30 2947 C 285.939 2.19668 -1.69238 0
M  V30 2948 H 288.89 0.916086 -1.2959 0
M  V30 2949 H 288.911 3.63229 -1.13334 0
M  V30 2950 H 288.423 2.7551 -2.73342 0
M  V30 2951 H 286.524 3.6981 -0.455097 0
M  V30 2952 H 286.637 4.22173 -2.2651 0
M  V30 2953 H 285.001 2.28849 -1.11804 0
M  V30 2954 H 285.784 2.02905 -2.7692 0
M  V30 2955 N 288.23 0.939286 1.26551 0
M  V30 2956 C 289.177 0.446088 2.26448 0
M  V30 2957 C 290.147 -0.493234 1.58608 0
M  V30 2958 O 291.332 -0.409857 1.86346 0
M  V30 2959 C 288.472 -0.284375 3.43926 0
M  V30 2960 C 287.585 0.690399 4.26448 0
M  V30 2961 C 286.72 -0.0610712 5.31165 0
M  V30 2962 C 285.759 0.905649 6.05363 0
M  V30 2963 N 284.896 0.186055 7.01853 0
M  V30 2964 H 289.736 1.30291 2.68008 0
M  V30 2965 H 287.273 0.65371 1.31776 0
M  V30 2966 H 289.231 -0.724313 4.10864 0
M  V30 2967 H 287.861 -1.10535 3.03285 0
M  V30 2968 H 286.913 1.24885 3.59316 0
M  V30 2969 H 288.225 1.42873 4.779 0
M  V30 2970 H 287.379 -0.56038 6.04106 0
M  V30 2971 H 286.118 -0.832297 4.80546 0
M  V30 2972 H 285.123 1.4161 5.3125 0
M  V30 2973 H 286.348 1.67685 6.58072 0
M  V30 2974 H 284.294 -0.566714 6.53548 0
M  V30 2975 H 284.211 0.863752 7.51049 0
M  V30 2976 H 285.479 -0.292221 7.78952 0
M  V30 2977 N 289.708 -1.40897 0.706093 0
M  V30 2978 C 291.124 -1.55042 0.37869 0
M  V30 2979 C 291.324 -1.67944 -1.11342 0
M  V30 2980 O 290.38 -1.66372 -1.89938 0
M  V30 2981 C 291.693 -2.78398 1.13643 0
M  V30 2982 C 293.241 -2.92206 1.12181 0
M  V30 2983 C 293.716 -4.18463 1.86152 0
M  V30 2984 N 295.207 -4.25443 1.83173 0
M  V30 2985 C 295.942 -5.2202 2.37239 0
M  V30 2986 N 295.438 -6.24563 2.99821 0
M  V30 2987 N 297.231 -5.14033 2.27435 0
M  V30 2988 H 289.382 -1.30769 1.67372 0
M  V30 2989 H 291.645 -0.631653 0.706907 0
M  V30 2990 H 291.351 -2.7511 2.19106 0
M  V30 2991 H 291.225 -3.70228 0.721853 0
M  V30 2992 H 293.612 -2.95004 0.0754171 0
M  V30 2993 H 293.693 -2.01521 1.57554 0
M  V30 2994 H 293.337 -4.16427 2.90776 0
M  V30 2995 H 293.267 -5.08141 1.38206 0
M  V30 2996 H 295.758 -3.51976 1.37556 0
M  V30 2997 H 296.071 -6.94665 3.38616 0
M  V30 2998 H 294.416 -6.25035 3.03902 0
M  V30 2999 H 297.607 -4.3285 1.78208 0
M  V30 3000 H 297.78 -5.89129 2.69873 0
M  V30 3001 N 291.186 -0.45159 -1.50991 0
M  V30 3002 C 292.411 0.110667 -2.07105 0
M  V30 3003 C 292.836 1.3446 -1.31538 0
M  V30 3004 O 292.194 1.77743 -0.357365 0
M  V30 3005 C 292.242 0.397238 -3.58405 0
M  V30 3006 O 291.346 1.48124 -3.84881 0
M  V30 3007 H 290.687 -0.00439271 -0.663985 0
M  V30 3008 H 293.217 -0.637026 -1.9443 0
M  V30 3009 H 293.227 0.64351 -4.02893 0
M  V30 3010 H 291.902 -0.504553 -4.12828 0
M  V30 3011 H 290.479 1.22381 -3.52246 0
M  V30 3012 N 292.664 1.56529 -0.183458 0
M  V30 3013 C 293.913 1.96419 0.458511 0
M  V30 3014 C 294.226 1.0727 1.63562 0
M  V30 3015 O 295.432 1.36893 2.34462 0
M  V30 3016 C 293.888 3.49298 0.867122 0
M  V30 3017 C 293.496 4.47092 -0.285057 0
M  V30 3018 C 295.24 3.97983 1.47683 0
M  V30 3019 C 293.147 5.91225 0.143862 0
M  V30 3020 H 292.077 0.733394 0.175071 0
M  V30 3021 H 294.728 1.81448 -0.273624 0
M  V30 3022 H 293.11 3.59731 1.65559 0
M  V30 3023 H 294.284 4.48383 -1.0625 0
M  V30 3024 H 292.599 4.08535 -0.805503 0
M  V30 3025 H 295.196 5.03134 1.80999 0
M  V30 3026 H 295.539 3.41618 2.37914 0
M  V30 3027 H 296.072 3.90617 0.752562 0
M  V30 3028 H 292.811 6.5149 -0.723974 0
M  V30 3029 H 292.331 5.93214 0.886413 0
M  V30 3030 H 294.01 6.44362 0.583628 0
M  V30 3031 N 294.142 -0.090211 1.57342 0
M  V30 3032 C 295.052 -1.12735 2.05738 0
M  V30 3033 C 296.068 -1.43557 0.983231 0
M  V30 3034 O 297.244 -1.54101 1.29672 0
M  V30 3035 C 294.309 -2.42659 2.47624 0
M  V30 3036 C 293.37 -2.18975 3.69254 0
M  V30 3037 C 292.603 -3.42704 4.09133 0
M  V30 3038 O 292.826 -4.51127 3.49057 0
M  V30 3039 O 291.76 -3.32003 5.02053 0
M  V30 3040 H 295.586 -0.746279 2.94388 0
M  V30 3041 H 293.171 -0.303064 1.46294 0
M  V30 3042 H 295.053 -3.19155 2.7517 0
M  V30 3043 H 293.728 -2.80182 1.62109 0
M  V30 3044 H 292.635 -1.40244 3.46818 0
M  V30 3045 H 293.968 -1.86342 4.55563 0
M  V30 3046 N 295.62 -1.53406 -0.361157 0
M  V30 3047 C 296.848 -1.73717 -1.12383 0
M  V30 3048 C 297.263 -0.468161 -1.82904 0
M  V30 3049 O 296.62 0.559198 -1.73722 0
M  V30 3050 C 296.671 -2.90558 -2.15078 0
M  V30 3051 O 296.392 -4.12549 -1.47428 0
M  V30 3052 C 297.893 -3.22777 -3.03858 0
M  V30 3053 H 295.113 -0.580896 -0.335858 0
M  V30 3054 H 297.657 -2.00167 -0.418728 0
M  V30 3055 H 295.812 -2.66489 -2.8118 0
M  V30 3056 H 296.226 -4.78009 -2.15887 0
M  V30 3057 H 297.7 -4.07927 -3.71887 0
M  V30 3058 H 298.177 -2.38329 -3.68912 0
M  V30 3059 H 298.783 -3.48787 -2.43367 0
M  V30 3060 N 297.098 0.621204 -1.44841 0
M  V30 3061 C 298.028 1.74366 -1.55303 0
M  V30 3062 C 299.009 1.65199 -0.405385 0
M  V30 3063 O 300.194 1.83807 -0.626787 0
M  V30 3064 C 297.324 3.12931 -1.50637 0
M  V30 3065 C 296.278 3.36896 -2.63979 0
M  V30 3066 C 295.604 4.75594 -2.44366 0
M  V30 3067 C 296.904 3.28483 -4.06074 0
M  V30 3068 H 298.598 1.65867 -2.49256 0
M  V30 3069 H 296.144 0.796558 -1.19962 0
M  V30 3070 H 298.097 3.9124 -1.56555 0
M  V30 3071 H 296.821 3.22237 -0.532057 0
M  V30 3072 H 295.48 2.60972 -2.57467 0
M  V30 3073 H 295.128 4.81616 -1.45105 0
M  V30 3074 H 294.828 4.92586 -3.20364 0
M  V30 3075 H 296.352 5.5612 -2.52117 0
M  V30 3076 H 297.766 3.96684 -4.13902 0
M  V30 3077 H 296.163 3.57008 -4.82354 0
M  V30 3078 H 297.233 2.26133 -4.28943 0
M  V30 3079 N 298.576 1.31904 0.862503 0
M  V30 3080 C 299.506 1.22782 1.98612 0
M  V30 3081 C 300.487 0.113362 1.69722 0
M  V30 3082 O 301.672 0.299218 1.91881 0
M  V30 3083 C 298.802 0.942058 3.34279 0
M  V30 3084 C 297.756 2.0169 3.77499 0
M  V30 3085 C 297.082 1.58369 5.10709 0
M  V30 3086 C 298.382 3.43096 3.93805 0
M  V30 3087 H 300.076 2.16788 2.06502 0
M  V30 3088 H 297.622 1.04366 0.992154 0
M  V30 3089 H 299.575 0.864818 4.1243 0
M  V30 3090 H 298.299 -0.0336603 3.26583 0
M  V30 3091 H 296.958 2.08416 3.01593 0
M  V30 3092 H 296.606 0.595628 4.99461 0
M  V30 3093 H 296.306 2.30279 5.40597 0
M  V30 3094 H 297.83 1.52067 5.91361 0
M  V30 3095 H 299.244 3.39003 4.62331 0
M  V30 3096 H 297.641 4.13288 4.35101 0
M  V30 3097 H 298.711 3.83334 2.96957 0
M  V30 3098 N 300.054 -1.07777 1.14986 0
M  V30 3099 C 301.001 -2.14867 0.842672 0
M  V30 3100 C 301.971 -1.6486 -0.202552 0
M  V30 3101 O 303.156 -1.90668 -0.0710568 0
M  V30 3102 C 300.296 -3.43486 0.333363 0
M  V30 3103 C 299.409 -4.07306 1.43965 0
M  V30 3104 C 298.544 -5.23744 0.886914 0
M  V30 3105 C 297.583 -5.79517 1.97043 0
M  V30 3106 N 296.72 -6.87291 1.4344 0
M  V30 3107 H 301.56 -2.40485 1.75986 0
M  V30 3108 H 299.097 -1.1801 0.878179 0
M  V30 3109 H 301.055 -4.17195 0.0198163 0
M  V30 3110 H 299.685 -3.18133 -0.546916 0
M  V30 3111 H 298.737 -3.31293 1.86946 0
M  V30 3112 H 300.049 -4.44771 2.25788 0
M  V30 3113 H 299.203 -6.04419 0.525651 0
M  V30 3114 H 297.942 -4.87685 0.0377957 0
M  V30 3115 H 296.947 -4.97491 2.34057 0
M  V30 3116 H 298.172 -6.17632 2.82325 0
M  V30 3117 H 296.118 -6.5318 0.607567 0
M  V30 3118 H 296.035 -7.23617 2.18895 0
M  V30 3119 H 297.303 -7.71682 1.10124 0
M  V30 3120 N 301.532 -0.945985 -1.26051 0
M  V30 3121 C 302.772 -0.603665 -1.95282 0
M  V30 3122 C 303.136 0.842377 -1.72534 0
M  V30 3123 O 304.337 1.29387 -2.35611 0
M  V30 3124 C 302.608 -0.942292 -3.44754 0
M  V30 3125 S 304.167 -0.711242 -4.32997 0
M  V30 3126 H 300.985 -0.222176 -0.675395 0
M  V30 3127 H 303.587 -1.21832 -1.52896 0
M  V30 3128 H 302.291 -1.99203 -3.58812 0
M  V30 3129 H 301.822 -0.317546 -3.92116 0
M  V30 3130 H 303.837 0.422221 -4.944 0
M  V30 3131 N 303.011 1.40521 -0.713556 0
M  V30 3132 C 303.921 2.34522 -0.0606667 0
M  V30 3133 C 304.937 1.57193 0.74607 0
M  V30 3134 O 306.113 1.89591 0.679493 0
M  V30 3135 C 303.178 3.36081 0.851491 0
M  V30 3136 C 302.239 4.29286 0.0349339 0
M  V30 3137 C 301.472 5.25994 0.903649 0
M  V30 3138 O 301.695 5.28616 2.14292 0
M  V30 3139 O 300.629 6.00918 0.343723 0
M  V30 3140 H 304.455 2.91968 -0.835972 0
M  V30 3141 H 302.04 1.41681 -0.47402 0
M  V30 3142 H 303.922 3.98369 1.37404 0
M  V30 3143 H 302.597 2.81052 1.60598 0
M  V30 3144 H 301.504 3.70289 -0.532633 0
M  V30 3145 H 302.837 4.87462 -0.681287 0
M  V30 3146 N 304.489 0.459591 1.5075 0
M  V30 3147 C 305.736 -0.0993495 2.02256 0
M  V30 3148 C 306.064 -1.40751 1.34237 0
M  V30 3149 O 305.319 -1.90379 0.453228 0
M  V30 3150 C 305.618 -0.342866 3.55752 0
M  V30 3151 C 305.284 0.88218 4.42186 0
M  V30 3152 C 303.946 1.21808 4.65528 0
M  V30 3153 C 306.298 1.69837 4.92752 0
M  V30 3154 C 303.626 2.37045 5.36681 0
M  V30 3155 C 305.978 2.84192 5.65171 0
M  V30 3156 C 304.642 3.1821 5.8677 0
M  V30 3157 H 303.912 -0.0363545 0.740108 0
M  V30 3158 H 306.559 0.611329 1.8148 0
M  V30 3159 H 304.864 -1.13567 3.7498 0
M  V30 3160 H 306.561 -0.789121 3.93159 0
M  V30 3161 H 303.151 0.610467 4.2423 0
M  V30 3162 H 307.335 1.45205 4.74583 0
M  V30 3163 H 302.591 2.63689 5.51614 0
M  V30 3164 H 306.765 3.4779 6.03337 0
M  V30 3165 H 304.392 4.07613 6.41682 0
M  V30 3166 N 305.967 -1.56429 0.191757 0
M  V30 3167 C 307.192 -2.02309 -0.456706 0
M  V30 3168 C 307.617 -1.07103 -1.5463 0
M  V30 3169 O 306.975 -0.0539677 -1.8122 0
M  V30 3170 C 307.023 -3.46654 -0.993159 0
M  V30 3171 O 306.127 -3.54559 -2.10622 0
M  V30 3172 H 305.468 -0.655303 -0.107114 0
M  V30 3173 H 307.998 -2.02364 0.301653 0
M  V30 3174 H 308.008 -3.86377 -1.31061 0
M  V30 3175 H 306.683 -4.1544 -0.195504 0
M  V30 3176 H 305.26 -3.26708 -1.79767 0
M  V30 3177 N 307.445 0.0818655 -1.57387 0
M  V30 3178 C 308.393 1.11712 -2.04018 0
M  V30 3179 C 309.387 1.40683 -0.94364 0
M  V30 3180 O 310.593 1.40209 -1.12878 0
M  V30 3181 H 306.968 0.377542 -0.650358 0
M  V30 3182 H 308.939 0.697614 -2.90131 0
M  V30 3183 C 307.688 2.42537 -2.49141 0
M  V30 3184 H 307.011 2.21092 -3.33104 0
M  V30 3185 H 308.451 3.13446 -2.85531 0
M  V30 3186 C 306.91 3.0778 -1.37014 0
M  V30 3187 O 307.44 3.95436 -0.706621 0
M  V30 3188 N 305.646 2.68242 -1.11779 0
M  V30 3189 H 305.193 1.97052 -1.65917 0
M  V30 3190 H 305.151 3.1222 -0.369594 0
M  V30 3191 N 308.923 1.53595 0.353017 0
M  V30 3192 C 310.2 1.61002 1.11075 0
M  V30 3193 C 310.58 0.425356 2.0677 0
M  V30 3194 O 309.928 -0.583267 2.2093 0
M  V30 3195 C 310.138 2.96631 1.83877 0
M  V30 3196 C 311.486 3.51653 2.37961 0
M  V30 3197 O 312.51 2.98743 1.93987 0
M  V30 3198 O 311.369 4.44177 3.18386 0
M  V30 3199 H 308.463 0.650825 0.510251 0
M  V30 3200 H 311.009 1.6594 0.35527 0
M  V30 3201 H 309.781 3.74293 1.14108 0
M  V30 3202 H 309.404 2.95242 2.66304 0
M  V30 3203 N 310.401 -0.613514 1.45168 0
M  V30 3204 C 311.641 -1.38405 1.5041 0
M  V30 3205 C 312.005 -1.91489 0.139922 0
M  V30 3206 O 313.206 -2.68716 0.067033 0
M  V30 3207 C 311.477 -2.50552 2.5487 0
M  V30 3208 S 313.036 -3.38439 2.79292 0
M  V30 3209 H 309.854 -0.471945 0.531779 0
M  V30 3210 H 312.456 -0.708518 1.82209 0
M  V30 3211 H 311.16 -2.09894 3.52665 0
M  V30 3212 H 310.691 -3.22913 2.24701 0
M  V30 3213 H 312.706 -4.48527 2.12222 0
M  V30 3214 N 311.879 -1.3236 -0.855495 0
M  V30 3215 C 312.789 -1.23221 -1.99634 0
M  V30 3216 C 313.805 -0.145983 -1.73387 0
M  V30 3217 O 314.981 -0.366502 -1.98037 0
M  V30 3218 C 312.046 -0.954782 -3.33294 0
M  V30 3219 C 311.107 -2.12937 -3.72769 0
M  V30 3220 C 310.34 -1.86508 -5.00051 0
M  V30 3221 O 310.563 -0.807231 -5.64659 0
M  V30 3222 O 309.497 -2.72591 -5.36636 0
M  V30 3223 H 313.323 -2.19126 -2.1028 0
M  V30 3224 H 310.908 -1.12241 -0.986018 0
M  V30 3225 H 312.79 -0.816519 -4.13414 0
M  V30 3226 H 311.465 -0.0258854 -3.2369 0
M  V30 3227 H 310.372 -2.3231 -2.93228 0
M  V30 3228 H 311.705 -3.04102 -3.87018 0
M  V30 3229 N 313.357 1.07166 -1.15556 0
M  V30 3230 C 314.603 1.80065 -0.932984 0
M  V30 3231 C 314.936 1.86586 0.53845 0
M  V30 3232 O 314.211 1.35098 1.39924 0
M  V30 3233 C 314.494 3.25022 -1.55025 0
M  V30 3234 C 314.347 3.26634 -3.09242 0
M  V30 3235 C 315.666 4.22341 -1.2376 0
M  V30 3236 H 312.785 0.653697 -0.340366 0
M  V30 3237 H 315.427 1.25389 -1.4275 0
M  V30 3238 H 313.577 3.71712 -1.12972 0
M  V30 3239 H 315.249 2.88173 -3.60214 0
M  V30 3240 H 313.492 2.65539 -3.43033 0
M  V30 3241 H 314.163 4.28854 -3.47546 0
M  V30 3242 H 316.639 3.8405 -1.60139 0
M  V30 3243 H 315.515 5.22053 -1.69564 0
M  V30 3244 H 315.776 4.41828 -0.154938 0
M  V30 3245 N 314.835 0.952656 1.25548 0
M  V30 3246 C 316.084 0.602053 1.92505 0
M  V30 3247 C 316.397 -0.864663 1.75451 0
M  V30 3248 O 317.603 -1.32514 2.36965 0
M  V30 3249 C 316.059 1.02607 3.44963 0
M  V30 3250 C 315.667 2.51519 3.70732 0
M  V30 3251 C 317.411 0.747905 4.1786 0
M  V30 3252 C 315.318 2.87732 5.16686 0
M  V30 3253 H 314.248 0.22146 0.720744 0
M  V30 3254 H 316.899 1.15684 1.42441 0
M  V30 3255 H 315.281 0.399712 3.93978 0
M  V30 3256 H 316.455 3.19157 3.32378 0
M  V30 3257 H 314.77 2.76786 3.11092 0
M  V30 3258 H 317.367 0.994647 5.25367 0
M  V30 3259 H 317.71 -0.315629 4.15102 0
M  V30 3260 H 318.243 1.33452 3.74747 0
M  V30 3261 H 314.982 3.93095 5.24554 0
M  V30 3262 H 314.502 2.24765 5.56094 0
M  V30 3263 H 316.181 2.76817 5.84792 0
M  V30 3264 N 316.313 -1.40141 0.720998 0
M  V30 3265 C 317.276 -2.29058 0.0805834 0
M  V30 3266 C 318.276 -1.45632 -0.681758 0
M  V30 3267 O 319.466 -1.6648 -0.512856 0
M  V30 3268 C 316.598 -3.28925 -0.895593 0
M  V30 3269 H 317.791 -2.87191 0.863793 0
M  V30 3270 H 315.344 -1.48553 0.485975 0
M  V30 3271 H 316.079 -2.75822 -1.70566 0
M  V30 3272 H 315.864 -3.90519 -0.351766 0
M  V30 3273 H 317.354 -3.95494 -1.34069 0
M  V30 3274 N 317.792 -0.46758 -1.50504 0
M  V30 3275 C 319.208 -0.121533 -1.59137 0
M  V30 3276 C 319.408 1.3717 -1.47603 0
M  V30 3277 O 318.464 2.14464 -1.33272 0
M  V30 3278 C 319.777 -0.6686 -2.93173 0
M  V30 3279 C 321.325 -0.631716 -3.06559 0
M  V30 3280 C 321.8 -1.15627 -4.43164 0
M  V30 3281 N 323.291 -1.11553 -4.49567 0
M  V30 3282 C 324.026 -1.49195 -5.5365 0
M  V30 3283 N 323.522 -1.94269 -6.65005 0
M  V30 3284 N 325.315 -1.4082 -5.44175 0
M  V30 3285 H 317.466 -1.4388 -1.56245 0
M  V30 3286 H 319.729 -0.594784 -0.738198 0
M  V30 3287 H 319.435 -1.71453 -3.07078 0
M  V30 3288 H 319.309 -0.11021 -3.77039 0
M  V30 3289 H 321.696 0.405297 -2.92304 0
M  V30 3290 H 321.777 -1.22687 -2.24458 0
M  V30 3291 H 321.421 -2.1919 -4.58168 0
M  V30 3292 H 321.351 -0.537365 -5.23851 0
M  V30 3293 H 323.842 -0.784895 -3.69659 0
M  V30 3294 H 324.155 -2.21148 -7.40482 0
M  V30 3295 H 322.5 -1.98219 -6.66134 0
M  V30 3296 H 325.691 -1.0545 -4.56068 0
M  V30 3297 H 325.864 -1.70481 -6.25172 0
M  V30 3298 N 319.27 1.56325 -0.20005 0
M  V30 3299 C 320.217 2.1932 0.718833 0
M  V30 3300 C 321.187 1.14198 1.20615 0
M  V30 3301 O 322.372 1.42469 1.26914 0
M  V30 3302 C 319.512 2.86041 1.93066 0
M  V30 3303 C 318.625 4.05702 1.48425 0
M  V30 3304 C 317.76 4.60266 2.65196 0
M  V30 3305 C 316.799 5.72273 2.17185 0
M  V30 3306 N 315.936 6.21221 3.27152 0
M  V30 3307 H 320.776 2.97486 0.17489 0
M  V30 3308 H 318.313 1.46911 0.0745794 0
M  V30 3309 H 320.271 3.22897 2.64184 0
M  V30 3310 H 318.901 2.1043 2.44783 0
M  V30 3311 H 317.953 3.74475 0.668755 0
M  V30 3312 H 319.265 4.86699 1.09204 0
M  V30 3313 H 318.419 4.99453 3.4443 0
M  V30 3314 H 317.158 3.78386 3.07693 0
M  V30 3315 H 316.163 5.3261 1.36407 0
M  V30 3316 H 317.388 6.55974 1.75713 0
M  V30 3317 H 315.334 5.42263 3.69171 0
M  V30 3318 H 315.251 6.97284 2.92116 0
M  V30 3319 H 316.519 6.65063 4.06585 0
M  V30 3320 N 320.748 -0.0735177 1.57428 0
M  V30 3321 C 322.164 -0.428264 1.53747 0
M  V30 3322 C 322.364 -1.79272 0.91998 0
M  V30 3323 O 321.42 -2.47051 0.521745 0
M  V30 3324 C 322.733 -0.370914 2.98404 0
M  V30 3325 C 324.281 -0.451224 3.0973 0
M  V30 3326 C 324.756 -0.4238 4.56035 0
M  V30 3327 N 326.247 -0.483925 4.60665 0
M  V30 3328 C 326.982 -0.484891 5.71346 0
M  V30 3329 N 326.478 -0.440775 6.91396 0
M  V30 3330 N 328.271 -0.531319 5.59583 0
M  V30 3331 H 320.422 0.819949 1.95935 0
M  V30 3332 H 322.685 0.307493 0.896745 0
M  V30 3333 H 322.391 0.564956 3.47133 0
M  V30 3334 H 322.265 -1.18176 3.5821 0
M  V30 3335 H 324.652 -1.37752 2.60976 0
M  V30 3336 H 324.733 0.388167 2.52838 0
M  V30 3337 H 324.377 0.498638 5.05446 0
M  V30 3338 H 324.307 -1.2807 5.10789 0
M  V30 3339 H 326.798 -0.522338 3.74273 0
M  V30 3340 H 327.111 -0.44539 7.71515 0
M  V30 3341 H 325.456 -0.40749 6.93804 0
M  V30 3342 H 328.647 -0.563464 4.64696 0
M  V30 3343 H 328.82 -0.528603 6.4584 0
M  V30 3344 N 322.226 -1.5378 -0.344866 0
M  V30 3345 C 323.473 -1.70963 -1.08526 0
M  V30 3346 C 323.801 -0.472126 -1.88683 0
M  V30 3347 O 323.056 0.546116 -1.87926 0
M  V30 3348 C 323.355 -2.92407 -2.05506 0
M  V30 3349 C 323.021 -4.28066 -1.41671 0
M  V30 3350 C 321.683 -4.64951 -1.2399 0
M  V30 3351 C 324.035 -5.12344 -0.956726 0
M  V30 3352 C 321.363 -5.83733 -0.589277 0
M  V30 3353 C 323.715 -6.3179 -0.320015 0
M  V30 3354 C 322.379 -6.67372 -0.130881 0
M  V30 3355 H 321.649 -0.625598 -0.397124 0
M  V30 3356 H 324.296 -1.87995 -0.36469 0
M  V30 3357 H 322.601 -2.69973 -2.8394 0
M  V30 3358 H 324.298 -3.02895 -2.62784 0
M  V30 3359 H 320.888 -3.99034 -1.56429 0
M  V30 3360 H 325.072 -4.8438 -1.08118 0
M  V30 3361 H 320.328 -6.09877 -0.431344 0
M  V30 3362 H 324.502 -6.96386 0.0445072 0
M  V30 3363 H 322.129 -7.59273 0.375318 0
M  V30 3364 N 323.704 0.605807 -1.45491 0
M  V30 3365 C 325.12 0.926751 -1.29936 0
M  V30 3366 C 325.32 1.99896 -0.253706 0
M  V30 3367 O 324.376 2.50038 0.351737 0
M  V30 3368 C 325.689 1.36599 -2.67883 0
M  V30 3369 C 327.237 1.4801 -2.75793 0
M  V30 3370 C 327.712 1.95309 -4.14268 0
M  V30 3371 N 329.203 2.0254 -4.16571 0
M  V30 3372 C 329.938 2.40363 -5.20589 0
M  V30 3373 N 329.434 2.77143 -6.34952 0
M  V30 3374 N 331.227 2.40718 -5.07948 0
M  V30 3375 H 323.378 -0.102862 -2.12151 0
M  V30 3376 H 325.641 0.016639 -0.947854 0
M  V30 3377 H 325.347 0.652306 -3.45598 0
M  V30 3378 H 325.221 2.33215 -2.96463 0
M  V30 3379 H 327.608 2.1847 -1.98381 0
M  V30 3380 H 327.689 0.497041 -2.50925 0
M  V30 3381 H 327.333 1.25436 -4.92167 0
M  V30 3382 H 327.263 2.94532 -4.3653 0
M  V30 3383 H 329.754 1.76699 -3.34045 0
M  V30 3384 H 330.067 3.0489 -7.10114 0
M  V30 3385 H 328.412 2.74834 -6.3835 0
M  V30 3386 H 331.603 2.11392 -4.1765 0
M  V30 3387 H 331.776 2.69869 -5.89131 0
M  V30 3388 N 325.182 1.32811 0.848464 0
M  V30 3389 C 326.092 1.24278 1.98978 0
M  V30 3390 C 327.108 0.155176 1.73307 0
M  V30 3391 O 328.284 0.376999 1.9784 0
M  V30 3392 C 325.349 0.972444 3.32783 0
M  V30 3393 C 324.41 2.14911 3.71634 0
M  V30 3394 C 323.643 1.89157 4.99054 0
M  V30 3395 O 323.866 0.837165 5.64223 0
M  V30 3396 O 322.8 2.75433 5.35183 0
M  V30 3397 H 326.626 2.20238 2.09115 0
M  V30 3398 H 324.211 1.12762 0.980052 0
M  V30 3399 H 326.093 0.838432 4.12975 0
M  V30 3400 H 324.768 0.043051 3.23671 0
M  V30 3401 H 323.675 2.33862 2.91992 0
M  V30 3402 H 325.008 3.06151 3.85399 0
M  V30 3403 N 326.66 -1.06551 1.16123 0
M  V30 3404 C 327.906 -1.79567 0.94252 0
M  V30 3405 C 328.239 -1.86869 -0.528547 0
M  V30 3406 O 327.514 -1.35838 -1.39206 0
M  V30 3407 C 327.797 -3.24195 1.56747 0
M  V30 3408 C 327.65 -3.24989 3.10969 0
M  V30 3409 C 328.969 -4.21678 1.25998 0
M  V30 3410 H 326.088 -0.651883 0.343828 0
M  V30 3411 H 328.73 -1.2463 1.43413 0
M  V30 3412 H 326.88 -3.71107 1.14942 0
M  V30 3413 H 328.552 -2.86258 3.61737 0
M  V30 3414 H 326.795 -2.63716 3.44436 0
M  V30 3415 H 327.466 -4.27005 3.49815 0
M  V30 3416 H 329.942 -3.83196 1.62174 0
M  V30 3417 H 328.818 -5.21146 1.7233 0
M  V30 3418 H 329.079 -4.4174 0.178367 0
M  V30 3419 N 328.138 -0.959301 -1.25041 0
M  V30 3420 C 329.415 -0.533805 -1.88175 0
M  V30 3421 C 329.795 0.988994 -1.865 0
M  V30 3422 O 329.143 1.85677 -1.33177 0
M  V30 3423 C 329.353 -1.11575 -3.30684 0
M  V30 3424 C 330.701 -1.19548 -4.07423 0
M  V30 3425 O 331.725 -1.06765 -3.39823 0
M  V30 3426 O 330.584 -1.39656 -5.28354 0
M  V30 3427 H 327.678 -0.176772 -0.807887 0
M  V30 3428 H 330.224 -1.05303 -1.33076 0
M  V30 3429 H 328.996 -2.15884 -3.26358 0
M  V30 3430 H 328.619 -0.580059 -3.93346 0
M  V30 3431 N 329.616 1.39756 -0.72842 0
M  V30 3432 C 330.579 2.29012 -0.0927297 0
M  V30 3433 C 331.579 1.45992 0.674025 0
M  V30 3434 O 332.769 1.66749 0.50402 0
M  V30 3435 C 329.901 3.29396 0.878137 0
M  V30 3436 H 331.094 2.86729 -0.879011 0
M  V30 3437 H 328.647 1.48293 -0.493847 0
M  V30 3438 H 329.382 2.76722 1.69101 0
M  V30 3439 H 329.167 3.907 0.331051 0
M  V30 3440 H 330.657 3.96199 1.3197 0
M  V30 3441 N 331.094 0.475555 1.50254 0
M  V30 3442 C 332.34 -0.0780073 2.0265 0
M  V30 3443 C 332.673 -1.38968 1.35652 0
M  V30 3444 O 331.948 -1.8839 0.483691 0
M  V30 3445 C 332.231 -0.257161 3.59181 0
M  V30 3446 C 332.084 1.07585 4.36744 0
M  V30 3447 C 333.403 -1.00965 4.28362 0
M  V30 3448 H 330.522 -0.0268758 0.73651 0
M  V30 3449 H 333.164 0.622015 1.7953 0
M  V30 3450 H 331.314 -0.853412 3.79011 0
M  V30 3451 H 332.986 1.70902 4.28474 0
M  V30 3452 H 331.229 1.6714 4.00308 0
M  V30 3453 H 331.9 0.904088 5.44546 0
M  V30 3454 H 334.376 -0.504214 4.13034 0
M  V30 3455 H 333.252 -1.10381 5.37687 0
M  V30 3456 H 333.513 -2.04731 3.91839 0
M  V30 3457 N 332.573 -1.56217 0.208337 0
M  V30 3458 C 333.503 -2.22694 -0.702116 0
M  V30 3459 C 334.484 -1.19432 -1.2112 0
M  V30 3460 O 335.669 -1.47978 -1.25762 0
M  V30 3461 C 332.799 -2.8966 -1.9161 0
M  V30 3462 C 331.753 -3.9928 -1.5414 0
M  V30 3463 C 331.079 -4.53476 -2.83308 0
M  V30 3464 C 332.379 -5.17012 -0.741339 0
M  V30 3465 H 334.073 -2.99034 -0.147898 0
M  V30 3466 H 331.619 -1.43831 -0.0696951 0
M  V30 3467 H 333.572 -3.34852 -2.55836 0
M  V30 3468 H 332.296 -2.10746 -2.49507 0
M  V30 3469 H 330.955 -3.54799 -0.922668 0
M  V30 3470 H 330.603 -3.71308 -3.39322 0
M  V30 3471 H 330.303 -5.27451 -2.58976 0
M  V30 3472 H 331.827 -5.01378 -3.485 0
M  V30 3473 H 333.241 -5.58667 -1.28699 0
M  V30 3474 H 331.638 -5.97137 -0.595627 0
M  V30 3475 H 332.708 -4.8423 0.254851 0
M  V30 3476 N 334.051 0.0651679 -1.57465 0
M  V30 3477 C 335.276 0.779605 -1.9219 0
M  V30 3478 C 335.701 1.69988 -0.805333 0
M  V30 3479 O 335.059 1.79685 0.241435 0
M  V30 3480 C 335.107 1.54364 -3.2589 0
M  V30 3481 O 334.211 2.65474 -3.1559 0
M  V30 3482 H 333.552 0.212249 -0.629163 0
M  V30 3483 H 336.082 0.0314294 -2.04576 0
M  V30 3484 H 336.092 1.92146 -3.59922 0
M  V30 3485 H 334.767 0.868457 -4.06732 0
M  V30 3486 H 333.344 2.30501 -2.93128 0
M  V30 3487 N 335.529 1.53961 0.336706 0
M  V30 3488 C 336.775 1.7273 1.07406 0
M  V30 3489 C 337.13 0.488095 1.86106 0
M  V30 3490 O 336.423 -0.519379 1.84426 0
M  V30 3491 C 336.617 2.93493 2.03953 0
M  V30 3492 C 336.446 4.29039 1.34744 0
M  V30 3493 C 335.216 4.93416 1.08942 0
M  V30 3494 C 337.414 5.08501 0.770115 0
M  V30 3495 N 335.396 6.12821 0.363864 0
M  V30 3496 C 336.767 6.19752 0.175472 0
M  V30 3497 C 338.822 4.93349 0.671633 0
M  V30 3498 C 337.525 7.17503 -0.508081 0
M  V30 3499 C 339.551 5.914 0.0018076 0
M  V30 3500 C 338.913 7.01993 -0.581835 0
M  V30 3501 H 335.012 0.685026 0.377177 0
M  V30 3502 H 337.596 1.91403 0.356815 0
M  V30 3503 H 335.767 2.76308 2.72962 0
M  V30 3504 H 337.499 3.00949 2.70577 0
M  V30 3505 H 334.254 4.53099 1.37833 0
M  V30 3506 H 334.678 6.76998 0.0156092 0
M  V30 3507 H 339.32 4.08007 1.1086 0
M  V30 3508 H 337.038 8.02414 -0.956918 0
M  V30 3509 H 340.624 5.81753 -0.0738538 0
M  V30 3510 H 339.504 7.76561 -1.09192 0
M  V30 3511 N 337.007 -0.598083 1.45811 0
M  V30 3512 C 337.937 -1.71873 1.58057 0
M  V30 3513 C 338.918 -1.64533 0.431615 0
M  V30 3514 O 340.103 -1.82787 0.65595 0
M  V30 3515 C 337.233 -3.10495 1.55597 0
M  V30 3516 C 336.187 -3.32654 2.69305 0
M  V30 3517 C 335.513 -4.71646 2.51902 0
M  V30 3518 C 336.813 -3.21981 4.11248 0
M  V30 3519 H 338.507 -1.61881 2.51863 0
M  V30 3520 H 336.053 -0.777372 1.21214 0
M  V30 3521 H 338.006 -3.88699 1.6276 0
M  V30 3522 H 336.73 -3.2135 0.583255 0
M  V30 3523 H 335.389 -2.56843 2.61586 0
M  V30 3524 H 335.037 -4.79246 1.52748 0
M  V30 3525 H 334.737 -4.87426 3.2816 0
M  V30 3526 H 336.261 -5.52038 2.60933 0
M  V30 3527 H 337.675 -3.90049 4.20161 0
M  V30 3528 H 336.072 -3.49289 4.87972 0
M  V30 3529 H 337.142 -2.1928 4.32486 0
M  V30 3530 N 338.485 -1.33259 -0.841409 0
M  V30 3531 C 339.415 -1.25926 -1.96634 0
M  V30 3532 C 340.396 -0.140349 -1.6952 0
M  V30 3533 O 341.581 -0.329707 -1.91381 0
M  V30 3534 C 338.711 -0.99512 -3.32738 0
M  V30 3535 C 337.665 -2.0767 -3.74242 0
M  V30 3536 C 336.991 -1.66474 -5.08125 0
M  V30 3537 C 338.291 -3.49318 -3.88297 0
M  V30 3538 H 339.985 -2.20046 -2.03027 0
M  V30 3539 H 337.531 -1.05931 -0.975425 0
M  V30 3540 H 339.484 -0.930323 -4.11002 0
M  V30 3541 H 338.208 -0.0183004 -3.26595 0
M  V30 3542 H 336.867 -2.13187 -2.98239 0
M  V30 3543 H 336.515 -0.675012 -4.9845 0
M  V30 3544 H 336.215 -2.3885 -5.36865 0
M  V30 3545 H 337.739 -1.61455 -5.88867 0
M  V30 3546 H 339.153 -3.46316 -4.56879 0
M  V30 3547 H 337.55 -4.20158 -4.28471 0
M  V30 3548 H 338.62 -3.8801 -2.9082 0
M  V30 3549 N 339.963 1.05934 -1.16686 0
M  V30 3550 C 340.873 2.17014 -0.891183 0
M  V30 3551 C 341.889 1.73453 0.137907 0
M  V30 3552 O 343.065 2.01361 -0.039592 0
M  V30 3553 C 340.13 3.44384 -0.400099 0
M  V30 3554 C 339.191 4.02433 -1.49486 0
M  V30 3555 C 338.424 5.23723 -1.02711 0
M  V30 3556 O 338.647 5.7027 0.121716 0
M  V30 3557 O 337.581 5.7382 -1.81699 0
M  V30 3558 H 341.407 2.43113 -1.82015 0
M  V30 3559 H 338.992 1.15541 -0.947132 0
M  V30 3560 H 340.874 4.21189 -0.133392 0
M  V30 3561 H 339.549 3.19802 0.500817 0
M  V30 3562 H 338.456 3.27102 -1.81535 0
M  V30 3563 H 339.789 4.31317 -2.37121 0
M  V30 3564 N 341.441 0.965919 1.2453 0
M  V30 3565 C 342.671 0.643451 1.96324 0
M  V30 3566 C 343.079 -0.790927 1.71875 0
M  V30 3567 O 342.422 -1.54208 0.998273 0
M  V30 3568 C 342.484 0.836078 3.49643 0
M  V30 3569 C 342.148 2.24975 3.97788 0
M  V30 3570 C 343.145 3.22735 4.07601 0
M  V30 3571 C 340.83 2.57697 4.31158 0
M  V30 3572 C 342.824 4.51303 4.50116 0
M  V30 3573 C 340.511 3.86492 4.73357 0
M  V30 3574 C 341.509 4.83107 4.828 0
M  V30 3575 O 341.197 6.09605 5.24058 0
M  V30 3576 H 340.929 0.239223 0.632257 0
M  V30 3577 H 343.483 1.29587 1.59362 0
M  V30 3578 H 341.713 0.12649 3.86493 0
M  V30 3579 H 343.402 0.512965 4.02646 0
M  V30 3580 H 344.168 2.98783 3.82039 0
M  V30 3581 H 340.047 1.83216 4.23028 0
M  V30 3582 H 343.591 5.26716 4.57401 0
M  V30 3583 H 339.488 4.10245 4.98366 0
M  V30 3584 H 340.256 6.13146 5.42213 0
M  V30 3585 N 342.919 -1.39368 0.735821 0
M  V30 3586 C 343.882 -2.2896 0.104874 0
M  V30 3587 C 344.882 -1.46347 -0.666274 0
M  V30 3588 O 346.072 -1.67014 -0.49517 0
M  V30 3589 C 343.204 -3.29857 -0.860656 0
M  V30 3590 H 344.397 -2.86259 0.894205 0
M  V30 3591 H 341.95 -1.48029 0.501704 0
M  V30 3592 H 342.685 -2.77615 -1.67631 0
M  V30 3593 H 342.47 -3.9087 -0.310327 0
M  V30 3594 H 343.96 -3.96893 -1.29867 0
M  V30 3595 N 344.397 -0.483516 -1.5 0
M  V30 3596 C 345.808 -0.0314176 -1.86674 0
M  V30 3597 C 346.159 1.37728 -1.39733 0
M  V30 3598 O 345.284 2.02327 -0.767635 0
M  V30 3599 C 345.879 -0.0502376 -3.38763 0
M  V30 3600 C 344.438 0.346442 -3.74802 0
M  V30 3601 C 343.585 -0.430366 -2.7394 0
M  V30 3602 H 346.536 -0.697182 -1.42566 0
M  V30 3603 H 346.557 0.749116 -3.73053 0
M  V30 3604 H 346.069 -1.07563 -3.72897 0
M  V30 3605 H 344.17 1.37572 -3.46273 0
M  V30 3606 H 344.283 0.0391486 -4.79084 0
M  V30 3607 H 342.647 0.117557 -2.54429 0
M  V30 3608 H 343.43 -1.4555 -3.10918 0
M  V30 3609 N 345.875 1.56104 -0.216619 0
M  V30 3610 C 347.1 2.0301 0.424462 0
M  V30 3611 C 347.525 1.0955 1.52907 0
M  V30 3612 O 346.883 0.0827914 1.81111 0
M  V30 3613 C 346.931 3.4819 0.937883 0
M  V30 3614 O 346.035 3.57865 2.04955 0
M  V30 3615 H 345.376 0.656925 0.0966755 0
M  V30 3616 H 347.906 2.01859 -0.33381 0
M  V30 3617 H 347.916 3.88413 1.24897 0
M  V30 3618 H 346.591 4.15699 0.129387 0
M  V30 3619 H 345.168 3.29527 1.74546 0
M  V30 3620 N 347.353 -0.0568162 1.57498 0
M  V30 3621 C 348.769 -0.411933 1.54192 0
M  V30 3622 C 348.969 -1.78287 0.938942 0
M  V30 3623 O 348.025 -2.46483 0.547919 0
M  V30 3624 C 349.338 -0.339244 2.9878 0
M  V30 3625 C 350.886 -0.418348 3.10192 0
M  V30 3626 C 351.361 -0.375407 4.56459 0
M  V30 3627 N 352.852 -0.435038 4.61153 0
M  V30 3628 C 353.587 -0.424265 5.71828 0
M  V30 3629 N 353.083 -0.367418 6.91825 0
M  V30 3630 N 354.876 -0.471938 5.60115 0
M  V30 3631 H 347.027 0.840684 1.95055 0
M  V30 3632 H 349.29 0.316987 0.893433 0
M  V30 3633 H 348.996 0.601742 3.46514 0
M  V30 3634 H 348.87 -1.14371 3.59443 0
M  V30 3635 H 351.257 -1.34976 2.62422 0
M  V30 3636 H 351.338 0.414962 2.52412 0
M  V30 3637 H 350.982 0.552219 5.04889 0
M  V30 3638 H 350.912 -1.22645 5.12119 0
M  V30 3639 H 353.403 -0.482612 3.74806 0
M  V30 3640 H 353.716 -0.363535 7.71944 0
M  V30 3641 H 352.061 -0.333879 6.94198 0
M  V30 3642 H 355.252 -0.514145 4.65268 0
M  V30 3643 H 355.425 -0.460073 6.46365 0
M  V30 3644 N 348.832 -1.54138 -0.328536 0
M  V30 3645 C 349.762 -1.86167 -1.40939 0
M  V30 3646 C 350.743 -0.718044 -1.54202 0
M  V30 3647 O 351.928 -0.971328 -1.68163 0
M  V30 3648 C 349.058 -2.08461 -2.77779 0
M  V30 3649 C 348.012 -3.24299 -2.7931 0
M  V30 3650 C 347.338 -3.31955 -4.19178 0
M  V30 3651 C 348.638 -4.62065 -2.43502 0
M  V30 3652 H 350.332 -2.76689 -1.14383 0
M  V30 3653 H 347.878 -1.33132 -0.548806 0
M  V30 3654 H 349.831 -2.29453 -3.53454 0
M  V30 3655 H 348.555 -1.14684 -3.05802 0
M  V30 3656 H 347.214 -3.03187 -2.0609 0
M  V30 3657 H 346.862 -2.35745 -4.44335 0
M  V30 3658 H 346.562 -4.09805 -4.2111 0
M  V30 3659 H 348.086 -3.55175 -4.96672 0
M  V30 3660 H 349.5 -4.8297 -3.08889 0
M  V30 3661 H 347.897 -5.42429 -2.56693 0
M  V30 3662 H 348.967 -4.64652 -1.38659 0
M  V30 3663 N 350.31 0.590341 -1.46126 0
M  V30 3664 C 351.538 1.37504 -1.54597 0
M  V30 3665 C 351.953 1.87897 -0.184447 0
M  V30 3666 O 351.31 1.63192 0.816984 0
M  V30 3667 C 351.361 2.56779 -2.54454 0
M  V30 3668 O 351.082 2.08476 -3.85317 0
M  V30 3669 C 352.583 3.49427 -2.72792 0
M  V30 3670 H 349.803 0.420325 -0.523037 0
M  V30 3671 H 352.347 0.718383 -1.91467 0
M  V30 3672 H 350.502 3.1845 -2.20609 0
M  V30 3673 H 350.916 2.86097 -4.396 0
M  V30 3674 H 352.39 4.29619 -3.466 0
M  V30 3675 H 352.867 4.00876 -1.79429 0
M  V30 3676 H 353.473 2.93598 -3.07702 0
M  V30 3677 N 351.788 1.33704 0.83433 0
M  V30 3678 C 353.036 1.25169 1.58673 0
M  V30 3679 C 353.357 -0.18127 1.94156 0
M  V30 3680 O 352.627 -1.11113 1.6134 0
M  V30 3681 H 351.207 0.4603 0.58833 0
M  V30 3682 H 353.869 1.67478 0.996847 0
M  V30 3683 H 352.965 1.84856 2.51465 0
M  V30 3684 N 353.266 -1.05314 1.17247 0
M  V30 3685 C 354.494 -1.81971 0.984593 0
M  V30 3686 C 354.909 -1.82929 -0.467166 0
M  V30 3687 O 354.266 -1.25564 -1.32438 0
M  V30 3688 C 354.317 -3.28143 1.51672 0
M  V30 3689 O 354.038 -3.27347 2.91163 0
M  V30 3690 C 355.539 -4.21493 1.37326 0
M  V30 3691 H 352.759 -0.573455 0.348411 0
M  V30 3692 H 355.303 -1.32808 1.55506 0
M  V30 3693 H 353.458 -3.74582 0.988302 0
M  V30 3694 H 353.872 -4.18824 3.15732 0
M  V30 3695 H 355.346 -5.22043 1.79375 0
M  V30 3696 H 355.823 -4.38031 0.320169 0
M  V30 3697 H 356.429 -3.80909 1.89178 0
M  V30 3698 N 354.744 -0.972509 -1.24016 0
M  V30 3699 C 355.992 -0.635776 -1.91839 0
M  V30 3700 C 356.313 0.832312 -1.76345 0
M  V30 3701 O 355.583 1.5946 -1.13795 0
M  V30 3702 H 354.163 -0.232157 -0.710009 0
M  V30 3703 H 356.825 -1.23462 -1.50809 0
M  V30 3704 H 355.921 -0.880545 -2.99421 0
M  V30 3705 N 356.222 1.38976 -0.743202 0
M  V30 3706 C 357.185 2.28901 -0.117014 0
M  V30 3707 C 358.185 1.46698 0.658503 0
M  V30 3708 O 359.375 1.67274 0.486305 0
M  V30 3709 C 356.507 3.30309 0.84315 0
M  V30 3710 H 357.7 2.8578 -0.909373 0
M  V30 3711 H 355.253 1.47761 -0.509547 0
M  V30 3712 H 355.988 2.785 1.66157 0
M  V30 3713 H 355.773 3.91029 0.289594 0
M  V30 3714 H 357.263 3.97577 1.2776 0
M  V30 3715 N 357.7 0.491464 1.49741 0
M  V30 3716 C 358.94 -0.0549118 2.04326 0
M  V30 3717 C 359.304 -1.35148 1.36378 0
M  V30 3718 O 360.505 -1.9815 1.81631 0
M  V30 3719 C 358.776 -0.213841 3.5676 0
M  V30 3720 S 360.335 -0.715839 4.32922 0
M  V30 3721 H 357.153 -0.00630513 0.710972 0
M  V30 3722 H 359.755 0.663257 1.83905 0
M  V30 3723 H 358.459 0.73527 4.0376 0
M  V30 3724 H 357.99 -0.957529 3.81569 0
M  V30 3725 H 360.005 -1.9864 4.54705 0
M  V30 3726 N 359.178 -1.55987 0.224894 0
M  V30 3727 C 360.424 -1.98684 -0.406502 0
M  V30 3728 C 360.757 -1.11248 -1.59177 0
M  V30 3729 O 360.032 -0.170909 -1.93748 0
M  V30 3730 C 360.315 -3.50218 -0.837808 0
M  V30 3731 C 360.168 -4.48426 0.351332 0
M  V30 3732 C 361.487 -4.06243 -1.69278 0
M  V30 3733 H 358.606 -0.722337 -0.146283 0
M  V30 3734 H 361.248 -1.87255 0.321799 0
M  V30 3735 H 359.398 -3.60089 -1.45837 0
M  V30 3736 H 361.07 -4.50562 0.989526 0
M  V30 3737 H 359.313 -4.22159 0.998207 0
M  V30 3738 H 359.984 -5.52 0.00655905 0
M  V30 3739 H 362.46 -3.99337 -1.16914 0
M  V30 3740 H 361.336 -5.12581 -1.96346 0
M  V30 3741 H 361.597 -3.53332 -2.65723 0
M  V30 3742 N 360.656 0.0484629 -1.57525 0
M  V30 3743 C 361.903 0.743125 -1.88372 0
M  V30 3744 C 362.231 1.76383 -0.819715 0
M  V30 3745 O 361.486 1.94855 0.181659 0
M  V30 3746 C 361.785 1.46632 -3.25935 0
M  V30 3747 C 361.451 0.583427 -4.4711 0
M  V30 3748 C 360.113 0.340191 -4.79996 0
M  V30 3749 C 362.465 -0.0273345 -5.21193 0
M  V30 3750 C 359.793 -0.522903 -5.84365 0
M  V30 3751 C 362.145 -0.878017 -6.26477 0
M  V30 3752 C 360.809 -1.1309 -6.5785 0
M  V30 3753 H 360.079 0.271929 -0.689301 0
M  V30 3754 H 362.726 0.00336166 -1.915 0
M  V30 3755 H 361.031 2.2789 -3.18706 0
M  V30 3756 H 362.728 2.00902 -3.47044 0
M  V30 3757 H 359.318 0.783151 -4.21384 0
M  V30 3758 H 363.502 0.147654 -4.9608 0
M  V30 3759 H 358.758 -0.727335 -6.07058 0
M  V30 3760 H 362.932 -1.35789 -6.83033 0
M  V30 3761 H 360.559 -1.80144 -7.38547 0
M  V30 3762 N 362.134 1.5431 0.320358 0
M  V30 3763 C 363.097 1.83195 1.3774 0
M  V30 3764 C 364.097 0.703906 1.44575 0
M  V30 3765 O 365.287 0.972214 1.44546 0
M  V30 3766 C 362.419 1.99487 2.76438 0
M  V30 3767 H 363.612 2.77642 1.1338 0
M  V30 3768 H 361.165 1.46076 0.556012 0
M  V30 3769 H 361.9 1.07262 3.06048 0
M  V30 3770 H 361.685 2.81575 2.7287 0
M  V30 3771 H 363.175 2.23271 3.52902 0
M  V30 3772 N 363.613 -0.582584 1.46437 0
M  V30 3773 C 364.523 -1.71949 1.59595 0
M  V30 3774 C 365.539 -1.67264 0.479443 0
M  V30 3775 O 366.715 -1.87171 0.743579 0
M  V30 3776 C 363.78 -3.08452 1.58298 0
M  V30 3777 C 362.841 -3.244 2.81182 0
M  V30 3778 C 362.074 -4.54391 2.79937 0
M  V30 3779 O 362.297 -5.38287 1.8869 0
M  V30 3780 O 361.231 -4.73588 3.71481 0
M  V30 3781 H 365.057 -1.63795 2.55744 0
M  V30 3782 H 362.642 -0.749643 1.29231 0
M  V30 3783 H 364.524 -3.89732 1.60271 0
M  V30 3784 H 363.199 -3.17043 0.653094 0
M  V30 3785 H 362.106 -2.42613 2.84763 0
M  V30 3786 H 363.439 -3.20699 3.7338 0
M  V30 3787 N 365.091 -1.34144 -0.827227 0
M  V30 3788 C 366.338 -1.26258 -1.58319 0
M  V30 3789 C 366.666 0.168595 -1.93768 0
M  V30 3790 O 365.921 1.12877 -1.59866 0
M  V30 3791 C 366.22 -2.09464 -2.89585 0
M  V30 3792 C 365.886 -3.58521 -2.73448 0
M  V30 3793 C 364.548 -3.99155 -2.68754 0
M  V30 3794 C 366.9 -4.53189 -2.57428 0
M  V30 3795 C 364.228 -5.32656 -2.45957 0
M  V30 3796 C 366.58 -5.86864 -2.36163 0
M  V30 3797 C 365.244 -6.26667 -2.29879 0
M  V30 3798 H 364.514 -0.462013 -0.579332 0
M  V30 3799 H 367.161 -1.65845 -0.95748 0
M  V30 3800 H 365.466 -1.62692 -3.56425 0
M  V30 3801 H 367.163 -2.00712 -3.47154 0
M  V30 3802 H 363.753 -3.26264 -2.77939 0
M  V30 3803 H 367.937 -4.22696 -2.60081 0
M  V30 3804 H 363.193 -5.62519 -2.39546 0
M  V30 3805 H 367.367 -6.59813 -2.22754 0
M  V30 3806 H 364.994 -7.30049 -2.11975 0
M  V30 3807 N 366.569 1.04691 -1.17803 0
M  V30 3808 C 367.846 1.7472 -0.879328 0
M  V30 3809 C 368.226 2.01812 0.619271 0
M  V30 3810 O 367.574 1.65824 1.57209 0
M  V30 3811 C 367.784 3.03686 -1.71976 0
M  V30 3812 C 369.132 3.77542 -1.94286 0
M  V30 3813 O 370.156 3.13569 -1.68976 0
M  V30 3814 O 369.015 4.92506 -2.36855 0
M  V30 3815 H 366.109 0.760011 -0.326056 0
M  V30 3816 H 368.655 1.10813 -1.28525 0
M  V30 3817 H 367.427 2.79754 -2.73594 0
M  V30 3818 H 367.05 3.75332 -1.31194 0
M  V30 3819 N 368.047 0.979072 1.23499 0
M  V30 3820 C 369.275 0.665202 1.95915 0
M  V30 3821 C 369.69 -0.767571 1.72493 0
M  V30 3822 O 369.047 -1.51635 1.01554 0
M  V30 3823 C 369.098 0.944438 3.48945 0
M  V30 3824 O 368.819 2.3209 3.71572 0
M  V30 3825 C 370.32 0.646336 4.38563 0
M  V30 3826 H 367.54 0.247218 0.623798 0
M  V30 3827 H 370.084 1.31009 1.57025 0
M  V30 3828 H 368.239 0.345575 3.85856 0
M  V30 3829 H 368.653 2.40957 4.65876 0
M  V30 3830 H 370.127 0.892091 5.44744 0
M  V30 3831 H 370.604 -0.419575 4.37191 0
M  V30 3832 H 371.21 1.22562 4.07258 0
M  V30 3833 N 369.525 -1.3858 0.750561 0
M  V30 3834 C 370.435 -2.34278 0.122825 0
M  V30 3835 C 371.451 -1.59116 -0.704131 0
M  V30 3836 O 372.627 -1.91326 -0.628987 0
M  V30 3837 C 369.692 -3.38221 -0.762086 0
M  V30 3838 C 368.753 -4.29227 0.078896 0
M  V30 3839 C 367.986 -5.28205 -0.763874 0
M  V30 3840 O 368.209 -5.34112 -2.00201 0
M  V30 3841 O 367.143 -6.01618 -0.18428 0
M  V30 3842 H 370.969 -2.89649 0.913088 0
M  V30 3843 H 368.554 -1.40374 0.511417 0
M  V30 3844 H 370.436 -4.01872 -1.26793 0
M  V30 3845 H 369.111 -2.85211 -1.5309 0
M  V30 3846 H 368.018 -3.68747 0.630621 0
M  V30 3847 H 369.351 -4.85484 0.810289 0
M  V30 3848 N 371.003 -0.499398 -1.49478 0
M  V30 3849 C 372.228 0.044722 -2.07352 0
M  V30 3850 C 372.653 1.30207 -1.35749 0
M  V30 3851 O 372.011 1.76516 -0.413732 0
M  V30 3852 C 372.059 0.283013 -3.59488 0
M  V30 3853 O 371.163 1.35804 -3.89398 0
M  V30 3854 H 370.504 -0.0255147 -0.66351 0
M  V30 3855 H 373.034 -0.698561 -1.92305 0
M  V30 3856 H 373.044 0.515007 -4.04737 0
M  V30 3857 H 371.719 -0.635636 -4.11014 0
M  V30 3858 H 370.296 1.11113 -3.55961 0
M  V30 3859 N 372.481 1.55866 -0.233164 0
M  V30 3860 C 373.391 2.24431 0.683217 0
M  V30 3861 C 374.407 1.2558 1.2044 0
M  V30 3862 O 375.583 1.58422 1.24356 0
M  V30 3863 C 372.648 2.91979 1.86947 0
M  V30 3864 C 371.709 4.06204 1.38912 0
M  V30 3865 C 370.942 4.70522 2.51883 0
M  V30 3866 O 371.165 4.33865 3.70293 0
M  V30 3867 O 370.099 5.59296 2.22423 0
M  V30 3868 H 373.925 3.03426 0.129059 0
M  V30 3869 H 371.51 1.494 -0.0022283 0
M  V30 3870 H 373.392 3.34573 2.56201 0
M  V30 3871 H 372.067 2.15935 2.41151 0
M  V30 3872 H 370.974 3.68155 0.664259 0
M  V30 3873 H 372.307 4.84025 0.893328 0
M  V30 3874 N 373.959 -0.0401083 1.57549 0
M  V30 3875 C 374.922 -1.02871 2.04817 0
M  V30 3876 C 375.922 -1.29708 0.950388 0
M  V30 3877 O 377.112 -1.24897 1.21435 0
M  V30 3878 C 374.244 -2.36443 2.45576 0
M  V30 3879 H 375.437 -0.620631 2.93408 0
M  V30 3880 H 372.99 -0.286667 1.53649 0
M  V30 3881 H 373.725 -2.82021 1.60108 0
M  V30 3882 H 373.51 -2.18296 3.25713 0
M  V30 3883 H 375 -3.07441 2.82612 0
M  V30 3884 N 375.437 -1.54477 -0.31217 0
M  V30 3885 C 376.853 -1.45442 -0.657185 0
M  V30 3886 C 377.053 -0.63653 -1.91182 0
M  V30 3887 O 376.109 -0.139815 -2.52113 0
M  V30 3888 C 377.422 -2.89287 -0.82058 0
M  V30 3889 C 378.97 -2.9926 -0.917188 0
M  V30 3890 C 379.445 -4.44279 -1.11267 0
M  V30 3891 N 380.936 -4.4794 -1.17914 0
M  V30 3892 C 381.671 -5.57318 -1.34848 0
M  V30 3893 N 381.167 -6.76642 -1.48752 0
M  V30 3894 N 382.96 -5.44986 -1.37647 0
M  V30 3895 H 375.111 -2.06129 0.512313 0
M  V30 3896 H 377.374 -0.933088 0.167485 0
M  V30 3897 H 377.08 -3.51687 0.0302604 0
M  V30 3898 H 376.954 -3.36061 -1.71298 0
M  V30 3899 H 379.341 -2.36981 -1.75852 0
M  V30 3900 H 379.422 -2.558 -0.00101257 0
M  V30 3901 H 379.066 -5.07149 -0.27614 0
M  V30 3902 H 378.996 -4.85359 -2.04289 0
M  V30 3903 H 381.487 -3.61969 -1.08567 0
M  V30 3904 H 381.8 -7.55758 -1.61397 0
M  V30 3905 H 380.145 -6.79529 -1.45828 0
M  V30 3906 H 383.336 -4.50715 -1.26388 0
M  V30 3907 H 383.509 -6.3028 -1.50501 0
M  V30 3908 N 376.915 0.57481 -1.46744 0
M  V30 3909 C 377.847 1.69804 -1.53946 0
M  V30 3910 C 378.86 1.57098 -0.427106 0
M  V30 3911 O 380.049 1.64378 -0.695863 0
M  V30 3912 C 377.149 3.08125 -1.4111 0
M  V30 3913 C 376.322 3.46757 -2.66605 0
M  V30 3914 C 375.381 4.6417 -2.47855 0
M  V30 3915 O 374.407 4.69634 -3.21609 0
M  V30 3916 N 375.609 5.59553 -1.54534 0
M  V30 3917 H 378.374 1.64077 -2.50796 0
M  V30 3918 H 375.935 0.761 -1.429 0
M  V30 3919 H 377.927 3.84478 -1.26328 0
M  V30 3920 H 376.497 3.08175 -0.524109 0
M  V30 3921 H 375.717 2.6003 -2.96274 0
M  V30 3922 H 377.005 3.69337 -3.49954 0
M  V30 3923 H 376.403 5.57881 -0.937304 0
M  V30 3924 H 374.96 6.35304 -1.45711 0
M  V30 3925 N 378.394 1.34581 0.820102 0
M  V30 3926 C 379.64 1.27285 1.57881 0
M  V30 3927 C 379.973 -0.156137 1.93571 0
M  V30 3928 O 379.248 -1.10222 1.60254 0
M  V30 3929 C 379.531 2.16639 2.87645 0
M  V30 3930 C 379.384 3.68088 2.58517 0
M  V30 3931 C 380.703 2.05378 3.8924 0
M  V30 3932 H 377.822 0.463714 0.572833 0
M  V30 3933 H 380.464 1.64859 0.944539 0
M  V30 3934 H 378.614 1.84725 3.41773 0
M  V30 3935 H 380.286 4.10382 2.10676 0
M  V30 3936 H 378.529 3.89038 1.91917 0
M  V30 3937 H 379.2 4.2598 3.51063 0
M  V30 3938 H 381.676 2.33404 3.44473 0
M  V30 3939 H 380.552 2.7012 4.77835 0
M  V30 3940 H 380.813 1.0316 4.29896 0
M  V30 3941 N 379.872 -1.04064 1.18357 0
M  V30 3942 C 380.802 -2.14001 0.934113 0
M  V30 3943 C 381.783 -1.69616 -0.128186 0
M  V30 3944 O 382.968 -1.94185 0.0244093 0
M  V30 3945 C 380.098 -3.44253 0.459066 0
M  V30 3946 C 379.052 -4.02261 1.46185 0
M  V30 3947 C 378.378 -5.27992 0.844322 0
M  V30 3948 C 379.678 -4.38432 2.83856 0
M  V30 3949 H 381.372 -2.35127 1.85352 0
M  V30 3950 H 378.918 -1.12998 0.892604 0
M  V30 3951 H 380.871 -4.20522 0.271907 0
M  V30 3952 H 379.595 -3.22813 -0.495912 0
M  V30 3953 H 378.254 -3.28074 1.63595 0
M  V30 3954 H 377.902 -5.02862 -0.117845 0
M  V30 3955 H 377.602 -5.67765 1.51384 0
M  V30 3956 H 379.126 -6.06938 0.667693 0
M  V30 3957 H 380.54 -5.05688 2.70098 0
M  V30 3958 H 378.937 -4.89254 3.47491 0
M  V30 3959 H 380.007 -3.4826 3.37406 0
M  V30 3960 N 381.35 -0.985608 -1.22978 0
M  V30 3961 C 382.26 -0.538548 -2.28335 0
M  V30 3962 C 383.276 0.409163 -1.69121 0
M  V30 3963 O 384.452 0.277797 -1.99475 0
M  V30 3964 C 381.517 0.146867 -3.46389 0
M  V30 3965 C 380.578 -0.842896 -4.20944 0
M  V30 3966 C 379.811 -0.190095 -5.33361 0
M  V30 3967 O 380.034 1.01767 -5.61248 0
M  V30 3968 O 378.968 -0.891289 -5.95264 0
M  V30 3969 H 382.794 -1.41487 -2.68729 0
M  V30 3970 H 380.379 -0.753495 -1.29007 0
M  V30 3971 H 382.261 0.531125 -4.1804 0
M  V30 3972 H 380.936 0.997871 -3.07935 0
M  V30 3973 H 379.843 -1.27795 -3.51595 0
M  V30 3974 H 381.176 -1.66287 -4.6326 0
M  V30 3975 N 382.828 1.3818 -0.7579 0
M  V30 3976 C 383.76 2.2901 -0.0932177 0
M  V30 3977 C 384.773 1.47958 0.679136 0
M  V30 3978 O 385.962 1.70773 0.519514 0
M  V30 3979 C 383.062 3.26953 0.89192 0
M  V30 3980 C 382.235 4.37045 0.176303 0
M  V30 3981 C 381.294 5.15148 1.07281 0
M  V30 3982 O 380.32 5.66616 0.541728 0
M  V30 3983 N 381.522 5.28542 2.40049 0
M  V30 3984 H 384.287 2.86694 -0.873303 0
M  V30 3985 H 381.848 1.50007 -0.609054 0
M  V30 3986 H 383.84 3.76083 1.49479 0
M  V30 3987 H 382.41 2.70136 1.57306 0
M  V30 3988 H 381.63 3.89493 -0.607328 0
M  V30 3989 H 382.918 5.07801 -0.318718 0
M  V30 3990 H 382.316 4.88285 2.85647 0
M  V30 3991 H 380.873 5.8103 2.95376 0
M  V30 3992 N 384.306 0.507319 1.49211 0
M  V30 3993 C 385.269 -0.256763 2.27757 0
M  V30 3994 C 386.269 -0.888287 1.34038 0
M  V30 3995 O 387.459 -0.751841 1.5714 0
M  V30 3996 C 384.591 -1.36905 3.12202 0
M  V30 3997 H 385.784 0.432557 2.96764 0
M  V30 3998 H 383.337 0.262488 1.5408 0
M  V30 3999 H 384.072 -2.09233 2.47775 0
M  V30 4000 H 383.857 -0.921599 3.81115 0
M  V30 4001 H 385.347 -1.9071 3.7151 0
M  V30 4002 N 385.784 -1.5574 0.241426 0
M  V30 4003 C 387.195 -1.84842 -0.262755 0
M  V30 4004 C 387.546 -1.16317 -1.58003 0
M  V30 4005 O 386.671 -0.439653 -2.11887 0
M  V30 4006 C 387.266 -3.35332 -0.483523 0
M  V30 4007 C 385.825 -3.6468 -0.931977 0
M  V30 4008 C 384.972 -2.77299 -0.0061151 0
M  V30 4009 H 387.923 -1.51761 0.464129 0
M  V30 4010 H 387.944 -3.56615 -1.32688 0
M  V30 4011 H 387.456 -3.85178 0.47537 0
M  V30 4012 H 385.557 -3.20307 -1.90353 0
M  V30 4013 H 385.67 -4.72498 -0.792628 0
M  V30 4014 H 384.034 -2.49408 -0.516503 0
M  V30 4015 H 384.817 -3.2995 0.948052 0
M  V30 4016 N 387.262 0.0317525 -1.57568 0
M  V30 4017 C 388.172 1.05021 -2.0978 0
M  V30 4018 C 389.188 1.39809 -1.03583 0
M  V30 4019 O 390.364 1.49182 -1.35302 0
M  V30 4020 C 387.429 2.33301 -2.56459 0
M  V30 4021 C 386.49 2.0512 -3.77127 0
M  V30 4022 C 385.723 3.27283 -4.2157 0
M  V30 4023 O 385.946 4.37861 -3.65559 0
M  V30 4024 O 384.88 3.13141 -5.14029 0
M  V30 4025 H 388.706 0.636505 -2.96955 0
M  V30 4026 H 386.291 0.248559 -1.47318 0
M  V30 4027 H 388.173 3.08722 -2.86825 0
M  V30 4028 H 386.848 2.73973 -1.72397 0
M  V30 4029 H 385.755 1.27276 -3.51784 0
M  V30 4030 H 387.088 1.69305 -4.62165 0
M  V30 4031 N 388.74 1.54641 0.303973 0
M  V30 4032 C 389.986 1.74969 1.03718 0
M  V30 4033 C 390.341 0.527461 1.85029 0
M  V30 4034 O 389.634 -0.480143 1.85486 0
M  V30 4035 C 389.828 2.97753 1.97681 0
M  V30 4036 C 389.657 4.318 1.25613 0
M  V30 4037 C 388.427 4.95616 0.984518 0
M  V30 4038 C 390.625 5.10021 0.662081 0
M  V30 4039 N 388.607 6.13455 0.233794 0
M  V30 4040 C 389.978 6.19984 0.0439736 0
M  V30 4041 C 392.033 4.94663 0.566835 0
M  V30 4042 C 390.736 7.16264 -0.66016 0
M  V30 4043 C 392.762 5.91271 -0.123637 0
M  V30 4044 C 392.124 7.00601 -0.730608 0
M  V30 4045 H 388.223 0.692873 0.362562 0
M  V30 4046 H 390.807 1.92116 0.316135 0
M  V30 4047 H 388.978 2.82036 2.6704 0
M  V30 4048 H 390.71 3.06621 2.64132 0
M  V30 4049 H 387.465 4.55921 1.28191 0
M  V30 4050 H 387.889 6.76879 -0.127996 0
M  V30 4051 H 392.531 4.10267 1.02181 0
M  V30 4052 H 390.249 8.00204 -1.12691 0
M  V30 4053 H 393.835 5.81466 -0.197236 0
M  V30 4054 H 392.715 7.7407 -1.2564 0
M  V30 4055 N 390.218 -0.567019 1.47046 0
M  V30 4056 C 391.148 -1.68482 1.61667 0
M  V30 4057 C 392.129 -1.6358 0.466418 0
M  V30 4058 O 393.314 -1.81354 0.694574 0
M  V30 4059 C 390.444 -3.07124 1.62148 0
M  V30 4060 C 389.398 -3.26867 2.76301 0
M  V30 4061 C 388.724 -4.66196 2.61849 0
M  V30 4062 C 390.024 -3.13186 4.17986 0
M  V30 4063 H 391.718 -1.56502 2.5524 0
M  V30 4064 H 389.264 -0.751486 1.22836 0
M  V30 4065 H 391.217 -3.8516 1.70968 0
M  V30 4066 H 389.941 -3.2004 0.651287 0
M  V30 4067 H 388.6 -2.51237 2.66975 0
M  V30 4068 H 388.248 -4.75898 1.62879 0
M  V30 4069 H 387.948 -4.80356 3.38425 0
M  V30 4070 H 389.472 -5.46379 2.72584 0
M  V30 4071 H 390.886 -3.81049 4.2834 0
M  V30 4072 H 389.283 -3.3886 4.95272 0
M  V30 4073 H 390.353 -2.10057 4.3704 0
M  V30 4074 N 391.696 -1.35014 -0.812953 0
M  V30 4075 C 392.644 -1.27435 -1.94585 0
M  V30 4076 C 393.638 -0.170494 -1.6854 0
M  V30 4077 O 394.844 -0.336085 -1.76835 0
M  V30 4078 H 391.219 -0.396144 -0.639198 0
M  V30 4079 H 393.19 -2.23158 -1.98098 0
M  V30 4080 C 391.939 -1.05677 -3.31252 0
M  V30 4081 H 391.262 -1.89853 -3.51846 0
M  V30 4082 H 392.702 -1.04413 -4.10943 0
M  V30 4083 C 391.161 0.239615 -3.36047 0
M  V30 4084 O 391.691 1.23759 -3.8216 0
M  V30 4085 N 389.897 0.276186 -2.89285 0
M  V30 4086 H 389.444 -0.53653 -2.51951 0
M  V30 4087 H 389.402 1.14332 -2.92875 0
M  V30 4088 N 393.175 1.03435 -1.18907 0
M  V30 4089 C 394.423 1.76394 -0.986382 0
M  V30 4090 C 394.744 1.88883 0.484567 0
M  V30 4091 O 394.014 1.41843 1.3512 0
M  V30 4092 H 392.594 0.65344 -0.361975 0
M  V30 4093 H 395.256 1.248 -1.49703 0
M  V30 4094 H 394.352 2.77424 -1.42978 0
M  V30 4095 N 394.653 0.992116 1.22453 0
M  V30 4096 C 395.9 0.667534 1.91181 0
M  V30 4097 C 396.228 -0.800317 1.77271 0
M  V30 4098 O 395.483 -1.59421 1.13505 0
M  V30 4099 C 395.782 1.01832 3.42586 0
M  V30 4100 C 395.448 2.47831 3.76684 0
M  V30 4101 C 394.11 2.87729 3.85701 0
M  V30 4102 C 396.462 3.42466 3.92895 0
M  V30 4103 C 393.79 4.21252 4.08367 0
M  V30 4104 C 396.142 4.75648 4.17064 0
M  V30 4105 C 394.806 5.15288 4.24305 0
M  V30 4106 H 394.076 0.244268 0.699581 0
M  V30 4107 H 396.723 1.24816 1.45235 0
M  V30 4108 H 395.028 0.355769 3.90181 0
M  V30 4109 H 396.725 0.745228 3.94014 0
M  V30 4110 H 393.315 2.15905 3.70247 0
M  V30 4111 H 397.499 3.12814 3.85307 0
M  V30 4112 H 392.755 4.51554 4.122 0
M  V30 4113 H 396.929 5.48924 4.2855 0
M  V30 4114 H 394.556 6.18769 4.41621 0
M  V30 4115 N 396.131 -1.37776 0.765217 0
M  V30 4116 C 397.377 -2.00145 0.327072 0
M  V30 4117 C 397.71 -1.60607 -1.09175 0
M  V30 4118 O 396.985 -0.849127 -1.74986 0
M  V30 4119 C 397.268 -3.57109 0.46319 0
M  V30 4120 C 397.121 -4.06576 1.92395 0
M  V30 4121 C 398.44 -4.39888 -0.136473 0
M  V30 4122 H 395.559 -0.727113 0.120316 0
M  V30 4123 H 398.201 -1.63549 0.967039 0
M  V30 4124 H 396.351 -3.88414 -0.0816358 0
M  V30 4125 H 398.023 -3.85864 2.52798 0
M  V30 4126 H 396.266 -3.59011 2.43503 0
M  V30 4127 H 396.937 -5.15639 1.97028 0
M  V30 4128 H 399.413 -4.14803 0.328317 0
M  V30 4129 H 398.289 -5.48899 -0.0110582 0
M  V30 4130 H 398.55 -4.24758 -1.22608 0
M  V30 4131 N 397.609 -0.515225 -1.4894 0
M  V30 4132 C 398.572 0.244681 -2.2789 0
M  V30 4133 C 399.572 0.881166 -1.34507 0
M  V30 4134 O 400.762 0.743497 -1.57537 0
M  V30 4135 C 397.894 1.35247 -3.12923 0
M  V30 4136 H 399.087 -0.448289 -2.96531 0
M  V30 4137 H 396.64 -0.270656 -1.53939 0
M  V30 4138 H 397.375 2.07916 -2.48881 0
M  V30 4139 H 397.16 0.901374 -3.81599 0
M  V30 4140 H 398.65 1.88737 -3.72516 0
M  V30 4141 N 399.087 1.5561 -0.249682 0
M  V30 4142 C 400.034 2.21496 0.648694 0
M  V30 4143 C 401.004 1.17977 1.16921 0
M  V30 4144 O 402.189 1.46434 1.22318 0
M  V30 4145 C 399.329 2.92039 1.83868 0
M  V30 4146 C 398.442 4.10219 1.35442 0
M  V30 4147 C 397.577 4.6847 2.50419 0
M  V30 4148 C 396.616 5.78893 1.98869 0
M  V30 4149 N 395.753 6.31315 3.07223 0
M  V30 4150 H 400.593 2.97892 0.0801582 0
M  V30 4151 H 398.13 1.47074 0.0278031 0
M  V30 4152 H 400.088 3.31138 2.53778 0
M  V30 4153 H 398.718 2.18111 2.37965 0
M  V30 4154 H 397.77 3.76413 0.54928 0
M  V30 4155 H 399.082 4.89927 0.936649 0
M  V30 4156 H 398.236 5.10158 3.28366 0
M  V30 4157 H 396.975 3.87984 2.95499 0
M  V30 4158 H 395.98 5.3668 1.19393 0
M  V30 4159 H 397.205 6.61232 1.54755 0
M  V30 4160 H 395.151 5.53733 3.51732 0
M  V30 4161 H 395.068 7.06224 2.69784 0
M  V30 4162 H 396.336 6.77662 3.8522 0
M  V30 4163 N 400.565 -0.0233959 1.57583 0
M  V30 4164 C 401.813 -0.711654 1.89156 0
M  V30 4165 C 402.134 -1.75591 0.848096 0
M  V30 4166 O 401.404 -1.95547 -0.117566 0
M  V30 4167 H 399.984 -0.265835 0.698098 0
M  V30 4168 H 402.646 0.0119948 1.94896 0
M  V30 4169 H 401.742 -1.19766 2.88206 0
M  V30 4170 N 402.043 -1.548 -0.295768 0
M  V30 4171 C 403.289 -1.74588 -1.03184 0
M  V30 4172 C 403.622 -0.532962 -1.86744 0
M  V30 4173 O 402.897 0.469872 -1.88739 0
M  V30 4174 C 403.18 -3.03791 -1.93347 0
M  V30 4175 C 403.033 -4.35392 -1.12933 0
M  V30 4176 C 404.352 -3.28892 -2.92435 0
M  V30 4177 H 401.471 -0.635221 -0.373715 0
M  V30 4178 H 404.113 -1.87519 -0.30606 0
M  V30 4179 H 402.263 -2.92898 -2.55232 0
M  V30 4180 H 403.935 -4.58211 -0.532943 0
M  V30 4181 H 402.178 -4.31642 -0.432168 0
M  V30 4182 H 402.849 -5.22074 -1.79284 0
M  V30 4183 H 405.325 -3.39429 -2.4068 0
M  V30 4184 H 404.201 -4.20603 -3.52682 0
M  V30 4185 H 404.462 -2.47437 -3.6637 0
M  V30 4186 N 403.521 0.559213 -1.47345 0
M  V30 4187 C 404.469 1.68747 -1.60085 0
M  V30 4188 C 405.463 1.628 -0.46825 0
M  V30 4189 O 406.669 1.68009 -0.645977 0
M  V30 4190 H 403.044 0.558329 -0.503759 0
M  V30 4191 H 405.015 1.55138 -2.54902 0
M  V30 4192 C 403.764 3.07103 -1.63042 0
M  V30 4193 H 403.087 3.12361 -2.49541 0
M  V30 4194 H 404.527 3.85743 -1.76006 0
M  V30 4195 C 402.986 3.34935 -0.363357 0
M  V30 4196 O 403.516 3.98102 0.536416 0
M  V30 4197 N 401.722 2.89574 -0.244 0
M  V30 4198 H 401.269 2.38348 -0.977133 0
M  V30 4199 H 401.227 3.08566 0.602836 0
M  V30 4200 N 404.999 1.35443 0.805782 0
M  V30 4201 C 405.929 1.31095 1.93226 0
M  V30 4202 C 406.91 0.185244 1.69088 0
M  V30 4203 O 408.095 0.380332 1.90439 0
M  V30 4204 C 405.225 1.08299 3.29983 0
M  V30 4205 C 404.179 2.17519 3.68605 0
M  V30 4206 C 403.505 1.79887 5.03532 0
M  V30 4207 C 404.805 3.5949 3.78898 0
M  V30 4208 H 406.499 2.25352 1.97122 0
M  V30 4209 H 404.045 1.0848 0.946996 0
M  V30 4210 H 405.998 1.03897 4.08391 0
M  V30 4211 H 404.722 0.104885 3.26432 0
M  V30 4212 H 403.381 2.2102 2.92482 0
M  V30 4213 H 403.029 0.80693 4.96485 0
M  V30 4214 H 402.729 2.53001 5.30344 0
M  V30 4215 H 404.253 1.77011 5.84379 0
M  V30 4216 H 405.667 3.58307 4.47536 0
M  V30 4217 H 404.064 4.31371 4.1718 0
M  V30 4218 H 405.134 3.95584 2.80431 0
M  V30 4219 N 406.477 -1.02803 1.19454 0
M  V30 4220 C 407.702 -1.80378 1.02364 0
M  V30 4221 C 408.127 -1.83282 -0.423007 0
M  V30 4222 O 407.485 -1.25945 -1.30413 0
M  V30 4223 C 407.533 -3.23248 1.59821 0
M  V30 4224 O 406.637 -4.04 0.828105 0
M  V30 4225 H 405.978 -0.556799 0.361761 0
M  V30 4226 H 408.508 -1.29385 1.58495 0
M  V30 4227 H 408.518 -3.73994 1.63073 0
M  V30 4228 H 407.193 -3.2045 2.65113 0
M  V30 4229 H 405.77 -3.62635 0.86891 0
M  V30 4230 N 407.956 -0.998596 -1.21925 0
M  V30 4231 C 409.367 -0.711939 -1.72593 0
M  V30 4232 C 409.718 0.770842 -1.80423 0
M  V30 4233 O 408.843 1.60237 -1.4544 0
M  V30 4234 C 409.438 -1.28567 -3.13458 0
M  V30 4235 C 407.997 -1.04828 -3.61508 0
M  V30 4236 C 407.144 -1.4024 -2.39224 0
M  V30 4237 H 410.095 -1.17027 -1.07193 0
M  V30 4238 H 410.116 -0.667098 -3.74607 0
M  V30 4239 H 409.628 -2.36486 -3.07727 0
M  V30 4240 H 407.729 0.0140383 -3.72597 0
M  V30 4241 H 407.842 -1.71566 -4.47328 0
M  V30 4242 H 406.206 -0.821077 -2.41103 0
M  V30 4243 H 406.989 -2.49176 -2.36149 0
M  V30 4244 N 409.434 1.37368 -0.772513 0
M  V30 4245 C 410.364 2.32856 -0.173304 0
M  V30 4246 C 411.345 1.55818 0.682262 0
M  V30 4247 O 412.53 1.84052 0.619566 0
M  V30 4248 C 409.66 3.40048 0.706007 0
M  V30 4249 C 408.614 4.27973 -0.0483144 0
M  V30 4250 C 407.94 5.26184 0.950491 0
M  V30 4251 C 409.24 5.07665 -1.22776 0
M  V30 4252 H 410.934 2.83217 -0.971002 0
M  V30 4253 H 408.48 1.3617 -0.468377 0
M  V30 4254 H 410.433 4.05827 1.13501 0
M  V30 4255 H 409.157 2.88214 1.53623 0
M  V30 4256 H 407.816 3.63726 -0.458107 0
M  V30 4257 H 407.464 4.7063 1.77529 0
M  V30 4258 H 407.164 5.85872 0.450314 0
M  V30 4259 H 408.688 5.94838 1.37842 0
M  V30 4260 H 410.102 5.66578 -0.875366 0
M  V30 4261 H 408.499 5.76681 -1.66007 0
M  V30 4262 H 409.569 4.40294 -2.03149 0
M  V30 4263 N 410.912 0.523116 1.48665 0
M  V30 4264 C 411.862 -0.263106 2.26477 0
M  V30 4265 C 412.846 -0.916005 1.32281 0
M  V30 4266 O 414.038 -0.819946 1.56863 0
M  V30 4267 C 411.167 -1.31361 3.17174 0
M  V30 4268 C 410.253 -0.665849 4.1884 0
M  V30 4269 N 410.644 0.244434 5.05209 0
M  V30 4270 C 408.942 -0.923863 4.36326 0
M  V30 4271 C 409.643 0.617443 5.78414 0
M  V30 4272 N 408.619 -0.0198686 5.43596 0
M  V30 4273 H 412.421 0.437295 2.90629 0
M  V30 4274 H 409.935 0.340675 1.58787 0
M  V30 4275 H 411.932 -1.89052 3.71571 0
M  V30 4276 H 410.592 -2.01546 2.54576 0
M  V30 4277 H 411.603 0.616621 5.14216 0
M  V30 4278 H 408.28 -1.6168 3.84923 0
M  V30 4279 H 409.67 1.36346 6.57921 0
M  V30 4280 N 412.39 -1.55475 0.257931 0
M  V30 4281 C 413.806 -1.59307 -0.0966563 0
M  V30 4282 C 414.006 -1.27514 -1.5602 0
M  V30 4283 O 413.062 -1.02774 -2.30637 0
M  V30 4284 C 414.375 -2.99552 0.262481 0
M  V30 4285 C 415.923 -3.1231 0.207683 0
M  V30 4286 C 416.398 -4.54793 0.541012 0
M  V30 4287 N 417.889 -4.6058 0.491921 0
M  V30 4288 C 418.624 -5.68825 0.722857 0
M  V30 4289 N 418.12 -6.85287 1.0175 0
M  V30 4290 N 419.913 -5.58296 0.652815 0
M  V30 4291 H 412.064 -1.74409 1.21224 0
M  V30 4292 H 414.327 -0.812424 0.48854 0
M  V30 4293 H 414.033 -3.27593 1.27967 0
M  V30 4294 H 413.907 -3.75019 -0.40508 0
M  V30 4295 H 416.294 -2.84044 -0.800195 0
M  V30 4296 H 416.375 -2.39095 0.909255 0
M  V30 4297 H 416.019 -4.83783 1.5465 0
M  V30 4298 H 415.949 -5.26285 -0.18216 0
M  V30 4299 H 418.44 -3.7691 0.273366 0
M  V30 4300 H 418.753 -7.63725 1.18084 0
M  V30 4301 H 417.098 -6.86945 1.05509 0
M  V30 4302 H 420.289 -4.66189 0.422592 0
M  V30 4303 H 420.462 -6.42582 0.836182 0
M  V30 4304 N 413.868 0.0150385 -1.57593 0
M  V30 4305 C 414.831 0.995996 -2.06428 0
M  V30 4306 C 415.831 1.2818 -0.970903 0
M  V30 4307 O 417.021 1.22949 -1.23406 0
M  V30 4308 C 414.153 2.32506 -2.49307 0
M  V30 4309 H 415.346 0.573873 -2.94358 0
M  V30 4310 H 412.899 0.262186 -1.54085 0
M  V30 4311 H 413.634 2.79438 -1.64575 0
M  V30 4312 H 413.419 2.13087 -3.29145 0
M  V30 4313 H 414.909 3.02906 -2.87468 0
M  V30 4314 N 415.346 1.54954 0.287554 0
M  V30 4315 C 416.279 1.81737 1.3801 0
M  V30 4316 C 417.257 0.669412 1.48181 0
M  V30 4317 O 418.441 0.910839 1.65033 0
M  V30 4318 C 415.568 1.96606 2.75796 0
M  V30 4319 C 414.614 3.19098 2.82982 0
M  V30 4320 S 415.447 4.7683 2.43707 0
M  V30 4321 C 416.603 4.94653 3.83496 0
M  V30 4322 H 416.836 2.74122 1.15085 0
M  V30 4323 H 414.369 1.46538 0.486403 0
M  V30 4324 H 416.327 2.05858 3.55152 0
M  V30 4325 H 414.988 1.05136 2.95982 0
M  V30 4326 H 414.181 3.26344 3.84077 0
M  V30 4327 H 413.783 3.08361 2.11635 0
M  V30 4328 H 416.075 4.79502 4.78628 0
M  V30 4329 H 417.018 5.96728 3.8121 0
M  V30 4330 H 417.426 4.2272 3.74123 0
M  V30 4331 N 416.824 -0.551391 1.4764 0
M  V30 4332 C 417.754 -1.66757 1.63445 0
M  V30 4333 C 418.735 -1.63077 0.483742 0
M  V30 4334 O 419.92 -1.80607 0.71377 0
M  V30 4335 C 417.05 -3.05387 1.65396 0
M  V30 4336 C 416.004 -3.23918 2.79752 0
M  V30 4337 C 415.33 -4.63393 2.66779 0
M  V30 4338 C 416.63 -3.08735 4.21284 0
M  V30 4339 H 418.324 -1.53786 2.56886 0
M  V30 4340 H 415.87 -0.738415 1.23626 0
M  V30 4341 H 417.823 -3.83325 1.75043 0
M  V30 4342 H 416.547 -3.19332 0.685195 0
M  V30 4343 H 415.206 -2.48391 2.69625 0
M  V30 4344 H 414.854 -4.74144 1.67918 0
M  V30 4345 H 414.554 -4.7674 3.43501 0
M  V30 4346 H 416.078 -5.43458 2.78364 0
M  V30 4347 H 417.492 -3.76484 4.32357 0
M  V30 4348 H 415.889 -3.33588 4.98838 0
M  V30 4349 H 416.959 -2.0541 4.39243 0
M  V30 4350 O 418.341 -1.45728 -0.696113 0
M  V30 4351 H 419.032 -1.39109 -1.3479 0
M  V30 END ATOM
M  V30 BEGIN BOND
M  V30 END BOND
M  V30 END CTAB
M  END
$$$$
