drugbank_target|P11712 Cytochrome P450 2C9 (DB03317; DB11994; DB12319)
 OpenBabel12092120243D

  0  0  0     0  0            999 V3000
M  V30 BEGIN CTAB
M  V30 COUNTS 7886 7978 0 0 0
M  V30 BEGIN ATOM
M  V30 1 H -0.908 1.98254 -0.117106 0
M  V30 2 N 0 1.576 0 0
M  V30 3 C 0.933 2.03868 1.02534 0
M  V30 4 C 1.911 0.928543 1.3348 0
M  V30 5 O 3.095 1.19667 1.45644 0
M  V30 6 C 0.222 2.43627 2.35294 0
M  V30 7 C -0.732 3.65373 2.2001 0
M  V30 8 S 0.101 5.13292 1.52614 0
M  V30 9 C 1.257 5.56322 2.86805 0
M  V30 10 H 1.49 2.90518 0.631377 0
M  V30 11 H -0.977 1.52953 0.210867 0
M  V30 12 H 0.981 2.67203 3.11629 0
M  V30 13 H -0.358 1.57376 2.7183 0
M  V30 14 H -1.165 3.90944 3.18086 0
M  V30 15 H -1.563 3.418 1.51819 0
M  V30 16 H 0.729 5.58782 3.83104 0
M  V30 17 H 1.672 6.56266 2.65933 0
M  V30 18 H 2.08 4.83886 2.90714 0
M  V30 19 N 1.4781 -0.272755 1.55222 0
M  V30 20 C 2.7551 -1.02562 1.66555 0
M  V30 21 C 3.1351 -2.04282 0.532189 0
M  V30 22 O 2.4831 -2.23662 -0.467717 0
M  V30 23 C 2.6931 -1.6822 3.05782 0
M  V30 24 C 4.0411 -2.19373 3.63539 0
M  V30 25 O 5.0651 -1.78206 3.08417 0
M  V30 26 O 3.9241 -2.94883 4.60115 0
M  V30 27 H 1.0181 -0.475755 0.676451 0
M  V30 28 H 3.5641 -0.268593 1.67561 0
M  V30 29 H 2.3361 -0.945112 3.79715 0
M  V30 30 H 1.9591 -2.50609 3.08676 0
M  V30 31 N 2.9562 -1.48159 -0.537278 0
M  V30 32 C 4.1812 -1.59707 -1.32319 0
M  V30 33 C 4.6062 -0.254859 -1.86365 0
M  V30 34 O 3.9642 0.772378 -1.64024 0
M  V30 35 C 4.0122 -2.6412 -2.45505 0
M  V30 36 O 3.1162 -2.20774 -3.48328 0
M  V30 37 H 2.4572 -0.535791 -0.392204 0
M  V30 38 H 4.9872 -1.94092 -0.647268 0
M  V30 39 H 4.9972 -2.85166 -2.91795 0
M  V30 40 H 3.6722 -3.61567 -2.05528 0
M  V30 41 H 2.2492 -2.09911 -3.08207 0
M  V30 42 N 4.4343 0.785586 -1.36625 0
M  V30 43 C 5.3643 1.91259 -1.33949 0
M  V30 44 C 6.3453 1.68795 -0.210325 0
M  V30 45 O 7.5303 1.89854 -0.408561 0
M  V30 46 C 4.6603 3.28339 -1.13186 0
M  V30 47 C 3.6143 3.65335 -2.22967 0
M  V30 48 C 2.9403 5.00806 -1.87342 0
M  V30 49 C 4.2403 3.7352 -3.65075 0
M  V30 50 H 5.9343 1.93755 -2.28253 0
M  V30 51 H 3.4803 0.930788 -1.09874 0
M  V30 52 H 5.4333 4.06804 -1.09948 0
M  V30 53 H 4.1573 3.2624 -0.153332 0
M  V30 54 H 2.8163 2.89169 -2.25337 0
M  V30 55 H 2.4643 4.95233 -0.880545 0
M  V30 56 H 2.1643 5.26529 -2.60846 0
M  V30 57 H 3.6883 5.81687 -1.85667 0
M  V30 58 H 5.1023 4.42168 -3.64911 0
M  V30 59 H 3.4993 4.10731 -4.37516 0
M  V30 60 H 4.5693 2.74527 -3.99703 0
M  V30 61 N 5.9124 1.20967 1.01018 0
M  V30 62 C 7.1584 1.02526 1.74975 0
M  V30 63 C 7.4914 -0.4408 1.89131 0
M  V30 64 O 6.7664 -1.32718 1.42184 0
M  V30 65 C 7.0494 1.71699 3.1653 0
M  V30 66 C 6.9024 3.25791 3.10129 0
M  V30 67 C 8.2214 1.45531 4.15342 0
M  V30 68 H 5.3404 0.373863 0.635134 0
M  V30 69 H 7.9824 1.49071 1.17805 0
M  V30 70 H 6.1324 1.32128 3.65341 0
M  V30 71 H 7.8044 3.74697 2.69072 0
M  V30 72 H 6.0474 3.56363 2.47362 0
M  V30 73 H 6.7184 3.69353 4.10222 0
M  V30 74 H 9.1944 1.79872 3.75213 0
M  V30 75 H 8.0704 1.96453 5.1254 0
M  V30 76 H 8.3314 0.384237 4.40427 0
M  V30 77 N 7.3905 -1.2043 1.01659 0
M  V30 78 C 8.6365 -1.90079 0.706963 0
M  V30 79 C 8.9695 -1.78648 -0.761474 0
M  V30 80 O 8.2445 -1.17069 -1.55323 0
M  V30 81 C 8.5275 -3.41469 1.14327 0
M  V30 82 C 8.3805 -3.61833 2.67201 0
M  V30 83 C 9.6995 -4.34261 0.714529 0
M  V30 84 H 6.8185 -0.690254 0.2583 0
M  V30 85 H 9.4605 -1.41826 1.26433 0
M  V30 86 H 7.6105 -3.82696 0.669056 0
M  V30 87 H 9.2825 -3.2986 3.22475 0
M  V30 88 H 7.5255 -3.05304 3.08175 0
M  V30 89 H 8.1965 -4.67955 2.92783 0
M  V30 90 H 10.6725 -4.00682 1.12221 0
M  V30 91 H 9.5485 -5.38806 1.04784 0
M  V30 92 H 9.8095 -4.40431 -0.383799 0
M  V30 93 N 8.8686 -0.792821 -1.36206 0
M  V30 94 C 9.7986 -0.207853 -2.32573 0
M  V30 95 C 10.7796 0.659055 -1.56813 0
M  V30 96 O 11.9646 0.592176 -1.84951 0
M  V30 97 C 9.0946 0.655449 -3.41059 0
M  V30 98 C 8.0486 -0.111842 -4.27854 0
M  V30 99 C 7.3746 0.872274 -5.27537 0
M  V30 100 C 8.6746 -1.30299 -5.05786 0
M  V30 101 H 10.3686 -1.01294 -2.81744 0
M  V30 102 H 7.9146 -0.48854 -1.3546 0
M  V30 103 H 9.8676 1.07464 -4.07467 0
M  V30 104 H 8.5916 1.49328 -2.90463 0
M  V30 105 H 7.2506 -0.512053 -3.63006 0
M  V30 106 H 6.8986 1.70523 -4.73214 0
M  V30 107 H 6.5986 0.363291 -5.86476 0
M  V30 108 H 8.1226 1.28996 -5.96818 0
M  V30 109 H 9.5366 -0.959379 -5.65216 0
M  V30 110 H 7.9336 -1.7455 -5.74154 0
M  V30 111 H 9.0036 -2.09663 -4.37229 0
M  V30 112 N 10.3467 1.47872 -0.545128 0
M  V30 113 C 11.5927 2.02793 -0.0166104 0
M  V30 114 C 11.9257 1.41987 1.32489 0
M  V30 115 O 11.2007 0.571045 1.85928 0
M  V30 116 C 11.4837 3.59989 0.0893294 0
M  V30 117 C 11.3367 4.3125 -1.27841 0
M  V30 118 C 12.6557 4.32606 0.808724 0
M  V30 119 H 9.7747 0.736962 -0.00751035 0
M  V30 120 H 12.4167 1.76433 -0.705085 0
M  V30 121 H 10.5667 3.82579 0.675681 0
M  V30 122 H 12.2387 4.20035 -1.90704 0
M  V30 123 H 10.4817 3.92076 -1.85632 0
M  V30 124 H 11.1527 5.39736 -1.15713 0
M  V30 125 H 13.6287 4.14936 0.310992 0
M  V30 126 H 12.5047 5.42251 0.851782 0
M  V30 127 H 12.7657 4.00963 1.86229 0
M  V30 128 N 11.8248 0.280983 1.55075 0
M  V30 129 C 12.7548 -0.597469 2.25727 0
M  V30 130 C 13.7358 -1.15417 1.24952 0
M  V30 131 O 14.9208 -1.18722 1.53684 0
M  V30 132 C 12.0508 -1.7789 2.98283 0
M  V30 133 C 11.0048 -1.35347 4.06036 0
M  V30 134 C 10.3308 -2.61846 4.66198 0
M  V30 135 C 11.6308 -0.499354 5.19907 0
M  V30 136 H 13.3248 -0.00824265 2.99399 0
M  V30 137 H 10.8708 -0.0025244 1.44 0
M  V30 138 H 12.8238 -2.39937 3.46422 0
M  V30 139 H 11.5478 -2.39405 2.22155 0
M  V30 140 H 10.2068 -0.756156 3.58717 0
M  V30 141 H 9.8548 -3.21632 3.86732 0
M  V30 142 H 9.5548 -2.3409 5.38958 0
M  V30 143 H 11.0788 -3.24732 5.1709 0
M  V30 144 H 12.4928 -1.02498 5.64063 0
M  V30 145 H 10.8898 -0.316424 5.99265 0
M  V30 146 H 11.9598 0.480459 4.82514 0
M  V30 147 N 13.3029 -1.57598 0.00835791 0
M  V30 148 C 14.5429 -1.92788 -0.679136 0
M  V30 149 C 14.9069 -0.883378 -1.70471 0
M  V30 150 O 16.1079 -1.12079 -2.44319 0
M  V30 151 C 14.3789 -3.32994 -1.29807 0
M  V30 152 S 15.9379 -3.90082 -2.00952 0
M  V30 153 H 12.7559 -0.67475 -0.224127 0
M  V30 154 H 15.3579 -1.95385 0.0670497 0
M  V30 155 H 14.0619 -4.06846 -0.538922 0
M  V30 156 H 13.5929 -3.33791 -2.082 0
M  V30 157 H 15.6079 -3.71834 -3.28563 0
M  V30 158 N 14.781 0.264519 -1.55364 0
M  V30 159 C 15.711 1.33121 -1.91836 0
M  V30 160 C 16.692 1.51101 -0.781192 0
M  V30 161 O 17.877 1.64003 -1.04003 0
M  V30 162 C 15.007 2.68921 -2.19769 0
M  V30 163 C 13.961 2.65661 -3.35571 0
M  V30 164 C 13.287 4.05093 -3.49004 0
M  V30 165 C 14.587 2.24187 -4.71739 0
M  V30 166 H 16.281 1.02844 -2.81182 0
M  V30 167 H 13.827 0.493286 -1.35287 0
M  V30 168 H 15.78 3.43663 -2.43872 0
M  V30 169 H 14.504 3.00799 -1.27231 0
M  V30 170 H 13.163 1.93377 -3.1145 0
M  V30 171 H 12.811 4.34206 -2.53917 0
M  V30 172 H 12.511 4.03804 -4.26868 0
M  V30 173 H 14.035 4.81561 -3.75408 0
M  V30 174 H 15.449 2.88654 -4.9533 0
M  V30 175 H 13.846 2.34044 -5.52579 0
M  V30 176 H 14.916 1.19327 -4.69988 0
M  V30 177 N 16.2591 1.48442 0.529413 0
M  V30 178 C 17.4841 1.60406 1.31471 0
M  V30 179 C 17.9091 0.264738 1.86228 0
M  V30 180 O 17.2671 -0.763668 1.64432 0
M  V30 181 C 17.3151 2.65419 2.44101 0
M  V30 182 O 16.4191 2.22618 3.47153 0
M  V30 183 H 15.7601 0.537863 0.389357 0
M  V30 184 H 18.2901 1.94432 0.636965 0
M  V30 185 H 18.3001 2.86709 2.90279 0
M  V30 186 H 16.9751 3.62652 2.03608 0
M  V30 187 H 15.5521 2.11543 3.0709 0
M  V30 188 N 17.7372 -0.778329 1.37039 0
M  V30 189 C 18.9772 -1.54973 1.33276 0
M  V30 190 C 19.3412 -1.91816 -0.0839376 0
M  V30 191 O 20.5422 -2.6767 -0.246228 0
M  V30 192 C 18.8132 -2.78517 2.23971 0
M  V30 193 S 20.3722 -3.6865 2.37997 0
M  V30 194 H 17.1902 -0.530639 0.473226 0
M  V30 195 H 19.7922 -0.915806 1.72723 0
M  V30 196 H 18.4962 -2.4952 3.25835 0
M  V30 197 H 18.0272 -3.46875 1.85584 0
M  V30 198 H 20.0422 -4.70182 1.58567 0
M  V30 199 N 19.2153 -1.21501 -1.00376 0
M  V30 200 C 20.1453 -0.999478 -2.11028 0
M  V30 201 C 21.1263 0.0759671 -1.6993 0
M  V30 202 O 22.3113 -0.0841106 -1.94018 0
M  V30 203 C 19.4413 -0.564709 -3.42678 0
M  V30 204 C 18.3953 -1.58486 -3.97576 0
M  V30 205 C 17.7213 -1.00628 -5.25146 0
M  V30 206 C 19.0213 -2.97204 -4.29496 0
M  V30 207 H 20.7153 -1.92495 -2.29317 0
M  V30 208 H 18.2613 -0.92693 -1.102 0
M  V30 209 H 20.2143 -0.401091 -4.19487 0
M  V30 210 H 18.9383 0.396411 -3.24185 0
M  V30 211 H 17.5973 -1.73606 -3.22888 0
M  V30 212 H 17.2453 -0.0368439 -5.02987 0
M  V30 213 H 16.9453 -1.68771 -5.62841 0
M  V30 214 H 18.4693 -0.854015 -6.04598 0
M  V30 215 H 19.8833 -2.8552 -4.97143 0
M  V30 216 H 18.2803 -3.62372 -4.78338 0
M  V30 217 H 19.3503 -3.47956 -3.3772 0
M  V30 218 N 20.6934 1.19889 -1.02296 0
M  V30 219 C 21.6234 2.25141 -0.619174 0
M  V30 220 C 22.6044 1.66051 0.368915 0
M  V30 221 O 23.7894 1.92546 0.252941 0
M  V30 222 C 20.9194 3.4728 0.0368783 0
M  V30 223 C 19.8734 4.19005 -0.872865 0
M  V30 224 C 19.1994 5.34637 -0.0822402 0
M  V30 225 C 20.4994 4.74452 -2.18387 0
M  V30 226 H 22.1934 2.59171 -1.49903 0
M  V30 227 H 19.7394 1.24579 -0.722222 0
M  V30 228 H 21.6924 4.20098 0.330958 0
M  V30 229 H 20.4164 3.12433 0.95149 0
M  V30 230 H 19.0754 3.48061 -1.15105 0
M  V30 231 H 18.7234 4.96034 0.83422 0
M  V30 232 H 18.4234 5.83557 -0.688149 0
M  V30 233 H 19.9474 6.10255 0.205238 0
M  V30 234 H 21.3614 5.39055 -1.95172 0
M  V30 235 H 19.7584 5.33834 -2.74119 0
M  V30 236 H 20.8284 3.92844 -2.84257 0
M  V30 237 N 22.1715 0.800033 1.35784 0
M  V30 238 C 23.1015 0.220184 2.3246 0
M  V30 239 C 24.0825 -0.65073 1.57161 0
M  V30 240 O 25.2675 -0.582359 1.85263 0
M  V30 241 C 22.3975 -0.637353 3.41402 0
M  V30 242 C 21.3515 0.134531 4.27789 0
M  V30 243 C 20.6775 -0.844285 5.27992 0
M  V30 244 C 21.9775 1.32979 5.05088 0
M  V30 245 H 23.6715 1.02787 2.81203 0
M  V30 246 H 21.2175 0.495717 1.35199 0
M  V30 247 H 23.1705 -1.05302 4.08031 0
M  V30 248 H 21.8945 -1.47785 2.91251 0
M  V30 249 H 20.5535 0.531296 3.6273 0
M  V30 250 H 20.2015 -1.68011 4.74111 0
M  V30 251 H 19.9015 -0.332184 5.8666 0
M  V30 252 H 21.4255 -1.2583 5.97494 0
M  V30 253 H 22.8395 0.98934 5.64699 0
M  V30 254 H 21.2365 1.77593 5.7322 0
M  V30 255 H 22.3065 2.11978 4.36111 0
M  V30 256 N 23.6496 -1.47581 0.552962 0
M  V30 257 C 24.5796 -2.32762 -0.185451 0
M  V30 258 C 25.5606 -1.43527 -0.912905 0
M  V30 259 O 26.7456 -1.72388 -0.894201 0
M  V30 260 C 23.8756 -3.25219 -1.21859 0
M  V30 261 C 22.8296 -4.23661 -0.607864 0
M  V30 262 C 22.1556 -5.05413 -1.74533 0
M  V30 263 C 23.4556 -5.20481 0.435582 0
M  V30 264 H 25.1496 -2.94749 0.525684 0
M  V30 265 H 22.6956 -1.41738 0.254251 0
M  V30 266 H 24.6486 -3.8365 -1.7433 0
M  V30 267 H 23.3726 -2.61279 -1.95961 0
M  V30 268 H 22.0316 -3.66451 -0.104489 0
M  V30 269 H 21.6796 -4.3788 -2.47529 0
M  V30 270 H 21.3796 -5.72059 -1.34249 0
M  V30 271 H 22.9036 -5.66701 -2.27338 0
M  V30 272 H 24.3176 -5.733 -0.00290157 0
M  V30 273 H 22.7146 -5.95305 0.757067 0
M  V30 274 H 23.7846 -4.66217 1.33303 0
M  V30 275 N 25.1277 -0.289203 -1.54924 0
M  V30 276 C 26.3527 0.329299 -2.04769 0
M  V30 277 C 26.7777 1.4763 -1.16564 0
M  V30 278 O 26.1357 1.80527 -0.167186 0
M  V30 279 C 26.1837 0.774438 -3.52186 0
M  V30 280 O 25.2877 1.88038 -3.67036 0
M  V30 281 H 24.6287 0.0659259 -0.660719 0
M  V30 282 H 27.1587 -0.42761 -2.00082 0
M  V30 283 H 27.1687 1.06642 -3.93816 0
M  V30 284 H 25.8437 -0.0646707 -4.1585 0
M  V30 285 H 24.4207 1.58985 -3.3731 0
M  V30 286 N 26.6058 1.57591 -0.0167156 0
M  V30 287 C 27.5358 2.12496 0.967858 0
M  V30 288 C 28.5168 1.03807 1.34752 0
M  V30 289 O 29.7018 1.31577 1.42833 0
M  V30 290 C 26.8318 2.64194 2.25431 0
M  V30 291 C 25.7858 3.77559 2.01576 0
M  V30 292 C 25.1118 4.15636 3.36379 0
M  V30 293 C 26.4118 5.04151 1.36489 0
M  V30 294 H 28.1058 2.95013 0.510643 0
M  V30 295 H 25.6518 1.41915 0.244181 0
M  V30 296 H 27.6048 3.01236 2.94678 0
M  V30 297 H 26.3288 1.78821 2.73296 0
M  V30 298 H 24.9878 3.40937 1.34751 0
M  V30 299 H 24.6358 3.27263 3.81979 0
M  V30 300 H 24.3358 4.92022 3.21229 0
M  V30 301 H 25.8598 4.5525 4.06915 0
M  V30 302 H 27.2738 5.38857 1.95718 0
M  V30 303 H 25.6708 5.85453 1.31776 0
M  V30 304 H 26.7408 4.83733 0.336219 0
M  V30 305 N 28.0839 -0.256276 1.55502 0
M  V30 306 C 29.3299 -0.982884 1.78076 0
M  V30 307 C 29.6849 -1.83319 0.584109 0
M  V30 308 O 28.9779 -1.86875 -0.422877 0
M  V30 309 C 29.1719 -1.88432 3.03691 0
M  V30 310 C 29.0009 -1.12276 4.35459 0
M  V30 311 C 27.7709 -0.831647 4.98409 0
M  V30 312 C 29.9689 -0.504933 5.11815 0
M  V30 313 N 27.9509 -0.0450423 6.13883 0
M  V30 314 C 29.3219 0.146696 6.19826 0
M  V30 315 C 31.3769 -0.414455 4.96172 0
M  V30 316 C 30.0799 0.880103 7.13895 0
M  V30 317 C 32.1059 0.305398 5.90611 0
M  V30 318 C 31.4679 0.945701 6.98023 0
M  V30 319 H 27.5669 -0.341084 0.703694 0
M  V30 320 H 30.1509 -0.256909 1.92998 0
M  V30 321 H 28.3219 -2.58241 2.90114 0
M  V30 322 H 30.0539 -2.54579 3.14598 0
M  V30 323 H 26.8089 -1.14111 4.59647 0
M  V30 324 H 27.2329 0.336079 6.76165 0
M  V30 325 H 31.8749 -0.895163 4.13215 0
M  V30 326 H 29.5929 1.37244 7.9636 0
M  V30 327 H 33.1789 0.375946 5.80584 0
M  V30 328 H 32.0589 1.49383 7.6984 0
M  V30 329 N 29.562 -1.4872 -0.521534 0
M  V30 330 C 30.978 -1.35028 -0.850855 0
M  V30 331 C 31.178 -0.367712 -1.98116 0
M  V30 332 O 30.234 0.208037 -2.51642 0
M  V30 333 C 31.547 -2.75263 -1.21041 0
M  V30 334 C 33.095 -2.83813 -1.31981 0
M  V30 335 C 33.57 -4.24769 -1.71276 0
M  V30 336 N 35.061 -4.27482 -1.78363 0
M  V30 337 C 35.796 -5.33494 -2.1017 0
M  V30 338 N 35.292 -6.49775 -2.40343 0
M  V30 339 N 37.085 -5.20894 -2.11248 0
M  V30 340 H 29.236 -2.11214 0.22413 0
M  V30 341 H 31.499 -0.947252 0.0376439 0
M  V30 342 H 31.205 -3.48765 -0.453415 0
M  V30 343 H 31.079 -3.09327 -2.15863 0
M  V30 344 H 33.466 -2.10561 -2.06756 0
M  V30 345 H 33.547 -2.53358 -0.352596 0
M  V30 346 H 33.191 -4.9854 -0.970588 0
M  V30 347 H 33.121 -4.52673 -2.69062 0
M  V30 348 H 35.612 -3.43611 -1.57288 0
M  V30 349 H 35.925 -7.26402 -2.63743 0
M  V30 350 H 34.27 -6.53035 -2.37844 0
M  V30 351 H 37.461 -4.29065 -1.87139 0
M  V30 352 H 37.634 -6.03612 -2.35704 0
M  V30 353 N 31.0401 0.771051 -1.3745 0
M  V30 354 C 31.9721 1.89352 -1.29146 0
M  V30 355 C 32.9851 1.61477 -0.207124 0
M  V30 356 O 34.1741 1.72382 -0.463324 0
M  V30 357 C 31.2741 3.24596 -0.974195 0
M  V30 358 C 30.4471 3.80111 -2.16413 0
M  V30 359 C 29.5061 4.93832 -1.81703 0
M  V30 360 O 28.5321 5.09382 -2.54006 0
M  V30 361 N 29.7341 5.75483 -0.761573 0
M  V30 362 H 32.4991 1.96991 -2.25864 0
M  V30 363 H 30.0601 0.950191 -1.31084 0
M  V30 364 H 32.0521 3.98193 -0.722828 0
M  V30 365 H 30.6221 3.12454 -0.0955527 0
M  V30 366 H 29.8421 2.98284 -2.57721 0
M  V30 367 H 31.1301 4.13932 -2.95867 0
M  V30 368 H 30.5281 5.65469 -0.161609 0
M  V30 369 H 29.0851 6.49302 -0.570064 0
M  V30 370 N 32.5182 1.22032 0.997298 0
M  V30 371 C 33.7432 1.06921 1.77715 0
M  V30 372 C 34.1682 -0.376226 1.84299 0
M  V30 373 O 33.5262 -1.27165 1.29223 0
M  V30 374 C 33.5742 1.67996 3.19076 0
M  V30 375 O 32.6782 0.930653 4.01762 0
M  V30 376 H 32.0192 0.375814 0.547412 0
M  V30 377 H 34.5492 1.61737 1.25309 0
M  V30 378 H 34.5592 1.72538 3.69723 0
M  V30 379 H 33.2342 2.73182 3.13599 0
M  V30 380 H 31.8112 0.960917 3.60307 0
M  V30 381 N 33.9963 -1.19345 1.0293 0
M  V30 382 C 35.2213 -1.93538 0.745511 0
M  V30 383 C 35.6463 -1.75007 -0.689511 0
M  V30 384 O 35.0043 -1.05265 -1.47611 0
M  V30 385 C 35.0523 -3.43336 1.10239 0
M  V30 386 O 34.1563 -4.11806 0.221289 0
M  V30 387 H 33.4973 -0.604193 0.275404 0
M  V30 388 H 36.0273 -1.5141 1.37609 0
M  V30 389 H 36.0373 -3.94004 1.05947 0
M  V30 390 H 34.7123 -3.56146 2.14786 0
M  V30 391 H 33.2893 -3.715 0.322842 0
M  V30 392 N 35.4744 -0.807222 -1.35358 0
M  V30 393 C 36.7224 -0.387122 -1.98358 0
M  V30 394 C 37.0434 1.04942 -1.64354 0
M  V30 395 O 36.3134 1.72615 -0.926339 0
M  V30 396 H 34.8934 -0.140154 -0.733734 0
M  V30 397 H 37.5554 -1.0332 -1.6526 0
M  V30 398 H 36.6514 -0.493352 -3.08176 0
M  V30 399 N 36.9525 1.47285 -0.560781 0
M  V30 400 C 38.3685 1.58065 -0.22081 0
M  V30 401 C 38.5685 1.55892 1.27671 0
M  V30 402 O 37.6245 1.46422 2.0571 0
M  V30 403 C 38.9375 2.88418 -0.850625 0
M  V30 404 C 40.4855 3.02009 -0.822184 0
M  V30 405 C 40.9605 4.35066 -1.43113 0
M  V30 406 N 42.4515 4.41711 -1.39448 0
M  V30 407 C 43.1865 5.43237 -1.83525 0
M  V30 408 N 42.6825 6.51555 -2.35474 0
M  V30 409 N 44.4755 5.34304 -1.74574 0
M  V30 410 H 36.6265 1.46941 -1.53369 0
M  V30 411 H 38.8895 0.699558 -0.639783 0
M  V30 412 H 38.5955 2.95755 -1.9032 0
M  V30 413 H 38.4695 3.75612 -0.345773 0
M  V30 414 H 40.8565 2.94266 0.221714 0
M  V30 415 H 40.9375 2.16347 -1.36483 0
M  V30 416 H 40.5815 4.43565 -2.47412 0
M  V30 417 H 40.5115 5.19465 -0.863899 0
M  V30 418 H 43.0025 3.64027 -1.01452 0
M  V30 419 H 43.3155 7.25203 -2.67021 0
M  V30 420 H 41.6605 6.52435 -2.39487 0
M  V30 421 H 44.8515 4.48581 -1.33763 0
M  V30 422 H 45.0245 6.13288 -2.09242 0
M  V30 423 N 38.4306 0.297415 1.54768 0
M  V30 424 C 39.6786 -0.312295 1.99673 0
M  V30 425 C 39.9996 -1.54686 1.18732 0
M  V30 426 O 39.2696 -1.93854 0.282382 0
M  V30 427 H 37.8496 -0.118381 0.73756 0
M  V30 428 H 40.5116 0.407915 1.90583 0
M  V30 429 H 39.6076 -0.586813 3.06534 0
M  V30 430 N 39.9087 -1.5758 0.0250728 0
M  V30 431 C 40.8557 -2.09973 -0.958129 0
M  V30 432 C 41.8257 -1.00085 -1.3256 0
M  V30 433 O 43.0107 -1.27481 -1.41962 0
M  V30 434 C 40.1507 -2.62812 -2.2366 0
M  V30 435 C 39.2637 -3.86693 -1.92594 0
M  V30 436 C 38.3987 -4.27941 -3.14707 0
M  V30 437 C 37.4377 -5.44591 -2.79442 0
M  V30 438 N 36.5747 -5.81014 -3.94167 0
M  V30 439 H 41.4147 -2.937 -0.504428 0
M  V30 440 H 38.9517 -1.45172 -0.237392 0
M  V30 441 H 40.9097 -2.91536 -2.98434 0
M  V30 442 H 39.5397 -1.81922 -2.66654 0
M  V30 443 H 38.5917 -3.64723 -1.0808 0
M  V30 444 H 39.9037 -4.71547 -1.62619 0
M  V30 445 H 39.0577 -4.58079 -3.97804 0
M  V30 446 H 37.7967 -3.41845 -3.4784 0
M  V30 447 H 36.8017 -5.1415 -1.94755 0
M  V30 448 H 38.0267 -6.32382 -2.47528 0
M  V30 449 H 35.9727 -4.97874 -4.2715 0
M  V30 450 H 35.8897 -6.60498 -3.67801 0
M  V30 451 H 37.1577 -6.15756 -4.7798 0
M  V30 452 N 41.3868 0.248026 -1.55636 0
M  V30 453 C 42.3168 1.31079 -1.93237 0
M  V30 454 C 43.2978 1.50264 -0.797174 0
M  V30 455 O 44.4828 1.62891 -1.05737 0
M  V30 456 C 41.6128 2.66575 -2.22609 0
M  V30 457 C 40.5668 2.62087 -3.3837 0
M  V30 458 C 39.8928 4.01369 -3.53281 0
M  V30 459 C 41.1928 2.19171 -4.7409 0
M  V30 460 H 42.8868 0.998556 -2.82257 0
M  V30 461 H 40.4328 0.47891 -1.35803 0
M  V30 462 H 42.3858 3.41057 -2.47503 0
M  V30 463 H 41.1098 2.99432 -1.30414 0
M  V30 464 H 39.7688 1.90063 -3.13483 0
M  V30 465 H 39.4168 4.31489 -2.58508 0
M  V30 466 H 39.1168 3.99254 -4.31127 0
M  V30 467 H 40.6408 4.77552 -3.80495 0
M  V30 468 H 42.0548 2.83384 -4.98363 0
M  V30 469 H 40.4518 2.2817 -5.5503 0
M  V30 470 H 41.5218 1.14336 -4.71227 0
M  V30 471 N 42.8649 1.48995 0.513639 0
M  V30 472 C 44.2759 1.5119 1.09537 0
M  V30 473 C 44.6269 0.290906 1.94031 0
M  V30 474 O 43.7519 -0.60049 2.07902 0
M  V30 475 C 44.3469 2.73964 1.99322 0
M  V30 476 C 42.9059 2.78978 2.52682 0
M  V30 477 C 42.0529 2.44934 1.30009 0
M  V30 478 H 45.0039 1.55875 0.298125 0
M  V30 479 H 45.0249 2.53409 2.83838 0
M  V30 480 H 44.5369 3.62813 1.37799 0
M  V30 481 H 42.6379 1.94378 3.1788 0
M  V30 482 H 42.7509 3.8083 2.90698 0
M  V30 483 H 41.1149 1.9644 1.62122 0
M  V30 484 H 41.8979 3.36043 0.702131 0
M  V30 485 N 44.343 -0.763751 1.37857 0
M  V30 486 C 45.754 -1.3405 1.29952 0
M  V30 487 C 46.105 -1.96138 -0.0492898 0
M  V30 488 O 45.23 -1.94372 -0.951239 0
M  V30 489 C 45.825 -2.43729 2.35333 0
M  V30 490 C 44.384 -2.97151 2.31037 0
M  V30 491 C 43.531 -1.70438 2.18738 0
M  V30 492 H 46.482 -0.563396 1.48363 0
M  V30 493 H 46.503 -3.23412 2.00462 0
M  V30 494 H 46.015 -1.9851 3.33489 0
M  V30 495 H 44.116 -3.46724 1.3643 0
M  V30 496 H 44.229 -3.52221 3.24772 0
M  V30 497 H 42.593 -1.93673 1.65418 0
M  V30 498 H 43.376 -1.27312 3.18821 0
M  V30 499 N 45.8211 -1.22559 -0.990812 0
M  V30 500 C 47.0691 -1.04933 -1.72724 0
M  V30 501 C 47.3901 0.416158 -1.90508 0
M  V30 502 O 46.6601 1.29918 -1.46622 0
M  V30 503 H 45.2401 -0.385296 -0.639965 0
M  V30 504 H 47.9021 -1.54105 -1.19322 0
M  V30 505 H 46.9981 -1.52886 -2.72089 0
M  V30 506 N 47.2992 1.18797 -1.03562 0
M  V30 507 C 48.7102 1.70322 -0.764676 0
M  V30 508 C 49.0612 1.82708 0.714996 0
M  V30 509 O 48.1862 1.50299 1.55689 0
M  V30 510 C 48.7812 3.09356 -1.38145 0
M  V30 511 C 47.3402 3.58114 -1.15895 0
M  V30 512 C 46.4872 2.34798 -1.4753 0
M  V30 513 H 49.4382 1.03543 -1.20268 0
M  V30 514 H 49.4592 3.72378 -0.781977 0
M  V30 515 H 48.9712 3.00309 -2.45837 0
M  V30 516 H 47.0722 3.72464 -0.100544 0
M  V30 517 H 47.1852 4.4184 -1.8524 0
M  V30 518 H 45.5492 2.38464 -0.894829 0
M  V30 519 H 46.3322 2.28375 -2.56319 0
M  V30 520 N 48.7773 0.814389 1.34928 0
M  V30 521 C 50.0053 0.411136 2.02774 0
M  V30 522 C 50.4203 -0.980316 1.61354 0
M  V30 523 O 49.7773 -1.63299 0.814847 0
M  V30 524 C 49.8283 0.493865 3.58111 0
M  V30 525 O 49.5493 1.83047 3.98027 0
M  V30 526 C 51.0503 0.0844174 4.4322 0
M  V30 527 H 48.2703 0.166037 0.650133 0
M  V30 528 H 50.8143 1.10018 1.72384 0
M  V30 529 H 48.9693 -0.147006 3.87121 0
M  V30 530 H 49.3833 1.79872 4.92693 0
M  V30 531 H 50.8573 0.193404 5.51661 0
M  V30 532 H 51.3343 -0.97113 4.28329 0
M  V30 533 H 51.9403 0.69875 4.19521 0
M  V30 534 N 50.2554 -1.46986 0.568584 0
M  V30 535 C 51.6664 -1.86188 0.138219 0
M  V30 536 C 52.0174 -1.47388 -1.29504 0
M  V30 537 O 51.1424 -0.88219 -1.97602 0
M  V30 538 C 51.7374 -3.3792 0.244065 0
M  V30 539 C 50.2964 -3.76171 -0.131335 0
M  V30 540 C 49.4434 -2.71027 0.586465 0
M  V30 541 H 52.3944 -1.38342 0.777645 0
M  V30 542 H 52.4154 -3.76729 -0.534351 0
M  V30 543 H 51.9274 -3.66128 1.28731 0
M  V30 544 H 50.0284 -3.5358 -1.17526 0
M  V30 545 H 50.1414 -4.78523 0.235146 0
M  V30 546 H 48.5054 -2.54684 0.0282722 0
M  V30 547 H 49.2884 -3.02077 1.63109 0
M  V30 548 N 51.7335 -0.305618 -1.54608 0
M  V30 549 C 52.6635 0.561482 -2.26649 0
M  V30 550 C 53.6445 1.13415 -1.26772 0
M  V30 551 O 54.8295 1.16262 -1.55553 0
M  V30 552 C 51.9595 1.73122 -3.01075 0
M  V30 553 C 50.9135 1.2887 -4.08138 0
M  V30 554 C 50.2395 2.54396 -4.70305 0
M  V30 555 C 51.5395 0.416578 -5.20636 0
M  V30 556 H 53.2335 -0.0393902 -2.99374 0
M  V30 557 H 50.7795 -0.020385 -1.43986 0
M  V30 558 H 52.7325 2.34396 -3.50195 0
M  V30 559 H 51.4565 2.3584 -2.25936 0
M  V30 560 H 50.1155 0.698991 -3.59875 0
M  V30 561 H 49.7635 3.15439 -3.918 0
M  V30 562 H 49.4635 2.25486 -5.42614 0
M  V30 563 H 50.9875 3.16464 -5.2219 0
M  V30 564 H 52.4015 0.935116 -5.65622 0
M  V30 565 H 50.7985 0.221046 -5.99693 0
M  V30 566 H 51.8685 -0.557162 -4.81688 0
M  V30 567 N 53.2116 1.57565 -0.0334293 0
M  V30 568 C 54.6226 1.79746 0.504798 0
M  V30 569 C 54.9736 0.944091 1.71992 0
M  V30 570 O 54.0986 0.155694 2.15839 0
M  V30 571 C 54.6936 3.25997 0.922567 0
M  V30 572 C 53.2526 3.49159 1.40588 0
M  V30 573 C 52.3996 2.74785 0.372633 0
M  V30 574 H 55.3506 1.56565 -0.259436 0
M  V30 575 H 55.3716 3.35945 1.78666 0
M  V30 576 H 54.8836 3.88081 0.0379825 0
M  V30 577 H 52.9846 2.92332 2.31025 0
M  V30 578 H 53.0976 4.57873 1.41028 0
M  V30 579 H 51.4616 2.40391 0.841672 0
M  V30 580 H 52.2446 3.39587 -0.503559 0
M  V30 581 N 54.6897 -0.239769 1.55765 0
M  V30 582 C 55.9357 -0.968234 1.78194 0
M  V30 583 C 56.2687 -1.84701 0.599938 0
M  V30 584 O 55.5437 -1.9031 -0.401524 0
M  V30 585 C 55.8267 -1.8227 3.10564 0
M  V30 586 C 55.6797 -0.971633 4.3918 0
M  V30 587 C 56.9987 -2.80388 3.39221 0
M  V30 588 H 54.1177 -0.350572 0.648281 0
M  V30 589 H 56.7597 -0.238259 1.885 0
M  V30 590 H 54.9097 -2.44507 3.01908 0
M  V30 591 H 56.5817 -0.367408 4.59835 0
M  V30 592 H 54.8247 -0.276276 4.32919 0
M  V30 593 H 55.4957 -1.60346 5.28198 0
M  V30 594 H 57.9717 -2.28287 3.47885 0
M  V30 595 H 56.8477 -3.3729 4.33044 0
M  V30 596 H 57.1087 -3.57212 2.60484 0
M  V30 597 N 56.1678 -1.49265 -0.50573 0
M  V30 598 C 57.4168 -1.57761 -1.25675 0
M  V30 599 C 57.7298 -0.267371 -1.93764 0
M  V30 600 O 58.9358 -0.230827 -2.70517 0
M  V30 601 C 57.3918 -2.78332 -2.28165 0
M  V30 602 C 56.9998 -4.16096 -1.66037 0
M  V30 603 C 58.7438 -2.96155 -3.04125 0
M  V30 604 C 56.6508 -5.27895 -2.6661 0
M  V30 605 H 55.5808 -0.587391 -0.472745 0
M  V30 606 H 58.2318 -1.75644 -0.53118 0
M  V30 607 H 56.6138 -2.53934 -3.03865 0
M  V30 608 H 57.7878 -4.50612 -0.963622 0
M  V30 609 H 56.1028 -4.03591 -1.02484 0
M  V30 610 H 58.6998 -3.76849 -3.79327 0
M  V30 611 H 59.0428 -2.06534 -3.61455 0
M  V30 612 H 59.5758 -3.2057 -2.35541 0
M  V30 613 H 56.3148 -6.1956 -2.14068 0
M  V30 614 H 55.8348 -4.97839 -3.34539 0
M  V30 615 H 57.5138 -5.57031 -3.29129 0
M  V30 616 N 57.6459 0.756429 -1.3826 0
M  V30 617 C 58.8939 1.51248 -1.34047 0
M  V30 618 C 59.2149 1.94875 0.0698372 0
M  V30 619 O 58.4849 1.67436 1.01696 0
M  V30 620 H 57.0649 0.561018 -0.493222 0
M  V30 621 H 59.7269 0.899347 -1.7291 0
M  V30 622 H 58.8229 2.40472 -1.98947 0
M  V30 623 N 59.124 1.23083 0.984299 0
M  V30 624 C 60.072 1.00593 2.09723 0
M  V30 625 C 61.066 -0.0538014 1.69315 0
M  V30 626 O 62.272 0.0993719 1.79725 0
M  V30 627 H 58.647 0.30817 0.685956 0
M  V30 628 H 60.618 1.95012 2.2586 0
M  V30 629 C 59.367 0.609601 3.42314 0
M  V30 630 H 58.69 1.41675 3.73856 0
M  V30 631 H 60.13 0.491726 4.21139 0
M  V30 632 C 58.589 -0.681745 3.2993 0
M  V30 633 O 59.119 -1.73192 3.62446 0
M  V30 634 N 57.325 -0.656178 2.83095 0
M  V30 635 H 56.872 0.198759 2.56832 0
M  V30 636 H 56.83 -1.52044 2.75191 0
M  V30 637 N 60.6021 -1.18246 1.0419 0
M  V30 638 C 61.8511 -1.87588 0.741194 0
M  V30 639 C 62.1641 -1.81303 -0.734066 0
M  V30 640 O 63.3701 -2.46019 -1.14834 0
M  V30 641 C 61.8261 -3.36538 1.27555 0
M  V30 642 C 61.4341 -3.51349 2.77953 0
M  V30 643 C 63.1781 -4.11273 1.05143 0
M  V30 644 C 61.0851 -4.94265 3.2474 0
M  V30 645 H 60.0151 -0.702622 0.273565 0
M  V30 646 H 62.6661 -1.33601 1.25789 0
M  V30 647 H 61.0481 -3.9 0.686703 0
M  V30 648 H 62.2221 -3.08153 3.42605 0
M  V30 649 H 60.5371 -2.90022 2.98791 0
M  V30 650 H 63.1341 -5.16689 1.37611 0
M  V30 651 H 63.4771 -4.16298 -0.0112774 0
M  V30 652 H 64.0101 -3.63987 1.60495 0
M  V30 653 H 60.7491 -4.94408 4.30396 0
M  V30 654 H 60.2691 -5.38172 2.64823 0
M  V30 655 H 61.9481 -5.62987 3.18834 0
M  V30 656 N 62.0802 -0.821533 -1.34494 0
M  V30 657 C 63.0102 -0.257138 -2.3208 0
M  V30 658 C 63.9912 0.625645 -1.58176 0
M  V30 659 O 65.1762 0.552811 -1.86166 0
M  V30 660 C 62.3062 0.582958 -3.42372 0
M  V30 661 C 61.2602 -0.202571 -4.2752 0
M  V30 662 C 60.5862 0.760179 -5.29269 0
M  V30 663 C 61.8862 -1.40998 -5.02908 0
M  V30 664 H 63.5802 -1.07247 -2.79532 0
M  V30 665 H 61.1262 -0.517163 -1.34393 0
M  V30 666 H 63.0792 0.987972 -4.09655 0
M  V30 667 H 61.8032 1.43133 -2.93565 0
M  V30 668 H 60.4622 -0.588936 -3.61838 0
M  V30 669 H 60.1102 1.60447 -4.76724 0
M  V30 670 H 59.8102 0.238809 -5.87115 0
M  V30 671 H 61.3342 1.16308 -5.9942 0
M  V30 672 H 62.7482 -1.07905 -5.63054 0
M  V30 673 H 61.1452 -1.86689 -5.70322 0
M  V30 674 H 62.2152 -2.1889 -4.32684 0
M  V30 675 N 63.5583 1.46682 -0.576371 0
M  V30 676 C 64.4903 2.28341 0.198231 0
M  V30 677 C 65.5033 1.38141 0.861453 0
M  V30 678 O 66.6923 1.62797 0.732082 0
M  V30 679 C 63.7923 3.12986 1.29972 0
M  V30 680 C 62.9653 4.31271 0.729639 0
M  V30 681 C 62.0243 4.97363 1.71803 0
M  V30 682 O 61.0503 5.55156 1.25658 0
M  V30 683 N 62.2523 4.93796 3.05198 0
M  V30 684 H 65.0173 2.9546 -0.502324 0
M  V30 685 H 62.5783 1.56525 -0.413715 0
M  V30 686 H 64.5703 3.54066 1.96008 0
M  V30 687 H 63.1403 2.47984 1.90323 0
M  V30 688 H 62.3603 3.94052 -0.108012 0
M  V30 689 H 63.6483 5.07739 0.328438 0
M  V30 690 H 63.0463 4.48077 3.45317 0
M  V30 691 H 61.6033 5.38837 3.6674 0
M  V30 692 N 65.0364 0.313813 1.54444 0
M  V30 693 C 66.2854 -0.292519 1.99568 0
M  V30 694 C 66.5984 -1.54011 1.20582 0
M  V30 695 O 67.8044 -2.22183 1.56035 0
M  V30 696 C 66.2604 -0.571752 3.55329 0
M  V30 697 C 65.8684 0.658229 4.43138 0
M  V30 698 C 67.6124 -1.13857 4.08946 0
M  V30 699 C 65.5194 0.351439 5.90355 0
M  V30 700 H 64.4494 -0.113079 0.745472 0
M  V30 701 H 67.1004 0.424518 1.78522 0
M  V30 702 H 65.4824 -1.34872 3.72325 0
M  V30 703 H 66.6564 1.43403 4.37918 0
M  V30 704 H 64.9714 1.14458 4.0036 0
M  V30 705 H 67.5684 -1.38257 5.16516 0
M  V30 706 H 67.9114 -2.08489 3.6033 0
M  V30 707 H 68.4444 -0.423015 3.95544 0
M  V30 708 H 65.1834 1.26667 6.43145 0
M  V30 709 H 64.7034 -0.386842 5.98551 0
M  V30 710 H 66.3824 -0.0423134 6.46986 0
M  V30 711 N 66.5145 -1.57545 0.0417849 0
M  V30 712 C 67.7625 -1.91937 -0.632829 0
M  V30 713 C 68.0835 -0.919978 -1.71934 0
M  V30 714 O 67.3535 0.0366064 -1.95866 0
M  V30 715 H 65.9335 -0.708493 -0.236742 0
M  V30 716 H 68.5955 -1.9468 0.0925745 0
M  V30 717 H 67.6915 -2.92912 -1.07746 0
M  V30 718 N 67.9926 0.231505 -1.5589 0
M  V30 719 C 69.2416 0.955346 -1.7764 0
M  V30 720 C 69.5546 1.85893 -0.608546 0
M  V30 721 O 70.7606 2.62067 -0.70943 0
M  V30 722 C 69.2166 1.74886 -3.14552 0
M  V30 723 C 68.8246 0.891915 -4.39032 0
M  V30 724 C 70.5686 2.46452 -3.45633 0
M  V30 725 C 68.4756 1.68221 -5.66971 0
M  V30 726 H 67.4056 0.360446 -0.662265 0
M  V30 727 H 70.0566 0.209516 -1.823 0
M  V30 728 H 68.4386 2.53723 -3.04041 0
M  V30 729 H 69.6126 0.144793 -4.60572 0
M  V30 730 H 67.9276 0.288863 -4.15397 0
M  V30 731 H 70.5246 3.06061 -4.38441 0
M  V30 732 H 70.8676 3.18841 -2.67668 0
M  V30 733 H 71.4006 1.74613 -3.57428 0
M  V30 734 H 68.1396 1.00178 -6.478 0
M  V30 735 H 67.6596 2.4042 -5.49507 0
M  V30 736 H 69.3386 2.24544 -6.06786 0
M  V30 737 N 69.4707 1.49531 0.497807 0
M  V30 738 C 70.4177 1.66436 1.59899 0
M  V30 739 C 71.3877 0.505793 1.58212 0
M  V30 740 O 72.5727 0.733202 1.7615 0
M  V30 741 C 69.7127 1.7399 2.98029 0
M  V30 742 C 68.8257 3.01172 3.09708 0
M  V30 743 C 67.9607 2.99686 4.38591 0
M  V30 744 C 66.9997 4.21434 4.43914 0
M  V30 745 N 66.1367 4.1784 5.64229 0
M  V30 746 H 70.9767 2.60459 1.44793 0
M  V30 747 H 68.5137 1.29137 0.704423 0
M  V30 748 H 70.4717 1.76352 3.78095 0
M  V30 749 H 69.1017 0.834301 3.11832 0
M  V30 750 H 68.1537 3.08408 2.22685 0
M  V30 751 H 69.4657 3.91165 3.09502 0
M  V30 752 H 68.6197 3.00628 5.2698 0
M  V30 753 H 67.3587 2.07477 4.41367 0
M  V30 754 H 66.3637 4.20733 3.53926 0
M  V30 755 H 67.5887 5.14839 4.42851 0
M  V30 756 H 65.5347 3.28469 5.67841 0
M  V30 757 H 65.4517 5.01571 5.65652 0
M  V30 758 H 66.7197 4.22889 6.54817 0
M  V30 759 N 70.9488 -0.749086 1.3866 0
M  V30 760 C 72.2258 -1.4992 1.25632 0
M  V30 761 C 72.6058 -2.10633 -0.140317 0
M  V30 762 O 71.9538 -1.97437 -1.15025 0
M  V30 763 C 72.1638 -2.56195 2.36992 0
M  V30 764 C 73.5118 -3.22972 2.75634 0
M  V30 765 O 74.5358 -2.66502 2.36337 0
M  V30 766 O 73.3948 -4.25122 3.43415 0
M  V30 767 H 70.4888 -0.665067 0.491544 0
M  V30 768 H 73.0348 -0.784113 1.50498 0
M  V30 769 H 71.8068 -2.09612 3.30422 0
M  V30 770 H 71.4298 -3.35279 2.13714 0
M  V30 771 N 72.4269 -1.23603 -0.977757 0
M  V30 772 C 73.6759 -1.06377 -1.71368 0
M  V30 773 C 73.9889 0.399062 -1.91486 0
M  V30 774 O 75.1949 0.691312 -2.62551 0
M  V30 775 C 73.6509 -1.85512 -3.08404 0
M  V30 776 C 73.2589 -3.36141 -2.96164 0
M  V30 777 C 75.0029 -1.76783 -3.85938 0
M  V30 778 C 72.9099 -4.07659 -4.28449 0
M  V30 779 H 71.8399 -0.394452 -0.642591 0
M  V30 780 H 74.4909 -1.47594 -1.09034 0
M  V30 781 H 72.8729 -1.37103 -3.71509 0
M  V30 782 H 74.0469 -3.92056 -2.42133 0
M  V30 783 H 72.3619 -3.45712 -2.32104 0
M  V30 784 H 74.9589 -2.27526 -4.83876 0
M  V30 785 H 75.3019 -0.731116 -4.0983 0
M  V30 786 H 75.8349 -2.22818 -3.2954 0
M  V30 787 H 72.5739 -5.11648 -4.09752 0
M  V30 788 H 72.0939 -3.5653 -4.82334 0
M  V30 789 H 73.7729 -4.141 -4.97122 0
M  V30 790 N 73.905 1.17692 -1.04816 0
M  V30 791 C 75.13 1.92327 -0.776207 0
M  V30 792 C 75.555 1.76082 0.661581 0
M  V30 793 O 74.913 1.076 1.45917 0
M  V30 794 C 74.961 3.41539 -1.15687 0
M  V30 795 O 74.065 4.11402 -0.286775 0
M  V30 796 H 73.406 0.599735 -0.284981 0
M  V30 797 H 75.936 1.49201 -1.4 0
M  V30 798 H 75.946 3.92269 -1.12202 0
M  V30 799 H 74.621 3.52684 -2.20425 0
M  V30 800 H 73.198 3.70939 -0.381903 0
M  V30 801 N 75.3831 0.828654 1.34056 0
M  V30 802 C 76.3301 0.252567 2.29414 0
M  V30 803 C 77.3001 -0.62588 1.53857 0
M  V30 804 O 78.4851 -0.566312 1.82202 0
M  V30 805 C 75.6251 -0.574831 3.40279 0
M  V30 806 C 74.7381 0.326499 4.30764 0
M  V30 807 C 73.8731 -0.511016 5.28736 0
M  V30 808 C 72.9121 0.389342 6.1086 0
M  V30 809 N 72.0491 -0.409439 7.00905 0
M  V30 810 H 76.8891 1.07108 2.78086 0
M  V30 811 H 74.4261 0.539677 1.36843 0
M  V30 812 H 76.3841 -1.06992 4.03248 0
M  V30 813 H 75.0141 -1.35841 2.92826 0
M  V30 814 H 74.0661 0.939837 3.68607 0
M  V30 815 H 75.3781 1.01857 4.88289 0
M  V30 816 H 74.5321 -1.07035 5.97184 0
M  V30 817 H 73.2711 -1.23657 4.71763 0
M  V30 818 H 72.2761 0.960769 5.4134 0
M  V30 819 H 73.5011 1.1131 6.69916 0
M  V30 820 H 71.4471 -1.11856 6.46393 0
M  V30 821 H 71.3641 0.224126 7.55668 0
M  V30 822 H 72.6321 -0.951336 7.73673 0
M  V30 823 N 76.8612 -1.46375 0.584142 0
M  V30 824 C 78.0862 -2.07268 0.0740405 0
M  V30 825 C 78.5112 -1.42979 -1.22223 0
M  V30 826 O 77.8692 -0.514092 -1.73859 0
M  V30 827 C 77.9172 -3.60518 -0.0767769 0
M  V30 828 O 77.0212 -3.96533 -1.13292 0
M  V30 829 H 76.3622 -0.660961 0.0634524 0
M  V30 830 H 78.8922 -1.87991 0.807492 0
M  V30 831 H 78.9022 -4.07021 -0.282489 0
M  V30 832 H 77.5772 -4.06702 0.86986 0
M  V30 833 H 76.1542 -3.61738 -0.905553 0
M  V30 834 N 78.3393 -0.321999 -1.54275 0
M  V30 835 C 79.2693 0.537411 -2.27231 0
M  V30 836 C 80.2503 1.12064 -1.27968 0
M  V30 837 O 81.4353 1.14606 -1.56777 0
M  V30 838 C 78.5653 1.69919 -3.02894 0
M  V30 839 C 77.5193 1.24534 -4.09482 0
M  V30 840 C 76.8453 2.49394 -4.72977 0
M  V30 841 C 78.1453 0.361335 -5.21049 0
M  V30 842 H 79.8393 -0.0711406 -2.99315 0
M  V30 843 H 77.3853 -0.0356555 -1.43956 0
M  V30 844 H 79.3383 2.30668 -3.52662 0
M  V30 845 H 78.0623 2.33431 -2.28424 0
M  V30 846 H 76.7213 0.660782 -3.60596 0
M  V30 847 H 76.3693 3.11265 -3.95124 0
M  V30 848 H 76.0693 2.19718 -5.44975 0
M  V30 849 H 77.5933 3.10908 -5.25517 0
M  V30 850 H 79.0073 0.875072 -5.66582 0
M  V30 851 H 77.4043 0.157428 -5.99893 0
M  V30 852 H 78.4743 -0.60822 -4.8107 0
M  V30 853 N 79.8174 1.5752 -0.0501392 0
M  V30 854 C 81.0454 1.96963 0.633492 0
M  V30 855 C 81.4604 0.927631 1.6444 0
M  V30 856 O 80.8174 -0.0882665 1.82286 0
M  V30 857 C 80.8684 3.36487 1.32132 0
M  V30 858 O 80.5894 4.36693 0.350894 0
M  V30 859 C 82.0904 3.90682 2.09481 0
M  V30 860 H 79.3104 0.648244 0.173266 0
M  V30 861 H 81.8544 2.0417 -0.116134 0
M  V30 862 H 80.0094 3.30434 2.02218 0
M  V30 863 H 80.4234 5.17702 0.841735 0
M  V30 864 H 81.8974 4.90591 2.5303 0
M  V30 865 H 82.3744 3.26053 2.94255 0
M  V30 866 H 82.9804 4.00069 1.44307 0
M  V30 867 N 81.2955 -0.223234 1.56011 0
M  V30 868 C 82.2435 -1.29627 1.93131 0
M  V30 869 C 83.2375 -1.48608 0.813146 0
M  V30 870 O 84.4435 -1.49802 0.997966 0
M  V30 871 H 80.8185 -0.434563 0.613726 0
M  V30 872 H 82.7895 -0.955995 2.82672 0
M  V30 873 C 81.5385 -2.63983 2.26292 0
M  V30 874 H 80.8615 -2.50185 3.11846 0
M  V30 875 H 82.3015 -3.3788 2.56151 0
M  V30 876 C 80.7605 -3.18866 1.08747 0
M  V30 877 O 81.2905 -4.00192 0.347727 0
M  V30 878 N 79.4965 -2.77217 0.871743 0
M  V30 879 H 79.0435 -2.1119 1.47501 0
M  V30 880 H 79.0015 -3.1428 0.0869905 0
M  V30 881 N 82.7736 -1.49793 -0.48987 0
M  V30 882 C 83.7036 -1.70201 -1.59856 0
M  V30 883 C 84.6846 -0.55076 -1.60937 0
M  V30 884 O 85.8696 -0.787841 -1.77501 0
M  V30 885 C 82.9996 -1.77882 -2.98287 0
M  V30 886 C 81.9536 -2.92907 -3.12073 0
M  V30 887 C 81.2796 -2.85712 -4.51965 0
M  V30 888 C 82.5796 -4.3369 -2.91051 0
M  V30 889 H 84.2736 -2.63025 -1.43032 0
M  V30 890 H 81.8196 -1.26574 -0.686664 0
M  V30 891 H 83.7726 -1.90744 -3.75759 0
M  V30 892 H 82.4966 -0.816653 -3.16225 0
M  V30 893 H 81.1556 -2.79665 -2.37029 0
M  V30 894 H 80.8036 -1.8738 -4.66795 0
M  V30 895 H 80.5036 -3.62921 -4.62128 0
M  V30 896 H 82.0276 -3.00598 -5.31482 0
M  V30 897 H 83.4416 -4.47555 -3.58284 0
M  V30 898 H 81.8386 -5.12205 -3.12675 0
M  V30 899 H 82.9086 -4.47362 -1.87071 0
M  V30 900 N 84.2517 0.741722 -1.39055 0
M  V30 901 C 85.4767 1.53607 -1.39354 0
M  V30 902 C 85.9017 1.88096 0.0116905 0
M  V30 903 O 85.2597 1.5143 0.996924 0
M  V30 904 C 85.3077 2.80441 -2.26682 0
M  V30 905 O 84.4117 3.76088 -1.69208 0
M  V30 906 H 83.7527 0.464142 -0.474835 0
M  V30 907 H 86.2827 0.915665 -1.82967 0
M  V30 908 H 86.2927 3.29246 -2.40959 0
M  V30 909 H 84.9677 2.5467 -3.2881 0
M  V30 910 H 83.5447 3.34833 -1.64138 0
M  V30 911 N 85.7298 1.2412 0.971189 0
M  V30 912 C 86.6768 1.0305 2.06517 0
M  V30 913 C 87.6468 -0.0550666 1.66009 0
M  V30 914 O 88.8318 0.0988688 1.90544 0
M  V30 915 C 85.9718 0.637653 3.39158 0
M  V30 916 C 85.0848 1.79633 3.92882 0
M  V30 917 C 84.2198 1.34939 5.13775 0
M  V30 918 C 83.2588 2.47823 5.59687 0
M  V30 919 N 82.3958 2.04022 6.71803 0
M  V30 920 H 87.2358 1.96685 2.23873 0
M  V30 921 H 84.7728 0.979694 1.09729 0
M  V30 922 H 86.7308 0.390931 4.15364 0
M  V30 923 H 85.3608 -0.261693 3.21737 0
M  V30 924 H 84.4128 2.15681 3.13346 0
M  V30 925 H 85.7248 2.64466 4.22918 0
M  V30 926 H 84.8788 1.06134 5.97345 0
M  V30 927 H 83.6178 0.471557 4.85415 0
M  V30 928 H 82.6228 2.77392 4.74693 0
M  V30 929 H 83.8478 3.36158 5.90063 0
M  V30 930 H 81.7938 1.18632 6.45184 0
M  V30 931 H 81.7108 2.82409 7.01271 0
M  V30 932 H 82.9788 1.78347 7.58823 0
M  V30 933 N 87.2079 -1.17134 1.05439 0
M  V30 934 C 88.4539 -1.87733 0.767077 0
M  V30 935 C 88.7869 -1.8098 -0.704253 0
M  V30 936 O 88.0619 -1.21951 -1.5152 0
M  V30 937 C 88.3449 -3.37659 1.25133 0
M  V30 938 C 88.1979 -3.53149 2.78578 0
M  V30 939 C 89.5169 -4.31768 0.852324 0
M  V30 940 H 86.6359 -0.681687 0.280129 0
M  V30 941 H 89.2779 -1.37732 1.30881 0
M  V30 942 H 87.4279 -3.80373 0.790469 0
M  V30 943 H 89.0999 -3.19434 3.32806 0
M  V30 944 H 87.3429 -2.95345 3.17732 0
M  V30 945 H 88.0139 -4.58403 3.07523 0
M  V30 946 H 90.4899 -3.96909 1.24911 0
M  V30 947 H 89.3659 -5.35199 1.21873 0
M  V30 948 H 89.6269 -4.41429 -0.243485 0
M  V30 949 N 88.686 -0.835752 -1.33615 0
M  V30 950 C 89.916 -0.442701 -2.01801 0
M  V30 951 C 90.324 0.959807 -1.63047 0
M  V30 952 O 89.667 1.63468 -0.838088 0
M  V30 953 C 89.729 -0.480125 -3.56279 0
M  V30 954 C 89.393 -1.8382 -4.18401 0
M  V30 955 C 90.39 -2.80097 -4.37998 0
M  V30 956 C 88.075 -2.13019 -4.54894 0
M  V30 957 C 90.069 -4.03736 -4.9323 0
M  V30 958 C 87.756 -3.36916 -5.09834 0
M  V30 959 C 88.754 -4.32091 -5.28948 0
M  V30 960 O 88.442 -5.53797 -5.82721 0
M  V30 961 H 88.174 -0.17441 -0.653114 0
M  V30 962 H 90.728 -1.129 -1.71589 0
M  V30 963 H 88.958 0.262931 -3.85805 0
M  V30 964 H 90.647 -0.105335 -4.05763 0
M  V30 965 H 91.413 -2.58838 -4.10156 0
M  V30 966 H 87.292 -1.39733 -4.39313 0
M  V30 967 H 90.836 -4.78034 -5.08064 0
M  V30 968 H 86.733 -3.58033 -5.37106 0
M  V30 969 H 87.501 -5.55494 -6.0114 0
M  V30 970 N 90.1641 1.46063 -0.591896 0
M  V30 971 C 91.4121 2.01938 -0.0808391 0
M  V30 972 C 91.7331 1.46475 1.28725 0
M  V30 973 O 91.0031 0.652944 1.84698 0
M  V30 974 H 89.5831 0.746516 -0.0268938 0
M  V30 975 H 92.2451 1.79055 -0.769752 0
M  V30 976 H 91.3411 3.12094 -0.0187578 0
M  V30 977 N 91.6422 0.330177 1.54103 0
M  V30 978 C 93.0532 -0.15652 1.86043 0
M  V30 979 C 93.4042 -1.51086 1.2517 0
M  V30 980 O 92.5292 -2.09023 0.560217 0
M  V30 981 C 93.1242 -0.290784 3.3755 0
M  V30 982 C 91.6832 -0.721705 3.69416 0
M  V30 983 C 90.8302 0.152622 2.7688 0
M  V30 984 H 93.7812 0.550237 1.48856 0
M  V30 985 H 93.8022 -1.12058 3.63625 0
M  V30 986 H 93.3142 0.695068 3.81825 0
M  V30 987 H 91.4152 -1.71706 3.30678 0
M  V30 988 H 91.5282 -0.520869 4.7626 0
M  V30 989 H 89.8922 -0.372894 2.51956 0
M  V30 990 H 90.6752 1.13536 3.23982 0
M  V30 991 N 93.1203 -1.57491 0.0584922 0
M  V30 992 C 94.3663 -1.93264 -0.614558 0
M  V30 993 C 94.6993 -0.937717 -1.7006 0
M  V30 994 O 93.9743 0.0351652 -1.94468 0
M  V30 995 C 94.2573 -3.3938 -1.20386 0
M  V30 996 C 94.1103 -4.49625 -0.125375 0
M  V30 997 C 95.4293 -3.86039 -2.11334 0
M  V30 998 H 92.5483 -0.702791 -0.221933 0
M  V30 999 H 95.1903 -1.8961 0.12175 0
M  V30 1000 H 93.3403 -3.42626 -1.83139 0
M  V30 1001 H 95.0123 -4.58506 0.506971 0
M  V30 1002 H 93.2553 -4.30354 0.545672 0
M  V30 1003 H 93.9263 -5.48967 -0.577861 0
M  V30 1004 H 96.4023 -3.84716 -1.58534 0
M  V30 1005 H 95.2783 -4.88914 -2.49507 0
M  V30 1006 H 95.5393 -3.23215 -3.01636 0
M  V30 1007 N 94.5984 0.214957 -1.56127 0
M  V30 1008 C 95.8454 0.938372 -1.79446 0
M  V30 1009 C 96.1734 1.8407 -0.628378 0
M  V30 1010 O 95.4284 1.91837 0.386925 0
M  V30 1011 C 95.7274 1.80314 -3.0858 0
M  V30 1012 C 95.3934 1.05349 -4.3842 0
M  V30 1013 C 94.0554 0.846435 -4.73697 0
M  V30 1014 C 96.4074 0.524588 -5.18553 0
M  V30 1015 C 93.7354 0.098683 -5.86617 0
M  V30 1016 C 96.0874 -0.209853 -6.32252 0
M  V30 1017 C 94.7514 -0.428102 -6.66126 0
M  V30 1018 H 94.0214 0.343375 -0.656639 0
M  V30 1019 H 96.6684 0.206077 -1.90388 0
M  V30 1020 H 94.9734 2.6035 -2.92789 0
M  V30 1021 H 96.6704 2.36513 -3.23825 0
M  V30 1022 H 93.2604 1.22486 -4.10725 0
M  V30 1023 H 97.4444 0.672008 -4.91729 0
M  V30 1024 H 92.7004 -0.0805753 -6.11347 0
M  V30 1025 H 96.8744 -0.627157 -6.9357 0
M  V30 1026 H 94.5014 -1.00944 -7.53468 0
M  V30 1027 N 96.0765 1.50051 0.48192 0
M  V30 1028 C 97.3045 1.64237 1.25832 0
M  V30 1029 C 97.7195 0.321336 1.86045 0
M  V30 1030 O 97.0765 -0.695478 1.68729 0
M  V30 1031 C 97.1275 2.72548 2.37487 0
M  V30 1032 O 96.8485 3.99529 1.79745 0
M  V30 1033 C 98.3495 2.9761 3.28547 0
M  V30 1034 H 95.5695 0.55237 0.380957 0
M  V30 1035 H 98.1135 1.96207 0.576467 0
M  V30 1036 H 96.2685 2.43303 3.01467 0
M  V30 1037 H 96.6825 4.59342 2.5319 0
M  V30 1038 H 98.1565 3.77084 4.03127 0
M  V30 1039 H 98.6335 2.0826 3.86684 0
M  V30 1040 H 99.2395 3.28345 2.70314 0
M  V30 1041 N 97.5546 -0.734337 1.39446 0
M  V30 1042 C 98.4846 -1.86155 1.40955 0
M  V30 1043 C 99.4656 -1.67898 0.272827 0
M  V30 1044 O 100.651 -1.88207 0.478743 0
M  V30 1045 C 97.7806 -3.23912 1.25294 0
M  V30 1046 C 96.7346 -3.56808 2.36373 0
M  V30 1047 C 96.0606 -4.93508 2.058 0
M  V30 1048 C 97.3606 -3.59713 3.78687 0
M  V30 1049 H 99.0546 -1.8515 2.35287 0
M  V30 1050 H 96.6006 -0.889367 1.13253 0
M  V30 1051 H 98.5536 -4.02443 1.2497 0
M  V30 1052 H 97.2776 -3.25446 0.274308 0
M  V30 1053 H 95.9366 -2.80606 2.35914 0
M  V30 1054 H 95.5846 -4.91623 1.06374 0
M  V30 1055 H 95.2846 -5.16486 2.80208 0
M  V30 1056 H 96.8086 -5.74396 2.07128 0
M  V30 1057 H 98.2226 -4.2832 3.81071 0
M  V30 1058 H 96.6196 -3.94209 4.52459 0
M  V30 1059 H 97.6896 -2.59504 4.09617 0
M  V30 1060 N 99.0327 -1.24633 -0.964593 0
M  V30 1061 C 100.263 -1.11339 -1.74032 0
M  V30 1062 C 100.671 0.336593 -1.86182 0
M  V30 1063 O 100.014 1.24389 -1.35178 0
M  V30 1064 C 100.076 -1.68284 -3.1768 0
M  V30 1065 C 99.7397 -3.17196 -3.28992 0
M  V30 1066 C 100.737 -4.14308 -3.14078 0
M  V30 1067 C 98.4217 -3.57215 -3.53133 0
M  V30 1068 C 100.416 -5.4942 -3.23135 0
M  V30 1069 C 98.1027 -4.92468 -3.61827 0
M  V30 1070 C 99.1007 -5.8838 -3.46841 0
M  V30 1071 O 98.7887 -7.21173 -3.55197 0
M  V30 1072 H 98.5207 -0.389551 -0.552472 0
M  V30 1073 H 101.075 -1.65282 -1.21946 0
M  V30 1074 H 99.3047 -1.08777 -3.71085 0
M  V30 1075 H 100.994 -1.50234 -3.77074 0
M  V30 1076 H 101.76 -3.84731 -2.95308 0
M  V30 1077 H 97.6387 -2.83063 -3.63863 0
M  V30 1078 H 101.183 -6.24263 -3.11355 0
M  V30 1079 H 97.0797 -5.21714 -3.80111 0
M  V30 1080 H 97.8477 -7.29135 -3.71892 0
M  V30 1081 N 100.511 1.16574 -1.06058 0
M  V30 1082 C 101.758 1.87047 -0.775873 0
M  V30 1083 C 102.086 1.81562 0.697534 0
M  V30 1084 O 101.341 1.22445 1.52662 0
M  V30 1085 C 101.64 3.36195 -1.21275 0
M  V30 1086 C 101.306 3.6188 -2.68986 0
M  V30 1087 C 99.9678 3.68599 -3.09335 0
M  V30 1088 C 102.32 3.72648 -3.64394 0
M  V30 1089 C 99.6478 3.83584 -4.43937 0
M  V30 1090 C 102 3.89154 -4.98741 0
M  V30 1091 C 100.664 3.94114 -5.3873 0
M  V30 1092 H 99.9338 0.684452 -0.283912 0
M  V30 1093 H 102.581 1.37853 -1.32925 0
M  V30 1094 H 100.886 3.87505 -0.578528 0
M  V30 1095 H 102.583 3.89103 -0.969542 0
M  V30 1096 H 99.1728 3.57281 -2.36744 0
M  V30 1097 H 103.357 3.66769 -3.34356 0
M  V30 1098 H 98.6128 3.85677 -4.74409 0
M  V30 1099 H 102.787 3.96427 -5.72554 0
M  V30 1100 H 100.414 4.05478 -6.43033 0
M  V30 1101 N 101.989 0.842826 1.3317 0
M  V30 1102 C 103.237 0.439577 1.97262 0
M  V30 1103 C 103.558 -1.00548 1.67078 0
M  V30 1104 O 102.828 -1.70098 0.971779 0
M  V30 1105 H 101.408 0.159558 0.72976 0
M  V30 1106 H 104.07 1.07665 1.62463 0
M  V30 1107 H 103.166 0.574886 3.0676 0
M  V30 1108 N 103.467 -1.45747 0.599634 0
M  V30 1109 C 104.397 -2.33235 -0.111306 0
M  V30 1110 C 105.378 -1.46359 -0.866781 0
M  V30 1111 O 106.563 -1.75146 -0.838904 0
M  V30 1112 C 103.693 -3.28932 -1.11451 0
M  V30 1113 C 102.647 -4.25381 -0.472772 0
M  V30 1114 C 101.973 -5.1071 -1.58365 0
M  V30 1115 C 103.273 -5.18831 0.600948 0
M  V30 1116 H 104.967 -2.92927 0.61919 0
M  V30 1117 H 102.513 -1.40857 0.299215 0
M  V30 1118 H 104.466 -3.89002 -1.62036 0
M  V30 1119 H 103.19 -2.67381 -1.8755 0
M  V30 1120 H 101.849 -3.66598 0.0121472 0
M  V30 1121 H 101.497 -4.45533 -2.33473 0
M  V30 1122 H 101.197 -5.7604 -1.15982 0
M  V30 1123 H 102.721 -5.73647 -2.09194 0
M  V30 1124 H 104.135 -5.73019 0.179491 0
M  V30 1125 H 102.532 -5.92595 0.946076 0
M  V30 1126 H 103.602 -4.6174 1.48068 0
M  V30 1127 N 104.945 -0.338344 -1.53925 0
M  V30 1128 C 105.892 0.520845 -2.24846 0
M  V30 1129 C 106.862 1.09976 -1.24477 0
M  V30 1130 O 108.047 1.13735 -1.53196 0
M  V30 1131 C 105.187 1.6685 -3.02084 0
M  V30 1132 C 104.3 1.11739 -4.17299 0
M  V30 1133 C 103.435 2.23193 -4.82036 0
M  V30 1134 C 102.474 1.65407 -5.89328 0
M  V30 1135 N 101.611 2.70582 -6.47866 0
M  V30 1136 H 106.451 -0.0904881 -2.97863 0
M  V30 1137 H 103.988 -0.0564282 -1.46992 0
M  V30 1138 H 105.946 2.34407 -3.45122 0
M  V30 1139 H 104.576 2.2509 -2.31375 0
M  V30 1140 H 103.628 0.332919 -3.7894 0
M  V30 1141 H 104.94 0.654677 -4.94485 0
M  V30 1142 H 104.094 2.98626 -5.28117 0
M  V30 1143 H 102.833 2.72807 -4.04262 0
M  V30 1144 H 101.838 0.884779 -5.42634 0
M  V30 1145 H 103.063 1.16652 -6.69006 0
M  V30 1146 H 101.009 3.1946 -5.72959 0
M  V30 1147 H 100.926 2.28917 -7.20509 0
M  V30 1148 H 102.194 3.45799 -6.98601 0
M  V30 1149 N 106.423 1.57458 -0.0668435 0
M  V30 1150 C 107.834 1.80776 0.466558 0
M  V30 1151 C 108.185 0.980361 1.69951 0
M  V30 1152 O 107.31 0.201441 2.1546 0
M  V30 1153 C 107.905 3.27881 0.85321 0
M  V30 1154 C 106.464 3.52062 1.3315 0
M  V30 1155 C 105.611 2.75513 0.314264 0
M  V30 1156 H 108.562 1.5598 -0.292588 0
M  V30 1157 H 108.583 3.39659 1.715 0
M  V30 1158 H 108.095 3.88075 -0.0443439 0
M  V30 1159 H 106.196 2.97167 2.24772 0
M  V30 1160 H 106.309 4.60762 1.31285 0
M  V30 1161 H 104.673 2.42123 0.790492 0
M  V30 1162 H 105.456 3.38442 -0.575477 0
M  V30 1163 N 107.901 -0.206675 1.56239 0
M  V30 1164 C 109.15 -0.926964 1.79138 0
M  V30 1165 C 109.463 -1.84901 0.638043 0
M  V30 1166 O 110.669 -2.60906 0.751033 0
M  V30 1167 C 109.125 -1.6986 3.17294 0
M  V30 1168 C 108.733 -0.821956 4.40395 0
M  V30 1169 C 110.477 -2.40922 3.4951 0
M  V30 1170 C 108.384 -1.59179 5.69575 0
M  V30 1171 H 107.314 -0.349864 0.667915 0
M  V30 1172 H 109.965 -0.180487 1.8261 0
M  V30 1173 H 108.347 -2.48853 3.08039 0
M  V30 1174 H 109.521 -0.0715019 4.60745 0
M  V30 1175 H 107.836 -0.222741 4.15804 0
M  V30 1176 H 110.433 -2.99047 4.43255 0
M  V30 1177 H 110.776 -3.14542 2.72707 0
M  V30 1178 H 111.309 -1.68905 3.60161 0
M  V30 1179 H 108.048 -0.898589 6.49312 0
M  V30 1180 H 107.568 -2.31648 5.53262 0
M  V30 1181 H 109.247 -2.14862 6.10281 0
M  V30 1182 N 109.379 -1.50304 -0.473955 0
M  V30 1183 C 110.625 -1.61389 -1.22806 0
M  V30 1184 C 110.958 -0.311955 -1.91678 0
M  V30 1185 O 110.233 0.686384 -1.81986 0
M  V30 1186 C 110.516 -2.79219 -2.27396 0
M  V30 1187 C 110.369 -4.19286 -1.62848 0
M  V30 1188 C 111.688 -2.92614 -3.28732 0
M  V30 1189 H 108.807 -0.587399 -0.445119 0
M  V30 1190 H 111.449 -1.82681 -0.522265 0
M  V30 1191 H 109.599 -2.61195 -2.87592 0
M  V30 1192 H 111.271 -4.48892 -1.06271 0
M  V30 1193 H 109.514 -4.23677 -0.931693 0
M  V30 1194 H 110.185 -4.97655 -2.38838 0
M  V30 1195 H 112.661 -3.09105 -2.78556 0
M  V30 1196 H 111.537 -3.76688 -3.99246 0
M  V30 1197 H 111.798 -2.03107 -3.92683 0
M  V30 1198 N 110.857 0.726932 -1.39834 0
M  V30 1199 C 112.103 1.48884 -1.377 0
M  V30 1200 C 112.436 1.94185 0.0244852 0
M  V30 1201 O 111.711 1.67361 0.990986 0
M  V30 1202 C 111.994 2.72288 -2.3565 0
M  V30 1203 C 111.847 2.32956 -3.84775 0
M  V30 1204 C 113.166 3.74414 -2.31306 0
M  V30 1205 H 110.285 0.540062 -0.5015 0
M  V30 1206 H 112.927 0.830547 -1.70886 0
M  V30 1207 H 111.077 3.28457 -2.07481 0
M  V30 1208 H 112.749 1.82356 -4.23726 0
M  V30 1209 H 110.992 1.65088 -4.01159 0
M  V30 1210 H 111.663 3.21362 -4.4881 0
M  V30 1211 H 114.139 3.27849 -2.56231 0
M  V30 1212 H 113.015 4.58414 -3.01907 0
M  V30 1213 H 113.276 4.21909 -1.32081 0
M  V30 1214 N 112.336 1.25143 0.95797 0
M  V30 1215 C 113.266 1.07711 2.07173 0
M  V30 1216 C 114.247 -0.0128462 1.70095 0
M  V30 1217 O 115.432 0.156061 1.93572 0
M  V30 1218 C 112.562 0.691503 3.40346 0
M  V30 1219 C 111.516 1.73132 3.9142 0
M  V30 1220 C 110.842 1.20049 5.21049 0
M  V30 1221 C 112.142 3.1294 4.1817 0
M  V30 1222 H 113.836 2.00873 2.22014 0
M  V30 1223 H 111.382 0.967191 1.06684 0
M  V30 1224 H 113.335 0.556505 4.17709 0
M  V30 1225 H 112.059 -0.275819 3.25433 0
M  V30 1226 H 110.718 1.8547 3.16222 0
M  V30 1227 H 110.366 0.223499 5.02503 0
M  V30 1228 H 110.066 1.89545 5.56189 0
M  V30 1229 H 111.59 1.07782 6.01012 0
M  V30 1230 H 113.004 3.03775 4.86203 0
M  V30 1231 H 111.401 3.79875 4.64559 0
M  V30 1232 H 112.471 3.6025 3.24573 0
M  V30 1233 N 113.814 -1.1601 1.06675 0
M  V30 1234 C 114.764 -2.18512 0.650888 0
M  V30 1235 C 115.748 -1.57677 -0.320441 0
M  V30 1236 O 116.94 -1.76482 -0.135266 0
M  V30 1237 C 114.069 -3.43273 0.0429255 0
M  V30 1238 C 113.155 -4.11176 1.03898 0
M  V30 1239 N 113.546 -4.54672 2.216 0
M  V30 1240 C 111.844 -4.37417 0.870779 0
M  V30 1241 C 112.545 -5.07248 2.84736 0
M  V30 1242 N 111.521 -5.0037 2.12441 0
M  V30 1243 H 115.323 -2.49863 1.54745 0
M  V30 1244 H 112.837 -1.32503 0.938975 0
M  V30 1245 H 114.834 -4.16006 -0.272857 0
M  V30 1246 H 113.494 -3.13408 -0.84884 0
M  V30 1247 H 114.505 -4.4828 2.59356 0
M  V30 1248 H 111.182 -4.17488 0.0313293 0
M  V30 1249 H 112.572 -5.50912 3.84636 0
M  V30 1250 N 115.292 -0.849877 -1.32721 0
M  V30 1251 C 116.54 -0.450032 -1.97026 0
M  V30 1252 C 116.861 0.996604 -1.67609 0
M  V30 1253 O 116.131 1.6958 -0.980786 0
M  V30 1254 H 114.711 -0.163426 -0.728904 0
M  V30 1255 H 117.373 -1.08526 -1.6189 0
M  V30 1256 H 116.469 -0.591146 -3.0645 0
M  V30 1257 N 116.77 1.45427 -0.607355 0
M  V30 1258 C 118 2.06314 -0.108656 0
M  V30 1259 C 118.408 1.45269 1.21217 0
M  V30 1260 O 117.751 0.561115 1.74921 0
M  V30 1261 C 117.813 3.59345 0.105618 0
M  V30 1262 C 117.477 4.42723 -1.13337 0
M  V30 1263 C 118.474 4.77715 -2.05145 0
M  V30 1264 C 116.159 4.83478 -1.36213 0
M  V30 1265 C 118.153 5.52317 -3.18158 0
M  V30 1266 C 115.84 5.57835 -2.49527 0
M  V30 1267 C 116.838 5.92171 -3.40327 0
M  V30 1268 O 116.526 6.65019 -4.51669 0
M  V30 1269 H 116.258 0.672782 -0.0658842 0
M  V30 1270 H 118.812 1.87664 -0.834945 0
M  V30 1271 H 117.042 3.76394 0.886796 0
M  V30 1272 H 118.731 4.02076 0.555886 0
M  V30 1273 H 119.497 4.46787 -1.88697 0
M  V30 1274 H 115.376 4.56188 -0.664362 0
M  V30 1275 H 118.92 5.79036 -3.89054 0
M  V30 1276 H 114.817 5.88177 -2.65928 0
M  V30 1277 H 115.585 6.83469 -4.50348 0
M  V30 1278 N 118.248 0.346503 1.53744 0
M  V30 1279 C 119.158 -0.517293 2.28826 0
M  V30 1280 C 120.174 -1.10935 1.3405 0
M  V30 1281 O 121.35 -1.1244 1.6709 0
M  V30 1282 C 118.415 -1.65098 3.04866 0
M  V30 1283 C 117.476 -1.0884 4.15274 0
M  V30 1284 C 116.709 -2.16806 4.87679 0
M  V30 1285 O 116.932 -3.3758 4.59778 0
M  V30 1286 O 115.866 -1.80934 5.74061 0
M  V30 1287 H 119.692 0.0931396 3.03557 0
M  V30 1288 H 117.277 0.111458 1.48984 0
M  V30 1289 H 119.159 -2.31053 3.5241 0
M  V30 1290 H 117.834 -2.24717 2.32989 0
M  V30 1291 H 116.741 -0.3933 3.72027 0
M  V30 1292 H 118.074 -0.537036 4.89261 0
M  V30 1293 N 119.726 -1.57421 0.075193 0
M  V30 1294 C 120.689 -2.11791 -0.876203 0
M  V30 1295 C 121.689 -1.04268 -1.22412 0
M  V30 1296 O 122.879 -1.30242 -1.15684 0
M  V30 1297 C 120.011 -2.62207 -2.17854 0
M  V30 1298 H 121.204 -2.9716 -0.40444 0
M  V30 1299 H 118.757 -1.55333 -0.173557 0
M  V30 1300 H 119.492 -1.803 -2.6956 0
M  V30 1301 H 119.277 -3.40802 -1.93897 0
M  V30 1302 H 120.767 -3.04335 -2.85955 0
M  V30 1303 N 121.204 0.198386 -1.56346 0
M  V30 1304 C 122.45 0.920648 -1.80698 0
M  V30 1305 C 122.783 1.83045 -0.648697 0
M  V30 1306 O 122.058 1.91308 0.350925 0
M  V30 1307 C 122.341 1.73971 -3.15287 0
M  V30 1308 C 122.194 0.85485 -4.41602 0
M  V30 1309 C 123.513 2.71296 -3.46535 0
M  V30 1310 H 120.632 0.333261 -0.657348 0
M  V30 1311 H 123.274 0.188198 -1.89066 0
M  V30 1312 H 121.424 2.36416 -3.08285 0
M  V30 1313 H 123.096 0.245362 -4.60647 0
M  V30 1314 H 121.339 0.161398 -4.335 0
M  V30 1315 H 122.01 1.46286 -5.32264 0
M  V30 1316 H 124.486 2.18983 -3.53816 0
M  V30 1317 H 123.362 3.2569 -4.41834 0
M  V30 1318 H 123.623 3.5018 -2.69864 0
M  V30 1319 N 122.682 1.50554 0.465978 0
M  V30 1320 C 123.629 1.6979 1.56333 0
M  V30 1321 C 124.599 0.539239 1.57103 0
M  V30 1322 O 125.784 0.770401 1.74555 0
M  V30 1323 C 122.924 1.80273 2.94271 0
M  V30 1324 C 122.037 3.07674 3.0325 0
M  V30 1325 C 121.172 3.08922 4.32135 0
M  V30 1326 C 120.211 4.30755 4.34875 0
M  V30 1327 N 119.348 4.29714 5.55239 0
M  V30 1328 H 124.188 2.63472 1.39235 0
M  V30 1329 H 121.725 1.30602 0.676873 0
M  V30 1330 H 123.683 1.84332 3.74269 0
M  V30 1331 H 122.313 0.900258 3.09992 0
M  V30 1332 H 121.365 3.13062 2.16094 0
M  V30 1333 H 122.677 3.97642 3.01135 0
M  V30 1334 H 121.831 3.11738 5.20485 0
M  V30 1335 H 120.57 2.16792 4.36866 0
M  V30 1336 H 119.575 4.28146 3.44922 0
M  V30 1337 H 120.8 5.24117 4.31831 0
M  V30 1338 H 118.746 3.4044 5.60746 0
M  V30 1339 H 118.663 5.13456 5.54886 0
M  V30 1340 H 119.931 4.36683 6.457 0
M  V30 1341 N 124.16 -0.719506 1.40217 0
M  V30 1342 C 125.07 -1.86378 1.42479 0
M  V30 1343 C 126.086 -1.71073 0.317834 0
M  V30 1344 O 127.262 -1.93406 0.561794 0
M  V30 1345 C 124.327 -3.22136 1.28178 0
M  V30 1346 C 123.388 -3.49723 2.48982 0
M  V30 1347 C 122.621 -4.79004 2.35353 0
M  V30 1348 O 122.844 -5.53821 1.36524 0
M  V30 1349 O 121.778 -5.06839 3.2465 0
M  V30 1350 H 125.604 -1.87425 2.38968 0
M  V30 1351 H 123.189 -0.869405 1.21498 0
M  V30 1352 H 125.071 -4.03234 1.22395 0
M  V30 1353 H 123.746 -3.21825 0.347934 0
M  V30 1354 H 122.653 -2.6865 2.60342 0
M  V30 1355 H 123.986 -3.54828 3.41113 0
M  V30 1356 N 125.638 -1.25649 -0.95132 0
M  V30 1357 C 126.601 -1.06399 -2.03007 0
M  V30 1358 C 127.601 -0.0156794 -1.60792 0
M  V30 1359 O 128.791 -0.25817 -1.72276 0
M  V30 1360 C 125.923 -0.616184 -3.35285 0
M  V30 1361 H 127.116 -2.02164 -2.21517 0
M  V30 1362 H 124.669 -1.08103 -1.12887 0
M  V30 1363 H 125.404 0.343917 -3.22471 0
M  V30 1364 H 125.189 -1.37301 -3.67275 0
M  V30 1365 H 126.679 -0.503032 -4.14559 0
M  V30 1366 N 127.117 1.15442 -1.07289 0
M  V30 1367 C 128.047 2.22312 -0.714107 0
M  V30 1368 C 129.028 1.67467 0.298155 0
M  V30 1369 O 130.213 1.93445 0.171048 0
M  V30 1370 C 127.343 3.47124 -0.110448 0
M  V30 1371 C 126.297 4.14926 -1.04979 0
M  V30 1372 C 125.623 5.33807 -0.308924 0
M  V30 1373 C 126.923 4.64762 -2.38314 0
M  V30 1374 H 128.617 2.5258 -1.6076 0
M  V30 1375 H 126.163 1.21404 -0.77441 0
M  V30 1376 H 128.116 4.21124 0.152482 0
M  V30 1377 H 126.84 3.16187 0.81812 0
M  V30 1378 H 125.499 3.42866 -1.29764 0
M  V30 1379 H 125.147 4.99126 0.623084 0
M  V30 1380 H 124.847 5.80113 -0.935036 0
M  V30 1381 H 126.371 6.10576 -0.0537771 0
M  V30 1382 H 127.785 5.30292 -2.1786 0
M  V30 1383 H 126.182 5.21728 -2.96514 0
M  V30 1384 H 127.252 3.80434 -3.00663 0
M  V30 1385 N 128.595 0.856903 1.32268 0
M  V30 1386 C 129.844 0.457599 1.96441 0
M  V30 1387 C 130.157 -0.992426 1.68553 0
M  V30 1388 O 131.363 -1.49727 2.26482 0
M  V30 1389 C 129.819 0.767358 3.51624 0
M  V30 1390 C 129.427 2.23326 3.88367 0
M  V30 1391 C 131.171 0.435887 4.22256 0
M  V30 1392 C 129.078 2.48613 5.36606 0
M  V30 1393 H 128.008 0.167387 0.735185 0
M  V30 1394 H 130.659 1.048 1.5063 0
M  V30 1395 H 129.041 0.106367 3.95857 0
M  V30 1396 H 130.215 2.93623 3.55137 0
M  V30 1397 H 128.53 2.52948 3.30766 0
M  V30 1398 H 131.127 0.602202 5.31298 0
M  V30 1399 H 131.47 -0.622672 4.11617 0
M  V30 1400 H 132.003 1.05286 3.83614 0
M  V30 1401 H 128.742 3.53101 5.52268 0
M  V30 1402 H 128.262 1.82896 5.71235 0
M  V30 1403 H 129.941 2.32676 6.03714 0
M  V30 1404 N 130.073 -1.45103 0.615059 0
M  V30 1405 C 131.35 -1.95549 0.0448276 0
M  V30 1406 C 131.73 -1.55737 -1.4251 0
M  V30 1407 O 131.078 -0.823556 -2.13143 0
M  V30 1408 C 131.288 -3.48098 0.250785 0
M  V30 1409 C 132.636 -4.24384 0.135509 0
M  V30 1410 O 133.66 -3.55738 0.181299 0
M  V30 1411 O 132.519 -5.46493 0.0268878 0
M  V30 1412 H 129.613 -0.8264 -0.0314845 0
M  V30 1413 H 132.159 -1.55232 0.685642 0
M  V30 1414 H 130.931 -3.7007 1.27139 0
M  V30 1415 H 130.554 -3.95323 -0.424937 0
M  V30 1416 N 131.551 -0.354651 -1.53558 0
M  V30 1417 C 132.481 0.489091 -2.2832 0
M  V30 1418 C 133.462 1.09324 -1.30316 0
M  V30 1419 O 134.647 1.11255 -1.59173 0
M  V30 1420 C 131.777 1.63456 -3.0643 0
M  V30 1421 C 130.731 1.1582 -4.12031 0
M  V30 1422 C 130.057 2.39305 -4.7816 0
M  V30 1423 C 131.357 0.250731 -5.21698 0
M  V30 1424 H 133.051 -0.134614 -2.99097 0
M  V30 1425 H 130.597 -0.0661826 -1.43848 0
M  V30 1426 H 132.55 2.23136 -3.57475 0
M  V30 1427 H 131.274 2.28533 -2.33325 0
M  V30 1428 H 129.933 0.584146 -3.61916 0
M  V30 1429 H 129.581 3.02814 -4.01637 0
M  V30 1430 H 129.281 2.08109 -5.49513 0
M  V30 1431 H 130.805 2.99691 -5.31994 0
M  V30 1432 H 132.219 0.754695 -5.68311 0
M  V30 1433 H 130.616 0.0301468 -6.00092 0
M  V30 1434 H 131.686 -0.710125 -4.79672 0
M  V30 1435 N 133.029 1.57378 -0.0835403 0
M  V30 1436 C 134.277 1.93547 0.581718 0
M  V30 1437 C 134.598 0.96524 1.69435 0
M  V30 1438 O 133.868 0.0153369 1.95894 0
M  V30 1439 H 132.448 0.714521 0.217874 0
M  V30 1440 H 135.11 1.94366 -0.144158 0
M  V30 1441 H 134.206 2.95665 0.999423 0
M  V30 1442 N 134.507 -0.190092 1.56449 0
M  V30 1443 C 135.417 -1.25591 1.98152 0
M  V30 1444 C 136.433 -1.49519 0.889944 0
M  V30 1445 O 137.609 -1.62036 1.19609 0
M  V30 1446 C 134.674 -2.57916 2.3169 0
M  V30 1447 C 133.735 -2.42015 3.5458 0
M  V30 1448 C 132.968 -3.6803 3.8651 0
M  V30 1449 O 133.191 -4.72413 3.1966 0
M  V30 1450 O 132.125 -3.6326 4.79923 0
M  V30 1451 H 135.951 -0.931988 2.89046 0
M  V30 1452 H 133.536 -0.395488 1.4407 0
M  V30 1453 H 135.418 -3.36008 2.54316 0
M  V30 1454 H 134.093 -2.89925 1.43963 0
M  V30 1455 H 133 -1.62017 3.37196 0
M  V30 1456 H 134.333 -2.14937 4.4279 0
M  V30 1457 N 135.985 -1.50799 -0.457987 0
M  V30 1458 C 136.895 -1.73426 -1.57989 0
M  V30 1459 C 137.911 -0.617745 -1.62665 0
M  V30 1460 O 139.087 -0.897614 -1.80291 0
M  V30 1461 C 136.152 -1.83557 -2.94122 0
M  V30 1462 C 135.213 -3.07345 -2.99729 0
M  V30 1463 C 134.446 -3.16983 -4.29368 0
M  V30 1464 O 134.669 -2.33077 -5.20607 0
M  V30 1465 O 133.603 -4.09812 -4.40837 0
M  V30 1466 H 137.429 -2.68555 -1.41817 0
M  V30 1467 H 135.014 -1.35052 -0.638859 0
M  V30 1468 H 136.896 -1.92326 -3.74952 0
M  V30 1469 H 135.571 -0.916137 -3.10465 0
M  V30 1470 H 134.478 -3.04068 -2.1793 0
M  V30 1471 H 135.811 -3.9891 -2.88326 0
M  V30 1472 N 137.463 0.71206 -1.40597 0
M  V30 1473 C 138.71 1.47197 -1.39065 0
M  V30 1474 C 139.038 1.94499 0.00583891 0
M  V30 1475 O 138.293 1.68752 0.99102 0
M  V30 1476 C 138.592 2.71039 -2.32965 0
M  V30 1477 C 138.258 2.42484 -3.80148 0
M  V30 1478 C 136.92 2.34406 -4.20247 0
M  V30 1479 C 139.272 2.18598 -4.73143 0
M  V30 1480 C 136.6 2.00516 -5.51371 0
M  V30 1481 C 138.952 1.8622 -6.0457 0
M  V30 1482 C 137.616 1.76626 -6.43708 0
M  V30 1483 H 136.886 0.538634 -0.508876 0
M  V30 1484 H 139.533 0.815325 -1.73276 0
M  V30 1485 H 137.838 3.41558 -1.91951 0
M  V30 1486 H 139.535 3.29138 -2.29061 0
M  V30 1487 H 136.125 2.49659 -3.4838 0
M  V30 1488 H 140.309 2.23793 -4.42979 0
M  V30 1489 H 135.565 1.91628 -5.80593 0
M  V30 1490 H 139.739 1.66752 -6.76141 0
M  V30 1491 H 137.366 1.50133 -7.45228 0
M  V30 1492 N 138.941 1.26152 0.944643 0
M  V30 1493 C 140.166 1.14363 1.7302 0
M  V30 1494 C 140.591 -0.29772 1.85729 0
M  V30 1495 O 139.949 -1.2157 1.34501 0
M  V30 1496 C 139.997 1.81378 3.11664 0
M  V30 1497 O 139.101 1.10022 3.97453 0
M  V30 1498 H 138.442 0.398694 0.53098 0
M  V30 1499 H 140.972 1.66906 1.18337 0
M  V30 1500 H 140.982 1.88064 3.62072 0
M  V30 1501 H 139.657 2.86237 3.0173 0
M  V30 1502 H 138.234 1.11287 3.55907 0
M  V30 1503 N 140.419 -1.14872 1.07899 0
M  V30 1504 C 141.667 -1.85422 0.803941 0
M  V30 1505 C 141.988 -1.83051 -0.67211 0
M  V30 1506 O 141.258 -1.27532 -1.48703 0
M  V30 1507 H 139.838 -0.686537 0.294408 0
M  V30 1508 H 142.5 -1.39226 1.3639 0
M  V30 1509 H 141.596 -2.90399 1.14346 0
M  V30 1510 N 141.898 -0.863906 -1.31812 0
M  V30 1511 C 143.314 -0.555004 -1.49639 0
M  V30 1512 C 143.514 0.912266 -1.79666 0
M  V30 1513 O 142.57 1.69479 -1.87171 0
M  V30 1514 C 143.883 -1.44998 -2.63431 0
M  V30 1515 C 145.431 -1.45138 -2.77316 0
M  V30 1516 C 145.906 -2.33179 -3.94197 0
M  V30 1517 N 147.397 -2.31025 -4.01474 0
M  V30 1518 C 148.132 -2.95871 -4.9117 0
M  V30 1519 N 147.628 -3.69863 -5.8581 0
M  V30 1520 N 149.421 -2.85211 -4.84367 0
M  V30 1521 H 141.572 -1.81339 -1.10589 0
M  V30 1522 H 143.835 -0.77505 -0.545895 0
M  V30 1523 H 143.541 -2.49377 -2.48 0
M  V30 1524 H 143.415 -1.14409 -3.59431 0
M  V30 1525 H 145.802 -0.415201 -2.92164 0
M  V30 1526 H 145.883 -1.79747 -1.82001 0
M  V30 1527 H 145.527 -3.3687 -3.80107 0
M  V30 1528 H 145.457 -1.95897 -4.88807 0
M  V30 1529 H 147.948 -1.77238 -3.33759 0
M  V30 1530 H 148.261 -4.16486 -6.50968 0
M  V30 1531 H 146.606 -3.73971 -5.85808 0
M  V30 1532 H 149.797 -2.26948 -4.09405 0
M  V30 1533 H 149.97 -3.36027 -5.54066 0
M  V30 1534 N 143.376 1.44774 -0.622745 0
M  V30 1535 C 144.624 2.01721 -0.123655 0
M  V30 1536 C 144.945 1.49172 1.25589 0
M  V30 1537 O 144.215 0.691974 1.83272 0
M  V30 1538 H 142.795 0.745777 -0.0427225 0
M  V30 1539 H 145.457 1.77382 -0.807559 0
M  V30 1540 H 144.553 3.11984 -0.0849534 0
M  V30 1541 N 144.854 0.36279 1.53368 0
M  V30 1542 C 146.103 -0.22888 2.00397 0
M  V30 1543 C 146.416 -1.50096 1.25421 0
M  V30 1544 O 147.622 -2.17106 1.63025 0
M  V30 1545 C 146.078 -0.458417 3.56969 0
M  V30 1546 C 145.686 0.798877 4.4082 0
M  V30 1547 C 147.43 -1.00789 4.12361 0
M  V30 1548 C 145.337 0.539078 5.88938 0
M  V30 1549 H 144.267 -0.089305 0.748693 0
M  V30 1550 H 146.918 0.481099 1.77081 0
M  V30 1551 H 145.3 -1.22959 3.76427 0
M  V30 1552 H 146.474 1.57262 4.33134 0
M  V30 1553 H 144.789 1.27137 3.96516 0
M  V30 1554 H 147.386 -1.21754 5.20653 0
M  V30 1555 H 147.729 -1.9692 3.66781 0
M  V30 1556 H 148.262 -0.296961 3.9669 0
M  V30 1557 H 145.001 1.47064 6.3879 0
M  V30 1558 H 144.521 -0.196222 5.99479 0
M  V30 1559 H 146.2 0.163542 6.46793 0
M  V30 1560 N 146.332 -1.57332 0.0918853 0
M  V30 1561 C 147.579 -1.94236 -0.572577 0
M  V30 1562 C 147.907 -0.973398 -1.6839 0
M  V30 1563 O 147.162 0.00756912 -1.95699 0
M  V30 1564 C 147.461 -3.37689 -1.17051 0
M  V30 1565 C 147.127 -4.50527 -0.183304 0
M  V30 1566 C 145.789 -4.81119 0.0882276 0
M  V30 1567 C 148.141 -5.18883 0.49095 0
M  V30 1568 C 145.469 -5.77395 1.04076 0
M  V30 1569 C 147.821 -6.1618 1.43193 0
M  V30 1570 C 146.485 -6.45179 1.71173 0
M  V30 1571 H 145.755 -0.710762 -0.209521 0
M  V30 1572 H 148.402 -1.9077 0.167036 0
M  V30 1573 H 146.707 -3.37718 -1.9863 0
M  V30 1574 H 148.404 -3.63543 -1.69227 0
M  V30 1575 H 144.994 -4.26681 -0.405124 0
M  V30 1576 H 149.178 -4.95427 0.294312 0
M  V30 1577 H 144.434 -5.98179 1.26457 0
M  V30 1578 H 148.608 -6.68243 1.96023 0
M  V30 1579 H 146.235 -7.1959 2.4514 0
M  V30 1580 N 147.81 0.181792 -1.56548 0
M  V30 1581 C 149.221 0.745244 -1.71181 0
M  V30 1582 C 149.572 1.83262 -0.70068 0
M  V30 1583 O 148.697 2.15946 0.140154 0
M  V30 1584 C 149.292 1.35859 -3.10367 0
M  V30 1585 C 147.851 1.86898 -3.2672 0
M  V30 1586 C 146.998 0.743942 -2.67134 0
M  V30 1587 H 149.949 -0.0434661 -1.5864 0
M  V30 1588 H 149.97 2.22817 -3.08436 0
M  V30 1589 H 149.482 0.566948 -3.83937 0
M  V30 1590 H 147.583 2.68738 -2.5809 0
M  V30 1591 H 147.696 2.02162 -4.34359 0
M  V30 1592 H 146.06 1.16169 -2.26665 0
M  V30 1593 H 146.843 -0.035676 -3.43281 0
M  V30 1594 N 149.288 1.51039 0.449983 0
M  V30 1595 C 150.218 1.74379 1.55288 0
M  V30 1596 C 151.199 0.593236 1.5942 0
M  V30 1597 O 152.384 0.834625 1.7535 0
M  V30 1598 C 149.514 1.85728 2.93466 0
M  V30 1599 C 148.468 3.01078 3.04197 0
M  V30 1600 C 147.794 2.97595 4.44231 0
M  V30 1601 C 149.094 4.41254 2.7945 0
M  V30 1602 H 150.788 2.66725 1.36008 0
M  V30 1603 H 148.334 1.2835 0.652864 0
M  V30 1604 H 150.287 2.0064 3.70569 0
M  V30 1605 H 149.011 0.900207 3.13949 0
M  V30 1606 H 147.67 2.85851 2.29531 0
M  V30 1607 H 147.318 1.99691 4.61663 0
M  V30 1608 H 147.018 3.75046 4.52343 0
M  V30 1609 H 148.542 3.14583 5.23326 0
M  V30 1610 H 149.956 4.56897 3.46292 0
M  V30 1611 H 148.353 5.20315 2.98985 0
M  V30 1612 H 149.423 4.52164 1.75144 0
M  V30 1613 N 150.766 -0.704594 1.40972 0
M  V30 1614 C 151.729 -1.80035 1.41845 0
M  V30 1615 C 152.729 -1.57774 0.310474 0
M  V30 1616 O 153.919 -1.64613 0.56992 0
M  V30 1617 C 151.051 -3.18284 1.22098 0
M  V30 1618 H 152.244 -1.80658 2.3938 0
M  V30 1619 H 149.797 -0.911329 1.26982 0
M  V30 1620 H 150.532 -3.23306 0.253672 0
M  V30 1621 H 150.317 -3.35843 2.02366 0
M  V30 1622 H 151.807 -3.98289 1.25522 0
M  V30 1623 N 152.244 -1.26651 -0.937939 0
M  V30 1624 C 153.154 -1.10276 -2.07066 0
M  V30 1625 C 154.17 -0.0354197 -1.73964 0
M  V30 1626 O 155.346 -0.239816 -1.99967 0
M  V30 1627 C 152.411 -0.740887 -3.38691 0
M  V30 1628 C 151.472 -1.88799 -3.85556 0
M  V30 1629 C 150.705 -1.54329 -5.10899 0
M  V30 1630 O 150.928 -0.446494 -5.6865 0
M  V30 1631 O 149.862 -2.37911 -5.52885 0
M  V30 1632 H 153.688 -2.05309 -2.23789 0
M  V30 1633 H 151.273 -1.05743 -1.0554 0
M  V30 1634 H 153.155 -0.55195 -4.1777 0
M  V30 1635 H 151.83 0.180022 -3.23199 0
M  V30 1636 H 150.737 -2.13191 -3.07409 0
M  V30 1637 H 152.07 -2.78874 -4.05574 0
M  V30 1638 N 153.722 1.14298 -1.08507 0
M  V30 1639 C 155.138 1.37347 -0.812901 0
M  V30 1640 C 155.338 1.93052 0.577325 0
M  V30 1641 O 154.394 2.14389 1.33393 0
M  V30 1642 C 155.707 2.33359 -1.89642 0
M  V30 1643 C 157.255 2.46996 -1.92255 0
M  V30 1644 C 157.73 3.46309 -2.99724 0
M  V30 1645 N 159.221 3.53853 -2.98902 0
M  V30 1646 C 159.956 4.3055 -3.787 0
M  V30 1647 N 159.452 5.10482 -4.6838 0
M  V30 1648 N 161.245 4.25757 -3.66998 0
M  V30 1649 H 153.396 0.764867 -1.9815 0
M  V30 1650 H 155.659 0.398966 -0.859959 0
M  V30 1651 H 155.365 1.99565 -2.89597 0
M  V30 1652 H 155.239 3.33274 -1.76659 0
M  V30 1653 H 157.626 2.80081 -0.929445 0
M  V30 1654 H 157.707 1.47039 -2.09316 0
M  V30 1655 H 157.351 3.13957 -3.99241 0
M  V30 1656 H 157.281 4.46049 -2.79907 0
M  V30 1657 H 159.772 2.96812 -2.33904 0
M  V30 1658 H 160.085 5.66284 -5.25873 0
M  V30 1659 H 158.43 5.09747 -4.72422 0
M  V30 1660 H 161.621 3.62383 -2.96304 0
M  V30 1661 H 161.794 4.85279 -4.29427 0
M  V30 1662 N 155.201 0.870884 1.31352 0
M  V30 1663 C 156.164 0.332243 2.26779 0
M  V30 1664 C 157.164 -0.517302 1.52252 0
M  V30 1665 O 158.354 -0.326477 1.71113 0
M  V30 1666 C 155.486 -0.528066 3.36785 0
M  V30 1667 H 156.679 1.17469 2.75937 0
M  V30 1668 H 154.232 0.64655 1.423 0
M  V30 1669 H 154.967 -1.39167 2.92922 0
M  V30 1670 H 154.752 0.0802582 3.92018 0
M  V30 1671 H 156.242 -0.897179 4.07849 0
M  V30 1672 N 156.679 -1.44442 0.630414 0
M  V30 1673 C 157.627 -2.32437 -0.0871428 0
M  V30 1674 C 158.621 -1.47304 -0.836525 0
M  V30 1675 O 159.827 -1.63653 -0.749506 0
M  V30 1676 H 156.202 -0.750533 -0.0469495 0
M  V30 1677 H 158.173 -2.90709 0.673096 0
M  V30 1678 C 156.922 -3.31288 -1.05563 0
M  V30 1679 H 156.245 -3.96805 -0.488426 0
M  V30 1680 H 157.685 -3.9554 -1.52721 0
M  V30 1681 C 156.144 -2.6016 -2.14052 0
M  V30 1682 O 156.674 -2.39997 -3.22124 0
M  V30 1683 N 154.88 -2.19911 -1.89967 0
M  V30 1684 H 154.427 -2.36509 -1.02085 0
M  V30 1685 H 154.385 -1.72646 -2.62756 0
M  V30 1686 N 158.157 -0.370918 -1.53173 0
M  V30 1687 C 159.573 -0.0200818 -1.59587 0
M  V30 1688 C 159.773 1.46279 -1.38581 0
M  V30 1689 O 158.829 2.22506 -1.19363 0
M  V30 1690 C 160.142 -0.4808 -2.96831 0
M  V30 1691 C 161.69 -0.435477 -3.09956 0
M  V30 1692 C 162.165 -0.872092 -4.4962 0
M  V30 1693 N 163.656 -0.827364 -4.55751 0
M  V30 1694 C 164.391 -1.13683 -5.62018 0
M  V30 1695 N 163.887 -1.51584 -6.76014 0
M  V30 1696 N 165.68 -1.05927 -5.52029 0
M  V30 1697 H 157.831 -1.33652 -1.65079 0
M  V30 1698 H 160.094 -0.546634 -0.774529 0
M  V30 1699 H 159.8 -1.51577 -3.1736 0
M  V30 1700 H 159.674 0.129796 -3.76977 0
M  V30 1701 H 162.061 0.590371 -2.89134 0
M  V30 1702 H 162.142 -1.08164 -2.31806 0
M  V30 1703 H 161.786 -1.89608 -4.71181 0
M  V30 1704 H 161.716 -0.203127 -5.26208 0
M  V30 1705 H 164.207 -0.548216 -3.73902 0
M  V30 1706 H 164.52 -1.73609 -7.53047 0
M  V30 1707 H 162.865 -1.55454 -6.77391 0
M  V30 1708 H 166.056 -0.762321 -4.61851 0
M  V30 1709 H 166.229 -1.30378 -6.34749 0
M  V30 1710 N 159.635 1.57281 -0.100228 0
M  V30 1711 C 160.883 1.94153 0.561157 0
M  V30 1712 C 161.204 0.983157 1.68401 0
M  V30 1713 O 160.474 0.0361132 1.95867 0
M  V30 1714 H 159.054 0.716791 0.210283 0
M  V30 1715 H 161.716 1.94202 -0.164765 0
M  V30 1716 H 160.812 2.96709 0.968008 0
M  V30 1717 N 161.113 -0.173488 1.56642 0
M  V30 1718 C 162.36 -0.890465 1.81871 0
M  V30 1719 C 162.688 -1.82339 0.67696 0
M  V30 1720 O 161.943 -1.92795 -0.335926 0
M  V30 1721 C 162.242 -1.72069 3.13252 0
M  V30 1722 C 161.908 -0.936878 4.41059 0
M  V30 1723 C 160.57 -0.720545 4.75775 0
M  V30 1724 C 162.922 -0.386919 5.19762 0
M  V30 1725 C 160.25 0.0568829 5.86672 0
M  V30 1726 C 162.602 0.37741 6.31473 0
M  V30 1727 C 161.266 0.604563 6.64757 0
M  V30 1728 H 160.536 -0.325844 0.665512 0
M  V30 1729 H 163.183 -0.155527 1.90867 0
M  V30 1730 H 161.488 -2.52496 2.99588 0
M  V30 1731 H 163.185 -2.27844 3.29982 0
M  V30 1732 H 159.775 -1.11553 4.13828 0
M  V30 1733 H 163.959 -0.541398 4.93338 0
M  V30 1734 H 159.215 0.242635 6.10918 0
M  V30 1735 H 163.389 0.810825 6.91664 0
M  V30 1736 H 161.016 1.20885 7.50527 0
M  V30 1737 N 162.591 -1.51276 -0.441967 0
M  V30 1738 C 163.839 -1.63392 -1.18943 0
M  V30 1739 C 164.16 -0.350159 -1.9183 0
M  V30 1740 O 163.43 0.633784 -1.85364 0
M  V30 1741 H 162.01 -0.602164 -0.442049 0
M  V30 1742 H 164.672 -1.88186 -0.507165 0
M  V30 1743 H 163.768 -2.45934 -1.92154 0
M  V30 1744 N 164.069 0.697108 -1.41344 0
M  V30 1745 C 165.318 1.45279 -1.39918 0
M  V30 1746 C 165.631 1.95597 -0.0109624 0
M  V30 1747 O 166.837 2.71208 0.125919 0
M  V30 1748 C 165.293 2.62695 -2.46007 0
M  V30 1749 C 164.901 2.19169 -3.90729 0
M  V30 1750 C 166.645 3.40336 -2.53715 0
M  V30 1751 C 164.552 3.33535 -4.88373 0
M  V30 1752 H 163.482 0.545692 -0.520323 0
M  V30 1753 H 166.133 0.756929 -1.67161 0
M  V30 1754 H 164.515 3.34541 -2.11892 0
M  V30 1755 H 165.689 1.54623 -4.34083 0
M  V30 1756 H 164.004 1.54525 -3.86666 0
M  V30 1757 H 166.601 4.2547 -3.2385 0
M  V30 1758 H 166.944 3.85418 -1.5735 0
M  V30 1759 H 167.477 2.75546 -2.86913 0
M  V30 1760 H 164.216 2.93468 -5.86137 0
M  V30 1761 H 163.736 3.96936 -4.49668 0
M  V30 1762 H 165.415 3.99335 -5.09059 0
M  V30 1763 N 165.547 1.27147 0.931209 0
M  V30 1764 C 166.793 1.13446 1.68101 0
M  V30 1765 C 167.126 -0.319628 1.91552 0
M  V30 1766 O 166.401 -1.23407 1.50336 0
M  V30 1767 C 166.684 1.91482 3.0497 0
M  V30 1768 C 166.537 3.44855 2.88782 0
M  V30 1769 C 167.856 1.71651 4.05246 0
M  V30 1770 H 164.975 0.413498 0.610072 0
M  V30 1771 H 167.617 1.56261 1.08086 0
M  V30 1772 H 165.767 1.55095 3.56199 0
M  V30 1773 H 167.439 3.9105 2.44698 0
M  V30 1774 H 165.682 3.71373 2.24198 0
M  V30 1775 H 166.353 3.94694 3.85902 0
M  V30 1776 H 168.829 2.0337 3.63015 0
M  V30 1777 H 167.705 2.28651 4.99009 0
M  V30 1778 H 167.966 0.663555 4.37092 0
M  V30 1779 N 167.025 -1.13721 1.09112 0
M  V30 1780 C 168.272 -1.84924 0.825192 0
M  V30 1781 C 168.6 -1.83347 -0.649151 0
M  V30 1782 O 167.855 -1.26449 -1.49362 0
M  V30 1783 C 168.154 -3.32861 1.30146 0
M  V30 1784 C 167.82 -3.54621 2.78486 0
M  V30 1785 C 166.482 -3.60268 3.18999 0
M  V30 1786 C 168.834 -3.62855 3.74146 0
M  V30 1787 C 166.162 -3.71679 4.53951 0
M  V30 1788 C 168.514 -3.75793 5.08883 0
M  V30 1789 C 167.178 -3.79692 5.4899 0
M  V30 1790 H 166.448 -0.676684 0.301959 0
M  V30 1791 H 169.095 -1.3428 1.36533 0
M  V30 1792 H 167.4 -3.85835 0.681064 0
M  V30 1793 H 169.097 -3.86395 1.07236 0
M  V30 1794 H 165.687 -3.50879 2.46134 0
M  V30 1795 H 169.871 -3.57775 3.43963 0
M  V30 1796 H 165.127 -3.72963 4.84467 0
M  V30 1797 H 169.301 -3.81107 5.82864 0
M  V30 1798 H 166.928 -3.88287 6.53558 0
M  V30 1799 N 168.503 -0.877838 -1.30888 0
M  V30 1800 C 169.728 -0.506629 -2.01117 0
M  V30 1801 C 170.153 0.895564 -1.65412 0
M  V30 1802 O 169.511 1.5923 -0.866922 0
M  V30 1803 C 169.559 -0.680223 -3.54126 0
M  V30 1804 O 168.663 0.277033 -4.11468 0
M  V30 1805 H 168.004 -0.200518 -0.633 0
M  V30 1806 H 170.534 -1.18342 -1.66902 0
M  V30 1807 H 170.544 -0.5765 -4.03907 0
M  V30 1808 H 169.219 -1.70261 -3.79452 0
M  V30 1809 H 167.796 0.127606 -3.72682 0
M  V30 1810 N 169.982 1.44106 -0.638065 0
M  V30 1811 C 170.93 2.3248 0.0748149 0
M  V30 1812 C 171.924 1.47746 0.828702 0
M  V30 1813 O 173.13 1.64049 0.740816 0
M  V30 1814 H 169.505 0.750771 0.0429686 0
M  V30 1815 H 171.476 2.90348 -0.688504 0
M  V30 1816 C 170.225 3.31843 1.03805 0
M  V30 1817 H 169.548 3.97059 0.467375 0
M  V30 1818 H 170.988 3.96345 1.50622 0
M  V30 1819 C 169.447 2.61291 2.1267 0
M  V30 1820 O 169.977 2.41702 3.20847 0
M  V30 1821 N 168.183 2.20915 1.88798 0
M  V30 1822 H 167.73 2.37047 1.00829 0
M  V30 1823 H 167.688 1.74038 2.61836 0
M  V30 1824 N 171.46 0.379036 1.52974 0
M  V30 1825 C 172.708 -0.206014 2.01047 0
M  V30 1826 C 173.029 -1.48175 1.26765 0
M  V30 1827 O 172.299 -1.92085 0.384743 0
M  V30 1828 H 170.879 -0.0791184 0.742798 0
M  V30 1829 H 173.541 0.508366 1.88153 0
M  V30 1830 H 172.637 -0.423501 3.09213 0
M  V30 1831 N 172.938 -1.57226 0.108567 0
M  V30 1832 C 173.885 -2.14756 -0.845481 0
M  V30 1833 C 174.855 -1.06971 -1.27068 0
M  V30 1834 O 176.04 -1.34827 -1.35005 0
M  V30 1835 C 173.18 -2.74298 -2.09415 0
M  V30 1836 C 172.293 -3.96358 -1.71826 0
M  V30 1837 C 171.428 -4.44021 -2.9158 0
M  V30 1838 C 170.467 -5.58637 -2.50181 0
M  V30 1839 N 169.604 -6.01091 -3.62814 0
M  V30 1840 H 174.444 -2.95961 -0.348035 0
M  V30 1841 H 171.981 -1.46226 -0.160106 0
M  V30 1842 H 173.939 -3.06945 -2.82561 0
M  V30 1843 H 172.569 -1.95801 -2.56636 0
M  V30 1844 H 171.621 -3.69939 -0.885947 0
M  V30 1845 H 172.933 -4.79504 -1.37394 0
M  V30 1846 H 172.087 -4.78522 -3.72963 0
M  V30 1847 H 170.826 -3.59803 -3.29231 0
M  V30 1848 H 169.831 -5.23751 -1.67228 0
M  V30 1849 H 171.056 -6.44613 -2.13659 0
M  V30 1850 H 169.002 -5.19817 -4.00158 0
M  V30 1851 H 168.919 -6.79066 -3.32273 0
M  V30 1852 H 170.187 -6.40227 -4.44668 0
M  V30 1853 N 174.416 0.165178 -1.56732 0
M  V30 1854 C 175.363 1.2044 -1.96883 0
M  V30 1855 C 176.333 1.43664 -0.833657 0
M  V30 1856 O 177.518 1.56302 -1.09427 0
M  V30 1857 C 174.658 2.53727 -2.33916 0
M  V30 1858 C 173.771 2.3783 -3.6064 0
M  V30 1859 C 172.906 3.64026 -3.86857 0
M  V30 1860 C 171.945 3.43088 -5.06909 0
M  V30 1861 N 171.082 4.61369 -5.29229 0
M  V30 1862 H 175.922 0.854996 -2.85471 0
M  V30 1863 H 173.459 0.41076 -1.41249 0
M  V30 1864 H 175.417 3.31419 -2.53411 0
M  V30 1865 H 174.047 2.8665 -1.48431 0
M  V30 1866 H 173.099 1.51282 -3.49024 0
M  V30 1867 H 174.411 2.18308 -4.4849 0
M  V30 1868 H 173.565 4.50152 -4.06753 0
M  V30 1869 H 172.304 3.86533 -2.97394 0
M  V30 1870 H 171.309 2.55349 -4.86906 0
M  V30 1871 H 172.534 3.21997 -5.97909 0
M  V30 1872 H 170.48 4.84084 -4.42718 0
M  V30 1873 H 170.397 4.44783 -6.11313 0
M  V30 1874 H 171.665 5.48761 -5.53608 0
M  V30 1875 N 175.894 1.51508 0.433938 0
M  V30 1876 C 177.14 1.65549 1.18173 0
M  V30 1877 C 177.495 0.368751 1.88833 0
M  V30 1878 O 176.788 -0.635616 1.8075 0
M  V30 1879 C 176.982 2.79928 2.22205 0
M  V30 1880 C 176.811 4.19601 1.61756 0
M  V30 1881 C 175.581 4.85489 1.40101 0
M  V30 1882 C 177.779 5.02574 1.09194 0
M  V30 1883 N 175.761 6.09266 0.752859 0
M  V30 1884 C 177.132 6.17381 0.569255 0
M  V30 1885 C 179.187 4.88079 0.984025 0
M  V30 1886 C 177.89 7.19282 -0.0507472 0
M  V30 1887 C 179.916 5.90191 0.377912 0
M  V30 1888 C 179.278 7.04272 -0.134216 0
M  V30 1889 H 175.377 0.659653 0.419979 0
M  V30 1890 H 177.961 1.88746 0.477818 0
M  V30 1891 H 176.132 2.5839 2.89982 0
M  V30 1892 H 177.864 2.83132 2.89168 0
M  V30 1893 H 174.619 4.43417 1.66369 0
M  V30 1894 H 175.043 6.75528 0.446123 0
M  V30 1895 H 179.685 4.00131 1.36583 0
M  V30 1896 H 177.403 8.06876 -0.444676 0
M  V30 1897 H 180.989 5.81045 0.296269 0
M  V30 1898 H 179.869 7.81933 -0.59585 0
M  V30 1899 N 177.372 -0.689602 1.41712 0
M  V30 1900 C 178.319 -1.80345 1.44029 0
M  V30 1901 C 179.289 -1.63478 0.293948 0
M  V30 1902 O 180.474 -1.84244 0.495869 0
M  V30 1903 C 177.614 -3.18272 1.33405 0
M  V30 1904 C 176.727 -3.46529 2.57956 0
M  V30 1905 C 175.862 -4.74103 2.39582 0
M  V30 1906 C 174.901 -4.95347 3.5958 0
M  V30 1907 N 174.038 -6.14151 3.40239 0
M  V30 1908 H 178.878 -1.77698 2.39222 0
M  V30 1909 H 176.415 -0.867688 1.18784 0
M  V30 1910 H 178.373 -3.97956 1.25246 0
M  V30 1911 H 177.003 -3.2008 0.418164 0
M  V30 1912 H 176.055 -2.61207 2.76542 0
M  V30 1913 H 177.367 -3.58126 3.47199 0
M  V30 1914 H 176.521 -5.61853 2.28924 0
M  V30 1915 H 175.26 -4.64763 1.47805 0
M  V30 1916 H 174.265 -4.06044 3.70686 0
M  V30 1917 H 175.49 -5.06542 4.52318 0
M  V30 1918 H 173.436 -6.06013 2.51167 0
M  V30 1919 H 173.353 -6.26543 4.23061 0
M  V30 1920 H 174.621 -7.04619 3.33365 0
M  V30 1921 N 178.85 -1.27639 -0.924453 0
M  V30 1922 C 179.76 -1.12466 -2.05885 0
M  V30 1923 C 180.776 -0.053869 -1.73917 0
M  V30 1924 O 181.952 -0.261012 -1.99702 0
M  V30 1925 C 179.017 -0.776768 -3.37886 0
M  V30 1926 C 178.078 -1.92878 -3.83532 0
M  V30 1927 C 177.311 -1.59739 -5.09234 0
M  V30 1928 O 177.534 -0.506782 -5.68144 0
M  V30 1929 O 176.468 -2.43761 -5.50331 0
M  V30 1930 H 180.294 -2.07671 -2.21599 0
M  V30 1931 H 177.879 -1.06857 -1.04413 0
M  V30 1932 H 179.761 -0.596229 -4.17161 0
M  V30 1933 H 178.436 0.145732 -3.23372 0
M  V30 1934 H 177.343 -2.1644 -3.0513 0
M  V30 1935 H 178.676 -2.8316 -4.02593 0
M  V30 1936 N 180.328 1.1314 -1.09713 0
M  V30 1937 C 181.577 1.83838 -0.829851 0
M  V30 1938 C 181.89 1.84599 0.646728 0
M  V30 1939 O 183.096 2.51218 1.02965 0
M  V30 1940 C 181.552 3.30069 -1.43466 0
M  V30 1941 C 181.16 3.37688 -2.94399 0
M  V30 1942 C 182.904 4.05788 -1.24645 0
M  V30 1943 C 180.811 4.78209 -3.47952 0
M  V30 1944 H 179.741 0.68877 -0.306777 0
M  V30 1945 H 182.392 1.27448 -1.3202 0
M  V30 1946 H 180.774 3.8628 -0.871996 0
M  V30 1947 H 181.948 2.91456 -3.56918 0
M  V30 1948 H 180.263 2.75436 -3.12289 0
M  V30 1949 H 182.86 5.09535 -1.62107 0
M  V30 1950 H 183.203 4.15878 -0.187357 0
M  V30 1951 H 183.736 3.55915 -1.77678 0
M  V30 1952 H 180.475 4.73311 -4.53495 0
M  V30 1953 H 179.995 5.24924 -2.90198 0
M  V30 1954 H 181.674 5.47133 -3.45332 0
M  V30 1955 N 181.806 0.884767 1.30421 0
M  V30 1956 C 183.222 0.57874 1.48737 0
M  V30 1957 C 183.422 -0.883567 1.81095 0
M  V30 1958 O 182.478 -1.6648 1.89844 0
M  V30 1959 C 183.791 1.49171 2.61091 0
M  V30 1960 C 185.339 1.49532 2.74971 0
M  V30 1961 C 185.814 2.39421 3.90438 0
M  V30 1962 N 187.305 2.37383 3.97748 0
M  V30 1963 C 188.04 3.03647 4.86401 0
M  V30 1964 N 187.536 3.79136 5.79852 0
M  V30 1965 N 189.329 2.9288 4.79768 0
M  V30 1966 H 181.48 1.83075 1.0769 0
M  V30 1967 H 183.743 0.783637 0.533495 0
M  V30 1968 H 183.449 2.53291 2.44001 0
M  V30 1969 H 183.323 1.20113 3.57565 0
M  V30 1970 H 185.71 0.46163 2.91467 0
M  V30 1971 H 185.791 1.8262 1.79119 0
M  V30 1972 H 185.435 3.42874 3.74699 0
M  V30 1973 H 185.365 2.03649 4.85628 0
M  V30 1974 H 187.856 1.82525 3.30897 0
M  V30 1975 H 188.169 4.26789 6.4426 0
M  V30 1976 H 186.514 3.83243 5.79784 0
M  V30 1977 H 189.705 2.33433 4.05742 0
M  V30 1978 H 189.878 3.448 5.4865 0
M  V30 1979 N 183.284 -1.43765 0.645699 0
M  V30 1980 C 184.7 -1.56509 0.312591 0
M  V30 1981 C 184.9 -1.6307 -1.18365 0
M  V30 1982 O 183.956 -1.58167 -1.96824 0
M  V30 1983 C 185.269 -2.82968 1.01733 0
M  V30 1984 C 186.817 -2.96701 0.996865 0
M  V30 1985 C 187.292 -4.25982 1.68236 0
M  V30 1986 N 188.783 -4.32829 1.64964 0
M  V30 1987 C 189.518 -5.31613 2.14885 0
M  V30 1988 N 189.014 -6.36718 2.73061 0
M  V30 1989 N 190.807 -5.23217 2.05428 0
M  V30 1990 H 182.958 -1.3775 1.61675 0
M  V30 1991 H 185.221 -0.661067 0.679481 0
M  V30 1992 H 184.927 -2.84156 2.0724 0
M  V30 1993 H 184.801 -3.72957 0.564177 0
M  V30 1994 H 187.188 -2.95058 -0.0497719 0
M  V30 1995 H 187.269 -2.08022 1.48865 0
M  V30 1996 H 186.913 -4.28386 2.72852 0
M  V30 1997 H 186.843 -5.13545 1.16529 0
M  V30 1998 H 189.334 -3.57493 1.22503 0
M  V30 1999 H 189.647 -7.08401 3.08848 0
M  V30 2000 H 187.992 -6.37362 2.77118 0
M  V30 2001 H 191.183 -4.40019 1.59689 0
M  V30 2002 H 191.356 -6.00045 2.44643 0
M  V30 2003 N 184.763 -0.387143 -1.52771 0
M  V30 2004 C 186.01 0.195735 -2.01552 0
M  V30 2005 C 186.338 1.46995 -1.27369 0
M  V30 2006 O 185.593 1.92325 -0.361879 0
M  V30 2007 C 185.892 0.512209 -3.53711 0
M  V30 2008 C 185.558 -0.670202 -4.45891 0
M  V30 2009 C 184.22 -0.994586 -4.70809 0
M  V30 2010 C 186.572 -1.46134 -5.00294 0
M  V30 2011 C 183.9 -2.11169 -5.4738 0
M  V30 2012 C 186.252 -2.56903 -5.78086 0
M  V30 2013 C 184.916 -2.89852 -6.01284 0
M  V30 2014 H 184.186 0.0716246 -0.73753 0
M  V30 2015 H 186.833 -0.524046 -1.8419 0
M  V30 2016 H 185.138 1.31329 -3.69134 0
M  V30 2017 H 186.835 0.975804 -3.88946 0
M  V30 2018 H 183.425 -0.407366 -4.2666 0
M  V30 2019 H 187.609 -1.22397 -4.80971 0
M  V30 2020 H 182.865 -2.3707 -5.63567 0
M  V30 2021 H 187.039 -3.18608 -6.19243 0
M  V30 2022 H 184.666 -3.76533 -6.60399 0
M  V30 2023 N 186.241 1.57166 -0.116904 0
M  V30 2024 C 187.466 1.999 0.55271 0
M  V30 2025 C 187.891 0.996039 1.59564 0
M  V30 2026 O 187.249 -0.032556 1.81271 0
M  V30 2027 C 187.297 3.4152 1.15742 0
M  V30 2028 O 186.401 3.44106 2.27299 0
M  V30 2029 H 185.742 0.649447 0.138258 0
M  V30 2030 H 188.272 2.03573 -0.204759 0
M  V30 2031 H 188.282 3.79684 1.49346 0
M  V30 2032 H 186.957 4.14034 0.393493 0
M  V30 2033 H 185.534 3.17759 1.9515 0
M  V30 2034 N 187.719 -0.156864 1.56817 0
M  V30 2035 C 188.649 -1.19589 2.00551 0
M  V30 2036 C 189.63 -1.4536 0.883426 0
M  V30 2037 O 190.815 -1.56449 1.15054 0
M  V30 2038 C 187.945 -2.53143 2.37773 0
M  V30 2039 C 186.899 -2.41913 3.53075 0
M  V30 2040 C 186.225 -3.80088 3.76081 0
M  V30 2041 C 187.525 -1.91157 4.86062 0
M  V30 2042 H 189.219 -0.832293 2.87599 0
M  V30 2043 H 186.765 -0.398918 1.38364 0
M  V30 2044 H 188.718 -3.26047 2.66967 0
M  V30 2045 H 187.442 -2.91319 1.4765 0
M  V30 2046 H 186.101 -1.71462 3.24031 0
M  V30 2047 H 185.749 -4.15683 2.83225 0
M  V30 2048 H 185.449 -3.73439 4.53671 0
M  V30 2049 H 186.973 -4.54556 4.0769 0
M  V30 2050 H 188.387 -2.53846 5.14038 0
M  V30 2051 H 186.784 -1.95422 5.67389 0
M  V30 2052 H 187.854 -0.866673 4.77092 0
M  V30 2053 N 189.197 -1.51736 -0.425897 0
M  V30 2054 C 190.13 -1.68574 -1.53812 0
M  V30 2055 C 191.108 -0.53328 -1.53606 0
M  V30 2056 O 192.292 -0.758555 -1.72564 0
M  V30 2057 C 189.419 -1.70977 -2.92377 0
M  V30 2058 C 188.465 -2.92324 -3.10563 0
M  V30 2059 S 189.298 -4.52952 -2.85648 0
M  V30 2060 C 190.454 -4.58117 -4.26474 0
M  V30 2061 H 190.687 -2.62647 -1.39298 0
M  V30 2062 H 188.22 -1.41564 -0.616361 0
M  V30 2063 H 190.178 -1.73047 -3.72243 0
M  V30 2064 H 188.839 -0.78061 -3.04245 0
M  V30 2065 H 188.032 -2.90439 -4.11899 0
M  V30 2066 H 187.634 -2.88055 -2.38538 0
M  V30 2067 H 189.926 -4.34462 -5.19855 0
M  V30 2068 H 190.869 -5.59983 -4.33388 0
M  V30 2069 H 191.277 -3.8732 -4.10662 0
M  V30 2070 N 190.675 0.682077 -1.42076 0
M  V30 2071 C 191.903 1.47057 -1.4554 0
M  V30 2072 C 192.318 1.8869 -0.0645779 0
M  V30 2073 O 191.675 1.57666 0.919115 0
M  V30 2074 C 191.726 2.72442 -2.37609 0
M  V30 2075 O 191.447 2.32559 -3.71279 0
M  V30 2076 C 192.948 3.66069 -2.50017 0
M  V30 2077 H 190.168 0.452737 -0.495248 0
M  V30 2078 H 192.712 0.838695 -1.8651 0
M  V30 2079 H 190.867 3.31835 -1.9991 0
M  V30 2080 H 191.281 3.13475 -4.20516 0
M  V30 2081 H 192.755 4.50792 -3.18576 0
M  V30 2082 H 193.232 4.11476 -1.53572 0
M  V30 2083 H 193.838 3.12572 -2.88407 0
M  V30 2084 N 192.153 1.28127 0.917671 0
M  V30 2085 C 193.083 1.14248 2.03641 0
M  V30 2086 C 194.064 0.0412748 1.7005 0
M  V30 2087 O 195.249 0.217566 1.92977 0
M  V30 2088 C 192.379 0.799431 3.37974 0
M  V30 2089 C 191.333 1.85497 3.85713 0
M  V30 2090 C 190.659 1.36565 5.16966 0
M  V30 2091 C 191.959 3.26085 4.08002 0
M  V30 2092 H 193.653 2.07835 2.15511 0
M  V30 2093 H 191.199 1.00064 1.03553 0
M  V30 2094 H 193.152 0.689114 4.15727 0
M  V30 2095 H 191.876 -0.172145 3.26146 0
M  V30 2096 H 190.535 1.95437 3.10161 0
M  V30 2097 H 190.183 0.383253 5.01538 0
M  V30 2098 H 189.883 2.07143 5.49878 0
M  V30 2099 H 191.407 1.26848 5.97279 0
M  V30 2100 H 192.821 3.19089 4.76293 0
M  V30 2101 H 191.218 3.94462 4.52238 0
M  V30 2102 H 192.288 3.70394 3.12948 0
M  V30 2103 N 193.631 -1.12557 1.10312 0
M  V30 2104 C 195.047 -1.36036 0.834649 0
M  V30 2105 C 195.247 -1.93946 -0.546539 0
M  V30 2106 O 194.303 -2.16484 -1.29966 0
M  V30 2107 C 195.616 -2.30312 1.9333 0
M  V30 2108 C 197.164 -2.43906 1.9616 0
M  V30 2109 C 197.639 -3.41496 3.05195 0
M  V30 2110 N 199.13 -3.49053 3.04494 0
M  V30 2111 C 199.865 -4.24471 3.85502 0
M  V30 2112 N 199.361 -5.02966 4.76442 0
M  V30 2113 N 201.154 -4.19864 3.73725 0
M  V30 2114 H 193.305 -0.733246 1.99342 0
M  V30 2115 H 195.568 -0.385234 0.866198 0
M  V30 2116 H 195.274 -1.94933 2.92735 0
M  V30 2117 H 195.148 -3.30421 1.81939 0
M  V30 2118 H 197.535 -2.78567 0.973886 0
M  V30 2119 H 197.616 -1.4369 2.11629 0
M  V30 2120 H 197.26 -3.07565 4.04186 0
M  V30 2121 H 197.19 -4.41539 2.86968 0
M  V30 2122 H 199.681 -2.93053 2.38596 0
M  V30 2123 H 199.994 -5.57846 5.34815 0
M  V30 2124 H 198.339 -5.02167 4.80472 0
M  V30 2125 H 201.53 -3.57623 3.02032 0
M  V30 2126 H 201.703 -4.78386 4.37093 0
M  V30 2127 N 195.109 -0.891671 -1.2995 0
M  V30 2128 C 196.057 -0.353066 -2.29905 0
M  V30 2129 C 197.051 0.543509 -1.60444 0
M  V30 2130 O 198.257 0.4272 -1.74857 0
M  V30 2131 H 194.632 -0.095531 -0.745907 0
M  V30 2132 H 196.603 -1.20961 -2.72784 0
M  V30 2133 C 195.352 0.411475 -3.45257 0
M  V30 2134 H 194.675 -0.269182 -3.98893 0
M  V30 2135 H 196.115 0.753328 -4.17254 0
M  V30 2136 C 194.574 1.6111 -2.9588 0
M  V30 2137 O 195.104 2.71045 -2.96475 0
M  V30 2138 N 193.31 1.45054 -2.51809 0
M  V30 2139 H 192.857 0.556175 -2.51524 0
M  V30 2140 H 192.815 2.25453 -2.1913 0
M  V30 2141 N 196.587 1.43421 -0.653314 0
M  V30 2142 C 197.834 2.01812 -0.166745 0
M  V30 2143 C 198.162 1.51535 1.21931 0
M  V30 2144 O 197.417 0.698975 1.82792 0
M  V30 2145 C 197.716 3.57176 -0.126623 0
M  V30 2146 C 197.382 4.26798 -1.45444 0
M  V30 2147 C 196.044 4.45534 -1.81805 0
M  V30 2148 C 198.396 4.66225 -2.32989 0
M  V30 2149 C 195.724 5.00961 -3.05377 0
M  V30 2150 C 198.076 5.23021 -3.55853 0
M  V30 2151 C 196.74 5.39973 -3.9241 0
M  V30 2152 H 196.01 0.738484 -0.0610162 0
M  V30 2153 H 198.657 1.71896 -0.84404 0
M  V30 2154 H 196.962 3.86634 0.634123 0
M  V30 2155 H 198.659 4.00112 0.266723 0
M  V30 2156 H 195.249 4.12561 -1.16153 0
M  V30 2157 H 199.433 4.51443 -2.06187 0
M  V30 2158 H 194.689 5.12271 -3.3375 0
M  V30 2159 H 198.863 5.52518 -4.23907 0
M  V30 2160 H 196.49 5.82687 -4.88242 0
M  V30 2161 N 198.065 0.39524 1.52563 0
M  V30 2162 C 199.313 -0.184678 2.01254 0
M  V30 2163 C 199.634 -1.46822 1.28329 0
M  V30 2164 O 198.904 -1.91666 0.405094 0
M  V30 2165 H 197.484 -0.0712355 0.743596 0
M  V30 2166 H 200.146 0.528293 1.87603 0
M  V30 2167 H 199.242 -0.390681 3.09645 0
M  V30 2168 N 199.544 -1.57102 0.125237 0
M  V30 2169 C 200.477 -2.11371 -0.860094 0
M  V30 2170 C 201.455 -1.03168 -1.25679 0
M  V30 2171 O 202.639 -1.30862 -1.35674 0
M  V30 2172 C 199.766 -2.61555 -2.1519 0
M  V30 2173 C 198.812 -3.81701 -1.9028 0
M  V30 2174 S 199.645 -5.23797 -1.11343 0
M  V30 2175 C 200.801 -5.77353 -2.41689 0
M  V30 2176 H 201.034 -2.94617 -0.39852 0
M  V30 2177 H 198.567 -1.54145 -0.0886555 0
M  V30 2178 H 200.525 -2.91122 -2.89411 0
M  V30 2179 H 199.186 -1.78479 -2.58465 0
M  V30 2180 H 198.379 -4.14985 -2.86014 0
M  V30 2181 H 197.981 -3.52783 -1.24178 0
M  V30 2182 H 200.273 -5.87458 -3.37489 0
M  V30 2183 H 201.216 -6.75323 -2.12942 0
M  V30 2184 H 201.624 -5.05457 -2.51342 0
M  V30 2185 N 201.022 0.148545 -1.56898 0
M  V30 2186 C 202.27 0.859717 -1.82902 0
M  V30 2187 C 202.591 1.81775 -0.70588 0
M  V30 2188 O 201.861 1.93994 0.272586 0
M  V30 2189 H 200.441 0.320469 -0.674766 0
M  V30 2190 H 203.103 0.142918 -1.94375 0
M  V30 2191 H 202.199 1.4229 -2.77777 0
M  V30 2192 N 202.5 1.5196 0.417844 0
M  V30 2193 C 203.447 1.74678 1.50852 0
M  V30 2194 C 204.417 0.588947 1.55308 0
M  V30 2195 O 205.602 0.825544 1.72016 0
M  V30 2196 C 202.742 1.89544 2.88387 0
M  V30 2197 C 201.855 3.17166 2.93309 0
M  V30 2198 C 200.99 3.22513 4.22088 0
M  V30 2199 C 200.029 4.44372 4.20951 0
M  V30 2200 N 199.166 4.47161 5.41287 0
M  V30 2201 H 204.006 2.67768 1.30783 0
M  V30 2202 H 201.543 1.32689 0.63498 0
M  V30 2203 H 203.501 1.96146 3.68216 0
M  V30 2204 H 202.131 0.998424 3.06971 0
M  V30 2205 H 201.183 3.19778 2.06024 0
M  V30 2206 H 202.495 4.07021 2.88332 0
M  V30 2207 H 201.649 3.28139 5.10303 0
M  V30 2208 H 200.388 2.30581 4.29748 0
M  V30 2209 H 199.393 4.38902 3.31127 0
M  V30 2210 H 200.618 5.3759 4.14938 0
M  V30 2211 H 198.564 3.58108 5.49632 0
M  V30 2212 H 198.481 5.3085 5.3827 0
M  V30 2213 H 199.749 4.57005 6.3148 0
M  V30 2214 N 203.978 -0.674533 1.42435 0
M  V30 2215 C 205.394 -0.98769 1.25367 0
M  V30 2216 C 205.594 -2.00879 0.158044 0
M  V30 2217 O 204.65 -2.48075 -0.470633 0
M  V30 2218 C 205.963 -1.49224 2.6106 0
M  V30 2219 C 207.511 -1.61 2.68417 0
M  V30 2220 C 207.986 -2.14852 4.04478 0
M  V30 2221 N 209.477 -2.22185 4.06434 0
M  V30 2222 C 210.212 -2.64928 5.08528 0
M  V30 2223 N 209.708 -3.07121 6.21006 0
M  V30 2224 N 211.501 -2.64679 4.95885 0
M  V30 2225 H 203.652 0.00152503 2.124 0
M  V30 2226 H 205.915 -0.0618434 0.945981 0
M  V30 2227 H 205.621 -0.816453 3.42092 0
M  V30 2228 H 205.495 -2.47094 2.84999 0
M  V30 2229 H 207.882 -2.27686 1.87732 0
M  V30 2230 H 207.963 -0.616195 2.48267 0
M  V30 2231 H 207.607 -1.48775 4.85622 0
M  V30 2232 H 207.537 -3.15024 4.2198 0
M  V30 2233 H 210.028 -1.92435 3.25234 0
M  V30 2234 H 210.341 -3.38423 6.94759 0
M  V30 2235 H 208.686 -3.04978 6.24511 0
M  V30 2236 H 211.877 -2.31078 4.07088 0
M  V30 2237 H 212.05 -2.9767 5.75584 0
M  V30 2238 N 205.456 -1.28612 -0.910864 0
M  V30 2239 C 206.681 -1.1891 -1.69927 0
M  V30 2240 C 207.106 0.248372 -1.86453 0
M  V30 2241 O 206.464 1.17961 -1.37676 0
M  V30 2242 C 206.512 -1.89578 -3.06745 0
M  V30 2243 O 205.616 -1.20521 -3.94396 0
M  V30 2244 H 204.957 -0.412632 -0.520222 0
M  V30 2245 H 207.487 -1.69985 -1.1387 0
M  V30 2246 H 207.497 -1.97597 -3.56958 0
M  V30 2247 H 206.172 -2.94136 -2.94035 0
M  V30 2248 H 204.749 -1.20684 -3.52831 0
M  V30 2249 N 206.934 1.1197 -1.10907 0
M  V30 2250 C 208.183 1.82947 -0.849302 0
M  V30 2251 C 208.496 1.85275 0.627112 0
M  V30 2252 O 209.702 2.52296 1.00295 0
M  V30 2253 C 208.158 3.28529 -1.46959 0
M  V30 2254 C 207.766 3.34546 -2.97965 0
M  V30 2255 C 209.51 4.04443 -1.28942 0
M  V30 2256 C 207.417 4.74491 -3.53004 0
M  V30 2257 H 206.347 0.685477 -0.314065 0
M  V30 2258 H 208.998 1.2604 -1.33365 0
M  V30 2259 H 207.38 3.85333 -0.912917 0
M  V30 2260 H 208.554 2.87654 -3.59989 0
M  V30 2261 H 206.869 2.72108 -3.15192 0
M  V30 2262 H 209.466 5.07787 -1.67502 0
M  V30 2263 H 209.809 4.15656 -0.231456 0
M  V30 2264 H 210.342 3.5401 -1.81443 0
M  V30 2265 H 207.081 4.68474 -4.58489 0
M  V30 2266 H 206.601 5.21816 -2.9575 0
M  V30 2267 H 208.28 5.4344 -3.51115 0
M  V30 2268 N 208.412 0.89855 1.29475 0
M  V30 2269 C 209.322 0.379974 2.31502 0
M  V30 2270 C 210.338 -0.524695 1.659 0
M  V30 2271 O 211.514 -0.414551 1.97087 0
M  V30 2272 C 208.579 -0.385138 3.44554 0
M  V30 2273 C 207.64 0.550914 4.2575 0
M  V30 2274 C 206.873 -0.177778 5.33404 0
M  V30 2275 O 207.096 -1.40189 5.52904 0
M  V30 2276 O 206.03 0.479106 5.9999 0
M  V30 2277 H 209.856 1.22639 2.77837 0
M  V30 2278 H 207.441 0.662834 1.33891 0
M  V30 2279 H 209.323 -0.817841 4.13388 0
M  V30 2280 H 207.998 -1.20763 3.0033 0
M  V30 2281 H 206.905 1.03271 3.59564 0
M  V30 2282 H 208.238 1.33979 4.73614 0
M  V30 2283 N 209.89 -1.43072 0.660911 0
M  V30 2284 C 211.167 -1.95307 0.107017 0
M  V30 2285 C 211.547 -1.60192 -1.37484 0
M  V30 2286 O 210.895 -0.890949 -2.10415 0
M  V30 2287 C 211.105 -3.47124 0.361402 0
M  V30 2288 C 212.453 -4.23738 0.270455 0
M  V30 2289 O 213.477 -3.54981 0.294382 0
M  V30 2290 O 212.336 -5.46131 0.200737 0
M  V30 2291 H 209.43 -0.826984 -0.00517729 0
M  V30 2292 H 211.976 -1.52972 0.734681 0
M  V30 2293 H 210.748 -3.65837 1.38848 0
M  V30 2294 H 210.371 -3.96475 -0.298953 0
M  V30 2295 N 211.368 -0.403325 -1.52352 0
M  V30 2296 C 212.784 -0.0539281 -1.59509 0
M  V30 2297 C 212.984 1.43307 -1.41652 0
M  V30 2298 O 212.04 2.19924 -1.24056 0
M  V30 2299 C 213.353 -0.543654 -2.95745 0
M  V30 2300 C 214.901 -0.501125 -3.08962 0
M  V30 2301 C 215.376 -0.967267 -4.47669 0
M  V30 2302 N 216.867 -0.923849 -4.53893 0
M  V30 2303 C 217.602 -1.25578 -5.5948 0
M  V30 2304 N 217.098 -1.65889 -6.72646 0
M  V30 2305 N 218.891 -1.17613 -5.49658 0
M  V30 2306 H 211.042 -1.37123 -1.62206 0
M  V30 2307 H 213.305 -0.56294 -0.76276 0
M  V30 2308 H 213.011 -1.58275 -3.14073 0
M  V30 2309 H 212.885 0.0498042 -3.77167 0
M  V30 2310 H 215.272 0.528909 -2.90321 0
M  V30 2311 H 215.353 -1.13056 -2.2946 0
M  V30 2312 H 214.997 -1.9956 -4.67053 0
M  V30 2313 H 214.927 -0.314698 -5.25659 0
M  V30 2314 H 217.418 -0.627403 -3.72655 0
M  V30 2315 H 217.731 -1.89543 -7.49195 0
M  V30 2316 H 216.076 -1.69787 -6.73942 0
M  V30 2317 H 219.267 -0.860115 -4.6013 0
M  V30 2318 H 219.44 -1.43812 -6.3184 0
M  V30 2319 N 212.846 1.57033 -0.133567 0
M  V30 2320 C 214.092 1.95976 0.521649 0
M  V30 2321 C 214.425 1.01779 1.65393 0
M  V30 2322 O 213.7 0.0576581 1.94415 0
M  V30 2323 C 213.983 3.44738 1.04057 0
M  V30 2324 C 213.836 4.49711 -0.0892897 0
M  V30 2325 C 215.155 3.95682 1.92675 0
M  V30 2326 H 212.274 0.712579 0.188149 0
M  V30 2327 H 214.916 1.88813 -0.212076 0
M  V30 2328 H 213.066 3.50973 1.66583 0
M  V30 2329 H 214.738 4.55565 -0.725152 0
M  V30 2330 H 212.981 4.27261 -0.750378 0
M  V30 2331 H 213.652 5.51099 0.315284 0
M  V30 2332 H 216.128 3.91841 1.39998 0
M  V30 2333 H 215.004 5.00262 2.25897 0
M  V30 2334 H 215.265 3.37239 2.85872 0
M  V30 2335 N 214.325 -0.140222 1.56975 0
M  V30 2336 C 215.257 -1.19818 1.95388 0
M  V30 2337 C 216.27 -1.38816 0.850525 0
M  V30 2338 O 217.459 -1.38267 1.12891 0
M  V30 2339 C 214.559 -2.56189 2.21857 0
M  V30 2340 C 213.732 -2.58077 3.5315 0
M  V30 2341 C 212.791 -3.76037 3.6808 0
M  V30 2342 O 211.817 -3.60598 4.40406 0
M  V30 2343 N 213.019 -4.93763 3.05251 0
M  V30 2344 H 215.784 -0.871609 2.86746 0
M  V30 2345 H 213.345 -0.32972 1.58507 0
M  V30 2346 H 215.337 -3.33623 2.2908 0
M  V30 2347 H 213.907 -2.81111 1.36731 0
M  V30 2348 H 213.127 -1.6651 3.57307 0
M  V30 2349 H 214.415 -2.56377 4.39486 0
M  V30 2350 H 213.813 -5.09209 2.46419 0
M  V30 2351 H 212.37 -5.68949 3.18026 0
M  V30 2352 N 215.803 -1.52179 -0.40978 0
M  V30 2353 C 216.713 -1.78364 -1.52392 0
M  V30 2354 C 217.729 -0.669183 -1.60617 0
M  V30 2355 O 218.905 -0.954518 -1.77344 0
M  V30 2356 C 215.97 -1.92822 -2.88133 0
M  V30 2357 C 215.031 -3.16725 -2.898 0
M  V30 2358 C 214.264 -3.30483 -4.19067 0
M  V30 2359 O 214.487 -2.49522 -5.12928 0
M  V30 2360 O 213.421 -4.2363 -4.27576 0
M  V30 2361 H 217.247 -2.72931 -1.33201 0
M  V30 2362 H 214.832 -1.37016 -0.59557 0
M  V30 2363 H 216.714 -2.04157 -3.68643 0
M  V30 2364 H 215.389 -1.01444 -3.07393 0
M  V30 2365 H 214.296 -3.10848 -2.08146 0
M  V30 2366 H 215.629 -4.07881 -2.75489 0
M  V30 2367 N 217.281 0.66697 -1.42791 0
M  V30 2368 C 218.191 1.80962 -1.49299 0
M  V30 2369 C 219.207 1.69775 -0.381108 0
M  V30 2370 O 220.383 1.91188 -0.633188 0
M  V30 2371 C 217.448 3.17156 -1.40045 0
M  V30 2372 C 216.509 3.40242 -2.6179 0
M  V30 2373 C 215.742 4.69939 -2.52969 0
M  V30 2374 O 215.965 5.48372 -1.56985 0
M  V30 2375 O 214.899 4.94441 -3.43237 0
M  V30 2376 H 218.725 1.78427 -2.45759 0
M  V30 2377 H 216.31 0.823713 -1.24641 0
M  V30 2378 H 218.192 3.98413 -1.37276 0
M  V30 2379 H 216.867 3.20312 -0.467138 0
M  V30 2380 H 215.774 2.58802 -2.70134 0
M  V30 2381 H 217.107 3.41923 -3.54047 0
M  V30 2382 N 218.759 1.29093 0.90403 0
M  V30 2383 C 219.722 1.1386 1.98919 0
M  V30 2384 C 220.722 0.0753457 1.60623 0
M  V30 2385 O 221.912 0.321931 1.71199 0
M  V30 2386 C 219.044 0.740198 3.32767 0
M  V30 2387 H 220.237 2.10246 2.13861 0
M  V30 2388 H 217.79 1.12218 1.08797 0
M  V30 2389 H 218.525 -0.223997 3.23525 0
M  V30 2390 H 218.31 1.50838 3.61926 0
M  V30 2391 H 219.8 0.656546 4.12407 0
M  V30 2392 N 220.237 -1.11381 1.11499 0
M  V30 2393 C 221.653 -1.35143 0.849031 0
M  V30 2394 C 221.853 -1.94515 -0.525938 0
M  V30 2395 O 220.909 -2.1785 -1.27662 0
M  V30 2396 C 222.222 -2.28249 1.95762 0
M  V30 2397 C 223.77 -2.41812 1.98736 0
M  V30 2398 C 224.245 -3.3824 3.088 0
M  V30 2399 N 225.736 -3.45803 3.08179 0
M  V30 2400 C 226.471 -4.20358 3.89982 0
M  V30 2401 N 225.967 -4.97884 4.8175 0
M  V30 2402 N 227.76 -4.15877 3.78157 0
M  V30 2403 H 219.911 -0.712062 2.00109 0
M  V30 2404 H 222.174 -0.376025 0.870235 0
M  V30 2405 H 221.88 -1.91817 2.94787 0
M  V30 2406 H 221.754 -3.28473 1.85433 0
M  V30 2407 H 224.141 -2.77518 1.00338 0
M  V30 2408 H 224.222 -1.41437 2.13141 0
M  V30 2409 H 223.866 -3.03261 4.07425 0
M  V30 2410 H 223.796 -4.38471 2.91635 0
M  V30 2411 H 226.287 -2.90506 2.41691 0
M  V30 2412 H 226.6 -5.52142 5.40702 0
M  V30 2413 H 224.945 -4.97043 4.85771 0
M  V30 2414 H 228.136 -3.544 3.05808 0
M  V30 2415 H 228.309 -4.73723 4.42143 0
M  V30 2416 N 221.715 -0.905404 -1.28997 0
M  V30 2417 C 222.955 -0.541232 -1.97104 0
M  V30 2418 C 223.319 0.896841 -1.69767 0
M  V30 2419 O 224.52 1.36817 -2.31375 0
M  V30 2420 C 222.791 -0.832134 -3.47578 0
M  V30 2421 S 224.35 -0.573127 -4.35041 0
M  V30 2422 H 221.168 -0.200576 -0.682122 0
M  V30 2423 H 223.77 -1.16906 -1.56694 0
M  V30 2424 H 222.474 -1.87687 -3.64968 0
M  V30 2425 H 222.005 -0.192636 -3.92928 0
M  V30 2426 H 224.02 0.579297 -4.92807 0
M  V30 2427 N 223.193 1.4272 -0.668489 0
M  V30 2428 C 224.123 2.335 -0.000100175 0
M  V30 2429 C 225.104 1.50328 0.795964 0
M  V30 2430 O 226.289 1.78949 0.754385 0
M  V30 2431 C 223.419 3.33874 0.956302 0
M  V30 2432 C 222.373 4.27152 0.269278 0
M  V30 2433 C 221.699 5.17684 1.33818 0
M  V30 2434 C 222.999 5.15373 -0.847805 0
M  V30 2435 H 224.693 2.89639 -0.758244 0
M  V30 2436 H 222.239 1.39269 -0.366079 0
M  V30 2437 H 224.192 3.9629 1.43292 0
M  V30 2438 H 222.916 2.76025 1.74579 0
M  V30 2439 H 221.575 3.66123 -0.187042 0
M  V30 2440 H 221.223 4.56165 2.1195 0
M  V30 2441 H 220.923 5.80918 0.883659 0
M  V30 2442 H 222.447 5.82974 1.81586 0
M  V30 2443 H 223.861 5.7151 -0.452681 0
M  V30 2444 H 222.258 5.87407 -1.22773 0
M  V30 2445 H 223.328 4.5415 -1.69929 0
M  V30 2446 N 224.671 0.411399 1.52136 0
M  V30 2447 C 225.917 -0.163888 2.02137 0
M  V30 2448 C 226.25 -1.44597 1.29636 0
M  V30 2449 O 225.525 -1.90272 0.403353 0
M  V30 2450 C 225.808 -0.40927 3.57767 0
M  V30 2451 C 225.661 0.889643 4.40914 0
M  V30 2452 C 226.98 -1.19042 4.23694 0
M  V30 2453 H 224.099 -0.0580896 0.734707 0
M  V30 2454 H 226.741 0.54531 1.82007 0
M  V30 2455 H 224.891 -1.0134 3.7505 0
M  V30 2456 H 226.563 1.52575 4.35337 0
M  V30 2457 H 224.806 1.50011 4.07037 0
M  V30 2458 H 225.477 0.672314 5.4789 0
M  V30 2459 H 227.953 -0.678942 4.10524 0
M  V30 2460 H 226.829 -1.33086 5.32522 0
M  V30 2461 H 227.09 -2.21166 3.82803 0
M  V30 2462 N 226.149 -1.5696 0.141893 0
M  V30 2463 C 227.059 -2.20066 -0.812905 0
M  V30 2464 C 228.075 -1.18344 -1.27557 0
M  V30 2465 O 229.251 -1.50902 -1.33381 0
M  V30 2466 C 226.316 -2.80583 -2.03652 0
M  V30 2467 C 225.377 -3.97414 -1.62359 0
M  V30 2468 C 224.61 -4.55036 -2.78887 0
M  V30 2469 O 224.833 -4.11538 -3.94959 0
M  V30 2470 O 223.767 -5.45376 -2.54653 0
M  V30 2471 H 227.593 -3.02157 -0.305746 0
M  V30 2472 H 225.178 -1.49159 -0.0848799 0
M  V30 2473 H 227.06 -3.19067 -2.75272 0
M  V30 2474 H 225.735 -2.01508 -2.5333 0
M  V30 2475 H 224.642 -3.63656 -0.877775 0
M  V30 2476 H 225.975 -4.77994 -1.17401 0
M  V30 2477 N 227.627 0.131896 -1.57047 0
M  V30 2478 C 228.537 1.1815 -2.02676 0
M  V30 2479 C 229.553 1.46113 -0.944824 0
M  V30 2480 O 230.729 1.57485 -1.25541 0
M  V30 2481 C 227.794 2.49139 -2.41103 0
M  V30 2482 C 226.855 2.28688 -3.63318 0
M  V30 2483 C 226.088 3.53431 -3.99903 0
M  V30 2484 O 226.311 4.60223 -3.36973 0
M  V30 2485 O 225.245 3.45198 -4.93074 0
M  V30 2486 H 229.071 0.824069 -2.92306 0
M  V30 2487 H 226.656 0.341745 -1.45439 0
M  V30 2488 H 228.538 3.26338 -2.66611 0
M  V30 2489 H 227.213 2.84382 -1.54624 0
M  V30 2490 H 226.12 1.4939 -3.42977 0
M  V30 2491 H 227.453 1.98355 -4.50462 0
M  V30 2492 N 229.106 1.52395 0.401703 0
M  V30 2493 C 230.036 1.79231 1.49661 0
M  V30 2494 C 231.017 0.643654 1.57452 0
M  V30 2495 O 232.202 0.889989 1.72606 0
M  V30 2496 C 229.332 1.94971 2.87409 0
M  V30 2497 C 228.286 3.10604 2.94465 0
M  V30 2498 C 227.612 3.11577 4.34538 0
M  V30 2499 C 228.912 4.49921 2.6527 0
M  V30 2500 H 230.606 2.70917 1.27454 0
M  V30 2501 H 228.152 1.30362 0.6117 0
M  V30 2502 H 230.105 2.12328 3.63999 0
M  V30 2503 H 228.829 0.999632 3.10926 0
M  V30 2504 H 227.488 2.93009 2.20321 0
M  V30 2505 H 227.136 2.14277 4.55076 0
M  V30 2506 H 226.836 3.89247 4.40183 0
M  V30 2507 H 228.36 3.31073 5.13053 0
M  V30 2508 H 229.774 4.67683 3.31581 0
M  V30 2509 H 228.171 5.29564 2.82281 0
M  V30 2510 H 229.241 4.57507 1.60671 0
M  V30 2511 N 230.584 -0.659388 1.43143 0
M  V30 2512 C 232 -0.974337 1.26407 0
M  V30 2513 C 232.2 -2.007 0.179341 0
M  V30 2514 O 231.256 -2.4856 -0.444295 0
M  V30 2515 C 232.569 -1.46447 2.62628 0
M  V30 2516 C 234.117 -1.58144 2.7011 0
M  V30 2517 C 234.592 -2.1055 4.06734 0
M  V30 2518 N 236.083 -2.17861 4.08767 0
M  V30 2519 C 236.818 -2.59519 5.1131 0
M  V30 2520 N 236.314 -3.00518 6.24228 0
M  V30 2521 N 238.107 -2.59404 4.98664 0
M  V30 2522 H 230.258 0.0240528 2.12386 0
M  V30 2523 H 232.521 -0.0518065 0.946583 0
M  V30 2524 H 232.227 -0.780123 3.42939 0
M  V30 2525 H 232.101 -2.44058 2.87603 0
M  V30 2526 H 234.488 -2.25682 1.90136 0
M  V30 2527 H 234.569 -0.589828 2.48907 0
M  V30 2528 H 234.213 -1.43616 4.87172 0
M  V30 2529 H 234.143 -3.10531 4.25298 0
M  V30 2530 H 236.634 -1.88975 3.27257 0
M  V30 2531 H 236.947 -3.31036 6.98309 0
M  V30 2532 H 235.292 -2.98337 6.2771 0
M  V30 2533 H 238.483 -2.26747 4.09516 0
M  V30 2534 H 238.656 -2.91548 5.78709 0
M  V30 2535 N 232.062 -1.29571 -0.897171 0
M  V30 2536 C 233.009 -1.14916 -2.00158 0
M  V30 2537 C 233.979 -0.0418149 -1.66047 0
M  V30 2538 O 235.164 -0.209793 -1.89643 0
M  V30 2539 C 232.304 -0.834307 -3.34863 0
M  V30 2540 C 231.417 -2.02234 -3.8174 0
M  V30 2541 C 230.552 -1.64664 -5.05034 0
M  V30 2542 C 229.591 -2.80033 -5.44286 0
M  V30 2543 N 228.728 -2.42843 -6.58765 0
M  V30 2544 H 233.568 -2.09403 -2.12025 0
M  V30 2545 H 231.105 -1.042 -1.0383 0
M  V30 2546 H 233.063 -0.632436 -4.12379 0
M  V30 2547 H 231.693 0.0736656 -3.22716 0
M  V30 2548 H 230.745 -2.33583 -3.00238 0
M  V30 2549 H 232.057 -2.88673 -4.06779 0
M  V30 2550 H 231.211 -1.4078 -5.9014 0
M  V30 2551 H 229.95 -0.753766 -4.8184 0
M  V30 2552 H 228.955 -3.04596 -4.57713 0
M  V30 2553 H 230.18 -3.69989 -5.6946 0
M  V30 2554 H 228.126 -1.56046 -6.3717 0
M  V30 2555 H 228.043 -3.22815 -6.83613 0
M  V30 2556 H 229.311 -2.22285 -7.47134 0
M  V30 2557 N 233.54 1.10788 -1.12088 0
M  V30 2558 C 234.768 1.86461 -0.896651 0
M  V30 2559 C 235.183 1.80492 0.553912 0
M  V30 2560 O 234.54 1.19102 1.38278 0
M  V30 2561 C 234.591 3.35006 -1.35843 0
M  V30 2562 O 234.312 3.40866 -2.75213 0
M  V30 2563 C 235.813 4.27565 -1.1706 0
M  V30 2564 H 233.033 0.589425 -0.320654 0
M  V30 2565 H 235.577 1.40076 -1.48993 0
M  V30 2566 H 233.732 3.7887 -0.808458 0
M  V30 2567 H 234.146 4.33411 -2.9539 0
M  V30 2568 H 235.62 5.30007 -1.54263 0
M  V30 2569 H 236.097 4.3906 -0.110814 0
M  V30 2570 H 236.703 3.89501 -1.70789 0
M  V30 2571 N 235.018 0.912232 1.28515 0
M  V30 2572 C 235.965 0.397954 2.27343 0
M  V30 2573 C 236.935 -0.526766 1.57526 0
M  V30 2574 O 238.12 -0.449292 1.85435 0
M  V30 2575 C 235.26 -0.357263 3.43246 0
M  V30 2576 C 234.373 0.599788 4.27816 0
M  V30 2577 C 233.508 -0.173725 5.30916 0
M  V30 2578 C 232.547 0.777039 6.07148 0
M  V30 2579 N 231.684 0.0371398 7.0209 0
M  V30 2580 H 236.524 1.24577 2.70711 0
M  V30 2581 H 234.061 0.625612 1.33133 0
M  V30 2582 H 236.019 -0.8113 4.09236 0
M  V30 2583 H 234.649 -1.16943 3.00872 0
M  V30 2584 H 233.701 1.17235 3.61884 0
M  V30 2585 H 235.013 1.32704 4.80823 0
M  V30 2586 H 234.167 -0.688394 6.02782 0
M  V30 2587 H 232.906 -0.934041 4.78672 0
M  V30 2588 H 231.911 1.3031 5.34134 0
M  V30 2589 H 233.136 1.53689 6.61481 0
M  V30 2590 H 231.082 -0.705213 6.52198 0
M  V30 2591 H 230.999 0.704249 7.52713 0
M  V30 2592 H 232.267 -0.457383 7.78157 0
M  V30 2593 N 236.496 -1.42363 0.676048 0
M  V30 2594 C 237.459 -2.29199 0.00766941 0
M  V30 2595 C 238.459 -1.43389 -0.727745 0
M  V30 2596 O 239.649 -1.64764 -0.56556 0
M  V30 2597 C 236.781 -3.2591 -0.999785 0
M  V30 2598 H 237.974 -2.89794 0.771988 0
M  V30 2599 H 235.527 -1.50024 0.438468 0
M  V30 2600 H 236.262 -2.70256 -1.79255 0
M  V30 2601 H 236.047 -3.89202 -0.475829 0
M  V30 2602 H 237.537 -3.91028 -1.46583 0
M  V30 2603 N 237.974 -0.419461 -1.51915 0
M  V30 2604 C 239.199 0.154572 -2.06823 0
M  V30 2605 C 239.624 1.3722 -1.28656 0
M  V30 2606 O 238.982 1.78461 -0.319583 0
M  V30 2607 C 239.03 0.473172 -3.57482 0
M  V30 2608 O 238.134 1.56255 -3.81652 0
M  V30 2609 H 237.475 0.0096924 -0.663929 0
M  V30 2610 H 240.005 -0.595642 -1.95738 0
M  V30 2611 H 240.015 0.728825 -4.01438 0
M  V30 2612 H 238.69 -0.416873 -4.13805 0
M  V30 2613 H 237.267 1.29825 -3.49571 0
M  V30 2614 N 239.452 1.56882 -0.150215 0
M  V30 2615 C 240.863 1.82995 0.370076 0
M  V30 2616 C 241.214 1.06907 1.64515 0
M  V30 2617 O 240.339 0.315369 2.1409 0
M  V30 2618 C 240.934 3.31942 0.678208 0
M  V30 2619 C 239.493 3.58625 1.14301 0
M  V30 2620 C 238.64 2.76792 0.167778 0
M  V30 2621 H 241.591 1.54209 -0.374858 0
M  V30 2622 H 241.612 3.48272 1.53254 0
M  V30 2623 H 241.124 3.87294 -0.249991 0
M  V30 2624 H 239.225 3.08664 2.08704 0
M  V30 2625 H 239.338 4.67073 1.06676 0
M  V30 2626 H 237.702 2.45972 0.661037 0
M  V30 2627 H 238.485 3.34916 -0.754069 0
M  V30 2628 N 240.93 -0.123565 1.57115 0
M  V30 2629 C 242.17 -0.838097 1.86428 0
M  V30 2630 C 242.534 -1.77266 0.737611 0
M  V30 2631 O 243.735 -2.52842 0.912389 0
M  V30 2632 C 242.006 -1.57219 3.20962 0
M  V30 2633 S 243.565 -2.32893 3.71896 0
M  V30 2634 H 240.383 -0.279811 0.653626 0
M  V30 2635 H 242.985 -0.0967034 1.95261 0
M  V30 2636 H 241.689 -0.877522 4.00909 0
M  V30 2637 H 241.22 -2.35405 3.15195 0
M  V30 2638 H 243.235 -3.5853 3.43032 0
M  V30 2639 N 242.408 -1.52605 -0.393616 0
M  V30 2640 C 243.685 -1.58001 -1.15304 0
M  V30 2641 C 244.065 -0.370385 -2.07825 0
M  V30 2642 O 243.413 0.641638 -2.19306 0
M  V30 2643 C 243.623 -2.91652 -1.91677 0
M  V30 2644 C 244.971 -3.4522 -2.47201 0
M  V30 2645 O 245.995 -2.93495 -2.01839 0
M  V30 2646 O 244.854 -4.35579 -3.3005 0
M  V30 2647 H 241.948 -0.637068 -0.527327 0
M  V30 2648 H 244.494 -1.64939 -0.399141 0
M  V30 2649 H 243.266 -3.71136 -1.23992 0
M  V30 2650 H 242.889 -2.88077 -2.74039 0
M  V30 2651 N 243.887 0.651787 -1.4349 0
M  V30 2652 C 245.298 1.233 -1.40193 0
M  V30 2653 C 245.649 1.9591 -0.106727 0
M  V30 2654 O 244.774 2.01316 0.793773 0
M  V30 2655 C 245.369 2.24257 -2.53957 0
M  V30 2656 C 243.928 2.77852 -2.5392 0
M  V30 2657 C 243.075 1.52517 -2.3159 0
M  V30 2658 H 246.026 0.443717 -1.52371 0
M  V30 2659 H 246.047 3.0646 -2.25528 0
M  V30 2660 H 245.559 1.71382 -3.4821 0
M  V30 2661 H 243.66 3.34786 -1.63551 0
M  V30 2662 H 243.773 3.25299 -3.51735 0
M  V30 2663 H 242.137 1.79915 -1.80285 0
M  V30 2664 H 242.92 1.01574 -3.27929 0
M  V30 2665 N 245.365 1.30045 0.890287 0
M  V30 2666 C 246.593 1.21472 1.67487 0
M  V30 2667 C 247.008 -0.223241 1.87476 0
M  V30 2668 O 246.365 -1.14828 1.41847 0
M  V30 2669 C 246.416 1.93394 3.05419 0
M  V30 2670 O 246.137 3.31576 2.86337 0
M  V30 2671 C 247.638 1.91414 3.99844 0
M  V30 2672 H 244.858 0.420604 0.522813 0
M  V30 2673 H 247.402 1.7158 1.11268 0
M  V30 2674 H 245.557 1.47099 3.58386 0
M  V30 2675 H 245.971 3.67929 3.73802 0
M  V30 2676 H 247.445 2.46285 4.94012 0
M  V30 2677 H 247.922 0.891833 4.3005 0
M  V30 2678 H 248.528 2.37496 3.52811 0
M  V30 2679 N 246.843 -1.10192 1.12674 0
M  V30 2680 C 248.09 -1.82205 0.883606 0
M  V30 2681 C 248.418 -1.8532 -0.590492 0
M  V30 2682 O 247.673 -1.31137 -1.45264 0
M  V30 2683 C 247.972 -3.28552 1.4067 0
M  V30 2684 C 247.638 -3.45582 2.89627 0
M  V30 2685 C 246.3 -3.49937 3.30299 0
M  V30 2686 C 248.652 -3.50768 3.85501 0
M  V30 2687 C 245.98 -3.57049 4.65546 0
M  V30 2688 C 248.332 -3.59414 5.20581 0
M  V30 2689 C 246.996 -3.62034 5.60792 0
M  V30 2690 H 246.266 -0.666735 0.323334 0
M  V30 2691 H 248.913 -1.29868 1.40736 0
M  V30 2692 H 247.218 -3.83473 0.80347 0
M  V30 2693 H 248.915 -3.82788 1.19475 0
M  V30 2694 H 245.505 -3.42871 2.57172 0
M  V30 2695 H 249.689 -3.46651 3.55171 0
M  V30 2696 H 244.945 -3.57361 4.96088 0
M  V30 2697 H 249.119 -3.62371 5.94693 0
M  V30 2698 H 246.746 -3.67298 6.6558 0
M  V30 2699 N 248.321 -0.919034 -1.28029 0
M  V30 2700 C 249.57 -0.550802 -1.94034 0
M  V30 2701 C 249.883 0.910877 -1.73096 0
M  V30 2702 O 251.089 1.3875 -2.33368 0
M  V30 2703 C 249.545 -0.934249 -3.47563 0
M  V30 2704 C 249.153 -2.41602 -3.7727 0
M  V30 2705 C 250.897 -0.636854 -4.19696 0
M  V30 2706 C 248.804 -2.73932 -5.24133 0
M  V30 2707 H 247.734 -0.202273 -0.726362 0
M  V30 2708 H 250.385 -1.11867 -1.45458 0
M  V30 2709 H 248.767 -0.295115 -3.94899 0
M  V30 2710 H 249.941 -3.10233 -3.40723 0
M  V30 2711 H 248.256 -2.68441 -3.18321 0
M  V30 2712 H 250.853 -0.855005 -5.2782 0
M  V30 2713 H 251.196 0.425575 -4.14119 0
M  V30 2714 H 251.729 -1.23469 -3.78154 0
M  V30 2715 H 248.468 -3.79049 -5.34792 0
M  V30 2716 H 247.988 -2.09942 -5.61858 0
M  V30 2717 H 249.667 -2.61215 -5.91925 0
M  V30 2718 N 249.799 1.42003 -0.683588 0
M  V30 2719 C 250.729 2.33487 -0.024866 0
M  V30 2720 C 251.71 1.51163 0.779975 0
M  V30 2721 O 252.895 1.79739 0.735362 0
M  V30 2722 C 250.025 3.3487 0.920836 0
M  V30 2723 C 248.979 4.27414 0.223958 0
M  V30 2724 C 248.305 5.19074 1.2832 0
M  V30 2725 C 249.605 5.14445 -0.90242 0
M  V30 2726 H 251.299 2.88819 -0.788921 0
M  V30 2727 H 248.845 1.38873 -0.38083 0
M  V30 2728 H 250.798 3.97787 1.39081 0
M  V30 2729 H 249.522 2.77861 1.71642 0
M  V30 2730 H 248.181 3.65904 -0.225864 0
M  V30 2731 H 247.829 4.58387 2.071 0
M  V30 2732 H 247.529 5.81822 0.821995 0
M  V30 2733 H 249.053 5.84867 1.75392 0
M  V30 2734 H 250.467 5.70998 -0.513272 0
M  V30 2735 H 248.864 5.86072 -1.28997 0
M  V30 2736 H 249.934 4.52322 -1.74737 0
M  V30 2737 N 251.277 0.427512 1.51691 0
M  V30 2738 C 252.525 -0.141948 2.01601 0
M  V30 2739 C 252.846 -1.44067 1.31414 0
M  V30 2740 O 252.116 -1.90763 0.445658 0
M  V30 2741 H 250.696 -0.0554468 0.744939 0
M  V30 2742 H 253.358 0.567968 1.86441 0
M  V30 2743 H 252.454 -0.324913 3.10404 0
M  V30 2744 N 252.755 -1.56801 0.158532 0
M  V30 2745 C 253.995 -1.98383 -0.49229 0
M  V30 2746 C 254.359 -1.04184 -1.61275 0
M  V30 2747 O 255.56 -1.34856 -2.32524 0
M  V30 2748 C 253.831 -3.4385 -0.974766 0
M  V30 2749 S 255.39 -4.07459 -1.62857 0
M  V30 2750 H 252.208 -0.693041 -0.158794 0
M  V30 2751 H 254.81 -1.93856 0.252974 0
M  V30 2752 H 253.514 -4.10131 -0.148688 0
M  V30 2753 H 253.045 -3.52115 -1.75438 0
M  V30 2754 H 255.06 -4.01458 -2.91627 0
M  V30 2755 N 254.233 0.115231 -1.57178 0
M  V30 2756 C 255.196 1.12526 -1.99676 0
M  V30 2757 C 256.196 1.34095 -0.88742 0
M  V30 2758 O 257.386 1.30548 -1.15337 0
M  V30 2759 C 254.518 2.4789 -2.34015 0
M  V30 2760 H 255.711 0.759912 -2.90113 0
M  V30 2761 H 253.264 0.359648 -1.52106 0
M  V30 2762 H 253.999 2.89339 -1.4647 0
M  V30 2763 H 253.784 2.33588 -3.14927 0
M  V30 2764 H 255.274 3.20575 -2.67622 0
M  V30 2765 N 255.711 1.52812 0.385517 0
M  V30 2766 C 257.122 1.5993 0.963293 0
M  V30 2767 C 257.473 0.454302 1.90868 0
M  V30 2768 O 256.598 -0.422132 2.12243 0
M  V30 2769 C 257.193 2.89871 1.75387 0
M  V30 2770 C 255.752 2.99389 2.28129 0
M  V30 2771 C 254.899 2.55071 1.08783 0
M  V30 2772 H 257.85 1.5784 0.164948 0
M  V30 2773 H 257.871 2.76553 2.61341 0
M  V30 2774 H 257.383 3.73186 1.06554 0
M  V30 2775 H 255.484 2.20619 3.00263 0
M  V30 2776 H 255.597 4.04096 2.57377 0
M  V30 2777 H 253.961 2.09473 1.4489 0
M  V30 2778 H 254.744 3.40785 0.414807 0
M  V30 2779 N 257.189 -0.644168 1.43834 0
M  V30 2780 C 258.429 -1.41565 1.47441 0
M  V30 2781 C 258.793 -1.91743 0.0992723 0
M  V30 2782 O 259.994 -2.68798 0.0100192 0
M  V30 2783 C 258.265 -2.55902 2.49498 0
M  V30 2784 S 259.824 -3.44287 2.72051 0
M  V30 2785 H 256.642 -0.483118 0.521649 0
M  V30 2786 H 259.244 -0.747008 1.80666 0
M  V30 2787 H 257.948 -2.17327 3.48134 0
M  V30 2788 H 257.479 -3.27607 2.17801 0
M  V30 2789 H 259.494 -4.52927 2.0266 0
M  V30 2790 N 258.668 -1.30515 -0.883378 0
M  V30 2791 C 259.616 -1.16941 -2.01066 0
M  V30 2792 C 260.61 -0.0809148 -1.69207 0
M  V30 2793 O 261.816 -0.241877 -1.78367 0
M  V30 2794 H 258.191 -0.361705 -0.659298 0
M  V30 2795 H 260.162 -2.12344 -2.09649 0
M  V30 2796 C 258.911 -0.879694 -3.36388 0
M  V30 2797 H 258.234 -1.70936 -3.61415 0
M  V30 2798 H 259.674 -0.82483 -4.159 0
M  V30 2799 C 258.133 0.417409 -3.34304 0
M  V30 2800 O 258.663 1.43843 -3.75063 0
M  V30 2801 N 256.869 0.429141 -2.87414 0
M  V30 2802 H 256.416 -0.402222 -2.5444 0
M  V30 2803 H 256.374 1.29696 -2.86403 0
M  V30 2804 N 260.146 1.09593 -1.13257 0
M  V30 2805 C 261.392 1.82003 -0.89458 0
M  V30 2806 C 261.725 1.85402 0.577906 0
M  V30 2807 O 261 1.32099 1.42759 0
M  V30 2808 C 261.283 3.28237 -1.48096 0
M  V30 2809 C 261.136 3.3312 -3.02244 0
M  V30 2810 C 262.455 4.24871 -1.14774 0
M  V30 2811 H 259.574 0.66077 -0.326424 0
M  V30 2812 H 262.216 1.28389 -1.40058 0
M  V30 2813 H 260.366 3.74024 -1.05062 0
M  V30 2814 H 262.038 2.95748 -3.54021 0
M  V30 2815 H 260.281 2.72756 -3.37323 0
M  V30 2816 H 260.952 4.3613 -3.38371 0
M  V30 2817 H 263.428 3.87361 -1.51957 0
M  V30 2818 H 262.304 5.25532 -1.58452 0
M  V30 2819 H 262.565 4.42058 -0.0611849 0
M  V30 2820 N 261.624 0.925811 1.2754 0
M  V30 2821 C 262.873 0.561084 1.93739 0
M  V30 2822 C 263.186 -0.901685 1.73577 0
M  V30 2823 O 264.392 -1.37511 2.34101 0
M  V30 2824 C 262.848 0.952668 3.47062 0
M  V30 2825 C 262.456 2.43599 3.75983 0
M  V30 2826 C 264.2 0.659103 4.19352 0
M  V30 2827 C 262.107 2.76707 5.22673 0
M  V30 2828 H 261.037 0.206122 0.725279 0
M  V30 2829 H 263.688 1.12637 1.44863 0
M  V30 2830 H 262.07 0.316053 3.94737 0
M  V30 2831 H 263.244 3.12035 3.39073 0
M  V30 2832 H 261.559 2.70125 3.16893 0
M  V30 2833 H 264.156 0.882985 5.27359 0
M  V30 2834 H 264.499 -0.403607 4.14339 0
M  V30 2835 H 265.032 1.25473 3.77494 0
M  V30 2836 H 261.771 3.8188 5.32774 0
M  V30 2837 H 261.291 2.12919 5.60737 0
M  V30 2838 H 262.97 2.6435 5.90532 0
M  V30 2839 N 263.102 -1.41638 0.69111 0
M  V30 2840 C 264.342 -2.03166 0.224291 0
M  V30 2841 C 264.706 -1.53537 -1.15284 0
M  V30 2842 O 265.907 -2.0696 -1.71525 0
M  V30 2843 C 264.178 -3.56342 0.274758 0
M  V30 2844 S 265.737 -4.3864 -0.118669 0
M  V30 2845 H 262.555 -0.705188 0.0907263 0
M  V30 2846 H 265.157 -1.7314 0.907895 0
M  V30 2847 H 263.861 -3.89958 1.2791 0
M  V30 2848 H 263.392 -3.91063 -0.428142 0
M  V30 2849 H 265.407 -4.77549 -1.34764 0
M  V30 2850 N 264.58 -0.43555 -1.51462 0
M  V30 2851 C 265.805 0.132627 -2.06976 0
M  V30 2852 C 266.23 1.35848 -1.30104 0
M  V30 2853 O 265.588 1.78112 -0.338493 0
M  V30 2854 C 265.636 0.43523 -3.57964 0
M  V30 2855 O 264.74 1.52198 -3.83288 0
M  V30 2856 H 264.081 0.00265 -0.663995 0
M  V30 2857 H 266.611 -0.616369 -1.95095 0
M  V30 2858 H 266.621 0.686206 -4.02188 0
M  V30 2859 H 265.296 -0.460739 -4.1334 0
M  V30 2860 H 263.873 1.2611 -3.50928 0
M  V30 2861 N 266.058 1.56714 -0.166846 0
M  V30 2862 C 267.307 1.95922 0.479318 0
M  V30 2863 C 267.62 1.05529 1.6469 0
M  V30 2864 O 268.826 1.34399 2.35901 0
M  V30 2865 C 267.282 3.48359 0.90412 0
M  V30 2866 C 266.89 4.47369 -0.237621 0
M  V30 2867 C 268.634 3.96394 1.51896 0
M  V30 2868 C 266.541 5.91039 0.206561 0
M  V30 2869 H 265.471 0.731495 0.18284 0
M  V30 2870 H 268.122 1.81728 -0.254363 0
M  V30 2871 H 266.504 3.57955 1.69365 0
M  V30 2872 H 267.678 4.49485 -1.01489 0
M  V30 2873 H 265.993 4.09366 -0.762128 0
M  V30 2874 H 268.59 5.01186 1.86325 0
M  V30 2875 H 268.933 3.39075 2.41524 0
M  V30 2876 H 269.466 3.89796 0.79395 0
M  V30 2877 H 266.205 6.52221 -0.654834 0
M  V30 2878 H 265.725 5.9224 0.949282 0
M  V30 2879 H 267.404 6.43707 0.651939 0
M  V30 2880 N 267.536 -0.106894 1.57237 0
M  V30 2881 C 268.785 -0.811163 1.8467 0
M  V30 2882 C 269.098 -1.80469 0.754342 0
M  V30 2883 O 270.304 -2.55601 0.915439 0
M  V30 2884 C 268.76 -1.49337 3.27454 0
M  V30 2885 C 268.368 -0.540217 4.44731 0
M  V30 2886 C 270.112 -2.18206 3.64124 0
M  V30 2887 C 268.019 -1.22634 5.78545 0
M  V30 2888 H 266.949 -0.306679 0.688813 0
M  V30 2889 H 269.6 -0.0639887 1.83388 0
M  V30 2890 H 267.982 -2.2876 3.23241 0
M  V30 2891 H 269.156 0.221659 4.60267 0
M  V30 2892 H 267.471 0.042146 4.16379 0
M  V30 2893 H 270.068 -2.70253 4.61376 0
M  V30 2894 H 270.411 -2.96562 2.92158 0
M  V30 2895 H 270.944 -1.45658 3.70174 0
M  V30 2896 H 267.683 -0.483832 6.53712 0
M  V30 2897 H 267.203 -1.95993 5.66874 0
M  V30 2898 H 268.882 -1.75615 6.2271 0
M  V30 2899 N 269.014 -1.53014 -0.377408 0
M  V30 2900 C 270.261 -1.68623 -1.12128 0
M  V30 2901 C 270.589 -0.431997 -1.89642 0
M  V30 2902 O 269.844 0.585855 -1.86725 0
M  V30 2903 C 270.143 -2.87982 -2.11663 0
M  V30 2904 C 269.809 -4.24964 -1.50719 0
M  V30 2905 C 268.471 -4.62217 -1.33825 0
M  V30 2906 C 270.823 -5.10199 -1.06519 0
M  V30 2907 C 268.151 -5.82352 -0.712963 0
M  V30 2908 C 270.503 -6.30969 -0.453955 0
M  V30 2909 C 269.167 -6.66944 -0.272411 0
M  V30 2910 H 268.437 -0.617034 -0.410305 0
M  V30 2911 H 271.084 -1.8718 -0.404484 0
M  V30 2912 H 269.389 -2.63889 -2.89603 0
M  V30 2913 H 271.086 -2.97253 -2.6915 0
M  V30 2914 H 267.676 -3.95626 -1.64858 0
M  V30 2915 H 271.86 -4.81978 -1.18368 0
M  V30 2916 H 267.116 -6.08824 -0.560611 0
M  V30 2917 H 271.29 -6.96324 -0.103217 0
M  V30 2918 H 268.917 -7.59898 0.214181 0
M  V30 2919 N 270.492 0.636531 -1.44174 0
M  V30 2920 C 271.442 1.74233 -1.47061 0
M  V30 2921 C 272.426 1.57331 -0.337034 0
M  V30 2922 O 273.618 1.67159 -0.581973 0
M  V30 2923 C 270.747 3.12897 -1.41246 0
M  V30 2924 C 269.833 3.35288 -2.59698 0
M  V30 2925 N 270.224 3.2807 -3.84972 0
M  V30 2926 C 268.522 3.66065 -2.54778 0
M  V30 2927 C 269.223 3.51001 -4.63867 0
M  V30 2928 N 268.199 3.73616 -3.94857 0
M  V30 2929 H 272.001 1.67103 -2.41773 0
M  V30 2930 H 269.515 0.838806 -1.3906 0
M  V30 2931 H 271.512 3.92189 -1.41398 0
M  V30 2932 H 270.172 3.21197 -0.47569 0
M  V30 2933 H 271.183 3.07109 -4.17019 0
M  V30 2934 H 267.86 3.81379 -1.6987 0
M  V30 2935 H 269.25 3.51059 -5.72894 0
M  V30 2936 N 271.97 1.30982 0.876444 0
M  V30 2937 C 272.917 1.18085 1.98304 0
M  V30 2938 C 273.887 0.0682263 1.6596 0
M  V30 2939 O 275.072 0.239937 1.89285 0
M  V30 2940 C 272.212 0.887475 3.33493 0
M  V30 2941 C 271.325 2.08281 3.78475 0
M  V30 2942 C 270.46 1.72678 5.0235 0
M  V30 2943 C 269.499 2.88657 5.39762 0
M  V30 2944 N 268.636 2.53292 6.54819 0
M  V30 2945 H 273.476 2.1275 2.08666 0
M  V30 2946 H 271.013 1.05839 1.02159 0
M  V30 2947 H 272.971 0.697961 4.1132 0
M  V30 2948 H 271.601 -0.022315 3.22792 0
M  V30 2949 H 270.653 2.3833 2.96484 0
M  V30 2950 H 271.965 2.95108 4.02135 0
M  V30 2951 H 271.119 1.50151 5.87826 0
M  V30 2952 H 269.858 0.830327 4.8058 0
M  V30 2953 H 268.863 3.1184 4.52809 0
M  V30 2954 H 270.088 3.79002 5.63502 0
M  V30 2955 H 268.034 1.66163 6.34607 0
M  V30 2956 H 267.951 3.3365 6.7839 0
M  V30 2957 H 269.219 2.34143 7.43503 0
M  V30 2958 N 273.449 -1.08991 1.13837 0
M  V30 2959 C 274.865 -1.33312 0.877506 0
M  V30 2960 C 275.065 -1.95587 -0.48456 0
M  V30 2961 O 274.121 -2.20509 -1.23013 0
M  V30 2962 C 275.434 -2.24045 2.0056 0
M  V30 2963 C 276.982 -2.37542 2.03821 0
M  V30 2964 C 277.457 -3.31614 3.15905 0
M  V30 2965 N 278.948 -3.39189 3.15445 0
M  V30 2966 C 279.683 -4.11992 3.98811 0
M  V30 2967 N 279.179 -4.87553 4.92203 0
M  V30 2968 N 280.972 -4.07762 3.86894 0
M  V30 2969 H 273.123 -0.669456 2.01574 0
M  V30 2970 H 275.386 -0.357482 0.878015 0
M  V30 2971 H 275.092 -1.85521 2.98789 0
M  V30 2972 H 274.966 -3.24466 1.92359 0
M  V30 2973 H 277.353 -2.75327 1.06202 0
M  V30 2974 H 277.434 -1.36884 2.16093 0
M  V30 2975 H 277.078 -2.94551 4.13766 0
M  V30 2976 H 277.008 -4.32186 3.0087 0
M  V30 2977 H 279.499 -2.85314 2.47799 0
M  V30 2978 H 279.812 -5.40549 5.52292 0
M  V30 2979 H 278.157 -4.86627 4.96205 0
M  V30 2980 H 281.348 -3.47833 3.13257 0
M  V30 2981 H 281.521 -4.64238 4.52092 0
M  V30 2982 N 274.927 -0.932562 -1.27047 0
M  V30 2983 C 276.174 -0.575559 -1.94148 0
M  V30 2984 C 276.502 0.883984 -1.73251 0
M  V30 2985 O 275.757 1.64655 -1.0577 0
M  V30 2986 C 276.056 -0.853713 -3.47054 0
M  V30 2987 C 275.722 -2.29577 -3.88079 0
M  V30 2988 C 274.384 -2.68999 -3.9899 0
M  V30 2989 C 276.736 -3.23331 -4.08787 0
M  V30 2990 C 274.064 -4.01289 -4.28 0
M  V30 2991 C 276.416 -4.55207 -4.39282 0
M  V30 2992 C 275.08 -4.94457 -4.48407 0
M  V30 2993 H 274.35 -0.210612 -0.710439 0
M  V30 2994 H 276.997 -1.17744 -1.51025 0
M  V30 2995 H 275.302 -0.169204 -3.91434 0
M  V30 2996 H 276.999 -0.55639 -3.97121 0
M  V30 2997 H 273.589 -1.97994 -3.80127 0
M  V30 2998 H 277.773 -2.94074 -3.99793 0
M  V30 2999 H 273.029 -4.31374 -4.33275 0
M  V30 3000 H 277.203 -5.27852 -4.54252 0
M  V30 3001 H 274.83 -5.96994 -4.7064 0
M  V30 3002 N 276.405 1.4127 -0.698611 0
M  V30 3003 C 277.682 1.94955 -0.158762 0
M  V30 3004 C 278.062 1.63781 1.33188 0
M  V30 3005 O 277.41 0.946423 2.07979 0
M  V30 3006 C 277.62 3.46044 -0.453309 0
M  V30 3007 C 278.968 4.22872 -0.382707 0
M  V30 3008 O 279.992 3.54076 -0.388396 0
M  V30 3009 O 278.851 5.45407 -0.345463 0
M  V30 3010 H 275.945 0.82683 -0.0167505 0
M  V30 3011 H 278.491 1.50971 -0.77498 0
M  V30 3012 H 277.263 3.62028 -1.48498 0
M  V30 3013 H 276.886 3.97128 0.19373 0
M  V30 3014 N 277.883 0.443576 1.51229 0
M  V30 3015 C 279.113 -0.119117 2.06256 0
M  V30 3016 C 279.521 -1.36471 1.31043 0
M  V30 3017 O 278.864 -1.80034 0.365151 0
M  V30 3018 C 278.926 -0.500546 3.55998 0
M  V30 3019 C 278.59 0.639125 4.52509 0
M  V30 3020 C 279.587 1.51311 4.97394 0
M  V30 3021 C 277.272 0.821632 4.95535 0
M  V30 3022 C 279.266 2.55425 5.83984 0
M  V30 3023 C 276.953 1.86603 5.81913 0
M  V30 3024 C 277.951 2.73072 6.26036 0
M  V30 3025 O 277.639 3.75718 7.10698 0
M  V30 3026 H 277.371 -0.00857665 0.675946 0
M  V30 3027 H 279.925 0.623288 1.95715 0
M  V30 3028 H 278.155 -1.29575 3.64345 0
M  V30 3029 H 279.844 -0.995116 3.93513 0
M  V30 3030 H 280.61 1.38367 4.64844 0
M  V30 3031 H 276.489 0.158149 4.60729 0
M  V30 3032 H 280.033 3.22949 6.18344 0
M  V30 3033 H 275.93 1.99564 6.13876 0
M  V30 3034 H 276.698 3.72374 7.2889 0
M  V30 3035 N 279.361 -1.56624 0.175154 0
M  V30 3036 C 280.308 -2.18149 -0.753634 0
M  V30 3037 C 281.278 -1.12265 -1.22417 0
M  V30 3038 O 282.463 -1.40432 -1.29165 0
M  V30 3039 C 279.603 -2.82933 -1.97592 0
M  V30 3040 C 278.716 -4.03289 -1.5486 0
M  V30 3041 C 277.851 -4.55988 -2.72485 0
M  V30 3042 C 276.89 -5.68746 -2.26262 0
M  V30 3043 N 276.027 -6.15938 -3.36994 0
M  V30 3044 H 280.867 -2.9717 -0.222195 0
M  V30 3045 H 278.404 -1.46774 -0.0979422 0
M  V30 3046 H 280.362 -3.18653 -2.69288 0
M  V30 3047 H 278.992 -2.06509 -2.481 0
M  V30 3048 H 278.044 -3.73364 -0.728246 0
M  V30 3049 H 279.356 -4.849 -1.16933 0
M  V30 3050 H 278.51 -4.9391 -3.52332 0
M  V30 3051 H 277.249 -3.73443 -3.13674 0
M  V30 3052 H 276.254 -5.30372 -1.44863 0
M  V30 3053 H 277.479 -6.53095 -1.86127 0
M  V30 3054 H 275.425 -5.36321 -3.77751 0
M  V30 3055 H 275.342 -6.92548 -3.03172 0
M  V30 3056 H 276.61 -6.58511 -4.17114 0
M  V30 3057 N 280.839 0.0985539 -1.57292 0
M  V30 3058 C 282.116 0.834155 -1.76921 0
M  V30 3059 C 282.496 1.97101 -0.755928 0
M  V30 3060 O 281.844 2.27474 0.216245 0
M  V30 3061 C 282.054 1.33194 -3.22584 0
M  V30 3062 C 283.402 1.77611 -3.85668 0
M  V30 3063 O 284.426 1.42825 -3.26312 0
M  V30 3064 O 283.285 2.4192 -4.90038 0
M  V30 3065 H 280.379 0.397628 -0.725135 0
M  V30 3066 H 282.925 0.0807044 -1.69508 0
M  V30 3067 H 281.697 0.517248 -3.87866 0
M  V30 3068 H 281.32 2.1475 -3.34616 0
M  V30 3069 N 282.317 1.53212 0.369288 0
M  V30 3070 C 283.249 1.75668 1.47219 0
M  V30 3071 C 284.262 0.637387 1.49804 0
M  V30 3072 O 285.451 0.913561 1.5335 0
M  V30 3073 C 282.551 1.81818 2.85999 0
M  V30 3074 C 281.724 3.11409 3.07153 0
M  V30 3075 C 280.783 3.08849 4.26026 0
M  V30 3076 O 279.809 3.82659 4.2138 0
M  V30 3077 N 281.011 2.29409 5.33246 0
M  V30 3078 H 283.776 2.70832 1.28337 0
M  V30 3079 H 281.337 1.51944 0.55898 0
M  V30 3080 H 283.329 1.77588 3.63655 0
M  V30 3081 H 281.899 0.939544 2.98146 0
M  V30 3082 H 281.119 3.28971 2.1719 0
M  V30 3083 H 282.407 3.97059 3.18154 0
M  V30 3084 H 281.805 1.68946 5.39883 0
M  V30 3085 H 280.362 2.31001 6.09493 0
M  V30 3086 N 283.795 -0.628877 1.44509 0
M  V30 3087 C 284.727 -1.754 1.47538 0
M  V30 3088 C 285.74 -1.58575 0.368506 0
M  V30 3089 O 286.929 -1.66847 0.634376 0
M  V30 3090 C 284.029 -3.1315 1.29577 0
M  V30 3091 C 283.202 -3.56413 2.53551 0
M  V30 3092 C 282.261 -4.7305 2.30457 0
M  V30 3093 O 281.287 -4.81247 3.03957 0
M  V30 3094 N 282.489 -5.64903 1.3366 0
M  V30 3095 H 285.254 -1.73272 2.44534 0
M  V30 3096 H 282.815 -0.813512 1.39977 0
M  V30 3097 H 284.807 -3.88902 1.11971 0
M  V30 3098 H 283.377 -3.09908 0.409371 0
M  V30 3099 H 282.597 -2.70847 2.86419 0
M  V30 3100 H 283.885 -3.82071 3.36005 0
M  V30 3101 H 283.283 -5.60975 0.729604 0
M  V30 3102 H 281.84 -6.40275 1.22032 0
M  V30 3103 N 285.273 -1.31445 -0.869486 0
M  V30 3104 C 286.52 -1.21158 -1.62256 0
M  V30 3105 C 286.848 0.230155 -1.93133 0
M  V30 3106 O 286.103 1.17906 -1.56194 0
M  V30 3107 C 286.402 -2.00145 -2.96102 0
M  V30 3108 C 286.068 -3.4964 -2.84715 0
M  V30 3109 C 284.73 -3.90403 -2.81317 0
M  V30 3110 C 287.082 -4.44769 -2.71716 0
M  V30 3111 C 284.41 -5.24561 -2.62778 0
M  V30 3112 C 286.762 -5.79054 -2.54714 0
M  V30 3113 C 285.426 -6.19037 -2.49699 0
M  V30 3114 H 284.696 -0.443348 -0.593737 0
M  V30 3115 H 287.343 -1.62715 -1.00976 0
M  V30 3116 H 285.648 -1.5127 -3.6142 0
M  V30 3117 H 287.345 -1.89566 -3.53363 0
M  V30 3118 H 283.935 -3.17256 -2.88178 0
M  V30 3119 H 288.119 -4.14208 -2.73397 0
M  V30 3120 H 283.375 -5.54613 -2.57321 0
M  V30 3121 H 287.549 -6.52393 -2.43632 0
M  V30 3122 H 285.176 -7.22935 -2.35093 0
M  V30 3123 N 286.751 1.08385 -1.14413 0
M  V30 3124 C 287.681 2.17321 -0.854044 0
M  V30 3125 C 288.662 1.69024 0.191049 0
M  V30 3126 O 289.847 1.94141 0.0476779 0
M  V30 3127 C 286.977 3.45719 -0.330983 0
M  V30 3128 C 285.931 4.07409 -1.31155 0
M  V30 3129 C 285.257 5.30762 -0.64778 0
M  V30 3130 C 286.557 4.48665 -2.67388 0
M  V30 3131 H 288.251 2.41845 -1.76498 0
M  V30 3132 H 285.797 1.16233 -0.850051 0
M  V30 3133 H 287.75 4.21241 -0.115645 0
M  V30 3134 H 286.474 3.2075 0.615381 0
M  V30 3135 H 285.133 3.33919 -1.51306 0
M  V30 3136 H 284.781 5.02078 0.304398 0
M  V30 3137 H 284.481 5.72992 -1.30207 0
M  V30 3138 H 286.005 6.08998 -0.441972 0
M  V30 3139 H 287.419 5.15364 -2.51143 0
M  V30 3140 H 285.816 5.01814 -3.29093 0
M  V30 3141 H 286.886 3.60543 -3.24248 0
M  V30 3142 N 288.23 0.939286 1.26551 0
M  V30 3143 C 289.178 0.43815 2.28436 0
M  V30 3144 C 290.172 -0.483587 1.62351 0
M  V30 3145 O 291.378 -0.362009 1.76322 0
M  V30 3146 H 287.753 0.123149 0.741848 0
M  V30 3147 H 289.724 1.31002 2.68106 0
M  V30 3148 C 288.473 -0.283052 3.46546 0
M  V30 3149 H 287.796 0.417043 3.97619 0
M  V30 3150 H 289.236 -0.597948 4.19763 0
M  V30 3151 C 287.695 -1.50018 3.01656 0
M  V30 3152 O 288.225 -2.59855 3.0633 0
M  V30 3153 N 286.431 -1.35608 2.57019 0
M  V30 3154 H 285.978 -0.46244 2.53415 0
M  V30 3155 H 285.936 -2.17165 2.27347 0
M  V30 3156 N 289.708 -1.40897 0.706093 0
M  V30 3157 C 290.638 -2.33418 0.0620085 0
M  V30 3158 C 291.619 -1.52385 -0.755827 0
M  V30 3159 O 292.804 -1.80886 -0.706674 0
M  V30 3160 C 289.934 -3.36293 -0.867445 0
M  V30 3161 C 288.888 -4.27716 -0.155932 0
M  V30 3162 C 288.214 -5.2105 -1.20046 0
M  V30 3163 C 289.514 -5.12944 0.984149 0
M  V30 3164 H 291.208 -2.87527 0.83477 0
M  V30 3165 H 288.754 -1.38249 0.402875 0
M  V30 3166 H 290.707 -3.99949 -1.32735 0
M  V30 3167 H 289.431 -2.80556 -1.67199 0
M  V30 3168 H 288.09 -3.65498 0.284047 0
M  V30 3169 H 287.738 -4.61624 -1.99781 0
M  V30 3170 H 287.438 -5.83056 -0.729328 0
M  V30 3171 H 288.962 -5.87584 -1.66066 0
M  V30 3172 H 290.376 -5.70109 0.604048 0
M  V30 3173 H 288.773 -5.83945 1.38304 0
M  V30 3174 H 289.843 -4.49485 1.81911 0
M  V30 3175 N 291.186 -0.45159 -1.50991 0
M  V30 3176 C 292.119 0.398179 -2.24699 0
M  V30 3177 C 293.097 1.01276 -1.27208 0
M  V30 3178 O 294.281 1.05247 -1.56382 0
M  V30 3179 C 291.408 1.55618 -3.00833 0
M  V30 3180 C 290.454 1.0609 -4.13095 0
M  V30 3181 S 291.287 -0.00865136 -5.35499 0
M  V30 3182 C 292.443 1.15369 -6.15175 0
M  V30 3183 H 292.676 -0.227555 -2.96428 0
M  V30 3184 H 290.209 -0.236251 -1.52582 0
M  V30 3185 H 292.167 2.21997 -3.45293 0
M  V30 3186 H 290.828 2.15337 -2.28667 0
M  V30 3187 H 290.021 1.92726 -4.65696 0
M  V30 3188 H 289.623 0.47513 -3.7097 0
M  V30 3189 H 291.915 2.06925 -6.45126 0
M  V30 3190 H 292.858 0.667344 -7.04948 0
M  V30 3191 H 293.266 1.3987 -5.46897 0
M  V30 3192 N 292.664 1.56529 -0.183458 0
M  V30 3193 C 293.574 2.22144 0.754272 0
M  V30 3194 C 294.59 1.21684 1.24374 0
M  V30 3195 O 295.766 1.54385 1.29333 0
M  V30 3196 C 292.831 2.85884 1.96141 0
M  V30 3197 C 291.892 4.01579 1.51765 0
M  V30 3198 C 291.125 4.6227 2.66725 0
M  V30 3199 O 291.348 4.21865 3.83909 0
M  V30 3200 O 290.282 5.51936 2.40104 0
M  V30 3201 H 294.108 3.02861 0.225527 0
M  V30 3202 H 291.693 1.49331 0.0453032 0
M  V30 3203 H 293.575 3.26253 2.66715 0
M  V30 3204 H 292.25 2.08154 2.47899 0
M  V30 3205 H 291.157 3.65856 0.781049 0
M  V30 3206 H 292.49 4.80938 1.04686 0
M  V30 3207 N 294.142 -0.090211 1.57342 0
M  V30 3208 C 295.089 -1.10909 2.02405 0
M  V30 3209 C 296.059 -1.39523 0.901252 0
M  V30 3210 O 297.244 -1.50903 1.1676 0
M  V30 3211 C 294.384 -2.42277 2.45755 0
M  V30 3212 C 293.497 -2.20352 3.71576 0
M  V30 3213 C 292.632 -3.45154 4.03785 0
M  V30 3214 C 291.671 -3.18512 5.22701 0
M  V30 3215 N 290.808 -4.35593 5.50639 0
M  V30 3216 H 295.648 -0.71782 2.89225 0
M  V30 3217 H 293.185 -0.342901 1.43048 0
M  V30 3218 H 295.143 -3.18951 2.68935 0
M  V30 3219 H 293.773 -2.79242 1.61938 0
M  V30 3220 H 292.825 -1.34458 3.55844 0
M  V30 3221 H 294.137 -1.96661 4.58395 0
M  V30 3222 H 293.291 -4.30233 4.27767 0
M  V30 3223 H 292.03 -3.71904 3.15498 0
M  V30 3224 H 291.035 -2.31827 4.98534 0
M  V30 3225 H 292.26 -2.93103 6.12591 0
M  V30 3226 H 290.206 -4.6241 4.6531 0
M  V30 3227 H 290.123 -4.1511 6.31838 0
M  V30 3228 H 291.391 -5.21723 5.7916 0
M  V30 3229 N 295.62 -1.53406 -0.361157 0
M  V30 3230 C 296.55 -1.83136 -1.44857 0
M  V30 3231 C 297.531 -0.685174 -1.5569 0
M  V30 3232 O 298.716 -0.93544 -1.70186 0
M  V30 3233 C 295.846 -2.02522 -2.82138 0
M  V30 3234 C 294.8 -3.18302 -2.86126 0
M  V30 3235 C 294.126 -3.22989 -4.26125 0
M  V30 3236 C 295.426 -4.56796 -2.53248 0
M  V30 3237 H 297.12 -2.74201 -1.20226 0
M  V30 3238 H 294.666 -1.31938 -0.576922 0
M  V30 3239 H 296.619 -2.21904 -3.58241 0
M  V30 3240 H 295.343 -1.08172 -3.08166 0
M  V30 3241 H 294.002 -2.98747 -2.12475 0
M  V30 3242 H 293.65 -2.26267 -4.49235 0
M  V30 3243 H 293.35 -4.00781 -4.29708 0
M  V30 3244 H 294.874 -3.44559 -5.04094 0
M  V30 3245 H 296.288 -4.7631 -3.19064 0
M  V30 3246 H 294.685 -5.36862 -2.68141 0
M  V30 3247 H 295.755 -4.61606 -1.48484 0
M  V30 3248 N 297.098 0.621204 -1.44841 0
M  V30 3249 C 298.046 1.75385 -1.52784 0
M  V30 3250 C 299.04 1.64639 -0.398779 0
M  V30 3251 O 300.246 1.70598 -0.574137 0
M  V30 3252 H 296.621 0.579193 -0.479625 0
M  V30 3253 H 298.592 1.6581 -2.48092 0
M  V30 3254 C 297.341 3.13742 -1.4987 0
M  V30 3255 H 296.664 3.22663 -2.36069 0
M  V30 3256 H 298.104 3.92861 -1.59487 0
M  V30 3257 C 296.563 3.36175 -0.220973 0
M  V30 3258 O 297.093 3.95469 0.704782 0
M  V30 3259 N 295.299 2.90348 -0.120963 0
M  V30 3260 H 294.846 2.42278 -0.875162 0
M  V30 3261 H 294.804 3.05732 0.733168 0
M  V30 3262 N 298.576 1.31904 0.862503 0
M  V30 3263 C 299.486 1.22161 2.00285 0
M  V30 3264 C 300.502 0.136785 1.73462 0
M  V30 3265 O 301.678 0.355994 1.98229 0
M  V30 3266 C 298.743 0.937093 3.33796 0
M  V30 3267 C 297.804 2.10957 3.73893 0
M  V30 3268 C 297.037 1.83853 5.01033 0
M  V30 3269 O 297.26 0.777274 5.65079 0
M  V30 3270 O 296.194 2.69741 5.38074 0
M  V30 3271 H 300.02 2.18008 2.11439 0
M  V30 3272 H 297.605 1.11716 0.991957 0
M  V30 3273 H 299.487 0.794583 4.13841 0
M  V30 3274 H 298.162 0.00871894 3.23699 0
M  V30 3275 H 297.069 2.30752 2.94456 0
M  V30 3276 H 298.402 3.02046 3.88625 0
M  V30 3277 N 300.054 -1.07777 1.14986 0
M  V30 3278 C 301.002 -2.16964 0.838406 0
M  V30 3279 C 301.996 -1.68372 -0.186386 0
M  V30 3280 O 303.202 -1.79951 -0.0418465 0
M  V30 3281 H 299.577 -0.708006 0.253439 0
M  V30 3282 H 301.548 -2.40454 1.76704 0
M  V30 3283 C 300.297 -3.4604 0.339335 0
M  V30 3284 H 299.62 -3.83813 1.11927 0
M  V30 3285 H 301.06 -4.23698 0.160021 0
M  V30 3286 C 299.519 -3.23569 -0.938325 0
M  V30 3287 O 300.049 -3.47752 -2.01077 0
M  V30 3288 N 298.255 -2.77079 -0.876117 0
M  V30 3289 H 297.802 -2.576 -0.00322037 0
M  V30 3290 H 297.76 -2.62422 -1.73153 0
M  V30 3291 N 301.532 -0.945985 -1.26051 0
M  V30 3292 C 302.781 -0.591836 -1.92822 0
M  V30 3293 C 303.094 0.873956 -1.7499 0
M  V30 3294 O 304.3 1.33769 -2.36259 0
M  V30 3295 C 302.756 -1.00776 -3.45503 0
M  V30 3296 C 302.364 -2.4955 -3.7206 0
M  V30 3297 C 304.108 -0.725735 -4.1825 0
M  V30 3298 C 302.015 -2.84988 -5.18205 0
M  V30 3299 H 300.945 -0.217635 -0.721908 0
M  V30 3300 H 303.596 -1.14927 -1.43052 0
M  V30 3301 H 301.978 -0.378812 -3.94184 0
M  V30 3302 H 303.152 -3.1739 -3.34066 0
M  V30 3303 H 301.467 -2.75133 -3.12555 0
M  V30 3304 H 304.064 -0.966771 -5.25887 0
M  V30 3305 H 304.407 0.337639 -4.14929 0
M  V30 3306 H 304.94 -1.31463 -3.7545 0
M  V30 3307 H 301.679 -3.90307 -5.26631 0
M  V30 3308 H 301.199 -2.21813 -5.57278 0
M  V30 3309 H 302.878 -2.73712 -5.86252 0
M  V30 3310 N 303.011 1.40521 -0.713556 0
M  V30 3311 C 303.958 2.30723 -0.059684 0
M  V30 3312 C 304.928 1.48079 0.752448 0
M  V30 3313 O 306.113 1.76823 0.71681 0
M  V30 3314 C 303.253 3.34274 0.857594 0
M  V30 3315 C 302.366 4.31986 0.0351536 0
M  V30 3316 C 301.501 5.22605 0.951724 0
M  V30 3317 C 300.54 6.11976 0.123253 0
M  V30 3318 N 299.677 6.9502 0.99459 0
M  V30 3319 H 304.517 2.86074 -0.834596 0
M  V30 3320 H 302.054 1.40879 -0.42326 0
M  V30 3321 H 304.012 3.92879 1.40364 0
M  V30 3322 H 302.642 2.8043 1.59871 0
M  V30 3323 H 301.694 3.7518 -0.628052 0
M  V30 3324 H 303.006 4.95101 -0.606347 0
M  V30 3325 H 302.16 5.86131 1.56638 0
M  V30 3326 H 300.899 4.59759 1.62705 0
M  V30 3327 H 299.904 5.47482 -0.50435 0
M  V30 3328 H 301.129 6.76881 -0.548539 0
M  V30 3329 H 299.075 6.34764 1.6556 0
M  V30 3330 H 298.992 7.54892 0.40908 0
M  V30 3331 H 300.26 7.62997 1.59549 0
M  V30 3332 N 304.489 0.459591 1.5075 0
M  V30 3333 C 305.738 -0.100971 2.01447 0
M  V30 3334 C 306.051 -1.41816 1.34713 0
M  V30 3335 O 307.257 -2.06299 1.76502 0
M  V30 3336 C 305.713 -0.23047 3.59161 0
M  V30 3337 C 305.321 1.0776 4.34847 0
M  V30 3338 C 307.065 -0.743608 4.17936 0
M  V30 3339 C 304.972 0.91253 5.84317 0
M  V30 3340 H 303.902 -0.0415102 0.752856 0
M  V30 3341 H 306.553 0.592742 1.73663 0
M  V30 3342 H 304.935 -0.987703 3.83485 0
M  V30 3343 H 306.109 1.8449 4.22256 0
M  V30 3344 H 304.424 1.52097 3.87628 0
M  V30 3345 H 307.021 -0.883959 5.27343 0
M  V30 3346 H 307.364 -1.73196 3.78562 0
M  V30 3347 H 307.897 -0.04408 3.97776 0
M  V30 3348 H 304.636 1.87391 6.28144 0
M  V30 3349 H 304.156 0.185422 5.99513 0
M  V30 3350 H 305.835 0.574547 6.44444 0
M  V30 3351 N 305.967 -1.56429 0.191757 0
M  V30 3352 C 306.897 -2.21937 -0.725696 0
M  V30 3353 C 307.878 -1.1814 -1.2238 0
M  V30 3354 O 309.063 -1.46636 -1.27325 0
M  V30 3355 C 306.193 -2.87611 -1.94672 0
M  V30 3356 C 305.147 -3.97623 -1.58366 0
M  V30 3357 C 304.473 -4.50446 -2.88102 0
M  V30 3358 C 305.773 -5.16197 -0.796133 0
M  V30 3359 H 307.467 -2.98861 -0.179606 0
M  V30 3360 H 305.013 -1.43749 -0.0849464 0
M  V30 3361 H 306.966 -3.3212 -2.59373 0
M  V30 3362 H 305.69 -2.08087 -2.51728 0
M  V30 3363 H 304.349 -3.53801 -0.960247 0
M  V30 3364 H 303.997 -3.67688 -3.43241 0
M  V30 3365 H 303.697 -5.24675 -2.64556 0
M  V30 3366 H 305.221 -4.97654 -3.53798 0
M  V30 3367 H 306.635 -5.57271 -1.34618 0
M  V30 3368 H 305.032 -5.96471 -0.658928 0
M  V30 3369 H 306.102 -4.84473 0.203478 0
M  V30 3370 N 307.445 0.0818655 -1.57387 0
M  V30 3371 C 308.67 0.799946 -1.91352 0
M  V30 3372 C 309.095 1.70833 -0.787258 0
M  V30 3373 O 308.453 1.79419 0.26048 0
M  V30 3374 C 308.501 1.57812 -3.24234 0
M  V30 3375 O 307.605 2.68806 -3.12757 0
M  V30 3376 H 306.946 0.21891 -0.626877 0
M  V30 3377 H 309.476 0.0531256 -2.04531 0
M  V30 3378 H 309.486 1.95952 -3.57864 0
M  V30 3379 H 308.161 0.911548 -4.05788 0
M  V30 3380 H 306.738 2.33597 -2.90666 0
M  V30 3381 N 308.923 1.53595 0.353017 0
M  V30 3382 C 310.148 1.7462 1.11904 0
M  V30 3383 C 310.573 0.479721 1.8188 0
M  V30 3384 O 309.931 -0.567066 1.72204 0
M  V30 3385 C 309.979 2.92029 2.11545 0
M  V30 3386 O 309.083 2.61516 3.18878 0
M  V30 3387 H 308.424 0.579531 0.324099 0
M  V30 3388 H 310.954 2.00525 0.406301 0
M  V30 3389 H 310.964 3.18551 2.5493 0
M  V30 3390 H 309.639 3.83888 1.60008 0
M  V30 3391 H 308.216 2.45852 2.80377 0
M  V30 3392 N 310.401 -0.613514 1.45168 0
M  V30 3393 C 311.812 -1.19539 1.43413 0
M  V30 3394 C 312.163 -1.95558 0.158632 0
M  V30 3395 O 311.288 -2.0335 -0.740119 0
M  V30 3396 C 311.883 -2.17445 2.59813 0
M  V30 3397 C 310.442 -2.71022 2.61197 0
M  V30 3398 C 309.589 -1.46323 2.35552 0
M  V30 3399 H 312.54 -0.403163 1.53494 0
M  V30 3400 H 312.561 -3.00373 2.33574 0
M  V30 3401 H 312.073 -1.62089 3.52631 0
M  V30 3402 H 310.174 -3.30332 1.7237 0
M  V30 3403 H 310.287 -3.15859 3.60236 0
M  V30 3404 H 308.651 -1.75072 1.84992 0
M  V30 3405 H 309.434 -0.92844 3.30507 0
M  V30 3406 N 311.879 -1.3236 -0.855495 0
M  V30 3407 C 313.125 -1.24064 -1.61182 0
M  V30 3408 C 313.48 0.195914 -1.914 0
M  V30 3409 O 312.773 1.13345 -1.54478 0
M  V30 3410 C 312.967 -2.03275 -2.93963 0
M  V30 3411 C 312.796 -3.54486 -2.76712 0
M  V30 3412 C 311.566 -4.23824 -2.75139 0
M  V30 3413 C 313.764 -4.49154 -2.50531 0
M  V30 3414 N 311.746 -5.61095 -2.4909 0
M  V30 3415 C 313.117 -5.74195 -2.3388 0
M  V30 3416 C 315.172 -4.3842 -2.35992 0
M  V30 3417 C 313.875 -6.89716 -2.04168 0
M  V30 3418 C 315.901 -5.53739 -2.0767 0
M  V30 3419 C 315.263 -6.77779 -1.9182 0
M  V30 3420 H 311.362 -0.509139 -0.59355 0
M  V30 3421 H 313.946 -1.66715 -1.00569 0
M  V30 3422 H 312.117 -1.6297 -3.52555 0
M  V30 3423 H 313.849 -1.86881 -3.58967 0
M  V30 3424 H 310.604 -3.75934 -2.88047 0
M  V30 3425 H 311.028 -6.33411 -2.38996 0
M  V30 3426 H 315.67 -3.43172 -2.46967 0
M  V30 3427 H 313.388 -7.84977 -1.9193 0
M  V30 3428 H 316.974 -5.4736 -1.97201 0
M  V30 3429 H 315.854 -7.65504 -1.70217 0
M  V30 3430 N 313.357 1.07166 -1.15556 0
M  V30 3431 C 314.606 1.79181 -0.926132 0
M  V30 3432 C 314.919 1.87768 0.547967 0
M  V30 3433 O 316.125 2.56323 0.895036 0
M  V30 3434 C 314.581 3.22 -1.60761 0
M  V30 3435 C 314.189 3.21607 -3.11886 0
M  V30 3436 C 315.933 3.9861 -1.4598 0
M  V30 3437 C 313.84 4.59092 -3.72812 0
M  V30 3438 H 312.77 0.67154 -0.342856 0
M  V30 3439 H 315.421 1.2027 -1.3859 0
M  V30 3440 H 313.803 3.81115 -1.07553 0
M  V30 3441 H 314.977 2.72127 -3.71865 0
M  V30 3442 H 313.292 2.58495 -3.2645 0
M  V30 3443 H 315.889 5.00225 -1.88888 0
M  V30 3444 H 316.232 4.143 -0.407541 0
M  V30 3445 H 316.765 3.45996 -1.96295 0
M  V30 3446 H 313.504 4.48606 -4.77946 0
M  V30 3447 H 313.024 5.08803 -3.17616 0
M  V30 3448 H 314.703 5.28059 -3.73848 0
M  V30 3449 N 314.835 0.952656 1.25548 0
M  V30 3450 C 315.767 0.428609 2.25157 0
M  V30 3451 C 316.78 -0.454428 1.56329 0
M  V30 3452 O 317.969 -0.263023 1.76552 0
M  V30 3453 C 315.069 -0.401972 3.36508 0
M  V30 3454 C 314.242 0.467601 4.34893 0
M  V30 3455 C 313.301 -0.30445 5.25319 0
M  V30 3456 O 312.327 0.296473 5.68427 0
M  V30 3457 N 313.529 -1.59805 5.5807 0
M  V30 3458 H 316.294 1.28497 2.70756 0
M  V30 3459 H 313.855 0.822798 1.39433 0
M  V30 3460 H 315.847 -0.926134 3.9396 0
M  V30 3461 H 314.417 -1.15918 2.90313 0
M  V30 3462 H 313.637 1.17288 3.76347 0
M  V30 3463 H 314.925 1.06119 4.97611 0
M  V30 3464 H 314.323 -2.10823 5.24948 0
M  V30 3465 H 312.88 -2.06822 6.18116 0
M  V30 3466 N 316.313 -1.40141 0.720998 0
M  V30 3467 C 317.562 -2.0002 0.259804 0
M  V30 3468 C 317.875 -1.57839 -1.15526 0
M  V30 3469 O 319.081 -2.10455 -1.71525 0
M  V30 3470 C 317.537 -3.57516 0.413566 0
M  V30 3471 C 317.145 -4.08667 1.83562 0
M  V30 3472 C 318.889 -4.24498 0.0134387 0
M  V30 3473 C 316.796 -5.58686 1.93968 0
M  V30 3474 H 315.726 -0.748195 0.0933806 0
M  V30 3475 H 318.377 -1.60313 0.892866 0
M  V30 3476 H 316.759 -3.9495 -0.288169 0
M  V30 3477 H 317.933 -3.82598 2.56817 0
M  V30 3478 H 316.248 -3.543 2.1877 0
M  V30 3479 H 318.845 -5.34654 0.0703954 0
M  V30 3480 H 319.188 -4.03375 -1.02927 0
M  V30 3481 H 319.721 -3.92188 0.665815 0
M  V30 3482 H 316.46 -5.8467 2.96379 0
M  V30 3483 H 315.98 -5.86602 1.25131 0
M  V30 3484 H 317.659 -6.23875 1.71431 0
M  V30 3485 N 317.792 -0.46758 -1.50504 0
M  V30 3486 C 319.032 0.0874114 -2.04213 0
M  V30 3487 C 319.396 1.37301 -1.34211 0
M  V30 3488 O 320.597 2.01015 -1.78456 0
M  V30 3489 C 318.868 0.270571 -3.56374 0
M  V30 3490 S 320.427 0.784623 -4.31728 0
M  V30 3491 H 317.245 0.0176153 -0.710782 0
M  V30 3492 H 319.847 -0.633915 -1.84937 0
M  V30 3493 H 318.551 -0.670942 -4.04878 0
M  V30 3494 H 318.082 1.01811 -3.79997 0
M  V30 3495 H 320.097 2.05849 -4.51487 0
M  V30 3496 N 319.27 1.56325 -0.20005 0
M  V30 3497 C 320.218 2.20666 0.735482 0
M  V30 3498 C 321.212 1.17934 1.21605 0
M  V30 3499 O 322.418 1.36068 1.17837 0
M  V30 3500 H 318.793 0.70725 0.255542 0
M  V30 3501 H 320.764 2.9792 0.169166 0
M  V30 3502 C 319.513 2.88391 1.94232 0
M  V30 3503 H 318.836 3.67185 1.58161 0
M  V30 3504 H 320.276 3.3684 2.57517 0
M  V30 3505 C 318.735 1.89692 2.78421 0
M  V30 3506 O 319.265 1.40032 3.76502 0
M  V30 3507 N 317.471 1.57813 2.44015 0
M  V30 3508 H 317.018 1.9839 1.64314 0
M  V30 3509 H 316.976 0.920325 3.00628 0
M  V30 3510 N 320.748 -0.0735177 1.57428 0
M  V30 3511 C 321.696 -1.10628 2.04607 0
M  V30 3512 C 322.69 -1.40181 0.951088 0
M  V30 3513 O 323.896 -1.39608 1.1362 0
M  V30 3514 H 320.271 -0.374088 0.652351 0
M  V30 3515 H 322.242 -0.682218 2.90497 0
M  V30 3516 C 320.991 -2.41212 2.50423 0
M  V30 3517 H 320.314 -2.19322 3.34272 0
M  V30 3518 H 321.754 -3.11927 2.87189 0
M  V30 3519 C 320.213 -3.0705 1.38644 0
M  V30 3520 O 320.743 -3.95056 0.727582 0
M  V30 3521 N 318.949 -2.67645 1.132 0
M  V30 3522 H 318.496 -1.96169 1.66959 0
M  V30 3523 H 318.454 -3.1202 0.386147 0
M  V30 3524 N 322.226 -1.5378 -0.344866 0
M  V30 3525 C 323.473 -1.70963 -1.08526 0
M  V30 3526 C 323.801 -0.472126 -1.88683 0
M  V30 3527 O 323.056 0.546116 -1.87926 0
M  V30 3528 C 323.355 -2.92407 -2.05506 0
M  V30 3529 C 323.021 -4.28066 -1.41671 0
M  V30 3530 C 321.683 -4.64951 -1.2399 0
M  V30 3531 C 324.035 -5.12344 -0.956726 0
M  V30 3532 C 321.363 -5.83733 -0.589277 0
M  V30 3533 C 323.715 -6.3179 -0.320015 0
M  V30 3534 C 322.379 -6.67372 -0.130881 0
M  V30 3535 H 321.649 -0.625598 -0.397124 0
M  V30 3536 H 324.296 -1.87995 -0.36469 0
M  V30 3537 H 322.601 -2.69973 -2.8394 0
M  V30 3538 H 324.298 -3.02895 -2.62784 0
M  V30 3539 H 320.888 -3.99034 -1.56429 0
M  V30 3540 H 325.072 -4.8438 -1.08118 0
M  V30 3541 H 320.328 -6.09877 -0.431344 0
M  V30 3542 H 324.502 -6.96386 0.0445072 0
M  V30 3543 H 322.129 -7.59273 0.375318 0
M  V30 3544 N 323.704 0.605807 -1.45491 0
M  V30 3545 C 324.929 1.39625 -1.53361 0
M  V30 3546 C 325.354 1.87351 -0.167645 0
M  V30 3547 O 324.712 1.60243 0.848051 0
M  V30 3548 C 324.76 2.57559 -2.5238 0
M  V30 3549 O 323.864 3.58248 -2.04285 0
M  V30 3550 H 323.205 0.416771 -0.516912 0
M  V30 3551 H 325.735 0.737103 -1.90861 0
M  V30 3552 H 325.745 3.0478 -2.71244 0
M  V30 3553 H 324.42 2.22171 -3.51586 0
M  V30 3554 H 322.997 3.17664 -1.95305 0
M  V30 3555 N 325.182 1.32811 0.848464 0
M  V30 3556 C 326.593 1.21315 1.41914 0
M  V30 3557 C 326.944 -0.171847 1.95446 0
M  V30 3558 O 326.069 -1.07093 1.88043 0
M  V30 3559 C 326.664 2.19631 2.57968 0
M  V30 3560 C 325.223 2.12003 3.11017 0
M  V30 3561 C 324.37 2.07651 1.83783 0
M  V30 3562 H 327.321 1.44549 0.655071 0
M  V30 3563 H 327.342 1.79845 3.35315 0
M  V30 3564 H 326.854 3.20423 2.18976 0
M  V30 3565 H 324.955 1.14481 3.54577 0
M  V30 3566 H 325.068 3.02111 3.71841 0
M  V30 3567 H 323.432 1.52983 2.03638 0
M  V30 3568 H 324.215 3.10235 1.47 0
M  V30 3569 N 326.66 -1.06551 1.16123 0
M  V30 3570 C 327.909 -1.78687 0.935622 0
M  V30 3571 C 328.222 -1.88056 -0.538001 0
M  V30 3572 O 329.428 -2.56794 -0.88143 0
M  V30 3573 C 327.884 -3.21143 1.62466 0
M  V30 3574 C 327.492 -3.19949 3.13587 0
M  V30 3575 C 329.236 -3.9783 1.48092 0
M  V30 3576 C 327.143 -4.57108 3.75241 0
M  V30 3577 H 326.073 -0.669712 0.346412 0
M  V30 3578 H 328.724 -1.19534 1.39226 0
M  V30 3579 H 327.106 -3.80539 1.09572 0
M  V30 3580 H 328.28 -2.70151 3.73303 0
M  V30 3581 H 326.595 -2.5676 3.27816 0
M  V30 3582 H 329.192 -4.99217 1.91538 0
M  V30 3583 H 329.535 -4.14078 0.429507 0
M  V30 3584 H 330.068 -3.4495 1.98127 0
M  V30 3585 H 326.807 -4.46065 4.80319 0
M  V30 3586 H 326.327 -5.07111 3.20309 0
M  V30 3587 H 328.006 -5.26069 3.76644 0
M  V30 3588 N 328.138 -0.959301 -1.25041 0
M  V30 3589 C 329.387 -0.612254 -1.92183 0
M  V30 3590 C 329.7 0.855347 -1.75907 0
M  V30 3591 O 330.906 1.31256 -2.37664 0
M  V30 3592 C 329.362 -1.04435 -3.44414 0
M  V30 3593 C 328.97 -2.53482 -3.69393 0
M  V30 3594 C 330.714 -0.770055 -4.17457 0
M  V30 3595 C 328.621 -2.90468 -5.15153 0
M  V30 3596 H 327.551 -0.225279 -0.719559 0
M  V30 3597 H 330.202 -1.16438 -1.41825 0
M  V30 3598 H 328.584 -0.4206 -3.9376 0
M  V30 3599 H 329.758 -3.20916 -3.30681 0
M  V30 3600 H 328.073 -2.78432 -3.0962 0
M  V30 3601 H 330.67 -1.02249 -5.24832 0
M  V30 3602 H 331.013 0.293611 -4.15263 0
M  V30 3603 H 331.546 -1.35437 -3.74034 0
M  V30 3604 H 328.285 -3.95871 -5.22462 0
M  V30 3605 H 327.805 -2.27711 -5.54894 0
M  V30 3606 H 329.484 -2.79914 -5.83315 0
M  V30 3607 N 329.616 1.39756 -0.72842 0
M  V30 3608 C 330.893 1.94574 -0.200079 0
M  V30 3609 C 331.273 1.66569 1.29684 0
M  V30 3610 O 330.621 0.990326 2.05924 0
M  V30 3611 C 330.831 3.45004 -0.526608 0
M  V30 3612 C 332.179 4.21965 -0.472318 0
M  V30 3613 O 333.203 3.53173 -0.463413 0
M  V30 3614 O 332.062 5.44552 -0.461075 0
M  V30 3615 H 329.156 0.826289 -0.0342851 0
M  V30 3616 H 331.702 1.49293 -0.806829 0
M  V30 3617 H 330.474 3.58796 -1.56144 0
M  V30 3618 H 330.097 3.97449 0.109449 0
M  V30 3619 N 331.094 0.475555 1.50254 0
M  V30 3620 C 332.324 -0.0753399 2.06463 0
M  V30 3621 C 332.732 -1.33661 1.33908 0
M  V30 3622 O 332.075 -1.79219 0.403257 0
M  V30 3623 C 332.137 -0.424921 3.5698 0
M  V30 3624 C 331.801 0.734965 4.51051 0
M  V30 3625 C 332.798 1.61827 4.94073 0
M  V30 3626 C 330.483 0.926557 4.9368 0
M  V30 3627 C 332.477 2.67754 5.78434 0
M  V30 3628 C 330.164 1.98904 5.77824 0
M  V30 3629 C 331.162 2.8629 6.20103 0
M  V30 3630 O 330.85 3.90708 7.02568 0
M  V30 3631 H 330.582 0.00576308 0.675975 0
M  V30 3632 H 333.136 0.664662 1.94349 0
M  V30 3633 H 331.366 -1.21817 3.67012 0
M  V30 3634 H 333.055 -0.911422 3.95535 0
M  V30 3635 H 333.821 1.48196 4.61804 0
M  V30 3636 H 329.7 0.25584 4.6029 0
M  V30 3637 H 333.244 3.35992 6.11355 0
M  V30 3638 H 329.141 2.12541 6.09505 0
M  V30 3639 H 329.909 3.87751 7.20827 0
M  V30 3640 N 332.573 -1.56217 0.208337 0
M  V30 3641 C 333.82 -1.97949 -0.42692 0
M  V30 3642 C 334.148 -1.09562 -1.60706 0
M  V30 3643 O 333.403 -0.137616 -1.95216 0
M  V30 3644 C 333.702 -3.45441 -0.916797 0
M  V30 3645 C 333.368 -4.50646 0.151391 0
M  V30 3646 C 332.03 -4.79139 0.444867 0
M  V30 3647 C 334.382 -5.13811 0.874492 0
M  V30 3648 C 331.71 -5.68084 1.46619 0
M  V30 3649 C 334.062 -6.03861 1.88506 0
M  V30 3650 C 332.726 -6.30704 2.18559 0
M  V30 3651 H 331.996 -0.724345 -0.156221 0
M  V30 3652 H 334.643 -1.89006 0.308084 0
M  V30 3653 H 332.948 -3.51521 -1.73032 0
M  V30 3654 H 334.645 -3.75094 -1.41794 0
M  V30 3655 H 331.235 -4.28511 -0.0875068 0
M  V30 3656 H 335.419 -4.91879 0.660996 0
M  V30 3657 H 330.675 -5.87151 1.7048 0
M  V30 3658 H 334.849 -6.51861 2.45051 0
M  V30 3659 H 332.476 -6.99424 2.97843 0
M  V30 3660 N 334.051 0.0651679 -1.57465 0
M  V30 3661 C 335.462 0.616213 -1.76238 0
M  V30 3662 C 335.813 1.7756 -0.834689 0
M  V30 3663 O 334.938 2.1639 -0.0204156 0
M  V30 3664 C 335.533 1.12462 -3.1959 0
M  V30 3665 C 334.092 1.62147 -3.39684 0
M  V30 3666 C 333.239 0.543739 -2.71917 0
M  V30 3667 H 336.19 -0.161022 -1.57881 0
M  V30 3668 H 336.211 1.99324 -3.24114 0
M  V30 3669 H 335.723 0.280592 -3.87084 0
M  V30 3670 H 333.824 2.48854 -2.77313 0
M  V30 3671 H 333.937 1.69385 -4.48158 0
M  V30 3672 H 332.301 0.990352 -2.34657 0
M  V30 3673 H 333.084 -0.290216 -3.42071 0
M  V30 3674 N 335.529 1.53961 0.336706 0
M  V30 3675 C 336.777 1.71197 1.07405 0
M  V30 3676 C 337.098 0.481475 1.88962 0
M  V30 3677 O 336.368 -0.504585 1.8929 0
M  V30 3678 H 334.948 0.631185 0.399517 0
M  V30 3679 H 337.61 1.91232 0.376323 0
M  V30 3680 H 336.706 2.58587 1.74755 0
M  V30 3681 N 337.007 -0.598083 1.45811 0
M  V30 3682 C 338.235 -1.38322 1.53866 0
M  V30 3683 C 338.65 -1.87992 0.174479 0
M  V30 3684 O 338.007 -1.62756 -0.825627 0
M  V30 3685 C 338.058 -2.58125 2.53089 0
M  V30 3686 O 337.779 -2.10516 3.84206 0
M  V30 3687 C 339.28 -3.50869 2.70935 0
M  V30 3688 H 336.5 -0.423093 0.520801 0
M  V30 3689 H 339.044 -0.728527 1.91083 0
M  V30 3690 H 337.199 -3.19615 2.18917 0
M  V30 3691 H 337.613 -2.88425 4.38077 0
M  V30 3692 H 339.087 -4.31451 3.44317 0
M  V30 3693 H 339.564 -4.01822 1.77301 0
M  V30 3694 H 340.17 -2.95225 3.06141 0
M  V30 3695 N 338.485 -1.33259 -0.841409 0
M  V30 3696 C 339.435 -1.19872 -1.93945 0
M  V30 3697 C 340.419 -0.102269 -1.60575 0
M  V30 3698 O 341.611 -0.330114 -1.73894 0
M  V30 3699 C 338.74 -0.937517 -3.30251 0
M  V30 3700 C 337.826 -2.07629 -3.69799 0
M  V30 3701 N 338.217 -3.32604 -3.81062 0
M  V30 3702 C 336.515 -1.98242 -3.9952 0
M  V30 3703 C 337.216 -4.07275 -4.15333 0
M  V30 3704 N 336.192 -3.35691 -4.27566 0
M  V30 3705 H 339.994 -2.14604 -2.00805 0
M  V30 3706 H 337.508 -1.2523 -1.03398 0
M  V30 3707 H 339.505 -0.822545 -4.08705 0
M  V30 3708 H 338.165 0.00128798 -3.247 0
M  V30 3709 H 339.176 -3.67382 -3.65035 0
M  V30 3710 H 335.853 -1.12005 -4.02195 0
M  V30 3711 H 337.243 -5.1511 -4.31406 0
M  V30 3712 N 339.963 1.05934 -1.16686 0
M  V30 3713 C 340.911 2.15603 -0.872817 0
M  V30 3714 C 341.905 1.68647 0.159576 0
M  V30 3715 O 343.111 1.79995 0.0132125 0
M  V30 3716 H 339.486 0.703885 -0.264671 0
M  V30 3717 H 341.457 2.37613 -1.80507 0
M  V30 3718 C 340.206 3.45457 -0.394344 0
M  V30 3719 H 339.529 3.81984 -1.18019 0
M  V30 3720 H 340.969 4.2339 -0.227408 0
M  V30 3721 C 339.428 3.25021 0.88673 0
M  V30 3722 O 339.958 3.50906 1.95519 0
M  V30 3723 N 338.164 2.78437 0.831925 0
M  V30 3724 H 337.711 2.57572 -0.0377619 0
M  V30 3725 H 337.669 2.65144 1.68956 0
M  V30 3726 N 341.441 0.965919 1.2453 0
M  V30 3727 C 342.388 0.49402 2.25451 0
M  V30 3728 C 343.358 -0.45948 1.59618 0
M  V30 3729 O 344.543 -0.370238 1.87173 0
M  V30 3730 C 341.683 -0.211359 3.44452 0
M  V30 3731 C 340.796 0.7807 4.24887 0
M  V30 3732 C 339.931 0.0516105 5.31175 0
M  V30 3733 C 338.97 1.03385 6.03306 0
M  V30 3734 N 338.107 0.334887 7.01301 0
M  V30 3735 H 342.947 1.35946 2.65184 0
M  V30 3736 H 340.484 0.681515 1.3036 0
M  V30 3737 H 342.442 -0.637 4.12308 0
M  V30 3738 H 341.072 -1.04077 3.05562 0
M  V30 3739 H 340.124 1.32479 3.56586 0
M  V30 3740 H 341.436 1.52978 4.74762 0
M  V30 3741 H 340.59 -0.432114 6.05159 0
M  V30 3742 H 339.329 -0.730179 4.82203 0
M  V30 3743 H 338.334 1.52847 5.28127 0
M  V30 3744 H 339.559 1.81606 6.54367 0
M  V30 3745 H 337.505 -0.427959 6.54603 0
M  V30 3746 H 337.422 1.02287 7.49048 0
M  V30 3747 H 338.69 -0.126928 7.79397 0
M  V30 3748 N 342.919 -1.39368 0.735821 0
M  V30 3749 C 343.849 -2.33234 0.111506 0
M  V30 3750 C 344.83 -1.53954 -0.723334 0
M  V30 3751 O 346.015 -1.82344 -0.668147 0
M  V30 3752 C 343.145 -3.38057 -0.795917 0
M  V30 3753 C 342.099 -4.2795 -0.065172 0
M  V30 3754 C 341.425 -5.23479 -1.08967 0
M  V30 3755 C 342.725 -5.10741 1.09273 0
M  V30 3756 H 344.419 -2.85692 0.895571 0
M  V30 3757 H 341.965 -1.37364 0.432109 0
M  V30 3758 H 343.918 -4.02675 -1.24221 0
M  V30 3759 H 342.642 -2.8404 -1.61211 0
M  V30 3760 H 341.301 -3.64813 0.361511 0
M  V30 3761 H 340.949 -4.65758 -1.89944 0
M  V30 3762 H 340.649 -5.84472 -0.605489 0
M  V30 3763 H 342.173 -5.90974 -1.53565 0
M  V30 3764 H 343.587 -5.68699 0.724841 0
M  V30 3765 H 341.984 -5.8088 1.50659 0
M  V30 3766 H 343.054 -4.45525 1.91404 0
M  V30 3767 N 344.397 -0.483516 -1.5 0
M  V30 3768 C 345.327 0.293829 -2.31644 0
M  V30 3769 C 346.308 0.978864 -1.39112 0
M  V30 3770 O 347.493 0.973644 -1.68029 0
M  V30 3771 C 344.623 1.36897 -3.19181 0
M  V30 3772 C 343.577 0.804833 -4.20365 0
M  V30 3773 C 342.903 1.9792 -4.96721 0
M  V30 3774 C 344.203 -0.192313 -5.21946 0
M  V30 3775 H 345.897 -0.387616 -2.9688 0
M  V30 3776 H 343.443 -0.187856 -1.42769 0
M  V30 3777 H 345.396 1.92037 -3.751 0
M  V30 3778 H 344.12 2.07936 -2.51853 0
M  V30 3779 H 342.779 0.275319 -3.65565 0
M  V30 3780 H 342.427 2.67686 -4.25856 0
M  V30 3781 H 342.127 1.60789 -5.65173 0
M  V30 3782 H 343.651 2.53526 -5.55479 0
M  V30 3783 H 345.065 0.270333 -5.72662 0
M  V30 3784 H 343.462 -0.478543 -5.98189 0
M  V30 3785 H 344.532 -1.11409 -4.71928 0
M  V30 3786 N 345.875 1.56104 -0.216619 0
M  V30 3787 C 346.822 2.2007 0.695531 0
M  V30 3788 C 347.792 1.15471 1.19397 0
M  V30 3789 O 348.977 1.43807 1.25396 0
M  V30 3790 C 346.117 2.88073 1.90021 0
M  V30 3791 C 345.23 4.07253 1.44113 0
M  V30 3792 C 344.365 4.63052 2.603 0
M  V30 3793 C 343.404 5.74545 2.11103 0
M  V30 3794 N 342.541 6.24656 3.20545 0
M  V30 3795 H 347.381 2.97655 0.143327 0
M  V30 3796 H 344.918 1.46982 0.0589934 0
M  V30 3797 H 346.876 3.25681 2.60745 0
M  V30 3798 H 345.506 2.13015 2.42538 0
M  V30 3799 H 344.558 3.75164 0.628999 0
M  V30 3800 H 345.87 4.8783 1.04036 0
M  V30 3801 H 345.024 5.03078 3.39113 0
M  V30 3802 H 343.763 3.81628 3.03663 0
M  V30 3803 H 342.768 5.34027 1.3075 0
M  V30 3804 H 343.993 6.57801 1.68746 0
M  V30 3805 H 341.939 5.46148 3.63399 0
M  V30 3806 H 341.856 7.00343 2.84704 0
M  V30 3807 H 343.124 6.69338 3.99508 0
M  V30 3808 N 347.353 -0.0568162 1.57498 0
M  V30 3809 C 348.301 -1.08452 2.05769 0
M  V30 3810 C 349.295 -1.39164 0.965903 0
M  V30 3811 O 350.501 -1.38395 1.15095 0
M  V30 3812 H 346.876 -0.367148 0.656282 0
M  V30 3813 H 348.847 -0.651368 2.91204 0
M  V30 3814 C 347.596 -2.38543 2.52968 0
M  V30 3815 H 346.919 -2.15765 3.36579 0
M  V30 3816 H 348.359 -3.08863 2.90481 0
M  V30 3817 C 346.818 -3.05562 1.41893 0
M  V30 3818 O 347.348 -3.94262 0.769442 0
M  V30 3819 N 345.554 -2.6643 1.16032 0
M  V30 3820 H 345.101 -1.94387 1.6903 0
M  V30 3821 H 345.059 -3.11593 0.419219 0
M  V30 3822 N 348.832 -1.54138 -0.328536 0
M  V30 3823 C 350.078 -1.7236 -1.06865 0
M  V30 3824 C 350.411 -0.493231 -1.87832 0
M  V30 3825 O 349.686 0.5098 -1.877 0
M  V30 3826 C 349.969 -2.99621 -1.99747 0
M  V30 3827 C 349.822 -4.32899 -1.22143 0
M  V30 3828 C 351.141 -3.22615 -2.99345 0
M  V30 3829 H 348.26 -0.627151 -0.387105 0
M  V30 3830 H 350.902 -1.86827 -0.345767 0
M  V30 3831 H 349.052 -2.87418 -2.61387 0
M  V30 3832 H 350.724 -4.56978 -0.630017 0
M  V30 3833 H 348.967 -4.30628 -0.523628 0
M  V30 3834 H 349.638 -5.18154 -1.90318 0
M  V30 3835 H 352.114 -3.34248 -2.47826 0
M  V30 3836 H 350.99 -4.13027 -3.61524 0
M  V30 3837 H 351.251 -2.3961 -3.71536 0
M  V30 3838 N 350.31 0.590341 -1.46126 0
M  V30 3839 C 351.273 1.68194 -1.55703 0
M  V30 3840 C 352.273 1.54808 -0.434868 0
M  V30 3841 O 353.463 1.59564 -0.698928 0
M  V30 3842 C 350.595 3.07575 -1.47005 0
M  V30 3843 H 351.788 1.61064 -2.52979 0
M  V30 3844 H 349.341 0.807541 -1.33823 0
M  V30 3845 H 350.076 3.20268 -0.509785 0
M  V30 3846 H 349.861 3.187 -2.28414 0
M  V30 3847 H 351.351 3.87055 -1.56776 0
M  V30 3848 N 351.788 1.33704 0.83433 0
M  V30 3849 C 353.035 1.25417 1.58987 0
M  V30 3850 C 353.363 -0.178869 1.93676 0
M  V30 3851 O 352.618 -1.13723 1.59265 0
M  V30 3852 C 352.917 2.07926 2.90692 0
M  V30 3853 C 352.583 3.57066 2.75345 0
M  V30 3854 C 351.245 3.97724 2.70867 0
M  V30 3855 C 353.597 4.51817 2.59828 0
M  V30 3856 C 350.925 5.31344 2.48778 0
M  V30 3857 C 353.277 5.85604 2.39272 0
M  V30 3858 C 351.941 6.25439 2.33199 0
M  V30 3859 H 351.211 0.458934 0.581774 0
M  V30 3860 H 353.858 1.65335 0.966261 0
M  V30 3861 H 352.163 1.608 3.57282 0
M  V30 3862 H 353.86 1.98868 3.48213 0
M  V30 3863 H 350.45 3.24785 2.79665 0
M  V30 3864 H 354.634 4.21311 2.62319 0
M  V30 3865 H 349.89 5.61241 2.42526 0
M  V30 3866 H 354.064 6.58623 2.2625 0
M  V30 3867 H 351.691 7.28914 2.15843 0
M  V30 3868 N 353.266 -1.05314 1.17247 0
M  V30 3869 C 354.199 -2.12512 0.831507 0
M  V30 3870 C 355.177 -1.61351 -0.201168 0
M  V30 3871 O 356.361 -1.88317 -0.0829831 0
M  V30 3872 C 353.488 -3.37848 0.24015 0
M  V30 3873 C 352.534 -4.07832 1.24801 0
M  V30 3874 S 353.367 -4.56537 2.79882 0
M  V30 3875 C 354.523 -5.85122 2.22223 0
M  V30 3876 H 354.756 -2.41106 1.7394 0
M  V30 3877 H 352.289 -1.17896 0.996988 0
M  V30 3878 H 354.247 -4.10391 -0.0945588 0
M  V30 3879 H 352.908 -3.07392 -0.645668 0
M  V30 3880 H 352.101 -4.97883 0.78287 0
M  V30 3881 H 351.703 -3.41348 1.52831 0
M  V30 3882 H 353.995 -6.58408 1.59703 0
M  V30 3883 H 354.938 -6.36381 3.10523 0
M  V30 3884 H 355.346 -5.39626 1.65722 0
M  V30 3885 N 354.744 -0.972509 -1.24016 0
M  V30 3886 C 355.691 -0.505969 -2.25186 0
M  V30 3887 C 356.661 0.451009 -1.5986 0
M  V30 3888 O 357.846 0.360307 -1.87367 0
M  V30 3889 C 354.986 0.193089 -3.44559 0
M  V30 3890 C 354.099 -0.803222 -4.24467 0
M  V30 3891 C 353.234 -0.0797793 -5.3114 0
M  V30 3892 C 352.273 -1.06583 -6.02749 0
M  V30 3893 N 351.41 -0.372074 -7.01113 0
M  V30 3894 H 356.25 -1.37351 -2.64459 0
M  V30 3895 H 353.787 -0.688419 -1.29997 0
M  V30 3896 H 355.745 0.615125 -4.1264 0
M  V30 3897 H 354.375 1.02455 -3.06109 0
M  V30 3898 H 353.427 -1.34368 -3.55878 0
M  V30 3899 H 354.739 -1.55494 -4.73944 0
M  V30 3900 H 353.893 0.400015 -6.0538 0
M  V30 3901 H 352.632 0.704597 -4.82583 0
M  V30 3902 H 351.637 -1.55645 -5.27309 0
M  V30 3903 H 352.862 -1.85074 -6.53395 0
M  V30 3904 H 350.808 0.393238 -6.5482 0
M  V30 3905 H 350.725 -1.06258 -7.48495 0
M  V30 3906 H 351.993 0.0855932 -7.79453 0
M  V30 3907 N 356.222 1.38976 -0.743202 0
M  V30 3908 C 357.447 2.05161 -0.303936 0
M  V30 3909 C 357.872 1.55677 1.05576 0
M  V30 3910 O 357.23 0.704131 1.67068 0
M  V30 3911 C 357.278 3.59138 -0.324373 0
M  V30 3912 O 356.382 4.06668 0.685204 0
M  V30 3913 H 355.723 0.649815 -0.136518 0
M  V30 3914 H 358.253 1.77852 -1.01142 0
M  V30 3915 H 358.263 4.07639 -0.171618 0
M  V30 3916 H 356.938 3.94515 -1.31647 0
M  V30 3917 H 355.515 3.69561 0.497913 0
M  V30 3918 N 357.7 0.491464 1.49741 0
M  V30 3919 C 358.93 -0.0534375 2.06531 0
M  V30 3920 C 359.338 -1.32233 1.35318 0
M  V30 3921 O 358.681 -1.78781 0.422243 0
M  V30 3922 C 358.743 -0.387034 3.57411 0
M  V30 3923 C 358.407 0.782764 4.50246 0
M  V30 3924 C 359.404 1.67059 4.92329 0
M  V30 3925 C 357.089 0.978866 4.9267 0
M  V30 3926 C 359.083 2.73874 5.75562 0
M  V30 3927 C 356.77 2.05022 5.75682 0
M  V30 3928 C 357.768 2.92851 6.17031 0
M  V30 3929 O 357.456 3.98138 6.98385 0
M  V30 3930 H 357.188 0.0129324 0.675876 0
M  V30 3931 H 359.742 0.685238 1.93633 0
M  V30 3932 H 357.972 -1.17918 3.68283 0
M  V30 3933 H 359.661 -0.869419 3.96479 0
M  V30 3934 H 360.427 1.53086 4.60206 0
M  V30 3935 H 356.306 0.304646 4.59992 0
M  V30 3936 H 359.85 3.42458 6.07757 0
M  V30 3937 H 355.747 2.18993 6.07217 0
M  V30 3938 H 356.515 3.95374 7.16674 0
M  V30 3939 N 359.178 -1.55987 0.224894 0
M  V30 3940 C 360.427 -1.97566 -0.406273 0
M  V30 3941 C 360.74 -1.11569 -1.6066 0
M  V30 3942 O 361.946 -1.43062 -2.3075 0
M  V30 3943 C 360.402 -3.51474 -0.774207 0
M  V30 3944 C 360.01 -4.46179 0.403496 0
M  V30 3945 C 361.754 -4.01758 -1.37079 0
M  V30 3946 C 359.661 -5.91399 0.0129412 0
M  V30 3947 H 358.591 -0.737777 -0.155565 0
M  V30 3948 H 361.242 -1.80659 0.321635 0
M  V30 3949 H 359.624 -3.63994 -1.55963 0
M  V30 3950 H 360.798 -4.45409 1.18101 0
M  V30 3951 H 359.113 -4.06255 0.913536 0
M  V30 3952 H 361.71 -5.07756 -1.67596 0
M  V30 3953 H 362.053 -3.47805 -2.28773 0
M  V30 3954 H 362.586 -3.92475 -0.648733 0
M  V30 3955 H 359.325 -6.49341 0.896451 0
M  V30 3956 H 358.845 -5.95356 -0.728821 0
M  V30 3957 H 360.524 -6.45683 -0.412582 0
M  V30 3958 N 360.656 0.0484629 -1.57525 0
M  V30 3959 C 361.586 1.0549 -2.08313 0
M  V30 3960 C 362.567 1.38929 -0.981463 0
M  V30 3961 O 363.752 1.48151 -1.25558 0
M  V30 3962 C 360.882 2.36162 -2.54646 0
M  V30 3963 C 359.836 2.17016 -3.68901 0
M  V30 3964 C 359.162 3.53278 -4.01371 0
M  V30 3965 C 360.462 1.57219 -4.98076 0
M  V30 3966 H 362.156 0.632195 -2.92649 0
M  V30 3967 H 359.702 0.302654 -1.40784 0
M  V30 3968 H 361.655 3.06882 -2.88793 0
M  V30 3969 H 360.379 2.80456 -1.67368 0
M  V30 3970 H 359.038 1.48733 -3.35073 0
M  V30 3971 H 358.686 3.95185 -3.11188 0
M  V30 3972 H 358.386 3.41299 -4.78318 0
M  V30 3973 H 359.91 4.25391 -4.38035 0
M  V30 3974 H 361.324 2.17832 -5.30304 0
M  V30 3975 H 359.721 1.55871 -5.79503 0
M  V30 3976 H 360.791 0.535956 -4.81929 0
M  V30 3977 N 362.134 1.5431 0.320358 0
M  V30 3978 C 363.044 1.86946 1.41734 0
M  V30 3979 C 364.06 0.761689 1.56443 0
M  V30 3980 O 365.236 1.05629 1.71477 0
M  V30 3981 C 362.301 2.09293 2.76401 0
M  V30 3982 C 361.362 3.33082 2.70841 0
M  V30 3983 C 360.595 3.54353 3.99086 0
M  V30 3984 O 360.818 2.79002 4.97508 0
M  V30 3985 O 359.752 4.47838 4.0215 0
M  V30 3986 H 363.578 2.80232 1.17062 0
M  V30 3987 H 361.163 1.40255 0.514673 0
M  V30 3988 H 363.045 2.25303 3.56113 0
M  V30 3989 H 361.72 1.19194 3.00956 0
M  V30 3990 H 360.627 3.22454 1.89668 0
M  V30 3991 H 361.96 4.23249 2.5124 0
M  V30 3992 N 363.613 -0.582584 1.46437 0
M  V30 3993 C 364.56 -1.69164 1.5701 0
M  V30 3994 C 365.53 -1.60847 0.414403 0
M  V30 3995 O 366.715 -1.80058 0.631171 0
M  V30 3996 C 363.855 -3.075 1.56646 0
M  V30 3997 C 362.968 -3.2644 2.82951 0
M  V30 3998 C 362.103 -4.55026 2.7409 0
M  V30 3999 C 361.142 -4.6731 3.95333 0
M  V30 4000 N 360.279 -5.87221 3.84858 0
M  V30 4001 H 365.119 -1.59464 2.51744 0
M  V30 4002 H 362.656 -0.777186 1.24893 0
M  V30 4003 H 364.614 -3.8757 1.5442 0
M  V30 4004 H 363.244 -3.16096 0.654439 0
M  V30 4005 H 362.296 -2.39974 2.95155 0
M  V30 4006 H 363.608 -3.31385 3.72808 0
M  V30 4007 H 362.762 -5.43324 2.6997 0
M  V30 4008 H 361.501 -4.52519 1.81873 0
M  V30 4009 H 360.506 -3.77429 3.99784 0
M  V30 4010 H 361.731 -4.71595 4.88646 0
M  V30 4011 H 359.677 -5.85712 2.95427 0
M  V30 4012 H 359.594 -5.93435 4.6837 0
M  V30 4013 H 360.862 -6.7795 3.84713 0
M  V30 4014 N 365.091 -1.34144 -0.827227 0
M  V30 4015 C 366.337 -1.26446 -1.58554 0
M  V30 4016 C 366.67 0.1664 -1.93486 0
M  V30 4017 O 365.945 1.1107 -1.59667 0
M  V30 4018 C 366.228 -2.15111 -2.8879 0
M  V30 4019 C 366.081 -3.66712 -2.60465 0
M  V30 4020 C 367.4 -2.03311 -3.90324 0
M  V30 4021 H 364.519 -0.46067 -0.575284 0
M  V30 4022 H 367.161 -1.64356 -0.953269 0
M  V30 4023 H 365.311 -1.8291 -3.42748 0
M  V30 4024 H 366.983 -4.09259 -2.1285 0
M  V30 4025 H 365.226 -3.88014 -1.93978 0
M  V30 4026 H 365.897 -4.24112 -3.53317 0
M  V30 4027 H 368.373 -2.31574 -3.45706 0
M  V30 4028 H 367.249 -2.67582 -4.79261 0
M  V30 4029 H 367.51 -1.00879 -4.30437 0
M  V30 4030 N 366.569 1.04691 -1.17803 0
M  V30 4031 C 367.516 2.12557 -0.899343 0
M  V30 4032 C 368.486 1.65339 0.158771 0
M  V30 4033 O 369.671 1.90789 0.0204797 0
M  V30 4034 C 366.811 3.42481 -0.424315 0
M  V30 4035 C 365.924 4.03346 -1.54713 0
M  V30 4036 C 365.059 5.21208 -1.02546 0
M  V30 4037 C 364.098 5.74089 -2.12339 0
M  V30 4038 N 363.235 6.83247 -1.61612 0
M  V30 4039 H 368.075 2.35734 -1.823 0
M  V30 4040 H 365.612 1.1564 -0.909159 0
M  V30 4041 H 367.57 4.16996 -0.130421 0
M  V30 4042 H 366.2 3.19471 0.462377 0
M  V30 4043 H 365.252 3.2622 -1.95664 0
M  V30 4044 H 366.564 4.38628 -2.37501 0
M  V30 4045 H 365.718 6.02812 -0.685718 0
M  V30 4046 H 364.457 4.87414 -0.167084 0
M  V30 4047 H 363.462 4.91111 -2.47165 0
M  V30 4048 H 364.687 6.0993 -2.98601 0
M  V30 4049 H 362.633 6.5134 -0.780533 0
M  V30 4050 H 362.55 7.17559 -2.38003 0
M  V30 4051 H 363.818 7.68491 -1.30545 0
M  V30 4052 N 368.047 0.979072 1.23499 0
M  V30 4053 C 368.957 0.526431 2.28617 0
M  V30 4054 C 369.973 -0.418126 1.68901 0
M  V30 4055 O 371.149 -0.288372 1.99325 0
M  V30 4056 C 368.214 -0.165235 3.46306 0
M  V30 4057 C 367.275 0.82056 4.21385 0
M  V30 4058 C 366.508 0.161807 5.33455 0
M  V30 4059 O 366.731 -1.04742 5.60701 0
M  V30 4060 O 365.665 0.859708 5.95729 0
M  V30 4061 H 369.491 1.4006 2.69475 0
M  V30 4062 H 367.076 0.746643 1.29405 0
M  V30 4063 H 368.958 -0.553287 4.17752 0
M  V30 4064 H 367.633 -1.01419 3.07402 0
M  V30 4065 H 366.54 1.25929 3.52268 0
M  V30 4066 H 367.873 1.63828 4.64135 0
M  V30 4067 N 369.525 -1.3858 0.750561 0
M  V30 4068 C 370.475 -2.27795 0.0965949 0
M  V30 4069 C 371.459 -1.45048 -0.696411 0
M  V30 4070 O 372.651 -1.67812 -0.562863 0
M  V30 4071 C 369.78 -3.33894 -0.798085 0
M  V30 4072 C 368.866 -4.241 0.0016067 0
M  V30 4073 N 369.257 -4.95067 1.03647 0
M  V30 4074 C 367.555 -4.45429 -0.225674 0
M  V30 4075 C 368.256 -5.61489 1.52004 0
M  V30 4076 N 367.232 -5.37135 0.835874 0
M  V30 4077 H 371.034 -2.80125 0.889228 0
M  V30 4078 H 368.548 -1.51446 0.586323 0
M  V30 4079 H 370.545 -3.96693 -1.28219 0
M  V30 4080 H 369.205 -2.83123 -1.5897 0
M  V30 4081 H 370.216 -4.98104 1.41819 0
M  V30 4082 H 366.893 -4.05571 -0.990872 0
M  V30 4083 H 368.283 -6.28264 2.38188 0
M  V30 4084 N 371.003 -0.499398 -1.49478 0
M  V30 4085 C 371.935 0.316575 -2.27003 0
M  V30 4086 C 372.948 0.932047 -1.33479 0
M  V30 4087 O 374.137 0.815658 -1.58774 0
M  V30 4088 C 371.237 1.46055 -3.05812 0
M  V30 4089 C 370.41 0.952679 -4.26899 0
M  V30 4090 C 369.469 1.97407 -4.87767 0
M  V30 4091 O 368.495 1.54326 -5.4788 0
M  V30 4092 N 369.697 3.30436 -4.77276 0
M  V30 4093 H 372.462 -0.348168 -2.97671 0
M  V30 4094 H 370.023 -0.33185 -1.58463 0
M  V30 4095 H 372.015 2.14135 -3.43407 0
M  V30 4096 H 370.585 2.02948 -2.37762 0
M  V30 4097 H 369.805 0.0968248 -3.94081 0
M  V30 4098 H 371.093 0.59174 -5.05347 0
M  V30 4099 H 370.491 3.68126 -4.29534 0
M  V30 4100 H 369.048 3.94235 -5.19059 0
M  V30 4101 N 372.481 1.55866 -0.233164 0
M  V30 4102 C 373.391 2.24431 0.683217 0
M  V30 4103 C 374.407 1.2558 1.2044 0
M  V30 4104 O 375.583 1.58422 1.24356 0
M  V30 4105 C 372.648 2.91979 1.86947 0
M  V30 4106 C 371.709 4.06204 1.38912 0
M  V30 4107 C 370.942 4.70522 2.51883 0
M  V30 4108 O 371.165 4.33865 3.70293 0
M  V30 4109 O 370.099 5.59296 2.22423 0
M  V30 4110 H 373.925 3.03426 0.129059 0
M  V30 4111 H 371.51 1.494 -0.0022283 0
M  V30 4112 H 373.392 3.34573 2.56201 0
M  V30 4113 H 372.067 2.15935 2.41151 0
M  V30 4114 H 370.974 3.68155 0.664259 0
M  V30 4115 H 372.307 4.84025 0.893328 0
M  V30 4116 N 373.959 -0.0401083 1.57549 0
M  V30 4117 C 375.184 -0.748931 1.93406 0
M  V30 4118 C 375.609 -1.68686 0.832274 0
M  V30 4119 O 374.967 -1.80047 -0.212818 0
M  V30 4120 C 375.015 -1.4916 3.28304 0
M  V30 4121 O 374.119 -2.6042 3.19774 0
M  V30 4122 H 373.46 -0.202212 0.63246 0
M  V30 4123 H 375.99 0.00112086 2.046 0
M  V30 4124 H 376 -1.86395 3.62934 0
M  V30 4125 H 374.675 -0.80364 4.08062 0
M  V30 4126 H 373.252 -2.25808 2.96758 0
M  V30 4127 N 375.437 -1.54477 -0.31217 0
M  V30 4128 C 376.37 -1.79519 -1.40884 0
M  V30 4129 C 377.348 -0.645753 -1.49227 0
M  V30 4130 O 378.532 -0.884468 -1.66461 0
M  V30 4131 C 375.659 -1.92194 -2.78889 0
M  V30 4132 C 374.705 -3.14555 -2.88023 0
M  V30 4133 S 375.538 -4.72893 -2.51262 0
M  V30 4134 C 376.694 -4.8849 -3.91317 0
M  V30 4135 H 376.927 -2.72256 -1.19432 0
M  V30 4136 H 374.46 -1.45746 -0.509654 0
M  V30 4137 H 376.418 -2.00182 -3.58382 0
M  V30 4138 H 375.079 -1.00414 -2.97617 0
M  V30 4139 H 374.272 -3.20193 -3.89221 0
M  V30 4140 H 373.874 -3.04955 -2.16514 0
M  V30 4141 H 376.166 -4.71826 -4.86196 0
M  V30 4142 H 377.109 -5.90588 -3.90656 0
M  V30 4143 H 377.517 -4.16715 -3.80801 0
M  V30 4144 N 376.915 0.57481 -1.46744 0
M  V30 4145 C 378.192 1.3352 -1.4294 0
M  V30 4146 C 378.572 2.10775 -0.117009 0
M  V30 4147 O 377.92 2.09966 0.901474 0
M  V30 4148 C 378.13 2.25456 -2.66403 0
M  V30 4149 C 379.478 2.87035 -3.12883 0
M  V30 4150 O 380.502 2.35766 -2.67007 0
M  V30 4151 O 379.361 3.80179 -3.92589 0
M  V30 4152 H 376.455 0.600318 -0.568812 0
M  V30 4153 H 379.001 0.595171 -1.58921 0
M  V30 4154 H 377.773 1.67851 -3.53471 0
M  V30 4155 H 377.396 3.06785 -2.52921 0
M  V30 4156 N 378.394 1.34581 0.820102 0
M  V30 4157 C 379.327 1.20735 1.93644 0
M  V30 4158 C 380.305 0.0983343 1.62302 0
M  V30 4159 O 381.489 0.263997 1.86642 0
M  V30 4160 C 378.616 0.856037 3.27704 0
M  V30 4161 C 377.662 1.97521 3.78005 0
M  V30 4162 S 378.495 3.58906 3.97425 0
M  V30 4163 C 379.651 3.25822 5.34407 0
M  V30 4164 H 379.884 2.15231 2.05093 0
M  V30 4165 H 377.417 1.1964 0.97599 0
M  V30 4166 H 379.375 0.660133 4.05157 0
M  V30 4167 H 378.036 -0.0706253 3.14021 0
M  V30 4168 H 377.229 1.68321 4.75062 0
M  V30 4169 H 376.831 2.12875 3.07507 0
M  V30 4170 H 379.123 2.77812 6.17922 0
M  V30 4171 H 380.066 4.22029 5.68592 0
M  V30 4172 H 380.474 2.61932 5.00052 0
M  V30 4173 N 379.872 -1.04064 1.18357 0
M  V30 4174 C 380.82 -2.14187 0.907007 0
M  V30 4175 C 381.814 -1.68879 -0.132725 0
M  V30 4176 O 383.02 -1.79993 0.0154248 0
M  V30 4177 H 379.395 -0.699585 0.275835 0
M  V30 4178 H 381.366 -2.34711 1.84264 0
M  V30 4179 C 380.115 -3.44785 0.449254 0
M  V30 4180 H 379.438 -3.80058 1.24081 0
M  V30 4181 H 380.878 -4.22974 0.294737 0
M  V30 4182 C 379.337 -3.26391 -0.834909 0
M  V30 4183 O 379.867 -3.53973 -1.89911 0
M  V30 4184 N 378.073 -2.79726 -0.787523 0
M  V30 4185 H 377.62 -2.5748 0.0787347 0
M  V30 4186 H 377.578 -2.67798 -1.64716 0
M  V30 4187 N 381.35 -0.985608 -1.22978 0
M  V30 4188 C 382.298 -0.522631 -2.26652 0
M  V30 4189 C 383.292 0.422998 -1.64034 0
M  V30 4190 O 384.498 0.296319 -1.77544 0
M  V30 4191 H 380.873 -0.150597 -0.736766 0
M  V30 4192 H 382.844 -1.40863 -2.63059 0
M  V30 4193 C 381.593 0.154238 -3.47358 0
M  V30 4194 H 380.916 -0.564329 -3.95797 0
M  V30 4195 H 382.356 0.441744 -4.21693 0
M  V30 4196 C 380.815 1.38719 -3.07016 0
M  V30 4197 O 381.345 2.48307 -3.15764 0
M  V30 4198 N 379.551 1.25975 -2.61875 0
M  V30 4199 H 379.098 0.368068 -2.54957 0
M  V30 4200 H 379.056 2.08578 -2.3525 0
M  V30 4201 N 382.828 1.3818 -0.7579 0
M  V30 4202 C 384.239 1.82726 -0.383134 0
M  V30 4203 C 384.59 1.63214 1.08884 0
M  V30 4204 O 383.715 1.13566 1.84205 0
M  V30 4205 C 384.31 3.31728 -0.688631 0
M  V30 4206 C 382.869 3.74606 -0.367091 0
M  V30 4207 C 382.016 2.60896 -0.939599 0
M  V30 4208 H 384.967 1.26847 -0.953699 0
M  V30 4209 H 384.988 3.80487 0.0316492 0
M  V30 4210 H 384.5 3.45898 -1.76001 0
M  V30 4211 H 382.601 3.66013 0.697532 0
M  V30 4212 H 382.714 4.71215 -0.865658 0
M  V30 4213 H 381.078 2.52075 -0.3647 0
M  V30 4214 H 381.861 2.77864 -2.0161 0
M  V30 4215 N 384.306 0.507319 1.49211 0
M  V30 4216 C 385.238 -0.304532 2.27168 0
M  V30 4217 C 386.251 -0.924956 1.33972 0
M  V30 4218 O 387.44 -0.807227 1.59205 0
M  V30 4219 C 384.54 -1.44431 3.06583 0
M  V30 4220 C 383.713 -0.930026 4.27398 0
M  V30 4221 C 382.772 -1.94817 4.88807 0
M  V30 4222 O 381.798 -1.51418 5.4869 0
M  V30 4223 N 383 -3.279 4.79022 0
M  V30 4224 H 385.765 0.36395 2.97482 0
M  V30 4225 H 383.326 0.340249 1.58284 0
M  V30 4226 H 385.318 -2.12311 3.44537 0
M  V30 4227 H 383.888 -2.01684 2.38835 0
M  V30 4228 H 383.108 -0.0759244 3.94127 0
M  V30 4229 H 384.396 -0.564932 5.05654 0
M  V30 4230 H 383.794 -3.65843 4.3148 0
M  V30 4231 H 382.351 -3.91476 5.21142 0
M  V30 4232 N 385.784 -1.5574 0.241426 0
M  V30 4233 C 387.061 -1.90704 -0.434881 0
M  V30 4234 C 387.441 -1.16145 -1.76277 0
M  V30 4235 O 386.789 -0.277152 -2.26813 0
M  V30 4236 C 386.999 -3.43657 -0.608343 0
M  V30 4237 C 388.347 -4.14806 -0.906725 0
M  V30 4238 O 389.371 -3.49366 -0.694408 0
M  V30 4239 O 388.23 -5.30548 -1.31075 0
M  V30 4240 H 385.324 -0.793592 -0.23268 0
M  V30 4241 H 387.87 -1.67288 0.285086 0
M  V30 4242 H 386.642 -3.89927 0.327505 0
M  V30 4243 H 386.265 -3.72918 -1.37906 0
M  V30 4244 N 387.262 0.0317525 -1.57568 0
M  V30 4245 C 388.509 0.723104 -1.89149 0
M  V30 4246 C 388.837 1.75504 -0.838377 0
M  V30 4247 O 388.092 1.95037 0.160982 0
M  V30 4248 C 388.391 1.43167 -3.27472 0
M  V30 4249 C 388.057 0.535972 -4.47703 0
M  V30 4250 C 386.719 0.289262 -4.8033 0
M  V30 4251 C 389.071 -0.0826125 -5.21135 0
M  V30 4252 C 386.399 -0.584853 -5.83778 0
M  V30 4253 C 388.751 -0.944414 -6.25511 0
M  V30 4254 C 387.415 -1.20061 -6.56614 0
M  V30 4255 H 386.685 0.264602 -0.692146 0
M  V30 4256 H 389.332 -0.0169496 -1.91492 0
M  V30 4257 H 387.637 2.24497 -3.21105 0
M  V30 4258 H 389.334 1.97209 -3.49155 0
M  V30 4259 H 385.924 0.738414 -4.22191 0
M  V30 4260 H 390.108 0.0950302 -4.96209 0
M  V30 4261 H 385.364 -0.79168 -6.06253 0
M  V30 4262 H 389.538 -1.43026 -6.81554 0
M  V30 4263 H 387.165 -1.87967 -7.36595 0
M  V30 4264 N 388.74 1.54641 0.303973 0
M  V30 4265 C 389.989 1.7299 1.03717 0
M  V30 4266 C 390.302 0.521168 1.88529 0
M  V30 4267 O 391.508 0.586408 2.65092 0
M  V30 4268 C 389.964 3.06051 1.89369 0
M  V30 4269 C 389.572 4.34393 1.09574 0
M  V30 4270 C 391.316 3.3376 2.62306 0
M  V30 4271 C 389.223 5.58506 1.94486 0
M  V30 4272 H 388.153 0.64473 0.390947 0
M  V30 4273 H 390.804 1.81124 0.294328 0
M  V30 4274 H 389.186 2.91874 2.67629 0
M  V30 4275 H 390.36 4.59396 0.359485 0
M  V30 4276 H 388.675 4.13597 0.482324 0
M  V30 4277 H 391.272 4.23687 3.26181 0
M  V30 4278 H 391.615 2.52503 3.3098 0
M  V30 4279 H 392.148 3.48894 1.91097 0
M  V30 4280 H 388.887 6.42422 1.30287 0
M  V30 4281 H 388.407 5.37694 2.65792 0
M  V30 4282 H 390.086 5.95651 2.52605 0
M  V30 4283 N 390.218 -0.567019 1.47046 0
M  V30 4284 C 391.495 -1.3276 1.43646 0
M  V30 4285 C 391.875 -2.1071 0.128186 0
M  V30 4286 O 391.223 -2.10441 -0.890326 0
M  V30 4287 C 391.433 -2.2404 2.67595 0
M  V30 4288 C 392.781 -2.85372 3.14401 0
M  V30 4289 O 393.805 -2.34346 2.68254 0
M  V30 4290 O 392.664 -3.78091 3.946 0
M  V30 4291 H 389.758 -0.597293 0.571988 0
M  V30 4292 H 392.304 -0.586735 1.59234 0
M  V30 4293 H 391.076 -1.65975 3.54356 0
M  V30 4294 H 390.699 -3.05439 2.54544 0
M  V30 4295 N 391.696 -1.35014 -0.812953 0
M  V30 4296 C 392.936 -1.29289 -1.58315 0
M  V30 4297 C 393.3 0.132727 -1.91541 0
M  V30 4298 O 394.501 0.314269 -2.66957 0
M  V30 4299 C 392.772 -2.1681 -2.84127 0
M  V30 4300 S 394.331 -2.28538 -3.74588 0
M  V30 4301 H 391.149 -0.459569 -0.542511 0
M  V30 4302 H 393.751 -1.70336 -0.959467 0
M  V30 4303 H 392.455 -3.19379 -2.57731 0
M  V30 4304 H 391.986 -1.76697 -3.51485 0
M  V30 4305 H 394.001 -1.4655 -4.74065 0
M  V30 4306 N 393.175 1.03435 -1.18907 0
M  V30 4307 C 394.422 1.76743 -0.988334 0
M  V30 4308 C 394.75 1.88447 0.481441 0
M  V30 4309 O 394.005 1.39383 1.37371 0
M  V30 4310 C 394.304 3.19792 -1.59586 0
M  V30 4311 C 393.97 3.28108 -3.09283 0
M  V30 4312 C 392.632 3.30084 -3.5014 0
M  V30 4313 C 394.984 3.27696 -4.05296 0
M  V30 4314 C 392.312 3.29299 -4.85571 0
M  V30 4315 C 394.664 3.28451 -5.4065 0
M  V30 4316 C 393.328 3.28723 -5.80946 0
M  V30 4317 H 392.598 0.64675 -0.361657 0
M  V30 4318 H 395.245 1.21442 -1.48068 0
M  V30 4319 H 393.55 3.78136 -1.02568 0
M  V30 4320 H 395.247 3.75171 -1.41589 0
M  V30 4321 H 391.837 3.27294 -2.76725 0
M  V30 4322 H 396.021 3.25354 -3.74778 0
M  V30 4323 H 391.277 3.2783 -5.16079 0
M  V30 4324 H 395.451 3.27082 -6.14809 0
M  V30 4325 H 393.078 3.27868 -6.85862 0
M  V30 4326 N 394.653 0.992116 1.22453 0
M  V30 4327 C 395.583 0.561677 2.26644 0
M  V30 4328 C 396.564 -0.411055 1.65059 0
M  V30 4329 O 397.749 -0.301861 1.9184 0
M  V30 4330 C 394.879 -0.125247 3.47074 0
M  V30 4331 C 393.833 0.765948 4.21091 0
M  V30 4332 C 393.159 -0.0538484 5.34673 0
M  V30 4333 C 394.459 2.06242 4.79856 0
M  V30 4334 H 396.153 1.43259 2.62902 0
M  V30 4335 H 393.699 0.690283 1.26377 0
M  V30 4336 H 395.652 -0.437764 4.1912 0
M  V30 4337 H 394.376 -1.03069 3.0991 0
M  V30 4338 H 393.035 1.0621 3.50878 0
M  V30 4339 H 392.683 -0.960188 4.9375 0
M  V30 4340 H 392.383 0.539415 5.85119 0
M  V30 4341 H 393.907 -0.360477 6.09535 0
M  V30 4342 H 395.321 1.8139 5.43848 0
M  V30 4343 H 393.718 2.60444 5.40638 0
M  V30 4344 H 394.788 2.74167 3.99951 0
M  V30 4345 N 396.131 -1.37776 0.765217 0
M  V30 4346 C 397.064 -2.28008 0.0935025 0
M  V30 4347 C 398.042 -1.45985 -0.716047 0
M  V30 4348 O 399.226 -1.75331 -0.692203 0
M  V30 4349 C 396.353 -3.27228 -0.874052 0
M  V30 4350 C 395.399 -4.26239 -0.149307 0
M  V30 4351 S 396.232 -5.22827 1.15809 0
M  V30 4352 C 397.388 -6.256 0.193906 0
M  V30 4353 H 397.621 -2.84631 0.858637 0
M  V30 4354 H 395.154 -1.43952 0.558313 0
M  V30 4355 H 397.112 -3.84902 -1.42691 0
M  V30 4356 H 395.773 -2.69565 -1.61225 0
M  V30 4357 H 394.966 -4.96213 -0.88254 0
M  V30 4358 H 394.568 -3.7252 0.332366 0
M  V30 4359 H 396.86 -6.74508 -0.636011 0
M  V30 4360 H 397.803 -7.02838 0.861638 0
M  V30 4361 H 398.211 -5.64173 -0.191975 0
M  V30 4362 N 397.609 -0.515225 -1.4894 0
M  V30 4363 C 398.556 0.255567 -2.29381 0
M  V30 4364 C 399.526 0.947387 -1.36432 0
M  V30 4365 O 400.711 0.951288 -1.65394 0
M  V30 4366 C 397.851 1.30551 -3.19453 0
M  V30 4367 C 396.964 0.624029 -4.27469 0
M  V30 4368 C 396.099 1.65563 -5.0474 0
M  V30 4369 C 395.138 0.956802 -6.04576 0
M  V30 4370 N 394.275 1.93326 -6.74959 0
M  V30 4371 H 399.115 -0.436607 -2.94784 0
M  V30 4372 H 396.652 -0.227154 -1.45336 0
M  V30 4373 H 398.61 1.92639 -3.70062 0
M  V30 4374 H 397.24 1.96626 -2.56004 0
M  V30 4375 H 396.292 -0.110459 -3.8024 0
M  V30 4376 H 397.604 0.0746092 -4.98744 0
M  V30 4377 H 396.758 2.35119 -5.59289 0
M  V30 4378 H 395.497 2.23893 -4.3327 0
M  V30 4379 H 394.502 0.247097 -5.49244 0
M  V30 4380 H 395.727 0.379814 -6.78037 0
M  V30 4381 H 393.673 2.50591 -6.06251 0
M  V30 4382 H 393.59 1.43489 -7.42258 0
M  V30 4383 H 394.858 2.62126 -7.34105 0
M  V30 4384 N 399.087 1.5561 -0.249682 0
M  V30 4385 C 400.02 2.17537 0.689408 0
M  V30 4386 C 400.998 1.12829 1.17083 0
M  V30 4387 O 402.182 1.41229 1.24846 0
M  V30 4388 C 399.309 2.77828 1.93725 0
M  V30 4389 C 398.355 3.95615 1.59346 0
M  V30 4390 S 399.188 5.30988 0.69367 0
M  V30 4391 C 400.344 5.94734 1.95046 0
M  V30 4392 H 400.577 2.96852 0.163142 0
M  V30 4393 H 398.11 1.54362 -0.0341166 0
M  V30 4394 H 400.068 3.13199 2.65361 0
M  V30 4395 H 398.729 1.98454 2.43465 0
M  V30 4396 H 397.922 4.364 2.52132 0
M  V30 4397 H 397.524 3.61535 0.957512 0
M  V30 4398 H 399.816 6.12419 2.89739 0
M  V30 4399 H 400.759 6.90109 1.58604 0
M  V30 4400 H 401.167 5.23832 2.10381 0
M  V30 4401 N 400.565 -0.0233959 1.57583 0
M  V30 4402 C 401.475 -1.03907 2.10334 0
M  V30 4403 C 402.491 -1.39257 1.04323 0
M  V30 4404 O 403.667 -1.48462 1.36091 0
M  V30 4405 C 400.732 -2.31938 2.57693 0
M  V30 4406 C 399.793 -2.03117 3.78209 0
M  V30 4407 C 399.026 -3.25043 4.233 0
M  V30 4408 O 399.249 -4.35916 3.67876 0
M  V30 4409 O 398.183 -3.10411 5.15683 0
M  V30 4410 H 402.009 -0.620748 2.97288 0
M  V30 4411 H 399.594 -0.240743 1.47448 0
M  V30 4412 H 401.476 -3.07196 2.88458 0
M  V30 4413 H 400.151 -2.73055 1.73847 0
M  V30 4414 H 399.058 -1.25408 3.52454 0
M  V30 4415 H 400.391 -1.66852 4.63056 0
M  V30 4416 N 402.043 -1.548 -0.295768 0
M  V30 4417 C 402.99 -1.86113 -1.36494 0
M  V30 4418 C 403.96 -0.7105 -1.50137 0
M  V30 4419 O 405.145 -0.959626 -1.64912 0
M  V30 4420 C 402.285 -2.11861 -2.72413 0
M  V30 4421 C 401.398 -3.39471 -2.67177 0
M  V30 4422 C 400.533 -3.55035 -3.95125 0
M  V30 4423 C 399.572 -4.76418 -3.84308 0
M  V30 4424 N 398.709 -4.8876 -5.04042 0
M  V30 4425 H 403.549 -2.77314 -1.09091 0
M  V30 4426 H 401.086 -1.37315 -0.52753 0
M  V30 4427 H 403.044 -2.24786 -3.51464 0
M  V30 4428 H 401.674 -1.2392 -2.98066 0
M  V30 4429 H 400.726 -3.35139 -1.79962 0
M  V30 4430 H 402.038 -4.28646 -2.55076 0
M  V30 4431 H 401.192 -3.67653 -4.82614 0
M  V30 4432 H 399.931 -2.64002 -4.10066 0
M  V30 4433 H 398.936 -4.63827 -2.95202 0
M  V30 4434 H 400.161 -5.68863 -3.70906 0
M  V30 4435 H 398.107 -4.00652 -5.19436 0
M  V30 4436 H 398.024 -5.71945 -4.94384 0
M  V30 4437 H 399.292 -5.0574 -5.93167 0
M  V30 4438 N 403.521 0.559213 -1.47345 0
M  V30 4439 C 404.431 1.69388 -1.62311 0
M  V30 4440 C 405.447 1.6648 -0.505993 0
M  V30 4441 O 406.623 1.85964 -0.773262 0
M  V30 4442 C 403.688 3.05894 -1.63185 0
M  V30 4443 C 402.749 3.19885 -2.86307 0
M  V30 4444 C 401.982 4.49879 -2.87131 0
M  V30 4445 O 402.205 5.35217 -1.97229 0
M  V30 4446 O 401.139 4.67618 -3.78968 0
M  V30 4447 H 404.965 1.59706 -2.58317 0
M  V30 4448 H 402.55 0.728989 -1.30407 0
M  V30 4449 H 404.432 3.87133 -1.66451 0
M  V30 4450 H 403.107 3.15964 -0.70345 0
M  V30 4451 H 402.014 2.38052 -2.88587 0
M  V30 4452 H 403.347 3.14718 -3.78435 0
M  V30 4453 N 404.999 1.35443 0.805782 0
M  V30 4454 C 405.946 1.28431 1.91766 0
M  V30 4455 C 406.916 0.156102 1.65365 0
M  V30 4456 O 408.101 0.339936 1.87747 0
M  V30 4457 C 405.241 1.06301 3.2832 0
M  V30 4458 C 404.354 2.2805 3.66902 0
M  V30 4459 C 403.489 1.99064 4.92491 0
M  V30 4460 C 402.528 3.16863 5.23703 0
M  V30 4461 N 401.665 2.87647 6.40471 0
M  V30 4462 H 406.505 2.23511 1.97096 0
M  V30 4463 H 404.042 1.11105 0.964054 0
M  V30 4464 H 406 0.915012 4.07042 0
M  V30 4465 H 404.63 0.148822 3.22457 0
M  V30 4466 H 403.682 2.53711 2.83434 0
M  V30 4467 H 404.994 3.1601 3.85927 0
M  V30 4468 H 404.148 1.81099 5.7904 0
M  V30 4469 H 402.887 1.0839 4.75503 0
M  V30 4470 H 401.892 3.35404 4.35642 0
M  V30 4471 H 403.117 4.08339 5.4262 0
M  V30 4472 H 401.063 1.99568 6.24907 0
M  V30 4473 H 400.98 3.69141 6.59751 0
M  V30 4474 H 402.248 2.73226 7.30047 0
M  V30 4475 N 406.477 -1.02803 1.19454 0
M  V30 4476 C 407.427 -2.0945 0.900827 0
M  V30 4477 C 408.411 -1.60335 -0.134715 0
M  V30 4478 O 409.603 -1.76857 0.0710924 0
M  V30 4479 C 406.732 -3.4044 0.442229 0
M  V30 4480 C 405.818 -3.96286 1.51056 0
M  V30 4481 N 406.209 -4.25785 2.73021 0
M  V30 4482 C 404.507 -4.24307 1.37404 0
M  V30 4483 C 405.208 -4.70654 3.41848 0
M  V30 4484 N 404.184 -4.72238 2.69243 0
M  V30 4485 H 407.986 -2.3015 1.82779 0
M  V30 4486 H 405.5 -1.20672 1.08683 0
M  V30 4487 H 407.497 -4.16354 0.21326 0
M  V30 4488 H 406.157 -3.21159 -0.478238 0
M  V30 4489 H 407.168 -4.15041 3.09776 0
M  V30 4490 H 403.845 -4.14285 0.517103 0
M  V30 4491 H 405.235 -5.02392 4.46152 0
M  V30 4492 N 407.956 -0.998596 -1.21925 0
M  V30 4493 C 408.904 -0.546641 -2.26085 0
M  V30 4494 C 409.898 0.405576 -1.64473 0
M  V30 4495 O 411.104 0.277471 -1.77849 0
M  V30 4496 H 407.479 -0.158403 -0.735127 0
M  V30 4497 H 409.45 -1.43645 -2.61551 0
M  V30 4498 C 408.199 0.117388 -3.47502 0
M  V30 4499 H 407.522 -0.606277 -3.95176 0
M  V30 4500 H 408.962 0.396993 -4.22137 0
M  V30 4501 C 407.421 1.35455 -3.0847 0
M  V30 4502 O 407.951 2.44944 -3.18379 0
M  V30 4503 N 406.157 1.23191 -2.63196 0
M  V30 4504 H 405.704 0.341006 -2.55333 0
M  V30 4505 H 405.662 2.06071 -2.37449 0
M  V30 4506 N 409.434 1.37368 -0.772513 0
M  V30 4507 C 410.366 2.28899 -0.117502 0
M  V30 4508 C 411.379 1.4867 0.663405 0
M  V30 4509 O 412.568 1.71314 0.501372 0
M  V30 4510 C 409.668 3.2788 0.857192 0
M  V30 4511 C 408.841 4.37207 0.129938 0
M  V30 4512 C 407.9 5.16257 1.01811 0
M  V30 4513 O 406.926 5.67159 0.481601 0
M  V30 4514 N 408.128 5.31058 2.3443 0
M  V30 4515 H 410.893 2.85752 -0.903662 0
M  V30 4516 H 408.454 1.49353 -0.62493 0
M  V30 4517 H 410.446 3.77647 1.45482 0
M  V30 4518 H 409.016 2.7179 1.54432 0
M  V30 4519 H 408.236 3.88827 -0.648605 0
M  V30 4520 H 409.524 5.07434 -0.372559 0
M  V30 4521 H 408.922 4.91287 2.80452 0
M  V30 4522 H 407.479 5.84131 2.89197 0
M  V30 4523 N 410.912 0.523116 1.48665 0
M  V30 4524 C 412.323 0.0808997 1.86525 0
M  V30 4525 C 412.674 -1.33975 1.43336 0
M  V30 4526 O 411.799 -2.00221 0.821009 0
M  V30 4527 C 412.394 0.140037 3.3851 0
M  V30 4528 C 410.953 -0.246948 3.75589 0
M  V30 4529 C 410.1 0.502845 2.72703 0
M  V30 4530 H 413.051 0.734736 1.40667 0
M  V30 4531 H 413.072 -0.649945 3.74908 0
M  V30 4532 H 412.584 1.17412 3.69914 0
M  V30 4533 H 410.685 -1.28343 3.49798 0
M  V30 4534 H 410.798 0.0878859 4.79019 0
M  V30 4535 H 409.162 -0.0500581 2.54651 0
M  V30 4536 H 409.945 1.53743 3.0695 0
M  V30 4537 N 412.39 -1.55475 0.257931 0
M  V30 4538 C 413.615 -2.04064 -0.370488 0
M  V30 4539 C 414.04 -1.13565 -1.49948 0
M  V30 4540 O 413.398 -0.130781 -1.80828 0
M  V30 4541 C 413.446 -3.50554 -0.845237 0
M  V30 4542 O 412.55 -3.63173 -1.95394 0
M  V30 4543 H 411.891 -0.659257 -0.0792243 0
M  V30 4544 H 414.421 -2.00903 0.387212 0
M  V30 4545 H 414.431 -3.91588 -1.14555 0
M  V30 4546 H 413.106 -4.15896 -0.0191259 0
M  V30 4547 H 411.683 -3.34039 -1.65748 0
M  V30 4548 N 413.868 0.0150385 -1.57593 0
M  V30 4549 C 414.778 1.02791 -2.10882 0
M  V30 4550 C 415.794 1.38702 -1.0506 0
M  V30 4551 O 416.97 1.47739 -1.36877 0
M  V30 4552 C 414.035 2.30568 -2.58919 0
M  V30 4553 C 413.096 2.01108 -3.79281 0
M  V30 4554 C 412.329 3.22794 -4.25018 0
M  V30 4555 O 412.552 4.33959 -3.70183 0
M  V30 4556 O 411.486 3.07672 -5.17322 0
M  V30 4557 H 415.312 0.604973 -2.97613 0
M  V30 4558 H 412.897 0.23292 -1.47573 0
M  V30 4559 H 414.779 3.05662 -2.90084 0
M  V30 4560 H 413.454 2.72129 -1.75293 0
M  V30 4561 H 412.361 1.23537 -3.53114 0
M  V30 4562 H 413.694 1.64394 -4.63935 0
M  V30 4563 N 415.346 1.54954 0.287554 0
M  V30 4564 C 416.593 1.74873 1.02106 0
M  V30 4565 C 416.921 0.541829 1.86801 0
M  V30 4566 O 416.176 -0.475992 1.89823 0
M  V30 4567 C 416.475 2.99833 1.94512 0
M  V30 4568 C 416.141 4.33029 1.25686 0
M  V30 4569 C 414.803 4.69233 1.06649 0
M  V30 4570 C 417.155 5.15542 0.765913 0
M  V30 4571 C 414.483 5.85518 0.372222 0
M  V30 4572 C 416.835 6.32542 0.0853101 0
M  V30 4573 C 415.499 6.67398 -0.1169 0
M  V30 4574 H 414.769 0.639906 0.373632 0
M  V30 4575 H 417.416 1.89219 0.294665 0
M  V30 4576 H 415.721 2.80325 2.73725 0
M  V30 4577 H 417.418 3.1244 2.51361 0
M  V30 4578 H 414.008 4.04564 1.41512 0
M  V30 4579 H 418.192 4.88059 0.90066 0
M  V30 4580 H 413.448 6.11057 0.204695 0
M  V30 4581 H 417.622 6.95741 -0.302936 0
M  V30 4582 H 415.249 7.57357 -0.656859 0
M  V30 4583 N 416.824 -0.551391 1.4764 0
M  V30 4584 C 418.052 -1.33357 1.58189 0
M  V30 4585 C 418.467 -1.87342 0.234199 0
M  V30 4586 O 417.824 -1.65301 -0.77343 0
M  V30 4587 C 417.875 -2.49942 2.61173 0
M  V30 4588 O 417.596 -1.98187 3.90709 0
M  V30 4589 C 419.097 -3.42072 2.8196 0
M  V30 4590 H 416.317 -0.40631 0.533998 0
M  V30 4591 H 418.861 -0.667367 1.93304 0
M  V30 4592 H 417.016 -3.12489 2.28975 0
M  V30 4593 H 417.43 -2.74342 4.47031 0
M  V30 4594 H 418.904 -4.20278 3.57869 0
M  V30 4595 H 419.381 -3.95978 1.89995 0
M  V30 4596 H 419.987 -2.85336 3.15378 0
M  V30 4597 N 418.302 -1.35869 -0.798587 0
M  V30 4598 C 419.551 -1.28921 -1.5512 0
M  V30 4599 C 419.864 0.13208 -1.95154 0
M  V30 4600 O 421.07 0.323879 -2.69561 0
M  V30 4601 C 419.526 -2.26141 -2.79979 0
M  V30 4602 C 419.134 -3.73658 -2.47151 0
M  V30 4603 C 420.878 -2.28152 -3.57976 0
M  V30 4604 C 418.785 -4.62679 -3.6835 0
M  V30 4605 H 417.715 -0.479031 -0.582276 0
M  V30 4606 H 420.366 -1.61179 -0.877125 0
M  V30 4607 H 418.748 -1.86865 -3.49138 0
M  V30 4608 H 419.922 -4.21616 -1.85947 0
M  V30 4609 H 418.237 -3.74333 -1.82383 0
M  V30 4610 H 420.834 -2.91875 -4.4801 0
M  V30 4611 H 421.177 -1.28748 -3.95891 0
M  V30 4612 H 421.71 -2.65998 -2.95787 0
M  V30 4613 H 418.449 -5.63111 -3.35538 0
M  V30 4614 H 417.969 -4.19442 -4.28752 0
M  V30 4615 H 419.648 -4.78498 -4.35487 0
M  V30 4616 N 419.78 1.02168 -1.19998 0
M  V30 4617 C 420.69 2.14069 -0.959774 0
M  V30 4618 C 421.706 1.73804 0.082655 0
M  V30 4619 O 422.882 2.01133 -0.103633 0
M  V30 4620 C 419.947 3.42936 -0.509459 0
M  V30 4621 C 419.008 3.97474 -1.62213 0
M  V30 4622 C 418.241 5.2019 -1.19321 0
M  V30 4623 O 418.464 5.70369 -0.0597726 0
M  V30 4624 O 417.398 5.67749 -1.99863 0
M  V30 4625 H 421.224 2.37199 -1.89658 0
M  V30 4626 H 418.809 1.12469 -0.983411 0
M  V30 4627 H 420.691 4.20551 -0.267322 0
M  V30 4628 H 419.366 3.21234 0.398821 0
M  V30 4629 H 418.273 3.21161 -1.9185 0
M  V30 4630 H 419.606 4.23555 -2.50723 0
M  V30 4631 N 421.258 1.00505 1.21394 0
M  V30 4632 C 422.483 0.706367 1.95001 0
M  V30 4633 C 422.908 -0.72463 1.73582 0
M  V30 4634 O 422.266 -1.49702 1.0227 0
M  V30 4635 C 422.314 1.03299 3.45487 0
M  V30 4636 O 421.418 0.138275 4.12168 0
M  V30 4637 H 420.759 0.263175 0.609619 0
M  V30 4638 H 423.289 1.34531 1.54151 0
M  V30 4639 H 423.299 0.979872 3.96059 0
M  V30 4640 H 421.974 2.07567 3.60401 0
M  V30 4641 H 420.551 0.247928 3.72075 0
M  V30 4642 N 422.737 -1.36956 0.779787 0
M  V30 4643 C 423.667 -2.32761 0.185651 0
M  V30 4644 C 424.648 -1.56177 -0.673989 0
M  V30 4645 O 425.833 -1.84378 -0.609797 0
M  V30 4646 C 422.963 -3.40418 -0.687964 0
M  V30 4647 C 421.917 -4.27941 0.0710102 0
M  V30 4648 C 421.243 -5.26681 -0.922573 0
M  V30 4649 C 422.543 -5.07006 1.25467 0
M  V30 4650 H 424.237 -2.82698 0.986008 0
M  V30 4651 H 421.783 -1.3592 0.475592 0
M  V30 4652 H 423.736 -4.06423 -1.11348 0
M  V30 4653 H 422.46 -2.89025 -1.52093 0
M  V30 4654 H 421.119 -3.63478 0.47739 0
M  V30 4655 H 420.767 -4.71565 -1.7503 0
M  V30 4656 H 420.467 -5.86103 -0.419237 0
M  V30 4657 H 421.991 -5.9556 -1.34686 0
M  V30 4658 H 423.405 -5.66105 0.905401 0
M  V30 4659 H 421.802 -5.75793 1.69063 0
M  V30 4660 H 422.872 -4.3921 2.05481 0
M  V30 4661 N 424.215 -0.530993 -1.48385 0
M  V30 4662 C 425.125 0.23503 -2.3342 0
M  V30 4663 C 426.141 0.93801 -1.46552 0
M  V30 4664 O 427.317 0.912745 -1.7953 0
M  V30 4665 C 424.382 1.26778 -3.22689 0
M  V30 4666 C 423.443 0.575038 -4.25431 0
M  V30 4667 C 422.676 1.55858 -5.10435 0
M  V30 4668 O 422.899 2.79129 -4.97437 0
M  V30 4669 O 421.833 1.09742 -5.91811 0
M  V30 4670 H 425.659 -0.461794 -3.00169 0
M  V30 4671 H 423.244 -0.291903 -1.46521 0
M  V30 4672 H 425.126 1.86457 -3.77904 0
M  V30 4673 H 423.801 1.94699 -2.586 0
M  V30 4674 H 422.708 -0.0622782 -3.74048 0
M  V30 4675 H 424.041 -0.062253 -4.92161 0
M  V30 4676 N 425.693 1.55336 -0.266172 0
M  V30 4677 C 426.641 2.23587 0.641228 0
M  V30 4678 C 427.635 1.22986 1.16494 0
M  V30 4679 O 428.841 1.40943 1.1196 0
M  V30 4680 H 425.216 0.717452 0.225315 0
M  V30 4681 H 427.187 2.9837 0.0426561 0
M  V30 4682 C 425.936 2.96369 1.81826 0
M  V30 4683 H 425.259 3.73563 1.42445 0
M  V30 4684 H 426.699 3.47459 2.42998 0
M  V30 4685 C 425.158 2.0133 2.70125 0
M  V30 4686 O 425.688 1.55875 3.70224 0
M  V30 4687 N 423.894 1.6802 2.37102 0
M  V30 4688 H 423.441 2.05181 1.55751 0
M  V30 4689 H 423.399 1.047 2.96454 0
M  V30 4690 N 427.171 -0.0066808 1.57599 0
M  V30 4691 C 428.399 -0.704087 1.94551 0
M  V30 4692 C 428.814 -1.67677 0.867746 0
M  V30 4693 O 428.171 -1.8185 -0.153925 0
M  V30 4694 C 428.222 -1.44177 3.31505 0
M  V30 4695 O 427.943 -0.508097 4.35144 0
M  V30 4696 C 429.444 -2.23429 3.82876 0
M  V30 4697 H 426.664 -0.196523 0.641576 0
M  V30 4698 H 429.208 0.042453 2.04456 0
M  V30 4699 H 427.363 -2.13999 3.22929 0
M  V30 4700 H 427.777 -1.02782 5.14331 0
M  V30 4701 H 429.251 -2.70552 4.8115 0
M  V30 4702 H 429.728 -3.05818 3.15233 0
M  V30 4703 H 430.334 -1.58636 3.94607 0
M  V30 4704 N 428.649 -1.55105 -0.279332 0
M  V30 4705 C 429.612 -1.86783 -1.32834 0
M  V30 4706 C 430.612 -0.74199 -1.42657 0
M  V30 4707 O 431.802 -1.0102 -1.41918 0
M  V30 4708 C 428.934 -2.06746 -2.71052 0
M  V30 4709 H 430.127 -2.8055 -1.05979 0
M  V30 4710 H 427.68 -1.47499 -0.517087 0
M  V30 4711 H 428.415 -1.15339 -3.03097 0
M  V30 4712 H 428.2 -2.88711 -2.65309 0
M  V30 4713 H 429.69 -2.32549 -3.46858 0
M  V30 4714 N 430.127 0.543554 -1.4793 0
M  V30 4715 C 431.373 1.30201 -1.55485 0
M  V30 4716 C 431.706 1.92925 -0.222201 0
M  V30 4717 O 430.981 1.78586 0.77053 0
M  V30 4718 C 431.264 2.40174 -2.68307 0
M  V30 4719 C 431.117 1.8223 -4.11233 0
M  V30 4720 C 432.436 3.42024 -2.76961 0
M  V30 4721 H 429.555 0.472036 -0.565996 0
M  V30 4722 H 432.197 0.606914 -1.80046 0
M  V30 4723 H 430.347 2.99463 -2.47495 0
M  V30 4724 H 432.019 1.27096 -4.43446 0
M  V30 4725 H 430.262 1.12832 -4.18869 0
M  V30 4726 H 430.933 2.61793 -4.85972 0
M  V30 4727 H 433.409 2.92672 -2.95774 0
M  V30 4728 H 432.285 4.16383 -3.57654 0
M  V30 4729 H 432.546 4.0173 -1.84568 0
M  V30 4730 N 431.605 1.3629 0.791371 0
M  V30 4731 C 432.882 1.20962 1.53712 0
M  V30 4732 C 433.262 -0.205021 2.10102 0
M  V30 4733 O 432.61 -1.21042 1.93807 0
M  V30 4734 C 432.82 2.29002 2.63361 0
M  V30 4735 C 434.168 2.65572 3.31295 0
M  V30 4736 O 435.192 2.2803 2.73643 0
M  V30 4737 O 434.051 3.3018 4.35481 0
M  V30 4738 H 431.145 0.47086 0.679867 0
M  V30 4739 H 433.691 1.48016 0.830021 0
M  V30 4740 H 432.463 3.2382 2.19674 0
M  V30 4741 H 432.086 2.03303 3.41692 0
M  V30 4742 N 433.083 -1.0153 1.20538 0
M  V30 4743 C 434.013 -2.11972 0.979295 0
M  V30 4744 C 434.994 -1.6985 -0.0921787 0
M  V30 4745 O 436.179 -1.94089 0.0655932 0
M  V30 4746 C 433.309 -3.43201 0.531984 0
M  V30 4747 C 432.263 -3.9907 1.54685 0
M  V30 4748 C 431.589 -5.26082 0.956127 0
M  V30 4749 C 432.889 -4.32313 2.93092 0
M  V30 4750 H 434.583 -2.31143 1.90298 0
M  V30 4751 H 432.129 -1.11079 0.916372 0
M  V30 4752 H 434.082 -4.1985 0.361044 0
M  V30 4753 H 432.806 -3.23792 -0.427327 0
M  V30 4754 H 431.465 -3.2453 1.70517 0
M  V30 4755 H 431.113 -5.02999 -0.0111538 0
M  V30 4756 H 430.813 -5.64426 1.63393 0
M  V30 4757 H 432.337 -6.05386 0.796284 0
M  V30 4758 H 433.751 -4.99845 2.80763 0
M  V30 4759 H 432.148 -4.81774 3.57791 0
M  V30 4760 H 433.218 -3.41025 3.44717 0
M  V30 4761 N 434.561 -1.01147 -1.20859 0
M  V30 4762 C 435.808 -0.697865 -1.90095 0
M  V30 4763 C 436.136 0.772014 -1.78522 0
M  V30 4764 O 435.391 1.57595 -1.16027 0
M  V30 4765 C 435.69 -1.0727 -3.40922 0
M  V30 4766 C 435.356 -2.53792 -3.72693 0
M  V30 4767 C 434.018 -2.93829 -3.81075 0
M  V30 4768 C 436.37 -3.48674 -3.87397 0
M  V30 4769 C 433.698 -4.27696 -4.01613 0
M  V30 4770 C 436.05 -4.82223 -4.09444 0
M  V30 4771 C 434.714 -5.21973 -4.16054 0
M  V30 4772 H 433.984 -0.255367 -0.695607 0
M  V30 4773 H 436.631 -1.27111 -1.43231 0
M  V30 4774 H 434.936 -0.417799 -3.89566 0
M  V30 4775 H 436.633 -0.807818 -3.92779 0
M  V30 4776 H 433.223 -2.21768 -3.66765 0
M  V30 4777 H 437.407 -3.18904 -3.80281 0
M  V30 4778 H 432.663 -4.58055 -4.04964 0
M  V30 4779 H 436.837 -5.55672 -4.19763 0
M  V30 4780 H 434.464 -6.25717 -4.31721 0
M  V30 4781 N 436.039 1.36541 -0.78704 0
M  V30 4782 C 437.287 1.98911 -0.357633 0
M  V30 4783 C 437.608 1.62778 1.07371 0
M  V30 4784 O 436.878 0.900612 1.73971 0
M  V30 4785 H 435.458 0.735734 -0.129246 0
M  V30 4786 H 438.12 1.66776 -1.00855 0
M  V30 4787 H 437.216 3.08874 -0.447549 0
M  V30 4788 N 437.518 0.538854 1.48102 0
M  V30 4789 C 438.481 -0.208395 2.28251 0
M  V30 4790 C 439.481 -0.859656 1.35892 0
M  V30 4791 O 440.671 -0.71834 1.58699 0
M  V30 4792 C 437.803 -1.30252 3.15035 0
M  V30 4793 H 438.996 0.495407 2.9578 0
M  V30 4794 H 436.549 0.295112 1.53489 0
M  V30 4795 H 437.284 -2.0393 2.52157 0
M  V30 4796 H 437.069 -0.840551 3.82985 0
M  V30 4797 H 438.559 -1.82787 3.75471 0
M  V30 4798 N 438.996 -1.55193 0.274407 0
M  V30 4799 C 440.244 -1.99187 -0.341902 0
M  V30 4800 C 440.565 -1.16422 -1.56431 0
M  V30 4801 O 439.835 -0.253573 -1.94252 0
M  V30 4802 H 438.415 -0.735721 -0.129317 0
M  V30 4803 H 441.077 -1.91168 0.379578 0
M  V30 4804 H 440.173 -3.05629 -0.632253 0
M  V30 4805 N 440.474 -0.00167713 -1.576 0
M  V30 4806 C 441.702 0.693759 -1.94922 0
M  V30 4807 C 442.117 1.67215 -0.876626 0
M  V30 4808 O 441.474 1.81929 0.144279 0
M  V30 4809 C 441.525 1.42416 -3.32265 0
M  V30 4810 O 441.246 0.485014 -4.35407 0
M  V30 4811 C 442.747 2.21395 -3.84056 0
M  V30 4812 H 439.967 0.193118 -0.642609 0
M  V30 4813 H 442.511 -0.0532952 -2.04431 0
M  V30 4814 H 440.666 2.12284 -3.24059 0
M  V30 4815 H 441.08 1.00053 -5.14868 0
M  V30 4816 H 442.554 2.67996 -4.82578 0
M  V30 4817 H 443.031 3.04142 -3.16851 0
M  V30 4818 H 443.637 1.56542 -3.95443 0
M  V30 4819 N 441.952 1.55251 0.271103 0
M  V30 4820 C 442.862 1.9136 1.35714 0
M  V30 4821 C 443.878 0.811075 1.5394 0
M  V30 4822 O 445.054 1.11031 1.6803 0
M  V30 4823 C 442.119 2.1798 2.69603 0
M  V30 4824 C 441.18 3.4153 2.60107 0
M  V30 4825 C 440.413 3.66871 3.8761 0
M  V30 4826 O 440.636 2.94689 4.8838 0
M  V30 4827 O 439.57 4.60405 3.87699 0
M  V30 4828 H 443.396 2.83815 1.08088 0
M  V30 4829 H 440.981 1.41821 0.469792 0
M  V30 4830 H 442.863 2.36518 3.48765 0
M  V30 4831 H 441.538 1.28708 2.97012 0
M  V30 4832 H 440.445 3.28325 1.79314 0
M  V30 4833 H 441.778 4.31027 2.37647 0
M  V30 4834 N 443.43 -0.535701 1.48216 0
M  V30 4835 C 444.658 -1.31671 1.59594 0
M  V30 4836 C 445.073 -1.87083 0.254056 0
M  V30 4837 O 444.43 -1.66112 -0.755854 0
M  V30 4838 C 444.481 -2.47158 2.63809 0
M  V30 4839 O 444.202 -1.94032 3.92789 0
M  V30 4840 C 445.703 -3.39062 2.85573 0
M  V30 4841 H 442.923 -0.400623 0.538277 0
M  V30 4842 H 445.467 -0.646827 1.94001 0
M  V30 4843 H 443.622 -3.10043 2.32276 0
M  V30 4844 H 444.036 -2.69585 4.49916 0
M  V30 4845 H 445.51 -4.16459 3.62306 0
M  V30 4846 H 445.987 -3.93941 1.94184 0
M  V30 4847 H 446.593 -2.81975 3.18387 0
M  V30 4848 N 444.908 -1.36708 -0.784132 0
M  V30 4849 C 446.136 -1.34398 -1.57305 0
M  V30 4850 C 446.551 0.0735577 -1.88657 0
M  V30 4851 O 445.908 1.03193 -1.50524 0
M  V30 4852 C 445.959 -2.17053 -2.89085 0
M  V30 4853 O 445.68 -3.53281 -2.59083 0
M  V30 4854 C 447.181 -2.22583 -3.83369 0
M  V30 4855 H 444.401 -0.460819 -0.487736 0
M  V30 4856 H 446.945 -1.79879 -0.972819 0
M  V30 4857 H 445.1 -1.75113 -3.45564 0
M  V30 4858 H 445.514 -3.9647 -3.43383 0
M  V30 4859 H 446.988 -2.84763 -4.72878 0
M  V30 4860 H 447.465 -1.23075 -4.21603 0
M  V30 4861 H 448.071 -2.64781 -3.32823 0
M  V30 4862 N 446.386 1.0089 -1.21074 0
M  V30 4863 C 447.611 1.78727 -1.05221 0
M  V30 4864 C 448.036 1.83932 0.393795 0
M  V30 4865 O 447.394 1.28004 1.28393 0
M  V30 4866 C 447.442 3.20665 -1.64944 0
M  V30 4867 O 446.546 4.02632 -0.892273 0
M  V30 4868 H 445.887 0.550973 -0.370574 0
M  V30 4869 H 448.417 1.26847 -1.60534 0
M  V30 4870 H 448.427 3.71352 -1.69002 0
M  V30 4871 H 447.102 3.16191 -2.70177 0
M  V30 4872 H 445.679 3.61207 -0.926492 0
M  V30 4873 N 447.864 1.01787 1.20321 0
M  V30 4874 C 449.092 0.727194 1.937 0
M  V30 4875 C 449.507 -0.712305 1.74848 0
M  V30 4876 O 448.864 -1.48327 1.06327 0
M  V30 4877 C 448.915 1.05497 3.45764 0
M  V30 4878 O 448.636 2.43794 3.64 0
M  V30 4879 C 450.137 0.785534 4.36285 0
M  V30 4880 H 447.357 0.266939 0.615617 0
M  V30 4881 H 449.901 1.35939 1.52777 0
M  V30 4882 H 448.056 0.468158 3.84561 0
M  V30 4883 H 448.47 2.55656 4.57974 0
M  V30 4884 H 449.944 1.06495 5.4163 0
M  V30 4885 H 450.421 -0.280273 4.38305 0
M  V30 4886 H 451.027 1.35456 4.03152 0
M  V30 4887 N 449.342 -1.36122 0.79427 0
M  V30 4888 C 450.57 -2.03362 0.380989 0
M  V30 4889 C 450.985 -1.59881 -1.00416 0
M  V30 4890 O 450.342 -0.790515 -1.6449 0
M  V30 4891 C 450.393 -3.58804 0.440649 0
M  V30 4892 O 450.114 -4.007 1.77118 0
M  V30 4893 C 451.615 -4.43296 0.0186117 0
M  V30 4894 H 448.835 -0.652526 0.156367 0
M  V30 4895 H 451.379 -1.73998 1.07447 0
M  V30 4896 H 449.534 -3.8686 -0.204458 0
M  V30 4897 H 449.948 -4.95309 1.72538 0
M  V30 4898 H 451.422 -5.51887 0.111488 0
M  V30 4899 H 451.899 -4.2684 -1.03461 0
M  V30 4900 H 452.505 -4.20512 0.636395 0
M  V30 4901 N 450.82 -0.546701 -1.47814 0
M  V30 4902 C 451.75 0.195317 -2.32682 0
M  V30 4903 C 452.731 0.918981 -1.43139 0
M  V30 4904 O 453.916 0.901501 -1.72008 0
M  V30 4905 C 451.046 1.23237 -3.247 0
M  V30 4906 C 450 0.625818 -4.234 0
M  V30 4907 C 449.326 1.76674 -5.04669 0
M  V30 4908 C 450.626 -0.413515 -5.2066 0
M  V30 4909 H 452.32 -0.513184 -2.94969 0
M  V30 4910 H 449.866 -0.248241 -1.41844 0
M  V30 4911 H 451.819 1.75955 -3.82907 0
M  V30 4912 H 450.543 1.97067 -2.60446 0
M  V30 4913 H 449.202 0.120023 -3.66403 0
M  V30 4914 H 448.85 2.49383 -4.36826 0
M  V30 4915 H 448.55 1.36673 -5.71484 0
M  V30 4916 H 450.074 2.29738 -5.65732 0
M  V30 4917 H 451.488 0.0272042 -5.73294 0
M  V30 4918 H 449.885 -0.731825 -5.95621 0
M  V30 4919 H 450.955 -1.31325 -4.66778 0
M  V30 4920 N 452.299 1.55045 -0.282633 0
M  V30 4921 C 453.715 1.59441 0.0712997 0
M  V30 4922 C 453.915 1.2998 1.53972 0
M  V30 4923 O 452.971 1.06431 2.28973 0
M  V30 4924 C 454.284 2.99097 -0.310104 0
M  V30 4925 C 455.832 3.1194 -0.257343 0
M  V30 4926 C 456.307 4.53875 -0.613297 0
M  V30 4927 N 457.798 4.5974 -0.565134 0
M  V30 4928 C 458.533 5.67603 -0.81326 0
M  V30 4929 N 458.029 6.83582 -1.1264 0
M  V30 4930 N 459.822 5.57187 -0.741553 0
M  V30 4931 H 451.973 1.72458 -1.23984 0
M  V30 4932 H 454.236 0.804549 -0.501403 0
M  V30 4933 H 453.942 3.25516 -1.33163 0
M  V30 4934 H 453.816 3.75616 0.345366 0
M  V30 4935 H 456.203 2.85281 0.754905 0
M  V30 4936 H 456.284 2.37618 -0.947178 0
M  V30 4937 H 455.928 4.81261 -1.62327 0
M  V30 4938 H 455.858 5.26508 0.09841 0
M  V30 4939 H 458.349 3.76427 -0.333294 0
M  V30 4940 H 458.662 7.6175 -1.30219 0
M  V30 4941 H 457.007 6.85179 -1.16425 0
M  V30 4942 H 460.198 4.65457 -0.496705 0
M  V30 4943 H 460.371 6.41171 -0.938306 0
M  V30 4944 N 453.777 0.010035 1.57597 0
M  V30 4945 C 455.007 -0.682422 1.95004 0
M  V30 4946 C 455.415 -1.67278 0.884014 0
M  V30 4947 O 454.758 -1.83129 -0.144672 0
M  V30 4948 C 454.82 -1.46141 3.28456 0
M  V30 4949 C 454.484 -0.631523 4.52615 0
M  V30 4950 C 455.481 0.0850905 5.1983 0
M  V30 4951 C 453.166 -0.574539 4.99003 0
M  V30 4952 C 455.16 0.847566 6.3174 0
M  V30 4953 C 452.847 0.191655 6.10799 0
M  V30 4954 C 453.845 0.901432 6.77025 0
M  V30 4955 O 453.533 1.65511 7.86677 0
M  V30 4956 H 453.265 -0.194361 0.647456 0
M  V30 4957 H 455.819 0.060312 2.05311 0
M  V30 4958 H 454.049 -2.24885 3.14585 0
M  V30 4959 H 455.738 -2.04016 3.50902 0
M  V30 4960 H 456.504 0.0502812 4.84974 0
M  V30 4961 H 452.383 -1.11654 4.47274 0
M  V30 4962 H 455.927 1.4021 6.83364 0
M  V30 4963 H 451.824 0.228249 6.45096 0
M  V30 4964 H 452.592 1.57287 8.03245 0
M  V30 4965 N 455.255 -1.55392 -0.262866 0
M  V30 4966 C 456.218 -1.88181 -1.30846 0
M  V30 4967 C 457.218 -0.757079 -1.41862 0
M  V30 4968 O 458.408 -1.02519 -1.40838 0
M  V30 4969 C 455.54 -2.09609 -2.68844 0
M  V30 4970 H 456.733 -2.81659 -1.02997 0
M  V30 4971 H 454.286 -1.48039 -0.501414 0
M  V30 4972 H 455.021 -1.18547 -3.01856 0
M  V30 4973 H 454.806 -2.91508 -2.62231 0
M  V30 4974 H 456.296 -2.36215 -3.44372 0
M  V30 4975 N 456.733 0.527833 -1.48498 0
M  V30 4976 C 457.663 1.64136 -1.66077 0
M  V30 4977 C 458.644 1.62286 -0.509625 0
M  V30 4978 O 459.829 1.79449 -0.742413 0
M  V30 4979 C 456.959 3.02717 -1.70234 0
M  V30 4980 C 455.913 3.19426 -2.8487 0
M  V30 4981 C 455.239 4.5909 -2.74118 0
M  V30 4982 C 456.539 3.01993 -4.26142 0
M  V30 4983 H 458.233 1.4968 -2.593 0
M  V30 4984 H 455.779 0.718654 -1.24785 0
M  V30 4985 H 457.732 3.80491 -1.8112 0
M  V30 4986 H 456.456 3.18201 -0.735911 0
M  V30 4987 H 455.115 2.4407 -2.73542 0
M  V30 4988 H 454.763 4.71413 -1.7544 0
M  V30 4989 H 454.463 4.71214 -3.51042 0
M  V30 4990 H 455.987 5.3896 -2.86974 0
M  V30 4991 H 457.401 3.69558 -4.38292 0
M  V30 4992 H 455.798 3.2561 -5.04082 0
M  V30 4993 H 456.868 1.98396 -4.42456 0
M  V30 4994 N 458.211 1.37122 0.776871 0
M  V30 4995 C 459.141 1.35164 1.90402 0
M  V30 4996 C 460.122 0.221069 1.68657 0
M  V30 4997 O 461.307 0.420642 1.8959 0
M  V30 4998 C 458.437 1.15274 3.27611 0
M  V30 4999 C 457.391 2.25289 3.63908 0
M  V30 5000 C 456.717 1.90527 4.99603 0
M  V30 5001 C 458.017 3.67446 3.71188 0
M  V30 5002 H 459.711 2.29482 1.92297 0
M  V30 5003 H 457.257 1.10465 0.923773 0
M  V30 5004 H 459.21 1.12536 4.06096 0
M  V30 5005 H 457.934 0.174102 3.26136 0
M  V30 5006 H 456.593 2.27174 2.87728 0
M  V30 5007 H 456.241 0.91206 4.94662 0
M  V30 5008 H 455.941 2.64193 5.24858 0
M  V30 5009 H 457.465 1.89367 5.80493 0
M  V30 5010 H 458.879 3.67719 4.39836 0
M  V30 5011 H 457.276 4.40123 4.07936 0
M  V30 5012 H 458.346 4.01443 2.71977 0
M  V30 5013 N 459.689 -1.00246 1.21608 0
M  V30 5014 C 460.619 -2.10921 1.00172 0
M  V30 5015 C 461.6 -1.69938 -0.0741587 0
M  V30 5016 O 462.785 -1.94009 0.0861753 0
M  V30 5017 C 459.915 -3.42618 0.568355 0
M  V30 5018 C 458.869 -3.97407 1.58909 0
M  V30 5019 C 458.195 -5.25038 1.01187 0
M  V30 5020 C 459.495 -4.2918 2.97661 0
M  V30 5021 H 461.189 -2.29112 1.92739 0
M  V30 5022 H 458.735 -1.10101 0.928102 0
M  V30 5023 H 460.688 -4.19444 0.405555 0
M  V30 5024 H 459.412 -3.24227 -0.392961 0
M  V30 5025 H 458.071 -3.22703 1.73949 0
M  V30 5026 H 457.719 -5.02982 0.0421965 0
M  V30 5027 H 457.419 -5.62661 1.6937 0
M  V30 5028 H 458.943 -6.04507 0.860448 0
M  V30 5029 H 460.357 -4.96839 2.86049 0
M  V30 5030 H 458.754 -4.77952 3.6288 0
M  V30 5031 H 459.824 -3.3735 3.48315 0
M  V30 5032 N 461.167 -1.02423 -1.1978 0
M  V30 5033 C 462.097 -0.62157 -2.25075 0
M  V30 5034 C 463.078 0.367148 -1.6609 0
M  V30 5035 O 464.263 0.250892 -1.92573 0
M  V30 5036 C 461.393 0.0331826 -3.47284 0
M  V30 5037 C 460.347 -0.877323 -4.18912 0
M  V30 5038 C 459.673 -0.0879296 -5.34628 0
M  V30 5039 C 460.973 -2.18892 -4.74219 0
M  V30 5040 H 462.667 -1.50179 -2.59011 0
M  V30 5041 H 460.213 -0.723547 -1.24502 0
M  V30 5042 H 462.166 0.326488 -4.20133 0
M  V30 5043 H 460.89 0.948164 -3.12534 0
M  V30 5044 H 459.549 -1.15475 -3.47938 0
M  V30 5045 H 459.197 0.828941 -4.96123 0
M  V30 5046 H 458.897 -0.694359 -5.83483 0
M  V30 5047 H 460.421 0.198743 -6.10276 0
M  V30 5048 H 461.835 -1.95746 -5.38847 0
M  V30 5049 H 460.232 -2.74686 -5.33542 0
M  V30 5050 H 461.302 -2.84674 -3.92541 0
M  V30 5051 N 462.645 1.35699 -0.801477 0
M  V30 5052 C 463.575 2.32436 -0.222658 0
M  V30 5053 C 464.556 1.5723 0.649057 0
M  V30 5054 O 465.741 1.85324 0.580387 0
M  V30 5055 C 462.871 3.41469 0.633719 0
M  V30 5056 C 461.825 4.27774 -0.139083 0
M  V30 5057 C 461.151 5.28082 0.838666 0
M  V30 5058 C 462.451 5.04946 -1.33517 0
M  V30 5059 H 464.145 2.81094 -1.03086 0
M  V30 5060 H 461.691 1.35146 -0.497155 0
M  V30 5061 H 463.644 4.08143 1.04868 0
M  V30 5062 H 462.368 2.91408 1.47475 0
M  V30 5063 H 461.027 3.62673 -0.535156 0
M  V30 5064 H 460.675 4.7429 1.67506 0
M  V30 5065 H 460.375 5.86695 0.32594 0
M  V30 5066 H 461.899 5.97628 1.25194 0
M  V30 5067 H 463.313 5.64593 -0.995349 0
M  V30 5068 H 461.71 5.7303 -1.78202 0
M  V30 5069 H 462.78 4.35886 -2.12442 0
M  V30 5070 N 464.123 0.554532 1.47522 0
M  V30 5071 C 465.07 -0.19466 2.29978 0
M  V30 5072 C 466.04 -0.910882 1.38896 0
M  V30 5073 O 467.225 -0.907102 1.67858 0
M  V30 5074 C 464.365 -1.22035 3.22802 0
M  V30 5075 C 463.478 -0.510474 4.28973 0
M  V30 5076 C 462.613 -1.52123 5.08952 0
M  V30 5077 C 461.652 -0.796173 6.069 0
M  V30 5078 N 460.789 -1.75363 6.79847 0
M  V30 5079 H 465.629 0.51461 2.93523 0
M  V30 5080 H 463.166 0.265607 1.44682 0
M  V30 5081 H 465.124 -1.8276 3.7504 0
M  V30 5082 H 463.754 -1.89769 2.61127 0
M  V30 5083 H 462.806 0.211234 3.79813 0
M  V30 5084 H 464.118 0.0576503 4.98767 0
M  V30 5085 H 463.272 -2.20207 5.65326 0
M  V30 5086 H 462.011 -2.12327 4.39054 0
M  V30 5087 H 461.016 -0.101388 5.49707 0
M  V30 5088 H 462.241 -0.199911 6.78806 0
M  V30 5089 H 460.187 -2.3443 6.12682 0
M  V30 5090 H 460.104 -1.23759 7.45801 0
M  V30 5091 H 461.372 -2.4257 7.40797 0
M  V30 5092 N 465.601 -1.54893 0.290851 0
M  V30 5093 C 466.551 -2.19838 -0.604599 0
M  V30 5094 C 467.535 -1.16805 -1.10659 0
M  V30 5095 O 468.727 -1.42562 -1.04905 0
M  V30 5096 C 465.856 -2.93497 -1.78086 0
M  V30 5097 C 464.942 -4.03835 -1.29531 0
M  V30 5098 N 465.333 -5.03047 -0.527024 0
M  V30 5099 C 463.631 -4.17192 -1.57693 0
M  V30 5100 C 464.332 -5.81074 -0.269728 0
M  V30 5101 N 463.308 -5.36966 -0.846651 0
M  V30 5102 H 467.11 -2.93898 -0.00995032 0
M  V30 5103 H 464.624 -1.62121 0.0951353 0
M  V30 5104 H 466.621 -3.38484 -2.43381 0
M  V30 5105 H 465.281 -2.2095 -2.37931 0
M  V30 5106 H 466.292 -5.17611 -0.172872 0
M  V30 5107 H 462.969 -3.55845 -2.18359 0
M  V30 5108 H 464.359 -6.71005 0.346643 0
M  V30 5109 N 467.08 -0.0183926 -1.57589 0
M  V30 5110 C 468.491 0.521927 -1.79256 0
M  V30 5111 C 468.842 1.72885 -0.927636 0
M  V30 5112 O 467.967 2.15978 -0.135091 0
M  V30 5113 C 468.562 0.953632 -3.25102 0
M  V30 5114 C 467.121 1.43913 -3.47801 0
M  V30 5115 C 466.268 0.398837 -2.74417 0
M  V30 5116 H 469.219 -0.244485 -1.56805 0
M  V30 5117 H 469.24 1.81863 -3.34224 0
M  V30 5118 H 468.752 0.0750123 -3.88028 0
M  V30 5119 H 466.853 2.33804 -2.90115 0
M  V30 5120 H 466.966 1.45391 -4.56507 0
M  V30 5121 H 465.33 0.864572 -2.39577 0
M  V30 5122 H 466.113 -0.471132 -3.40052 0
M  V30 5123 N 468.558 1.5553 0.254621 0
M  V30 5124 C 469.468 1.92789 1.33677 0
M  V30 5125 C 470.484 0.827356 1.53071 0
M  V30 5126 O 471.66 1.12807 1.66843 0
M  V30 5127 C 468.725 2.20827 2.67275 0
M  V30 5128 C 467.786 3.4427 2.5647 0
M  V30 5129 C 467.019 3.70961 3.83697 0
M  V30 5130 O 467.242 2.99852 4.85227 0
M  V30 5131 O 466.176 4.64491 3.82794 0
M  V30 5132 H 470.002 2.84945 1.05071 0
M  V30 5133 H 467.587 1.42312 0.454723 0
M  V30 5134 H 469.469 2.40204 3.46237 0
M  V30 5135 H 468.144 1.31851 2.9563 0
M  V30 5136 H 467.051 3.30209 1.75821 0
M  V30 5137 H 468.384 4.33524 2.33062 0
M  V30 5138 N 470.036 -0.519951 1.48776 0
M  V30 5139 C 471.282 -1.27711 1.57536 0
M  V30 5140 C 471.615 -1.92547 0.252866 0
M  V30 5141 O 470.89 -1.7979 -0.742021 0
M  V30 5142 C 471.173 -2.35875 2.72094 0
M  V30 5143 C 471.026 -1.75664 4.1408 0
M  V30 5144 C 472.345 -3.37575 2.82367 0
M  V30 5145 H 469.464 -0.462971 0.573434 0
M  V30 5146 H 472.106 -0.578194 1.80989 0
M  V30 5147 H 470.256 -2.95488 2.52228 0
M  V30 5148 H 471.928 -1.20025 4.45412 0
M  V30 5149 H 470.171 -1.06154 4.20611 0
M  V30 5150 H 470.842 -2.54029 4.90075 0
M  V30 5151 H 473.318 -2.87929 3.00393 0
M  V30 5152 H 472.194 -4.1064 3.64233 0
M  V30 5153 H 472.455 -3.98743 1.90936 0
M  V30 5154 N 471.514 -1.37532 -0.769588 0
M  V30 5155 C 472.742 -1.36059 -1.55871 0
M  V30 5156 C 473.157 0.053544 -1.88724 0
M  V30 5157 O 472.514 1.01591 -1.5161 0
M  V30 5158 C 472.565 -2.20107 -2.86767 0
M  V30 5159 O 472.286 -3.56009 -2.55321 0
M  V30 5160 C 473.787 -2.26636 -3.80987 0
M  V30 5161 H 471.007 -0.465967 -0.482821 0
M  V30 5162 H 473.551 -1.80901 -0.953686 0
M  V30 5163 H 471.706 -1.78768 -3.43687 0
M  V30 5164 H 472.12 -4.0009 -3.39158 0
M  V30 5165 H 473.594 -2.89763 -4.69831 0
M  V30 5166 H 474.071 -1.2754 -4.20274 0
M  V30 5167 H 474.677 -2.68296 -3.29996 0
M  V30 5168 N 472.992 0.995999 -1.22138 0
M  V30 5169 C 473.955 2.06711 -0.990109 0
M  V30 5170 C 474.955 1.60744 0.0422978 0
M  V30 5171 O 476.145 1.73095 -0.195895 0
M  V30 5172 C 473.277 3.37288 -0.49491 0
M  V30 5173 H 474.47 2.28661 -1.94047 0
M  V30 5174 H 472.023 1.16711 -1.03963 0
M  V30 5175 H 472.758 3.21022 0.459948 0
M  V30 5176 H 472.543 3.71986 -1.23971 0
M  V30 5177 H 474.033 4.16103 -0.353253 0
M  V30 5178 N 474.47 1.03057 1.19235 0
M  V30 5179 C 475.417 0.612832 2.22515 0
M  V30 5180 C 476.387 -0.374224 1.61829 0
M  V30 5181 O 477.572 -0.270501 1.88873 0
M  V30 5182 C 474.712 -0.028475 3.45088 0
M  V30 5183 C 473.825 1.00483 4.20151 0
M  V30 5184 C 472.96 0.333102 5.30155 0
M  V30 5185 C 471.999 1.3522 5.96977 0
M  V30 5186 N 471.136 0.70616 6.9854 0
M  V30 5187 H 475.976 1.49812 2.57605 0
M  V30 5188 H 473.513 0.749658 1.26564 0
M  V30 5189 H 475.471 -0.417548 4.15105 0
M  V30 5190 H 474.101 -0.877334 3.10649 0
M  V30 5191 H 473.153 1.51194 3.49062 0
M  V30 5192 H 474.465 1.77929 4.65986 0
M  V30 5193 H 473.619 -0.110725 6.06599 0
M  V30 5194 H 472.358 -0.473547 4.85396 0
M  V30 5195 H 471.363 1.80627 5.19282 0
M  V30 5196 H 472.588 2.16037 6.4382 0
M  V30 5197 H 470.534 -0.0803667 6.55951 0
M  V30 5198 H 470.451 1.41848 7.42573 0
M  V30 5199 H 471.719 0.286391 7.78974 0
M  V30 5200 N 475.948 -1.35272 0.808662 0
M  V30 5201 C 477.194 -1.99003 0.390581 0
M  V30 5202 C 477.527 -1.63999 -1.0401 0
M  V30 5203 O 476.802 -0.904368 -1.72196 0
M  V30 5204 C 477.085 -3.55454 0.576566 0
M  V30 5205 C 476.938 -4.00249 2.05233 0
M  V30 5206 C 478.257 -4.401 0.00354277 0
M  V30 5207 H 475.376 -0.722917 0.143388 0
M  V30 5208 H 478.018 -1.6039 1.01858 0
M  V30 5209 H 476.168 -3.88477 0.0419766 0
M  V30 5210 H 477.84 -3.77626 2.64946 0
M  V30 5211 H 476.083 -3.51082 2.54801 0
M  V30 5212 H 476.754 -5.0911 2.13333 0
M  V30 5213 H 479.23 -4.13548 0.460117 0
M  V30 5214 H 478.106 -5.48656 0.163575 0
M  V30 5215 H 478.367 -4.28444 -1.09032 0
M  V30 5216 N 477.426 -0.562348 -1.47226 0
M  V30 5217 C 478.358 0.220011 -2.28142 0
M  V30 5218 C 479.371 0.874596 -1.37312 0
M  V30 5219 O 480.56 0.747583 -1.62091 0
M  V30 5220 C 477.66 1.32953 -3.11732 0
M  V30 5221 C 476.833 0.770759 -4.30556 0
M  V30 5222 C 475.892 1.76541 -4.95701 0
M  V30 5223 O 474.918 1.3095 -5.53932 0
M  V30 5224 N 476.12 3.09896 -4.90861 0
M  V30 5225 H 478.885 -0.474107 -2.95926 0
M  V30 5226 H 476.446 -0.398761 -1.56912 0
M  V30 5227 H 478.438 1.99378 -3.5218 0
M  V30 5228 H 477.008 1.92681 -2.46156 0
M  V30 5229 H 476.228 -0.0704056 -3.94137 0
M  V30 5230 H 477.516 0.376872 -5.07402 0
M  V30 5231 H 476.914 3.49577 -4.44761 0
M  V30 5232 H 475.471 3.71865 -5.35313 0
M  V30 5233 N 478.904 1.54736 -0.299062 0
M  V30 5234 C 479.814 2.27127 0.587413 0
M  V30 5235 C 480.83 1.30575 1.15005 0
M  V30 5236 O 482.006 1.63554 1.17525 0
M  V30 5237 C 479.071 2.99645 1.74395 0
M  V30 5238 C 478.132 4.11731 1.21559 0
M  V30 5239 C 477.365 4.80781 2.317 0
M  V30 5240 O 477.588 4.4918 3.51558 0
M  V30 5241 O 476.522 5.68226 1.98501 0
M  V30 5242 H 480.348 3.037 0.000250109 0
M  V30 5243 H 477.933 1.49256 -0.0655919 0
M  V30 5244 H 479.815 3.45138 2.4178 0
M  V30 5245 H 478.49 2.25969 2.31775 0
M  V30 5246 H 477.397 3.70641 0.507514 0
M  V30 5247 H 478.73 4.87379 0.687233 0
M  V30 5248 N 480.382 0.0267497 1.57577 0
M  V30 5249 C 481.292 -0.971633 2.13533 0
M  V30 5250 C 482.308 -1.35868 1.08701 0
M  V30 5251 O 483.484 -1.44058 1.40746 0
M  V30 5252 C 480.549 -2.23622 2.64941 0
M  V30 5253 C 479.61 -1.90982 3.8448 0
M  V30 5254 C 478.843 -3.11411 4.33427 0
M  V30 5255 O 479.066 -4.23992 3.81558 0
M  V30 5256 O 478 -2.93848 5.25297 0
M  V30 5257 H 481.826 -0.525853 2.99113 0
M  V30 5258 H 479.411 -0.193712 1.48139 0
M  V30 5259 H 481.293 -2.97864 2.98086 0
M  V30 5260 H 479.968 -2.67386 1.82446 0
M  V30 5261 H 478.875 -1.14132 3.56265 0
M  V30 5262 H 480.208 -1.52036 4.6813 0
M  V30 5263 N 481.861 -1.55662 -0.24637 0
M  V30 5264 C 483.11 -1.7672 -0.972254 0
M  V30 5265 C 483.423 -0.59078 -1.86465 0
M  V30 5266 O 484.629 -0.684391 -2.62732 0
M  V30 5267 C 483.085 -3.12869 -1.7788 0
M  V30 5268 C 482.693 -4.38161 -0.933768 0
M  V30 5269 C 484.437 -3.43265 -2.49738 0
M  V30 5270 C 482.344 -5.6534 -1.73623 0
M  V30 5271 H 481.274 -0.658795 -0.366749 0
M  V30 5272 H 483.925 -1.82092 -0.226902 0
M  V30 5273 H 482.307 -3.01606 -2.56612 0
M  V30 5274 H 483.481 -4.60413 -0.188736 0
M  V30 5275 H 481.796 -4.15102 -0.328488 0
M  V30 5276 H 484.393 -4.35501 -3.10231 0
M  V30 5277 H 484.736 -2.64614 -3.2138 0
M  V30 5278 H 485.269 -3.55746 -1.78016 0
M  V30 5279 H 482.008 -6.46814 -1.06354 0
M  V30 5280 H 481.528 -5.47188 -2.45653 0
M  V30 5281 H 483.207 -6.04616 -2.30323 0
M  V30 5282 N 483.339 0.512053 -1.4905 0
M  V30 5283 C 484.249 1.64139 -1.67617 0
M  V30 5284 C 485.265 1.64786 -0.558701 0
M  V30 5285 O 486.441 1.8341 -0.832034 0
M  V30 5286 C 483.506 3.00548 -1.72835 0
M  V30 5287 C 482.567 3.10615 -2.96339 0
M  V30 5288 C 481.8 4.40517 -3.01298 0
M  V30 5289 O 482.023 5.28671 -2.14157 0
M  V30 5290 O 480.957 4.55325 -3.93653 0
M  V30 5291 H 484.783 1.51407 -2.63267 0
M  V30 5292 H 482.368 0.687131 -1.32661 0
M  V30 5293 H 484.25 3.81641 -1.78683 0
M  V30 5294 H 482.925 3.13566 -0.803616 0
M  V30 5295 H 481.832 2.2875 -2.96014 0
M  V30 5296 H 483.165 3.0252 -3.88256 0
M  V30 5297 N 484.817 1.37938 0.762283 0
M  V30 5298 C 486.233 1.18945 1.06415 0
M  V30 5299 C 486.433 0.0321163 2.01474 0
M  V30 5300 O 485.489 -0.624844 2.44647 0
M  V30 5301 C 486.802 2.51218 1.65258 0
M  V30 5302 C 488.35 2.57824 1.7747 0
M  V30 5303 C 488.825 3.90251 2.39725 0
M  V30 5304 N 490.316 3.91744 2.47166 0
M  V30 5305 C 491.051 4.90966 2.96209 0
M  V30 5306 N 490.547 6.00585 3.45354 0
M  V30 5307 N 492.34 4.78363 2.9517 0
M  V30 5308 H 484.491 2.11994 0.131301 0
M  V30 5309 H 486.754 0.940262 0.120879 0
M  V30 5310 H 486.46 3.36317 1.02878 0
M  V30 5311 H 486.334 2.68989 2.64433 0
M  V30 5312 H 488.721 1.73126 2.3898 0
M  V30 5313 H 488.802 2.43928 0.770241 0
M  V30 5314 H 488.446 4.75368 1.78852 0
M  V30 5315 H 488.376 4.01454 3.40796 0
M  V30 5316 H 490.867 3.12563 2.12397 0
M  V30 5317 H 491.18 6.72236 3.81207 0
M  V30 5318 H 489.525 6.04217 3.43434 0
M  V30 5319 H 492.716 3.91841 2.56082 0
M  V30 5320 H 492.889 5.55843 3.33081 0
M  V30 5321 N 486.295 -0.989507 1.22664 0
M  V30 5322 C 487.541 -1.7321 1.05481 0
M  V30 5323 C 487.874 -1.89852 -0.408635 0
M  V30 5324 O 487.149 -1.44416 -1.30285 0
M  V30 5325 C 487.432 -3.1357 1.77047 0
M  V30 5326 C 487.285 -3.04555 3.31008 0
M  V30 5327 C 488.604 -4.12812 1.5256 0
M  V30 5328 H 485.723 -0.628697 0.384589 0
M  V30 5329 H 488.365 -1.15258 1.51049 0
M  V30 5330 H 486.515 -3.63046 1.3831 0
M  V30 5331 H 488.187 -2.62674 3.7921 0
M  V30 5332 H 486.43 -2.41278 3.6051 0
M  V30 5333 H 487.101 -4.03894 3.76263 0
M  V30 5334 H 489.577 -3.72106 1.86215 0
M  V30 5335 H 488.453 -5.09132 2.05124 0
M  V30 5336 H 488.714 -4.39711 0.458936 0
M  V30 5337 N 487.773 -1.03688 -1.18687 0
M  V30 5338 C 489.022 -0.733235 -1.879 0
M  V30 5339 C 489.335 0.741745 -1.8099 0
M  V30 5340 O 490.541 1.15875 -2.4553 0
M  V30 5341 C 488.997 -1.26127 -3.37076 0
M  V30 5342 C 488.605 -2.76461 -3.52524 0
M  V30 5343 C 490.349 -1.03398 -4.11715 0
M  V30 5344 C 488.256 -3.22642 -4.95637 0
M  V30 5345 H 487.186 -0.270584 -0.703776 0
M  V30 5346 H 489.837 -1.25222 -1.34133 0
M  V30 5347 H 488.219 -0.670165 -3.90288 0
M  V30 5348 H 489.393 -3.41296 -3.09602 0
M  V30 5349 H 487.708 -2.97559 -2.91286 0
M  V30 5350 H 490.305 -1.3542 -5.17267 0
M  V30 5351 H 490.648 0.0289246 -4.1629 0
M  V30 5352 H 491.181 -1.5895 -3.64664 0
M  V30 5353 H 487.92 -4.28296 -4.96228 0
M  V30 5354 H 487.44 -2.62539 -5.39289 0
M  V30 5355 H 489.119 -3.16444 -5.64333 0
M  V30 5356 N 489.251 1.34841 -0.815825 0
M  V30 5357 C 490.499 1.98107 -0.399744 0
M  V30 5358 C 490.82 1.65019 1.03894 0
M  V30 5359 O 490.09 0.937311 1.72021 0
M  V30 5360 H 488.67 0.732827 -0.144823 0
M  V30 5361 H 491.332 1.64599 -1.0437 0
M  V30 5362 H 490.428 3.07856 -0.512965 0
M  V30 5363 N 490.729 0.570148 1.46925 0
M  V30 5364 C 492.145 0.23087 1.57921 0
M  V30 5365 C 492.345 -1.26676 1.56702 0
M  V30 5366 O 491.401 -2.04774 1.47729 0
M  V30 5367 C 492.714 0.868973 2.8787 0
M  V30 5368 C 494.262 0.841397 3.01479 0
M  V30 5369 C 494.737 1.45881 4.34146 0
M  V30 5370 N 496.228 1.42258 4.40814 0
M  V30 5371 C 496.963 1.8698 5.42057 0
M  V30 5372 N 496.459 2.39618 6.50042 0
M  V30 5373 N 498.252 1.77972 5.33181 0
M  V30 5374 H 490.403 1.54301 1.45962 0
M  V30 5375 H 492.666 0.644224 0.69547 0
M  V30 5376 H 492.372 1.922 2.94537 0
M  V30 5377 H 492.246 0.369682 3.75384 0
M  V30 5378 H 494.633 -0.202973 2.94401 0
M  V30 5379 H 494.714 1.37858 2.15474 0
M  V30 5380 H 494.358 2.50231 4.4198 0
M  V30 5381 H 494.288 0.896958 5.18905 0
M  V30 5382 H 496.779 1.03768 3.63374 0
M  V30 5383 H 497.092 2.71633 7.23488 0
M  V30 5384 H 495.437 2.43636 6.50897 0
M  V30 5385 H 498.628 1.36617 4.4772 0
M  V30 5386 H 498.801 2.13143 6.11943 0
M  V30 5387 N 492.207 -1.54576 0.307264 0
M  V30 5388 C 493.155 -2.25208 -0.581723 0
M  V30 5389 C 494.149 -1.26031 -1.13192 0
M  V30 5390 O 495.355 -1.43862 -1.08184 0
M  V30 5391 H 491.73 -0.723173 -0.206214 0
M  V30 5392 H 493.701 -2.98378 0.0364663 0
M  V30 5393 C 492.45 -3.01086 -1.73904 0
M  V30 5394 H 491.773 -3.77208 -1.32491 0
M  V30 5395 H 493.213 -3.5378 -2.33701 0
M  V30 5396 C 491.672 -2.08422 -2.64692 0
M  V30 5397 O 492.202 -1.65636 -3.65961 0
M  V30 5398 N 490.408 -1.74247 -2.32564 0
M  V30 5399 H 489.955 -2.09238 -1.50257 0
M  V30 5400 H 489.913 -1.12524 -2.93574 0
M  V30 5401 N 493.685 -0.035106 -1.57561 0
M  V30 5402 C 495.101 0.321334 -1.56332 0
M  V30 5403 C 495.301 1.72509 -1.04129 0
M  V30 5404 O 494.357 2.4287 -0.690694 0
M  V30 5405 C 495.67 0.164469 -3.0025 0
M  V30 5406 C 497.218 0.236786 -3.12103 0
M  V30 5407 C 497.693 0.10864 -4.57871 0
M  V30 5408 N 499.184 0.165433 -4.62904 0
M  V30 5409 C 499.919 0.0901506 -5.73329 0
M  V30 5410 N 499.415 -0.0365606 -6.9279 0
M  V30 5411 N 501.208 0.144572 -5.61914 0
M  V30 5412 H 493.359 -0.952976 -1.89821 0
M  V30 5413 H 495.622 -0.368537 -0.873432 0
M  V30 5414 H 495.328 -0.802746 -3.42416 0
M  V30 5415 H 495.202 0.932194 -3.655 0
M  V30 5416 H 497.589 1.19446 -2.69845 0
M  V30 5417 H 497.67 -0.561419 -2.49563 0
M  V30 5418 H 497.314 -0.845644 -5.00811 0
M  V30 5419 H 497.244 0.925786 -5.18398 0
M  V30 5420 H 499.735 0.263269 -3.76982 0
M  V30 5421 H 500.048 -0.0871487 -7.72751 0
M  V30 5422 H 498.393 -0.0714256 -6.94963 0
M  V30 5423 H 501.584 0.242006 -4.67474 0
M  V30 5424 H 501.757 0.0824413 -6.47948 0
M  V30 5425 N 495.163 1.55791 0.238111 0
M  V30 5426 C 496.388 1.8244 0.986432 0
M  V30 5427 C 496.813 0.613314 1.7782 0
M  V30 5428 O 496.171 -0.437767 1.75935 0
M  V30 5429 C 496.219 3.06917 1.893 0
M  V30 5430 O 495.323 2.84449 2.98601 0
M  V30 5431 H 494.664 0.601975 0.280218 0
M  V30 5432 H 497.194 2.02987 0.256437 0
M  V30 5433 H 497.204 3.36583 2.30598 0
M  V30 5434 H 495.879 3.947 1.31091 0
M  V30 5435 H 494.456 2.65972 2.61368 0
M  V30 5436 N 496.642 -0.504142 1.49319 0
M  V30 5437 C 498.053 -1.08572 1.51885 0
M  V30 5438 C 498.404 -1.93842 0.303255 0
M  V30 5439 O 497.529 -2.0828 -0.58724 0
M  V30 5440 C 498.124 -1.97574 2.75227 0
M  V30 5441 C 496.683 -2.509 2.80581 0
M  V30 5442 C 495.83 -1.28447 2.45757 0
M  V30 5443 H 498.781 -0.288194 1.56061 0
M  V30 5444 H 498.802 -2.82219 2.55211 0
M  V30 5445 H 498.314 -1.35486 3.63683 0
M  V30 5446 H 496.415 -3.16636 1.96398 0
M  V30 5447 H 496.528 -2.88268 3.82673 0
M  V30 5448 H 494.892 -1.60868 1.97468 0
M  V30 5449 H 495.675 -0.68072 3.36483 0
M  V30 5450 N 498.12 -1.38341 -0.754957 0
M  V30 5451 C 499.36 -1.35888 -1.52689 0
M  V30 5452 C 499.724 0.0513682 -1.91931 0
M  V30 5453 O 500.925 0.200761 -2.68049 0
M  V30 5454 C 499.196 -2.28666 -2.74676 0
M  V30 5455 S 500.755 -2.4422 -3.64558 0
M  V30 5456 H 497.573 -0.482165 -0.522531 0
M  V30 5457 H 500.175 -1.74253 -0.886358 0
M  V30 5458 H 498.879 -3.30023 -2.43953 0
M  V30 5459 H 498.41 -1.91445 -3.43675 0
M  V30 5460 H 500.425 -1.66525 -4.67423 0
M  V30 5461 N 499.598 0.982988 -1.23187 0
M  V30 5462 C 500.531 2.07302 -0.953993 0
M  V30 5463 C 501.509 1.62249 0.106753 0
M  V30 5464 O 502.693 1.88481 -0.0269525 0
M  V30 5465 C 499.82 3.35873 -0.436716 0
M  V30 5466 C 498.866 3.99862 -1.48367 0
M  V30 5467 S 499.699 4.39443 -3.06023 0
M  V30 5468 C 500.855 5.7117 -2.55959 0
M  V30 5469 H 501.088 2.30554 -1.87702 0
M  V30 5470 H 498.621 1.11883 -1.06403 0
M  V30 5471 H 500.579 4.10244 -0.144872 0
M  V30 5472 H 499.24 3.10634 0.465351 0
M  V30 5473 H 498.433 4.92471 -1.07182 0
M  V30 5474 H 498.035 3.31857 -1.72473 0
M  V30 5475 H 500.327 6.47977 -1.97818 0
M  V30 5476 H 501.27 6.17194 -3.47098 0
M  V30 5477 H 501.678 5.29046 -1.96902 0
M  V30 5478 N 501.076 1.04316 1.18135 0
M  V30 5479 C 502.008 0.594444 2.21357 0
M  V30 5480 C 503.021 -0.337215 1.59269 0
M  V30 5481 O 504.21 -0.131337 1.78016 0
M  V30 5482 C 501.31 -0.151251 3.38562 0
M  V30 5483 C 500.483 0.788907 4.30227 0
M  V30 5484 C 499.542 0.0860572 5.2613 0
M  V30 5485 O 498.568 0.717302 5.64662 0
M  V30 5486 N 499.77 -1.17969 5.68387 0
M  V30 5487 H 502.535 1.48227 2.60478 0
M  V30 5488 H 500.096 0.92396 1.32946 0
M  V30 5489 H 502.088 -0.631352 3.99745 0
M  V30 5490 H 500.658 -0.940639 2.98112 0
M  V30 5491 H 499.878 1.44882 3.6661 0
M  V30 5492 H 501.166 1.42738 4.88368 0
M  V30 5493 H 500.564 -1.71302 5.3914 0
M  V30 5494 H 499.121 -1.60402 6.31755 0
M  V30 5495 N 502.554 -1.34406 0.822964 0
M  V30 5496 C 503.831 -1.92733 0.333641 0
M  V30 5497 C 504.211 -1.75107 -1.17901 0
M  V30 5498 O 503.559 -1.12983 -1.98613 0
M  V30 5499 C 503.769 -3.40557 0.763023 0
M  V30 5500 C 505.117 -4.17709 0.761879 0
M  V30 5501 O 506.141 -3.49141 0.705606 0
M  V30 5502 O 505 -5.40082 0.835109 0
M  V30 5503 H 502.094 -0.821964 0.0911249 0
M  V30 5504 H 504.64 -1.4338 0.907757 0
M  V30 5505 H 503.412 -3.47187 1.8049 0
M  V30 5506 H 503.035 -3.97259 0.164605 0
M  V30 5507 N 504.032 -0.577932 -1.46621 0
M  V30 5508 C 505.448 -0.239242 -1.57797 0
M  V30 5509 C 505.648 1.25843 -1.57371 0
M  V30 5510 O 504.704 2.03988 -1.48813 0
M  V30 5511 C 506.017 -0.884227 -2.87405 0
M  V30 5512 C 507.565 -0.857373 -3.01028 0
M  V30 5513 C 508.04 -1.48181 -4.33366 0
M  V30 5514 N 509.531 -1.44593 -4.40053 0
M  V30 5515 C 510.266 -1.89852 -5.41058 0
M  V30 5516 N 509.762 -2.43062 -6.48762 0
M  V30 5517 N 511.555 -1.80797 -5.3223 0
M  V30 5518 H 503.706 -1.55073 -1.45142 0
M  V30 5519 H 505.969 -0.647903 -0.692044 0
M  V30 5520 H 505.675 -1.93759 -2.93514 0
M  V30 5521 H 505.549 -0.389585 -3.75183 0
M  V30 5522 H 507.936 0.187357 -2.94505 0
M  V30 5523 H 508.017 -1.38999 -2.14739 0
M  V30 5524 H 507.661 -2.52572 -4.40647 0
M  V30 5525 H 507.591 -0.924464 -5.18422 0
M  V30 5526 H 510.082 -1.05694 -3.62819 0
M  V30 5527 H 510.395 -2.75466 -7.22038 0
M  V30 5528 H 508.74 -2.47085 -6.49595 0
M  V30 5529 H 511.931 -1.38989 -4.46989 0
M  V30 5530 H 512.104 -2.16385 -6.10804 0
M  V30 5531 N 505.51 1.54411 -0.315457 0
M  V30 5532 C 506.735 2.05299 0.294496 0
M  V30 5533 C 507.16 1.19052 1.4563 0
M  V30 5534 O 506.518 0.197804 1.80218 0
M  V30 5535 C 506.566 3.5345 0.714549 0
M  V30 5536 O 505.67 3.70175 1.81781 0
M  V30 5537 H 505.011 0.661743 0.0547019 0
M  V30 5538 H 507.541 1.99327 -0.461508 0
M  V30 5539 H 507.551 3.9557 0.999426 0
M  V30 5540 H 506.226 4.1568 -0.135244 0
M  V30 5541 H 504.803 3.3996 1.53236 0
M  V30 5542 N 506.988 0.0434614 1.5754 0
M  V30 5543 C 507.938 -0.943039 2.07583 0
M  V30 5544 C 508.922 -1.27662 0.979342 0
M  V30 5545 O 510.114 -1.26034 1.24276 0
M  V30 5546 C 507.243 -2.22056 2.61813 0
M  V30 5547 C 506.329 -1.91471 3.78417 0
M  V30 5548 N 506.72 -1.31214 4.88484 0
M  V30 5549 C 505.018 -2.21384 3.87176 0
M  V30 5550 C 505.719 -1.18084 5.69588 0
M  V30 5551 N 504.695 -1.68116 5.16951 0
M  V30 5552 H 508.497 -0.472354 2.90079 0
M  V30 5553 H 506.011 -0.161191 1.61598 0
M  V30 5554 H 508.008 -2.93618 2.95963 0
M  V30 5555 H 506.668 -2.69738 1.80752 0
M  V30 5556 H 507.679 -0.985318 5.08441 0
M  V30 5557 H 504.356 -2.7164 3.17046 0
M  V30 5558 H 505.746 -0.713684 6.68099 0
M  V30 5559 N 508.466 -1.55915 -0.229846 0
M  V30 5560 C 509.399 -1.86734 -1.3117 0
M  V30 5561 C 510.377 -0.723947 -1.45595 0
M  V30 5562 O 511.561 -0.971462 -1.61539 0
M  V30 5563 C 508.688 -2.06707 -2.68309 0
M  V30 5564 C 507.734 -3.2938 -2.70944 0
M  V30 5565 S 508.567 -4.85547 -2.25842 0
M  V30 5566 C 509.723 -5.08546 -3.64873 0
M  V30 5567 H 509.956 -2.78204 -1.04832 0
M  V30 5568 H 507.489 -1.48243 -0.431681 0
M  V30 5569 H 509.447 -2.18898 -3.47267 0
M  V30 5570 H 508.108 -1.16049 -2.91876 0
M  V30 5571 H 507.301 -3.40374 -3.71701 0
M  V30 5572 H 506.903 -3.16004 -2.00044 0
M  V30 5573 H 509.195 -4.96935 -4.60502 0
M  V30 5574 H 510.138 -6.10465 -3.58801 0
M  V30 5575 H 510.546 -4.36314 -3.58176 0
M  V30 5576 N 509.944 0.496216 -1.49584 0
M  V30 5577 C 511.355 1.07765 -1.52459 0
M  V30 5578 C 511.706 1.93679 -0.31353 0
M  V30 5579 O 510.831 2.08588 0.576186 0
M  V30 5580 C 511.426 1.96111 -2.76271 0
M  V30 5581 C 509.985 2.49409 -2.81908 0
M  V30 5582 C 509.132 1.27142 -2.46435 0
M  V30 5583 H 512.083 0.279914 -1.56212 0
M  V30 5584 H 512.104 2.80862 -2.56704 0
M  V30 5585 H 511.616 1.33555 -3.64396 0
M  V30 5586 H 509.717 3.1559 -1.98074 0
M  V30 5587 H 509.83 2.86234 -3.84196 0
M  V30 5588 H 508.194 1.59818 -1.98319 0
M  V30 5589 H 508.977 0.662866 -3.3684 0
M  V30 5590 N 511.423 1.38739 0.74761 0
M  V30 5591 C 512.653 1.3832 1.53464 0
M  V30 5592 C 513.061 -0.0273464 1.8918 0
M  V30 5593 O 512.404 -1.00588 1.53713 0
M  V30 5594 C 512.466 2.18007 2.85855 0
M  V30 5595 C 512.13 3.66762 2.72644 0
M  V30 5596 C 513.127 4.60124 2.42037 0
M  V30 5597 C 510.812 4.10193 2.89909 0
M  V30 5598 C 512.806 5.94897 2.28859 0
M  V30 5599 C 510.493 5.45045 2.7635 0
M  V30 5600 C 511.491 6.37211 2.45869 0
M  V30 5601 O 511.179 7.69581 2.3238 0
M  V30 5602 H 510.911 0.474718 0.481268 0
M  V30 5603 H 513.465 1.83012 0.932518 0
M  V30 5604 H 511.695 1.68043 3.48279 0
M  V30 5605 H 513.384 2.09921 3.47402 0
M  V30 5606 H 514.15 4.27874 2.28361 0
M  V30 5607 H 510.029 3.38797 3.1263 0
M  V30 5608 H 513.573 6.66802 2.04989 0
M  V30 5609 H 509.47 5.76889 2.89601 0
M  V30 5610 H 510.238 7.80169 2.47546 0
M  V30 5611 N 512.901 -0.976442 1.23707 0
M  V30 5612 C 514.129 -1.75341 1.09833 0
M  V30 5613 C 514.544 -1.8553 -0.349885 0
M  V30 5614 O 513.901 -1.33732 -1.24185 0
M  V30 5615 C 513.952 -3.17833 1.72233 0
M  V30 5616 O 513.673 -3.08167 3.11391 0
M  V30 5617 C 515.174 -4.11906 1.63853 0
M  V30 5618 H 512.394 -0.550137 0.384175 0
M  V30 5619 H 514.938 -1.2265 1.63638 0
M  V30 5620 H 513.093 -3.67538 1.22452 0
M  V30 5621 H 513.507 -3.97897 3.41729 0
M  V30 5622 H 514.981 -5.09579 2.12211 0
M  V30 5623 H 515.458 -4.35109 0.598092 0
M  V30 5624 H 516.064 -3.68107 2.13019 0
M  V30 5625 N 514.379 -1.04941 -1.1758 0
M  V30 5626 C 515.656 -0.671918 -1.83697 0
M  V30 5627 C 516.036 0.847929 -1.93322 0
M  V30 5628 O 515.384 1.75287 -1.46583 0
M  V30 5629 C 515.594 -1.35797 -3.21497 0
M  V30 5630 C 516.942 -1.4944 -3.97433 0
M  V30 5631 O 517.966 -1.31678 -3.30967 0
M  V30 5632 O 516.825 -1.78463 -5.1654 0
M  V30 5633 H 513.919 -0.236212 -0.792548 0
M  V30 5634 H 516.465 -1.14884 -1.24899 0
M  V30 5635 H 515.237 -2.39498 -3.09446 0
M  V30 5636 H 514.86 -0.870236 -3.8796 0
M  V30 5637 N 515.857 1.33968 -0.830081 0
M  V30 5638 C 516.82 2.27694 -0.26235 0
M  V30 5639 C 517.82 1.50589 0.563876 0
M  V30 5640 O 519.01 1.70028 0.378941 0
M  V30 5641 C 516.142 3.35002 0.63138 0
M  V30 5642 H 517.335 2.79419 -1.08928 0
M  V30 5643 H 514.888 1.44221 -0.602486 0
M  V30 5644 H 515.623 2.88504 1.48109 0
M  V30 5645 H 515.408 3.92079 0.0403276 0
M  V30 5646 H 516.898 4.04897 1.02217 0
M  V30 5647 N 517.335 0.585699 1.46312 0
M  V30 5648 C 518.581 0.0725284 2.0267 0
M  V30 5649 C 518.914 -1.28523 1.45586 0
M  V30 5650 O 518.189 -1.84283 0.622101 0
M  V30 5651 C 518.472 0.0099788 3.60099 0
M  V30 5652 C 518.325 1.39685 4.27561 0
M  V30 5653 C 519.644 -0.689117 4.34671 0
M  V30 5654 H 516.763 0.0278307 0.736474 0
M  V30 5655 H 519.405 0.753472 1.74421 0
M  V30 5656 H 517.555 -0.56992 3.84297 0
M  V30 5657 H 519.227 2.02215 4.14617 0
M  V30 5658 H 517.47 1.96374 3.86807 0
M  V30 5659 H 518.141 1.30553 5.36339 0
M  V30 5660 H 520.617 -0.196446 4.15636 0
M  V30 5661 H 519.493 -0.701921 5.44393 0
M  V30 5662 H 519.754 -1.75101 4.05946 0
M  V30 5663 N 518.813 -1.54241 0.323641 0
M  V30 5664 C 520.059 -2.00867 -0.279323 0
M  V30 5665 C 520.392 -1.21146 -1.5178 0
M  V30 5666 O 519.667 -0.29378 -1.92269 0
M  V30 5667 C 519.95 -3.54837 -0.613387 0
M  V30 5668 C 519.803 -4.45284 0.635803 0
M  V30 5669 C 521.122 -4.16186 -1.43099 0
M  V30 5670 H 518.241 -0.730177 -0.100049 0
M  V30 5671 H 520.883 -1.84829 0.440235 0
M  V30 5672 H 519.033 -3.68634 -1.22641 0
M  V30 5673 H 520.705 -4.43357 1.27406 0
M  V30 5674 H 518.948 -4.14956 1.26466 0
M  V30 5675 H 519.619 -5.5084 0.357597 0
M  V30 5676 H 522.095 -4.05964 -0.912814 0
M  V30 5677 H 520.971 -5.24031 -1.6335 0
M  V30 5678 H 521.232 -3.69516 -2.42715 0
M  V30 5679 N 520.291 -0.0518155 -1.57515 0
M  V30 5680 C 521.241 0.932017 -2.0808 0
M  V30 5681 C 522.225 1.27141 -0.986098 0
M  V30 5682 O 523.417 1.25373 -1.24943 0
M  V30 5683 C 520.546 2.20665 -2.62986 0
M  V30 5684 C 519.632 1.89462 -3.79427 0
M  V30 5685 N 520.023 1.28621 -4.89173 0
M  V30 5686 C 518.321 2.19327 -3.88345 0
M  V30 5687 C 519.022 1.15062 -5.70207 0
M  V30 5688 N 517.998 1.65372 -5.17835 0
M  V30 5689 H 521.8 0.456964 -2.90326 0
M  V30 5690 H 519.314 0.152619 -1.61681 0
M  V30 5691 H 521.311 2.92044 -2.97516 0
M  V30 5692 H 519.971 2.68776 -1.8218 0
M  V30 5693 H 520.982 0.958341 -5.08956 0
M  V30 5694 H 517.659 2.69955 -3.18482 0
M  V30 5695 H 519.049 0.678243 -6.68468 0
M  V30 5696 N 521.769 1.56035 0.221574 0
M  V30 5697 C 522.679 1.95581 1.29558 0
M  V30 5698 C 523.695 0.859639 1.51282 0
M  V30 5699 O 524.871 1.16321 1.64413 0
M  V30 5700 C 521.936 2.26447 2.62531 0
M  V30 5701 C 520.997 3.49632 2.4911 0
M  V30 5702 C 520.23 3.79017 3.75742 0
M  V30 5703 O 520.453 3.10077 4.78757 0
M  V30 5704 O 519.387 4.72507 3.72855 0
M  V30 5705 H 523.213 2.8711 0.990035 0
M  V30 5706 H 520.798 1.43244 0.424434 0
M  V30 5707 H 522.68 2.47494 3.41064 0
M  V30 5708 H 521.355 1.38092 2.92766 0
M  V30 5709 H 520.262 3.33864 1.68777 0
M  V30 5710 H 521.595 4.3837 2.23814 0
M  V30 5711 N 523.247 -0.488276 1.49845 0
M  V30 5712 C 524.493 -1.24341 1.6021 0
M  V30 5713 C 524.826 -1.91967 0.293651 0
M  V30 5714 O 524.101 -1.81323 -0.703718 0
M  V30 5715 C 524.384 -2.3005 2.77036 0
M  V30 5716 C 524.237 -1.66842 4.17713 0
M  V30 5717 C 525.556 -3.31509 2.89464 0
M  V30 5718 H 522.675 -0.450704 0.583125 0
M  V30 5719 H 525.317 -0.539673 1.82174 0
M  V30 5720 H 523.467 -2.90071 2.58439 0
M  V30 5721 H 525.139 -1.1055 4.47858 0
M  V30 5722 H 523.382 -0.972079 4.22768 0
M  V30 5723 H 524.053 -2.43576 4.95353 0
M  V30 5724 H 526.529 -2.81493 3.06433 0
M  V30 5725 H 525.405 -4.02822 3.72861 0
M  V30 5726 H 525.666 -3.94603 1.99351 0
M  V30 5727 N 524.725 -1.39134 -0.740242 0
M  V30 5728 C 525.657 -1.33332 -1.86428 0
M  V30 5729 C 526.67 -0.243042 -1.60976 0
M  V30 5730 O 527.859 -0.501608 -1.71307 0
M  V30 5731 C 524.959 -1.04626 -3.22346 0
M  V30 5732 C 524.132 -2.24826 -3.75196 0
M  V30 5733 C 523.191 -1.92659 -4.89662 0
M  V30 5734 O 522.217 -2.6529 -5.03597 0
M  V30 5735 N 523.419 -0.889575 -5.73643 0
M  V30 5736 H 526.184 -2.30196 -1.91911 0
M  V30 5737 H 523.745 -1.33168 -0.920756 0
M  V30 5738 H 525.737 -0.811347 -3.96484 0
M  V30 5739 H 524.307 -0.165129 -3.12164 0
M  V30 5740 H 523.527 -2.64301 -2.9247 0
M  V30 5741 H 524.815 -3.05015 -4.07239 0
M  V30 5742 H 524.213 -0.287529 -5.64969 0
M  V30 5743 H 522.77 -0.714557 -6.47871 0
M  V30 5744 N 526.204 0.969867 -1.24223 0
M  V30 5745 C 527.62 1.23809 -1.00716 0
M  V30 5746 C 527.82 1.99469 0.285358 0
M  V30 5747 O 526.876 2.31764 1.00207 0
M  V30 5748 C 528.189 2.02734 -2.2208 0
M  V30 5749 C 529.737 2.15834 -2.26681 0
M  V30 5750 C 530.212 2.98154 -3.47661 0
M  V30 5751 N 531.703 3.05737 -3.47964 0
M  V30 5752 C 532.438 3.69785 -4.38231 0
M  V30 5753 N 531.934 4.35569 -5.3875 0
M  V30 5754 N 533.727 3.66775 -4.25949 0
M  V30 5755 H 525.878 0.463294 -2.07286 0
M  V30 5756 H 528.141 0.267348 -0.909521 0
M  V30 5757 H 527.847 1.54524 -3.15935 0
M  V30 5758 H 527.721 3.0347 -2.24021 0
M  V30 5759 H 530.108 2.63248 -1.33359 0
M  V30 5760 H 530.189 1.14453 -2.28767 0
M  V30 5761 H 529.833 2.51435 -4.41297 0
M  V30 5762 H 529.763 3.99729 -3.42818 0
M  V30 5763 H 532.254 2.58941 -2.75242 0
M  V30 5764 H 532.567 4.82251 -6.03866 0
M  V30 5765 H 530.912 4.34244 -5.42639 0
M  V30 5766 H 534.103 3.14558 -3.46657 0
M  V30 5767 H 534.276 4.16407 -4.96497 0
M  V30 5768 N 527.682 1.05563 1.17022 0
M  V30 5769 C 528.912 0.787307 1.91011 0
M  V30 5770 C 529.32 -0.661256 1.77268 0
M  V30 5771 O 528.663 -1.46379 1.10991 0
M  V30 5772 C 528.725 1.09313 3.42478 0
M  V30 5773 C 528.389 2.53863 3.80004 0
M  V30 5774 C 529.386 3.52081 3.82538 0
M  V30 5775 C 527.071 2.88969 4.10855 0
M  V30 5776 C 529.065 4.83449 4.15399 0
M  V30 5777 C 526.752 4.2054 4.43384 0
M  V30 5778 C 527.75 5.17589 4.45635 0
M  V30 5779 O 527.438 6.46799 4.77395 0
M  V30 5780 H 527.17 0.285463 0.61277 0
M  V30 5781 H 529.724 1.41051 1.49311 0
M  V30 5782 H 527.954 0.412833 3.8449 0
M  V30 5783 H 529.643 0.810224 3.97731 0
M  V30 5784 H 530.409 3.26299 3.58823 0
M  V30 5785 H 526.288 2.1409 4.08272 0
M  V30 5786 H 529.832 5.59194 4.1707 0
M  V30 5787 H 525.729 4.46083 4.66563 0
M  V30 5788 H 526.497 6.51677 4.95237 0
M  V30 5789 N 529.16 -1.33526 0.837174 0
M  V30 5790 C 530.409 -1.97098 0.428387 0
M  V30 5791 C 530.722 -1.67062 -1.01734 0
M  V30 5792 O 531.928 -2.24235 -1.53072 0
M  V30 5793 C 530.384 -3.52725 0.715075 0
M  V30 5794 C 529.992 -3.9164 2.17537 0
M  V30 5795 C 531.736 -4.22857 0.373154 0
M  V30 5796 C 529.643 -5.40237 2.40619 0
M  V30 5797 H 528.573 -0.737589 0.156455 0
M  V30 5798 H 531.224 -1.52169 1.02552 0
M  V30 5799 H 529.606 -3.95971 0.0475904 0
M  V30 5800 H 530.78 -3.59456 2.88319 0
M  V30 5801 H 529.095 -3.34485 2.4801 0
M  V30 5802 H 531.692 -5.32133 0.523264 0
M  V30 5803 H 532.035 -4.10647 -0.683708 0
M  V30 5804 H 532.568 -3.85135 0.995801 0
M  V30 5805 H 529.307 -5.57449 3.44864 0
M  V30 5806 H 528.827 -5.73887 1.74396 0
M  V30 5807 H 530.506 -6.07102 2.23688 0
M  V30 5808 N 530.638 -0.59345 -1.46 0
M  V30 5809 C 531.915 -0.0157933 -1.95594 0
M  V30 5810 C 532.295 1.44807 -1.53604 0
M  V30 5811 O 531.643 2.14342 -0.791824 0
M  V30 5812 C 531.853 -0.199081 -3.48432 0
M  V30 5813 C 533.201 -0.0724943 -4.24538 0
M  V30 5814 O 534.225 -0.128469 -3.55968 0
M  V30 5815 O 533.084 0.0542426 -5.46473 0
M  V30 5816 H 530.178 0.043749 -0.825842 0
M  V30 5817 H 532.724 -0.662522 -1.56233 0
M  V30 5818 H 531.496 -1.21631 -3.71916 0
M  V30 5819 H 531.119 0.483576 -3.94648 0
M  V30 5820 N 532.116 1.54067 -0.331816 0
M  V30 5821 C 533.046 2.27569 0.522932 0
M  V30 5822 C 534.027 1.28679 1.11247 0
M  V30 5823 O 535.212 1.57504 1.13605 0
M  V30 5824 C 532.342 3.0397 1.67987 0
M  V30 5825 C 531.296 4.10267 1.21924 0
M  V30 5826 C 530.622 4.74555 2.46377 0
M  V30 5827 C 531.922 5.21268 0.32815 0
M  V30 5828 H 533.616 2.99264 -0.0901977 0
M  V30 5829 H 531.162 1.4393 -0.044821 0
M  V30 5830 H 533.115 3.54123 2.28418 0
M  V30 5831 H 531.839 2.29906 2.31971 0
M  V30 5832 H 530.498 3.61009 0.637809 0
M  V30 5833 H 530.146 3.97098 3.08743 0
M  V30 5834 H 529.846 5.46363 2.16243 0
M  V30 5835 H 531.37 5.27487 3.07555 0
M  V30 5836 H 532.784 5.67128 0.838978 0
M  V30 5837 H 531.181 5.99982 0.119228 0
M  V30 5838 H 532.251 4.80673 -0.638839 0
M  V30 5839 N 533.594 0.0601682 1.57485 0
M  V30 5840 C 534.524 -0.90889 2.15085 0
M  V30 5841 C 535.505 -1.31838 1.07484 0
M  V30 5842 O 536.69 -1.3915 1.35466 0
M  V30 5843 C 533.82 -2.18059 2.7031 0
M  V30 5844 C 532.774 -1.91088 3.82974 0
M  V30 5845 C 532.1 -3.24789 4.24754 0
M  V30 5846 C 533.4 -1.22535 5.07723 0
M  V30 5847 H 535.094 -0.429093 2.96309 0
M  V30 5848 H 532.64 -0.204952 1.42534 0
M  V30 5849 H 534.593 -2.86258 3.09248 0
M  V30 5850 H 533.317 -2.6826 1.8629 0
M  V30 5851 H 531.976 -1.25297 3.44523 0
M  V30 5852 H 531.624 -3.72809 3.37672 0
M  V30 5853 H 531.324 -3.07538 5.00694 0
M  V30 5854 H 532.848 -3.94205 4.66299 0
M  V30 5855 H 534.262 -1.80783 5.4405 0
M  V30 5856 H 532.659 -1.1558 5.88864 0
M  V30 5857 H 533.729 -0.202692 4.84476 0
M  V30 5858 N 535.072 -1.5615 -0.213296 0
M  V30 5859 C 536.483 -1.69645 -0.779582 0
M  V30 5860 C 536.834 -0.663615 -1.84636 0
M  V30 5861 O 535.959 0.183633 -2.15619 0
M  V30 5862 C 536.554 -3.07567 -1.42084 0
M  V30 5863 C 535.113 -3.22889 -1.93442 0
M  V30 5864 C 534.26 -2.65581 -0.797612 0
M  V30 5865 H 537.211 -1.58696 0.0114951 0
M  V30 5866 H 537.232 -3.03884 -2.28986 0
M  V30 5867 H 536.744 -3.82716 -0.644187 0
M  V30 5868 H 534.845 -2.52623 -2.73884 0
M  V30 5869 H 534.958 -4.30197 -2.10872 0
M  V30 5870 H 533.322 -2.24278 -1.20712 0
M  V30 5871 H 534.105 -3.43284 -0.033494 0
M  V30 5872 N 536.55 0.480323 -1.50102 0
M  V30 5873 C 537.778 1.25657 -1.64371 0
M  V30 5874 C 538.193 1.86011 -0.323316 0
M  V30 5875 O 537.55 1.68803 0.693682 0
M  V30 5876 C 537.601 2.37197 -2.728 0
M  V30 5877 O 537.322 1.7932 -3.9972 0
M  V30 5878 C 538.823 3.2823 -2.9796 0
M  V30 5879 H 536.043 0.380369 -0.552775 0
M  V30 5880 H 538.587 0.574379 -1.96268 0
M  V30 5881 H 536.742 3.01208 -2.43623 0
M  V30 5882 H 537.156 2.52701 -4.59611 0
M  V30 5883 H 538.63 4.02725 -3.77513 0
M  V30 5884 H 539.107 3.86462 -2.08671 0
M  V30 5885 H 539.713 2.69964 -3.28633 0
M  V30 5886 N 538.028 1.39524 0.732853 0
M  V30 5887 C 539.253 1.40329 1.52717 0
M  V30 5888 C 539.678 0.000286574 1.881 0
M  V30 5889 O 539.036 -0.987262 1.52062 0
M  V30 5890 C 539.084 2.28464 2.78992 0
M  V30 5891 O 538.188 1.716 3.75003 0
M  V30 5892 H 537.529 0.47778 0.461109 0
M  V30 5893 H 540.059 1.83546 0.903996 0
M  V30 5894 H 540.069 2.43051 3.27705 0
M  V30 5895 H 538.744 3.30425 2.52572 0
M  V30 5896 H 537.321 1.66267 3.33781 0
M  V30 5897 N 539.506 -0.963266 1.24736 0
M  V30 5898 C 540.436 -2.07628 1.06832 0
M  V30 5899 C 541.417 -1.70088 -0.0200566 0
M  V30 5900 O 542.602 -1.93636 0.147854 0
M  V30 5901 C 539.732 -3.40636 0.677069 0
M  V30 5902 C 538.686 -3.9215 1.71471 0
M  V30 5903 C 538.012 -5.21553 1.1784 0
M  V30 5904 C 539.312 -4.19493 3.11164 0
M  V30 5905 H 541.006 -2.22864 1.9993 0
M  V30 5906 H 538.552 -1.07093 0.96266 0
M  V30 5907 H 540.505 -4.17941 0.538792 0
M  V30 5908 H 539.229 -3.25313 -0.289612 0
M  V30 5909 H 537.888 -3.17005 1.84128 0
M  V30 5910 H 537.536 -5.02593 0.202195 0
M  V30 5911 H 537.236 -5.56988 1.87185 0
M  V30 5912 H 538.76 -6.01463 1.05233 0
M  V30 5913 H 540.174 -4.87487 3.01711 0
M  V30 5914 H 538.571 -4.66165 3.77902 0
M  V30 5915 H 539.641 -3.26097 3.58871 0
M  V30 5916 N 540.985 -1.06182 -1.16461 0
M  V30 5917 C 542.396 -0.802426 -1.68576 0
M  V30 5918 C 542.747 0.67412 -1.84255 0
M  V30 5919 O 541.872 1.52303 -1.5373 0
M  V30 5920 C 542.467 -1.45002 -3.06202 0
M  V30 5921 C 541.026 -1.23843 -3.55443 0
M  V30 5922 C 540.173 -1.52724 -2.31454 0
M  V30 5923 H 543.124 -1.22545 -1.00839 0
M  V30 5924 H 543.145 -0.864731 -3.70544 0
M  V30 5925 H 542.657 -2.52466 -2.94759 0
M  V30 5926 H 540.758 -0.183487 -3.72148 0
M  V30 5927 H 540.871 -1.95036 -4.37604 0
M  V30 5928 H 539.235 -0.947726 -2.36411 0
M  V30 5929 H 540.018 -2.61343 -2.22609 0
M  V30 5930 N 542.463 1.3308 -0.844243 0
M  V30 5931 C 543.413 2.26589 -0.253289 0
M  V30 5932 C 544.397 1.49501 0.594836 0
M  V30 5933 O 545.589 1.71291 0.445924 0
M  V30 5934 C 542.718 3.38599 0.566176 0
M  V30 5935 C 541.804 4.23081 -0.293756 0
M  V30 5936 N 542.195 4.86751 -1.37505 0
M  V30 5937 C 540.493 4.45925 -0.0817086 0
M  V30 5938 C 541.194 5.49684 -1.90323 0
M  V30 5939 N 540.17 5.30101 -1.20391 0
M  V30 5940 H 543.972 2.73334 -1.08009 0
M  V30 5941 H 541.486 1.47048 -0.689258 0
M  V30 5942 H 543.483 4.04584 1.00587 0
M  V30 5943 H 542.143 2.93401 1.39089 0
M  V30 5944 H 543.154 4.87151 -1.75796 0
M  V30 5945 H 539.831 4.11434 0.709129 0
M  V30 5946 H 541.221 6.10363 -2.80902 0
M  V30 5947 N 543.941 0.601185 1.45683 0
M  V30 5948 C 544.904 -0.111398 2.28929 0
M  V30 5949 C 545.904 -0.801246 1.39416 0
M  V30 5950 O 547.094 -0.650383 1.61603 0
M  V30 5951 C 544.226 -1.16773 3.20276 0
M  V30 5952 H 545.419 0.620412 2.93413 0
M  V30 5953 H 542.972 0.359946 1.52099 0
M  V30 5954 H 543.707 -1.93051 2.60579 0
M  V30 5955 H 543.492 -0.677358 3.86205 0
M  V30 5956 H 544.982 -1.66698 3.82886 0
M  V30 5957 N 545.419 -1.53889 0.339982 0
M  V30 5958 C 546.665 -2.01152 -0.258003 0
M  V30 5959 C 546.998 -1.22749 -1.50487 0
M  V30 5960 O 546.273 -0.314156 -1.91946 0
M  V30 5961 C 546.556 -3.55468 -0.575717 0
M  V30 5962 C 546.409 -4.44584 0.682996 0
M  V30 5963 C 547.728 -4.1768 -1.38677 0
M  V30 5964 H 544.847 -0.731198 -0.0922992 0
M  V30 5965 H 547.489 -1.84352 0.459814 0
M  V30 5966 H 545.639 -3.69914 -1.18725 0
M  V30 5967 H 547.311 -4.41981 1.32102 0
M  V30 5968 H 545.554 -4.13592 1.3086 0
M  V30 5969 H 546.225 -5.5043 0.416001 0
M  V30 5970 H 548.701 -4.0691 -0.869705 0
M  V30 5971 H 547.577 -5.25734 -1.57783 0
M  V30 5972 H 547.838 -3.72069 -2.38782 0
M  V30 5973 N 546.897 -0.0685191 -1.57451 0
M  V30 5974 C 548.125 0.610462 -1.97689 0
M  V30 5975 C 548.54 1.63346 -0.946758 0
M  V30 5976 O 547.897 1.82377 0.0669868 0
M  V30 5977 C 547.948 1.28196 -3.38006 0
M  V30 5978 O 547.669 0.299906 -4.37072 0
M  V30 5979 C 549.17 2.04907 -3.931 0
M  V30 5980 H 546.39 0.165689 -0.650222 0
M  V30 5981 H 548.934 -0.139953 -2.04021 0
M  V30 5982 H 547.089 1.98348 -3.32771 0
M  V30 5983 H 547.503 0.78126 -5.18649 0
M  V30 5984 H 548.977 2.47287 -4.93511 0
M  V30 5985 H 549.454 2.9043 -3.29465 0
M  V30 5986 H 550.06 1.39629 -4.01726 0
M  V30 5987 N 548.375 1.56261 0.205012 0
M  V30 5988 C 549.615 1.81823 0.933806 0
M  V30 5989 C 549.979 0.644534 1.80858 0
M  V30 5990 O 551.18 0.779819 2.5724 0
M  V30 5991 C 549.451 3.12362 1.7368 0
M  V30 5992 S 551.01 3.59296 2.51897 0
M  V30 5993 H 547.828 0.638209 0.313386 0
M  V30 5994 H 550.43 1.94495 0.198001 0
M  V30 5995 H 549.134 3.95809 1.08459 0
M  V30 5996 H 548.665 3.02542 2.5146 0
M  V30 5997 H 550.68 3.23945 3.75864 0
M  V30 5998 N 549.853 -0.472356 1.50355 0
M  V30 5999 C 551.13 -1.23356 1.51798 0
M  V30 6000 C 551.51 -2.09469 0.26193 0
M  V30 6001 O 550.858 -2.15677 -0.754691 0
M  V30 6002 C 551.068 -2.06568 2.81302 0
M  V30 6003 C 552.416 -2.648 3.31913 0
M  V30 6004 O 553.44 -2.16812 2.82614 0
M  V30 6005 O 552.299 -3.52231 4.17846 0
M  V30 6006 H 549.393 -0.559707 0.608816 0
M  V30 6007 H 551.939 -0.48428 1.62643 0
M  V30 6008 H 550.711 -1.43103 3.64194 0
M  V30 6009 H 550.334 -2.88633 2.73454 0
M  V30 6010 N 551.331 -1.39911 -0.725443 0
M  V30 6011 C 552.58 -1.36963 -1.48068 0
M  V30 6012 C 552.893 0.0284478 -1.95579 0
M  V30 6013 O 554.099 0.180535 -2.70899 0
M  V30 6014 C 552.555 -2.40664 -2.67598 0
M  V30 6015 C 552.163 -3.86234 -2.26997 0
M  V30 6016 C 553.907 -2.46807 -3.45379 0
M  V30 6017 C 551.814 -4.81554 -3.43307 0
M  V30 6018 H 550.744 -0.509223 -0.556065 0
M  V30 6019 H 553.395 -1.65602 -0.790454 0
M  V30 6020 H 551.777 -2.05109 -3.38742 0
M  V30 6021 H 552.951 -4.3088 -1.63337 0
M  V30 6022 H 551.266 -3.83475 -1.62284 0
M  V30 6023 H 553.863 -3.15213 -4.31909 0
M  V30 6024 H 554.206 -1.49552 -3.8851 0
M  V30 6025 H 554.739 -2.81303 -2.81271 0
M  V30 6026 H 551.478 -5.80106 -3.05217 0
M  V30 6027 H 550.998 -4.4158 -4.05915 0
M  V30 6028 H 552.677 -5.0091 -4.0951 0
M  V30 6029 N 552.809 0.956637 -1.25245 0
M  V30 6030 C 553.756 2.053 -1.05454 0
M  V30 6031 C 554.726 1.66062 0.0356889 0
M  V30 6032 O 555.911 1.90415 -0.121099 0
M  V30 6033 C 553.051 3.38391 -0.677191 0
M  V30 6034 C 552.164 3.90758 -1.84206 0
M  V30 6035 C 551.299 5.12165 -1.40926 0
M  V30 6036 C 550.338 5.56757 -2.54338 0
M  V30 6037 N 549.475 6.69376 -2.11848 0
M  V30 6038 H 554.315 2.21562 -1.99284 0
M  V30 6039 H 551.852 1.08578 -0.992434 0
M  V30 6040 H 553.81 4.1488 -0.43938 0
M  V30 6041 H 552.44 3.22021 0.224127 0
M  V30 6042 H 551.492 3.10808 -2.19323 0
M  V30 6043 H 552.804 4.19802 -2.69383 0
M  V30 6044 H 551.958 5.96065 -1.13098 0
M  V30 6045 H 550.697 4.84832 -0.528175 0
M  V30 6046 H 549.702 4.71423 -2.82913 0
M  V30 6047 H 550.927 5.861 -3.43022 0
M  V30 6048 H 548.873 6.43756 -1.26153 0
M  V30 6049 H 548.79 6.97927 -2.90574 0
M  V30 6050 H 550.058 7.5669 -1.87191 0
M  V30 6051 N 554.287 1.06798 1.15896 0
M  V30 6052 C 555.534 0.787767 1.86549 0
M  V30 6053 C 555.862 -0.685959 1.82002 0
M  V30 6054 O 555.117 -1.5188 1.23414 0
M  V30 6055 C 555.416 1.23414 3.35416 0
M  V30 6056 C 555.082 2.71285 3.6016 0
M  V30 6057 C 553.744 3.11676 3.66622 0
M  V30 6058 C 556.096 3.6676 3.7032 0
M  V30 6059 C 553.424 4.4637 3.8075 0
M  V30 6060 C 555.776 5.01209 3.8597 0
M  V30 6061 C 554.44 5.41229 3.90676 0
M  V30 6062 H 553.71 0.288264 0.682631 0
M  V30 6063 H 556.357 1.338 1.37003 0
M  V30 6064 H 554.662 0.60319 3.87129 0
M  V30 6065 H 556.359 0.994298 3.88477 0
M  V30 6066 H 552.949 2.39015 3.55767 0
M  V30 6067 H 557.133 3.36685 3.64633 0
M  V30 6068 H 552.389 4.76855 3.82648 0
M  V30 6069 H 556.563 5.75067 3.92773 0
M  V30 6070 H 554.19 6.45602 4.01375 0
M  V30 6071 N 555.766 -1.3263 0.851289 0
M  V30 6072 C 557.182 -1.50162 0.5407 0
M  V30 6073 C 557.382 -1.78788 -0.929369 0
M  V30 6074 O 556.438 -1.85545 -1.71258 0
M  V30 6075 C 557.751 -2.64803 1.42478 0
M  V30 6076 C 559.299 -2.78688 1.42485 0
M  V30 6077 C 559.774 -3.96405 2.29407 0
M  V30 6078 N 561.265 -4.0366 2.27184 0
M  V30 6079 C 562 -4.93971 2.9117 0
M  V30 6080 N 561.496 -5.89313 3.64256 0
M  V30 6081 N 563.289 -4.87066 2.80576 0
M  V30 6082 H 555.44 -1.12315 1.80275 0
M  V30 6083 H 557.703 -0.553266 0.769806 0
M  V30 6084 H 557.409 -2.50368 2.46999 0
M  V30 6085 H 557.283 -3.60506 1.10974 0
M  V30 6086 H 559.67 -2.92547 0.387304 0
M  V30 6087 H 559.751 -1.83708 1.78002 0
M  V30 6088 H 559.395 -3.83304 3.33228 0
M  V30 6089 H 559.325 -4.90654 1.91224 0
M  V30 6090 H 561.816 -3.35435 1.74045 0
M  V30 6091 H 562.129 -6.54913 4.10255 0
M  V30 6092 H 560.474 -5.8935 3.68364 0
M  V30 6093 H 563.665 -4.11552 2.23031 0
M  V30 6094 H 563.838 -5.57248 3.30725 0
M  V30 6095 N 557.244 -0.608902 -1.45362 0
M  V30 6096 C 558.192 0.121639 -2.32282 0
M  V30 6097 C 559.186 0.858301 -1.46046 0
M  V30 6098 O 560.392 0.773718 -1.62523 0
M  V30 6099 H 556.767 0.058086 -0.749753 0
M  V30 6100 H 558.738 -0.629866 -2.91677 0
M  V30 6101 C 557.487 1.1047 -3.29684 0
M  V30 6102 H 556.81 0.547278 -3.96036 0
M  V30 6103 H 558.25 1.58576 -3.9323 0
M  V30 6104 C 556.709 2.17891 -2.56954 0
M  V30 6105 O 557.239 3.25652 -2.35189 0
M  V30 6106 N 555.445 1.93211 -2.17066 0
M  V30 6107 H 554.992 1.05584 -2.34967 0
M  V30 6108 H 554.95 2.6529 -1.68727 0
M  V30 6109 N 558.722 1.53707 -0.348139 0
M  V30 6110 C 559.952 2.05108 0.247864 0
M  V30 6111 C 560.36 1.22252 1.44399 0
M  V30 6112 O 559.703 0.251853 1.81965 0
M  V30 6113 C 559.765 3.52171 0.722187 0
M  V30 6114 C 559.429 4.5562 -0.354902 0
M  V30 6115 C 560.426 5.05883 -1.19911 0
M  V30 6116 C 558.111 4.99703 -0.510145 0
M  V30 6117 C 560.105 5.98814 -2.18406 0
M  V30 6118 C 557.792 5.92443 -1.49848 0
M  V30 6119 C 558.79 6.41887 -2.33389 0
M  V30 6120 O 558.478 7.32802 -3.3054 0
M  V30 6121 H 558.21 0.674086 0.0508296 0
M  V30 6122 H 560.764 1.99229 -0.49968 0
M  V30 6123 H 558.994 3.55529 1.52105 0
M  V30 6124 H 560.683 3.8652 1.23925 0
M  V30 6125 H 561.449 4.72586 -1.09028 0
M  V30 6126 H 557.328 4.60816 0.130274 0
M  V30 6127 H 560.872 6.3733 -2.83649 0
M  V30 6128 H 556.769 6.25155 -1.60786 0
M  V30 6129 H 557.537 7.50749 -3.26064 0
M  V30 6130 N 560.2 0.0768682 1.57412 0
M  V30 6131 C 561.13 -0.886026 2.16037 0
M  V30 6132 C 562.111 -1.30691 1.08876 0
M  V30 6133 O 563.296 -1.37705 1.36934 0
M  V30 6134 C 560.426 -2.1518 2.72608 0
M  V30 6135 C 559.38 -1.87015 3.8498 0
M  V30 6136 C 558.706 -3.20266 4.28175 0
M  V30 6137 C 560.006 -1.17143 5.08994 0
M  V30 6138 H 561.7 -0.397642 2.96748 0
M  V30 6139 H 559.246 -0.189823 1.42743 0
M  V30 6140 H 561.199 -2.82962 3.12266 0
M  V30 6141 H 559.923 -2.66269 1.89125 0
M  V30 6142 H 558.582 -1.21636 3.45833 0
M  V30 6143 H 558.23 -3.69207 3.41607 0
M  V30 6144 H 557.93 -3.0221 5.03927 0
M  V30 6145 H 559.454 -3.89237 4.70454 0
M  V30 6146 H 560.868 -1.75003 5.45937 0
M  V30 6147 H 559.265 -1.09328 5.90057 0
M  V30 6148 H 560.335 -0.151295 4.84664 0
M  V30 6149 N 561.678 -1.56367 -0.196722 0
M  V30 6150 C 562.927 -1.79724 -0.915539 0
M  V30 6151 C 563.24 -0.649804 -1.84491 0
M  V30 6152 O 564.446 -0.767631 -2.60422 0
M  V30 6153 C 562.902 -3.18369 -1.67836 0
M  V30 6154 C 562.51 -4.4091 -0.793897 0
M  V30 6155 C 564.254 -3.51037 -2.38691 0
M  V30 6156 C 562.161 -5.70577 -1.55549 0
M  V30 6157 H 561.091 -0.67013 -0.345604 0
M  V30 6158 H 563.742 -1.82721 -0.168856 0
M  V30 6159 H 562.124 -3.09617 -2.46887 0
M  V30 6160 H 563.298 -4.60781 -0.042163 0
M  V30 6161 H 561.613 -4.15937 -0.19626 0
M  V30 6162 H 564.21 -4.4515 -2.96219 0
M  V30 6163 H 564.553 -2.74704 -3.12799 0
M  V30 6164 H 565.086 -3.61229 -1.66608 0
M  V30 6165 H 561.825 -6.49871 -0.857226 0
M  V30 6166 H 561.345 -5.54726 -2.2812 0
M  V30 6167 H 563.024 -6.11637 -2.10971 0
M  V30 6168 N 563.156 0.464375 -1.50603 0
M  V30 6169 C 564.567 1.04507 -1.5471 0
M  V30 6170 C 564.918 1.9297 -0.354542 0
M  V30 6171 O 564.043 2.09763 0.531812 0
M  V30 6172 C 564.638 1.90207 -2.80369 0
M  V30 6173 C 563.197 2.43373 -2.87135 0
M  V30 6174 C 562.344 1.21886 -2.49076 0
M  V30 6175 H 565.295 0.246716 -1.56771 0
M  V30 6176 H 565.316 2.75353 -2.62604 0
M  V30 6177 H 564.828 1.25796 -3.67147 0
M  V30 6178 H 562.929 3.11318 -2.04724 0
M  V30 6179 H 563.042 2.7802 -3.90181 0
M  V30 6180 H 561.406 1.55575 -2.01664 0
M  V30 6181 H 562.189 0.591268 -3.3817 0
M  V30 6182 N 564.634 1.40294 0.718013 0
M  V30 6183 C 565.581 1.40367 1.8321 0
M  V30 6184 C 566.551 0.260952 1.64037 0
M  V30 6185 O 567.736 0.458648 1.85205 0
M  V30 6186 C 564.876 1.26965 3.20895 0
M  V30 6187 C 563.989 2.50922 3.51656 0
M  V30 6188 C 563.124 2.29981 4.78834 0
M  V30 6189 C 562.163 3.49527 5.02491 0
M  V30 6190 N 561.3 3.27796 6.20882 0
M  V30 6191 H 566.14 2.35593 1.82482 0
M  V30 6192 H 563.677 1.17012 0.891444 0
M  V30 6193 H 565.635 1.17202 4.00399 0
M  V30 6194 H 564.265 0.353591 3.20858 0
M  V30 6195 H 563.317 2.71223 2.66725 0
M  V30 6196 H 564.629 3.39913 3.65048 0
M  V30 6197 H 563.783 2.17558 5.66351 0
M  V30 6198 H 562.522 1.38411 4.67647 0
M  V30 6199 H 561.527 3.6243 4.1343 0
M  V30 6200 H 562.752 4.42021 5.15553 0
M  V30 6201 H 560.698 2.38906 6.1095 0
M  V30 6202 H 560.615 4.10351 6.34939 0
M  V30 6203 H 561.883 3.19101 7.11193 0
M  V30 6204 N 566.112 -0.949982 1.2575 0
M  V30 6205 C 567.36 -1.6918 1.10555 0
M  V30 6206 C 567.681 -1.91773 -0.353298 0
M  V30 6207 O 566.951 -1.50814 -1.25027 0
M  V30 6208 H 565.531 -0.626952 0.406129 0
M  V30 6209 H 568.193 -1.1419 1.57945 0
M  V30 6210 H 567.289 -2.66915 1.61749 0
M  V30 6211 N 567.59 -1.07411 -1.15328 0
M  V30 6212 C 568.818 -0.818782 -1.90009 0
M  V30 6213 C 569.233 0.628072 -1.78047 0
M  V30 6214 O 568.59 1.43085 -1.13282 0
M  V30 6215 C 568.641 -1.21874 -3.40337 0
M  V30 6216 O 568.362 -2.60883 -3.51954 0
M  V30 6217 C 569.863 -0.992796 -4.3204 0
M  V30 6218 H 567.083 -0.296007 -0.60218 0
M  V30 6219 H 569.627 -1.43073 -1.46117 0
M  V30 6220 H 567.782 -0.651103 -3.81889 0
M  V30 6221 H 568.196 -2.77216 -4.45255 0
M  V30 6222 H 569.67 -1.32215 -5.35932 0
M  V30 6223 H 570.147 0.0708331 -4.39143 0
M  V30 6224 H 570.753 -1.54537 -3.9623 0
M  V30 6225 N 569.068 1.32177 -0.85831 0
M  V30 6226 C 570.296 2.01313 -0.477582 0
M  V30 6227 C 570.711 1.6449 0.926736 0
M  V30 6228 O 570.068 0.868096 1.60531 0
M  V30 6229 C 570.119 3.56293 -0.611337 0
M  V30 6230 O 569.84 3.91794 -1.96034 0
M  V30 6231 C 571.341 4.42702 -0.230093 0
M  V30 6232 H 568.561 0.644323 -0.187322 0
M  V30 6233 H 571.105 1.68674 -1.15626 0
M  V30 6234 H 569.26 3.87395 0.0196494 0
M  V30 6235 H 569.674 4.86513 -1.95973 0
M  V30 6236 H 571.148 5.50727 -0.374674 0
M  V30 6237 H 571.625 4.3129 0.829779 0
M  V30 6238 H 572.231 4.16997 -0.836302 0
M  V30 6239 N 570.547 0.616602 1.45037 0
M  V30 6240 C 571.796 0.112861 2.01384 0
M  V30 6241 C 572.109 -1.26758 1.48969 0
M  V30 6242 O 573.315 -1.86454 1.9735 0
M  V30 6243 C 571.771 0.151057 3.59583 0
M  V30 6244 C 571.379 1.53191 4.20995 0
M  V30 6245 C 573.123 -0.296974 4.2346 0
M  V30 6246 C 571.03 1.526 5.71373 0
M  V30 6247 H 569.96 0.0384254 0.75302 0
M  V30 6248 H 572.611 0.773262 1.66412 0
M  V30 6249 H 570.993 -0.57617 3.91786 0
M  V30 6250 H 572.167 2.28156 4.00352 0
M  V30 6251 H 570.482 1.92279 3.69348 0
M  V30 6252 H 573.079 -0.320712 5.33737 0
M  V30 6253 H 573.422 -1.32145 3.9477 0
M  V30 6254 H 573.955 0.377279 3.96007 0
M  V30 6255 H 570.694 2.52837 6.04776 0
M  V30 6256 H 570.214 0.819064 5.94181 0
M  V30 6257 H 571.893 1.25357 6.3474 0
M  V30 6258 N 572.025 -1.5352 0.356285 0
M  V30 6259 C 572.955 -2.28372 -0.486661 0
M  V30 6260 C 573.936 -1.30432 -1.09185 0
M  V30 6261 O 575.121 -1.59291 -1.11085 0
M  V30 6262 C 572.251 -3.06604 -1.63129 0
M  V30 6263 C 571.205 -4.12154 -1.15381 0
M  V30 6264 C 570.531 -4.78415 -2.38796 0
M  V30 6265 C 571.831 -5.21724 -0.245179 0
M  V30 6266 H 573.525 -2.99083 0.137797 0
M  V30 6267 H 571.071 -1.43841 0.0677134 0
M  V30 6268 H 573.024 -3.57712 -2.22755 0
M  V30 6269 H 571.748 -2.33568 -2.28284 0
M  V30 6270 H 570.407 -3.61978 -0.580294 0
M  V30 6271 H 570.055 -4.01959 -3.02387 0
M  V30 6272 H 569.755 -5.49734 -2.07524 0
M  V30 6273 H 571.279 -5.32313 -2.99125 0
M  V30 6274 H 572.693 -5.68391 -0.748646 0
M  V30 6275 H 571.09 -6.00095 -0.0237608 0
M  V30 6276 H 572.16 -4.79596 0.715229 0
M  V30 6277 N 573.503 -0.0852151 -1.57369 0
M  V30 6278 C 574.752 0.580443 -1.93168 0
M  V30 6279 C 575.065 1.6995 -0.968319 0
M  V30 6280 O 576.271 2.42564 -1.21963 0
M  V30 6281 C 574.727 1.08386 -3.43192 0
M  V30 6282 C 574.335 -0.00491388 -4.48 0
M  V30 6283 C 576.079 1.72281 -3.87968 0
M  V30 6284 C 573.986 0.513299 -5.89168 0
M  V30 6285 H 572.916 0.22059 -0.72101 0
M  V30 6286 H 575.567 -0.159621 -1.82804 0
M  V30 6287 H 573.949 1.8773 -3.48674 0
M  V30 6288 H 575.123 -0.780032 -4.5415 0
M  V30 6289 H 573.438 -0.548453 -4.12772 0
M  V30 6290 H 576.035 2.12108 -4.9083 0
M  V30 6291 H 576.378 2.58811 -3.26071 0
M  V30 6292 H 576.911 0.995359 -3.85146 0
M  V30 6293 H 573.65 -0.315153 -6.54742 0
M  V30 6294 H 573.17 1.25564 -5.8651 0
M  V30 6295 H 574.849 0.985433 -6.39451 0
M  V30 6296 N 574.981 1.5647 0.188427 0
M  V30 6297 C 576.206 1.85486 0.927891 0
M  V30 6298 C 576.631 0.669575 1.75779 0
M  V30 6299 O 575.989 -0.381573 1.77239 0
M  V30 6300 C 576.037 3.12784 1.7944 0
M  V30 6301 O 575.141 2.93805 2.894 0
M  V30 6302 H 574.482 0.610585 0.260925 0
M  V30 6303 H 577.012 2.037 0.191729 0
M  V30 6304 H 577.022 3.43749 2.19774 0
M  V30 6305 H 575.697 3.98671 1.18468 0
M  V30 6306 H 574.274 2.74153 2.52774 0
M  V30 6307 N 576.459 -0.456382 1.50847 0
M  V30 6308 C 577.389 -1.56025 1.73719 0
M  V30 6309 C 578.37 -1.5967 0.586473 0
M  V30 6310 O 579.555 -1.75702 0.827185 0
M  V30 6311 C 576.685 -2.94251 1.84483 0
M  V30 6312 C 575.639 -3.05471 2.99786 0
M  V30 6313 C 574.965 -4.45489 2.95709 0
M  V30 6314 C 576.265 -2.81318 4.40065 0
M  V30 6315 H 577.959 -1.37138 2.66146 0
M  V30 6316 H 575.505 -0.658299 1.28072 0
M  V30 6317 H 577.458 -3.71417 1.99067 0
M  V30 6318 H 576.182 -3.14328 0.886891 0
M  V30 6319 H 574.841 -2.30741 2.84876 0
M  V30 6320 H 574.489 -4.62505 1.97732 0
M  V30 6321 H 574.189 -4.53929 3.73125 0
M  V30 6322 H 575.713 -5.24655 3.12362 0
M  V30 6323 H 577.127 -3.48226 4.55425 0
M  V30 6324 H 575.524 -3.01188 5.19043 0
M  V30 6325 H 576.594 -1.7706 4.51418 0
M  V30 6326 N 577.937 -1.40673 -0.710563 0
M  V30 6327 C 579.165 -1.42547 -1.4996 0
M  V30 6328 C 579.58 -0.0265485 -1.88781 0
M  V30 6329 O 578.937 0.950694 -1.55782 0
M  V30 6330 C 578.988 -2.32071 -2.77173 0
M  V30 6331 O 578.709 -3.66518 -2.39992 0
M  V30 6332 C 580.21 -2.42591 -3.71032 0
M  V30 6333 H 577.43 -0.486025 -0.462623 0
M  V30 6334 H 579.974 -1.84783 -0.876102 0
M  V30 6335 H 578.129 -1.93184 -3.35795 0
M  V30 6336 H 578.543 -4.14115 -3.21884 0
M  V30 6337 H 580.017 -3.09429 -4.57119 0
M  V30 6338 H 580.494 -1.4525 -4.14486 0
M  V30 6339 H 581.1 -2.82051 -3.18319 0
M  V30 6340 N 579.415 0.9433 -1.26252 0
M  V30 6341 C 580.64 1.72898 -1.14547 0
M  V30 6342 C 581.065 1.85761 0.295743 0
M  V30 6343 O 580.423 1.3463 1.21427 0
M  V30 6344 C 580.471 3.11471 -1.8171 0
M  V30 6345 O 579.575 3.97336 -1.10445 0
M  V30 6346 H 578.916 0.530555 -0.399259 0
M  V30 6347 H 581.446 1.18159 -1.67032 0
M  V30 6348 H 581.456 3.61872 -1.88449 0
M  V30 6349 H 580.131 3.01425 -2.86558 0
M  V30 6350 H 578.708 3.55788 -1.11666 0
M  V30 6351 N 580.893 1.08022 1.14757 0
M  V30 6352 C 582.139 0.808705 1.85978 0
M  V30 6353 C 582.472 -0.663764 1.82504 0
M  V30 6354 O 581.747 -1.48765 1.25296 0
M  V30 6355 C 582.03 1.32623 3.34788 0
M  V30 6356 C 581.883 2.86375 3.46856 0
M  V30 6357 C 583.202 0.948291 4.29762 0
M  V30 6358 H 580.321 0.295244 0.675278 0
M  V30 6359 H 582.963 1.33917 1.34783 0
M  V30 6360 H 581.113 0.875002 3.78518 0
M  V30 6361 H 582.785 3.39839 3.11941 0
M  V30 6362 H 581.028 3.24232 2.88194 0
M  V30 6363 H 581.699 3.17658 4.51439 0
M  V30 6364 H 584.175 1.33722 3.94028 0
M  V30 6365 H 583.051 1.33765 5.32352 0
M  V30 6366 H 583.312 -0.145094 4.41862 0
M  V30 6367 N 582.371 -1.3172 0.865308 0
M  V30 6368 C 583.301 -2.31109 0.333302 0
M  V30 6369 C 584.282 -1.60148 -0.573301 0
M  V30 6370 O 585.467 -1.87882 -0.491305 0
M  V30 6371 C 582.597 -3.44104 -0.470078 0
M  V30 6372 C 581.551 -4.26623 0.343021 0
M  V30 6373 C 580.877 -5.31482 -0.585756 0
M  V30 6374 C 582.177 -4.98001 1.57456 0
M  V30 6375 H 583.871 -2.75855 1.1638 0
M  V30 6376 H 581.417 -1.3262 0.561069 0
M  V30 6377 H 583.37 -4.12682 -0.852752 0
M  V30 6378 H 582.094 -2.98112 -1.33404 0
M  V30 6379 H 580.753 -3.59707 0.707583 0
M  V30 6380 H 580.401 -4.81741 -1.44686 0
M  V30 6381 H 580.101 -5.87582 -0.0456494 0
M  V30 6382 H 581.625 -6.0292 -0.965375 0
M  V30 6383 H 583.039 -5.59201 1.26359 0
M  V30 6384 H 581.436 -5.63876 2.05339 0
M  V30 6385 H 582.506 -4.25253 2.32997 0
M  V30 6386 N 583.85 -0.624285 -1.44708 0
M  V30 6387 C 584.8 0.106466 -2.27751 0
M  V30 6388 C 585.784 0.822703 -1.38277 0
M  V30 6389 O 586.976 0.709939 -1.62138 0
M  V30 6390 C 584.105 1.092 -3.25469 0
M  V30 6391 C 583.191 0.375737 -4.22432 0
M  V30 6392 N 583.582 -0.591881 -5.02325 0
M  V30 6393 C 581.88 0.621093 -4.41654 0
M  V30 6394 C 582.581 -1.01443 -5.72786 0
M  V30 6395 N 581.557 -0.354651 -5.42442 0
M  V30 6396 H 585.359 -0.636464 -2.86926 0
M  V30 6397 H 582.873 -0.44925 -1.56062 0
M  V30 6398 H 584.87 1.63006 -3.83712 0
M  V30 6399 H 583.529 1.8353 -2.67856 0
M  V30 6400 H 584.541 -0.969389 -5.08747 0
M  V30 6401 H 581.218 1.34779 -3.95147 0
M  V30 6402 H 582.608 -1.81345 -6.46965 0
M  V30 6403 N 585.328 1.53329 -0.364422 0
M  V30 6404 C 586.605 1.93557 0.281962 0
M  V30 6405 C 586.985 1.29786 1.6649 0
M  V30 6406 O 586.333 0.456512 2.23893 0
M  V30 6407 C 586.543 3.47405 0.333331 0
M  V30 6408 C 587.891 4.20699 0.574231 0
M  V30 6409 O 588.915 3.53779 0.414588 0
M  V30 6410 O 587.774 5.39287 0.885002 0
M  V30 6411 H 584.868 0.809573 0.168881 0
M  V30 6412 H 587.414 1.64494 -0.417121 0
M  V30 6413 H 586.186 3.86091 -0.636326 0
M  V30 6414 H 585.809 3.82697 1.07836 0
M  V30 6415 N 586.806 0.0935595 1.57322 0
M  V30 6416 C 587.754 -0.883457 2.15169 0
M  V30 6417 C 588.748 -1.29324 1.09415 0
M  V30 6418 O 589.954 -1.26795 1.27762 0
M  V30 6419 H 586.329 -0.302923 0.688289 0
M  V30 6420 H 588.3 -0.370845 2.96087 0
M  V30 6421 C 587.049 -2.13345 2.74552 0
M  V30 6422 H 586.372 -1.82702 3.55612 0
M  V30 6423 H 587.812 -2.7977 3.18598 0
M  V30 6424 C 586.271 -2.90646 1.70371 0
M  V30 6425 O 586.801 -3.85133 1.14173 0
M  V30 6426 N 585.007 -2.54157 1.40899 0
M  V30 6427 H 584.554 -1.77391 1.86789 0
M  V30 6428 H 584.512 -3.06178 0.714301 0
M  V30 6429 N 588.284 -1.56567 -0.180126 0
M  V30 6430 C 589.231 -1.95725 -1.22313 0
M  V30 6431 C 590.201 -0.819911 -1.44453 0
M  V30 6432 O 591.386 -1.07931 -1.57339 0
M  V30 6433 C 588.526 -2.31484 -2.55947 0
M  V30 6434 C 587.639 -3.58354 -2.4126 0
M  V30 6435 C 586.774 -3.83366 -3.67701 0
M  V30 6436 C 585.813 -5.03612 -3.47909 0
M  V30 6437 N 584.95 -5.24802 -4.66398 0
M  V30 6438 H 589.79 -2.84642 -0.882198 0
M  V30 6439 H 587.327 -1.4085 -0.42422 0
M  V30 6440 H 589.285 -2.50237 -3.33822 0
M  V30 6441 H 587.915 -1.45689 -2.88053 0
M  V30 6442 H 586.967 -3.47565 -1.54606 0
M  V30 6443 H 588.279 -4.46386 -2.22577 0
M  V30 6444 H 587.433 -4.02439 -4.54013 0
M  V30 6445 H 586.172 -2.93692 -3.89353 0
M  V30 6446 H 585.177 -4.84447 -2.59983 0
M  V30 6447 H 586.402 -5.94809 -3.27688 0
M  V30 6448 H 584.348 -4.38079 -4.88286 0
M  V30 6449 H 584.265 -6.07041 -4.50596 0
M  V30 6450 H 585.533 -5.48346 -5.54019 0
M  V30 6451 N 589.762 0.448376 -1.51087 0
M  V30 6452 C 590.672 1.56882 -1.74428 0
M  V30 6453 C 591.688 1.62268 -0.62809 0
M  V30 6454 O 592.864 1.79716 -0.909075 0
M  V30 6455 C 589.929 2.92947 -1.85426 0
M  V30 6456 C 588.99 2.97766 -3.09247 0
M  V30 6457 C 588.223 4.27341 -3.19711 0
M  V30 6458 O 588.446 5.19112 -2.36387 0
M  V30 6459 O 587.38 4.38219 -4.12611 0
M  V30 6460 H 591.206 1.40104 -2.69452 0
M  V30 6461 H 588.791 0.630247 -1.35456 0
M  V30 6462 H 590.673 3.73719 -1.94709 0
M  V30 6463 H 589.348 3.09876 -0.935887 0
M  V30 6464 H 588.255 2.15989 -3.0545 0
M  V30 6465 H 589.588 2.8578 -4.00738 0
M  V30 6466 N 591.24 1.41047 0.703093 0
M  V30 6467 C 592.487 1.4 1.46309 0
M  V30 6468 C 592.815 0.00654574 1.94499 0
M  V30 6469 O 592.07 -0.980255 1.6938 0
M  V30 6470 C 592.369 2.34686 2.6955 0
M  V30 6471 C 592.035 3.81684 2.40058 0
M  V30 6472 C 590.697 4.21731 2.31725 0
M  V30 6473 C 593.049 4.74525 2.15581 0
M  V30 6474 C 590.377 5.52637 1.97001 0
M  V30 6475 C 592.729 6.05744 1.82366 0
M  V30 6476 C 591.393 6.44819 1.72524 0
M  V30 6477 H 590.663 0.512295 0.535382 0
M  V30 6478 H 593.31 1.73792 0.804275 0
M  V30 6479 H 591.615 1.94122 3.40329 0
M  V30 6480 H 593.312 2.31152 3.27673 0
M  V30 6481 H 589.902 3.49963 2.47435 0
M  V30 6482 H 594.086 4.44395 2.20968 0
M  V30 6483 H 589.342 5.81802 1.87928 0
M  V30 6484 H 593.516 6.77189 1.62444 0
M  V30 6485 H 591.143 7.46168 1.45385 0
M  V30 6486 N 592.718 -0.936591 1.26751 0
M  V30 6487 C 594.129 -1.49816 1.1141 0
M  V30 6488 C 594.48 -1.9383 -0.304015 0
M  V30 6489 O 593.605 -1.80346 -1.196 0
M  V30 6490 C 594.2 -2.72271 2.01629 0
M  V30 6491 C 592.759 -3.2468 1.9042 0
M  V30 6492 C 591.906 -1.97444 1.94708 0
M  V30 6493 H 594.857 -0.751604 1.39773 0
M  V30 6494 H 594.878 -3.46741 1.56688 0
M  V30 6495 H 594.39 -2.40205 3.04833 0
M  V30 6496 H 592.491 -3.61525 0.901674 0
M  V30 6497 H 592.604 -3.91476 2.76195 0
M  V30 6498 H 590.968 -2.13545 1.38818 0
M  V30 6499 H 591.751 -1.67703 2.9955 0
M  V30 6500 N 594.196 -1.08629 -1.14182 0
M  V30 6501 C 595.144 -0.71284 -2.21408 0
M  V30 6502 C 596.138 0.282457 -1.67029 0
M  V30 6503 O 597.344 0.144783 -1.79417 0
M  V30 6504 H 593.719 -0.212497 -0.721352 0
M  V30 6505 H 595.69 -1.6265 -2.50175 0
M  V30 6506 C 594.439 -0.140704 -3.47415 0
M  V30 6507 H 593.762 -0.897739 -3.8959 0
M  V30 6508 H 595.202 0.0827677 -4.23919 0
M  V30 6509 C 593.661 1.122 -3.17668 0
M  V30 6510 O 594.191 2.20652 -3.35672 0
M  V30 6511 N 592.397 1.03328 -2.71609 0
M  V30 6512 H 591.944 0.150666 -2.57159 0
M  V30 6513 H 591.902 1.8789 -2.52081 0
M  V30 6514 N 595.674 1.31259 -0.872281 0
M  V30 6515 C 597.085 1.78822 -0.536617 0
M  V30 6516 C 597.436 1.71855 0.946594 0
M  V30 6517 O 596.561 1.28769 1.73918 0
M  V30 6518 C 597.156 3.24698 -0.967294 0
M  V30 6519 C 595.715 3.70147 -0.683251 0
M  V30 6520 C 594.862 2.51994 -1.15733 0
M  V30 6521 H 597.813 1.18308 -1.05777 0
M  V30 6522 H 597.834 3.79386 -0.290929 0
M  V30 6523 H 597.346 3.29737 -2.04683 0
M  V30 6524 H 595.447 3.70607 0.384825 0
M  V30 6525 H 595.56 4.62183 -1.2619 0
M  V30 6526 H 593.924 2.48078 -0.577024 0
M  V30 6527 H 594.707 2.59778 -2.24434 0
M  V30 6528 N 597.152 0.631951 1.44375 0
M  V30 6529 C 598.062 -0.073674 2.34484 0
M  V30 6530 C 599.078 -0.834825 1.52665 0
M  V30 6531 O 600.254 -0.786902 1.85391 0
M  V30 6532 C 597.319 -1.04247 3.30656 0
M  V30 6533 C 596.38 -0.280602 4.28382 0
M  V30 6534 C 595.613 -1.20325 5.19959 0
M  V30 6535 O 595.836 -2.44199 5.15484 0
M  V30 6536 O 594.77 -0.687128 5.97965 0
M  V30 6537 H 598.596 0.667477 2.96274 0
M  V30 6538 H 596.181 0.392144 1.44162 0
M  V30 6539 H 598.063 -1.59981 3.89851 0
M  V30 6540 H 596.738 -1.76422 2.71398 0
M  V30 6541 H 595.645 0.319804 3.72731 0
M  V30 6542 H 596.978 0.401144 4.90563 0
M  V30 6543 N 598.631 -1.53133 0.372548 0
M  V30 6544 C 599.564 -2.22328 -0.514361 0
M  V30 6545 C 600.542 -1.21776 -1.07747 0
M  V30 6546 O 601.726 -1.50704 -1.13228 0
M  V30 6547 C 598.853 -2.92343 -1.71035 0
M  V30 6548 C 597.899 -4.07026 -1.27405 0
M  V30 6549 S 598.732 -5.34821 -0.269526 0
M  V30 6550 C 599.888 -6.08352 -1.47168 0
M  V30 6551 H 600.121 -2.9721 0.0732683 0
M  V30 6552 H 597.654 -1.53603 0.156673 0
M  V30 6553 H 599.612 -3.33296 -2.39634 0
M  V30 6554 H 598.273 -2.17173 -2.26925 0
M  V30 6555 H 597.466 -4.55056 -2.16656 0
M  V30 6556 H 597.068 -3.68001 -0.66719 0
M  V30 6557 H 599.36 -6.33507 -2.40157 0
M  V30 6558 H 600.303 -7.0053 -1.03263 0
M  V30 6559 H 600.711 -5.38893 -1.6809 0
M  V30 6560 N 600.109 -0.101901 -1.5727 0
M  V30 6561 C 601.356 0.560197 -1.94597 0
M  V30 6562 C 601.684 1.67767 -0.984101 0
M  V30 6563 O 600.939 1.95699 -0.00489193 0
M  V30 6564 C 601.238 1.14898 -3.38427 0
M  V30 6565 C 600.904 0.154613 -4.50635 0
M  V30 6566 C 599.566 -0.118861 -4.81053 0
M  V30 6567 C 601.918 -0.523979 -5.18559 0
M  V30 6568 C 599.246 -1.0775 -5.76721 0
M  V30 6569 C 601.598 -1.47114 -6.15256 0
M  V30 6570 C 600.262 -1.75278 -6.44076 0
M  V30 6571 H 599.532 0.204991 -0.712081 0
M  V30 6572 H 602.179 -0.17918 -1.9066 0
M  V30 6573 H 600.484 1.96476 -3.38976 0
M  V30 6574 H 602.181 1.66909 -3.64613 0
M  V30 6575 H 598.771 0.377948 -4.2693 0
M  V30 6576 H 602.955 -0.325851 -4.95229 0
M  V30 6577 H 598.211 -1.30263 -5.97362 0
M  V30 6578 H 602.385 -2.00274 -6.66981 0
M  V30 6579 H 600.012 -2.49717 -7.18015 0
M  V30 6580 N 601.587 1.56661 0.17182 0
M  V30 6581 C 602.864 1.72838 0.915778 0
M  V30 6582 C 603.244 0.66316 2.00413 0
M  V30 6583 O 602.592 -0.322123 2.26218 0
M  V30 6584 C 602.802 3.16019 1.48097 0
M  V30 6585 C 604.15 3.76962 1.95408 0
M  V30 6586 O 605.174 3.19294 1.57892 0
M  V30 6587 O 604.033 4.78219 2.64516 0
M  V30 6588 H 601.127 0.705797 0.431021 0
M  V30 6589 H 603.673 1.68947 0.159689 0
M  V30 6590 H 602.445 3.85031 0.697618 0
M  V30 6591 H 602.068 3.24234 2.30126 0
M  V30 6592 N 603.065 -0.440357 1.51323 0
M  V30 6593 C 604.476 -1.02032 1.56353 0
M  V30 6594 C 604.827 -1.92382 0.385197 0
M  V30 6595 O 603.952 -2.10583 -0.498373 0
M  V30 6596 C 604.547 -1.85723 2.83359 0
M  V30 6597 C 603.106 -2.38774 2.90971 0
M  V30 6598 C 602.253 -1.17908 2.50984 0
M  V30 6599 H 605.204 -0.221744 1.57143 0
M  V30 6600 H 605.225 -2.71141 2.66951 0
M  V30 6601 H 604.737 -1.19939 3.69102 0
M  V30 6602 H 602.838 -3.08021 2.09651 0
M  V30 6603 H 602.951 -2.71778 3.94555 0
M  V30 6604 H 601.315 -1.52347 2.04114 0
M  V30 6605 H 602.098 -0.537393 3.39068 0
M  V30 6606 N 604.543 -1.41418 -0.695603 0
M  V30 6607 C 605.493 -1.39731 -1.80165 0
M  V30 6608 C 606.477 -0.271689 -1.5859 0
M  V30 6609 O 607.669 -0.512354 -1.69422 0
M  V30 6610 C 604.798 -1.28187 -3.1847 0
M  V30 6611 C 603.884 -2.45612 -3.45739 0
M  V30 6612 N 604.275 -3.71077 -3.43708 0
M  V30 6613 C 602.573 -2.39424 -3.76288 0
M  V30 6614 C 603.274 -4.48957 -3.69882 0
M  V30 6615 N 602.25 -3.7907 -3.89624 0
M  V30 6616 H 606.052 -2.34656 -1.76957 0
M  V30 6617 H 603.566 -1.35473 -0.89559 0
M  V30 6618 H 605.563 -1.2506 -3.977 0
M  V30 6619 H 604.223 -0.342468 -3.22889 0
M  V30 6620 H 605.234 -4.03963 -3.2409 0
M  V30 6621 H 601.911 -1.53955 -3.88077 0
M  V30 6622 H 603.301 -5.57887 -3.74448 0
M  V30 6623 N 606.021 0.929856 -1.27246 0
M  V30 6624 C 606.971 2.01629 -1.06442 0
M  V30 6625 C 607.955 1.60899 0.00687842 0
M  V30 6626 O 609.147 1.75733 -0.211407 0
M  V30 6627 C 606.276 3.35849 -0.711361 0
M  V30 6628 C 605.362 3.8303 -1.82069 0
M  V30 6629 N 605.753 4.02743 -3.05993 0
M  V30 6630 C 604.051 4.12046 -1.70687 0
M  V30 6631 C 604.752 4.42001 -3.78167 0
M  V30 6632 N 603.728 4.4935 -3.05918 0
M  V30 6633 H 607.53 2.14898 -2.00489 0
M  V30 6634 H 605.044 1.11654 -1.17929 0
M  V30 6635 H 607.041 4.13343 -0.543442 0
M  V30 6636 H 605.701 3.23944 0.221517 0
M  V30 6637 H 606.712 3.89112 -3.41778 0
M  V30 6638 H 603.389 4.08866 -0.844681 0
M  V30 6639 H 604.779 4.6535 -4.84664 0
M  V30 6640 N 607.499 1.09233 1.13605 0
M  V30 6641 C 608.746 0.827159 1.84836 0
M  V30 6642 C 609.074 -0.647199 1.83416 0
M  V30 6643 O 608.329 -1.49228 1.26608 0
M  V30 6644 C 608.628 1.305 3.32723 0
M  V30 6645 C 608.294 2.78864 3.54325 0
M  V30 6646 C 606.956 3.19382 3.59928 0
M  V30 6647 C 609.308 3.74532 3.62457 0
M  V30 6648 C 606.636 4.54346 3.71196 0
M  V30 6649 C 608.988 5.09283 3.75252 0
M  V30 6650 C 607.652 5.49394 3.79108 0
M  V30 6651 H 606.922 0.302679 0.676363 0
M  V30 6652 H 609.569 1.36676 1.34134 0
M  V30 6653 H 607.874 0.68517 3.85762 0
M  V30 6654 H 609.571 1.07648 3.86281 0
M  V30 6655 H 606.161 2.46507 3.50617 0
M  V30 6656 H 610.345 3.44343 3.57409 0
M  V30 6657 H 605.601 4.84864 3.72447 0
M  V30 6658 H 609.775 5.83269 3.80487 0
M  V30 6659 H 607.402 6.5397 3.87591 0
M  V30 6660 N 608.977 -1.30795 0.87923 0
M  V30 6661 C 609.907 -2.30742 0.357796 0
M  V30 6662 C 610.888 -1.60747 -0.556283 0
M  V30 6663 O 612.073 -1.88393 -0.47135 0
M  V30 6664 C 609.203 -3.44583 -0.433555 0
M  V30 6665 C 608.157 -4.26235 0.388251 0
M  V30 6666 C 607.483 -5.32073 -0.529352 0
M  V30 6667 C 608.783 -4.96303 1.62729 0
M  V30 6668 H 610.477 -2.74605 1.19299 0
M  V30 6669 H 608.023 -1.32017 0.575104 0
M  V30 6670 H 609.976 -4.13563 -0.808934 0
M  V30 6671 H 608.7 -2.99511 -1.30234 0
M  V30 6672 H 607.359 -3.58936 0.745695 0
M  V30 6673 H 607.007 -4.83249 -1.39569 0
M  V30 6674 H 606.707 -5.87598 0.0166741 0
M  V30 6675 H 608.231 -6.0391 -0.901373 0
M  V30 6676 H 609.645 -5.5783 1.32283 0
M  V30 6677 H 608.042 -5.61666 2.11309 0
M  V30 6678 H 609.112 -4.22758 2.37494 0
M  V30 6679 N 610.455 -0.639598 -1.44038 0
M  V30 6680 C 611.732 -0.078012 -1.95444 0
M  V30 6681 C 612.112 1.39847 -1.58133 0
M  V30 6682 O 611.46 2.11714 -0.859614 0
M  V30 6683 C 611.67 -0.309832 -3.47622 0
M  V30 6684 C 613.018 -0.207521 -4.24093 0
M  V30 6685 O 614.042 -0.241653 -3.55379 0
M  V30 6686 O 612.901 -0.119641 -5.46369 0
M  V30 6687 H 609.995 0.0174534 -0.826816 0
M  V30 6688 H 612.541 -0.711891 -1.54046 0
M  V30 6689 H 611.313 -1.33401 -3.67858 0
M  V30 6690 H 610.936 0.357777 -3.95987 0
M  V30 6691 N 611.933 1.52934 -0.380664 0
M  V30 6692 C 612.843 2.29921 0.466192 0
M  V30 6693 C 613.859 1.36488 1.07922 0
M  V30 6694 O 615.035 1.69553 1.0869 0
M  V30 6695 C 612.1 3.08468 1.58266 0
M  V30 6696 C 611.161 4.17595 0.995627 0
M  V30 6697 C 610.394 4.92387 2.05889 0
M  V30 6698 O 610.617 4.67184 3.27254 0
M  V30 6699 O 609.551 5.77949 1.68102 0
M  V30 6700 H 613.377 3.03274 -0.160735 0
M  V30 6701 H 610.962 1.48698 -0.144617 0
M  V30 6702 H 612.844 3.57469 2.23145 0
M  V30 6703 H 611.519 2.37937 2.19471 0
M  V30 6704 H 610.426 3.72811 0.310332 0
M  V30 6705 H 611.759 4.90336 0.427918 0
M  V30 6706 N 613.412 0.11024 1.57214 0
M  V30 6707 C 614.66 -0.548783 1.94506 0
M  V30 6708 C 614.981 -1.67772 0.99386 0
M  V30 6709 O 614.251 -1.9584 0.0485841 0
M  V30 6710 H 612.831 -0.205715 0.718116 0
M  V30 6711 H 615.493 0.177127 1.94093 0
M  V30 6712 H 614.589 -0.949096 2.97319 0
M  V30 6713 N 614.89 -1.56749 -0.16351 0
M  V30 6714 C 616.138 -1.82074 -0.87713 0
M  V30 6715 C 616.459 -0.688503 -1.82441 0
M  V30 6716 O 615.729 0.291085 -1.93725 0
M  V30 6717 H 614.309 -0.671677 -0.326893 0
M  V30 6718 H 616.971 -1.9423 -0.161459 0
M  V30 6719 H 616.067 -2.76407 -1.44934 0
M  V30 6720 N 616.368 0.432326 -1.51554 0
M  V30 6721 C 617.316 1.54572 -1.73811 0
M  V30 6722 C 618.31 1.58246 -0.604539 0
M  V30 6723 O 619.516 1.6193 -0.786041 0
M  V30 6724 H 615.891 0.513626 -0.549265 0
M  V30 6725 H 617.862 1.32977 -2.67132 0
M  V30 6726 C 616.611 2.92181 -1.88483 0
M  V30 6727 H 615.934 2.90088 -2.75116 0
M  V30 6728 H 617.374 3.69439 -2.08065 0
M  V30 6729 C 615.833 3.3065 -0.645909 0
M  V30 6730 O 616.363 4.01216 0.197093 0
M  V30 6731 N 614.569 2.86464 -0.488538 0
M  V30 6732 H 614.116 2.29209 -1.17562 0
M  V30 6733 H 614.074 3.12565 0.339156 0
M  V30 6734 N 617.846 1.41785 0.688094 0
M  V30 6735 C 619.093 1.41544 1.44816 0
M  V30 6736 C 619.421 0.0271746 1.94481 0
M  V30 6737 O 618.676 -0.962235 1.7041 0
M  V30 6738 C 618.975 2.37532 2.67046 0
M  V30 6739 C 618.641 3.84209 2.35996 0
M  V30 6740 C 617.303 4.24165 2.27239 0
M  V30 6741 C 619.655 4.76785 2.10536 0
M  V30 6742 C 616.983 5.54695 1.91128 0
M  V30 6743 C 619.335 6.07644 1.75931 0
M  V30 6744 C 617.999 6.46613 1.65675 0
M  V30 6745 H 617.269 0.517945 0.529919 0
M  V30 6746 H 619.916 1.74635 0.785797 0
M  V30 6747 H 618.221 1.9772 3.38251 0
M  V30 6748 H 619.918 2.34615 3.25203 0
M  V30 6749 H 616.508 3.52567 2.4371 0
M  V30 6750 H 620.692 4.46714 2.16242 0
M  V30 6751 H 615.948 5.83762 1.81746 0
M  V30 6752 H 620.122 6.78874 1.55252 0
M  V30 6753 H 617.749 7.47668 1.37463 0
M  V30 6754 N 619.324 -0.923095 1.27737 0
M  V30 6755 C 620.271 -2.02432 1.1086 0
M  V30 6756 C 621.241 -1.66098 0.00835195 0
M  V30 6757 O 622.426 -1.90027 0.171542 0
M  V30 6758 C 619.566 -3.36476 0.766671 0
M  V30 6759 C 618.679 -3.85737 1.94501 0
M  V30 6760 C 617.814 -5.08249 1.54455 0
M  V30 6761 C 616.853 -5.49818 2.6901 0
M  V30 6762 N 615.99 -6.63524 2.29521 0
M  V30 6763 H 620.83 -2.16201 2.05089 0
M  V30 6764 H 618.367 -1.05909 1.02087 0
M  V30 6765 H 620.325 -4.13569 0.549223 0
M  V30 6766 H 618.955 -3.22502 -0.13867 0
M  V30 6767 H 618.007 -3.04883 2.27487 0
M  V30 6768 H 619.319 -4.12513 2.80419 0
M  V30 6769 H 618.473 -5.92857 1.28862 0
M  V30 6770 H 617.212 -4.83261 0.656534 0
M  V30 6771 H 616.217 -4.63757 2.95313 0
M  V30 6772 H 617.442 -5.76799 3.5844 0
M  V30 6773 H 615.388 -6.40185 1.43177 0
M  V30 6774 H 615.305 -6.89978 3.08977 0
M  V30 6775 H 616.573 -7.51461 2.07187 0
M  V30 6776 N 620.802 -1.09834 -1.13024 0
M  V30 6777 C 621.749 -0.741522 -2.18564 0
M  V30 6778 C 622.719 0.279236 -1.63736 0
M  V30 6779 O 623.904 0.159923 -1.90129 0
M  V30 6780 C 621.044 -0.17277 -3.44667 0
M  V30 6781 C 620.157 -1.24808 -4.13578 0
M  V30 6782 C 619.292 -0.641631 -5.27311 0
M  V30 6783 C 618.331 -1.69795 -5.88078 0
M  V30 6784 N 617.468 -1.11223 -6.93234 0
M  V30 6785 H 622.308 -1.64576 -2.48432 0
M  V30 6786 H 619.845 -0.822174 -1.21978 0
M  V30 6787 H 621.803 0.17482 -4.16834 0
M  V30 6788 H 620.433 0.694725 -3.15235 0
M  V30 6789 H 619.485 -1.71288 -3.39653 0
M  V30 6790 H 620.797 -2.04795 -4.54819 0
M  V30 6791 H 619.951 -0.243128 -6.06213 0
M  V30 6792 H 618.69 0.189742 -4.87331 0
M  V30 6793 H 617.695 -2.10595 -5.07868 0
M  V30 6794 H 618.92 -2.53206 -6.3013 0
M  V30 6795 H 616.866 -0.302208 -6.55304 0
M  V30 6796 H 616.783 -1.84901 -7.3304 0
M  V30 6797 H 618.051 -0.740068 -7.75979 0
M  V30 6798 N 622.28 1.30327 -0.886154 0
M  V30 6799 C 623.505 2.0079 -0.519425 0
M  V30 6800 C 623.93 1.65979 0.885013 0
M  V30 6801 O 623.288 0.877043 1.58675 0
M  V30 6802 C 623.336 3.53686 -0.702758 0
M  V30 6803 O 622.44 4.11637 0.250828 0
M  V30 6804 H 621.781 0.63171 -0.204544 0
M  V30 6805 H 624.311 1.66145 -1.19402 0
M  V30 6806 H 624.321 4.03531 -0.602207 0
M  V30 6807 H 622.996 3.78361 -1.72673 0
M  V30 6808 H 621.573 3.72755 0.103873 0
M  V30 6809 N 623.758 0.647228 1.43697 0
M  V30 6810 C 624.705 -0.0480092 2.3075 0
M  V30 6811 C 625.675 -0.820705 1.44408 0
M  V30 6812 O 626.86 -0.798515 1.73287 0
M  V30 6813 C 624 -1.01259 3.2991 0
M  V30 6814 C 623.113 -0.236629 4.31351 0
M  V30 6815 C 622.248 -1.19447 5.17596 0
M  V30 6816 C 621.287 -0.408595 6.10735 0
M  V30 6817 N 620.424 -1.31772 6.89623 0
M  V30 6818 H 625.264 0.700238 2.89656 0
M  V30 6819 H 622.801 0.357082 1.427 0
M  V30 6820 H 624.759 -1.58538 3.85903 0
M  V30 6821 H 623.389 -1.72778 2.72667 0
M  V30 6822 H 622.441 0.452353 3.77701 0
M  V30 6823 H 623.753 0.374731 4.9739 0
M  V30 6824 H 622.907 -1.83809 5.78186 0
M  V30 6825 H 621.646 -1.83975 4.51669 0
M  V30 6826 H 620.651 0.24841 5.49239 0
M  V30 6827 H 621.876 0.232188 6.78703 0
M  V30 6828 H 619.822 -1.94991 6.2635 0
M  V30 6829 H 619.739 -0.760779 7.52162 0
M  V30 6830 H 621.007 -1.94967 7.54724 0
M  V30 6831 N 625.236 -1.5273 0.388769 0
M  V30 6832 C 626.466 -2.05693 -0.193397 0
M  V30 6833 C 626.874 -1.26038 -1.41107 0
M  V30 6834 O 626.217 -0.30001 -1.81234 0
M  V30 6835 C 626.279 -3.53962 -0.628561 0
M  V30 6836 C 625.943 -4.54519 0.475576 0
M  V30 6837 C 626.94 -5.02526 1.33281 0
M  V30 6838 C 624.625 -4.98174 0.642453 0
M  V30 6839 C 626.619 -5.92812 2.34205 0
M  V30 6840 C 624.306 -5.88262 1.65503 0
M  V30 6841 C 625.304 -6.35473 2.50325 0
M  V30 6842 O 624.992 -7.23781 3.49852 0
M  V30 6843 H 624.724 -0.675197 -0.0329395 0
M  V30 6844 H 627.278 -1.97835 0.552326 0
M  V30 6845 H 625.508 -3.59437 -1.42625 0
M  V30 6846 H 627.197 -3.89669 -1.13633 0
M  V30 6847 H 627.963 -4.6953 1.21519 0
M  V30 6848 H 623.842 -4.60999 -0.00805093 0
M  V30 6849 H 627.386 -6.29585 3.00447 0
M  V30 6850 H 623.283 -6.20672 1.77304 0
M  V30 6851 H 624.051 -7.4184 3.45855 0
M  V30 6852 N 626.714 -0.118576 -1.57153 0
M  V30 6853 C 627.961 0.539526 -1.9518 0
M  V30 6854 C 628.289 1.66714 -1.00184 0
M  V30 6855 O 627.544 1.95683 -0.0256482 0
M  V30 6856 C 627.843 1.11303 -3.39627 0
M  V30 6857 C 627.509 0.106809 -4.50773 0
M  V30 6858 C 626.171 -0.169876 -4.809 0
M  V30 6859 C 628.523 -0.57895 -5.17975 0
M  V30 6860 C 625.851 -1.13861 -5.75545 0
M  V30 6861 C 628.203 -1.53631 -6.13661 0
M  V30 6862 C 626.867 -1.82099 -6.42181 0
M  V30 6863 H 626.137 0.197427 -0.714215 0
M  V30 6864 H 628.784 -0.199391 -1.90459 0
M  V30 6865 H 627.089 1.92869 -3.4104 0
M  V30 6866 H 628.786 1.63032 -3.66363 0
M  V30 6867 H 625.376 0.332645 -4.27307 0
M  V30 6868 H 629.56 -0.378359 -4.94856 0
M  V30 6869 H 624.816 -1.36592 -5.95947 0
M  V30 6870 H 628.99 -2.07337 -6.64819 0
M  V30 6871 H 626.617 -2.57319 -7.15326 0
M  V30 6872 N 628.193 1.56834 0.155195 0
M  V30 6873 C 629.126 1.9278 1.22111 0
M  V30 6874 C 630.104 0.792588 1.41975 0
M  V30 6875 O 631.288 1.04743 1.5672 0
M  V30 6876 C 628.415 2.19273 2.58142 0
M  V30 6877 C 627.461 3.41932 2.54921 0
M  V30 6878 S 628.294 4.95769 2.02418 0
M  V30 6879 C 629.45 5.25375 3.40194 0
M  V30 6880 H 629.683 2.82889 0.914393 0
M  V30 6881 H 627.216 1.50133 0.360461 0
M  V30 6882 H 629.174 2.35217 3.36427 0
M  V30 6883 H 627.835 1.29843 2.86007 0
M  V30 6884 H 627.028 3.57721 3.55038 0
M  V30 6885 H 626.63 3.25188 1.8474 0
M  V30 6886 H 628.922 5.1834 4.36268 0
M  V30 6887 H 629.865 6.26889 3.29266 0
M  V30 6888 H 630.273 4.52906 3.36951 0
M  V30 6889 N 629.671 -0.424282 1.51781 0
M  V30 6890 C 631.082 -1.00368 1.57427 0
M  V30 6891 C 631.433 -1.91962 0.40558 0
M  V30 6892 O 630.558 -2.111 -0.47601 0
M  V30 6893 C 631.153 -1.82707 2.85313 0
M  V30 6894 C 629.712 -2.35675 2.93487 0
M  V30 6895 C 628.859 -1.1524 2.5222 0
M  V30 6896 H 631.81 -0.205064 1.5737 0
M  V30 6897 H 631.831 -2.68294 2.69812 0
M  V30 6898 H 631.343 -1.16017 3.70353 0
M  V30 6899 H 629.444 -3.05781 2.12906 0
M  V30 6900 H 629.557 -2.67578 3.97415 0
M  V30 6901 H 627.921 -1.50174 2.05718 0
M  V30 6902 H 628.704 -0.5014 3.39619 0
M  V30 6903 N 631.149 -1.42148 -0.680565 0
M  V30 6904 C 632.396 -1.4231 -1.44063 0
M  V30 6905 C 632.724 -0.037488 -1.94464 0
M  V30 6906 O 631.979 0.953184 -1.70918 0
M  V30 6907 C 632.278 -2.38945 -2.65782 0
M  V30 6908 C 631.944 -3.85455 -2.33956 0
M  V30 6909 C 630.606 -4.25364 -2.24987 0
M  V30 6910 C 632.958 -4.77895 -2.08004 0
M  V30 6911 C 630.286 -5.55701 -1.88184 0
M  V30 6912 C 632.638 -6.08568 -1.72706 0
M  V30 6913 C 631.302 -6.47482 -1.62244 0
M  V30 6914 H 630.572 -0.520748 -0.527164 0
M  V30 6915 H 633.219 -1.7505 -0.776524 0
M  V30 6916 H 631.524 -1.99511 -3.37198 0
M  V30 6917 H 633.221 -2.36336 -3.23954 0
M  V30 6918 H 629.811 -3.53855 -2.41836 0
M  V30 6919 H 633.995 -4.47854 -2.1387 0
M  V30 6920 H 629.251 -5.84718 -1.78648 0
M  V30 6921 H 633.425 -6.79688 -1.5165 0
M  V30 6922 H 631.052 -7.48387 -1.33496 0
M  V30 6923 N 632.627 0.916307 -1.28225 0
M  V30 6924 C 633.852 1.7043 -1.18188 0
M  V30 6925 C 634.277 1.86346 0.256274 0
M  V30 6926 O 633.635 1.37175 1.18544 0
M  V30 6927 C 633.683 3.07546 -1.88275 0
M  V30 6928 O 632.787 3.94904 -1.18848 0
M  V30 6929 H 632.128 0.521967 -0.410423 0
M  V30 6930 H 634.658 1.14589 -1.69501 0
M  V30 6931 H 634.668 3.57793 -1.96082 0
M  V30 6932 H 633.343 2.95279 -2.92887 0
M  V30 6933 H 631.92 3.53339 -1.19187 0
M  V30 6934 N 634.105 1.10431 1.1244 0
M  V30 6935 C 635.068 0.756542 2.16354 0
M  V30 6936 C 636.068 -0.21899 1.59302 0
M  V30 6937 O 637.258 0.00415969 1.742 0
M  V30 6938 C 634.39 0.120612 3.40687 0
M  V30 6939 H 635.583 1.67696 2.48632 0
M  V30 6940 H 633.136 0.904832 1.27446 0
M  V30 6941 H 633.871 -0.810536 3.14008 0
M  V30 6942 H 633.656 0.822693 3.83372 0
M  V30 6943 H 635.146 -0.106945 4.17463 0
M  V30 6944 N 635.583 -1.29855 0.893053 0
M  V30 6945 C 636.831 -1.9544 0.514566 0
M  V30 6946 C 637.152 -1.70795 -0.940959 0
M  V30 6947 O 636.422 -1.03601 -1.66264 0
M  V30 6948 H 635.002 -0.723137 0.187302 0
M  V30 6949 H 637.664 -1.58234 1.13789 0
M  V30 6950 H 636.76 -3.04341 0.691581 0
M  V30 6951 N 637.061 -0.65484 -1.43351 0
M  V30 6952 C 638.008 0.0357713 -2.30772 0
M  V30 6953 C 638.978 0.813035 -1.44841 0
M  V30 6954 O 640.163 0.789314 -1.73708 0
M  V30 6955 C 637.303 0.995084 -3.30442 0
M  V30 6956 C 636.416 0.21375 -4.31471 0
M  V30 6957 C 635.551 1.16701 -5.18222 0
M  V30 6958 C 634.59 0.376201 -6.10943 0
M  V30 6959 N 633.727 1.28113 -6.90313 0
M  V30 6960 H 638.567 -0.71559 -2.89281 0
M  V30 6961 H 636.104 -0.364645 -1.42509 0
M  V30 6962 H 638.062 1.5649 -3.86739 0
M  V30 6963 H 636.692 1.7133 -2.7358 0
M  V30 6964 H 635.744 -0.472377 -3.77456 0
M  V30 6965 H 637.056 -0.401103 -4.97185 0
M  V30 6966 H 636.21 1.8074 -5.79153 0
M  V30 6967 H 634.949 1.81577 -4.52638 0
M  V30 6968 H 633.954 -0.277534 -5.49099 0
M  V30 6969 H 635.179 -0.268178 -6.7857 0
M  V30 6970 H 633.125 1.91666 -6.27376 0
M  V30 6971 H 633.042 0.720879 -7.52555 0
M  V30 6972 H 634.31 1.90962 -7.55747 0
M  V30 6973 N 638.539 1.52521 -0.396863 0
M  V30 6974 C 639.955 1.5953 -0.0471659 0
M  V30 6975 C 640.155 1.41044 1.43906 0
M  V30 6976 O 639.211 1.23122 2.20448 0
M  V30 6977 C 640.524 2.95972 -0.531113 0
M  V30 6978 C 642.072 3.09172 -0.488024 0
M  V30 6979 C 642.547 4.48075 -0.948281 0
M  V30 6980 N 644.038 4.54281 -0.9046 0
M  V30 6981 C 644.773 5.60007 -1.23205 0
M  V30 6982 N 644.269 6.73343 -1.63036 0
M  V30 6983 N 646.062 5.50151 -1.15282 0
M  V30 6984 H 638.213 1.62786 -1.36435 0
M  V30 6985 H 640.476 0.76514 -0.559701 0
M  V30 6986 H 640.182 3.14741 -1.56942 0
M  V30 6987 H 640.056 3.77143 0.0657922 0
M  V30 6988 H 642.443 2.90095 0.541211 0
M  V30 6989 H 642.524 2.29937 -1.12083 0
M  V30 6990 H 642.168 4.67894 -1.97578 0
M  V30 6991 H 642.098 5.25788 -0.292412 0
M  V30 6992 H 644.589 3.72918 -0.6116 0
M  V30 6993 H 644.902 7.49992 -1.86365 0
M  V30 6994 H 643.247 6.74655 -1.66929 0
M  V30 6995 H 646.438 4.6049 -0.840602 0
M  V30 6996 H 646.611 6.32444 -1.41133 0
M  V30 6997 N 640.017 0.126909 1.57088 0
M  V30 6998 C 641.266 -0.529024 1.94639 0
M  V30 6999 C 641.579 -1.67323 1.01304 0
M  V30 7000 O 642.785 -2.39245 1.28352 0
M  V30 7001 C 641.241 -0.992483 3.45945 0
M  V30 7002 C 640.849 0.123691 4.47829 0
M  V30 7003 C 642.593 -1.61934 3.924 0
M  V30 7004 C 640.5 -0.356911 5.90322 0
M  V30 7005 H 639.43 -0.201397 0.726605 0
M  V30 7006 H 642.081 0.208032 1.82317 0
M  V30 7007 H 640.463 -1.7842 3.53528 0
M  V30 7008 H 641.637 0.900168 4.51922 0
M  V30 7009 H 639.952 0.657699 4.11173 0
M  V30 7010 H 642.549 -1.9902 4.96281 0
M  V30 7011 H 642.892 -2.50075 3.32819 0
M  V30 7012 H 643.425 -0.892894 3.8765 0
M  V30 7013 H 640.164 0.488636 6.53676 0
M  V30 7014 H 639.684 -1.0997 5.89633 0
M  V30 7015 H 641.363 -0.815547 6.41839 0
M  V30 7016 N 641.495 -1.56914 -0.146875 0
M  V30 7017 C 642.735 -1.85163 -0.86568 0
M  V30 7018 C 643.099 -0.711215 -1.78342 0
M  V30 7019 O 644.3 -0.874754 -2.54168 0
M  V30 7020 C 642.571 -3.18593 -1.61967 0
M  V30 7021 S 644.13 -3.68397 -2.38388 0
M  V30 7022 H 640.948 -0.6494 -0.289483 0
M  V30 7023 H 643.55 -1.95096 -0.125679 0
M  V30 7024 H 642.254 -3.99562 -0.93694 0
M  V30 7025 H 641.785 -3.11666 -2.40058 0
M  V30 7026 H 643.8 -3.37672 -3.63582 0
M  V30 7027 N 642.974 0.416227 -1.52004 0
M  V30 7028 C 644.22 1.16555 -1.6596 0
M  V30 7029 C 644.553 1.90347 -0.384906 0
M  V30 7030 O 643.828 1.84474 0.616405 0
M  V30 7031 C 644.111 2.1657 -2.87696 0
M  V30 7032 C 643.964 1.46722 -4.25197 0
M  V30 7033 C 645.283 3.17321 -3.04951 0
M  V30 7034 H 642.402 0.422369 -0.603965 0
M  V30 7035 H 645.044 0.452141 -1.84542 0
M  V30 7036 H 643.194 2.77411 -2.71985 0
M  V30 7037 H 644.866 0.89056 -4.52622 0
M  V30 7038 H 643.109 0.769263 -4.26925 0
M  V30 7039 H 643.78 2.19665 -5.0641 0
M  V30 7040 H 646.256 2.66552 -3.19514 0
M  V30 7041 H 645.132 3.84573 -3.91656 0
M  V30 7042 H 645.393 3.84643 -2.17951 0
M  V30 7043 N 644.452 1.42507 0.673017 0
M  V30 7044 C 645.7 1.42789 1.43023 0
M  V30 7045 C 646.021 0.0459738 1.94946 0
M  V30 7046 O 645.291 -0.915765 1.73178 0
M  V30 7047 H 643.871 0.525657 0.530748 0
M  V30 7048 H 646.533 1.77944 0.795113 0
M  V30 7049 H 645.629 2.12872 2.28237 0
M  V30 7050 N 645.93 -0.909495 1.28709 0
M  V30 7051 C 646.84 -2.04558 1.14861 0
M  V30 7052 C 647.856 -1.73842 0.0741621 0
M  V30 7053 O 649.032 -1.99383 0.2843 0
M  V30 7054 C 646.097 -3.36957 0.816148 0
M  V30 7055 C 645.158 -3.81255 1.97341 0
M  V30 7056 C 644.391 -5.07335 1.65671 0
M  V30 7057 O 644.614 -5.67514 0.573053 0
M  V30 7058 O 643.548 -5.47449 2.50167 0
M  V30 7059 H 647.374 -2.19161 2.10243 0
M  V30 7060 H 644.959 -1.03159 1.08068 0
M  V30 7061 H 646.841 -4.16436 0.644873 0
M  V30 7062 H 645.516 -3.2352 -0.107983 0
M  V30 7063 H 644.423 -3.02584 2.19986 0
M  V30 7064 H 645.756 -3.99261 2.87839 0
M  V30 7065 N 647.408 -1.11026 -1.11852 0
M  V30 7066 C 648.371 -0.768006 -2.1595 0
M  V30 7067 C 649.371 0.210538 -1.59416 0
M  V30 7068 O 650.561 -0.0133978 -1.74195 0
M  V30 7069 C 647.693 -0.138678 -3.40618 0
M  V30 7070 H 648.886 -1.69012 -2.4774 0
M  V30 7071 H 646.439 -0.911578 -1.26964 0
M  V30 7072 H 647.174 0.793872 -3.14433 0
M  V30 7073 H 646.959 -0.843012 -3.8293 0
M  V30 7074 H 648.449 0.0848039 -4.17514 0
M  V30 7075 N 648.886 1.2938 -0.899927 0
M  V30 7076 C 649.816 2.30144 -0.39446 0
M  V30 7077 C 650.797 1.61611 0.530639 0
M  V30 7078 O 651.982 1.89119 0.441319 0
M  V30 7079 C 649.112 3.45229 0.37868 0
M  V30 7080 C 648.066 4.25564 -0.456012 0
M  V30 7081 C 647.392 5.32848 0.444637 0
M  V30 7082 C 648.692 4.93651 -1.70605 0
M  V30 7083 H 650.386 2.72673 -1.23653 0
M  V30 7084 H 647.932 1.31086 -0.596034 0
M  V30 7085 H 649.885 4.14797 0.743037 0
M  V30 7086 H 648.609 3.01545 1.25453 0
M  V30 7087 H 647.268 3.57704 -0.802704 0
M  V30 7088 H 646.916 4.85408 1.31863 0
M  V30 7089 H 646.616 5.87497 -0.110154 0
M  V30 7090 H 648.14 6.05268 0.805182 0
M  V30 7091 H 649.554 5.55655 -1.41141 0
M  V30 7092 H 647.951 5.58233 -2.20217 0
M  V30 7093 H 649.021 4.18926 -2.4419 0
M  V30 7094 N 650.364 0.662433 1.43002 0
M  V30 7095 C 651.327 -0.0142016 2.29196 0
M  V30 7096 C 652.327 -0.741394 1.42688 0
M  V30 7097 O 653.517 -0.581257 1.64216 0
M  V30 7098 C 650.649 -1.03084 3.24941 0
M  V30 7099 H 651.842 0.7443 2.90517 0
M  V30 7100 H 649.395 0.424133 1.50435 0
M  V30 7101 H 650.13 -1.81826 2.68533 0
M  V30 7102 H 649.915 -0.512946 3.8873 0
M  V30 7103 H 651.405 -1.50308 3.89612 0
M  V30 7104 N 651.842 -1.52309 0.404946 0
M  V30 7105 C 653.09 -2.01368 -0.17186 0
M  V30 7106 C 653.411 -1.29261 -1.46002 0
M  V30 7107 O 652.681 -0.41729 -1.91404 0
M  V30 7108 H 651.261 -0.744034 -0.0664993 0
M  V30 7109 H 653.923 -1.87263 0.540228 0
M  V30 7110 H 653.019 -3.09888 -0.370957 0
M  V30 7111 N 653.32 -0.135238 -1.57019 0
M  V30 7112 C 654.253 0.846618 -2.11914 0
M  V30 7113 C 655.231 1.25019 -1.03966 0
M  V30 7114 O 656.415 1.34838 -1.31723 0
M  V30 7115 C 653.542 2.1352 -2.6292 0
M  V30 7116 C 652.588 1.87846 -3.82905 0
M  V30 7117 S 653.421 1.08005 -5.24495 0
M  V30 7118 C 654.577 2.38008 -5.78881 0
M  V30 7119 H 654.81 0.379752 -2.94865 0
M  V30 7120 H 652.343 0.0788387 -1.54199 0
M  V30 7121 H 654.301 2.87551 -2.92958 0
M  V30 7122 H 652.962 2.57323 -1.80121 0
M  V30 7123 H 652.155 2.83365 -4.16797 0
M  V30 7124 H 651.757 1.21929 -3.53567 0
M  V30 7125 H 654.049 3.33742 -5.89595 0
M  V30 7126 H 654.992 2.08638 -6.76665 0
M  V30 7127 H 655.4 2.48119 -5.07048 0
M  V30 7128 N 654.798 1.5699 0.138552 0
M  V30 7129 C 655.708 2.02174 1.19008 0
M  V30 7130 C 656.724 0.938622 1.46512 0
M  V30 7131 O 657.9 1.24872 1.58016 0
M  V30 7132 C 654.965 2.40045 2.50159 0
M  V30 7133 C 654.026 3.62346 2.30226 0
M  V30 7134 C 653.259 3.98401 3.55123 0
M  V30 7135 O 653.482 3.35019 4.61647 0
M  V30 7136 O 652.416 4.91606 3.47285 0
M  V30 7137 H 656.242 2.91954 0.836452 0
M  V30 7138 H 653.827 1.45293 0.347907 0
M  V30 7139 H 655.709 2.65225 3.27465 0
M  V30 7140 H 654.384 1.53417 2.85035 0
M  V30 7141 H 653.291 3.42341 1.50843 0
M  V30 7142 H 654.624 4.49617 2.00262 0
M  V30 7143 N 656.276 -0.40816 1.52223 0
M  V30 7144 C 657.206 -1.5042 1.78595 0
M  V30 7145 C 658.187 -1.57723 0.636974 0
M  V30 7146 O 659.372 -1.72982 0.882664 0
M  V30 7147 C 656.502 -2.88232 1.93751 0
M  V30 7148 C 655.456 -2.95779 3.09352 0
M  V30 7149 C 654.782 -4.35855 3.09732 0
M  V30 7150 C 656.082 -2.67175 4.48793 0
M  V30 7151 H 657.776 -1.28601 2.70374 0
M  V30 7152 H 655.322 -0.617221 1.30101 0
M  V30 7153 H 657.275 -3.64895 2.10783 0
M  V30 7154 H 655.999 -3.11347 0.986443 0
M  V30 7155 H 654.658 -2.21561 2.92072 0
M  V30 7156 H 654.306 -4.55981 2.12346 0
M  V30 7157 H 654.006 -4.41829 3.87377 0
M  V30 7158 H 655.53 -5.14451 3.28895 0
M  V30 7159 H 656.944 -3.3356 4.66273 0
M  V30 7160 H 655.341 -2.84523 5.28362 0
M  V30 7161 H 656.411 -1.62609 4.56822 0
M  V30 7162 N 657.755 -1.42862 -0.66545 0
M  V30 7163 C 659.002 -1.4383 -1.42546 0
M  V30 7164 C 659.33 -0.0581114 -1.94413 0
M  V30 7165 O 658.585 0.935002 -1.71919 0
M  V30 7166 C 658.884 -2.4175 -2.63233 0
M  V30 7167 C 658.55 -3.87915 -2.29854 0
M  V30 7168 C 657.212 -4.27726 -2.20463 0
M  V30 7169 C 659.564 -4.80074 -2.02924 0
M  V30 7170 C 656.892 -5.57666 -1.82279 0
M  V30 7171 C 659.244 -6.10366 -1.66242 0
M  V30 7172 C 657.908 -6.49167 -1.55367 0
M  V30 7173 H 657.178 -0.52631 -0.521612 0
M  V30 7174 H 659.825 -1.75863 -0.757914 0
M  V30 7175 H 658.13 -2.03077 -3.35063 0
M  V30 7176 H 659.827 -2.39759 -3.21429 0
M  V30 7177 H 656.417 -3.564 -2.3807 0
M  V30 7178 H 660.601 -4.50097 -2.09108 0
M  V30 7179 H 655.857 -5.8658 -1.72436 0
M  V30 7180 H 660.031 -6.81258 -1.44432 0
M  V30 7181 H 657.658 -7.49761 -1.2555 0
M  V30 7182 N 659.233 0.902656 -1.29189 0
M  V30 7183 C 660.163 2.02294 -1.16616 0
M  V30 7184 C 661.144 1.6999 -0.0611175 0
M  V30 7185 O 662.329 1.9271 -0.240072 0
M  V30 7186 C 659.459 3.37018 -0.83882 0
M  V30 7187 C 658.413 3.83522 -1.89986 0
M  V30 7188 C 657.739 5.15337 -1.42589 0
M  V30 7189 C 659.039 4.04169 -3.30824 0
M  V30 7190 H 660.733 2.13071 -2.10336 0
M  V30 7191 H 658.279 1.02378 -1.01266 0
M  V30 7192 H 660.232 4.14895 -0.737584 0
M  V30 7193 H 658.956 3.26325 0.134071 0
M  V30 7194 H 657.615 3.07859 -1.99043 0
M  V30 7195 H 657.263 5.01056 -0.441759 0
M  V30 7196 H 656.963 5.47423 -2.13547 0
M  V30 7197 H 658.487 5.95758 -1.3381 0
M  V30 7198 H 659.901 4.72537 -3.24626 0
M  V30 7199 H 658.298 4.47604 -3.99713 0
M  V30 7200 H 659.368 3.08604 -3.74021 0
M  V30 7201 N 660.711 1.11618 1.11262 0
M  V30 7202 C 661.958 0.86618 1.8304 0
M  V30 7203 C 662.286 -0.608149 1.84748 0
M  V30 7204 O 661.541 -1.46508 1.29745 0
M  V30 7205 C 661.84 1.37529 3.2988 0
M  V30 7206 C 661.506 2.86317 3.4833 0
M  V30 7207 C 660.168 3.26945 3.53073 0
M  V30 7208 C 662.52 3.82136 3.54431 0
M  V30 7209 C 659.848 4.62117 3.61475 0
M  V30 7210 C 662.2 5.17128 3.64365 0
M  V30 7211 C 660.864 5.57312 3.67369 0
M  V30 7212 H 660.134 0.316958 0.66979 0
M  V30 7213 H 662.781 1.3949 1.31205 0
M  V30 7214 H 661.086 0.766842 3.84222 0
M  V30 7215 H 662.783 1.15817 3.83911 0
M  V30 7216 H 659.373 2.53889 3.45309 0
M  V30 7217 H 663.557 3.51847 3.50025 0
M  V30 7218 H 658.813 4.92655 3.62079 0
M  V30 7219 H 662.987 5.91208 3.68029 0
M  V30 7220 H 660.614 6.62045 3.73632 0
M  V30 7221 N 662.189 -1.289 0.906776 0
M  V30 7222 C 663.119 -2.29932 0.406659 0
M  V30 7223 C 664.1 -1.6189 -0.522061 0
M  V30 7224 O 665.285 -1.8935 -0.431283 0
M  V30 7225 C 662.415 -3.45425 -0.360366 0
M  V30 7226 C 661.369 -4.25316 0.478574 0
M  V30 7227 C 660.695 -5.33076 -0.416373 0
M  V30 7228 C 661.995 -4.92739 1.7322 0
M  V30 7229 H 663.689 -2.72013 1.25097 0
M  V30 7230 H 661.235 -1.30768 0.602977 0
M  V30 7231 H 663.188 -4.15186 -0.721029 0
M  V30 7232 H 661.912 -3.02206 -1.23852 0
M  V30 7233 H 660.571 -3.57273 0.821662 0
M  V30 7234 H 660.219 -4.86101 -1.29287 0
M  V30 7235 H 659.919 -5.8743 0.141309 0
M  V30 7236 H 661.443 -6.05686 -0.773072 0
M  V30 7237 H 662.857 -5.54898 1.44086 0
M  V30 7238 H 661.254 -5.57057 2.23175 0
M  V30 7239 H 662.324 -4.17625 2.46408 0
M  V30 7240 N 663.667 -0.670007 -1.42649 0
M  V30 7241 C 664.895 -0.19854 -2.05945 0
M  V30 7242 C 665.31 1.14243 -1.50313 0
M  V30 7243 O 664.667 1.70872 -0.641027 0
M  V30 7244 C 664.718 -0.11966 -3.61302 0
M  V30 7245 O 664.439 -1.40764 -4.1487 0
M  V30 7246 C 665.94 0.375878 -4.41704 0
M  V30 7247 H 663.16 -0.0976894 -0.663851 0
M  V30 7248 H 665.704 -0.915392 -1.82868 0
M  V30 7249 H 663.859 0.547851 -3.83507 0
M  V30 7250 H 664.273 -1.27784 -5.08696 0
M  V30 7251 H 665.747 0.379988 -5.50691 0
M  V30 7252 H 666.224 1.41028 -4.15942 0
M  V30 7253 H 666.83 -0.259727 -4.24506 0
M  V30 7254 N 665.145 1.52092 -0.413018 0
M  V30 7255 C 666.37 2.06756 0.163338 0
M  V30 7256 C 666.795 1.28073 1.37764 0
M  V30 7257 O 666.153 0.312015 1.78595 0
M  V30 7258 C 666.201 3.57278 0.488322 0
M  V30 7259 O 665.305 3.80986 1.57871 0
M  V30 7260 H 664.646 0.663882 0.0125068 0
M  V30 7261 H 667.176 1.95988 -0.587339 0
M  V30 7262 H 667.186 4.01125 0.745836 0
M  V30 7263 H 665.861 4.13978 -0.399327 0
M  V30 7264 H 664.438 3.49017 1.31306 0
M  V30 7265 N 666.623 0.143563 1.56945 0
M  V30 7266 C 667.872 -0.50835 1.95189 0
M  V30 7267 C 668.185 -1.66239 1.03073 0
M  V30 7268 O 669.391 -2.3787 1.30882 0
M  V30 7269 C 667.847 -0.955735 3.46978 0
M  V30 7270 C 667.455 0.171183 4.47673 0
M  V30 7271 C 669.199 -1.57763 3.94095 0
M  V30 7272 C 667.106 -0.294279 5.90667 0
M  V30 7273 H 666.036 -0.193679 0.728701 0
M  V30 7274 H 668.687 0.227357 1.82086 0
M  V30 7275 H 667.069 -1.7466 3.55401 0
M  V30 7276 H 668.243 0.948049 4.50942 0
M  V30 7277 H 666.558 0.701273 4.10452 0
M  V30 7278 H 669.155 -1.93745 4.98364 0
M  V30 7279 H 669.498 -2.46531 3.35452 0
M  V30 7280 H 670.031 -0.851728 3.88575 0
M  V30 7281 H 666.77 0.557939 6.53121 0
M  V30 7282 H 666.29 -1.0371 5.90766 0
M  V30 7283 H 667.969 -0.747426 6.42668 0
M  V30 7284 N 668.101 -1.57061 -0.130224 0
M  V30 7285 C 669.031 -2.02552 -1.16168 0
M  V30 7286 C 670.012 -0.907971 -1.4384 0
M  V30 7287 O 671.197 -1.17693 -1.54473 0
M  V30 7288 C 668.327 -2.42035 -2.49071 0
M  V30 7289 C 667.281 -3.5713 -2.35886 0
M  V30 7290 C 666.607 -3.82478 -3.7365 0
M  V30 7291 C 667.907 -4.89236 -1.8288 0
M  V30 7292 H 669.601 -2.8897 -0.783359 0
M  V30 7293 H 667.147 -1.39021 -0.375376 0
M  V30 7294 H 669.1 -2.72462 -3.21469 0
M  V30 7295 H 667.824 -1.52573 -2.88771 0
M  V30 7296 H 666.483 -3.26895 -1.65938 0
M  V30 7297 H 666.131 -2.9024 -4.10816 0
M  V30 7298 H 665.831 -4.59944 -3.65685 0
M  V30 7299 H 667.355 -4.15347 -4.47571 0
M  V30 7300 H 668.769 -5.18272 -2.45085 0
M  V30 7301 H 667.166 -5.70624 -1.85763 0
M  V30 7302 H 668.236 -4.78494 -0.785571 0
M  V30 7303 N 669.579 0.400081 -1.52437 0
M  V30 7304 C 670.511 1.50729 -1.72666 0
M  V30 7305 C 671.524 1.51058 -0.607075 0
M  V30 7306 O 672.713 1.5516 -0.88248 0
M  V30 7307 C 669.813 2.89604 -1.76019 0
M  V30 7308 C 668.986 3.13365 -3.05157 0
M  V30 7309 C 668.045 4.32163 -3.00203 0
M  V30 7310 O 667.071 4.29004 -3.74092 0
M  V30 7311 N 668.273 5.3776 -2.18619 0
M  V30 7312 H 671.038 1.33767 -2.68191 0
M  V30 7313 H 668.599 0.58948 -1.50787 0
M  V30 7314 H 670.591 3.67159 -1.70225 0
M  V30 7315 H 669.161 2.99979 -0.879284 0
M  V30 7316 H 668.381 2.23774 -3.24529 0
M  V30 7317 H 669.669 3.26089 -3.90568 0
M  V30 7318 H 669.067 5.43177 -1.58035 0
M  V30 7319 H 667.624 6.14023 -2.18674 0
M  V30 7320 N 671.057 1.43213 0.657864 0
M  V30 7321 C 672.005 1.48271 1.79216 0
M  V30 7322 C 672.999 0.35675 1.65601 0
M  V30 7323 O 674.205 0.530535 1.72004 0
M  V30 7324 H 670.58 0.464729 0.591211 0
M  V30 7325 H 672.551 2.43792 1.7207 0
M  V30 7326 C 671.3 1.41837 3.17455 0
M  V30 7327 H 670.623 2.27781 3.28567 0
M  V30 7328 H 672.063 1.49438 3.96793 0
M  V30 7329 C 670.522 0.135347 3.36628 0
M  V30 7330 O 671.052 -0.805199 3.93547 0
M  V30 7331 N 669.258 0.0470316 2.90562 0
M  V30 7332 H 668.805 0.813221 2.44427 0
M  V30 7333 H 668.763 -0.810737 3.03767 0
M  V30 7334 N 672.536 -0.895792 1.29666 0
M  V30 7335 C 673.783 -1.64664 1.17864 0
M  V30 7336 C 674.111 -1.92631 -0.26902 0
M  V30 7337 O 673.366 -1.53787 -1.21029 0
M  V30 7338 C 673.665 -3.00075 1.94139 0
M  V30 7339 C 673.331 -2.91702 3.43833 0
M  V30 7340 C 671.993 -2.89126 3.84656 0
M  V30 7341 C 674.345 -2.80622 4.39205 0
M  V30 7342 C 671.673 -2.73293 5.1916 0
M  V30 7343 C 674.025 -2.66329 5.73805 0
M  V30 7344 C 672.689 -2.62121 6.1388 0
M  V30 7345 H 671.959 -0.602549 0.431295 0
M  V30 7346 H 674.606 -1.04234 1.60648 0
M  V30 7347 H 672.911 -3.64394 1.43958 0
M  V30 7348 H 674.608 -3.57111 1.82408 0
M  V30 7349 H 671.198 -2.94511 3.11386 0
M  V30 7350 H 675.382 -2.81686 4.08615 0
M  V30 7351 H 670.638 -2.68443 5.49316 0
M  V30 7352 H 674.812 -2.56727 6.47352 0
M  V30 7353 H 672.439 -2.49611 7.18052 0
M  V30 7354 N 674.014 -1.12206 -1.10668 0
M  V30 7355 C 674.962 -0.782918 -2.19028 0
M  V30 7356 C 675.956 0.229175 -1.67843 0
M  V30 7357 O 677.162 0.0876295 -1.79787 0
M  V30 7358 H 673.537 -0.235339 -0.714227 0
M  V30 7359 H 675.508 -1.70527 -2.44874 0
M  V30 7360 C 674.257 -0.25116 -3.46792 0
M  V30 7361 H 673.58 -1.02123 -3.86537 0
M  V30 7362 H 675.02 -0.0521409 -4.23968 0
M  V30 7363 C 673.479 1.02037 -3.21076 0
M  V30 7364 O 674.009 2.09862 -3.42522 0
M  V30 7365 N 672.215 0.946348 -2.74759 0
M  V30 7366 H 671.762 0.068777 -2.57508 0
M  V30 7367 H 671.72 1.79775 -2.57931 0
M  V30 7368 N 675.492 1.28418 -0.913599 0
M  V30 7369 C 676.422 2.29713 -0.418847 0
M  V30 7370 C 677.403 1.62165 0.513469 0
M  V30 7371 O 678.588 1.89576 0.421235 0
M  V30 7372 C 675.718 3.45612 0.342042 0
M  V30 7373 C 674.672 4.25056 -0.501123 0
M  V30 7374 C 673.998 5.3329 0.388097 0
M  V30 7375 C 675.298 4.91814 -1.75831 0
M  V30 7376 H 676.992 2.71346 -1.26538 0
M  V30 7377 H 674.538 1.30446 -0.609903 0
M  V30 7378 H 676.491 4.15562 0.699 0
M  V30 7379 H 675.215 3.02858 1.22248 0
M  V30 7380 H 673.874 3.56833 -0.840598 0
M  V30 7381 H 673.522 4.8678 1.26707 0
M  V30 7382 H 673.222 5.87347 -0.172459 0
M  V30 7383 H 674.746 6.06088 0.74094 0
M  V30 7384 H 676.16 5.54126 -1.47026 0
M  V30 7385 H 674.557 5.55866 -2.26126 0
M  V30 7386 H 675.627 4.16313 -2.4862 0
M  V30 7387 N 676.97 0.677563 1.42291 0
M  V30 7388 C 677.917 0.000947061 2.308 0
M  V30 7389 C 678.887 -0.789889 1.46116 0
M  V30 7390 O 680.072 -0.761578 1.74942 0
M  V30 7391 C 677.212 -0.942387 3.31984 0
M  V30 7392 C 676.325 -0.14508 4.31756 0
M  V30 7393 C 675.46 -1.08442 5.20013 0
M  V30 7394 C 674.499 -0.278958 6.11464 0
M  V30 7395 N 673.636 -1.17115 6.92263 0
M  V30 7396 H 678.476 0.761521 2.88106 0
M  V30 7397 H 676.013 0.38727 1.41911 0
M  V30 7398 H 677.971 -1.50317 3.89179 0
M  V30 7399 H 676.601 -1.66956 2.76271 0
M  V30 7400 H 675.653 0.532368 3.76656 0
M  V30 7401 H 676.965 0.48015 4.96484 0
M  V30 7402 H 676.119 -1.71504 5.81955 0
M  V30 7403 H 674.858 -1.74353 4.55469 0
M  V30 7404 H 673.863 0.364856 5.48588 0
M  V30 7405 H 675.088 0.376099 6.78058 0
M  V30 7406 H 673.034 -1.81661 6.30345 0
M  V30 7407 H 672.951 -0.601063 7.53607 0
M  V30 7408 H 674.219 -1.78915 7.58689 0
M  V30 7409 N 678.448 -1.51871 0.421078 0
M  V30 7410 C 679.673 -2.0684 -0.152371 0
M  V30 7411 C 680.098 -1.28802 -1.37083 0
M  V30 7412 O 679.456 -0.321482 -1.78427 0
M  V30 7413 C 679.504 -3.57532 -0.469368 0
M  V30 7414 O 678.608 -3.81818 -1.55848 0
M  V30 7415 H 677.949 -0.663939 -0.00898586 0
M  V30 7416 H 680.479 -1.95674 0.597724 0
M  V30 7417 H 680.489 -4.01515 -0.724553 0
M  V30 7418 H 679.164 -4.13761 0.421276 0
M  V30 7419 H 677.741 -3.49709 -1.29453 0
M  V30 7420 N 679.926 -0.151884 -1.56866 0
M  V30 7421 C 680.856 0.781943 -2.20018 0
M  V30 7422 C 681.837 1.25347 -1.14987 0
M  V30 7423 O 683.022 1.31015 -1.43348 0
M  V30 7424 C 680.152 2.01928 -2.82564 0
M  V30 7425 C 679.106 1.68434 -3.93464 0
M  V30 7426 C 678.432 2.99472 -4.42968 0
M  V30 7427 C 679.732 0.927244 -5.14003 0
M  V30 7428 H 681.426 0.255607 -2.98307 0
M  V30 7429 H 678.972 0.121502 -1.43486 0
M  V30 7430 H 680.925 2.67741 -3.25411 0
M  V30 7431 H 679.649 2.56943 -2.01614 0
M  V30 7432 H 678.308 1.04998 -3.51242 0
M  V30 7433 H 677.956 3.52488 -3.58834 0
M  V30 7434 H 677.656 2.77823 -5.17772 0
M  V30 7435 H 679.18 3.66348 -4.88489 0
M  V30 7436 H 680.594 1.48756 -5.53665 0
M  V30 7437 H 678.991 0.810513 -5.94601 0
M  V30 7438 H 680.061 -0.0801163 -4.84834 0
M  V30 7439 N 681.404 1.57128 0.121893 0
M  V30 7440 C 682.65 1.84974 0.831418 0
M  V30 7441 C 682.983 0.737204 1.79663 0
M  V30 7442 O 682.258 -0.257199 1.92792 0
M  V30 7443 C 682.541 3.23397 1.58386 0
M  V30 7444 C 682.394 4.45246 0.638445 0
M  V30 7445 C 683.713 3.59355 2.54071 0
M  V30 7446 H 680.832 0.67282 0.300803 0
M  V30 7447 H 683.474 1.89759 0.0957587 0
M  V30 7448 H 681.624 3.19449 2.21098 0
M  V30 7449 H 683.296 4.61295 0.0203925 0
M  V30 7450 H 681.539 4.33771 -0.05023 0
M  V30 7451 H 682.21 5.38765 1.20151 0
M  V30 7452 H 684.686 3.64075 2.01465 0
M  V30 7453 H 683.562 4.57193 3.03752 0
M  V30 7454 H 683.823 2.86622 3.36601 0
M  V30 7455 N 682.882 -0.391992 1.52647 0
M  V30 7456 C 684.159 -1.15136 1.58123 0
M  V30 7457 C 684.539 -2.07786 0.372597 0
M  V30 7458 O 683.887 -2.19374 -0.639304 0
M  V30 7459 C 684.097 -1.91367 2.91856 0
M  V30 7460 C 685.445 -2.46833 3.45483 0
M  V30 7461 O 686.469 -2.01527 2.9371 0
M  V30 7462 O 685.328 -3.29587 4.3593 0
M  V30 7463 H 682.422 -0.526649 0.637629 0
M  V30 7464 H 684.968 -0.397386 1.64982 0
M  V30 7465 H 683.74 -1.23597 3.71268 0
M  V30 7466 H 683.363 -2.73732 2.88369 0
M  V30 7467 N 684.36 -1.4356 -0.65026 0
M  V30 7468 C 685.771 -1.40324 -1.2315 0
M  V30 7469 C 686.122 -0.108812 -1.95898 0
M  V30 7470 O 685.247 0.79163 -2.01401 0
M  V30 7471 C 685.842 -2.54195 -2.23987 0
M  V30 7472 C 684.401 -2.54215 -2.77582 0
M  V30 7473 C 683.548 -2.31752 -1.5227 0
M  V30 7474 H 686.499 -1.52418 -0.442095 0
M  V30 7475 H 686.52 -2.25854 -3.0622 0
M  V30 7476 H 686.032 -3.48392 -1.71011 0
M  V30 7477 H 684.133 -1.63907 -3.34612 0
M  V30 7478 H 684.246 -3.52081 -3.24925 0
M  V30 7479 H 682.61 -1.80476 -1.79723 0
M  V30 7480 H 683.393 -3.28037 -1.01225 0
M  V30 7481 N 685.838 0.888903 -1.30139 0
M  V30 7482 C 686.785 1.99422 -1.16188 0
M  V30 7483 C 687.755 1.66017 -0.0523869 0
M  V30 7484 O 688.94 1.89506 -0.221864 0
M  V30 7485 C 686.08 3.34325 -0.855612 0
M  V30 7486 C 685.193 3.80445 -2.0466 0
M  V30 7487 C 684.328 5.03975 -1.67876 0
M  V30 7488 C 683.367 5.42492 -2.83493 0
M  V30 7489 N 682.504 6.57206 -2.47032 0
M  V30 7490 H 687.344 2.10687 -2.10749 0
M  V30 7491 H 684.881 1.03165 -1.04859 0
M  V30 7492 H 686.839 4.11968 -0.658681 0
M  V30 7493 H 685.469 3.22756 0.0531155 0
M  V30 7494 H 684.521 2.98745 -2.3549 0
M  V30 7495 H 685.833 4.04933 -2.91257 0
M  V30 7496 H 684.987 5.89232 -1.44535 0
M  V30 7497 H 683.726 4.8135 -0.784431 0
M  V30 7498 H 682.731 4.55764 -3.07505 0
M  V30 7499 H 683.956 5.67093 -3.73607 0
M  V30 7500 H 681.902 6.36164 -1.601 0
M  V30 7501 H 681.819 6.81543 -3.27161 0
M  V30 7502 H 683.087 7.45704 -2.27038 0
M  V30 7503 N 687.317 1.12792 1.10072 0
M  V30 7504 C 688.265 0.794523 2.18609 0
M  V30 7505 C 689.259 -0.220271 1.67962 0
M  V30 7506 O 690.465 -0.0780938 1.79831 0
M  V30 7507 H 686.84 0.239123 0.712969 0
M  V30 7508 H 688.811 1.71823 2.43966 0
M  V30 7509 C 687.56 0.269548 3.46654 0
M  V30 7510 H 686.883 1.04171 3.8599 0
M  V30 7511 H 688.323 0.0746242 4.23934 0
M  V30 7512 C 686.782 -1.00333 3.21613 0
M  V30 7513 O 687.312 -2.08042 3.4363 0
M  V30 7514 N 685.518 -0.931763 2.75257 0
M  V30 7515 H 685.065 -0.0551197 2.57541 0
M  V30 7516 H 685.023 -1.78405 2.58881 0
M  V30 7517 N 688.795 -1.27931 0.920396 0
M  V30 7518 C 689.725 -2.29487 0.431024 0
M  V30 7519 C 690.706 -1.62435 -0.504861 0
M  V30 7520 O 691.891 -1.89797 -0.411176 0
M  V30 7521 C 689.021 -3.45788 -0.323709 0
M  V30 7522 C 687.975 -4.24784 0.523658 0
M  V30 7523 C 687.301 -5.33488 -0.359809 0
M  V30 7524 C 688.601 -4.90874 1.78437 0
M  V30 7525 H 690.295 -2.70671 1.27975 0
M  V30 7526 H 687.841 -1.30121 0.616813 0
M  V30 7527 H 689.794 -4.15927 -0.676952 0
M  V30 7528 H 688.518 -3.03502 -1.2064 0
M  V30 7529 H 687.177 -3.56382 0.85951 0
M  V30 7530 H 686.825 -4.87445 -1.24124 0
M  V30 7531 H 686.525 -5.87247 0.203605 0
M  V30 7532 H 688.049 -6.06472 -0.708787 0
M  V30 7533 H 689.463 -5.53339 1.49963 0
M  V30 7534 H 687.86 -5.54659 2.29071 0
M  V30 7535 H 688.93 -4.14988 2.50824 0
M  V30 7536 N 690.273 -0.685099 -1.4193 0
M  V30 7537 C 691.55 -0.140152 -1.95097 0
M  V30 7538 C 691.93 1.34745 -1.62502 0
M  V30 7539 O 691.278 2.08872 -0.926534 0
M  V30 7540 C 691.488 -0.420268 -3.4646 0
M  V30 7541 C 692.836 -0.342338 -4.23218 0
M  V30 7542 O 693.86 -0.354592 -3.54431 0
M  V30 7543 O 692.719 -0.293404 -5.45712 0
M  V30 7544 H 689.813 -0.00885998 -0.826953 0
M  V30 7545 H 692.359 -0.760539 -1.51703 0
M  V30 7546 H 691.131 -1.45037 -3.63428 0
M  V30 7547 H 690.754 0.231616 -3.96925 0
M  V30 7548 N 691.751 1.51645 -0.429126 0
M  V30 7549 C 692.979 2.06433 0.138994 0
M  V30 7550 C 693.394 1.29735 1.37165 0
M  V30 7551 O 692.751 0.354638 1.79021 0
M  V30 7552 C 692.802 3.58439 0.469452 0
M  V30 7553 O 692.523 4.32238 -0.714273 0
M  V30 7554 C 694.024 4.29712 1.08914 0
M  V30 7555 H 691.244 0.6709 0.0115608 0
M  V30 7556 H 693.788 1.9532 -0.605843 0
M  V30 7557 H 691.943 3.69494 1.16419 0
M  V30 7558 H 692.357 5.22704 -0.433633 0
M  V30 7559 H 693.831 5.37182 1.27042 0
M  V30 7560 H 694.308 3.87473 2.06788 0
M  V30 7561 H 694.914 4.2308 0.434028 0
M  V30 7562 N 693.229 0.160201 1.56784 0
M  V30 7563 C 694.457 -0.494165 2.00912 0
M  V30 7564 C 694.872 -1.57548 1.04038 0
M  V30 7565 O 694.229 -1.82457 0.0394581 0
M  V30 7566 C 694.28 -1.08271 3.44905 0
M  V30 7567 O 694.001 -0.0445704 4.38077 0
M  V30 7568 C 695.502 -1.8164 4.04378 0
M  V30 7569 H 692.722 -0.127498 0.658776 0
M  V30 7570 H 695.266 0.258665 2.02858 0
M  V30 7571 H 693.421 -1.78609 3.4377 0
M  V30 7572 H 693.835 -0.477544 5.22322 0
M  V30 7573 H 695.309 -2.18094 5.07089 0
M  V30 7574 H 695.786 -2.70727 3.45838 0
M  V30 7575 H 696.392 -1.15969 4.09184 0
M  V30 7576 N 694.707 -1.5719 -0.113559 0
M  V30 7577 C 696.118 -1.74259 -0.670116 0
M  V30 7578 C 696.469 -0.779694 -1.80042 0
M  V30 7579 O 695.594 0.0461353 -2.16351 0
M  V30 7580 C 696.189 -3.15981 -1.22236 0
M  V30 7581 C 694.748 -3.34537 -1.72516 0
M  V30 7582 C 693.895 -2.70116 -0.627098 0
M  V30 7583 H 696.846 -1.58301 0.112396 0
M  V30 7584 H 696.867 -3.17832 -2.09197 0
M  V30 7585 H 696.379 -3.86038 -0.39949 0
M  V30 7586 H 694.48 -2.6953 -2.57263 0
M  V30 7587 H 694.593 -4.42737 -1.83086 0
M  V30 7588 H 692.957 -2.31501 -1.06204 0
M  V30 7589 H 693.74 -3.42802 0.184889 0
M  V30 7590 N 696.185 0.383891 -1.52853 0
M  V30 7591 C 697.431 1.13009 -1.68395 0
M  V30 7592 C 697.764 1.89488 -0.425195 0
M  V30 7593 O 697.039 1.8574 0.577136 0
M  V30 7594 C 697.322 2.10419 -2.92226 0
M  V30 7595 C 697.175 1.3767 -4.28214 0
M  V30 7596 C 698.494 3.10781 -3.11614 0
M  V30 7597 H 695.613 0.409463 -0.612788 0
M  V30 7598 H 698.255 0.412895 -1.85459 0
M  V30 7599 H 696.405 2.71579 -2.77808 0
M  V30 7600 H 698.077 0.794352 -4.54409 0
M  V30 7601 H 696.32 0.678533 -4.2846 0
M  V30 7602 H 696.991 2.08874 -5.10956 0
M  V30 7603 H 699.467 2.59715 -3.25096 0
M  V30 7604 H 698.343 3.76179 -3.99725 0
M  V30 7605 H 698.604 3.79933 -2.2606 0
M  V30 7606 N 697.663 1.43903 0.642637 0
M  V30 7607 C 698.909 1.46296 1.40447 0
M  V30 7608 C 699.242 0.0908361 1.93987 0
M  V30 7609 O 698.517 -0.889884 1.72949 0
M  V30 7610 C 698.8 2.51399 2.57819 0
M  V30 7611 C 698.653 3.97926 2.09702 0
M  V30 7612 C 699.972 2.53125 3.60022 0
M  V30 7613 H 697.091 0.532676 0.509338 0
M  V30 7614 H 699.733 1.75515 0.727635 0
M  V30 7615 H 697.883 2.26614 3.1556 0
M  V30 7616 H 699.555 4.33804 1.5688 0
M  V30 7617 H 697.798 4.10252 1.40982 0
M  V30 7618 H 698.469 4.67096 2.94152 0
M  V30 7619 H 700.945 2.75242 3.12059 0
M  V30 7620 H 699.821 3.28589 4.39682 0
M  V30 7621 H 700.082 1.56895 4.13324 0
M  V30 7622 N 699.141 -0.881989 1.30609 0
M  V30 7623 C 700.089 -2.00942 1.17155 0
M  V30 7624 C 701.083 -1.69198 0.0827154 0
M  V30 7625 O 702.289 -1.78342 0.243775 0
M  V30 7626 H 698.664 -0.658913 0.362406 0
M  V30 7627 H 700.635 -2.09423 2.12567 0
M  V30 7628 C 699.384 -3.36294 0.883273 0
M  V30 7629 H 698.707 -3.61233 1.7132 0
M  V30 7630 H 700.147 -4.15812 0.829255 0
M  V30 7631 C 698.606 -3.34348 -0.413851 0
M  V30 7632 O 699.136 -3.75216 -1.43444 0
M  V30 7633 N 697.342 -2.87459 -0.426082 0
M  V30 7634 H 696.889 -2.54397 0.40493 0
M  V30 7635 H 696.847 -2.8654 -1.29391 0
M  V30 7636 N 700.619 -1.13374 -1.09472 0
M  V30 7637 C 701.867 -0.893422 -1.8128 0
M  V30 7638 C 702.188 0.582029 -1.86111 0
M  V30 7639 O 701.458 1.42305 -1.34633 0
M  V30 7640 H 700.038 -0.327543 -0.67136 0
M  V30 7641 H 702.7 -1.43018 -1.32408 0
M  V30 7642 H 701.796 -1.28374 -2.84476 0
M  V30 7643 N 702.098 1.27442 -0.927168 0
M  V30 7644 C 703.345 1.94391 -0.567324 0
M  V30 7645 C 703.673 1.72875 0.891321 0
M  V30 7646 O 702.928 1.05071 1.65102 0
M  V30 7647 C 703.227 3.47413 -0.838994 0
M  V30 7648 C 702.893 3.89049 -2.2793 0
M  V30 7649 C 701.555 4.00127 -2.67305 0
M  V30 7650 C 703.907 4.10154 -3.21595 0
M  V30 7651 C 701.235 4.29697 -3.99471 0
M  V30 7652 C 703.587 4.41208 -4.53341 0
M  V30 7653 C 702.251 4.50499 -4.92551 0
M  V30 7654 H 701.521 0.711325 -0.207598 0
M  V30 7655 H 704.168 1.51523 -1.17103 0
M  V30 7656 H 702.473 3.91503 -0.152609 0
M  V30 7657 H 704.17 3.97354 -0.53955 0
M  V30 7658 H 700.76 3.80962 -1.96381 0
M  V30 7659 H 704.944 4.01036 -2.92377 0
M  V30 7660 H 700.2 4.35099 -4.29533 0
M  V30 7661 H 704.374 4.56486 -5.25922 0
M  V30 7662 H 702.001 4.73167 -5.94994 0
M  V30 7663 N 703.576 0.692616 1.41565 0
M  V30 7664 C 704.539 0.0344174 2.29174 0
M  V30 7665 C 705.539 -0.710961 1.44229 0
M  V30 7666 O 706.729 -0.546293 1.65412 0
M  V30 7667 C 703.861 -0.961682 3.27054 0
M  V30 7668 H 705.054 0.805755 2.88873 0
M  V30 7669 H 702.607 0.455947 1.49502 0
M  V30 7670 H 703.342 -1.76089 2.72329 0
M  V30 7671 H 703.127 -0.430375 3.89731 0
M  V30 7672 H 704.617 -1.4201 3.92712 0
M  V30 7673 N 705.054 -1.51416 0.437162 0
M  V30 7674 C 706.279 -2.0699 -0.130424 0
M  V30 7675 C 706.704 -1.30249 -1.35709 0
M  V30 7676 O 706.062 -0.340388 -1.78076 0
M  V30 7677 C 706.11 -3.5801 -0.43142 0
M  V30 7678 O 705.214 -3.8345 -1.5179 0
M  V30 7679 H 704.555 -0.663997 -0.00194339 0
M  V30 7680 H 707.085 -1.95029 0.618445 0
M  V30 7681 H 707.095 -4.02261 -0.681926 0
M  V30 7682 H 705.77 -4.13291 0.465137 0
M  V30 7683 H 704.347 -3.51062 -1.25737 0
M  V30 7684 N 706.532 -0.168513 -1.56696 0
M  V30 7685 C 707.778 0.477865 -1.9709 0
M  V30 7686 C 708.111 1.63084 -1.05438 0
M  V30 7687 O 707.386 1.94238 -0.10095 0
M  V30 7688 C 707.669 0.963521 -3.4697 0
M  V30 7689 C 707.522 -0.189443 -4.49401 0
M  V30 7690 C 708.841 1.83813 -3.99876 0
M  V30 7691 H 705.96 0.172229 -0.716593 0
M  V30 7692 H 708.602 -0.254083 -1.88293 0
M  V30 7693 H 706.752 1.58724 -3.54597 0
M  V30 7694 H 708.424 -0.826451 -4.53836 0
M  V30 7695 H 706.667 -0.845366 -4.25483 0
M  V30 7696 H 707.338 0.192446 -5.51664 0
M  V30 7697 H 709.814 1.31235 -3.94863 0
M  V30 7698 H 708.69 2.14697 -5.0517 0
M  V30 7699 H 708.951 2.78289 -3.43523 0
M  V30 7700 N 708.01 1.57248 0.105221 0
M  V30 7701 C 709.421 1.74612 0.660865 0
M  V30 7702 C 709.772 0.789231 1.79626 0
M  V30 7703 O 708.897 -0.0346611 2.16372 0
M  V30 7704 C 709.492 3.16624 1.20559 0
M  V30 7705 C 708.051 3.35447 1.7074 0
M  V30 7706 C 707.198 2.70445 0.612764 0
M  V30 7707 H 710.149 1.5824 -0.12079 0
M  V30 7708 H 710.17 3.18937 2.07508 0
M  V30 7709 H 709.682 3.86245 0.379012 0
M  V30 7710 H 707.783 2.7089 2.5583 0
M  V30 7711 H 707.896 4.43702 1.80736 0
M  V30 7712 H 706.26 2.32061 1.04975 0
M  V30 7713 H 707.043 3.42699 -0.203066 0
M  V30 7714 N 709.488 -0.375779 1.53054 0
M  V30 7715 C 710.899 -0.95309 1.6054 0
M  V30 7716 C 711.25 -1.90575 0.466446 0
M  V30 7717 O 710.375 -2.12507 -0.408609 0
M  V30 7718 C 710.97 -1.73537 2.90982 0
M  V30 7719 C 709.529 -2.26218 3.00836 0
M  V30 7720 C 708.676 -1.07157 2.55759 0
M  V30 7721 H 711.627 -0.154895 1.57942 0
M  V30 7722 H 711.648 -2.59574 2.78211 0
M  V30 7723 H 711.16 -1.04176 3.73857 0
M  V30 7724 H 709.261 -2.98852 2.22527 0
M  V30 7725 H 709.374 -2.54799 4.05727 0
M  V30 7726 H 707.738 -1.43553 2.10391 0
M  V30 7727 H 708.521 -0.393099 3.41042 0
M  V30 7728 N 710.966 -1.44241 -0.634997 0
M  V30 7729 C 712.213 -1.46821 -1.39463 0
M  V30 7730 C 712.541 -0.0993362 -1.94246 0
M  V30 7731 O 711.796 0.898325 -1.73864 0
M  V30 7732 C 712.095 -2.47279 -2.58046 0
M  V30 7733 C 711.761 -3.92703 -2.21574 0
M  V30 7734 C 710.423 -4.32306 -2.1134 0
M  V30 7735 C 712.775 -4.84271 -1.92695 0
M  V30 7736 C 710.103 -5.61407 -1.70409 0
M  V30 7737 C 712.455 -6.13755 -1.53258 0
M  V30 7738 C 711.119 -6.52316 -1.41562 0
M  V30 7739 H 710.389 -0.537256 -0.51033 0
M  V30 7740 H 713.036 -1.77431 -0.720441 0
M  V30 7741 H 711.341 -2.10138 -3.3068 0
M  V30 7742 H 713.038 -2.46523 -3.16271 0
M  V30 7743 H 709.628 -3.61369 -2.30456 0
M  V30 7744 H 713.812 -4.54432 -1.99513 0
M  V30 7745 H 709.068 -5.90105 -1.59955 0
M  V30 7746 H 713.242 -6.84168 -1.29949 0
M  V30 7747 H 710.869 -7.52255 -1.09619 0
M  V30 7748 N 712.444 0.87505 -1.31075 0
M  V30 7749 C 713.674 1.65818 -1.2324 0
M  V30 7750 C 714.082 1.8808 0.205536 0
M  V30 7751 O 713.425 1.43548 1.14628 0
M  V30 7752 C 713.487 3.05131 -1.90093 0
M  V30 7753 C 713.151 3.05999 -3.39432 0
M  V30 7754 C 714.148 2.84328 -4.35263 0
M  V30 7755 C 711.833 3.27281 -3.81041 0
M  V30 7756 C 713.827 2.83912 -5.70678 0
M  V30 7757 C 711.514 3.26493 -5.16571 0
M  V30 7758 C 712.512 3.04834 -6.112 0
M  V30 7759 O 712.2 3.03882 -7.44252 0
M  V30 7760 H 711.932 0.52387 -0.427242 0
M  V30 7761 H 714.486 1.10086 -1.73408 0
M  V30 7762 H 712.716 3.62568 -1.34468 0
M  V30 7763 H 714.405 3.65641 -1.76242 0
M  V30 7764 H 715.171 2.67673 -4.04445 0
M  V30 7765 H 711.05 3.43171 -3.07822 0
M  V30 7766 H 714.594 2.66925 -6.44513 0
M  V30 7767 H 710.491 3.42687 -5.47025 0
M  V30 7768 H 711.259 3.19979 -7.53363 0
M  V30 7769 N 713.922 1.13953 1.08869 0
M  V30 7770 C 714.854 0.779906 2.15523 0
M  V30 7771 C 715.867 -0.20102 1.61554 0
M  V30 7772 O 717.056 0.0200049 1.78489 0
M  V30 7773 C 714.156 0.136226 3.38626 0
M  V30 7774 C 713.329 1.15069 4.21993 0
M  V30 7775 C 712.388 0.531645 5.23507 0
M  V30 7776 O 711.414 1.19327 5.56552 0
M  V30 7777 N 712.616 -0.693734 5.7634 0
M  V30 7778 H 715.381 1.69769 2.46979 0
M  V30 7779 H 712.942 1.03331 1.24637 0
M  V30 7780 H 714.934 -0.290295 4.03658 0
M  V30 7781 H 713.504 -0.684603 3.05011 0
M  V30 7782 H 712.724 1.75431 3.53012 0
M  V30 7783 H 714.012 1.83614 4.74514 0
M  V30 7784 H 713.41 -1.24994 5.51718 0
M  V30 7785 H 711.967 -1.06283 6.43076 0
M  V30 7786 N 715.4 -1.26948 0.933913 0
M  V30 7787 C 716.33 -2.29017 0.45534 0
M  V30 7788 C 717.311 -1.62961 -0.487605 0
M  V30 7789 O 718.496 -1.90223 -0.391022 0
M  V30 7790 C 715.626 -3.46112 -0.287015 0
M  V30 7791 C 714.58 -4.24205 0.568682 0
M  V30 7792 C 713.906 -5.3384 -0.303206 0
M  V30 7793 C 715.206 -4.88954 1.83633 0
M  V30 7794 H 716.9 -2.69298 1.30839 0
M  V30 7795 H 714.446 -1.29459 0.630579 0
M  V30 7796 H 716.399 -4.16622 -0.6328 0
M  V30 7797 H 715.123 -3.04765 -1.17414 0
M  V30 7798 H 713.782 -3.5545 0.897261 0
M  V30 7799 H 713.43 -4.88734 -1.18947 0
M  V30 7800 H 713.13 -5.86998 0.265879 0
M  V30 7801 H 714.654 -6.0719 -0.644423 0
M  V30 7802 H 716.068 -5.51717 1.55823 0
M  V30 7803 H 714.465 -5.52198 2.34941 0
M  V30 7804 H 715.535 -4.12305 2.55211 0
M  V30 7805 N 716.879 -0.700114 -1.41195 0
M  V30 7806 C 718.119 -0.237223 -2.03019 0
M  V30 7807 C 718.483 1.14304 -1.54268 0
M  V30 7808 O 719.684 1.70204 -2.08048 0
M  V30 7809 C 717.955 -0.297442 -3.5616 0
M  V30 7810 S 719.514 0.0907367 -4.38706 0
M  V30 7811 H 716.332 -0.0952147 -0.704596 0
M  V30 7812 H 718.934 -0.918901 -1.72559 0
M  V30 7813 H 717.638 -1.30391 -3.89135 0
M  V30 7814 H 717.169 0.403233 -3.91328 0
M  V30 7815 H 719.184 1.31721 -4.78397 0
M  V30 7816 N 718.357 1.51182 -0.445186 0
M  V30 7817 C 719.604 2.02152 0.118645 0
M  V30 7818 C 719.932 1.32888 1.42025 0
M  V30 7819 O 719.187 0.435041 1.90803 0
M  V30 7820 C 719.486 3.55408 0.376797 0
M  V30 7821 C 719.152 4.43008 -0.839945 0
M  V30 7822 C 717.814 4.66669 -1.17361 0
M  V30 7823 C 720.166 4.9435 -1.65127 0
M  V30 7824 C 717.494 5.38919 -2.31913 0
M  V30 7825 C 719.846 5.67857 -2.78786 0
M  V30 7826 C 718.51 5.89779 -3.12597 0
M  V30 7827 H 717.78 0.739727 0.0434152 0
M  V30 7828 H 720.427 1.82055 -0.593984 0
M  V30 7829 H 718.732 3.73879 1.1714 0
M  V30 7830 H 720.429 3.92388 0.826602 0
M  V30 7831 H 717.019 4.24793 -0.569958 0
M  V30 7832 H 721.203 4.75947 -1.4067 0
M  V30 7833 H 716.459 5.54105 -2.58413 0
M  V30 7834 H 720.633 6.06628 -3.42017 0
M  V30 7835 H 718.26 6.45542 -4.01471 0
M  V30 7836 N 719.835 0.176821 1.56605 0
M  V30 7837 C 721.084 -0.466833 1.96223 0
M  V30 7838 C 721.397 -1.64015 1.06576 0
M  V30 7839 O 722.603 -2.3504 1.35898 0
M  V30 7840 C 721.059 -0.881921 3.48927 0
M  V30 7841 C 720.667 0.266102 4.47209 0
M  V30 7842 C 722.411 -1.49368 3.97353 0
M  V30 7843 C 720.318 -0.168923 5.91159 0
M  V30 7844 H 719.248 -0.178178 0.732645 0
M  V30 7845 H 721.899 0.265929 1.81563 0
M  V30 7846 H 720.281 -1.67082 3.59026 0
M  V30 7847 H 721.455 1.04349 4.4883 0
M  V30 7848 H 719.77 0.788178 4.08872 0
M  V30 7849 H 722.367 -1.8313 5.02362 0
M  V30 7850 H 722.71 -2.3936 3.40606 0
M  V30 7851 H 723.243 -0.769114 3.90294 0
M  V30 7852 H 719.982 0.696351 6.51791 0
M  V30 7853 H 719.502 -0.911552 5.92833 0
M  V30 7854 H 721.181 -0.610938 6.44109 0
M  V30 7855 N 721.313 -1.57302 -0.09688 0
M  V30 7856 C 722.724 -1.7496 -0.651595 0
M  V30 7857 C 723.075 -0.798746 -1.79205 0
M  V30 7858 O 722.2 0.0231858 -2.16388 0
M  V30 7859 C 722.795 -3.17259 -1.18878 0
M  V30 7860 C 721.354 -3.36348 -1.68958 0
M  V30 7861 C 720.501 -2.70766 -0.598413 0
M  V30 7862 H 723.452 -1.58173 0.12918 0
M  V30 7863 H 723.473 -3.20033 -2.05814 0
M  V30 7864 H 722.985 -3.8644 -0.358523 0
M  V30 7865 H 721.086 -2.72243 -2.5439 0
M  V30 7866 H 721.199 -4.44654 -1.7838 0
M  V30 7867 H 719.563 -2.32615 -1.03743 0
M  V30 7868 H 720.346 -3.42586 0.221238 0
M  V30 7869 N 722.791 0.367657 -1.53252 0
M  V30 7870 C 724.037 1.11216 -1.69584 0
M  V30 7871 C 724.37 1.89026 -0.445269 0
M  V30 7872 O 723.645 1.86342 0.557404 0
M  V30 7873 C 723.928 2.07308 -2.94441 0
M  V30 7874 C 723.781 1.3312 -4.2965 0
M  V30 7875 C 725.1 3.07459 -3.14892 0
M  V30 7876 H 722.219 0.40294 -0.617096 0
M  V30 7877 H 724.861 0.393201 -1.85887 0
M  V30 7878 H 723.011 2.68617 -2.80673 0
M  V30 7879 H 724.683 0.746111 -4.55226 0
M  V30 7880 H 722.926 0.633051 -4.29156 0
M  V30 7881 H 723.597 2.03443 -5.13142 0
M  V30 7882 H 726.073 2.56252 -3.27832 0
M  V30 7883 H 724.949 3.71919 -4.03693 0
M  V30 7884 H 725.21 3.77514 -2.30077 0
M  V30 7885 O 724.308 1.53115 0.51363 0
M  V30 7886 H 724.999 1.54476 1.16863 0
M  V30 END ATOM
M  V30 BEGIN BOND
M  V30 END BOND
M  V30 END CTAB
M  END
$$$$
