drugbank_target|P49721 Proteasome subunit beta type-2 (DB08515; DB08889)
 OpenBabel12092120093D

  0  0  0     0  0            999 V3000
M  V30 BEGIN CTAB
M  V30 COUNTS 3216 3249 0 0 0
M  V30 BEGIN ATOM
M  V30 1 H -0.908 1.98254 -0.117106 0
M  V30 2 N 0 1.576 0 0
M  V30 3 C 0.933 2.03868 1.02534 0
M  V30 4 C 1.911 0.928543 1.3348 0
M  V30 5 O 3.095 1.19667 1.45644 0
M  V30 6 C 0.222 2.43627 2.35294 0
M  V30 7 C -0.732 3.65373 2.2001 0
M  V30 8 S 0.101 5.13292 1.52614 0
M  V30 9 C 1.257 5.56322 2.86805 0
M  V30 10 H 1.49 2.90518 0.631377 0
M  V30 11 H -0.977 1.52953 0.210867 0
M  V30 12 H 0.981 2.67203 3.11629 0
M  V30 13 H -0.358 1.57376 2.7183 0
M  V30 14 H -1.165 3.90944 3.18086 0
M  V30 15 H -1.563 3.418 1.51819 0
M  V30 16 H 0.729 5.58782 3.83104 0
M  V30 17 H 1.672 6.56266 2.65933 0
M  V30 18 H 2.08 4.83886 2.90714 0
M  V30 19 N 1.4781 -0.272755 1.55222 0
M  V30 20 C 2.3881 -1.35918 1.91216 0
M  V30 21 C 3.4041 -1.54026 0.809436 0
M  V30 22 O 4.5801 -1.68148 1.10852 0
M  V30 23 C 1.6451 -2.69834 2.17693 0
M  V30 24 C 0.7061 -2.6047 3.41253 0
M  V30 25 C -0.0609 -3.88 3.66458 0
M  V30 26 O 0.1621 -4.88693 2.94169 0
M  V30 27 O -0.9039 -3.88189 4.59992 0
M  V30 28 H 2.9221 -1.0839 2.83699 0
M  V30 29 H 0.5071 -0.471301 1.41771 0
M  V30 30 H 2.3891 -3.49017 2.36147 0
M  V30 31 H 1.0641 -2.97148 1.28392 0
M  V30 32 H -0.0289 -1.79663 3.28134 0
M  V30 33 H 1.3041 -2.38106 4.30774 0
M  V30 34 N 2.9562 -1.48159 -0.537278 0
M  V30 35 C 4.1862 -1.59223 -1.3165 0
M  V30 36 C 4.5942 -0.248849 -1.87556 0
M  V30 37 O 3.9372 0.770949 -1.6674 0
M  V30 38 C 3.9992 -2.57365 -2.51005 0
M  V30 39 C 3.6632 -4.02603 -2.16239 0
M  V30 40 C 4.6602 -4.90503 -1.72344 0
M  V30 41 C 2.3452 -4.48088 -2.26986 0
M  V30 42 C 4.3392 -6.21913 -1.39651 0
M  V30 43 C 2.0262 -5.7952 -1.93906 0
M  V30 44 C 3.0242 -6.66255 -1.50309 0
M  V30 45 O 2.7122 -7.95243 -1.17659 0
M  V30 46 H 2.4442 -0.539831 -0.406889 0
M  V30 47 H 4.9982 -1.94655 -0.655641 0
M  V30 48 H 3.2282 -2.1704 -3.20048 0
M  V30 49 H 4.9172 -2.58342 -3.13072 0
M  V30 50 H 5.6832 -4.56604 -1.63517 0
M  V30 51 H 1.5622 -3.80769 -2.59877 0
M  V30 52 H 5.1062 -6.89569 -1.0555 0
M  V30 53 H 1.0032 -6.12957 -2.02371 0
M  V30 54 H 1.7712 -8.0793 -1.31119 0
M  V30 55 N 4.4343 0.785586 -1.36625 0
M  V30 56 C 5.3643 1.91259 -1.33949 0
M  V30 57 C 6.3453 1.68795 -0.210325 0
M  V30 58 O 7.5303 1.89854 -0.408561 0
M  V30 59 C 4.6603 3.28339 -1.13186 0
M  V30 60 C 3.6143 3.65335 -2.22967 0
M  V30 61 C 2.9403 5.00806 -1.87342 0
M  V30 62 C 4.2403 3.7352 -3.65075 0
M  V30 63 H 5.9343 1.93755 -2.28253 0
M  V30 64 H 3.4803 0.930788 -1.09874 0
M  V30 65 H 5.4333 4.06804 -1.09948 0
M  V30 66 H 4.1573 3.2624 -0.153332 0
M  V30 67 H 2.8163 2.89169 -2.25337 0
M  V30 68 H 2.4643 4.95233 -0.880545 0
M  V30 69 H 2.1643 5.26529 -2.60846 0
M  V30 70 H 3.6883 5.81687 -1.85667 0
M  V30 71 H 5.1023 4.42168 -3.64911 0
M  V30 72 H 3.4993 4.10731 -4.37516 0
M  V30 73 H 4.5693 2.74527 -3.99703 0
M  V30 74 N 5.9124 1.20967 1.01018 0
M  V30 75 C 7.1614 1.01796 1.74128 0
M  V30 76 C 7.4744 -0.449691 1.90361 0
M  V30 77 O 8.6804 -0.76068 2.60626 0
M  V30 78 C 7.1364 1.7727 3.13215 0
M  V30 79 C 6.7444 3.28171 3.04972 0
M  V30 80 C 8.4884 1.66489 3.90489 0
M  V30 81 C 6.3954 3.96156 4.39107 0
M  V30 82 H 5.3254 0.377276 0.652824 0
M  V30 83 H 7.9764 1.44651 1.12909 0
M  V30 84 H 6.3584 1.27205 3.75013 0
M  V30 85 H 7.5324 3.85499 2.52443 0
M  V30 86 H 5.8474 3.39437 2.41188 0
M  V30 87 H 8.4444 2.14617 4.89738 0
M  V30 88 H 8.7874 0.6222 4.11624 0
M  V30 89 H 9.3204 2.14003 3.35332 0
M  V30 90 H 6.0594 5.00604 4.23174 0
M  V30 91 H 5.5794 3.43617 4.91617 0
M  V30 92 H 7.2584 4.00774 5.07926 0
M  V30 93 N 7.3905 -1.2043 1.01659 0
M  V30 94 C 8.6385 -1.89423 0.704522 0
M  V30 95 C 8.9595 -1.79231 -0.768197 0
M  V30 96 O 8.2295 -1.1947 -1.55254 0
M  V30 97 H 6.8095 -0.701178 0.257602 0
M  V30 98 H 9.4715 -1.4626 1.28818 0
M  V30 99 H 8.5675 -2.96052 0.987916 0
M  V30 100 N 8.8686 -0.792821 -1.36206 0
M  V30 101 C 10.1176 -0.363353 -1.984 0
M  V30 102 C 10.4306 1.07172 -1.63626 0
M  V30 103 O 11.6366 1.60362 -2.19081 0
M  V30 104 C 10.0926 -0.59872 -3.54885 0
M  V30 105 C 9.7006 -2.04543 -3.9858 0
M  V30 106 C 11.4446 -0.233926 -4.23855 0
M  V30 107 C 9.3516 -2.22727 -5.47856 0
M  V30 108 H 8.2816 -0.13212 -0.742334 0
M  V30 109 H 10.9326 -0.974935 -1.55458 0
M  V30 110 H 9.3146 0.0826222 -3.95914 0
M  V30 111 H 10.4886 -2.76345 -3.68741 0
M  V30 112 H 8.8036 -2.36879 -3.42458 0
M  V30 113 H 11.4006 -0.348027 -5.33566 0
M  V30 114 H 11.7436 0.818351 -4.08177 0
M  V30 115 H 12.2766 -0.868639 -3.882 0
M  V30 116 H 9.0156 -3.2635 -5.68486 0
M  V30 117 H 8.5356 -1.55434 -5.7931 0
M  V30 118 H 10.2146 -2.03607 -6.14128 0
M  V30 119 N 10.3467 1.47872 -0.545128 0
M  V30 120 C 11.2787 2.27869 0.246621 0
M  V30 121 C 12.2917 1.36282 0.890561 0
M  V30 122 O 13.4807 1.61207 0.766449 0
M  V30 123 C 10.5807 3.10159 1.36582 0
M  V30 124 C 9.7537 4.29627 0.820954 0
M  V30 125 C 8.8127 4.93607 1.82314 0
M  V30 126 O 7.8387 5.52366 1.37406 0
M  V30 127 N 9.0407 4.87211 3.15603 0
M  V30 128 H 11.8057 2.96459 -0.439539 0
M  V30 129 H 9.3667 1.57367 -0.380421 0
M  V30 130 H 11.3587 3.49829 2.03474 0
M  V30 131 H 9.9287 2.43891 1.9554 0
M  V30 132 H 9.1487 3.94192 -0.0244032 0
M  V30 133 H 10.4367 5.06928 0.436063 0
M  V30 134 H 9.8347 4.40651 3.54744 0
M  V30 135 H 8.3917 5.30937 3.78087 0
M  V30 136 N 11.8248 0.280983 1.55075 0
M  V30 137 C 13.0728 -0.333455 1.9933 0
M  V30 138 C 13.3938 -1.55937 1.17085 0
M  V30 139 O 12.6638 -1.94143 0.261805 0
M  V30 140 H 11.2438 -0.126197 0.736263 0
M  V30 141 H 13.9058 0.387678 1.91005 0
M  V30 142 H 13.0018 -0.619292 3.05894 0
M  V30 143 N 13.3029 -1.57598 0.00835791 0
M  V30 144 C 14.7139 -1.7892 -0.53333 0
M  V30 145 C 15.0649 -0.916609 -1.73473 0
M  V30 146 O 14.1899 -0.121336 -2.1606 0
M  V30 147 C 14.7849 -3.24488 -0.974313 0
M  V30 148 C 13.3439 -3.46878 -1.46125 0
M  V30 149 C 12.4909 -2.74157 -0.416302 0
M  V30 150 H 15.4419 -1.56958 0.234495 0
M  V30 151 H 15.4629 -3.3306 -1.83988 0
M  V30 152 H 14.9749 -3.87972 -0.099718 0
M  V30 153 H 13.0759 -2.8862 -2.35646 0
M  V30 154 H 13.1889 -4.55572 -1.48295 0
M  V30 155 H 11.5529 -2.39022 -0.87981 0
M  V30 156 H 12.3359 -3.40345 0.44947 0
M  V30 157 N 14.781 0.264519 -1.55364 0
M  V30 158 C 16.058 1.01677 -1.67096 0
M  V30 159 C 16.438 2.03996 -0.543015 0
M  V30 160 O 15.786 2.23907 0.45585 0
M  V30 161 C 15.996 1.66596 -3.0667 0
M  V30 162 C 17.344 2.17442 -3.64697 0
M  V30 163 O 18.368 1.76568 -3.09358 0
M  V30 164 O 17.227 2.92439 -4.61673 0
M  V30 165 H 14.321 0.472161 -0.678965 0
M  V30 166 H 16.867 0.259703 -1.67701 0
M  V30 167 H 15.639 0.924962 -3.80211 0
M  V30 168 H 15.262 2.48968 -3.10001 0
M  V30 169 N 16.2591 1.48442 0.529413 0
M  V30 170 C 17.4891 1.59919 1.30804 0
M  V30 171 C 17.8971 0.258792 1.87422 0
M  V30 172 O 17.2401 -0.762096 1.67146 0
M  V30 173 C 17.3021 2.58693 2.49636 0
M  V30 174 C 16.9661 4.03745 2.14101 0
M  V30 175 C 17.9631 4.9141 1.6974 0
M  V30 176 C 15.6481 4.49285 2.24607 0
M  V30 177 C 17.6421 6.22645 1.36351 0
M  V30 178 C 15.3291 5.8054 1.9083 0
M  V30 179 C 16.3271 6.67043 1.46773 0
M  V30 180 O 16.0151 7.95856 1.1344 0
M  V30 181 H 15.7471 0.541981 0.404021 0
M  V30 182 H 18.3011 1.95 0.645309 0
M  V30 183 H 16.5311 2.18734 3.18892 0
M  V30 184 H 18.2201 2.59999 3.11698 0
M  V30 185 H 18.9861 4.57465 1.61094 0
M  V30 186 H 14.8651 3.82142 2.57854 0
M  V30 187 H 18.4091 6.90119 1.01891 0
M  V30 188 H 14.3061 6.14022 1.99117 0
M  V30 189 H 15.0741 8.08613 1.26832 0
M  V30 190 N 17.7372 -0.778329 1.37039 0
M  V30 191 C 18.9832 -1.53892 1.32079 0
M  V30 192 C 19.3162 -1.9396 -0.0965386 0
M  V30 193 O 18.5912 -1.63568 -1.05242 0
M  V30 194 C 18.8742 -2.80847 2.25382 0
M  V30 195 C 18.7272 -2.47076 3.75864 0
M  V30 196 C 20.0462 -3.82741 2.1725 0
M  V30 197 H 17.1652 -0.558303 0.48111 0
M  V30 198 H 19.8072 -0.893397 1.67685 0
M  V30 199 H 17.9572 -3.35931 1.95148 0
M  V30 200 H 19.6292 -1.97957 4.16666 0
M  V30 201 H 17.8722 -1.79863 3.94755 0
M  V30 202 H 18.5432 -3.37798 4.36574 0
M  V30 203 H 21.0192 -3.37133 2.43887 0
M  V30 204 H 19.8952 -4.69303 2.84686 0
M  V30 205 H 20.1562 -4.2652 1.16331 0
M  V30 206 N 19.2153 -1.21501 -1.00376 0
M  V30 207 C 20.1453 -0.999478 -2.11028 0
M  V30 208 C 21.1263 0.0759671 -1.6993 0
M  V30 209 O 22.3113 -0.0841106 -1.94018 0
M  V30 210 C 19.4413 -0.564709 -3.42678 0
M  V30 211 C 18.3953 -1.58486 -3.97576 0
M  V30 212 C 17.7213 -1.00628 -5.25146 0
M  V30 213 C 19.0213 -2.97204 -4.29496 0
M  V30 214 H 20.7153 -1.92495 -2.29317 0
M  V30 215 H 18.2613 -0.92693 -1.102 0
M  V30 216 H 20.2143 -0.401091 -4.19487 0
M  V30 217 H 18.9383 0.396411 -3.24185 0
M  V30 218 H 17.5973 -1.73606 -3.22888 0
M  V30 219 H 17.2453 -0.0368439 -5.02987 0
M  V30 220 H 16.9453 -1.68771 -5.62841 0
M  V30 221 H 18.4693 -0.854015 -6.04598 0
M  V30 222 H 19.8833 -2.8552 -4.97143 0
M  V30 223 H 18.2803 -3.62372 -4.78338 0
M  V30 224 H 19.3503 -3.47956 -3.3772 0
M  V30 225 N 20.6934 1.19889 -1.02296 0
M  V30 226 C 21.9394 1.89701 -0.717033 0
M  V30 227 C 22.2724 1.7905 0.751989 0
M  V30 228 O 21.5474 1.17891 1.547 0
M  V30 229 C 21.8304 3.40858 -1.16136 0
M  V30 230 C 21.6834 3.60411 -2.69117 0
M  V30 231 C 23.0024 4.33876 -0.737549 0
M  V30 232 H 20.1214 0.688874 -0.261957 0
M  V30 233 H 22.7634 1.41154 -1.27183 0
M  V30 234 H 20.9134 3.82335 -0.689342 0
M  V30 235 H 22.5854 3.28145 -3.2422 0
M  V30 236 H 20.8284 3.03665 -3.0979 0
M  V30 237 H 21.4994 4.66396 -2.95261 0
M  V30 238 H 23.9754 4.00081 -1.14344 0
M  V30 239 H 22.8514 5.38242 -1.0764 0
M  V30 240 H 23.1124 4.40628 0.360436 0
M  V30 241 N 22.1715 0.800033 1.35784 0
M  V30 242 C 23.1345 0.211565 2.28221 0
M  V30 243 C 24.1345 -0.59728 1.49296 0
M  V30 244 O 25.3245 -0.416721 1.69142 0
M  V30 245 C 22.4565 -0.705846 3.33513 0
M  V30 246 H 23.6495 1.02677 2.81776 0
M  V30 247 H 21.2025 0.570211 1.45528 0
M  V30 248 H 21.9375 -1.54498 2.85133 0
M  V30 249 H 21.7225 -0.127655 3.91892 0
M  V30 250 H 23.2125 -1.11211 4.02519 0
M  V30 251 N 23.6496 -1.47581 0.552962 0
M  V30 252 C 24.8746 -2.07378 0.0300593 0
M  V30 253 C 25.2996 -1.40355 -1.25229 0
M  V30 254 O 24.6576 -0.477099 -1.7491 0
M  V30 255 C 24.7056 -3.60274 -0.153231 0
M  V30 256 O 23.8096 -3.94041 -1.21678 0
M  V30 257 H 23.1506 -0.662158 0.0494182 0
M  V30 258 H 25.6806 -1.89662 0.767434 0
M  V30 259 H 25.6906 -4.0633 -0.368761 0
M  V30 260 H 24.3656 -4.08455 0.783397 0
M  V30 261 H 22.9426 -3.59735 -0.982079 0
M  V30 262 N 25.1277 -0.289203 -1.54924 0
M  V30 263 C 26.4047 0.376032 -1.91951 0
M  V30 264 C 26.7847 1.72622 -1.21511 0
M  V30 265 O 26.1327 2.25853 -0.346767 0
M  V30 266 C 26.3427 0.502378 -3.45365 0
M  V30 267 C 27.6907 0.778741 -4.17398 0
M  V30 268 O 28.7147 0.586647 -3.51336 0
M  V30 269 O 27.5737 1.14698 -5.34328 0
M  V30 270 H 24.6677 0.208167 -0.800372 0
M  V30 271 H 27.2137 -0.336394 -1.66332 0
M  V30 272 H 25.9857 -0.447255 -3.88736 0
M  V30 273 H 25.6087 1.26373 -3.76982 0
M  V30 274 N 26.6058 1.57591 -0.0167156 0
M  V30 275 C 28.0218 1.55946 0.339557 0
M  V30 276 C 28.2218 1.02109 1.73713 0
M  V30 277 O 27.2778 0.662303 2.43659 0
M  V30 278 C 28.5908 3.00037 0.199499 0
M  V30 279 C 30.1388 3.11805 0.273193 0
M  V30 280 C 30.6138 4.57713 0.162068 0
M  V30 281 N 32.1048 4.6268 0.219444 0
M  V30 282 C 32.8398 5.73185 0.157054 0
M  V30 283 N 32.3358 6.92786 0.0442936 0
M  V30 284 N 34.1288 5.61707 0.21014 0
M  V30 285 H 26.2798 1.90921 -0.930758 0
M  V30 286 H 28.5428 0.877674 -0.358319 0
M  V30 287 H 28.2488 3.4333 -0.76273 0
M  V30 288 H 28.1228 3.64387 0.974786 0
M  V30 289 H 30.5098 2.68433 1.22587 0
M  V30 290 H 30.5908 2.50201 -0.532256 0
M  V30 291 H 30.2348 5.01763 -0.78714 0
M  V30 292 H 30.1648 5.17283 0.986222 0
M  V30 293 H 32.6558 3.76649 0.307246 0
M  V30 294 H 32.9688 7.728 0.00304069 0
M  V30 295 H 31.3138 6.94999 0.00968457 0
M  V30 296 H 34.5048 4.6716 0.296546 0
M  V30 297 H 34.6778 6.47807 0.158054 0
M  V30 298 N 28.0839 -0.256276 1.55502 0
M  V30 299 C 29.3299 -0.987079 1.77157 0
M  V30 300 C 29.6629 -1.85327 0.580315 0
M  V30 301 O 28.9379 -1.89874 -0.421686 0
M  V30 302 C 29.2209 -1.85553 3.08613 0
M  V30 303 C 29.0739 -1.01816 4.38125 0
M  V30 304 C 30.3929 -2.8397 3.36228 0
M  V30 305 H 27.5119 -0.357428 0.644526 0
M  V30 306 H 30.1539 -0.258239 1.88237 0
M  V30 307 H 28.3039 -2.47695 2.99298 0
M  V30 308 H 29.9759 -0.416159 4.59419 0
M  V30 309 H 28.2189 -0.322178 4.32602 0
M  V30 310 H 28.8899 -1.65939 5.26468 0
M  V30 311 H 31.3659 -2.31964 3.45445 0
M  V30 312 H 30.2419 -3.41864 4.29442 0
M  V30 313 H 30.5029 -3.59955 2.56681 0
M  V30 314 N 29.562 -1.4872 -0.521534 0
M  V30 315 C 30.525 -1.63379 -1.60748 0
M  V30 316 C 31.525 -0.50661 -1.52611 0
M  V30 317 O 32.715 -0.772601 -1.5613 0
M  V30 318 C 29.847 -1.61192 -3.00383 0
M  V30 319 H 31.04 -2.60217 -1.49087 0
M  V30 320 H 28.593 -1.37444 -0.744235 0
M  V30 321 H 29.328 -0.65863 -3.17541 0
M  V30 322 H 29.113 -2.43032 -3.07698 0
M  V30 323 H 30.603 -1.7466 -3.7932 0
M  V30 324 N 31.0401 0.771051 -1.3745 0
M  V30 325 C 32.0031 1.86598 -1.33093 0
M  V30 326 C 33.0031 1.59076 -0.234845 0
M  V30 327 O 34.1931 1.67145 -0.490732 0
M  V30 328 C 31.3251 3.23747 -1.06773 0
M  V30 329 H 32.5181 1.91873 -2.30488 0
M  V30 330 H 30.0711 0.970876 -1.2249 0
M  V30 331 H 30.8061 3.24148 -0.099129 0
M  V30 332 H 30.5911 3.45115 -1.86112 0
M  V30 333 H 32.0811 4.03824 -1.06377 0
M  V30 334 N 32.5182 1.22032 0.997298 0
M  V30 335 C 33.7432 1.06921 1.77715 0
M  V30 336 C 34.1682 -0.376226 1.84299 0
M  V30 337 O 33.5262 -1.27165 1.29223 0
M  V30 338 C 33.5742 1.67996 3.19076 0
M  V30 339 O 32.6782 0.930653 4.01762 0
M  V30 340 H 32.0192 0.375814 0.547412 0
M  V30 341 H 34.5492 1.61737 1.25309 0
M  V30 342 H 34.5592 1.72538 3.69723 0
M  V30 343 H 33.2342 2.73182 3.13599 0
M  V30 344 H 31.8112 0.960917 3.60307 0
M  V30 345 N 33.9963 -1.19345 1.0293 0
M  V30 346 C 34.9443 -2.24621 0.604001 0
M  V30 347 C 35.9383 -1.65452 -0.363587 0
M  V30 348 O 37.1443 -1.78497 -0.23212 0
M  V30 349 H 33.5193 -0.730858 0.177061 0
M  V30 350 H 35.4903 -2.5781 1.50255 0
M  V30 351 C 34.2393 -3.47688 -0.0289127 0
M  V30 352 H 33.5623 -3.93505 0.706651 0
M  V30 353 H 35.0023 -4.23011 -0.289432 0
M  V30 354 C 33.4613 -3.11817 -1.2756 0
M  V30 355 O 33.9913 -3.2451 -2.36762 0
M  V30 356 N 32.1973 -2.66246 -1.16453 0
M  V30 357 H 31.7443 -2.56118 -0.275914 0
M  V30 358 H 31.7023 -2.42617 -1.99961 0
M  V30 359 N 35.4744 -0.807222 -1.35358 0
M  V30 360 C 36.7234 -0.384376 -1.98004 0
M  V30 361 C 37.0364 1.0543 -1.64754 0
M  V30 362 O 38.2424 1.58029 -2.20769 0
M  V30 363 C 36.6984 -0.636326 -3.5423 0
M  V30 364 C 36.3064 -2.08759 -3.96388 0
M  V30 365 C 38.0504 -0.278869 -4.23583 0
M  V30 366 C 35.9574 -2.28525 -5.45463 0
M  V30 367 H 34.8874 -0.139986 -0.740891 0
M  V30 368 H 37.5384 -0.991369 -1.54415 0
M  V30 369 H 35.9204 0.0406256 -3.95979 0
M  V30 370 H 37.0944 -2.8024 -3.6579 0
M  V30 371 H 35.4094 -2.40497 -3.39926 0
M  V30 372 H 38.0064 -0.404599 -5.33167 0
M  V30 373 H 38.3494 0.775012 -4.09022 0
M  V30 374 H 38.8824 -0.909764 -3.87257 0
M  V30 375 H 35.6214 -3.32361 -5.64992 0
M  V30 376 H 35.1414 -1.61569 -5.77629 0
M  V30 377 H 36.8204 -2.10109 -6.11934 0
M  V30 378 N 36.9525 1.47285 -0.560781 0
M  V30 379 C 38.1985 2.02764 -0.0381184 0
M  V30 380 C 38.5315 1.43384 1.30976 0
M  V30 381 O 37.8065 0.590733 1.85312 0
M  V30 382 C 38.0895 3.60064 0.0511427 0
M  V30 383 C 37.9425 4.2987 -1.32408 0
M  V30 384 C 39.2615 4.33439 0.762795 0
M  V30 385 H 36.3805 0.736841 -0.0153264 0
M  V30 386 H 39.0225 1.75675 -0.723759 0
M  V30 387 H 37.1725 3.83274 0.635065 0
M  V30 388 H 38.8445 4.17989 -1.95148 0
M  V30 389 H 37.0875 3.90085 -1.8978 0
M  V30 390 H 37.7585 5.38478 -1.21431 0
M  V30 391 H 40.2345 4.15243 0.266965 0
M  V30 392 H 39.1105 5.43124 0.794221 0
M  V30 393 H 39.3715 4.02915 1.81966 0
M  V30 394 N 38.4306 0.297415 1.54768 0
M  V30 395 C 39.3626 -0.613881 2.20826 0
M  V30 396 C 40.3756 -1.10032 1.19987 0
M  V30 397 O 41.5646 -1.01839 1.46598 0
M  V30 398 C 38.6646 -1.852 2.83821 0
M  V30 399 C 37.8376 -1.50865 4.10559 0
M  V30 400 C 36.8966 -2.60154 4.57391 0
M  V30 401 O 35.9226 -2.25398 5.2267 0
M  V30 402 N 37.1246 -3.90629 4.29406 0
M  V30 403 H 39.8896 -0.048389 2.99661 0
M  V30 404 H 37.4506 0.11946 1.61459 0
M  V30 405 H 39.4426 -2.57652 3.12086 0
M  V30 406 H 38.0126 -2.32597 2.08847 0
M  V30 407 H 37.2326 -0.616925 3.89343 0
M  V30 408 H 38.5206 -1.25458 4.9309 0
M  V30 409 H 37.9186 -4.21677 3.77101 0
M  V30 410 H 36.4756 -4.59391 4.62388 0
M  V30 411 N 39.9087 -1.5758 0.0250728 0
M  V30 412 C 40.8417 -2.05473 -0.992777 0
M  V30 413 C 41.8197 -0.949661 -1.31986 0
M  V30 414 O 43.0037 -1.21969 -1.43722 0
M  V30 415 C 40.1307 -2.4734 -2.31389 0
M  V30 416 C 39.1767 -3.68827 -2.1417 0
M  V30 417 S 40.0097 -5.15655 -1.44429 0
M  V30 418 C 41.1657 -5.60814 -2.77918 0
M  V30 419 H 41.3987 -2.91486 -0.585078 0
M  V30 420 H 38.9317 -1.53269 -0.186507 0
M  V30 421 H 40.8897 -2.72127 -3.07339 0
M  V30 422 H 39.5507 -1.6168 -2.69292 0
M  V30 423 H 38.7437 -3.95955 -3.11826 0
M  V30 424 H 38.3457 -3.44172 -1.46362 0
M  V30 425 H 40.6377 -5.64806 -3.74166 0
M  V30 426 H 41.5807 -6.60414 -2.55459 0
M  V30 427 H 41.9887 -4.8845 -2.82979 0
M  V30 428 N 41.3868 0.248026 -1.55636 0
M  V30 429 C 42.3338 1.30707 -1.90222 0
M  V30 430 C 43.3038 1.47881 -0.756332 0
M  V30 431 O 44.4888 1.61883 -1.00988 0
M  V30 432 C 41.6288 2.65769 -2.20138 0
M  V30 433 C 40.7418 2.56612 -3.47526 0
M  V30 434 C 39.8768 3.8402 -3.67017 0
M  V30 435 C 38.9158 3.69476 -4.8801 0
M  V30 436 N 38.0528 4.88774 -5.04029 0
M  V30 437 H 42.8928 1.00512 -2.80538 0
M  V30 438 H 40.4298 0.485055 -1.38873 0
M  V30 439 H 42.3878 3.44386 -2.35487 0
M  V30 440 H 41.0178 2.94115 -1.33027 0
M  V30 441 H 40.0698 1.69571 -3.40514 0
M  V30 442 H 41.3818 2.41774 -4.36287 0
M  V30 443 H 40.5358 4.7108 -3.8232 0
M  V30 444 H 39.2748 4.01754 -2.76487 0
M  V30 445 H 38.2798 2.80799 -4.72686 0
M  V30 446 H 39.5048 3.53238 -5.8 0
M  V30 447 H 37.4508 5.0687 -4.16435 0
M  V30 448 H 37.3678 4.76562 -5.86877 0
M  V30 449 H 38.6358 5.77335 -5.23741 0
M  V30 450 N 42.8649 1.48995 0.513639 0
M  V30 451 C 44.1419 1.48338 1.27495 0
M  V30 452 C 44.5219 0.204065 2.10111 0
M  V30 453 O 43.8699 -0.813881 2.13514 0
M  V30 454 C 44.0799 2.75498 2.14247 0
M  V30 455 C 45.4279 3.24484 2.73852 0
M  V30 456 O 46.4519 2.76528 2.24523 0
M  V30 457 O 45.3109 4.07974 3.6362 0
M  V30 458 H 42.4049 0.593149 0.576284 0
M  V30 459 H 44.9509 1.61246 0.528948 0
M  V30 460 H 43.7229 3.60109 1.53092 0
M  V30 461 H 43.3459 2.6539 2.96064 0
M  V30 462 N 44.343 -0.763751 1.37857 0
M  V30 463 C 45.62 -1.51244 1.24035 0
M  V30 464 C 46 -2.10472 -0.162649 0
M  V30 465 O 45.348 -1.96206 -1.17112 0
M  V30 466 C 45.558 -2.58694 2.34261 0
M  V30 467 C 46.906 -3.25878 2.72193 0
M  V30 468 O 47.93 -2.68993 2.33497 0
M  V30 469 O 46.789 -4.2874 3.38887 0
M  V30 470 H 43.883 -0.670243 0.484462 0
M  V30 471 H 46.429 -0.800031 1.49658 0
M  V30 472 H 45.201 -2.13105 3.2818 0
M  V30 473 H 44.824 -3.37527 2.10146 0
M  V30 474 N 45.8211 -1.22559 -0.990812 0
M  V30 475 C 46.7711 -0.964807 -2.0658 0
M  V30 476 C 47.7551 0.0853472 -1.60673 0
M  V30 477 O 48.9471 -0.125443 -1.76555 0
M  V30 478 C 46.0761 -0.546707 -3.38919 0
M  V30 479 C 45.1621 -1.6317 -3.91454 0
M  V30 480 N 45.5531 -2.85985 -4.17189 0
M  V30 481 C 43.8511 -1.50387 -4.19881 0
M  V30 482 C 44.5521 -3.56159 -4.59919 0
M  V30 483 N 43.5281 -2.83637 -4.63736 0
M  V30 484 H 47.3301 -1.89769 -2.24421 0
M  V30 485 H 44.8441 -1.12343 -1.17273 0
M  V30 486 H 46.8411 -0.34119 -4.15502 0
M  V30 487 H 45.5011 0.379254 -3.22478 0
M  V30 488 H 46.5121 -3.22392 -4.05319 0
M  V30 489 H 43.1891 -0.644254 -4.12499 0
M  V30 490 H 44.5791 -4.6139 -4.88435 0
M  V30 491 N 47.2992 1.18797 -1.03562 0
M  V30 492 C 48.5762 1.84469 -0.650434 0
M  V30 493 C 48.9562 1.92319 0.870433 0
M  V30 494 O 48.3042 1.44528 1.76986 0
M  V30 495 C 48.5142 3.2306 -1.32036 0
M  V30 496 C 49.8622 3.9915 -1.44792 0
M  V30 497 O 50.8862 3.32481 -1.27806 0
M  V30 498 O 49.7452 5.18587 -1.72423 0
M  V30 499 H 46.8392 0.795251 -0.226946 0
M  V30 500 H 49.3852 1.26231 -1.13419 0
M  V30 501 H 48.1572 3.1222 -2.3587 0
M  V30 502 H 47.7802 3.88949 -0.8249 0
M  V30 503 N 48.7773 0.814389 1.34928 0
M  V30 504 C 49.7243 0.22822 2.29669 0
M  V30 505 C 50.6943 -0.642164 1.53184 0
M  V30 506 O 51.8793 -0.585605 1.81591 0
M  V30 507 C 49.0193 -0.61089 3.3965 0
M  V30 508 C 48.1323 0.280792 4.31086 0
M  V30 509 C 47.2673 -0.567067 5.28165 0
M  V30 510 C 46.3063 0.324531 6.11239 0
M  V30 511 N 45.4433 -0.483756 7.00431 0
M  V30 512 H 50.2833 1.04153 2.79206 0
M  V30 513 H 47.8203 0.525133 1.37407 0
M  V30 514 H 49.7783 -1.11263 4.0209 0
M  V30 515 H 48.4083 -1.38939 2.91369 0
M  V30 516 H 47.4603 0.900688 3.69583 0
M  V30 517 H 48.7723 0.966723 4.89342 0
M  V30 518 H 47.9263 -1.13363 5.96015 0
M  V30 519 H 46.6653 -1.28654 4.70425 0
M  V30 520 H 45.6703 0.903298 5.42329 0
M  V30 521 H 46.8953 1.04198 6.71059 0
M  V30 522 H 44.8413 -1.18706 6.45171 0
M  V30 523 H 44.7583 0.143965 7.55863 0
M  V30 524 H 46.0263 -1.03334 7.7262 0
M  V30 525 N 50.2554 -1.46986 0.568584 0
M  V30 526 C 51.1884 -2.27129 -0.220779 0
M  V30 527 C 52.1664 -1.34757 -0.909905 0
M  V30 528 O 53.3504 -1.64152 -0.926622 0
M  V30 529 C 50.4774 -3.12108 -1.31553 0
M  V30 530 C 49.5234 -4.20141 -0.733748 0
M  V30 531 S 50.3564 -5.33783 0.428479 0
M  V30 532 C 51.5124 -6.22327 -0.667811 0
M  V30 533 H 51.7454 -2.93731 0.459267 0
M  V30 534 H 49.2784 -1.5026 0.355154 0
M  V30 535 H 51.2364 -3.61636 -1.94241 0
M  V30 536 H 49.8974 -2.44847 -1.96746 0
M  V30 537 H 49.0904 -4.79373 -1.5562 0
M  V30 538 H 48.6924 -3.73553 -0.182812 0
M  V30 539 H 50.9844 -6.59364 -1.55708 0
M  V30 540 H 51.9274 -7.0801 -0.11258 0
M  V30 541 H 52.3354 -5.5618 -0.965601 0
M  V30 542 N 51.7335 -0.305618 -1.54608 0
M  V30 543 C 52.9805 0.302298 -2.00231 0
M  V30 544 C 53.3085 1.5354 -1.19398 0
M  V30 545 O 52.5635 1.93973 -0.259423 0
M  V30 546 C 52.8625 0.698983 -3.50498 0
M  V30 547 C 52.5285 -0.432903 -4.48817 0
M  V30 548 C 51.1905 -0.743622 -4.75419 0
M  V30 549 C 53.5425 -1.19409 -5.07337 0
M  V30 550 C 50.8705 -1.81857 -5.57804 0
M  V30 551 C 53.2225 -2.25899 -5.90891 0
M  V30 552 C 51.8865 -2.57572 -6.15803 0
M  V30 553 H 51.1565 0.110619 -0.732697 0
M  V30 554 H 53.8035 -0.425674 -1.86709 0
M  V30 555 H 52.1085 1.50711 -3.61654 0
M  V30 556 H 53.8055 1.1806 -3.83227 0
M  V30 557 H 50.3955 -0.18063 -4.28219 0
M  V30 558 H 54.5795 -0.967295 -4.86782 0
M  V30 559 H 49.8355 -2.06864 -5.75341 0
M  V30 560 H 54.0095 -2.85335 -6.35261 0
M  V30 561 H 51.6365 -3.40998 -6.7943 0
M  V30 562 N 53.2116 1.57565 -0.0334293 0
M  V30 563 C 54.1586 2.10478 0.946981 0
M  V30 564 C 55.1286 1.00787 1.32027 0
M  V30 565 O 56.3136 1.28232 1.41284 0
M  V30 566 C 53.4536 2.63994 2.22263 0
M  V30 567 C 52.5666 3.87709 1.90541 0
M  V30 568 C 51.7016 4.29604 3.12433 0
M  V30 569 C 50.7406 5.46065 2.76549 0
M  V30 570 N 49.8776 5.83096 3.9108 0
M  V30 571 H 54.7176 2.93963 0.488846 0
M  V30 572 H 52.2546 1.45296 0.22969 0
M  V30 573 H 54.2126 2.93114 2.96884 0
M  V30 574 H 52.8426 1.83333 2.65685 0
M  V30 575 H 51.8946 3.65291 1.06144 0
M  V30 576 H 53.2066 4.72403 1.60116 0
M  V30 577 H 52.3606 4.60182 3.9537 0
M  V30 578 H 51.0996 3.43685 3.46023 0
M  V30 579 H 50.1046 5.15176 1.92026 0
M  V30 580 H 51.3296 6.33685 2.44171 0
M  V30 581 H 49.2756 5.00132 4.24504 0
M  V30 582 H 49.1926 6.6244 3.64293 0
M  V30 583 H 50.4606 6.18282 4.74708 0
M  V30 584 N 54.6897 -0.239769 1.55765 0
M  V30 585 C 55.6227 -1.32356 1.85895 0
M  V30 586 C 56.6007 -1.46053 0.714662 0
M  V30 587 O 57.7847 -1.62154 0.961157 0
M  V30 588 C 54.9117 -2.6962 2.04994 0
M  V30 589 C 53.9577 -2.73036 3.27648 0
M  V30 590 S 54.7907 -2.28929 4.84099 0
M  V30 591 C 55.9467 -3.68103 5.06212 0
M  V30 592 H 56.1797 -1.06601 2.77531 0
M  V30 593 H 53.7127 -0.441112 1.47965 0
M  V30 594 H 55.6707 -3.48653 2.16682 0
M  V30 595 H 54.3317 -2.92609 1.14188 0
M  V30 596 H 53.5247 -3.7386 3.38 0
M  V30 597 H 53.1267 -2.02052 3.14723 0
M  V30 598 H 55.4187 -4.63656 4.93993 0
M  V30 599 H 56.3617 -3.6268 6.08168 0
M  V30 600 H 56.7697 -3.60947 4.34025 0
M  V30 601 N 56.1678 -1.49265 -0.50573 0
M  V30 602 C 57.3928 -1.62478 -1.28902 0
M  V30 603 C 57.8178 -0.294332 -1.85783 0
M  V30 604 O 57.1758 0.737412 -1.65626 0
M  V30 605 C 57.2238 -2.69268 -2.39848 0
M  V30 606 O 56.3278 -2.28113 -3.43567 0
M  V30 607 H 55.6688 -0.54399 -0.380751 0
M  V30 608 H 58.1988 -1.95421 -0.605952 0
M  V30 609 H 58.2088 -2.91291 -2.85681 0
M  V30 610 H 56.8838 -3.65846 -1.97812 0
M  V30 611 H 55.4608 -2.16401 -3.03685 0
M  V30 612 N 57.6459 0.756429 -1.3826 0
M  V30 613 C 58.5559 1.9009 -1.37488 0
M  V30 614 C 59.5719 1.71855 -0.272366 0
M  V30 615 O 60.7479 1.94827 -0.510318 0
M  V30 616 C 57.8129 3.25421 -1.19592 0
M  V30 617 C 56.8739 3.56202 -2.39622 0
M  V30 618 C 56.1069 4.85075 -2.2257 0
M  V30 619 O 56.3299 5.57246 -1.21793 0
M  V30 620 O 55.2639 5.15269 -3.11098 0
M  V30 621 H 59.0899 1.93695 -2.33914 0
M  V30 622 H 56.6749 0.901313 -1.1915 0
M  V30 623 H 58.5569 4.06337 -1.11661 0
M  V30 624 H 57.2319 3.22634 -0.262486 0
M  V30 625 H 56.1389 2.75458 -2.53128 0
M  V30 626 H 57.4719 3.63747 -3.31586 0
M  V30 627 N 59.124 1.23083 0.984299 0
M  V30 628 C 60.071 1.00854 2.07598 0
M  V30 629 C 61.041 -0.0726709 1.65941 0
M  V30 630 O 62.226 0.0786535 1.90638 0
M  V30 631 C 59.366 0.601645 3.39815 0
M  V30 632 C 58.479 1.75456 3.94765 0
M  V30 633 C 57.614 1.29482 5.15177 0
M  V30 634 C 56.653 2.41873 5.62284 0
M  V30 635 N 55.79 1.96885 6.73929 0
M  V30 636 H 60.63 1.943 2.25946 0
M  V30 637 H 58.167 0.968001 1.10762 0
M  V30 638 H 60.125 0.346854 4.15756 0
M  V30 639 H 58.755 -0.295803 3.21442 0
M  V30 640 H 57.807 2.12346 3.15616 0
M  V30 641 H 59.119 2.59965 4.25699 0
M  V30 642 H 58.273 0.997923 5.98437 0
M  V30 643 H 57.012 0.420046 4.85888 0
M  V30 644 H 56.017 2.72342 4.77608 0
M  V30 645 H 57.242 3.29881 5.93595 0
M  V30 646 H 55.188 1.11782 6.46406 0
M  V30 647 H 55.105 2.74956 7.04227 0
M  V30 648 H 56.373 1.70289 7.60672 0
M  V30 649 N 60.6021 -1.18246 1.0419 0
M  V30 650 C 61.8511 -1.87588 0.741194 0
M  V30 651 C 62.1641 -1.81303 -0.734066 0
M  V30 652 O 63.3701 -2.46019 -1.14834 0
M  V30 653 C 61.8261 -3.36538 1.27555 0
M  V30 654 C 61.4341 -3.51349 2.77953 0
M  V30 655 C 63.1781 -4.11273 1.05143 0
M  V30 656 C 61.0851 -4.94265 3.2474 0
M  V30 657 H 60.0151 -0.702622 0.273565 0
M  V30 658 H 62.6661 -1.33601 1.25789 0
M  V30 659 H 61.0481 -3.9 0.686703 0
M  V30 660 H 62.2221 -3.08153 3.42605 0
M  V30 661 H 60.5371 -2.90022 2.98791 0
M  V30 662 H 63.1341 -5.16689 1.37611 0
M  V30 663 H 63.4771 -4.16298 -0.0112774 0
M  V30 664 H 64.0101 -3.63987 1.60495 0
M  V30 665 H 60.7491 -4.94408 4.30396 0
M  V30 666 H 60.2691 -5.38172 2.64823 0
M  V30 667 H 61.9481 -5.62987 3.18834 0
M  V30 668 N 62.0802 -0.821533 -1.34494 0
M  V30 669 C 63.0102 -0.257138 -2.3208 0
M  V30 670 C 63.9912 0.625645 -1.58176 0
M  V30 671 O 65.1762 0.552811 -1.86166 0
M  V30 672 C 62.3062 0.582958 -3.42372 0
M  V30 673 C 61.2602 -0.202571 -4.2752 0
M  V30 674 C 60.5862 0.760179 -5.29269 0
M  V30 675 C 61.8862 -1.40998 -5.02908 0
M  V30 676 H 63.5802 -1.07247 -2.79532 0
M  V30 677 H 61.1262 -0.517163 -1.34393 0
M  V30 678 H 63.0792 0.987972 -4.09655 0
M  V30 679 H 61.8032 1.43133 -2.93565 0
M  V30 680 H 60.4622 -0.588936 -3.61838 0
M  V30 681 H 60.1102 1.60447 -4.76724 0
M  V30 682 H 59.8102 0.238809 -5.87115 0
M  V30 683 H 61.3342 1.16308 -5.9942 0
M  V30 684 H 62.7482 -1.07905 -5.63054 0
M  V30 685 H 61.1452 -1.86689 -5.70322 0
M  V30 686 H 62.2152 -2.1889 -4.32684 0
M  V30 687 N 63.5583 1.46682 -0.576371 0
M  V30 688 C 64.4883 2.33028 0.148397 0
M  V30 689 C 65.4693 1.44961 0.889956 0
M  V30 690 O 66.6543 1.73789 0.866662 0
M  V30 691 C 63.7843 3.27117 1.1667 0
M  V30 692 C 62.7383 4.24575 0.540386 0
M  V30 693 C 62.0643 5.08126 1.6647 0
M  V30 694 C 63.3643 5.19722 -0.518331 0
M  V30 695 H 65.0583 2.93875 -0.572509 0
M  V30 696 H 62.6043 1.41315 -0.276768 0
M  V30 697 H 64.5573 3.86374 1.68204 0
M  V30 698 H 63.2813 2.64364 1.9178 0
M  V30 699 H 61.9403 3.66571 0.0461769 0
M  V30 700 H 61.5883 4.41762 2.40531 0
M  V30 701 H 61.2883 5.74122 1.25131 0
M  V30 702 H 62.8123 5.70246 2.18293 0
M  V30 703 H 64.2263 5.73232 -0.0883058 0
M  V30 704 H 62.6233 5.94026 -0.851679 0
M  V30 705 H 63.6933 4.64037 -1.40703 0
M  V30 706 N 65.0364 0.313813 1.54444 0
M  V30 707 C 65.9664 -0.549454 2.26943 0
M  V30 708 C 66.9474 -1.12741 1.27372 0
M  V30 709 O 68.1324 -1.15436 1.56167 0
M  V30 710 C 65.2624 -1.71523 3.01989 0
M  V30 711 C 64.2164 -1.26703 4.08816 0
M  V30 712 C 63.5424 -2.51898 4.71647 0
M  V30 713 C 64.8424 -0.388962 5.2085 0
M  V30 714 H 66.5364 0.0552661 2.99349 0
M  V30 715 H 64.0824 0.0280207 1.43973 0
M  V30 716 H 66.0354 -2.32535 3.51433 0
M  V30 717 H 64.7594 -2.34639 2.27183 0
M  V30 718 H 63.4184 -0.679896 3.6024 0
M  V30 719 H 63.0664 -3.13356 3.93468 0
M  V30 720 H 62.7664 -2.22605 5.43802 0
M  V30 721 H 64.2904 -3.1369 5.23861 0
M  V30 722 H 65.7044 -0.905107 5.6611 0
M  V30 723 H 64.1014 -0.18924 5.99802 0
M  V30 724 H 65.1714 0.582699 4.81386 0
M  V30 725 N 66.5145 -1.57545 0.0417849 0
M  V30 726 C 67.7545 -1.94185 -0.63809 0
M  V30 727 C 68.1185 -0.919339 -1.68559 0
M  V30 728 O 69.3195 -1.17236 -2.41886 0
M  V30 729 C 67.5905 -3.35672 -1.22714 0
M  V30 730 S 69.1495 -3.94256 -1.92633 0
M  V30 731 H 65.9675 -0.679353 -0.209764 0
M  V30 732 H 68.5695 -1.95199 0.108479 0
M  V30 733 H 67.2735 -4.07898 -0.452503 0
M  V30 734 H 66.8045 -3.38132 -2.01073 0
M  V30 735 H 68.8195 -3.7872 -3.20602 0
M  V30 736 N 67.9926 0.231505 -1.5589 0
M  V30 737 C 69.2386 0.95877 -1.78705 0
M  V30 738 C 69.5716 1.8438 -0.609725 0
M  V30 739 O 68.8466 1.90521 0.391426 0
M  V30 740 C 69.1296 1.8062 -3.11526 0
M  V30 741 C 68.9826 0.948328 -4.39689 0
M  V30 742 C 70.3016 2.78585 -3.40703 0
M  V30 743 H 67.4206 0.347129 -0.650131 0
M  V30 744 H 70.0626 0.228259 -1.88624 0
M  V30 745 H 68.2126 2.42902 -3.03201 0
M  V30 746 H 69.8846 0.343016 -4.60023 0
M  V30 747 H 68.1276 0.253314 -4.3306 0
M  V30 748 H 68.7986 1.57543 -5.29041 0
M  V30 749 H 71.2746 2.26439 -3.49091 0
M  V30 750 H 70.1506 3.34988 -4.34826 0
M  V30 751 H 70.4116 3.55825 -2.62375 0
M  V30 752 N 69.4707 1.49531 0.497807 0
M  V30 753 C 70.7187 1.58865 1.24926 0
M  V30 754 C 71.0397 0.278721 1.92998 0
M  V30 755 O 70.3097 -0.702144 1.82885 0
M  V30 756 H 68.8897 0.585343 0.464094 0
M  V30 757 H 71.5517 1.86174 0.57666 0
M  V30 758 H 70.6477 2.38633 2.01149 0
M  V30 759 N 70.9488 -0.749086 1.3866 0
M  V30 760 C 71.8588 -1.89358 1.38494 0
M  V30 761 C 72.8748 -1.71708 0.281476 0
M  V30 762 O 74.0508 -1.94554 0.520643 0
M  V30 763 C 71.1158 -3.24782 1.21316 0
M  V30 764 C 70.1768 -3.54926 2.41508 0
M  V30 765 C 69.4098 -4.83888 2.2514 0
M  V30 766 O 69.6328 -5.56592 1.24746 0
M  V30 767 O 68.5668 -5.13612 3.13826 0
M  V30 768 H 72.3928 -1.92452 2.34938 0
M  V30 769 H 69.9778 -0.894981 1.19626 0
M  V30 770 H 71.8598 -4.05739 1.13814 0
M  V30 771 H 70.5348 -3.2249 0.279592 0
M  V30 772 H 69.4418 -2.74112 2.54585 0
M  V30 773 H 70.7748 -3.61983 3.3351 0
M  V30 774 N 72.4269 -1.23603 -0.977757 0
M  V30 775 C 73.3899 -1.02069 -2.05218 0
M  V30 776 C 74.3899 0.0184305 -1.60789 0
M  V30 777 O 75.5799 -0.221569 -1.72785 0
M  V30 778 C 72.7119 -0.544926 -3.36517 0
M  V30 779 H 73.9049 -1.9742 -2.25755 0
M  V30 780 H 71.4579 -1.05684 -1.15155 0
M  V30 781 H 72.1929 0.412241 -3.21669 0
M  V30 782 H 71.9779 -1.2948 -3.70105 0
M  V30 783 H 73.4679 -0.414985 -4.15533 0
M  V30 784 N 73.905 1.17692 -1.04816 0
M  V30 785 C 75.153 1.87488 -0.754497 0
M  V30 786 C 75.474 1.81205 0.720407 0
M  V30 787 O 74.744 1.23544 1.52032 0
M  V30 788 H 73.324 0.694101 -0.276102 0
M  V30 789 H 75.986 1.42793 -1.32651 0
M  V30 790 H 75.082 2.93328 -1.06606 0
M  V30 791 N 75.3831 0.828654 1.34056 0
M  V30 792 C 76.6601 0.341809 1.9259 0
M  V30 793 C 77.0401 -1.17158 1.75605 0
M  V30 794 O 76.3881 -1.98132 1.13824 0
M  V30 795 C 76.5981 0.777453 3.4023 0
M  V30 796 C 77.9461 0.779579 4.17382 0
M  V30 797 O 78.9701 0.7204 3.48839 0
M  V30 798 O 77.8291 0.857996 5.39723 0
M  V30 799 H 74.9231 0.0946085 0.821571 0
M  V30 800 H 77.4691 0.913827 1.42994 0
M  V30 801 H 76.2411 1.8196 3.46419 0
M  V30 802 H 75.8641 0.181444 3.97186 0
M  V30 803 N 76.8612 -1.46375 0.584142 0
M  V30 804 C 78.0892 -2.06761 0.0759296 0
M  V30 805 C 78.5042 -1.43266 -1.22965 0
M  V30 806 O 77.8612 -0.538458 -1.74376 0
M  V30 807 C 77.9122 -3.61375 -0.0950384 0
M  V30 808 O 77.6332 -4.22495 1.15887 0
M  V30 809 C 79.1342 -4.38693 -0.637434 0
M  V30 810 H 76.3542 -0.668479 0.0581075 0
M  V30 811 H 78.8982 -1.8798 0.805218 0
M  V30 812 H 77.0532 -3.79578 -0.774554 0
M  V30 813 H 77.4672 -5.15385 0.973598 0
M  V30 814 H 78.9412 -5.47464 -0.706237 0
M  V30 815 H 79.4182 -4.06836 -1.65472 0
M  V30 816 H 80.0242 -4.25299 0.00725967 0
M  V30 817 N 78.3393 -0.321999 -1.54275 0
M  V30 818 C 79.5853 0.281461 -2.00837 0
M  V30 819 C 79.9183 1.51909 -1.20985 0
M  V30 820 O 79.1933 1.923 -0.291733 0
M  V30 821 C 79.4763 0.617162 -3.54772 0
M  V30 822 C 79.3293 -0.631064 -4.45351 0
M  V30 823 C 80.6483 1.43542 -4.16033 0
M  V30 824 H 77.7673 0.100826 -0.730071 0
M  V30 825 H 80.4093 -0.438268 -1.84876 0
M  V30 826 H 78.5593 1.23034 -3.68504 0
M  V30 827 H 80.2313 -1.26934 -4.43492 0
M  V30 828 H 78.4743 -1.26025 -4.15091 0
M  V30 829 H 79.1453 -0.351735 -5.50878 0
M  V30 830 H 81.6213 0.917134 -4.05867 0
M  V30 831 H 80.4973 1.63907 -5.23856 0
M  V30 832 H 80.7583 2.43108 -3.69257 0
M  V30 833 N 79.8174 1.5752 -0.0501392 0
M  V30 834 C 80.7494 2.08413 0.95376 0
M  V30 835 C 81.7624 1.01175 1.27544 0
M  V30 836 O 82.9514 1.28744 1.23641 0
M  V30 837 C 80.0514 2.51138 2.27559 0
M  V30 838 C 79.2244 3.817 2.13598 0
M  V30 839 C 78.2834 4.10749 3.28895 0
M  V30 840 O 77.3094 4.80685 3.04845 0
M  V30 841 N 78.5114 3.62579 4.5334 0
M  V30 842 H 81.2764 2.95165 0.519383 0
M  V30 843 H 78.8374 1.61327 0.136127 0
M  V30 844 H 80.8294 2.67648 3.03557 0
M  V30 845 H 79.3994 1.6964 2.62567 0
M  V30 846 H 78.6194 3.74782 1.22197 0
M  V30 847 H 79.9074 4.67201 2.01496 0
M  V30 848 H 79.3054 3.06039 4.75769 0
M  V30 849 H 77.8624 3.84329 5.26436 0
M  V30 850 N 81.2955 -0.223234 1.56011 0
M  V30 851 C 82.5425 -0.947875 1.78946 0
M  V30 852 C 82.8705 -1.844 0.618608 0
M  V30 853 O 82.1255 -1.91629 -0.397093 0
M  V30 854 C 82.4245 -1.81948 3.0762 0
M  V30 855 C 82.0905 -1.07672 4.37856 0
M  V30 856 C 80.7525 -0.871544 4.73242 0
M  V30 857 C 83.1045 -0.552081 5.18268 0
M  V30 858 C 80.4325 -0.129791 5.86556 0
M  V30 859 C 82.7845 0.17632 6.32354 0
M  V30 860 C 81.4485 0.39277 6.66343 0
M  V30 861 H 80.7185 -0.346852 0.654809 0
M  V30 862 H 83.3655 -0.216171 1.90276 0
M  V30 863 H 81.6705 -2.61899 2.91404 0
M  V30 864 H 83.3675 -2.38227 3.22566 0
M  V30 865 H 79.9575 -1.24662 4.1007 0
M  V30 866 H 84.1415 -0.698076 4.91366 0
M  V30 867 H 79.3975 0.048153 6.11381 0
M  V30 868 H 83.5715 0.590367 6.93893 0
M  V30 869 H 81.1985 0.969466 7.53993 0
M  V30 870 N 82.7736 -1.49793 -0.48987 0
M  V30 871 C 83.7366 -1.66752 -1.57246 0
M  V30 872 C 84.7366 -0.538867 -1.51502 0
M  V30 873 O 85.9266 -0.805545 -1.54456 0
M  V30 874 C 83.0586 -1.67528 -2.96896 0
M  V30 875 H 84.2516 -2.63321 -1.43534 0
M  V30 876 H 81.8046 -1.38992 -0.714914 0
M  V30 877 H 82.5396 -0.725837 -3.16073 0
M  V30 878 H 82.3246 -2.49504 -3.02473 0
M  V30 879 H 83.8146 -1.82667 -3.7553 0
M  V30 880 N 84.2517 0.741722 -1.39055 0
M  V30 881 C 85.1617 1.88621 -1.39496 0
M  V30 882 C 86.1777 1.71557 -0.290578 0
M  V30 883 O 87.3537 1.94275 -0.530954 0
M  V30 884 C 84.4187 3.24134 -1.23037 0
M  V30 885 C 83.4797 3.5364 -2.43387 0
M  V30 886 C 82.7127 4.82687 -2.27703 0
M  V30 887 O 82.9357 5.55922 -1.27696 0
M  V30 888 O 81.8697 5.1194 -3.16545 0
M  V30 889 H 85.6957 1.91203 -2.35956 0
M  V30 890 H 83.2807 0.888625 -1.20099 0
M  V30 891 H 85.1627 4.0513 -1.15964 0
M  V30 892 H 83.8377 3.22337 -0.296691 0
M  V30 893 H 82.7447 2.72758 -2.56035 0
M  V30 894 H 84.0777 3.60209 -3.35425 0
M  V30 895 N 85.7298 1.2412 0.971189 0
M  V30 896 C 86.9598 1.10415 1.7462 0
M  V30 897 C 87.3678 -0.346462 1.86001 0
M  V30 898 O 86.7108 -1.25104 1.34517 0
M  V30 899 C 86.7728 1.66596 3.18568 0
M  V30 900 C 86.4368 3.15446 3.3067 0
M  V30 901 C 87.4338 4.12636 3.16271 0
M  V30 902 C 85.1188 3.55337 3.55022 0
M  V30 903 C 87.1128 5.47699 3.26044 0
M  V30 904 C 84.7998 4.90542 3.64434 0
M  V30 905 C 85.7978 5.86532 3.49956 0
M  V30 906 O 85.4858 7.19279 3.59017 0
M  V30 907 H 85.2178 0.386616 0.55453 0
M  V30 908 H 87.7718 1.64633 1.22821 0
M  V30 909 H 86.0018 1.06808 3.71657 0
M  V30 910 H 87.6908 1.48232 3.77865 0
M  V30 911 H 88.4568 3.8316 2.97344 0
M  V30 912 H 84.3358 2.8113 3.65359 0
M  V30 913 H 87.8798 6.22603 3.14661 0
M  V30 914 H 83.7768 5.19691 3.82873 0
M  V30 915 H 84.5448 7.27153 3.75754 0
M  V30 916 N 87.2079 -1.17134 1.05439 0
M  V30 917 C 88.4569 -1.86791 0.761049 0
M  V30 918 C 88.7699 -1.82072 -0.714795 0
M  V30 919 O 89.9759 -2.47223 -1.12218 0
M  V30 920 C 88.4319 -3.35166 1.31117 0
M  V30 921 C 88.0399 -3.48381 2.81664 0
M  V30 922 C 89.7839 -4.10134 1.09499 0
M  V30 923 C 87.6909 -4.90793 3.29964 0
M  V30 924 H 86.6209 -0.699681 0.281002 0
M  V30 925 H 89.2719 -1.3226 1.27199 0
M  V30 926 H 87.6539 -3.8925 0.72803 0
M  V30 927 H 88.8279 -3.04502 3.45855 0
M  V30 928 H 87.1429 -2.86836 3.01851 0
M  V30 929 H 89.7399 -5.152 1.43084 0
M  V30 930 H 90.0829 -4.16287 0.0328772 0
M  V30 931 H 90.6159 -3.62264 1.64346 0
M  V30 932 H 87.3549 -4.89816 4.35616 0
M  V30 933 H 86.8749 -5.35333 2.70516 0
M  V30 934 H 88.5539 -5.59573 3.24787 0
M  V30 935 N 88.686 -0.835752 -1.33615 0
M  V30 936 C 89.618 -0.224151 -2.28101 0
M  V30 937 C 90.631 0.593331 -1.51603 0
M  V30 938 O 91.82 0.420911 -1.73466 0
M  V30 939 C 88.92 0.703309 -3.31522 0
M  V30 940 C 88.093 -0.0741528 -4.37337 0
M  V30 941 C 87.152 0.776176 -5.20444 0
M  V30 942 O 86.178 0.216506 -5.68788 0
M  V30 943 N 87.38 2.09401 -5.41416 0
M  V30 944 H 90.145 -1.03598 -2.81225 0
M  V30 945 H 87.706 -0.69392 -1.46275 0
M  V30 946 H 89.698 1.27707 -3.84022 0
M  V30 947 H 88.268 1.41585 -2.78698 0
M  V30 948 H 87.488 -0.82928 -3.85378 0
M  V30 949 H 88.776 -0.608863 -5.05144 0
M  V30 950 H 88.174 2.57229 -5.03835 0
M  V30 951 H 86.731 2.61633 -5.96985 0
M  V30 952 N 90.1641 1.46063 -0.591896 0
M  V30 953 C 91.1111 2.30399 0.136069 0
M  V30 954 C 92.0811 1.41169 0.875238 0
M  V30 955 O 93.2661 1.70112 0.86409 0
M  V30 956 C 90.4061 3.25804 1.13781 0
M  V30 957 C 89.5191 4.30134 0.401137 0
M  V30 958 C 88.6541 5.12659 1.39121 0
M  V30 959 C 87.6931 6.0873 0.641462 0
M  V30 960 N 86.8301 6.8409 1.58004 0
M  V30 961 H 91.6701 2.92118 -0.589144 0
M  V30 962 H 89.2071 1.43959 -0.302342 0
M  V30 963 H 91.1651 3.79569 1.73156 0
M  V30 964 H 89.7951 2.65872 1.83062 0
M  V30 965 H 88.8471 3.79152 -0.307826 0
M  V30 966 H 90.1591 4.98458 -0.184565 0
M  V30 967 H 89.3131 5.70747 2.05749 0
M  V30 968 H 88.0521 4.44316 2.01084 0
M  V30 969 H 87.0571 5.49786 -0.0385419 0
M  V30 970 H 88.2821 6.79095 0.0270945 0
M  V30 971 H 86.2281 6.18449 2.18761 0
M  V30 972 H 86.1451 7.48709 1.04738 0
M  V30 973 H 87.4131 7.4673 2.23639 0
M  V30 974 N 91.6422 0.330177 1.54103 0
M  V30 975 C 92.5902 -0.548226 2.26047 0
M  V30 976 C 93.5842 -1.11309 1.27698 0
M  V30 977 O 94.7902 -1.06036 1.45452 0
M  V30 978 H 91.1652 -0.195456 0.726155 0
M  V30 979 H 93.1362 0.0807567 2.98291 0
M  V30 980 C 91.8852 -1.69415 3.03634 0
M  V30 981 H 91.2082 -1.26876 3.79134 0
M  V30 982 H 92.6482 -2.28423 3.5721 0
M  V30 983 C 91.1072 -2.61569 2.12328 0
M  V30 984 O 91.6372 -3.63462 1.7105 0
M  V30 985 N 89.8432 -2.29952 1.77681 0
M  V30 986 H 89.3902 -1.47134 2.11446 0
M  V30 987 H 89.3482 -2.91871 1.16869 0
M  V30 988 N 93.1203 -1.57491 0.0584922 0
M  V30 989 C 94.3663 -1.93264 -0.614558 0
M  V30 990 C 94.6993 -0.937717 -1.7006 0
M  V30 991 O 93.9743 0.0351652 -1.94468 0
M  V30 992 C 94.2573 -3.3938 -1.20386 0
M  V30 993 C 94.1103 -4.49625 -0.125375 0
M  V30 994 C 95.4293 -3.86039 -2.11334 0
M  V30 995 H 92.5483 -0.702791 -0.221933 0
M  V30 996 H 95.1903 -1.8961 0.12175 0
M  V30 997 H 93.3403 -3.42626 -1.83139 0
M  V30 998 H 95.0123 -4.58506 0.506971 0
M  V30 999 H 93.2553 -4.30354 0.545672 0
M  V30 1000 H 93.9263 -5.48967 -0.577861 0
M  V30 1001 H 96.4023 -3.84716 -1.58534 0
M  V30 1002 H 95.2783 -4.88914 -2.49507 0
M  V30 1003 H 95.5393 -3.23215 -3.01636 0
M  V30 1004 N 94.5984 0.214957 -1.56127 0
M  V30 1005 C 95.5304 1.29004 -1.89448 0
M  V30 1006 C 96.5434 1.42716 -0.783326 0
M  V30 1007 O 97.7324 1.43496 -1.06166 0
M  V30 1008 C 94.8324 2.66482 -2.09381 0
M  V30 1009 C 94.0054 2.74633 -3.40434 0
M  V30 1010 C 93.0644 3.9317 -3.49719 0
M  V30 1011 O 92.0904 3.812 -4.227 0
M  V30 1012 N 93.2924 5.07765 -2.81346 0
M  V30 1013 H 96.0574 1.00743 -2.82261 0
M  V30 1014 H 93.6184 0.40497 -1.56753 0
M  V30 1015 H 95.6104 3.44173 -2.12901 0
M  V30 1016 H 94.1804 2.87314 -1.23163 0
M  V30 1017 H 93.4004 1.83368 -3.48955 0
M  V30 1018 H 94.6884 2.77054 -4.26754 0
M  V30 1019 H 94.0864 5.20386 -2.21843 0
M  V30 1020 H 92.6434 5.83474 -2.90519 0
M  V30 1021 N 96.0765 1.50051 0.48192 0
M  V30 1022 C 97.0065 1.71046 1.58951 0
M  V30 1023 C 97.9875 0.559288 1.60642 0
M  V30 1024 O 99.1725 0.797243 1.77081 0
M  V30 1025 C 96.3025 1.79462 2.97339 0
M  V30 1026 C 95.2565 2.94558 3.10515 0
M  V30 1027 C 94.5825 2.88105 4.50444 0
M  V30 1028 C 95.8825 4.35227 2.88747 0
M  V30 1029 H 97.5765 2.6378 1.41635 0
M  V30 1030 H 95.1225 1.26936 0.679942 0
M  V30 1031 H 97.0755 1.92734 3.74742 0
M  V30 1032 H 95.7995 0.833412 3.15788 0
M  V30 1033 H 94.4585 2.80918 2.35543 0
M  V30 1034 H 94.1065 1.89853 4.65795 0
M  V30 1035 H 93.8065 3.65366 4.60197 0
M  V30 1036 H 95.3305 3.03412 5.29881 0
M  V30 1037 H 96.7445 4.49449 3.55905 0
M  V30 1038 H 95.1415 5.13856 3.09955 0
M  V30 1039 H 96.2115 4.48347 1.84696 0
M  V30 1040 N 97.5546 -0.734337 1.39446 0
M  V30 1041 C 98.7846 -1.52137 1.39778 0
M  V30 1042 C 99.1926 -1.89198 -0.00929312 0
M  V30 1043 O 98.5356 -1.54666 -0.991168 0
M  V30 1044 C 98.5976 -2.83762 2.20724 0
M  V30 1045 C 98.2616 -2.69131 3.69347 0
M  V30 1046 C 99.2586 -2.37635 4.62413 0
M  V30 1047 C 96.9436 -2.85982 4.1294 0
M  V30 1048 C 98.9376 -2.23172 5.97054 0
M  V30 1049 C 96.6246 -2.71137 5.47657 0
M  V30 1050 C 97.6226 -2.39777 6.39528 0
M  V30 1051 O 97.3106 -2.25026 7.71763 0
M  V30 1052 H 97.0426 -0.476717 0.479288 0
M  V30 1053 H 99.5966 -0.915012 1.83893 0
M  V30 1054 H 97.8266 -3.4666 1.71359 0
M  V30 1055 H 99.5156 -3.45383 2.13226 0
M  V30 1056 H 100.282 -2.24267 4.30034 0
M  V30 1057 H 96.1606 -3.09383 3.41765 0
M  V30 1058 H 99.7046 -1.98617 6.68728 0
M  V30 1059 H 95.6016 -2.84083 5.79626 0
M  V30 1060 H 96.3696 -2.40091 7.82495 0
M  V30 1061 N 99.0327 -1.24633 -0.964593 0
M  V30 1062 C 99.9797 -1.04144 -2.05968 0
M  V30 1063 C 100.95 0.046262 -1.66036 0
M  V30 1064 O 102.135 -0.108972 -1.90489 0
M  V30 1065 C 99.2747 -0.65563 -3.38815 0
M  V30 1066 C 98.3877 -1.81714 -3.91923 0
M  V30 1067 C 97.5227 -1.37662 -5.13052 0
M  V30 1068 C 96.5617 -2.50788 -5.58365 0
M  V30 1069 N 95.6987 -2.07582 -6.70712 0
M  V30 1070 H 100.539 -1.9787 -2.22827 0
M  V30 1071 H 98.0757 -0.9855 -1.09208 0
M  V30 1072 H 100.034 -0.412954 -4.15151 0
M  V30 1073 H 98.6637 0.244627 -3.21872 0
M  V30 1074 H 97.7157 -2.1734 -3.12198 0
M  V30 1075 H 99.0277 -2.66705 -4.21509 0
M  V30 1076 H 98.1817 -1.093 -5.96773 0
M  V30 1077 H 96.9207 -0.497293 -4.85158 0
M  V30 1078 H 95.9257 -2.79906 -4.73215 0
M  V30 1079 H 97.1507 -3.39283 -5.88272 0
M  V30 1080 H 95.0967 -1.22051 -6.44546 0
M  V30 1081 H 95.0137 -2.86125 -6.99763 0
M  V30 1082 H 96.2817 -1.82369 -7.57867 0
M  V30 1083 N 100.511 1.16574 -1.06058 0
M  V30 1084 C 101.444 2.19798 -0.61352 0
M  V30 1085 C 102.422 1.58509 0.362453 0
M  V30 1086 O 103.606 1.86527 0.271994 0
M  V30 1087 C 100.733 3.3855 0.100915 0
M  V30 1088 C 99.7788 4.18317 -0.831438 0
M  V30 1089 S 100.612 4.82375 -2.32539 0
M  V30 1090 C 101.768 6.04508 -1.62238 0
M  V30 1091 H 102.001 2.5738 -1.48805 0
M  V30 1092 H 99.5338 1.27327 -0.873338 0
M  V30 1093 H 101.492 4.07358 0.506898 0
M  V30 1094 H 100.153 2.99338 0.951604 0
M  V30 1095 H 99.3458 5.03232 -0.278071 0
M  V30 1096 H 98.9478 3.5499 -1.17719 0
M  V30 1097 H 101.24 6.71133 -0.926622 0
M  V30 1098 H 102.183 6.64389 -2.44934 0
M  V30 1099 H 102.591 5.53559 -1.106 0
M  V30 1100 N 101.989 0.842826 1.3317 0
M  V30 1101 C 103.405 0.531128 1.50503 0
M  V30 1102 C 103.605 -0.940734 1.78192 0
M  V30 1103 O 102.661 -1.72436 1.84451 0
M  V30 1104 C 103.974 1.40789 2.65705 0
M  V30 1105 C 105.522 1.40708 2.79589 0
M  V30 1106 C 105.997 2.26878 3.97857 0
M  V30 1107 N 107.488 2.24609 4.05099 0
M  V30 1108 C 108.223 2.88019 4.95815 0
M  V30 1109 N 107.719 3.60496 5.9162 0
M  V30 1110 N 109.512 2.77469 4.88843 0
M  V30 1111 H 101.663 1.79557 1.1346 0
M  V30 1112 H 103.926 0.766267 0.558156 0
M  V30 1113 H 103.632 2.454 2.51936 0
M  V30 1114 H 103.506 1.08677 3.61205 0
M  V30 1115 H 105.893 0.368668 2.92788 0
M  V30 1116 H 105.974 1.76829 1.84838 0
M  V30 1117 H 105.618 3.3078 3.85418 0
M  V30 1118 H 105.548 1.88096 4.91861 0
M  V30 1119 H 108.039 1.71906 3.36536 0
M  V30 1120 H 108.352 4.06076 6.57512 0
M  V30 1121 H 106.697 3.64604 5.91683 0
M  V30 1122 H 109.888 2.20406 4.12963 0
M  V30 1123 H 110.061 3.2717 5.59342 0
M  V30 1124 N 103.467 -1.45747 0.599634 0
M  V30 1125 C 104.415 -2.322 -0.136426 0
M  V30 1126 C 105.409 -1.45497 -0.867583 0
M  V30 1127 O 106.615 -1.62027 -0.78405 0
M  V30 1128 H 102.99 -0.749368 -0.0628588 0
M  V30 1129 H 104.961 -2.92072 0.611281 0
M  V30 1130 C 103.71 -3.28974 -1.12567 0
M  V30 1131 H 103.033 -3.9568 -0.572484 0
M  V30 1132 H 104.473 -3.92212 -1.61077 0
M  V30 1133 C 102.932 -2.55561 -2.19523 0
M  V30 1134 O 103.462 -2.33111 -3.27143 0
M  V30 1135 N 101.668 -2.15832 -1.94589 0
M  V30 1136 H 101.215 -2.3429 -1.07078 0
M  V30 1137 H 101.173 -1.67034 -2.66359 0
M  V30 1138 N 104.945 -0.338344 -1.53925 0
M  V30 1139 C 106.193 0.259245 -2.0043 0
M  V30 1140 C 106.514 1.51484 -1.22791 0
M  V30 1141 O 105.784 1.93037 -0.33368 0
M  V30 1142 H 104.364 0.0987845 -0.740439 0
M  V30 1143 H 107.026 -0.458302 -1.89435 0
M  V30 1144 H 106.122 0.505334 -3.07982 0
M  V30 1145 N 106.423 1.57458 -0.0668435 0
M  V30 1146 C 107.653 1.97337 0.611677 0
M  V30 1147 C 108.061 0.943744 1.63982 0
M  V30 1148 O 107.404 -0.0785584 1.83532 0
M  V30 1149 C 107.466 3.33511 1.34205 0
M  V30 1150 C 107.13 4.54598 0.467941 0
M  V30 1151 C 108.127 5.19186 -0.272439 0
M  V30 1152 C 105.812 5.0075 0.39427 0
M  V30 1153 C 107.806 6.28274 -1.07476 0
M  V30 1154 C 105.493 6.09711 -0.411729 0
M  V30 1155 C 106.491 6.73335 -1.14492 0
M  V30 1156 O 106.179 7.80199 -1.93763 0
M  V30 1157 H 105.911 0.654042 0.170893 0
M  V30 1158 H 108.465 2.04961 -0.134289 0
M  V30 1159 H 106.695 3.22487 2.13398 0
M  V30 1160 H 108.384 3.58029 1.91233 0
M  V30 1161 H 109.15 4.84477 -0.225086 0
M  V30 1162 H 105.029 4.51009 0.954569 0
M  V30 1163 H 108.573 6.77866 -1.64755 0
M  V30 1164 H 104.47 6.43854 -0.460664 0
M  V30 1165 H 105.238 7.97053 -1.86142 0
M  V30 1166 N 107.901 -0.206675 1.56239 0
M  V30 1167 C 108.811 -1.27686 1.96808 0
M  V30 1168 C 109.827 -1.50455 0.874035 0
M  V30 1169 O 111.003 -1.63295 1.17884 0
M  V30 1170 C 108.068 -2.60358 2.28942 0
M  V30 1171 C 107.129 -2.45762 3.51994 0
M  V30 1172 C 106.362 -3.72108 3.82585 0
M  V30 1173 O 106.585 -4.75776 3.14631 0
M  V30 1174 O 105.519 -3.6833 4.76043 0
M  V30 1175 H 109.345 -0.962593 2.88041 0
M  V30 1176 H 106.93 -0.410746 1.43643 0
M  V30 1177 H 108.812 -3.38687 2.50737 0
M  V30 1178 H 107.487 -2.91435 1.4088 0
M  V30 1179 H 106.394 -1.65584 3.35459 0
M  V30 1180 H 107.727 -2.19621 4.40486 0
M  V30 1181 N 109.379 -1.50304 -0.473955 0
M  V30 1182 C 110.309 -1.71886 -1.58042 0
M  V30 1183 C 111.29 -0.567799 -1.60344 0
M  V30 1184 O 112.475 -0.806623 -1.76656 0
M  V30 1185 C 109.605 -1.81036 -2.96384 0
M  V30 1186 C 108.559 -2.962 -3.08949 0
M  V30 1187 C 107.885 -2.9049 -4.48909 0
M  V30 1188 C 109.185 -4.36752 -2.86434 0
M  V30 1189 H 110.879 -2.64527 -1.40234 0
M  V30 1190 H 108.425 -1.27295 -0.673201 0
M  V30 1191 H 110.378 -1.94719 -3.73714 0
M  V30 1192 H 109.102 -0.850147 -3.15341 0
M  V30 1193 H 107.761 -2.82164 -2.3405 0
M  V30 1194 H 107.409 -1.92321 -4.64781 0
M  V30 1195 H 107.109 -3.67802 -4.58253 0
M  V30 1196 H 108.633 -3.06218 -5.28264 0
M  V30 1197 H 110.047 -4.5133 -3.53517 0
M  V30 1198 H 108.444 -5.15493 -3.07225 0
M  V30 1199 H 109.514 -4.49321 -1.82316 0
M  V30 1200 N 110.857 0.726932 -1.39834 0
M  V30 1201 C 112.082 1.52121 -1.40976 0
M  V30 1202 C 112.507 1.88098 -0.00826029 0
M  V30 1203 O 111.865 1.52479 0.980807 0
M  V30 1204 C 111.913 2.78021 -2.29644 0
M  V30 1205 O 111.017 3.74272 -1.73188 0
M  V30 1206 H 110.358 0.45908 -0.479731 0
M  V30 1207 H 112.888 0.896207 -1.83927 0
M  V30 1208 H 112.898 3.26671 -2.44438 0
M  V30 1209 H 111.573 2.51169 -3.31492 0
M  V30 1210 H 110.15 3.33073 -1.6768 0
M  V30 1211 N 112.336 1.25143 0.95797 0
M  V30 1212 C 113.747 1.08851 1.51685 0
M  V30 1213 C 114.098 -0.33687 1.93286 0
M  V30 1214 O 113.223 -1.22644 1.7829 0
M  V30 1215 C 113.818 1.96978 2.75654 0
M  V30 1216 C 112.377 1.84881 3.27866 0
M  V30 1217 C 111.524 1.91329 2.0072 0
M  V30 1218 H 114.475 1.38478 0.77522 0
M  V30 1219 H 114.496 1.5078 3.4935 0
M  V30 1220 H 114.008 3.00712 2.45345 0
M  V30 1221 H 112.109 0.840182 3.63004 0
M  V30 1222 H 112.222 2.6951 3.96107 0
M  V30 1223 H 110.586 1.35174 2.15871 0
M  V30 1224 H 111.369 2.96661 1.72764 0
M  V30 1225 N 113.814 -1.1601 1.06675 0
M  V30 1226 C 115.042 -1.90527 0.806667 0
M  V30 1227 C 115.457 -1.77643 -0.639396 0
M  V30 1228 O 114.814 -1.12369 -1.43803 0
M  V30 1229 C 114.865 -3.41106 1.19705 0
M  V30 1230 O 114.586 -3.53608 2.58636 0
M  V30 1231 C 116.087 -4.32663 0.965266 0
M  V30 1232 H 113.307 -0.604053 0.292166 0
M  V30 1233 H 115.851 -1.47026 1.4214 0
M  V30 1234 H 114.006 -3.82296 0.626774 0
M  V30 1235 H 114.42 -4.47011 2.74375 0
M  V30 1236 H 115.894 -5.36763 1.288 0
M  V30 1237 H 116.371 -4.39089 -0.0987936 0
M  V30 1238 H 116.977 -3.97206 1.52011 0
M  V30 1239 N 115.292 -0.849877 -1.32721 0
M  V30 1240 C 116.255 -0.296122 -2.27279 0
M  V30 1241 C 117.255 0.541458 -1.5141 0
M  V30 1242 O 118.445 0.353658 -1.70572 0
M  V30 1243 C 115.577 0.581579 -3.35902 0
M  V30 1244 H 116.77 -1.13064 -2.77771 0
M  V30 1245 H 114.323 -0.62383 -1.43311 0
M  V30 1246 H 115.058 1.43809 -2.9067 0
M  V30 1247 H 114.843 -0.0178814 -3.92096 0
M  V30 1248 H 116.333 0.961951 -4.0637 0
M  V30 1249 N 116.77 1.45427 -0.607355 0
M  V30 1250 C 117.733 2.28974 0.101693 0
M  V30 1251 C 118.733 1.39754 0.795329 0
M  V30 1252 O 119.923 1.61878 0.643527 0
M  V30 1253 C 117.055 3.20768 1.15414 0
M  V30 1254 H 118.248 2.93147 -0.632844 0
M  V30 1255 H 115.801 1.51945 -0.366391 0
M  V30 1256 H 116.536 2.61395 1.91945 0
M  V30 1257 H 116.321 3.86489 0.66098 0
M  V30 1258 H 117.811 3.83589 1.65073 0
M  V30 1259 N 118.248 0.346503 1.53744 0
M  V30 1260 C 119.211 -0.496439 2.23759 0
M  V30 1261 C 120.211 -1.0252 1.2388 0
M  V30 1262 O 121.401 -0.913974 1.48297 0
M  V30 1263 C 118.533 -1.69187 2.95954 0
M  V30 1264 H 119.726 0.115952 2.99676 0
M  V30 1265 H 117.279 0.0978939 1.55993 0
M  V30 1266 H 118.014 -2.34288 2.24231 0
M  V30 1267 H 117.799 -1.31989 3.69217 0
M  V30 1268 H 119.289 -2.28969 3.49232 0
M  V30 1269 N 119.726 -1.57421 0.075193 0
M  V30 1270 C 120.674 -2.14124 -0.908508 0
M  V30 1271 C 121.668 -1.07898 -1.30592 0
M  V30 1272 O 122.874 -1.26273 -1.28277 0
M  V30 1273 H 119.249 -0.684707 -0.310935 0
M  V30 1274 H 121.22 -2.95634 -0.405374 0
M  V30 1275 C 119.969 -2.72044 -2.16535 0
M  V30 1276 H 119.292 -3.53456 -1.86839 0
M  V30 1277 H 120.732 -3.15311 -2.83469 0
M  V30 1278 C 119.191 -1.66968 -2.92615 0
M  V30 1279 O 119.721 -1.0967 -3.86439 0
M  V30 1280 N 117.927 -1.37923 -2.55784 0
M  V30 1281 H 117.474 -1.84706 -1.79559 0
M  V30 1282 H 117.432 -0.67852 -3.06991 0
M  V30 1283 N 121.204 0.198386 -1.56346 0
M  V30 1284 C 122.451 0.919286 -1.80431 0
M  V30 1285 C 122.779 1.83393 -0.647866 0
M  V30 1286 O 122.034 1.92236 0.366556 0
M  V30 1287 C 122.333 1.77031 -3.10475 0
M  V30 1288 C 121.999 1.00693 -4.39513 0
M  V30 1289 C 120.661 0.796145 -4.74568 0
M  V30 1290 C 123.013 0.469559 -5.19081 0
M  V30 1291 C 120.341 0.0364588 -5.86689 0
M  V30 1292 C 122.693 -0.2769 -6.31994 0
M  V30 1293 C 121.357 -0.49873 -6.65634 0
M  V30 1294 H 120.627 0.336391 -0.660244 0
M  V30 1295 H 123.274 0.185872 -1.90596 0
M  V30 1296 H 121.579 2.5723 -2.95533 0
M  V30 1297 H 123.276 2.33065 -3.26315 0
M  V30 1298 H 119.866 1.18122 -4.12001 0
M  V30 1299 H 124.05 0.619816 -4.92414 0
M  V30 1300 H 119.306 -0.145412 -6.11227 0
M  V30 1301 H 123.48 -0.700684 -6.92866 0
M  V30 1302 H 121.107 -1.0893 -7.52355 0
M  V30 1303 N 122.682 1.50554 0.465978 0
M  V30 1304 C 123.91 1.65563 1.24083 0
M  V30 1305 C 124.325 0.341051 1.85694 0
M  V30 1306 O 123.682 -0.677543 1.69457 0
M  V30 1307 C 123.733 2.75051 2.34583 0
M  V30 1308 O 123.454 4.01413 1.75497 0
M  V30 1309 C 124.955 3.01078 3.25372 0
M  V30 1310 H 122.175 0.55638 0.375077 0
M  V30 1311 H 124.719 1.96807 0.555624 0
M  V30 1312 H 122.874 2.46486 2.9887 0
M  V30 1313 H 123.288 4.62002 2.48303 0
M  V30 1314 H 124.762 3.81339 3.99105 0
M  V30 1315 H 125.239 2.12349 3.84453 0
M  V30 1316 H 125.845 3.31194 2.66816 0
M  V30 1317 N 124.16 -0.719506 1.40217 0
M  V30 1318 C 125.576 -1.02707 1.22161 0
M  V30 1319 C 125.776 -2.0128 0.0940557 0
M  V30 1320 O 124.832 -2.46452 -0.549318 0
M  V30 1321 C 126.145 -1.57454 2.56181 0
M  V30 1322 C 127.693 -1.69458 2.63159 0
M  V30 1323 C 128.168 -2.27611 3.97438 0
M  V30 1324 N 129.659 -2.35002 3.99159 0
M  V30 1325 C 130.394 -2.80972 4.99842 0
M  V30 1326 N 129.89 -3.26723 6.10921 0
M  V30 1327 N 131.683 -2.80321 4.87213 0
M  V30 1328 H 123.834 -0.0660492 2.12297 0
M  V30 1329 H 126.097 -0.0919077 0.943534 0
M  V30 1330 H 125.803 -0.924873 3.39321 0
M  V30 1331 H 125.677 -2.56036 2.76993 0
M  V30 1332 H 128.064 -2.33543 1.80393 0
M  V30 1333 H 128.145 -0.694867 2.46181 0
M  V30 1334 H 127.789 -1.6415 4.80643 0
M  V30 1335 H 127.719 -3.2829 4.11744 0
M  V30 1336 H 130.21 -2.02685 3.18947 0
M  V30 1337 H 130.523 -3.60355 6.8364 0
M  V30 1338 H 128.868 -3.24692 6.14492 0
M  V30 1339 H 132.059 -2.43912 3.9953 0
M  V30 1340 H 132.232 -3.15831 5.65822 0
M  V30 1341 N 125.638 -1.25649 -0.95132 0
M  V30 1342 C 127.054 -1.02542 -1.223 0
M  V30 1343 C 127.254 0.255715 -1.99871 0
M  V30 1344 O 126.31 0.967558 -2.33226 0
M  V30 1345 C 127.623 -2.25065 -1.99415 0
M  V30 1346 C 129.171 -2.29861 -2.12446 0
M  V30 1347 C 129.646 -3.52048 -2.92961 0
M  V30 1348 N 131.137 -3.52465 -3.00538 0
M  V30 1349 C 131.872 -4.43672 -3.63239 0
M  V30 1350 N 131.368 -5.45157 -4.27523 0
M  V30 1351 N 133.161 -4.31346 -3.60412 0
M  V30 1352 H 125.312 -2.07951 -0.432471 0
M  V30 1353 H 127.575 -0.91339 -0.253816 0
M  V30 1354 H 127.281 -3.18194 -1.49817 0
M  V30 1355 H 127.155 -2.28502 -3.00111 0
M  V30 1356 H 129.542 -1.37252 -2.61239 0
M  V30 1357 H 129.623 -2.3044 -1.11044 0
M  V30 1358 H 129.267 -4.44981 -2.44856 0
M  V30 1359 H 129.197 -3.48715 -3.94596 0
M  V30 1360 H 131.688 -2.79056 -2.54826 0
M  V30 1361 H 132.001 -6.10958 -4.73234 0
M  V30 1362 H 130.346 -5.49025 -4.26141 0
M  V30 1363 H 133.537 -3.51288 -3.09377 0
M  V30 1364 H 133.71 -5.02624 -4.0899 0
M  V30 1365 N 127.117 1.15442 -1.07289 0
M  V30 1366 C 128.065 2.22225 -0.686952 0
M  V30 1367 C 129.059 1.66688 0.30193 0
M  V30 1368 O 130.265 1.79236 0.165712 0
M  V30 1369 H 126.64 0.723783 -0.204064 0
M  V30 1370 H 128.611 2.52056 -1.5972 0
M  V30 1371 C 127.36 3.47556 -0.100149 0
M  V30 1372 H 126.683 3.90612 -0.852211 0
M  V30 1373 H 128.123 4.23794 0.132235 0
M  V30 1374 C 126.582 3.16337 1.159 0
M  V30 1375 O 127.112 3.33074 2.24555 0
M  V30 1376 N 125.318 2.70385 1.06491 0
M  V30 1377 H 124.865 2.56966 0.180668 0
M  V30 1378 H 124.823 2.49871 1.90819 0
M  V30 1379 N 128.595 0.856903 1.32268 0
M  V30 1380 C 129.525 0.31858 2.31316 0
M  V30 1381 C 130.506 -0.583487 1.59779 0
M  V30 1382 O 131.691 -0.503259 1.87566 0
M  V30 1383 C 128.821 -0.491979 3.43798 0
M  V30 1384 C 127.775 0.315849 4.26833 0
M  V30 1385 C 127.101 -0.619586 5.31098 0
M  V30 1386 C 128.401 1.54282 4.98993 0
M  V30 1387 H 130.095 1.14621 2.76591 0
M  V30 1388 H 127.641 0.552613 1.32974 0
M  V30 1389 H 129.594 -0.879012 4.1213 0
M  V30 1390 H 128.318 -1.35299 2.97257 0
M  V30 1391 H 126.977 0.684664 3.6015 0
M  V30 1392 H 126.625 -1.47751 4.8081 0
M  V30 1393 H 126.325 -0.0830621 5.87541 0
M  V30 1394 H 127.849 -1.00375 6.02293 0
M  V30 1395 H 129.263 1.22796 5.59995 0
M  V30 1396 H 127.66 2.01745 5.65172 0
M  V30 1397 H 128.73 2.30285 4.26728 0
M  V30 1398 N 130.073 -1.45103 0.615059 0
M  V30 1399 C 131.036 -2.29025 -0.0895485 0
M  V30 1400 C 132.036 -1.40174 -0.787906 0
M  V30 1401 O 133.226 -1.62217 -0.634933 0
M  V30 1402 C 130.358 -3.21376 -1.13711 0
M  V30 1403 H 131.551 -2.92807 0.648382 0
M  V30 1404 H 129.104 -1.51749 0.374444 0
M  V30 1405 H 129.839 -2.6241 -1.90556 0
M  V30 1406 H 129.624 -3.86834 -0.640475 0
M  V30 1407 H 131.114 -3.84459 -1.63036 0
M  V30 1408 N 131.551 -0.354651 -1.53558 0
M  V30 1409 C 132.828 0.294281 -1.93374 0
M  V30 1410 C 133.208 1.67313 -1.28723 0
M  V30 1411 O 132.556 2.24179 -0.442247 0
M  V30 1412 C 132.766 0.355445 -3.47185 0
M  V30 1413 C 134.114 0.601007 -4.20325 0
M  V30 1414 O 135.138 0.437106 -3.53508 0
M  V30 1415 O 133.997 0.919322 -5.38712 0
M  V30 1416 H 131.091 0.174033 -0.808481 0
M  V30 1417 H 133.637 -0.406638 -1.64756 0
M  V30 1418 H 132.409 -0.611729 -3.86489 0
M  V30 1419 H 132.032 1.1027 -3.82003 0
M  V30 1420 N 133.029 1.57378 -0.0835403 0
M  V30 1421 C 134.269 1.95808 0.586381 0
M  V30 1422 C 134.633 0.963706 1.66062 0
M  V30 1423 O 135.834 1.23608 2.38693 0
M  V30 1424 C 134.105 3.38808 1.13771 0
M  V30 1425 S 135.664 3.99225 1.82112 0
M  V30 1426 H 132.482 0.684675 0.191679 0
M  V30 1427 H 135.084 1.94843 -0.160194 0
M  V30 1428 H 133.788 4.08954 0.344197 0
M  V30 1429 H 133.319 3.43344 1.92038 0
M  V30 1430 H 135.334 3.87087 3.10449 0
M  V30 1431 N 134.507 -0.190092 1.56449 0
M  V30 1432 C 135.437 -1.23816 1.97969 0
M  V30 1433 C 136.418 -1.47201 0.852395 0
M  V30 1434 O 137.603 -1.58854 1.1171 0
M  V30 1435 C 134.733 -2.5813 2.3235 0
M  V30 1436 C 133.687 -2.49348 3.47864 0
M  V30 1437 C 133.013 -3.8798 3.67934 0
M  V30 1438 C 134.313 -2.01424 4.81898 0
M  V30 1439 H 136.007 -0.89311 2.85769 0
M  V30 1440 H 133.553 -0.428177 1.37487 0
M  V30 1441 H 135.506 -3.31637 2.59991 0
M  V30 1442 H 134.23 -2.94386 1.41438 0
M  V30 1443 H 132.889 -1.78297 3.20321 0
M  V30 1444 H 132.537 -4.21597 2.74344 0
M  V30 1445 H 132.237 -3.82978 4.45648 0
M  V30 1446 H 133.761 -4.63101 3.97957 0
M  V30 1447 H 135.175 -2.64693 5.08538 0
M  V30 1448 H 133.572 -2.07413 5.63116 0
M  V30 1449 H 134.642 -0.967677 4.75146 0
M  V30 1450 N 135.985 -1.50799 -0.457987 0
M  V30 1451 C 137.401 -1.38515 -0.792819 0
M  V30 1452 C 137.601 -0.451409 -1.96379 0
M  V30 1453 O 136.657 0.10112 -2.52297 0
M  V30 1454 C 137.97 -2.80149 -1.09258 0
M  V30 1455 C 139.518 -2.89156 -1.19825 0
M  V30 1456 C 139.993 -4.31651 -1.53106 0
M  V30 1457 N 141.484 -4.34662 -1.60072 0
M  V30 1458 C 142.219 -5.41928 -1.87354 0
M  V30 1459 N 141.715 -6.59384 -2.12568 0
M  V30 1460 N 143.508 -5.29385 -1.88965 0
M  V30 1461 H 135.659 -2.10073 0.313511 0
M  V30 1462 H 137.922 -0.944803 0.0777862 0
M  V30 1463 H 137.628 -3.50374 -0.305084 0
M  V30 1464 H 137.502 -3.18204 -2.02549 0
M  V30 1465 H 139.889 -2.19141 -1.97639 0
M  V30 1466 H 139.97 -2.54626 -0.244821 0
M  V30 1467 H 139.614 -5.02208 -0.758266 0
M  V30 1468 H 139.544 -4.63678 -2.49621 0
M  V30 1469 H 142.035 -3.49973 -1.42573 0
M  V30 1470 H 142.348 -7.36934 -2.32696 0
M  V30 1471 H 140.693 -6.62535 -2.09933 0
M  V30 1472 H 143.884 -4.36616 -1.68772 0
M  V30 1473 H 144.057 -6.13066 -2.09891 0
M  V30 1474 N 137.463 0.71206 -1.40597 0
M  V30 1475 C 138.688 1.50617 -1.42581 0
M  V30 1476 C 139.113 1.88079 -0.0282102 0
M  V30 1477 O 138.471 1.53511 0.964579 0
M  V30 1478 C 138.519 2.7557 -2.3258 0
M  V30 1479 O 137.623 3.72414 -1.77148 0
M  V30 1480 H 136.964 0.453966 -0.484573 0
M  V30 1481 H 139.494 0.876649 -1.84868 0
M  V30 1482 H 139.504 3.2406 -2.47889 0
M  V30 1483 H 138.179 2.47639 -3.34138 0
M  V30 1484 H 136.756 3.31276 -1.71204 0
M  V30 1485 N 138.941 1.26152 0.944643 0
M  V30 1486 C 140.357 1.03189 1.21754 0
M  V30 1487 C 140.557 -0.245112 2.00004 0
M  V30 1488 O 139.613 -0.955176 2.33736 0
M  V30 1489 C 140.926 2.26119 1.98219 0
M  V30 1490 C 142.474 2.30984 2.11224 0
M  V30 1491 C 142.949 3.53597 2.91089 0
M  V30 1492 N 144.44 3.54053 2.98664 0
M  V30 1493 C 145.175 4.45593 3.60881 0
M  V30 1494 N 144.671 5.47416 4.24626 0
M  V30 1495 N 146.464 4.33252 3.58119 0
M  V30 1496 H 138.615 2.08177 0.421437 0
M  V30 1497 H 140.878 0.914723 0.248969 0
M  V30 1498 H 140.584 3.18984 1.48128 0
M  V30 1499 H 140.458 2.3009 2.98895 0
M  V30 1500 H 142.845 1.38635 2.60508 0
M  V30 1501 H 142.926 2.31026 1.09821 0
M  V30 1502 H 142.57 4.46273 2.42493 0
M  V30 1503 H 142.5 3.50802 3.92741 0
M  V30 1504 H 144.991 2.80403 2.53343 0
M  V30 1505 H 145.304 6.13459 4.69987 0
M  V30 1506 H 143.649 5.51278 4.23223 0
M  V30 1507 H 146.84 3.52924 3.0751 0
M  V30 1508 H 147.013 5.04786 4.06319 0
M  V30 1509 N 140.419 -1.14872 1.07899 0
M  V30 1510 C 141.647 -1.89661 0.82683 0
M  V30 1511 C 142.062 -1.78312 -0.620519 0
M  V30 1512 O 141.419 -1.13888 -1.42604 0
M  V30 1513 C 141.47 -3.39817 1.23316 0
M  V30 1514 O 141.191 -3.50845 2.62372 0
M  V30 1515 C 142.692 -4.31615 1.0111 0
M  V30 1516 H 139.912 -0.60092 0.298557 0
M  V30 1517 H 142.456 -1.4551 1.43691 0
M  V30 1518 H 140.611 -3.8161 0.667286 0
M  V30 1519 H 141.025 -4.44076 2.79101 0
M  V30 1520 H 142.499 -5.35367 1.34486 0
M  V30 1521 H 142.976 -4.39169 -0.0522168 0
M  V30 1522 H 143.582 -3.95572 1.56215 0
M  V30 1523 N 141.898 -0.863906 -1.31812 0
M  V30 1524 C 143.309 -0.52522 -1.7916 0
M  V30 1525 C 143.66 0.957518 -1.71248 0
M  V30 1526 O 142.785 1.74734 -1.27659 0
M  V30 1527 C 143.38 -0.9466 -3.25307 0
M  V30 1528 C 141.939 -0.659668 -3.70574 0
M  V30 1529 C 141.086 -1.14126 -2.52726 0
M  V30 1530 H 144.037 -1.05022 -1.1898 0
M  V30 1531 H 144.058 -0.266766 -3.79564 0
M  V30 1532 H 143.57 -2.02579 -3.31034 0
M  V30 1533 H 141.671 0.408416 -3.70355 0
M  V30 1534 H 141.784 -1.23245 -4.62977 0
M  V30 1535 H 140.148 -0.561216 -2.4844 0
M  V30 1536 H 140.931 -2.22775 -2.61201 0
M  V30 1537 N 143.376 1.44774 -0.622745 0
M  V30 1538 C 144.606 2.06187 -0.130532 0
M  V30 1539 C 145.014 1.46547 1.19669 0
M  V30 1540 O 144.357 0.579636 1.74316 0
M  V30 1541 C 144.419 3.59437 0.0674983 0
M  V30 1542 C 144.083 4.41496 -1.18026 0
M  V30 1543 C 145.08 4.75512 -2.102 0
M  V30 1544 C 142.765 4.82007 -1.41333 0
M  V30 1545 C 144.759 5.48912 -3.23998 0
M  V30 1546 C 142.446 5.55157 -2.55429 0
M  V30 1547 C 143.444 5.88528 -3.46589 0
M  V30 1548 O 143.132 6.60191 -4.58697 0
M  V30 1549 H 142.864 0.672045 -0.0730162 0
M  V30 1550 H 145.418 1.86768 -0.854802 0
M  V30 1551 H 143.648 3.77314 0.846825 0
M  V30 1552 H 145.337 4.02642 0.513209 0
M  V30 1553 H 146.103 4.4476 -1.93425 0
M  V30 1554 H 141.982 4.55457 -0.712709 0
M  V30 1555 H 145.526 5.74877 -3.95174 0
M  V30 1556 H 141.423 5.85324 -2.72151 0
M  V30 1557 H 142.191 6.78654 -4.57571 0
M  V30 1558 N 144.854 0.36279 1.53368 0
M  V30 1559 C 145.804 -0.501391 2.22419 0
M  V30 1560 C 146.788 -1.0509 1.2184 0
M  V30 1561 O 147.98 -0.981404 1.47301 0
M  V30 1562 C 145.109 -1.64201 3.01484 0
M  V30 1563 C 144.195 -1.10552 4.09438 0
M  V30 1564 N 144.586 -0.291788 5.04958 0
M  V30 1565 C 142.884 -1.3806 4.24094 0
M  V30 1566 C 143.585 0.00162655 5.817 0
M  V30 1567 N 142.561 -0.595244 5.40331 0
M  V30 1568 H 146.363 0.127159 2.93625 0
M  V30 1569 H 143.877 0.170658 1.61501 0
M  V30 1570 H 145.874 -2.27326 3.49469 0
M  V30 1571 H 144.534 -2.27365 2.31809 0
M  V30 1572 H 145.545 0.0687731 5.17854 0
M  V30 1573 H 142.222 -2.01522 3.65644 0
M  V30 1574 H 143.612 0.659278 6.68658 0
M  V30 1575 N 146.332 -1.57332 0.0918853 0
M  V30 1576 C 147.578 -1.94524 -0.573425 0
M  V30 1577 C 147.911 -0.973578 -1.68033 0
M  V30 1578 O 147.186 -0.00609226 -1.94499 0
M  V30 1579 C 147.469 -3.41858 -1.13161 0
M  V30 1580 C 147.322 -4.4979 -0.0299747 0
M  V30 1581 C 148.641 -3.90435 -2.03098 0
M  V30 1582 H 145.76 -0.70734 -0.206975 0
M  V30 1583 H 148.402 -1.89309 0.161942 0
M  V30 1584 H 146.552 -3.46433 -1.7583 0
M  V30 1585 H 148.224 -4.57327 0.604112 0
M  V30 1586 H 146.467 -4.291 0.636833 0
M  V30 1587 H 147.138 -5.50069 -0.461287 0
M  V30 1588 H 149.614 -3.87992 -1.50338 0
M  V30 1589 H 148.49 -4.94097 -2.39081 0
M  V30 1590 H 148.751 -3.29541 -2.94712 0
M  V30 1591 N 147.81 0.181792 -1.56548 0
M  V30 1592 C 148.758 1.24461 -1.965 0
M  V30 1593 C 149.752 1.464 -0.852261 0
M  V30 1594 O 150.958 1.47103 -1.03733 0
M  V30 1595 H 147.333 0.418138 -0.625031 0
M  V30 1596 H 149.304 0.880714 -2.85107 0
M  V30 1597 C 148.053 2.57891 -2.33212 0
M  V30 1598 H 147.376 2.41829 -3.18369 0
M  V30 1599 H 148.816 3.3097 -2.65019 0
M  V30 1600 C 147.275 3.15871 -1.17163 0
M  V30 1601 O 147.805 3.9913 -0.453708 0
M  V30 1602 N 146.011 2.74808 -0.944936 0
M  V30 1603 H 145.558 2.07205 -1.53049 0
M  V30 1604 H 145.516 3.13939 -0.170286 0
M  V30 1605 N 149.288 1.51039 0.449983 0
M  V30 1606 C 150.218 1.74379 1.55288 0
M  V30 1607 C 151.199 0.593236 1.5942 0
M  V30 1608 O 152.384 0.834625 1.7535 0
M  V30 1609 C 149.514 1.85728 2.93466 0
M  V30 1610 C 148.468 3.01078 3.04197 0
M  V30 1611 C 147.794 2.97595 4.44231 0
M  V30 1612 C 149.094 4.41254 2.7945 0
M  V30 1613 H 150.788 2.66725 1.36008 0
M  V30 1614 H 148.334 1.2835 0.652864 0
M  V30 1615 H 150.287 2.0064 3.70569 0
M  V30 1616 H 149.011 0.900207 3.13949 0
M  V30 1617 H 147.67 2.85851 2.29531 0
M  V30 1618 H 147.318 1.99691 4.61663 0
M  V30 1619 H 147.018 3.75046 4.52343 0
M  V30 1620 H 148.542 3.14583 5.23326 0
M  V30 1621 H 149.956 4.56897 3.46292 0
M  V30 1622 H 148.353 5.20315 2.98985 0
M  V30 1623 H 149.423 4.52164 1.75144 0
M  V30 1624 N 150.766 -0.704594 1.40972 0
M  V30 1625 C 151.696 -1.83124 1.44872 0
M  V30 1626 C 152.677 -1.67281 0.30838 0
M  V30 1627 O 153.862 -1.87149 0.518556 0
M  V30 1628 C 150.992 -3.21181 1.32136 0
M  V30 1629 C 149.946 -3.51714 2.43888 0
M  V30 1630 C 149.272 -4.89032 2.16222 0
M  V30 1631 C 150.572 -3.516 3.86232 0
M  V30 1632 H 152.266 -1.80117 2.39161 0
M  V30 1633 H 149.812 -0.865145 1.15114 0
M  V30 1634 H 151.765 -3.99702 1.33479 0
M  V30 1635 H 150.489 -3.24791 0.343279 0
M  V30 1636 H 149.148 -2.75539 2.41813 0
M  V30 1637 H 148.796 -4.89256 1.16778 0
M  V30 1638 H 148.496 -5.10426 2.911 0
M  V30 1639 H 150.02 -5.69873 2.19265 0
M  V30 1640 H 151.434 -4.2014 3.9007 0
M  V30 1641 H 149.831 -3.84523 4.60719 0
M  V30 1642 H 150.901 -2.50757 4.15029 0
M  V30 1643 N 152.244 -1.26651 -0.937939 0
M  V30 1644 C 153.174 -1.10993 -2.05433 0
M  V30 1645 C 154.155 -0.0142161 -1.70094 0
M  V30 1646 O 155.34 -0.186837 -1.93299 0
M  V30 1647 C 152.47 -0.745561 -3.39203 0
M  V30 1648 C 151.424 -1.79337 -3.88616 0
M  V30 1649 C 150.75 -1.28324 -5.19073 0
M  V30 1650 C 152.05 -3.19553 -4.13138 0
M  V30 1651 H 153.744 -2.0438 -2.1879 0
M  V30 1652 H 151.29 -0.984041 -1.05131 0
M  V30 1653 H 153.243 -0.622888 -4.16771 0
M  V30 1654 H 151.967 0.22401 -3.25831 0
M  V30 1655 H 150.626 -1.90477 -3.13231 0
M  V30 1656 H 150.274 -0.303414 -5.02084 0
M  V30 1657 H 149.974 -1.98369 -5.53103 0
M  V30 1658 H 151.498 -1.1733 -5.99221 0
M  V30 1659 H 152.912 -3.11471 -4.81309 0
M  V30 1660 H 151.309 -3.87218 -4.58457 0
M  V30 1661 H 152.379 -3.65368 -3.18801 0
M  V30 1662 N 153.722 1.14298 -1.08507 0
M  V30 1663 C 154.685 2.17607 -0.719711 0
M  V30 1664 C 155.685 1.58907 0.245997 0
M  V30 1665 O 156.875 1.74181 0.0254081 0
M  V30 1666 C 154.007 3.40842 -0.0627695 0
M  V30 1667 H 155.2 2.51443 -1.63452 0
M  V30 1668 H 152.753 1.28963 -0.88307 0
M  V30 1669 H 153.488 3.12587 0.863716 0
M  V30 1670 H 153.273 3.84713 -0.757504 0
M  V30 1671 H 154.763 4.17221 0.177786 0
M  V30 1672 N 155.201 0.870884 1.31352 0
M  V30 1673 C 156.449 0.48132 1.96285 0
M  V30 1674 C 156.77 -0.969813 1.69173 0
M  V30 1675 O 156.04 -1.67998 1.00764 0
M  V30 1676 H 154.62 0.175002 0.726212 0
M  V30 1677 H 157.282 1.11087 1.60143 0
M  V30 1678 H 156.378 0.639825 3.05471 0
M  V30 1679 N 156.679 -1.44442 0.630414 0
M  V30 1680 C 157.909 -2.06115 0.141465 0
M  V30 1681 C 158.317 -1.47179 -1.1889 0
M  V30 1682 O 157.66 -0.588873 -1.74006 0
M  V30 1683 C 157.722 -3.59467 -0.0484355 0
M  V30 1684 C 157.386 -4.40864 1.20366 0
M  V30 1685 C 158.383 -4.74391 2.12719 0
M  V30 1686 C 156.068 -4.8125 1.43887 0
M  V30 1687 C 158.062 -5.47186 3.26904 0
M  V30 1688 C 155.749 -5.53795 2.5837 0
M  V30 1689 C 156.747 -5.86682 3.49705 0
M  V30 1690 O 156.435 -6.57749 4.62191 0
M  V30 1691 H 156.167 -0.671648 0.0765792 0
M  V30 1692 H 158.721 -1.86312 0.864695 0
M  V30 1693 H 156.951 -3.77758 -0.826803 0
M  V30 1694 H 158.64 -4.02909 -0.491849 0
M  V30 1695 H 159.406 -4.43728 1.95781 0
M  V30 1696 H 155.285 -4.55073 0.736853 0
M  V30 1697 H 158.829 -5.72773 3.98217 0
M  V30 1698 H 154.726 -5.83872 2.75251 0
M  V30 1699 H 155.494 -6.76217 4.61164 0
M  V30 1700 N 158.157 -0.370918 -1.53173 0
M  V30 1701 C 159.434 0.273754 -1.93675 0
M  V30 1702 C 159.814 1.65938 -1.3049 0
M  V30 1703 O 159.162 2.23698 -0.465999 0
M  V30 1704 C 159.372 0.318602 -3.47543 0
M  V30 1705 C 160.72 0.556392 -4.20939 0
M  V30 1706 O 161.744 0.399587 -3.53952 0
M  V30 1707 O 160.603 0.862133 -5.39657 0
M  V30 1708 H 157.697 0.165448 -0.810281 0
M  V30 1709 H 160.243 -0.42409 -1.64315 0
M  V30 1710 H 159.015 -0.652687 -3.85818 0
M  V30 1711 H 158.638 1.06212 -3.83151 0
M  V30 1712 N 159.635 1.57281 -0.100228 0
M  V30 1713 C 160.545 2.17833 0.870965 0
M  V30 1714 C 161.561 1.14921 1.30649 0
M  V30 1715 O 162.737 1.47313 1.37335 0
M  V30 1716 C 159.802 2.75085 2.1102 0
M  V30 1717 C 158.863 3.9297 1.72838 0
M  V30 1718 C 158.096 4.47482 2.90854 0
M  V30 1719 O 158.319 4.00922 4.05731 0
M  V30 1720 O 157.253 5.38433 2.69023 0
M  V30 1721 H 161.079 3.0124 0.38575 0
M  V30 1722 H 158.664 1.48881 0.124397 0
M  V30 1723 H 160.546 3.11656 2.83634 0
M  V30 1724 H 159.221 1.94721 2.58584 0
M  V30 1725 H 158.128 3.61201 0.973883 0
M  V30 1726 H 159.461 4.74713 1.30033 0
M  V30 1727 N 161.113 -0.173488 1.56642 0
M  V30 1728 C 162.063 -1.21941 1.92651 0
M  V30 1729 C 163.047 -1.39912 0.794577 0
M  V30 1730 O 164.239 -1.41919 1.05773 0
M  V30 1731 C 161.368 -2.55935 2.28806 0
M  V30 1732 C 160.454 -2.41667 3.48508 0
M  V30 1733 N 160.845 -1.9711 4.65813 0
M  V30 1734 C 159.143 -2.72499 3.53072 0
M  V30 1735 C 159.844 -1.95253 5.47952 0
M  V30 1736 N 158.82 -2.37575 4.88937 0
M  V30 1737 H 162.622 -0.866581 2.80834 0
M  V30 1738 H 160.136 -0.381776 1.57849 0
M  V30 1739 H 162.133 -3.31511 2.52797 0
M  V30 1740 H 160.793 -2.92022 1.41961 0
M  V30 1741 H 161.804 -1.67481 4.90072 0
M  V30 1742 H 158.481 -3.12639 2.767 0
M  V30 1743 H 159.871 -1.6252 6.51948 0
M  V30 1744 N 162.591 -1.51276 -0.441967 0
M  V30 1745 C 163.501 -1.75092 -1.56141 0
M  V30 1746 C 164.517 -0.634963 -1.62001 0
M  V30 1747 O 165.693 -0.916686 -1.79329 0
M  V30 1748 C 162.758 -1.86666 -2.92158 0
M  V30 1749 C 161.819 -3.10506 -2.96453 0
M  V30 1750 C 161.052 -3.21519 -4.25982 0
M  V30 1751 O 161.275 -2.38586 -5.18105 0
M  V30 1752 O 160.209 -4.14465 -4.36466 0
M  V30 1753 H 164.035 -2.70044 -1.38961 0
M  V30 1754 H 161.62 -1.35722 -0.624499 0
M  V30 1755 H 163.502 -1.96292 -3.72891 0
M  V30 1756 H 162.177 -0.949014 -3.09476 0
M  V30 1757 H 161.084 -3.06363 -2.14692 0
M  V30 1758 H 162.417 -4.01945 -2.84079 0
M  V30 1759 N 164.069 0.697108 -1.41344 0
M  V30 1760 C 165.317 1.45426 -1.40341 0
M  V30 1761 C 165.638 1.94996 -0.0128787 0
M  V30 1762 O 164.908 1.71599 0.945027 0
M  V30 1763 H 163.488 0.539594 -0.516573 0
M  V30 1764 H 166.15 0.825201 -1.76569 0
M  V30 1765 H 165.246 2.31817 -2.08967 0
M  V30 1766 N 165.547 1.27147 0.931209 0
M  V30 1767 C 166.958 1.12044 1.49342 0
M  V30 1768 C 167.309 -0.295795 1.93957 0
M  V30 1769 O 166.434 -1.18835 1.80852 0
M  V30 1770 C 167.029 2.02781 2.71414 0
M  V30 1771 C 165.588 1.91794 3.2387 0
M  V30 1772 C 164.735 1.95543 1.96617 0
M  V30 1773 H 167.686 1.40091 0.745672 0
M  V30 1774 H 167.707 1.58156 3.46074 0
M  V30 1775 H 167.219 3.05848 2.38911 0
M  V30 1776 H 165.32 0.916992 3.6114 0
M  V30 1777 H 165.433 2.77852 3.90302 0
M  V30 1778 H 163.797 1.39722 2.12955 0
M  V30 1779 H 164.58 3.00259 1.66432 0
M  V30 1780 N 167.025 -1.13721 1.09112 0
M  V30 1781 C 167.988 -2.17222 0.731241 0
M  V30 1782 C 168.988 -1.59035 -0.237566 0
M  V30 1783 O 170.178 -1.74192 -0.0161704 0
M  V30 1784 C 167.31 -3.40804 0.0808443 0
M  V30 1785 H 168.503 -2.50573 1.64783 0
M  V30 1786 H 166.056 -1.28493 0.889897 0
M  V30 1787 H 166.791 -3.1304 -0.847127 0
M  V30 1788 H 166.576 -3.84306 0.777896 0
M  V30 1789 H 168.066 -4.1731 -0.155657 0
M  V30 1790 N 168.503 -0.877838 -1.30888 0
M  V30 1791 C 169.433 -0.35534 -2.3078 0
M  V30 1792 C 170.414 0.557994 -1.60687 0
M  V30 1793 O 171.599 0.473355 -1.88343 0
M  V30 1794 C 168.729 0.437221 -3.44537 0
M  V30 1795 C 167.683 -0.383715 -4.26276 0
M  V30 1796 C 167.009 0.535014 -5.32017 0
M  V30 1797 C 168.309 -1.62201 -4.96476 0
M  V30 1798 H 170.003 -1.19007 -2.74732 0
M  V30 1799 H 167.549 -0.573698 -1.32078 0
M  V30 1800 H 169.502 0.813334 -4.13477 0
M  V30 1801 H 168.226 1.30553 -2.99372 0
M  V30 1802 H 166.885 -0.741874 -3.59015 0
M  V30 1803 H 166.533 1.40083 -4.831 0
M  V30 1804 H 166.233 -0.0104211 -5.87599 0
M  V30 1805 H 167.757 0.907799 -6.03814 0
M  V30 1806 H 169.171 -1.31689 -5.5797 0
M  V30 1807 H 167.568 -2.10711 -5.61891 0
M  V30 1808 H 168.638 -2.37044 -4.23011 0
M  V30 1809 N 169.982 1.44106 -0.638065 0
M  V30 1810 C 171.212 2.06037 -0.152394 0
M  V30 1811 C 171.62 1.47808 1.18108 0
M  V30 1812 O 170.963 0.598092 1.73691 0
M  V30 1813 C 171.025 3.59488 0.0293714 0
M  V30 1814 C 170.689 4.4022 -1.22702 0
M  V30 1815 C 171.686 4.73256 -2.15232 0
M  V30 1816 C 169.371 4.8048 -1.46437 0
M  V30 1817 C 171.365 5.45444 -3.29802 0
M  V30 1818 C 169.052 5.52417 -2.61303 0
M  V30 1819 C 170.05 5.84819 -3.52811 0
M  V30 1820 O 169.738 6.55289 -4.65673 0
M  V30 1821 H 169.47 0.671233 -0.0801401 0
M  V30 1822 H 172.024 1.85851 -0.874563 0
M  V30 1823 H 170.254 3.78191 0.806758 0
M  V30 1824 H 171.943 4.03164 0.470475 0
M  V30 1825 H 172.709 4.42684 -1.98131 0
M  V30 1826 H 168.588 4.54676 -0.760977 0
M  V30 1827 H 172.132 5.70653 -4.01249 0
M  V30 1828 H 168.029 5.82404 -2.78344 0
M  V30 1829 H 168.797 6.73762 -4.64744 0
M  V30 1830 N 171.46 0.379036 1.52974 0
M  V30 1831 C 172.69 -0.20649 2.05566 0
M  V30 1832 C 173.098 -1.41906 1.25137 0
M  V30 1833 O 172.441 -1.81421 0.288464 0
M  V30 1834 C 172.503 -0.651086 3.53555 0
M  V30 1835 C 172.167 0.446626 4.54812 0
M  V30 1836 C 173.164 1.30079 5.03364 0
M  V30 1837 C 170.849 0.610719 4.98573 0
M  V30 1838 C 172.843 2.30426 5.94292 0
M  V30 1839 C 170.53 1.61754 5.89304 0
M  V30 1840 C 171.528 2.46274 6.37054 0
M  V30 1841 O 171.216 3.45237 7.25994 0
M  V30 1842 H 170.948 -0.0372381 0.674974 0
M  V30 1843 H 173.502 0.539718 1.98182 0
M  V30 1844 H 171.732 -1.44911 3.58522 0
M  V30 1845 H 173.421 -1.16112 3.88938 0
M  V30 1846 H 174.187 1.18527 4.70294 0
M  V30 1847 H 170.066 -0.0374044 4.60985 0
M  V30 1848 H 173.61 2.96432 6.31485 0
M  V30 1849 H 169.507 1.73348 6.21788 0
M  V30 1850 H 170.275 3.41124 7.44027 0
M  V30 1851 N 172.938 -1.57226 0.108567 0
M  V30 1852 C 173.871 -2.10447 -0.882464 0
M  V30 1853 C 174.849 -1.01829 -1.26766 0
M  V30 1854 O 176.033 -1.29415 -1.37054 0
M  V30 1855 C 173.16 -2.59258 -2.17952 0
M  V30 1856 C 172.206 -3.79662 -1.94318 0
M  V30 1857 S 173.039 -5.22586 -1.16892 0
M  V30 1858 C 174.195 -5.74758 -2.47799 0
M  V30 1859 H 174.428 -2.94178 -0.429745 0
M  V30 1860 H 171.961 -1.54043 -0.105 0
M  V30 1861 H 173.919 -2.88036 -2.92482 0
M  V30 1862 H 172.58 -1.75728 -2.60343 0
M  V30 1863 H 171.773 -4.11928 -2.90399 0
M  V30 1864 H 171.375 -3.51446 -1.27913 0
M  V30 1865 H 173.667 -5.83846 -3.43701 0
M  V30 1866 H 174.61 -6.73027 -2.20093 0
M  V30 1867 H 175.018 -5.02763 -2.56689 0
M  V30 1868 N 174.416 0.165178 -1.56732 0
M  V30 1869 C 175.693 0.908443 -1.73224 0
M  V30 1870 C 176.073 2.0013 -0.67165 0
M  V30 1871 O 175.421 2.26353 0.31253 0
M  V30 1872 C 175.631 1.46756 -3.16644 0
M  V30 1873 C 176.979 1.93809 -3.77787 0
M  V30 1874 O 178.003 1.56537 -3.1996 0
M  V30 1875 O 176.862 2.62486 -4.79336 0
M  V30 1876 H 173.956 0.428025 -0.707618 0
M  V30 1877 H 176.502 0.152526 -1.69013 0
M  V30 1878 H 175.274 0.68129 -3.85323 0
M  V30 1879 H 174.897 2.28749 -3.25207 0
M  V30 1880 N 175.894 1.51508 0.433938 0
M  V30 1881 C 177.124 1.67914 1.20369 0
M  V30 1882 C 177.532 0.377461 1.85397 0
M  V30 1883 O 176.875 -0.654255 1.71654 0
M  V30 1884 C 176.937 2.74045 2.32679 0
M  V30 1885 C 176.601 4.16543 1.87991 0
M  V30 1886 C 177.598 5.01211 1.38145 0
M  V30 1887 C 175.283 4.6266 1.95579 0
M  V30 1888 C 177.277 6.30056 0.964774 0
M  V30 1889 C 174.964 5.91501 1.53523 0
M  V30 1890 C 175.962 6.75027 1.04055 0
M  V30 1891 O 175.65 8.01459 0.625964 0
M  V30 1892 H 175.382 0.566578 0.368735 0
M  V30 1893 H 177.936 1.98709 0.51999 0
M  V30 1894 H 176.166 2.38572 3.04336 0
M  V30 1895 H 177.855 2.79295 2.94532 0
M  V30 1896 H 178.621 4.66783 1.31675 0
M  V30 1897 H 174.5 3.97767 2.33029 0
M  V30 1898 H 178.044 6.95202 0.57796 0
M  V30 1899 H 173.941 6.25442 1.59665 0
M  V30 1900 H 174.709 8.15043 0.751509 0
M  V30 1901 N 177.372 -0.689602 1.41712 0
M  V30 1902 C 178.302 -1.81577 1.46806 0
M  V30 1903 C 179.283 -1.66945 0.326105 0
M  V30 1904 O 180.468 -1.86588 0.538377 0
M  V30 1905 C 177.598 -3.19762 1.35535 0
M  V30 1906 C 176.552 -3.49107 2.47605 0
M  V30 1907 C 175.878 -4.86711 2.21397 0
M  V30 1908 C 177.178 -3.47483 3.89939 0
M  V30 1909 H 178.872 -1.7757 2.41058 0
M  V30 1910 H 176.418 -0.852887 1.16025 0
M  V30 1911 H 178.371 -3.98263 1.3771 0
M  V30 1912 H 177.095 -3.24409 0.377708 0
M  V30 1913 H 175.754 -2.72959 2.44722 0
M  V30 1914 H 175.402 -4.8799 1.21961 0
M  V30 1915 H 175.102 -5.0731 2.96497 0
M  V30 1916 H 176.626 -5.67515 2.25297 0
M  V30 1917 H 178.04 -4.1598 3.94505 0
M  V30 1918 H 176.437 -3.79615 4.64771 0
M  V30 1919 H 177.507 -2.46341 4.17665 0
M  V30 1920 N 178.85 -1.27639 -0.924453 0
M  V30 1921 C 179.813 -1.10681 -2.00705 0
M  V30 1922 C 180.813 -0.0497823 -1.60723 0
M  V30 1923 O 182.003 -0.294654 -1.7169 0
M  V30 1924 C 179.135 -0.687164 -3.33902 0
M  V30 1925 H 180.328 -2.06817 -2.17179 0
M  V30 1926 H 177.881 -1.10473 -1.10569 0
M  V30 1927 H 178.616 0.275439 -3.23128 0
M  V30 1928 H 178.401 -1.45061 -3.6428 0
M  V30 1929 H 179.891 -0.590853 -4.13399 0
M  V30 1930 N 180.328 1.1314 -1.09713 0
M  V30 1931 C 181.291 2.16831 -0.742751 0
M  V30 1932 C 182.291 1.59159 0.229129 0
M  V30 1933 O 183.481 1.74199 0.00693237 0
M  V30 1934 C 180.613 3.40756 -0.0989168 0
M  V30 1935 H 181.806 2.49695 -1.66109 0
M  V30 1936 H 179.359 1.2802 -0.896699 0
M  V30 1937 H 180.094 3.13485 0.830514 0
M  V30 1938 H 179.879 3.83888 -0.798265 0
M  V30 1939 H 181.369 4.17386 0.133524 0
M  V30 1940 N 181.806 0.884767 1.30421 0
M  V30 1941 C 182.736 0.367574 2.30589 0
M  V30 1942 C 183.717 -0.549464 1.60981 0
M  V30 1943 O 184.902 -0.46336 1.88591 0
M  V30 1944 C 182.032 -0.418944 3.44764 0
M  V30 1945 C 180.986 0.406316 4.26067 0
M  V30 1946 C 180.312 -0.506793 5.32293 0
M  V30 1947 C 181.612 1.64832 4.95608 0
M  V30 1948 H 183.306 1.20462 2.74097 0
M  V30 1949 H 180.852 0.580695 1.31772 0
M  V30 1950 H 182.805 -0.791395 4.13902 0
M  V30 1951 H 181.529 -1.28964 3.0006 0
M  V30 1952 H 180.188 0.760903 3.58617 0
M  V30 1953 H 179.836 -1.37519 4.83836 0
M  V30 1954 H 179.536 0.0415828 5.87585 0
M  V30 1955 H 181.06 -0.875764 6.04287 0
M  V30 1956 H 182.474 1.34646 5.57264 0
M  V30 1957 H 180.871 2.13688 5.60765 0
M  V30 1958 H 181.941 2.39284 4.21748 0
M  V30 1959 N 183.284 -1.43765 0.645699 0
M  V30 1960 C 184.247 -2.29163 -0.0409488 0
M  V30 1961 C 185.247 -1.41813 -0.757996 0
M  V30 1962 O 186.437 -1.63527 -0.600382 0
M  V30 1963 C 183.569 -3.23716 -1.06869 0
M  V30 1964 H 184.762 -2.91366 0.710345 0
M  V30 1965 H 182.315 -1.5092 0.406547 0
M  V30 1966 H 183.05 -2.66393 -1.84947 0
M  V30 1967 H 182.835 -3.88105 -0.558277 0
M  V30 1968 H 184.325 -3.87831 -1.54845 0
M  V30 1969 N 184.763 -0.387143 -1.52771 0
M  V30 1970 C 185.71 0.449048 -2.26389 0
M  V30 1971 C 186.68 1.05961 -1.27912 0
M  V30 1972 O 187.865 1.08804 -1.56737 0
M  V30 1973 C 185.005 1.57155 -3.0724 0
M  V30 1974 C 184.118 0.984066 -4.20643 0
M  V30 1975 C 183.253 2.07745 -4.88892 0
M  V30 1976 C 182.292 1.46574 -5.94292 0
M  V30 1977 N 181.429 2.49834 -6.56146 0
M  V30 1978 H 186.269 -0.185205 -2.97424 0
M  V30 1979 H 183.806 -0.103164 -1.46738 0
M  V30 1980 H 185.764 2.23309 -3.52405 0
M  V30 1981 H 184.394 2.17615 -2.38419 0
M  V30 1982 H 183.446 0.212193 -3.79808 0
M  V30 1983 H 184.758 0.497029 -4.96318 0
M  V30 1984 H 183.912 2.81673 -5.3735 0
M  V30 1985 H 182.651 2.59807 -4.12737 0
M  V30 1986 H 181.656 0.711696 -5.45174 0
M  V30 1987 H 182.881 0.953088 -6.72379 0
M  V30 1988 H 180.827 3.0107 -5.82832 0
M  V30 1989 H 180.744 2.05879 -7.27427 0
M  V30 1990 H 182.012 3.23399 -7.09249 0
M  V30 1991 N 186.241 1.57166 -0.116904 0
M  V30 1992 C 187.204 2.14039 0.819742 0
M  V30 1993 C 188.204 1.07477 1.19605 0
M  V30 1994 O 189.394 1.33263 1.1219 0
M  V30 1995 C 186.526 2.67891 2.10826 0
M  V30 1996 H 187.719 2.98128 0.325511 0
M  V30 1997 H 185.272 1.55739 0.132312 0
M  V30 1998 H 186.007 1.87384 2.64685 0
M  V30 1999 H 185.792 3.45823 1.84793 0
M  V30 2000 H 187.282 3.11809 2.77785 0
M  V30 2001 N 187.719 -0.156864 1.56817 0
M  V30 2002 C 189.13 -0.717916 1.72345 0
M  V30 2003 C 189.481 -1.82124 0.729747 0
M  V30 2004 O 188.606 -2.16141 -0.105781 0
M  V30 2005 C 189.201 -1.30904 3.12489 0
M  V30 2006 C 187.76 -1.81676 3.29653 0
M  V30 2007 C 186.907 -0.701349 2.68284 0
M  V30 2008 H 189.858 0.0686989 1.58551 0
M  V30 2009 H 189.879 -2.17882 3.11942 0
M  V30 2010 H 189.391 -0.505796 3.8479 0
M  V30 2011 H 187.492 -2.64598 2.62333 0
M  V30 2012 H 187.605 -1.95226 4.3752 0
M  V30 2013 H 185.969 -1.12548 2.28484 0
M  V30 2014 H 186.752 0.0902846 3.43181 0
M  V30 2015 N 189.197 -1.51736 -0.425897 0
M  V30 2016 C 190.444 -1.6497 -1.17436 0
M  V30 2017 C 190.772 -0.371445 -1.9092 0
M  V30 2018 O 190.027 0.644963 -1.84767 0
M  V30 2019 C 190.326 -2.81103 -2.20717 0
M  V30 2020 C 189.992 -4.19954 -1.64162 0
M  V30 2021 C 188.654 -4.57725 -1.48462 0
M  V30 2022 C 191.006 -5.06552 -1.22696 0
M  V30 2023 C 188.334 -5.79789 -0.897873 0
M  V30 2024 C 190.686 -6.29205 -0.654464 0
M  V30 2025 C 189.35 -6.6574 -0.484456 0
M  V30 2026 H 188.62 -0.603668 -0.429727 0
M  V30 2027 H 191.267 -1.85798 -0.463829 0
M  V30 2028 H 189.572 -2.54542 -2.97852 0
M  V30 2029 H 191.269 -2.8854 -2.78471 0
M  V30 2030 H 187.859 -3.90181 -1.77361 0
M  V30 2031 H 192.043 -4.77968 -1.33642 0
M  V30 2032 H 187.299 -6.06733 -0.75402 0
M  V30 2033 H 191.473 -6.95643 -0.324694 0
M  V30 2034 H 189.1 -7.60195 -0.0276833 0
M  V30 2035 N 190.675 0.682077 -1.42076 0
M  V30 2036 C 191.638 1.77756 -1.44691 0
M  V30 2037 C 192.638 1.5726 -0.335535 0
M  V30 2038 O 193.828 1.63686 -0.596037 0
M  V30 2039 C 190.96 3.16301 -1.27146 0
M  V30 2040 H 192.153 1.76826 -2.42224 0
M  V30 2041 H 189.706 0.891012 -1.28416 0
M  V30 2042 H 190.441 3.22862 -0.305075 0
M  V30 2043 H 190.226 3.32581 -2.07683 0
M  V30 2044 H 191.716 3.96241 -1.31843 0
M  V30 2045 N 192.153 1.28127 0.917671 0
M  V30 2046 C 193.116 1.11744 2.00115 0
M  V30 2047 C 194.116 0.0583052 1.60694 0
M  V30 2048 O 195.306 0.303755 1.71531 0
M  V30 2049 C 192.438 0.704862 3.33533 0
M  V30 2050 H 193.631 2.07966 2.16079 0
M  V30 2051 H 191.184 1.11058 1.09981 0
M  V30 2052 H 191.919 -0.258299 3.2327 0
M  V30 2053 H 191.704 1.4699 3.63505 0
M  V30 2054 H 193.194 0.612768 4.1308 0
M  V30 2055 N 193.631 -1.12557 1.10312 0
M  V30 2056 C 194.581 -2.16331 0.720076 0
M  V30 2057 C 195.565 -1.58616 -0.270115 0
M  V30 2058 O 196.757 -1.76823 -0.0790507 0
M  V30 2059 C 193.886 -3.42963 0.152113 0
M  V30 2060 C 192.972 -4.07663 1.16927 0
M  V30 2061 N 193.363 -4.47392 2.35953 0
M  V30 2062 C 191.661 -4.34425 1.0095 0
M  V30 2063 C 192.362 -4.97932 3.0073 0
M  V30 2064 N 191.338 -4.93358 2.28252 0
M  V30 2065 H 195.14 -2.44813 1.62616 0
M  V30 2066 H 192.654 -1.29449 0.980654 0
M  V30 2067 H 194.651 -4.16664 -0.14037 0
M  V30 2068 H 193.311 -3.1595 -0.748701 0
M  V30 2069 H 194.322 -4.39802 2.73486 0
M  V30 2070 H 190.999 -4.17177 0.164134 0
M  V30 2071 H 192.389 -5.38397 4.01969 0
M  V30 2072 N 195.109 -0.891671 -1.2995 0
M  V30 2073 C 196.357 -0.512486 -1.95494 0
M  V30 2074 C 196.678 0.942776 -1.70695 0
M  V30 2075 O 195.948 1.66374 -1.03424 0
M  V30 2076 H 194.528 -0.186533 -0.723336 0
M  V30 2077 H 197.19 -1.13621 -1.58355 0
M  V30 2078 H 196.286 -0.688342 -3.04415 0
M  V30 2079 N 196.587 1.43421 -0.653314 0
M  V30 2080 C 197.817 2.05864 -0.174238 0
M  V30 2081 C 198.225 1.49052 1.16534 0
M  V30 2082 O 197.568 0.616481 1.73047 0
M  V30 2083 C 197.63 3.59499 -0.00875873 0
M  V30 2084 C 197.294 4.38893 -1.27364 0
M  V30 2085 C 198.291 4.70947 -2.20239 0
M  V30 2086 C 195.976 4.789 -1.51525 0
M  V30 2087 C 197.97 5.41916 -3.35568 0
M  V30 2088 C 195.657 5.49614 -2.67147 0
M  V30 2089 C 196.655 5.81044 -3.58994 0
M  V30 2090 O 196.343 6.50313 -4.72597 0
M  V30 2091 H 196.075 0.670345 -0.0872549 0
M  V30 2092 H 198.629 1.84913 -0.894226 0
M  V30 2093 H 196.859 3.79025 0.7666 0
M  V30 2094 H 198.548 4.0364 0.427687 0
M  V30 2095 H 199.314 4.40558 -2.02815 0
M  V30 2096 H 195.193 4.53843 -0.809158 0
M  V30 2097 H 198.737 5.66365 -4.07279 0
M  V30 2098 H 194.634 5.79419 -2.84505 0
M  V30 2099 H 195.402 6.68795 -4.71864 0
M  V30 2100 N 198.065 0.39524 1.52563 0
M  V30 2101 C 199.313 -0.184678 2.01254 0
M  V30 2102 C 199.634 -1.46822 1.28329 0
M  V30 2103 O 198.904 -1.91666 0.405094 0
M  V30 2104 H 197.484 -0.0712355 0.743596 0
M  V30 2105 H 200.146 0.528293 1.87603 0
M  V30 2106 H 199.242 -0.390681 3.09645 0
M  V30 2107 N 199.544 -1.57102 0.125237 0
M  V30 2108 C 200.507 -2.14471 -0.80838 0
M  V30 2109 C 201.507 -1.0811 -1.19033 0
M  V30 2110 O 202.697 -1.33856 -1.11482 0
M  V30 2111 C 199.829 -2.69005 -2.09402 0
M  V30 2112 H 201.022 -2.98297 -0.309696 0
M  V30 2113 H 198.575 -1.55807 -0.124051 0
M  V30 2114 H 199.31 -1.88785 -2.63687 0
M  V30 2115 H 199.095 -3.46799 -1.82957 0
M  V30 2116 H 200.585 -3.13278 -2.76128 0
M  V30 2117 N 201.022 0.148545 -1.56898 0
M  V30 2118 C 202.269 0.861418 -1.83264 0
M  V30 2119 C 202.597 1.81239 -0.705883 0
M  V30 2120 O 201.852 1.93305 0.305212 0
M  V30 2121 C 202.151 1.67064 -3.1595 0
M  V30 2122 C 201.817 0.866591 -4.42494 0
M  V30 2123 C 200.479 0.644762 -4.76861 0
M  V30 2124 C 202.831 0.30418 -5.20312 0
M  V30 2125 C 200.159 -0.15021 -5.86508 0
M  V30 2126 C 202.511 -0.477824 -6.30793 0
M  V30 2127 C 201.175 -0.710244 -6.63711 0
M  V30 2128 H 200.445 0.315215 -0.670612 0
M  V30 2129 H 203.092 0.125142 -1.91091 0
M  V30 2130 H 201.397 2.47698 -3.03567 0
M  V30 2131 H 203.094 2.22566 -3.33565 0
M  V30 2132 H 199.684 1.04955 -4.15551 0
M  V30 2133 H 203.868 0.462844 -4.94137 0
M  V30 2134 H 199.124 -0.339796 -6.10455 0
M  V30 2135 H 203.298 -0.92076 -6.90286 0
M  V30 2136 H 200.925 -1.3281 -7.48509 0
M  V30 2137 N 202.5 1.5196 0.417844 0
M  V30 2138 C 203.43 1.77634 1.51554 0
M  V30 2139 C 204.411 0.626918 1.58126 0
M  V30 2140 O 205.596 0.871632 1.7354 0
M  V30 2141 C 202.726 1.91911 2.8946 0
M  V30 2142 C 201.68 3.07463 2.97743 0
M  V30 2143 C 201.006 3.06951 4.37819 0
M  V30 2144 C 202.306 4.47082 2.70027 0
M  V30 2145 H 204 2.6955 1.3032 0
M  V30 2146 H 201.546 1.29706 0.625492 0
M  V30 2147 H 203.499 2.08455 3.6623 0
M  V30 2148 H 202.223 0.966598 3.11969 0
M  V30 2149 H 200.882 2.90656 2.23416 0
M  V30 2150 H 200.53 2.09438 4.57323 0
M  V30 2151 H 200.23 3.84556 4.44286 0
M  V30 2152 H 201.754 3.25613 5.16535 0
M  V30 2153 H 203.168 4.6414 3.36522 0
M  V30 2154 H 201.565 5.2654 2.87881 0
M  V30 2155 H 202.635 4.55777 1.65514 0
M  V30 2156 N 203.978 -0.674533 1.42435 0
M  V30 2157 C 205.206 -1.46283 1.46317 0
M  V30 2158 C 205.621 -1.88653 0.0745836 0
M  V30 2159 O 204.978 -1.58151 -0.91074 0
M  V30 2160 C 205.029 -2.71178 2.3905 0
M  V30 2161 O 204.75 -2.30586 3.72507 0
M  V30 2162 C 206.251 -3.64738 2.51955 0
M  V30 2163 H 203.471 -0.450104 0.497642 0
M  V30 2164 H 206.015 -0.828792 1.86953 0
M  V30 2165 H 204.17 -3.3077 2.01667 0
M  V30 2166 H 204.584 -3.11241 4.22172 0
M  V30 2167 H 206.058 -4.49096 3.20962 0
M  V30 2168 H 206.535 -4.10656 1.55752 0
M  V30 2169 H 207.141 -3.11038 2.90061 0
M  V30 2170 N 205.456 -1.28612 -0.910864 0
M  V30 2171 C 206.386 -1.15326 -2.03032 0
M  V30 2172 C 207.367 -0.0502924 -1.70026 0
M  V30 2173 O 208.552 -0.227797 -1.92859 0
M  V30 2174 C 205.682 -0.817343 -3.37545 0
M  V30 2175 C 204.636 -1.8754 -3.84724 0
M  V30 2176 C 203.962 -1.39305 -5.16235 0
M  V30 2177 C 205.262 -3.28244 -4.06267 0
M  V30 2178 H 206.956 -2.08975 -2.14406 0
M  V30 2179 H 204.502 -1.00612 -1.03021 0
M  V30 2180 H 206.455 -0.711151 -4.15356 0
M  V30 2181 H 205.179 0.154846 -3.26233 0
M  V30 2182 H 203.838 -1.97079 -3.09121 0
M  V30 2183 H 203.486 -0.409846 -5.01328 0
M  V30 2184 H 203.186 -2.10057 -5.48771 0
M  V30 2185 H 204.71 -1.30014 -5.96598 0
M  V30 2186 H 206.124 -3.21611 -4.74594 0
M  V30 2187 H 204.521 -3.96855 -4.5014 0
M  V30 2188 H 205.591 -3.72048 -3.10979 0
M  V30 2189 N 206.934 1.1197 -1.10907 0
M  V30 2190 C 208.159 1.87942 -0.877064 0
M  V30 2191 C 208.584 1.79341 0.567314 0
M  V30 2192 O 207.942 1.15184 1.40009 0
M  V30 2193 C 207.99 3.34926 -1.33629 0
M  V30 2194 O 207.094 4.09303 -0.504447 0
M  V30 2195 H 206.435 0.583785 -0.316371 0
M  V30 2196 H 208.965 1.4157 -1.47712 0
M  V30 2197 H 208.975 3.8577 -1.32837 0
M  V30 2198 H 207.65 3.40504 -2.3881 0
M  V30 2199 H 206.227 3.68393 -0.577993 0
M  V30 2200 N 208.412 0.89855 1.29475 0
M  V30 2201 C 209.661 0.519863 1.94885 0
M  V30 2202 C 209.974 -0.9383 1.71625 0
M  V30 2203 O 211.18 -1.42445 2.31131 0
M  V30 2204 C 209.636 0.878836 3.49005 0
M  V30 2205 C 209.244 2.35569 3.81066 0
M  V30 2206 C 210.988 0.570004 4.20656 0
M  V30 2207 C 208.895 2.65558 5.28425 0
M  V30 2208 H 207.825 0.190692 0.729488 0
M  V30 2209 H 210.476 1.09539 1.47219 0
M  V30 2210 H 208.858 0.232253 3.95318 0
M  V30 2211 H 210.032 3.04773 3.45616 0
M  V30 2212 H 208.347 2.63343 3.22552 0
M  V30 2213 H 210.944 0.770925 5.29113 0
M  V30 2214 H 211.287 -0.491404 4.1339 0
M  V30 2215 H 211.82 1.17438 3.8007 0
M  V30 2216 H 208.559 3.70493 5.40754 0
M  V30 2217 H 208.079 2.00977 5.65127 0
M  V30 2218 H 209.758 2.51765 5.96006 0
M  V30 2219 N 209.89 -1.43072 0.660911 0
M  V30 2220 C 210.82 -2.33497 -0.0122829 0
M  V30 2221 C 211.801 -1.49903 -0.803925 0
M  V30 2222 O 212.986 -1.78546 -0.763864 0
M  V30 2223 C 210.116 -3.33363 -0.973994 0
M  V30 2224 C 209.07 -4.27003 -0.291928 0
M  V30 2225 C 208.396 -5.16967 -1.36562 0
M  V30 2226 C 209.696 -5.15816 0.820462 0
M  V30 2227 H 211.39 -2.90038 0.742873 0
M  V30 2228 H 208.936 -1.39461 0.358688 0
M  V30 2229 H 210.889 -3.95524 -1.45392 0
M  V30 2230 H 209.613 -2.75095 -1.7604 0
M  V30 2231 H 208.272 -3.66217 0.167623 0
M  V30 2232 H 207.92 -4.55034 -2.14366 0
M  V30 2233 H 207.62 -5.80441 -0.914454 0
M  V30 2234 H 209.144 -5.82003 -1.84675 0
M  V30 2235 H 210.558 -5.71742 0.422366 0
M  V30 2236 H 208.955 -5.8805 1.19656 0
M  V30 2237 H 210.025 -4.55045 1.67518 0
M  V30 2238 N 211.368 -0.403325 -1.52352 0
M  V30 2239 C 212.645 0.232611 -1.94212 0
M  V30 2240 C 213.025 1.63133 -1.33981 0
M  V30 2241 O 212.373 2.22659 -0.513344 0
M  V30 2242 C 212.583 0.244811 -3.4814 0
M  V30 2243 C 213.931 0.46698 -4.22024 0
M  V30 2244 O 214.955 0.324419 -3.5472 0
M  V30 2245 O 213.814 0.74747 -5.41364 0
M  V30 2246 H 210.908 0.148223 -0.813609 0
M  V30 2247 H 213.454 -0.458848 -1.63379 0
M  V30 2248 H 212.226 -0.734378 -3.84347 0
M  V30 2249 H 211.849 0.980611 -3.85318 0
M  V30 2250 N 212.846 1.57033 -0.133567 0
M  V30 2251 C 214.262 1.58035 0.222944 0
M  V30 2252 C 214.462 1.14713 1.6566 0
M  V30 2253 O 213.518 0.841218 2.38075 0
M  V30 2254 C 214.831 3.00691 -0.0236116 0
M  V30 2255 C 216.379 3.12973 0.0411512 0
M  V30 2256 C 216.854 4.57654 -0.177899 0
M  V30 2257 N 218.345 4.63033 -0.124365 0
M  V30 2258 C 219.08 5.72771 -0.268553 0
M  V30 2259 N 218.576 6.91206 -0.46972 0
M  V30 2260 N 220.369 5.61718 -0.2071 0
M  V30 2261 H 212.52 1.8349 -1.06981 0
M  V30 2262 H 214.783 0.848677 -0.422436 0
M  V30 2263 H 214.489 3.36726 -1.0153 0
M  V30 2264 H 214.363 3.70614 0.701808 0
M  V30 2265 H 216.75 2.76787 1.02338 0
M  V30 2266 H 216.831 2.45564 -0.716383 0
M  V30 2267 H 216.475 4.94542 -1.15717 0
M  V30 2268 H 216.405 5.23173 0.599797 0
M  V30 2269 H 218.896 3.7789 0.027011 0
M  V30 2270 H 219.209 7.70693 -0.570212 0
M  V30 2271 H 217.554 6.93156 -0.505876 0
M  V30 2272 H 220.745 4.68072 -0.0507986 0
M  V30 2273 H 220.918 6.47195 -0.322909 0
M  V30 2274 N 214.325 -0.140222 1.56975 0
M  V30 2275 C 215.555 -0.865181 1.87612 0
M  V30 2276 C 215.963 -1.74942 0.72055 0
M  V30 2277 O 215.306 -1.80917 -0.318561 0
M  V30 2278 C 215.368 -1.76782 3.13031 0
M  V30 2279 C 215.032 -1.06005 4.44536 0
M  V30 2280 C 216.029 -0.410768 5.18275 0
M  V30 2281 C 213.714 -1.04754 4.91255 0
M  V30 2282 C 215.708 0.241572 6.36942 0
M  V30 2283 C 213.395 -0.391394 6.09845 0
M  V30 2284 C 214.393 0.252029 6.82535 0
M  V30 2285 O 214.081 0.897757 7.98871 0
M  V30 2286 H 213.813 -0.255188 0.625983 0
M  V30 2287 H 216.367 -0.135653 2.04952 0
M  V30 2288 H 214.597 -2.53846 2.91718 0
M  V30 2289 H 216.286 -2.36533 3.29859 0
M  V30 2290 H 217.052 -0.412195 4.83245 0
M  V30 2291 H 212.931 -1.53777 4.34596 0
M  V30 2292 H 216.475 0.744375 6.93617 0
M  V30 2293 H 212.372 -0.387656 6.44335 0
M  V30 2294 H 213.14 0.800102 8.1458 0
M  V30 2295 N 215.803 -1.52179 -0.40978 0
M  V30 2296 C 217.033 -1.69807 -1.17682 0
M  V30 2297 C 217.441 -0.406908 -1.84773 0
M  V30 2298 O 216.784 0.626863 -1.72673 0
M  V30 2299 C 216.846 -2.77712 -2.2829 0
M  V30 2300 C 216.51 -4.19481 -1.81341 0
M  V30 2301 C 217.507 -5.03345 -1.30154 0
M  V30 2302 C 215.192 -4.65713 -1.88194 0
M  V30 2303 C 217.186 -6.31511 -0.864416 0
M  V30 2304 C 214.873 -5.93869 -1.44093 0
M  V30 2305 C 215.871 -6.76597 -0.933023 0
M  V30 2306 O 215.559 -8.02354 -0.49838 0
M  V30 2307 H 215.291 -0.572372 -0.359675 0
M  V30 2308 H 217.845 -1.99511 -0.488311 0
M  V30 2309 H 216.075 -2.43383 -3.00502 0
M  V30 2310 H 217.764 -2.83946 -2.90051 0
M  V30 2311 H 218.53 -4.68819 -1.24232 0
M  V30 2312 H 214.409 -4.01424 -2.26671 0
M  V30 2313 H 217.953 -6.96033 -0.467286 0
M  V30 2314 H 213.85 -6.27903 -1.49694 0
M  V30 2315 H 214.618 -8.16135 -0.621747 0
M  V30 2316 N 217.281 0.66697 -1.42791 0
M  V30 2317 C 218.509 1.45505 -1.47091 0
M  V30 2318 C 218.924 1.8861 -0.0845873 0
M  V30 2319 O 218.281 1.58632 0.90234 0
M  V30 2320 C 218.332 2.69906 -2.40485 0
M  V30 2321 O 218.053 2.28608 -3.73725 0
M  V30 2322 C 219.554 3.63396 -2.53886 0
M  V30 2323 H 216.774 0.447459 -0.500022 0
M  V30 2324 H 219.318 0.818866 -1.8739 0
M  V30 2325 H 217.473 3.29696 -2.03419 0
M  V30 2326 H 217.887 3.08997 -4.23817 0
M  V30 2327 H 219.361 4.47387 -3.2334 0
M  V30 2328 H 219.838 4.09824 -1.57927 0
M  V30 2329 H 220.444 3.09495 -2.91706 0
M  V30 2330 N 218.759 1.29093 0.90403 0
M  V30 2331 C 220.17 1.15186 1.46932 0
M  V30 2332 C 220.521 -0.254587 1.94541 0
M  V30 2333 O 219.646 -1.14972 1.83332 0
M  V30 2334 C 220.241 2.08492 2.67051 0
M  V30 2335 C 218.8 1.98621 3.19729 0
M  V30 2336 C 217.947 1.9967 1.92425 0
M  V30 2337 H 220.898 1.41641 0.715789 0
M  V30 2338 H 220.919 1.65461 3.42641 0
M  V30 2339 H 220.431 3.10847 2.3237 0
M  V30 2340 H 218.532 0.993389 3.59114 0
M  V30 2341 H 218.645 2.86068 3.8432 0
M  V30 2342 H 217.009 1.44208 2.09943 0
M  V30 2343 H 217.792 3.03721 1.60026 0
M  V30 2344 N 220.237 -1.11381 1.11499 0
M  V30 2345 C 221.465 -1.86934 0.88675 0
M  V30 2346 C 221.88 -1.80195 -0.563476 0
M  V30 2347 O 221.237 -1.18367 -1.38908 0
M  V30 2348 C 221.288 -3.35722 1.34064 0
M  V30 2349 O 221.009 -3.4232 2.73401 0
M  V30 2350 C 222.51 -4.2818 1.14791 0
M  V30 2351 H 219.73 -0.591117 0.317523 0
M  V30 2352 H 222.274 -1.40865 1.48248 0
M  V30 2353 H 220.429 -3.79294 0.788355 0
M  V30 2354 H 220.843 -4.34971 2.93087 0
M  V30 2355 H 222.317 -5.30817 1.5145 0
M  V30 2356 H 222.794 -4.39113 0.0875279 0
M  V30 2357 H 223.4 -3.90402 1.68721 0
M  V30 2358 N 221.715 -0.905404 -1.28997 0
M  V30 2359 C 222.964 -0.530191 -1.94607 0
M  V30 2360 C 223.277 0.929185 -1.72121 0
M  V30 2361 O 224.483 1.41218 -2.31883 0
M  V30 2362 C 222.939 -0.897333 -3.48534 0
M  V30 2363 C 222.547 -2.37587 -3.79811 0
M  V30 2364 C 224.291 -0.592304 -4.20347 0
M  V30 2365 C 222.198 -2.68357 -5.27009 0
M  V30 2366 H 221.128 -0.194558 -0.728466 0
M  V30 2367 H 223.779 -1.10318 -1.46636 0
M  V30 2368 H 222.161 -0.253214 -3.9519 0
M  V30 2369 H 223.335 -3.06602 -3.43994 0
M  V30 2370 H 221.65 -2.6505 -3.2115 0
M  V30 2371 H 224.247 -0.798975 -5.28697 0
M  V30 2372 H 224.59 0.469474 -4.13644 0
M  V30 2373 H 225.123 -1.19452 -3.79442 0
M  V30 2374 H 221.862 -3.73355 -5.38782 0
M  V30 2375 H 221.382 -2.03971 -5.64053 0
M  V30 2376 H 223.061 -2.54922 -5.94663 0
M  V30 2377 N 223.193 1.4272 -0.668489 0
M  V30 2378 C 224.418 2.06484 -0.194758 0
M  V30 2379 C 224.843 1.49862 1.13679 0
M  V30 2380 O 224.201 0.614582 1.70565 0
M  V30 2381 C 224.249 3.60353 -0.133546 0
M  V30 2382 O 223.353 4.02464 0.899806 0
M  V30 2383 H 222.694 0.656137 -0.10188 0
M  V30 2384 H 225.224 1.82964 -0.915722 0
M  V30 2385 H 225.234 4.07976 0.0447041 0
M  V30 2386 H 223.909 4.00938 -1.1055 0
M  V30 2387 H 222.486 3.66402 0.693109 0
M  V30 2388 N 224.671 0.411399 1.52136 0
M  V30 2389 C 226.087 0.0623865 1.59478 0
M  V30 2390 C 226.287 -1.42554 1.4241 0
M  V30 2391 O 225.343 -2.19263 1.2522 0
M  V30 2392 C 226.656 0.559331 2.95452 0
M  V30 2393 C 228.204 0.517503 3.08692 0
M  V30 2394 C 228.679 0.990994 4.4715 0
M  V30 2395 N 230.17 0.947908 4.53397 0
M  V30 2396 C 230.905 1.28544 5.58806 0
M  V30 2397 N 230.401 1.69454 6.71757 0
M  V30 2398 N 232.194 1.20526 5.49026 0
M  V30 2399 H 224.345 1.37982 1.61477 0
M  V30 2400 H 226.608 0.566977 0.759764 0
M  V30 2401 H 226.314 1.59938 3.1323 0
M  V30 2402 H 226.188 -0.0298014 3.77188 0
M  V30 2403 H 228.575 -0.513505 2.90598 0
M  V30 2404 H 228.656 1.14272 2.28857 0
M  V30 2405 H 228.3 2.02034 4.65988 0
M  V30 2406 H 228.23 0.34257 5.25485 0
M  V30 2407 H 230.721 0.647157 3.72317 0
M  V30 2408 H 231.034 1.93513 7.48179 0
M  V30 2409 H 229.379 1.73359 6.73032 0
M  V30 2410 H 232.57 0.884505 4.59667 0
M  V30 2411 H 232.743 1.47161 6.31069 0
M  V30 2412 N 226.149 -1.5696 0.141893 0
M  V30 2413 C 227.059 -2.20066 -0.812905 0
M  V30 2414 C 228.075 -1.18344 -1.27557 0
M  V30 2415 O 229.251 -1.50902 -1.33381 0
M  V30 2416 C 226.316 -2.80583 -2.03652 0
M  V30 2417 C 225.377 -3.97414 -1.62359 0
M  V30 2418 C 224.61 -4.55036 -2.78887 0
M  V30 2419 O 224.833 -4.11538 -3.94959 0
M  V30 2420 O 223.767 -5.45376 -2.54653 0
M  V30 2421 H 227.593 -3.02157 -0.305746 0
M  V30 2422 H 225.178 -1.49159 -0.0848799 0
M  V30 2423 H 227.06 -3.19067 -2.75272 0
M  V30 2424 H 225.735 -2.01508 -2.5333 0
M  V30 2425 H 224.642 -3.63656 -0.877775 0
M  V30 2426 H 225.975 -4.77994 -1.17401 0
M  V30 2427 N 227.627 0.131896 -1.57047 0
M  V30 2428 C 229.043 0.485031 -1.52051 0
M  V30 2429 C 229.243 1.82563 -0.85281 0
M  V30 2430 O 228.299 2.48817 -0.429694 0
M  V30 2431 C 229.612 0.481409 -2.96821 0
M  V30 2432 C 231.16 0.565868 -3.07842 0
M  V30 2433 C 231.635 0.592762 -4.54148 0
M  V30 2434 N 233.126 0.654564 -4.58552 0
M  V30 2435 C 233.861 0.696608 -5.69153 0
M  V30 2436 N 233.357 0.697078 -6.89284 0
M  V30 2437 N 235.15 0.738639 -5.57226 0
M  V30 2438 H 227.301 -0.746664 -1.98843 0
M  V30 2439 H 229.564 -0.273999 -0.90754 0
M  V30 2440 H 229.27 -0.435731 -3.4899 0
M  V30 2441 H 229.144 1.3139 -3.53577 0
M  V30 2442 H 231.531 1.47343 -2.55684 0
M  V30 2443 H 231.612 -0.29406 -2.54104 0
M  V30 2444 H 231.256 -0.310701 -5.06949 0
M  V30 2445 H 231.186 1.46939 -5.05684 0
M  V30 2446 H 233.677 0.660887 -3.72076 0
M  V30 2447 H 233.99 0.731426 -7.69331 0
M  V30 2448 H 232.335 0.66471 -6.91814 0
M  V30 2449 H 235.526 0.735545 -4.62285 0
M  V30 2450 H 235.699 0.767938 -6.43434 0
M  V30 2451 N 229.106 1.52395 0.401703 0
M  V30 2452 C 230.069 1.75636 1.47257 0
M  V30 2453 C 231.069 0.62628 1.48103 0
M  V30 2454 O 232.259 0.894227 1.49497 0
M  V30 2455 C 229.391 1.84553 2.86624 0
M  V30 2456 H 230.584 2.71241 1.27938 0
M  V30 2457 H 228.137 1.42923 0.632662 0
M  V30 2458 H 228.872 0.908882 3.11303 0
M  V30 2459 H 228.657 2.66715 2.87412 0
M  V30 2460 H 230.147 2.04251 3.64241 0
M  V30 2461 N 230.584 -0.659388 1.43143 0
M  V30 2462 C 231.83 -1.42145 1.44647 0
M  V30 2463 C 232.163 -1.9408 0.0681907 0
M  V30 2464 O 231.438 -1.71899 -0.910007 0
M  V30 2465 C 231.721 -2.60735 2.48373 0
M  V30 2466 C 231.574 -2.14332 3.95451 0
M  V30 2467 C 232.893 -3.62951 2.48906 0
M  V30 2468 H 230.012 -0.51552 0.526696 0
M  V30 2469 H 232.654 -0.748069 1.74654 0
M  V30 2470 H 230.804 -3.18184 2.22916 0
M  V30 2471 H 232.476 -1.61932 4.31944 0
M  V30 2472 H 230.719 -1.4576 4.08578 0
M  V30 2473 H 231.39 -2.99583 4.63631 0
M  V30 2474 H 233.866 -3.1525 2.71582 0
M  V30 2475 H 232.742 -4.43487 3.23435 0
M  V30 2476 H 233.003 -4.15126 1.52061 0
M  V30 2477 N 232.062 -1.29571 -0.897171 0
M  V30 2478 C 232.972 -1.16808 -2.03453 0
M  V30 2479 C 233.988 -0.0907471 -1.73763 0
M  V30 2480 O 235.164 -0.303312 -1.99103 0
M  V30 2481 C 232.229 -0.848264 -3.36163 0
M  V30 2482 C 231.29 -2.0097 -3.79354 0
M  V30 2483 C 230.523 -1.70505 -5.05731 0
M  V30 2484 O 230.746 -0.62718 -5.66941 0
M  V30 2485 O 229.68 -2.5538 -5.45036 0
M  V30 2486 H 233.506 -2.12325 -2.17144 0
M  V30 2487 H 231.091 -1.09047 -1.02123 0
M  V30 2488 H 232.973 -0.684581 -4.15802 0
M  V30 2489 H 231.648 0.0771071 -3.23608 0
M  V30 2490 H 230.555 -2.22863 -3.00471 0
M  V30 2491 H 231.888 -2.91636 -3.96496 0
M  V30 2492 N 233.54 1.10788 -1.12088 0
M  V30 2493 C 234.47 2.19083 -0.807755 0
M  V30 2494 C 235.451 1.6858 0.226859 0
M  V30 2495 O 236.636 1.93997 0.0888475 0
M  V30 2496 C 233.766 3.46344 -0.257576 0
M  V30 2497 C 232.72 4.101 -1.22483 0
M  V30 2498 C 232.046 5.32016 -0.535052 0
M  V30 2499 C 233.346 4.54236 -2.57811 0
M  V30 2500 H 235.04 2.45534 -1.71328 0
M  V30 2501 H 232.586 1.1801 -0.825205 0
M  V30 2502 H 234.539 4.21392 -0.0262679 0
M  V30 2503 H 233.263 3.19373 0.683278 0
M  V30 2504 H 231.922 3.37054 -1.44189 0
M  V30 2505 H 231.57 5.01319 0.410827 0
M  V30 2506 H 231.27 5.75625 -1.18024 0
M  V30 2507 H 232.794 6.09799 -0.312695 0
M  V30 2508 H 234.208 5.20575 -2.40155 0
M  V30 2509 H 232.605 5.08682 -3.18375 0
M  V30 2510 H 233.675 3.6734 -3.16528 0
M  V30 2511 N 235.018 0.912232 1.28515 0
M  V30 2512 C 235.948 0.416403 2.29757 0
M  V30 2513 C 236.929 -0.515194 1.6211 0
M  V30 2514 O 238.114 -0.423253 1.89532 0
M  V30 2515 C 235.244 -0.34572 3.45575 0
M  V30 2516 C 234.198 0.496599 4.25109 0
M  V30 2517 C 233.524 -0.393771 5.33248 0
M  V30 2518 C 234.824 1.75307 4.92001 0
M  V30 2519 H 236.518 1.26249 2.7148 0
M  V30 2520 H 234.064 0.608515 1.30511 0
M  V30 2521 H 236.017 -0.703422 4.15488 0
M  V30 2522 H 234.741 -1.2257 3.02728 0
M  V30 2523 H 233.4 0.8368 3.56922 0
M  V30 2524 H 233.048 -1.27225 4.86644 0
M  V30 2525 H 232.748 0.166209 5.87365 0
M  V30 2526 H 234.272 -0.747389 6.06009 0
M  V30 2527 H 235.686 1.46437 5.54283 0
M  V30 2528 H 234.083 2.25534 5.56106 0
M  V30 2529 H 235.153 2.48176 4.16577 0
M  V30 2530 N 236.496 -1.42363 0.676048 0
M  V30 2531 C 237.912 -1.55811 0.345718 0
M  V30 2532 C 238.112 -1.65544 -1.14879 0
M  V30 2533 O 237.168 -1.62306 -1.93424 0
M  V30 2534 C 238.481 -2.80746 1.07713 0
M  V30 2535 C 240.029 -2.9452 1.05958 0
M  V30 2536 C 240.504 -4.22318 1.77233 0
M  V30 2537 N 241.995 -4.29233 1.74108 0
M  V30 2538 C 242.73 -5.26935 2.26113 0
M  V30 2539 N 242.226 -6.30783 2.86505 0
M  V30 2540 N 244.019 -5.18741 2.1648 0
M  V30 2541 H 236.17 -1.34289 1.6456 0
M  V30 2542 H 238.433 -0.646506 0.69335 0
M  V30 2543 H 238.139 -2.79696 2.13221 0
M  V30 2544 H 238.013 -3.71676 0.64316 0
M  V30 2545 H 240.4 -2.95097 0.0128255 0
M  V30 2546 H 240.481 -2.04817 1.53244 0
M  V30 2547 H 240.125 -4.22502 2.81877 0
M  V30 2548 H 240.055 -5.10958 1.27396 0
M  V30 2549 H 242.546 -3.54814 1.30059 0
M  V30 2550 H 242.859 -7.01691 3.23805 0
M  V30 2551 H 241.204 -6.31341 2.90575 0
M  V30 2552 H 244.395 -4.36533 1.68987 0
M  V30 2553 H 244.568 -5.94721 2.57316 0
M  V30 2554 N 237.974 -0.419461 -1.51915 0
M  V30 2555 C 238.921 0.400927 -2.27291 0
M  V30 2556 C 239.891 1.03224 -1.30131 0
M  V30 2557 O 241.076 1.05455 -1.59009 0
M  V30 2558 C 238.216 1.50603 -3.10504 0
M  V30 2559 C 237.329 0.89462 -4.22635 0
M  V30 2560 C 236.464 1.97328 -4.93189 0
M  V30 2561 C 235.503 1.33935 -5.97267 0
M  V30 2562 N 234.64 2.3586 -6.61298 0
M  V30 2563 H 239.48 -0.248251 -2.96964 0
M  V30 2564 H 237.017 -0.134266 -1.46486 0
M  V30 2565 H 238.975 2.15783 -3.57062 0
M  V30 2566 H 237.605 2.12509 -2.42981 0
M  V30 2567 H 236.657 0.131583 -3.80172 0
M  V30 2568 H 237.969 0.391641 -4.9726 0
M  V30 2569 H 237.123 2.70211 -5.43204 0
M  V30 2570 H 235.862 2.50994 -4.18155 0
M  V30 2571 H 234.867 0.595896 -5.46561 0
M  V30 2572 H 236.092 0.810252 -6.74249 0
M  V30 2573 H 234.038 2.88639 -5.89087 0
M  V30 2574 H 233.955 1.90403 -7.3163 0
M  V30 2575 H 235.223 3.08282 -7.15949 0
M  V30 2576 N 239.452 1.56882 -0.150215 0
M  V30 2577 C 240.692 1.98119 0.502804 0
M  V30 2578 C 241.056 1.03327 1.61826 0
M  V30 2579 O 242.257 1.33621 2.33236 0
M  V30 2580 C 240.528 3.43329 0.992988 0
M  V30 2581 S 242.087 4.0659 1.65015 0
M  V30 2582 H 238.905 0.692189 0.162467 0
M  V30 2583 H 241.507 1.93988 -0.242689 0
M  V30 2584 H 240.211 4.10046 0.170436 0
M  V30 2585 H 239.742 3.5118 1.77303 0
M  V30 2586 H 241.757 3.99906 2.93752 0
M  V30 2587 N 240.93 -0.123565 1.57115 0
M  V30 2588 C 241.86 -1.15309 2.03042 0
M  V30 2589 C 242.841 -1.43454 0.914061 0
M  V30 2590 O 244.026 -1.53973 1.18347 0
M  V30 2591 C 241.156 -2.48043 2.43089 0
M  V30 2592 C 240.11 -2.3437 3.58127 0
M  V30 2593 C 239.436 -3.72026 3.84059 0
M  V30 2594 C 240.736 -1.80804 4.90007 0
M  V30 2595 H 242.43 -0.771102 2.893 0
M  V30 2596 H 239.976 -0.369479 1.39179 0
M  V30 2597 H 241.929 -3.20311 2.73823 0
M  V30 2598 H 240.653 -2.88122 1.53796 0
M  V30 2599 H 239.312 -1.64551 3.27595 0
M  V30 2600 H 238.96 -4.09582 2.91979 0
M  V30 2601 H 238.66 -3.63732 4.6149 0
M  V30 2602 H 240.184 -4.45806 4.1724 0
M  V30 2603 H 241.598 -2.42886 5.19307 0
M  V30 2604 H 239.995 -1.83343 5.71407 0
M  V30 2605 H 241.065 -0.76528 4.78823 0
M  V30 2606 N 242.408 -1.52605 -0.393616 0
M  V30 2607 C 243.318 -1.79971 -1.50492 0
M  V30 2608 C 244.334 -0.686181 -1.59899 0
M  V30 2609 O 245.51 -0.973274 -1.76322 0
M  V30 2610 C 242.575 -1.95867 -2.86072 0
M  V30 2611 C 241.636 -3.19781 -2.86424 0
M  V30 2612 C 240.869 -3.34909 -4.15538 0
M  V30 2613 O 241.092 -2.54948 -5.10253 0
M  V30 2614 O 240.026 -4.28141 -4.23059 0
M  V30 2615 H 243.852 -2.74328 -1.30299 0
M  V30 2616 H 241.437 -1.3764 -0.581005 0
M  V30 2617 H 243.319 -2.08056 -3.66457 0
M  V30 2618 H 241.994 -1.04699 -3.063 0
M  V30 2619 H 240.901 -3.13038 -2.04837 0
M  V30 2620 H 242.234 -4.1078 -2.71147 0
M  V30 2621 N 243.887 0.651787 -1.4349 0
M  V30 2622 C 244.797 1.79368 -1.5121 0
M  V30 2623 C 245.813 1.69361 -0.399093 0
M  V30 2624 O 246.989 1.90505 -0.653431 0
M  V30 2625 C 244.054 3.15653 -1.43401 0
M  V30 2626 C 243.115 3.37446 -2.65384 0
M  V30 2627 C 242.348 4.67229 -2.57939 0
M  V30 2628 O 242.571 5.46676 -1.62792 0
M  V30 2629 O 241.505 4.90773 -3.48462 0
M  V30 2630 H 245.331 1.7581 -2.47638 0
M  V30 2631 H 242.916 0.810447 -1.25507 0
M  V30 2632 H 244.798 3.96935 -1.41494 0
M  V30 2633 H 243.473 3.19798 -0.501085 0
M  V30 2634 H 242.38 2.55923 -2.72863 0
M  V30 2635 H 243.713 3.38148 -3.57654 0
M  V30 2636 N 245.365 1.30045 0.890287 0
M  V30 2637 C 246.295 1.18541 2.01172 0
M  V30 2638 C 247.276 0.0773356 1.69924 0
M  V30 2639 O 248.461 0.25845 1.92473 0
M  V30 2640 C 245.591 0.870941 3.36202 0
M  V30 2641 C 244.545 1.93637 3.81692 0
M  V30 2642 C 243.871 1.475 5.13953 0
M  V30 2643 C 245.171 3.34666 4.00994 0
M  V30 2644 H 246.865 2.12359 2.11054 0
M  V30 2645 H 244.411 1.02238 1.01407 0
M  V30 2646 H 246.364 0.777141 4.14172 0
M  V30 2647 H 245.088 -0.102926 3.26438 0
M  V30 2648 H 243.747 2.01972 3.05946 0
M  V30 2649 H 243.395 0.489551 5.00612 0
M  V30 2650 H 243.095 2.1876 5.4536 0
M  V30 2651 H 244.619 1.39489 5.94454 0
M  V30 2652 H 246.033 3.2912 4.69417 0
M  V30 2653 H 244.43 4.03966 4.43769 0
M  V30 2654 H 245.5 3.76949 3.05021 0
M  V30 2655 N 246.843 -1.10192 1.12674 0
M  V30 2656 C 247.775 -2.16418 0.754701 0
M  V30 2657 C 248.788 -1.61309 -0.21986 0
M  V30 2658 O 249.977 -1.785 -0.000826841 0
M  V30 2659 C 247.077 -3.38762 0.096698 0
M  V30 2660 C 246.25 -4.23307 1.10136 0
M  V30 2661 C 245.309 -5.24092 0.470513 0
M  V30 2662 O 244.335 -5.57906 1.12824 0
M  V30 2663 N 245.537 -5.75491 -0.760948 0
M  V30 2664 H 248.302 -2.48943 1.66875 0
M  V30 2665 H 245.863 -1.25834 1.01869 0
M  V30 2666 H 247.855 -4.03291 -0.337384 0
M  V30 2667 H 246.425 -3.04192 -0.720153 0
M  V30 2668 H 245.645 -3.55036 1.71299 0
M  V30 2669 H 246.933 -4.76624 1.78064 0
M  V30 2670 H 246.331 -5.50222 -1.31424 0
M  V30 2671 H 244.888 -6.41792 -1.13781 0
M  V30 2672 N 248.321 -0.919034 -1.28029 0
M  V30 2673 C 249.268 -0.410005 -2.27129 0
M  V30 2674 C 250.238 0.518405 -1.57803 0
M  V30 2675 O 251.423 0.439451 -1.8567 0
M  V30 2676 C 248.563 0.339054 -3.4343 0
M  V30 2677 C 247.676 -0.622468 -4.27492 0
M  V30 2678 C 246.811 0.145567 -5.31001 0
M  V30 2679 C 245.85 -0.809226 -6.06727 0
M  V30 2680 N 244.987 -0.0743728 -7.02061 0
M  V30 2681 H 249.827 -1.26011 -2.70047 0
M  V30 2682 H 247.364 -0.632663 -1.328 0
M  V30 2683 H 249.322 0.789586 -4.0966 0
M  V30 2684 H 247.952 1.15346 -3.01488 0
M  V30 2685 H 247.004 -1.19153 -3.61257 0
M  V30 2686 H 248.316 -1.35252 -4.80113 0
M  V30 2687 H 247.47 0.656417 -6.03139 0
M  V30 2688 H 246.209 0.908643 -4.79161 0
M  V30 2689 H 245.214 -1.3314 -5.33436 0
M  V30 2690 H 246.439 -1.57194 -6.60656 0
M  V30 2691 H 244.385 0.670616 -6.52563 0
M  V30 2692 H 244.302 -0.744157 -7.52329 0
M  V30 2693 H 245.57 0.416109 -7.78389 0
M  V30 2694 N 249.799 1.42003 -0.683588 0
M  V30 2695 C 251.215 1.55625 -0.353976 0
M  V30 2696 C 251.415 1.66151 1.14 0
M  V30 2697 O 250.471 1.63329 1.92561 0
M  V30 2698 C 251.784 2.80171 -1.092 0
M  V30 2699 C 253.332 2.93954 -1.07518 0
M  V30 2700 C 253.807 4.21372 -1.79471 0
M  V30 2701 N 255.298 4.28303 -1.76381 0
M  V30 2702 C 256.033 5.25729 -2.28904 0
M  V30 2703 N 255.529 6.29254 -2.89846 0
M  V30 2704 N 257.322 5.17586 -2.19228 0
M  V30 2705 H 249.473 1.33415 -1.6527 0
M  V30 2706 H 251.736 0.64282 -0.696769 0
M  V30 2707 H 251.442 2.78561 -2.14701 0
M  V30 2708 H 251.316 3.7133 -0.662862 0
M  V30 2709 H 253.703 2.95086 -0.028475 0
M  V30 2710 H 253.784 2.04002 -1.54328 0
M  V30 2711 H 253.428 4.21001 -2.84114 0
M  V30 2712 H 253.358 5.10275 -1.30104 0
M  V30 2713 H 255.849 3.54119 -1.31939 0
M  V30 2714 H 256.162 6.99964 -3.27522 0
M  V30 2715 H 254.507 6.29791 -2.93919 0
M  V30 2716 H 257.698 4.35631 -1.71299 0
M  V30 2717 H 257.871 5.93348 -2.60466 0
M  V30 2718 N 251.277 0.427512 1.51691 0
M  V30 2719 C 252.524 -0.142229 2.02 0
M  V30 2720 C 252.852 -1.43566 1.31221 0
M  V30 2721 O 252.107 -1.91298 0.412744 0
M  V30 2722 C 252.406 -0.418249 3.54944 0
M  V30 2723 C 252.072 0.788187 4.43958 0
M  V30 2724 C 250.734 1.11906 4.68007 0
M  V30 2725 C 253.086 1.59347 4.96244 0
M  V30 2726 C 250.414 2.25608 5.41588 0
M  V30 2727 C 252.766 2.7214 5.71072 0
M  V30 2728 C 251.43 3.05692 5.93387 0
M  V30 2729 H 250.7 -0.0520451 0.73917 0
M  V30 2730 H 253.347 0.572697 1.82736 0
M  V30 2731 H 251.652 -1.21496 3.72486 0
M  V30 2732 H 253.349 -0.872339 3.91397 0
M  V30 2733 H 249.939 0.520344 4.2543 0
M  V30 2734 H 254.123 1.35106 4.77556 0
M  V30 2735 H 249.379 2.51929 5.57083 0
M  V30 2736 H 253.553 3.34914 6.10578 0
M  V30 2737 H 251.18 3.9391 6.50184 0
M  V30 2738 N 252.755 -1.56801 0.158532 0
M  V30 2739 C 254.004 -1.95665 -0.489702 0
M  V30 2740 C 254.317 -1.04654 -1.65248 0
M  V30 2741 O 255.523 -1.33146 -2.3661 0
M  V30 2742 C 253.979 -3.47874 -0.922582 0
M  V30 2743 C 253.587 -4.47489 0.213893 0
M  V30 2744 C 255.331 -3.95583 -1.53996 0
M  V30 2745 C 253.238 -5.90921 -0.237903 0
M  V30 2746 H 252.168 -0.730516 -0.186716 0
M  V30 2747 H 254.819 -1.81861 0.244722 0
M  V30 2748 H 253.201 -3.57051 -1.71261 0
M  V30 2749 H 254.375 -4.50017 0.991036 0
M  V30 2750 H 252.69 -4.09764 0.740407 0
M  V30 2751 H 255.287 -5.0019 -1.8898 0
M  V30 2752 H 255.63 -3.37789 -2.43319 0
M  V30 2753 H 256.163 -3.8937 -0.814611 0
M  V30 2754 H 252.902 -6.52559 0.620236 0
M  V30 2755 H 252.422 -5.91729 -0.980676 0
M  V30 2756 H 254.101 -6.43352 -0.686067 0
M  V30 2757 N 254.233 0.115231 -1.57178 0
M  V30 2758 C 255.163 1.1423 -2.03651 0
M  V30 2759 C 256.144 1.42967 -0.921655 0
M  V30 2760 O 257.329 1.53343 -1.19162 0
M  V30 2761 C 254.459 2.4675 -2.44401 0
M  V30 2762 C 253.413 2.32467 -3.59365 0
M  V30 2763 C 252.739 3.69984 -3.86026 0
M  V30 2764 C 254.039 1.78203 -4.90959 0
M  V30 2765 H 255.733 0.755749 -2.89705 0
M  V30 2766 H 253.279 0.362093 -1.39373 0
M  V30 2767 H 255.232 3.18854 -2.75517 0
M  V30 2768 H 253.956 2.87302 -1.55322 0
M  V30 2769 H 252.615 1.62811 -3.28463 0
M  V30 2770 H 252.263 4.08028 -2.94147 0
M  V30 2771 H 251.963 3.61279 -4.63412 0
M  V30 2772 H 253.487 4.43587 -4.19599 0
M  V30 2773 H 254.901 2.40128 -5.20587 0
M  V30 2774 H 253.298 1.8031 -5.72371 0
M  V30 2775 H 254.368 0.739876 -4.79222 0
M  V30 2776 N 255.711 1.52812 0.385517 0
M  V30 2777 C 256.659 1.78482 1.49155 0
M  V30 2778 C 257.653 0.652914 1.56312 0
M  V30 2779 O 258.859 0.835464 1.59436 0
M  V30 2780 H 255.234 0.5648 0.496493 0
M  V30 2781 H 257.205 2.71095 1.24699 0
M  V30 2782 C 255.954 1.97378 2.86247 0
M  V30 2783 H 255.277 2.83907 2.81491 0
M  V30 2784 H 256.717 2.19327 3.62866 0
M  V30 2785 C 255.176 0.74728 3.28508 0
M  V30 2786 O 255.706 -0.0736232 4.01633 0
M  V30 2787 N 253.912 0.576396 2.84826 0
M  V30 2788 H 253.459 1.24555 2.25486 0
M  V30 2789 H 253.417 -0.24288 3.1346 0
M  V30 2790 N 257.189 -0.644168 1.43834 0
M  V30 2791 C 258.119 -1.76814 1.52509 0
M  V30 2792 C 259.1 -1.65823 0.379052 0
M  V30 2793 O 260.285 -1.84781 0.597466 0
M  V30 2794 C 257.415 -3.15288 1.4564 0
M  V30 2795 C 256.369 -3.41053 2.58586 0
M  V30 2796 C 255.695 -4.79421 2.36769 0
M  V30 2797 C 256.995 -3.34902 4.00797 0
M  V30 2798 H 258.689 -1.69812 2.46586 0
M  V30 2799 H 256.235 -0.815542 1.1868 0
M  V30 2800 H 258.188 -3.93681 1.50311 0
M  V30 2801 H 256.912 -3.23043 0.480725 0
M  V30 2802 H 255.571 -2.65035 2.53282 0
M  V30 2803 H 255.219 -4.83863 1.37424 0
M  V30 2804 H 254.919 -4.9762 3.12487 0
M  V30 2805 H 256.443 -5.6006 2.43238 0
M  V30 2806 H 257.857 -4.03218 4.07539 0
M  V30 2807 H 256.254 -3.64637 4.76613 0
M  V30 2808 H 257.324 -2.32928 4.25291 0
M  V30 2809 N 258.668 -1.30515 -0.883378 0
M  V30 2810 C 260.079 -1.17509 -1.45081 0
M  V30 2811 C 260.43 0.223605 -1.94922 0
M  V30 2812 O 259.555 1.12041 -1.85137 0
M  V30 2813 C 260.15 -2.12715 -2.63701 0
M  V30 2814 C 258.709 -2.03682 -3.16529 0
M  V30 2815 C 257.856 -2.02706 -1.89224 0
M  V30 2816 H 260.807 -1.42762 -0.693165 0
M  V30 2817 H 260.828 -1.70891 -3.39965 0
M  V30 2818 H 260.34 -3.14505 -2.27395 0
M  V30 2819 H 258.441 -1.05039 -3.57488 0
M  V30 2820 H 258.554 -2.92146 -3.7972 0
M  V30 2821 H 256.918 -1.4753 -2.07622 0
M  V30 2822 H 257.701 -3.06229 -1.55174 0
M  V30 2823 N 260.146 1.09593 -1.13257 0
M  V30 2824 C 261.374 1.855 -0.916378 0
M  V30 2825 C 261.789 1.81069 0.534738 0
M  V30 2826 O 261.146 1.20562 1.37007 0
M  V30 2827 C 261.197 3.33546 -1.39388 0
M  V30 2828 O 260.918 3.37927 -2.78813 0
M  V30 2829 C 262.419 4.26299 -1.21588 0
M  V30 2830 H 259.639 0.585991 -0.326887 0
M  V30 2831 H 262.183 1.38488 -1.5047 0
M  V30 2832 H 260.338 3.77992 -0.848597 0
M  V30 2833 H 260.752 4.30254 -2.9997 0
M  V30 2834 H 262.226 5.28341 -1.59876 0
M  V30 2835 H 262.703 4.38918 -0.157376 0
M  V30 2836 H 263.309 3.87668 -1.7491 0
M  V30 2837 N 261.624 0.925811 1.2754 0
M  V30 2838 C 262.871 0.565255 1.94451 0
M  V30 2839 C 263.199 -0.89316 1.7278 0
M  V30 2840 O 262.454 -1.65213 1.04895 0
M  V30 2841 C 262.753 0.835296 3.47502 0
M  V30 2842 C 262.419 2.27515 3.89291 0
M  V30 2843 C 261.081 2.66879 4.00411 0
M  V30 2844 C 263.433 3.21158 4.10496 0
M  V30 2845 C 260.761 3.99014 4.30122 0
M  V30 2846 C 263.113 4.52871 4.4169 0
M  V30 2847 C 261.777 4.92072 4.51023 0
M  V30 2848 H 261.047 0.206841 0.711546 0
M  V30 2849 H 263.694 1.16942 1.51647 0
M  V30 2850 H 261.999 0.148442 3.91519 0
M  V30 2851 H 263.696 0.535322 3.97411 0
M  V30 2852 H 260.286 1.95976 3.81171 0
M  V30 2853 H 264.47 2.9195 4.01346 0
M  V30 2854 H 259.726 4.2907 4.35556 0
M  V30 2855 H 263.9 5.25436 4.57045 0
M  V30 2856 H 261.527 5.9449 4.738 0
M  V30 2857 N 263.102 -1.41638 0.69111 0
M  V30 2858 C 264.327 -2.06148 0.227583 0
M  V30 2859 C 264.752 -1.51652 -1.11281 0
M  V30 2860 O 264.11 -0.64164 -1.69566 0
M  V30 2861 C 264.158 -3.60095 0.190858 0
M  V30 2862 O 263.262 -4.03845 -0.835664 0
M  V30 2863 H 262.603 -0.654434 0.112306 0
M  V30 2864 H 265.133 -1.81484 0.944714 0
M  V30 2865 H 265.143 -4.07995 0.020207 0
M  V30 2866 H 263.818 -3.99129 1.16915 0
M  V30 2867 H 262.395 -3.67458 -0.63473 0
M  V30 2868 N 264.58 -0.43555 -1.51462 0
M  V30 2869 C 265.826 0.131709 -2.02372 0
M  V30 2870 C 266.159 1.42516 -1.3192 0
M  V30 2871 O 265.434 1.89606 -0.433573 0
M  V30 2872 C 265.717 0.352301 -3.58373 0
M  V30 2873 C 265.57 -0.959676 -4.39443 0
M  V30 2874 C 266.889 1.12286 -4.25535 0
M  V30 2875 H 264.008 0.0463936 -0.735538 0
M  V30 2876 H 266.65 -0.574197 -1.81116 0
M  V30 2877 H 264.8 0.9536 -3.76615 0
M  V30 2878 H 266.472 -1.59482 -4.32855 0
M  V30 2879 H 264.715 -1.56468 -4.04599 0
M  V30 2880 H 265.386 -0.759394 -5.46752 0
M  V30 2881 H 267.862 0.613545 -4.11552 0
M  V30 2882 H 266.738 1.24598 -5.34571 0
M  V30 2883 H 266.999 2.15048 -3.86273 0
M  V30 2884 N 266.058 1.56714 -0.166846 0
M  V30 2885 C 267.474 1.58473 0.189372 0
M  V30 2886 C 267.674 1.18201 1.63189 0
M  V30 2887 O 266.73 0.891528 2.36237 0
M  V30 2888 C 268.043 3.00573 -0.0873872 0
M  V30 2889 C 269.591 3.1299 -0.0252443 0
M  V30 2890 C 270.066 4.57174 -0.274934 0
M  V30 2891 N 271.557 4.62665 -0.222553 0
M  V30 2892 C 272.292 5.72072 -0.389985 0
M  V30 2893 N 271.788 6.90054 -0.616229 0
M  V30 2894 N 273.581 5.61153 -0.326202 0
M  V30 2895 H 265.732 1.8118 -1.10849 0
M  V30 2896 H 267.995 0.839525 -0.440342 0
M  V30 2897 H 267.701 3.34497 -1.0865 0
M  V30 2898 H 267.575 3.72019 0.623037 0
M  V30 2899 H 269.962 2.78895 0.96444 0
M  V30 2900 H 270.043 2.43989 -0.768309 0
M  V30 2901 H 269.687 4.91976 -1.26181 0
M  V30 2902 H 269.617 5.24328 0.48869 0
M  V30 2903 H 272.108 3.77863 -0.0531512 0
M  V30 2904 H 272.421 7.69311 -0.733559 0
M  V30 2905 H 270.766 6.91927 -0.652791 0
M  V30 2906 H 273.957 4.67859 -0.150072 0
M  V30 2907 H 274.13 6.46364 -0.460116 0
M  V30 2908 N 267.536 -0.106894 1.57237 0
M  V30 2909 C 268.785 -0.811163 1.8467 0
M  V30 2910 C 269.098 -1.80469 0.754342 0
M  V30 2911 O 270.304 -2.55601 0.915439 0
M  V30 2912 C 268.76 -1.49337 3.27454 0
M  V30 2913 C 268.368 -0.540217 4.44731 0
M  V30 2914 C 270.112 -2.18206 3.64124 0
M  V30 2915 C 268.019 -1.22634 5.78545 0
M  V30 2916 H 266.949 -0.306679 0.688813 0
M  V30 2917 H 269.6 -0.0639887 1.83388 0
M  V30 2918 H 267.982 -2.2876 3.23241 0
M  V30 2919 H 269.156 0.221659 4.60267 0
M  V30 2920 H 267.471 0.042146 4.16379 0
M  V30 2921 H 270.068 -2.70253 4.61376 0
M  V30 2922 H 270.411 -2.96562 2.92158 0
M  V30 2923 H 270.944 -1.45658 3.70174 0
M  V30 2924 H 267.683 -0.483832 6.53712 0
M  V30 2925 H 267.203 -1.95993 5.66874 0
M  V30 2926 H 268.882 -1.75615 6.2271 0
M  V30 2927 N 269.014 -1.53014 -0.377408 0
M  V30 2928 C 270.263 -1.67845 -1.11853 0
M  V30 2929 C 270.576 -0.430625 -1.90801 0
M  V30 2930 O 271.782 -0.459261 -2.67587 0
M  V30 2931 C 270.238 -2.96668 -2.03756 0
M  V30 2932 C 269.846 -4.28671 -1.30175 0
M  V30 2933 C 271.59 -3.20865 -2.77932 0
M  V30 2934 C 269.497 -5.48591 -2.20911 0
M  V30 2935 H 268.427 -0.625343 -0.421263 0
M  V30 2936 H 271.078 -1.79514 -0.380409 0
M  V30 2937 H 269.46 -2.78773 -2.8125 0
M  V30 2938 H 270.634 -4.57157 -0.578259 0
M  V30 2939 H 268.949 -4.10825 -0.679108 0
M  V30 2940 H 271.546 -4.07642 -3.46024 0
M  V30 2941 H 271.889 -2.36424 -3.4265 0
M  V30 2942 H 272.422 -3.39379 -2.07525 0
M  V30 2943 H 269.161 -6.35474 -1.6079 0
M  V30 2944 H 268.681 -5.244 -2.91144 0
M  V30 2945 H 270.36 -5.8292 -2.80736 0
M  V30 2946 N 270.492 0.636531 -1.44174 0
M  V30 2947 C 271.769 1.39463 -1.37148 0
M  V30 2948 C 272.149 2.11082 -0.027507 0
M  V30 2949 O 271.497 2.05954 0.989716 0
M  V30 2950 C 271.707 2.36552 -2.56601 0
M  V30 2951 C 273.055 3.00048 -3.00427 0
M  V30 2952 O 274.079 2.46878 -2.56767 0
M  V30 2953 O 272.938 3.96488 -3.76111 0
M  V30 2954 H 270.032 0.623903 -0.542839 0
M  V30 2955 H 272.578 0.662039 -1.56253 0
M  V30 2956 H 271.35 1.82692 -3.46034 0
M  V30 2957 H 270.973 3.17236 -2.39681 0
M  V30 2958 N 271.97 1.30982 0.876444 0
M  V30 2959 C 272.917 1.18085 1.98304 0
M  V30 2960 C 273.887 0.0682263 1.6596 0
M  V30 2961 O 275.072 0.239937 1.89285 0
M  V30 2962 C 272.212 0.887475 3.33493 0
M  V30 2963 C 271.325 2.08281 3.78475 0
M  V30 2964 C 270.46 1.72678 5.0235 0
M  V30 2965 C 269.499 2.88657 5.39762 0
M  V30 2966 N 268.636 2.53292 6.54819 0
M  V30 2967 H 273.476 2.1275 2.08666 0
M  V30 2968 H 271.013 1.05839 1.02159 0
M  V30 2969 H 272.971 0.697961 4.1132 0
M  V30 2970 H 271.601 -0.022315 3.22792 0
M  V30 2971 H 270.653 2.3833 2.96484 0
M  V30 2972 H 271.965 2.95108 4.02135 0
M  V30 2973 H 271.119 1.50151 5.87826 0
M  V30 2974 H 269.858 0.830327 4.8058 0
M  V30 2975 H 268.863 3.1184 4.52809 0
M  V30 2976 H 270.088 3.79002 5.63502 0
M  V30 2977 H 268.034 1.66163 6.34607 0
M  V30 2978 H 267.951 3.3365 6.7839 0
M  V30 2979 H 269.219 2.34143 7.43503 0
M  V30 2980 N 273.449 -1.08991 1.13837 0
M  V30 2981 C 274.397 -2.17841 0.815347 0
M  V30 2982 C 275.391 -1.68164 -0.204233 0
M  V30 2983 O 276.597 -1.79897 -0.0609304 0
M  V30 2984 H 272.972 -0.710654 0.245915 0
M  V30 2985 H 274.943 -2.42315 1.74143 0
M  V30 2986 C 273.692 -3.46381 0.302614 0
M  V30 2987 H 273.015 -3.84979 1.0785 0
M  V30 2988 H 274.455 -4.23844 0.115074 0
M  V30 2989 C 272.914 -3.22556 -0.972591 0
M  V30 2990 O 273.444 -3.45599 -2.04754 0
M  V30 2991 N 271.65 -2.76134 -0.905455 0
M  V30 2992 H 271.197 -2.57582 -0.0305421 0
M  V30 2993 H 271.155 -2.60571 -1.75926 0
M  V30 2994 N 274.927 -0.932562 -1.27047 0
M  V30 2995 C 276.175 -0.574422 -1.93765 0
M  V30 2996 C 276.496 0.887993 -1.73608 0
M  V30 2997 O 275.766 1.62999 -1.08665 0
M  V30 2998 H 274.346 -0.209451 -0.717035 0
M  V30 2999 H 277.008 -1.18601 -1.5466 0
M  V30 3000 H 276.104 -0.784841 -3.02071 0
M  V30 3001 N 276.405 1.4127 -0.698611 0
M  V30 3002 C 277.654 2.00408 -0.227949 0
M  V30 3003 C 277.967 1.55981 1.18023 0
M  V30 3004 O 279.173 2.07699 1.74852 0
M  V30 3005 C 277.629 3.58129 -0.356636 0
M  V30 3006 C 277.237 4.11536 -1.77037 0
M  V30 3007 C 278.981 4.24466 0.0540969 0
M  V30 3008 C 276.888 5.61701 -1.85055 0
M  V30 3009 H 275.818 0.749586 -0.0814657 0
M  V30 3010 H 278.469 1.61713 -0.867249 0
M  V30 3011 H 276.851 3.94442 0.350965 0
M  V30 3012 H 278.025 3.86636 -2.50698 0
M  V30 3013 H 276.34 3.57736 -2.13105 0
M  V30 3014 H 278.937 5.34698 0.0146723 0
M  V30 3015 H 279.28 4.01687 1.09332 0
M  V30 3016 H 279.813 3.93198 -0.603337 0
M  V30 3017 H 276.552 5.89312 -2.8704 0
M  V30 3018 H 276.072 5.88519 -1.15783 0
M  V30 3019 H 277.751 6.26524 -1.61484 0
M  V30 3020 N 277.883 0.443576 1.51229 0
M  V30 3021 C 278.833 -0.382787 2.24764 0
M  V30 3022 C 279.817 -0.984836 1.27239 0
M  V30 3023 O 281.009 -0.901943 1.52296 0
M  V30 3024 C 278.138 -1.47989 3.09765 0
M  V30 3025 C 277.224 -0.886931 4.14722 0
M  V30 3026 N 277.615 -0.0237103 5.05794 0
M  V30 3027 C 275.913 -1.15385 4.30816 0
M  V30 3028 C 276.614 0.309971 5.80874 0
M  V30 3029 N 275.59 -0.307989 5.42727 0
M  V30 3030 H 279.392 0.282624 2.92538 0
M  V30 3031 H 276.906 0.256027 1.60369 0
M  V30 3032 H 278.903 -2.08482 3.61027 0
M  V30 3033 H 277.563 -2.14758 2.43535 0
M  V30 3034 H 278.574 0.34318 5.16762 0
M  V30 3035 H 275.251 -1.81857 3.75812 0
M  V30 3036 H 276.641 1.01279 6.64223 0
M  V30 3037 N 279.361 -1.56624 0.175154 0
M  V30 3038 C 280.638 -1.88688 -0.515373 0
M  V30 3039 C 281.018 -1.08564 -1.81044 0
M  V30 3040 O 280.366 -0.180703 -2.27784 0
M  V30 3041 C 280.576 -3.40768 -0.753552 0
M  V30 3042 C 281.924 -4.10587 -1.08184 0
M  V30 3043 O 282.948 -3.46106 -0.841961 0
M  V30 3044 O 281.807 -5.24512 -1.53459 0
M  V30 3045 H 278.901 -0.78301 -0.26613 0
M  V30 3046 H 281.447 -1.68347 0.213877 0
M  V30 3047 H 280.219 -3.90965 0.161829 0
M  V30 3048 H 279.842 -3.66733 -1.53598 0
M  V30 3049 N 280.839 0.0985539 -1.57292 0
M  V30 3050 C 281.769 1.12064 -2.04851 0
M  V30 3051 C 282.75 1.41981 -0.936767 0
M  V30 3052 O 283.935 1.52071 -1.20781 0
M  V30 3053 C 281.065 2.44144 -2.47004 0
M  V30 3054 C 280.019 2.28643 -3.6181 0
M  V30 3055 C 279.345 3.65869 -3.89929 0
M  V30 3056 C 280.645 1.72986 -4.92822 0
M  V30 3057 H 282.339 0.724979 -2.9049 0
M  V30 3058 H 279.885 0.34729 -1.39749 0
M  V30 3059 H 281.838 3.15914 -2.78884 0
M  V30 3060 H 280.562 2.85639 -1.5836 0
M  V30 3061 H 279.221 1.59318 -3.30172 0
M  V30 3062 H 278.869 4.04885 -2.98458 0
M  V30 3063 H 278.569 3.56344 -4.67218 0
M  V30 3064 H 280.093 4.39112 -4.2428 0
M  V30 3065 H 281.507 2.34593 -5.23105 0
M  V30 3066 H 279.904 1.74229 -5.74251 0
M  V30 3067 H 280.974 0.689007 -4.7998 0
M  V30 3068 N 282.317 1.53212 0.369288 0
M  V30 3069 C 283.594 1.59815 1.12776 0
M  V30 3070 C 283.974 0.403402 2.0721 0
M  V30 3071 O 283.322 -0.606667 2.20299 0
M  V30 3072 C 283.532 2.94664 1.87013 0
M  V30 3073 C 284.88 3.49109 2.41677 0
M  V30 3074 O 285.904 2.96669 1.97144 0
M  V30 3075 O 284.763 4.40775 3.23079 0
M  V30 3076 H 281.857 0.645376 0.517125 0
M  V30 3077 H 284.403 1.65553 0.37285 0
M  V30 3078 H 283.175 3.73061 1.18071 0
M  V30 3079 H 282.798 2.92401 2.69421 0
M  V30 3080 N 283.795 -0.628877 1.44509 0
M  V30 3081 C 284.743 -1.76193 1.51852 0
M  V30 3082 C 285.737 -1.64849 0.390042 0
M  V30 3083 O 286.943 -1.709 0.565082 0
M  V30 3084 H 283.318 -0.581728 0.476547 0
M  V30 3085 H 285.289 -1.67123 2.47209 0
M  V30 3086 C 284.038 -3.14533 1.48204 0
M  V30 3087 H 283.361 -3.23911 2.34354 0
M  V30 3088 H 284.801 -3.93701 1.57402 0
M  V30 3089 C 283.26 -3.36287 0.203142 0
M  V30 3090 O 283.79 -3.9509 -0.725745 0
M  V30 3091 N 281.996 -2.90408 0.105563 0
M  V30 3092 H 281.543 -2.42739 0.862301 0
M  V30 3093 H 281.501 -3.05339 -0.749371 0
M  V30 3094 N 285.273 -1.31445 -0.869486 0
M  V30 3095 C 286.522 -1.20517 -1.61736 0
M  V30 3096 C 286.835 0.235341 -1.94179 0
M  V30 3097 O 288.041 0.466312 -2.67465 0
M  V30 3098 C 286.497 -2.10982 -2.91573 0
M  V30 3099 C 286.105 -3.60032 -2.66611 0
M  V30 3100 C 287.849 -2.08856 -3.69567 0
M  V30 3101 C 285.756 -4.42503 -3.92358 0
M  V30 3102 H 284.686 -0.447493 -0.606849 0
M  V30 3103 H 287.337 -1.56303 -0.96133 0
M  V30 3104 H 285.719 -1.68095 -3.58553 0
M  V30 3105 H 286.893 -4.11167 -2.08035 0
M  V30 3106 H 285.208 -3.64139 -2.0197 0
M  V30 3107 H 287.805 -2.67716 -4.62852 0
M  V30 3108 H 288.148 -1.07582 -4.02159 0
M  V30 3109 H 288.681 -2.49945 -3.09471 0
M  V30 3110 H 285.42 -5.44533 -3.64916 0
M  V30 3111 H 284.94 -3.96125 -4.50383 0
M  V30 3112 H 286.619 -4.54741 -4.60238 0
M  V30 3113 N 286.751 1.08385 -1.14413 0
M  V30 3114 C 287.976 1.85057 -0.936413 0
M  V30 3115 C 288.401 1.81055 0.509971 0
M  V30 3116 O 287.759 1.1958 1.36273 0
M  V30 3117 C 287.807 3.30505 -1.44217 0
M  V30 3118 O 286.911 4.07491 -0.634409 0
M  V30 3119 H 286.252 0.573425 -0.334784 0
M  V30 3120 H 288.782 1.36799 -1.52142 0
M  V30 3121 H 288.792 3.81348 -1.45043 0
M  V30 3122 H 287.467 3.32734 -2.49522 0
M  V30 3123 H 286.044 3.66368 -0.694902 0
M  V30 3124 N 288.23 0.939286 1.26551 0
M  V30 3125 C 289.477 0.585847 1.9384 0
M  V30 3126 C 289.805 -0.874784 1.73718 0
M  V30 3127 O 289.06 -1.64092 1.06642 0
M  V30 3128 C 289.359 0.872106 3.46596 0
M  V30 3129 C 289.025 2.31632 3.86856 0
M  V30 3130 C 287.687 2.71111 3.97558 0
M  V30 3131 C 290.039 3.25494 4.07066 0
M  V30 3132 C 287.367 4.03553 4.25866 0
M  V30 3133 C 289.719 4.57531 4.36862 0
M  V30 3134 C 288.383 4.96828 4.45778 0
M  V30 3135 H 287.653 0.214377 0.709312 0
M  V30 3136 H 290.3 1.18544 1.50398 0
M  V30 3137 H 288.605 0.18996 3.91339 0
M  V30 3138 H 290.302 0.577442 3.96821 0
M  V30 3139 H 286.892 2.00008 3.79071 0
M  V30 3140 H 291.076 2.9619 3.98227 0
M  V30 3141 H 286.332 4.33665 4.30981 0
M  V30 3142 H 290.506 5.30254 4.51446 0
M  V30 3143 H 288.133 5.99482 4.67468 0
M  V30 3144 N 289.708 -1.40897 0.706093 0
M  V30 3145 C 291.119 -1.84023 0.315052 0
M  V30 3146 C 291.47 -1.5906 -1.14866 0
M  V30 3147 O 290.595 -1.06651 -1.88293 0
M  V30 3148 C 291.19 -3.34055 0.565038 0
M  V30 3149 C 289.749 -3.7571 0.227806 0
M  V30 3150 C 288.896 -2.64204 0.842122 0
M  V30 3151 H 291.847 -1.303 0.905963 0
M  V30 3152 H 291.868 -3.80107 -0.172843 0
M  V30 3153 H 291.38 -3.52192 1.63042 0
M  V30 3154 H 289.481 -3.63172 -0.832895 0
M  V30 3155 H 289.594 -4.74103 0.690174 0
M  V30 3156 H 287.958 -2.53255 0.270893 0
M  V30 3157 H 288.741 -2.85155 1.91158 0
M  V30 3158 N 291.186 -0.45159 -1.50991 0
M  V30 3159 C 292.133 0.352625 -2.2809 0
M  V30 3160 C 293.103 1.0044 -1.32291 0
M  V30 3161 O 294.288 1.02058 -1.6121 0
M  V30 3162 C 291.428 1.43983 -3.13629 0
M  V30 3163 C 290.541 0.804772 -4.24438 0
M  V30 3164 C 289.676 1.86822 -4.97263 0
M  V30 3165 C 288.715 1.21236 -5.99973 0
M  V30 3166 N 287.852 2.2178 -6.66152 0
M  V30 3167 H 292.692 -0.311186 -2.96371 0
M  V30 3168 H 290.229 -0.165308 -1.46168 0
M  V30 3169 H 292.187 2.08161 -3.61559 0
M  V30 3170 H 290.817 2.07307 -2.47434 0
M  V30 3171 H 289.869 0.0509129 -3.80366 0
M  V30 3172 H 291.181 0.286076 -4.97979 0
M  V30 3173 H 290.335 2.58628 -5.48813 0
M  V30 3174 H 289.074 2.42068 -4.23385 0
M  V30 3175 H 288.079 0.479828 -5.47702 0
M  V30 3176 H 289.304 0.667051 -6.75816 0
M  V30 3177 H 287.25 2.76079 -5.95077 0
M  V30 3178 H 287.167 1.74841 -7.35504 0
M  V30 3179 H 288.435 2.93026 -7.22327 0
M  V30 3180 N 292.664 1.56529 -0.183458 0
M  V30 3181 C 293.596 2.15747 0.773697 0
M  V30 3182 C 294.609 1.1162 1.1851 0
M  V30 3183 O 295.798 1.3876 1.12285 0
M  V30 3184 C 292.898 2.6952 2.05456 0
M  V30 3185 C 292.071 3.98429 1.8048 0
M  V30 3186 C 291.13 4.37145 2.92901 0
M  V30 3187 O 290.156 5.04791 2.6301 0
M  V30 3188 N 291.358 3.99695 4.2098 0
M  V30 3189 H 294.123 2.98505 0.26736 0
M  V30 3190 H 291.684 1.619 -0.0010878 0
M  V30 3191 H 293.676 2.92412 2.79781 0
M  V30 3192 H 292.246 1.91282 2.47245 0
M  V30 3193 H 291.466 3.8379 0.899947 0
M  V30 3194 H 292.754 4.82597 1.61175 0
M  V30 3195 H 292.152 3.4526 4.48121 0
M  V30 3196 H 290.709 4.27562 4.9197 0
M  V30 3197 N 294.142 -0.090211 1.57342 0
M  V30 3198 C 295.39 -0.791241 1.85967 0
M  V30 3199 C 295.711 -1.7903 0.772859 0
M  V30 3200 O 294.981 -1.94872 -0.200398 0
M  V30 3201 H 293.561 -0.295205 0.686195 0
M  V30 3202 H 296.223 -0.0706782 1.94772 0
M  V30 3203 H 295.319 -1.31882 2.82867 0
M  V30 3204 N 295.62 -1.53406 -0.361157 0
M  V30 3205 C 296.845 -1.74024 -1.12829 0
M  V30 3206 C 297.27 -0.470069 -1.82132 0
M  V30 3207 O 296.628 0.57619 -1.719 0
M  V30 3208 C 296.676 -2.90903 -2.13091 0
M  V30 3209 O 295.78 -2.59821 -3.20261 0
M  V30 3210 H 295.121 -0.577804 -0.327168 0
M  V30 3211 H 297.651 -2.00307 -0.41693 0
M  V30 3212 H 297.661 -3.17194 -2.56616 0
M  V30 3213 H 296.336 -3.83034 -1.62042 0
M  V30 3214 H 294.913 -2.44362 -2.81677 0
M  V30 3215 O 297.137 0.507134 -1.53331 0
M  V30 3216 H 297.828 1.16207 -1.5497 0
M  V30 END ATOM
M  V30 BEGIN BOND
M  V30 END BOND
M  V30 END CTAB
M  END
$$$$
