drugbank_target|Q96RQ3 Methylcrotonoyl-CoA carboxylase subunit alpha, mitochondrial (DB00121)
 OpenBabel12092119323D

  0  0  0     0  0            999 V3000
M  V30 BEGIN CTAB
M  V30 COUNTS 11302 11409 0 0 0
M  V30 BEGIN ATOM
M  V30 1 H -0.908 1.98254 -0.117106 0
M  V30 2 N 0 1.576 0 0
M  V30 3 C 0.933 2.03868 1.02534 0
M  V30 4 C 1.911 0.928543 1.3348 0
M  V30 5 O 3.095 1.19667 1.45644 0
M  V30 6 C 0.222 2.43627 2.35294 0
M  V30 7 C -0.732 3.65373 2.2001 0
M  V30 8 S 0.101 5.13292 1.52614 0
M  V30 9 C 1.257 5.56322 2.86805 0
M  V30 10 H 1.49 2.90518 0.631377 0
M  V30 11 H -0.977 1.52953 0.210867 0
M  V30 12 H 0.981 2.67203 3.11629 0
M  V30 13 H -0.358 1.57376 2.7183 0
M  V30 14 H -1.165 3.90944 3.18086 0
M  V30 15 H -1.563 3.418 1.51819 0
M  V30 16 H 0.729 5.58782 3.83104 0
M  V30 17 H 1.672 6.56266 2.65933 0
M  V30 18 H 2.08 4.83886 2.90714 0
M  V30 19 N 1.4781 -0.272755 1.55222 0
M  V30 20 C 2.4411 -1.32041 1.87344 0
M  V30 21 C 3.4411 -1.42342 0.74803 0
M  V30 22 O 4.6311 -1.41488 1.0162 0
M  V30 23 C 1.7631 -2.70173 2.07893 0
M  V30 24 H 2.9561 -1.04789 2.80997 0
M  V30 25 H 0.5091 -0.51083 1.47717 0
M  V30 26 H 1.2441 -3.02605 1.16622 0
M  V30 27 H 1.0291 -2.64082 2.89833 0
M  V30 28 H 2.5191 -3.45869 2.34017 0
M  V30 29 N 2.9562 -1.48159 -0.537278 0
M  V30 30 C 3.9192 -1.61665 -1.62472 0
M  V30 31 C 4.9192 -0.490395 -1.5314 0
M  V30 32 O 6.1092 -0.755998 -1.5694 0
M  V30 33 C 3.2412 -1.57997 -3.02076 0
M  V30 34 H 4.4342 -2.58621 -1.51839 0
M  V30 35 H 1.9872 -1.36647 -0.758771 0
M  V30 36 H 2.7222 -0.624913 -3.18222 0
M  V30 37 H 2.5072 -2.39755 -3.10258 0
M  V30 38 H 3.9972 -1.70627 -3.81151 0
M  V30 39 N 4.4343 0.785586 -1.36625 0
M  V30 40 C 5.3973 1.87999 -1.31107 0
M  V30 41 C 6.3973 1.59316 -0.217959 0
M  V30 42 O 7.5873 1.67656 -0.472977 0
M  V30 43 C 4.7193 3.24861 -1.03334 0
M  V30 44 H 5.9123 1.94307 -2.2844 0
M  V30 45 H 3.4653 0.983813 -1.21453 0
M  V30 46 H 4.2003 3.24235 -0.0647432 0
M  V30 47 H 3.9853 3.4707 -1.82441 0
M  V30 48 H 5.4753 4.04929 -1.02088 0
M  V30 49 N 5.9124 1.20967 1.01018 0
M  V30 50 C 7.1374 1.0503 1.78839 0
M  V30 51 C 7.5624 -0.395752 1.8389 0
M  V30 52 O 6.9204 -1.28529 1.27867 0
M  V30 53 C 6.9684 1.64602 3.2084 0
M  V30 54 O 6.0724 0.887988 4.02726 0
M  V30 55 H 5.4134 0.369987 0.551367 0
M  V30 56 H 7.9434 1.60399 1.27018 0
M  V30 57 H 7.9534 1.68607 3.71532 0
M  V30 58 H 6.6284 2.69841 3.16479 0
M  V30 59 H 5.2054 0.922648 3.61305 0
M  V30 60 N 7.3905 -1.2043 1.01659 0
M  V30 61 C 8.3535 -2.21433 0.591616 0
M  V30 62 C 9.3535 -1.57203 -0.338226 0
M  V30 63 O 10.5435 -1.73737 -0.126918 0
M  V30 64 C 7.6755 -3.40628 -0.136058 0
M  V30 65 H 8.8685 -2.60545 1.48514 0
M  V30 66 H 6.4215 -1.33893 0.806379 0
M  V30 67 H 7.1565 -3.07019 -1.04449 0
M  V30 68 H 6.9415 -3.88475 0.531917 0
M  V30 69 H 8.4315 -4.15475 -0.420735 0
M  V30 70 N 8.8686 -0.792821 -1.36206 0
M  V30 71 C 10.1146 -0.36733 -1.99446 0
M  V30 72 C 10.4476 1.05917 -1.62774 0
M  V30 73 O 9.7226 1.7324 -0.88421 0
M  V30 74 C 10.0056 -0.535044 -3.56103 0
M  V30 75 C 9.8586 -2.00548 -4.02617 0
M  V30 76 C 11.1776 0.0478191 -4.40074 0
M  V30 77 H 8.2966 -0.134941 -0.724541 0
M  V30 78 H 10.9386 -0.999794 -1.61568 0
M  V30 79 H 9.0886 0.00336329 -3.885 0
M  V30 80 H 10.7606 -2.60521 -3.80692 0
M  V30 81 H 9.0036 -2.50686 -3.54032 0
M  V30 82 H 9.6746 -2.07377 -5.11565 0
M  V30 83 H 12.1506 -0.411822 -4.14057 0
M  V30 84 H 11.0266 -0.0995336 -5.4881 0
M  V30 85 H 11.2876 1.14025 -4.27142 0
M  V30 86 N 10.3467 1.47872 -0.545128 0
M  V30 87 C 11.5717 2.07391 -0.0190611 0
M  V30 88 C 11.9967 1.39688 1.25971 0
M  V30 89 O 11.3547 0.467816 1.7516 0
M  V30 90 C 11.4027 3.60188 0.172335 0
M  V30 91 O 10.5067 3.9339 1.23766 0
M  V30 92 H 9.8477 0.662411 -0.0459059 0
M  V30 93 H 12.3777 1.90066 -0.757365 0
M  V30 94 H 12.3877 4.06129 0.390305 0
M  V30 95 H 11.0627 4.08865 -0.761725 0
M  V30 96 H 9.6397 3.5921 1.00114 0
M  V30 97 N 11.8248 0.280983 1.55075 0
M  V30 98 C 13.0708 -0.33461 2.00021 0
M  V30 99 C 13.4038 -1.55063 1.16915 0
M  V30 100 O 12.6788 -1.93006 0.240646 0
M  V30 101 C 12.9618 -0.711007 3.53011 0
M  V30 102 C 12.8148 0.512766 4.46868 0
M  V30 103 C 14.1338 -1.54522 4.12081 0
M  V30 104 H 11.2528 -0.120147 0.727141 0
M  V30 105 H 13.8948 0.389097 1.85973 0
M  V30 106 H 12.0448 -1.32761 3.65112 0
M  V30 107 H 13.7168 1.15131 4.46702 0
M  V30 108 H 11.9598 1.14975 4.18286 0
M  V30 109 H 12.6308 0.205556 5.51617 0
M  V30 110 H 15.1068 -1.02442 4.03293 0
M  V30 111 H 13.9828 -1.77739 5.19327 0
M  V30 112 H 14.2438 -2.52813 3.62682 0
M  V30 113 N 13.3029 -1.57598 0.00835791 0
M  V30 114 C 14.2329 -2.1198 -0.979113 0
M  V30 115 C 15.2139 -1.03091 -1.35301 0
M  V30 116 O 16.3989 -1.30818 -1.43528 0
M  V30 117 C 13.5289 -2.62995 -2.26828 0
M  V30 118 C 12.4829 -3.76485 -2.03576 0
M  V30 119 C 11.8089 -4.13846 -3.38579 0
M  V30 120 C 13.1089 -5.0342 -1.39161 0
M  V30 121 H 14.8029 -2.94738 -0.526281 0
M  V30 122 H 12.3489 -1.41783 -0.251704 0
M  V30 123 H 14.3019 -2.99669 -2.96271 0
M  V30 124 H 13.0259 -1.7737 -2.7424 0
M  V30 125 H 11.6849 -3.40217 -1.36557 0
M  V30 126 H 11.3329 -3.25232 -3.83709 0
M  V30 127 H 11.0329 -4.90312 -3.23834 0
M  V30 128 H 12.5569 -4.53086 -4.09323 0
M  V30 129 H 13.9709 -5.37812 -1.98573 0
M  V30 130 H 12.3679 -5.84746 -1.34878 0
M  V30 131 H 13.4379 -4.83548 -0.361868 0
M  V30 132 N 14.781 0.264519 -1.55364 0
M  V30 133 C 15.711 1.33121 -1.91836 0
M  V30 134 C 16.692 1.51101 -0.781192 0
M  V30 135 O 17.877 1.64003 -1.04003 0
M  V30 136 C 15.007 2.68921 -2.19769 0
M  V30 137 C 13.961 2.65661 -3.35571 0
M  V30 138 C 13.287 4.05093 -3.49004 0
M  V30 139 C 14.587 2.24187 -4.71739 0
M  V30 140 H 16.281 1.02844 -2.81182 0
M  V30 141 H 13.827 0.493286 -1.35287 0
M  V30 142 H 15.78 3.43663 -2.43872 0
M  V30 143 H 14.504 3.00799 -1.27231 0
M  V30 144 H 13.163 1.93377 -3.1145 0
M  V30 145 H 12.811 4.34206 -2.53917 0
M  V30 146 H 12.511 4.03804 -4.26868 0
M  V30 147 H 14.035 4.81561 -3.75408 0
M  V30 148 H 15.449 2.88654 -4.9533 0
M  V30 149 H 13.846 2.34044 -5.52579 0
M  V30 150 H 14.916 1.19327 -4.69988 0
M  V30 151 N 16.2591 1.48442 0.529413 0
M  V30 152 C 17.5051 1.5672 1.28711 0
M  V30 153 C 17.8381 0.2406 1.92704 0
M  V30 154 O 17.1131 -0.753454 1.79313 0
M  V30 155 C 17.3961 2.70587 2.37603 0
M  V30 156 C 17.2491 4.12953 1.78297 0
M  V30 157 C 18.5681 2.80212 3.39366 0
M  V30 158 H 15.6871 0.570474 0.466613 0
M  V30 159 H 18.3291 1.80617 0.589706 0
M  V30 160 H 16.4791 2.50342 2.97088 0
M  V30 161 H 18.1511 4.44639 1.22858 0
M  V30 162 H 16.3941 4.19927 1.0883 0
M  V30 163 H 17.0651 4.88448 2.57144 0
M  V30 164 H 19.5411 2.98553 2.89836 0
M  V30 165 H 18.4171 3.61611 4.12951 0
M  V30 166 H 18.6781 1.88393 3.99951 0
M  V30 167 N 17.7372 -0.778329 1.37039 0
M  V30 168 C 18.7002 -1.87301 1.32102 0
M  V30 169 C 19.7002 -1.59198 0.226405 0
M  V30 170 O 20.8902 -1.67403 0.481861 0
M  V30 171 C 18.0222 -3.24309 1.05055 0
M  V30 172 H 19.2152 -1.93093 2.29467 0
M  V30 173 H 16.7682 -0.977358 1.21973 0
M  V30 174 H 17.5032 -3.24196 0.0819373 0
M  V30 175 H 17.2882 -3.46098 1.84279 0
M  V30 176 H 18.7782 -4.04382 1.04234 0
M  V30 177 N 19.2153 -1.21501 -1.00376 0
M  V30 178 C 20.1783 -0.976927 -2.07337 0
M  V30 179 C 21.1783 0.0525322 -1.60714 0
M  V30 180 O 22.3683 -0.184869 -1.73216 0
M  V30 181 C 19.5003 -0.473423 -3.37597 0
M  V30 182 H 20.6933 -1.92587 -2.29892 0
M  V30 183 H 18.2463 -1.03217 -1.17371 0
M  V30 184 H 18.9813 0.480379 -3.20722 0
M  V30 185 H 18.7663 -1.216 -3.72768 0
M  V30 186 H 20.2563 -0.32675 -4.1632 0
M  V30 187 N 20.6934 1.19889 -1.02296 0
M  V30 188 C 21.6034 2.26571 -0.608508 0
M  V30 189 C 22.6194 1.70299 0.356964 0
M  V30 190 O 23.7954 2.00235 0.216326 0
M  V30 191 C 20.8604 3.46677 0.0402814 0
M  V30 192 C 19.9214 4.18153 -0.97194 0
M  V30 193 C 19.1544 5.32525 -0.354016 0
M  V30 194 O 19.3774 5.64112 0.844604 0
M  V30 195 O 18.3114 5.92242 -1.07391 0
M  V30 196 H 22.1374 2.64251 -1.49684 0
M  V30 197 H 19.7224 1.26629 -0.792809 0
M  V30 198 H 21.6044 4.19475 0.402324 0
M  V30 199 H 20.2794 3.10858 0.902707 0
M  V30 200 H 19.1864 3.47499 -1.38546 0
M  V30 201 H 20.5194 4.57927 -1.80454 0
M  V30 202 N 22.1715 0.800033 1.35784 0
M  V30 203 C 23.5875 0.482977 1.52117 0
M  V30 204 C 23.7875 -0.996948 1.75109 0
M  V30 205 O 22.8435 -1.78216 1.78872 0
M  V30 206 C 24.1565 1.32264 2.70049 0
M  V30 207 C 25.7045 1.31742 2.83924 0
M  V30 208 C 26.1795 2.14106 4.04874 0
M  V30 209 N 27.6705 2.11607 4.12039 0
M  V30 210 C 28.4055 2.72099 5.04727 0
M  V30 211 N 27.9015 3.41492 6.02789 0
M  V30 212 N 29.6945 2.61776 4.97423 0
M  V30 213 H 21.8455 1.75856 1.19115 0
M  V30 214 H 24.1085 0.748122 0.582252 0
M  V30 215 H 23.8145 2.37261 2.59616 0
M  V30 216 H 23.6885 0.971303 3.6448 0
M  V30 217 H 26.0755 0.275333 2.93813 0
M  V30 218 H 26.1565 1.70859 1.9037 0
M  V30 219 H 25.8005 3.18351 3.95746 0
M  V30 220 H 25.7305 1.72353 4.97596 0
M  V30 221 H 28.2215 1.61112 3.41835 0
M  V30 222 H 28.5345 3.84953 6.70098 0
M  V30 223 H 26.8795 3.45596 6.02983 0
M  V30 224 H 30.0705 2.07157 4.19766 0
M  V30 225 H 30.2435 3.0921 5.69468 0
M  V30 226 N 23.6496 -1.47581 0.552962 0
M  V30 227 C 24.5976 -2.31648 -0.21023 0
M  V30 228 C 25.5916 -1.42663 -0.913432 0
M  V30 229 O 26.7976 -1.5945 -0.835201 0
M  V30 230 H 23.1726 -0.746989 -0.0866676 0
M  V30 231 H 25.1436 -2.93869 0.518051 0
M  V30 232 C 23.8926 -3.25226 -1.22976 0
M  V30 233 H 23.2156 -3.93658 -0.698077 0
M  V30 234 H 24.6556 -3.86889 -1.73473 0
M  V30 235 C 23.1146 -2.48448 -2.27542 0
M  V30 236 O 23.6446 -2.22585 -3.34393 0
M  V30 237 N 21.8506 -2.09532 -2.01357 0
M  V30 238 H 21.3976 -2.30765 -1.14478 0
M  V30 239 H 21.3556 -1.58476 -2.71538 0
M  V30 240 N 25.1277 -0.289203 -1.54924 0
M  V30 241 C 26.5437 0.0645403 -1.59469 0
M  V30 242 C 26.7437 1.53419 -1.30632 0
M  V30 243 O 25.7997 2.2852 -1.074 0
M  V30 244 C 27.1127 -0.32278 -2.98963 0
M  V30 245 C 28.6607 -0.270564 -3.11828 0
M  V30 246 C 29.1357 -0.632532 -4.53611 0
M  V30 247 N 30.6267 -0.584617 -4.59496 0
M  V30 248 C 31.3617 -0.837314 -5.67254 0
M  V30 249 N 30.8577 -1.15536 -6.83098 0
M  V30 250 N 32.6507 -0.765166 -5.56868 0
M  V30 251 H 24.8017 -1.24714 -1.71931 0
M  V30 252 H 27.0647 -0.504809 -0.802416 0
M  V30 253 H 26.7707 -1.34541 -3.24948 0
M  V30 254 H 26.6447 0.32944 -3.75759 0
M  V30 255 H 29.0317 0.742805 -2.85598 0
M  V30 256 H 29.1127 -0.957242 -2.37214 0
M  V30 257 H 28.7567 -1.64365 -4.80569 0
M  V30 258 H 28.6867 0.07609 -5.26545 0
M  V30 259 H 31.1777 -0.349248 -3.76283 0
M  V30 260 H 31.4907 -1.33447 -7.61191 0
M  V30 261 H 29.8357 -1.19328 -6.84679 0
M  V30 262 H 33.0267 -0.516432 -4.65243 0
M  V30 263 H 33.1997 -0.965477 -6.40767 0
M  V30 264 N 26.6058 1.57591 -0.0167156 0
M  V30 265 C 27.8518 1.92399 0.659861 0
M  V30 266 C 28.2068 0.892561 1.70444 0
M  V30 267 O 27.4998 -0.0930755 1.91374 0
M  V30 268 C 27.6938 3.3172 1.33029 0
M  V30 269 C 27.5228 4.48319 0.352174 0
M  V30 270 C 26.2928 5.05281 -0.0434883 0
M  V30 271 C 28.4908 5.12831 -0.388474 0
M  V30 272 N 26.4728 6.05399 -1.01807 0
M  V30 273 C 27.8438 6.07934 -1.2172 0
M  V30 274 C 29.8988 4.95858 -0.450513 0
M  V30 275 C 28.6018 6.87891 -2.10235 0
M  V30 276 C 30.6278 5.76413 -1.32295 0
M  V30 277 C 29.9898 6.71123 -2.13948 0
M  V30 278 H 26.0888 0.752106 0.21415 0
M  V30 279 H 28.6728 1.94532 -0.0809846 0
M  V30 280 H 26.8438 3.3043 2.04134 0
M  V30 281 H 28.5758 3.5391 1.9629 0
M  V30 282 H 25.3308 4.7246 0.328384 0
M  V30 283 H 25.7548 6.60145 -1.50123 0
M  V30 284 H 30.3968 4.22472 0.166512 0
M  V30 285 H 28.1148 7.60591 -2.72997 0
M  V30 286 H 31.7008 5.65317 -1.37508 0
M  V30 287 H 30.5808 7.3237 -2.80364 0
M  V30 288 N 28.0839 -0.256276 1.55502 0
M  V30 289 C 29.0339 -1.31981 1.85916 0
M  V30 290 C 30.0179 -1.43927 0.719296 0
M  V30 291 O 31.2099 -1.47326 0.981019 0
M  V30 292 C 28.3389 -2.67703 2.14918 0
M  V30 293 C 27.4249 -2.59801 3.35208 0
M  V30 294 N 27.8159 -2.21524 4.54709 0
M  V30 295 C 26.1139 -2.90832 3.38131 0
M  V30 296 C 26.8149 -2.24024 5.36832 0
M  V30 297 N 25.7909 -2.63158 4.75656 0
M  V30 298 H 29.5929 -1.01423 2.75845 0
M  V30 299 H 27.1069 -0.464911 1.55603 0
M  V30 300 H 29.1039 -3.44445 2.34869 0
M  V30 301 H 27.7639 -2.99137 1.26282 0
M  V30 302 H 28.7749 -1.93223 4.80505 0
M  V30 303 H 25.4519 -3.26867 2.59739 0
M  V30 304 H 26.8419 -1.9685 6.42417 0
M  V30 305 N 29.562 -1.4872 -0.521534 0
M  V30 306 C 30.978 -1.35028 -0.850855 0
M  V30 307 C 31.178 -0.367712 -1.98116 0
M  V30 308 O 30.234 0.208037 -2.51642 0
M  V30 309 C 31.547 -2.75263 -1.21041 0
M  V30 310 C 33.095 -2.83813 -1.31981 0
M  V30 311 C 33.57 -4.24769 -1.71276 0
M  V30 312 N 35.061 -4.27482 -1.78363 0
M  V30 313 C 35.796 -5.33494 -2.1017 0
M  V30 314 N 35.292 -6.49775 -2.40343 0
M  V30 315 N 37.085 -5.20894 -2.11248 0
M  V30 316 H 29.236 -2.11214 0.22413 0
M  V30 317 H 31.499 -0.947252 0.0376439 0
M  V30 318 H 31.205 -3.48765 -0.453415 0
M  V30 319 H 31.079 -3.09327 -2.15863 0
M  V30 320 H 33.466 -2.10561 -2.06756 0
M  V30 321 H 33.547 -2.53358 -0.352596 0
M  V30 322 H 33.191 -4.9854 -0.970588 0
M  V30 323 H 33.121 -4.52673 -2.69062 0
M  V30 324 H 35.612 -3.43611 -1.57288 0
M  V30 325 H 35.925 -7.26402 -2.63743 0
M  V30 326 H 34.27 -6.53035 -2.37844 0
M  V30 327 H 37.461 -4.29065 -1.87139 0
M  V30 328 H 37.634 -6.03612 -2.35704 0
M  V30 329 N 31.0401 0.771051 -1.3745 0
M  V30 330 C 31.9701 1.89827 -1.3597 0
M  V30 331 C 32.9511 1.68562 -0.228216 0
M  V30 332 O 34.1361 1.8941 -0.428675 0
M  V30 333 C 31.2661 3.2712 -1.16662 0
M  V30 334 C 30.2201 3.6295 -2.2683 0
M  V30 335 C 29.5461 4.98791 -1.92644 0
M  V30 336 C 30.8461 3.69627 -3.69017 0
M  V30 337 H 32.5401 1.91323 -2.30295 0
M  V30 338 H 30.0861 0.919082 -1.10855 0
M  V30 339 H 32.0391 4.05615 -1.14256 0
M  V30 340 H 30.7631 3.26059 -0.187926 0
M  V30 341 H 29.4221 2.86763 -2.28392 0
M  V30 342 H 29.0701 4.94271 -0.933021 0
M  V30 343 H 28.7701 5.23733 -2.66416 0
M  V30 344 H 30.2941 5.79685 -1.91826 0
M  V30 345 H 31.7081 4.38273 -3.69581 0
M  V30 346 H 30.1051 4.06067 -4.41848 0
M  V30 347 H 31.1751 2.70273 -4.02592 0
M  V30 348 N 32.5182 1.22032 0.997298 0
M  V30 349 C 33.9292 1.0397 1.55071 0
M  V30 350 C 34.2802 -0.398192 1.92117 0
M  V30 351 O 33.4052 -1.28254 1.74298 0
M  V30 352 C 34.0002 1.88109 2.81781 0
M  V30 353 C 32.5592 1.74357 3.33581 0
M  V30 354 C 31.7062 1.84846 2.06706 0
M  V30 355 H 34.6572 1.35941 0.818883 0
M  V30 356 H 34.6782 1.39589 3.53971 0
M  V30 357 H 34.1902 2.92754 2.54787 0
M  V30 358 H 32.2912 0.72427 3.65493 0
M  V30 359 H 32.4042 2.56772 4.04481 0
M  V30 360 H 30.7682 1.28238 2.20062 0
M  V30 361 H 31.5512 2.91014 1.82114 0
M  V30 362 N 33.9963 -1.19345 1.0293 0
M  V30 363 C 35.2213 -1.93538 0.745511 0
M  V30 364 C 35.6463 -1.75007 -0.689511 0
M  V30 365 O 35.0043 -1.05265 -1.47611 0
M  V30 366 C 35.0523 -3.43336 1.10239 0
M  V30 367 O 34.1563 -4.11806 0.221289 0
M  V30 368 H 33.4973 -0.604193 0.275404 0
M  V30 369 H 36.0273 -1.5141 1.37609 0
M  V30 370 H 36.0373 -3.94004 1.05947 0
M  V30 371 H 34.7123 -3.56146 2.14786 0
M  V30 372 H 33.2893 -3.715 0.322842 0
M  V30 373 N 35.4744 -0.807222 -1.35358 0
M  V30 374 C 36.4044 -0.232509 -2.3234 0
M  V30 375 C 37.3854 0.642386 -1.57504 0
M  V30 376 O 38.5704 0.572526 -1.85569 0
M  V30 377 C 35.7004 0.619238 -3.41735 0
M  V30 378 C 34.6544 -0.157215 -4.27711 0
M  V30 379 C 33.9804 0.816273 -5.28433 0
M  V30 380 C 35.2804 -1.35656 -5.04376 0
M  V30 381 H 36.9744 -1.04276 -2.80654 0
M  V30 382 H 34.5204 -0.50288 -1.34934 0
M  V30 383 H 36.4734 1.03137 -4.08584 0
M  V30 384 H 35.1974 1.46239 -2.92031 0
M  V30 385 H 33.8564 -0.550525 -3.62443 0
M  V30 386 H 33.5044 1.65494 -4.74996 0
M  V30 387 H 33.2044 0.301067 -5.86828 0
M  V30 388 H 34.7284 1.22659 -5.98153 0
M  V30 389 H 36.1424 -1.01927 -5.64166 0
M  V30 390 H 34.5394 -1.8063 -5.7227 0
M  V30 391 H 35.6094 -2.14288 -4.34981 0
M  V30 392 N 36.9525 1.47285 -0.560781 0
M  V30 393 C 37.8825 2.32857 0.173105 0
M  V30 394 C 38.8635 1.44009 0.905281 0
M  V30 395 O 40.0485 1.7286 0.885046 0
M  V30 396 C 37.1785 3.25861 1.20133 0
M  V30 397 C 36.1325 4.23978 0.585388 0
M  V30 398 C 35.4585 5.06332 1.7185 0
M  V30 399 C 36.7585 5.20242 -0.463178 0
M  V30 400 H 38.4525 2.94466 -0.541307 0
M  V30 401 H 35.9985 1.41601 -0.261764 0
M  V30 402 H 37.9515 3.84569 1.72293 0
M  V30 403 H 36.6755 2.62315 1.94573 0
M  V30 404 H 35.3345 3.66501 0.085054 0
M  V30 405 H 34.9825 4.39186 2.45203 0
M  V30 406 H 34.6825 5.72762 1.31213 0
M  V30 407 H 36.2065 5.67899 2.24329 0
M  V30 408 H 37.6205 5.73293 -0.027502 0
M  V30 409 H 36.0175 5.94896 -0.788627 0
M  V30 410 H 37.0875 4.65504 -1.35773 0
M  V30 411 N 38.4306 0.297415 1.54768 0
M  V30 412 C 39.3606 -0.573494 2.26348 0
M  V30 413 C 40.3416 -1.14085 1.26169 0
M  V30 414 O 41.5266 -1.17086 1.54934 0
M  V30 415 C 38.6566 -1.74716 3.00153 0
M  V30 416 C 37.6106 -1.31032 4.07449 0
M  V30 417 C 36.9366 -2.56887 4.68949 0
M  V30 418 C 38.2366 -0.444183 5.20408 0
M  V30 419 H 39.9306 0.0235131 2.99391 0
M  V30 420 H 37.4766 0.0127488 1.43994 0
M  V30 421 H 39.4296 -2.3625 3.48947 0
M  V30 422 H 38.1536 -2.37035 2.24682 0
M  V30 423 H 36.8126 -0.718066 3.59499 0
M  V30 424 H 36.4606 -3.17512 3.90122 0
M  V30 425 H 36.1606 -2.2836 5.41411 0
M  V30 426 H 37.6846 -3.19229 5.20505 0
M  V30 427 H 39.0986 -0.9651 5.65118 0
M  V30 428 H 37.4956 -0.252846 5.99567 0
M  V30 429 H 38.5656 0.531609 4.81977 0
M  V30 430 N 39.9087 -1.5758 0.0250728 0
M  V30 431 C 41.3197 -1.79476 -0.514323 0
M  V30 432 C 41.6707 -0.934956 -1.72491 0
M  V30 433 O 40.7957 -0.144245 -2.15919 0
M  V30 434 C 41.3907 -3.25503 -0.939842 0
M  V30 435 C 39.9497 -3.48408 -1.42438 0
M  V30 436 C 39.0967 -2.74583 -0.387201 0
M  V30 437 H 42.0477 -1.567 0.25113 0
M  V30 438 H 42.0687 -3.34992 -1.80445 0
M  V30 439 H 41.5807 -3.88056 -0.0585628 0
M  V30 440 H 39.6817 -2.91103 -2.32572 0
M  V30 441 H 39.7947 -4.57119 -1.43455 0
M  V30 442 H 38.1587 -2.39942 -0.854409 0
M  V30 443 H 38.9417 -3.39849 0.485543 0
M  V30 444 N 41.3868 0.248026 -1.55636 0
M  V30 445 C 42.7978 0.817177 -1.67866 0
M  V30 446 C 43.1488 1.86069 -0.622322 0
M  V30 447 O 42.2738 2.15157 0.231618 0
M  V30 448 C 42.8688 1.489 -3.04326 0
M  V30 449 C 41.4278 2.00587 -3.185 0
M  V30 450 C 40.5748 0.856573 -2.63739 0
M  V30 451 H 43.5258 0.0238579 -1.58682 0
M  V30 452 H 43.5468 2.35698 -2.98708 0
M  V30 453 H 43.0588 0.729279 -3.81186 0
M  V30 454 H 41.1598 2.79443 -2.4646 0
M  V30 455 H 41.2728 2.20402 -4.25393 0
M  V30 456 H 39.6368 1.25678 -2.21534 0
M  V30 457 H 40.4198 0.109953 -3.43124 0
M  V30 458 N 42.8649 1.48995 0.513639 0
M  V30 459 C 44.2809 1.35478 0.843682 0
M  V30 460 C 44.4809 0.378213 1.97919 0
M  V30 461 O 43.5369 -0.194689 2.51748 0
M  V30 462 C 44.8499 2.75901 1.1958 0
M  V30 463 C 46.3979 2.84509 1.30474 0
M  V30 464 C 46.8729 4.25671 1.69021 0
M  V30 465 N 48.3639 4.28422 1.76094 0
M  V30 466 C 49.0989 5.34601 2.07338 0
M  V30 467 N 48.5949 6.5104 2.36894 0
M  V30 468 N 50.3879 5.22007 2.08483 0
M  V30 469 H 42.5389 2.11092 -0.235328 0
M  V30 470 H 44.8019 0.947039 -0.0426669 0
M  V30 471 H 44.5079 3.49001 0.434913 0
M  V30 472 H 44.3819 3.10467 2.1422 0
M  V30 473 H 46.7689 2.11655 2.05637 0
M  V30 474 H 46.8499 2.53542 0.339155 0
M  V30 475 H 46.4939 4.99048 0.944135 0
M  V30 476 H 46.4239 4.54094 2.66658 0
M  V30 477 H 48.9149 3.44441 1.55464 0
M  V30 478 H 49.2279 7.2779 2.59887 0
M  V30 479 H 47.5729 6.54287 2.34378 0
M  V30 480 H 50.7639 4.30051 1.84861 0
M  V30 481 H 50.9369 6.04854 2.325 0
M  V30 482 N 44.343 -0.763751 1.37857 0
M  V30 483 C 45.571 -1.55293 1.36718 0
M  V30 484 C 45.986 -1.88745 -0.0455434 0
M  V30 485 O 45.343 -1.52039 -1.00947 0
M  V30 486 C 45.394 -2.85831 2.2132 0
M  V30 487 O 45.115 -2.5381 3.57089 0
M  V30 488 C 46.616 -3.80023 2.28249 0
M  V30 489 H 43.836 -0.480841 0.468009 0
M  V30 490 H 46.38 -0.946009 1.81303 0
M  V30 491 H 44.535 -3.42926 1.80223 0
M  V30 492 H 44.949 -3.37459 4.01524 0
M  V30 493 H 46.423 -4.68599 2.91752 0
M  V30 494 H 46.9 -4.1973 1.2932 0
M  V30 495 H 47.506 -3.28855 2.69693 0
M  V30 496 N 45.8211 -1.22559 -0.990812 0
M  V30 497 C 47.0671 -1.06303 -1.73411 0
M  V30 498 C 47.4221 0.397442 -1.8825 0
M  V30 499 O 46.7151 1.29062 -1.41611 0
M  V30 500 C 46.9091 -1.71011 -3.13831 0
M  V30 501 C 46.7381 -3.232 -3.12685 0
M  V30 502 C 45.5081 -3.92314 -3.18461 0
M  V30 503 C 47.7061 -4.20107 -2.96673 0
M  V30 504 N 45.6881 -5.31571 -3.07091 0
M  V30 505 C 47.0591 -5.46208 -2.93354 0
M  V30 506 C 49.1141 -4.10973 -2.8108 0
M  V30 507 C 47.8171 -6.64225 -2.76039 0
M  V30 508 C 49.8431 -5.28642 -2.65126 0
M  V30 509 C 49.2051 -6.53663 -2.62496 0
M  V30 510 H 45.3041 -0.443441 -0.644115 0
M  V30 511 H 47.8881 -1.55131 -1.17654 0
M  V30 512 H 46.0591 -1.2473 -3.67827 0
M  V30 513 H 47.7911 -1.47828 -3.76735 0
M  V30 514 H 44.5461 -3.43326 -3.26227 0
M  V30 515 H 44.9701 -6.0455 -3.0471 0
M  V30 516 H 49.6121 -3.15098 -2.8191 0
M  V30 517 H 47.3301 -7.60246 -2.73954 0
M  V30 518 H 50.9161 -5.23407 -2.54039 0
M  V30 519 H 49.7961 -7.43182 -2.50302 0
M  V30 520 N 47.2992 1.18797 -1.03562 0
M  V30 521 C 48.5452 1.8893 -0.737113 0
M  V30 522 C 48.8782 1.79837 0.732956 0
M  V30 523 O 48.1532 1.19525 1.5344 0
M  V30 524 C 48.4362 3.39607 -1.19745 0
M  V30 525 C 48.2892 3.57537 -2.72924 0
M  V30 526 C 49.6082 4.33069 -0.783526 0
M  V30 527 H 46.7272 0.686057 -0.269249 0
M  V30 528 H 49.3692 1.39797 -1.28673 0
M  V30 529 H 47.5192 3.81583 -0.729855 0
M  V30 530 H 49.1912 3.24688 -3.27682 0
M  V30 531 H 47.4342 3.00363 -3.12993 0
M  V30 532 H 48.1052 4.63238 -3.00191 0
M  V30 533 H 50.5812 3.98846 -1.18581 0
M  V30 534 H 49.4572 5.3707 -1.13343 0
M  V30 535 H 49.7182 4.40986 0.313681 0
M  V30 536 N 48.7773 0.814389 1.34928 0
M  V30 537 C 50.0233 0.408167 1.99263 0
M  V30 538 C 50.3783 -1.0154 1.63424 0
M  V30 539 O 49.6713 -1.69607 0.891289 0
M  V30 540 C 49.8653 0.537781 3.53331 0
M  V30 541 C 49.6943 1.9724 4.04137 0
M  V30 542 C 48.4643 2.60245 4.33129 0
M  V30 543 C 50.6623 2.93801 4.2212 0
M  V30 544 N 48.6443 3.95036 4.69914 0
M  V30 545 C 50.0153 4.1348 4.6199 0
M  V30 546 C 52.0703 2.9053 4.04348 0
M  V30 547 C 50.7733 5.3033 4.85945 0
M  V30 548 C 52.7993 4.06589 4.29464 0
M  V30 549 C 52.1613 5.25017 4.69613 0
M  V30 550 H 48.2603 0.197289 0.756704 0
M  V30 551 H 50.8443 1.05728 1.63492 0
M  V30 552 H 49.0153 -0.0813868 3.88315 0
M  V30 553 H 50.7473 0.105389 4.04563 0
M  V30 554 H 47.5023 2.11545 4.23728 0
M  V30 555 H 47.9263 4.64455 4.92555 0
M  V30 556 H 52.5683 2.00115 3.72443 0
M  V30 557 H 50.2863 6.21309 5.16721 0
M  V30 558 H 53.8723 4.05447 4.17257 0
M  V30 559 H 52.7523 6.1333 4.88667 0
M  V30 560 N 50.2554 -1.46986 0.568584 0
M  V30 561 C 51.6714 -1.57946 0.229189 0
M  V30 562 C 51.8714 -1.56567 -1.26843 0
M  V30 563 O 50.9274 -1.47511 -2.04931 0
M  V30 564 C 52.2404 -2.87963 0.865909 0
M  V30 565 C 53.7884 -3.01568 0.838188 0
M  V30 566 C 54.2634 -4.34301 1.45419 0
M  V30 567 N 55.7544 -4.40965 1.41788 0
M  V30 568 C 56.4894 -5.42256 1.86403 0
M  V30 569 N 55.9854 -6.50297 2.38926 0
M  V30 570 N 57.7784 -5.3337 1.77405 0
M  V30 571 H 49.9294 -1.46126 1.54146 0
M  V30 572 H 52.1924 -0.696156 0.643484 0
M  V30 573 H 51.8984 -2.94742 1.91886 0
M  V30 574 H 51.7724 -3.75423 0.365687 0
M  V30 575 H 54.1594 -2.94379 -0.206106 0
M  V30 576 H 54.2404 -2.1562 1.37629 0
M  V30 577 H 53.8844 -4.42247 2.49761 0
M  V30 578 H 53.8144 -5.19 0.891435 0
M  V30 579 H 56.3054 -3.63484 1.03381 0
M  V30 580 H 56.6184 -7.23777 2.70863 0
M  V30 581 H 54.9634 -6.51155 2.42944 0
M  V30 582 H 58.1544 -4.47865 1.3614 0
M  V30 583 H 58.3274 -6.12169 2.12492 0
M  V30 584 N 51.7335 -0.305618 -1.54608 0
M  V30 585 C 52.6655 0.602161 -2.21149 0
M  V30 586 C 53.6785 1.09394 -1.20569 0
M  V30 587 O 54.8675 1.0106 -1.47136 0
M  V30 588 C 51.9675 1.83692 -2.84799 0
M  V30 589 C 51.1405 1.48686 -4.11353 0
M  V30 590 C 50.1995 2.57725 -4.58764 0
M  V30 591 O 49.2255 2.22623 -5.23858 0
M  V30 592 N 50.4275 3.88346 -4.31471 0
M  V30 593 H 53.1925 0.0324966 -2.99682 0
M  V30 594 H 50.7535 -0.128021 -1.61393 0
M  V30 595 H 52.7455 2.55994 -3.13448 0
M  V30 596 H 51.3155 2.31486 -2.10078 0
M  V30 597 H 50.5355 0.596269 -3.89664 0
M  V30 598 H 51.8235 1.22842 -4.93748 0
M  V30 599 H 51.2215 4.19671 -3.79331 0
M  V30 600 H 49.7785 4.56932 -4.64818 0
M  V30 601 N 53.2116 1.57565 -0.0334293 0
M  V30 602 C 54.6276 1.56297 0.322997 0
M  V30 603 C 54.8276 1.03945 1.7262 0
M  V30 604 O 53.8836 0.688109 2.42943 0
M  V30 605 C 55.1966 3.00232 0.167664 0
M  V30 606 C 56.7446 3.12078 0.240107 0
M  V30 607 C 57.2196 4.57859 0.113513 0
M  V30 608 N 58.7106 4.62887 0.170359 0
M  V30 609 C 59.4456 5.73319 0.0962517 0
M  V30 610 N 58.9416 6.92794 -0.0291881 0
M  V30 611 N 60.7346 5.61898 0.150551 0
M  V30 612 H 52.8856 1.89923 -0.950956 0
M  V30 613 H 55.1486 0.873824 -0.367608 0
M  V30 614 H 54.8546 3.42501 -0.799102 0
M  V30 615 H 54.7286 3.654 0.936083 0
M  V30 616 H 57.1156 2.69718 1.19733 0
M  V30 617 H 57.1966 2.49623 -0.558763 0
M  V30 618 H 56.8406 5.009 -0.840314 0
M  V30 619 H 56.7706 5.18299 0.931302 0
M  V30 620 H 59.2616 3.76954 0.26728 0
M  V30 621 H 59.5746 7.7276 -0.0789252 0
M  V30 622 H 57.9196 6.94971 -0.0640299 0
M  V30 623 H 61.1106 4.67448 0.246981 0
M  V30 624 H 61.2836 6.47938 0.0893365 0
M  V30 625 N 54.6897 -0.239769 1.55765 0
M  V30 626 C 55.9177 -0.98417 1.81994 0
M  V30 627 C 56.3327 -1.7867 0.610124 0
M  V30 628 O 55.6897 -1.77571 -0.421271 0
M  V30 629 C 55.7407 -1.91635 3.06526 0
M  V30 630 O 55.4617 -1.14629 4.22838 0
M  V30 631 C 56.9627 -2.77616 3.45607 0
M  V30 632 H 54.1827 -0.28928 0.605441 0
M  V30 633 H 56.7267 -0.260499 2.02834 0
M  V30 634 H 54.8817 -2.5942 2.87715 0
M  V30 635 H 55.2957 -1.77745 4.93464 0
M  V30 636 H 56.7697 -3.38759 4.35828 0
M  V30 637 H 57.2467 -3.4909 2.6652 0
M  V30 638 H 57.8527 -2.15271 3.66795 0
M  V30 639 N 56.1678 -1.49265 -0.50573 0
M  V30 640 C 57.1008 -1.60183 -1.62532 0
M  V30 641 C 58.0788 -0.451107 -1.56217 0
M  V30 642 O 59.2628 -0.666016 -1.76342 0
M  V30 643 C 56.3898 -1.55238 -3.01029 0
M  V30 644 C 55.4358 -2.7545 -3.25621 0
M  V30 645 S 56.2688 -4.37174 -3.09256 0
M  V30 646 C 57.4248 -4.34866 -4.50158 0
M  V30 647 H 57.6578 -2.54894 -1.53025 0
M  V30 648 H 55.1908 -1.38098 -0.690535 0
M  V30 649 H 57.1488 -1.53071 -3.80893 0
M  V30 650 H 55.8098 -0.618238 -3.07956 0
M  V30 651 H 55.0028 -2.68197 -4.26716 0
M  V30 652 H 54.6048 -2.75005 -2.53472 0
M  V30 653 H 56.8968 -4.06295 -5.42154 0
M  V30 654 H 57.8398 -5.36223 -4.62462 0
M  V30 655 H 58.2478 -3.65007 -4.30616 0
M  V30 656 N 57.6459 0.756429 -1.3826 0
M  V30 657 C 58.5929 1.87011 -1.35261 0
M  V30 658 C 59.5629 1.64695 -0.215616 0
M  V30 659 O 60.7479 1.864 -0.407399 0
M  V30 660 C 57.8879 3.24275 -1.18068 0
M  V30 661 C 57.0009 3.58442 -2.41129 0
M  V30 662 C 56.1359 4.84994 -2.16689 0
M  V30 663 C 55.1749 5.11939 -3.35537 0
M  V30 664 N 54.3119 6.29685 -3.10549 0
M  V30 665 H 59.1519 1.8891 -2.30472 0
M  V30 666 H 56.6889 0.923373 -1.14509 0
M  V30 667 H 58.6469 4.03479 -1.06116 0
M  V30 668 H 57.2769 3.21711 -0.264973 0
M  V30 669 H 56.3289 2.74103 -2.63764 0
M  V30 670 H 57.6409 3.74283 -3.29717 0
M  V30 671 H 56.7949 5.72135 -2.01857 0
M  V30 672 H 55.5339 4.71286 -1.25462 0
M  V30 673 H 54.5389 4.23268 -3.50891 0
M  V30 674 H 55.7639 5.27546 -4.27635 0
M  V30 675 H 53.7099 6.17306 -2.21967 0
M  V30 676 H 53.6269 6.46014 -3.92686 0
M  V30 677 H 54.8949 7.19722 -2.99367 0
M  V30 678 N 59.124 1.23083 0.984299 0
M  V30 679 C 60.354 1.08556 1.75781 0
M  V30 680 C 60.762 -0.366171 1.85623 0
M  V30 681 O 60.105 -1.26524 1.33182 0
M  V30 682 C 60.167 1.63208 3.20318 0
M  V30 683 C 59.831 3.11922 3.33997 0
M  V30 684 C 60.828 4.09259 3.2063 0
M  V30 685 C 58.513 3.51552 3.58771 0
M  V30 686 C 60.507 5.4421 3.31835 0
M  V30 687 C 58.194 4.86649 3.69616 0
M  V30 688 C 59.192 5.82787 3.56157 0
M  V30 689 O 58.88 7.15431 3.66626 0
M  V30 690 H 58.612 0.380713 0.5586 0
M  V30 691 H 61.166 1.63321 1.2456 0
M  V30 692 H 59.396 1.0286 3.72769 0
M  V30 693 H 61.085 1.44216 3.79416 0
M  V30 694 H 61.851 3.79984 3.01392 0
M  V30 695 H 57.73 2.77239 3.6832 0
M  V30 696 H 61.274 6.1923 3.21247 0
M  V30 697 H 57.171 5.15601 3.88363 0
M  V30 698 H 57.939 7.23127 3.83445 0
M  V30 699 N 60.6021 -1.18246 1.0419 0
M  V30 700 C 61.8301 -1.92195 0.766072 0
M  V30 701 C 62.2451 -1.76247 -0.676933 0
M  V30 702 O 61.6021 -1.09293 -1.46155 0
M  V30 703 C 61.6531 -3.43568 1.12442 0
M  V30 704 O 61.3741 -3.59015 2.51078 0
M  V30 705 C 62.8751 -4.34613 0.873275 0
M  V30 706 H 60.0951 -0.610114 0.279288 0
M  V30 707 H 62.6391 -1.50007 1.38989 0
M  V30 708 H 60.7941 -3.8354 0.545542 0
M  V30 709 H 61.2081 -4.5273 2.64831 0
M  V30 710 H 62.6821 -5.39374 1.17385 0
M  V30 711 H 63.1591 -4.38781 -0.191909 0
M  V30 712 H 63.7651 -4.00341 1.43551 0
M  V30 713 N 62.0802 -0.821533 -1.34494 0
M  V30 714 C 63.3082 -0.421884 -2.02553 0
M  V30 715 C 63.7232 0.971745 -1.61872 0
M  V30 716 O 63.0802 1.62864 -0.823496 0
M  V30 717 C 63.1312 -0.51285 -3.57844 0
M  V30 718 O 62.8522 -1.85155 -3.97051 0
M  V30 719 C 64.3532 -0.107921 -4.43169 0
M  V30 720 H 61.5732 -0.169482 -0.649243 0
M  V30 721 H 64.1172 -1.1093 -1.71798 0
M  V30 722 H 62.2722 0.126474 -3.87193 0
M  V30 723 H 62.6862 -1.82482 -4.91732 0
M  V30 724 H 64.1602 -0.222657 -5.51551 0
M  V30 725 H 64.6372 0.948401 -4.28838 0
M  V30 726 H 65.2432 -0.720989 -4.19144 0
M  V30 727 N 63.5583 1.46682 -0.576371 0
M  V30 728 C 64.5213 2.28707 0.150239 0
M  V30 729 C 65.5213 1.38035 0.824794 0
M  V30 730 O 66.7113 1.60476 0.677719 0
M  V30 731 C 63.8433 3.18248 1.22192 0
M  V30 732 H 65.0363 2.94423 -0.570521 0
M  V30 733 H 62.5893 1.52688 -0.334078 0
M  V30 734 H 63.3243 2.57265 1.97447 0
M  V30 735 H 63.1093 3.85 0.742812 0
M  V30 736 H 64.5993 3.80001 1.73172 0
M  V30 737 N 65.0364 0.313813 1.54444 0
M  V30 738 C 66.2644 -0.293918 2.04802 0
M  V30 739 C 66.6794 -1.46537 1.19047 0
M  V30 740 O 66.0364 -1.81182 0.218939 0
M  V30 741 C 66.0874 -0.737806 3.53891 0
M  V30 742 O 65.8084 0.387038 4.36387 0
M  V30 743 C 67.3094 -1.40936 4.203 0
M  V30 744 H 64.5294 -0.0620057 0.668129 0
M  V30 745 H 67.0734 0.457169 1.99324 0
M  V30 746 H 65.2284 -1.43889 3.59687 0
M  V30 747 H 65.6424 0.0391274 5.24485 0
M  V30 748 H 67.1164 -1.67099 5.26101 0
M  V30 749 H 67.5934 -2.35355 3.70816 0
M  V30 750 H 68.1994 -0.751117 4.18615 0
M  V30 751 N 66.5145 -1.57545 0.0417849 0
M  V30 752 C 67.7625 -1.91937 -0.632829 0
M  V30 753 C 68.0835 -0.919978 -1.71934 0
M  V30 754 O 67.3535 0.0366064 -1.95866 0
M  V30 755 H 65.9335 -0.708493 -0.236742 0
M  V30 756 H 68.5955 -1.9468 0.0925745 0
M  V30 757 H 67.6915 -2.92912 -1.07746 0
M  V30 758 N 67.9926 0.231505 -1.5589 0
M  V30 759 C 69.4086 0.580748 -1.48659 0
M  V30 760 C 69.6086 1.87617 -0.73498 0
M  V30 761 O 68.6646 2.51046 -0.270586 0
M  V30 762 C 69.9776 0.669202 -2.93159 0
M  V30 763 C 71.5256 0.760499 -3.03621 0
M  V30 764 C 72.0006 0.880383 -4.49459 0
M  V30 765 N 73.4916 0.944861 -4.53461 0
M  V30 766 C 74.2266 1.05716 -5.63571 0
M  V30 767 N 73.7226 1.13403 -6.83456 0
M  V30 768 N 75.5156 1.09152 -5.514 0
M  V30 769 H 67.6666 -0.618695 -2.03189 0
M  V30 770 H 69.9296 -0.215728 -0.923128 0
M  V30 771 H 69.6356 -0.212904 -3.51055 0
M  V30 772 H 69.5096 1.5361 -3.44505 0
M  V30 773 H 71.8966 1.63305 -2.45796 0
M  V30 774 H 71.9776 -0.131864 -2.5546 0
M  V30 775 H 71.6216 0.0123284 -5.07899 0
M  V30 776 H 71.5516 1.78802 -4.95316 0
M  V30 777 H 74.0426 0.896176 -3.6712 0
M  V30 778 H 74.3556 1.21921 -7.63122 0
M  V30 779 H 72.7006 1.10333 -6.86186 0
M  V30 780 H 75.8916 1.02805 -4.56671 0
M  V30 781 H 76.0646 1.17558 -6.37247 0
M  V30 782 N 69.4707 1.49531 0.497807 0
M  V30 783 C 70.4187 1.66926 1.61983 0
M  V30 784 C 71.4127 0.535167 1.60724 0
M  V30 785 O 72.6187 0.714896 1.65195 0
M  V30 786 H 68.9937 0.526415 0.537021 0
M  V30 787 H 70.9647 2.61098 1.44465 0
M  V30 788 C 69.7137 1.75602 3.00099 0
M  V30 789 H 69.0367 2.62244 3.01775 0
M  V30 790 H 70.4767 1.91807 3.78135 0
M  V30 791 C 68.9357 0.501543 3.33146 0
M  V30 792 O 69.4657 -0.371342 3.9998 0
M  V30 793 N 67.6717 0.363531 2.88317 0
M  V30 794 H 67.2187 1.07485 2.34104 0
M  V30 795 H 67.1767 -0.474728 3.10795 0
M  V30 796 N 70.9488 -0.749086 1.3866 0
M  V30 797 C 72.1978 -1.50371 1.3443 0
M  V30 798 C 72.5108 -1.95503 -0.0616397 0
M  V30 799 O 73.7168 -2.70554 -0.226489 0
M  V30 800 C 72.1728 -2.71644 2.36088 0
M  V30 801 C 71.7808 -2.3352 3.82325 0
M  V30 802 C 73.5248 -3.49518 2.40909 0
M  V30 803 C 71.4318 -3.51431 4.75658 0
M  V30 804 H 70.3618 -0.564628 0.499712 0
M  V30 805 H 73.0128 -0.818449 1.64237 0
M  V30 806 H 71.3948 -3.42175 1.9933 0
M  V30 807 H 72.5688 -1.70627 4.28046 0
M  V30 808 H 70.8838 -1.6877 3.80665 0
M  V30 809 H 73.4808 -4.37197 3.07836 0
M  V30 810 H 73.8238 -3.90992 1.42937 0
M  V30 811 H 74.3568 -2.86005 2.76489 0
M  V30 812 H 71.0958 -3.15019 5.74842 0
M  V30 813 H 70.6158 -4.13352 4.34627 0
M  V30 814 H 72.2948 -4.17953 4.93887 0
M  V30 815 N 72.4269 -1.23603 -0.977757 0
M  V30 816 C 73.6549 -1.09646 -1.75458 0
M  V30 817 C 74.0699 0.351859 -1.85492 0
M  V30 818 O 73.4269 1.24327 -1.336 0
M  V30 819 C 73.4779 -1.71895 -3.18016 0
M  V30 820 O 73.1989 -3.11063 -3.08498 0
M  V30 821 C 74.6999 -1.63415 -4.12081 0
M  V30 822 H 71.9199 -0.38359 -0.550545 0
M  V30 823 H 74.4639 -1.63507 -1.22824 0
M  V30 824 H 72.6189 -1.22061 -3.67668 0
M  V30 825 H 73.0329 -3.41305 -3.9826 0
M  V30 826 H 74.5069 -2.11669 -5.09804 0
M  V30 827 H 74.9839 -0.593462 -4.35172 0
M  V30 828 H 75.5899 -2.12628 -3.68334 0
M  V30 829 N 73.905 1.17692 -1.04816 0
M  V30 830 C 74.852 2.21581 -0.645797 0
M  V30 831 C 75.822 1.62367 0.350159 0
M  V30 832 O 77.007 1.89254 0.242433 0
M  V30 833 C 74.147 3.45092 -0.0227568 0
M  V30 834 C 73.26 4.18613 -1.06709 0
M  V30 835 C 72.395 5.29602 -0.411767 0
M  V30 836 C 71.434 5.94904 -1.44067 0
M  V30 837 N 70.571 6.97414 -0.809781 0
M  V30 838 H 75.411 2.55353 -1.5362 0
M  V30 839 H 72.948 1.25438 -0.768364 0
M  V30 840 H 74.906 4.15679 0.35588 0
M  V30 841 H 73.536 3.11917 0.831122 0
M  V30 842 H 72.588 3.46779 -1.5636 0
M  V30 843 H 73.9 4.63293 -1.84827 0
M  V30 844 H 73.054 6.06696 0.0206623 0
M  V30 845 H 71.793 4.86045 0.401438 0
M  V30 846 H 70.798 5.16544 -1.88316 0
M  V30 847 H 72.023 6.40542 -2.25571 0
M  V30 848 H 69.969 6.55998 -0.0170186 0
M  V30 849 H 69.886 7.40386 -1.52856 0
M  V30 850 H 71.154 7.78463 -0.401999 0
M  V30 851 N 75.3831 0.828654 1.34056 0
M  V30 852 C 76.6291 0.42008 1.98402 0
M  V30 853 C 76.9621 -1.01564 1.65525 0
M  V30 854 O 76.2371 -1.70834 0.929831 0
M  V30 855 C 76.5201 0.62927 3.54559 0
M  V30 856 C 76.3731 2.11152 3.97159 0
M  V30 857 C 77.6921 0.0688756 4.40046 0
M  V30 858 H 74.8111 0.154104 0.720709 0
M  V30 859 H 77.4531 1.04228 1.5886 0
M  V30 860 H 75.6031 0.0996418 3.88372 0
M  V30 861 H 77.2751 2.70522 3.73651 0
M  V30 862 H 75.5181 2.59985 3.47261 0
M  V30 863 H 76.1891 2.20868 5.05887 0
M  V30 864 H 78.6651 0.521458 4.1282 0
M  V30 865 H 77.5411 0.245006 5.48353 0
M  V30 866 H 77.8021 -1.0266 4.30015 0
M  V30 867 N 76.8612 -1.46375 0.584142 0
M  V30 868 C 77.7912 -2.33103 -0.136037 0
M  V30 869 C 78.7722 -1.45431 -0.882255 0
M  V30 870 O 79.9572 -1.74246 -0.857434 0
M  V30 871 C 77.0872 -3.27731 -1.14933 0
M  V30 872 C 76.0412 -4.24855 -0.517862 0
M  V30 873 C 75.3672 -5.09001 -1.63773 0
M  V30 874 C 76.6672 -5.19439 0.545886 0
M  V30 875 H 78.3612 -2.93568 0.588086 0
M  V30 876 H 75.9072 -1.41166 0.284259 0
M  V30 877 H 77.8602 -3.87261 -1.66153 0
M  V30 878 H 76.5842 -2.65377 -1.90375 0
M  V30 879 H 75.2432 -3.6659 -0.0267361 0
M  V30 880 H 74.8912 -4.43031 -2.38185 0
M  V30 881 H 74.5912 -5.74777 -1.22085 0
M  V30 882 H 76.1152 -5.71396 -2.15266 0
M  V30 883 H 77.5292 -5.73177 0.118704 0
M  V30 884 H 75.9262 -5.93566 0.88317 0
M  V30 885 H 76.9962 -4.63285 1.43162 0
M  V30 886 N 78.3393 -0.321999 -1.54275 0
M  V30 887 C 79.5883 0.281931 -1.9972 0
M  V30 888 C 79.9013 1.53369 -1.21397 0
M  V30 889 O 81.1073 2.21352 -1.57211 0
M  V30 890 C 79.5633 0.5529 -3.55628 0
M  V30 891 C 79.1713 -0.681721 -4.42783 0
M  V30 892 C 80.9153 1.11687 -4.09544 0
M  V30 893 C 78.8223 -0.382742 -5.9016 0
M  V30 894 H 77.7523 0.109124 -0.746062 0
M  V30 895 H 80.4033 -0.43398 -1.78294 0
M  V30 896 H 78.7853 1.32896 -3.73035 0
M  V30 897 H 79.9593 -1.45723 -4.37151 0
M  V30 898 H 78.2743 -1.1658 -3.99748 0
M  V30 899 H 80.8713 1.35515 -5.17242 0
M  V30 900 H 81.2143 2.06575 -3.61431 0
M  V30 901 H 81.7473 0.402032 -3.95763 0
M  V30 902 H 78.4863 -1.30076 -6.42464 0
M  V30 903 H 78.0063 0.355094 -5.98748 0
M  V30 904 H 79.6853 0.00800157 -6.47 0
M  V30 905 N 79.8174 1.5752 -0.0501392 0
M  V30 906 C 80.7804 2.1037 0.909786 0
M  V30 907 C 81.7804 1.02308 1.24056 0
M  V30 908 O 82.9704 1.28385 1.17741 0
M  V30 909 C 80.1024 2.58708 2.21998 0
M  V30 910 H 81.2954 2.96479 0.451665 0
M  V30 911 H 78.8484 1.55038 0.198248 0
M  V30 912 H 79.5834 1.75989 2.72394 0
M  V30 913 H 79.3684 3.37675 1.99295 0
M  V30 914 H 80.8584 2.99747 2.9076 0
M  V30 915 N 81.2955 -0.223234 1.56011 0
M  V30 916 C 82.2435 -1.29627 1.93131 0
M  V30 917 C 83.2375 -1.48608 0.813146 0
M  V30 918 O 84.4435 -1.49802 0.997966 0
M  V30 919 H 80.8185 -0.434563 0.613726 0
M  V30 920 H 82.7895 -0.955995 2.82672 0
M  V30 921 C 81.5385 -2.63983 2.26292 0
M  V30 922 H 80.8615 -2.50185 3.11846 0
M  V30 923 H 82.3015 -3.3788 2.56151 0
M  V30 924 C 80.7605 -3.18866 1.08747 0
M  V30 925 O 81.2905 -4.00192 0.347727 0
M  V30 926 N 79.4965 -2.77217 0.871743 0
M  V30 927 H 79.0435 -2.1119 1.47501 0
M  V30 928 H 79.0015 -3.1428 0.0869905 0
M  V30 929 N 82.7736 -1.49793 -0.48987 0
M  V30 930 C 84.1896 -1.36803 -0.822022 0
M  V30 931 C 84.3896 -0.409652 -1.97292 0
M  V30 932 O 83.4456 0.154614 -2.52026 0
M  V30 933 C 84.7586 -2.77768 -1.15175 0
M  V30 934 C 86.3066 -2.86549 -1.25931 0
M  V30 935 C 86.7816 -4.28306 -1.62228 0
M  V30 936 N 88.2726 -4.31169 -1.69256 0
M  V30 937 C 89.0076 -5.37832 -1.98807 0
M  V30 938 N 88.5036 -6.54726 -2.26507 0
M  V30 939 N 90.2966 -5.25258 -2.00152 0
M  V30 940 H 82.4476 -2.10691 0.268881 0
M  V30 941 H 84.7106 -0.946241 0.057728 0
M  V30 942 H 84.4166 -3.49648 -0.379335 0
M  V30 943 H 84.2906 -3.13836 -2.09253 0
M  V30 944 H 86.6776 -2.14899 -2.02243 0
M  V30 945 H 86.7586 -2.54049 -0.298776 0
M  V30 946 H 86.4026 -5.00486 -0.864622 0
M  V30 947 H 86.3326 -4.58279 -2.594 0
M  V30 948 H 88.8236 -3.4687 -1.49965 0
M  V30 949 H 89.1366 -7.31833 -2.48276 0
M  V30 950 H 87.4816 -6.57933 -2.23939 0
M  V30 951 H 90.6726 -4.32938 -1.77996 0
M  V30 952 H 90.8456 -6.08476 -2.22848 0
M  V30 953 N 84.2517 0.741722 -1.39055 0
M  V30 954 C 85.4997 1.49818 -1.35643 0
M  V30 955 C 85.8207 1.94938 0.0491642 0
M  V30 956 O 85.0907 1.68505 0.999141 0
M  V30 957 H 83.6707 0.555755 -0.499144 0
M  V30 958 H 86.3327 0.880957 -1.73854 0
M  V30 959 H 85.4287 2.38348 -2.01486 0
M  V30 960 N 85.7298 1.2412 0.971189 0
M  V30 961 C 86.6398 1.04747 2.09917 0
M  V30 962 C 87.6558 -0.0107162 1.73997 0
M  V30 963 O 88.8318 0.186714 2.00533 0
M  V30 964 C 85.8968 0.650828 3.40537 0
M  V30 965 C 84.9578 1.7851 3.90426 0
M  V30 966 C 84.1908 1.40729 5.14812 0
M  V30 967 O 84.4138 0.29557 5.69634 0
M  V30 968 O 83.3478 2.23168 5.58999 0
M  V30 969 H 87.1738 1.99304 2.29154 0
M  V30 970 H 84.7588 1.02908 1.08307 0
M  V30 971 H 86.6408 0.440992 4.19086 0
M  V30 972 H 85.3158 -0.265649 3.22608 0
M  V30 973 H 84.2228 2.04966 3.12953 0
M  V30 974 H 85.5558 2.68023 4.12825 0
M  V30 975 N 87.2079 -1.17134 1.05439 0
M  V30 976 C 88.4569 -1.86791 0.761049 0
M  V30 977 C 88.7699 -1.82072 -0.714795 0
M  V30 978 O 89.9759 -2.47223 -1.12218 0
M  V30 979 C 88.4319 -3.35166 1.31117 0
M  V30 980 C 88.0399 -3.48381 2.81664 0
M  V30 981 C 89.7839 -4.10134 1.09499 0
M  V30 982 C 87.6909 -4.90793 3.29964 0
M  V30 983 H 86.6209 -0.699681 0.281002 0
M  V30 984 H 89.2719 -1.3226 1.27199 0
M  V30 985 H 87.6539 -3.8925 0.72803 0
M  V30 986 H 88.8279 -3.04502 3.45855 0
M  V30 987 H 87.1429 -2.86836 3.01851 0
M  V30 988 H 89.7399 -5.152 1.43084 0
M  V30 989 H 90.0829 -4.16287 0.0328772 0
M  V30 990 H 90.6159 -3.62264 1.64346 0
M  V30 991 H 87.3549 -4.89816 4.35616 0
M  V30 992 H 86.8749 -5.35333 2.70516 0
M  V30 993 H 88.5539 -5.59573 3.24787 0
M  V30 994 N 88.686 -0.835752 -1.33615 0
M  V30 995 C 89.649 -0.272 -2.2758 0
M  V30 996 C 90.649 0.557487 -1.50827 0
M  V30 997 O 91.839 0.37173 -1.70188 0
M  V30 998 C 88.971 0.617173 -3.35267 0
M  V30 999 H 90.164 -1.10111 -2.78954 0
M  V30 1000 H 87.717 -0.608594 -1.43965 0
M  V30 1001 H 88.452 1.46884 -2.89129 0
M  V30 1002 H 88.237 0.0237066 -3.92093 0
M  V30 1003 H 89.727 1.005 -4.05326 0
M  V30 1004 N 90.1641 1.46063 -0.591896 0
M  V30 1005 C 91.4041 2.04228 -0.0838014 0
M  V30 1006 C 91.7681 1.45231 1.25587 0
M  V30 1007 O 92.9691 1.94653 1.85375 0
M  V30 1008 C 91.2401 3.57389 -0.0286282 0
M  V30 1009 S 92.7991 4.3678 0.420557 0
M  V30 1010 H 89.6171 0.709762 -0.0419319 0
M  V30 1011 H 92.2191 1.78983 -0.786465 0
M  V30 1012 H 90.9231 3.97843 -1.00743 0
M  V30 1013 H 90.4541 3.87185 0.69652 0
M  V30 1014 H 92.4691 4.67131 1.67341 0
M  V30 1015 N 91.6422 0.330177 1.54103 0
M  V30 1016 C 93.0582 -0.0222371 1.59585 0
M  V30 1017 C 93.2582 -1.49902 1.34654 0
M  V30 1018 O 92.3142 -2.25592 1.13421 0
M  V30 1019 C 93.6272 0.401932 2.98002 0
M  V30 1020 C 95.1752 0.353145 3.11001 0
M  V30 1021 C 95.6502 0.752576 4.51775 0
M  V30 1022 N 97.1412 0.706239 4.57784 0
M  V30 1023 C 97.8762 0.987417 5.64834 0
M  V30 1024 N 97.3722 1.33607 6.79795 0
M  V30 1025 N 99.1652 0.91254 5.54643 0
M  V30 1026 H 91.3162 1.29228 1.68564 0
M  V30 1027 H 93.5792 0.525906 0.78875 0
M  V30 1028 H 93.2852 1.4311 3.21267 0
M  V30 1029 H 93.1592 -0.229699 3.765 0
M  V30 1030 H 95.5462 -0.666822 2.87467 0
M  V30 1031 H 95.6272 1.0198 2.34593 0
M  V30 1032 H 95.2712 1.77049 4.76042 0
M  V30 1033 H 95.2012 0.0635409 5.26562 0
M  V30 1034 H 97.6922 0.44889 3.75224 0
M  V30 1035 H 98.0052 1.53582 7.57385 0
M  V30 1036 H 96.3502 1.37439 6.81275 0
M  V30 1037 H 99.5412 0.639601 4.6371 0
M  V30 1038 H 99.7142 1.13503 6.37982 0
M  V30 1039 N 93.1203 -1.57491 0.0584922 0
M  V30 1040 C 94.3663 -1.93264 -0.614558 0
M  V30 1041 C 94.6993 -0.937717 -1.7006 0
M  V30 1042 O 93.9743 0.0351652 -1.94468 0
M  V30 1043 C 94.2573 -3.3938 -1.20386 0
M  V30 1044 C 94.1103 -4.49625 -0.125375 0
M  V30 1045 C 95.4293 -3.86039 -2.11334 0
M  V30 1046 H 92.5483 -0.702791 -0.221933 0
M  V30 1047 H 95.1903 -1.8961 0.12175 0
M  V30 1048 H 93.3403 -3.42626 -1.83139 0
M  V30 1049 H 95.0123 -4.58506 0.506971 0
M  V30 1050 H 93.2553 -4.30354 0.545672 0
M  V30 1051 H 93.9263 -5.48967 -0.577861 0
M  V30 1052 H 96.4023 -3.84716 -1.58534 0
M  V30 1053 H 95.2783 -4.88914 -2.49507 0
M  V30 1054 H 95.5393 -3.23215 -3.01636 0
M  V30 1055 N 94.5984 0.214957 -1.56127 0
M  V30 1056 C 95.5314 1.29382 -1.87977 0
M  V30 1057 C 96.5094 1.44897 -0.737807 0
M  V30 1058 O 97.6934 1.60605 -0.986833 0
M  V30 1059 C 94.8204 2.66325 -2.09258 0
M  V30 1060 C 93.8664 2.67789 -3.31951 0
M  V30 1061 S 94.6994 2.21198 -4.8768 0
M  V30 1062 C 95.8554 3.60003 -5.12004 0
M  V30 1063 H 96.0884 1.02173 -2.79192 0
M  V30 1064 H 93.6214 0.417516 -1.48648 0
M  V30 1065 H 95.5794 3.45162 -2.22201 0
M  V30 1066 H 94.2404 2.90755 -1.18829 0
M  V30 1067 H 93.4334 3.68436 -3.43906 0
M  V30 1068 H 93.0354 1.9702 -3.17898 0
M  V30 1069 H 95.3274 4.55739 -5.01307 0
M  V30 1070 H 96.2704 3.52959 -6.13861 0
M  V30 1071 H 96.6784 3.53996 -4.39712 0
M  V30 1072 N 96.0765 1.50051 0.48192 0
M  V30 1073 C 97.4925 1.37237 0.814756 0
M  V30 1074 C 97.6925 0.420109 1.97072 0
M  V30 1075 O 96.7485 -0.141246 2.52105 0
M  V30 1076 C 98.0615 2.78375 1.13701 0
M  V30 1077 C 99.6095 2.87213 1.2441 0
M  V30 1078 C 100.084 4.29161 1.59954 0
M  V30 1079 N 101.575 4.32061 1.66967 0
M  V30 1080 C 102.31 5.38879 1.95952 0
M  V30 1081 N 101.806 6.55918 2.23031 0
M  V30 1082 N 103.599 5.26312 1.97363 0
M  V30 1083 H 95.7505 2.10546 -0.28005 0
M  V30 1084 H 98.0135 0.945921 -0.0627454 0
M  V30 1085 H 97.7195 3.49845 0.360787 0
M  V30 1086 H 97.5935 3.14941 2.07586 0
M  V30 1087 H 99.9805 2.15969 2.01101 0
M  V30 1088 H 100.061 2.54204 0.285299 0
M  V30 1089 H 99.7055 5.00938 0.838067 0
M  V30 1090 H 99.6355 4.59648 2.56966 0
M  V30 1091 H 102.126 3.47661 1.48123 0
M  V30 1092 H 102.439 7.33139 2.44391 0
M  V30 1093 H 100.784 6.59112 2.20447 0
M  V30 1094 H 103.975 4.33876 1.75697 0
M  V30 1095 H 104.148 6.09649 2.19618 0
M  V30 1096 N 97.5546 -0.734337 1.39446 0
M  V30 1097 C 98.7826 -1.52358 1.39981 0
M  V30 1098 C 99.1976 -1.88799 -0.0054975 0
M  V30 1099 O 98.5546 -1.54146 -0.976998 0
M  V30 1100 C 98.6056 -2.81072 2.27333 0
M  V30 1101 O 98.3266 -2.46178 3.62392 0
M  V30 1102 C 99.8276 -3.75096 2.36259 0
M  V30 1103 H 97.0476 -0.470806 0.478103 0
M  V30 1104 H 99.5916 -0.907339 1.83269 0
M  V30 1105 H 97.7466 -3.39026 1.87457 0
M  V30 1106 H 98.1606 -3.28866 4.08592 0
M  V30 1107 H 99.6346 -4.62305 3.01626 0
M  V30 1108 H 100.112 -4.16892 1.38194 0
M  V30 1109 H 100.718 -3.23061 2.76608 0
M  V30 1110 N 99.0327 -1.24633 -0.964593 0
M  V30 1111 C 99.9957 -1.0424 -2.04124 0
M  V30 1112 C 100.996 0.00137563 -1.608 0
M  V30 1113 O 102.186 -0.239883 -1.7254 0
M  V30 1114 C 99.3177 -0.580588 -3.3592 0
M  V30 1115 H 100.511 -1.99803 -2.23649 0
M  V30 1116 H 98.0637 -1.06899 -1.14027 0
M  V30 1117 H 98.7987 0.3781 -3.22088 0
M  V30 1118 H 98.5837 -1.33398 -3.6871 0
M  V30 1119 H 100.074 -0.459034 -4.15069 0
M  V30 1120 N 100.511 1.16574 -1.06058 0
M  V30 1121 C 101.458 2.20883 -0.669263 0
M  V30 1122 C 102.428 1.62729 0.332918 0
M  V30 1123 O 103.613 1.895 0.222346 0
M  V30 1124 C 100.753 3.45049 -0.0593572 0
M  V30 1125 C 99.8658 4.17458 -1.11143 0
M  V30 1126 C 99.0008 5.29135 -0.467916 0
M  V30 1127 C 98.0398 5.93343 -1.50369 0
M  V30 1128 N 97.1768 6.96516 -0.883706 0
M  V30 1129 H 102.017 2.53709 -1.5632 0
M  V30 1130 H 99.5538 1.24616 -0.781625 0
M  V30 1131 H 101.512 4.16033 0.311771 0
M  V30 1132 H 100.142 3.12781 0.797992 0
M  V30 1133 H 99.1938 3.45101 -1.60029 0
M  V30 1134 H 100.506 4.61307 -1.89731 0
M  V30 1135 H 99.6598 6.06684 -0.0436871 0
M  V30 1136 H 98.3988 4.86443 0.349864 0
M  V30 1137 H 97.4038 5.14517 -1.93784 0
M  V30 1138 H 98.6288 6.38114 -2.32352 0
M  V30 1139 H 96.5748 6.55943 -0.086595 0
M  V30 1140 H 96.4918 7.38723 -1.607 0
M  V30 1141 H 97.7598 7.77993 -0.484543 0
M  V30 1142 N 101.989 0.842826 1.3317 0
M  V30 1143 C 102.936 0.276885 2.29133 0
M  V30 1144 C 103.906 -0.609527 1.54512 0
M  V30 1145 O 105.091 -0.546955 1.82792 0
M  V30 1146 C 102.231 -0.538707 3.40869 0
M  V30 1147 C 101.344 0.372169 4.30394 0
M  V30 1148 C 100.479 -0.454908 5.29249 0
M  V30 1149 C 99.5179 0.45411 6.10413 0
M  V30 1150 N 98.6549 -0.335075 7.013 0
M  V30 1151 H 103.495 1.10052 2.76934 0
M  V30 1152 H 101.032 0.554161 1.36262 0
M  V30 1153 H 102.99 -1.02709 4.0436 0
M  V30 1154 H 101.62 -1.32727 2.9425 0
M  V30 1155 H 100.672 0.97888 3.6759 0
M  V30 1156 H 101.984 1.0703 4.87182 0
M  V30 1157 H 101.138 -1.00695 5.98285 0
M  V30 1158 H 99.8769 -1.18646 4.73048 0
M  V30 1159 H 98.8819 1.01813 5.40291 0
M  V30 1160 H 100.107 1.18409 6.68697 0
M  V30 1161 H 98.0529 -1.04994 6.47543 0
M  V30 1162 H 97.9699 0.304262 7.55387 0
M  V30 1163 H 99.2379 -0.869224 7.74638 0
M  V30 1164 N 103.467 -1.45747 0.599634 0
M  V30 1165 C 104.397 -2.33235 -0.111306 0
M  V30 1166 C 105.378 -1.46359 -0.866781 0
M  V30 1167 O 106.563 -1.75146 -0.838904 0
M  V30 1168 C 103.693 -3.28932 -1.11451 0
M  V30 1169 C 102.647 -4.25381 -0.472772 0
M  V30 1170 C 101.973 -5.1071 -1.58365 0
M  V30 1171 C 103.273 -5.18831 0.600948 0
M  V30 1172 H 104.967 -2.92927 0.61919 0
M  V30 1173 H 102.513 -1.40857 0.299215 0
M  V30 1174 H 104.466 -3.89002 -1.62036 0
M  V30 1175 H 103.19 -2.67381 -1.8755 0
M  V30 1176 H 101.849 -3.66598 0.0121472 0
M  V30 1177 H 101.497 -4.45533 -2.33473 0
M  V30 1178 H 101.197 -5.7604 -1.15982 0
M  V30 1179 H 102.721 -5.73647 -2.09194 0
M  V30 1180 H 104.135 -5.73019 0.179491 0
M  V30 1181 H 102.532 -5.92595 0.946076 0
M  V30 1182 H 103.602 -4.6174 1.48068 0
M  V30 1183 N 104.945 -0.338344 -1.53925 0
M  V30 1184 C 106.193 0.259245 -2.0043 0
M  V30 1185 C 106.514 1.51484 -1.22791 0
M  V30 1186 O 105.784 1.93037 -0.33368 0
M  V30 1187 H 104.364 0.0987845 -0.740439 0
M  V30 1188 H 107.026 -0.458302 -1.89435 0
M  V30 1189 H 106.122 0.505334 -3.07982 0
M  V30 1190 N 106.423 1.57458 -0.0668435 0
M  V30 1191 C 107.669 1.93587 0.6043 0
M  V30 1192 C 108.002 0.946722 1.69561 0
M  V30 1193 O 107.277 -0.0248516 1.94484 0
M  V30 1194 C 107.56 3.40014 1.18585 0
M  V30 1195 C 107.413 4.49685 0.101529 0
M  V30 1196 C 108.732 3.87154 2.09284 0
M  V30 1197 H 105.851 0.703958 0.218202 0
M  V30 1198 H 108.493 1.89542 -0.131804 0
M  V30 1199 H 106.643 3.43592 1.81319 0
M  V30 1200 H 108.315 4.5823 -0.531279 0
M  V30 1201 H 106.558 4.30059 -0.568487 0
M  V30 1202 H 107.229 5.49266 0.54874 0
M  V30 1203 H 109.705 3.85551 1.56491 0
M  V30 1204 H 108.581 4.90231 2.46911 0
M  V30 1205 H 108.842 3.2481 2.99918 0
M  V30 1206 N 107.901 -0.206675 1.56239 0
M  V30 1207 C 108.833 -1.27997 1.9013 0
M  V30 1208 C 109.846 -1.42299 0.790883 0
M  V30 1209 O 111.035 -1.42931 1.06925 0
M  V30 1210 C 108.135 -2.65368 2.10792 0
M  V30 1211 C 107.308 -2.72824 3.41886 0
M  V30 1212 C 106.367 -3.9131 3.51799 0
M  V30 1213 O 105.393 -3.78953 4.24716 0
M  V30 1214 N 106.595 -5.06265 2.84035 0
M  V30 1215 H 109.36 -0.992444 2.82791 0
M  V30 1216 H 106.921 -0.396652 1.56966 0
M  V30 1217 H 108.913 -3.43039 2.14724 0
M  V30 1218 H 107.483 -2.86657 1.24685 0
M  V30 1219 H 106.703 -1.81515 3.49923 0
M  V30 1220 H 107.991 -2.74786 4.28217 0
M  V30 1221 H 107.389 -5.19203 2.246 0
M  V30 1222 H 105.946 -5.81925 2.93609 0
M  V30 1223 N 109.379 -1.50304 -0.473955 0
M  V30 1224 C 110.607 -1.64902 -1.24959 0
M  V30 1225 C 111.022 -0.331198 -1.85872 0
M  V30 1226 O 110.379 0.68652 -1.69095 0
M  V30 1227 C 110.43 -2.73803 -2.36038 0
M  V30 1228 O 110.151 -4.00477 -1.77624 0
M  V30 1229 C 111.652 -2.99349 -3.26964 0
M  V30 1230 H 108.872 -0.554383 -0.378022 0
M  V30 1231 H 111.416 -1.9651 -0.566054 0
M  V30 1232 H 109.571 -2.44898 -3.00173 0
M  V30 1233 H 109.985 -4.60678 -2.5075 0
M  V30 1234 H 111.459 -3.79217 -4.01121 0
M  V30 1235 H 111.936 -2.10307 -3.85574 0
M  V30 1236 H 112.542 -3.29774 -2.68569 0
M  V30 1237 N 110.857 0.726932 -1.39834 0
M  V30 1238 C 112.103 1.48884 -1.377 0
M  V30 1239 C 112.436 1.94185 0.0244852 0
M  V30 1240 O 111.711 1.67361 0.990986 0
M  V30 1241 C 111.994 2.72288 -2.3565 0
M  V30 1242 C 111.847 2.32956 -3.84775 0
M  V30 1243 C 113.166 3.74414 -2.31306 0
M  V30 1244 H 110.285 0.540062 -0.5015 0
M  V30 1245 H 112.927 0.830547 -1.70886 0
M  V30 1246 H 111.077 3.28457 -2.07481 0
M  V30 1247 H 112.749 1.82356 -4.23726 0
M  V30 1248 H 110.992 1.65088 -4.01159 0
M  V30 1249 H 111.663 3.21362 -4.4881 0
M  V30 1250 H 114.139 3.27849 -2.56231 0
M  V30 1251 H 113.015 4.58414 -3.01907 0
M  V30 1252 H 113.276 4.21909 -1.32081 0
M  V30 1253 N 112.336 1.25143 0.95797 0
M  V30 1254 C 113.299 1.05321 2.03569 0
M  V30 1255 C 114.299 0.007152 1.60798 0
M  V30 1256 O 115.489 0.24903 1.72411 0
M  V30 1257 C 112.621 0.598394 3.35607 0
M  V30 1258 H 113.814 2.00986 2.22586 0
M  V30 1259 H 111.367 1.07502 1.13459 0
M  V30 1260 H 112.102 -0.361014 3.22284 0
M  V30 1261 H 111.887 1.35351 3.67998 0
M  V30 1262 H 113.377 0.48104 4.1482 0
M  V30 1263 N 113.814 -1.1601 1.06675 0
M  V30 1264 C 115.06 -1.86909 0.786945 0
M  V30 1265 C 115.393 -1.81717 -0.685018 0
M  V30 1266 O 114.668 -1.23551 -1.50218 0
M  V30 1267 C 114.951 -3.36313 1.28707 0
M  V30 1268 C 114.804 -3.50175 2.82308 0
M  V30 1269 C 116.123 -4.3084 0.898071 0
M  V30 1270 H 113.242 -0.678677 0.287343 0
M  V30 1271 H 115.884 -1.36336 1.32334 0
M  V30 1272 H 114.034 -3.79513 0.830768 0
M  V30 1273 H 115.706 -3.15886 3.36175 0
M  V30 1274 H 113.949 -2.91959 3.20847 0
M  V30 1275 H 114.62 -4.55116 3.12368 0
M  V30 1276 H 117.096 -3.95561 1.29114 0
M  V30 1277 H 115.972 -5.33876 1.27543 0
M  V30 1278 H 116.233 -4.41662 -0.196651 0
M  V30 1279 N 115.292 -0.849877 -1.32721 0
M  V30 1280 C 116.522 -0.46408 -2.0132 0
M  V30 1281 C 116.93 0.94246 -1.64056 0
M  V30 1282 O 116.273 1.6257 -0.855379 0
M  V30 1283 C 116.335 -0.517887 -3.5575 0
M  V30 1284 C 115.999 -1.88248 -4.16427 0
M  V30 1285 C 116.996 -2.84726 -4.35002 0
M  V30 1286 C 114.681 -2.17832 -4.52609 0
M  V30 1287 C 116.675 -4.08945 -4.8892 0
M  V30 1288 C 114.362 -3.42304 -5.06232 0
M  V30 1289 C 115.36 -4.37677 -5.24335 0
M  V30 1290 O 115.048 -5.59946 -5.76815 0
M  V30 1291 H 114.78 -0.181327 -0.651227 0
M  V30 1292 H 117.334 -1.14713 -1.70382 0
M  V30 1293 H 115.564 0.221997 -3.86062 0
M  V30 1294 H 117.253 -0.148366 -4.05629 0
M  V30 1295 H 118.019 -2.63174 -4.07388 0
M  V30 1296 H 113.898 -1.44385 -4.37806 0
M  V30 1297 H 117.442 -4.83396 -5.02966 0
M  V30 1298 H 113.339 -3.63709 -5.33278 0
M  V30 1299 H 114.107 -5.61838 -5.95214 0
M  V30 1300 N 116.77 1.45427 -0.607355 0
M  V30 1301 C 117.995 2.07124 -0.107006 0
M  V30 1302 C 118.42 1.44906 1.19933 0
M  V30 1303 O 117.778 0.541687 1.73019 0
M  V30 1304 C 117.826 3.60595 0.0194119 0
M  V30 1305 O 116.93 3.98285 1.0697 0
M  V30 1306 H 116.271 0.659868 -0.0739597 0
M  V30 1307 H 118.801 1.86683 -0.837297 0
M  V30 1308 H 118.811 4.07419 0.2177 0
M  V30 1309 H 117.486 4.05266 -0.934453 0
M  V30 1310 H 116.063 3.63133 0.847889 0
M  V30 1311 N 118.248 0.346503 1.53744 0
M  V30 1312 C 119.158 -0.517293 2.28826 0
M  V30 1313 C 120.174 -1.10935 1.3405 0
M  V30 1314 O 121.35 -1.1244 1.6709 0
M  V30 1315 C 118.415 -1.65098 3.04866 0
M  V30 1316 C 117.476 -1.0884 4.15274 0
M  V30 1317 C 116.709 -2.16806 4.87679 0
M  V30 1318 O 116.932 -3.3758 4.59778 0
M  V30 1319 O 115.866 -1.80934 5.74061 0
M  V30 1320 H 119.692 0.0931396 3.03557 0
M  V30 1321 H 117.277 0.111458 1.48984 0
M  V30 1322 H 119.159 -2.31053 3.5241 0
M  V30 1323 H 117.834 -2.24717 2.32989 0
M  V30 1324 H 116.741 -0.3933 3.72027 0
M  V30 1325 H 118.074 -0.537036 4.89261 0
M  V30 1326 N 119.726 -1.57421 0.075193 0
M  V30 1327 C 120.689 -2.11791 -0.876203 0
M  V30 1328 C 121.689 -1.04268 -1.22412 0
M  V30 1329 O 122.879 -1.30242 -1.15684 0
M  V30 1330 C 120.011 -2.62207 -2.17854 0
M  V30 1331 H 121.204 -2.9716 -0.40444 0
M  V30 1332 H 118.757 -1.55333 -0.173557 0
M  V30 1333 H 119.492 -1.803 -2.6956 0
M  V30 1334 H 119.277 -3.40802 -1.93897 0
M  V30 1335 H 120.767 -3.04335 -2.85955 0
M  V30 1336 N 121.204 0.198386 -1.56346 0
M  V30 1337 C 122.481 0.944982 -1.71258 0
M  V30 1338 C 122.861 2.0151 -0.629048 0
M  V30 1339 O 122.209 2.25639 0.360473 0
M  V30 1340 C 122.419 1.5344 -3.1346 0
M  V30 1341 C 123.767 2.01778 -3.73591 0
M  V30 1342 O 124.791 1.63288 -3.16568 0
M  V30 1343 O 123.65 2.72594 -4.73661 0
M  V30 1344 H 120.744 0.442939 -0.69838 0
M  V30 1345 H 123.29 0.188342 -1.68652 0
M  V30 1346 H 122.062 0.762869 -3.83792 0
M  V30 1347 H 121.685 2.35596 -3.20282 0
M  V30 1348 N 122.682 1.50554 0.465978 0
M  V30 1349 C 124.098 1.38093 0.800154 0
M  V30 1350 C 124.298 0.440988 1.96615 0
M  V30 1351 O 123.354 -0.114499 2.5224 0
M  V30 1352 C 124.667 2.79565 1.10742 0
M  V30 1353 C 126.215 2.88516 1.21357 0
M  V30 1354 C 126.69 4.30833 1.55393 0
M  V30 1355 N 128.181 4.33807 1.62375 0
M  V30 1356 C 128.916 5.40927 1.90225 0
M  V30 1357 N 128.412 6.58247 2.16062 0
M  V30 1358 N 130.205 5.28376 1.9177 0
M  V30 1359 H 122.356 2.10237 -0.302366 0
M  V30 1360 H 124.619 0.945203 -0.0727746 0
M  V30 1361 H 124.325 3.50208 0.323661 0
M  V30 1362 H 124.199 3.17125 2.04234 0
M  V30 1363 H 126.586 2.1809 1.98799 0
M  V30 1364 H 126.667 2.54492 0.258321 0
M  V30 1365 H 126.311 5.01799 0.784889 0
M  V30 1366 H 126.241 4.62347 2.52076 0
M  V30 1367 H 128.732 3.49212 1.44427 0
M  V30 1368 H 129.045 7.3569 2.36601 0
M  V30 1369 H 127.39 6.61413 2.13444 0
M  V30 1370 H 130.581 4.35715 1.71085 0
M  V30 1371 H 130.754 6.11944 2.13139 0
M  V30 1372 N 124.16 -0.719506 1.40217 0
M  V30 1373 C 125.108 -1.85493 1.40339 0
M  V30 1374 C 126.102 -1.66995 0.284415 0
M  V30 1375 O 127.308 -1.74148 0.455252 0
M  V30 1376 H 123.683 -0.610857 0.438586 0
M  V30 1377 H 125.654 -1.82506 2.36081 0
M  V30 1378 C 124.403 -3.23321 1.27901 0
M  V30 1379 H 123.726 -3.38159 2.1328 0
M  V30 1380 H 125.166 -4.02914 1.32045 0
M  V30 1381 C 123.625 -3.36898 -0.0111355 0
M  V30 1382 O 124.155 -3.89674 -0.975538 0
M  V30 1383 N 122.361 -2.90492 -0.0793393 0
M  V30 1384 H 121.908 -2.47731 0.706183 0
M  V30 1385 H 121.866 -2.99955 -0.942038 0
M  V30 1386 N 125.638 -1.25649 -0.95132 0
M  V30 1387 C 126.863 -1.13443 -1.73624 0
M  V30 1388 C 127.288 0.307565 -1.85568 0
M  V30 1389 O 126.646 1.22282 -1.33854 0
M  V30 1390 C 126.694 -1.79723 -3.12621 0
M  V30 1391 O 125.798 -1.07912 -3.98031 0
M  V30 1392 H 125.139 -0.395872 -0.533086 0
M  V30 1393 H 127.669 -1.66276 -1.1922 0
M  V30 1394 H 127.679 -1.86141 -3.63064 0
M  V30 1395 H 126.354 -2.84633 -3.03244 0
M  V30 1396 H 124.931 -1.09398 -3.56492 0
M  V30 1397 N 127.117 1.15442 -1.07289 0
M  V30 1398 C 128.05 2.19135 -0.636798 0
M  V30 1399 C 129.028 1.58884 0.34562 0
M  V30 1400 O 130.212 1.86805 0.252195 0
M  V30 1401 C 127.339 3.38638 0.0650014 0
M  V30 1402 C 126.385 4.17412 -0.87576 0
M  V30 1403 S 127.218 4.79882 -2.37642 0
M  V30 1404 C 128.374 6.02753 -1.6864 0
M  V30 1405 H 128.607 2.55787 -1.51526 0
M  V30 1406 H 126.14 1.26394 -0.886793 0
M  V30 1407 H 128.098 4.07873 0.463664 0
M  V30 1408 H 126.759 3.00331 0.919801 0
M  V30 1409 H 125.952 5.02909 -0.33143 0
M  V30 1410 H 125.554 3.53722 -1.21478 0
M  V30 1411 H 127.846 6.70113 -0.997753 0
M  V30 1412 H 128.789 6.61754 -2.51967 0
M  V30 1413 H 129.197 5.52355 -1.16465 0
M  V30 1414 N 128.595 0.856903 1.32268 0
M  V30 1415 C 129.545 0.274899 2.26337 0
M  V30 1416 C 130.529 -0.580543 1.50062 0
M  V30 1417 O 131.721 -0.429559 1.71708 0
M  V30 1418 C 128.85 -0.533841 3.39124 0
M  V30 1419 C 127.936 0.334114 4.22782 0
M  V30 1420 N 128.327 1.42143 4.85416 0
M  V30 1421 C 126.625 0.124256 4.45827 0
M  V30 1422 C 127.326 1.95559 5.47843 0
M  V30 1423 N 126.302 1.25444 5.28928 0
M  V30 1424 H 130.104 1.10612 2.72291 0
M  V30 1425 H 127.618 0.703258 1.46383 0
M  V30 1426 H 129.615 -0.96722 4.05525 0
M  V30 1427 H 128.275 -1.36283 2.94715 0
M  V30 1428 H 129.286 1.80436 4.85451 0
M  V30 1429 H 125.963 -0.669837 4.12092 0
M  V30 1430 H 127.353 2.86714 6.07655 0
M  V30 1431 N 130.073 -1.45103 0.615059 0
M  V30 1432 C 131.319 -2.02483 0.113347 0
M  V30 1433 C 131.652 -1.48146 -1.25564 0
M  V30 1434 O 130.927 -0.659104 -1.82992 0
M  V30 1435 C 131.21 -3.60005 0.0825278 0
M  V30 1436 C 131.063 -4.2466 1.48271 0
M  V30 1437 C 132.382 -4.35972 -0.601401 0
M  V30 1438 H 129.501 -0.735764 0.0426632 0
M  V30 1439 H 132.143 -1.72868 0.788461 0
M  V30 1440 H 130.293 -3.85367 -0.492378 0
M  V30 1441 H 131.965 -4.10458 2.10527 0
M  V30 1442 H 130.208 -3.82772 2.04127 0
M  V30 1443 H 130.879 -5.336 1.41332 0
M  V30 1444 H 133.355 -4.15947 -0.112666 0
M  V30 1445 H 132.231 -5.45697 -0.592097 0
M  V30 1446 H 132.492 -4.09391 -1.66887 0
M  V30 1447 N 131.551 -0.354651 -1.53558 0
M  V30 1448 C 132.828 0.294281 -1.93374 0
M  V30 1449 C 133.208 1.67313 -1.28723 0
M  V30 1450 O 132.556 2.24179 -0.442247 0
M  V30 1451 C 132.766 0.355445 -3.47185 0
M  V30 1452 C 134.114 0.601007 -4.20325 0
M  V30 1453 O 135.138 0.437106 -3.53508 0
M  V30 1454 O 133.997 0.919322 -5.38712 0
M  V30 1455 H 131.091 0.174033 -0.808481 0
M  V30 1456 H 133.637 -0.406638 -1.64756 0
M  V30 1457 H 132.409 -0.611729 -3.86489 0
M  V30 1458 H 132.032 1.1027 -3.82003 0
M  V30 1459 N 133.029 1.57378 -0.0835403 0
M  V30 1460 C 133.962 2.09016 0.915833 0
M  V30 1461 C 134.94 0.997993 1.2837 0
M  V30 1462 O 136.124 1.27219 1.39096 0
M  V30 1463 C 133.251 2.55757 2.22049 0
M  V30 1464 C 132.297 3.76522 2.00333 0
M  V30 1465 S 133.13 5.20661 1.25191 0
M  V30 1466 C 134.286 5.70743 2.56912 0
M  V30 1467 H 134.519 2.93457 0.476492 0
M  V30 1468 H 132.052 1.53856 0.129493 0
M  V30 1469 H 134.01 2.83346 2.97027 0
M  V30 1470 H 132.671 1.71564 2.63106 0
M  V30 1471 H 131.864 4.07256 2.96916 0
M  V30 1472 H 131.466 3.49367 1.33488 0
M  V30 1473 H 133.758 5.78304 3.52946 0
M  V30 1474 H 134.701 6.6944 2.30772 0
M  V30 1475 H 135.109 4.98616 2.64655 0
M  V30 1476 N 134.507 -0.190092 1.56449 0
M  V30 1477 C 135.47 -1.21925 1.9408 0
M  V30 1478 C 136.47 -1.38176 0.822431 0
M  V30 1479 O 137.66 -1.35903 1.08977 0
M  V30 1480 C 134.792 -2.58773 2.21922 0
M  V30 1481 H 135.985 -0.897464 2.86157 0
M  V30 1482 H 133.538 -0.43181 1.50217 0
M  V30 1483 H 134.273 -2.95998 1.32499 0
M  V30 1484 H 134.058 -2.48348 3.03424 0
M  V30 1485 H 135.548 -3.32978 2.52022 0
M  V30 1486 N 135.985 -1.50799 -0.457987 0
M  V30 1487 C 137.262 -1.52968 -1.21902 0
M  V30 1488 C 137.642 -0.281906 -2.09209 0
M  V30 1489 O 136.99 0.734076 -2.16388 0
M  V30 1490 C 137.2 -2.8326 -2.03875 0
M  V30 1491 C 138.548 -3.34425 -2.6162 0
M  V30 1492 O 139.572 -2.8467 -2.14106 0
M  V30 1493 O 138.431 -4.21188 -3.48228 0
M  V30 1494 H 135.525 -0.614129 -0.553873 0
M  V30 1495 H 138.071 -1.63098 -0.468739 0
M  V30 1496 H 136.843 -3.65543 -1.39621 0
M  V30 1497 H 136.466 -2.76195 -2.8601 0
M  V30 1498 N 137.463 0.71206 -1.40597 0
M  V30 1499 C 138.373 1.8562 -1.43466 0
M  V30 1500 C 139.389 1.70902 -0.326902 0
M  V30 1501 O 140.565 1.93105 -0.572043 0
M  V30 1502 C 137.63 3.21451 -1.29884 0
M  V30 1503 C 136.691 3.48398 -2.50833 0
M  V30 1504 C 135.924 4.77749 -2.3789 0
M  V30 1505 O 136.147 5.53089 -1.39459 0
M  V30 1506 O 135.081 5.05111 -3.27333 0
M  V30 1507 H 138.907 1.86155 -2.39958 0
M  V30 1508 H 136.492 0.86295 -1.21957 0
M  V30 1509 H 138.374 4.02579 -1.24531 0
M  V30 1510 H 137.049 3.21636 -0.364997 0
M  V30 1511 H 135.956 2.67265 -2.61763 0
M  V30 1512 H 137.289 3.53014 -3.4299 0
M  V30 1513 N 138.941 1.26152 0.944643 0
M  V30 1514 C 139.904 1.07474 2.0244 0
M  V30 1515 C 140.904 0.0242064 1.60782 0
M  V30 1516 O 142.094 0.267302 1.72137 0
M  V30 1517 C 139.226 0.633956 3.34953 0
M  V30 1518 H 140.419 2.03336 2.20442 0
M  V30 1519 H 137.972 1.087 1.12312 0
M  V30 1520 H 138.707 -0.326811 3.22649 0
M  V30 1521 H 138.492 1.39247 3.66542 0
M  V30 1522 H 139.982 0.52501 4.14287 0
M  V30 1523 N 140.419 -1.14872 1.07899 0
M  V30 1524 C 141.649 -1.89386 0.825631 0
M  V30 1525 C 142.057 -1.78565 -0.625406 0
M  V30 1526 O 141.4 -1.13918 -1.44113 0
M  V30 1527 C 141.462 -3.40206 1.16191 0
M  V30 1528 C 141.126 -3.74812 2.61467 0
M  V30 1529 C 142.123 -3.75367 3.59716 0
M  V30 1530 C 139.808 -4.0495 2.97189 0
M  V30 1531 C 141.802 -4.05574 4.9172 0
M  V30 1532 C 139.489 -4.34821 4.29388 0
M  V30 1533 C 140.487 -4.35116 5.26463 0
M  V30 1534 O 140.175 -4.64267 6.56286 0
M  V30 1535 H 139.907 -0.606894 0.297751 0
M  V30 1536 H 142.461 -1.46438 1.44031 0
M  V30 1537 H 140.691 -3.8358 0.490214 0
M  V30 1538 H 142.38 -3.96018 0.890193 0
M  V30 1539 H 143.146 -3.52176 3.33462 0
M  V30 1540 H 139.025 -4.03876 2.22273 0
M  V30 1541 H 142.569 -4.05719 5.67484 0
M  V30 1542 H 138.466 -4.5748 4.55392 0
M  V30 1543 H 139.234 -4.82007 6.61522 0
M  V30 1544 N 141.898 -0.863906 -1.31812 0
M  V30 1545 C 143.123 -0.48527 -2.01643 0
M  V30 1546 C 143.548 0.913058 -1.64453 0
M  V30 1547 O 142.906 1.6014 -0.849985 0
M  V30 1548 C 142.954 -0.642625 -3.54828 0
M  V30 1549 O 142.058 0.320659 -4.11151 0
M  V30 1550 H 141.399 -0.193793 -0.635091 0
M  V30 1551 H 143.929 -1.16565 -1.68148 0
M  V30 1552 H 143.939 -0.533628 -4.04495 0
M  V30 1553 H 142.614 -1.66227 -3.81237 0
M  V30 1554 H 141.191 0.167126 -3.72525 0
M  V30 1555 N 143.376 1.44774 -0.622745 0
M  V30 1556 C 144.625 2.01334 -0.121397 0
M  V30 1557 C 144.938 1.49505 1.26125 0
M  V30 1558 O 146.144 1.98139 1.85616 0
M  V30 1559 C 144.6 3.59516 -0.166298 0
M  V30 1560 C 144.208 4.20342 -1.54974 0
M  V30 1561 C 145.952 4.23582 0.279021 0
M  V30 1562 C 143.859 5.70721 -1.55021 0
M  V30 1563 H 142.789 0.752851 -0.0416172 0
M  V30 1564 H 145.44 1.66083 -0.780309 0
M  V30 1565 H 143.822 3.92027 0.559557 0
M  V30 1566 H 144.996 3.99381 -2.29851 0
M  V30 1567 H 143.311 3.68529 -1.93843 0
M  V30 1568 H 145.908 5.33868 0.298083 0
M  V30 1569 H 146.251 3.95327 1.30471 0
M  V30 1570 H 146.784 3.95843 -0.394063 0
M  V30 1571 H 143.523 6.03698 -2.55399 0
M  V30 1572 H 143.043 5.93829 -0.844245 0
M  V30 1573 H 144.722 6.34203 -1.28047 0
M  V30 1574 N 144.854 0.36279 1.53368 0
M  V30 1575 C 146.102 -0.227326 2.00817 0
M  V30 1576 C 146.423 -1.49511 1.25186 0
M  V30 1577 O 145.693 -1.92482 0.364348 0
M  V30 1578 H 144.273 -0.0869923 0.741917 0
M  V30 1579 H 146.935 0.488381 1.88682 0
M  V30 1580 H 146.031 -0.456273 3.08747 0
M  V30 1581 N 146.332 -1.57332 0.0918853 0
M  V30 1582 C 147.743 -1.81496 -0.437739 0
M  V30 1583 C 148.094 -1.00727 -1.6837 0
M  V30 1584 O 147.219 -0.235694 -2.15113 0
M  V30 1585 C 147.814 -3.29197 -0.800939 0
M  V30 1586 C 146.373 -3.54136 -1.27532 0
M  V30 1587 C 145.52 -2.75979 -0.270392 0
M  V30 1588 H 148.471 -1.55494 0.317366 0
M  V30 1589 H 148.492 -3.42344 -1.66074 0
M  V30 1590 H 148.004 -3.87955 0.106078 0
M  V30 1591 H 146.105 -3.00705 -2.20016 0
M  V30 1592 H 146.218 -4.62792 -1.23938 0
M  V30 1593 H 144.582 -2.43349 -0.751872 0
M  V30 1594 H 145.365 -3.37484 0.629248 0
M  V30 1595 N 147.81 0.181792 -1.56548 0
M  V30 1596 C 148.773 1.20894 -1.94724 0
M  V30 1597 C 149.773 1.37738 -0.829747 0
M  V30 1598 O 150.963 1.35323 -1.09697 0
M  V30 1599 C 148.095 2.57593 -2.23291 0
M  V30 1600 H 149.288 0.882275 -2.86629 0
M  V30 1601 H 146.841 0.423838 -1.50444 0
M  V30 1602 H 147.576 2.95291 -1.34067 0
M  V30 1603 H 147.361 2.46735 -3.04736 0
M  V30 1604 H 148.851 3.31637 -2.53785 0
M  V30 1605 N 149.288 1.51039 0.449983 0
M  V30 1606 C 150.699 1.557 1.03026 0
M  V30 1607 C 151.05 0.372939 1.92623 0
M  V30 1608 O 150.175 -0.511771 2.10261 0
M  V30 1609 C 150.77 2.82171 1.87523 0
M  V30 1610 C 149.329 2.89444 2.40622 0
M  V30 1611 C 148.476 2.50228 1.19504 0
M  V30 1612 H 151.427 1.56999 0.231745 0
M  V30 1613 H 151.448 2.65219 2.72835 0
M  V30 1614 H 150.96 3.68331 1.22286 0
M  V30 1615 H 149.061 2.07685 3.0935 0
M  V30 1616 H 149.174 3.92816 2.74285 0
M  V30 1617 H 147.538 2.03139 1.53644 0
M  V30 1618 H 148.321 3.38719 0.558972 0
M  V30 1619 N 150.766 -0.704594 1.40972 0
M  V30 1620 C 151.991 -1.49858 1.43378 0
M  V30 1621 C 152.416 -1.88061 0.038184 0
M  V30 1622 O 151.774 -1.5402 -0.956425 0
M  V30 1623 C 151.822 -2.74333 2.34038 0
M  V30 1624 O 150.926 -3.7147 1.7912 0
M  V30 1625 H 150.267 -0.45139 0.486974 0
M  V30 1626 H 152.797 -0.866832 1.8533 0
M  V30 1627 H 152.807 -3.22741 2.49604 0
M  V30 1628 H 151.482 -2.45863 3.35446 0
M  V30 1629 H 150.059 -3.30363 1.72958 0
M  V30 1630 N 152.244 -1.26651 -0.937939 0
M  V30 1631 C 153.176 -1.04283 -2.04102 0
M  V30 1632 C 154.189 -0.00221014 -1.628 0
M  V30 1633 O 155.378 -0.242645 -1.76843 0
M  V30 1634 C 152.478 -0.557846 -3.34277 0
M  V30 1635 C 151.651 -1.66843 -4.04329 0
M  V30 1636 C 150.71 -1.18095 -5.12777 0
M  V30 1637 O 149.736 -1.87865 -5.37304 0
M  V30 1638 N 150.938 -0.0311006 -5.80492 0
M  V30 1639 H 153.703 -1.9927 -2.23856 0
M  V30 1640 H 151.264 -1.1808 -1.10764 0
M  V30 1641 H 153.256 -0.215836 -4.04124 0
M  V30 1642 H 151.826 0.298523 -3.11171 0
M  V30 1643 H 151.046 -2.18123 -3.28353 0
M  V30 1644 H 152.334 -2.41408 -4.47883 0
M  V30 1645 H 151.732 0.551486 -5.63005 0
M  V30 1646 H 150.289 0.251809 -6.51313 0
M  V30 1647 N 153.722 1.14298 -1.08507 0
M  V30 1648 C 154.654 2.1907 -0.673859 0
M  V30 1649 C 155.667 1.60381 0.279577 0
M  V30 1650 O 156.856 1.78374 0.0670754 0
M  V30 1651 C 153.956 3.38888 0.0290979 0
M  V30 1652 C 153.129 4.27103 -0.943494 0
M  V30 1653 C 152.188 5.25477 -0.275676 0
M  V30 1654 O 151.214 5.61709 -0.920401 0
M  V30 1655 N 152.416 5.7227 0.974013 0
M  V30 1656 H 155.181 2.54965 -1.57521 0
M  V30 1657 H 152.742 1.29528 -0.971287 0
M  V30 1658 H 154.734 4.01761 0.48683 0
M  V30 1659 H 153.304 3.01309 0.832555 0
M  V30 1660 H 152.524 3.61149 -1.58004 0
M  V30 1661 H 153.812 4.82905 -1.60251 0
M  V30 1662 H 153.21 5.44965 1.51755 0
M  V30 1663 H 151.767 6.37127 1.37522 0
M  V30 1664 N 155.201 0.870884 1.31352 0
M  V30 1665 C 156.426 0.495957 2.01383 0
M  V30 1666 C 156.851 -0.904324 1.64935 0
M  V30 1667 O 156.209 -1.59687 0.858466 0
M  V30 1668 C 156.257 0.661433 3.54482 0
M  V30 1669 O 155.361 -0.298851 4.11316 0
M  V30 1670 H 154.702 0.197158 0.634054 0
M  V30 1671 H 157.232 1.17455 1.67527 0
M  V30 1672 H 157.242 0.555072 4.04207 0
M  V30 1673 H 155.917 1.68246 3.8035 0
M  V30 1674 H 154.494 -0.147368 3.72609 0
M  V30 1675 N 156.679 -1.44442 0.630414 0
M  V30 1676 C 157.909 -2.06115 0.141465 0
M  V30 1677 C 158.317 -1.47179 -1.1889 0
M  V30 1678 O 157.66 -0.588873 -1.74006 0
M  V30 1679 C 157.722 -3.59467 -0.0484355 0
M  V30 1680 C 157.386 -4.40864 1.20366 0
M  V30 1681 C 158.383 -4.74391 2.12719 0
M  V30 1682 C 156.068 -4.8125 1.43887 0
M  V30 1683 C 158.062 -5.47186 3.26904 0
M  V30 1684 C 155.749 -5.53795 2.5837 0
M  V30 1685 C 156.747 -5.86682 3.49705 0
M  V30 1686 O 156.435 -6.57749 4.62191 0
M  V30 1687 H 156.167 -0.671648 0.0765792 0
M  V30 1688 H 158.721 -1.86312 0.864695 0
M  V30 1689 H 156.951 -3.77758 -0.826803 0
M  V30 1690 H 158.64 -4.02909 -0.491849 0
M  V30 1691 H 159.406 -4.43728 1.95781 0
M  V30 1692 H 155.285 -4.55073 0.736853 0
M  V30 1693 H 158.829 -5.72773 3.98217 0
M  V30 1694 H 154.726 -5.83872 2.75251 0
M  V30 1695 H 155.494 -6.76217 4.61164 0
M  V30 1696 N 158.157 -0.370918 -1.53173 0
M  V30 1697 C 159.087 0.464847 -2.28826 0
M  V30 1698 C 160.068 1.07936 -1.31468 0
M  V30 1699 O 161.253 1.0956 -1.60344 0
M  V30 1700 C 158.383 1.60196 -3.08147 0
M  V30 1701 C 157.337 1.11443 -4.13237 0
M  V30 1702 C 156.663 2.3422 -4.80672 0
M  V30 1703 C 157.963 0.195384 -5.21934 0
M  V30 1704 H 159.657 -0.166329 -2.98938 0
M  V30 1705 H 157.203 -0.0814359 -1.4377 0
M  V30 1706 H 159.156 2.19332 -3.59822 0
M  V30 1707 H 157.88 2.26045 -2.35735 0
M  V30 1708 H 156.539 0.545727 -3.62515 0
M  V30 1709 H 156.187 2.98537 -4.04827 0
M  V30 1710 H 155.887 2.02269 -5.51689 0
M  V30 1711 H 157.411 2.94032 -5.35143 0
M  V30 1712 H 158.825 0.694375 -5.69079 0
M  V30 1713 H 157.222 -0.0335027 -6.00091 0
M  V30 1714 H 158.292 -0.760961 -4.78892 0
M  V30 1715 N 159.635 1.57281 -0.100228 0
M  V30 1716 C 160.86 1.99302 0.573881 0
M  V30 1717 C 161.285 0.979059 1.60611 0
M  V30 1718 O 160.643 -0.0517803 1.81226 0
M  V30 1719 C 160.691 3.40274 1.19358 0
M  V30 1720 O 159.795 3.41676 2.30935 0
M  V30 1721 H 159.136 0.647944 0.145138 0
M  V30 1722 H 161.666 2.03779 -0.183156 0
M  V30 1723 H 161.676 3.78078 1.53365 0
M  V30 1724 H 160.351 4.13594 0.437385 0
M  V30 1725 H 158.928 3.15672 1.98509 0
M  V30 1726 N 161.113 -0.173488 1.56642 0
M  V30 1727 C 162.046 -1.24353 1.91342 0
M  V30 1728 C 163.024 -1.4289 0.775965 0
M  V30 1729 O 164.208 -1.57932 1.02907 0
M  V30 1730 C 161.335 -2.60683 2.16245 0
M  V30 1731 C 160.381 -2.58894 3.38934 0
M  V30 1732 S 161.214 -2.0819 4.93373 0
M  V30 1733 C 162.37 -3.46302 5.21369 0
M  V30 1734 H 162.603 -0.947345 2.81803 0
M  V30 1735 H 160.136 -0.377958 1.49703 0
M  V30 1736 H 162.094 -3.39149 2.31275 0
M  V30 1737 H 160.755 -2.87502 1.26496 0
M  V30 1738 H 159.948 -3.59188 3.53553 0
M  V30 1739 H 159.55 -1.88522 3.2301 0
M  V30 1740 H 161.842 -4.42287 5.13214 0
M  V30 1741 H 162.785 -3.3656 6.23003 0
M  V30 1742 H 163.193 -3.42214 4.48943 0
M  V30 1743 N 162.591 -1.51276 -0.441967 0
M  V30 1744 C 163.501 -1.75092 -1.56141 0
M  V30 1745 C 164.517 -0.634963 -1.62001 0
M  V30 1746 O 165.693 -0.916686 -1.79329 0
M  V30 1747 C 162.758 -1.86666 -2.92158 0
M  V30 1748 C 161.819 -3.10506 -2.96453 0
M  V30 1749 C 161.052 -3.21519 -4.25982 0
M  V30 1750 O 161.275 -2.38586 -5.18105 0
M  V30 1751 O 160.209 -4.14465 -4.36466 0
M  V30 1752 H 164.035 -2.70044 -1.38961 0
M  V30 1753 H 161.62 -1.35722 -0.624499 0
M  V30 1754 H 163.502 -1.96292 -3.72891 0
M  V30 1755 H 162.177 -0.949014 -3.09476 0
M  V30 1756 H 161.084 -3.06363 -2.14692 0
M  V30 1757 H 162.417 -4.01945 -2.84079 0
M  V30 1758 N 164.069 0.697108 -1.41344 0
M  V30 1759 C 165.016 1.81106 -1.43071 0
M  V30 1760 C 165.986 1.63632 -0.285275 0
M  V30 1761 O 167.171 1.84504 -0.486091 0
M  V30 1762 C 164.311 3.18975 -1.31715 0
M  V30 1763 C 163.424 3.47892 -2.56115 0
M  V30 1764 C 162.559 4.75367 -2.37064 0
M  V30 1765 C 161.598 4.97247 -3.56948 0
M  V30 1766 N 160.735 6.15947 -3.36977 0
M  V30 1767 H 165.575 1.78965 -2.38276 0
M  V30 1768 H 163.112 0.873975 -1.18322 0
M  V30 1769 H 165.07 3.98615 -1.23133 0
M  V30 1770 H 163.7 3.20297 -0.401183 0
M  V30 1771 H 162.752 2.62669 -2.75153 0
M  V30 1772 H 164.064 3.59962 -3.45295 0
M  V30 1773 H 163.218 5.63059 -2.25941 0
M  V30 1774 H 161.957 4.65541 -1.45338 0
M  V30 1775 H 160.962 4.08004 -3.68527 0
M  V30 1776 H 162.187 5.08934 -4.49626 0
M  V30 1777 H 160.133 6.07336 -2.47949 0
M  V30 1778 H 160.05 6.28777 -4.19732 0
M  V30 1779 H 161.318 7.06377 -3.29623 0
M  V30 1780 N 165.547 1.27147 0.931209 0
M  V30 1781 C 166.796 1.12664 1.67302 0
M  V30 1782 C 167.109 -0.327718 1.92835 0
M  V30 1783 O 168.315 -0.593392 2.64936 0
M  V30 1784 C 166.771 1.9683 3.01307 0
M  V30 1785 C 166.379 3.46901 2.83485 0
M  V30 1786 C 168.123 1.90985 3.79111 0
M  V30 1787 C 166.03 4.23279 4.13024 0
M  V30 1788 H 164.96 0.41803 0.627509 0
M  V30 1789 H 167.611 1.51539 1.03481 0
M  V30 1790 H 165.993 1.50797 3.66164 0
M  V30 1791 H 167.167 4.00773 2.27415 0
M  V30 1792 H 165.482 3.54088 2.19113 0
M  V30 1793 H 168.079 2.45328 4.75098 0
M  V30 1794 H 168.422 0.882718 4.06834 0
M  V30 1795 H 168.955 2.34895 3.21044 0
M  V30 1796 H 165.694 5.26503 3.90481 0
M  V30 1797 H 165.214 3.74186 4.6877 0
M  V30 1798 H 166.893 4.32265 4.81411 0
M  V30 1799 N 167.025 -1.13721 1.09112 0
M  V30 1800 C 168.274 -1.84275 0.82009 0
M  V30 1801 C 168.587 -1.84253 -0.656509 0
M  V30 1802 O 169.793 -2.50668 -1.04296 0
M  V30 1803 C 168.249 -3.30825 1.41714 0
M  V30 1804 C 167.857 -3.39244 2.92605 0
M  V30 1805 C 169.601 -4.06443 1.22492 0
M  V30 1806 C 167.508 -4.80047 3.45411 0
M  V30 1807 H 166.438 -0.690387 0.30312 0
M  V30 1808 H 169.089 -1.28146 1.31343 0
M  V30 1809 H 167.471 -3.86737 0.851498 0
M  V30 1810 H 168.645 -2.93344 3.55367 0
M  V30 1811 H 166.96 -2.77088 3.10823 0
M  V30 1812 H 169.557 -5.10387 1.59402 0
M  V30 1813 H 169.9 -4.15972 0.165299 0
M  V30 1814 H 170.433 -3.56852 1.75788 0
M  V30 1815 H 167.172 -4.75709 4.50978 0
M  V30 1816 H 166.692 -5.26455 2.87411 0
M  V30 1817 H 168.371 -5.48957 3.42425 0
M  V30 1818 N 168.503 -0.877838 -1.30888 0
M  V30 1819 C 169.435 -0.296607 -2.27273 0
M  V30 1820 C 170.448 0.544799 -1.53414 0
M  V30 1821 O 171.637 0.365511 -1.74718 0
M  V30 1822 C 168.737 0.597481 -3.33592 0
M  V30 1823 C 167.91 -0.213251 -4.3688 0
M  V30 1824 C 166.969 0.610208 -5.2265 0
M  V30 1825 O 165.995 0.035441 -5.69189 0
M  V30 1826 N 167.197 1.92071 -5.47804 0
M  V30 1827 H 169.962 -1.12492 -2.77787 0
M  V30 1828 H 167.523 -0.740105 -1.43993 0
M  V30 1829 H 169.515 1.15425 -3.87891 0
M  V30 1830 H 168.085 1.32647 -2.83061 0
M  V30 1831 H 167.305 -0.951466 -3.82545 0
M  V30 1832 H 168.593 -0.769262 -5.02951 0
M  V30 1833 H 167.991 2.4107 -5.11763 0
M  V30 1834 H 166.548 2.42508 -6.05007 0
M  V30 1835 N 169.982 1.44106 -0.638065 0
M  V30 1836 C 171.228 2.02277 -0.145546 0
M  V30 1837 C 171.561 1.50125 1.23191 0
M  V30 1838 O 170.836 0.688133 1.8192 0
M  V30 1839 C 171.119 3.59829 -0.139791 0
M  V30 1840 C 170.972 4.22247 -1.55008 0
M  V30 1841 C 172.291 4.36873 0.531966 0
M  V30 1842 H 169.41 0.734992 -0.0543632 0
M  V30 1843 H 172.052 1.71592 -0.815863 0
M  V30 1844 H 170.202 3.86102 0.431007 0
M  V30 1845 H 171.874 4.07057 -2.1703 0
M  V30 1846 H 170.117 3.79476 -2.10191 0
M  V30 1847 H 170.788 5.31284 -1.49804 0
M  V30 1848 H 173.264 4.16074 0.0464781 0
M  V30 1849 H 172.14 5.4657 0.505206 0
M  V30 1850 H 172.401 4.11995 1.60352 0
M  V30 1851 N 171.46 0.379036 1.52974 0
M  V30 1852 C 172.423 -0.448865 2.24762 0
M  V30 1853 C 173.423 -0.998689 1.26027 0
M  V30 1854 O 174.613 -0.882313 1.50203 0
M  V30 1855 C 171.745 -1.62872 2.99476 0
M  V30 1856 H 172.938 0.179491 2.99362 0
M  V30 1857 H 170.491 0.13096 1.5575 0
M  V30 1858 H 171.226 -2.29479 2.29151 0
M  V30 1859 H 171.011 -1.24128 3.71934 0
M  V30 1860 H 172.501 -2.2151 3.5401 0
M  V30 1861 N 172.938 -1.57226 0.108567 0
M  V30 1862 C 173.885 -2.14756 -0.845481 0
M  V30 1863 C 174.855 -1.06971 -1.27068 0
M  V30 1864 O 176.04 -1.34827 -1.35005 0
M  V30 1865 C 173.18 -2.74298 -2.09415 0
M  V30 1866 C 172.293 -3.96358 -1.71826 0
M  V30 1867 C 171.428 -4.44021 -2.9158 0
M  V30 1868 C 170.467 -5.58637 -2.50181 0
M  V30 1869 N 169.604 -6.01091 -3.62814 0
M  V30 1870 H 174.444 -2.95961 -0.348035 0
M  V30 1871 H 171.981 -1.46226 -0.160106 0
M  V30 1872 H 173.939 -3.06945 -2.82561 0
M  V30 1873 H 172.569 -1.95801 -2.56636 0
M  V30 1874 H 171.621 -3.69939 -0.885947 0
M  V30 1875 H 172.933 -4.79504 -1.37394 0
M  V30 1876 H 172.087 -4.78522 -3.72963 0
M  V30 1877 H 170.826 -3.59803 -3.29231 0
M  V30 1878 H 169.831 -5.23751 -1.67228 0
M  V30 1879 H 171.056 -6.44613 -2.13659 0
M  V30 1880 H 169.002 -5.19817 -4.00158 0
M  V30 1881 H 168.919 -6.79066 -3.32273 0
M  V30 1882 H 170.187 -6.40227 -4.44668 0
M  V30 1883 N 174.416 0.165178 -1.56732 0
M  V30 1884 C 175.644 0.896218 -1.86482 0
M  V30 1885 C 176.059 1.75555 -0.694675 0
M  V30 1886 O 175.416 1.79379 0.33607 0
M  V30 1887 C 175.467 1.76792 -3.1532 0
M  V30 1888 O 175.188 0.943239 -4.27825 0
M  V30 1889 C 176.689 2.6081 -3.58459 0
M  V30 1890 H 173.909 0.260064 -0.618553 0
M  V30 1891 H 176.453 0.163428 -2.03846 0
M  V30 1892 H 174.608 2.45398 -2.99764 0
M  V30 1893 H 175.022 1.53998 -5.01383 0
M  V30 1894 H 176.496 3.17579 -4.51495 0
M  V30 1895 H 176.973 3.35977 -2.82872 0
M  V30 1896 H 177.579 1.97526 -3.76648 0
M  V30 1897 N 175.894 1.51508 0.433938 0
M  V30 1898 C 177.119 1.68443 1.21003 0
M  V30 1899 C 177.544 0.382636 1.84167 0
M  V30 1900 O 176.902 -0.65755 1.68956 0
M  V30 1901 C 176.95 2.80405 2.26727 0
M  V30 1902 O 176.054 2.44245 3.32292 0
M  V30 1903 H 175.395 0.561536 0.354363 0
M  V30 1904 H 177.925 1.9809 0.512024 0
M  V30 1905 H 177.935 3.0459 2.71457 0
M  V30 1906 H 176.61 3.74867 1.80132 0
M  V30 1907 H 175.187 2.30644 2.93015 0
M  V30 1908 N 177.372 -0.689602 1.41712 0
M  V30 1909 C 178.335 -1.78521 1.43746 0
M  V30 1910 C 179.335 -1.57436 0.327191 0
M  V30 1911 O 180.525 -1.64 0.587348 0
M  V30 1912 C 177.657 -3.16971 1.25467 0
M  V30 1913 H 178.85 -1.78108 2.41283 0
M  V30 1914 H 176.403 -0.89781 1.27942 0
M  V30 1915 H 177.138 -3.23019 0.287948 0
M  V30 1916 H 176.923 -3.33678 2.05917 0
M  V30 1917 H 178.413 -3.96935 1.2974 0
M  V30 1918 N 178.85 -1.27639 -0.924453 0
M  V30 1919 C 179.813 -1.10681 -2.00705 0
M  V30 1920 C 180.813 -0.0497823 -1.60723 0
M  V30 1921 O 182.003 -0.294654 -1.7169 0
M  V30 1922 C 179.135 -0.687164 -3.33902 0
M  V30 1923 H 180.328 -2.06817 -2.17179 0
M  V30 1924 H 177.881 -1.10473 -1.10569 0
M  V30 1925 H 178.616 0.275439 -3.23128 0
M  V30 1926 H 178.401 -1.45061 -3.6428 0
M  V30 1927 H 179.891 -0.590853 -4.13399 0
M  V30 1928 N 180.328 1.1314 -1.09713 0
M  V30 1929 C 181.26 2.18343 -0.697056 0
M  V30 1930 C 182.273 1.60669 0.262551 0
M  V30 1931 O 183.462 1.78435 0.0481527 0
M  V30 1932 C 180.562 3.38899 -0.00684728 0
M  V30 1933 C 179.735 4.26078 -0.988741 0
M  V30 1934 C 178.794 5.25155 -0.331394 0
M  V30 1935 O 177.82 5.60701 -0.979926 0
M  V30 1936 N 179.022 5.73271 0.913261 0
M  V30 1937 H 181.787 2.5328 -1.60216 0
M  V30 1938 H 179.348 1.28491 -0.984971 0
M  V30 1939 H 181.34 4.02255 0.444191 0
M  V30 1940 H 179.91 3.02175 0.800551 0
M  V30 1941 H 179.13 3.59453 -1.61826 0
M  V30 1942 H 180.418 4.81178 -1.65364 0
M  V30 1943 H 179.816 5.46544 1.45966 0
M  V30 1944 H 178.373 6.3855 1.30757 0
M  V30 1945 N 181.806 0.884767 1.30421 0
M  V30 1946 C 182.769 0.356277 2.26414 0
M  V30 1947 C 183.769 -0.501124 1.52792 0
M  V30 1948 O 184.959 -0.30831 1.7145 0
M  V30 1949 C 182.091 -0.492316 3.37326 0
M  V30 1950 H 183.284 1.20389 2.74675 0
M  V30 1951 H 180.837 0.661607 1.41607 0
M  V30 1952 H 181.572 -1.36052 2.94381 0
M  V30 1953 H 181.357 0.121832 3.91911 0
M  V30 1954 H 182.847 -0.853871 4.08777 0
M  V30 1955 N 183.284 -1.43765 0.645699 0
M  V30 1956 C 184.533 -2.01116 0.153412 0
M  V30 1957 C 184.846 -1.51493 -1.23731 0
M  V30 1958 O 186.052 -2.01067 -1.8244 0
M  V30 1959 C 184.508 -3.59206 0.223473 0
M  V30 1960 C 184.116 -4.17823 1.61642 0
M  V30 1961 C 185.86 -4.23972 -0.211597 0
M  V30 1962 C 183.767 -5.68183 1.64081 0
M  V30 1963 H 182.697 -0.752093 0.0535891 0
M  V30 1964 H 185.348 -1.6482 0.806633 0
M  V30 1965 H 183.73 -3.92867 -0.497118 0
M  V30 1966 H 184.904 -3.95674 2.36176 0
M  V30 1967 H 183.219 -3.65399 1.99681 0
M  V30 1968 H 185.816 -5.34275 -0.213112 0
M  V30 1969 H 186.159 -3.97352 -1.24165 0
M  V30 1970 H 186.692 -3.95166 0.456988 0
M  V30 1971 H 183.431 -5.99559 2.64971 0
M  V30 1972 H 182.951 -5.9241 0.938611 0
M  V30 1973 H 184.63 -6.32085 1.3812 0
M  V30 1974 N 184.763 -0.387143 -1.52771 0
M  V30 1975 C 185.713 0.465942 -2.23188 0
M  V30 1976 C 186.697 1.03138 -1.23496 0
M  V30 1977 O 187.889 0.957845 -1.48843 0
M  V30 1978 C 185.018 1.59384 -3.04059 0
M  V30 1979 C 184.104 1.04024 -4.11144 0
M  V30 1980 N 184.495 0.211416 -5.05358 0
M  V30 1981 C 182.793 1.31295 -4.26237 0
M  V30 1982 C 183.494 -0.0941698 -5.81624 0
M  V30 1983 N 182.47 0.509207 -5.4121 0
M  V30 1984 H 186.272 -0.173856 -2.93385 0
M  V30 1985 H 183.786 -0.19633 -1.61209 0
M  V30 1986 H 185.783 2.21738 -3.53041 0
M  V30 1987 H 184.443 2.23648 -2.35397 0
M  V30 1988 H 185.454 -0.151151 -5.17679 0
M  V30 1989 H 182.131 1.95679 -3.68803 0
M  V30 1990 H 183.521 -0.765572 -6.67524 0
M  V30 1991 N 186.241 1.57166 -0.116904 0
M  V30 1992 C 187.652 1.82169 0.408809 0
M  V30 1993 C 188.003 1.03393 1.66746 0
M  V30 1994 O 187.128 0.269886 2.1471 0
M  V30 1995 C 187.723 3.30429 0.748466 0
M  V30 1996 C 186.282 3.5612 1.21882 0
M  V30 1997 C 185.429 2.76374 0.226452 0
M  V30 1998 H 188.38 1.5497 -0.342063 0
M  V30 1999 H 188.401 3.44943 1.60607 0
M  V30 2000 H 187.913 3.87737 -0.167784 0
M  V30 2001 H 186.014 3.04168 2.15204 0
M  V30 2002 H 186.127 4.64705 1.16559 0
M  V30 2003 H 184.491 2.44515 0.713063 0
M  V30 2004 H 185.274 3.3644 -0.682859 0
M  V30 2005 N 187.719 -0.156864 1.56817 0
M  V30 2006 C 188.967 -0.869404 1.82444 0
M  V30 2007 C 189.288 -1.82147 0.69623 0
M  V30 2008 O 188.558 -1.93847 -0.28287 0
M  V30 2009 H 187.138 -0.324043 0.673056 0
M  V30 2010 H 189.8 -0.153224 1.94297 0
M  V30 2011 H 188.896 -1.43761 2.77019 0
M  V30 2012 N 189.197 -1.51736 -0.425897 0
M  V30 2013 C 190.437 -1.66636 -1.18371 0
M  V30 2014 C 190.801 -0.379854 -1.88205 0
M  V30 2015 O 192.002 -0.404758 -2.65735 0
M  V30 2016 C 190.273 -2.84382 -2.16476 0
M  V30 2017 S 191.832 -3.19673 -3.0059 0
M  V30 2018 H 188.65 -0.586957 -0.40125 0
M  V30 2019 H 191.252 -1.89679 -0.473518 0
M  V30 2020 H 189.956 -3.76281 -1.63831 0
M  V30 2021 H 189.487 -2.63562 -2.92059 0
M  V30 2022 H 191.502 -2.66994 -4.18245 0
M  V30 2023 N 190.675 0.682077 -1.42076 0
M  V30 2024 C 191.923 1.4393 -1.41876 0
M  V30 2025 C 192.244 1.94971 -0.0335599 0
M  V30 2026 O 191.514 1.72591 0.926773 0
M  V30 2027 H 190.094 0.534085 -0.522267 0
M  V30 2028 H 192.756 0.806427 -1.77434 0
M  V30 2029 H 191.852 2.29588 -2.11414 0
M  V30 2030 N 192.153 1.28127 0.917671 0
M  V30 2031 C 193.4 1.15052 1.66641 0
M  V30 2032 C 193.728 -0.301677 1.92146 0
M  V30 2033 O 192.983 -1.23622 1.51711 0
M  V30 2034 C 193.282 1.89018 3.03327 0
M  V30 2035 C 192.948 3.38832 2.97496 0
M  V30 2036 C 191.61 3.79693 2.95613 0
M  V30 2037 C 193.962 4.34378 2.88036 0
M  V30 2038 C 191.29 5.14447 2.82066 0
M  V30 2039 C 193.642 5.69201 2.7603 0
M  V30 2040 C 192.306 6.09343 2.72502 0
M  V30 2041 H 191.576 0.421006 0.609783 0
M  V30 2042 H 194.223 1.58855 1.06945 0
M  V30 2043 H 192.528 1.37752 3.66785 0
M  V30 2044 H 194.225 1.76321 3.60156 0
M  V30 2045 H 190.815 3.06342 2.99754 0
M  V30 2046 H 194.999 4.03775 2.88581 0
M  V30 2047 H 190.255 5.44681 2.77728 0
M  V30 2048 H 194.429 6.42901 2.67678 0
M  V30 2049 H 192.056 7.13712 2.61762 0
M  V30 2050 N 193.631 -1.12557 1.10312 0
M  V30 2051 C 194.561 -2.20341 0.772798 0
M  V30 2052 C 195.542 -1.68198 -0.25365 0
M  V30 2053 O 196.727 -1.93831 -0.119699 0
M  V30 2054 C 193.857 -3.46709 0.202443 0
M  V30 2055 C 192.811 -4.11996 1.15943 0
M  V30 2056 C 192.137 -5.328 0.450345 0
M  V30 2057 C 193.437 -4.5828 2.50552 0
M  V30 2058 H 195.131 -2.48229 1.674 0
M  V30 2059 H 192.677 -1.19308 0.806326 0
M  V30 2060 H 194.63 -4.2138 -0.0407752 0
M  V30 2061 H 193.354 -3.18245 -0.734001 0
M  V30 2062 H 192.013 -3.39305 1.38808 0
M  V30 2063 H 191.661 -5.00602 -0.490531 0
M  V30 2064 H 191.361 -5.7743 1.08851 0
M  V30 2065 H 192.885 -6.10219 0.215642 0
M  V30 2066 H 194.299 -5.2433 2.31843 0
M  V30 2067 H 192.696 -5.13683 3.10242 0
M  V30 2068 H 193.766 -3.72329 3.10643 0
M  V30 2069 N 195.109 -0.891671 -1.2995 0
M  V30 2070 C 196.334 -0.527932 -2.00568 0
M  V30 2071 C 196.759 0.877969 -1.66353 0
M  V30 2072 O 196.117 1.58301 -0.883762 0
M  V30 2073 C 196.165 -0.717745 -3.53385 0
M  V30 2074 O 195.269 0.233376 -4.11739 0
M  V30 2075 H 194.61 -0.20722 -0.630837 0
M  V30 2076 H 197.14 -1.20105 -1.65638 0
M  V30 2077 H 197.15 -0.619307 -4.03272 0
M  V30 2078 H 195.825 -1.74276 -3.77625 0
M  V30 2079 H 194.402 0.0880706 -3.72796 0
M  V30 2080 N 196.587 1.43421 -0.653314 0
M  V30 2081 C 197.497 2.34568 0.0388565 0
M  V30 2082 C 198.513 1.53888 0.81207 0
M  V30 2083 O 199.689 1.86539 0.759294 0
M  V30 2084 C 196.754 3.32167 0.993269 0
M  V30 2085 C 195.815 4.28751 0.216977 0
M  V30 2086 C 195.048 5.21688 1.12593 0
M  V30 2087 O 195.271 5.19052 2.36519 0
M  V30 2088 O 194.205 5.98919 0.598284 0
M  V30 2089 H 198.031 2.95251 -0.711386 0
M  V30 2090 H 195.616 1.43564 -0.413502 0
M  V30 2091 H 197.498 3.92183 1.54176 0
M  V30 2092 H 196.173 2.73987 1.72374 0
M  V30 2093 H 195.08 3.72215 -0.375101 0
M  V30 2094 H 196.413 4.89913 -0.473924 0
M  V30 2095 N 198.065 0.39524 1.52563 0
M  V30 2096 C 199.013 -0.451859 2.28169 0
M  V30 2097 C 200.007 -1.05792 1.32304 0
M  V30 2098 O 201.213 -0.997718 1.49818 0
M  V30 2099 H 197.588 -0.164481 0.733792 0
M  V30 2100 H 199.559 0.207199 2.9768 0
M  V30 2101 C 198.308 -1.56385 3.10546 0
M  V30 2102 H 197.631 -1.10682 3.84174 0
M  V30 2103 H 199.071 -2.13067 3.66577 0
M  V30 2104 C 197.53 -2.52328 2.23231 0
M  V30 2105 O 198.06 -3.5588 1.86312 0
M  V30 2106 N 196.266 -2.22209 1.87274 0
M  V30 2107 H 195.813 -1.38033 2.17496 0
M  V30 2108 H 195.771 -2.86652 1.29143 0
M  V30 2109 N 199.544 -1.57102 0.125237 0
M  V30 2110 C 200.477 -2.11371 -0.860094 0
M  V30 2111 C 201.455 -1.03168 -1.25679 0
M  V30 2112 O 202.639 -1.30862 -1.35674 0
M  V30 2113 C 199.766 -2.61555 -2.1519 0
M  V30 2114 C 198.812 -3.81701 -1.9028 0
M  V30 2115 S 199.645 -5.23797 -1.11343 0
M  V30 2116 C 200.801 -5.77353 -2.41689 0
M  V30 2117 H 201.034 -2.94617 -0.39852 0
M  V30 2118 H 198.567 -1.54145 -0.0886555 0
M  V30 2119 H 200.525 -2.91122 -2.89411 0
M  V30 2120 H 199.186 -1.78479 -2.58465 0
M  V30 2121 H 198.379 -4.14985 -2.86014 0
M  V30 2122 H 197.981 -3.52783 -1.24178 0
M  V30 2123 H 200.273 -5.87458 -3.37489 0
M  V30 2124 H 201.216 -6.75323 -2.12942 0
M  V30 2125 H 201.624 -5.05457 -2.51342 0
M  V30 2126 N 201.022 0.148545 -1.56898 0
M  V30 2127 C 201.932 1.20293 -2.01412 0
M  V30 2128 C 202.948 1.47107 -0.929273 0
M  V30 2129 O 204.124 1.58807 -1.23863 0
M  V30 2130 C 201.189 2.51682 -2.38447 0
M  V30 2131 C 200.25 2.32529 -3.60872 0
M  V30 2132 C 199.483 3.57653 -3.96132 0
M  V30 2133 O 199.706 4.63771 -3.32073 0
M  V30 2134 O 198.64 3.50408 -4.89385 0
M  V30 2135 H 202.466 0.855025 -2.91416 0
M  V30 2136 H 200.051 0.357151 -1.45068 0
M  V30 2137 H 201.933 3.29147 -2.63135 0
M  V30 2138 H 200.608 2.86006 -1.51599 0
M  V30 2139 H 199.515 1.53019 -3.41373 0
M  V30 2140 H 200.848 2.03121 -4.48333 0
M  V30 2141 N 202.5 1.5196 0.417844 0
M  V30 2142 C 203.747 1.65591 1.16559 0
M  V30 2143 C 204.075 0.381565 1.90721 0
M  V30 2144 O 203.33 -0.635156 1.85106 0
M  V30 2145 C 203.629 2.82269 2.19223 0
M  V30 2146 C 203.295 4.20819 1.61933 0
M  V30 2147 C 201.957 4.58506 1.46033 0
M  V30 2148 C 204.309 5.07196 1.20008 0
M  V30 2149 C 201.637 5.80257 0.867113 0
M  V30 2150 C 203.989 6.29544 0.621086 0
M  V30 2151 C 202.653 6.65987 0.449144 0
M  V30 2152 H 201.923 0.605939 0.42652 0
M  V30 2153 H 204.57 1.86041 0.45397 0
M  V30 2154 H 202.875 2.56118 2.96498 0
M  V30 2155 H 204.572 2.90012 2.76936 0
M  V30 2156 H 201.162 3.91116 1.7529 0
M  V30 2157 H 205.346 4.7867 1.31105 0
M  V30 2158 H 200.602 6.07124 0.721833 0
M  V30 2159 H 204.776 6.95805 0.287798 0
M  V30 2160 H 202.403 7.60199 -0.012632 0
M  V30 2161 N 203.978 -0.674533 1.42435 0
M  V30 2162 C 204.941 -1.76986 1.45632 0
M  V30 2163 C 205.941 -1.5708 0.343871 0
M  V30 2164 O 207.131 -1.63367 0.604709 0
M  V30 2165 C 204.263 -3.15623 1.28822 0
M  V30 2166 H 205.456 -1.75539 2.43158 0
M  V30 2167 H 203.009 -0.884189 1.28887 0
M  V30 2168 H 203.744 -3.22696 0.322193 0
M  V30 2169 H 203.529 -3.31475 2.09444 0
M  V30 2170 H 205.019 -3.95537 1.33942 0
M  V30 2171 N 205.456 -1.28612 -0.910864 0
M  V30 2172 C 206.366 -1.14643 -2.0468 0
M  V30 2173 C 207.382 -0.0723121 -1.7385 0
M  V30 2174 O 208.558 -0.282178 -1.99413 0
M  V30 2175 C 205.623 -0.812561 -3.37044 0
M  V30 2176 C 204.684 -1.96935 -3.81465 0
M  V30 2177 C 203.917 -1.65131 -5.07511 0
M  V30 2178 O 204.14 -0.567013 -5.67575 0
M  V30 2179 O 203.074 -2.49585 -5.47714 0
M  V30 2180 H 206.9 -2.1001 -2.19384 0
M  V30 2181 H 204.485 -1.07958 -1.03274 0
M  V30 2182 H 206.367 -0.640441 -4.16505 0
M  V30 2183 H 205.042 0.111426 -3.23508 0
M  V30 2184 H 203.949 -2.19664 -3.02818 0
M  V30 2185 H 205.282 -2.87414 -3.99567 0
M  V30 2186 N 206.934 1.1197 -1.10907 0
M  V30 2187 C 207.864 2.19928 -0.784473 0
M  V30 2188 C 208.845 1.6833 0.244726 0
M  V30 2189 O 210.03 1.93892 0.109418 0
M  V30 2190 C 207.16 3.46597 -0.220827 0
M  V30 2191 C 206.114 4.11376 -1.18127 0
M  V30 2192 C 205.44 5.32554 -0.478594 0
M  V30 2193 C 206.74 4.56945 -2.52979 0
M  V30 2194 H 208.434 2.47337 -1.68715 0
M  V30 2195 H 205.98 1.18879 -0.812642 0
M  V30 2196 H 207.933 4.21396 0.0184278 0
M  V30 2197 H 206.657 3.1863 0.717113 0
M  V30 2198 H 205.316 3.38564 -1.40606 0
M  V30 2199 H 204.964 5.00856 0.463976 0
M  V30 2200 H 204.664 5.76844 -1.11912 0
M  V30 2201 H 206.188 6.10096 -0.248 0
M  V30 2202 H 207.602 5.23093 -2.3462 0
M  V30 2203 H 205.999 5.1203 -3.12962 0
M  V30 2204 H 207.069 3.70676 -3.12614 0
M  V30 2205 N 208.412 0.89855 1.29475 0
M  V30 2206 C 209.652 0.530771 1.97388 0
M  V30 2207 C 210.016 -0.905832 1.69289 0
M  V30 2208 O 211.217 -1.38042 2.30646 0
M  V30 2209 C 209.488 0.81369 3.48014 0
M  V30 2210 S 211.047 0.550048 4.35339 0
M  V30 2211 H 207.865 0.196956 0.683176 0
M  V30 2212 H 210.467 1.16074 1.57312 0
M  V30 2213 H 209.171 1.85749 3.65958 0
M  V30 2214 H 208.702 0.171795 3.93025 0
M  V30 2215 H 210.717 -0.605423 4.92493 0
M  V30 2216 N 209.89 -1.43072 0.660911 0
M  V30 2217 C 210.837 -2.30785 -0.0259884 0
M  V30 2218 C 211.807 -1.45184 -0.806888 0
M  V30 2219 O 212.992 -1.74041 -0.781943 0
M  V30 2220 C 210.132 -3.30861 -0.981067 0
M  V30 2221 C 209.245 -4.31558 -0.195458 0
M  V30 2222 C 208.38 -5.18712 -1.14503 0
M  V30 2223 C 207.419 -6.11097 -0.350299 0
M  V30 2224 N 206.556 -6.90849 -1.25186 0
M  V30 2225 H 211.396 -2.88975 0.727846 0
M  V30 2226 H 208.933 -1.42353 0.370682 0
M  V30 2227 H 210.891 -3.87399 -1.54849 0
M  V30 2228 H 209.521 -2.74304 -1.70169 0
M  V30 2229 H 208.573 -3.77252 0.488374 0
M  V30 2230 H 209.885 -4.9701 0.422176 0
M  V30 2231 H 209.039 -5.79914 -1.78284 0
M  V30 2232 H 207.778 -4.53404 -1.79656 0
M  V30 2233 H 206.783 -5.48976 0.300808 0
M  V30 2234 H 208.008 -6.7845 0.296941 0
M  V30 2235 H 205.954 -6.28182 -1.89005 0
M  V30 2236 H 205.871 -7.52854 -0.688971 0
M  V30 2237 H 207.139 -7.5655 -1.87757 0
M  V30 2238 N 211.368 -0.403325 -1.52352 0
M  V30 2239 C 212.3 0.4603 -2.2453 0
M  V30 2240 C 213.313 1.01505 -1.27282 0
M  V30 2241 O 214.502 0.914982 -1.53266 0
M  V30 2242 C 211.602 1.65208 -2.95905 0
M  V30 2243 C 210.775 1.22224 -4.19976 0
M  V30 2244 C 209.834 2.28028 -4.74226 0
M  V30 2245 O 208.86 1.88857 -5.36956 0
M  V30 2246 N 210.062 3.6012 -4.55295 0
M  V30 2247 H 212.827 -0.158156 -2.99282 0
M  V30 2248 H 210.388 -0.230402 -1.60252 0
M  V30 2249 H 212.38 2.35541 -3.29093 0
M  V30 2250 H 210.95 2.17658 -2.24374 0
M  V30 2251 H 210.17 0.34725 -3.92668 0
M  V30 2252 H 211.458 0.911924 -5.00561 0
M  V30 2253 H 210.856 3.94698 -4.05253 0
M  V30 2254 H 209.413 4.26447 -4.92936 0
M  V30 2255 N 212.846 1.57033 -0.133567 0
M  V30 2256 C 213.756 2.19632 0.824564 0
M  V30 2257 C 214.772 1.17666 1.28182 0
M  V30 2258 O 215.948 1.50193 1.3418 0
M  V30 2259 C 213.013 2.79499 2.05137 0
M  V30 2260 C 212.074 3.96548 1.64464 0
M  V30 2261 C 211.307 4.5355 2.81297 0
M  V30 2262 O 211.53 4.09438 3.97136 0
M  V30 2263 O 210.464 5.44018 2.57542 0
M  V30 2264 H 214.29 3.01991 0.321766 0
M  V30 2265 H 211.875 1.49112 0.0927889 0
M  V30 2266 H 213.757 3.17602 2.7696 0
M  V30 2267 H 212.432 2.00162 2.54395 0
M  V30 2268 H 211.339 3.63186 0.897048 0
M  V30 2269 H 212.672 4.77364 1.19934 0
M  V30 2270 N 214.325 -0.140222 1.56975 0
M  V30 2271 C 215.573 -0.850005 1.83356 0
M  V30 2272 C 215.894 -1.81399 0.71551 0
M  V30 2273 O 215.164 -1.94136 -0.262294 0
M  V30 2274 H 213.744 -0.316886 0.676456 0
M  V30 2275 H 216.406 -0.132608 1.94448 0
M  V30 2276 H 215.502 -1.40814 2.78528 0
M  V30 2277 N 215.803 -1.52179 -0.40978 0
M  V30 2278 C 217.052 -1.65434 -1.15388 0
M  V30 2279 C 217.365 -0.390056 -1.91671 0
M  V30 2280 O 218.571 -0.402399 -2.68501 0
M  V30 2281 C 217.027 -2.92279 -2.10003 0
M  V30 2282 C 216.635 -4.25813 -1.39239 0
M  V30 2283 C 218.379 -3.14897 -2.84675 0
M  V30 2284 C 216.286 -5.43782 -2.32498 0
M  V30 2285 H 215.216 -0.616267 -0.434432 0
M  V30 2286 H 217.867 -1.78666 -0.418401 0
M  V30 2287 H 216.249 -2.72744 -2.871 0
M  V30 2288 H 217.423 -4.55828 -0.675099 0
M  V30 2289 H 215.738 -4.09292 -0.766097 0
M  V30 2290 H 218.335 -4.0021 -3.54593 0
M  V30 2291 H 218.678 -2.29103 -3.47588 0
M  V30 2292 H 219.211 -3.34901 -2.14677 0
M  V30 2293 H 215.95 -6.3192 -1.74233 0
M  V30 2294 H 215.47 -5.18106 -3.02201 0
M  V30 2295 H 217.149 -5.76834 -2.93038 0
M  V30 2296 N 217.281 0.66697 -1.42791 0
M  V30 2297 C 218.53 1.42278 -1.42968 0
M  V30 2298 C 218.843 1.9553 -0.0524489 0
M  V30 2299 O 220.049 2.71414 0.068363 0
M  V30 2300 C 218.505 2.57418 -2.51524 0
M  V30 2301 C 218.113 2.10832 -3.9529 0
M  V30 2302 C 219.857 3.34878 -2.60877 0
M  V30 2303 C 217.764 3.23101 -4.95338 0
M  V30 2304 H 216.694 0.534533 -0.531781 0
M  V30 2305 H 219.345 0.721302 -1.68729 0
M  V30 2306 H 217.727 3.29971 -2.18941 0
M  V30 2307 H 218.901 1.4538 -4.37266 0
M  V30 2308 H 217.216 1.46289 -3.89857 0
M  V30 2309 H 219.813 4.18505 -3.32802 0
M  V30 2310 H 220.156 3.81993 -1.6549 0
M  V30 2311 H 220.689 2.69398 -2.92693 0
M  V30 2312 H 217.428 2.80969 -5.9223 0
M  V30 2313 H 216.948 3.87309 -4.57987 0
M  V30 2314 H 218.627 3.88447 -5.17415 0
M  V30 2315 N 218.759 1.29093 0.90403 0
M  V30 2316 C 220.006 1.16813 1.65411 0
M  V30 2317 C 220.334 -0.28128 1.92455 0
M  V30 2318 O 219.589 -1.22006 1.53013 0
M  V30 2319 C 219.888 1.92224 3.01305 0
M  V30 2320 C 219.554 3.41968 2.93885 0
M  V30 2321 C 218.216 3.82807 2.91569 0
M  V30 2322 C 220.568 4.37409 2.83413 0
M  V30 2323 C 217.896 5.1741 2.76594 0
M  V30 2324 C 220.248 5.72097 2.69977 0
M  V30 2325 C 218.912 6.12199 2.66024 0
M  V30 2326 H 218.182 0.42745 0.605283 0
M  V30 2327 H 220.829 1.59981 1.05254 0
M  V30 2328 H 219.134 1.41635 3.65304 0
M  V30 2329 H 220.831 1.80131 3.58265 0
M  V30 2330 H 217.421 3.09504 2.96488 0
M  V30 2331 H 221.605 4.06813 2.84283 0
M  V30 2332 H 216.861 5.47596 2.71935 0
M  V30 2333 H 221.035 6.45704 2.60844 0
M  V30 2334 H 218.662 7.16448 2.54178 0
M  V30 2335 N 220.237 -1.11381 1.11499 0
M  V30 2336 C 221.486 -1.82494 0.858993 0
M  V30 2337 C 221.799 -1.85605 -0.617278 0
M  V30 2338 O 223.005 -2.52824 -0.989552 0
M  V30 2339 C 221.461 -3.27745 1.48699 0
M  V30 2340 C 221.069 -3.32961 2.99735 0
M  V30 2341 C 222.813 -4.03754 1.31085 0
M  V30 2342 C 220.72 -4.72612 3.55516 0
M  V30 2343 H 219.65 -0.683802 0.317696 0
M  V30 2344 H 222.301 -1.25331 1.34031 0
M  V30 2345 H 220.683 -3.84844 0.933339 0
M  V30 2346 H 221.857 -2.85741 3.61509 0
M  V30 2347 H 220.172 -2.70433 3.16631 0
M  V30 2348 H 222.769 -5.06891 1.70192 0
M  V30 2349 H 223.112 -4.15527 0.253496 0
M  V30 2350 H 223.645 -3.53043 1.83318 0
M  V30 2351 H 220.384 -4.66036 4.60967 0
M  V30 2352 H 219.904 -5.2024 2.98513 0
M  V30 2353 H 221.583 -5.4157 3.53992 0
M  V30 2354 N 221.715 -0.905404 -1.28997 0
M  V30 2355 C 222.963 -0.533192 -1.9494 0
M  V30 2356 C 223.284 0.924618 -1.71685 0
M  V30 2357 O 222.554 1.65268 -1.05183 0
M  V30 2358 H 221.134 -0.194194 -0.721317 0
M  V30 2359 H 223.796 -1.15294 -1.57141 0
M  V30 2360 H 222.892 -0.72059 -3.03667 0
M  V30 2361 N 223.193 1.4272 -0.668489 0
M  V30 2362 C 224.604 1.84793 -0.266151 0
M  V30 2363 C 224.955 1.55959 1.19043 0
M  V30 2364 O 224.08 1.01622 1.91055 0
M  V30 2365 C 224.675 3.35436 -0.476271 0
M  V30 2366 C 223.234 3.76182 -0.128113 0
M  V30 2367 C 222.381 2.66344 -0.771777 0
M  V30 2368 H 225.332 1.32656 -0.871098 0
M  V30 2369 H 225.353 3.79515 0.273561 0
M  V30 2370 H 224.865 3.5639 -1.53647 0
M  V30 2371 H 222.966 3.60836 0.928891 0
M  V30 2372 H 223.079 4.75766 -0.564231 0
M  V30 2373 H 221.443 2.53885 -0.203652 0
M  V30 2374 H 222.226 2.90123 -1.83531 0
M  V30 2375 N 224.671 0.411399 1.52136 0
M  V30 2376 C 226.082 -0.0576826 1.86611 0
M  V30 2377 C 226.433 -1.44238 1.33003 0
M  V30 2378 O 225.558 -2.05759 0.670228 0
M  V30 2379 C 226.153 -0.111448 3.38617 0
M  V30 2380 C 224.712 -0.52487 3.72723 0
M  V30 2381 C 223.859 0.299176 2.75681 0
M  V30 2382 H 226.81 0.628368 1.4573 0
M  V30 2383 H 226.831 -0.926252 3.69054 0
M  V30 2384 H 226.343 0.896488 3.77604 0
M  V30 2385 H 224.444 -1.53936 3.39315 0
M  V30 2386 H 224.557 -0.267681 4.78352 0
M  V30 2387 H 222.921 -0.238814 2.53578 0
M  V30 2388 H 223.704 1.3055 3.17508 0
M  V30 2389 N 226.149 -1.5696 0.141893 0
M  V30 2390 C 227.56 -1.82797 -0.379776 0
M  V30 2391 C 227.911 -1.06033 -1.6508 0
M  V30 2392 O 227.036 -0.304011 -2.14254 0
M  V30 2393 C 227.631 -3.31578 -0.695802 0
M  V30 2394 C 226.19 -3.58014 -1.16201 0
M  V30 2395 C 225.337 -2.76699 -0.182455 0
M  V30 2396 H 228.288 -1.54406 0.366675 0
M  V30 2397 H 228.309 -3.47454 -1.55099 0
M  V30 2398 H 227.821 -3.87421 0.229449 0
M  V30 2399 H 225.922 -3.07553 -2.10338 0
M  V30 2400 H 226.035 -4.66501 -1.09151 0
M  V30 2401 H 224.399 -2.45618 -0.674072 0
M  V30 2402 H 225.182 -3.35311 0.736297 0
M  V30 2403 N 227.627 0.131896 -1.57047 0
M  V30 2404 C 228.852 0.860418 -1.8871 0
M  V30 2405 C 229.277 1.73251 -0.73251 0
M  V30 2406 O 228.635 1.785 0.317429 0
M  V30 2407 C 228.683 1.68047 -3.19049 0
M  V30 2408 O 227.787 2.7862 -3.04047 0
M  V30 2409 H 227.128 0.238743 -0.619595 0
M  V30 2410 H 229.658 0.118169 -2.04258 0
M  V30 2411 H 229.668 2.07238 -3.51449 0
M  V30 2412 H 228.343 1.04018 -4.02682 0
M  V30 2413 H 226.92 2.42726 -2.83088 0
M  V30 2414 N 229.106 1.52395 0.401703 0
M  V30 2415 C 230.069 1.75636 1.47257 0
M  V30 2416 C 231.069 0.62628 1.48103 0
M  V30 2417 O 232.259 0.894227 1.49497 0
M  V30 2418 C 229.391 1.84553 2.86624 0
M  V30 2419 H 230.584 2.71241 1.27938 0
M  V30 2420 H 228.137 1.42923 0.632662 0
M  V30 2421 H 228.872 0.908882 3.11303 0
M  V30 2422 H 228.657 2.66715 2.87412 0
M  V30 2423 H 230.147 2.04251 3.64241 0
M  V30 2424 N 230.584 -0.659388 1.43143 0
M  V30 2425 C 231.833 -1.41518 1.43721 0
M  V30 2426 C 232.146 -1.95499 0.0628176 0
M  V30 2427 O 233.352 -2.71446 -0.0539683 0
M  V30 2428 C 231.808 -2.5608 2.52885 0
M  V30 2429 C 231.416 -2.08733 3.96402 0
M  V30 2430 C 233.16 -3.3349 2.62649 0
M  V30 2431 C 231.067 -3.20469 4.97045 0
M  V30 2432 H 229.997 -0.531705 0.534608 0
M  V30 2433 H 232.648 -0.712343 1.69109 0
M  V30 2434 H 231.03 -3.28805 2.20688 0
M  V30 2435 H 232.204 -1.43059 4.3803 0
M  V30 2436 H 230.519 -1.44219 3.90627 0
M  V30 2437 H 233.116 -4.16734 3.35017 0
M  V30 2438 H 233.459 -3.8111 1.67513 0
M  V30 2439 H 233.992 -2.67842 2.94118 0
M  V30 2440 H 230.731 -2.77824 5.93712 0
M  V30 2441 H 230.251 -3.84874 4.60034 0
M  V30 2442 H 231.93 -3.85698 5.19467 0
M  V30 2443 N 232.062 -1.29571 -0.897171 0
M  V30 2444 C 233.478 -1.07637 -1.17841 0
M  V30 2445 C 233.678 0.170713 -2.00776 0
M  V30 2446 O 232.734 0.867768 -2.3712 0
M  V30 2447 C 234.047 -2.3332 -1.8969 0
M  V30 2448 C 235.595 -2.38664 -2.02505 0
M  V30 2449 C 236.07 -3.64157 -2.77765 0
M  V30 2450 N 237.561 -3.64894 -2.85318 0
M  V30 2451 C 238.296 -4.58679 -3.44094 0
M  V30 2452 N 237.792 -5.62799 -4.04017 0
M  V30 2453 N 239.585 -4.46245 -3.41793 0
M  V30 2454 H 231.736 -2.09598 -0.343883 0
M  V30 2455 H 233.999 -0.923333 -0.214848 0
M  V30 2456 H 233.705 -3.24262 -1.36187 0
M  V30 2457 H 233.579 -2.41025 -2.9015 0
M  V30 2458 H 235.966 -1.48208 -2.55183 0
M  V30 2459 H 236.047 -2.34943 -1.01171 0
M  V30 2460 H 235.691 -4.54965 -2.25763 0
M  V30 2461 H 235.621 -3.65137 -3.7945 0
M  V30 2462 H 238.112 -2.89613 -2.42761 0
M  V30 2463 H 238.425 -6.3048 -4.46895 0
M  V30 2464 H 236.77 -5.66605 -4.02472 0
M  V30 2465 H 239.961 -3.64094 -2.94199 0
M  V30 2466 H 240.134 -5.19518 -3.87304 0
M  V30 2467 N 233.54 1.10788 -1.12088 0
M  V30 2468 C 234.817 1.79136 -0.785476 0
M  V30 2469 C 235.197 1.98246 0.725377 0
M  V30 2470 O 234.545 1.57258 1.65778 0
M  V30 2471 C 234.755 3.12375 -1.55636 0
M  V30 2472 C 236.103 3.8731 -1.74001 0
M  V30 2473 O 237.127 3.22085 -1.52117 0
M  V30 2474 O 235.986 5.04369 -2.10415 0
M  V30 2475 H 233.08 0.776226 -0.285311 0
M  V30 2476 H 235.626 1.1747 -1.2247 0
M  V30 2477 H 234.398 2.93863 -2.5838 0
M  V30 2478 H 234.021 3.81758 -1.11114 0
M  V30 2479 N 235.018 0.912232 1.28515 0
M  V30 2480 C 235.951 0.343928 2.25593 0
M  V30 2481 C 236.929 -0.550994 1.5298 0
M  V30 2482 O 238.113 -0.494991 1.81885 0
M  V30 2483 C 235.24 -0.508525 3.34861 0
M  V30 2484 C 234.286 0.320808 4.25292 0
M  V30 2485 S 235.119 1.72658 5.06902 0
M  V30 2486 C 236.275 0.881394 6.19663 0
M  V30 2487 H 236.508 1.16674 2.73449 0
M  V30 2488 H 234.041 0.713384 1.36931 0
M  V30 2489 H 235.999 -0.994539 3.9827 0
M  V30 2490 H 234.66 -1.30571 2.85675 0
M  V30 2491 H 233.853 -0.330941 5.02912 0
M  V30 2492 H 233.455 0.74042 3.66598 0
M  V30 2493 H 235.747 0.110359 6.7741 0
M  V30 2494 H 236.69 1.63009 6.89082 0
M  V30 2495 H 237.098 0.430239 5.62858 0
M  V30 2496 N 236.496 -1.42363 0.676048 0
M  V30 2497 C 237.744 -2.01123 0.198437 0
M  V30 2498 C 238.065 -1.53731 -1.19966 0
M  V30 2499 O 237.335 -0.759518 -1.80577 0
M  V30 2500 H 235.915 -0.743678 0.0703721 0
M  V30 2501 H 238.577 -1.74263 0.872837 0
M  V30 2502 H 237.673 -3.11454 0.200686 0
M  V30 2503 N 237.974 -0.419461 -1.51915 0
M  V30 2504 C 239.223 0.154346 -2.01109 0
M  V30 2505 C 239.536 1.45338 -1.30905 0
M  V30 2506 O 240.742 2.10906 -1.7097 0
M  V30 2507 C 239.198 0.325615 -3.58424 0
M  V30 2508 C 238.806 -0.961934 -4.37551 0
M  V30 2509 C 240.55 0.854155 -4.15818 0
M  V30 2510 C 238.457 -0.757287 -5.86531 0
M  V30 2511 H 237.387 0.0614563 -0.751491 0
M  V30 2512 H 240.038 -0.54649 -1.75173 0
M  V30 2513 H 238.42 1.08903 -3.80731 0
M  V30 2514 H 239.594 -1.7323 -4.26999 0
M  V30 2515 H 237.909 -1.41766 -3.91524 0
M  V30 2516 H 240.506 1.02346 -5.24814 0
M  V30 2517 H 240.849 1.83172 -3.73837 0
M  V30 2518 H 241.382 0.149528 -3.97519 0
M  V30 2519 H 238.121 -1.70671 -6.32892 0
M  V30 2520 H 237.641 -0.0264061 -5.99794 0
M  V30 2521 H 239.32 -0.403482 -6.45741 0
M  V30 2522 N 239.452 1.56882 -0.150215 0
M  V30 2523 C 240.399 2.16922 0.788244 0
M  V30 2524 C 241.369 1.10303 1.24187 0
M  V30 2525 O 242.554 1.38359 1.31383 0
M  V30 2526 C 239.694 2.79754 2.02068 0
M  V30 2527 C 238.807 4.00775 1.61257 0
M  V30 2528 C 237.942 4.51595 2.79705 0
M  V30 2529 C 236.981 5.65074 2.35282 0
M  V30 2530 N 236.118 6.10499 3.4675 0
M  V30 2531 H 240.958 2.96779 0.269444 0
M  V30 2532 H 238.495 1.46599 0.12128 0
M  V30 2533 H 240.453 3.14329 2.74323 0
M  V30 2534 H 239.083 2.02536 2.51354 0
M  V30 2535 H 238.135 3.72158 0.787553 0
M  V30 2536 H 239.447 4.82978 1.24633 0
M  V30 2537 H 238.601 4.88242 3.60145 0
M  V30 2538 H 237.34 3.68406 3.19576 0
M  V30 2539 H 236.345 5.28 1.53283 0
M  V30 2540 H 237.57 6.50052 1.96493 0
M  V30 2541 H 235.516 5.30243 3.86236 0
M  V30 2542 H 235.433 6.87637 3.14152 0
M  V30 2543 H 236.701 6.51791 4.27537 0
M  V30 2544 N 240.93 -0.123565 1.57115 0
M  V30 2545 C 242.155 -0.850398 1.89164 0
M  V30 2546 C 242.58 -1.7286 0.741688 0
M  V30 2547 O 241.938 -1.78665 -0.307958 0
M  V30 2548 C 241.986 -1.66353 3.19936 0
M  V30 2549 O 241.09 -2.77004 3.0552 0
M  V30 2550 H 240.431 -0.235454 0.620852 0
M  V30 2551 H 242.961 -0.107335 2.04318 0
M  V30 2552 H 242.971 -2.05372 3.52543 0
M  V30 2553 H 241.646 -1.01881 4.03228 0
M  V30 2554 H 240.223 -2.41221 2.84371 0
M  V30 2555 N 242.408 -1.52605 -0.393616 0
M  V30 2556 C 243.636 -1.71294 -1.16043 0
M  V30 2557 C 244.051 -0.429259 -1.83855 0
M  V30 2558 O 243.408 0.595921 -1.72496 0
M  V30 2559 C 243.459 -2.8593 -2.21193 0
M  V30 2560 O 243.18 -4.09329 -1.56146 0
M  V30 2561 C 244.681 -3.16259 -3.10636 0
M  V30 2562 H 241.901 -0.573641 -0.348104 0
M  V30 2563 H 244.445 -1.99234 -0.461092 0
M  V30 2564 H 242.6 -2.60465 -2.86769 0
M  V30 2565 H 243.014 -4.73323 -2.25978 0
M  V30 2566 H 244.488 -3.99946 -3.80456 0
M  V30 2567 H 244.965 -2.3045 -3.73884 0
M  V30 2568 H 245.571 -3.43547 -2.50711 0
M  V30 2569 N 243.887 0.651787 -1.4349 0
M  V30 2570 C 245.112 1.44434 -1.48841 0
M  V30 2571 C 245.537 1.8779 -0.107955 0
M  V30 2572 O 244.895 1.57464 0.898602 0
M  V30 2573 C 244.943 2.65458 -2.44059 0
M  V30 2574 O 244.047 3.64566 -1.92784 0
M  V30 2575 H 243.388 0.433005 -0.503391 0
M  V30 2576 H 245.918 0.797451 -1.88419 0
M  V30 2577 H 245.928 3.13255 -2.6141 0
M  V30 2578 H 244.603 2.33244 -3.4434 0
M  V30 2579 H 243.18 3.23716 -1.851 0
M  V30 2580 N 245.365 1.30045 0.890287 0
M  V30 2581 C 246.312 1.15976 1.99545 0
M  V30 2582 C 247.282 0.0506202 1.66023 0
M  V30 2583 O 248.467 0.219847 1.89529 0
M  V30 2584 C 245.607 0.852054 3.34416 0
M  V30 2585 C 244.72 2.04255 3.80662 0
M  V30 2586 C 243.855 1.6734 5.04154 0
M  V30 2587 C 242.894 2.82916 5.42794 0
M  V30 2588 N 242.031 2.46333 6.57468 0
M  V30 2589 H 246.871 2.10524 2.10911 0
M  V30 2590 H 244.408 1.04749 1.03276 0
M  V30 2591 H 246.366 0.654296 4.12037 0
M  V30 2592 H 244.996 -0.0565502 3.2275 0
M  V30 2593 H 244.048 2.35172 2.98995 0
M  V30 2594 H 245.36 2.90826 4.05242 0
M  V30 2595 H 244.514 1.43908 5.89386 0
M  V30 2596 H 243.253 0.779308 4.81433 0
M  V30 2597 H 242.258 3.0702 4.56091 0
M  V30 2598 H 243.483 3.73004 5.6749 0
M  V30 2599 H 241.429 1.59423 6.36334 0
M  V30 2600 H 241.346 3.26436 6.81891 0
M  V30 2601 H 242.614 2.26244 7.45945 0
M  V30 2602 N 246.843 -1.10192 1.12674 0
M  V30 2603 C 248.068 -1.86523 0.906853 0
M  V30 2604 C 248.493 -1.80221 -0.538711 0
M  V30 2605 O 247.851 -1.17396 -1.38158 0
M  V30 2606 C 247.899 -3.32758 1.3894 0
M  V30 2607 O 247.003 -4.08449 0.5695 0
M  V30 2608 H 246.344 -0.578678 0.325619 0
M  V30 2609 H 248.874 -1.39203 1.49946 0
M  V30 2610 H 248.884 -3.83608 1.38958 0
M  V30 2611 H 247.559 -3.36661 2.44197 0
M  V30 2612 H 246.136 -3.67427 0.636528 0
M  V30 2613 N 248.321 -0.919034 -1.28029 0
M  V30 2614 C 249.57 -0.550802 -1.94034 0
M  V30 2615 C 249.883 0.910877 -1.73096 0
M  V30 2616 O 251.089 1.3875 -2.33368 0
M  V30 2617 C 249.545 -0.934249 -3.47563 0
M  V30 2618 C 249.153 -2.41602 -3.7727 0
M  V30 2619 C 250.897 -0.636854 -4.19696 0
M  V30 2620 C 248.804 -2.73932 -5.24133 0
M  V30 2621 H 247.734 -0.202273 -0.726362 0
M  V30 2622 H 250.385 -1.11867 -1.45458 0
M  V30 2623 H 248.767 -0.295115 -3.94899 0
M  V30 2624 H 249.941 -3.10233 -3.40723 0
M  V30 2625 H 248.256 -2.68441 -3.18321 0
M  V30 2626 H 250.853 -0.855005 -5.2782 0
M  V30 2627 H 251.196 0.425575 -4.14119 0
M  V30 2628 H 251.729 -1.23469 -3.78154 0
M  V30 2629 H 248.468 -3.79049 -5.34792 0
M  V30 2630 H 247.988 -2.09942 -5.61858 0
M  V30 2631 H 249.667 -2.61215 -5.91925 0
M  V30 2632 N 249.799 1.42003 -0.683588 0
M  V30 2633 C 250.732 2.28166 0.039592 0
M  V30 2634 C 251.71 1.41562 0.799942 0
M  V30 2635 O 252.894 1.70997 0.793248 0
M  V30 2636 C 250.021 3.21575 1.06335 0
M  V30 2637 C 249.067 4.24643 0.397562 0
M  V30 2638 S 249.9 5.2869 -0.851296 0
M  V30 2639 C 251.056 6.25666 0.171166 0
M  V30 2640 H 251.289 2.89153 -0.691229 0
M  V30 2641 H 248.822 1.46962 -0.473435 0
M  V30 2642 H 250.78 3.75928 1.6489 0
M  V30 2643 H 249.441 2.59707 1.76667 0
M  V30 2644 H 248.634 4.90223 1.17035 0
M  V30 2645 H 248.236 3.73824 -0.114611 0
M  V30 2646 H 250.528 6.69653 1.02819 0
M  V30 2647 H 251.471 7.06666 -0.450397 0
M  V30 2648 H 251.879 5.62095 0.520578 0
M  V30 2649 N 251.277 0.427512 1.51691 0
M  V30 2650 C 252.24 -0.377132 2.26076 0
M  V30 2651 C 253.24 -0.958089 1.29141 0
M  V30 2652 O 254.43 -0.83408 1.52934 0
M  V30 2653 C 251.562 -1.53262 3.04506 0
M  V30 2654 H 252.755 0.27464 2.9864 0
M  V30 2655 H 250.308 0.180445 1.55255 0
M  V30 2656 H 251.043 -2.22072 2.36335 0
M  V30 2657 H 250.828 -1.12232 3.75694 0
M  V30 2658 H 252.318 -2.10135 3.60878 0
M  V30 2659 N 252.755 -1.56801 0.158532 0
M  V30 2660 C 253.718 -2.16138 -0.762705 0
M  V30 2661 C 254.718 -1.1061 -1.16713 0
M  V30 2662 O 255.908 -1.36191 -1.08617 0
M  V30 2663 C 253.04 -2.73386 -2.03649 0
M  V30 2664 H 254.233 -2.98886 -0.246354 0
M  V30 2665 H 251.786 -1.56035 -0.0909744 0
M  V30 2666 H 252.521 -1.94335 -2.59623 0
M  V30 2667 H 252.306 -3.50601 -1.75559 0
M  V30 2668 H 253.796 -3.19065 -2.6942 0
M  V30 2669 N 254.233 0.115231 -1.57178 0
M  V30 2670 C 255.196 1.12526 -1.99676 0
M  V30 2671 C 256.196 1.34095 -0.88742 0
M  V30 2672 O 257.386 1.30548 -1.15337 0
M  V30 2673 C 254.518 2.4789 -2.34015 0
M  V30 2674 H 255.711 0.759912 -2.90113 0
M  V30 2675 H 253.264 0.359648 -1.52106 0
M  V30 2676 H 253.999 2.89339 -1.4647 0
M  V30 2677 H 253.784 2.33588 -3.14927 0
M  V30 2678 H 255.274 3.20575 -2.67622 0
M  V30 2679 N 255.711 1.52812 0.385517 0
M  V30 2680 C 256.959 1.67694 1.12797 0
M  V30 2681 C 257.28 0.421115 1.90399 0
M  V30 2682 O 256.55 -0.564551 1.87589 0
M  V30 2683 H 255.13 0.618155 0.419396 0
M  V30 2684 H 257.792 1.89938 0.436972 0
M  V30 2685 H 256.888 2.52896 1.82894 0
M  V30 2686 N 257.189 -0.644168 1.43834 0
M  V30 2687 C 258.435 -1.40603 1.46146 0
M  V30 2688 C 258.768 -1.93997 0.0887717 0
M  V30 2689 O 258.043 -1.72854 -0.891724 0
M  V30 2690 C 258.326 -2.58086 2.51124 0
M  V30 2691 C 258.179 -2.10126 3.97702 0
M  V30 2692 C 259.498 -3.60291 2.52742 0
M  V30 2693 H 256.617 -0.509905 0.532134 0
M  V30 2694 H 259.259 -0.729502 1.75437 0
M  V30 2695 H 257.409 -3.15801 2.26278 0
M  V30 2696 H 259.081 -1.57342 4.33637 0
M  V30 2697 H 257.324 -1.41419 4.10101 0
M  V30 2698 H 257.995 -2.94649 4.66783 0
M  V30 2699 H 260.471 -3.12352 2.7491 0
M  V30 2700 H 259.347 -4.40032 3.28121 0
M  V30 2701 H 259.608 -4.1349 1.56455 0
M  V30 2702 N 258.668 -1.30515 -0.883378 0
M  V30 2703 C 260.079 -1.17509 -1.45081 0
M  V30 2704 C 260.43 0.223605 -1.94922 0
M  V30 2705 O 259.555 1.12041 -1.85137 0
M  V30 2706 C 260.15 -2.12715 -2.63701 0
M  V30 2707 C 258.709 -2.03682 -3.16529 0
M  V30 2708 C 257.856 -2.02706 -1.89224 0
M  V30 2709 H 260.807 -1.42762 -0.693165 0
M  V30 2710 H 260.828 -1.70891 -3.39965 0
M  V30 2711 H 260.34 -3.14505 -2.27395 0
M  V30 2712 H 258.441 -1.05039 -3.57488 0
M  V30 2713 H 258.554 -2.92146 -3.7972 0
M  V30 2714 H 256.918 -1.4753 -2.07622 0
M  V30 2715 H 257.701 -3.06229 -1.55174 0
M  V30 2716 N 260.146 1.09593 -1.13257 0
M  V30 2717 C 261.392 1.82003 -0.89458 0
M  V30 2718 C 261.725 1.85402 0.577906 0
M  V30 2719 O 261 1.32099 1.42759 0
M  V30 2720 C 261.283 3.28237 -1.48096 0
M  V30 2721 C 261.136 3.3312 -3.02244 0
M  V30 2722 C 262.455 4.24871 -1.14774 0
M  V30 2723 H 259.574 0.66077 -0.326424 0
M  V30 2724 H 262.216 1.28389 -1.40058 0
M  V30 2725 H 260.366 3.74024 -1.05062 0
M  V30 2726 H 262.038 2.95748 -3.54021 0
M  V30 2727 H 260.281 2.72756 -3.37323 0
M  V30 2728 H 260.952 4.3613 -3.38371 0
M  V30 2729 H 263.428 3.87361 -1.51957 0
M  V30 2730 H 262.304 5.25532 -1.58452 0
M  V30 2731 H 262.565 4.42058 -0.0611849 0
M  V30 2732 N 261.624 0.925811 1.2754 0
M  V30 2733 C 262.87 0.566092 1.94739 0
M  V30 2734 C 263.203 -0.890057 1.72603 0
M  V30 2735 O 262.478 -1.63467 1.05399 0
M  V30 2736 C 262.761 0.89054 3.48915 0
M  V30 2737 C 262.614 2.4003 3.80402 0
M  V30 2738 C 263.933 0.395101 4.38323 0
M  V30 2739 H 261.052 0.20714 0.707292 0
M  V30 2740 H 263.694 1.15725 1.50691 0
M  V30 2741 H 261.844 0.387452 3.86563 0
M  V30 2742 H 263.516 2.97494 3.52555 0
M  V30 2743 H 261.759 2.85028 3.2702 0
M  V30 2744 H 262.43 2.57785 4.8811 0
M  V30 2745 H 264.906 0.826241 4.07814 0
M  V30 2746 H 263.782 0.651086 5.45025 0
M  V30 2747 H 264.043 -0.704798 4.36446 0
M  V30 2748 N 263.102 -1.41638 0.69111 0
M  V30 2749 C 264.012 -2.34588 0.0233487 0
M  V30 2750 C 265.028 -1.55987 -0.770984 0
M  V30 2751 O 266.204 -1.88486 -0.709569 0
M  V30 2752 C 263.269 -3.34684 -0.904851 0
M  V30 2753 C 262.33 -4.29176 -0.103225 0
M  V30 2754 C 261.563 -5.2449 -0.987216 0
M  V30 2755 O 261.786 -5.2514 -2.22674 0
M  V30 2756 O 260.72 -6.00295 -0.439281 0
M  V30 2757 H 264.546 -2.93261 0.789416 0
M  V30 2758 H 262.131 -1.42417 0.45142 0
M  V30 2759 H 264.013 -3.96133 -1.43724 0
M  V30 2760 H 262.688 -2.78461 -1.65049 0
M  V30 2761 H 261.595 -3.71089 0.473655 0
M  V30 2762 H 262.928 -4.88484 0.60365 0
M  V30 2763 N 264.58 -0.43555 -1.51462 0
M  V30 2764 C 265.828 0.131254 -2.01673 0
M  V30 2765 C 266.149 1.43368 -1.32177 0
M  V30 2766 O 265.419 1.90524 -0.455769 0
M  V30 2767 H 263.999 0.0514954 -0.745223 0
M  V30 2768 H 266.661 -0.577847 -1.86137 0
M  V30 2769 H 265.757 0.308446 -3.10572 0
M  V30 2770 N 266.058 1.56714 -0.166846 0
M  V30 2771 C 267.288 2.00828 0.48494 0
M  V30 2772 C 267.696 1.04612 1.57648 0
M  V30 2773 O 267.039 0.0383201 1.8366 0
M  V30 2774 C 267.101 3.4137 1.12723 0
M  V30 2775 C 266.765 4.56654 0.177886 0
M  V30 2776 C 267.762 5.16402 -0.60207 0
M  V30 2777 C 265.447 5.02244 0.0750139 0
M  V30 2778 C 267.441 6.20167 -1.47215 0
M  V30 2779 C 265.128 6.05859 -0.798649 0
M  V30 2780 C 266.126 6.64691 -1.57082 0
M  V30 2781 O 265.814 7.66297 -2.42989 0
M  V30 2782 H 265.546 0.663587 0.128953 0
M  V30 2783 H 268.1 2.03692 -0.264365 0
M  V30 2784 H 266.33 3.35406 1.92457 0
M  V30 2785 H 268.019 3.69466 1.68076 0
M  V30 2786 H 268.785 4.82065 -0.53274 0
M  V30 2787 H 264.664 4.56167 0.665812 0
M  V30 2788 H 268.208 6.66016 -2.07531 0
M  V30 2789 H 264.105 6.39621 -0.869199 0
M  V30 2790 H 264.873 7.83601 -2.36455 0
M  V30 2791 N 267.536 -0.106894 1.57237 0
M  V30 2792 C 268.486 -1.1366 1.9765 0
M  V30 2793 C 269.47 -1.36416 0.853203 0
M  V30 2794 O 270.662 -1.37305 1.11697 0
M  V30 2795 C 267.791 -2.46 2.39455 0
M  V30 2796 C 266.877 -2.26668 3.58445 0
M  V30 2797 N 267.268 -1.77176 4.73754 0
M  V30 2798 C 265.566 -2.57279 3.64312 0
M  V30 2799 C 266.267 -1.71836 5.5574 0
M  V30 2800 N 265.243 -2.16623 4.98573 0
M  V30 2801 H 269.045 -0.74669 2.84256 0
M  V30 2802 H 266.559 -0.314483 1.59326 0
M  V30 2803 H 268.556 -3.2049 2.6663 0
M  V30 2804 H 267.216 -2.85738 1.54219 0
M  V30 2805 H 268.227 -1.46545 4.96734 0
M  V30 2806 H 264.904 -3.00622 2.89711 0
M  V30 2807 H 266.294 -1.34723 6.58255 0
M  V30 2808 N 269.014 -1.53014 -0.377408 0
M  V30 2809 C 270.262 -1.6829 -1.11906 0
M  V30 2810 C 270.583 -0.431206 -1.90173 0
M  V30 2811 O 269.853 0.554595 -1.87886 0
M  V30 2812 H 268.433 -0.620371 -0.416112 0
M  V30 2813 H 271.095 -1.90167 -0.426893 0
M  V30 2814 H 270.191 -2.53862 -1.8155 0
M  V30 2815 N 270.492 0.636531 -1.44174 0
M  V30 2816 C 271.402 1.77754 -1.53103 0
M  V30 2817 C 272.418 1.68928 -0.417034 0
M  V30 2818 O 273.594 1.89801 -0.6736 0
M  V30 2819 C 270.659 3.14115 -1.46741 0
M  V30 2820 C 269.72 3.34612 -2.68948 0
M  V30 2821 C 268.953 4.64467 -2.6288 0
M  V30 2822 O 269.176 5.44919 -1.68581 0
M  V30 2823 O 268.11 4.87049 -3.53648 0
M  V30 2824 H 271.936 1.73174 -2.49489 0
M  V30 2825 H 269.521 0.79709 -1.2636 0
M  V30 2826 H 271.403 3.95412 -1.45696 0
M  V30 2827 H 270.078 3.19249 -0.534975 0
M  V30 2828 H 268.985 2.53014 -2.75562 0
M  V30 2829 H 270.318 3.34336 -3.61221 0
M  V30 2830 N 271.97 1.30982 0.876444 0
M  V30 2831 C 273.247 1.10942 1.61094 0
M  V30 2832 C 273.627 -0.338223 2.08373 0
M  V30 2833 O 272.975 -1.33122 1.85717 0
M  V30 2834 C 273.185 2.11789 2.77392 0
M  V30 2835 C 274.533 2.43965 3.47514 0
M  V30 2836 O 275.557 2.10166 2.87591 0
M  V30 2837 O 274.416 3.01817 4.55597 0
M  V30 2838 H 271.51 0.42667 0.708436 0
M  V30 2839 H 274.056 1.42438 0.922474 0
M  V30 2840 H 272.828 3.09194 2.39823 0
M  V30 2841 H 272.451 1.81161 3.5393 0
M  V30 2842 N 273.449 -1.08991 1.13837 0
M  V30 2843 C 274.381 -2.15606 0.777612 0
M  V30 2844 C 275.394 -1.61533 -0.202739 0
M  V30 2845 O 276.583 -1.78491 0.0181055 0
M  V30 2846 C 273.683 -3.3864 0.132623 0
M  V30 2847 C 272.856 -4.22115 1.1462 0
M  V30 2848 C 271.915 -5.23564 0.526074 0
M  V30 2849 O 270.941 -5.56678 1.18735 0
M  V30 2850 N 272.143 -5.76266 -0.699866 0
M  V30 2851 H 274.908 -2.47159 1.69506 0
M  V30 2852 H 272.469 -1.24747 1.03198 0
M  V30 2853 H 274.461 -4.03626 -0.29459 0
M  V30 2854 H 273.031 -3.04938 -0.687849 0
M  V30 2855 H 272.251 -3.53199 1.75055 0
M  V30 2856 H 273.539 -4.74709 1.83109 0
M  V30 2857 H 272.937 -5.51585 -1.25581 0
M  V30 2858 H 271.494 -6.42963 -1.06968 0
M  V30 2859 N 274.927 -0.932562 -1.27047 0
M  V30 2860 C 276.152 -0.591474 -1.98787 0
M  V30 2861 C 276.577 0.824601 -1.69062 0
M  V30 2862 O 275.935 1.5541 -0.933677 0
M  V30 2863 C 275.983 -0.829808 -3.50922 0
M  V30 2864 O 275.087 0.102266 -4.12273 0
M  V30 2865 H 274.428 -0.227185 -0.623926 0
M  V30 2866 H 276.958 -1.25314 -1.61733 0
M  V30 2867 H 276.968 -0.747292 -4.01098 0
M  V30 2868 H 275.643 -1.86201 -3.7189 0
M  V30 2869 H 274.22 -0.0305761 -3.72887 0
M  V30 2870 N 276.405 1.4127 -0.698611 0
M  V30 2871 C 277.682 1.94955 -0.158762 0
M  V30 2872 C 278.062 1.63781 1.33188 0
M  V30 2873 O 277.41 0.946423 2.07979 0
M  V30 2874 C 277.62 3.46044 -0.453309 0
M  V30 2875 C 278.968 4.22872 -0.382707 0
M  V30 2876 O 279.992 3.54076 -0.388396 0
M  V30 2877 O 278.851 5.45407 -0.345463 0
M  V30 2878 H 275.945 0.82683 -0.0167505 0
M  V30 2879 H 278.491 1.50971 -0.77498 0
M  V30 2880 H 277.263 3.62028 -1.48498 0
M  V30 2881 H 276.886 3.97128 0.19373 0
M  V30 2882 N 277.883 0.443576 1.51229 0
M  V30 2883 C 278.815 -0.400608 2.25672 0
M  V30 2884 C 279.828 -0.980945 1.29928 0
M  V30 2885 O 281.017 -0.874024 1.55638 0
M  V30 2886 C 278.117 -1.57304 3.00181 0
M  V30 2887 C 277.29 -1.11046 4.23069 0
M  V30 2888 C 276.349 -2.15374 4.80105 0
M  V30 2889 O 275.375 -1.74554 5.41774 0
M  V30 2890 N 276.577 -3.47922 4.64683 0
M  V30 2891 H 279.342 0.23745 2.98758 0
M  V30 2892 H 276.903 0.272809 1.59585 0
M  V30 2893 H 278.895 -2.26733 3.35223 0
M  V30 2894 H 277.465 -2.11632 2.30066 0
M  V30 2895 H 276.685 -0.243019 3.9345 0
M  V30 2896 H 277.973 -0.778888 5.02803 0
M  V30 2897 H 277.371 -3.83815 4.15575 0
M  V30 2898 H 275.928 -4.13228 5.0407 0
M  V30 2899 N 279.361 -1.56624 0.175154 0
M  V30 2900 C 280.601 -1.98894 -0.471221 0
M  V30 2901 C 280.965 -1.05889 -1.60161 0
M  V30 2902 O 282.166 -1.37315 -2.3108 0
M  V30 2903 C 280.437 -3.44865 -0.938241 0
M  V30 2904 S 281.996 -4.09164 -1.58526 0
M  V30 2905 H 278.814 -0.694686 -0.151434 0
M  V30 2906 H 281.416 -1.93577 0.27352 0
M  V30 2907 H 280.12 -4.10265 -0.10518 0
M  V30 2908 H 279.651 -3.53956 -1.71693 0
M  V30 2909 H 281.666 -4.04528 -2.87352 0
M  V30 2910 N 280.839 0.0985539 -1.57292 0
M  V30 2911 C 281.769 1.12064 -2.04851 0
M  V30 2912 C 282.75 1.41981 -0.936767 0
M  V30 2913 O 283.935 1.52071 -1.20781 0
M  V30 2914 C 281.065 2.44144 -2.47004 0
M  V30 2915 C 280.019 2.28643 -3.6181 0
M  V30 2916 C 279.345 3.65869 -3.89929 0
M  V30 2917 C 280.645 1.72986 -4.92822 0
M  V30 2918 H 282.339 0.724979 -2.9049 0
M  V30 2919 H 279.885 0.34729 -1.39749 0
M  V30 2920 H 281.838 3.15914 -2.78884 0
M  V30 2921 H 280.562 2.85639 -1.5836 0
M  V30 2922 H 279.221 1.59318 -3.30172 0
M  V30 2923 H 278.869 4.04885 -2.98458 0
M  V30 2924 H 278.569 3.56344 -4.67218 0
M  V30 2925 H 280.093 4.39112 -4.2428 0
M  V30 2926 H 281.507 2.34593 -5.23105 0
M  V30 2927 H 279.904 1.74229 -5.74251 0
M  V30 2928 H 280.974 0.689007 -4.7998 0
M  V30 2929 N 282.317 1.53212 0.369288 0
M  V30 2930 C 283.264 1.79388 1.45219 0
M  V30 2931 C 284.234 0.638059 1.53356 0
M  V30 2932 O 285.419 0.879852 1.69302 0
M  V30 2933 C 282.559 1.98623 2.82211 0
M  V30 2934 C 281.672 3.26337 2.8307 0
M  V30 2935 C 280.807 3.35779 4.11614 0
M  V30 2936 C 279.846 4.5754 4.06601 0
M  V30 2937 N 278.983 4.64155 5.26787 0
M  V30 2938 H 283.823 2.71794 1.22198 0
M  V30 2939 H 281.36 1.34642 0.592444 0
M  V30 2940 H 283.318 2.07761 3.61789 0
M  V30 2941 H 281.948 1.09558 3.03639 0
M  V30 2942 H 281 3.26171 1.95747 0
M  V30 2943 H 282.312 4.15988 2.75237 0
M  V30 2944 H 281.466 3.44208 4.99606 0
M  V30 2945 H 280.205 2.44137 4.22195 0
M  V30 2946 H 279.21 4.49215 3.16996 0
M  V30 2947 H 280.435 5.50519 3.97625 0
M  V30 2948 H 278.381 3.75413 5.3796 0
M  V30 2949 H 278.298 5.47706 5.21109 0
M  V30 2950 H 279.566 4.76863 6.16621 0
M  V30 2951 N 283.795 -0.628877 1.44509 0
M  V30 2952 C 284.705 -1.7694 1.54044 0
M  V30 2953 C 285.721 -1.68705 0.425987 0
M  V30 2954 O 286.897 -1.89442 0.683656 0
M  V30 2955 C 283.962 -3.13332 1.48405 0
M  V30 2956 C 283.023 -3.33181 2.70719 0
M  V30 2957 C 282.256 -4.63067 2.6534 0
M  V30 2958 O 282.479 -5.44017 1.71469 0
M  V30 2959 O 281.413 -4.85167 3.56226 0
M  V30 2960 H 285.239 -1.71848 2.50403 0
M  V30 2961 H 282.824 -0.790378 1.26781 0
M  V30 2962 H 284.706 -3.94634 1.47791 0
M  V30 2963 H 283.381 -3.1896 0.551898 0
M  V30 2964 H 282.288 -2.51549 2.769 0
M  V30 2965 H 283.621 -3.32416 3.62988 0
M  V30 2966 N 285.273 -1.31445 -0.869486 0
M  V30 2967 C 286.223 -1.15731 -1.96444 0
M  V30 2968 C 287.207 -0.0681855 -1.60755 0
M  V30 2969 O 288.399 -0.293154 -1.74555 0
M  V30 2970 C 285.528 -0.867255 -3.32165 0
M  V30 2971 C 284.614 -1.99738 -3.74119 0
M  V30 2972 N 285.005 -3.24447 -3.88031 0
M  V30 2973 C 283.303 -1.89723 -4.03635 0
M  V30 2974 C 284.004 -3.98374 -4.23879 0
M  V30 2975 N 282.98 -3.26547 -4.3459 0
M  V30 2976 H 286.782 -2.10296 -2.05312 0
M  V30 2977 H 284.296 -1.23009 -1.06031 0
M  V30 2978 H 286.293 -0.735668 -4.10358 0
M  V30 2979 H 284.953 0.0701614 -3.24624 0
M  V30 2980 H 285.964 -3.59557 -3.72746 0
M  V30 2981 H 282.641 -1.03449 -4.04481 0
M  V30 2982 H 284.031 -5.05844 -4.42235 0
M  V30 2983 N 286.751 1.08385 -1.14413 0
M  V30 2984 C 287.714 2.13486 -0.834048 0
M  V30 2985 C 288.714 1.59988 0.161418 0
M  V30 2986 O 289.904 1.74071 -0.0669575 0
M  V30 2987 C 287.036 3.4003 -0.243354 0
M  V30 2988 H 288.229 2.42425 -1.7655 0
M  V30 2989 H 285.782 1.24101 -0.950189 0
M  V30 2990 H 286.517 3.16726 0.696807 0
M  V30 2991 H 286.302 3.80157 -0.960367 0
M  V30 2992 H 287.792 4.17577 -0.0436242 0
M  V30 2993 N 288.23 0.939286 1.26551 0
M  V30 2994 C 289.646 0.641304 1.46149 0
M  V30 2995 C 289.846 -0.805964 1.84679 0
M  V30 2996 O 288.902 -1.58278 1.96734 0
M  V30 2997 C 290.215 1.6011 2.54529 0
M  V30 2998 C 291.763 1.6106 2.68382 0
M  V30 2999 C 292.238 2.55765 3.79932 0
M  V30 3000 N 293.729 2.5404 3.87322 0
M  V30 3001 C 294.464 3.24004 4.73085 0
M  V30 3002 N 293.96 4.03388 5.63249 0
M  V30 3003 N 295.753 3.12965 4.66914 0
M  V30 3004 H 287.904 1.87478 0.998285 0
M  V30 3005 H 290.167 0.805559 0.499779 0
M  V30 3006 H 289.873 2.63412 2.33039 0
M  V30 3007 H 289.747 1.35171 3.52149 0
M  V30 3008 H 292.134 0.584835 2.89247 0
M  V30 3009 H 292.215 1.90053 1.71212 0
M  V30 3010 H 291.859 3.58458 3.5982 0
M  V30 3011 H 291.789 2.24063 4.76554 0
M  V30 3012 H 294.28 1.96396 3.22858 0
M  V30 3013 H 294.593 4.5373 6.25579 0
M  V30 3014 H 292.938 4.07489 5.63008 0
M  V30 3015 H 296.129 2.50432 3.95476 0
M  V30 3016 H 296.302 3.67759 5.33533 0
M  V30 3017 N 289.708 -1.40897 0.706093 0
M  V30 3018 C 291.124 -1.55042 0.37869 0
M  V30 3019 C 291.324 -1.67944 -1.11342 0
M  V30 3020 O 290.38 -1.66372 -1.89938 0
M  V30 3021 C 291.693 -2.78398 1.13643 0
M  V30 3022 C 293.241 -2.92206 1.12181 0
M  V30 3023 C 293.716 -4.18463 1.86152 0
M  V30 3024 N 295.207 -4.25443 1.83173 0
M  V30 3025 C 295.942 -5.2202 2.37239 0
M  V30 3026 N 295.438 -6.24563 2.99821 0
M  V30 3027 N 297.231 -5.14033 2.27435 0
M  V30 3028 H 289.382 -1.30769 1.67372 0
M  V30 3029 H 291.645 -0.631653 0.706907 0
M  V30 3030 H 291.351 -2.7511 2.19106 0
M  V30 3031 H 291.225 -3.70228 0.721853 0
M  V30 3032 H 293.612 -2.95004 0.0754171 0
M  V30 3033 H 293.693 -2.01521 1.57554 0
M  V30 3034 H 293.337 -4.16427 2.90776 0
M  V30 3035 H 293.267 -5.08141 1.38206 0
M  V30 3036 H 295.758 -3.51976 1.37556 0
M  V30 3037 H 296.071 -6.94665 3.38616 0
M  V30 3038 H 294.416 -6.25035 3.03902 0
M  V30 3039 H 297.607 -4.3285 1.78208 0
M  V30 3040 H 297.78 -5.89129 2.69873 0
M  V30 3041 N 291.186 -0.45159 -1.50991 0
M  V30 3042 C 292.435 0.111653 -2.01391 0
M  V30 3043 C 292.748 1.42529 -1.33959 0
M  V30 3044 O 293.954 2.07232 -1.75405 0
M  V30 3045 C 292.41 0.249514 -3.59034 0
M  V30 3046 C 292.018 -1.05453 -4.35412 0
M  V30 3047 C 293.762 0.765762 -4.17536 0
M  V30 3048 C 291.669 -0.881529 -5.84793 0
M  V30 3049 H 290.599 0.0455022 -0.752626 0
M  V30 3050 H 293.25 -0.583524 -1.73975 0
M  V30 3051 H 291.632 1.00803 -3.82955 0
M  V30 3052 H 292.806 -1.82248 -4.23229 0
M  V30 3053 H 291.121 -1.50039 -3.88429 0
M  V30 3054 H 293.718 0.911913 -5.26866 0
M  V30 3055 H 294.061 1.75201 -3.77638 0
M  V30 3056 H 294.594 0.0651744 -3.97747 0
M  V30 3057 H 291.333 -1.84057 -6.29129 0
M  V30 3058 H 290.853 -0.153625 -5.99603 0
M  V30 3059 H 292.532 -0.540363 -6.4474 0
M  V30 3060 N 292.664 1.56529 -0.183458 0
M  V30 3061 C 293.912 1.96855 0.457452 0
M  V30 3062 C 294.233 1.07104 1.62953 0
M  V30 3063 O 293.503 0.139887 1.954 0
M  V30 3064 H 292.083 0.72693 0.171992 0
M  V30 3065 H 294.745 1.93056 -0.267476 0
M  V30 3066 H 293.841 3.01423 0.809368 0
M  V30 3067 N 294.142 -0.090211 1.57342 0
M  V30 3068 C 295.372 -0.805055 1.90269 0
M  V30 3069 C 295.78 -1.72561 0.775842 0
M  V30 3070 O 295.123 -1.81839 -0.260843 0
M  V30 3071 C 295.185 -1.66734 3.18497 0
M  V30 3072 C 294.849 -0.918092 4.47683 0
M  V30 3073 C 295.846 -0.245674 5.19319 0
M  V30 3074 C 293.531 -0.890724 4.94339 0
M  V30 3075 C 295.525 0.444088 6.35851 0
M  V30 3076 C 293.212 -0.197179 6.10782 0
M  V30 3077 C 294.21 0.469044 6.81388 0
M  V30 3078 O 293.898 1.15146 7.95611 0
M  V30 3079 H 293.63 -0.235143 0.633785 0
M  V30 3080 H 296.184 -0.0703805 2.05279 0
M  V30 3081 H 294.414 -2.44437 2.99646 0
M  V30 3082 H 296.103 -2.25919 3.37217 0
M  V30 3083 H 296.869 -0.258246 4.84312 0
M  V30 3084 H 292.748 -1.39873 4.39268 0
M  V30 3085 H 296.292 0.964667 6.90898 0
M  V30 3086 H 292.189 -0.18247 6.45242 0
M  V30 3087 H 292.957 1.05885 8.11622 0
M  V30 3088 N 295.62 -1.53406 -0.361157 0
M  V30 3089 C 297.031 -1.61442 -0.937728 0
M  V30 3090 C 297.382 -0.48461 -1.90121 0
M  V30 3091 O 296.507 0.388312 -2.12888 0
M  V30 3092 C 297.102 -2.92624 -1.70753 0
M  V30 3093 C 295.661 -3.02981 -2.23337 0
M  V30 3094 C 294.808 -2.5677 -1.04712 0
M  V30 3095 H 297.759 -1.58083 -0.139816 0
M  V30 3096 H 297.78 -2.80675 -2.56908 0
M  V30 3097 H 297.292 -3.74834 -1.00604 0
M  V30 3098 H 295.393 -2.25368 -2.96715 0
M  V30 3099 H 295.506 -4.0814 -2.50916 0
M  V30 3100 H 293.87 -2.11752 -1.41539 0
M  V30 3101 H 294.653 -3.41402 -0.360539 0
M  V30 3102 N 297.098 0.621204 -1.44841 0
M  V30 3103 C 298.344 1.3826 -1.48365 0
M  V30 3104 C 298.677 1.93831 -0.119624 0
M  V30 3105 O 297.952 1.74251 0.864111 0
M  V30 3106 C 298.235 2.54058 -2.55199 0
M  V30 3107 C 298.088 2.03772 -4.00995 0
M  V30 3108 C 299.407 3.56225 -2.58442 0
M  V30 3109 H 296.526 0.501374 -0.540179 0
M  V30 3110 H 299.168 0.7015 -1.76576 0
M  V30 3111 H 297.318 3.12162 -2.31274 0
M  V30 3112 H 298.99 1.50423 -4.36086 0
M  V30 3113 H 297.233 1.34876 -4.12299 0
M  V30 3114 H 297.904 2.87185 -4.71411 0
M  V30 3115 H 300.38 3.07939 -2.79844 0
M  V30 3116 H 299.256 4.34756 -3.3508 0
M  V30 3117 H 299.517 4.10949 -1.63013 0
M  V30 3118 N 298.576 1.31904 0.862503 0
M  V30 3119 C 299.509 1.14514 1.97388 0
M  V30 3120 C 300.487 0.0466493 1.62533 0
M  V30 3121 O 301.671 0.204484 1.87388 0
M  V30 3122 C 298.798 0.751347 3.30261 0
M  V30 3123 C 297.844 1.85395 3.84098 0
M  V30 3124 S 298.677 3.46081 4.08642 0
M  V30 3125 C 299.833 3.08655 5.44502 0
M  V30 3126 H 300.066 2.08597 2.11836 0
M  V30 3127 H 297.599 1.16475 1.01356 0
M  V30 3128 H 299.557 0.530901 4.07052 0
M  V30 3129 H 298.218 -0.170493 3.13637 0
M  V30 3130 H 297.411 1.53122 4.80177 0
M  V30 3131 H 297.013 2.02984 3.14123 0
M  V30 3132 H 299.305 2.58012 6.26447 0
M  V30 3133 H 300.248 4.03726 5.81731 0
M  V30 3134 H 300.656 2.45891 5.08132 0
M  V30 3135 N 300.054 -1.07777 1.14986 0
M  V30 3136 C 301.303 -1.79669 0.916617 0
M  V30 3137 C 301.616 -1.87474 -0.557917 0
M  V30 3138 O 302.822 -2.55845 -0.908617 0
M  V30 3139 C 301.278 -3.22848 1.59051 0
M  V30 3140 C 300.886 -3.23257 3.10176 0
M  V30 3141 C 302.63 -3.99379 1.43864 0
M  V30 3142 C 300.537 -4.61063 3.70372 0
M  V30 3143 H 299.467 -0.673349 0.33929 0
M  V30 3144 H 302.118 -1.21003 1.37951 0
M  V30 3145 H 300.5 -3.8168 1.0553 0
M  V30 3146 H 301.674 -2.74095 3.70417 0
M  V30 3147 H 299.989 -2.60222 3.25074 0
M  V30 3148 H 302.586 -5.0122 1.86232 0
M  V30 3149 H 302.929 -4.14511 0.385564 0
M  V30 3150 H 303.462 -3.47032 1.94457 0
M  V30 3151 H 300.201 -4.51135 4.7556 0
M  V30 3152 H 299.721 -5.1048 3.14913 0
M  V30 3153 H 301.4 -5.30034 3.71043 0
M  V30 3154 N 301.532 -0.945985 -1.26051 0
M  V30 3155 C 302.479 -0.45809 -2.26208 0
M  V30 3156 C 303.449 0.484816 -1.58867 0
M  V30 3157 O 304.634 0.399969 -1.86561 0
M  V30 3158 C 301.774 0.266131 -3.44072 0
M  V30 3159 C 300.887 -0.713005 -4.26075 0
M  V30 3160 C 300.022 0.0329013 -5.3119 0
M  V30 3161 C 299.061 -0.93774 -6.04874 0
M  V30 3162 N 298.198 -0.223274 -7.01745 0
M  V30 3163 H 303.038 -1.3171 -2.67313 0
M  V30 3164 H 300.575 -0.66069 -1.31428 0
M  V30 3165 H 302.533 0.702514 -4.11243 0
M  V30 3166 H 301.163 1.08925 -3.03867 0
M  V30 3167 H 300.215 -1.26789 -3.58648 0
M  V30 3168 H 301.527 -1.45406 -4.77136 0
M  V30 3169 H 300.681 0.528335 -6.04395 0
M  V30 3170 H 299.42 0.806801 -4.8098 0
M  V30 3171 H 298.425 -1.44425 -5.30492 0
M  V30 3172 H 299.65 -1.71172 -6.57173 0
M  V30 3173 H 297.596 0.532046 -6.53839 0
M  V30 3174 H 297.513 -0.90357 -7.50581 0
M  V30 3175 H 298.781 0.250907 -7.79096 0
M  V30 3176 N 303.011 1.40521 -0.713556 0
M  V30 3177 C 303.974 2.29098 -0.0684347 0
M  V30 3178 C 304.974 1.45268 0.689472 0
M  V30 3179 O 306.164 1.66205 0.521677 0
M  V30 3180 C 303.296 3.28446 0.913024 0
M  V30 3181 H 304.489 2.87645 -0.84855 0
M  V30 3182 H 302.042 1.48809 -0.47809 0
M  V30 3183 H 302.777 2.74913 1.72027 0
M  V30 3184 H 302.562 3.90327 0.372472 0
M  V30 3185 H 304.052 3.94777 1.36165 0
M  V30 3186 N 304.489 0.459591 1.5075 0
M  V30 3187 C 305.735 -0.0994966 2.02556 0
M  V30 3188 C 306.068 -1.40399 1.3417 0
M  V30 3189 O 305.343 -1.88892 0.463683 0
M  V30 3190 C 305.626 -0.295242 3.58888 0
M  V30 3191 C 305.479 1.02947 4.37861 0
M  V30 3192 C 306.798 -1.05502 4.27267 0
M  V30 3193 H 303.917 -0.034686 0.736183 0
M  V30 3194 H 306.559 0.602938 1.8018 0
M  V30 3195 H 304.709 -0.893563 3.78084 0
M  V30 3196 H 306.381 1.66348 4.30263 0
M  V30 3197 H 304.624 1.62885 4.02058 0
M  V30 3198 H 305.295 0.846281 5.45474 0
M  V30 3199 H 307.771 -0.547993 4.12476 0
M  V30 3200 H 306.647 -1.16077 5.36486 0
M  V30 3201 H 306.908 -2.08875 3.89645 0
M  V30 3202 N 305.967 -1.56429 0.191757 0
M  V30 3203 C 307.383 -1.58754 -0.164137 0
M  V30 3204 C 307.583 -1.20782 -1.61288 0
M  V30 3205 O 306.639 -0.928999 -2.34789 0
M  V30 3206 C 307.952 -3.00396 0.135195 0
M  V30 3207 C 309.5 -3.1291 0.0750351 0
M  V30 3208 C 309.975 -4.56679 0.347632 0
M  V30 3209 N 311.466 -4.62252 0.296131 0
M  V30 3210 C 312.201 -5.71379 0.480948 0
M  V30 3211 N 311.697 -6.88986 0.725933 0
M  V30 3212 N 313.49 -5.60563 0.415435 0
M  V30 3213 H 305.641 -1.79393 1.13718 0
M  V30 3214 H 307.904 -0.832414 0.453643 0
M  V30 3215 H 307.61 -3.32726 1.13958 0
M  V30 3216 H 307.484 -3.72963 -0.563773 0
M  V30 3217 H 309.871 -2.80394 -0.919948 0
M  V30 3218 H 309.952 -2.42736 0.807029 0
M  V30 3219 H 309.596 -4.89907 1.33992 0
M  V30 3220 H 309.526 -5.25039 -0.405212 0
M  V30 3221 H 312.017 -3.7773 0.113259 0
M  V30 3222 H 312.33 -7.68046 0.855857 0
M  V30 3223 H 310.675 -6.90801 0.762788 0
M  V30 3224 H 313.866 -4.67561 0.224486 0
M  V30 3225 H 314.039 -6.45551 0.562889 0
M  V30 3226 N 307.445 0.0818655 -1.57387 0
M  V30 3227 C 308.693 0.781368 -1.86384 0
M  V30 3228 C 309.014 1.78618 -0.782342 0
M  V30 3229 O 308.284 1.94976 0.190061 0
M  V30 3230 H 306.864 0.291562 -0.687751 0
M  V30 3231 H 309.526 0.060348 -1.94807 0
M  V30 3232 H 308.622 1.3038 -2.83562 0
M  V30 3233 N 308.923 1.53595 0.353017 0
M  V30 3234 C 310.171 1.70049 1.09215 0
M  V30 3235 C 310.492 0.461406 1.89463 0
M  V30 3236 O 309.762 -0.524633 1.88744 0
M  V30 3237 H 308.342 0.626912 0.40619 0
M  V30 3238 H 311.004 1.90822 0.396585 0
M  V30 3239 H 310.1 2.56718 1.77488 0
M  V30 3240 N 310.401 -0.613514 1.45168 0
M  V30 3241 C 311.649 -1.36997 1.48581 0
M  V30 3242 C 311.97 -1.94589 0.126545 0
M  V30 3243 O 311.24 -1.76816 -0.843372 0
M  V30 3244 H 309.82 -0.508558 0.547154 0
M  V30 3245 H 312.482 -0.720853 1.81079 0
M  V30 3246 H 311.578 -2.1924 2.22127 0
M  V30 3247 N 311.879 -1.3236 -0.855495 0
M  V30 3248 C 313.127 -1.22629 -1.60644 0
M  V30 3249 C 313.448 0.212136 -1.93843 0
M  V30 3250 O 312.718 1.13666 -1.59552 0
M  V30 3251 H 311.298 -0.450882 -0.595579 0
M  V30 3252 H 313.96 -1.65871 -1.02337 0
M  V30 3253 H 313.056 -1.80832 -2.54374 0
M  V30 3254 N 313.357 1.07166 -1.15556 0
M  V30 3255 C 314.304 2.14417 -0.854055 0
M  V30 3256 C 315.274 1.64965 0.193806 0
M  V30 3257 O 316.459 1.90703 0.0609443 0
M  V30 3258 C 313.599 3.43304 -0.351574 0
M  V30 3259 C 312.712 4.06537 -1.46123 0
M  V30 3260 C 311.847 5.23266 -0.914677 0
M  V30 3261 C 310.886 5.78464 -2.00114 0
M  V30 3262 N 310.023 6.86521 -1.47083 0
M  V30 3263 H 314.863 2.39548 -1.77259 0
M  V30 3264 H 312.4 1.17543 -0.884425 0
M  V30 3265 H 314.358 4.17179 -0.0419409 0
M  V30 3266 H 312.988 3.18419 0.530037 0
M  V30 3267 H 312.04 3.30297 -1.88701 0
M  V30 3268 H 313.352 4.43567 -2.28144 0
M  V30 3269 H 312.506 6.04131 -0.557698 0
M  V30 3270 H 311.245 4.87658 -0.0636583 0
M  V30 3271 H 310.25 4.96243 -2.36692 0
M  V30 3272 H 311.475 6.16126 -2.85597 0
M  V30 3273 H 309.421 6.52849 -0.642198 0
M  V30 3274 H 309.338 7.22446 -2.22729 0
M  V30 3275 H 310.606 7.71087 -1.14215 0
M  V30 3276 N 314.835 0.952656 1.25548 0
M  V30 3277 C 316.083 0.605176 1.92826 0
M  V30 3278 C 316.404 -0.860261 1.74999 0
M  V30 3279 O 315.674 -1.6125 1.11244 0
M  V30 3280 H 314.254 0.220832 0.713612 0
M  V30 3281 H 316.916 1.21047 1.52754 0
M  V30 3282 H 316.012 0.832798 3.00784 0
M  V30 3283 N 316.313 -1.40141 0.720998 0
M  V30 3284 C 317.246 -2.2819 0.020916 0
M  V30 3285 C 318.224 -1.43633 -0.762129 0
M  V30 3286 O 319.408 -1.7304 -0.747633 0
M  V30 3287 C 316.535 -3.24281 -0.977715 0
M  V30 3288 C 315.581 -4.25548 -0.284836 0
M  V30 3289 S 316.414 -5.26247 0.991169 0
M  V30 3290 C 317.57 -6.259 -0.0052214 0
M  V30 3291 H 317.803 -2.87218 0.767649 0
M  V30 3292 H 315.336 -1.45656 0.512233 0
M  V30 3293 H 317.294 -3.80167 -1.54865 0
M  V30 3294 H 315.955 -2.643 -1.69719 0
M  V30 3295 H 315.148 -4.93154 -1.03996 0
M  V30 3296 H 314.75 -3.73389 0.213684 0
M  V30 3297 H 317.042 -6.72143 -0.850279 0
M  V30 3298 H 317.985 -7.05224 0.637599 0
M  V30 3299 H 318.393 -5.63277 -0.371366 0
M  V30 3300 N 317.792 -0.46758 -1.50504 0
M  V30 3301 C 319.208 -0.121533 -1.59137 0
M  V30 3302 C 319.408 1.3717 -1.47603 0
M  V30 3303 O 318.464 2.14464 -1.33272 0
M  V30 3304 C 319.777 -0.6686 -2.93173 0
M  V30 3305 C 321.325 -0.631716 -3.06559 0
M  V30 3306 C 321.8 -1.15627 -4.43164 0
M  V30 3307 N 323.291 -1.11553 -4.49567 0
M  V30 3308 C 324.026 -1.49195 -5.5365 0
M  V30 3309 N 323.522 -1.94269 -6.65005 0
M  V30 3310 N 325.315 -1.4082 -5.44175 0
M  V30 3311 H 317.466 -1.4388 -1.56245 0
M  V30 3312 H 319.729 -0.594784 -0.738198 0
M  V30 3313 H 319.435 -1.71453 -3.07078 0
M  V30 3314 H 319.309 -0.11021 -3.77039 0
M  V30 3315 H 321.696 0.405297 -2.92304 0
M  V30 3316 H 321.777 -1.22687 -2.24458 0
M  V30 3317 H 321.421 -2.1919 -4.58168 0
M  V30 3318 H 321.351 -0.537365 -5.23851 0
M  V30 3319 H 323.842 -0.784895 -3.69659 0
M  V30 3320 H 324.155 -2.21148 -7.40482 0
M  V30 3321 H 322.5 -1.98219 -6.66134 0
M  V30 3322 H 325.691 -1.0545 -4.56068 0
M  V30 3323 H 325.864 -1.70481 -6.25172 0
M  V30 3324 N 319.27 1.56325 -0.20005 0
M  V30 3325 C 320.519 1.96895 0.437652 0
M  V30 3326 C 320.832 1.08999 1.62415 0
M  V30 3327 O 322.038 1.39372 2.32997 0
M  V30 3328 C 320.494 3.50198 0.830025 0
M  V30 3329 C 320.102 4.46765 -0.332461 0
M  V30 3330 C 321.846 3.99526 1.43453 0
M  V30 3331 C 319.753 5.91344 0.0811468 0
M  V30 3332 H 318.683 0.735209 0.167282 0
M  V30 3333 H 321.334 1.81148 -0.292853 0
M  V30 3334 H 319.716 3.61467 1.61734 0
M  V30 3335 H 320.89 4.47231 -1.11 0
M  V30 3336 H 319.205 4.07657 -0.848789 0
M  V30 3337 H 321.802 5.05025 1.75652 0
M  V30 3338 H 322.145 3.44122 2.34277 0
M  V30 3339 H 322.678 3.91393 0.71109 0
M  V30 3340 H 319.417 6.50685 -0.793033 0
M  V30 3341 H 318.937 5.94121 0.823445 0
M  V30 3342 H 320.616 6.44945 0.515252 0
M  V30 3343 N 320.748 -0.0735177 1.57428 0
M  V30 3344 C 321.994 -0.774145 1.87443 0
M  V30 3345 C 322.327 -1.77311 0.792103 0
M  V30 3346 O 321.602 -1.93492 -0.197793 0
M  V30 3347 C 321.885 -1.48367 3.28115 0
M  V30 3348 C 321.738 -0.501227 4.46999 0
M  V30 3349 C 323.057 -2.429 3.66998 0
M  V30 3350 H 320.176 -0.279971 0.681752 0
M  V30 3351 H 322.818 -0.0373616 1.89963 0
M  V30 3352 H 320.968 -2.11171 3.26097 0
M  V30 3353 H 322.64 0.121468 4.6114 0
M  V30 3354 H 320.883 0.183593 4.33411 0
M  V30 3355 H 321.554 -1.03526 5.42205 0
M  V30 3356 H 324.03 -1.90175 3.70098 0
M  V30 3357 H 322.906 -2.89549 4.66318 0
M  V30 3358 H 323.167 -3.27628 2.96837 0
M  V30 3359 N 322.226 -1.5378 -0.344866 0
M  V30 3360 C 323.642 -1.44015 -0.687888 0
M  V30 3361 C 323.842 -0.595834 -1.92489 0
M  V30 3362 O 322.898 -0.0863064 -2.52352 0
M  V30 3363 C 324.211 -2.87481 -0.881758 0
M  V30 3364 C 325.759 -2.97247 -0.980459 0
M  V30 3365 C 326.234 -4.41819 -1.20665 0
M  V30 3366 N 327.725 -4.45339 -1.27389 0
M  V30 3367 C 328.46 -5.54333 -1.46639 0
M  V30 3368 N 327.956 -6.73335 -1.63071 0
M  V30 3369 N 329.749 -5.41944 -1.49176 0
M  V30 3370 H 321.9 -2.07169 0.468475 0
M  V30 3371 H 324.163 -0.93643 0.147655 0
M  V30 3372 H 323.869 -3.51672 -0.0443444 0
M  V30 3373 H 323.743 -3.32352 -1.78388 0
M  V30 3374 H 326.13 -2.33197 -1.8084 0
M  V30 3375 H 326.211 -2.5574 -0.0552713 0
M  V30 3376 H 325.855 -5.06449 -0.383652 0
M  V30 3377 H 325.785 -4.80917 -2.14539 0
M  V30 3378 H 328.276 -3.59585 -1.1622 0
M  V30 3379 H 328.589 -7.52165 -1.77391 0
M  V30 3380 H 326.934 -6.76282 -1.60209 0
M  V30 3381 H 330.125 -4.47932 -1.3592 0
M  V30 3382 H 330.298 -6.26946 -1.63837 0
M  V30 3383 N 323.704 0.605807 -1.45491 0
M  V30 3384 C 324.929 1.39625 -1.53361 0
M  V30 3385 C 325.354 1.87351 -0.167645 0
M  V30 3386 O 324.712 1.60243 0.848051 0
M  V30 3387 C 324.76 2.57559 -2.5238 0
M  V30 3388 O 323.864 3.58248 -2.04285 0
M  V30 3389 H 323.205 0.416771 -0.516912 0
M  V30 3390 H 325.735 0.737103 -1.90861 0
M  V30 3391 H 325.745 3.0478 -2.71244 0
M  V30 3392 H 324.42 2.22171 -3.51586 0
M  V30 3393 H 322.997 3.17664 -1.95305 0
M  V30 3394 N 325.182 1.32811 0.848464 0
M  V30 3395 C 326.092 1.24278 1.98978 0
M  V30 3396 C 327.108 0.155176 1.73307 0
M  V30 3397 O 328.284 0.376999 1.9784 0
M  V30 3398 C 325.349 0.972444 3.32783 0
M  V30 3399 C 324.41 2.14911 3.71634 0
M  V30 3400 C 323.643 1.89157 4.99054 0
M  V30 3401 O 323.866 0.837165 5.64223 0
M  V30 3402 O 322.8 2.75433 5.35183 0
M  V30 3403 H 326.626 2.20238 2.09115 0
M  V30 3404 H 324.211 1.12762 0.980052 0
M  V30 3405 H 326.093 0.838432 4.12975 0
M  V30 3406 H 324.768 0.043051 3.23671 0
M  V30 3407 H 323.675 2.33862 2.91992 0
M  V30 3408 H 325.008 3.06151 3.85399 0
M  V30 3409 N 326.66 -1.06551 1.16123 0
M  V30 3410 C 327.592 -2.13908 0.823171 0
M  V30 3411 C 328.605 -1.61926 -0.16843 0
M  V30 3412 O 329.794 -1.78412 0.055962 0
M  V30 3413 C 326.894 -3.38283 0.204424 0
M  V30 3414 C 326.067 -4.19589 1.23548 0
M  V30 3415 C 325.126 -5.2233 0.637011 0
M  V30 3416 O 324.152 -5.54034 1.30516 0
M  V30 3417 N 325.354 -5.77621 -0.577474 0
M  V30 3418 H 328.119 -2.43508 1.74711 0
M  V30 3419 H 325.68 -1.2253 1.05821 0
M  V30 3420 H 327.672 -4.0416 -0.208909 0
M  V30 3421 H 326.242 -3.06329 -0.623012 0
M  V30 3422 H 325.462 -3.49406 1.82507 0
M  V30 3423 H 326.75 -4.70718 1.93137 0
M  V30 3424 H 326.148 -5.54125 -1.13853 0
M  V30 3425 H 324.705 -6.45087 -0.933053 0
M  V30 3426 N 328.138 -0.959301 -1.25041 0
M  V30 3427 C 329.048 -0.489994 -2.29426 0
M  V30 3428 C 330.064 0.444944 -1.68215 0
M  V30 3429 O 331.24 0.320046 -1.98841 0
M  V30 3430 C 328.305 0.220309 -3.45999 0
M  V30 3431 C 327.366 -0.753418 -4.22637 0
M  V30 3432 C 326.599 -0.076918 -5.33645 0
M  V30 3433 O 326.822 1.13649 -5.58963 0
M  V30 3434 O 325.756 -0.764824 -5.97021 0
M  V30 3435 H 329.582 -1.35755 -2.71669 0
M  V30 3436 H 327.167 -0.725961 -1.30576 0
M  V30 3437 H 329.049 0.619677 -4.16819 0
M  V30 3438 H 327.724 1.06296 -3.0575 0
M  V30 3439 H 326.631 -1.20308 -3.54227 0
M  V30 3440 H 327.964 -1.56423 -4.66683 0
M  V30 3441 N 329.616 1.39756 -0.72842 0
M  V30 3442 C 330.863 2.00645 -0.273487 0
M  V30 3443 C 331.191 1.57786 1.13727 0
M  V30 3444 O 330.446 0.794886 1.7883 0
M  V30 3445 C 330.745 3.56002 -0.315776 0
M  V30 3446 C 330.411 4.18489 -1.67863 0
M  V30 3447 C 329.073 4.3527 -2.05166 0
M  V30 3448 C 331.425 4.53219 -2.57375 0
M  V30 3449 C 328.753 4.84069 -3.31503 0
M  V30 3450 C 331.105 5.03423 -3.83077 0
M  V30 3451 C 329.769 5.18413 -4.20481 0
M  V30 3452 H 329.039 0.734211 -0.100076 0
M  V30 3453 H 331.686 1.6718 -0.933972 0
M  V30 3454 H 329.991 3.89452 0.428285 0
M  V30 3455 H 331.688 4.00963 0.0542575 0
M  V30 3456 H 328.278 4.05824 -1.37858 0
M  V30 3457 H 332.462 4.39878 -2.29827 0
M  V30 3458 H 327.718 4.93859 -3.60435 0
M  V30 3459 H 331.892 5.2927 -4.52599 0
M  V30 3460 H 329.519 5.55987 -5.18443 0
M  V30 3461 N 331.094 0.475555 1.50254 0
M  V30 3462 C 332.026 -0.352649 2.26471 0
M  V30 3463 C 333.039 -0.953165 1.3198 0
M  V30 3464 O 334.228 -0.840815 1.57457 0
M  V30 3465 C 331.328 -1.50902 3.0345 0
M  V30 3466 C 330.501 -1.02047 4.25329 0
M  V30 3467 C 329.56 -2.05142 4.84565 0
M  V30 3468 O 328.586 -1.63023 5.45355 0
M  V30 3469 N 329.788 -3.37987 4.71959 0
M  V30 3470 H 332.553 0.300767 2.98187 0
M  V30 3471 H 330.114 0.306598 1.5897 0
M  V30 3472 H 332.106 -2.19572 3.39956 0
M  V30 3473 H 330.676 -2.06705 2.34504 0
M  V30 3474 H 329.896 -0.159507 3.93877 0
M  V30 3475 H 331.184 -0.672061 5.04342 0
M  V30 3476 H 330.582 -3.74913 4.23623 0
M  V30 3477 H 329.139 -4.02443 5.12721 0
M  V30 3478 N 332.573 -1.56217 0.208337 0
M  V30 3479 C 333.483 -2.23316 -0.718836 0
M  V30 3480 C 334.499 -1.23648 -1.22422 0
M  V30 3481 O 335.675 -1.56423 -1.26861 0
M  V30 3482 C 332.74 -2.88968 -1.91568 0
M  V30 3483 C 331.801 -4.03943 -1.45357 0
M  V30 3484 C 331.034 -4.66455 -2.59337 0
M  V30 3485 O 331.257 -4.27919 -3.77149 0
M  V30 3486 O 330.191 -5.55686 -2.31293 0
M  V30 3487 H 334.017 -3.03182 -0.177315 0
M  V30 3488 H 331.602 -1.49384 -0.0215402 0
M  V30 3489 H 333.484 -3.30455 -2.61491 0
M  V30 3490 H 332.159 -2.12071 -2.44556 0
M  V30 3491 H 331.066 -3.67052 -0.722746 0
M  V30 3492 H 332.399 -4.82543 -0.970219 0
M  V30 3493 N 334.051 0.0651679 -1.57465 0
M  V30 3494 C 334.983 1.10359 -2.00882 0
M  V30 3495 C 335.996 1.346 -0.915788 0
M  V30 3496 O 337.185 1.32723 -1.1936 0
M  V30 3497 C 334.285 2.45312 -2.33828 0
M  V30 3498 C 333.458 2.40934 -3.65061 0
M  V30 3499 C 332.517 3.58047 -3.85602 0
M  V30 3500 O 331.543 3.39175 -4.57109 0
M  V30 3501 N 332.745 4.78637 -3.28462 0
M  V30 3502 H 335.51 0.733807 -2.90578 0
M  V30 3503 H 333.071 0.253719 -1.599 0
M  V30 3504 H 335.063 3.22314 -2.44737 0
M  V30 3505 H 333.633 2.74267 -1.49988 0
M  V30 3506 H 332.853 1.49273 -3.64844 0
M  V30 3507 H 334.141 2.35117 -4.51218 0
M  V30 3508 H 333.539 4.96872 -2.70433 0
M  V30 3509 H 332.096 5.53127 -3.44809 0
M  V30 3510 N 335.529 1.53961 0.336706 0
M  V30 3511 C 336.459 1.85417 1.41925 0
M  V30 3512 C 337.44 0.709856 1.5458 0
M  V30 3513 O 338.625 0.962396 1.68676 0
M  V30 3514 C 335.755 2.06985 2.78881 0
M  V30 3515 C 334.709 3.22813 2.81026 0
M  V30 3516 C 334.035 3.29727 4.20932 0
M  V30 3517 C 335.335 4.60767 2.45949 0
M  V30 3518 H 337.029 2.76079 1.15848 0
M  V30 3519 H 334.575 1.32839 0.555859 0
M  V30 3520 H 336.528 2.27575 3.54665 0
M  V30 3521 H 335.252 1.13061 3.06406 0
M  V30 3522 H 333.911 3.0209 2.07695 0
M  V30 3523 H 333.559 2.33385 4.45579 0
M  V30 3524 H 333.259 4.07566 4.23277 0
M  V30 3525 H 334.783 3.52536 4.98549 0
M  V30 3526 H 336.197 4.81325 3.11446 0
M  V30 3527 H 334.594 5.4106 2.59566 0
M  V30 3528 H 335.664 4.6391 1.41122 0
M  V30 3529 N 337.007 -0.598083 1.45811 0
M  V30 3530 C 337.917 -1.73632 1.57763 0
M  V30 3531 C 338.933 -1.67763 0.461676 0
M  V30 3532 O 340.109 -1.87949 0.723685 0
M  V30 3533 C 337.174 -3.10114 1.55018 0
M  V30 3534 C 336.235 -3.27364 2.77726 0
M  V30 3535 C 335.468 -4.57334 2.75102 0
M  V30 3536 O 335.691 -5.40258 1.8297 0
M  V30 3537 O 334.625 -4.77502 3.66437 0
M  V30 3538 H 338.451 -1.66498 2.53992 0
M  V30 3539 H 336.036 -0.763308 1.28429 0
M  V30 3540 H 337.918 -3.9141 1.56129 0
M  V30 3541 H 336.593 -3.17718 0.619431 0
M  V30 3542 H 335.5 -2.45619 2.82174 0
M  V30 3543 H 336.833 -3.24641 3.69958 0
M  V30 3544 N 338.485 -1.33259 -0.841409 0
M  V30 3545 C 339.71 -1.2775 -1.63385 0
M  V30 3546 C 340.135 0.149188 -1.87507 0
M  V30 3547 O 339.493 1.10498 -1.43736 0
M  V30 3548 C 339.541 -2.05571 -2.96265 0
M  V30 3549 O 338.645 -1.41257 -3.87453 0
M  V30 3550 H 337.986 -0.439627 -0.497618 0
M  V30 3551 H 340.516 -1.75782 -1.04699 0
M  V30 3552 H 340.526 -2.16241 -3.45982 0
M  V30 3553 H 339.201 -3.09309 -2.7803 0
M  V30 3554 H 337.778 -1.39217 -3.45938 0
M  V30 3555 N 339.963 1.05934 -1.16686 0
M  V30 3556 C 340.926 2.11669 -0.879144 0
M  V30 3557 C 341.926 1.60294 0.127445 0
M  V30 3558 O 343.116 1.7389 -0.103865 0
M  V30 3559 C 340.248 3.39438 -0.315425 0
M  V30 3560 H 341.441 2.38626 -1.81653 0
M  V30 3561 H 338.994 1.22058 -0.976299 0
M  V30 3562 H 339.729 3.18132 0.629468 0
M  V30 3563 H 339.514 3.78034 -1.04079 0
M  V30 3564 H 341.004 4.17391 -0.132189 0
M  V30 3565 N 341.441 0.965919 1.2453 0
M  V30 3566 C 342.857 0.67216 1.44756 0
M  V30 3567 C 343.057 -0.766609 1.86347 0
M  V30 3568 O 342.113 -1.5407 2.00047 0
M  V30 3569 C 343.426 1.65473 2.51076 0
M  V30 3570 C 344.974 1.66716 2.64905 0
M  V30 3571 C 345.449 2.63766 3.74421 0
M  V30 3572 N 346.94 2.62198 3.81846 0
M  V30 3573 C 347.675 3.33966 4.66106 0
M  V30 3574 N 347.171 4.15245 5.54566 0
M  V30 3575 N 348.964 3.22799 4.60171 0
M  V30 3576 H 341.115 1.89553 0.958293 0
M  V30 3577 H 343.378 0.815979 0.482579 0
M  V30 3578 H 343.084 2.68296 2.27399 0
M  V30 3579 H 342.958 1.4261 3.49202 0
M  V30 3580 H 345.345 0.646057 2.87941 0
M  V30 3581 H 345.426 1.93642 1.67142 0
M  V30 3582 H 345.07 3.6601 3.52135 0
M  V30 3583 H 345 2.34121 4.71694 0
M  V30 3584 H 347.491 2.032 3.18619 0
M  V30 3585 H 347.804 4.66898 6.15814 0
M  V30 3586 H 346.149 4.1934 5.54237 0
M  V30 3587 H 349.34 2.58764 3.90075 0
M  V30 3588 H 349.513 3.78994 5.25612 0
M  V30 3589 N 342.919 -1.39368 0.735821 0
M  V30 3590 C 344.335 -1.54204 0.411492 0
M  V30 3591 C 344.535 -1.70268 -1.07755 0
M  V30 3592 O 343.591 -1.70364 -1.86366 0
M  V30 3593 C 344.904 -2.75925 1.19523 0
M  V30 3594 C 346.452 -2.89761 1.18354 0
M  V30 3595 C 346.927 -4.14421 1.94986 0
M  V30 3596 N 348.418 -4.21462 1.92156 0
M  V30 3597 C 349.153 -5.16871 2.48258 0
M  V30 3598 N 348.649 -6.18063 3.13001 0
M  V30 3599 N 350.442 -5.09093 2.38287 0
M  V30 3600 H 342.593 -1.27189 1.70108 0
M  V30 3601 H 344.856 -0.616517 0.720147 0
M  V30 3602 H 344.562 -2.70401 2.24892 0
M  V30 3603 H 344.436 -3.68614 0.800222 0
M  V30 3604 H 346.823 -2.94777 0.137975 0
M  V30 3605 H 346.904 -1.98133 1.61793 0
M  V30 3606 H 346.548 -4.10166 2.99543 0
M  V30 3607 H 346.478 -5.05095 1.48953 0
M  V30 3608 H 348.969 -3.48979 1.44991 0
M  V30 3609 H 349.282 -6.87326 3.53275 0
M  V30 3610 H 347.627 -6.18448 3.17091 0
M  V30 3611 H 350.818 -4.28973 1.8735 0
M  V30 3612 H 350.991 -5.83272 2.82308 0
M  V30 3613 N 344.397 -0.483516 -1.5 0
M  V30 3614 C 345.307 0.309172 -2.32554 0
M  V30 3615 C 346.323 0.984159 -1.43493 0
M  V30 3616 O 347.499 0.969399 -1.76535 0
M  V30 3617 C 344.564 1.36979 -3.18493 0
M  V30 3618 C 343.625 0.710095 -4.23387 0
M  V30 3619 C 342.858 1.72018 -5.05218 0
M  V30 3620 O 343.081 2.94813 -4.88305 0
M  V30 3621 O 342.015 1.28515 -5.8802 0
M  V30 3622 H 345.841 -0.366064 -3.01486 0
M  V30 3623 H 343.426 -0.24514 -1.47375 0
M  V30 3624 H 345.308 1.98385 -3.71781 0
M  V30 3625 H 343.983 2.02828 -2.52275 0
M  V30 3626 H 342.89 0.0567539 -3.74057 0
M  V30 3627 H 344.223 0.0943557 -4.9211 0
M  V30 3628 N 345.875 1.56104 -0.216619 0
M  V30 3629 C 346.838 2.18819 0.681962 0
M  V30 3630 C 347.838 1.14866 1.12528 0
M  V30 3631 O 349.028 1.40128 1.03488 0
M  V30 3632 C 346.16 2.80756 1.93362 0
M  V30 3633 H 347.353 2.99595 0.135254 0
M  V30 3634 H 344.906 1.56265 0.0330003 0
M  V30 3635 H 345.641 2.03837 2.52232 0
M  V30 3636 H 345.426 3.56876 1.62426 0
M  V30 3637 H 346.916 3.28844 2.57393 0
M  V30 3638 N 347.353 -0.0568162 1.57498 0
M  V30 3639 C 348.3 -1.06591 2.04712 0
M  V30 3640 C 349.27 -1.3758 0.930644 0
M  V30 3641 O 350.455 -1.48392 1.19935 0
M  V30 3642 C 347.595 -2.3701 2.50839 0
M  V30 3643 C 346.708 -2.12421 3.76167 0
M  V30 3644 C 345.843 -3.36511 4.11015 0
M  V30 3645 C 344.882 -3.07353 5.2934 0
M  V30 3646 N 344.019 -4.23816 5.59754 0
M  V30 3647 H 348.859 -0.65631 2.90683 0
M  V30 3648 H 346.396 -0.312481 1.43743 0
M  V30 3649 H 348.354 -3.13175 2.7564 0
M  V30 3650 H 346.984 -2.75744 1.67825 0
M  V30 3651 H 346.036 -1.2688 3.58616 0
M  V30 3652 H 347.348 -1.86894 4.62463 0
M  V30 3653 H 346.502 -4.21062 4.36797 0
M  V30 3654 H 345.241 -3.65128 3.23315 0
M  V30 3655 H 344.246 -2.212 5.03339 0
M  V30 3656 H 345.471 -2.80043 6.1867 0
M  V30 3657 H 343.417 -4.52436 4.75014 0
M  V30 3658 H 343.334 -4.01614 6.40501 0
M  V30 3659 H 344.602 -5.0932 5.90096 0
M  V30 3660 N 348.832 -1.54138 -0.328536 0
M  V30 3661 C 349.779 -1.83176 -1.40411 0
M  V30 3662 C 350.749 -0.678494 -1.5161 0
M  V30 3663 O 351.934 -0.92443 -1.6691 0
M  V30 3664 C 349.074 -2.06035 -2.76846 0
M  V30 3665 C 348.187 -3.33727 -2.74318 0
M  V30 3666 C 347.322 -3.46574 -4.02567 0
M  V30 3667 C 346.361 -4.68159 -3.94327 0
M  V30 3668 N 345.498 -4.77959 -5.14296 0
M  V30 3669 H 350.338 -2.74938 -1.14948 0
M  V30 3670 H 347.875 -1.36166 -0.556538 0
M  V30 3671 H 349.833 -2.1728 -3.56153 0
M  V30 3672 H 348.463 -1.1757 -3.00628 0
M  V30 3673 H 347.515 -3.31246 -1.8703 0
M  V30 3674 H 348.827 -4.23139 -2.64111 0
M  V30 3675 H 347.981 -3.57333 -4.90304 0
M  V30 3676 H 346.72 -2.55245 -4.15574 0
M  V30 3677 H 345.725 -4.57461 -3.04974 0
M  V30 3678 H 346.95 -5.60868 -3.82889 0
M  V30 3679 H 344.896 -3.89544 -5.27818 0
M  V30 3680 H 344.813 -5.6133 -5.06404 0
M  V30 3681 H 346.081 -4.93044 -6.03761 0
M  V30 3682 N 350.31 0.590341 -1.46126 0
M  V30 3683 C 351.535 1.37991 -1.54833 0
M  V30 3684 C 351.96 1.87163 -0.187506 0
M  V30 3685 O 351.318 1.61133 0.831008 0
M  V30 3686 C 351.366 2.54867 -2.55098 0
M  V30 3687 O 350.47 3.56061 -2.08073 0
M  V30 3688 H 349.811 0.411265 -0.521303 0
M  V30 3689 H 352.341 0.716819 -1.91632 0
M  V30 3690 H 352.351 3.01886 -2.74461 0
M  V30 3691 H 351.026 2.18429 -3.53923 0
M  V30 3692 H 349.603 3.15574 -1.98664 0
M  V30 3693 N 351.788 1.33704 0.83433 0
M  V30 3694 C 353.035 1.25417 1.58987 0
M  V30 3695 C 353.363 -0.178869 1.93676 0
M  V30 3696 O 352.618 -1.13723 1.59265 0
M  V30 3697 C 352.917 2.07926 2.90692 0
M  V30 3698 C 352.583 3.57066 2.75345 0
M  V30 3699 C 351.245 3.97724 2.70867 0
M  V30 3700 C 353.597 4.51817 2.59828 0
M  V30 3701 C 350.925 5.31344 2.48778 0
M  V30 3702 C 353.277 5.85604 2.39272 0
M  V30 3703 C 351.941 6.25439 2.33199 0
M  V30 3704 H 351.211 0.458934 0.581774 0
M  V30 3705 H 353.858 1.65335 0.966261 0
M  V30 3706 H 352.163 1.608 3.57282 0
M  V30 3707 H 353.86 1.98868 3.48213 0
M  V30 3708 H 350.45 3.24785 2.79665 0
M  V30 3709 H 354.634 4.21311 2.62319 0
M  V30 3710 H 349.89 5.61241 2.42526 0
M  V30 3711 H 354.064 6.58623 2.2625 0
M  V30 3712 H 351.691 7.28914 2.15843 0
M  V30 3713 N 353.266 -1.05314 1.17247 0
M  V30 3714 C 354.214 -2.15137 0.884238 0
M  V30 3715 C 355.208 -1.68729 -0.15063 0
M  V30 3716 O 356.414 -1.8 -0.00366673 0
M  V30 3717 H 352.789 -0.702471 0.2684 0
M  V30 3718 H 354.76 -2.36652 1.81764 0
M  V30 3719 C 353.509 -3.45243 0.412659 0
M  V30 3720 H 352.832 -3.81352 1.20043 0
M  V30 3721 H 354.272 -4.23263 0.249858 0
M  V30 3722 C 352.731 -3.25487 -0.86948 0
M  V30 3723 O 353.261 -3.51938 -1.93655 0
M  V30 3724 N 351.467 -2.78875 -0.817147 0
M  V30 3725 H 351.014 -2.57549 0.0514211 0
M  V30 3726 H 350.972 -2.66036 -1.67547 0
M  V30 3727 N 354.744 -0.972509 -1.24016 0
M  V30 3728 C 356.021 -0.553733 -1.87598 0
M  V30 3729 C 356.401 0.969158 -1.87538 0
M  V30 3730 O 355.749 1.84255 -1.35139 0
M  V30 3731 C 355.959 -1.15076 -3.29482 0
M  V30 3732 C 357.307 -1.23862 -4.06132 0
M  V30 3733 O 358.331 -1.10363 -3.38672 0
M  V30 3734 O 357.19 -1.45252 -5.26844 0
M  V30 3735 H 354.284 -0.185331 -0.805966 0
M  V30 3736 H 356.83 -1.06709 -1.31952 0
M  V30 3737 H 355.602 -2.19333 -3.2405 0
M  V30 3738 H 355.225 -0.621746 -3.92709 0
M  V30 3739 N 356.222 1.38976 -0.743202 0
M  V30 3740 C 357.499 1.94351 -0.220705 0
M  V30 3741 C 357.879 1.67935 1.2791 0
M  V30 3742 O 357.227 1.01211 2.04862 0
M  V30 3743 C 357.437 3.44426 -0.563171 0
M  V30 3744 C 358.785 4.2144 -0.517046 0
M  V30 3745 O 359.809 3.52661 -0.500846 0
M  V30 3746 O 358.668 5.44032 -0.518806 0
M  V30 3747 H 355.762 0.825879 -0.043047 0
M  V30 3748 H 358.308 1.48429 -0.822618 0
M  V30 3749 H 357.08 3.5712 -1.59941 0
M  V30 3750 H 356.703 3.97543 0.0672883 0
M  V30 3751 N 357.7 0.491464 1.49741 0
M  V30 3752 C 358.663 -0.280906 2.27472 0
M  V30 3753 C 359.663 -0.902454 1.33088 0
M  V30 3754 O 360.853 -0.768465 1.56334 0
M  V30 3755 C 357.985 -1.40209 3.10732 0
M  V30 3756 H 359.178 0.401056 2.97206 0
M  V30 3757 H 356.731 0.246131 1.5435 0
M  V30 3758 H 357.466 -2.11849 2.45541 0
M  V30 3759 H 357.251 -0.961969 3.80117 0
M  V30 3760 H 358.741 -1.9464 3.69466 0
M  V30 3761 N 359.178 -1.55987 0.224894 0
M  V30 3762 C 360.111 -2.16413 -0.723929 0
M  V30 3763 C 361.089 -1.10952 -1.18863 0
M  V30 3764 O 362.273 -1.39225 -1.27077 0
M  V30 3765 C 359.4 -2.74711 -1.98121 0
M  V30 3766 C 358.446 -3.9303 -1.6562 0
M  V30 3767 S 359.279 -5.29817 -0.778058 0
M  V30 3768 C 360.435 -5.91555 -2.04483 0
M  V30 3769 H 360.668 -2.96555 -0.210347 0
M  V30 3770 H 358.201 -1.54397 0.00955457 0
M  V30 3771 H 360.159 -3.08938 -2.70311 0
M  V30 3772 H 358.82 -1.94555 -2.46591 0
M  V30 3773 H 358.013 -4.32334 -2.59043 0
M  V30 3774 H 357.615 -3.59966 -1.01491 0
M  V30 3775 H 359.907 -6.07732 -2.99446 0
M  V30 3776 H 360.85 -6.87498 -1.69563 0
M  V30 3777 H 361.258 -5.20419 -2.18688 0
M  V30 3778 N 360.656 0.0484629 -1.57525 0
M  V30 3779 C 361.586 1.0549 -2.08313 0
M  V30 3780 C 362.567 1.38929 -0.981463 0
M  V30 3781 O 363.752 1.48151 -1.25558 0
M  V30 3782 C 360.882 2.36162 -2.54646 0
M  V30 3783 C 359.836 2.17016 -3.68901 0
M  V30 3784 C 359.162 3.53278 -4.01371 0
M  V30 3785 C 360.462 1.57219 -4.98076 0
M  V30 3786 H 362.156 0.632195 -2.92649 0
M  V30 3787 H 359.702 0.302654 -1.40784 0
M  V30 3788 H 361.655 3.06882 -2.88793 0
M  V30 3789 H 360.379 2.80456 -1.67368 0
M  V30 3790 H 359.038 1.48733 -3.35073 0
M  V30 3791 H 358.686 3.95185 -3.11188 0
M  V30 3792 H 358.386 3.41299 -4.78318 0
M  V30 3793 H 359.91 4.25391 -4.38035 0
M  V30 3794 H 361.324 2.17832 -5.30304 0
M  V30 3795 H 359.721 1.55871 -5.79503 0
M  V30 3796 H 360.791 0.535956 -4.81929 0
M  V30 3797 N 362.134 1.5431 0.320358 0
M  V30 3798 C 363.383 1.7188 1.05546 0
M  V30 3799 C 363.696 0.501143 1.89071 0
M  V30 3800 O 364.902 0.558258 2.65699 0
M  V30 3801 C 363.358 3.04025 1.92605 0
M  V30 3802 C 362.966 4.33207 1.14176 0
M  V30 3803 C 364.71 3.30959 2.65832 0
M  V30 3804 C 362.617 5.56412 2.00399 0
M  V30 3805 H 361.547 0.640547 0.397763 0
M  V30 3806 H 364.198 1.80802 0.313522 0
M  V30 3807 H 362.58 2.89019 2.7071 0
M  V30 3808 H 363.754 4.58989 0.40819 0
M  V30 3809 H 362.069 4.13062 0.526165 0
M  V30 3810 H 364.666 4.20203 3.30656 0
M  V30 3811 H 365.009 2.48979 3.33639 0
M  V30 3812 H 365.542 3.46847 1.94787 0
M  V30 3813 H 362.281 6.41004 1.37094 0
M  V30 3814 H 361.801 5.34844 2.7148 0
M  V30 3815 H 363.48 5.92938 2.58908 0
M  V30 3816 N 363.613 -0.582584 1.46437 0
M  V30 3817 C 364.523 -1.71949 1.59595 0
M  V30 3818 C 365.539 -1.67264 0.479443 0
M  V30 3819 O 366.715 -1.87171 0.743579 0
M  V30 3820 C 363.78 -3.08452 1.58298 0
M  V30 3821 C 362.841 -3.244 2.81182 0
M  V30 3822 C 362.074 -4.54391 2.79937 0
M  V30 3823 O 362.297 -5.38287 1.8869 0
M  V30 3824 O 361.231 -4.73588 3.71481 0
M  V30 3825 H 365.057 -1.63795 2.55744 0
M  V30 3826 H 362.642 -0.749643 1.29231 0
M  V30 3827 H 364.524 -3.89732 1.60271 0
M  V30 3828 H 363.199 -3.17043 0.653094 0
M  V30 3829 H 362.106 -2.42613 2.84763 0
M  V30 3830 H 363.439 -3.20699 3.7338 0
M  V30 3831 N 365.091 -1.34144 -0.827227 0
M  V30 3832 C 366.038 -1.25364 -1.93785 0
M  V30 3833 C 367.008 -0.129774 -1.65592 0
M  V30 3834 O 368.193 -0.310024 -1.88264 0
M  V30 3835 C 365.333 -1.01064 -3.2997 0
M  V30 3836 C 364.446 -2.22185 -3.70484 0
M  V30 3837 C 363.581 -1.91203 -4.95595 0
M  V30 3838 C 362.62 -3.08491 -5.28677 0
M  V30 3839 N 361.757 -2.77421 -6.44967 0
M  V30 3840 H 366.597 -2.20347 -2.00627 0
M  V30 3841 H 364.134 -1.09558 -0.981608 0
M  V30 3842 H 366.092 -0.850139 -4.08446 0
M  V30 3843 H 364.722 -0.0975026 -3.22653 0
M  V30 3844 H 363.774 -2.4917 -2.87434 0
M  V30 3845 H 365.086 -3.0983 -3.90905 0
M  V30 3846 H 364.24 -1.71864 -5.81848 0
M  V30 3847 H 362.979 -1.00812 -4.77167 0
M  V30 3848 H 361.984 -3.28431 -4.40923 0
M  V30 3849 H 363.209 -3.99655 -5.49047 0
M  V30 3850 H 361.155 -1.89601 -6.28003 0
M  V30 3851 H 361.072 -3.58598 -6.6554 0
M  V30 3852 H 362.34 -2.61577 -7.34301 0
M  V30 3853 N 366.569 1.04691 -1.17803 0
M  V30 3854 C 367.816 1.77782 -0.969532 0
M  V30 3855 C 368.144 1.87926 0.501401 0
M  V30 3856 O 367.399 1.37918 1.38842 0
M  V30 3857 C 367.698 3.21467 -1.56186 0
M  V30 3858 C 367.364 3.3137 -3.05786 0
M  V30 3859 C 366.026 3.3378 -3.46619 0
M  V30 3860 C 368.378 3.31976 -4.01797 0
M  V30 3861 C 365.706 3.34431 -4.82051 0
M  V30 3862 C 368.058 3.34167 -5.37136 0
M  V30 3863 C 366.722 3.34866 -5.77426 0
M  V30 3864 H 365.992 0.650549 -0.354777 0
M  V30 3865 H 368.639 1.23006 -1.46772 0
M  V30 3866 H 366.944 3.79203 -0.985515 0
M  V30 3867 H 368.641 3.76652 -1.37602 0
M  V30 3868 H 365.231 3.3021 -2.73238 0
M  V30 3869 H 369.415 3.29311 -3.71306 0
M  V30 3870 H 364.671 3.33285 -5.12573 0
M  V30 3871 H 368.845 3.33585 -6.11305 0
M  V30 3872 H 366.472 3.35124 -6.82346 0
M  V30 3873 N 368.047 0.979072 1.23499 0
M  V30 3874 C 369.293 0.648178 1.92163 0
M  V30 3875 C 369.626 -0.816049 1.76222 0
M  V30 3876 O 368.901 -1.58849 1.12237 0
M  V30 3877 C 369.184 1.03773 3.44824 0
M  V30 3878 C 369.037 2.55948 3.69879 0
M  V30 3879 C 370.356 0.580653 4.36253 0
M  V30 3880 H 367.475 0.236952 0.69787 0
M  V30 3881 H 370.117 1.22012 1.45647 0
M  V30 3882 H 368.267 0.551058 3.84572 0
M  V30 3883 H 369.939 3.12179 3.3962 0
M  V30 3884 H 368.182 2.98641 3.14636 0
M  V30 3885 H 368.853 2.78255 4.76737 0
M  V30 3886 H 371.329 0.998465 4.03943 0
M  V30 3887 H 370.205 0.881663 5.41773 0
M  V30 3888 H 370.466 -0.519052 4.39042 0
M  V30 3889 N 369.525 -1.3858 0.750561 0
M  V30 3890 C 370.802 -1.94231 0.231009 0
M  V30 3891 C 371.182 -1.68611 -1.27018 0
M  V30 3892 O 370.53 -1.02296 -2.04323 0
M  V30 3893 C 370.74 -3.44123 0.581428 0
M  V30 3894 C 372.088 -4.2116 0.539389 0
M  V30 3895 O 373.112 -3.52391 0.519541 0
M  V30 3896 O 371.971 -5.43749 0.54765 0
M  V30 3897 H 369.065 -0.825639 0.0474263 0
M  V30 3898 H 371.611 -1.4799 0.830478 0
M  V30 3899 H 370.383 -3.56267 1.61833 0
M  V30 3900 H 370.006 -3.97573 -0.0462047 0
M  V30 3901 N 371.003 -0.499398 -1.49478 0
M  V30 3902 C 372.231 0.0425456 -2.06856 0
M  V30 3903 C 372.646 1.30964 -1.35992 0
M  V30 3904 O 372.003 1.77172 -0.437762 0
M  V30 3905 C 372.054 0.301735 -3.60239 0
M  V30 3906 O 371.775 -0.915127 -4.28436 0
M  V30 3907 C 373.276 0.887499 -4.34325 0
M  V30 3908 H 370.496 -0.0197482 -0.670709 0
M  V30 3909 H 373.04 -0.696297 -1.92281 0
M  V30 3910 H 371.195 0.990556 -3.74522 0
M  V30 3911 H 371.609 -0.676993 -5.20113 0
M  V30 3912 H 373.083 1.01845 -5.42523 0
M  V30 3913 H 373.56 1.88488 -3.96698 0
M  V30 3914 H 374.166 0.236196 -4.24644 0
M  V30 3915 N 372.481 1.55866 -0.233164 0
M  V30 3916 C 373.892 1.847 0.272554 0
M  V30 3917 C 374.243 1.15477 1.58617 0
M  V30 3918 O 373.368 0.42841 2.12117 0
M  V30 3919 C 373.963 3.35071 0.501299 0
M  V30 3920 C 372.522 3.6418 0.951304 0
M  V30 3921 C 371.669 2.77292 0.0208209 0
M  V30 3922 H 374.62 1.52005 -0.456074 0
M  V30 3923 H 374.641 3.55906 1.34577 0
M  V30 3924 H 374.153 3.85424 -0.454936 0
M  V30 3925 H 372.254 3.19293 1.92049 0
M  V30 3926 H 372.367 4.72071 0.817675 0
M  V30 3927 H 370.731 2.49131 0.529723 0
M  V30 3928 H 371.514 3.30448 -0.93054 0
M  V30 3929 N 373.959 -0.0401083 1.57549 0
M  V30 3930 C 375.375 -0.395556 1.54621 0
M  V30 3931 C 375.575 -1.77281 0.957799 0
M  V30 3932 O 374.631 -2.45888 0.574031 0
M  V30 3933 C 375.944 -0.307535 2.99123 0
M  V30 3934 C 377.492 -0.385425 3.10618 0
M  V30 3935 C 377.967 -0.326973 4.56831 0
M  V30 3936 N 379.458 -0.386102 4.61588 0
M  V30 3937 C 380.193 -0.363591 5.72246 0
M  V30 3938 N 379.689 -0.29402 6.92176 0
M  V30 3939 N 381.482 -0.412503 5.60584 0
M  V30 3940 H 373.633 0.861325 1.94152 0
M  V30 3941 H 375.896 0.326445 0.890021 0
M  V30 3942 H 375.602 0.638461 3.45856 0
M  V30 3943 H 375.476 -1.10552 3.60636 0
M  V30 3944 H 377.863 -1.32185 2.63839 0
M  V30 3945 H 377.944 0.44171 2.51957 0
M  V30 3946 H 377.588 0.605738 5.04275 0
M  V30 3947 H 377.518 -1.17207 5.13391 0
M  V30 3948 H 380.009 -0.442832 3.75296 0
M  V30 3949 H 380.322 -0.28164 7.72287 0
M  V30 3950 H 378.667 -0.260232 6.94513 0
M  V30 3951 H 381.858 -0.464769 4.65787 0
M  V30 3952 H 382.031 -0.391492 6.46816 0
M  V30 3953 N 375.437 -1.54477 -0.31217 0
M  V30 3954 C 376.387 -1.81037 -1.38598 0
M  V30 3955 C 377.371 -0.666941 -1.46426 0
M  V30 3956 O 378.563 -0.927269 -1.50767 0
M  V30 3957 C 375.692 -2.05127 -2.75277 0
M  V30 3958 C 374.778 -3.25624 -2.71716 0
M  V30 3959 N 375.169 -4.46428 -2.37773 0
M  V30 3960 C 373.467 -3.27427 -3.02833 0
M  V30 3961 C 374.168 -5.28406 -2.43232 0
M  V30 3962 N 373.144 -4.6586 -2.80135 0
M  V30 3963 H 376.946 -2.7201 -1.11301 0
M  V30 3964 H 374.46 -1.53826 -0.520705 0
M  V30 3965 H 376.457 -2.22299 -3.52688 0
M  V30 3966 H 375.117 -1.15416 -3.03495 0
M  V30 3967 H 376.128 -4.73227 -2.1042 0
M  V30 3968 H 372.805 -2.47786 -3.36018 0
M  V30 3969 H 374.195 -6.34903 -2.19882 0
M  V30 3970 N 376.915 0.57481 -1.46744 0
M  V30 3971 C 378.161 1.3347 -1.52688 0
M  V30 3972 C 378.494 1.93353 -0.181229 0
M  V30 3973 O 377.769 1.76912 0.808237 0
M  V30 3974 C 378.052 2.45811 -2.63152 0
M  V30 3975 C 377.905 1.90912 -4.07275 0
M  V30 3976 C 379.224 3.47822 -2.69644 0
M  V30 3977 H 376.343 0.483935 -0.555856 0
M  V30 3978 H 378.985 0.644968 -1.78718 0
M  V30 3979 H 377.135 3.04646 -2.41088 0
M  V30 3980 H 378.807 1.36473 -4.4065 0
M  V30 3981 H 377.05 1.21691 -4.16382 0
M  V30 3982 H 377.721 2.72042 -4.80309 0
M  V30 3983 H 380.197 2.9888 -2.895 0
M  V30 3984 H 379.073 4.23876 -3.48742 0
M  V30 3985 H 379.334 4.05555 -1.76005 0
M  V30 3986 N 378.394 1.34581 0.820102 0
M  V30 3987 C 379.304 1.28471 1.96297 0
M  V30 3988 C 380.32 0.191902 1.72939 0
M  V30 3989 O 381.496 0.418879 1.96996 0
M  V30 3990 C 378.561 1.04281 3.30645 0
M  V30 3991 C 377.622 2.22745 3.66992 0
M  V30 3992 C 376.855 1.997 4.9493 0
M  V30 3993 O 377.078 0.956656 5.6232 0
M  V30 3994 O 376.012 2.86723 5.2922 0
M  V30 3995 H 379.838 2.24624 2.04396 0
M  V30 3996 H 377.423 1.14816 0.955913 0
M  V30 3997 H 379.305 0.925841 4.11104 0
M  V30 3998 H 377.98 0.111697 3.23507 0
M  V30 3999 H 376.887 2.40003 2.86966 0
M  V30 4000 H 378.22 3.14257 3.78819 0
M  V30 4001 N 379.872 -1.04064 1.18357 0
M  V30 4002 C 381.118 -1.77528 0.980397 0
M  V30 4003 C 381.451 -1.87948 -0.48879 0
M  V30 4004 O 380.726 -1.3876 -1.36293 0
M  V30 4005 C 381.009 -3.20797 1.63588 0
M  V30 4006 C 380.862 -3.1832 3.17793 0
M  V30 4007 C 382.181 -4.18911 1.34914 0
M  V30 4008 H 379.3 -0.644443 0.357578 0
M  V30 4009 H 381.942 -1.2156 1.46024 0
M  V30 4010 H 380.092 -3.68586 1.22788 0
M  V30 4011 H 381.764 -2.78521 3.67728 0
M  V30 4012 H 380.007 -2.56351 3.49952 0
M  V30 4013 H 380.678 -4.19489 3.58794 0
M  V30 4014 H 383.154 -3.7967 1.70265 0
M  V30 4015 H 382.03 -5.17374 1.83346 0
M  V30 4016 H 382.291 -4.41262 0.272027 0
M  V30 4017 N 381.35 -0.985608 -1.22978 0
M  V30 4018 C 382.282 -0.488154 -2.23941 0
M  V30 4019 C 383.295 0.41282 -1.57479 0
M  V30 4020 O 384.484 0.216121 -1.77187 0
M  V30 4021 C 381.584 0.312611 -3.37455 0
M  V30 4022 C 380.757 -0.582741 -4.33501 0
M  V30 4023 C 379.816 0.165064 -5.25941 0
M  V30 4024 O 378.842 -0.447077 -5.67442 0
M  V30 4025 N 380.044 1.44953 -5.62111 0
M  V30 4026 H 382.809 -1.3563 -2.67254 0
M  V30 4027 H 380.37 -0.859477 -1.37203 0
M  V30 4028 H 382.362 0.821357 -3.96277 0
M  V30 4029 H 380.932 1.0818 -2.93285 0
M  V30 4030 H 380.152 -1.27225 -3.73105 0
M  V30 4031 H 381.44 -1.19275 -4.94622 0
M  V30 4032 H 380.838 1.9683 -5.30353 0
M  V30 4033 H 379.395 1.90361 -6.23383 0
M  V30 4034 N 382.828 1.3818 -0.7579 0
M  V30 4035 C 384.074 2.00316 -0.316453 0
M  V30 4036 C 384.407 1.60026 1.10025 0
M  V30 4037 O 383.682 0.839835 1.75434 0
M  V30 4038 C 383.965 3.57349 -0.444245 0
M  V30 4039 C 383.818 4.07591 -1.90236 0
M  V30 4040 C 385.137 4.3981 0.1598 0
M  V30 4041 H 382.256 0.727741 -0.116459 0
M  V30 4042 H 384.898 1.6406 -0.958352 0
M  V30 4043 H 383.048 3.88365 0.102233 0
M  V30 4044 H 384.72 3.87199 -2.50748 0
M  V30 4045 H 382.963 3.60297 -2.41595 0
M  V30 4046 H 383.634 5.16677 -1.94291 0
M  V30 4047 H 386.11 4.14971 -0.306314 0
M  V30 4048 H 384.986 5.48885 0.0401675 0
M  V30 4049 H 385.247 4.24102 1.24859 0
M  V30 4050 N 384.306 0.507319 1.49211 0
M  V30 4051 C 385.553 -0.0349529 2.0247 0
M  V30 4052 C 385.881 -1.36409 1.38647 0
M  V30 4053 O 385.136 -1.88841 0.513566 0
M  V30 4054 C 385.435 -0.229513 3.56662 0
M  V30 4055 C 385.101 1.02241 4.39156 0
M  V30 4056 C 383.763 1.36557 4.61417 0
M  V30 4057 C 386.115 1.85428 4.871 0
M  V30 4058 C 383.443 2.53999 5.28868 0
M  V30 4059 C 385.795 3.02028 5.55843 0
M  V30 4060 C 384.459 3.36717 5.76349 0
M  V30 4061 H 383.729 -0.0127902 0.74089 0
M  V30 4062 H 386.376 0.668756 1.79443 0
M  V30 4063 H 384.681 -1.0158 3.78403 0
M  V30 4064 H 386.378 -0.663641 3.9547 0
M  V30 4065 H 382.968 0.745124 4.22073 0
M  V30 4066 H 387.152 1.6023 4.69723 0
M  V30 4067 H 382.408 2.81105 5.42946 0
M  V30 4068 H 386.582 3.66808 5.91967 0
M  V30 4069 H 384.209 4.27821 6.28389 0
M  V30 4070 N 385.784 -1.5574 0.241426 0
M  V30 4071 C 387.032 -1.98417 -0.384075 0
M  V30 4072 C 387.353 -1.13078 -1.58866 0
M  V30 4073 O 386.623 -0.212312 -1.94746 0
M  V30 4074 H 385.203 -0.732813 -0.144894 0
M  V30 4075 H 387.865 -1.9193 0.338943 0
M  V30 4076 H 386.961 -3.04219 -0.696939 0
M  V30 4077 N 387.262 0.0317525 -1.57568 0
M  V30 4078 C 388.539 0.758366 -1.803 0
M  V30 4079 C 388.919 1.93718 -0.838845 0
M  V30 4080 O 388.267 2.28187 0.119571 0
M  V30 4081 C 388.477 1.19392 -3.27943 0
M  V30 4082 C 389.825 1.61094 -3.92854 0
M  V30 4083 O 390.849 1.28857 -3.32076 0
M  V30 4084 O 389.708 2.20918 -4.99858 0
M  V30 4085 H 386.802 0.366514 -0.741348 0
M  V30 4086 H 389.348 0.00873765 -1.69698 0
M  V30 4087 H 388.12 0.352275 -3.89711 0
M  V30 4088 H 387.743 2.00365 -3.43424 0
M  V30 4089 N 388.74 1.54641 0.303973 0
M  V30 4090 C 389.69 1.8177 1.37636 0
M  V30 4091 C 390.674 0.674697 1.46071 0
M  V30 4092 O 391.866 0.935251 1.50273 0
M  V30 4093 C 388.995 2.06584 2.74186 0
M  V30 4094 C 388.081 3.2706 2.69986 0
M  V30 4095 N 388.472 4.47682 2.35402 0
M  V30 4096 C 386.77 3.29028 3.01092 0
M  V30 4097 C 387.471 5.29689 2.40426 0
M  V30 4098 N 386.447 4.67339 2.7766 0
M  V30 4099 H 390.249 2.72596 1.09857 0
M  V30 4100 H 387.763 1.541 0.51254 0
M  V30 4101 H 389.76 2.24166 3.51504 0
M  V30 4102 H 388.42 1.17024 3.02879 0
M  V30 4103 H 389.431 4.74336 2.07908 0
M  V30 4104 H 386.108 2.49565 3.34699 0
M  V30 4105 H 387.498 6.3606 2.16512 0
M  V30 4106 N 390.218 -0.567019 1.47046 0
M  V30 4107 C 391.168 -1.67018 1.55207 0
M  V30 4108 C 392.152 -1.55543 0.411714 0
M  V30 4109 O 393.344 -1.64192 0.661064 0
M  V30 4110 C 390.473 -3.05801 1.56014 0
M  V30 4111 C 389.559 -3.22515 2.75399 0
M  V30 4112 N 389.95 -3.09329 4.00186 0
M  V30 4113 C 388.248 -3.53493 2.71954 0
M  V30 4114 C 388.949 -3.2847 4.80086 0
M  V30 4115 N 387.925 -3.54352 4.12233 0
M  V30 4116 H 391.727 -1.55377 2.4947 0
M  V30 4117 H 389.241 -0.771503 1.42904 0
M  V30 4118 H 391.238 -3.84996 1.59949 0
M  V30 4119 H 389.898 -3.18561 0.628396 0
M  V30 4120 H 390.909 -2.86863 4.31196 0
M  V30 4121 H 387.586 -3.7284 1.87873 0
M  V30 4122 H 388.976 -3.23326 5.88991 0
M  V30 4123 N 391.696 -1.35014 -0.812953 0
M  V30 4124 C 392.944 -1.27678 -1.56661 0
M  V30 4125 C 393.265 0.150359 -1.94419 0
M  V30 4126 O 392.535 1.08532 -1.63088 0
M  V30 4127 H 391.115 -0.469602 -0.580933 0
M  V30 4128 H 393.777 -1.69043 -0.970076 0
M  V30 4129 H 392.873 -1.88833 -2.48492 0
M  V30 4130 N 393.175 1.03435 -1.18907 0
M  V30 4131 C 394.123 2.13703 -0.918353 0
M  V30 4132 C 395.117 1.68947 0.123767 0
M  V30 4133 O 396.323 1.79983 -0.0249701 0
M  V30 4134 H 392.698 0.698112 -0.279542 0
M  V30 4135 H 394.669 2.33731 -1.85506 0
M  V30 4136 C 393.418 3.44542 -0.467532 0
M  V30 4137 H 392.741 3.79394 -1.26095 0
M  V30 4138 H 394.181 4.22812 -0.317164 0
M  V30 4139 C 392.64 3.26829 0.817588 0
M  V30 4140 O 393.17 3.54975 1.88031 0
M  V30 4141 N 391.376 2.80139 0.772677 0
M  V30 4142 H 390.923 2.57434 -0.0923883 0
M  V30 4143 H 390.881 2.68668 1.63294 0
M  V30 4144 N 394.653 0.992116 1.22453 0
M  V30 4145 C 395.616 0.546883 2.2258 0
M  V30 4146 C 396.616 -0.369829 1.56489 0
M  V30 4147 O 397.806 -0.161896 1.73446 0
M  V30 4148 C 394.938 -0.204659 3.40285 0
M  V30 4149 H 396.131 1.43234 2.63484 0
M  V30 4150 H 393.684 0.779239 1.3549 0
M  V30 4151 H 394.419 -1.10614 3.04853 0
M  V30 4152 H 394.204 0.45354 3.89468 0
M  V30 4153 H 395.694 -0.504358 4.14543 0
M  V30 4154 N 396.131 -1.37776 0.765217 0
M  V30 4155 C 397.377 -2.00145 0.327072 0
M  V30 4156 C 397.71 -1.60607 -1.09175 0
M  V30 4157 O 396.985 -0.849127 -1.74986 0
M  V30 4158 C 397.268 -3.57109 0.46319 0
M  V30 4159 C 397.121 -4.06576 1.92395 0
M  V30 4160 C 398.44 -4.39888 -0.136473 0
M  V30 4161 H 395.559 -0.727113 0.120316 0
M  V30 4162 H 398.201 -1.63549 0.967039 0
M  V30 4163 H 396.351 -3.88414 -0.0816358 0
M  V30 4164 H 398.023 -3.85864 2.52798 0
M  V30 4165 H 396.266 -3.59011 2.43503 0
M  V30 4166 H 396.937 -5.15639 1.97028 0
M  V30 4167 H 399.413 -4.14803 0.328317 0
M  V30 4168 H 398.289 -5.48899 -0.0110582 0
M  V30 4169 H 398.55 -4.24758 -1.22608 0
M  V30 4170 N 397.609 -0.515225 -1.4894 0
M  V30 4171 C 398.839 0.0205735 -2.0659 0
M  V30 4172 C 399.247 1.30064 -1.37405 0
M  V30 4173 O 398.59 1.78087 -0.450632 0
M  V30 4174 C 398.652 0.330124 -3.57981 0
M  V30 4175 C 398.316 -0.854295 -4.48944 0
M  V30 4176 C 399.313 -1.7487 -4.89609 0
M  V30 4177 C 396.998 -1.05712 -4.9105 0
M  V30 4178 C 398.992 -2.82996 -5.71132 0
M  V30 4179 C 396.679 -2.14154 -5.72347 0
M  V30 4180 C 397.677 -3.0263 -6.12294 0
M  V30 4181 O 397.365 -4.09198 -6.91962 0
M  V30 4182 H 397.097 -0.0236833 -0.675585 0
M  V30 4183 H 399.651 -0.715956 -1.92518 0
M  V30 4184 H 397.881 1.12044 -3.70112 0
M  V30 4185 H 399.57 0.806233 -3.97812 0
M  V30 4186 H 400.336 -1.60388 -4.57712 0
M  V30 4187 H 396.215 -0.377788 -4.59449 0
M  V30 4188 H 399.759 -3.52083 -6.02232 0
M  V30 4189 H 395.656 -2.28626 -6.03656 0
M  V30 4190 H 396.424 -4.06726 -7.10293 0
M  V30 4191 N 399.087 1.5561 -0.249682 0
M  V30 4192 C 400.017 2.24477 0.642826 0
M  V30 4193 C 400.998 1.22601 1.17911 0
M  V30 4194 O 402.183 1.5126 1.21795 0
M  V30 4195 C 399.313 2.94638 1.83863 0
M  V30 4196 C 398.267 4.03227 1.435 0
M  V30 4197 C 397.593 4.60828 2.71186 0
M  V30 4198 C 398.893 5.18796 0.604002 0
M  V30 4199 H 400.587 2.99321 0.0685625 0
M  V30 4200 H 398.133 1.43965 0.0315363 0
M  V30 4201 H 400.086 3.41517 2.46868 0
M  V30 4202 H 398.81 2.17287 2.43832 0
M  V30 4203 H 397.469 3.57121 0.828275 0
M  V30 4204 H 397.117 3.80174 3.29358 0
M  V30 4205 H 396.817 5.34132 2.44901 0
M  V30 4206 H 398.341 5.10442 3.35084 0
M  V30 4207 H 399.755 5.61883 1.13842 0
M  V30 4208 H 398.152 5.98506 0.437097 0
M  V30 4209 H 399.222 4.83384 -0.383147 0
M  V30 4210 N 400.565 -0.0233959 1.57583 0
M  V30 4211 C 401.812 -0.713063 1.8953 0
M  V30 4212 C 402.14 -1.75056 0.847673 0
M  V30 4213 O 401.395 -1.95119 -0.150636 0
M  V30 4214 C 401.694 -1.41428 3.28227 0
M  V30 4215 C 401.36 -0.512222 4.47981 0
M  V30 4216 C 400.022 -0.263785 4.80476 0
M  V30 4217 C 402.374 0.110248 5.21083 0
M  V30 4218 C 399.702 0.615804 5.83459 0
M  V30 4219 C 402.054 0.977573 6.25001 0
M  V30 4220 C 400.718 1.23542 6.55968 0
M  V30 4221 H 399.988 -0.260928 0.69354 0
M  V30 4222 H 402.635 0.0271047 1.91481 0
M  V30 4223 H 400.94 -2.22791 3.22291 0
M  V30 4224 H 402.637 -1.95355 3.50196 0
M  V30 4225 H 399.227 -0.716013 4.22577 0
M  V30 4226 H 403.411 -0.0687137 4.96252 0
M  V30 4227 H 398.667 0.82382 6.05824 0
M  V30 4228 H 402.841 1.46638 6.80786 0
M  V30 4229 H 400.468 1.91871 7.35588 0
M  V30 4230 N 402.043 -1.548 -0.295768 0
M  V30 4231 C 402.953 -1.89177 -1.38742 0
M  V30 4232 C 403.969 -0.786481 -1.55211 0
M  V30 4233 O 405.145 -1.08344 -1.69775 0
M  V30 4234 C 402.21 -2.13663 -2.73036 0
M  V30 4235 C 401.271 -3.37349 -2.65508 0
M  V30 4236 C 400.504 -3.60658 -3.93398 0
M  V30 4237 O 400.727 -2.86882 -4.93006 0
M  V30 4238 O 399.661 -4.54179 -3.94975 0
M  V30 4239 H 403.487 -2.82059 -1.12589 0
M  V30 4240 H 401.072 -1.41056 -0.492295 0
M  V30 4241 H 402.954 -2.3094 -3.52484 0
M  V30 4242 H 401.629 -1.23967 -2.99022 0
M  V30 4243 H 400.536 -3.25431 -1.84514 0
M  V30 4244 H 401.869 -4.27192 -2.44474 0
M  V30 4245 N 403.521 0.559213 -1.47345 0
M  V30 4246 C 404.937 0.884943 -1.32819 0
M  V30 4247 C 405.137 1.98988 -0.317173 0
M  V30 4248 O 404.193 2.51031 0.272011 0
M  V30 4249 C 405.506 1.28007 -2.72093 0
M  V30 4250 C 407.054 1.39161 -2.80363 0
M  V30 4251 C 407.529 1.82031 -4.20272 0
M  V30 4252 N 409.02 1.89185 -4.22804 0
M  V30 4253 C 409.755 2.2368 -5.27973 0
M  V30 4254 N 409.251 2.56802 -6.43447 0
M  V30 4255 N 411.044 2.24436 -5.15349 0
M  V30 4256 H 403.195 -0.170304 -2.11716 0
M  V30 4257 H 405.458 -0.0135247 -0.947904 0
M  V30 4258 H 405.164 0.542027 -3.47498 0
M  V30 4259 H 405.038 2.23665 -3.03733 0
M  V30 4260 H 407.425 2.12048 -2.05231 0
M  V30 4261 H 407.506 0.41696 -2.52379 0
M  V30 4262 H 407.15 1.09715 -4.95908 0
M  V30 4263 H 407.08 2.80495 -4.45679 0
M  V30 4264 H 409.571 1.65982 -3.39497 0
M  V30 4265 H 409.884 2.82144 -7.19454 0
M  V30 4266 H 408.229 2.54387 -6.46771 0
M  V30 4267 H 411.42 1.97998 -4.24163 0
M  V30 4268 H 411.593 2.50989 -5.97418 0
M  V30 4269 N 404.999 1.35443 0.805782 0
M  V30 4270 C 406.276 1.19325 1.54987 0
M  V30 4271 C 406.656 -0.227294 2.09873 0
M  V30 4272 O 406.004 -1.2309 1.92512 0
M  V30 4273 C 406.214 2.26196 2.65775 0
M  V30 4274 C 407.562 2.62043 3.34094 0
M  V30 4275 O 408.586 2.25115 2.76046 0
M  V30 4276 O 407.445 3.25542 4.38958 0
M  V30 4277 H 404.539 0.463623 0.684823 0
M  V30 4278 H 407.085 1.47127 0.845674 0
M  V30 4279 H 405.857 3.21471 2.23096 0
M  V30 4280 H 405.48 1.99667 3.43829 0
M  V30 4281 N 406.477 -1.02803 1.19454 0
M  V30 4282 C 407.717 -1.77769 1.00883 0
M  V30 4283 C 408.081 -1.86596 -0.45233 0
M  V30 4284 O 409.282 -2.57895 -0.757877 0
M  V30 4285 C 407.553 -3.16486 1.66046 0
M  V30 4286 S 409.112 -4.07632 1.62424 0
M  V30 4287 H 405.93 -0.611949 0.361993 0
M  V30 4288 H 408.532 -1.23175 1.51816 0
M  V30 4289 H 407.236 -3.0768 2.7159 0
M  V30 4290 H 406.767 -3.76156 1.15196 0
M  V30 4291 H 408.782 -4.91937 0.64903 0
M  V30 4292 N 407.956 -0.998596 -1.21925 0
M  V30 4293 C 409.181 -0.696015 -1.95372 0
M  V30 4294 C 409.606 0.733826 -1.73195 0
M  V30 4295 O 408.964 1.50242 -1.01474 0
M  V30 4296 C 409.012 -1.01466 -3.4603 0
M  V30 4297 O 408.116 -0.116415 -4.12236 0
M  V30 4298 H 407.457 -0.259938 -0.611006 0
M  V30 4299 H 409.987 -1.33711 -1.54863 0
M  V30 4300 H 409.997 -0.958855 -3.96573 0
M  V30 4301 H 408.672 -2.05653 -3.61497 0
M  V30 4302 H 407.249 -0.228193 -3.72201 0
M  V30 4303 N 409.434 1.37368 -0.772513 0
M  V30 4304 C 410.68 1.99969 -0.337681 0
M  V30 4305 C 411.013 1.61184 1.08321 0
M  V30 4306 O 410.288 0.858395 1.74533 0
M  V30 4307 C 410.571 3.56858 -0.482121 0
M  V30 4308 C 410.424 4.0555 -1.94549 0
M  V30 4309 C 411.743 4.39955 0.113143 0
M  V30 4310 H 408.862 0.726464 -0.124171 0
M  V30 4311 H 411.504 1.63034 -0.975699 0
M  V30 4312 H 409.654 3.88452 0.0610361 0
M  V30 4313 H 411.326 3.84518 -2.54841 0
M  V30 4314 H 409.569 3.57715 -2.45403 0
M  V30 4315 H 410.24 5.14587 -1.9976 0
M  V30 4316 H 412.716 4.14623 -0.35031 0
M  V30 4317 H 411.592 5.48897 -0.0180514 0
M  V30 4318 H 411.853 4.25403 1.20354 0
M  V30 4319 N 410.912 0.523116 1.48665 0
M  V30 4320 C 411.844 -0.280421 2.27478 0
M  V30 4321 C 412.857 -0.910694 1.34945 0
M  V30 4322 O 414.046 -0.790295 1.60052 0
M  V30 4323 C 411.146 -1.41171 3.08097 0
M  V30 4324 C 410.319 -0.884642 4.28361 0
M  V30 4325 C 409.378 -1.89622 4.90846 0
M  V30 4326 O 408.404 -1.4559 5.50265 0
M  V30 4327 N 409.606 -3.22801 4.82472 0
M  V30 4328 H 412.371 0.395481 2.97079 0
M  V30 4329 H 409.932 0.357018 1.57915 0
M  V30 4330 H 411.924 -2.08645 3.4677 0
M  V30 4331 H 410.494 -1.99139 2.40961 0
M  V30 4332 H 409.714 -0.0341177 3.94185 0
M  V30 4333 H 411.002 -0.511268 5.06225 0
M  V30 4334 H 410.4 -3.61246 4.35336 0
M  V30 4335 H 408.957 -3.85927 5.25265 0
M  V30 4336 N 412.39 -1.55475 0.257931 0
M  V30 4337 C 413.806 -1.59307 -0.0966563 0
M  V30 4338 C 414.006 -1.27514 -1.5602 0
M  V30 4339 O 413.062 -1.02774 -2.30637 0
M  V30 4340 C 414.375 -2.99552 0.262481 0
M  V30 4341 C 415.923 -3.1231 0.207683 0
M  V30 4342 C 416.398 -4.54793 0.541012 0
M  V30 4343 N 417.889 -4.6058 0.491921 0
M  V30 4344 C 418.624 -5.68825 0.722857 0
M  V30 4345 N 418.12 -6.85287 1.0175 0
M  V30 4346 N 419.913 -5.58296 0.652815 0
M  V30 4347 H 412.064 -1.74409 1.21224 0
M  V30 4348 H 414.327 -0.812424 0.48854 0
M  V30 4349 H 414.033 -3.27593 1.27967 0
M  V30 4350 H 413.907 -3.75019 -0.40508 0
M  V30 4351 H 416.294 -2.84044 -0.800195 0
M  V30 4352 H 416.375 -2.39095 0.909255 0
M  V30 4353 H 416.019 -4.83783 1.5465 0
M  V30 4354 H 415.949 -5.26285 -0.18216 0
M  V30 4355 H 418.44 -3.7691 0.273366 0
M  V30 4356 H 418.753 -7.63725 1.18084 0
M  V30 4357 H 417.098 -6.86945 1.05509 0
M  V30 4358 H 420.289 -4.66189 0.422592 0
M  V30 4359 H 420.462 -6.42582 0.836182 0
M  V30 4360 N 413.868 0.0150385 -1.57593 0
M  V30 4361 C 415.284 0.370907 -1.5523 0
M  V30 4362 C 415.484 1.75735 -0.985882 0
M  V30 4363 O 414.54 2.44944 -0.613077 0
M  V30 4364 C 415.853 0.259908 -2.99575 0
M  V30 4365 C 417.401 0.335959 -3.11192 0
M  V30 4366 C 417.876 0.254253 -4.57294 0
M  V30 4367 N 419.367 0.312618 -4.62144 0
M  V30 4368 C 420.102 0.272505 -5.72752 0
M  V30 4369 N 419.598 0.183864 -6.92556 0
M  V30 4370 N 421.391 0.323267 -5.6117 0
M  V30 4371 H 413.542 -0.892104 -1.92757 0
M  V30 4372 H 415.805 -0.340563 -0.884715 0
M  V30 4373 H 415.511 -0.693403 -3.44797 0
M  V30 4374 H 415.385 1.048 -3.62349 0
M  V30 4375 H 417.772 1.27971 -2.65909 0
M  V30 4376 H 417.853 -0.481739 -2.51223 0
M  V30 4377 H 417.497 -0.685887 -5.03247 0
M  V30 4378 H 417.427 1.09024 -5.15191 0
M  V30 4379 H 419.918 0.38307 -3.75953 0
M  V30 4380 H 420.231 0.15874 -7.72637 0
M  V30 4381 H 418.576 0.149708 -6.94839 0
M  V30 4382 H 421.767 0.390607 -4.66467 0
M  V30 4383 H 421.94 0.288539 -6.47357 0
M  V30 4384 N 415.346 1.54954 0.287554 0
M  V30 4385 C 416.296 1.8322 1.357 0
M  V30 4386 C 417.28 0.690152 1.45347 0
M  V30 4387 O 418.472 0.951137 1.49273 0
M  V30 4388 C 415.601 2.09481 2.71979 0
M  V30 4389 C 414.687 3.29906 2.66502 0
M  V30 4390 N 415.078 4.50154 2.30641 0
M  V30 4391 C 413.376 3.32203 2.97585 0
M  V30 4392 C 414.077 5.32209 2.34794 0
M  V30 4393 N 413.053 4.70258 2.72688 0
M  V30 4394 H 416.855 2.73746 1.0696 0
M  V30 4395 H 414.369 1.54635 0.496167 0
M  V30 4396 H 416.366 2.27882 3.49107 0
M  V30 4397 H 415.026 1.2023 3.0162 0
M  V30 4398 H 416.037 4.76515 2.02865 0
M  V30 4399 H 412.714 2.53101 3.32034 0
M  V30 4400 H 414.104 6.38321 2.09753 0
M  V30 4401 N 416.824 -0.551391 1.4764 0
M  V30 4402 C 417.756 -1.67333 1.56628 0
M  V30 4403 C 418.769 -1.56398 0.452045 0
M  V30 4404 O 419.958 -1.6325 0.721926 0
M  V30 4405 C 417.058 -3.05841 1.45994 0
M  V30 4406 C 416.231 -3.42472 2.72088 0
M  V30 4407 C 415.29 -4.60168 2.55209 0
M  V30 4408 O 414.316 -4.64458 3.2904 0
M  V30 4409 N 415.518 -5.57024 1.63416 0
M  V30 4410 H 418.283 -1.60066 2.53375 0
M  V30 4411 H 415.844 -0.738169 1.44093 0
M  V30 4412 H 417.836 -3.8242 1.32428 0
M  V30 4413 H 416.406 -3.07302 0.573071 0
M  V30 4414 H 415.626 -2.55284 3.00373 0
M  V30 4415 H 416.914 -3.63723 3.55785 0
M  V30 4416 H 416.312 -5.56319 1.02594 0
M  V30 4417 H 414.869 -6.32906 1.558 0
M  V30 4418 N 418.302 -1.35869 -0.798587 0
M  V30 4419 C 419.249 -1.29446 -1.91082 0
M  V30 4420 C 420.219 -0.16487 -1.6528 0
M  V30 4421 O 421.404 -0.349888 -1.87564 0
M  V30 4422 C 418.544 -1.0804 -3.27752 0
M  V30 4423 C 417.657 -2.29993 -3.65687 0
M  V30 4424 C 416.792 -2.01673 -4.91428 0
M  V30 4425 C 415.831 -3.19636 -5.22015 0
M  V30 4426 N 414.968 -2.91039 -6.38937 0
M  V30 4427 H 419.808 -2.24553 -1.95907 0
M  V30 4428 H 417.345 -1.11615 -0.958148 0
M  V30 4429 H 419.303 -0.936586 -4.06551 0
M  V30 4430 H 417.933 -0.16592 -3.22373 0
M  V30 4431 H 416.985 -2.55211 -2.82085 0
M  V30 4432 H 418.297 -3.18052 -3.84245 0
M  V30 4433 H 417.451 -1.84168 -5.78072 0
M  V30 4434 H 416.19 -1.10911 -4.74921 0
M  V30 4435 H 415.195 -3.37709 -4.33858 0
M  V30 4436 H 416.42 -4.11211 -5.40447 0
M  V30 4437 H 414.366 -2.0288 -6.2384 0
M  V30 4438 H 414.283 -3.72635 -6.57784 0
M  V30 4439 H 415.551 -2.77093 -7.28587 0
M  V30 4440 N 419.78 1.02168 -1.19998 0
M  V30 4441 C 421.029 1.75091 -1.0013 0
M  V30 4442 C 421.342 1.89923 0.467835 0
M  V30 4443 O 422.548 2.59888 0.785515 0
M  V30 4444 C 421.004 3.14892 -1.74273 0
M  V30 4445 C 420.612 3.0809 -3.25245 0
M  V30 4446 C 422.356 3.9206 -1.62755 0
M  V30 4447 C 420.263 4.42867 -3.91948 0
M  V30 4448 H 419.193 0.656394 -0.37103 0
M  V30 4449 H 421.844 1.14284 -1.43567 0
M  V30 4450 H 420.226 3.7621 -1.2362 0
M  V30 4451 H 421.4 2.5611 -3.83072 0
M  V30 4452 H 419.715 2.44416 -3.3712 0
M  V30 4453 H 422.312 4.91764 -2.09934 0
M  V30 4454 H 422.655 4.12199 -0.582894 0
M  V30 4455 H 423.188 3.37359 -2.10793 0
M  V30 4456 H 419.927 4.27931 -4.96543 0
M  V30 4457 H 419.447 4.94874 -3.3891 0
M  V30 4458 H 421.126 5.11728 -3.95909 0
M  V30 4459 N 421.258 1.00505 1.21394 0
M  V30 4460 C 422.507 0.683159 1.89778 0
M  V30 4461 C 422.82 -0.789471 1.7896 0
M  V30 4462 O 424.026 -1.22344 2.42372 0
M  V30 4463 C 422.482 1.17146 3.40301 0
M  V30 4464 C 422.09 2.67017 3.5973 0
M  V30 4465 C 423.834 0.924461 4.14311 0
M  V30 4466 C 421.741 3.09387 5.04017 0
M  V30 4467 H 420.671 0.25183 0.710702 0
M  V30 4468 H 423.322 1.21622 1.37406 0
M  V30 4469 H 421.704 0.566451 3.91928 0
M  V30 4470 H 422.878 3.32968 3.18542 0
M  V30 4471 H 421.193 2.89732 2.99073 0
M  V30 4472 H 423.79 1.21658 5.20676 0
M  V30 4473 H 424.133 -0.139286 4.16067 0
M  V30 4474 H 424.666 1.49226 3.6875 0
M  V30 4475 H 421.405 4.14989 5.07409 0
M  V30 4476 H 420.925 2.48149 5.46061 0
M  V30 4477 H 422.604 3.01371 5.72525 0
M  V30 4478 N 422.737 -1.36956 0.779787 0
M  V30 4479 C 423.647 -2.33965 0.172491 0
M  V30 4480 C 424.663 -1.60574 -0.670222 0
M  V30 4481 O 425.839 -1.92617 -0.588263 0
M  V30 4482 C 422.904 -3.39761 -0.690173 0
M  V30 4483 C 421.965 -4.28964 0.169924 0
M  V30 4484 C 421.198 -5.29707 -0.651662 0
M  V30 4485 O 421.421 -5.38238 -1.88827 0
M  V30 4486 O 420.355 -6.01873 -0.0566264 0
M  V30 4487 H 424.181 -2.87647 0.974321 0
M  V30 4488 H 421.766 -1.39258 0.541078 0
M  V30 4489 H 423.648 -4.04471 -1.1824 0
M  V30 4490 H 422.323 -2.88394 -1.47006 0
M  V30 4491 H 421.23 -3.67326 0.708696 0
M  V30 4492 H 422.563 -4.83656 0.913085 0
M  V30 4493 N 424.215 -0.530993 -1.48385 0
M  V30 4494 C 425.125 0.23503 -2.3342 0
M  V30 4495 C 426.141 0.93801 -1.46552 0
M  V30 4496 O 427.317 0.912745 -1.7953 0
M  V30 4497 C 424.382 1.26778 -3.22689 0
M  V30 4498 C 423.443 0.575038 -4.25431 0
M  V30 4499 C 422.676 1.55858 -5.10435 0
M  V30 4500 O 422.899 2.79129 -4.97437 0
M  V30 4501 O 421.833 1.09742 -5.91811 0
M  V30 4502 H 425.659 -0.461794 -3.00169 0
M  V30 4503 H 423.244 -0.291903 -1.46521 0
M  V30 4504 H 425.126 1.86457 -3.77904 0
M  V30 4505 H 423.801 1.94699 -2.586 0
M  V30 4506 H 422.708 -0.0622782 -3.74048 0
M  V30 4507 H 424.041 -0.062253 -4.92161 0
M  V30 4508 N 425.693 1.55336 -0.266172 0
M  V30 4509 C 426.656 2.20878 0.612001 0
M  V30 4510 C 427.656 1.18388 1.08816 0
M  V30 4511 O 428.846 1.4335 0.989774 0
M  V30 4512 C 425.978 2.86765 1.84332 0
M  V30 4513 H 427.171 2.99873 0.0398718 0
M  V30 4514 H 424.724 1.56291 -0.0167309 0
M  V30 4515 H 425.459 2.11759 2.45619 0
M  V30 4516 H 425.244 3.61862 1.5099 0
M  V30 4517 H 426.734 3.36867 2.46801 0
M  V30 4518 N 427.171 -0.0066808 1.57599 0
M  V30 4519 C 428.582 -0.550379 1.78403 0
M  V30 4520 C 428.933 -1.74339 0.900014 0
M  V30 4521 O 428.058 -2.16166 0.100713 0
M  V30 4522 C 428.653 -1.00523 3.23544 0
M  V30 4523 C 427.212 -1.49428 3.45468 0
M  V30 4524 C 426.359 -0.442444 2.73748 0
M  V30 4525 H 429.31 0.219508 1.57175 0
M  V30 4526 H 429.331 -1.87157 3.31289 0
M  V30 4527 H 428.843 -0.136735 3.87859 0
M  V30 4528 H 426.944 -2.3839 2.86358 0
M  V30 4529 H 427.057 -1.52635 4.54136 0
M  V30 4530 H 425.421 -0.902578 2.38171 0
M  V30 4531 H 426.204 0.416973 3.40758 0
M  V30 4532 N 428.649 -1.55105 -0.279332 0
M  V30 4533 C 429.612 -1.86783 -1.32834 0
M  V30 4534 C 430.612 -0.74199 -1.42657 0
M  V30 4535 O 431.802 -1.0102 -1.41918 0
M  V30 4536 C 428.934 -2.06746 -2.71052 0
M  V30 4537 H 430.127 -2.8055 -1.05979 0
M  V30 4538 H 427.68 -1.47499 -0.517087 0
M  V30 4539 H 428.415 -1.15339 -3.03097 0
M  V30 4540 H 428.2 -2.88711 -2.65309 0
M  V30 4541 H 429.69 -2.32549 -3.46858 0
M  V30 4542 N 430.127 0.543554 -1.4793 0
M  V30 4543 C 431.538 1.12561 -1.48953 0
M  V30 4544 C 431.889 1.94578 -0.251754 0
M  V30 4545 O 431.014 2.0665 0.642255 0
M  V30 4546 C 431.609 2.04801 -2.69892 0
M  V30 4547 C 430.168 2.58251 -2.73831 0
M  V30 4548 C 429.315 1.34918 -2.42265 0
M  V30 4549 H 432.266 0.32947 -1.55242 0
M  V30 4550 H 432.287 2.88886 -2.47639 0
M  V30 4551 H 431.799 1.4508 -3.59963 0
M  V30 4552 H 429.9 3.21732 -1.87934 0
M  V30 4553 H 430.013 2.98312 -3.74895 0
M  V30 4554 H 428.377 1.66046 -1.93134 0
M  V30 4555 H 429.16 0.769693 -3.3456 0
M  V30 4556 N 431.605 1.3629 0.791371 0
M  V30 4557 C 432.853 1.30154 1.5461 0
M  V30 4558 C 433.174 -0.119409 1.94634 0
M  V30 4559 O 432.444 -1.05924 1.64794 0
M  V30 4560 H 431.024 0.478784 0.573389 0
M  V30 4561 H 433.686 1.70565 0.94306 0
M  V30 4562 H 432.782 1.92762 2.45457 0
M  V30 4563 N 433.083 -1.0153 1.20538 0
M  V30 4564 C 434.332 -1.74558 1.01057 0
M  V30 4565 C 434.645 -1.90168 -0.457756 0
M  V30 4566 O 435.851 -2.60301 -0.771722 0
M  V30 4567 C 434.307 -3.13963 1.75941 0
M  V30 4568 C 433.915 -3.06361 3.26875 0
M  V30 4569 C 435.659 -3.91191 1.64832 0
M  V30 4570 C 433.566 -4.40782 3.94291 0
M  V30 4571 H 432.496 -0.654417 0.374505 0
M  V30 4572 H 435.147 -1.13521 1.44171 0
M  V30 4573 H 433.529 -3.75549 1.25614 0
M  V30 4574 H 434.703 -2.54074 3.84425 0
M  V30 4575 H 433.018 -2.42625 3.38411 0
M  V30 4576 H 435.615 -4.90644 2.12539 0
M  V30 4577 H 435.958 -4.11884 0.604745 0
M  V30 4578 H 436.491 -3.36236 2.12579 0
M  V30 4579 H 433.23 -4.25292 4.98805 0
M  V30 4580 H 432.75 -4.9307 3.41529 0
M  V30 4581 H 434.429 -5.09621 3.98617 0
M  V30 4582 N 434.561 -1.01147 -1.20859 0
M  V30 4583 C 435.508 -0.577354 -2.23462 0
M  V30 4584 C 436.478 0.399922 -1.61214 0
M  V30 4585 O 437.663 0.300515 -1.88419 0
M  V30 4586 C 434.803 0.083372 -3.44999 0
M  V30 4587 C 433.916 -0.937856 -4.21697 0
M  V30 4588 C 433.051 -0.248717 -5.30617 0
M  V30 4589 C 432.09 -1.25705 -5.99053 0
M  V30 4590 N 431.227 -0.594939 -6.99575 0
M  V30 4591 H 436.067 -1.45695 -2.59956 0
M  V30 4592 H 433.604 -0.729428 -1.27741 0
M  V30 4593 H 435.562 0.483535 -4.14388 0
M  V30 4594 H 434.192 0.926645 -3.09214 0
M  V30 4595 H 433.244 -1.45622 -3.51423 0
M  V30 4596 H 434.556 -1.70493 -4.68757 0
M  V30 4597 H 433.71 0.207215 -6.06346 0
M  V30 4598 H 432.449 0.55071 -4.84581 0
M  V30 4599 H 431.454 -1.72343 -5.2209 0
M  V30 4600 H 432.679 -2.05767 -6.47176 0
M  V30 4601 H 430.625 0.184713 -6.5574 0
M  V30 4602 H 430.542 -1.30017 -7.44736 0
M  V30 4603 H 431.81 -0.162427 -7.79331 0
M  V30 4604 N 436.039 1.36541 -0.78704 0
M  V30 4605 C 437.264 2.0409 -0.369053 0
M  V30 4606 C 437.689 1.58957 1.00569 0
M  V30 4607 O 437.047 0.756926 1.64743 0
M  V30 4608 C 437.095 3.57924 -0.438466 0
M  V30 4609 O 436.199 4.08642 0.555479 0
M  V30 4610 H 435.54 0.645142 -0.157122 0
M  V30 4611 H 438.07 1.74545 -1.06749 0
M  V30 4612 H 438.08 4.06887 -0.301218 0
M  V30 4613 H 436.755 3.90127 -1.44132 0
M  V30 4614 H 435.332 3.70958 0.380088 0
M  V30 4615 N 437.518 0.538854 1.48102 0
M  V30 4616 C 438.428 -0.222648 2.33541 0
M  V30 4617 C 439.444 -0.930225 1.47047 0
M  V30 4618 O 440.62 -0.903211 1.80011 0
M  V30 4619 C 437.685 -1.25064 3.23357 0
M  V30 4620 C 436.746 -0.552469 4.2573 0
M  V30 4621 C 435.979 -1.53149 5.11254 0
M  V30 4622 O 436.202 -2.76487 4.9891 0
M  V30 4623 O 435.136 -1.06602 5.92385 0
M  V30 4624 H 438.962 0.477707 2.99919 0
M  V30 4625 H 436.547 0.299669 1.46364 0
M  V30 4626 H 438.429 -1.8445 3.78888 0
M  V30 4627 H 437.104 -1.93325 2.59629 0
M  V30 4628 H 436.011 0.082114 3.7401 0
M  V30 4629 H 437.344 0.0883526 4.92121 0
M  V30 4630 N 438.996 -1.55193 0.274407 0
M  V30 4631 C 440.242 -1.99877 -0.343086 0
M  V30 4632 C 440.575 -1.16256 -1.55558 0
M  V30 4633 O 439.85 -0.232462 -1.93106 0
M  V30 4634 C 440.133 -3.52706 -0.725965 0
M  V30 4635 C 439.986 -4.47081 0.493818 0
M  V30 4636 C 441.305 -4.11422 -1.56268 0
M  V30 4637 H 438.424 -0.726625 -0.123229 0
M  V30 4638 H 441.066 -1.86136 0.38121 0
M  V30 4639 H 439.216 -3.64546 -1.34307 0
M  V30 4640 H 440.888 -4.47186 1.13237 0
M  V30 4641 H 439.131 -4.1877 1.13201 0
M  V30 4642 H 439.802 -5.51699 0.18217 0
M  V30 4643 H 442.278 -4.02855 -1.04151 0
M  V30 4644 H 441.154 -5.18568 -1.79939 0
M  V30 4645 H 441.415 -3.61607 -2.54348 0
M  V30 4646 N 440.474 -0.00167713 -1.576 0
M  V30 4647 C 441.89 0.354422 -1.55615 0
M  V30 4648 C 442.09 1.74679 -1.00447 0
M  V30 4649 O 441.146 2.4428 -0.639022 0
M  V30 4650 C 442.459 0.22812 -2.99833 0
M  V30 4651 C 444.007 0.302934 -3.11531 0
M  V30 4652 C 444.482 0.205737 -4.57538 0
M  V30 4653 N 445.973 0.263584 -4.62449 0
M  V30 4654 C 446.708 0.211742 -5.73009 0
M  V30 4655 N 446.204 0.110399 -6.92712 0
M  V30 4656 N 447.997 0.263729 -5.61481 0
M  V30 4657 H 440.148 -0.912498 -1.918 0
M  V30 4658 H 442.411 -0.349928 -0.881053 0
M  V30 4659 H 442.117 -0.729934 -3.44042 0
M  V30 4660 H 441.991 1.00951 -3.6344 0
M  V30 4661 H 444.378 1.25143 -2.67251 0
M  V30 4662 H 444.459 -0.508357 -2.50698 0
M  V30 4663 H 444.103 -0.739225 -5.02492 0
M  V30 4664 H 444.033 1.03554 -5.16318 0
M  V30 4665 H 446.524 0.343173 -3.76339 0
M  V30 4666 H 446.837 0.0767828 -7.72762 0
M  V30 4667 H 445.182 0.0760025 -6.94958 0
M  V30 4668 H 448.373 0.34111 -4.66855 0
M  V30 4669 H 448.546 0.219862 -6.47627 0
M  V30 4670 N 441.952 1.55251 0.271103 0
M  V30 4671 C 442.899 1.88261 1.33516 0
M  V30 4672 C 443.869 0.734296 1.48988 0
M  V30 4673 O 445.054 0.985741 1.63364 0
M  V30 4674 C 442.194 2.16168 2.69008 0
M  V30 4675 C 441.307 3.43678 2.61743 0
M  V30 4676 C 440.442 3.61276 3.89427 0
M  V30 4677 C 439.481 4.82472 3.7668 0
M  V30 4678 N 438.618 4.96717 4.96202 0
M  V30 4679 H 443.458 2.79015 1.04665 0
M  V30 4680 H 440.995 1.38137 0.505618 0
M  V30 4681 H 442.953 2.30349 3.47844 0
M  V30 4682 H 441.583 1.28646 2.96057 0
M  V30 4683 H 440.635 3.37959 1.74607 0
M  V30 4684 H 441.947 4.3265 2.48224 0
M  V30 4685 H 441.101 3.75284 4.76704 0
M  V30 4686 H 439.84 2.70492 4.05814 0
M  V30 4687 H 438.845 4.68465 2.87786 0
M  V30 4688 H 440.07 5.74692 3.61809 0
M  V30 4689 H 438.016 4.08865 5.12997 0
M  V30 4690 H 437.933 5.79738 4.85222 0
M  V30 4691 H 439.201 5.15113 5.85046 0
M  V30 4692 N 443.43 -0.535701 1.48216 0
M  V30 4693 C 444.377 -1.64083 1.62312 0
M  V30 4694 C 445.347 -1.59448 0.465365 0
M  V30 4695 O 446.532 -1.77959 0.688135 0
M  V30 4696 C 443.672 -3.0236 1.66349 0
M  V30 4697 C 442.785 -3.17273 2.93193 0
M  V30 4698 C 441.92 -4.46075 2.88427 0
M  V30 4699 C 440.959 -4.54496 4.1 0
M  V30 4700 N 440.096 -5.7468 4.03345 0
M  V30 4701 H 444.936 -1.51374 2.5669 0
M  V30 4702 H 442.473 -0.737059 1.27302 0
M  V30 4703 H 444.431 -3.82461 1.66672 0
M  V30 4704 H 443.061 -3.13854 0.754672 0
M  V30 4705 H 442.113 -2.30462 3.02641 0
M  V30 4706 H 443.425 -3.19357 3.83162 0
M  V30 4707 H 442.579 -5.3446 2.87119 0
M  V30 4708 H 441.318 -4.46504 1.96177 0
M  V30 4709 H 440.323 -3.64519 4.11589 0
M  V30 4710 H 441.548 -4.5581 5.03402 0
M  V30 4711 H 439.494 -5.76017 3.13912 0
M  V30 4712 H 439.411 -5.78234 4.87013 0
M  V30 4713 H 440.679 -6.65367 4.06087 0
M  V30 4714 N 444.908 -1.36708 -0.784132 0
M  V30 4715 C 445.838 -1.34153 -1.91116 0
M  V30 4716 C 446.819 -0.212121 -1.68772 0
M  V30 4717 O 448.004 -0.410581 -1.8981 0
M  V30 4718 C 445.134 -1.13535 -3.28218 0
M  V30 4719 C 444.088 -2.23356 -3.65097 0
M  V30 4720 C 443.414 -1.87875 -5.00607 0
M  V30 4721 C 444.714 -3.65473 -3.73131 0
M  V30 4722 H 446.408 -2.28459 -1.93512 0
M  V30 4723 H 443.954 -1.09973 -0.929618 0
M  V30 4724 H 445.907 -1.10381 -4.06687 0
M  V30 4725 H 444.631 -0.156804 -3.26223 0
M  V30 4726 H 443.29 -2.25645 -2.88929 0
M  V30 4727 H 442.938 -0.885814 -4.95139 0
M  V30 4728 H 442.638 -2.61406 -5.26252 0
M  V30 4729 H 444.162 -1.86286 -5.81489 0
M  V30 4730 H 445.576 -3.65382 -4.41779 0
M  V30 4731 H 443.973 -4.37953 -4.10265 0
M  V30 4732 H 445.043 -3.99995 -2.74102 0
M  V30 4733 N 446.386 1.0089 -1.21074 0
M  V30 4734 C 447.634 1.74262 -1.02358 0
M  V30 4735 C 447.955 1.89869 0.444393 0
M  V30 4736 O 447.225 1.44677 1.32081 0
M  V30 4737 H 445.805 0.645615 -0.375754 0
M  V30 4738 H 448.467 1.21596 -1.52317 0
M  V30 4739 H 447.563 2.74328 -1.4883 0
M  V30 4740 N 447.864 1.01787 1.20321 0
M  V30 4741 C 448.774 0.598898 2.26827 0
M  V30 4742 C 449.79 -0.36418 1.70146 0
M  V30 4743 O 450.966 -0.224812 2.00141 0
M  V30 4744 C 448.031 -0.0549769 3.46656 0
M  V30 4745 C 447.092 0.954205 4.18561 0
M  V30 4746 C 446.325 0.331439 5.3267 0
M  V30 4747 O 446.548 -0.86851 5.63749 0
M  V30 4748 O 445.482 1.0488 5.92692 0
M  V30 4749 H 449.308 1.48562 2.64883 0
M  V30 4750 H 446.893 0.787434 1.26964 0
M  V30 4751 H 448.775 -0.420102 4.19301 0
M  V30 4752 H 447.45 -0.915876 3.10473 0
M  V30 4753 H 446.357 1.37072 3.48083 0
M  V30 4754 H 447.69 1.78511 4.58688 0
M  V30 4755 N 449.342 -1.36122 0.79427 0
M  V30 4756 C 450.305 -2.28309 0.201889 0
M  V30 4757 C 451.305 -1.49041 -0.603603 0
M  V30 4758 O 452.495 -1.68964 -0.423888 0
M  V30 4759 C 449.627 -3.3321 -0.719978 0
M  V30 4760 H 450.82 -2.82208 1.01481 0
M  V30 4761 H 448.373 -1.45768 0.564037 0
M  V30 4762 H 449.108 -2.84475 -1.55706 0
M  V30 4763 H 448.893 -3.91835 -0.144266 0
M  V30 4764 H 450.383 -4.02044 -1.12916 0
M  V30 4765 N 450.82 -0.546701 -1.47814 0
M  V30 4766 C 451.783 0.196287 -2.28358 0
M  V30 4767 C 452.783 0.852437 -1.36346 0
M  V30 4768 O 453.973 0.709913 -1.59078 0
M  V30 4769 C 451.105 1.28579 -3.15722 0
M  V30 4770 H 452.298 -0.511086 -2.95513 0
M  V30 4771 H 449.851 -0.303248 -1.5333 0
M  V30 4772 H 450.586 2.0259 -2.53235 0
M  V30 4773 H 450.371 0.820229 -3.83425 0
M  V30 4774 H 451.861 1.80793 -3.76435 0
M  V30 4775 N 452.299 1.55045 -0.282633 0
M  V30 4776 C 453.545 2.00056 0.332481 0
M  V30 4777 C 453.878 1.1708 1.54939 0
M  V30 4778 O 453.153 0.2427 1.9298 0
M  V30 4779 C 453.436 3.53086 0.70725 0
M  V30 4780 C 453.289 4.46813 -0.517521 0
M  V30 4781 C 454.608 4.12245 1.54084 0
M  V30 4782 H 451.727 0.727268 0.119373 0
M  V30 4783 H 454.369 1.85932 -0.391076 0
M  V30 4784 H 452.519 3.65253 1.32372 0
M  V30 4785 H 454.191 4.46579 -1.15607 0
M  V30 4786 H 452.434 4.18163 -1.1542 0
M  V30 4787 H 453.105 5.51595 -0.211426 0
M  V30 4788 H 455.581 4.03401 1.02013 0
M  V30 4789 H 454.457 5.19515 1.77186 0
M  V30 4790 H 454.718 3.62951 2.52427 0
M  V30 4791 N 453.777 0.010035 1.57597 0
M  V30 4792 C 455.193 -0.346164 1.55801 0
M  V30 4793 C 455.393 -1.74144 1.01371 0
M  V30 4794 O 454.449 -2.43938 0.651968 0
M  V30 4795 C 455.762 -0.212216 2.9995 0
M  V30 4796 C 457.31 -0.286409 3.11687 0
M  V30 4797 C 457.785 -0.18147 4.5764 0
M  V30 4798 N 459.276 -0.239056 4.62583 0
M  V30 4799 C 460.011 -0.181351 5.73113 0
M  V30 4800 N 459.507 -0.073661 6.92761 0
M  V30 4801 N 461.3 -0.233949 5.61613 0
M  V30 4802 H 453.451 0.922657 1.91313 0
M  V30 4803 H 455.714 0.354595 0.879185 0
M  V30 4804 H 455.42 0.748169 3.4365 0
M  V30 4805 H 455.294 -0.990224 3.6397 0
M  V30 4806 H 457.681 -1.23724 2.67911 0
M  V30 4807 H 457.762 0.521645 2.50425 0
M  V30 4808 H 457.406 0.765863 5.02093 0
M  V30 4809 H 457.336 -1.00814 5.1686 0
M  V30 4810 H 459.827 -0.32321 3.76515 0
M  V30 4811 H 460.14 -0.0358003 7.72792 0
M  V30 4812 H 458.485 -0.0391461 6.94989 0
M  V30 4813 H 461.676 -0.316347 4.6703 0
M  V30 4814 H 461.849 -0.185514 6.47734 0
M  V30 4815 N 455.255 -1.55392 -0.262866 0
M  V30 4816 C 456.218 -1.88181 -1.30846 0
M  V30 4817 C 457.218 -0.757079 -1.41862 0
M  V30 4818 O 458.408 -1.02519 -1.40838 0
M  V30 4819 C 455.54 -2.09609 -2.68844 0
M  V30 4820 H 456.733 -2.81659 -1.02997 0
M  V30 4821 H 454.286 -1.48039 -0.501414 0
M  V30 4822 H 455.021 -1.18547 -3.01856 0
M  V30 4823 H 454.806 -2.91508 -2.62231 0
M  V30 4824 H 456.296 -2.36215 -3.44372 0
M  V30 4825 N 456.733 0.527833 -1.48498 0
M  V30 4826 C 457.696 1.61439 -1.62696 0
M  V30 4827 C 458.696 1.52824 -0.500136 0
M  V30 4828 O 459.886 1.56456 -0.765976 0
M  V30 4829 C 457.018 3.01063 -1.59918 0
M  V30 4830 H 458.211 1.50189 -2.59583 0
M  V30 4831 H 455.764 0.750055 -1.37127 0
M  V30 4832 H 456.499 3.17818 -0.645163 0
M  V30 4833 H 456.284 3.08725 -2.41726 0
M  V30 4834 H 457.774 3.80057 -1.73051 0
M  V30 4835 N 458.211 1.37122 0.776871 0
M  V30 4836 C 459.158 1.3247 1.88998 0
M  V30 4837 C 460.128 0.191143 1.64997 0
M  V30 4838 O 461.313 0.379683 1.86984 0
M  V30 4839 C 458.453 1.13241 3.25992 0
M  V30 4840 C 457.566 2.35782 3.61982 0
M  V30 4841 C 456.701 2.09465 4.88158 0
M  V30 4842 C 455.74 3.279 5.16864 0
M  V30 4843 N 454.877 3.01167 6.34226 0
M  V30 4844 H 459.717 2.27642 1.9231 0
M  V30 4845 H 457.254 1.13125 0.94027 0
M  V30 4846 H 459.212 1.00115 4.0501 0
M  V30 4847 H 457.842 0.217186 3.22069 0
M  V30 4848 H 456.894 2.59666 2.77989 0
M  V30 4849 H 458.206 3.24125 3.79137 0
M  V30 4850 H 457.36 1.93341 5.75069 0
M  V30 4851 H 456.099 1.18452 4.73097 0
M  V30 4852 H 455.104 3.44569 4.2843 0
M  V30 4853 H 456.329 4.19757 5.33836 0
M  V30 4854 H 454.275 2.12779 6.20533 0
M  V30 4855 H 454.192 3.83052 6.51772 0
M  V30 4856 H 455.46 2.88649 7.24087 0
M  V30 4857 N 459.689 -1.00246 1.21608 0
M  V30 4858 C 460.652 -2.07233 0.979133 0
M  V30 4859 C 461.652 -1.6072 -0.0508219 0
M  V30 4860 O 462.842 -1.73196 0.186712 0
M  V30 4861 C 459.974 -3.37546 0.477016 0
M  V30 4862 H 461.167 -2.29687 1.92831 0
M  V30 4863 H 458.72 -1.17261 1.03342 0
M  V30 4864 H 459.455 -3.20773 -0.476966 0
M  V30 4865 H 459.24 -3.72638 1.21997 0
M  V30 4866 H 460.73 -4.16285 0.331181 0
M  V30 4867 N 461.167 -1.02423 -1.1978 0
M  V30 4868 C 462.413 -0.719051 -1.89625 0
M  V30 4869 C 462.746 0.750083 -1.7913 0
M  V30 4870 O 462.021 1.54574 -1.18056 0
M  V30 4871 C 462.304 -1.16499 -3.40735 0
M  V30 4872 C 462.157 -2.695 -3.60125 0
M  V30 4873 C 463.476 -0.742166 -4.33797 0
M  V30 4874 H 460.595 -0.26269 -0.688595 0
M  V30 4875 H 463.237 -1.27333 -1.41018 0
M  V30 4876 H 461.387 -0.69341 -3.82262 0
M  V30 4877 H 463.059 -3.24569 -3.278 0
M  V30 4878 H 461.302 -3.10113 -3.03336 0
M  V30 4879 H 461.973 -2.95757 -4.66081 0
M  V30 4880 H 464.449 -1.1477 -3.99959 0
M  V30 4881 H 463.325 -1.08213 -5.38127 0
M  V30 4882 H 463.586 0.355747 -4.40666 0
M  V30 4883 N 462.645 1.35699 -0.801477 0
M  V30 4884 C 463.593 2.3177 -0.196317 0
M  V30 4885 C 464.587 1.56388 0.651081 0
M  V30 4886 O 465.793 1.71557 0.544815 0
M  V30 4887 H 462.168 0.750669 -0.0447189 0
M  V30 4888 H 464.139 2.8036 -1.02181 0
M  V30 4889 C 462.888 3.41671 0.644702 0
M  V30 4890 H 462.211 3.998 0.0019921 0
M  V30 4891 H 463.651 4.11184 1.0346 0
M  V30 4892 C 462.11 2.84271 1.80808 0
M  V30 4893 O 462.64 2.77408 2.9053 0
M  V30 4894 N 460.846 2.41391 1.61799 0
M  V30 4895 H 460.393 2.47173 0.725493 0
M  V30 4896 H 460.351 2.03334 2.39797 0
M  V30 4897 N 464.123 0.554532 1.47522 0
M  V30 4898 C 465.353 0.0342074 2.06572 0
M  V30 4899 C 465.761 -1.26375 1.40805 0
M  V30 4900 O 465.104 -1.7683 0.49769 0
M  V30 4901 C 465.166 -0.235096 3.5873 0
M  V30 4902 C 464.83 0.973024 4.46521 0
M  V30 4903 C 465.827 1.8779 4.848 0
M  V30 4904 C 463.512 1.18694 4.88075 0
M  V30 4905 C 465.506 2.98039 5.63428 0
M  V30 4906 C 463.193 2.29254 5.66468 0
M  V30 4907 C 464.191 3.18757 6.04055 0
M  V30 4908 O 463.879 4.27401 6.8087 0
M  V30 4909 H 463.611 0.041587 0.67472 0
M  V30 4910 H 466.165 0.766748 1.90552 0
M  V30 4911 H 464.395 -1.02191 3.72953 0
M  V30 4912 H 466.084 -0.700477 3.9981 0
M  V30 4913 H 466.85 1.72467 4.53299 0
M  V30 4914 H 462.729 0.49947 4.58286 0
M  V30 4915 H 466.273 3.67926 5.92685 0
M  V30 4916 H 462.17 2.4455 5.97382 0
M  V30 4917 H 462.938 4.25415 6.9926 0
M  V30 4918 N 465.601 -1.54893 0.290851 0
M  V30 4919 C 466.847 -2.0023 -0.321867 0
M  V30 4920 C 467.18 -1.179 -1.54316 0
M  V30 4921 O 466.455 -0.25293 -1.92848 0
M  V30 4922 C 466.738 -3.53456 -0.688515 0
M  V30 4923 C 466.591 -4.46532 0.541209 0
M  V30 4924 C 467.91 -4.13057 -1.51895 0
M  V30 4925 H 465.029 -0.727891 -0.115515 0
M  V30 4926 H 467.671 -1.85722 0.400931 0
M  V30 4927 H 465.821 -3.6595 -1.30433 0
M  V30 4928 H 467.493 -4.4596 1.17973 0
M  V30 4929 H 465.736 -4.17545 1.17636 0
M  V30 4930 H 466.407 -5.51475 0.240675 0
M  V30 4931 H 468.883 -4.03937 -0.99872 0
M  V30 4932 H 467.759 -5.20448 -1.74429 0
M  V30 4933 H 468.02 -3.64284 -2.50498 0
M  V30 4934 N 467.08 -0.0183926 -1.57589 0
M  V30 4935 C 468.328 0.661253 -1.90976 0
M  V30 4936 C 468.649 1.73281 -0.894353 0
M  V30 4937 O 467.919 1.9579 0.0656788 0
M  V30 4938 H 466.499 0.247233 -0.704901 0
M  V30 4939 H 469.161 -0.0636639 -1.94796 0
M  V30 4940 H 468.257 1.12083 -2.9128 0
M  V30 4941 N 468.558 1.5553 0.254621 0
M  V30 4942 C 469.521 1.88872 1.29846 0
M  V30 4943 C 470.521 0.764591 1.41459 0
M  V30 4944 O 471.711 1.03265 1.40293 0
M  V30 4945 C 468.843 2.11032 2.67728 0
M  V30 4946 H 470.036 2.82201 1.01502 0
M  V30 4947 H 467.589 1.48303 0.493556 0
M  V30 4948 H 468.324 1.20146 3.01223 0
M  V30 4949 H 468.109 2.92895 2.60682 0
M  V30 4950 H 469.599 2.38038 3.43115 0
M  V30 4951 N 470.036 -0.519951 1.48776 0
M  V30 4952 C 471.284 -1.2727 1.56993 0
M  V30 4953 C 471.605 -1.9339 0.25004 0
M  V30 4954 O 470.875 -1.81822 -0.729216 0
M  V30 4955 H 469.455 -0.472732 0.578389 0
M  V30 4956 H 472.117 -0.604234 1.85297 0
M  V30 4957 H 471.213 -2.04669 2.3562 0
M  V30 4958 N 471.514 -1.37532 -0.769588 0
M  V30 4959 C 472.742 -1.36059 -1.55871 0
M  V30 4960 C 473.157 0.053544 -1.88724 0
M  V30 4961 O 472.514 1.01591 -1.5161 0
M  V30 4962 C 472.565 -2.20107 -2.86767 0
M  V30 4963 O 472.286 -3.56009 -2.55321 0
M  V30 4964 C 473.787 -2.26636 -3.80987 0
M  V30 4965 H 471.007 -0.465967 -0.482821 0
M  V30 4966 H 473.551 -1.80901 -0.953686 0
M  V30 4967 H 471.706 -1.78768 -3.43687 0
M  V30 4968 H 472.12 -4.0009 -3.39158 0
M  V30 4969 H 473.594 -2.89763 -4.69831 0
M  V30 4970 H 474.071 -1.2754 -4.20274 0
M  V30 4971 H 474.677 -2.68296 -3.29996 0
M  V30 4972 N 472.992 0.995999 -1.22138 0
M  V30 4973 C 474.238 1.73767 -1.04561 0
M  V30 4974 C 474.571 1.89633 0.418698 0
M  V30 4975 O 473.846 1.43723 1.3105 0
M  V30 4976 C 474.129 3.14505 -1.75382 0
M  V30 4977 C 473.982 3.06306 -3.29388 0
M  V30 4978 C 475.301 4.13615 -1.50369 0
M  V30 4979 H 472.42 0.630728 -0.38125 0
M  V30 4980 H 475.062 1.16057 -1.50435 0
M  V30 4981 H 473.212 3.63775 -1.36383 0
M  V30 4982 H 474.884 2.64681 -3.77812 0
M  V30 4983 H 473.127 2.43186 -3.59226 0
M  V30 4984 H 473.798 4.05884 -3.74116 0
M  V30 4985 H 476.274 3.73089 -1.84239 0
M  V30 4986 H 475.15 5.10212 -2.02421 0
M  V30 4987 H 475.411 4.39949 -0.435611 0
M  V30 4988 N 474.47 1.03057 1.19235 0
M  V30 4989 C 475.38 0.622922 2.26179 0
M  V30 4990 C 476.396 -0.346113 1.70523 0
M  V30 4991 O 477.572 -0.203572 2.00369 0
M  V30 4992 C 474.637 -0.0182063 3.46695 0
M  V30 4993 C 473.698 0.998546 4.17526 0
M  V30 4994 C 472.931 0.387917 5.32288 0
M  V30 4995 O 473.154 -0.808668 5.64639 0
M  V30 4996 O 472.088 1.1116 5.91546 0
M  V30 4997 H 475.914 1.51363 2.63292 0
M  V30 4998 H 473.499 0.800856 1.26122 0
M  V30 4999 H 475.381 -0.375606 4.19723 0
M  V30 5000 H 474.056 -0.882895 3.11427 0
M  V30 5001 H 472.963 1.40756 3.4661 0
M  V30 5002 H 474.296 1.83366 4.56769 0
M  V30 5003 N 475.948 -1.35272 0.808662 0
M  V30 5004 C 477.195 -1.98709 0.390003 0
M  V30 5005 C 477.523 -1.64148 -1.04335 0
M  V30 5006 O 476.778 -0.897797 -1.73891 0
M  V30 5007 C 477.077 -3.53556 0.522798 0
M  V30 5008 C 476.743 -4.0799 1.91977 0
M  V30 5009 C 475.405 -4.22568 2.30195 0
M  V30 5010 C 477.757 -4.37442 2.83361 0
M  V30 5011 C 475.085 -4.63918 3.59162 0
M  V30 5012 C 477.437 -4.80232 4.11776 0
M  V30 5013 C 476.101 -4.93016 4.49991 0
M  V30 5014 H 475.371 -0.727127 0.142712 0
M  V30 5015 H 478.018 -1.6145 1.02985 0
M  V30 5016 H 476.323 -3.91287 -0.200494 0
M  V30 5017 H 478.02 -4.00598 0.179608 0
M  V30 5018 H 474.61 -3.97096 1.61284 0
M  V30 5019 H 478.794 -4.25731 2.55083 0
M  V30 5020 H 474.05 -4.72005 3.88615 0
M  V30 5021 H 478.224 -5.01982 4.82687 0
M  V30 5022 H 475.851 -5.24814 5.49976 0
M  V30 5023 N 477.426 -0.562348 -1.47226 0
M  V30 5024 C 478.675 -0.038041 -2.01664 0
M  V30 5025 C 478.988 1.32199 -1.44162 0
M  V30 5026 O 480.194 1.9365 -1.90294 0
M  V30 5027 C 478.65 -0.0174958 -3.59896 0
M  V30 5028 C 478.258 -1.3746 -4.2639 0
M  V30 5029 C 480.002 0.453934 -4.22066 0
M  V30 5030 C 477.909 -1.31289 -5.76643 0
M  V30 5031 H 476.839 -0.0104511 -0.753928 0
M  V30 5032 H 479.49 -0.710966 -1.69167 0
M  V30 5033 H 477.872 0.721182 -3.89378 0
M  V30 5034 H 479.046 -2.1314 -4.08544 0
M  V30 5035 H 477.361 -1.78438 -3.7623 0
M  V30 5036 H 479.958 0.518584 -5.32179 0
M  V30 5037 H 480.301 1.46706 -3.89594 0
M  V30 5038 H 480.834 -0.230044 -3.97134 0
M  V30 5039 H 477.573 -2.30217 -6.13743 0
M  V30 5040 H 477.093 -0.597973 -5.96812 0
M  V30 5041 H 478.772 -1.01713 -6.38955 0
M  V30 5042 N 478.904 1.54736 -0.299062 0
M  V30 5043 C 479.837 2.1962 0.619851 0
M  V30 5044 C 480.815 1.16496 1.13434 0
M  V30 5045 O 481.999 1.4513 1.2029 0
M  V30 5046 C 479.126 2.8385 1.84788 0
M  V30 5047 C 478.172 4.00484 1.46679 0
M  V30 5048 S 479.005 5.32926 0.524389 0
M  V30 5049 C 480.161 6.00638 1.76026 0
M  V30 5050 H 480.394 2.97221 0.0686177 0
M  V30 5051 H 477.927 1.54176 -0.0832085 0
M  V30 5052 H 479.885 3.21483 2.55263 0
M  V30 5053 H 478.546 2.06099 2.37028 0
M  V30 5054 H 477.739 4.44201 2.38121 0
M  V30 5055 H 477.341 3.64398 0.842008 0
M  V30 5056 H 479.633 6.21327 2.70109 0
M  V30 5057 H 480.576 6.94805 1.36569 0
M  V30 5058 H 480.984 5.3026 1.93609 0
M  V30 5059 N 480.382 0.0267497 1.57577 0
M  V30 5060 C 481.659 -0.690926 1.82991 0
M  V30 5061 C 482.039 -1.90471 0.910164 0
M  V30 5062 O 481.387 -2.28474 -0.0347985 0
M  V30 5063 C 481.597 -1.07139 3.32148 0
M  V30 5064 C 482.945 -1.46402 3.98562 0
M  V30 5065 O 483.969 -1.16443 3.36629 0
M  V30 5066 O 482.828 -2.02214 5.07712 0
M  V30 5067 H 479.922 -0.338747 0.75444 0
M  V30 5068 H 482.468 0.0542506 1.69613 0
M  V30 5069 H 481.24 -0.207394 3.9075 0
M  V30 5070 H 480.863 -1.87481 3.50623 0
M  V30 5071 N 481.861 -1.55662 -0.24637 0
M  V30 5072 C 483.086 -1.81914 -0.996093 0
M  V30 5073 C 483.511 -0.603875 -1.78143 0
M  V30 5074 O 482.869 0.447091 -1.75701 0
M  V30 5075 C 482.917 -3.05908 -1.90925 0
M  V30 5076 O 482.021 -2.82861 -3.00105 0
M  V30 5077 H 481.362 -0.600481 -0.283406 0
M  V30 5078 H 483.892 -2.02848 -0.267199 0
M  V30 5079 H 483.902 -3.35356 -2.3238 0
M  V30 5080 H 482.577 -3.93999 -1.33183 0
M  V30 5081 H 481.154 -2.64583 -2.62775 0
M  V30 5082 N 483.339 0.512053 -1.4905 0
M  V30 5083 C 484.286 1.6148 -1.64902 0
M  V30 5084 C 485.256 1.58687 -0.490673 0
M  V30 5085 O 486.441 1.76842 -0.71636 0
M  V30 5086 C 483.581 2.99676 -1.71139 0
M  V30 5087 C 482.694 3.12568 -2.98203 0
M  V30 5088 C 481.829 4.4143 -2.95487 0
M  V30 5089 C 480.868 4.47916 -4.17179 0
M  V30 5090 N 480.005 5.68191 -4.12437 0
M  V30 5091 H 484.845 1.47271 -2.59066 0
M  V30 5092 H 482.382 0.716713 -1.28459 0
M  V30 5093 H 484.34 3.79761 -1.72736 0
M  V30 5094 H 482.97 3.12614 -0.804508 0
M  V30 5095 H 482.022 2.25618 -3.06269 0
M  V30 5096 H 483.334 3.1322 -3.88194 0
M  V30 5097 H 482.488 5.29825 -2.95585 0
M  V30 5098 H 481.227 4.43326 -2.03256 0
M  V30 5099 H 480.232 3.57925 -4.17337 0
M  V30 5100 H 481.457 4.47744 -5.1059 0
M  V30 5101 H 479.403 5.7095 -3.23036 0
M  V30 5102 H 479.32 5.70413 -4.96151 0
M  V30 5103 H 480.588 6.58823 -4.16621 0
M  V30 5104 N 484.817 1.37938 0.762283 0
M  V30 5105 C 485.767 1.30976 1.86626 0
M  V30 5106 C 486.751 0.195714 1.59705 0
M  V30 5107 O 487.943 0.430937 1.71674 0
M  V30 5108 C 485.072 1.12847 3.24223 0
M  V30 5109 C 484.158 2.28836 3.57064 0
M  V30 5110 N 484.549 3.54256 3.61022 0
M  V30 5111 C 482.847 2.21198 3.87282 0
M  V30 5112 C 483.548 4.30798 3.90881 0
M  V30 5113 N 482.524 3.60049 4.07266 0
M  V30 5114 H 486.326 2.25946 1.87951 0
M  V30 5115 H 483.84 1.31046 0.959206 0
M  V30 5116 H 485.837 1.05943 4.03214 0
M  V30 5117 H 484.497 0.188024 3.24155 0
M  V30 5118 H 485.508 3.8804 3.42995 0
M  V30 5119 H 482.185 1.35264 3.94981 0
M  V30 5120 H 483.575 5.39386 4.00639 0
M  V30 5121 N 486.295 -0.989507 1.22664 0
M  V30 5122 C 487.243 -2.10148 0.997035 0
M  V30 5123 C 488.237 -1.6929 -0.0609783 0
M  V30 5124 O 489.443 -1.79766 0.0917523 0
M  V30 5125 H 485.818 -0.687256 0.305259 0
M  V30 5126 H 487.789 -2.26685 1.94053 0
M  V30 5127 C 486.538 -3.4257 0.595085 0
M  V30 5128 H 485.861 -3.74453 1.40089 0
M  V30 5129 H 487.301 -4.21344 0.473869 0
M  V30 5130 C 485.76 -3.29638 -0.695725 0
M  V30 5131 O 486.29 -3.61709 -1.74727 0
M  V30 5132 N 484.496 -2.82814 -0.668173 0
M  V30 5133 H 484.043 -2.56914 0.18787 0
M  V30 5134 H 484.001 -2.74544 -1.5321 0
M  V30 5135 N 487.773 -1.03688 -1.18687 0
M  V30 5136 C 489.02 -0.73803 -1.88572 0
M  V30 5137 C 489.348 0.733973 -1.8012 0
M  V30 5138 O 488.603 1.55098 -1.19344 0
M  V30 5139 C 488.902 -1.14477 -3.3857 0
M  V30 5140 C 488.568 -2.61641 -3.67226 0
M  V30 5141 C 487.23 -3.01846 -3.74757 0
M  V30 5142 C 489.582 -3.56812 -3.79914 0
M  V30 5143 C 486.91 -4.36118 -3.92451 0
M  V30 5144 C 489.262 -4.90799 -3.99123 0
M  V30 5145 C 487.926 -5.3068 -4.04888 0
M  V30 5146 H 487.196 -0.270064 -0.690034 0
M  V30 5147 H 489.843 -1.3012 -1.40503 0
M  V30 5148 H 488.148 -0.500337 -3.88592 0
M  V30 5149 H 489.845 -0.89095 -3.90977 0
M  V30 5150 H 486.435 -2.29498 -3.61979 0
M  V30 5151 H 490.619 -3.26899 -3.73431 0
M  V30 5152 H 485.875 -4.66542 -3.95157 0
M  V30 5153 H 490.049 -5.64451 -4.07882 0
M  V30 5154 H 487.676 -6.34733 -4.18351 0
M  V30 5155 N 489.251 1.34841 -0.815825 0
M  V30 5156 C 490.491 2.00321 -0.406297 0
M  V30 5157 C 490.855 1.63293 1.00992 0
M  V30 5158 O 492.056 2.21563 1.52195 0
M  V30 5159 C 490.327 3.52421 -0.594469 0
M  V30 5160 S 491.886 4.37926 -0.276735 0
M  V30 5161 H 488.704 0.694155 -0.153848 0
M  V30 5162 H 491.306 1.64263 -1.06009 0
M  V30 5163 H 490.01 3.76858 -1.625 0
M  V30 5164 H 489.541 3.9333 0.0743157 0
M  V30 5165 H 491.556 4.87743 0.912215 0
M  V30 5166 N 490.729 0.570148 1.46925 0
M  V30 5167 C 491.976 0.0509529 2.02436 0
M  V30 5168 C 492.304 -1.30405 1.44308 0
M  V30 5169 O 491.559 -1.86493 0.593198 0
M  V30 5170 C 491.858 -0.0780336 3.57315 0
M  V30 5171 C 491.524 1.20775 4.34424 0
M  V30 5172 C 490.186 1.56004 4.5521 0
M  V30 5173 C 492.538 2.0592 4.78797 0
M  V30 5174 C 489.866 2.76201 5.17619 0
M  V30 5175 C 492.218 3.25332 5.42533 0
M  V30 5176 C 490.882 3.60859 5.61549 0
M  V30 5177 H 490.152 0.018645 0.740765 0
M  V30 5178 H 492.799 0.744262 1.76445 0
M  V30 5179 H 491.104 -0.854394 3.82371 0
M  V30 5180 H 492.801 -0.495312 3.97929 0
M  V30 5181 H 489.391 0.923469 4.18533 0
M  V30 5182 H 493.575 1.80008 4.62505 0
M  V30 5183 H 488.831 3.0388 5.30535 0
M  V30 5184 H 493.005 3.91586 5.75876 0
M  V30 5185 H 490.632 4.54088 6.09678 0
M  V30 5186 N 492.207 -1.54576 0.307264 0
M  V30 5187 C 493.14 -2.19946 -0.608195 0
M  V30 5188 C 494.118 -1.17096 -1.12815 0
M  V30 5189 O 495.302 -1.45766 -1.19518 0
M  V30 5190 C 492.429 -2.84826 -1.8328 0
M  V30 5191 C 491.475 -4.01256 -1.44554 0
M  V30 5192 S 492.308 -5.33197 -0.49612 0
M  V30 5193 C 493.464 -6.01563 -1.72838 0
M  V30 5194 H 493.697 -2.97253 -0.0528544 0
M  V30 5195 H 491.23 -1.54129 0.0913837 0
M  V30 5196 H 493.188 -3.22832 -2.53554 0
M  V30 5197 H 491.849 -2.07353 -2.35931 0
M  V30 5198 H 491.042 -4.45457 -2.35762 0
M  V30 5199 H 490.644 -3.6484 -0.822671 0
M  V30 5200 H 492.936 -6.22751 -2.6681 0
M  V30 5201 H 493.879 -6.9552 -1.32882 0
M  V30 5202 H 494.287 -5.31279 -1.90795 0
M  V30 5203 N 493.685 -0.035106 -1.57561 0
M  V30 5204 C 494.595 0.960295 -2.14046 0
M  V30 5205 C 495.611 1.3529 -1.0942 0
M  V30 5206 O 496.787 1.43309 -1.41508 0
M  V30 5207 C 493.852 2.22214 -2.66124 0
M  V30 5208 C 492.913 1.8894 -3.85487 0
M  V30 5209 C 492.146 3.09109 -4.35072 0
M  V30 5210 O 492.369 4.21963 -3.83802 0
M  V30 5211 O 491.303 2.91058 -5.26848 0
M  V30 5212 H 495.129 0.509983 -2.99387 0
M  V30 5213 H 492.714 0.185853 -1.48239 0
M  V30 5214 H 494.596 2.96279 -2.99661 0
M  V30 5215 H 493.271 2.66414 -1.83862 0
M  V30 5216 H 492.178 1.12241 -3.56865 0
M  V30 5217 H 493.511 1.49551 -4.6893 0
M  V30 5218 N 495.163 1.55791 0.238111 0
M  V30 5219 C 496.096 1.86036 1.32158 0
M  V30 5220 C 497.074 0.716216 1.45976 0
M  V30 5221 O 498.258 0.962882 1.62052 0
M  V30 5222 C 495.385 2.05281 2.69402 0
M  V30 5223 C 494.431 3.27939 2.72687 0
M  V30 5224 S 495.264 4.84342 2.28413 0
M  V30 5225 C 496.42 5.06604 3.67565 0
M  V30 5226 H 496.653 2.77644 1.06306 0
M  V30 5227 H 494.186 1.48012 0.439537 0
M  V30 5228 H 496.144 2.17053 3.48423 0
M  V30 5229 H 494.805 1.14499 2.92487 0
M  V30 5230 H 493.998 3.38398 3.73501 0
M  V30 5231 H 493.6 3.14938 2.01717 0
M  V30 5232 H 495.892 4.94486 4.6313 0
M  V30 5233 H 496.835 6.08554 3.62033 0
M  V30 5234 H 497.243 4.34409 3.60485 0
M  V30 5235 N 496.642 -0.504142 1.49319 0
M  V30 5236 C 497.59 -1.62689 1.66238 0
M  V30 5237 C 498.584 -1.6095 0.528349 0
M  V30 5238 O 499.79 -1.65496 0.707887 0
M  V30 5239 H 496.165 -0.539247 0.524134 0
M  V30 5240 H 498.136 -1.45571 2.60484 0
M  V30 5241 C 496.885 -3.00841 1.74328 0
M  V30 5242 H 496.208 -3.02884 2.60963 0
M  V30 5243 H 497.648 -3.78945 1.90202 0
M  V30 5244 C 496.107 -3.33355 0.487416 0
M  V30 5245 O 496.637 -3.99819 -0.388294 0
M  V30 5246 N 494.843 -2.88469 0.351306 0
M  V30 5247 H 494.39 -2.34557 1.06492 0
M  V30 5248 H 494.348 -3.10591 -0.487899 0
M  V30 5249 N 498.12 -1.38341 -0.754957 0
M  V30 5250 C 499.348 -1.37704 -1.54419 0
M  V30 5251 C 499.763 0.0335243 -1.8877 0
M  V30 5252 O 499.12 0.999773 -1.52679 0
M  V30 5253 C 499.171 -2.23136 -2.84416 0
M  V30 5254 O 498.892 -3.58697 -2.51531 0
M  V30 5255 C 500.393 -2.30664 -3.78562 0
M  V30 5256 H 497.613 -0.471061 -0.477852 0
M  V30 5257 H 500.157 -1.81902 -0.934446 0
M  V30 5258 H 498.312 -1.82403 -3.41772 0
M  V30 5259 H 498.726 -4.03665 -3.34896 0
M  V30 5260 H 500.2 -2.9473 -4.66732 0
M  V30 5261 H 500.677 -1.3199 -4.18898 0
M  V30 5262 H 501.283 -2.71781 -3.27131 0
M  V30 5263 N 499.598 0.982988 -1.23187 0
M  V30 5264 C 501.014 1.2487 -0.993967 0
M  V30 5265 C 501.214 1.99155 0.306498 0
M  V30 5266 O 500.27 2.30688 1.0266 0
M  V30 5267 C 501.583 2.05078 -2.19917 0
M  V30 5268 C 503.131 2.18227 -2.2438 0
M  V30 5269 C 503.606 3.01825 -3.44479 0
M  V30 5270 N 505.097 3.09411 -3.44702 0
M  V30 5271 C 505.832 3.74412 -4.34285 0
M  V30 5272 N 505.328 4.41259 -5.341 0
M  V30 5273 N 507.121 3.71273 -4.22035 0
M  V30 5274 H 499.272 0.485253 -2.06783 0
M  V30 5275 H 501.535 0.276979 -0.906635 0
M  V30 5276 H 501.241 1.57867 -3.14279 0
M  V30 5277 H 501.115 3.05829 -2.2079 0
M  V30 5278 H 503.502 2.64648 -1.30559 0
M  V30 5279 H 503.583 1.16873 -2.2754 0
M  V30 5280 H 503.227 2.56102 -4.38605 0
M  V30 5281 H 503.157 4.03342 -3.38559 0
M  V30 5282 H 505.648 2.61845 -2.7248 0
M  V30 5283 H 505.961 4.88629 -5.98717 0
M  V30 5284 H 504.306 4.39975 -5.38002 0
M  V30 5285 H 507.497 3.18217 -3.43301 0
M  V30 5286 H 507.67 4.21649 -4.92053 0
M  V30 5287 N 501.076 1.04316 1.18135 0
M  V30 5288 C 502.006 0.657299 2.24058 0
M  V30 5289 C 502.987 -0.340678 1.66654 0
M  V30 5290 O 504.172 -0.220223 1.92947 0
M  V30 5291 C 501.302 0.0220715 3.47293 0
M  V30 5292 C 500.256 0.943857 4.17463 0
M  V30 5293 C 499.582 0.172973 5.3442 0
M  V30 5294 C 500.882 2.26409 4.70677 0
M  V30 5295 H 502.576 1.5428 2.56589 0
M  V30 5296 H 500.122 0.743263 1.23335 0
M  V30 5297 H 502.075 -0.259607 4.206 0
M  V30 5298 H 500.799 -0.898323 3.14003 0
M  V30 5299 H 499.458 1.20996 3.46057 0
M  V30 5300 H 499.106 -0.749907 4.97379 0
M  V30 5301 H 498.806 0.787098 5.82304 0
M  V30 5302 H 500.33 -0.101628 6.10515 0
M  V30 5303 H 501.744 2.04294 5.35665 0
M  V30 5304 H 500.141 2.8314 5.29105 0
M  V30 5305 H 501.211 2.90883 3.87962 0
M  V30 5306 N 502.554 -1.34406 0.822964 0
M  V30 5307 C 503.486 -2.28305 0.202375 0
M  V30 5308 C 504.499 -1.5103 -0.60777 0
M  V30 5309 O 505.688 -1.73057 -0.437444 0
M  V30 5310 C 502.788 -3.30836 -0.734911 0
M  V30 5311 C 501.961 -4.37388 0.0324177 0
M  V30 5312 C 501.02 -5.1968 -0.825803 0
M  V30 5313 O 500.046 -5.68556 -0.270771 0
M  V30 5314 N 501.248 -5.39393 -2.14558 0
M  V30 5315 H 504.013 -2.82201 1.00909 0
M  V30 5316 H 501.574 -1.4693 0.67993 0
M  V30 5317 H 503.566 -3.82786 -1.31365 0
M  V30 5318 H 502.136 -2.77334 -1.44238 0
M  V30 5319 H 501.356 -3.86152 0.792469 0
M  V30 5320 H 502.644 -5.05702 0.560633 0
M  V30 5321 H 502.042 -5.01357 -2.62025 0
M  V30 5322 H 500.599 -5.94461 -2.67318 0
M  V30 5323 N 504.032 -0.577932 -1.46621 0
M  V30 5324 C 505.278 -0.0617793 -2.02706 0
M  V30 5325 C 505.611 1.29294 -1.44903 0
M  V30 5326 O 504.886 1.8461 -0.61232 0
M  V30 5327 C 505.169 0.00911824 -3.60099 0
M  V30 5328 C 505.022 -1.37416 -4.28295 0
M  V30 5329 C 506.341 0.712159 -4.343 0
M  V30 5330 H 503.46 -0.0239246 -0.736612 0
M  V30 5331 H 506.102 -0.744211 -1.74818 0
M  V30 5332 H 504.252 0.590292 -3.83989 0
M  V30 5333 H 505.924 -2.00013 -4.15683 0
M  V30 5334 H 504.167 -1.94319 -3.87843 0
M  V30 5335 H 504.838 -1.27707 -5.37024 0
M  V30 5336 H 507.314 0.218486 -4.15526 0
M  V30 5337 H 506.19 0.730782 -5.44014 0
M  V30 5338 H 506.451 1.77251 -4.05012 0
M  V30 5339 N 505.51 1.54411 -0.315457 0
M  V30 5340 C 506.42 2.27737 0.56329 0
M  V30 5341 C 507.436 1.31787 1.13614 0
M  V30 5342 O 508.612 1.64791 1.15784 0
M  V30 5343 C 505.677 3.01478 1.71207 0
M  V30 5344 C 504.738 4.12997 1.17185 0
M  V30 5345 C 503.971 4.83212 2.26588 0
M  V30 5346 O 504.194 4.52884 3.46775 0
M  V30 5347 O 503.128 5.70299 1.92463 0
M  V30 5348 H 506.954 3.03683 -0.0319614 0
M  V30 5349 H 504.539 1.49178 -0.0814188 0
M  V30 5350 H 506.421 3.47683 2.38106 0
M  V30 5351 H 505.096 2.28414 2.29366 0
M  V30 5352 H 504.003 3.71159 0.468174 0
M  V30 5353 H 505.336 4.8808 0.635501 0
M  V30 5354 N 506.988 0.0434614 1.5754 0
M  V30 5355 C 507.938 -0.943039 2.07583 0
M  V30 5356 C 508.922 -1.27662 0.979342 0
M  V30 5357 O 510.114 -1.26034 1.24276 0
M  V30 5358 C 507.243 -2.22056 2.61813 0
M  V30 5359 C 506.329 -1.91471 3.78417 0
M  V30 5360 N 506.72 -1.31214 4.88484 0
M  V30 5361 C 505.018 -2.21384 3.87176 0
M  V30 5362 C 505.719 -1.18084 5.69588 0
M  V30 5363 N 504.695 -1.68116 5.16951 0
M  V30 5364 H 508.497 -0.472354 2.90079 0
M  V30 5365 H 506.011 -0.161191 1.61598 0
M  V30 5366 H 508.008 -2.93618 2.95963 0
M  V30 5367 H 506.668 -2.69738 1.80752 0
M  V30 5368 H 507.679 -0.985318 5.08441 0
M  V30 5369 H 504.356 -2.7164 3.17046 0
M  V30 5370 H 505.746 -0.713684 6.68099 0
M  V30 5371 N 508.466 -1.55915 -0.229846 0
M  V30 5372 C 509.877 -1.68809 -0.797531 0
M  V30 5373 C 510.228 -0.643995 -1.8533 0
M  V30 5374 O 509.353 0.206492 -2.15413 0
M  V30 5375 C 509.948 -3.06043 -1.45338 0
M  V30 5376 C 508.507 -3.20819 -1.96856 0
M  V30 5377 C 507.654 -2.6472 -0.825736 0
M  V30 5378 H 510.605 -1.58699 -0.00533733 0
M  V30 5379 H 510.626 -3.01438 -2.32196 0
M  V30 5380 H 510.138 -3.82012 -0.684743 0
M  V30 5381 H 508.239 -2.49704 -2.76548 0
M  V30 5382 H 508.352 -4.27937 -2.15423 0
M  V30 5383 H 506.716 -2.22985 -1.23084 0
M  V30 5384 H 507.499 -3.43229 -0.0699019 0
M  V30 5385 N 509.944 0.496216 -1.49584 0
M  V30 5386 C 511.19 1.25189 -1.59548 0
M  V30 5387 C 511.523 1.9212 -0.283466 0
M  V30 5388 O 510.798 1.80947 0.713324 0
M  V30 5389 C 511.081 2.31516 -2.75812 0
M  V30 5390 C 510.934 1.69054 -4.16822 0
M  V30 5391 C 512.253 3.3304 -2.87702 0
M  V30 5392 H 509.372 0.45379 -0.580727 0
M  V30 5393 H 512.014 0.549327 -1.81886 0
M  V30 5394 H 510.164 2.91438 -2.56897 0
M  V30 5395 H 511.836 1.12923 -4.47265 0
M  V30 5396 H 510.079 0.994485 -4.22247 0
M  V30 5397 H 510.75 2.462 -4.94054 0
M  V30 5398 H 513.226 2.83114 -3.04936 0
M  V30 5399 H 512.102 4.04794 -3.7072 0
M  V30 5400 H 512.363 3.95655 -1.97255 0
M  V30 5401 N 511.423 1.38739 0.74761 0
M  V30 5402 C 512.651 1.38521 1.53686 0
M  V30 5403 C 513.066 -0.0235129 1.88785 0
M  V30 5404 O 512.423 -0.991662 1.53207 0
M  V30 5405 C 512.474 2.24641 2.83229 0
M  V30 5406 O 512.195 3.60026 2.49625 0
M  V30 5407 C 513.696 2.32669 3.77333 0
M  V30 5408 H 510.916 0.473589 0.475347 0
M  V30 5409 H 513.46 1.82395 0.924786 0
M  V30 5410 H 511.615 1.84213 3.40799 0
M  V30 5411 H 512.029 4.05435 3.3275 0
M  V30 5412 H 513.503 2.97201 4.65162 0
M  V30 5413 H 513.98 1.3421 4.18192 0
M  V30 5414 H 514.586 2.73512 3.25685 0
M  V30 5415 N 512.901 -0.976442 1.23707 0
M  V30 5416 C 513.811 -2.10359 1.03856 0
M  V30 5417 C 514.827 -1.73991 -0.0180919 0
M  V30 5418 O 516.003 -2.0061 0.178211 0
M  V30 5419 C 513.068 -3.40809 0.636387 0
M  V30 5420 C 512.129 -3.91179 1.76854 0
M  V30 5421 C 511.362 -5.15404 1.38546 0
M  V30 5422 O 511.585 -5.69754 0.27142 0
M  V30 5423 O 510.519 -5.5994 2.20797 0
M  V30 5424 H 514.345 -2.29997 1.98331 0
M  V30 5425 H 511.93 -1.08742 1.02448 0
M  V30 5426 H 513.812 -4.19269 0.423223 0
M  V30 5427 H 512.487 -3.22493 -0.279322 0
M  V30 5428 H 511.394 -3.13819 2.03638 0
M  V30 5429 H 512.727 -4.13958 2.6627 0
M  V30 5430 N 514.379 -1.04941 -1.1758 0
M  V30 5431 C 515.312 -0.592518 -2.20373 0
M  V30 5432 C 516.29 0.377561 -1.58156 0
M  V30 5433 O 517.474 0.28978 -1.86259 0
M  V30 5434 C 514.601 0.133215 -3.38438 0
M  V30 5435 C 513.647 -0.791484 -4.19092 0
M  V30 5436 S 514.48 -2.27925 -4.84572 0
M  V30 5437 C 515.636 -1.56462 -6.06028 0
M  V30 5438 H 515.869 -1.46342 -2.58788 0
M  V30 5439 H 513.402 -0.861148 -1.28155 0
M  V30 5440 H 515.36 0.545746 -4.06856 0
M  V30 5441 H 514.021 0.980124 -2.98416 0
M  V30 5442 H 513.214 -0.230039 -5.03475 0
M  V30 5443 H 512.816 -1.14326 -3.56098 0
M  V30 5444 H 515.108 -0.862539 -6.71987 0
M  V30 5445 H 516.051 -2.38583 -6.66696 0
M  V30 5446 H 516.459 -1.05313 -5.5459 0
M  V30 5447 N 515.857 1.33968 -0.830081 0
M  V30 5448 C 517.106 1.97323 -0.417928 0
M  V30 5449 C 517.419 1.6652 1.02618 0
M  V30 5450 O 518.625 2.2342 1.54259 0
M  V30 5451 C 517.081 3.53099 -0.696359 0
M  V30 5452 C 516.689 3.92788 -2.15457 0
M  V30 5453 C 518.433 4.23049 -0.350724 0
M  V30 5454 C 516.34 5.41506 -2.37751 0
M  V30 5455 H 515.27 0.738409 -0.152541 0
M  V30 5456 H 517.921 1.52711 -1.01744 0
M  V30 5457 H 516.303 3.95991 -0.0265904 0
M  V30 5458 H 517.477 3.6098 -2.86408 0
M  V30 5459 H 515.792 3.35795 -2.46232 0
M  V30 5460 H 518.389 5.32403 -0.495036 0
M  V30 5461 H 518.732 4.10279 0.705476 0
M  V30 5462 H 519.265 3.85657 -0.975362 0
M  V30 5463 H 516.004 5.5927 -3.41903 0
M  V30 5464 H 515.524 5.74804 -1.7135 0
M  V30 5465 H 517.203 6.0828 -2.20465 0
M  V30 5466 N 517.335 0.585699 1.46312 0
M  V30 5467 C 518.563 0.0781299 2.06752 0
M  V30 5468 C 518.978 -1.22812 1.43396 0
M  V30 5469 O 518.335 -1.74318 0.540314 0
M  V30 5470 C 518.386 -0.0911927 3.61385 0
M  V30 5471 O 518.107 1.16336 4.22371 0
M  V30 5472 C 519.608 -0.632765 4.38761 0
M  V30 5473 H 516.828 0.0588188 0.668417 0
M  V30 5474 H 519.372 0.807218 1.87894 0
M  V30 5475 H 517.527 -0.770514 3.7966 0
M  V30 5476 H 517.941 0.979082 5.15281 0
M  V30 5477 H 519.415 -0.70041 5.47538 0
M  V30 5478 H 519.892 -1.65039 4.07012 0
M  V30 5479 H 520.498 0.0117856 4.25298 0
M  V30 5480 N 518.813 -1.54241 0.323641 0
M  V30 5481 C 520.061 -2.00174 -0.278359 0
M  V30 5482 C 520.382 -1.2134 -1.52648 0
M  V30 5483 O 519.652 -0.315244 -1.93347 0
M  V30 5484 H 518.232 -0.739463 -0.105845 0
M  V30 5485 H 520.894 -1.89864 0.440204 0
M  V30 5486 H 519.99 -3.07486 -0.5347 0
M  V30 5487 N 520.291 -0.0518155 -1.57515 0
M  V30 5488 C 521.519 0.631395 -1.9703 0
M  V30 5489 C 521.934 1.64341 -0.92938 0
M  V30 5490 O 521.291 1.82296 0.0863266 0
M  V30 5491 C 521.342 1.31774 -3.36627 0
M  V30 5492 O 521.063 0.346247 -4.3673 0
M  V30 5493 C 522.564 2.09065 -3.90905 0
M  V30 5494 H 519.784 0.172576 -0.648428 0
M  V30 5495 H 522.328 -0.118306 -2.04158 0
M  V30 5496 H 520.483 2.01867 -3.30649 0
M  V30 5497 H 520.897 0.836226 -5.17791 0
M  V30 5498 H 522.371 2.52508 -4.9086 0
M  V30 5499 H 522.848 2.93908 -3.26366 0
M  V30 5500 H 523.454 1.43882 -4.00223 0
M  V30 5501 N 521.769 1.56035 0.221574 0
M  V30 5502 C 523.046 1.69837 0.970301 0
M  V30 5503 C 523.426 0.599065 2.02421 0
M  V30 5504 O 522.774 -0.393929 2.25079 0
M  V30 5505 C 522.984 3.11148 1.58076 0
M  V30 5506 C 524.332 3.70555 2.07302 0
M  V30 5507 O 525.356 3.14109 1.6797 0
M  V30 5508 O 524.215 4.69562 2.79596 0
M  V30 5509 H 521.309 0.691727 0.453257 0
M  V30 5510 H 523.855 1.68353 0.213358 0
M  V30 5511 H 522.627 3.82617 0.819759 0
M  V30 5512 H 522.25 3.16749 2.40324 0
M  V30 5513 N 523.247 -0.488276 1.49845 0
M  V30 5514 C 524.177 -1.59675 1.70371 0
M  V30 5515 C 525.158 -1.60878 0.552473 0
M  V30 5516 O 526.343 -1.77417 0.78973 0
M  V30 5517 C 523.473 -2.98098 1.782 0
M  V30 5518 C 522.427 -3.11761 2.93239 0
M  V30 5519 C 521.753 -4.51661 2.86193 0
M  V30 5520 C 523.053 -2.90589 4.33999 0
M  V30 5521 H 524.747 -1.42752 2.63177 0
M  V30 5522 H 522.293 -0.685317 1.26647 0
M  V30 5523 H 524.246 -3.75555 1.91144 0
M  V30 5524 H 522.97 -3.16138 0.820018 0
M  V30 5525 H 521.629 -2.36732 2.79917 0
M  V30 5526 H 521.277 -4.66595 1.87877 0
M  V30 5527 H 520.977 -4.61742 3.63412 0
M  V30 5528 H 522.501 -5.31162 3.01163 0
M  V30 5529 H 523.915 -3.57807 4.47936 0
M  V30 5530 H 522.312 -3.1213 5.12538 0
M  V30 5531 H 523.382 -1.86595 4.4756 0
M  V30 5532 N 524.725 -1.39134 -0.740242 0
M  V30 5533 C 525.971 -1.36273 -1.50192 0
M  V30 5534 C 526.304 0.0430136 -1.94152 0
M  V30 5535 O 525.579 1.00691 -1.66408 0
M  V30 5536 C 525.862 -2.33041 -2.74525 0
M  V30 5537 C 525.715 -3.82535 -2.36617 0
M  V30 5538 C 527.034 -2.27723 -3.76604 0
M  V30 5539 H 524.153 -0.496323 -0.544823 0
M  V30 5540 H 526.795 -1.70085 -0.846815 0
M  V30 5541 H 524.945 -2.04337 -3.30422 0
M  V30 5542 H 526.617 -4.21967 -1.86391 0
M  V30 5543 H 524.86 -3.99565 -1.68909 0
M  V30 5544 H 525.531 -4.45723 -3.2563 0
M  V30 5545 H 528.007 -2.53091 -3.30279 0
M  V30 5546 H 526.883 -2.97519 -4.61274 0
M  V30 5547 H 527.144 -1.28049 -4.2315 0
M  V30 5548 N 526.204 0.969867 -1.24223 0
M  V30 5549 C 527.114 2.09806 -1.0497 0
M  V30 5550 C 528.13 1.73998 0.00886455 0
M  V30 5551 O 529.306 2.00513 -0.188848 0
M  V30 5552 C 526.371 3.40467 -0.654452 0
M  V30 5553 C 525.432 3.90236 -1.78926 0
M  V30 5554 C 524.665 5.14662 -1.41277 0
M  V30 5555 O 524.888 5.69602 -0.301632 0
M  V30 5556 O 523.822 5.58761 -2.23763 0
M  V30 5557 H 527.648 2.28942 -1.99548 0
M  V30 5558 H 525.233 1.08197 -1.03023 0
M  V30 5559 H 527.115 4.19039 -0.445452 0
M  V30 5560 H 525.79 3.22636 0.262216 0
M  V30 5561 H 524.697 3.12735 -2.05299 0
M  V30 5562 H 526.03 4.1254 -2.68462 0
M  V30 5563 N 527.682 1.05563 1.17022 0
M  V30 5564 C 528.928 0.778872 1.87897 0
M  V30 5565 C 529.283 -0.686839 1.79723 0
M  V30 5566 O 528.576 -1.49612 1.19694 0
M  V30 5567 C 528.77 1.19849 3.36706 0
M  V30 5568 C 528.599 2.70345 3.59366 0
M  V30 5569 C 527.369 3.37707 3.75875 0
M  V30 5570 C 529.567 3.68564 3.58699 0
M  V30 5571 N 527.549 4.7703 3.86414 0
M  V30 5572 C 528.92 4.93634 3.75134 0
M  V30 5573 C 530.975 3.6198 3.4187 0
M  V30 5574 C 529.678 6.12907 3.76481 0
M  V30 5575 C 531.704 4.80697 3.44507 0
M  V30 5576 C 531.066 6.04592 3.61453 0
M  V30 5577 H 527.165 0.337297 0.705517 0
M  V30 5578 H 529.749 1.34832 1.40458 0
M  V30 5579 H 527.92 0.656958 3.82804 0
M  V30 5580 H 529.652 0.871172 3.95212 0
M  V30 5581 H 526.407 2.88108 3.75887 0
M  V30 5582 H 526.831 5.49483 3.95471 0
M  V30 5583 H 531.473 2.67154 3.27702 0
M  V30 5584 H 529.191 7.08073 3.89432 0
M  V30 5585 H 532.777 4.77259 3.32738 0
M  V30 5586 H 531.657 6.94916 3.63403 0
M  V30 5587 N 529.16 -1.33526 0.837174 0
M  V30 5588 C 530.092 -2.28077 0.226579 0
M  V30 5589 C 531.105 -1.51666 -0.591717 0
M  V30 5590 O 532.294 -1.73511 -0.419064 0
M  V30 5591 C 529.394 -3.31597 -0.69978 0
M  V30 5592 C 528.567 -4.37329 0.0788067 0
M  V30 5593 C 527.626 -5.20526 -0.770637 0
M  V30 5594 O 526.652 -5.68811 -0.210453 0
M  V30 5595 N 527.854 -5.41639 -2.08825 0
M  V30 5596 H 530.619 -2.81115 1.03897 0
M  V30 5597 H 528.18 -1.46201 0.695476 0
M  V30 5598 H 530.172 -3.84158 -1.27298 0
M  V30 5599 H 528.742 -2.78848 -1.41288 0
M  V30 5600 H 527.962 -3.8529 0.833381 0
M  V30 5601 H 529.25 -5.05079 0.614238 0
M  V30 5602 H 528.648 -5.04108 -2.56693 0
M  V30 5603 H 527.205 -5.97263 -2.60998 0
M  V30 5604 N 530.638 -0.59345 -1.46 0
M  V30 5605 C 531.568 0.121192 -2.33185 0
M  V30 5606 C 532.549 0.872977 -1.4599 0
M  V30 5607 O 533.734 0.846321 -1.74789 0
M  V30 5608 C 530.864 1.12844 -3.28456 0
M  V30 5609 C 529.818 0.4908 -4.25177 0
M  V30 5610 C 529.144 1.60529 -5.10034 0
M  V30 5611 C 530.444 -0.578949 -5.19081 0
M  V30 5612 H 532.138 -0.606767 -2.93187 0
M  V30 5613 H 529.684 -0.293242 -1.40983 0
M  V30 5614 H 531.637 1.63684 -3.88311 0
M  V30 5615 H 530.361 1.88681 -2.66584 0
M  V30 5616 H 529.02 0.00339328 -3.666 0
M  V30 5617 H 528.668 2.35359 -4.44539 0
M  V30 5618 H 528.368 1.18422 -5.75543 0
M  V30 5619 H 529.892 2.11623 -5.72755 0
M  V30 5620 H 531.306 -0.155199 -5.7309 0
M  V30 5621 H 529.703 -0.920947 -5.92991 0
M  V30 5622 H 530.773 -1.46109 -4.62364 0
M  V30 5623 N 532.116 1.54067 -0.331816 0
M  V30 5624 C 533.532 1.59587 0.0205388 0
M  V30 5625 C 533.732 1.34813 1.49759 0
M  V30 5626 O 532.788 1.13661 2.25471 0
M  V30 5627 C 534.101 2.97959 -0.405103 0
M  V30 5628 C 535.649 3.10964 -0.356454 0
M  V30 5629 C 536.124 4.51694 -0.757384 0
M  V30 5630 N 537.615 4.57709 -0.71111 0
M  V30 5631 C 538.35 5.64729 -0.993427 0
M  V30 5632 N 537.846 6.79652 -1.3433 0
M  V30 5633 N 539.639 5.54546 -0.918442 0
M  V30 5634 H 531.79 1.68426 -1.29407 0
M  V30 5635 H 534.053 0.78819 -0.526745 0
M  V30 5636 H 533.759 3.21115 -1.43451 0
M  V30 5637 H 533.633 3.76524 0.225692 0
M  V30 5638 H 536.02 2.87538 0.663763 0
M  V30 5639 H 536.101 2.34484 -1.02229 0
M  V30 5640 H 535.745 4.75853 -1.77555 0
M  V30 5641 H 535.675 5.26555 -0.0691444 0
M  V30 5642 H 538.166 3.75176 -0.452883 0
M  V30 5643 H 538.479 7.57221 -1.54388 0
M  V30 5644 H 536.824 6.81128 -1.38164 0
M  V30 5645 H 540.015 4.63641 -0.644536 0
M  V30 5646 H 540.188 6.37861 -1.14181 0
M  V30 5647 N 533.594 0.0601682 1.57485 0
M  V30 5648 C 534.843 -0.611101 1.9222 0
M  V30 5649 C 535.156 -1.71469 0.941159 0
M  V30 5650 O 536.362 -2.44473 1.18089 0
M  V30 5651 C 534.818 -1.13832 3.41424 0
M  V30 5652 C 534.426 -0.0663596 4.47951 0
M  V30 5653 C 536.17 -1.78432 3.85178 0
M  V30 5654 C 534.077 -0.606965 5.88277 0
M  V30 5655 H 533.007 -0.232033 0.71741 0
M  V30 5656 H 535.658 0.130518 1.83035 0
M  V30 5657 H 534.04 -1.93254 3.45643 0
M  V30 5658 H 535.214 0.707682 4.55333 0
M  V30 5659 H 533.529 0.482715 4.13593 0
M  V30 5660 H 536.126 -2.1989 4.87394 0
M  V30 5661 H 536.469 -2.63966 3.21913 0
M  V30 5662 H 537.002 -1.05651 3.83514 0
M  V30 5663 H 533.741 0.21095 6.5516 0
M  V30 5664 H 533.261 -1.34879 5.84438 0
M  V30 5665 H 534.94 -1.08704 6.37803 0
M  V30 5666 N 535.072 -1.5615 -0.213296 0
M  V30 5667 C 536.035 -1.92249 -1.24792 0
M  V30 5668 C 537.035 -0.801828 -1.39382 0
M  V30 5669 O 538.225 -1.06948 -1.37506 0
M  V30 5670 C 535.357 -2.18056 -2.62039 0
M  V30 5671 H 536.55 -2.84793 -0.939845 0
M  V30 5672 H 534.103 -1.49559 -0.454062 0
M  V30 5673 H 534.838 -1.2809 -2.97932 0
M  V30 5674 H 534.623 -2.99703 -2.52825 0
M  V30 5675 H 536.113 -2.47051 -3.36683 0
M  V30 5676 N 536.55 0.480323 -1.50102 0
M  V30 5677 C 537.513 1.56181 -1.6775 0
M  V30 5678 C 538.513 1.51156 -0.548503 0
M  V30 5679 O 539.703 1.5394 -0.815363 0
M  V30 5680 C 536.835 2.95823 -1.69415 0
M  V30 5681 H 538.028 1.41855 -2.6423 0
M  V30 5682 H 535.581 0.70605 -1.39444 0
M  V30 5683 H 536.316 3.15604 -0.745948 0
M  V30 5684 H 536.101 3.00878 -2.51425 0
M  V30 5685 H 537.591 3.74359 -1.85054 0
M  V30 5686 N 538.028 1.39524 0.732853 0
M  V30 5687 C 539.276 1.36594 1.48951 0
M  V30 5688 C 539.597 -0.0367507 1.94965 0
M  V30 5689 O 538.867 -0.988391 1.69138 0
M  V30 5690 H 537.447 0.502673 0.552566 0
M  V30 5691 H 540.109 1.74411 0.869869 0
M  V30 5692 H 539.205 2.03 2.3706 0
M  V30 5693 N 539.506 -0.963266 1.24736 0
M  V30 5694 C 540.416 -2.09246 1.06082 0
M  V30 5695 C 541.432 -1.74 0.000363101 0
M  V30 5696 O 542.608 -2.0041 0.199479 0
M  V30 5697 C 539.673 -3.40115 0.672498 0
M  V30 5698 C 538.734 -3.89282 1.80993 0
M  V30 5699 C 537.967 -5.13905 1.44004 0
M  V30 5700 O 538.19 -5.69434 0.331835 0
M  V30 5701 O 537.124 -5.57566 2.26723 0
M  V30 5702 H 540.95 -2.27881 2.00759 0
M  V30 5703 H 538.535 -1.07649 1.03595 0
M  V30 5704 H 540.417 -4.18797 0.467668 0
M  V30 5705 H 539.092 -3.22771 -0.245102 0
M  V30 5706 H 537.999 -3.11642 2.06955 0
M  V30 5707 H 539.332 -4.1111 2.70646 0
M  V30 5708 N 540.985 -1.06182 -1.16461 0
M  V30 5709 C 541.932 -0.671613 -2.20812 0
M  V30 5710 C 542.902 0.331186 -1.62765 0
M  V30 5711 O 544.087 0.22033 -1.89524 0
M  V30 5712 C 541.227 -0.063029 -3.45042 0
M  V30 5713 C 540.34 -1.11587 -4.1734 0
M  V30 5714 C 539.475 -0.473546 -5.29085 0
M  V30 5715 C 538.514 -1.51 -5.93182 0
M  V30 5716 N 537.651 -0.891118 -6.96422 0
M  V30 5717 H 542.491 -1.56589 -2.53542 0
M  V30 5718 H 540.028 -0.782951 -1.24532 0
M  V30 5719 H 541.986 0.307344 -4.16066 0
M  V30 5720 H 540.616 0.794663 -3.12866 0
M  V30 5721 H 539.668 -1.60396 -3.44931 0
M  V30 5722 H 540.98 -1.90221 -4.61104 0
M  V30 5723 H 540.134 -0.0501432 -6.06679 0
M  V30 5724 H 538.873 0.344687 -4.8648 0
M  V30 5725 H 537.878 -1.94331 -5.14311 0
M  V30 5726 H 539.103 -2.33031 -6.37866 0
M  V30 5727 H 537.049 -0.0935753 -6.55933 0
M  V30 5728 H 536.966 -1.61486 -7.38551 0
M  V30 5729 H 538.234 -0.492822 -7.77941 0
M  V30 5730 N 542.463 1.3308 -0.844243 0
M  V30 5731 C 543.712 1.96868 -0.438833 0
M  V30 5732 C 544.025 1.67599 1.00846 0
M  V30 5733 O 545.231 2.25043 1.51881 0
M  V30 5734 C 543.687 3.5234 -0.73377 0
M  V30 5735 C 543.295 3.90481 -2.1961 0
M  V30 5736 C 545.039 4.22653 -0.395574 0
M  V30 5737 C 542.946 5.38954 -2.43481 0
M  V30 5738 H 541.876 0.736749 -0.160364 0
M  V30 5739 H 544.527 1.51623 -1.03358 0
M  V30 5740 H 542.909 3.95941 -0.068589 0
M  V30 5741 H 544.083 3.57922 -2.90221 0
M  V30 5742 H 542.398 3.33165 -2.4978 0
M  V30 5743 H 544.995 5.31848 -0.551477 0
M  V30 5744 H 545.338 4.11004 0.661921 0
M  V30 5745 H 545.871 3.84601 -1.01621 0
M  V30 5746 H 542.61 5.55612 -3.47816 0
M  V30 5747 H 542.13 5.72954 -1.77437 0
M  V30 5748 H 543.809 6.05907 -2.26905 0
M  V30 5749 N 543.941 0.601185 1.45683 0
M  V30 5750 C 545.352 0.179659 1.85834 0
M  V30 5751 C 545.703 -1.26189 1.50236 0
M  V30 5752 O 544.828 -1.95587 0.925987 0
M  V30 5753 C 545.423 0.319277 3.37292 0
M  V30 5754 C 543.982 -0.0475092 3.7637 0
M  V30 5755 C 543.129 0.646692 2.69654 0
M  V30 5756 H 546.08 0.808268 1.36575 0
M  V30 5757 H 546.101 -0.4503 3.77826 0
M  V30 5758 H 545.613 1.36855 3.6317 0
M  V30 5759 H 543.714 -1.0962 3.5611 0
M  V30 5760 H 543.827 0.34168 4.7788 0
M  V30 5761 H 542.191 0.0849971 2.54558 0
M  V30 5762 H 542.974 1.69797 2.98369 0
M  V30 5763 N 545.419 -1.53889 0.339982 0
M  V30 5764 C 546.349 -2.27843 -0.510856 0
M  V30 5765 C 547.33 -1.29267 -1.10563 0
M  V30 5766 O 548.515 -1.58104 -1.12768 0
M  V30 5767 C 545.645 -3.04857 -1.66372 0
M  V30 5768 C 544.599 -4.10907 -1.19746 0
M  V30 5769 C 543.925 -4.75855 -2.43857 0
M  V30 5770 C 545.225 -5.21435 -0.300501 0
M  V30 5771 H 546.919 -2.99212 0.106067 0
M  V30 5772 H 544.465 -1.43904 0.0524533 0
M  V30 5773 H 546.418 -3.5533 -2.26537 0
M  V30 5774 H 545.142 -2.31133 -2.30749 0
M  V30 5775 H 543.801 -3.61342 -0.618654 0
M  V30 5776 H 543.449 -3.9873 -3.06633 0
M  V30 5777 H 543.149 -5.47502 -2.13343 0
M  V30 5778 H 544.673 -5.2911 -3.04754 0
M  V30 5779 H 546.087 -5.67565 -0.80889 0
M  V30 5780 H 544.484 -6.00036 -0.0874076 0
M  V30 5781 H 545.554 -4.80328 0.664321 0
M  V30 5782 N 546.897 -0.0685191 -1.57451 0
M  V30 5783 C 548.122 0.613919 -1.98106 0
M  V30 5784 C 548.547 1.62551 -0.946501 0
M  V30 5785 O 547.905 1.81085 0.0882824 0
M  V30 5786 C 547.953 1.26189 -3.378 0
M  V30 5787 O 547.057 2.37773 -3.36954 0
M  V30 5788 H 546.398 0.158163 -0.644888 0
M  V30 5789 H 548.928 -0.142063 -2.04106 0
M  V30 5790 H 548.938 1.60951 -3.74912 0
M  V30 5791 H 547.613 0.520625 -4.12629 0
M  V30 5792 H 546.19 2.04829 -3.11608 0
M  V30 5793 N 548.375 1.56261 0.205012 0
M  V30 5794 C 549.307 1.90266 1.27795 0
M  V30 5795 C 550.32 0.792397 1.42214 0
M  V30 5796 O 551.509 1.07077 1.42817 0
M  V30 5797 C 548.609 2.11074 2.65143 0
M  V30 5798 C 547.782 3.42176 2.7246 0
M  V30 5799 C 546.841 3.52216 3.90936 0
M  V30 5800 O 545.867 4.25119 3.78501 0
M  V30 5801 N 547.069 2.84573 5.05963 0
M  V30 5802 H 549.834 2.82896 0.989434 0
M  V30 5803 H 547.395 1.57008 0.394981 0
M  V30 5804 H 549.387 2.15089 3.4281 0
M  V30 5805 H 547.957 1.2499 2.86524 0
M  V30 5806 H 547.177 3.50116 1.81142 0
M  V30 5807 H 548.465 4.28509 2.74331 0
M  V30 5808 H 547.863 2.25152 5.18963 0
M  V30 5809 H 546.42 2.94228 5.81613 0
M  V30 5810 N 549.853 -0.472356 1.50355 0
M  V30 5811 C 550.763 -1.59637 1.7191 0
M  V30 5812 C 551.779 -1.63247 0.602195 0
M  V30 5813 O 552.955 -1.81139 0.880369 0
M  V30 5814 C 550.02 -2.9586 1.80742 0
M  V30 5815 C 549.081 -3.02649 3.04471 0
M  V30 5816 C 548.314 -4.32374 3.12872 0
M  V30 5817 O 548.537 -5.22807 2.28099 0
M  V30 5818 O 547.471 -4.44728 4.05587 0
M  V30 5819 H 551.297 -1.44373 2.67189 0
M  V30 5820 H 548.882 -0.651717 1.34436 0
M  V30 5821 H 550.764 -3.7677 1.88739 0
M  V30 5822 H 549.439 -3.11325 0.88647 0
M  V30 5823 H 548.346 -2.20821 3.01975 0
M  V30 5824 H 549.679 -2.92119 3.9614 0
M  V30 5825 N 551.331 -1.39911 -0.725443 0
M  V30 5826 C 552.241 -1.41688 -1.8698 0
M  V30 5827 C 553.257 -0.310579 -1.71206 0
M  V30 5828 O 554.433 -0.55359 -1.93642 0
M  V30 5829 C 551.498 -1.26811 -3.22676 0
M  V30 5830 C 550.559 -2.47497 -3.50776 0
M  V30 5831 C 549.792 -2.3332 -4.79997 0
M  V30 5832 O 550.015 -1.34175 -5.54394 0
M  V30 5833 O 548.949 -3.22498 -5.08211 0
M  V30 5834 H 552.775 -2.38171 -1.88436 0
M  V30 5835 H 550.36 -1.21128 -0.874548 0
M  V30 5836 H 552.242 -1.20684 -4.03749 0
M  V30 5837 H 550.917 -0.334289 -3.21969 0
M  V30 5838 H 549.824 -2.59201 -2.69751 0
M  V30 5839 H 551.157 -3.39606 -3.5627 0
M  V30 5840 N 552.809 0.956637 -1.25245 0
M  V30 5841 C 554.058 1.69537 -1.0927 0
M  V30 5842 C 554.371 1.92136 0.366503 0
M  V30 5843 O 555.577 2.63687 0.64665 0
M  V30 5844 C 554.033 3.05211 -1.9072 0
M  V30 5845 C 553.641 2.90416 -3.41119 0
M  V30 5846 C 555.385 3.82882 -1.83308 0
M  V30 5847 C 553.292 4.21468 -4.14872 0
M  V30 5848 H 552.222 0.635804 -0.405302 0
M  V30 5849 H 554.873 1.06513 -1.49423 0
M  V30 5850 H 553.255 3.69128 -1.43389 0
M  V30 5851 H 554.429 2.35444 -3.9611 0
M  V30 5852 H 552.744 2.26203 -3.49602 0
M  V30 5853 H 555.341 4.79944 -2.35706 0
M  V30 5854 H 555.684 4.0853 -0.800572 0
M  V30 5855 H 556.217 3.25711 -2.28379 0
M  V30 5856 H 552.956 4.01009 -5.18529 0
M  V30 5857 H 552.476 4.76213 -3.64665 0
M  V30 5858 H 554.155 4.90022 -4.22478 0
M  V30 5859 N 554.287 1.06798 1.15896 0
M  V30 5860 C 555.515 0.808694 1.90441 0
M  V30 5861 C 555.93 -0.637506 1.77711 0
M  V30 5862 O 555.287 -1.43684 1.12522 0
M  V30 5863 C 555.338 1.20068 3.40978 0
M  V30 5864 O 555.059 2.59013 3.53333 0
M  V30 5865 C 556.56 0.96987 4.3256 0
M  V30 5866 H 553.78 0.292809 0.603742 0
M  V30 5867 H 556.324 1.42296 1.46874 0
M  V30 5868 H 554.479 0.630842 3.82229 0
M  V30 5869 H 554.893 2.7485 4.46719 0
M  V30 5870 H 556.367 1.29371 5.36626 0
M  V30 5871 H 556.844 -0.0941209 4.39099 0
M  V30 5872 H 557.45 1.52433 3.97044 0
M  V30 5873 N 555.766 -1.3263 0.851289 0
M  V30 5874 C 556.696 -2.31449 0.308771 0
M  V30 5875 C 557.677 -1.59531 -0.590255 0
M  V30 5876 O 558.862 -1.87351 -0.511205 0
M  V30 5877 C 555.992 -3.43586 -0.506548 0
M  V30 5878 C 554.946 -4.26963 0.297753 0
M  V30 5879 C 554.272 -5.30831 -0.642094 0
M  V30 5880 C 555.572 -4.99643 1.52166 0
M  V30 5881 H 557.266 -2.77074 1.13447 0
M  V30 5882 H 554.812 -1.33207 0.546971 0
M  V30 5883 H 556.765 -4.11754 -0.896474 0
M  V30 5884 H 555.489 -2.96681 -1.36558 0
M  V30 5885 H 554.148 -3.60437 0.669391 0
M  V30 5886 H 553.796 -4.8018 -1.49788 0
M  V30 5887 H 553.496 -5.87501 -0.107968 0
M  V30 5888 H 555.02 -6.01862 -1.02927 0
M  V30 5889 H 556.434 -5.6051 1.20421 0
M  V30 5890 H 554.831 -5.66022 1.99347 0
M  V30 5891 H 555.901 -4.27701 2.28474 0
M  V30 5892 N 557.244 -0.608902 -1.45362 0
M  V30 5893 C 558.176 0.147318 -2.28726 0
M  V30 5894 C 559.189 0.830468 -1.40025 0
M  V30 5895 O 560.378 0.695636 -1.64387 0
M  V30 5896 C 557.478 1.22968 -3.15804 0
M  V30 5897 C 556.651 0.633391 -4.3279 0
M  V30 5898 C 555.71 1.60682 -5.01067 0
M  V30 5899 O 554.736 1.13261 -5.57818 0
M  V30 5900 N 555.938 2.94123 -5.00472 0
M  V30 5901 H 558.703 -0.568014 -2.94268 0
M  V30 5902 H 556.264 -0.448479 -1.55564 0
M  V30 5903 H 558.256 1.88072 -3.58345 0
M  V30 5904 H 556.826 1.84752 -2.52162 0
M  V30 5905 H 556.046 -0.195762 -3.93714 0
M  V30 5906 H 557.334 0.215255 -5.08344 0
M  V30 5907 H 556.732 3.3525 -4.55657 0
M  V30 5908 H 555.289 3.54646 -5.46872 0
M  V30 5909 N 558.722 1.53707 -0.348139 0
M  V30 5910 C 559.97 2.00591 0.246478 0
M  V30 5911 C 560.291 1.23753 1.50699 0
M  V30 5912 O 559.561 0.345964 1.92821 0
M  V30 5913 H 558.141 0.741053 0.0940679 0
M  V30 5914 H 560.803 1.89139 -0.470354 0
M  V30 5915 H 559.899 3.08297 0.485714 0
M  V30 5916 N 560.2 0.0768682 1.57412 0
M  V30 5917 C 561.15 -0.898795 2.09537 0
M  V30 5918 C 562.134 -1.25556 1.0062 0
M  V30 5919 O 563.326 -1.23369 1.26921 0
M  V30 5920 C 560.455 -2.16453 2.66464 0
M  V30 5921 C 559.541 -1.83401 3.82393 0
M  V30 5922 N 559.932 -1.20823 4.91157 0
M  V30 5923 C 558.23 -2.13121 3.91785 0
M  V30 5924 C 558.931 -1.05976 5.71965 0
M  V30 5925 N 557.907 -1.57113 5.204 0
M  V30 5926 H 561.709 -0.410718 2.91016 0
M  V30 5927 H 559.223 -0.126878 1.61904 0
M  V30 5928 H 561.22 -2.87274 3.02125 0
M  V30 5929 H 559.88 -2.65844 1.86433 0
M  V30 5930 H 560.891 -0.877249 5.10416 0
M  V30 5931 H 557.568 -2.64854 3.22736 0
M  V30 5932 H 558.958 -0.571809 6.69462 0
M  V30 5933 N 561.678 -1.56367 -0.196722 0
M  V30 5934 C 562.641 -1.93561 -1.22746 0
M  V30 5935 C 563.641 -0.816566 -1.38524 0
M  V30 5936 O 564.831 -1.084 -1.36363 0
M  V30 5937 C 561.963 -2.20823 -2.59712 0
M  V30 5938 H 563.156 -2.85774 -0.909586 0
M  V30 5939 H 560.709 -1.50032 -0.438174 0
M  V30 5940 H 561.444 -1.31243 -2.96557 0
M  V30 5941 H 561.229 -3.02368 -2.49632 0
M  V30 5942 H 562.719 -2.50608 -3.34044 0
M  V30 5943 N 563.156 0.464375 -1.50603 0
M  V30 5944 C 564.403 1.21596 -1.61928 0
M  V30 5945 C 564.731 1.91804 -0.322737 0
M  V30 5946 O 563.986 1.83065 0.691776 0
M  V30 5947 C 564.285 2.278 -2.75394 0
M  V30 5948 C 563.951 1.74797 -4.1564 0
M  V30 5949 C 562.613 1.60063 -4.53799 0
M  V30 5950 C 564.965 1.35548 -5.03266 0
M  V30 5951 C 562.293 1.04514 -5.77316 0
M  V30 5952 C 564.645 0.814381 -6.27336 0
M  V30 5953 C 563.309 0.653726 -6.64291 0
M  V30 5954 H 562.579 0.444951 -0.592536 0
M  V30 5955 H 565.226 0.510964 -1.84557 0
M  V30 5956 H 563.531 3.04233 -2.46879 0
M  V30 5957 H 565.228 2.85723 -2.81359 0
M  V30 5958 H 561.818 1.87234 -3.8554 0
M  V30 5959 H 566.002 1.45763 -4.74412 0
M  V30 5960 H 561.258 0.908186 -6.04617 0
M  V30 5961 H 565.432 0.501626 -6.94591 0
M  V30 5962 H 563.059 0.22114 -7.59878 0
M  V30 5963 N 564.634 1.40294 0.718013 0
M  V30 5964 C 565.544 1.42678 1.86226 0
M  V30 5965 C 566.56 0.319655 1.71039 0
M  V30 5966 O 567.736 0.563852 1.93346 0
M  V30 5967 C 564.801 1.2852 3.21999 0
M  V30 5968 C 563.862 2.49354 3.49458 0
M  V30 5969 C 563.095 2.35863 4.78753 0
M  V30 5970 O 563.318 1.37114 5.53675 0
M  V30 5971 O 562.252 3.25189 5.06494 0
M  V30 5972 H 566.078 2.39167 1.87171 0
M  V30 5973 H 563.663 1.2159 0.868112 0
M  V30 5974 H 565.545 1.22824 4.03103 0
M  V30 5975 H 564.22 0.351359 3.21787 0
M  V30 5976 H 563.127 2.60628 2.68373 0
M  V30 5977 H 564.46 3.41491 3.54464 0
M  V30 5978 N 566.112 -0.949982 1.2575 0
M  V30 5979 C 567.075 -2.02894 1.06615 0
M  V30 5980 C 568.075 -1.60791 0.0173905 0
M  V30 5981 O 569.265 -1.72249 0.260003 0
M  V30 5982 C 566.397 -3.35219 0.619751 0
M  V30 5983 H 567.59 -2.21302 2.02399 0
M  V30 5984 H 565.143 -1.12772 1.08223 0
M  V30 5985 H 565.878 -3.22508 -0.340486 0
M  V30 5986 H 565.663 -3.67129 1.37692 0
M  V30 5987 H 567.153 -4.14505 0.507443 0
M  V30 5988 N 567.59 -1.07411 -1.15328 0
M  V30 5989 C 569.006 -0.799759 -1.38116 0
M  V30 5990 C 569.206 0.59572 -1.92493 0
M  V30 5991 O 568.262 1.35433 -2.13106 0
M  V30 5992 C 569.575 -1.87407 -2.35158 0
M  V30 5993 C 571.123 -1.89889 -2.48819 0
M  V30 5994 C 571.598 -2.96406 -3.49153 0
M  V30 5995 N 573.089 -2.95512 -3.56689 0
M  V30 5996 C 573.824 -3.74575 -4.34144 0
M  V30 5997 N 573.32 -4.63488 -5.14928 0
M  V30 5998 N 575.113 -3.62919 -4.29239 0
M  V30 5999 H 567.264 -1.97411 -0.78374 0
M  V30 6000 H 569.527 -0.856113 -0.407154 0
M  V30 6001 H 569.233 -2.8768 -2.0232 0
M  V30 6002 H 569.107 -1.73471 -3.34944 0
M  V30 6003 H 571.494 -0.902677 -2.80955 0
M  V30 6004 H 571.575 -2.07904 -1.49029 0
M  V30 6005 H 571.219 -3.96227 -3.17752 0
M  V30 6006 H 571.149 -2.75638 -4.48699 0
M  V30 6007 H 573.64 -2.31061 -2.99031 0
M  V30 6008 H 573.953 -5.20445 -5.71276 0
M  V30 6009 H 572.298 -4.67537 -5.14232 0
M  V30 6010 H 575.489 -2.92833 -3.65194 0
M  V30 6011 H 575.662 -4.24777 -4.89355 0
M  V30 6012 N 569.068 1.32177 -0.85831 0
M  V30 6013 C 570.317 1.96392 -0.459689 0
M  V30 6014 C 570.63 1.68659 0.990632 0
M  V30 6015 O 571.836 2.26641 1.49485 0
M  V30 6016 C 570.292 3.51542 -0.7711 0
M  V30 6017 C 569.9 3.8813 -2.2374 0
M  V30 6018 C 571.644 4.2221 -0.44038 0
M  V30 6019 C 569.551 5.36341 -2.49183 0
M  V30 6020 H 568.481 0.735007 -0.168169 0
M  V30 6021 H 571.132 1.50518 -1.0496 0
M  V30 6022 H 569.514 3.95846 -0.11058 0
M  V30 6023 H 570.688 3.54824 -2.94001 0
M  V30 6024 H 569.003 3.30497 -2.533 0
M  V30 6025 H 571.6 5.31234 -0.607855 0
M  V30 6026 H 571.943 4.11683 0.618291 0
M  V30 6027 H 572.476 3.83502 -1.05695 0
M  V30 6028 H 569.215 5.51892 -3.53689 0
M  V30 6029 H 568.735 5.7104 -1.83504 0
M  V30 6030 H 570.414 6.03466 -2.33318 0
M  V30 6031 N 570.547 0.616602 1.45037 0
M  V30 6032 C 571.777 0.121791 2.06241 0
M  V30 6033 C 572.185 -1.20289 1.46038 0
M  V30 6034 O 571.528 -1.7456 0.572242 0
M  V30 6035 C 571.59 -0.0827345 3.59405 0
M  V30 6036 C 571.254 1.16153 4.41993 0
M  V30 6037 C 572.251 2.08183 4.76399 0
M  V30 6038 C 569.936 1.39288 4.82601 0
M  V30 6039 C 571.93 3.21668 5.5028 0
M  V30 6040 C 569.617 2.53073 5.56235 0
M  V30 6041 C 570.615 3.44091 5.89992 0
M  V30 6042 O 570.303 4.55894 6.6213 0
M  V30 6043 H 570.035 0.0701667 0.672349 0
M  V30 6044 H 572.589 0.846877 1.87129 0
M  V30 6045 H 570.819 -0.862812 3.76952 0
M  V30 6046 H 572.508 -0.530273 4.02421 0
M  V30 6047 H 573.274 1.91538 4.45576 0
M  V30 6048 H 569.153 0.693396 4.55755 0
M  V30 6049 H 572.697 3.92733 5.76547 0
M  V30 6050 H 568.594 2.69667 5.86472 0
M  V30 6051 H 569.362 4.5469 6.80587 0
M  V30 6052 N 572.025 -1.5352 0.356285 0
M  V30 6053 C 572.988 -2.24071 -0.482182 0
M  V30 6054 C 573.988 -1.24531 -1.01729 0
M  V30 6055 O 575.178 -1.48876 -0.904513 0
M  V30 6056 C 572.31 -2.97025 -1.67299 0
M  V30 6057 H 573.503 -2.99596 0.135031 0
M  V30 6058 H 571.056 -1.55928 0.107825 0
M  V30 6059 H 571.791 -2.25719 -2.32855 0
M  V30 6060 H 571.576 -3.7005 -1.29636 0
M  V30 6061 H 573.066 -3.50683 -2.26741 0
M  V30 6062 N 573.503 -0.0852151 -1.57369 0
M  V30 6063 C 574.413 0.891712 -2.16992 0
M  V30 6064 C 575.429 1.3174 -1.13669 0
M  V30 6065 O 576.605 1.38735 -1.45995 0
M  V30 6066 C 573.67 2.13635 -2.73059 0
M  V30 6067 C 572.731 1.7658 -3.91303 0
M  V30 6068 C 571.964 2.95111 -4.44686 0
M  V30 6069 O 572.187 4.09539 -3.97032 0
M  V30 6070 O 571.121 2.74149 -5.35841 0
M  V30 6071 H 574.947 0.414477 -3.00858 0
M  V30 6072 H 572.532 0.138598 -1.48756 0
M  V30 6073 H 574.414 2.86595 -3.08935 0
M  V30 6074 H 573.089 2.6043 -1.92244 0
M  V30 6075 H 571.996 1.00831 -3.60255 0
M  V30 6076 H 573.329 1.34557 -4.7345 0
M  V30 6077 N 574.981 1.5647 0.188427 0
M  V30 6078 C 576.258 1.71857 0.934058 0
M  V30 6079 C 576.638 0.641867 2.01105 0
M  V30 6080 O 575.986 -0.346098 2.25864 0
M  V30 6081 C 576.196 3.14431 1.5144 0
M  V30 6082 C 577.544 3.74869 1.99396 0
M  V30 6083 O 578.568 3.17601 1.61269 0
M  V30 6084 O 577.427 4.75387 2.69573 0
M  V30 6085 H 574.521 0.701186 0.438483 0
M  V30 6086 H 577.067 1.68768 0.177599 0
M  V30 6087 H 575.839 3.8427 0.738416 0
M  V30 6088 H 575.462 3.21775 2.33552 0
M  V30 6089 N 576.459 -0.456382 1.50847 0
M  V30 6090 C 577.87 -1.03685 1.55262 0
M  V30 6091 C 578.221 -1.92779 0.364771 0
M  V30 6092 O 577.346 -2.10043 -0.52068 0
M  V30 6093 C 577.941 -1.88718 2.81374 0
M  V30 6094 C 576.5 -2.41847 2.88422 0
M  V30 6095 C 575.647 -1.20564 2.49719 0
M  V30 6096 H 578.598 -0.238399 1.56899 0
M  V30 6097 H 578.619 -2.73957 2.6406 0
M  V30 6098 H 578.131 -1.23847 3.67809 0
M  V30 6099 H 576.232 -3.10228 2.06372 0
M  V30 6100 H 576.345 -2.75947 3.9165 0
M  V30 6101 H 574.709 -1.54504 2.02486 0
M  V30 6102 H 575.492 -0.573326 3.38479 0
M  V30 6103 N 577.937 -1.40673 -0.710563 0
M  V30 6104 C 579.162 -1.42741 -1.50465 0
M  V30 6105 C 579.587 -0.0302116 -1.88076 0
M  V30 6106 O 578.945 0.962945 -1.53613 0
M  V30 6107 C 578.993 -2.32873 -2.75322 0
M  V30 6108 O 578.097 -1.77544 -3.72226 0
M  V30 6109 H 577.438 -0.485056 -0.45345 0
M  V30 6110 H 579.968 -1.84961 -0.874681 0
M  V30 6111 H 579.978 -2.48233 -3.23797 0
M  V30 6112 H 578.653 -3.34401 -2.47283 0
M  V30 6113 H 577.23 -1.71556 -3.31093 0
M  V30 6114 N 579.415 0.9433 -1.26252 0
M  V30 6115 C 580.363 2.06302 -1.07434 0
M  V30 6116 C 581.357 1.694 -0.00189471 0
M  V30 6117 O 582.563 1.79302 -0.158408 0
M  V30 6118 H 578.938 0.675453 -0.330556 0
M  V30 6119 H 580.909 2.19326 -2.02333 0
M  V30 6120 C 579.658 3.40125 -0.721817 0
M  V30 6121 H 578.981 3.68996 -1.5389 0
M  V30 6122 H 580.421 4.19295 -0.629922 0
M  V30 6123 C 578.88 3.31993 0.572902 0
M  V30 6124 O 579.41 3.67945 1.61182 0
M  V30 6125 N 577.616 2.85099 0.562748 0
M  V30 6126 H 577.163 2.5604 -0.283092 0
M  V30 6127 H 577.121 2.80041 1.42915 0
M  V30 6128 N 580.893 1.08022 1.14757 0
M  V30 6129 C 581.841 0.701088 2.21783 0
M  V30 6130 C 582.835 -0.291311 1.66876 0
M  V30 6131 O 584.041 -0.154296 1.79337 0
M  V30 6132 H 580.416 0.208668 0.722469 0
M  V30 6133 H 582.387 1.61321 2.51034 0
M  V30 6134 C 581.136 0.122278 3.47485 0
M  V30 6135 H 580.459 0.877065 3.90061 0
M  V30 6136 H 581.899 -0.105248 4.23869 0
M  V30 6137 C 580.358 -1.13883 3.17068 0
M  V30 6138 O 580.888 -2.22429 3.34497 0
M  V30 6139 N 579.094 -1.04767 2.71058 0
M  V30 6140 H 578.641 -0.164302 2.57075 0
M  V30 6141 H 578.599 -1.89224 2.51081 0
M  V30 6142 N 582.371 -1.3172 0.865308 0
M  V30 6143 C 583.618 -1.96876 0.473931 0
M  V30 6144 C 583.946 -1.68425 -0.972786 0
M  V30 6145 O 583.201 -0.970742 -1.69927 0
M  V30 6146 C 583.5 -3.5102 0.672283 0
M  V30 6147 C 583.166 -3.9948 2.09108 0
M  V30 6148 C 581.828 -4.12425 2.4791 0
M  V30 6149 C 584.18 -4.2503 3.0166 0
M  V30 6150 C 581.508 -4.48267 3.78515 0
M  V30 6151 C 583.86 -4.62335 4.31774 0
M  V30 6152 C 582.524 -4.73486 4.70497 0
M  V30 6153 H 581.794 -0.72042 0.173424 0
M  V30 6154 H 584.441 -1.56937 1.0974 0
M  V30 6155 H 582.746 -3.91785 -0.034356 0
M  V30 6156 H 584.443 -3.99475 0.349353 0
M  V30 6157 H 581.033 -3.89898 1.77981 0
M  V30 6158 H 585.217 -4.14529 2.7291 0
M  V30 6159 H 580.473 -4.55097 4.08285 0
M  V30 6160 H 584.647 -4.81058 5.03543 0
M  V30 6161 H 582.274 -5.01016 5.71741 0
M  V30 6162 N 583.85 -0.624285 -1.44708 0
M  V30 6163 C 584.783 0.133905 -2.27807 0
M  V30 6164 C 585.76 0.857794 -1.38133 0
M  V30 6165 O 586.945 0.863277 -1.6757 0
M  V30 6166 C 584.072 1.19541 -3.16903 0
M  V30 6167 C 583.118 0.572813 -4.22636 0
M  V30 6168 S 583.951 -0.631953 -5.31758 0
M  V30 6169 C 585.106 0.429733 -6.24423 0
M  V30 6170 H 585.34 -0.571072 -2.91764 0
M  V30 6171 H 582.873 -0.412261 -1.48794 0
M  V30 6172 H 584.831 1.80293 -3.68788 0
M  V30 6173 H 583.492 1.87255 -2.5218 0
M  V30 6174 H 582.685 1.37205 -4.84965 0
M  V30 6175 H 582.287 0.0400641 -3.73979 0
M  V30 6176 H 584.579 1.30421 -6.64828 0
M  V30 6177 H 585.522 -0.157804 -7.07924 0
M  V30 6178 H 585.93 0.75256 -5.59461 0
M  V30 6179 N 585.328 1.53329 -0.364422 0
M  V30 6180 C 586.739 1.86345 0.115039 0
M  V30 6181 C 587.09 1.28505 1.4826 0
M  V30 6182 O 586.215 0.606639 2.07723 0
M  V30 6183 C 586.81 3.38114 0.215522 0
M  V30 6184 C 585.369 3.70932 0.639237 0
M  V30 6185 C 584.516 2.76471 -0.214261 0
M  V30 6186 H 587.467 1.47593 -0.583258 0
M  V30 6187 H 587.488 3.66031 1.0393 0
M  V30 6188 H 587 3.80182 -0.779948 0
M  V30 6189 H 585.101 3.3442 1.64298 0
M  V30 6190 H 585.214 4.77302 0.41465 0
M  V30 6191 H 583.578 2.52724 0.316678 0
M  V30 6192 H 584.361 3.21373 -1.20725 0
M  V30 6193 N 586.806 0.0935595 1.57322 0
M  V30 6194 C 588.052 -0.571355 1.94585 0
M  V30 6195 C 588.385 -1.67929 0.975366 0
M  V30 6196 O 587.66 -1.94498 0.00816206 0
M  V30 6197 C 587.943 -1.12797 3.41978 0
M  V30 6198 C 587.796 -0.0251881 4.49793 0
M  V30 6199 C 589.115 -2.02682 3.90651 0
M  V30 6200 H 586.234 -0.206223 0.70756 0
M  V30 6201 H 588.876 0.163956 1.89291 0
M  V30 6202 H 587.026 -1.75461 3.4662 0
M  V30 6203 H 588.698 0.608979 4.57263 0
M  V30 6204 H 586.941 0.641399 4.29032 0
M  V30 6205 H 587.612 -0.455433 5.50118 0
M  V30 6206 H 590.088 -1.49925 3.88152 0
M  V30 6207 H 588.964 -2.38555 4.94351 0
M  V30 6208 H 589.225 -2.94362 3.29854 0
M  V30 6209 N 588.284 -1.56567 -0.180126 0
M  V30 6210 C 589.247 -1.94852 -1.20686 0
M  V30 6211 C 590.247 -0.831212 -1.3765 0
M  V30 6212 O 591.437 -1.09841 -1.35206 0
M  V30 6213 C 588.569 -2.23565 -2.57355 0
M  V30 6214 H 589.762 -2.86722 -0.879225 0
M  V30 6215 H 587.315 -1.50489 -0.422237 0
M  V30 6216 H 588.05 -1.34381 -2.95148 0
M  V30 6217 H 587.835 -3.04999 -2.46411 0
M  V30 6218 H 589.325 -2.54137 -3.31367 0
M  V30 6219 N 589.762 0.448376 -1.51087 0
M  V30 6220 C 591.01 1.19635 -1.62886 0
M  V30 6221 C 591.331 1.91977 -0.342024 0
M  V30 6222 O 590.601 1.85094 0.641636 0
M  V30 6223 H 589.181 0.444598 -0.600285 0
M  V30 6224 H 591.843 0.515138 -1.87969 0
M  V30 6225 H 590.939 1.93194 -2.45117 0
M  V30 6226 N 591.24 1.41047 0.703093 0
M  V30 6227 C 592.651 1.35657 1.28274 0
M  V30 6228 C 593.002 0.0360309 1.96167 0
M  V30 6229 O 592.127 -0.865833 1.98324 0
M  V30 6230 C 592.722 2.45707 2.33267 0
M  V30 6231 C 591.281 2.43738 2.86825 0
M  V30 6232 C 590.428 2.25941 1.60767 0
M  V30 6233 H 593.379 1.50672 0.49836 0
M  V30 6234 H 593.4 2.14333 3.14391 0
M  V30 6235 H 592.912 3.41805 1.83824 0
M  V30 6236 H 591.013 1.51375 3.40465 0
M  V30 6237 H 591.126 3.39779 3.37768 0
M  V30 6238 H 589.49 1.73681 1.86298 0
M  V30 6239 H 590.273 3.24054 1.1333 0
M  V30 6240 N 592.718 -0.936591 1.26751 0
M  V30 6241 C 593.648 -2.05315 1.11212 0
M  V30 6242 C 594.629 -1.70092 0.0160262 0
M  V30 6243 O 595.814 -1.93279 0.188894 0
M  V30 6244 C 592.944 -3.39123 0.749171 0
M  V30 6245 C 591.898 -3.88425 1.79751 0
M  V30 6246 C 591.224 -5.18936 1.28876 0
M  V30 6247 C 592.524 -4.12798 3.19992 0
M  V30 6248 H 594.218 -2.18573 2.04613 0
M  V30 6249 H 591.764 -1.05027 0.985159 0
M  V30 6250 H 593.717 -4.16704 0.627323 0
M  V30 6251 H 592.441 -3.25855 -0.220543 0
M  V30 6252 H 591.1 -3.13028 1.90811 0
M  V30 6253 H 590.748 -5.02051 0.308757 0
M  V30 6254 H 590.448 -5.52892 1.98958 0
M  V30 6255 H 591.972 -5.99096 1.17967 0
M  V30 6256 H 593.386 -4.80977 3.11983 0
M  V30 6257 H 591.783 -4.58044 3.87705 0
M  V30 6258 H 592.853 -3.18412 3.65707 0
M  V30 6259 N 594.196 -1.08629 -1.14182 0
M  V30 6260 C 595.442 -0.818556 -1.85546 0
M  V30 6261 C 595.775 0.654076 -1.82854 0
M  V30 6262 O 595.05 1.48099 -1.26083 0
M  V30 6263 C 595.333 -1.34397 -3.3408 0
M  V30 6264 C 595.186 -2.8821 -3.45333 0
M  V30 6265 C 596.505 -0.971069 -4.29253 0
M  V30 6266 H 593.624 -0.298821 -0.673702 0
M  V30 6267 H 596.266 -1.34629 -1.34071 0
M  V30 6268 H 594.416 -0.895064 -3.78049 0
M  V30 6269 H 596.088 -3.41488 -3.10134 0
M  V30 6270 H 594.331 -3.25756 -2.86471 0
M  V30 6271 H 595.002 -3.20047 -4.49749 0
M  V30 6272 H 597.478 -1.35809 -3.93313 0
M  V30 6273 H 596.354 -1.36586 -5.31635 0
M  V30 6274 H 596.615 0.121659 -4.41933 0
M  V30 6275 N 595.674 1.31259 -0.872281 0
M  V30 6276 C 596.624 2.26 -0.301295 0
M  V30 6277 C 597.608 1.50729 0.562991 0
M  V30 6278 O 598.8 1.72198 0.40949 0
M  V30 6279 C 595.929 3.39724 0.494227 0
M  V30 6280 C 595.015 4.22363 -0.383432 0
M  V30 6281 N 595.406 4.83724 -1.47799 0
M  V30 6282 C 593.704 4.45652 -0.176278 0
M  V30 6283 C 594.405 5.45523 -2.01939 0
M  V30 6284 N 593.381 5.27428 -1.31608 0
M  V30 6285 H 597.183 2.70981 -1.13782 0
M  V30 6286 H 594.697 1.45552 -0.720294 0
M  V30 6287 H 596.694 4.06626 0.919828 0
M  V30 6288 H 595.354 2.96286 1.32834 0
M  V30 6289 H 596.365 4.83313 -1.8609 0
M  V30 6290 H 593.042 4.12845 0.621698 0
M  V30 6291 H 594.432 6.04268 -2.93786 0
M  V30 6292 N 597.152 0.631951 1.44375 0
M  V30 6293 C 598.082 -0.0593243 2.33425 0
M  V30 6294 C 599.063 -0.833964 1.48253 0
M  V30 6295 O 600.248 -0.799682 1.76971 0
M  V30 6296 C 597.378 -1.04096 3.31333 0
M  V30 6297 C 596.332 -0.377899 4.26328 0
M  V30 6298 C 595.658 -1.4695 5.14111 0
M  V30 6299 C 596.958 0.716371 5.17364 0
M  V30 6300 H 598.652 0.684287 2.91475 0
M  V30 6301 H 596.198 0.330518 1.40156 0
M  V30 6302 H 598.151 -1.53331 3.92514 0
M  V30 6303 H 596.875 -1.81547 2.71493 0
M  V30 6304 H 595.534 0.0938054 3.6648 0
M  V30 6305 H 595.182 -2.2349 4.50623 0
M  V30 6306 H 594.882 -1.03121 5.78481 0
M  V30 6307 H 596.406 -1.96363 5.78164 0
M  V30 6308 H 597.82 0.307089 5.72477 0
M  V30 6309 H 596.217 1.07784 5.90341 0
M  V30 6310 H 597.287 1.58316 4.58327 0
M  V30 6311 N 598.631 -1.53133 0.372548 0
M  V30 6312 C 599.856 -2.0625 -0.218098 0
M  V30 6313 C 600.281 -1.24375 -1.41111 0
M  V30 6314 O 599.639 -0.264554 -1.79359 0
M  V30 6315 C 599.687 -3.55858 -0.582876 0
M  V30 6316 O 598.791 -3.76667 -1.67917 0
M  V30 6317 H 598.132 -0.663317 -0.030104 0
M  V30 6318 H 600.662 -1.97477 0.535169 0
M  V30 6319 H 600.672 -3.99007 -0.851925 0
M  V30 6320 H 599.347 -4.14892 0.289428 0
M  V30 6321 H 597.924 -3.45413 -1.40513 0
M  V30 6322 N 600.109 -0.101901 -1.5727 0
M  V30 6323 C 601.337 0.568392 -1.98939 0
M  V30 6324 C 601.752 1.61301 -0.981194 0
M  V30 6325 O 601.109 1.82478 0.0282869 0
M  V30 6326 C 601.16 1.20997 -3.40649 0
M  V30 6327 O 600.881 0.207129 -4.3761 0
M  V30 6328 C 602.382 1.96523 -3.97358 0
M  V30 6329 H 599.602 0.15186 -0.65359 0
M  V30 6330 H 602.146 -0.183198 -2.03678 0
M  V30 6331 H 600.301 1.91245 -3.36904 0
M  V30 6332 H 600.715 0.671071 -5.20189 0
M  V30 6333 H 602.189 2.36764 -4.98645 0
M  V30 6334 H 602.666 2.83376 -3.35552 0
M  V30 6335 H 603.272 1.31076 -4.04598 0
M  V30 6336 N 601.587 1.56661 0.17182 0
M  V30 6337 C 602.998 1.71652 0.734329 0
M  V30 6338 C 603.349 0.712335 1.82812 0
M  V30 6339 O 602.474 -0.126401 2.16031 0
M  V30 6340 C 603.069 3.11226 1.3388 0
M  V30 6341 C 601.628 3.27904 1.84813 0
M  V30 6342 C 600.775 2.67603 0.726917 0
M  V30 6343 H 603.726 1.5861 -0.0535665 0
M  V30 6344 H 603.747 3.09849 2.20849 0
M  V30 6345 H 603.259 3.8429 0.54249 0
M  V30 6346 H 601.36 2.59796 2.6709 0
M  V30 6347 H 601.473 4.35637 1.99392 0
M  V30 6348 H 599.837 2.274 1.14723 0
M  V30 6349 H 600.62 3.43252 -0.0575334 0
M  V30 6350 N 603.065 -0.440357 1.51323 0
M  V30 6351 C 604.481 -0.7766 1.39431 0
M  V30 6352 C 604.681 -1.95838 0.474296 0
M  V30 6353 O 603.737 -2.52398 -0.0716692 0
M  V30 6354 C 605.05 -1.05981 2.81405 0
M  V30 6355 C 606.598 -1.16442 2.90534 0
M  V30 6356 C 607.073 -1.48058 4.33408 0
M  V30 6357 N 608.564 -1.54988 4.36501 0
M  V30 6358 C 609.299 -1.81017 5.44078 0
M  V30 6359 N 608.795 -2.04858 6.61819 0
M  V30 6360 N 610.588 -1.82774 5.31554 0
M  V30 6361 H 602.739 0.338006 2.09693 0
M  V30 6362 H 605.002 0.0888072 0.943831 0
M  V30 6363 H 604.708 -0.264173 3.50706 0
M  V30 6364 H 604.582 -1.98822 3.20546 0
M  V30 6365 H 606.969 -1.95068 2.21432 0
M  V30 6366 H 607.05 -0.215088 2.54894 0
M  V30 6367 H 606.694 -0.699605 5.03059 0
M  V30 6368 H 606.624 -2.44192 4.66559 0
M  V30 6369 H 609.115 -1.38479 3.51613 0
M  V30 6370 H 609.428 -2.2408 7.396 0
M  V30 6371 H 607.773 -2.02187 6.6494 0
M  V30 6372 H 610.964 -1.63665 4.38556 0
M  V30 6373 H 611.137 -2.02722 6.15474 0
M  V30 6374 N 604.543 -1.41418 -0.695603 0
M  V30 6375 C 605.506 -1.42988 -1.79129 0
M  V30 6376 C 606.506 -0.320514 -1.57573 0
M  V30 6377 O 607.696 -0.58039 -1.64247 0
M  V30 6378 C 604.828 -1.24122 -3.175 0
M  V30 6379 H 606.021 -2.40526 -1.7913 0
M  V30 6380 H 603.574 -1.2756 -0.903225 0
M  V30 6381 H 604.309 -0.274253 -3.23138 0
M  V30 6382 H 604.094 -2.045 -3.34547 0
M  V30 6383 H 605.584 -1.28056 -3.97481 0
M  V30 6384 N 606.021 0.929856 -1.27246 0
M  V30 6385 C 607.298 1.65544 -1.04186 0
M  V30 6386 C 607.678 2.06796 0.424097 0
M  V30 6387 O 607.026 1.80053 1.40688 0
M  V30 6388 C 607.236 2.85912 -2.00138 0
M  V30 6389 C 608.584 3.57305 -2.29387 0
M  V30 6390 O 609.608 2.96036 -1.98094 0
M  V30 6391 O 608.467 4.67688 -2.82719 0
M  V30 6392 H 605.561 0.725473 -0.397011 0
M  V30 6393 H 608.107 0.980583 -1.38501 0
M  V30 6394 H 606.879 2.52403 -2.99013 0
M  V30 6395 H 606.502 3.61118 -1.66371 0
M  V30 6396 N 607.499 1.09233 1.13605 0
M  V30 6397 C 608.91 0.846839 1.6639 0
M  V30 6398 C 609.261 -0.625031 1.85978 0
M  V30 6399 O 608.386 -1.48173 1.57714 0
M  V30 6400 C 608.981 1.5307 3.0225 0
M  V30 6401 C 607.54 1.33223 3.52035 0
M  V30 6402 C 606.687 1.58806 2.27323 0
M  V30 6403 H 609.638 1.25175 0.975541 0
M  V30 6404 H 609.659 0.96267 3.68121 0
M  V30 6405 H 609.171 2.60192 2.87961 0
M  V30 6406 H 607.272 0.282091 3.71531 0
M  V30 6407 H 607.385 2.0657 4.32279 0
M  V30 6408 H 605.749 1.01007 2.33815 0
M  V30 6409 H 606.532 2.67153 2.15602 0
M  V30 6410 N 608.977 -1.30795 0.87923 0
M  V30 6411 C 610.202 -2.01063 0.508769 0
M  V30 6412 C 610.627 -1.65508 -0.893803 0
M  V30 6413 O 609.985 -0.868616 -1.59138 0
M  V30 6414 C 610.033 -3.54054 0.683991 0
M  V30 6415 O 609.137 -4.11498 -0.272654 0
M  V30 6416 H 608.478 -0.632786 0.201191 0
M  V30 6417 H 611.008 -1.66776 1.18519 0
M  V30 6418 H 611.018 -4.03845 0.580798 0
M  V30 6419 H 609.693 -3.79271 1.70665 0
M  V30 6420 H 608.27 -3.72695 -0.12364 0
M  V30 6421 N 610.455 -0.639598 -1.44038 0
M  V30 6422 C 611.683 -0.154811 -2.0632 0
M  V30 6423 C 612.098 1.17406 -1.47856 0
M  V30 6424 O 611.455 1.72193 -0.604638 0
M  V30 6425 C 611.506 -0.0429958 -3.61474 0
M  V30 6426 O 611.227 -1.31932 -4.17763 0
M  V30 6427 C 612.728 0.469486 -4.40807 0
M  V30 6428 H 609.948 -0.0835862 -0.665773 0
M  V30 6429 H 612.492 -0.876397 -1.84769 0
M  V30 6430 H 610.647 0.629075 -3.82258 0
M  V30 6431 H 611.061 -1.16965 -5.11292 0
M  V30 6432 H 612.535 0.496712 -5.49761 0
M  V30 6433 H 613.012 1.49819 -4.12857 0
M  V30 6434 H 613.618 -0.169624 -4.24962 0
M  V30 6435 N 611.933 1.52934 -0.380664 0
M  V30 6436 C 613.349 1.59571 -0.0302429 0
M  V30 6437 C 613.549 1.39509 1.45394 0
M  V30 6438 O 612.605 1.20777 2.21741 0
M  V30 6439 C 613.918 2.96519 -0.499691 0
M  V30 6440 C 615.466 3.09672 -0.455204 0
M  V30 6441 C 615.941 4.49056 -0.900703 0
M  V30 6442 N 617.432 4.55215 -0.856367 0
M  V30 6443 C 618.167 5.61282 -1.17259 0
M  V30 6444 N 617.663 6.75035 -1.55885 0
M  V30 6445 N 619.456 5.51343 -1.0944 0
M  V30 6446 H 611.607 1.64224 -1.347 0
M  V30 6447 H 613.87 0.771033 -0.551554 0
M  V30 6448 H 613.576 3.16388 -1.53595 0
M  V30 6449 H 613.45 3.77052 0.105789 0
M  V30 6450 H 615.837 2.89504 0.571949 0
M  V30 6451 H 615.918 2.31113 -1.09638 0
M  V30 6452 H 615.562 4.69964 -1.92604 0
M  V30 6453 H 615.492 5.26068 -0.236629 0
M  V30 6454 H 617.983 3.73546 -0.572013 0
M  V30 6455 H 618.296 7.51926 -1.784 0
M  V30 6456 H 616.641 6.76388 -1.59764 0
M  V30 6457 H 619.832 4.61356 -0.791713 0
M  V30 6458 H 620.005 6.33905 -1.34417 0
M  V30 6459 N 613.412 0.11024 1.57214 0
M  V30 6460 C 614.661 -0.549638 1.94067 0
M  V30 6461 C 614.974 -1.68388 0.995234 0
M  V30 6462 O 616.18 -2.40593 1.25807 0
M  V30 6463 C 614.636 -1.02912 3.44873 0
M  V30 6464 C 614.244 0.0761861 4.47935 0
M  V30 6465 C 615.988 -1.66087 3.9066 0
M  V30 6466 C 613.895 -0.419502 5.8991 0
M  V30 6467 H 612.825 -0.209092 0.724428 0
M  V30 6468 H 615.476 0.188683 1.82527 0
M  V30 6469 H 613.858 -1.82159 3.51616 0
M  V30 6470 H 615.032 0.852185 4.52851 0
M  V30 6471 H 613.347 0.614052 4.11847 0
M  V30 6472 H 615.944 -2.04272 4.94143 0
M  V30 6473 H 616.287 -2.53591 3.30148 0
M  V30 6474 H 616.82 -0.933959 3.86681 0
M  V30 6475 H 613.559 0.419277 6.54158 0
M  V30 6476 H 613.079 -1.16217 5.88433 0
M  V30 6477 H 614.758 -0.883577 6.40938 0
M  V30 6478 N 614.89 -1.56749 -0.16351 0
M  V30 6479 C 615.8 -2.00255 -1.2221 0
M  V30 6480 C 616.816 -0.915194 -1.47987 0
M  V30 6481 O 617.992 -1.22342 -1.59982 0
M  V30 6482 C 615.057 -2.36035 -2.53946 0
M  V30 6483 C 614.118 -3.58637 -2.35962 0
M  V30 6484 C 613.351 -3.92701 -3.61416 0
M  V30 6485 O 613.574 -3.27632 -4.66919 0
M  V30 6486 O 612.508 -4.86019 -3.55062 0
M  V30 6487 H 616.334 -2.90586 -0.882794 0
M  V30 6488 H 613.919 -1.44721 -0.370978 0
M  V30 6489 H 615.801 -2.59982 -3.31643 0
M  V30 6490 H 614.476 -1.48863 -2.8744 0
M  V30 6491 H 613.383 -3.39898 -1.5627 0
M  V30 6492 H 614.716 -4.46374 -2.0739 0
M  V30 6493 N 616.368 0.432326 -1.51554 0
M  V30 6494 C 617.596 1.20364 -1.68286 0
M  V30 6495 C 618.011 1.84888 -0.38233 0
M  V30 6496 O 617.368 1.70924 0.639627 0
M  V30 6497 C 617.419 2.28398 -2.80208 0
M  V30 6498 O 617.14 1.66512 -4.05223 0
M  V30 6499 C 618.641 3.18584 -3.08251 0
M  V30 6500 H 615.861 0.36259 -0.564596 0
M  V30 6501 H 618.405 0.511647 -1.97996 0
M  V30 6502 H 616.56 2.93305 -2.53083 0
M  V30 6503 H 616.974 2.37951 -4.67418 0
M  V30 6504 H 618.448 3.90511 -3.90135 0
M  V30 6505 H 618.925 3.79628 -2.2086 0
M  V30 6506 H 619.531 2.59372 -3.37055 0
M  V30 6507 N 617.846 1.41785 0.688094 0
M  V30 6508 C 619.094 1.41264 1.4453 0
M  V30 6509 C 619.415 0.0252946 1.94984 0
M  V30 6510 O 618.685 -0.934081 1.72197 0
M  V30 6511 H 617.265 0.519998 0.536294 0
M  V30 6512 H 619.927 1.7709 0.813941 0
M  V30 6513 H 619.023 2.10439 2.30482 0
M  V30 6514 N 619.324 -0.923095 1.27737 0
M  V30 6515 C 620.57 -1.67375 1.14514 0
M  V30 6516 C 620.903 -1.91751 -0.307424 0
M  V30 6517 O 620.178 -1.51119 -1.22447 0
M  V30 6518 C 620.461 -3.03745 1.9342 0
M  V30 6519 C 620.314 -2.86581 3.46686 0
M  V30 6520 C 621.633 -4.04144 1.74228 0
M  V30 6521 H 618.752 -0.607427 0.417374 0
M  V30 6522 H 621.394 -1.07089 1.56946 0
M  V30 6523 H 619.544 -3.55204 1.5736 0
M  V30 6524 H 621.216 -2.42203 3.92601 0
M  V30 6525 H 619.459 -2.21829 3.72793 0
M  V30 6526 H 620.13 -3.83381 3.97143 0
M  V30 6527 H 622.606 -3.61712 2.05678 0
M  V30 6528 H 621.482 -4.97543 2.31824 0
M  V30 6529 H 621.743 -4.36661 0.691373 0
M  V30 6530 N 620.802 -1.09834 -1.13024 0
M  V30 6531 C 622.218 -0.828875 -1.36388 0
M  V30 6532 C 622.418 0.554756 -1.93713 0
M  V30 6533 O 621.474 1.30882 -2.15931 0
M  V30 6534 C 622.787 -1.92352 -2.3113 0
M  V30 6535 C 624.335 -1.95124 -2.44735 0
M  V30 6536 C 624.81 -3.03745 -3.42787 0
M  V30 6537 N 626.301 -3.03012 -3.5034 0
M  V30 6538 C 627.036 -3.83699 -4.26101 0
M  V30 6539 N 626.532 -4.74306 -5.04981 0
M  V30 6540 N 628.325 -3.71942 -4.21445 0
M  V30 6541 H 620.476 -1.99029 -0.74169 0
M  V30 6542 H 622.739 -0.864557 -0.388903 0
M  V30 6543 H 622.445 -2.91906 -1.96172 0
M  V30 6544 H 622.319 -1.80536 -3.3119 0
M  V30 6545 H 624.706 -0.962069 -2.78977 0
M  V30 6546 H 624.787 -2.11018 -1.44586 0
M  V30 6547 H 624.431 -4.02878 -3.09276 0
M  V30 6548 H 624.361 -2.85094 -4.42752 0
M  V30 6549 H 626.852 -2.37352 -2.94062 0
M  V30 6550 H 627.165 -5.32446 -5.60108 0
M  V30 6551 H 625.51 -4.78339 -5.04199 0
M  V30 6552 H 628.701 -3.00513 -3.589 0
M  V30 6553 H 628.874 -4.35062 -4.80235 0
M  V30 6554 N 622.28 1.30327 -0.886154 0
M  V30 6555 C 623.212 2.27079 -0.311072 0
M  V30 6556 C 624.225 1.53758 0.53502 0
M  V30 6557 O 625.414 1.74947 0.354378 0
M  V30 6558 C 622.514 3.33965 0.576228 0
M  V30 6559 C 621.687 4.36735 -0.241064 0
M  V30 6560 C 620.746 5.23028 0.576916 0
M  V30 6561 O 619.772 5.692 -0.000802231 0
M  V30 6562 N 620.974 5.49016 1.88579 0
M  V30 6563 H 623.739 2.77065 -1.14259 0
M  V30 6564 H 621.3 1.43519 -0.749258 0
M  V30 6565 H 623.292 3.88618 1.12953 0
M  V30 6566 H 621.862 2.839 1.30842 0
M  V30 6567 H 621.082 3.81932 -0.975805 0
M  V30 6568 H 622.37 5.02451 -0.801272 0
M  V30 6569 H 621.768 5.13288 2.37806 0
M  V30 6570 H 620.325 6.06539 2.38651 0
M  V30 6571 N 623.758 0.647228 1.43697 0
M  V30 6572 C 625.006 0.157876 2.01482 0
M  V30 6573 C 625.327 -1.23039 1.51282 0
M  V30 6574 O 624.597 -1.82071 0.722982 0
M  V30 6575 H 623.177 0.0553745 0.744945 0
M  V30 6576 H 625.839 0.83755 1.75986 0
M  V30 6577 H 624.935 0.137895 3.11795 0
M  V30 6578 N 625.236 -1.5273 0.388769 0
M  V30 6579 C 626.513 -1.93981 -0.251133 0
M  V30 6580 C 626.893 -1.32418 -1.64404 0
M  V30 6581 O 626.241 -0.492074 -2.23139 0
M  V30 6582 C 626.451 -3.47891 -0.27802 0
M  V30 6583 C 627.799 -4.21559 -0.507229 0
M  V30 6584 O 628.823 -3.54394 -0.358252 0
M  V30 6585 O 627.682 -5.40626 -0.799094 0
M  V30 6586 H 624.776 -0.812157 -0.15598 0
M  V30 6587 H 627.322 -1.63809 0.443237 0
M  V30 6588 H 626.094 -3.8503 0.697669 0
M  V30 6589 H 625.717 -3.84364 -1.01733 0
M  V30 6590 N 626.714 -0.118576 -1.57153 0
M  V30 6591 C 627.624 0.845484 -2.18835 0
M  V30 6592 C 628.64 1.29299 -1.16438 0
M  V30 6593 O 629.816 1.35607 -1.48905 0
M  V30 6594 C 626.881 2.07795 -2.77529 0
M  V30 6595 C 625.942 1.6824 -3.9496 0
M  V30 6596 C 625.175 2.85612 -4.50845 0
M  V30 6597 O 625.398 4.01025 -4.05629 0
M  V30 6598 O 624.332 2.62721 -5.41536 0
M  V30 6599 H 628.158 0.350568 -3.0167 0
M  V30 6600 H 625.743 0.107013 -1.49016 0
M  V30 6601 H 627.625 2.79978 -3.14945 0
M  V30 6602 H 626.3 2.56294 -1.97725 0
M  V30 6603 H 625.207 0.931663 -3.62313 0
M  V30 6604 H 626.54 1.24484 -4.76198 0
M  V30 6605 N 628.193 1.56834 0.155195 0
M  V30 6606 C 629.439 1.83169 0.870467 0
M  V30 6607 C 629.772 0.698929 1.81187 0
M  V30 6608 O 629.047 -0.298035 1.92203 0
M  V30 6609 C 629.33 3.19965 1.65211 0
M  V30 6610 C 629.183 4.43792 0.732744 0
M  V30 6611 C 630.502 3.53885 2.61636 0
M  V30 6612 H 627.621 0.666288 0.315006 0
M  V30 6613 H 630.263 1.89513 0.135988 0
M  V30 6614 H 628.413 3.14687 2.27825 0
M  V30 6615 H 630.085 4.61148 0.118236 0
M  V30 6616 H 628.328 4.3378 0.0417906 0
M  V30 6617 H 628.999 5.36095 1.31552 0
M  V30 6618 H 631.475 3.5972 2.09143 0
M  V30 6619 H 630.351 4.50648 3.13381 0
M  V30 6620 H 630.612 2.79418 3.42605 0
M  V30 6621 N 629.671 -0.424282 1.51781 0
M  V30 6622 C 630.896 -1.19928 1.6921 0
M  V30 6623 C 631.321 -1.8392 0.394355 0
M  V30 6624 O 630.679 -1.69371 -0.646778 0
M  V30 6625 C 630.727 -2.24937 2.81843 0
M  V30 6626 O 629.831 -3.3073 2.46356 0
M  V30 6627 H 629.172 -0.35078 0.563781 0
M  V30 6628 H 631.702 -0.499401 1.98412 0
M  V30 6629 H 631.712 -2.69512 3.06312 0
M  V30 6630 H 630.387 -1.77742 3.76006 0
M  V30 6631 H 628.964 -2.9154 2.32505 0
M  V30 6632 N 631.149 -1.42148 -0.680565 0
M  V30 6633 C 632.395 -1.42521 -1.44277 0
M  V30 6634 C 632.728 -0.0393718 -1.9416 0
M  V30 6635 O 632.003 0.935425 -1.70529 0
M  V30 6636 C 632.286 -2.44475 -2.64394 0
M  V30 6637 C 632.139 -3.92226 -2.20179 0
M  V30 6638 C 633.458 -2.43491 -3.66606 0
M  V30 6639 H 630.577 -0.518985 -0.523282 0
M  V30 6640 H 633.219 -1.73524 -0.773914 0
M  V30 6641 H 631.369 -2.18168 -3.21458 0
M  V30 6642 H 633.041 -4.29493 -1.68327 0
M  V30 6643 H 631.284 -4.0637 -1.5181 0
M  V30 6644 H 631.955 -4.59133 -3.06433 0
M  V30 6645 H 634.431 -2.66872 -3.19247 0
M  V30 6646 H 633.307 -3.16816 -4.4824 0
M  V30 6647 H 633.568 -1.45881 -4.17338 0
M  V30 6648 N 632.627 0.916307 -1.28225 0
M  V30 6649 C 633.577 2.00488 -1.08574 0
M  V30 6650 C 634.561 1.60897 -0.0101874 0
M  V30 6651 O 635.753 1.75499 -0.230034 0
M  V30 6652 C 632.882 3.35076 -0.746943 0
M  V30 6653 C 631.968 3.81077 -1.86121 0
M  V30 6654 N 632.359 3.99475 -3.10247 0
M  V30 6655 C 630.657 4.10212 -1.75048 0
M  V30 6656 C 631.358 4.37965 -3.82834 0
M  V30 6657 N 630.334 4.4608 -3.10667 0
M  V30 6658 H 634.136 2.1276 -2.02757 0
M  V30 6659 H 631.65 1.10397 -1.19107 0
M  V30 6660 H 633.647 4.12743 -0.587252 0
M  V30 6661 H 632.307 3.2416 0.187146 0
M  V30 6662 H 633.318 3.85466 -3.45885 0
M  V30 6663 H 629.995 4.07947 -0.887999 0
M  V30 6664 H 631.385 4.60183 -4.89572 0
M  V30 6665 N 634.105 1.10431 1.1244 0
M  V30 6666 C 635.335 0.867612 1.87499 0
M  V30 6667 C 635.743 -0.585475 1.79913 0
M  V30 6668 O 635.086 -1.41539 1.171 0
M  V30 6669 C 635.148 1.2374 3.37533 0
M  V30 6670 C 634.812 2.69751 3.68895 0
M  V30 6671 C 635.809 3.67988 3.67261 0
M  V30 6672 C 633.494 3.06135 3.98229 0
M  V30 6673 C 635.488 5.00632 3.9452 0
M  V30 6674 C 633.175 4.38967 4.25149 0
M  V30 6675 C 634.173 5.36025 4.23281 0
M  V30 6676 O 633.861 6.66465 4.49533 0
M  V30 6677 H 633.593 0.311196 0.600111 0
M  V30 6678 H 636.147 1.47257 1.43194 0
M  V30 6679 H 634.377 0.575537 3.82393 0
M  V30 6680 H 636.066 0.978187 3.93937 0
M  V30 6681 H 636.832 3.41224 3.44661 0
M  V30 6682 H 632.711 2.31214 3.98825 0
M  V30 6683 H 636.255 5.7638 3.92978 0
M  V30 6684 H 632.152 4.6547 4.47223 0
M  V30 6685 H 632.92 6.72095 4.67152 0
M  V30 6686 N 635.583 -1.29855 0.893053 0
M  V30 6687 C 636.86 -1.90694 0.435336 0
M  V30 6688 C 637.24 -1.8111 -1.08454 0
M  V30 6689 O 636.588 -1.23352 -1.92345 0
M  V30 6690 C 636.798 -3.36033 0.942472 0
M  V30 6691 C 638.146 -4.13083 0.982226 0
M  V30 6692 O 639.17 -3.4491 0.889686 0
M  V30 6693 O 638.029 -5.34896 1.12022 0
M  V30 6694 H 635.123 -0.815978 0.134567 0
M  V30 6695 H 637.669 -1.38367 0.982484 0
M  V30 6696 H 636.441 -3.37132 1.9864 0
M  V30 6697 H 636.064 -3.95828 0.374952 0
M  V30 6698 N 637.061 -0.65484 -1.43351 0
M  V30 6699 C 638.472 -0.248506 -1.85039 0
M  V30 6700 C 638.823 1.20526 -1.54816 0
M  V30 6701 O 637.948 1.92016 -0.99794 0
M  V30 6702 C 638.543 -0.444241 -3.35875 0
M  V30 6703 C 637.102 -0.0922108 -3.76287 0
M  V30 6704 C 636.249 -0.746327 -2.67068 0
M  V30 6705 H 639.2 -0.8584 -1.33481 0
M  V30 6706 H 639.221 0.309762 -3.79237 0
M  V30 6707 H 638.733 -1.50239 -3.5784 0
M  V30 6708 H 636.834 0.96328 -3.59933 0
M  V30 6709 H 636.947 -0.518807 -4.76283 0
M  V30 6710 H 635.311 -0.179416 -2.54067 0
M  V30 6711 H 636.094 -1.80754 -2.91861 0
M  V30 6712 N 638.539 1.52521 -0.396863 0
M  V30 6713 C 639.472 2.23118 0.478926 0
M  V30 6714 C 640.45 1.23475 1.05796 0
M  V30 6715 O 641.634 1.52486 1.10817 0
M  V30 6716 C 638.761 2.95028 1.66362 0
M  V30 6717 C 637.807 4.09002 1.20913 0
M  V30 6718 S 638.64 5.35182 0.184407 0
M  V30 6719 C 639.796 6.10616 1.37471 0
M  V30 6720 H 640.029 2.97056 -0.120542 0
M  V30 6721 H 637.562 1.53334 -0.18109 0
M  V30 6722 H 639.52 3.37066 2.34301 0
M  V30 6723 H 638.181 2.20756 2.23441 0
M  V30 6724 H 637.374 4.58445 2.09389 0
M  V30 6725 H 636.976 3.69016 0.608559 0
M  V30 6726 H 639.268 6.37247 2.30048 0
M  V30 6727 H 640.211 7.02084 0.921051 0
M  V30 6728 H 640.619 5.41499 1.59495 0
M  V30 6729 N 640.017 0.126909 1.57088 0
M  V30 6730 C 641.266 -0.529024 1.94639 0
M  V30 6731 C 641.579 -1.67323 1.01304 0
M  V30 6732 O 642.785 -2.39245 1.28352 0
M  V30 6733 C 641.241 -0.992483 3.45945 0
M  V30 6734 C 640.849 0.123691 4.47829 0
M  V30 6735 C 642.593 -1.61934 3.924 0
M  V30 6736 C 640.5 -0.356911 5.90322 0
M  V30 6737 H 639.43 -0.201397 0.726605 0
M  V30 6738 H 642.081 0.208032 1.82317 0
M  V30 6739 H 640.463 -1.7842 3.53528 0
M  V30 6740 H 641.637 0.900168 4.51922 0
M  V30 6741 H 639.952 0.657699 4.11173 0
M  V30 6742 H 642.549 -1.9902 4.96281 0
M  V30 6743 H 642.892 -2.50075 3.32819 0
M  V30 6744 H 643.425 -0.892894 3.8765 0
M  V30 6745 H 640.164 0.488636 6.53676 0
M  V30 6746 H 639.684 -1.0997 5.89633 0
M  V30 6747 H 641.363 -0.815547 6.41839 0
M  V30 6748 N 641.495 -1.56914 -0.146875 0
M  V30 6749 C 642.458 -1.97368 -1.16526 0
M  V30 6750 C 643.458 -0.860223 -1.35856 0
M  V30 6751 O 644.648 -1.12684 -1.32846 0
M  V30 6752 C 641.78 -2.28974 -2.52555 0
M  V30 6753 H 642.973 -2.88523 -0.818209 0
M  V30 6754 H 640.526 -1.5135 -0.390221 0
M  V30 6755 H 641.261 -1.40611 -2.92231 0
M  V30 6756 H 641.046 -3.10157 -2.39886 0
M  V30 6757 H 642.536 -2.61109 -3.25902 0
M  V30 6758 N 642.974 0.416227 -1.52004 0
M  V30 6759 C 643.921 1.50666 -1.74838 0
M  V30 6760 C 644.891 1.55245 -0.590599 0
M  V30 6761 O 646.076 1.71928 -0.827374 0
M  V30 6762 C 643.216 2.88185 -1.89851 0
M  V30 6763 C 642.329 2.92971 -3.17478 0
M  V30 6764 C 641.464 4.21745 -3.22962 0
M  V30 6765 C 640.503 4.20478 -4.4482 0
M  V30 6766 N 639.64 5.40811 -4.47736 0
M  V30 6767 H 644.48 1.30498 -2.67907 0
M  V30 6768 H 642.017 0.633568 -1.32757 0
M  V30 6769 H 643.975 3.68007 -1.96537 0
M  V30 6770 H 642.605 3.06865 -1.00169 0
M  V30 6771 H 641.657 2.05684 -3.19997 0
M  V30 6772 H 642.969 2.87899 -4.07328 0
M  V30 6773 H 642.123 5.09954 -3.28682 0
M  V30 6774 H 640.862 4.29503 -2.31038 0
M  V30 6775 H 639.867 3.30659 -4.39254 0
M  V30 6776 H 641.092 4.14366 -5.38031 0
M  V30 6777 H 639.038 5.4925 -3.58692 0
M  V30 6778 H 638.955 5.37705 -5.31422 0
M  V30 6779 H 640.223 6.30993 -4.57676 0
M  V30 6780 N 644.452 1.42507 0.673017 0
M  V30 6781 C 645.382 1.48916 1.79851 0
M  V30 6782 C 646.363 0.345566 1.66553 0
M  V30 6783 O 647.548 0.560116 1.85947 0
M  V30 6784 C 644.678 1.39258 3.18158 0
M  V30 6785 C 643.632 2.51662 3.46194 0
M  V30 6786 C 642.958 2.27062 4.84094 0
M  V30 6787 C 644.258 3.93968 3.42909 0
M  V30 6788 H 645.952 2.43114 1.74745 0
M  V30 6789 H 643.498 1.17013 0.839288 0
M  V30 6790 H 645.451 1.42349 3.96629 0
M  V30 6791 H 644.175 0.415542 3.23946 0
M  V30 6792 H 642.834 2.47891 2.70084 0
M  V30 6793 H 642.482 1.27648 4.86534 0
M  V30 6794 H 642.182 3.02398 5.03815 0
M  V30 6795 H 643.706 2.31905 5.64847 0
M  V30 6796 H 645.12 3.99332 4.11347 0
M  V30 6797 H 643.517 4.6917 3.74165 0
M  V30 6798 H 644.587 4.20512 2.41449 0
M  V30 6799 N 645.93 -0.909495 1.28709 0
M  V30 6800 C 647.176 -1.66151 1.16283 0
M  V30 6801 C 647.509 -1.92067 -0.287069 0
M  V30 6802 O 646.784 -1.52409 -1.20837 0
M  V30 6803 C 647.067 -3.01676 1.9663 0
M  V30 6804 C 646.92 -2.82888 3.49707 0
M  V30 6805 C 648.239 -4.02274 1.78504 0
M  V30 6806 H 645.358 -0.602966 0.423793 0
M  V30 6807 H 648 -1.05418 1.58073 0
M  V30 6808 H 646.15 -3.53515 1.61119 0
M  V30 6809 H 647.822 -2.38026 3.95147 0
M  V30 6810 H 646.065 -2.17862 3.75125 0
M  V30 6811 H 646.736 -3.79147 4.01187 0
M  V30 6812 H 649.212 -3.59511 2.09503 0
M  V30 6813 H 648.088 -4.95056 2.37088 0
M  V30 6814 H 648.349 -4.35903 0.737647 0
M  V30 6815 N 647.408 -1.11026 -1.11852 0
M  V30 6816 C 648.654 -0.857729 -1.83768 0
M  V30 6817 C 648.987 0.615143 -1.842 0
M  V30 6818 O 648.262 1.45391 -1.29196 0
M  V30 6819 C 648.545 -1.41453 -3.31154 0
M  V30 6820 C 648.398 -2.95471 -3.39142 0
M  V30 6821 C 649.717 -1.0619 -4.27097 0
M  V30 6822 H 646.836 -0.313044 -0.667212 0
M  V30 6823 H 649.478 -1.37443 -1.31185 0
M  V30 6824 H 647.628 -0.975052 -3.76065 0
M  V30 6825 H 649.3 -3.4799 -3.02821 0
M  V30 6826 H 647.543 -3.31759 -2.79497 0
M  V30 6827 H 648.214 -3.29515 -4.42859 0
M  V30 6828 H 650.69 -1.44122 -3.90344 0
M  V30 6829 H 649.566 -1.47832 -5.28618 0
M  V30 6830 H 649.827 0.0278912 -4.42091 0
M  V30 6831 N 648.886 1.2938 -0.899927 0
M  V30 6832 C 650.132 1.96206 -0.536153 0
M  V30 6833 C 650.487 1.69647 0.90761 0
M  V30 6834 O 649.78 0.999089 1.63489 0
M  V30 6835 C 649.974 3.49114 -0.765113 0
M  V30 6836 C 649.803 3.90538 -2.22958 0
M  V30 6837 C 648.573 4.15395 -2.87706 0
M  V30 6838 C 650.771 4.0224 -3.20479 0
M  V30 6839 N 648.753 4.43389 -4.24593 0
M  V30 6840 C 650.124 4.34288 -4.42486 0
M  V30 6841 C 652.179 3.84716 -3.16066 0
M  V30 6842 C 650.882 4.50638 -5.6064 0
M  V30 6843 C 652.908 4.02276 -4.33507 0
M  V30 6844 C 652.27 4.34684 -5.54283 0
M  V30 6845 H 648.369 0.742364 -0.245804 0
M  V30 6846 H 650.953 1.56314 -1.16078 0
M  V30 6847 H 649.124 3.88028 -0.169861 0
M  V30 6848 H 650.856 4.03035 -0.366751 0
M  V30 6849 H 647.611 4.09164 -2.385 0
M  V30 6850 H 648.035 4.61494 -4.95331 0
M  V30 6851 H 652.677 3.58724 -2.23778 0
M  V30 6852 H 650.395 4.75467 -6.5342 0
M  V30 6853 H 653.981 3.90169 -4.31578 0
M  V30 6854 H 652.861 4.47988 -6.43643 0
M  V30 6855 N 650.364 0.662433 1.43002 0
M  V30 6856 C 651.327 -0.0142016 2.29196 0
M  V30 6857 C 652.327 -0.741394 1.42688 0
M  V30 6858 O 653.517 -0.581257 1.64216 0
M  V30 6859 C 650.649 -1.03084 3.24941 0
M  V30 6860 H 651.842 0.7443 2.90517 0
M  V30 6861 H 649.395 0.424133 1.50435 0
M  V30 6862 H 650.13 -1.81826 2.68533 0
M  V30 6863 H 649.915 -0.512946 3.8873 0
M  V30 6864 H 651.405 -1.50308 3.89612 0
M  V30 6865 N 651.842 -1.52309 0.404946 0
M  V30 6866 C 652.805 -2.25491 -0.410651 0
M  V30 6867 C 653.805 -1.27704 -0.977154 0
M  V30 6868 O 654.995 -1.51679 -0.856691 0
M  V30 6869 C 652.127 -3.02197 -1.57765 0
M  V30 6870 H 653.32 -2.99015 0.230277 0
M  V30 6871 H 650.873 -1.55506 0.157377 0
M  V30 6872 H 651.608 -2.33013 -2.25556 0
M  V30 6873 H 651.393 -3.73987 -1.17797 0
M  V30 6874 H 652.883 -3.57719 -2.15469 0
M  V30 6875 N 653.32 -0.135238 -1.57019 0
M  V30 6876 C 654.597 0.563227 -1.87316 0
M  V30 6877 C 654.977 1.83749 -1.03921 0
M  V30 6878 O 654.325 2.2817 -0.122675 0
M  V30 6879 C 654.535 0.840031 -3.3874 0
M  V30 6880 C 655.883 1.18598 -4.077 0
M  V30 6881 O 656.907 0.92977 -3.43851 0
M  V30 6882 O 655.766 1.66758 -5.20436 0
M  V30 6883 H 652.86 0.285971 -0.775983 0
M  V30 6884 H 655.406 -0.170965 -1.68837 0
M  V30 6885 H 654.178 -0.0622785 -3.9125 0
M  V30 6886 H 653.801 1.62882 -3.62706 0
M  V30 6887 N 654.798 1.5699 0.138552 0
M  V30 6888 C 656.214 1.51844 0.491472 0
M  V30 6889 C 656.414 0.845063 1.82923 0
M  V30 6890 O 655.47 0.419143 2.48997 0
M  V30 6891 C 656.783 2.96615 0.493987 0
M  V30 6892 C 658.331 3.076 0.578913 0
M  V30 6893 C 658.806 4.53893 0.612009 0
M  V30 6894 N 660.297 4.5827 0.673997 0
M  V30 6895 C 661.032 5.68852 0.720729 0
M  V30 6896 N 660.528 6.88982 0.726292 0
M  V30 6897 N 662.321 5.56908 0.762253 0
M  V30 6898 H 654.472 1.99158 -0.738228 0
M  V30 6899 H 656.735 0.908693 -0.270149 0
M  V30 6900 H 656.441 3.49172 -0.420933 0
M  V30 6901 H 656.315 3.53017 1.32887 0
M  V30 6902 H 658.702 2.55057 1.48425 0
M  V30 6903 H 658.783 2.54227 -0.283286 0
M  V30 6904 H 658.427 5.07076 -0.289208 0
M  V30 6905 H 658.357 5.05057 1.49082 0
M  V30 6906 H 660.848 3.71793 0.676654 0
M  V30 6907 H 661.161 7.69014 0.764032 0
M  V30 6908 H 659.506 6.91526 0.69403 0
M  V30 6909 H 662.697 4.61969 0.755135 0
M  V30 6910 H 662.87 6.43102 0.795207 0
M  V30 6911 N 656.276 -0.40816 1.52223 0
M  V30 6912 C 657.208 -1.51642 1.71864 0
M  V30 6913 C 658.221 -1.51378 0.599056 0
M  V30 6914 O 659.41 -1.55626 0.874239 0
M  V30 6915 C 656.51 -2.90534 1.74481 0
M  V30 6916 C 655.683 -3.14979 3.03491 0
M  V30 6917 C 654.742 -4.33749 2.97907 0
M  V30 6918 O 653.768 -4.30982 3.71811 0
M  V30 6919 N 654.97 -5.38912 2.15764 0
M  V30 6920 H 657.735 -1.35188 2.67478 0
M  V30 6921 H 655.296 -0.597468 1.50472 0
M  V30 6922 H 657.288 -3.68056 1.68275 0
M  V30 6923 H 655.858 -3.00441 0.863363 0
M  V30 6924 H 655.078 -2.25492 3.23337 0
M  V30 6925 H 656.366 -3.28156 3.88833 0
M  V30 6926 H 655.764 -5.44008 1.55152 0
M  V30 6927 H 654.321 -6.15174 2.15415 0
M  V30 6928 N 657.755 -1.42862 -0.66545 0
M  V30 6929 C 658.718 -1.46756 -1.76055 0
M  V30 6930 C 659.718 -0.353866 -1.56858 0
M  V30 6931 O 660.908 -0.615099 -1.62979 0
M  V30 6932 C 658.04 -1.30829 -3.14796 0
M  V30 6933 H 659.233 -2.44271 -1.73987 0
M  V30 6934 H 656.786 -1.29447 -0.875965 0
M  V30 6935 H 657.521 -0.342733 -3.22484 0
M  V30 6936 H 657.306 -2.11551 -3.30134 0
M  V30 6937 H 658.796 -1.36458 -3.94676 0
M  V30 6938 N 659.233 0.902656 -1.29189 0
M  V30 6939 C 660.196 1.98797 -1.14071 0
M  V30 6940 C 661.196 1.60615 -0.0770549 0
M  V30 6941 O 662.386 1.71165 -0.323753 0
M  V30 6942 C 659.518 3.32688 -0.743739 0
M  V30 6943 H 660.711 2.13637 -2.10473 0
M  V30 6944 H 658.264 1.08678 -1.12334 0
M  V30 6945 H 658.999 3.23549 0.220554 0
M  V30 6946 H 658.784 3.61765 -1.51223 0
M  V30 6947 H 660.274 4.12337 -0.660935 0
M  V30 6948 N 660.711 1.11618 1.11262 0
M  V30 6949 C 661.641 0.79846 2.19424 0
M  V30 6950 C 662.622 -0.234003 1.68483 0
M  V30 6951 O 663.807 -0.0970704 1.93957 0
M  V30 6952 C 660.937 0.242892 3.4645 0
M  V30 6953 C 659.891 1.20744 4.10615 0
M  V30 6954 C 659.217 0.512494 5.32238 0
M  V30 6955 C 660.517 2.55884 4.55325 0
M  V30 6956 H 662.211 1.70286 2.46258 0
M  V30 6957 H 659.757 0.820195 1.18359 0
M  V30 6958 H 661.71 0.00840447 4.21399 0
M  V30 6959 H 660.434 -0.696811 3.1908 0
M  V30 6960 H 659.093 1.42759 3.37662 0
M  V30 6961 H 658.741 -0.432075 5.01141 0
M  V30 6962 H 658.441 1.15583 5.7612 0
M  V30 6963 H 659.965 0.286842 6.09926 0
M  V30 6964 H 661.379 2.37946 5.21588 0
M  V30 6965 H 659.776 3.16216 5.10027 0
M  V30 6966 H 660.846 3.14968 3.68678 0
M  V30 6967 N 662.189 -1.289 0.906776 0
M  V30 6968 C 663.417 -1.99401 0.551969 0
M  V30 6969 C 663.832 -1.67816 -0.865048 0
M  V30 6970 O 663.189 -0.927078 -1.57199 0
M  V30 6971 C 663.24 -3.53779 0.743152 0
M  V30 6972 O 662.961 -3.84248 2.1044 0
M  V30 6973 C 664.462 -4.41543 0.39424 0
M  V30 6974 H 661.682 -0.636926 0.211106 0
M  V30 6975 H 664.226 -1.64266 1.21807 0
M  V30 6976 H 662.381 -3.87201 0.124143 0
M  V30 6977 H 662.795 -4.78904 2.13895 0
M  V30 6978 H 664.269 -5.48957 0.578814 0
M  V30 6979 H 664.746 -4.34073 -0.669137 0
M  V30 6980 H 665.352 -4.13605 0.990491 0
M  V30 6981 N 663.667 -0.670007 -1.42649 0
M  V30 6982 C 664.614 0.0112928 -2.30797 0
M  V30 6983 C 665.584 0.797627 -1.45695 0
M  V30 6984 O 666.769 0.770845 -1.74535 0
M  V30 6985 C 663.909 0.95998 -3.31479 0
M  V30 6986 C 663.022 0.167975 -4.31673 0
M  V30 6987 C 662.157 1.11198 -5.19431 0
M  V30 6988 C 661.196 0.311381 -6.11307 0
M  V30 6989 N 660.333 1.20784 -6.91633 0
M  V30 6990 H 665.173 -0.746231 -2.88505 0
M  V30 6991 H 662.71 -0.379739 -1.42114 0
M  V30 6992 H 664.668 1.52379 -3.88377 0
M  V30 6993 H 663.298 1.68419 -2.75382 0
M  V30 6994 H 662.35 -0.512385 -3.76933 0
M  V30 6995 H 663.662 -0.453814 -4.96731 0
M  V30 6996 H 662.816 1.74587 -5.81037 0
M  V30 6997 H 661.555 1.76766 -4.54538 0
M  V30 6998 H 660.56 -0.335758 -5.48774 0
M  V30 6999 H 661.785 -0.340135 -6.78248 0
M  V30 7000 H 659.731 1.85001 -6.29373 0
M  V30 7001 H 659.648 0.64102 -7.53277 0
M  V30 7002 H 660.916 1.82936 -7.5773 0
M  V30 7003 N 665.145 1.52092 -0.413018 0
M  V30 7004 C 666.075 2.30021 0.401567 0
M  V30 7005 C 667.056 1.34395 1.04269 0
M  V30 7006 O 668.241 1.63304 1.05097 0
M  V30 7007 C 665.371 3.12447 1.51638 0
M  V30 7008 C 664.325 4.16153 1.00005 0
M  V30 7009 C 663.651 4.86948 2.20875 0
M  V30 7010 C 664.951 5.22275 0.0513757 0
M  V30 7011 H 666.645 2.98365 -0.248704 0
M  V30 7012 H 664.191 1.4349 -0.121052 0
M  V30 7013 H 666.144 3.65733 2.09326 0
M  V30 7014 H 664.868 2.41879 2.19458 0
M  V30 7015 H 663.527 3.63882 0.445549 0
M  V30 7016 H 663.175 4.12905 2.8726 0
M  V30 7017 H 662.875 5.57057 1.86978 0
M  V30 7018 H 664.399 5.43048 2.79162 0
M  V30 7019 H 665.813 5.70778 0.537176 0
M  V30 7020 H 664.21 5.9977 -0.198977 0
M  V30 7021 H 665.28 4.76611 -0.892736 0
M  V30 7022 N 666.623 0.143563 1.56945 0
M  V30 7023 C 668.039 -0.212877 1.58174 0
M  V30 7024 C 668.239 -1.64926 1.15766 0
M  V30 7025 O 667.295 -2.37535 0.856361 0
M  V30 7026 C 668.608 0.0427573 3.0067 0
M  V30 7027 C 670.156 -0.0212221 3.12993 0
M  V30 7028 C 670.631 0.207036 4.57532 0
M  V30 7029 N 672.122 0.153845 4.62944 0
M  V30 7030 C 672.857 0.305018 5.72588 0
M  V30 7031 N 672.353 0.513722 6.90893 0
M  V30 7032 N 674.146 0.242862 5.61575 0
M  V30 7033 H 666.297 1.08148 1.82805 0
M  V30 7034 H 668.56 0.427831 0.84597 0
M  V30 7035 H 668.266 1.03672 3.36073 0
M  V30 7036 H 668.14 -0.678195 3.71053 0
M  V30 7037 H 670.527 -1.00574 2.77433 0
M  V30 7038 H 670.608 0.732004 2.45103 0
M  V30 7039 H 670.252 1.18863 4.93795 0
M  V30 7040 H 670.182 -0.566473 5.23544 0
M  V30 7041 H 672.673 -0.00294866 3.779 0
M  V30 7042 H 672.986 0.619273 7.70315 0
M  V30 7043 H 671.331 0.550001 6.9282 0
M  V30 7044 H 674.522 0.0806015 4.68031 0
M  V30 7045 H 674.695 0.364112 6.46976 0
M  V30 7046 N 668.101 -1.57061 -0.130224 0
M  V30 7047 C 669.331 -1.88159 -0.853217 0
M  V30 7048 C 669.739 -0.731675 -1.7448 0
M  V30 7049 O 669.082 0.307035 -1.81116 0
M  V30 7050 C 669.144 -3.1415 -1.74785 0
M  V30 7051 C 668.808 -4.45202 -1.03173 0
M  V30 7052 C 669.805 -5.18526 -0.377759 0
M  V30 7053 C 667.49 -4.91912 -1.01624 0
M  V30 7054 C 669.484 -6.36775 0.282123 0
M  V30 7055 C 667.171 -6.10082 -0.352555 0
M  V30 7056 C 668.169 -6.82361 0.295483 0
M  V30 7057 O 667.857 -7.98284 0.948606 0
M  V30 7058 H 667.589 -0.627596 -0.251197 0
M  V30 7059 H 670.143 -2.05034 -0.1226 0
M  V30 7060 H 668.373 -2.93328 -2.51983 0
M  V30 7061 H 670.062 -3.31359 -2.34427 0
M  V30 7062 H 670.828 -4.83498 -0.381417 0
M  V30 7063 H 666.707 -4.35566 -1.51007 0
M  V30 7064 H 670.251 -6.93129 0.788525 0
M  V30 7065 H 666.148 -6.44569 -0.346621 0
M  V30 7066 H 666.916 -8.14054 0.851954 0
M  V30 7067 N 669.579 0.400081 -1.52437 0
M  V30 7068 C 670.804 1.17221 -1.71096 0
M  V30 7069 C 671.229 1.83269 -0.423565 0
M  V30 7070 O 670.587 1.70378 0.619751 0
M  V30 7071 C 670.635 2.20425 -2.85386 0
M  V30 7072 O 669.739 3.26769 -2.51586 0
M  V30 7073 H 669.08 0.341766 -0.569291 0
M  V30 7074 H 671.61 0.467772 -1.99181 0
M  V30 7075 H 671.62 2.64605 -3.10561 0
M  V30 7076 H 670.295 1.71737 -3.78786 0
M  V30 7077 H 668.872 2.87804 -2.37114 0
M  V30 7078 N 671.057 1.43213 0.657864 0
M  V30 7079 C 671.987 1.50815 1.78262 0
M  V30 7080 C 672.968 0.363211 1.66177 0
M  V30 7081 O 674.153 0.579806 1.85343 0
M  V30 7082 C 671.283 1.42625 3.16663 0
M  V30 7083 C 670.237 2.5532 3.43505 0
M  V30 7084 C 669.563 2.32184 4.81658 0
M  V30 7085 C 670.863 3.97583 3.38711 0
M  V30 7086 H 672.557 2.44954 1.72157 0
M  V30 7087 H 670.103 1.17896 0.82683 0
M  V30 7088 H 672.056 1.46548 3.95097 0
M  V30 7089 H 670.78 0.449877 3.23487 0
M  V30 7090 H 669.439 2.50742 2.6744 0
M  V30 7091 H 669.087 1.32801 4.85153 0
M  V30 7092 H 668.787 3.07724 5.00579 0
M  V30 7093 H 670.311 2.37883 5.62356 0
M  V30 7094 H 671.725 4.03673 4.07089 0
M  V30 7095 H 670.122 4.73112 3.69168 0
M  V30 7096 H 671.192 4.23049 2.36976 0
M  V30 7097 N 672.536 -0.895792 1.29666 0
M  V30 7098 C 673.952 -1.17726 1.07763 0
M  V30 7099 C 674.152 -2.00794 -0.168576 0
M  V30 7100 O 673.208 -2.37213 -0.865244 0
M  V30 7101 C 674.521 -1.89441 2.33522 0
M  V30 7102 C 676.069 -2.02251 2.3888 0
M  V30 7103 C 676.544 -2.77378 3.64452 0
M  V30 7104 N 678.035 -2.8493 3.65198 0
M  V30 7105 C 678.77 -3.43606 4.59045 0
M  V30 7106 N 678.266 -4.03417 5.63228 0
M  V30 7107 N 680.059 -3.41317 4.46608 0
M  V30 7108 H 672.21 -0.341652 2.09634 0
M  V30 7109 H 674.473 -0.213865 0.923561 0
M  V30 7110 H 674.179 -1.35842 3.24407 0
M  V30 7111 H 674.053 -2.89893 2.41334 0
M  V30 7112 H 676.44 -2.55025 1.4848 0
M  V30 7113 H 676.521 -1.0092 2.3505 0
M  V30 7114 H 676.165 -2.25279 4.55205 0
M  V30 7115 H 676.095 -3.79062 3.65541 0
M  V30 7116 H 678.586 -2.42453 2.89871 0
M  V30 7117 H 678.899 -4.46224 6.30955 0
M  V30 7118 H 677.244 -4.01868 5.67033 0
M  V30 7119 H 680.435 -2.93812 3.64407 0
M  V30 7120 H 680.608 -3.86751 5.1993 0
M  V30 7121 N 674.014 -1.12206 -1.10668 0
M  V30 7122 C 674.946 -0.74552 -2.16736 0
M  V30 7123 C 675.959 0.226696 -1.61214 0
M  V30 7124 O 677.148 0.0083936 -1.78498 0
M  V30 7125 C 674.248 -0.0823368 -3.388 0
M  V30 7126 C 673.421 -1.08341 -4.2377 0
M  V30 7127 C 672.48 -0.448292 -5.24287 0
M  V30 7128 O 671.506 -1.10458 -5.58379 0
M  V30 7129 N 672.708 0.785336 -5.75163 0
M  V30 7130 H 675.473 -1.65818 -2.49649 0
M  V30 7131 H 673.034 -1.01335 -1.26265 0
M  V30 7132 H 675.026 0.354476 -4.03145 0
M  V30 7133 H 673.596 0.733041 -3.03884 0
M  V30 7134 H 672.816 -1.69792 -3.55759 0
M  V30 7135 H 674.104 -1.76042 -4.77375 0
M  V30 7136 H 673.502 1.33755 -5.4966 0
M  V30 7137 H 672.059 1.16501 -6.41304 0
M  V30 7138 N 675.492 1.28418 -0.913599 0
M  V30 7139 C 676.722 1.98817 -0.56172 0
M  V30 7140 C 677.13 1.68457 0.861321 0
M  V30 7141 O 676.473 0.933653 1.58204 0
M  V30 7142 C 676.535 3.52801 -0.690785 0
M  V30 7143 C 676.199 4.0675 -2.08334 0
M  V30 7144 C 677.196 4.20597 -3.05604 0
M  V30 7145 C 674.881 4.41445 -2.39648 0
M  V30 7146 C 676.875 4.68392 -4.32305 0
M  V30 7147 C 674.562 4.88934 -3.66588 0
M  V30 7148 C 675.56 5.02364 -4.6273 0
M  V30 7149 O 675.248 5.48817 -5.87414 0
M  V30 7150 H 674.98 0.641608 -0.212874 0
M  V30 7151 H 677.534 1.64584 -1.22887 0
M  V30 7152 H 675.764 3.86686 0.0334336 0
M  V30 7153 H 677.453 4.04422 -0.346031 0
M  V30 7154 H 678.219 3.94067 -2.8273 0
M  V30 7155 H 674.098 4.30242 -1.65567 0
M  V30 7156 H 677.642 4.7879 -5.07352 0
M  V30 7157 H 673.539 5.14904 -3.89287 0
M  V30 7158 H 674.307 5.67103 -5.90201 0
M  V30 7159 N 676.97 0.677563 1.42291 0
M  V30 7160 C 677.918 -0.0106755 2.32598 0
M  V30 7161 C 678.912 -0.787643 1.49975 0
M  V30 7162 O 680.118 -0.695295 1.66029 0
M  V30 7163 H 676.493 -0.0222482 0.751671 0
M  V30 7164 H 678.464 0.768312 2.88339 0
M  V30 7165 C 677.213 -0.946142 3.3458 0
M  V30 7166 H 676.536 -0.357701 3.98197 0
M  V30 7167 H 677.976 -1.39634 4.00348 0
M  V30 7168 C 676.435 -2.05383 2.67057 0
M  V30 7169 O 676.965 -3.1406 2.50458 0
M  V30 7170 N 675.171 -1.82635 2.26038 0
M  V30 7171 H 674.718 -0.942534 2.39737 0
M  V30 7172 H 674.676 -2.56937 1.81192 0
M  V30 7173 N 678.448 -1.51871 0.421078 0
M  V30 7174 C 679.697 -2.01125 -0.152206 0
M  V30 7175 C 680.01 -1.3106 -1.45199 0
M  V30 7176 O 681.216 -1.71195 -2.10724 0
M  V30 7177 C 679.672 -3.58458 -0.3218 0
M  V30 7178 C 679.28 -4.37448 0.96659 0
M  V30 7179 C 681.024 -4.15908 -0.84973 0
M  V30 7180 C 678.931 -5.86451 0.763529 0
M  V30 7181 H 677.861 -0.751556 -0.0606565 0
M  V30 7182 H 680.512 -1.75115 0.548354 0
M  V30 7183 H 678.894 -3.80847 -1.08498 0
M  V30 7184 H 680.068 -4.26814 1.73684 0
M  V30 7185 H 678.383 -3.91373 1.42183 0
M  V30 7186 H 680.98 -5.24922 -1.01788 0
M  V30 7187 H 681.323 -3.74031 -1.82774 0
M  V30 7188 H 681.856 -3.97535 -0.145297 0
M  V30 7189 H 678.595 -6.3271 1.71344 0
M  V30 7190 H 678.115 -5.99791 0.0327889 0
M  V30 7191 H 679.794 -6.45697 0.410354 0
M  V30 7192 N 679.926 -0.151884 -1.56866 0
M  V30 7193 C 681.172 0.498742 -1.96572 0
M  V30 7194 C 681.505 1.64194 -1.03702 0
M  V30 7195 O 680.78 1.94334 -0.0803432 0
M  V30 7196 C 681.063 1.00027 -3.45929 0
M  V30 7197 C 680.916 -0.141767 -4.49577 0
M  V30 7198 C 682.235 1.88044 -3.97904 0
M  V30 7199 H 679.354 0.17982 -0.714726 0
M  V30 7200 H 681.996 -0.234097 -1.88552 0
M  V30 7201 H 680.146 1.62476 -3.52894 0
M  V30 7202 H 681.818 -0.778269 -4.54687 0
M  V30 7203 H 680.061 -0.80019 -4.26356 0
M  V30 7204 H 680.732 0.250947 -5.51429 0
M  V30 7205 H 683.208 1.35416 -3.93449 0
M  V30 7206 H 682.084 2.20043 -5.02864 0
M  V30 7207 H 682.345 2.81916 -3.40552 0
M  V30 7208 N 681.404 1.57128 0.121893 0
M  V30 7209 C 682.652 1.84335 0.828548 0
M  V30 7210 C 682.973 0.736632 1.80551 0
M  V30 7211 O 682.243 -0.23962 1.94429 0
M  V30 7212 H 680.823 0.680108 0.30897 0
M  V30 7213 H 683.485 1.9459 0.109906 0
M  V30 7214 H 682.581 2.80152 1.37554 0
M  V30 7215 N 682.882 -0.391992 1.52647 0
M  V30 7216 C 683.812 -1.48517 1.8018 0
M  V30 7217 C 684.793 -1.57039 0.653667 0
M  V30 7218 O 685.978 -1.72036 0.900962 0
M  V30 7219 C 683.108 -2.86161 1.96797 0
M  V30 7220 C 682.062 -2.92481 3.12472 0
M  V30 7221 C 681.388 -4.32546 3.14338 0
M  V30 7222 C 682.688 -2.624 4.51601 0
M  V30 7223 H 684.382 -1.25726 2.71723 0
M  V30 7224 H 681.928 -0.603387 1.30749 0
M  V30 7225 H 683.881 -3.62639 2.14641 0
M  V30 7226 H 682.605 -3.10283 1.01941 0
M  V30 7227 H 681.264 -2.18451 2.94406 0
M  V30 7228 H 680.912 -4.53703 2.1717 0
M  V30 7229 H 680.612 -4.37695 3.92042 0
M  V30 7230 H 682.136 -5.10934 3.34333 0
M  V30 7231 H 683.55 -3.28596 4.69785 0
M  V30 7232 H 681.947 -2.78903 5.3135 0
M  V30 7233 H 683.017 -1.57754 4.58521 0
M  V30 7234 N 684.36 -1.4356 -0.65026 0
M  V30 7235 C 685.31 -1.45392 -1.75628 0
M  V30 7236 C 686.294 -0.322006 -1.57645 0
M  V30 7237 O 687.486 -0.565996 -1.67707 0
M  V30 7238 C 684.615 -1.38254 -3.1423 0
M  V30 7239 C 683.701 -2.56487 -3.3775 0
M  V30 7240 N 684.092 -3.81824 -3.31729 0
M  V30 7241 C 682.39 -2.51274 -3.6848 0
M  V30 7242 C 683.091 -4.60497 -3.55412 0
M  V30 7243 N 682.067 -3.91274 -3.77367 0
M  V30 7244 H 685.869 -2.40167 -1.69402 0
M  V30 7245 H 683.383 -1.38254 -0.852037 0
M  V30 7246 H 685.38 -1.3765 -3.9352 0
M  V30 7247 H 684.04 -0.445019 -3.21636 0
M  V30 7248 H 685.051 -4.14069 -3.11074 0
M  V30 7249 H 681.728 -1.66223 -3.82983 0
M  V30 7250 H 683.118 -5.69518 -3.5651 0
M  V30 7251 N 685.838 0.888903 -1.30139 0
M  V30 7252 C 687.066 1.67358 -1.21651 0
M  V30 7253 C 687.481 1.87499 0.221246 0
M  V30 7254 O 686.838 1.41969 1.14677 0
M  V30 7255 C 686.889 3.05213 -1.93719 0
M  V30 7256 O 686.61 2.85984 -3.31881 0
M  V30 7257 C 688.111 3.9964 -1.9184 0
M  V30 7258 H 685.331 0.522365 -0.42116 0
M  V30 7259 H 687.875 1.11086 -1.71698 0
M  V30 7260 H 686.03 3.5823 -1.4748 0
M  V30 7261 H 686.444 3.73411 -3.68327 0
M  V30 7262 H 687.918 4.93749 -2.46811 0
M  V30 7263 H 688.395 4.29955 -0.896409 0
M  V30 7264 H 689.001 3.52558 -2.37872 0
M  V30 7265 N 687.317 1.12792 1.10072 0
M  V30 7266 C 688.265 0.794523 2.18609 0
M  V30 7267 C 689.259 -0.220271 1.67962 0
M  V30 7268 O 690.465 -0.0780938 1.79831 0
M  V30 7269 H 686.84 0.239123 0.712969 0
M  V30 7270 H 688.811 1.71823 2.43966 0
M  V30 7271 C 687.56 0.269548 3.46654 0
M  V30 7272 H 686.883 1.04171 3.8599 0
M  V30 7273 H 688.323 0.0746242 4.23934 0
M  V30 7274 C 686.782 -1.00333 3.21613 0
M  V30 7275 O 687.312 -2.08042 3.4363 0
M  V30 7276 N 685.518 -0.931763 2.75257 0
M  V30 7277 H 685.065 -0.0551197 2.57541 0
M  V30 7278 H 685.023 -1.78405 2.58881 0
M  V30 7279 N 688.795 -1.27931 0.920396 0
M  V30 7280 C 690.044 -1.93975 0.552867 0
M  V30 7281 C 690.357 -1.73193 -0.909035 0
M  V30 7282 O 691.563 -2.33515 -1.38502 0
M  V30 7283 C 690.019 -3.47463 0.937947 0
M  V30 7284 C 689.627 -3.77013 2.42003 0
M  V30 7285 C 691.371 -4.19628 0.64132 0
M  V30 7286 C 689.278 -5.23841 2.74489 0
M  V30 7287 H 688.208 -0.726146 0.203046 0
M  V30 7288 H 690.859 -1.45339 1.12022 0
M  V30 7289 H 689.241 -3.94867 0.299317 0
M  V30 7290 H 690.415 -3.40393 3.10595 0
M  V30 7291 H 688.73 -3.18035 2.6878 0
M  V30 7292 H 691.327 -5.27729 0.860622 0
M  V30 7293 H 691.67 -4.14164 -0.421168 0
M  V30 7294 H 692.203 -3.78022 1.23872 0
M  V30 7295 H 688.942 -5.34388 3.79618 0
M  V30 7296 H 688.462 -5.61634 2.1054 0
M  V30 7297 H 690.141 -5.91647 2.61845 0
M  V30 7298 N 690.273 -0.685099 -1.4193 0
M  V30 7299 C 691.55 -0.140152 -1.95097 0
M  V30 7300 C 691.93 1.34745 -1.62502 0
M  V30 7301 O 691.278 2.08872 -0.926534 0
M  V30 7302 C 691.488 -0.420268 -3.4646 0
M  V30 7303 C 692.836 -0.342338 -4.23218 0
M  V30 7304 O 693.86 -0.354592 -3.54431 0
M  V30 7305 O 692.719 -0.293404 -5.45712 0
M  V30 7306 H 689.813 -0.00885998 -0.826953 0
M  V30 7307 H 692.359 -0.760539 -1.51703 0
M  V30 7308 H 691.131 -1.45037 -3.63428 0
M  V30 7309 H 690.754 0.231616 -3.96925 0
M  V30 7310 N 691.751 1.51645 -0.429126 0
M  V30 7311 C 692.998 2.02015 0.140079 0
M  V30 7312 C 693.326 1.31374 1.43427 0
M  V30 7313 O 692.581 0.414779 1.91254 0
M  V30 7314 C 692.88 3.54989 0.414472 0
M  V30 7315 C 692.546 4.43874 -0.792911 0
M  V30 7316 C 691.208 4.67887 -1.12404 0
M  V30 7317 C 693.56 4.96074 -1.59875 0
M  V30 7318 C 690.888 5.41348 -2.26184 0
M  V30 7319 C 693.24 5.70782 -2.72747 0
M  V30 7320 C 691.904 5.93062 -3.06324 0
M  V30 7321 H 691.174 0.739225 0.0512585 0
M  V30 7322 H 693.821 1.82675 -0.574641 0
M  V30 7323 H 692.126 3.72615 1.21099 0
M  V30 7324 H 693.823 3.91489 0.868173 0
M  V30 7325 H 690.413 4.25374 -0.524871 0
M  V30 7326 H 694.597 4.77412 -1.35614 0
M  V30 7327 H 689.853 5.56815 -2.52522 0
M  V30 7328 H 694.027 6.10221 -3.35564 0
M  V30 7329 H 691.654 6.49764 -3.94602 0
M  V30 7330 N 693.229 0.160201 1.56784 0
M  V30 7331 C 694.159 -0.770264 2.2043 0
M  V30 7332 C 695.14 -1.24736 1.15651 0
M  V30 7333 O 696.325 -1.30253 1.44041 0
M  V30 7334 C 693.455 -2.00427 2.83631 0
M  V30 7335 C 692.409 -1.66345 3.94352 0
M  V30 7336 C 691.735 -2.97119 4.4455 0
M  V30 7337 C 693.035 -0.899972 5.14488 0
M  V30 7338 H 694.729 -0.239783 2.98438 0
M  V30 7339 H 692.275 -0.113891 1.43549 0
M  V30 7340 H 694.228 -2.66012 3.26827 0
M  V30 7341 H 692.952 -2.5587 2.02973 0
M  V30 7342 H 691.611 -1.03133 3.51794 0
M  V30 7343 H 691.259 -3.5058 3.60698 0
M  V30 7344 H 690.959 -2.75073 5.19238 0
M  V30 7345 H 692.483 -3.63753 4.90425 0
M  V30 7346 H 693.897 -1.45818 5.54446 0
M  V30 7347 H 692.294 -0.778968 5.95023 0
M  V30 7348 H 693.364 0.105827 4.84785 0
M  V30 7349 N 694.707 -1.5719 -0.113559 0
M  V30 7350 C 695.637 -2.03772 -1.14013 0
M  V30 7351 C 696.618 -0.923176 -1.42869 0
M  V30 7352 O 697.803 -1.19325 -1.53216 0
M  V30 7353 C 694.933 -2.44663 -2.4649 0
M  V30 7354 C 693.887 -3.59612 -2.32085 0
M  V30 7355 C 693.213 -3.8642 -3.69573 0
M  V30 7356 C 694.513 -4.91149 -1.7768 0
M  V30 7357 H 696.207 -2.89785 -0.752665 0
M  V30 7358 H 693.753 -1.39412 -0.360609 0
M  V30 7359 H 695.706 -2.75857 -3.18561 0
M  V30 7360 H 694.43 -1.55628 -2.87137 0
M  V30 7361 H 693.089 -3.28636 -1.62461 0
M  V30 7362 H 692.737 -2.94581 -4.07715 0
M  V30 7363 H 692.437 -4.63797 -3.60786 0
M  V30 7364 H 693.961 -4.2007 -4.4314 0
M  V30 7365 H 695.375 -5.20843 -2.39574 0
M  V30 7366 H 693.772 -5.72562 -1.79701 0
M  V30 7367 H 694.842 -4.79301 -0.734776 0
M  V30 7368 N 696.185 0.383891 -1.52853 0
M  V30 7369 C 697.133 1.48965 -1.7864 0
M  V30 7370 C 698.127 1.56242 -0.654577 0
M  V30 7371 O 699.333 1.59347 -0.83716 0
M  V30 7372 H 695.708 0.495892 -0.565328 0
M  V30 7373 H 697.679 1.24411 -2.71228 0
M  V30 7374 C 696.428 2.86036 -1.97683 0
M  V30 7375 H 695.751 2.81188 -2.84206 0
M  V30 7376 H 697.191 3.62632 -2.19713 0
M  V30 7377 C 695.65 3.28428 -0.750776 0
M  V30 7378 O 696.18 4.0164 0.0693491 0
M  V30 7379 N 694.386 2.84765 -0.579427 0
M  V30 7380 H 693.933 2.25353 -1.24795 0
M  V30 7381 H 693.891 3.13486 0.239544 0
M  V30 7382 N 697.663 1.43903 0.642637 0
M  V30 7383 C 698.593 1.52697 1.76652 0
M  V30 7384 C 699.574 0.380816 1.65782 0
M  V30 7385 O 700.759 0.599432 1.84717 0
M  V30 7386 C 697.889 1.45975 3.15133 0
M  V30 7387 C 696.843 2.58949 3.40778 0
M  V30 7388 C 696.169 2.37279 4.79169 0
M  V30 7389 C 697.469 4.01153 3.34475 0
M  V30 7390 H 699.163 2.46766 1.69549 0
M  V30 7391 H 696.709 1.18767 0.814279 0
M  V30 7392 H 698.662 1.5073 3.93521 0
M  V30 7393 H 697.386 0.484162 3.22991 0
M  V30 7394 H 696.045 2.53564 2.64765 0
M  V30 7395 H 695.693 1.37939 4.83717 0
M  V30 7396 H 695.393 3.13016 4.97287 0
M  V30 7397 H 696.917 2.43834 5.59801 0
M  V30 7398 H 698.331 4.07968 4.02784 0
M  V30 7399 H 696.728 4.77001 3.64129 0
M  V30 7400 H 697.798 4.25539 2.32475 0
M  V30 7401 N 699.141 -0.881989 1.30609 0
M  V30 7402 C 700.366 -1.67236 1.22665 0
M  V30 7403 C 700.791 -1.8696 -0.206777 0
M  V30 7404 O 700.149 -1.4027 -1.14865 0
M  V30 7405 C 700.197 -3.02446 1.96363 0
M  V30 7406 O 699.301 -3.91614 1.29276 0
M  V30 7407 H 698.642 -0.510902 0.424117 0
M  V30 7408 H 701.172 -1.10055 1.72479 0
M  V30 7409 H 701.182 -3.52468 2.055 0
M  V30 7410 H 699.857 -2.8741 3.00613 0
M  V30 7411 H 698.434 -3.50055 1.28514 0
M  V30 7412 N 700.619 -1.13374 -1.09472 0
M  V30 7413 C 701.867 -0.893422 -1.8128 0
M  V30 7414 C 702.188 0.582029 -1.86111 0
M  V30 7415 O 701.458 1.42305 -1.34633 0
M  V30 7416 H 700.038 -0.327543 -0.67136 0
M  V30 7417 H 702.7 -1.43018 -1.32408 0
M  V30 7418 H 701.796 -1.28374 -2.84476 0
M  V30 7419 N 702.098 1.27442 -0.927168 0
M  V30 7420 C 703.048 2.24519 -0.396878 0
M  V30 7421 C 704.032 1.52981 0.498555 0
M  V30 7422 O 705.224 1.7378 0.336087 0
M  V30 7423 C 702.353 3.41514 0.349694 0
M  V30 7424 C 701.439 4.20357 -0.562226 0
M  V30 7425 N 701.83 4.7702 -1.68182 0
M  V30 7426 C 700.128 4.44503 -0.365135 0
M  V30 7427 C 700.829 5.36467 -2.24895 0
M  V30 7428 N 699.805 5.21371 -1.5386 0
M  V30 7429 H 703.607 2.65911 -1.25173 0
M  V30 7430 H 701.121 1.42366 -0.78138 0
M  V30 7431 H 703.118 4.10161 0.746536 0
M  V30 7432 H 701.778 3.01653 1.20148 0
M  V30 7433 H 702.789 4.74985 -2.06421 0
M  V30 7434 H 699.466 4.15111 0.446037 0
M  V30 7435 H 700.856 5.91264 -3.1915 0
M  V30 7436 N 703.576 0.692616 1.41565 0
M  V30 7437 C 704.987 0.297478 1.84315 0
M  V30 7438 C 705.338 -1.16379 1.57957 0
M  V30 7439 O 704.463 -1.89303 1.0485 0
M  V30 7440 C 705.058 0.533136 3.34579 0
M  V30 7441 C 703.617 0.191944 3.7591 0
M  V30 7442 C 702.764 0.816873 2.64995 0
M  V30 7443 H 705.715 0.893488 1.31158 0
M  V30 7444 H 705.736 -0.209105 3.79925 0
M  V30 7445 H 705.248 1.59674 3.53731 0
M  V30 7446 H 703.349 -0.867512 3.6236 0
M  V30 7447 H 703.462 0.644902 4.7474 0
M  V30 7448 H 701.826 0.246715 2.53502 0
M  V30 7449 H 702.609 1.88429 2.86966 0
M  V30 7450 N 705.054 -1.51416 0.437162 0
M  V30 7451 C 705.964 -2.31493 -0.380537 0
M  V30 7452 C 706.98 -1.40399 -1.02782 0
M  V30 7453 O 708.156 -1.73471 -1.02323 0
M  V30 7454 C 705.221 -3.1413 -1.46709 0
M  V30 7455 C 704.282 -4.21003 -0.839953 0
M  V30 7456 C 703.515 -4.9969 -1.87473 0
M  V30 7457 O 703.738 -4.79008 -3.09689 0
M  V30 7458 O 702.672 -5.8379 -1.46536 0
M  V30 7459 H 706.498 -3.02469 0.273183 0
M  V30 7460 H 704.083 -1.48059 0.199706 0
M  V30 7461 H 705.965 -3.65505 -2.09724 0
M  V30 7462 H 704.64 -2.45919 -2.10489 0
M  V30 7463 H 703.547 -3.73706 -0.171752 0
M  V30 7464 H 704.88 -4.91587 -0.245638 0
M  V30 7465 N 706.532 -0.168513 -1.56696 0
M  V30 7466 C 707.779 0.477158 -1.96798 0
M  V30 7467 C 708.107 1.63442 -1.05437 0
M  V30 7468 O 707.362 1.95503 -0.0878903 0
M  V30 7469 C 707.661 1.00441 -3.42996 0
M  V30 7470 C 707.327 -0.0366556 -4.50885 0
M  V30 7471 C 705.989 -0.322785 -4.80116 0
M  V30 7472 C 708.341 -0.743447 -5.1587 0
M  V30 7473 C 705.669 -1.32114 -5.71632 0
M  V30 7474 C 708.021 -1.73077 -6.08463 0
M  V30 7475 C 706.685 -2.02437 -6.36062 0
M  V30 7476 H 705.955 0.174604 -0.720135 0
M  V30 7477 H 708.602 -0.259884 -1.89728 0
M  V30 7478 H 706.907 1.81922 -3.47004 0
M  V30 7479 H 708.604 1.51294 -3.71364 0
M  V30 7480 H 705.194 0.196532 -4.28149 0
M  V30 7481 H 709.378 -0.535602 -4.93401 0
M  V30 7482 H 704.634 -1.55482 -5.913 0
M  V30 7483 H 708.808 -2.28382 -6.57886 0
M  V30 7484 H 706.435 -2.79946 -7.06777 0
M  V30 7485 N 708.01 1.57248 0.105221 0
M  V30 7486 C 708.92 2.04653 1.14693 0
M  V30 7487 C 709.936 0.969488 1.44489 0
M  V30 7488 O 711.112 1.28196 1.55331 0
M  V30 7489 C 708.177 2.45297 2.45011 0
M  V30 7490 C 707.238 3.67148 2.22489 0
M  V30 7491 C 706.471 4.05844 3.46592 0
M  V30 7492 O 706.694 3.44736 4.54437 0
M  V30 7493 O 705.628 4.98862 3.36779 0
M  V30 7494 H 709.454 2.93663 0.774336 0
M  V30 7495 H 707.039 1.45998 0.31701 0
M  V30 7496 H 708.921 2.72112 3.21766 0
M  V30 7497 H 707.596 1.59429 2.81717 0
M  V30 7498 H 706.503 3.45463 1.43547 0
M  V30 7499 H 707.836 4.53764 1.9068 0
M  V30 7500 N 709.488 -0.375779 1.53054 0
M  V30 7501 C 710.451 -1.44254 1.7811 0
M  V30 7502 C 711.451 -1.47018 0.651328 0
M  V30 7503 O 712.641 -1.47957 0.919472 0
M  V30 7504 C 709.773 -2.8345 1.89391 0
M  V30 7505 H 710.966 -1.23316 2.73374 0
M  V30 7506 H 708.519 -0.608312 1.43977 0
M  V30 7507 H 709.254 -3.09716 0.961589 0
M  V30 7508 H 709.039 -2.82844 2.71555 0
M  V30 7509 H 710.529 -3.60722 2.10404 0
M  V30 7510 N 710.966 -1.44241 -0.634997 0
M  V30 7511 C 712.214 -1.46531 -1.39187 0
M  V30 7512 C 712.535 -0.0976441 -1.94755 0
M  V30 7513 O 711.805 0.869528 -1.75545 0
M  V30 7514 H 710.385 -0.539544 -0.516625 0
M  V30 7515 H 713.047 -1.79989 -0.747655 0
M  V30 7516 H 712.143 -2.18848 -2.22513 0
M  V30 7517 N 712.444 0.87505 -1.31075 0
M  V30 7518 C 713.392 2.00317 -1.18219 0
M  V30 7519 C 714.386 1.69152 -0.0916872 0
M  V30 7520 O 715.592 1.7821 -0.253229 0
M  V30 7521 H 711.967 0.656981 -0.365895 0
M  V30 7522 H 713.938 2.08293 -2.13674 0
M  V30 7523 C 712.687 3.35821 -0.901095 0
M  V30 7524 H 712.01 3.6032 -1.73233 0
M  V30 7525 H 713.45 4.15366 -0.851295 0
M  V30 7526 C 711.909 3.34563 0.396114 0
M  V30 7527 O 712.439 3.75971 1.41452 0
M  V30 7528 N 710.645 2.87681 0.410832 0
M  V30 7529 H 710.192 2.54179 -0.418415 0
M  V30 7530 H 710.15 2.87223 1.27869 0
M  V30 7531 N 713.922 1.13953 1.08869 0
M  V30 7532 C 715.168 0.906151 1.8143 0
M  V30 7533 C 715.501 -0.566089 1.85766 0
M  V30 7534 O 714.776 -1.41915 1.33006 0
M  V30 7535 C 715.059 1.50183 3.27287 0
M  V30 7536 C 714.912 3.04359 3.31189 0
M  V30 7537 C 716.231 1.17477 4.24131 0
M  V30 7538 H 713.35 0.330624 0.658678 0
M  V30 7539 H 715.992 1.40873 1.27495 0
M  V30 7540 H 714.142 1.07442 3.73348 0
M  V30 7541 H 715.814 3.55896 2.93488 0
M  V30 7542 H 714.057 3.39053 2.70602 0
M  V30 7543 H 714.728 3.41141 4.33966 0
M  V30 7544 H 717.204 1.5442 3.86385 0
M  V30 7545 H 716.08 1.61795 5.24513 0
M  V30 7546 H 716.341 0.0893312 4.4201 0
M  V30 7547 N 715.4 -1.26948 0.933913 0
M  V30 7548 C 716.35 -2.24306 0.408779 0
M  V30 7549 C 717.334 -1.53243 -0.490435 0
M  V30 7550 O 718.526 -1.73956 -0.326866 0
M  V30 7551 C 715.655 -3.41695 -0.331578 0
M  V30 7552 C 714.741 -4.20053 0.58451 0
M  V30 7553 N 715.132 -4.76122 1.70709 0
M  V30 7554 C 713.43 -4.44303 0.388703 0
M  V30 7555 C 714.131 -5.35267 2.27737 0
M  V30 7556 N 713.107 -5.20548 1.56622 0
M  V30 7557 H 716.909 -2.65244 1.26582 0
M  V30 7558 H 714.423 -1.4195 0.788919 0
M  V30 7559 H 716.42 -4.10552 -0.724774 0
M  V30 7560 H 715.08 -3.02286 -1.18547 0
M  V30 7561 H 716.091 -4.73884 2.08937 0
M  V30 7562 H 712.768 -4.15341 -0.424016 0
M  V30 7563 H 714.158 -5.89563 3.22282 0
M  V30 7564 N 716.879 -0.700114 -1.41195 0
M  V30 7565 C 718.107 -0.242179 -2.05478 0
M  V30 7566 C 718.522 1.11029 -1.52702 0
M  V30 7567 O 717.879 1.69473 -0.677127 0
M  V30 7568 C 717.93 -0.196271 -3.60967 0
M  V30 7569 O 717.651 -1.49532 -4.11791 0
M  V30 7570 C 719.152 0.282102 -4.42401 0
M  V30 7571 H 716.372 -0.111749 -0.661629 0
M  V30 7572 H 718.916 -0.953975 -1.80885 0
M  V30 7573 H 717.071 0.46638 -3.84582 0
M  V30 7574 H 717.485 -1.38545 -5.05871 0
M  V30 7575 H 718.959 0.263093 -5.51373 0
M  V30 7576 H 719.436 1.32174 -4.1884 0
M  V30 7577 H 720.042 -0.349712 -4.2386 0
M  V30 7578 N 718.357 1.51182 -0.445186 0
M  V30 7579 C 719.634 1.9478 0.178965 0
M  V30 7580 C 720.014 1.38428 1.59376 0
M  V30 7581 O 719.362 0.574552 2.21159 0
M  V30 7582 C 719.572 3.48683 0.148711 0
M  V30 7583 C 720.92 4.23152 0.35042 0
M  V30 7584 O 721.944 3.55479 0.226474 0
M  V30 7585 O 720.803 5.4322 0.597893 0
M  V30 7586 H 717.897 0.817387 0.12573 0
M  V30 7587 H 720.443 1.62051 -0.503729 0
M  V30 7588 H 719.215 3.82176 -0.84009 0
M  V30 7589 H 718.838 3.87875 0.873979 0
M  V30 7590 N 719.835 0.176821 1.56605 0
M  V30 7591 C 721.082 -0.466715 1.97048 0
M  V30 7592 C 721.41 -1.6288 1.06302 0
M  V30 7593 O 720.665 -1.95453 0.0982571 0
M  V30 7594 C 720.964 -0.986208 3.43524 0
M  V30 7595 C 720.63 0.0605667 4.50859 0
M  V30 7596 C 719.292 0.348242 4.79938 0
M  V30 7597 C 721.644 0.770794 5.15469 0
M  V30 7598 C 718.972 1.35144 5.70923 0
M  V30 7599 C 721.324 1.76301 6.07537 0
M  V30 7600 C 719.988 2.05808 6.3498 0
M  V30 7601 H 719.258 -0.170783 0.721051 0
M  V30 7602 H 721.905 0.269942 1.89588 0
M  V30 7603 H 720.21 -1.80079 3.47964 0
M  V30 7604 H 721.907 -1.49323 3.72161 0
M  V30 7605 H 718.497 -0.173823 4.28247 0
M  V30 7606 H 722.681 0.56176 4.9311 0
M  V30 7607 H 717.937 1.58616 5.90467 0
M  V30 7608 H 722.111 2.31868 6.56666 0
M  V30 7609 H 719.738 2.8369 7.05283 0
M  V30 7610 N 721.313 -1.57302 -0.09688 0
M  V30 7611 C 722.562 -1.85183 -0.799388 0
M  V30 7612 C 722.875 -0.765818 -1.79985 0
M  V30 7613 O 724.081 -0.931696 -2.55013 0
M  V30 7614 C 722.537 -3.28399 -1.47249 0
M  V30 7615 C 722.145 -4.45066 -0.511888 0
M  V30 7616 C 723.889 -3.65506 -2.15883 0
M  V30 7617 C 721.796 -5.79315 -1.18948 0
M  V30 7618 H 720.726 -0.690752 -0.302287 0
M  V30 7619 H 723.377 -1.83425 -0.0523104 0
M  V30 7620 H 721.759 -3.24692 -2.26697 0
M  V30 7621 H 722.933 -4.60116 0.250962 0
M  V30 7622 H 721.248 -4.16343 0.0686576 0
M  V30 7623 H 723.845 -4.63087 -2.67309 0
M  V30 7624 H 724.188 -2.94041 -2.94696 0
M  V30 7625 H 724.721 -3.71094 -1.43298 0
M  V30 7626 H 721.46 -6.54007 -0.442198 0
M  V30 7627 H 720.98 -5.68111 -1.9238 0
M  V30 7628 H 722.659 -6.23816 -1.71646 0
M  V30 7629 N 722.791 0.367657 -1.53252 0
M  V30 7630 C 724.202 0.944563 -1.61043 0
M  V30 7631 C 724.553 1.90325 -0.476546 0
M  V30 7632 O 723.678 2.12721 0.397333 0
M  V30 7633 C 724.273 1.71992 -2.91898 0
M  V30 7634 C 722.832 2.2462 -3.02031 0
M  V30 7635 C 721.979 1.05799 -2.56324 0
M  V30 7636 H 724.93 0.146516 -1.58022 0
M  V30 7637 H 724.951 2.58095 -2.79584 0
M  V30 7638 H 724.463 1.02192 -3.74404 0
M  V30 7639 H 722.564 2.97668 -2.24108 0
M  V30 7640 H 722.677 2.52644 -4.07073 0
M  V30 7641 H 721.041 1.42435 -2.1115 0
M  V30 7642 H 721.824 0.375008 -3.41246 0
M  V30 7643 N 724.269 1.44576 0.627338 0
M  V30 7644 C 725.201 1.47724 1.75243 0
M  V30 7645 C 726.214 0.370193 1.58535 0
M  V30 7646 O 727.403 0.636151 1.66779 0
M  V30 7647 C 724.503 1.2991 3.13012 0
M  V30 7648 C 723.676 2.5393 3.56143 0
M  V30 7649 C 722.735 2.30961 4.72804 0
M  V30 7650 O 721.761 3.04469 4.80923 0
M  V30 7651 N 722.963 1.34261 5.6476 0
M  V30 7652 H 725.728 2.44718 1.73012 0
M  V30 7653 H 723.289 1.40064 0.812022 0
M  V30 7654 H 725.281 1.12385 3.88782 0
M  V30 7655 H 723.851 0.412668 3.09864 0
M  V30 7656 H 723.071 2.86707 2.70542 0
M  V30 7657 H 724.359 3.36411 3.81713 0
M  V30 7658 H 723.757 0.735573 5.60897 0
M  V30 7659 H 722.314 1.22713 6.40144 0
M  V30 7660 N 725.747 -0.868086 1.31537 0
M  V30 7661 C 726.697 -1.96321 1.1594 0
M  V30 7662 C 727.681 -1.60748 0.0698962 0
M  V30 7663 O 728.873 -1.74524 0.295011 0
M  V30 7664 C 726.002 -3.32073 0.870789 0
M  V30 7665 C 725.088 -3.73907 2.00136 0
M  V30 7666 N 725.479 -3.87685 3.24859 0
M  V30 7667 C 723.777 -4.03433 1.90152 0
M  V30 7668 C 724.478 -4.23454 3.98825 0
M  V30 7669 N 723.454 -4.34242 3.27009 0
M  V30 7670 H 727.256 -2.05088 2.10514 0
M  V30 7671 H 724.77 -1.059 1.23122 0
M  V30 7672 H 726.767 -4.10279 0.740034 0
M  V30 7673 H 725.427 -3.24631 -0.0667068 0
M  V30 7674 H 726.438 -3.72363 3.59953 0
M  V30 7675 H 723.115 -4.0437 1.03879 0
M  V30 7676 H 724.505 -4.41696 5.06314 0
M  V30 7677 N 727.225 -1.14528 -1.08264 0
M  V30 7678 C 728.175 -0.802141 -2.13424 0
M  V30 7679 C 729.159 0.209362 -1.59532 0
M  V30 7680 O 730.351 0.0114859 -1.76996 0
M  V30 7681 C 727.48 -0.282938 -3.42132 0
M  V30 7682 C 726.566 -1.32405 -4.02902 0
M  V30 7683 N 726.957 -2.52861 -4.38058 0
M  V30 7684 C 725.255 -1.17462 -4.30254 0
M  V30 7685 C 725.956 -3.1952 -4.86088 0
M  V30 7686 N 724.932 -2.46921 -4.84284 0
M  V30 7687 H 728.734 -1.71843 -2.38426 0
M  V30 7688 H 726.248 -1.02936 -1.2561 0
M  V30 7689 H 728.245 -0.0188053 -4.16896 0
M  V30 7690 H 726.905 0.627533 -3.18578 0
M  V30 7691 H 727.916 -2.90078 -4.2904 0
M  V30 7692 H 724.593 -0.323283 -4.16246 0
M  V30 7693 H 725.983 -4.2223 -5.22658 0
M  V30 7694 N 728.703 1.26451 -0.940633 0
M  V30 7695 C 729.65 2.264 -0.448497 0
M  V30 7696 C 730.62 1.5866 0.491546 0
M  V30 7697 O 731.805 1.86389 0.407874 0
M  V30 7698 C 728.945 3.43956 0.280715 0
M  V30 7699 C 728.058 4.26374 -0.694937 0
M  V30 7700 C 727.193 5.31171 0.0554186 0
M  V30 7701 C 726.232 6.05266 -0.912091 0
M  V30 7702 N 725.369 7.01833 -0.193524 0
M  V30 7703 H 730.209 2.67869 -1.30576 0
M  V30 7704 H 727.746 1.31707 -0.655112 0
M  V30 7705 H 729.704 4.10941 0.71994 0
M  V30 7706 H 728.334 3.03403 1.10212 0
M  V30 7707 H 727.386 3.59183 -1.25267 0
M  V30 7708 H 728.698 4.77748 -1.43382 0
M  V30 7709 H 727.852 6.04166 0.553951 0
M  V30 7710 H 726.591 4.80634 0.827183 0
M  V30 7711 H 725.596 5.31099 -1.42175 0
M  V30 7712 H 726.821 6.57893 -1.68385 0
M  V30 7713 H 724.767 6.53607 0.559758 0
M  V30 7714 H 724.684 7.50957 -0.871744 0
M  V30 7715 H 725.952 7.78983 0.283932 0
M  V30 7716 N 730.181 0.707592 1.40822 0
M  V30 7717 C 731.113 0.0105968 2.29198 0
M  V30 7718 C 732.126 -0.732035 1.45414 0
M  V30 7719 O 733.315 -0.580741 1.68789 0
M  V30 7720 C 730.415 -1.00921 3.23525 0
M  V30 7721 C 729.588 -0.333747 4.36125 0
M  V30 7722 C 728.647 -1.25783 5.10945 0
M  V30 7723 O 727.673 -0.745646 5.64295 0
M  V30 7724 N 728.875 -2.58947 5.19545 0
M  V30 7725 H 731.64 0.76938 2.89656 0
M  V30 7726 H 729.201 0.554579 1.52105 0
M  V30 7727 H 731.193 -1.6294 3.70449 0
M  V30 7728 H 729.763 -1.66942 2.6429 0
M  V30 7729 H 728.983 0.466518 3.9143 0
M  V30 7730 H 730.271 0.135444 5.0862 0
M  V30 7731 H 729.669 -3.03065 4.7767 0
M  V30 7732 H 728.226 -3.16131 5.70004 0
M  V30 7733 N 731.66 -1.50943 0.453197 0
M  V30 7734 C 732.59 -2.31005 -0.34044 0
M  V30 7735 C 733.571 -1.37112 -1.00669 0
M  V30 7736 O 734.756 -1.66033 -1.0073 0
M  V30 7737 C 731.886 -3.16358 -1.433 0
M  V30 7738 C 730.84 -4.18658 -0.889363 0
M  V30 7739 C 730.166 -4.92633 -2.07887 0
M  V30 7740 C 731.466 -5.22227 0.0871142 0
M  V30 7741 H 733.16 -2.97601 0.327723 0
M  V30 7742 H 730.706 -1.43119 0.159054 0
M  V30 7743 H 732.659 -3.71155 -1.99555 0
M  V30 7744 H 731.383 -2.47613 -2.12968 0
M  V30 7745 H 730.042 -3.64936 -0.348915 0
M  V30 7746 H 729.69 -4.20376 -2.76211 0
M  V30 7747 H 729.39 -5.61819 -1.72143 0
M  V30 7748 H 730.914 -5.50258 -2.64666 0
M  V30 7749 H 732.328 -5.72001 -0.385656 0
M  V30 7750 H 730.725 -5.99032 0.357926 0
M  V30 7751 H 731.795 -4.74077 1.01879 0
M  V30 7752 N 733.138 -0.185124 -1.56509 0
M  V30 7753 C 734.068 0.735098 -2.21627 0
M  V30 7754 C 735.049 1.2288 -1.1762 0
M  V30 7755 O 736.234 1.27945 -1.46095 0
M  V30 7756 C 733.364 1.95889 -2.86783 0
M  V30 7757 C 732.318 1.6005 -3.96948 0
M  V30 7758 C 731.644 2.90009 -4.4922 0
M  V30 7759 C 732.944 0.818008 -5.15855 0
M  V30 7760 H 734.638 0.192274 -2.98782 0
M  V30 7761 H 732.184 0.0910393 -1.43712 0
M  V30 7762 H 734.137 2.60779 -3.31017 0
M  V30 7763 H 732.861 2.52608 -2.07018 0
M  V30 7764 H 731.52 0.975237 -3.5339 0
M  V30 7765 H 731.168 3.44797 -3.6623 0
M  V30 7766 H 730.868 2.66778 -5.23549 0
M  V30 7767 H 732.392 3.55904 -4.9615 0
M  V30 7768 H 733.806 1.36979 -5.56695 0
M  V30 7769 H 732.203 0.684207 -5.96187 0
M  V30 7770 H 733.273 -0.182939 -4.84555 0
M  V30 7771 N 734.616 1.57351 0.0885366 0
M  V30 7772 C 735.546 2.05561 1.10757 0
M  V30 7773 C 736.527 0.945789 1.41382 0
M  V30 7774 O 737.712 1.21747 1.51299 0
M  V30 7775 C 734.842 2.48554 2.42566 0
M  V30 7776 C 733.796 3.63259 2.26334 0
M  V30 7777 C 733.122 3.9225 3.63378 0
M  V30 7778 C 734.422 4.93913 1.69844 0
M  V30 7779 H 736.116 2.90946 0.706468 0
M  V30 7780 H 733.662 1.39968 0.338385 0
M  V30 7781 H 735.615 2.8089 3.14132 0
M  V30 7782 H 734.339 1.60176 2.84625 0
M  V30 7783 H 732.998 3.31179 1.57213 0
M  V30 7784 H 732.646 3.0103 4.02976 0
M  V30 7785 H 732.346 4.69478 3.53362 0
M  V30 7786 H 733.87 4.27067 4.36401 0
M  V30 7787 H 735.284 5.24588 2.31258 0
M  V30 7788 H 733.681 5.75349 1.70569 0
M  V30 7789 H 734.751 4.80409 0.65843 0
M  V30 7790 N 736.094 -0.359525 1.53444 0
M  V30 7791 C 737.319 -1.12644 1.74144 0
M  V30 7792 C 737.744 -1.82082 0.472007 0
M  V30 7793 O 737.102 -1.71962 -0.57436 0
M  V30 7794 C 737.15 -2.12781 2.9113 0
M  V30 7795 O 736.254 -3.19984 2.60162 0
M  V30 7796 H 735.595 -0.326553 0.578152 0
M  V30 7797 H 738.125 -0.414798 2.00351 0
M  V30 7798 H 738.135 -2.56278 3.17467 0
M  V30 7799 H 736.81 -1.61634 3.83207 0
M  V30 7800 H 735.387 -2.81417 2.44661 0
M  V30 7801 N 737.572 -1.44907 -0.619662 0
M  V30 7802 C 738.988 -1.29046 -0.939107 0
M  V30 7803 C 739.188 -0.23462 -2.00129 0
M  V30 7804 O 738.244 0.37558 -2.49691 0
M  V30 7805 C 739.557 -2.66567 -1.39149 0
M  V30 7806 C 741.105 -2.74368 -1.50635 0
M  V30 7807 C 741.58 -4.12386 -1.99253 0
M  V30 7808 N 743.071 -4.1462 -2.06506 0
M  V30 7809 C 743.806 -5.18272 -2.4532 0
M  V30 7810 N 743.302 -6.32278 -2.83189 0
M  V30 7811 N 745.095 -5.05628 -2.45554 0
M  V30 7812 H 737.246 -2.12239 0.0826135 0
M  V30 7813 H 739.509 -0.947652 -0.0256829 0
M  V30 7814 H 739.215 -3.4496 -0.685254 0
M  V30 7815 H 739.089 -2.94224 -2.36034 0
M  V30 7816 H 741.476 -1.96287 -2.20353 0
M  V30 7817 H 741.557 -2.50439 -0.520963 0
M  V30 7818 H 741.201 -4.90947 -1.30127 0
M  V30 7819 H 741.131 -4.33699 -2.98684 0
M  V30 7820 H 743.622 -3.32343 -1.79878 0
M  V30 7821 H 743.935 -7.07172 -3.11652 0
M  V30 7822 H 742.28 -6.35699 -2.80913 0
M  V30 7823 H 745.471 -4.15613 -2.15367 0
M  V30 7824 H 745.644 -5.86529 -2.75478 0
M  V30 7825 N 739.05 0.861098 -1.31996 0
M  V30 7826 C 739.997 1.96912 -1.20392 0
M  V30 7827 C 740.967 1.65869 -0.0875899 0
M  V30 7828 O 742.152 1.88992 -0.262011 0
M  V30 7829 C 739.292 3.32435 -0.926335 0
M  V30 7830 C 738.405 3.76018 -2.12684 0
M  V30 7831 C 737.54 5.00301 -1.78529 0
M  V30 7832 C 736.579 5.36357 -2.94937 0
M  V30 7833 N 735.716 6.51818 -2.60917 0
M  V30 7834 H 740.556 2.06169 -2.1517 0
M  V30 7835 H 738.093 1.00917 -1.07024 0
M  V30 7836 H 740.051 4.10478 -0.745917 0
M  V30 7837 H 738.681 3.22796 -0.0153578 0
M  V30 7838 H 737.733 2.93683 -2.41774 0
M  V30 7839 H 739.045 3.98664 -2.99781 0
M  V30 7840 H 738.199 5.86034 -1.57001 0
M  V30 7841 H 736.938 4.79578 -0.886356 0
M  V30 7842 H 735.943 4.49139 -3.17103 0
M  V30 7843 H 737.168 5.59041 -3.85552 0
M  V30 7844 H 735.114 6.32624 -1.73558 0
M  V30 7845 H 735.031 6.7445 -3.41544 0
M  V30 7846 H 736.299 7.4072 -2.42804 0
M  V30 7847 N 740.528 1.15101 1.07655 0
M  V30 7848 C 741.491 0.847625 2.12951 0
M  V30 7849 C 742.491 -0.151227 1.60087 0
M  V30 7850 O 743.681 0.0780399 1.74025 0
M  V30 7851 C 740.813 0.265 3.39868 0
M  V30 7852 H 742.006 1.7809 2.41296 0
M  V30 7853 H 739.559 0.958072 1.23494 0
M  V30 7854 H 740.294 -0.676625 3.17163 0
M  V30 7855 H 740.079 0.984554 3.79538 0
M  V30 7856 H 741.569 0.0702121 4.17541 0
M  V30 7857 N 742.006 -1.2595 0.947325 0
M  V30 7858 C 742.969 -2.24407 0.466285 0
M  V30 7859 C 743.969 -1.55054 -0.426005 0
M  V30 7860 O 745.159 -1.7275 -0.224319 0
M  V30 7861 C 742.291 -3.39326 -0.327201 0
M  V30 7862 H 743.484 -2.68477 1.33642 0
M  V30 7863 H 741.037 -1.38211 0.729887 0
M  V30 7864 H 741.772 -3.00667 -1.21532 0
M  V30 7865 H 741.557 -3.9085 0.312839 0
M  V30 7866 H 743.047 -4.12455 -0.653477 0
M  V30 7867 N 743.484 -0.715051 -1.40445 0
M  V30 7868 C 744.447 -0.0708726 -2.2909 0
M  V30 7869 C 745.447 0.687926 -1.45342 0
M  V30 7870 O 746.637 0.519908 -1.66261 0
M  V30 7871 C 743.769 0.909528 -3.28543 0
M  V30 7872 H 744.962 -0.851611 -2.87555 0
M  V30 7873 H 742.515 -0.479674 -1.48758 0
M  V30 7874 H 743.25 1.71734 -2.75096 0
M  V30 7875 H 743.035 0.368318 -3.90366 0
M  V30 7876 H 744.525 1.35744 -3.94922 0
M  V30 7877 N 744.962 1.50701 -0.461195 0
M  V30 7878 C 745.909 2.2831 0.338094 0
M  V30 7879 C 746.879 1.32928 0.995957 0
M  V30 7880 O 748.064 1.61857 1.0103 0
M  V30 7881 C 745.204 3.14539 1.41983 0
M  V30 7882 C 744.317 4.24942 0.77773 0
M  V30 7883 C 743.452 4.98443 1.83652 0
M  V30 7884 C 742.491 6.00733 1.17413 0
M  V30 7885 N 741.628 6.6755 2.17533 0
M  V30 7886 H 746.468 2.96167 -0.330051 0
M  V30 7887 H 744.005 1.4606 -0.174611 0
M  V30 7888 H 745.963 3.62877 2.05855 0
M  V30 7889 H 744.593 2.48749 2.05727 0
M  V30 7890 H 743.645 3.80391 0.0266924 0
M  V30 7891 H 744.957 4.98151 0.254362 0
M  V30 7892 H 744.111 5.50449 2.55129 0
M  V30 7893 H 742.85 4.24917 2.39367 0
M  V30 7894 H 741.855 5.47997 0.444944 0
M  V30 7895 H 743.08 6.76227 0.624006 0
M  V30 7896 H 741.026 5.96823 2.72284 0
M  V30 7897 H 740.943 7.36603 1.70154 0
M  V30 7898 H 742.211 7.24178 2.88421 0
M  V30 7899 N 746.441 0.193421 1.56409 0
M  V30 7900 C 747.351 -0.740112 2.2262 0
M  V30 7901 C 748.367 -1.23597 1.22474 0
M  V30 7902 O 749.543 -1.28348 1.55206 0
M  V30 7903 C 746.608 -1.94317 2.87127 0
M  V30 7904 C 745.669 -1.49205 4.02538 0
M  V30 7905 C 744.902 -2.63776 4.63959 0
M  V30 7906 O 745.125 -3.81215 4.24301 0
M  V30 7907 O 744.059 -2.36585 5.53454 0
M  V30 7908 H 747.885 -0.206238 3.02999 0
M  V30 7909 H 745.47 -0.0357938 1.49357 0
M  V30 7910 H 747.352 -2.64633 3.27944 0
M  V30 7911 H 746.027 -2.46568 2.09728 0
M  V30 7912 H 744.934 -0.757738 3.66346 0
M  V30 7913 H 746.267 -1.01622 4.81595 0
M  V30 7914 N 747.919 -1.57396 -0.0801906 0
M  V30 7915 C 749.144 -1.91437 -0.797909 0
M  V30 7916 C 749.569 -0.789075 -1.70749 0
M  V30 7917 O 748.927 0.25857 -1.79447 0
M  V30 7918 C 748.975 -3.24402 -1.57467 0
M  V30 7919 O 748.079 -3.13043 -2.68473 0
M  V30 7920 H 747.42 -0.627109 -0.218243 0
M  V30 7921 H 749.95 -2.04537 -0.050949 0
M  V30 7922 H 749.96 -3.58072 -1.95571 0
M  V30 7923 H 748.635 -4.05884 -0.907229 0
M  V30 7924 H 747.212 -2.90915 -2.33287 0
M  V30 7925 N 749.397 0.351382 -1.53633 0
M  V30 7926 C 750.327 1.43688 -1.84055 0
M  V30 7927 C 751.308 1.55251 -0.695073 0
M  V30 7928 O 752.493 1.69587 -0.946257 0
M  V30 7929 C 749.623 2.80843 -2.04315 0
M  V30 7930 C 748.577 2.84094 -3.20117 0
M  V30 7931 C 747.903 4.2406 -3.25696 0
M  V30 7932 C 749.203 2.50334 -4.58399 0
M  V30 7933 H 750.897 1.18478 -2.74961 0
M  V30 7934 H 748.443 0.568509 -1.32303 0
M  V30 7935 H 750.396 3.56821 -2.2418 0
M  V30 7936 H 749.12 3.07471 -1.10132 0
M  V30 7937 H 747.779 2.10568 -3.00094 0
M  V30 7938 H 747.427 4.47785 -2.29123 0
M  V30 7939 H 747.127 4.27147 -4.03509 0
M  V30 7940 H 748.651 5.0189 -3.47762 0
M  V30 7941 H 750.065 3.16025 -4.78332 0
M  V30 7942 H 748.462 2.64717 -5.38558 0
M  V30 7943 H 749.532 1.45542 -4.62543 0
M  V30 7944 N 750.875 1.45233 0.611969 0
M  V30 7945 C 752.115 1.50558 1.38245 0
M  V30 7946 C 752.479 0.141959 1.91474 0
M  V30 7947 O 753.68 0.0698926 2.68709 0
M  V30 7948 C 751.951 2.55136 2.50281 0
M  V30 7949 S 753.51 2.79652 3.38142 0
M  V30 7950 H 750.328 0.532281 0.471378 0
M  V30 7951 H 752.93 1.82285 0.706578 0
M  V30 7952 H 751.634 3.52888 2.09518 0
M  V30 7953 H 751.165 2.25045 3.22674 0
M  V30 7954 H 753.18 2.12699 4.48301 0
M  V30 7955 N 752.353 -0.854086 1.3245 0
M  V30 7956 C 753.285 -1.96932 1.17262 0
M  V30 7957 C 754.298 -1.62445 0.107469 0
M  V30 7958 O 755.487 -1.74904 0.356481 0
M  V30 7959 C 752.587 -3.29971 0.772817 0
M  V30 7960 C 751.76 -3.92695 1.92638 0
M  V30 7961 C 750.819 -5.04068 1.51003 0
M  V30 7962 O 749.845 -5.24032 2.22213 0
M  V30 7963 N 751.047 -5.79076 0.406371 0
M  V30 7964 H 753.812 -2.10503 2.13327 0
M  V30 7965 H 751.373 -1.02897 1.24995 0
M  V30 7966 H 753.365 -4.01883 0.476684 0
M  V30 7967 H 751.935 -3.1245 -0.0967 0
M  V30 7968 H 751.155 -3.13563 2.38897 0
M  V30 7969 H 752.443 -4.31337 2.69863 0
M  V30 7970 H 751.841 -5.65393 -0.186302 0
M  V30 7971 H 750.398 -6.51579 0.169846 0
M  V30 7972 N 753.831 -1.1567 -1.07043 0
M  V30 7973 C 754.794 -0.858906 -2.12498 0
M  V30 7974 C 755.794 0.142735 -1.60165 0
M  V30 7975 O 756.984 -0.0872678 -1.73981 0
M  V30 7976 C 754.116 -0.283021 -3.39723 0
M  V30 7977 H 755.309 -1.79368 -2.40348 0
M  V30 7978 H 752.862 -0.964608 -1.22984 0
M  V30 7979 H 753.597 0.659796 -3.17517 0
M  V30 7980 H 753.382 -1.00467 -3.7901 0
M  V30 7981 H 754.872 -0.0923543 -4.17498 0
M  V30 7982 N 755.309 1.25446 -0.953992 0
M  V30 7983 C 756.272 2.24156 -0.478179 0
M  V30 7984 C 757.272 1.55278 0.417776 0
M  V30 7985 O 758.462 1.72866 0.215155 0
M  V30 7986 C 755.594 3.39495 0.309202 0
M  V30 7987 H 756.787 2.67764 -1.35064 0
M  V30 7988 H 754.34 1.37822 -0.737206 0
M  V30 7989 H 755.075 3.01307 1.19936 0
M  V30 7990 H 754.86 3.90679 -0.333562 0
M  V30 7991 H 756.35 4.12796 0.631594 0
M  V30 7992 N 756.787 0.722489 1.40064 0
M  V30 7993 C 757.717 0.0892452 2.33329 0
M  V30 7994 C 758.698 -0.737992 1.53257 0
M  V30 7995 O 759.883 -0.685516 1.81698 0
M  V30 7996 C 757.013 -0.828139 3.37282 0
M  V30 7997 C 755.967 -0.106005 4.27869 0
M  V30 7998 C 755.293 -1.13957 5.22415 0
M  V30 7999 C 756.593 1.04395 5.11761 0
M  V30 8000 H 758.287 0.868269 2.86534 0
M  V30 8001 H 755.833 0.418982 1.3777 0
M  V30 8002 H 757.786 -1.28058 4.01471 0
M  V30 8003 H 756.51 -1.63914 2.82489 0
M  V30 8004 H 755.169 0.326683 3.65142 0
M  V30 8005 H 754.817 -1.9438 4.63924 0
M  V30 8006 H 754.517 -0.661233 5.83868 0
M  V30 8007 H 756.041 -1.59197 5.89482 0
M  V30 8008 H 757.455 0.670541 5.69365 0
M  V30 8009 H 755.852 1.4511 5.82291 0
M  V30 8010 H 756.922 1.87144 4.47331 0
M  V30 8011 N 758.265 -1.50454 0.469181 0
M  V30 8012 C 759.513 -2.01916 -0.0862982 0
M  V30 8013 C 759.834 -1.35337 -1.40388 0
M  V30 8014 O 759.104 -0.498096 -1.89462 0
M  V30 8015 H 757.684 -0.746185 -0.0348825 0
M  V30 8016 H 760.346 -1.84804 0.619167 0
M  V30 8017 H 759.442 -3.11182 -0.239189 0
M  V30 8018 N 759.743 -0.201713 -1.56304 0
M  V30 8019 C 760.673 0.71155 -2.22394 0
M  V30 8020 C 761.654 1.21625 -1.18917 0
M  V30 8021 O 762.839 1.26388 -1.47444 0
M  V30 8022 C 759.969 1.92837 -2.88845 0
M  V30 8023 C 758.923 1.55831 -3.98623 0
M  V30 8024 C 758.249 2.85228 -4.52271 0
M  V30 8025 C 759.549 0.763249 -5.16693 0
M  V30 8026 H 761.243 0.160573 -2.98969 0
M  V30 8027 H 758.789 0.0757916 -1.438 0
M  V30 8028 H 760.742 2.57253 -3.33764 0
M  V30 8029 H 759.466 2.50398 -2.09686 0
M  V30 8030 H 758.125 0.9377 -3.54405 0
M  V30 8031 H 757.773 3.40893 -3.69866 0
M  V30 8032 H 757.473 2.6121 -5.26349 0
M  V30 8033 H 758.997 3.50622 -4.99897 0
M  V30 8034 H 760.411 1.31066 -5.58117 0
M  V30 8035 H 758.808 0.620935 -5.96879 0
M  V30 8036 H 759.878 -0.234322 -4.84334 0
M  V30 8037 N 761.222 1.57436 0.0718424 0
M  V30 8038 C 762.471 1.86431 0.769826 0
M  V30 8039 C 762.784 0.794355 1.78744 0
M  V30 8040 O 763.99 0.972148 2.53499 0
M  V30 8041 C 762.446 3.307 1.42006 0
M  V30 8042 C 762.054 4.45824 0.441017 0
M  V30 8043 C 763.798 3.68894 2.10041 0
M  V30 8044 C 761.705 5.81134 1.09717 0
M  V30 8045 H 760.635 0.695474 0.291259 0
M  V30 8046 H 763.286 1.83485 0.0231224 0
M  V30 8047 H 761.668 3.28257 2.21502 0
M  V30 8048 H 762.842 4.59659 -0.32413 0
M  V30 8049 H 761.157 4.16181 -0.134886 0
M  V30 8050 H 763.754 4.67281 2.59908 0
M  V30 8051 H 764.097 2.98692 2.89981 0
M  V30 8052 H 764.63 3.73326 1.37376 0
M  V30 8053 H 761.369 6.54628 0.338095 0
M  V30 8054 H 760.889 5.711 1.83317 0
M  V30 8055 H 762.568 6.26468 1.617 0
M  V30 8056 N 762.7 -0.34323 1.53817 0
M  V30 8057 C 763.63 -1.42709 1.84814 0
M  V30 8058 C 764.611 -1.5488 0.703297 0
M  V30 8059 O 765.796 -1.69082 0.955237 0
M  V30 8060 C 762.926 -2.79756 2.05801 0
M  V30 8061 C 761.88 -2.82392 3.21619 0
M  V30 8062 C 761.206 -4.22326 3.2794 0
M  V30 8063 C 762.506 -2.479 4.59721 0
M  V30 8064 H 764.2 -1.17018 2.75585 0
M  V30 8065 H 761.746 -0.561485 1.32602 0
M  V30 8066 H 763.699 -3.55627 2.26069 0
M  V30 8067 H 762.423 -3.06883 1.11761 0
M  V30 8068 H 761.082 -2.08974 3.01207 0
M  V30 8069 H 760.73 -4.46564 2.31494 0
M  V30 8070 H 760.43 -4.25001 4.05768 0
M  V30 8071 H 761.954 -5.00039 3.50419 0
M  V30 8072 H 763.368 -3.13484 4.80001 0
M  V30 8073 H 761.765 -2.61857 5.39954 0
M  V30 8074 H 762.835 -1.43087 4.63308 0
M  V30 8075 N 764.178 -1.45556 -0.604258 0
M  V30 8076 C 765.125 -1.54482 -1.71476 0
M  V30 8077 C 766.095 -0.390479 -1.61445 0
M  V30 8078 O 767.28 -0.604371 -1.80975 0
M  V30 8079 C 764.42 -1.52064 -3.09791 0
M  V30 8080 C 763.533 -2.78073 -3.30604 0
M  V30 8081 C 762.668 -2.67304 -4.59044 0
M  V30 8082 C 761.707 -3.88352 -4.73127 0
M  V30 8083 N 760.844 -3.76098 -5.9287 0
M  V30 8084 H 765.684 -2.49349 -1.63184 0
M  V30 8085 H 763.221 -1.23725 -0.795641 0
M  V30 8086 H 765.179 -1.48649 -3.89819 0
M  V30 8087 H 763.809 -0.607442 -3.17033 0
M  V30 8088 H 762.861 -2.91561 -2.44329 0
M  V30 8089 H 764.173 -3.67847 -3.36883 0
M  V30 8090 H 763.327 -2.61875 -5.47272 0
M  V30 8091 H 762.066 -1.75135 -4.55169 0
M  V30 8092 H 761.071 -3.94137 -3.83322 0
M  V30 8093 H 762.296 -4.81591 -4.78797 0
M  V30 8094 H 760.242 -2.867 -5.90033 0
M  V30 8095 H 760.159 -4.59509 -6.00323 0
M  V30 8096 H 761.427 -3.74607 -6.83586 0
M  V30 8097 N 765.656 0.84705 -1.32902 0
M  V30 8098 C 766.566 1.98845 -1.2449 0
M  V30 8099 C 767.582 1.7329 -0.15702 0
M  V30 8100 O 768.758 1.978 -0.379104 0
M  V30 8101 C 765.823 3.32679 -0.975985 0
M  V30 8102 C 764.884 3.71405 -2.15306 0
M  V30 8103 C 764.117 4.98853 -1.89688 0
M  V30 8104 O 764.34 5.64134 -0.843168 0
M  V30 8105 O 763.274 5.34889 -2.76002 0
M  V30 8106 H 767.1 2.0888 -2.2046 0
M  V30 8107 H 764.685 0.978852 -1.12867 0
M  V30 8108 H 766.567 4.12885 -0.842826 0
M  V30 8109 H 765.242 3.23667 -0.0464954 0
M  V30 8110 H 764.149 2.91743 -2.34172 0
M  V30 8111 H 765.482 3.85073 -3.06561 0
M  V30 8112 N 767.134 1.16236 1.06428 0
M  V30 8113 C 768.081 0.86769 2.13869 0
M  V30 8114 C 769.051 -0.183298 1.65086 0
M  V30 8115 O 770.236 -0.0488002 1.90738 0
M  V30 8116 C 767.376 0.373427 3.43074 0
M  V30 8117 C 766.489 1.48708 4.05598 0
M  V30 8118 C 765.624 0.947977 5.22673 0
M  V30 8119 C 764.663 2.03793 5.77178 0
M  V30 8120 N 763.8 1.51451 6.85571 0
M  V30 8121 H 768.64 1.78781 2.38414 0
M  V30 8122 H 766.177 0.891892 1.16977 0
M  V30 8123 H 768.135 0.0685035 4.17144 0
M  V30 8124 H 766.765 -0.509752 3.1875 0
M  V30 8125 H 765.817 1.908 3.29089 0
M  V30 8126 H 767.129 2.30964 4.42105 0
M  V30 8127 H 766.283 0.596154 6.03764 0
M  V30 8128 H 765.022 0.0947081 4.87608 0
M  V30 8129 H 764.027 2.39847 4.94726 0
M  V30 8130 H 765.252 2.89514 6.14295 0
M  V30 8131 H 763.198 0.683755 6.52427 0
M  V30 8132 H 763.115 2.27325 7.21013 0
M  V30 8133 H 764.383 1.19123 7.70344 0
M  V30 8134 N 768.612 -1.24939 0.960631 0
M  V30 8135 C 769.575 -2.239 0.49006 0
M  V30 8136 C 770.575 -1.55497 -0.409535 0
M  V30 8137 O 771.765 -1.72978 -0.205984 0
M  V30 8138 C 768.897 -3.39654 -0.291193 0
M  V30 8139 H 770.09 -2.67044 1.36482 0
M  V30 8140 H 767.643 -1.37429 0.744505 0
M  V30 8141 H 768.378 -3.01939 -1.18336 0
M  V30 8142 H 768.163 -3.90496 0.354276 0
M  V30 8143 H 769.653 -4.13125 -0.609693 0
M  V30 8144 N 770.09 -0.729906 -1.39679 0
M  V30 8145 C 771.023 -0.0354454 -2.28172 0
M  V30 8146 C 772.001 0.752968 -1.44115 0
M  V30 8147 O 773.185 0.736599 -1.73512 0
M  V30 8148 C 770.312 0.957047 -3.24897 0
M  V30 8149 C 769.358 0.257734 -4.25721 0
M  V30 8150 S 770.191 -1.02466 -5.25605 0
M  V30 8151 C 771.347 -0.0346322 -6.2589 0
M  V30 8152 H 771.58 -0.785922 -2.86724 0
M  V30 8153 H 769.113 -0.521497 -1.45326 0
M  V30 8154 H 771.071 1.52441 -3.81146 0
M  V30 8155 H 769.732 1.68033 -2.65375 0
M  V30 8156 H 768.925 1.00854 -4.93806 0
M  V30 8157 H 768.527 -0.237454 -3.73245 0
M  V30 8158 H 770.819 0.807464 -6.72671 0
M  V30 8159 H 771.762 -0.682491 -7.04803 0
M  V30 8160 H 772.17 0.335492 -5.63502 0
M  V30 8161 N 771.568 1.50203 -0.477153 0
M  V30 8162 C 772.796 2.0677 0.0732489 0
M  V30 8163 C 773.211 1.34033 1.32968 0
M  V30 8164 O 772.568 0.411412 1.77802 0
M  V30 8165 C 772.619 3.59751 0.35518 0
M  V30 8166 O 772.34 4.29747 -0.851425 0
M  V30 8167 C 773.841 4.3296 0.951877 0
M  V30 8168 H 771.061 0.670929 -0.00978923 0
M  V30 8169 H 773.605 1.93293 -0.667676 0
M  V30 8170 H 771.76 3.7301 1.04605 0
M  V30 8171 H 772.174 5.2106 -0.599708 0
M  V30 8172 H 773.648 5.40952 1.09888 0
M  V30 8173 H 774.125 3.93856 1.94356 0
M  V30 8174 H 774.731 4.24246 0.299208 0
M  V30 8175 N 773.046 0.209999 1.56195 0
M  V30 8176 C 774.323 -0.473214 1.89789 0
M  V30 8177 C 774.703 -1.78581 1.1257 0
M  V30 8178 O 774.051 -2.27325 0.231398 0
M  V30 8179 C 774.261 -0.677458 3.42362 0
M  V30 8180 C 775.609 -0.990114 4.12895 0
M  V30 8181 O 776.633 -0.764655 3.47896 0
M  V30 8182 O 775.492 -1.41737 5.278 0
M  V30 8183 H 772.586 -0.248622 0.788743 0
M  V30 8184 H 775.132 0.251324 1.67829 0
M  V30 8185 H 773.904 0.248878 3.90508 0
M  V30 8186 H 773.527 -1.45391 3.70064 0
M  V30 8187 N 774.524 -1.57472 -0.0634922 0
M  V30 8188 C 775.752 -1.91887 -0.773767 0
M  V30 8189 C 776.167 -0.806733 -1.70696 0
M  V30 8190 O 775.524 0.219383 -1.81177 0
M  V30 8191 C 775.575 -3.26092 -1.56034 0
M  V30 8192 O 775.296 -4.33029 -0.66464 0
M  V30 8193 C 776.797 -3.74573 -2.37087 0
M  V30 8194 H 774.017 -0.634074 -0.219525 0
M  V30 8195 H 776.561 -2.04476 -0.0312828 0
M  V30 8196 H 774.716 -3.15004 -2.25502 0
M  V30 8197 H 775.13 -5.10291 -1.21258 0
M  V30 8198 H 776.604 -4.71084 -2.87722 0
M  V30 8199 H 777.081 -3.04003 -3.16984 0
M  V30 8200 H 777.687 -3.88631 -1.72759 0
M  V30 8201 N 776.003 0.335068 -1.53997 0
M  V30 8202 C 777.25 1.07435 -1.71651 0
M  V30 8203 C 777.578 1.88378 -0.48413 0
M  V30 8204 O 776.833 1.8827 0.534139 0
M  V30 8205 C 777.132 2.0364 -2.9371 0
M  V30 8206 C 776.798 1.38942 -4.28959 0
M  V30 8207 C 775.46 1.21027 -4.65732 0
M  V30 8208 C 777.812 0.924083 -5.12943 0
M  V30 8209 C 775.14 0.552097 -5.84097 0
M  V30 8210 C 777.492 0.27978 -6.31981 0
M  V30 8211 C 776.156 0.0883843 -6.67441 0
M  V30 8212 H 775.426 0.393133 -0.628114 0
M  V30 8213 H 778.073 0.352712 -1.88224 0
M  V30 8214 H 776.378 2.82215 -2.71775 0
M  V30 8215 H 778.075 2.6085 -3.04562 0
M  V30 8216 H 774.665 1.53885 -4.00022 0
M  V30 8217 H 778.849 1.05032 -4.85059 0
M  V30 8218 H 774.105 0.392502 -6.10139 0
M  V30 8219 H 778.279 -0.0888479 -6.96343 0
M  V30 8220 H 775.906 -0.423657 -7.59019 0
M  V30 8221 N 777.481 1.45874 0.596531 0
M  V30 8222 C 778.709 1.54013 1.38158 0
M  V30 8223 C 779.124 0.17648 1.87973 0
M  V30 8224 O 778.481 -0.823895 1.62844 0
M  V30 8225 C 778.532 2.53363 2.57855 0
M  V30 8226 O 778.253 3.8443 2.10108 0
M  V30 8227 C 779.754 2.71308 3.50581 0
M  V30 8228 H 776.974 0.521251 0.422538 0
M  V30 8229 H 779.518 1.9116 0.726493 0
M  V30 8230 H 777.673 2.19257 3.19382 0
M  V30 8231 H 778.087 4.38384 2.87958 0
M  V30 8232 H 779.561 3.44776 4.31084 0
M  V30 8233 H 780.038 1.77728 4.01633 0
M  V30 8234 H 780.644 3.06455 2.94899 0
M  V30 8235 N 778.959 -0.83999 1.33349 0
M  V30 8236 C 779.889 -1.965 1.26135 0
M  V30 8237 C 780.87 -1.69505 0.142152 0
M  V30 8238 O 782.055 -1.91346 0.331743 0
M  V30 8239 C 779.185 -3.32632 0.99866 0
M  V30 8240 C 778.139 -3.74021 2.08068 0
M  V30 8241 C 777.465 -5.07947 1.67014 0
M  V30 8242 C 778.765 -3.87925 3.49731 0
M  V30 8243 H 780.459 -2.02793 2.20262 0
M  V30 8244 H 778.005 -0.974297 1.06035 0
M  V30 8245 H 779.958 -4.10903 0.934696 0
M  V30 8246 H 778.682 -3.26593 0.0217759 0
M  V30 8247 H 777.341 -2.98012 2.13505 0
M  V30 8248 H 776.989 -4.98378 0.680316 0
M  V30 8249 H 776.689 -5.36611 2.39422 0
M  V30 8250 H 778.213 -5.88695 1.62082 0
M  V30 8251 H 779.627 -4.5651 3.46802 0
M  V30 8252 H 778.024 -4.28023 4.20614 0
M  V30 8253 H 779.094 -2.90407 3.88319 0
M  V30 8254 N 780.437 -1.16799 -1.0581 0
M  V30 8255 C 781.369 -0.836774 -2.13379 0
M  V30 8256 C 782.382 0.158116 -1.6203 0
M  V30 8257 O 783.571 -0.0673211 -1.78373 0
M  V30 8258 C 780.671 -0.225959 -3.38146 0
M  V30 8259 C 779.844 -1.26217 -4.18794 0
M  V30 8260 C 778.903 -0.670257 -5.21914 0
M  V30 8261 O 777.929 -1.34042 -5.53192 0
M  V30 8262 N 779.131 0.540683 -5.77977 0
M  V30 8263 H 781.896 -1.76257 -2.42391 0
M  V30 8264 H 779.457 -1.06599 -1.21853 0
M  V30 8265 H 781.449 0.18317 -4.04285 0
M  V30 8266 H 780.019 0.603494 -3.06719 0
M  V30 8267 H 779.239 -1.84729 -3.48237 0
M  V30 8268 H 780.527 -1.9613 -4.69479 0
M  V30 8269 H 779.925 1.10322 -5.54838 0
M  V30 8270 H 778.482 0.891958 -6.45668 0
M  V30 8271 N 781.915 1.24427 -0.967243 0
M  V30 8272 C 782.878 2.23637 -0.501927 0
M  V30 8273 C 783.878 1.55712 0.401283 0
M  V30 8274 O 785.068 1.73085 0.196808 0
M  V30 8275 C 782.2 3.39804 0.273176 0
M  V30 8276 H 783.393 2.66317 -1.37897 0
M  V30 8277 H 780.946 1.37033 -0.751783 0
M  V30 8278 H 781.681 3.02562 1.16733 0
M  V30 8279 H 781.466 3.90303 -0.37498 0
M  V30 8280 H 782.956 4.13443 0.587776 0
M  V30 8281 N 783.393 0.737304 1.3929 0
M  V30 8282 C 784.343 0.0748537 2.27877 0
M  V30 8283 C 785.327 -0.71022 1.44377 0
M  V30 8284 O 786.519 -0.578851 1.67267 0
M  V30 8285 C 783.648 -0.82991 3.33118 0
M  V30 8286 C 782.734 -0.0388619 4.24082 0
M  V30 8287 N 783.125 0.989182 4.96033 0
M  V30 8288 C 781.423 -0.268167 4.45193 0
M  V30 8289 C 782.124 1.46639 5.62914 0
M  V30 8290 N 781.1 0.784581 5.37908 0
M  V30 8291 H 784.902 0.862457 2.80961 0
M  V30 8292 H 782.416 0.571845 1.51999 0
M  V30 8293 H 784.413 -1.31999 3.95452 0
M  V30 8294 H 783.073 -1.61665 2.81593 0
M  V30 8295 H 784.084 1.3706 4.99435 0
M  V30 8296 H 780.761 -1.02953 4.04607 0
M  V30 8297 H 782.151 2.32182 6.30508 0
M  V30 8298 N 784.871 -1.49948 0.485112 0
M  V30 8299 C 786.148 -1.95186 -0.12726 0
M  V30 8300 C 786.528 -1.42605 -1.5565 0
M  V30 8301 O 785.876 -0.632986 -2.19558 0
M  V30 8302 C 786.086 -3.48955 -0.0562117 0
M  V30 8303 C 787.434 -4.23932 -0.238106 0
M  V30 8304 O 788.458 -3.55955 -0.132145 0
M  V30 8305 O 787.317 -5.44614 -0.453658 0
M  V30 8306 H 784.411 -0.820433 -0.104014 0
M  V30 8307 H 786.957 -1.60659 0.546517 0
M  V30 8308 H 785.729 -3.79814 0.941122 0
M  V30 8309 H 785.352 -3.90056 -0.770834 0
M  V30 8310 N 786.349 -0.21828 -1.56081 0
M  V30 8311 C 787.281 0.725447 -2.17416 0
M  V30 8312 C 788.294 1.15995 -1.14233 0
M  V30 8313 O 789.483 1.09166 -1.41227 0
M  V30 8314 C 786.583 1.99401 -2.7403 0
M  V30 8315 C 785.756 1.7156 -4.02351 0
M  V30 8316 C 784.815 2.8309 -4.43561 0
M  V30 8317 O 783.841 2.51701 -5.10525 0
M  V30 8318 N 785.043 4.11972 -4.08973 0
M  V30 8319 H 787.808 0.200801 -2.99027 0
M  V30 8320 H 785.369 -0.0371514 -1.61857 0
M  V30 8321 H 787.361 2.73198 -2.98571 0
M  V30 8322 H 785.931 2.42923 -1.96742 0
M  V30 8323 H 785.151 0.814233 -3.85699 0
M  V30 8324 H 786.439 1.50385 -4.86068 0
M  V30 8325 H 785.837 4.40319 -3.55156 0
M  V30 8326 H 784.394 4.82323 -4.38415 0
M  V30 8327 N 787.827 1.57504 0.0551401 0
M  V30 8328 C 789.074 1.88055 0.751104 0
M  V30 8329 C 789.402 0.812231 1.76729 0
M  V30 8330 O 788.657 -0.189918 1.94776 0
M  V30 8331 C 788.956 3.25311 1.48013 0
M  V30 8332 C 788.622 4.46858 0.602375 0
M  V30 8333 C 787.284 4.79847 0.360536 0
M  V30 8334 C 789.636 5.212 -0.00524047 0
M  V30 8335 C 786.964 5.84582 -0.498127 0
M  V30 8336 C 789.316 6.26844 -0.851453 0
M  V30 8337 C 787.98 6.58324 -1.103 0
M  V30 8338 H 787.25 0.688142 0.274848 0
M  V30 8339 H 789.897 1.91497 0.0114795 0
M  V30 8340 H 788.202 3.17737 2.29239 0
M  V30 8341 H 789.899 3.46189 2.02371 0
M  V30 8342 H 786.489 4.21049 0.801007 0
M  V30 8343 H 790.673 4.96013 0.168682 0
M  V30 8344 H 785.929 6.07361 -0.701594 0
M  V30 8345 H 790.103 6.83603 -1.32893 0
M  V30 8346 H 787.73 7.39304 -1.77011 0
M  V30 8347 N 789.305 -0.326896 1.54172 0
M  V30 8348 C 790.53 -1.08924 1.76494 0
M  V30 8349 C 790.955 -1.81039 0.510523 0
M  V30 8350 O 790.313 -1.73141 -0.537756 0
M  V30 8351 C 790.361 -2.06558 2.95578 0
M  V30 8352 O 789.465 -3.14394 2.6689 0
M  V30 8353 H 788.806 -0.314216 0.584948 0
M  V30 8354 H 791.336 -0.372207 2.01186 0
M  V30 8355 H 791.346 -2.49487 3.22832 0
M  V30 8356 H 790.021 -1.53469 3.86549 0
M  V30 8357 H 788.598 -2.76164 2.50576 0
M  V30 8358 N 790.784 -1.46188 -0.588786 0
M  V30 8359 C 792.195 -1.45421 -1.17088 0
M  V30 8360 C 792.546 -0.191801 -1.9526 0
M  V30 8361 O 791.671 0.705497 -2.04577 0
M  V30 8362 C 792.266 -2.63467 -2.13004 0
M  V30 8363 C 790.825 -2.6576 -2.6655 0
M  V30 8364 C 789.972 -2.38002 -1.42304 0
M  V30 8365 H 792.923 -1.54156 -0.377052 0
M  V30 8366 H 792.944 -2.38638 -2.96365 0
M  V30 8367 H 792.456 -3.55331 -1.56081 0
M  V30 8368 H 790.557 -1.77952 -3.27359 0
M  V30 8369 H 790.67 -3.65545 -3.09699 0
M  V30 8370 H 789.034 -1.87936 -1.71907 0
M  V30 8371 H 789.817 -3.32035 -0.872209 0
M  V30 8372 N 792.262 0.832906 -1.33792 0
M  V30 8373 C 793.509 1.58853 -1.25586 0
M  V30 8374 C 793.837 1.93695 0.176807 0
M  V30 8375 O 793.092 1.59386 1.13554 0
M  V30 8376 C 793.391 2.9047 -2.08235 0
M  V30 8377 C 793.057 2.74965 -3.57358 0
M  V30 8378 C 791.719 2.70444 -3.98012 0
M  V30 8379 C 794.071 2.59347 -4.52093 0
M  V30 8380 C 791.399 2.48212 -5.31608 0
M  V30 8381 C 793.751 2.38649 -5.85858 0
M  V30 8382 C 792.415 2.32533 -6.25687 0
M  V30 8383 H 791.685 0.581285 -0.459553 0
M  V30 8384 H 794.332 0.964501 -1.65438 0
M  V30 8385 H 792.637 3.57111 -1.6118 0
M  V30 8386 H 794.334 3.48001 -1.99239 0
M  V30 8387 H 790.924 2.79319 -3.25083 0
M  V30 8388 H 795.108 2.6187 -4.2159 0
M  V30 8389 H 790.364 2.41929 -5.61498 0
M  V30 8390 H 794.538 2.25549 -6.58863 0
M  V30 8391 H 792.165 2.15067 -7.29143 0
M  V30 8392 N 793.74 1.17359 1.05189 0
M  V30 8393 C 794.965 0.98709 1.82404 0
M  V30 8394 C 795.39 -0.459848 1.82392 0
M  V30 8395 O 794.748 -1.32924 1.23292 0
M  V30 8396 C 794.796 1.53276 3.26403 0
M  V30 8397 O 793.9 0.746541 4.05587 0
M  V30 8398 H 793.241 0.35047 0.563974 0
M  V30 8399 H 795.771 1.55856 1.32552 0
M  V30 8400 H 795.781 1.55504 3.77203 0
M  V30 8401 H 794.456 2.58603 3.25726 0
M  V30 8402 H 793.033 0.795671 3.64312 0
M  V30 8403 N 795.218 -1.23913 0.973828 0
M  V30 8404 C 796.443 -1.96735 0.656511 0
M  V30 8405 C 796.868 -1.71682 -0.768571 0
M  V30 8406 O 796.226 -0.984267 -1.52256 0
M  V30 8407 C 796.274 -3.48004 0.944735 0
M  V30 8408 O 795.378 -4.12387 0.0333357 0
M  V30 8409 H 794.719 -0.616119 0.247575 0
M  V30 8410 H 797.249 -1.57525 1.30564 0
M  V30 8411 H 797.259 -3.98424 0.87876 0
M  V30 8412 H 795.934 -3.65567 1.98328 0
M  V30 8413 H 794.511 -3.72585 0.153157 0
M  V30 8414 N 796.696 -0.74468 -1.38897 0
M  V30 8415 C 797.921 -0.306119 -2.05128 0
M  V30 8416 C 798.346 1.0541 -1.55789 0
M  V30 8417 O 797.704 1.66993 -0.705909 0
M  V30 8418 C 797.752 -0.328195 -3.59103 0
M  V30 8419 O 796.856 0.680876 -4.06741 0
M  V30 8420 H 796.197 -0.137209 -0.649669 0
M  V30 8421 H 798.727 -1.01331 -1.77745 0
M  V30 8422 H 798.737 -0.175956 -4.0762 0
M  V30 8423 H 797.412 -1.32067 -3.94374 0
M  V30 8424 H 795.989 0.49398 -3.69614 0
M  V30 8425 N 798.174 1.49689 -0.493057 0
M  V30 8426 C 799.399 2.07331 0.0535114 0
M  V30 8427 C 799.824 1.35196 1.30781 0
M  V30 8428 O 799.182 0.406246 1.7669 0
M  V30 8429 C 799.23 3.59364 0.29825 0
M  V30 8430 O 798.334 3.88819 1.37454 0
M  V30 8431 H 797.675 0.663612 -0.0227018 0
M  V30 8432 H 800.205 1.926 -0.690402 0
M  V30 8433 H 800.215 4.04515 0.532159 0
M  V30 8434 H 798.89 4.1128 -0.618207 0
M  V30 8435 H 797.467 3.55487 1.12621 0
M  V30 8436 N 799.652 0.226554 1.55963 0
M  V30 8437 C 800.9 -0.402991 1.98041 0
M  V30 8438 C 801.221 -1.59938 1.11557 0
M  V30 8439 O 800.491 -1.9494 0.193719 0
M  V30 8440 H 799.071 -0.15188 0.731397 0
M  V30 8441 H 801.733 0.320613 1.92245 0
M  V30 8442 H 800.829 -0.725937 3.0354 0
M  V30 8443 N 801.13 -1.57531 -0.0467866 0
M  V30 8444 C 802.546 -1.54451 -0.402107 0
M  V30 8445 C 802.746 -0.950275 -1.77685 0
M  V30 8446 O 801.802 -0.563602 -2.4613 0
M  V30 8447 C 803.115 -2.9899 -0.320212 0
M  V30 8448 C 804.663 -3.10452 -0.398588 0
M  V30 8449 C 805.138 -4.56689 -0.346335 0
M  V30 8450 N 806.629 -4.6142 -0.405666 0
M  V30 8451 C 807.364 -5.72087 -0.387845 0
M  V30 8452 N 806.86 -6.92045 -0.32336 0
M  V30 8453 N 808.653 -5.60404 -0.436263 0
M  V30 8454 H 800.804 -1.94515 0.853087 0
M  V30 8455 H 803.067 -0.891397 0.322669 0
M  V30 8456 H 802.773 -3.46124 0.623794 0
M  V30 8457 H 802.647 -3.60164 -1.1208 0
M  V30 8458 H 805.034 -2.63276 -1.33302 0
M  V30 8459 H 805.115 -2.52142 0.431026 0
M  V30 8460 H 804.759 -5.04527 0.584356 0
M  V30 8461 H 804.689 -5.12889 -1.19382 0
M  V30 8462 H 807.18 -3.75105 -0.458737 0
M  V30 8463 H 807.493 -7.7216 -0.314375 0
M  V30 8464 H 805.838 -6.94396 -0.28967 0
M  V30 8465 H 809.029 -4.65586 -0.48451 0
M  V30 8466 H 809.202 -6.46645 -0.418907 0
M  V30 8467 N 802.608 0.318715 -1.54344 0
M  V30 8468 C 804.024 0.663345 -1.45162 0
M  V30 8469 C 804.224 1.9145 -0.62842 0
M  V30 8470 O 803.28 2.5217 -0.129126 0
M  V30 8471 C 804.593 0.832836 -2.88937 0
M  V30 8472 C 806.141 0.929866 -2.98869 0
M  V30 8473 C 806.616 1.13149 -4.43803 0
M  V30 8474 N 808.107 1.19811 -4.47437 0
M  V30 8475 C 808.842 1.37209 -5.56742 0
M  V30 8476 N 808.338 1.51619 -6.76006 0
M  V30 8477 N 810.131 1.39956 -5.44398 0
M  V30 8478 H 802.282 -0.50357 -2.06344 0
M  V30 8479 H 804.545 -0.163528 -0.933789 0
M  V30 8480 H 804.251 -0.0153519 -3.51697 0
M  V30 8481 H 804.125 1.72721 -3.35332 0
M  V30 8482 H 806.512 1.76855 -2.36233 0
M  V30 8483 H 806.593 0.0118561 -2.55797 0
M  V30 8484 H 806.237 0.297636 -5.07027 0
M  V30 8485 H 806.167 2.06345 -4.84489 0
M  V30 8486 H 808.658 1.101 -3.61506 0
M  V30 8487 H 808.971 1.64599 -7.55067 0
M  V30 8488 H 807.316 1.48708 -6.78904 0
M  V30 8489 H 810.507 1.28298 -4.50175 0
M  V30 8490 H 810.68 1.53172 -6.29637 0
M  V30 8491 N 804.086 1.46499 0.581025 0
M  V30 8492 C 805.016 1.60052 1.70017 0
M  V30 8493 C 805.997 0.450788 1.64018 0
M  V30 8494 O 807.182 0.677237 1.82009 0
M  V30 8495 C 804.312 1.5921 3.08658 0
M  V30 8496 C 803.266 2.73169 3.29488 0
M  V30 8497 C 802.592 2.57389 4.68674 0
M  V30 8498 C 803.892 4.14978 3.1716 0
M  V30 8499 H 805.586 2.53735 1.5893 0
M  V30 8500 H 803.132 1.22113 0.763173 0
M  V30 8501 H 805.085 1.67285 3.86773 0
M  V30 8502 H 803.809 0.620718 3.20647 0
M  V30 8503 H 802.468 2.64566 2.53773 0
M  V30 8504 H 802.116 1.58331 4.77431 0
M  V30 8505 H 801.816 3.33826 4.83564 0
M  V30 8506 H 803.34 2.67358 5.48956 0
M  V30 8507 H 804.754 4.24684 3.85119 0
M  V30 8508 H 803.151 4.92016 3.4357 0
M  V30 8509 H 804.221 4.35016 2.14218 0
M  V30 8510 N 805.565 -0.825799 1.34232 0
M  V30 8511 C 806.513 -1.95792 1.25572 0
M  V30 8512 C 807.507 -1.68695 0.154404 0
M  V30 8513 O 808.713 -1.77147 0.319196 0
M  V30 8514 H 805.088 -0.642949 0.390027 0
M  V30 8515 H 807.059 -2.00219 2.21258 0
M  V30 8516 C 805.808 -3.32245 1.02511 0
M  V30 8517 H 805.131 -3.53642 1.86487 0
M  V30 8518 H 806.571 -4.1192 1.00487 0
M  V30 8519 C 805.03 -3.35803 -0.27167 0
M  V30 8520 O 805.56 -3.80962 -1.274 0
M  V30 8521 N 803.766 -2.89008 -0.303778 0
M  V30 8522 H 803.313 -2.52451 0.512464 0
M  V30 8523 H 803.271 -2.9177 -1.17121 0
M  V30 8524 N 807.043 -1.17915 -1.04565 0
M  V30 8525 C 808.292 -0.965816 -1.77073 0
M  V30 8526 C 808.605 0.506005 -1.88942 0
M  V30 8527 O 809.811 0.837717 -2.58253 0
M  V30 8528 C 808.267 -1.67894 -3.18339 0
M  V30 8529 C 807.875 -3.18972 -3.1458 0
M  V30 8530 C 809.619 -1.54823 -3.9526 0
M  V30 8531 C 807.526 -3.82946 -4.50674 0
M  V30 8532 H 806.456 -0.357729 -0.663736 0
M  V30 8533 H 809.107 -1.41235 -1.17153 0
M  V30 8534 H 807.489 -1.16016 -3.78624 0
M  V30 8535 H 808.663 -3.77835 -2.63776 0
M  V30 8536 H 806.978 -3.32127 -2.51159 0
M  V30 8537 H 809.575 -1.99984 -4.95894 0
M  V30 8538 H 809.918 -0.499727 -4.1329 0
M  V30 8539 H 810.451 -2.03953 -3.41538 0
M  V30 8540 H 807.19 -4.8782 -4.37849 0
M  V30 8541 H 806.71 -3.2887 -5.01602 0
M  V30 8542 H 808.389 -3.85518 -5.196 0
M  V30 8543 N 808.521 1.23394 -0.980386 0
M  V30 8544 C 809.746 1.96384 -0.666935 0
M  V30 8545 C 810.171 1.72087 0.759456 0
M  V30 8546 O 809.529 0.992328 1.51732 0
M  V30 8547 C 809.577 3.47499 -0.963177 0
M  V30 8548 O 808.681 4.12363 -0.0552051 0
M  V30 8549 H 808.022 0.614797 -0.250839 0
M  V30 8550 H 810.552 1.56831 -1.31398 0
M  V30 8551 H 810.562 3.97953 -0.899877 0
M  V30 8552 H 809.237 3.6451 -2.00264 0
M  V30 8553 H 807.814 3.72499 -0.172914 0
M  V30 8554 N 809.999 0.752036 1.385 0
M  V30 8555 C 811.229 0.317812 2.04141 0
M  V30 8556 C 811.637 -1.05822 1.56839 0
M  V30 8557 O 810.98 -1.68311 0.736016 0
M  V30 8558 C 811.042 0.260205 3.58557 0
M  V30 8559 C 810.706 1.57753 4.28909 0
M  V30 8560 C 811.703 2.52642 4.54387 0
M  V30 8561 C 809.388 1.84653 4.67128 0
M  V30 8562 C 811.382 3.72653 5.17116 0
M  V30 8563 C 809.069 3.04938 5.29581 0
M  V30 8564 C 810.067 3.98759 5.54509 0
M  V30 8565 O 809.755 5.16929 6.15662 0
M  V30 8566 H 809.487 0.133931 0.6626 0
M  V30 8567 H 812.041 1.02138 1.78205 0
M  V30 8568 H 810.271 -0.499596 3.83459 0
M  V30 8569 H 811.96 -0.144295 4.05643 0
M  V30 8570 H 812.726 2.33135 4.25292 0
M  V30 8571 H 808.605 1.12464 4.47071 0
M  V30 8572 H 812.149 4.45898 5.36489 0
M  V30 8573 H 808.046 3.24339 5.58099 0
M  V30 8574 H 808.814 5.1749 6.3415 0
M  V30 8575 N 811.477 -1.49425 0.500989 0
M  V30 8576 C 812.705 -2.06861 -0.0403443 0
M  V30 8577 C 813.12 -1.36132 -1.30819 0
M  V30 8578 O 812.477 -0.439647 -1.77125 0
M  V30 8579 C 812.528 -3.6027 -0.297902 0
M  V30 8580 O 812.249 -4.28338 0.919686 0
M  V30 8581 C 813.75 -4.34419 -0.882876 0
M  V30 8582 H 810.97 -0.670688 0.0204619 0
M  V30 8583 H 813.514 -1.92207 0.698342 0
M  V30 8584 H 811.669 -3.74627 -0.98657 0
M  V30 8585 H 812.083 -5.2004 0.682528 0
M  V30 8586 H 813.557 -5.42631 -1.01268 0
M  V30 8587 H 814.034 -3.96898 -1.88066 0
M  V30 8588 H 814.64 -4.24669 -0.231677 0
M  V30 8589 N 812.955 -0.234822 -1.55841 0
M  V30 8590 C 814.371 0.120295 -1.59146 0
M  V30 8591 C 814.571 1.57896 -1.25184 0
M  V30 8592 O 813.627 2.32138 -0.993393 0
M  V30 8593 C 814.94 -0.217984 -2.99909 0
M  V30 8594 C 816.488 -0.161298 -3.12584 0
M  V30 8595 C 816.963 -0.473438 -4.55546 0
M  V30 8596 N 818.454 -0.423494 -4.6126 0
M  V30 8597 C 819.189 -0.638334 -5.69836 0
M  V30 8598 N 818.685 -0.915659 -6.86722 0
M  V30 8599 N 820.478 -0.569864 -5.59204 0
M  V30 8600 H 812.629 -1.18622 -1.76189 0
M  V30 8601 H 814.892 -0.476426 -0.819587 0
M  V30 8602 H 814.598 -1.2309 -3.29457 0
M  V30 8603 H 814.472 0.460707 -3.74376 0
M  V30 8604 H 816.859 0.842274 -2.82825 0
M  V30 8605 H 816.94 -0.873661 -2.40418 0
M  V30 8606 H 816.584 -1.47451 -4.86025 0
M  V30 8607 H 816.514 0.260268 -5.25956 0
M  V30 8608 H 819.005 -0.217383 -3.77274 0
M  V30 8609 H 819.318 -1.06734 -7.65394 0
M  V30 8610 H 817.663 -0.953 -6.88435 0
M  V30 8611 H 820.854 -0.35334 -4.66765 0
M  V30 8612 H 821.027 -0.740698 -6.43753 0
M  V30 8613 N 814.433 1.57553 0.0384317 0
M  V30 8614 C 815.381 2.07021 1.06043 0
M  V30 8615 C 816.375 0.982078 1.38028 0
M  V30 8616 O 817.581 1.16702 1.37042 0
M  V30 8617 H 813.956 0.660522 0.359464 0
M  V30 8618 H 815.927 2.91944 0.617339 0
M  V30 8619 C 814.676 2.55734 2.35574 0
M  V30 8620 H 813.999 3.39074 2.11822 0
M  V30 8621 H 815.439 2.94066 3.05452 0
M  V30 8622 C 813.898 1.45449 3.03885 0
M  V30 8623 O 814.428 0.815402 3.93337 0
M  V30 8624 N 812.634 1.19134 2.65058 0
M  V30 8625 H 812.181 1.71288 1.92401 0
M  V30 8626 H 812.139 0.455554 3.11082 0
M  V30 8627 N 815.911 -0.310526 1.54511 0
M  V30 8628 C 816.844 -1.40693 1.79668 0
M  V30 8629 C 817.822 -1.49159 0.64734 0
M  V30 8630 O 819.006 -1.66367 0.886239 0
M  V30 8631 C 816.133 -2.78685 1.92491 0
M  V30 8632 C 815.179 -2.87688 3.14861 0
M  V30 8633 S 816.012 -2.50759 4.7316 0
M  V30 8634 C 817.168 -3.90797 4.88906 0
M  V30 8635 H 817.401 -1.19142 2.72383 0
M  V30 8636 H 814.934 -0.508103 1.458 0
M  V30 8637 H 816.892 -3.58168 2.00563 0
M  V30 8638 H 815.553 -2.9751 1.00731 0
M  V30 8639 H 814.746 -3.8888 3.20607 0
M  V30 8640 H 814.348 -2.16189 3.05186 0
M  V30 8641 H 816.64 -4.85693 4.72344 0
M  V30 8642 H 817.583 -3.90027 5.91003 0
M  V30 8643 H 817.991 -3.80357 4.1712 0
M  V30 8644 N 817.389 -1.46805 -0.573248 0
M  V30 8645 C 818.617 -1.56191 -1.3569 0
M  V30 8646 C 819.032 -0.206362 -1.87669 0
M  V30 8647 O 818.389 0.797883 -1.64134 0
M  V30 8648 C 818.44 -2.57433 -2.53792 0
M  V30 8649 O 818.161 -3.87724 -2.03965 0
M  V30 8650 C 819.662 -2.76851 -3.4622 0
M  V30 8651 H 816.882 -0.527907 -0.414192 0
M  V30 8652 H 819.426 -1.92292 -0.695989 0
M  V30 8653 H 817.581 -2.24311 -3.15854 0
M  V30 8654 H 817.995 -4.42909 -2.80948 0
M  V30 8655 H 819.469 -3.5159 -4.25545 0
M  V30 8656 H 819.946 -1.84095 -3.98755 0
M  V30 8657 H 820.552 -3.11107 -2.89987 0
M  V30 8658 N 818.867 0.818669 -1.34668 0
M  V30 8659 C 819.797 1.94468 -1.29245 0
M  V30 8660 C 820.778 1.69257 -0.169101 0
M  V30 8661 O 821.963 1.90794 -0.362143 0
M  V30 8662 C 819.093 3.31001 -1.05145 0
M  V30 8663 C 818.047 3.70663 -2.13992 0
M  V30 8664 C 817.373 5.05226 -1.75074 0
M  V30 8665 C 818.673 3.82312 -3.55858 0
M  V30 8666 H 820.367 1.99263 -2.2346 0
M  V30 8667 H 817.913 0.957304 -1.07572 0
M  V30 8668 H 819.866 4.09364 -0.999949 0
M  V30 8669 H 818.59 3.26517 -0.0737312 0
M  V30 8670 H 817.249 2.94578 -2.18219 0
M  V30 8671 H 816.897 4.97233 -0.759518 0
M  V30 8672 H 816.597 5.32734 -2.47928 0
M  V30 8673 H 818.121 5.86042 -1.71427 0
M  V30 8674 H 819.535 4.50935 -3.5402 0
M  V30 8675 H 817.932 4.21278 -4.2737 0
M  V30 8676 H 819.002 2.84193 -3.9289 0
M  V30 8677 N 820.346 1.18468 1.03938 0
M  V30 8678 C 821.293 0.912859 2.1198 0
M  V30 8679 C 822.263 -0.14824 1.65437 0
M  V30 8680 O 823.448 -0.008331 1.90798 0
M  V30 8681 C 820.588 0.446114 3.42204 0
M  V30 8682 C 819.701 1.57278 4.02353 0
M  V30 8683 C 818.836 1.05863 5.20544 0
M  V30 8684 C 817.875 2.1599 5.72726 0
M  V30 8685 N 817.012 1.65959 6.82204 0
M  V30 8686 H 821.852 1.83798 2.34569 0
M  V30 8687 H 819.389 0.916504 1.15059 0
M  V30 8688 H 821.347 0.15697 4.16905 0
M  V30 8689 H 819.977 -0.442025 3.19759 0
M  V30 8690 H 819.029 1.97737 3.24968 0
M  V30 8691 H 820.341 2.40289 4.37107 0
M  V30 8692 H 819.495 0.724087 6.02364 0
M  V30 8693 H 818.234 0.198116 4.87297 0
M  V30 8694 H 817.239 2.50287 4.89527 0
M  V30 8695 H 818.464 3.02479 6.08016 0
M  V30 8696 H 816.41 0.82199 6.5083 0
M  V30 8697 H 816.327 2.42567 7.16029 0
M  V30 8698 H 817.595 1.35436 7.67644 0
M  V30 8699 N 821.824 -1.22873 0.986916 0
M  V30 8700 C 823.101 -1.86939 0.575589 0
M  V30 8701 C 823.481 -1.88656 -0.947205 0
M  V30 8702 O 822.829 -1.3728 -1.82665 0
M  V30 8703 C 823.039 -3.28117 1.18914 0
M  V30 8704 C 824.387 -4.04659 1.28593 0
M  V30 8705 O 825.411 -3.3736 1.14308 0
M  V30 8706 O 824.27 -5.25112 1.51391 0
M  V30 8707 H 821.364 -0.803748 0.194724 0
M  V30 8708 H 823.91 -1.30698 1.08241 0
M  V30 8709 H 822.682 -3.21468 2.231 0
M  V30 8710 H 822.305 -3.91956 0.667535 0
M  V30 8711 N 823.302 -0.75937 -1.38099 0
M  V30 8712 C 824.55 -0.317485 -1.99591 0
M  V30 8713 C 824.871 1.10628 -1.60581 0
M  V30 8714 O 824.141 1.7575 -0.865378 0
M  V30 8715 H 822.721 -0.114397 -0.738189 0
M  V30 8716 H 825.383 -0.974749 -1.68774 0
M  V30 8717 H 824.479 -0.385227 -3.09713 0
M  V30 8718 N 824.78 1.49157 -0.508906 0
M  V30 8719 C 825.727 2.2927 0.265288 0
M  V30 8720 C 826.697 1.3603 0.953162 0
M  V30 8721 O 827.882 1.64989 0.958291 0
M  V30 8722 C 825.022 3.18897 1.31904 0
M  V30 8723 C 824.135 4.27201 0.642144 0
M  V30 8724 C 823.27 5.04033 1.67701 0
M  V30 8725 C 822.309 6.04165 0.982422 0
M  V30 8726 N 821.446 6.74133 1.96186 0
M  V30 8727 H 826.286 2.94967 -0.424107 0
M  V30 8728 H 823.823 1.45431 -0.220991 0
M  V30 8729 H 825.781 3.69242 1.94206 0
M  V30 8730 H 824.411 2.55168 1.97709 0
M  V30 8731 H 823.463 3.80283 -0.0943395 0
M  V30 8732 H 824.775 4.98708 0.0957507 0
M  V30 8733 H 823.929 5.58287 2.37487 0
M  V30 8734 H 822.668 4.32317 2.25728 0
M  V30 8735 H 821.673 5.49135 0.270378 0
M  V30 8736 H 822.898 6.7787 0.408554 0
M  V30 8737 H 820.844 6.05183 2.53159 0
M  V30 8738 H 820.761 7.41643 1.46634 0
M  V30 8739 H 822.029 7.32987 2.65236 0
M  V30 8740 N 826.258 0.243083 1.55714 0
M  V30 8741 C 827.206 -0.674349 2.2261 0
M  V30 8742 C 828.2 -1.18307 1.21243 0
M  V30 8743 O 829.406 -1.1404 1.39265 0
M  V30 8744 H 825.781 -0.235941 0.714028 0
M  V30 8745 H 827.752 -0.0869446 2.98273 0
M  V30 8746 C 826.501 -1.86206 2.93637 0
M  V30 8747 H 825.824 -1.47975 3.71407 0
M  V30 8748 H 827.264 -2.4813 3.43813 0
M  V30 8749 C 825.723 -2.73084 1.97298 0
M  V30 8750 O 826.253 -3.72497 1.50361 0
M  V30 8751 N 824.459 -2.39571 1.64482 0
M  V30 8752 H 824.006 -1.5878 2.02846 0
M  V30 8753 H 823.964 -2.97976 1.00288 0
M  V30 8754 N 827.736 -1.57571 -0.0300757 0
M  V30 8755 C 828.684 -2.0758 -1.04944 0
M  V30 8756 C 829.678 -0.989384 -1.37505 0
M  V30 8757 O 830.884 -1.17427 -1.36422 0
M  V30 8758 H 827.259 -0.662419 -0.355956 0
M  V30 8759 H 829.23 -2.92268 -0.601848 0
M  V30 8760 C 827.979 -2.5698 -2.34215 0
M  V30 8761 H 827.302 -3.40193 -2.10021 0
M  V30 8762 H 828.742 -2.95682 -3.03888 0
M  V30 8763 C 827.201 -1.47059 -3.03109 0
M  V30 8764 O 827.731 -0.83625 -3.92899 0
M  V30 8765 N 825.937 -1.20538 -2.64422 0
M  V30 8766 H 825.484 -1.72305 -1.9149 0
M  V30 8767 H 825.442 -0.472045 -3.10836 0
M  V30 8768 N 829.214 0.302327 -1.54673 0
M  V30 8769 C 830.46 1.03924 -1.74149 0
M  V30 8770 C 830.793 1.86968 -0.525041 0
M  V30 8771 O 830.068 1.88538 0.477868 0
M  V30 8772 C 830.351 1.94633 -3.02969 0
M  V30 8773 C 830.204 1.14778 -4.34909 0
M  V30 8774 C 831.523 2.93826 -3.27649 0
M  V30 8775 H 828.642 0.376405 -0.633631 0
M  V30 8776 H 831.284 0.314007 -1.87387 0
M  V30 8777 H 829.434 2.56471 -2.91813 0
M  V30 8778 H 831.106 0.552363 -4.57981 0
M  V30 8779 H 829.349 0.450462 -4.31455 0
M  V30 8780 H 830.02 1.81495 -5.21309 0
M  V30 8781 H 832.496 2.42117 -3.38406 0
M  V30 8782 H 831.372 3.54462 -4.19104 0
M  V30 8783 H 831.633 3.67416 -2.45882 0
M  V30 8784 N 830.692 1.47107 0.565454 0
M  V30 8785 C 831.655 1.58535 1.65527 0
M  V30 8786 C 832.655 0.461081 1.54048 0
M  V30 8787 O 833.845 0.725911 1.58355 0
M  V30 8788 C 830.977 1.52204 3.05036 0
M  V30 8789 H 832.17 2.55676 1.56747 0
M  V30 8790 H 829.723 1.35174 0.78471 0
M  V30 8791 H 830.458 0.564071 3.19357 0
M  V30 8792 H 830.243 2.3379 3.14777 0
M  V30 8793 H 831.733 1.63322 3.84338 0
M  V30 8794 N 832.17 -0.811516 1.35101 0
M  V30 8795 C 833.419 -1.56343 1.27435 0
M  V30 8796 C 833.732 -1.95019 -0.150696 0
M  V30 8797 O 834.938 -2.6924 -0.349586 0
M  V30 8798 C 833.394 -2.82124 2.23459 0
M  V30 8799 C 833.002 -2.50706 3.71283 0
M  V30 8800 C 834.746 -3.60137 2.24726 0
M  V30 8801 C 832.653 -3.72748 4.59143 0
M  V30 8802 H 831.583 -0.58682 0.473453 0
M  V30 8803 H 834.234 -0.892465 1.60335 0
M  V30 8804 H 832.616 -3.50905 1.83525 0
M  V30 8805 H 833.79 -1.89962 4.19823 0
M  V30 8806 H 832.105 -1.85947 3.72576 0
M  V30 8807 H 834.702 -4.50775 2.87587 0
M  V30 8808 H 835.045 -3.97101 1.24965 0
M  V30 8809 H 835.578 -2.98311 2.63164 0
M  V30 8810 H 832.317 -3.40896 5.59884 0
M  V30 8811 H 831.837 -4.32735 4.15332 0
M  V30 8812 H 833.516 -4.40033 4.74321 0
M  V30 8813 N 833.648 -1.19017 -1.03309 0
M  V30 8814 C 834.611 -0.926076 -2.09658 0
M  V30 8815 C 835.611 0.0917077 -1.60538 0
M  V30 8816 O 836.801 -0.142574 -1.73616 0
M  V30 8817 C 833.933 -0.390958 -3.38651 0
M  V30 8818 H 835.126 -1.86923 -2.3452 0
M  V30 8819 H 832.679 -1.00325 -1.19853 0
M  V30 8820 H 833.414 0.558446 -3.19456 0
M  V30 8821 H 833.199 -1.12474 -3.75622 0
M  V30 8822 H 834.689 -0.225131 -4.16993 0
M  V30 8823 N 835.127 1.22348 -0.993418 0
M  V30 8824 C 836.373 1.91393 -0.67056 0
M  V30 8825 C 836.706 1.77163 0.795428 0
M  V30 8826 O 835.981 1.14084 1.57528 0
M  V30 8827 C 836.264 3.43589 -1.0779 0
M  V30 8828 C 836.117 3.66867 -2.60248 0
M  V30 8829 C 837.436 4.35545 -0.631527 0
M  V30 8830 H 834.555 0.695057 -0.24508 0
M  V30 8831 H 837.197 1.44213 -1.23703 0
M  V30 8832 H 835.347 3.83903 -0.595902 0
M  V30 8833 H 837.019 3.35954 -3.16121 0
M  V30 8834 H 835.262 3.1113 -3.02293 0
M  V30 8835 H 835.933 4.73457 -2.838 0
M  V30 8836 H 838.409 4.0275 -1.04554 0
M  V30 8837 H 837.285 5.40707 -0.944831 0
M  V30 8838 H 837.546 4.39618 0.467779 0
M  V30 8839 N 836.605 0.766683 1.37694 0
M  V30 8840 C 837.833 0.339939 2.04088 0
M  V30 8841 C 838.248 -1.03617 1.57826 0
M  V30 8842 O 837.605 -1.6605 0.757214 0
M  V30 8843 C 837.656 0.368269 3.59619 0
M  V30 8844 O 837.377 1.69009 4.04188 0
M  V30 8845 C 838.878 -0.0707053 4.43244 0
M  V30 8846 H 836.098 0.143189 0.655544 0
M  V30 8847 H 838.642 1.03919 1.76128 0
M  V30 8848 H 836.797 -0.282359 3.8637 0
M  V30 8849 H 837.211 1.62523 4.98685 0
M  V30 8850 H 838.685 0.000273538 5.52 0
M  V30 8851 H 839.162 -1.1204 4.24669 0
M  V30 8852 H 839.768 0.551543 4.21709 0
M  V30 8853 N 838.083 -1.48885 0.516809 0
M  V30 8854 C 839.313 -2.06592 -0.018375 0
M  V30 8855 C 839.721 -1.37543 -1.29917 0
M  V30 8856 O 839.064 -0.452527 -1.78039 0
M  V30 8857 C 839.126 -3.58016 -0.326315 0
M  V30 8858 C 838.79 -4.48853 0.859072 0
M  V30 8859 C 839.787 -4.89422 1.75391 0
M  V30 8860 C 837.472 -4.90937 1.06235 0
M  V30 8861 C 839.466 -5.70831 2.83604 0
M  V30 8862 C 837.153 -5.72119 2.14763 0
M  V30 8863 C 838.151 -6.11972 3.03281 0
M  V30 8864 O 837.839 -6.91527 4.09934 0
M  V30 8865 H 837.571 -0.675559 0.0244023 0
M  V30 8866 H 840.125 -1.92442 0.718005 0
M  V30 8867 H 838.355 -3.70231 -1.1165 0
M  V30 8868 H 840.044 -3.97898 -0.801999 0
M  V30 8869 H 840.81 -4.57542 1.60875 0
M  V30 8870 H 836.689 -4.59409 0.382677 0
M  V30 8871 H 840.233 -6.01857 3.52724 0
M  V30 8872 H 836.13 -6.03412 2.29268 0
M  V30 8873 H 836.898 -7.0986 4.07482 0
M  V30 8874 N 839.561 -0.251338 -1.55583 0
M  V30 8875 C 840.509 0.662534 -2.22965 0
M  V30 8876 C 841.503 1.17662 -1.21869 0
M  V30 8877 O 842.709 1.133 -1.39868 0
M  V30 8878 H 839.084 0.232151 -0.715269 0
M  V30 8879 H 841.055 0.0711252 -2.98315 0
M  V30 8880 C 839.804 1.84646 -2.94621 0
M  V30 8881 H 839.127 1.46003 -3.72187 0
M  V30 8882 H 840.567 2.46303 -3.45124 0
M  V30 8883 C 839.026 2.72034 -1.98744 0
M  V30 8884 O 839.556 3.71695 -1.52335 0
M  V30 8885 N 837.762 2.38695 -1.6575 0
M  V30 8886 H 837.309 1.57702 -2.03685 0
M  V30 8887 H 837.267 2.9744 -1.01867 0
M  V30 8888 N 841.039 1.57585 0.0217189 0
M  V30 8889 C 841.989 2.03506 1.02807 0
M  V30 8890 C 842.973 0.925716 1.31603 0
M  V30 8891 O 844.165 1.18958 1.31065 0
M  V30 8892 C 841.294 2.52407 2.32693 0
M  V30 8893 C 840.38 3.70176 2.06955 0
M  V30 8894 N 840.771 4.82641 1.513 0
M  V30 8895 C 839.069 3.77691 2.37204 0
M  V30 8896 C 839.77 5.64218 1.41536 0
M  V30 8897 N 838.746 5.09557 1.89348 0
M  V30 8898 H 842.548 2.87878 0.591899 0
M  V30 8899 H 840.062 1.60793 0.227875 0
M  V30 8900 H 842.059 2.83569 3.05605 0
M  V30 8901 H 840.719 1.69444 2.76982 0
M  V30 8902 H 841.73 5.03931 1.19472 0
M  V30 8903 H 838.407 3.05542 2.84517 0
M  V30 8904 H 839.797 6.64576 0.989333 0
M  V30 8905 N 842.517 -0.29412 1.54831 0
M  V30 8906 C 843.794 -1.04847 1.65126 0
M  V30 8907 C 844.174 -2.04996 0.503986 0
M  V30 8908 O 843.522 -2.22996 -0.498496 0
M  V30 8909 C 843.732 -1.72418 3.03435 0
M  V30 8910 C 845.08 -2.24362 3.60481 0
M  V30 8911 O 846.104 -1.8244 3.05932 0
M  V30 8912 O 844.963 -3.01196 4.56008 0
M  V30 8913 H 842.057 -0.485032 0.669831 0
M  V30 8914 H 844.603 -0.291659 1.67175 0
M  V30 8915 H 843.375 -0.997351 3.78376 0
M  V30 8916 H 842.998 -2.54839 3.05193 0
M  V30 8917 N 843.995 -1.47404 -0.557645 0
M  V30 8918 C 845.243 -1.53703 -1.31224 0
M  V30 8919 C 845.564 -0.200742 -1.93964 0
M  V30 8920 O 844.834 0.775253 -1.79907 0
M  V30 8921 H 843.414 -0.566171 -0.487299 0
M  V30 8922 H 846.076 -1.83699 -0.651195 0
M  V30 8923 H 845.172 -2.30335 -2.10599 0
M  V30 8924 N 845.473 0.80434 -1.35529 0
M  V30 8925 C 846.698 1.598 -1.32207 0
M  V30 8926 C 847.123 1.87848 0.0974226 0
M  V30 8927 O 846.481 1.46728 1.06492 0
M  V30 8928 C 846.529 2.90483 -2.13663 0
M  V30 8929 O 845.633 3.83411 -1.51888 0
M  V30 8930 H 844.974 0.485305 -0.453183 0
M  V30 8931 H 847.504 0.998119 -1.78602 0
M  V30 8932 H 847.514 3.39888 -2.257 0
M  V30 8933 H 846.189 2.69395 -3.16859 0
M  V30 8934 H 844.766 3.41967 -1.48704 0
M  V30 8935 N 846.951 1.19563 1.02676 0
M  V30 8936 C 848.181 1.0234 1.79472 0
M  V30 8937 C 848.589 -0.430891 1.84228 0
M  V30 8938 O 847.932 -1.31106 1.28674 0
M  V30 8939 C 847.994 1.51901 3.25832 0
M  V30 8940 C 847.658 3.00045 3.44706 0
M  V30 8941 C 848.655 3.9779 3.34752 0
M  V30 8942 C 846.34 3.38784 3.70851 0
M  V30 8943 C 848.334 5.32267 3.50672 0
M  V30 8944 C 846.021 4.73419 3.86416 0
M  V30 8945 C 847.019 5.69969 3.7633 0
M  V30 8946 O 846.707 7.02165 3.91432 0
M  V30 8947 H 846.439 0.360936 0.571578 0
M  V30 8948 H 848.993 1.58863 1.30198 0
M  V30 8949 H 847.223 0.897546 3.7614 0
M  V30 8950 H 848.912 1.30853 3.84229 0
M  V30 8951 H 849.678 3.69207 3.14502 0
M  V30 8952 H 845.557 2.64183 3.77794 0
M  V30 8953 H 849.101 6.07612 3.42715 0
M  V30 8954 H 844.998 5.01697 4.06165 0
M  V30 8955 H 845.766 7.09268 4.08511 0
M  V30 8956 N 848.429 -1.21819 0.999893 0
M  V30 8957 C 849.654 -1.95298 0.698094 0
M  V30 8958 C 850.079 -1.73273 -0.731982 0
M  V30 8959 O 849.437 -1.01634 -1.50134 0
M  V30 8960 C 849.485 -3.45922 1.01834 0
M  V30 8961 O 848.589 -4.12223 0.120801 0
M  V30 8962 H 847.93 -0.610729 0.260588 0
M  V30 8963 H 850.46 -1.5472 1.33876 0
M  V30 8964 H 850.47 -3.96471 0.963074 0
M  V30 8965 H 849.145 -3.61278 2.06037 0
M  V30 8966 H 847.722 -3.72177 0.232153 0
M  V30 8967 N 849.908 -0.773975 -1.37286 0
M  V30 8968 C 850.841 -0.108019 -2.27944 0
M  V30 8969 C 851.819 0.706737 -1.46438 0
M  V30 8970 O 853.003 0.681025 -1.75768 0
M  V30 8971 C 850.13 0.853199 -3.27778 0
M  V30 8972 C 849.176 0.122164 -4.26325 0
M  V30 8973 S 850.009 -1.19136 -5.22079 0
M  V30 8974 C 851.165 -0.233737 -6.25463 0
M  V30 8975 H 851.398 -0.876743 -2.84078 0
M  V30 8976 H 848.931 -0.567468 -1.43594 0
M  V30 8977 H 850.889 1.40238 -3.85803 0
M  V30 8978 H 849.55 1.59505 -2.70586 0
M  V30 8979 H 848.743 0.850926 -4.96765 0
M  V30 8980 H 848.345 -0.356079 -3.72301 0
M  V30 8981 H 850.637 0.59305 -6.74899 0
M  V30 8982 H 851.58 -0.906373 -7.02275 0
M  V30 8983 H 851.988 0.156048 -5.64284 0
M  V30 8984 N 851.386 1.48609 -0.524698 0
M  V30 8985 C 852.318 2.27508 0.278 0
M  V30 8986 C 853.331 1.35042 0.909258 0
M  V30 8987 O 854.52 1.60136 0.788592 0
M  V30 8988 C 851.62 3.08247 1.40843 0
M  V30 8989 C 850.793 4.28455 0.880083 0
M  V30 8990 C 849.852 4.91048 1.891 0
M  V30 8991 O 848.878 5.5042 1.45005 0
M  V30 8992 N 850.08 4.82816 3.22288 0
M  V30 8993 H 852.845 2.97037 -0.398642 0
M  V30 8994 H 850.406 1.57876 -0.358698 0
M  V30 8995 H 852.398 3.46992 2.08276 0
M  V30 8996 H 850.968 2.41173 1.98883 0
M  V30 8997 H 850.188 3.94189 0.0299228 0
M  V30 8998 H 851.476 5.06279 0.505881 0
M  V30 8999 H 850.874 4.3572 3.60783 0
M  V30 9000 H 849.431 5.25676 3.85368 0
M  V30 9001 N 852.864 0.259585 1.55447 0
M  V30 9002 C 854.113 -0.362163 1.98422 0
M  V30 9003 C 854.426 -1.58135 1.1512 0
M  V30 9004 O 855.632 -2.27506 1.48166 0
M  V30 9005 C 854.088 -0.695722 3.53111 0
M  V30 9006 C 853.696 0.502784 4.4517 0
M  V30 9007 C 855.44 -1.28096 4.04712 0
M  V30 9008 C 853.347 0.144674 5.91223 0
M  V30 9009 H 852.277 -0.139092 0.74106 0
M  V30 9010 H 854.928 0.361798 1.79898 0
M  V30 9011 H 853.31 -1.47816 3.67378 0
M  V30 9012 H 854.484 1.27994 4.42667 0
M  V30 9013 H 852.799 1.0038 4.0412 0
M  V30 9014 H 855.396 -1.56243 5.11363 0
M  V30 9015 H 855.739 -2.20969 3.52815 0
M  V30 9016 H 856.272 -0.561146 3.93822 0
M  V30 9017 H 853.011 1.04087 6.47183 0
M  V30 9018 H 852.531 -0.596023 5.96831 0
M  V30 9019 H 854.21 -0.268651 6.46442 0
M  V30 9020 N 854.342 -1.57594 -0.0133615 0
M  V30 9021 C 855.252 -2.10991 -1.02566 0
M  V30 9022 C 856.268 -1.05208 -1.3859 0
M  V30 9023 O 857.444 -1.37034 -1.47593 0
M  V30 9024 C 854.509 -2.59165 -2.30292 0
M  V30 9025 C 853.57 -3.79495 -2.00704 0
M  V30 9026 C 852.803 -4.25361 -3.22341 0
M  V30 9027 O 853.026 -3.70645 -4.33565 0
M  V30 9028 O 851.96 -5.17649 -3.07121 0
M  V30 9029 H 855.786 -2.97678 -0.601806 0
M  V30 9030 H 853.371 -1.47598 -0.23135 0
M  V30 9031 H 855.253 -2.90409 -3.05354 0
M  V30 9032 H 853.928 -1.75582 -2.71942 0
M  V30 9033 H 852.835 -3.53245 -1.23161 0
M  V30 9034 H 854.168 -4.64109 -1.639 0
M  V30 9035 N 855.82 0.285905 -1.54985 0
M  V30 9036 C 857.097 1.0397 -1.65679 0
M  V30 9037 C 857.477 2.04725 -0.514851 0
M  V30 9038 O 856.825 2.23257 0.486663 0
M  V30 9039 C 857.035 1.70807 -3.04345 0
M  V30 9040 C 858.383 2.22447 -3.61666 0
M  V30 9041 O 859.407 1.80815 -3.06895 0
M  V30 9042 O 858.266 2.98773 -4.57599 0
M  V30 9043 H 855.36 0.481473 -0.672394 0
M  V30 9044 H 857.906 0.282789 -1.67327 0
M  V30 9045 H 856.678 0.977271 -3.789 0
M  V30 9046 H 856.301 2.53217 -3.06541 0
M  V30 9047 N 857.298 1.47698 0.54982 0
M  V30 9048 C 858.245 1.60739 1.65625 0
M  V30 9049 C 859.215 0.450129 1.59884 0
M  V30 9050 O 860.4 0.671123 1.78607 0
M  V30 9051 C 857.54 1.63457 3.03934 0
M  V30 9052 C 856.653 2.90152 3.20056 0
M  V30 9053 C 855.788 2.84157 4.48807 0
M  V30 9054 C 854.827 4.05644 4.58387 0
M  V30 9055 N 853.964 3.97843 5.78503 0
M  V30 9056 H 858.804 2.55234 1.53817 0
M  V30 9057 H 856.341 1.26593 0.749173 0
M  V30 9058 H 858.299 1.63015 3.84034 0
M  V30 9059 H 856.929 0.724689 3.1456 0
M  V30 9060 H 855.981 3.00428 2.33339 0
M  V30 9061 H 857.293 3.80097 3.22998 0
M  V30 9062 H 856.447 2.82006 5.37175 0
M  V30 9063 H 855.186 1.91908 4.48356 0
M  V30 9064 H 854.191 4.08092 3.6843 0
M  V30 9065 H 855.416 4.9903 4.60593 0
M  V30 9066 H 853.362 3.08401 5.78986 0
M  V30 9067 H 853.279 4.81473 5.82855 0
M  V30 9068 H 854.547 3.99719 6.69212 0
M  V30 9069 N 858.776 -0.797141 1.35954 0
M  V30 9070 C 860.004 -1.5858 1.32891 0
M  V30 9071 C 860.419 -1.88578 -0.0915564 0
M  V30 9072 O 859.776 -1.49532 -1.04625 0
M  V30 9073 C 859.827 -2.91143 2.14284 0
M  V30 9074 O 859.548 -2.62442 3.50793 0
M  V30 9075 C 861.049 -3.85476 2.18914 0
M  V30 9076 H 858.269 -0.492111 0.456144 0
M  V30 9077 H 860.813 -0.98994 1.78943 0
M  V30 9078 H 858.968 -3.47219 1.71807 0
M  V30 9079 H 859.382 -3.4715 3.93175 0
M  V30 9080 H 860.856 -4.75574 2.80238 0
M  V30 9081 H 861.333 -4.22758 1.19047 0
M  V30 9082 H 861.939 -3.35334 2.61593 0
M  V30 9083 N 860.254 -1.20106 -1.0204 0
M  V30 9084 C 861.501 -1.00889 -1.75578 0
M  V30 9085 C 861.829 0.459415 -1.88996 0
M  V30 9086 O 861.084 1.35735 -1.40977 0
M  V30 9087 C 861.383 -1.63308 -3.17908 0
M  V30 9088 C 861.049 -3.13091 -3.24476 0
M  V30 9089 C 859.711 -3.53968 -3.25976 0
M  V30 9090 C 862.063 -4.09093 -3.22944 0
M  V30 9091 C 859.391 -4.89381 -3.2361 0
M  V30 9092 C 861.743 -5.44447 -3.22119 0
M  V30 9093 C 860.407 -5.84742 -3.2192 0
M  V30 9094 H 859.677 -0.36918 -0.642485 0
M  V30 9095 H 862.324 -1.49475 -1.19706 0
M  V30 9096 H 860.629 -1.06974 -3.76914 0
M  V30 9097 H 862.326 -1.45958 -3.73493 0
M  V30 9098 H 858.916 -2.80526 -3.24042 0
M  V30 9099 H 863.1 -3.78549 -3.20958 0
M  V30 9100 H 858.356 -5.1987 -3.21785 0
M  V30 9101 H 862.53 -6.18584 -3.19885 0
M  V30 9102 H 860.157 -6.89642 -3.19841 0
M  V30 9103 N 861.732 1.21287 -1.00634 0
M  V30 9104 C 862.664 2.2308 -0.526094 0
M  V30 9105 C 863.677 1.58157 0.386031 0
M  V30 9106 O 864.866 1.77528 0.186016 0
M  V30 9107 C 861.966 3.37937 0.255289 0
M  V30 9108 C 861.139 4.32449 -0.656236 0
M  V30 9109 C 860.198 5.26145 0.0757714 0
M  V30 9110 O 859.224 5.66601 -0.543325 0
M  V30 9111 N 860.426 5.6449 1.35391 0
M  V30 9112 H 863.191 2.64913 -1.40147 0
M  V30 9113 H 860.752 1.35724 -0.882641 0
M  V30 9114 H 862.744 3.97614 0.753977 0
M  V30 9115 H 861.314 2.95078 1.03187 0
M  V30 9116 H 860.534 3.70892 -1.3354 0
M  V30 9117 H 861.822 4.92526 -1.27653 0
M  V30 9118 H 861.22 5.33617 1.878 0
M  V30 9119 H 859.777 6.26524 1.79753 0
M  V30 9120 N 863.21 0.781244 1.36873 0
M  V30 9121 C 864.456 0.350407 1.9975 0
M  V30 9122 C 864.789 -1.07293 1.6187 0
M  V30 9123 O 864.064 -1.73983 0.869491 0
M  V30 9124 C 864.347 0.504834 3.56544 0
M  V30 9125 C 864.2 1.97127 4.04303 0
M  V30 9126 C 865.519 -0.0851272 4.40018 0
M  V30 9127 H 862.638 0.128794 0.725659 0
M  V30 9128 H 865.28 0.98606 1.6241 0
M  V30 9129 H 863.43 -0.0363006 3.88483 0
M  V30 9130 H 865.102 2.57284 3.82887 0
M  V30 9131 H 863.345 2.47676 3.56145 0
M  V30 9132 H 864.016 2.03033 5.13305 0
M  V30 9133 H 866.492 0.376704 4.14391 0
M  V30 9134 H 865.368 0.0530015 5.48874 0
M  V30 9135 H 865.629 -1.17642 4.2616 0
M  V30 9136 N 864.689 -1.48329 0.532571 0
M  V30 9137 C 865.619 -2.32485 -0.217511 0
M  V30 9138 C 866.6 -1.42255 -0.932598 0
M  V30 9139 O 867.785 -1.7114 -0.917873 0
M  V30 9140 C 864.915 -3.23509 -1.26329 0
M  V30 9141 C 863.869 -4.22784 -0.666191 0
M  V30 9142 C 863.195 -5.0296 -1.81482 0
M  V30 9143 C 864.495 -5.21031 0.363813 0
M  V30 9144 H 866.189 -2.95445 0.485014 0
M  V30 9145 H 863.735 -1.42075 0.234694 0
M  V30 9146 H 865.688 -3.81211 -1.79601 0
M  V30 9147 H 864.412 -2.58554 -1.99543 0
M  V30 9148 H 863.071 -3.66272 -0.15498 0
M  V30 9149 H 862.719 -4.34427 -2.5354 0
M  V30 9150 H 862.419 -5.70154 -1.4212 0
M  V30 9151 H 863.943 -5.63514 -2.35126 0
M  V30 9152 H 865.357 -5.73241 -0.0819079 0
M  V30 9153 H 863.754 -5.96292 0.674956 0
M  V30 9154 H 864.824 -4.6801 1.26865 0
M  V30 9155 N 866.167 -0.267825 -1.55308 0
M  V30 9156 C 867.415 0.350343 -1.9904 0
M  V30 9157 C 867.736 1.56924 -1.15758 0
M  V30 9158 O 867.006 1.94358 -0.245336 0
M  V30 9159 H 865.586 0.132435 -0.735167 0
M  V30 9160 H 868.248 -0.371471 -1.91327 0
M  V30 9161 H 867.344 0.645203 -3.05358 0
M  V30 9162 N 867.645 1.57599 0.00500368 0
M  V30 9163 C 868.593 2.09223 1.01628 0
M  V30 9164 C 869.587 1.01113 1.35913 0
M  V30 9165 O 870.793 1.19583 1.34536 0
M  V30 9166 H 867.168 0.667999 0.345372 0
M  V30 9167 H 869.139 2.93188 0.555274 0
M  V30 9168 C 867.888 2.60674 2.30097 0
M  V30 9169 H 867.211 3.43491 2.04582 0
M  V30 9170 H 868.651 3.00479 2.99146 0
M  V30 9171 C 867.11 1.51862 3.00731 0
M  V30 9172 O 867.64 0.898651 3.91519 0
M  V30 9173 N 865.846 1.24729 2.62471 0
M  V30 9174 H 865.393 1.7533 1.88725 0
M  V30 9175 H 865.351 0.521437 3.10046 0
M  V30 9176 N 869.123 -0.277682 1.55134 0
M  V30 9177 C 870.053 -1.34742 1.90701 0
M  V30 9178 C 871.034 -1.51757 0.768354 0
M  V30 9179 O 872.219 -1.64879 1.02609 0
M  V30 9180 C 869.349 -2.70775 2.17481 0
M  V30 9181 C 868.303 -2.68497 3.33307 0
M  V30 9182 C 867.629 -4.08037 3.45557 0
M  V30 9183 C 868.929 -2.28178 4.69821 0
M  V30 9184 H 870.623 -1.05224 2.803 0
M  V30 9185 H 868.169 -0.504738 1.34864 0
M  V30 9186 H 870.122 -3.45719 2.40949 0
M  V30 9187 H 868.846 -3.01867 1.24676 0
M  V30 9188 H 867.505 -1.9601 3.09799 0
M  V30 9189 H 867.153 -4.36344 2.50226 0
M  V30 9190 H 866.853 -4.07409 4.23429 0
M  V30 9191 H 868.377 -4.84726 3.71312 0
M  V30 9192 H 869.791 -2.92843 4.92865 0
M  V30 9193 H 868.188 -2.3872 5.50575 0
M  V30 9194 H 869.258 -1.23308 4.6896 0
M  V30 9195 N 870.601 -1.47988 -0.541979 0
M  V30 9196 C 871.831 -1.58804 -1.32155 0
M  V30 9197 C 872.239 -0.242893 -1.87634 0
M  V30 9198 O 871.582 0.776239 -1.66494 0
M  V30 9199 C 871.644 -2.56567 -2.51821 0
M  V30 9200 C 871.308 -4.01915 -2.17517 0
M  V30 9201 C 872.305 -4.89954 -1.73901 0
M  V30 9202 C 869.99 -4.47365 -2.28408 0
M  V30 9203 C 871.984 -6.21467 -1.41625 0
M  V30 9204 C 869.671 -5.78902 -1.95745 0
M  V30 9205 C 870.669 -6.65775 -1.52423 0
M  V30 9206 O 870.357 -7.94866 -1.20183 0
M  V30 9207 H 870.089 -0.538536 -0.408601 0
M  V30 9208 H 872.643 -1.94446 -0.661818 0
M  V30 9209 H 870.873 -2.16023 -3.20735 0
M  V30 9210 H 872.562 -2.57347 -3.13891 0
M  V30 9211 H 873.328 -4.56082 -1.64966 0
M  V30 9212 H 869.207 -3.79942 -2.61084 0
M  V30 9213 H 872.751 -6.8923 -1.07738 0
M  V30 9214 H 868.648 -6.12311 -2.04316 0
M  V30 9215 H 869.416 -8.07509 -1.33683 0
M  V30 9216 N 872.079 0.78992 -1.36375 0
M  V30 9217 C 873.304 1.58389 -1.33895 0
M  V30 9218 C 873.729 1.8794 0.0774934 0
M  V30 9219 O 873.087 1.4785 1.0493 0
M  V30 9220 C 873.135 2.88201 -2.16732 0
M  V30 9221 O 872.239 3.81778 -1.55946 0
M  V30 9222 H 871.58 0.480471 -0.458305 0
M  V30 9223 H 874.11 0.979119 -1.79651 0
M  V30 9224 H 874.12 3.37475 -2.29292 0
M  V30 9225 H 872.795 2.66019 -3.19698 0
M  V30 9226 H 871.372 3.40371 -1.52323 0
M  V30 9227 N 873.557 1.20646 1.01402 0
M  V30 9228 C 874.467 0.973385 2.13453 0
M  V30 9229 C 875.483 -0.0715865 1.73853 0
M  V30 9230 O 876.659 0.116438 2.01063 0
M  V30 9231 C 873.724 0.531285 3.42605 0
M  V30 9232 C 872.785 1.64741 3.96433 0
M  V30 9233 C 872.018 1.22631 5.1942 0
M  V30 9234 O 872.241 0.0960891 5.70319 0
M  V30 9235 O 871.175 2.03474 5.66465 0
M  V30 9236 H 875.001 1.91164 2.35987 0
M  V30 9237 H 872.586 0.990553 1.11841 0
M  V30 9238 H 874.468 0.294095 4.20373 0
M  V30 9239 H 873.143 -0.378358 3.21481 0
M  V30 9240 H 872.05 1.93891 3.19933 0
M  V30 9241 H 873.383 2.53415 4.2195 0
M  V30 9242 N 875.035 -1.20752 1.01276 0
M  V30 9243 C 876.283 -1.89645 0.698505 0
M  V30 9244 C 876.604 -1.78986 -0.773883 0
M  V30 9245 O 875.874 -1.18977 -1.55632 0
M  V30 9246 H 874.454 -0.701992 0.255375 0
M  V30 9247 H 877.116 -1.46668 1.28353 0
M  V30 9248 H 876.212 -2.96364 0.978512 0
M  V30 9249 N 876.513 -0.788492 -1.36457 0
M  V30 9250 C 877.79 -0.284484 -1.9352 0
M  V30 9251 C 878.17 1.2232 -1.7205 0
M  V30 9252 O 877.518 2.01424 -1.07892 0
M  V30 9253 C 877.728 -0.676106 -3.42388 0
M  V30 9254 C 879.076 -0.655327 -4.19512 0
M  V30 9255 O 880.1 -0.616523 -3.50824 0
M  V30 9256 O 878.959 -0.697391 -5.42032 0
M  V30 9257 H 876.053 -0.0701769 -0.824017 0
M  V30 9258 H 878.599 -0.870974 -1.45644 0
M  V30 9259 H 877.371 -1.71596 -3.51668 0
M  V30 9260 H 876.994 -0.0634517 -3.97549 0
M  V30 9261 N 877.991 1.48044 -0.54043 0
M  V30 9262 C 879.231 2.04396 -0.012296 0
M  V30 9263 C 879.595 1.40748 1.30591 0
M  V30 9264 O 880.796 1.88048 1.92072 0
M  V30 9265 C 879.067 3.5727 0.0964302 0
M  V30 9266 S 880.626 4.35041 0.573117 0
M  V30 9267 H 877.444 0.710795 -0.0170735 0
M  V30 9268 H 880.046 1.81625 -0.723362 0
M  V30 9269 H 878.75 4.01124 -0.86762 0
M  V30 9270 H 878.281 3.84511 0.83156 0
M  V30 9271 H 880.296 4.6099 1.83583 0
M  V30 9272 N 879.47 0.276058 1.55163 0
M  V30 9273 C 880.698 -0.343772 2.04024 0
M  V30 9274 C 881.113 -1.49397 1.15438 0
M  V30 9275 O 880.47 -1.81662 0.174692 0
M  V30 9276 C 880.521 -0.823885 3.51986 0
M  V30 9277 O 880.242 0.280507 4.37201 0
M  V30 9278 C 881.743 -1.51143 4.16738 0
M  V30 9279 H 878.963 -0.07828 0.666418 0
M  V30 9280 H 881.507 0.408427 2.0038 0
M  V30 9281 H 879.662 -1.52617 3.56071 0
M  V30 9282 H 880.076 -0.0887831 5.24425 0
M  V30 9283 H 881.55 -1.79878 5.2187 0
M  V30 9284 H 882.027 -2.44327 3.64967 0
M  V30 9285 H 882.633 -0.852975 4.16659 0
M  V30 9286 N 880.948 -1.576 0.00335426 0
M  V30 9287 C 882.178 -1.94713 -0.690682 0
M  V30 9288 C 882.586 -0.876915 -1.67651 0
M  V30 9289 O 881.929 0.152434 -1.83066 0
M  V30 9290 C 881.991 -3.27833 -1.47532 0
M  V30 9291 C 881.655 -4.52344 -0.650704 0
M  V30 9292 C 882.652 -5.19862 0.0630537 0
M  V30 9293 C 880.337 -4.98755 -0.595687 0
M  V30 9294 C 882.331 -6.32093 0.820779 0
M  V30 9295 C 880.018 -6.10875 0.165761 0
M  V30 9296 C 881.016 -6.77401 0.872724 0
M  V30 9297 O 880.704 -7.87372 1.62174 0
M  V30 9298 H 880.436 -0.646627 -0.197104 0
M  V30 9299 H 882.99 -2.05335 0.0516082 0
M  V30 9300 H 881.22 -3.13628 -2.26217 0
M  V30 9301 H 882.909 -3.50034 -2.05501 0
M  V30 9302 H 883.675 -4.84991 0.0297223 0
M  V30 9303 H 879.554 -4.46797 -1.13549 0
M  V30 9304 H 883.098 -6.83953 1.37312 0
M  V30 9305 H 878.995 -6.45187 0.200901 0
M  V30 9306 H 879.763 -8.03905 1.5388 0
M  V30 9307 N 882.426 0.269451 -1.5528 0
M  V30 9308 C 883.356 1.33729 -1.91413 0
M  V30 9309 C 884.337 1.51348 -0.776391 0
M  V30 9310 O 885.522 1.64332 -1.03482 0
M  V30 9311 C 882.652 2.69618 -2.18914 0
M  V30 9312 C 881.606 2.66725 -3.34726 0
M  V30 9313 C 880.932 4.06199 -3.47716 0
M  V30 9314 C 882.232 2.25684 -4.71025 0
M  V30 9315 H 883.926 1.03736 -2.80854 0
M  V30 9316 H 881.472 0.497579 -1.3513 0
M  V30 9317 H 883.425 3.44436 -2.42779 0
M  V30 9318 H 882.149 3.01201 -1.26275 0
M  V30 9319 H 880.808 1.94365 -3.10834 0
M  V30 9320 H 880.456 4.3501 -2.52537 0
M  V30 9321 H 880.156 4.05157 -4.25583 0
M  V30 9322 H 881.68 4.8275 -3.73877 0
M  V30 9323 H 883.094 2.90225 -4.94411 0
M  V30 9324 H 881.491 2.35797 -5.51833 0
M  V30 9325 H 882.561 1.20819 -4.69607 0
M  V30 9326 N 883.904 1.48273 0.534124 0
M  V30 9327 C 884.851 1.62487 1.6391 0
M  V30 9328 C 885.821 0.467062 1.59398 0
M  V30 9329 O 887.006 0.690029 1.77885 0
M  V30 9330 C 884.146 1.66671 3.02183 0
M  V30 9331 C 883.259 2.9353 3.16961 0
M  V30 9332 C 882.394 2.88902 4.45768 0
M  V30 9333 C 881.433 4.10483 4.54059 0
M  V30 9334 N 880.57 4.03956 5.74251 0
M  V30 9335 H 885.41 2.56851 1.51101 0
M  V30 9336 H 882.947 1.27381 0.735704 0
M  V30 9337 H 884.905 1.67079 3.82283 0
M  V30 9338 H 883.535 0.758011 3.13774 0
M  V30 9339 H 882.587 3.02886 2.3014 0
M  V30 9340 H 883.899 3.83501 3.18949 0
M  V30 9341 H 883.053 2.87688 5.34154 0
M  V30 9342 H 881.792 1.96652 4.46295 0
M  V30 9343 H 880.797 4.11977 3.64081 0
M  V30 9344 H 882.022 5.03887 4.55274 0
M  V30 9345 H 879.968 3.14525 5.75682 0
M  V30 9346 H 879.885 4.87628 5.77715 0
M  V30 9347 H 881.153 4.06795 6.64935 0
M  V30 9348 N 885.382 -0.782676 1.36792 0
M  V30 9349 C 886.622 -1.55396 1.32784 0
M  V30 9350 C 886.986 -1.91789 -0.0900272 0
M  V30 9351 O 888.187 -2.6759 -0.254725 0
M  V30 9352 C 886.458 -2.79227 2.23085 0
M  V30 9353 S 888.017 -3.69404 2.36825 0
M  V30 9354 H 884.835 -0.532139 0.471539 0
M  V30 9355 H 887.437 -0.921285 1.72431 0
M  V30 9356 H 886.141 -2.50553 3.25041 0
M  V30 9357 H 885.672 -3.47462 1.84482 0
M  V30 9358 H 887.687 -4.70683 1.57074 0
M  V30 9359 N 886.86 -1.21182 -1.00761 0
M  V30 9360 C 888.085 -1.05411 -1.78615 0
M  V30 9361 C 888.51 0.391837 -1.83973 0
M  V30 9362 O 887.868 1.28256 -1.28141 0
M  V30 9363 C 887.916 -1.65285 -3.20489 0
M  V30 9364 O 887.02 -0.896558 -4.02536 0
M  V30 9365 H 886.361 -0.37116 -0.550578 0
M  V30 9366 H 888.891 -1.60669 -1.26676 0
M  V30 9367 H 888.901 -1.69397 -3.71172 0
M  V30 9368 H 887.576 -2.70514 -3.15904 0
M  V30 9369 H 886.153 -0.930335 -3.61108 0
M  V30 9370 N 888.338 1.20213 -1.01915 0
M  V30 9371 C 889.584 1.89928 -0.711007 0
M  V30 9372 C 889.917 1.7881 0.75767 0
M  V30 9373 O 889.192 1.17399 1.55073 0
M  V30 9374 C 889.475 3.41225 -1.15053 0
M  V30 9375 C 889.328 3.61264 -2.67971 0
M  V30 9376 C 890.647 4.34108 -0.72377 0
M  V30 9377 H 887.766 0.689702 -0.259768 0
M  V30 9378 H 890.408 1.41557 -1.26734 0
M  V30 9379 H 888.558 3.82552 -0.677199 0
M  V30 9380 H 890.23 3.29173 -3.23176 0
M  V30 9381 H 888.473 3.04647 -3.08824 0
M  V30 9382 H 889.144 4.67331 -2.93779 0
M  V30 9383 H 891.62 4.00442 -1.13073 0
M  V30 9384 H 890.496 5.38581 -1.05931 0
M  V30 9385 H 890.757 4.40512 0.374424 0
M  V30 9386 N 889.816 0.795718 1.36037 0
M  V30 9387 C 890.764 0.18649 2.31851 0
M  V30 9388 C 891.758 -0.657704 1.56111 0
M  V30 9389 O 892.964 -0.552083 1.71324 0
M  V30 9390 H 889.339 0.0415363 0.750852 0
M  V30 9391 H 891.31 1.00992 2.8079 0
M  V30 9392 C 890.059 -0.65918 3.41394 0
M  V30 9393 H 889.382 -0.01894 3.99796 0
M  V30 9394 H 890.822 -1.05202 4.10741 0
M  V30 9395 C 889.281 -1.82011 2.83502 0
M  V30 9396 O 889.811 -2.91703 2.76174 0
M  V30 9397 N 888.017 -1.62821 2.40703 0
M  V30 9398 H 887.564 -0.735965 2.46863 0
M  V30 9399 H 887.522 -2.40657 2.02316 0
M  V30 9400 N 891.294 -1.47756 0.548274 0
M  V30 9401 C 892.542 -2.02089 0.0208542 0
M  V30 9402 C 892.863 -1.42589 -1.33017 0
M  V30 9403 O 892.133 -0.597825 -1.86555 0
M  V30 9404 H 890.713 -0.746985 0.00472023 0
M  V30 9405 H 893.375 -1.81262 0.716257 0
M  V30 9406 H 892.471 -3.12012 -0.0739016 0
M  V30 9407 N 892.772 -0.284283 -1.55015 0
M  V30 9408 C 894.018 0.330352 -2.00091 0
M  V30 9409 C 894.351 1.54814 -1.17244 0
M  V30 9410 O 893.626 1.92954 -0.244753 0
M  V30 9411 C 893.909 0.703492 -3.53161 0
M  V30 9412 C 893.762 -0.522275 -4.46758 0
M  V30 9413 C 895.081 1.53645 -4.12409 0
M  V30 9414 H 892.2 0.118599 -0.727395 0
M  V30 9415 H 894.842 -0.393054 -1.8589 0
M  V30 9416 H 892.992 1.31983 -3.65394 0
M  V30 9417 H 894.664 -1.16082 -4.46456 0
M  V30 9418 H 892.907 -1.15865 -4.1804 0
M  V30 9419 H 893.578 -0.217295 -5.51572 0
M  V30 9420 H 896.054 1.01583 -4.0351 0
M  V30 9421 H 894.93 1.76633 -5.19704 0
M  V30 9422 H 895.191 2.5204 -3.63219 0
M  V30 9423 N 894.251 1.57596 -0.0117121 0
M  V30 9424 C 895.214 2.08089 0.960816 0
M  V30 9425 C 896.214 0.992519 1.26514 0
M  V30 9426 O 897.404 1.25475 1.20837 0
M  V30 9427 C 894.536 2.53217 2.28241 0
M  V30 9428 H 895.729 2.9529 0.523829 0
M  V30 9429 H 893.282 1.54508 0.235995 0
M  V30 9430 H 894.017 1.69294 2.76604 0
M  V30 9431 H 893.802 3.32714 2.0747 0
M  V30 9432 H 895.292 2.92568 2.97983 0
M  V30 9433 N 895.729 -0.261212 1.5542 0
M  V30 9434 C 896.954 -1.01341 1.80955 0
M  V30 9435 C 897.379 -1.78711 0.586849 0
M  V30 9436 O 896.737 -1.75266 -0.463837 0
M  V30 9437 C 896.785 -1.93835 3.04073 0
M  V30 9438 O 895.889 -3.02791 2.79985 0
M  V30 9439 H 895.23 -0.289123 0.597749 0
M  V30 9440 H 897.76 -0.286543 2.02584 0
M  V30 9441 H 897.77 -2.3557 3.33123 0
M  V30 9442 H 896.445 -1.36936 3.9271 0
M  V30 9443 H 895.022 -2.65287 2.62063 0
M  V30 9444 N 897.207 -1.48554 -0.526253 0
M  V30 9445 C 898.154 -1.63354 -1.63046 0
M  V30 9446 C 899.124 -0.475509 -1.59148 0
M  V30 9447 O 900.309 -0.699453 -1.77517 0
M  V30 9448 C 897.449 -1.68271 -3.01295 0
M  V30 9449 C 896.562 -2.95207 -3.15399 0
M  V30 9450 C 895.697 -2.91262 -4.4423 0
M  V30 9451 C 894.736 -4.12886 -4.51876 0
M  V30 9452 N 893.873 -4.06996 -5.721 0
M  V30 9453 H 898.713 -2.57649 -1.49737 0
M  V30 9454 H 896.25 -1.27769 -0.728938 0
M  V30 9455 H 898.208 -1.69104 -3.81392 0
M  V30 9456 H 896.838 -0.774641 -3.13367 0
M  V30 9457 H 895.89 -3.04102 -2.2853 0
M  V30 9458 H 897.202 -3.85187 -3.1691 0
M  V30 9459 H 896.356 -2.90516 -5.32621 0
M  V30 9460 H 895.095 -1.99016 -4.45246 0
M  V30 9461 H 894.1 -4.13902 -3.61891 0
M  V30 9462 H 895.325 -5.06294 -4.52596 0
M  V30 9463 H 893.271 -3.17573 -5.74006 0
M  V30 9464 H 893.188 -4.90685 -5.75121 0
M  V30 9465 H 894.456 -4.10315 -6.62768 0
M  V30 9466 N 898.685 0.775411 -1.37205 0
M  V30 9467 C 899.648 1.8702 -1.325 0
M  V30 9468 C 900.648 1.5915 -0.229793 0
M  V30 9469 O 901.838 1.673 -0.485423 0
M  V30 9470 C 898.97 3.24085 -1.05745 0
M  V30 9471 H 900.163 1.92604 -2.29878 0
M  V30 9472 H 897.716 0.97476 -1.22181 0
M  V30 9473 H 898.451 3.24178 -0.0888371 0
M  V30 9474 H 898.236 3.45705 -1.85016 0
M  V30 9475 H 899.726 4.0416 -1.05094 0
M  V30 9476 N 900.163 1.21714 1.00117 0
M  V30 9477 C 901.11 0.979837 2.08968 0
M  V30 9478 C 902.08 -0.0955324 1.65825 0
M  V30 9479 O 903.265 0.0523742 1.90728 0
M  V30 9480 C 900.405 0.554758 3.40612 0
M  V30 9481 C 899.518 1.69999 3.97145 0
M  V30 9482 C 898.653 1.2237 5.16913 0
M  V30 9483 C 897.692 2.34101 5.65564 0
M  V30 9484 N 896.829 1.87579 6.76579 0
M  V30 9485 H 901.669 1.91167 2.28602 0
M  V30 9486 H 899.206 0.952645 1.12085 0
M  V30 9487 H 901.164 0.289526 4.16194 0
M  V30 9488 H 899.794 -0.340073 3.21004 0
M  V30 9489 H 898.846 2.07976 3.18512 0
M  V30 9490 H 900.158 2.54074 4.29241 0
M  V30 9491 H 899.312 0.915358 5.99755 0
M  V30 9492 H 898.051 0.353045 4.8642 0
M  V30 9493 H 897.056 2.65734 4.81316 0
M  V30 9494 H 898.281 3.21669 5.98085 0
M  V30 9495 H 896.227 1.02863 6.47885 0
M  V30 9496 H 896.144 2.65225 7.07949 0
M  V30 9497 H 897.412 1.5979 7.62947 0
M  V30 9498 N 901.641 -1.19671 1.02551 0
M  V30 9499 C 902.571 -2.25009 0.623965 0
M  V30 9500 C 903.552 -1.66129 -0.36538 0
M  V30 9501 O 904.737 -1.92599 -0.248842 0
M  V30 9502 C 901.867 -3.47287 -0.0294869 0
M  V30 9503 C 900.821 -4.18818 0.881781 0
M  V30 9504 C 900.147 -5.34618 0.0936189 0
M  V30 9505 C 901.447 -4.73986 2.19396 0
M  V30 9506 H 903.141 -2.58851 1.50454 0
M  V30 9507 H 900.687 -1.24425 0.724872 0
M  V30 9508 H 902.64 -4.20168 -0.322016 0
M  V30 9509 H 901.364 -3.12635 -0.944838 0
M  V30 9510 H 900.023 -3.47815 1.15845 0
M  V30 9511 H 899.671 -4.9621 -0.823661 0
M  V30 9512 H 899.371 -5.83409 0.700568 0
M  V30 9513 H 900.895 -6.10297 -0.192249 0
M  V30 9514 H 902.309 -5.38639 1.96319 0
M  V30 9515 H 900.706 -5.3325 2.75254 0
M  V30 9516 H 901.776 -3.92238 2.85092 0
M  V30 9517 N 903.119 -0.802921 -1.35613 0
M  V30 9518 C 904.368 -0.378087 -1.98125 0
M  V30 9519 C 904.681 1.05953 -1.64418 0
M  V30 9520 O 905.887 1.58729 -2.20266 0
M  V30 9521 C 904.343 -0.625077 -3.5443 0
M  V30 9522 C 903.951 -2.07499 -3.97049 0
M  V30 9523 C 905.695 -0.265419 -4.23669 0
M  V30 9524 C 903.602 -2.26793 -5.46186 0
M  V30 9525 H 902.532 -0.137633 -0.741332 0
M  V30 9526 H 905.183 -0.986461 -1.54729 0
M  V30 9527 H 903.565 0.0531975 -3.95964 0
M  V30 9528 H 904.739 -2.79077 -3.66678 0
M  V30 9529 H 903.054 -2.39417 -3.40688 0
M  V30 9530 H 905.651 -0.387669 -5.33293 0
M  V30 9531 H 905.994 0.787994 -4.08774 0
M  V30 9532 H 906.527 -0.897464 -3.87544 0
M  V30 9533 H 903.266 -3.30566 -5.66045 0
M  V30 9534 H 902.786 -1.59735 -5.78139 0
M  V30 9535 H 904.465 -2.08165 -6.12598 0
M  V30 9536 N 904.597 1.47463 -0.556102 0
M  V30 9537 C 905.846 2.01678 -0.029492 0
M  V30 9538 C 906.159 1.436 1.32809 0
M  V30 9539 O 907.365 1.89472 1.94455 0
M  V30 9540 C 905.821 3.599 -0.00223937 0
M  V30 9541 C 905.429 4.26969 -1.35651 0
M  V30 9542 C 907.173 4.2187 0.471822 0
M  V30 9543 C 905.08 5.77194 -1.28843 0
M  V30 9544 H 904.01 0.753965 -0.00725504 0
M  V30 9545 H 906.661 1.69467 -0.703789 0
M  V30 9546 H 905.043 3.89068 0.737682 0
M  V30 9547 H 906.217 4.09444 -2.11406 0
M  V30 9548 H 904.532 3.76983 -1.76842 0
M  V30 9549 H 907.129 5.31955 0.541139 0
M  V30 9550 H 907.472 3.88968 1.48356 0
M  V30 9551 H 908.005 3.97228 -0.213207 0
M  V30 9552 H 904.744 6.14713 -2.27613 0
M  V30 9553 H 904.264 5.9706 -0.572668 0
M  V30 9554 H 905.943 6.3938 -0.990031 0
M  V30 9555 N 906.075 0.2925 1.54862 0
M  V30 9556 C 907.005 -0.580677 2.26165 0
M  V30 9557 C 907.986 -1.14485 1.25806 0
M  V30 9558 O 909.171 -1.17577 1.54562 0
M  V30 9559 C 906.301 -1.75668 2.99596 0
M  V30 9560 C 905.255 -1.32325 4.07031 0
M  V30 9561 C 904.581 -2.58374 4.68131 0
M  V30 9562 C 905.881 -0.460703 5.20264 0
M  V30 9563 H 907.575 0.0140075 2.99397 0
M  V30 9564 H 905.121 0.00817706 1.43998 0
M  V30 9565 H 907.074 -2.37356 3.48195 0
M  V30 9566 H 905.798 -2.37747 2.23928 0
M  V30 9567 H 904.457 -0.729477 3.59269 0
M  V30 9568 H 904.105 -3.18749 3.89112 0
M  V30 9569 H 903.805 -2.30078 5.40683 0
M  V30 9570 H 905.329 -3.2088 5.19489 0
M  V30 9571 H 906.743 -0.983037 5.64809 0
M  V30 9572 H 905.14 -0.271881 5.99484 0
M  V30 9573 H 906.21 0.516304 4.82143 0
M  V30 9574 N 907.553 -1.57587 0.0200696 0
M  V30 9575 C 908.463 -2.13119 -0.980676 0
M  V30 9576 C 909.479 -1.08124 -1.36328 0
M  V30 9577 O 910.655 -1.40134 -1.44653 0
M  V30 9578 C 907.72 -2.63991 -2.24743 0
M  V30 9579 C 906.781 -3.83667 -1.9261 0
M  V30 9580 C 906.014 -4.32103 -3.13246 0
M  V30 9581 O 906.237 -3.79758 -4.25606 0
M  V30 9582 O 905.171 -5.24047 -2.96072 0
M  V30 9583 H 908.997 -2.98887 -0.538528 0
M  V30 9584 H 906.582 -1.48055 -0.19999 0
M  V30 9585 H 908.464 -2.9682 -2.99125 0
M  V30 9586 H 907.139 -1.81311 -2.68157 0
M  V30 9587 H 906.046 -3.55778 -1.15641 0
M  V30 9588 H 907.379 -4.67482 -1.54019 0
M  V30 9589 N 909.032 0.252966 -1.55557 0
M  V30 9590 C 909.98 1.33289 -1.90622 0
M  V30 9591 C 910.974 1.50133 -0.784638 0
M  V30 9592 O 912.18 1.51679 -0.969196 0
M  V30 9593 H 908.555 0.446196 -0.605321 0
M  V30 9594 H 910.526 1.00977 -2.80796 0
M  V30 9595 C 909.275 2.68254 -2.21213 0
M  V30 9596 H 908.598 2.5609 -3.07014 0
M  V30 9597 H 910.038 3.42707 -2.49656 0
M  V30 9598 C 908.497 3.20884 -1.02642 0
M  V30 9599 O 909.027 4.00783 -0.271292 0
M  V30 9600 N 907.233 2.7883 -0.818682 0
M  V30 9601 H 906.78 2.13966 -1.43444 0
M  V30 9602 H 906.738 3.14388 -0.0269989 0
M  V30 9603 N 910.51 1.48831 0.518367 0
M  V30 9604 C 911.738 1.6112 1.298 0
M  V30 9605 C 912.153 0.275872 1.86774 0
M  V30 9606 O 911.51 -0.736416 1.66983 0
M  V30 9607 C 911.561 2.66675 2.44063 0
M  V30 9608 O 911.282 3.95027 1.89434 0
M  V30 9609 C 912.783 2.8951 3.35706 0
M  V30 9610 H 910.003 0.542916 0.394314 0
M  V30 9611 H 912.547 1.94743 0.624142 0
M  V30 9612 H 910.702 2.35879 3.07311 0
M  V30 9613 H 911.116 4.53031 2.64316 0
M  V30 9614 H 912.59 3.67142 4.12202 0
M  V30 9615 H 913.067 1.98768 3.91648 0
M  V30 9616 H 913.673 3.21656 2.7824 0
M  V30 9617 N 911.988 -0.768124 1.37614 0
M  V30 9618 C 913.237 -1.5221 1.32345 0
M  V30 9619 C 913.55 -1.95399 -0.0885761 0
M  V30 9620 O 914.756 -2.70216 -0.263752 0
M  V30 9621 C 913.212 -2.74872 2.32322 0
M  V30 9622 C 912.82 -2.38767 3.79071 0
M  V30 9623 C 914.564 -3.52805 2.36069 0
M  V30 9624 C 912.471 -3.57953 4.7077 0
M  V30 9625 H 911.401 -0.571461 0.491883 0
M  V30 9626 H 914.052 -0.841004 1.63093 0
M  V30 9627 H 912.434 -3.44889 1.94596 0
M  V30 9628 H 913.608 -1.7651 4.25654 0
M  V30 9629 H 911.923 -1.74 3.78303 0
M  V30 9630 H 914.52 -4.41397 3.01782 0
M  V30 9631 H 914.863 -3.92925 1.37535 0
M  V30 9632 H 915.396 -2.89788 2.72521 0
M  V30 9633 H 912.135 -3.22911 5.70446 0
M  V30 9634 H 911.655 -4.19302 4.28889 0
M  V30 9635 H 913.334 -4.2472 4.8808 0
M  V30 9636 N 913.466 -1.22244 -0.994698 0
M  V30 9637 C 914.696 -1.07062 -1.76695 0
M  V30 9638 C 915.104 0.381895 -1.85306 0
M  V30 9639 O 914.447 1.27648 -1.32105 0
M  V30 9640 C 914.509 -1.60487 -3.2169 0
M  V30 9641 C 914.173 -3.09079 -3.36629 0
M  V30 9642 C 915.17 -4.06526 -3.24088 0
M  V30 9643 C 912.855 -3.48497 -3.61739 0
M  V30 9644 C 914.849 -5.41377 -3.36437 0
M  V30 9645 C 912.536 -4.83498 -3.73729 0
M  V30 9646 C 913.534 -5.79747 -3.61086 0
M  V30 9647 O 913.222 -7.12297 -3.72678 0
M  V30 9648 H 912.954 -0.375963 -0.561807 0
M  V30 9649 H 915.508 -1.62259 -1.25941 0
M  V30 9650 H 913.738 -0.996957 -3.73628 0
M  V30 9651 H 915.427 -1.40994 -3.80625 0
M  V30 9652 H 916.193 -3.77415 -3.04602 0
M  V30 9653 H 912.072 -2.74106 -3.70657 0
M  V30 9654 H 915.616 -6.16485 -3.26485 0
M  V30 9655 H 911.513 -5.1229 -3.92721 0
M  V30 9656 H 912.281 -7.1985 -3.89562 0
M  V30 9657 N 914.944 1.19125 -1.03184 0
M  V30 9658 C 915.874 2.24675 -0.635889 0
M  V30 9659 C 916.855 1.66321 0.356565 0
M  V30 9660 O 918.04 1.92728 0.238625 0
M  V30 9661 C 915.17 3.47298 0.011069 0
M  V30 9662 C 914.124 4.18345 -0.903979 0
M  V30 9663 C 913.45 5.34561 -0.12197 0
M  V30 9664 C 914.75 4.72816 -2.21907 0
M  V30 9665 H 916.444 2.5805 -1.51825 0
M  V30 9666 H 913.99 1.24039 -0.73146 0
M  V30 9667 H 915.943 4.20333 0.299729 0
M  V30 9668 H 914.667 3.13131 0.928245 0
M  V30 9669 H 913.326 3.47196 -1.17688 0
M  V30 9670 H 912.974 4.9664 0.797334 0
M  V30 9671 H 912.674 5.83029 -0.731498 0
M  V30 9672 H 914.198 6.10391 0.159881 0
M  V30 9673 H 915.612 5.3759 -1.99173 0
M  V30 9674 H 914.009 5.31782 -2.78078 0
M  V30 9675 H 915.079 3.9072 -2.87168 0
M  V30 9676 N 916.422 0.810101 1.35185 0
M  V30 9677 C 917.669 0.392117 1.98667 0
M  V30 9678 C 917.997 -1.0416 1.64259 0
M  V30 9679 O 917.252 -1.73795 0.899647 0
M  V30 9680 C 917.551 0.526561 3.535 0
M  V30 9681 C 917.217 1.92411 4.07785 0
M  V30 9682 C 915.879 2.30644 4.22323 0
M  V30 9683 C 918.231 2.83827 4.37141 0
M  V30 9684 C 915.559 3.59655 4.63536 0
M  V30 9685 C 917.911 4.12287 4.79794 0
M  V30 9686 C 916.575 4.50515 4.92536 0
M  V30 9687 H 915.845 0.143486 0.726975 0
M  V30 9688 H 918.492 1.03157 1.61341 0
M  V30 9689 H 916.797 -0.19633 3.91308 0
M  V30 9690 H 918.494 0.183871 4.00578 0
M  V30 9691 H 915.084 1.61707 3.96924 0
M  V30 9692 H 919.268 2.55536 4.25459 0
M  V30 9693 H 914.524 3.89117 4.71591 0
M  V30 9694 H 918.698 4.83221 5.01468 0
M  V30 9695 H 916.325 5.50535 5.24229 0
M  V30 9696 N 917.9 -1.47166 0.563914 0
M  V30 9697 C 919.125 -2.0735 0.0454698 0
M  V30 9698 C 919.55 -1.41281 -1.24182 0
M  V30 9699 O 918.908 -0.490084 -1.7455 0
M  V30 9700 C 918.956 -3.60378 -0.126453 0
M  V30 9701 O 918.06 -3.94934 -1.18746 0
M  V30 9702 H 917.401 -0.661773 0.0543377 0
M  V30 9703 H 919.931 -1.89086 0.781508 0
M  V30 9704 H 919.941 -4.06593 -0.338554 0
M  V30 9705 H 918.616 -4.07862 0.81373 0
M  V30 9706 H 917.193 -3.60455 -0.955318 0
M  V30 9707 N 919.378 -0.300708 -1.54705 0
M  V30 9708 C 920.325 0.57552 -2.23509 0
M  V30 9709 C 921.295 1.12979 -1.21758 0
M  V30 9710 O 922.48 1.17437 -1.50377 0
M  V30 9711 C 919.62 1.74167 -2.97926 0
M  V30 9712 C 918.733 1.21882 -4.1445 0
M  V30 9713 C 917.868 2.34881 -4.7645 0
M  V30 9714 C 916.907 1.79729 -5.85119 0
M  V30 9715 N 916.044 2.863 -6.41075 0
M  V30 9716 H 920.884 -0.0178257 -2.97995 0
M  V30 9717 H 918.421 -0.0205666 -1.47086 0
M  V30 9718 H 920.379 2.42753 -3.39303 0
M  V30 9719 H 919.009 2.30665 -2.25817 0
M  V30 9720 H 918.061 0.425227 -3.78016 0
M  V30 9721 H 919.373 0.775065 -4.92741 0
M  V30 9722 H 918.527 3.11415 -5.20678 0
M  V30 9723 H 917.266 2.82584 -3.97489 0
M  V30 9724 H 916.271 1.01684 -5.40315 0
M  V30 9725 H 917.496 1.32931 -6.65963 0
M  V30 9726 H 915.442 3.33337 -5.64998 0
M  V30 9727 H 915.359 2.46419 -7.14712 0
M  V30 9728 H 916.627 3.62732 -6.89961 0
M  V30 9729 N 920.856 1.57574 -0.0284266 0
M  V30 9730 C 921.766 2.13637 0.96936 0
M  V30 9731 C 922.782 1.08845 1.35752 0
M  V30 9732 O 923.958 1.40899 1.43908 0
M  V30 9733 C 921.023 2.65179 2.2334 0
M  V30 9734 C 920.084 3.84683 1.90572 0
M  V30 9735 C 919.317 4.33758 3.1095 0
M  V30 9736 O 919.54 3.82009 4.23586 0
M  V30 9737 O 918.474 5.2561 2.93288 0
M  V30 9738 H 922.3 2.99169 0.52267 0
M  V30 9739 H 919.885 1.48159 0.192135 0
M  V30 9740 H 921.767 2.98402 2.97547 0
M  V30 9741 H 920.442 1.82731 2.67191 0
M  V30 9742 H 919.349 3.56386 1.13753 0
M  V30 9743 H 920.682 4.68292 1.51538 0
M  V30 9744 N 922.334 -0.244713 1.55689 0
M  V30 9745 C 923.582 -0.970525 1.77272 0
M  V30 9746 C 923.903 -1.85771 0.592804 0
M  V30 9747 O 923.173 -1.91952 -0.391323 0
M  V30 9748 H 921.753 -0.361342 0.653789 0
M  V30 9749 H 924.415 -0.262134 1.93129 0
M  V30 9750 H 923.511 -1.59096 2.68505 0
M  V30 9751 N 923.813 -1.49104 -0.510467 0
M  V30 9752 C 925.038 -1.62068 -1.29417 0
M  V30 9753 C 925.463 -0.288432 -1.85875 0
M  V30 9754 O 924.821 0.742667 -1.65391 0
M  V30 9755 C 924.869 -2.68506 -2.40701 0
M  V30 9756 O 923.973 -2.27021 -3.4429 0
M  V30 9757 H 923.314 -0.542778 -0.382476 0
M  V30 9758 H 925.844 -1.95228 -0.612154 0
M  V30 9759 H 925.854 -2.90383 -2.86604 0
M  V30 9760 H 924.529 -3.65216 -1.98973 0
M  V30 9761 H 923.106 -2.15436 -3.04371 0
M  V30 9762 N 925.291 0.760815 -1.38019 0
M  V30 9763 C 926.54 1.51506 -1.3315 0
M  V30 9764 C 926.853 1.95444 0.0782124 0
M  V30 9765 O 928.059 2.70352 0.249418 0
M  V30 9766 C 926.515 2.73636 -2.33776 0
M  V30 9767 C 926.123 2.36753 -3.80332 0
M  V30 9768 C 927.867 3.51548 -2.37937 0
M  V30 9769 C 925.774 3.55451 -4.72661 0
M  V30 9770 H 924.704 0.568844 -0.494907 0
M  V30 9771 H 927.355 0.832343 -1.63537 0
M  V30 9772 H 925.737 3.43852 -1.96422 0
M  V30 9773 H 926.911 1.7425 -4.26584 0
M  V30 9774 H 925.226 1.71991 -3.7922 0
M  V30 9775 H 927.823 4.39791 -3.04119 0
M  V30 9776 H 928.166 3.9219 -1.39617 0
M  V30 9777 H 928.699 2.88339 -2.74054 0
M  V30 9778 H 925.438 3.19882 -5.7215 0
M  V30 9779 H 924.958 4.17022 -4.31107 0
M  V30 9780 H 926.637 4.22125 -4.90326 0
M  V30 9781 N 926.769 1.22769 0.988202 0
M  V30 9782 C 927.679 1.01844 2.11341 0
M  V30 9783 C 928.695 -0.0346937 1.73965 0
M  V30 9784 O 929.871 0.159061 2.00771 0
M  V30 9785 C 926.936 0.603837 3.41401 0
M  V30 9786 C 925.997 1.73113 3.92849 0
M  V30 9787 C 925.23 1.33621 5.16702 0
M  V30 9788 O 925.453 0.217041 5.69987 0
M  V30 9789 O 924.387 2.15444 5.62021 0
M  V30 9790 H 928.213 1.96127 2.31879 0
M  V30 9791 H 925.798 1.01405 1.09715 0
M  V30 9792 H 927.68 0.383196 4.19654 0
M  V30 9793 H 926.355 -0.310082 3.22211 0
M  V30 9794 H 925.262 2.00634 3.15748 0
M  V30 9795 H 926.595 2.62308 4.1648 0
M  V30 9796 N 928.247 -1.18576 1.03814 0
M  V30 9797 C 929.496 -1.87822 0.735235 0
M  V30 9798 C 929.809 -1.81069 -0.739819 0
M  V30 9799 O 931.015 -2.45654 -1.15614 0
M  V30 9800 C 929.471 -3.36941 1.26486 0
M  V30 9801 C 929.079 -3.5223 2.76836 0
M  V30 9802 C 930.823 -4.11604 1.03836 0
M  V30 9803 C 928.73 -4.95294 3.23169 0
M  V30 9804 H 927.66 -0.703487 0.271333 0
M  V30 9805 H 930.311 -1.34 1.25365 0
M  V30 9806 H 928.693 -3.90217 0.674318 0
M  V30 9807 H 929.867 -3.09239 3.41625 0
M  V30 9808 H 928.182 -2.90969 2.97869 0
M  V30 9809 H 930.779 -5.17123 1.3597 0
M  V30 9810 H 931.122 -4.16293 -0.0244945 0
M  V30 9811 H 931.655 -3.64494 1.59338 0
M  V30 9812 H 928.394 -4.95772 4.28824 0
M  V30 9813 H 927.914 -5.3901 2.63113 0
M  V30 9814 H 929.593 -5.63996 3.17045 0
M  V30 9815 N 929.725 -0.817259 -1.34754 0
M  V30 9816 C 931.002 -0.325468 -1.92873 0
M  V30 9817 C 931.382 1.18643 -1.74606 0
M  V30 9818 O 930.73 1.9909 -1.1214 0
M  V30 9819 C 930.94 -0.74858 -3.40877 0
M  V30 9820 C 932.288 -0.744165 -4.18028 0
M  V30 9821 O 933.312 -0.690799 -3.49437 0
M  V30 9822 O 932.171 -0.812207 -5.40431 0
M  V30 9823 H 929.265 -0.0876397 -0.822343 0
M  V30 9824 H 931.811 -0.901671 -1.43764 0
M  V30 9825 H 930.583 -1.79017 -3.47949 0
M  V30 9826 H 930.206 -0.147764 -3.97325 0
M  V30 9827 N 931.203 1.46865 -0.571711 0
M  V30 9828 C 932.452 2.01636 -0.050881 0
M  V30 9829 C 932.765 1.45001 1.31279 0
M  V30 9830 O 933.971 1.91523 1.92435 0
M  V30 9831 C 932.427 3.59877 -0.0404114 0
M  V30 9832 C 932.035 4.25506 -1.40172 0
M  V30 9833 C 933.779 4.22346 0.42705 0
M  V30 9834 C 931.686 5.75795 -1.34958 0
M  V30 9835 H 930.616 0.753846 -0.0152514 0
M  V30 9836 H 933.267 1.68711 -0.721723 0
M  V30 9837 H 931.649 3.89829 0.696374 0
M  V30 9838 H 932.823 4.07178 -2.15737 0
M  V30 9839 H 931.138 3.75086 -1.8083 0
M  V30 9840 H 933.735 5.32499 0.484688 0
M  V30 9841 H 934.078 3.9052 1.44222 0
M  V30 9842 H 934.611 3.9698 -0.255326 0
M  V30 9843 H 931.35 6.12265 -2.3412 0
M  V30 9844 H 930.87 5.96419 -0.635962 0
M  V30 9845 H 932.549 6.38294 -1.05779 0
M  V30 9846 N 932.681 0.308908 1.54543 0
M  V30 9847 C 934.092 -0.182144 1.85809 0
M  V30 9848 C 934.443 -1.52796 1.23076 0
M  V30 9849 O 933.568 -2.09775 0.531358 0
M  V30 9850 C 934.163 -0.337275 3.37117 0
M  V30 9851 C 932.722 -0.772545 3.68387 0
M  V30 9852 C 931.869 0.114451 2.77064 0
M  V30 9853 H 934.82 0.529671 1.496 0
M  V30 9854 H 934.841 -1.17058 3.62046 0
M  V30 9855 H 934.353 0.642382 3.82747 0
M  V30 9856 H 932.454 -1.76247 3.2828 0
M  V30 9857 H 932.567 -0.586453 4.75497 0
M  V30 9858 H 930.931 -0.407581 2.51418 0
M  V30 9859 H 931.714 1.09061 3.25516 0
M  V30 9860 N 934.159 -1.57557 0.0367827 0
M  V30 9861 C 935.405 -1.92399 -0.641133 0
M  V30 9862 C 935.738 -0.914191 -1.71336 0
M  V30 9863 O 935.013 0.0619616 -1.94401 0
M  V30 9864 C 935.296 -3.37689 -1.25052 0
M  V30 9865 C 935.149 -4.4941 -0.187326 0
M  V30 9866 C 936.468 -3.8309 -2.16634 0
M  V30 9867 H 933.587 -0.699666 -0.231597 0
M  V30 9868 H 936.229 -1.89759 0.0956083 0
M  V30 9869 H 934.379 -3.40069 -1.87843 0
M  V30 9870 H 936.051 -4.59161 0.443736 0
M  V30 9871 H 934.294 -4.31065 0.486313 0
M  V30 9872 H 934.965 -5.48119 -0.653459 0
M  V30 9873 H 937.441 -3.82494 -1.63821 0
M  V30 9874 H 936.317 -4.85429 -2.56222 0
M  V30 9875 H 936.578 -3.19028 -3.06062 0
M  V30 9876 N 935.637 0.236453 -1.55816 0
M  V30 9877 C 937.048 0.80468 -1.68469 0
M  V30 9878 C 937.399 1.85601 -0.636133 0
M  V30 9879 O 936.524 2.15323 0.215622 0
M  V30 9880 C 937.119 1.46634 -3.05424 0
M  V30 9881 C 935.678 1.98214 -3.19981 0
M  V30 9882 C 934.825 0.83695 -2.64368 0
M  V30 9883 H 937.776 0.0120647 -1.58695 0
M  V30 9884 H 937.797 2.33472 -3.00451 0
M  V30 9885 H 937.309 0.700931 -3.81718 0
M  V30 9886 H 935.41 2.77604 -2.4853 0
M  V30 9887 H 935.523 2.17235 -4.2702 0
M  V30 9888 H 933.887 1.24028 -2.22462 0
M  V30 9889 H 934.67 0.084451 -3.43196 0
M  V30 9890 N 937.115 1.49373 0.502552 0
M  V30 9891 C 938.062 1.65927 1.60427 0
M  V30 9892 C 939.032 0.500768 1.58371 0
M  V30 9893 O 940.217 0.727606 1.76382 0
M  V30 9894 C 937.357 1.73043 2.9858 0
M  V30 9895 C 936.47 3.00187 3.10663 0
M  V30 9896 C 935.605 2.98292 4.3954 0
M  V30 9897 C 934.644 4.20022 4.4525 0
M  V30 9898 N 933.781 4.16046 5.65553 0
M  V30 9899 H 938.621 2.59998 1.45619 0
M  V30 9900 H 936.158 1.28912 0.708519 0
M  V30 9901 H 938.116 1.7515 3.78653 0
M  V30 9902 H 936.746 0.824397 3.12095 0
M  V30 9903 H 935.798 3.07699 2.23663 0
M  V30 9904 H 937.11 3.9018 3.10742 0
M  V30 9905 H 936.264 2.98953 5.27932 0
M  V30 9906 H 935.003 2.06075 4.42023 0
M  V30 9907 H 934.008 4.19607 3.5526 0
M  V30 9908 H 935.233 5.13431 4.44484 0
M  V30 9909 H 933.179 3.26665 5.68881 0
M  V30 9910 H 933.096 4.99773 5.67242 0
M  V30 9911 H 934.364 4.20807 6.56156 0
M  V30 9912 N 938.594 -0.753485 1.38421 0
M  V30 9913 C 939.824 -1.54049 1.37669 0
M  V30 9914 C 940.232 -1.89167 -0.0353656 0
M  V30 9915 O 939.575 -1.53285 -1.01239 0
M  V30 9916 C 939.637 -2.86777 2.16793 0
M  V30 9917 C 939.301 -2.74196 3.65603 0
M  V30 9918 C 940.298 -2.43985 4.59094 0
M  V30 9919 C 937.983 -2.91645 4.0896 0
M  V30 9920 C 939.977 -2.31379 5.93921 0
M  V30 9921 C 937.664 -2.78658 5.43868 0
M  V30 9922 C 938.662 -2.48568 6.36163 0
M  V30 9923 O 938.35 -2.3564 7.68589 0
M  V30 9924 H 938.082 -0.483276 0.472673 0
M  V30 9925 H 940.636 -0.940267 1.82615 0
M  V30 9926 H 938.866 -3.48988 1.66565 0
M  V30 9927 H 940.555 -3.48289 2.08446 0
M  V30 9928 H 941.321 -2.30172 4.26902 0
M  V30 9929 H 937.2 -3.14063 3.37469 0
M  V30 9930 H 940.744 -2.07813 6.65927 0
M  V30 9931 H 936.641 -2.92044 5.75656 0
M  V30 9932 H 937.409 -2.50851 7.79112 0
M  V30 9933 N 940.072 -1.23292 -0.981677 0
M  V30 9934 C 941.002 -1.03738 -2.09191 0
M  V30 9935 C 941.983 0.0453041 -1.7004 0
M  V30 9936 O 943.168 -0.119092 -1.93834 0
M  V30 9937 C 940.298 -0.626426 -3.41604 0
M  V30 9938 C 939.252 -1.65631 -3.94652 0
M  V30 9939 C 938.578 -1.10084 -5.23245 0
M  V30 9940 C 939.878 -3.04903 -4.24066 0
M  V30 9941 H 941.572 -1.966 -2.25807 0
M  V30 9942 H 939.118 -0.946656 -1.0851 0
M  V30 9943 H 941.071 -0.476689 -4.18695 0
M  V30 9944 H 939.795 0.337873 -3.24848 0
M  V30 9945 H 938.454 -1.79402 -3.19704 0
M  V30 9946 H 938.102 -0.127562 -5.02838 0
M  V30 9947 H 937.802 -1.78896 -5.59705 0
M  V30 9948 H 939.326 -0.962928 -6.02959 0
M  V30 9949 H 940.74 -2.94441 -4.91912 0
M  V30 9950 H 939.137 -3.70941 -4.71724 0
M  V30 9951 H 940.207 -3.53991 -3.31389 0
M  V30 9952 N 941.55 1.18024 -1.04442 0
M  V30 9953 C 942.775 1.92573 -0.770097 0
M  V30 9954 C 943.2 1.75871 0.667169 0
M  V30 9955 O 942.558 1.07136 1.46258 0
M  V30 9956 C 942.606 3.41904 -1.14602 0
M  V30 9957 O 941.71 4.11491 -0.273712 0
M  V30 9958 H 941.051 0.600636 -0.283076 0
M  V30 9959 H 943.581 1.49645 -1.39526 0
M  V30 9960 H 943.591 3.92623 -1.10956 0
M  V30 9961 H 942.266 3.53382 -2.19304 0
M  V30 9962 H 940.843 3.71059 -0.370124 0
M  V30 9963 N 943.028 0.824394 1.34319 0
M  V30 9964 C 944.253 0.425194 2.02995 0
M  V30 9965 C 944.678 -0.961476 1.6167 0
M  V30 9966 O 944.036 -1.62593 0.80207 0
M  V30 9967 C 944.084 0.537004 3.56579 0
M  V30 9968 O 943.188 -0.442576 4.10018 0
M  V30 9969 H 942.529 0.174853 0.640564 0
M  V30 9970 H 945.059 1.11522 1.71534 0
M  V30 9971 H 945.069 0.413311 4.05901 0
M  V30 9972 H 943.744 1.54836 3.86004 0
M  V30 9973 H 942.321 -0.277644 3.71865 0
M  V30 9974 N 944.506 -1.46559 0.579492 0
M  V30 9975 C 945.752 -2.02699 0.0639363 0
M  V30 9976 C 946.085 -1.4504 -1.29139 0
M  V30 9977 O 945.36 -0.614284 -1.84545 0
M  V30 9978 C 945.643 -3.601 -0.00528618 0
M  V30 9979 C 945.496 -4.28149 1.37871 0
M  V30 9980 C 946.815 -4.34375 -0.707537 0
M  V30 9981 H 943.934 -0.736586 0.0247085 0
M  V30 9982 H 946.576 -1.74739 0.746071 0
M  V30 9983 H 944.726 -3.84052 -0.586206 0
M  V30 9984 H 946.398 -4.1547 2.00455 0
M  V30 9985 H 944.641 -3.87636 1.94732 0
M  V30 9986 H 945.312 -5.36888 1.28278 0
M  V30 9987 H 947.788 -4.15549 -0.214064 0
M  V30 9988 H 946.664 -5.44091 -0.724992 0
M  V30 9989 H 946.925 -4.052 -1.7682 0
M  V30 9990 N 945.984 -0.3171 -1.54377 0
M  V30 9991 C 947.209 0.292311 -2.0533 0
M  V30 9992 C 947.634 1.45503 -1.19207 0
M  V30 9993 O 946.992 1.80197 -0.199721 0
M  V30 9994 C 947.04 0.710787 -3.53525 0
M  V30 9995 O 946.144 1.81387 -3.70368 0
M  V30 9996 H 945.485 0.0539976 -0.661801 0
M  V30 9997 H 948.015 -0.463629 -1.99278 0
M  V30 9998 H 948.025 0.995216 -3.95676 0
M  V30 9999 H 946.7 -0.139668 -4.15665 0
M  V30 10000 H 945.277 1.52875 -3.40123 0
M  V30 10001 N 947.462 1.57535 -0.0451378 0
M  V30 10002 C 948.687 1.97172 0.64326 0
M  V30 10003 C 949.112 0.922266 1.63939 0
M  V30 10004 O 948.47 -0.115155 1.80934 0
M  V30 10005 C 948.518 3.35889 1.3119 0
M  V30 10006 O 947.622 3.33387 2.42748 0
M  V30 10007 H 946.963 0.642469 0.167719 0
M  V30 10008 H 949.493 2.04295 -0.111747 0
M  V30 10009 H 949.503 3.72481 1.66499 0
M  V30 10010 H 948.178 4.1181 0.581823 0
M  V30 10011 H 946.755 3.08533 2.09432 0
M  V30 10012 N 948.94 -0.228186 1.55939 0
M  V30 10013 C 949.872 -1.30605 1.88348 0
M  V30 10014 C 950.885 -1.43375 0.771198 0
M  V30 10015 O 952.074 -1.44391 1.04945 0
M  V30 10016 C 949.174 -2.68248 2.07115 0
M  V30 10017 C 948.347 -2.77509 3.38094 0
M  V30 10018 C 947.406 -3.96121 3.46373 0
M  V30 10019 O 946.432 -3.8477 4.19453 0
M  V30 10020 N 947.634 -5.10132 2.77031 0
M  V30 10021 H 950.399 -1.03132 2.81396 0
M  V30 10022 H 947.96 -0.418245 1.56404 0
M  V30 10023 H 949.952 -3.45966 2.09976 0
M  V30 10024 H 948.522 -2.88348 1.20723 0
M  V30 10025 H 947.742 -1.8632 3.47388 0
M  V30 10026 H 949.03 -2.80662 4.2439 0
M  V30 10027 H 948.428 -5.22249 2.17424 0
M  V30 10028 H 946.985 -5.85916 2.85561 0
M  V30 10029 N 950.418 -1.49637 -0.494624 0
M  V30 10030 C 951.328 -1.69522 -1.62172 0
M  V30 10031 C 952.344 -0.577894 -1.64123 0
M  V30 10032 O 953.52 -0.853382 -1.82426 0
M  V30 10033 C 950.585 -1.7633 -2.9851 0
M  V30 10034 C 949.646 -2.99944 -3.07135 0
M  V30 10035 C 948.879 -3.06419 -4.36971 0
M  V30 10036 O 949.102 -2.20312 -5.26136 0
M  V30 10037 O 948.036 -3.9894 -4.507 0
M  V30 10038 H 951.862 -2.65017 -1.48324 0
M  V30 10039 H 949.447 -1.33454 -0.671603 0
M  V30 10040 H 951.329 -1.83125 -3.7953 0
M  V30 10041 H 950.004 -0.840155 -3.12607 0
M  V30 10042 H 948.911 -2.98664 -2.2528 0
M  V30 10043 H 950.244 -3.9176 -2.97968 0
M  V30 10044 N 951.896 0.746133 -1.38819 0
M  V30 10045 C 953.124 1.53539 -1.38685 0
M  V30 10046 C 953.539 1.88788 0.0215039 0
M  V30 10047 O 952.896 1.53312 0.990031 0
M  V30 10048 C 952.947 2.8299 -2.24942 0
M  V30 10049 O 952.668 2.49242 -3.60292 0
M  V30 10050 C 954.169 3.77085 -2.3307 0
M  V30 10051 H 951.389 0.474842 -0.474095 0
M  V30 10052 H 953.933 0.922844 -1.82493 0
M  V30 10053 H 952.088 3.40603 -1.84576 0
M  V30 10054 H 952.502 3.32319 -4.05789 0
M  V30 10055 H 953.976 4.64845 -2.97696 0
M  V30 10056 H 954.453 4.18049 -1.34655 0
M  V30 10057 H 955.059 3.25394 -2.73859 0
M  V30 10058 N 953.375 1.23811 0.975125 0
M  V30 10059 C 954.307 0.981779 2.07108 0
M  V30 10060 C 955.32 -0.0461211 1.62735 0
M  V30 10061 O 956.509 0.190039 1.77486 0
M  V30 10062 C 953.609 0.458364 3.35786 0
M  V30 10063 C 952.782 1.54767 4.09104 0
M  V30 10064 C 951.841 1.0282 5.16057 0
M  V30 10065 O 950.867 1.71831 5.42644 0
M  V30 10066 N 952.069 -0.141243 5.80328 0
M  V30 10067 H 954.834 1.92537 2.29673 0
M  V30 10068 H 952.395 1.1474 1.14221 0
M  V30 10069 H 954.387 0.0957686 4.04587 0
M  V30 10070 H 952.957 -0.390768 3.10148 0
M  V30 10071 H 952.177 2.08279 3.34684 0
M  V30 10072 H 953.465 2.28006 4.54853 0
M  V30 10073 H 952.863 -0.718382 5.6112 0
M  V30 10074 H 951.42 -0.445052 6.50279 0
M  V30 10075 N 954.853 -1.17469 1.05066 0
M  V30 10076 C 956.101 -1.87327 0.758485 0
M  V30 10077 C 956.422 -1.81358 -0.716549 0
M  V30 10078 O 955.692 -1.23868 -1.51768 0
M  V30 10079 H 954.272 -0.693512 0.277579 0
M  V30 10080 H 956.934 -1.4251 1.32954 0
M  V30 10081 H 956.03 -2.93101 1.0723 0
M  V30 10082 N 956.331 -0.831506 -1.3388 0
M  V30 10083 C 957.579 -0.422837 -1.97627 0
M  V30 10084 C 957.9 1.01961 -1.6622 0
M  V30 10085 O 957.17 1.70916 -0.957323 0
M  V30 10086 H 955.75 -0.153365 -0.731087 0
M  V30 10087 H 958.412 -1.06284 -1.6337 0
M  V30 10088 H 957.508 -0.548858 -3.07236 0
M  V30 10089 N 957.809 1.4625 -0.587256 0
M  V30 10090 C 959.22 1.85997 -0.161918 0
M  V30 10091 C 959.571 1.49025 1.27616 0
M  V30 10092 O 958.696 0.907282 1.96462 0
M  V30 10093 C 959.291 3.37582 -0.287077 0
M  V30 10094 C 957.85 3.76308 0.0834211 0
M  V30 10095 C 956.997 2.70259 -0.620932 0
M  V30 10096 H 959.948 1.3734 -0.795199 0
M  V30 10097 H 959.969 3.77379 0.486333 0
M  V30 10098 H 959.481 3.64459 -1.33383 0
M  V30 10099 H 957.582 3.55047 1.13013 0
M  V30 10100 H 957.695 4.78184 -0.296064 0
M  V30 10101 H 956.059 2.54628 -0.0607027 0
M  V30 10102 H 956.842 2.99975 -1.66942 0
M  V30 10103 N 959.287 0.325282 1.54207 0
M  V30 10104 C 960.217 -0.532574 2.27345 0
M  V30 10105 C 961.198 -1.11791 1.28206 0
M  V30 10106 O 962.383 -1.14272 1.57021 0
M  V30 10107 C 959.513 -1.69274 3.03255 0
M  V30 10108 C 958.467 -1.23662 4.09746 0
M  V30 10109 C 957.793 -2.48386 4.73506 0
M  V30 10110 C 959.093 -0.350244 5.21124 0
M  V30 10111 H 960.787 0.0775108 2.993 0
M  V30 10112 H 958.333 0.0387193 1.43948 0
M  V30 10113 H 960.286 -2.29917 3.53152 0
M  V30 10114 H 959.01 -2.32944 2.28921 0
M  V30 10115 H 957.669 -0.653106 3.60735 0
M  V30 10116 H 957.317 -3.10424 3.95786 0
M  V30 10117 H 957.017 -2.18558 5.45441 0
M  V30 10118 H 958.541 -3.09789 5.26178 0
M  V30 10119 H 959.955 -0.863011 5.66767 0
M  V30 10120 H 958.352 -0.14466 5.99926 0
M  V30 10121 H 959.422 0.618457 4.8094 0
M  V30 10122 N 960.765 -1.57509 0.0534917 0
M  V30 10123 C 961.728 -2.10563 -0.905307 0
M  V30 10124 C 962.728 -1.02571 -1.23838 0
M  V30 10125 O 963.918 -1.28635 -1.17468 0
M  V30 10126 C 961.05 -2.5918 -2.21447 0
M  V30 10127 H 962.243 -2.96575 -0.445354 0
M  V30 10128 H 959.796 -1.55079 -0.194947 0
M  V30 10129 H 960.531 -1.76568 -2.72019 0
M  V30 10130 H 960.316 -3.38098 -1.98575 0
M  V30 10131 H 961.806 -3.00365 -2.90122 0
M  V30 10132 N 962.243 0.219913 -1.56058 0
M  V30 10133 C 963.654 0.786766 -1.69313 0
M  V30 10134 C 964.005 1.84916 -0.655782 0
M  V30 10135 O 963.13 2.1554 0.192772 0
M  V30 10136 C 963.725 1.43387 -3.06962 0
M  V30 10137 C 962.284 1.94809 -3.22066 0
M  V30 10138 C 961.431 0.808863 -2.65241 0
M  V30 10139 H 964.382 -0.00476777 -1.58699 0
M  V30 10140 H 964.403 2.30272 -3.02911 0
M  V30 10141 H 963.915 0.660405 -3.8244 0
M  V30 10142 H 962.016 2.74952 -2.5146 0
M  V30 10143 H 962.129 2.12694 -4.293 0
M  V30 10144 H 960.493 1.21661 -2.23765 0
M  V30 10145 H 961.276 0.0480458 -3.43266 0
M  V30 10146 N 963.721 1.49897 0.486681 0
M  V30 10147 C 964.654 1.6224 1.60479 0
M  V30 10148 C 965.632 0.470964 1.5563 0
M  V30 10149 O 966.816 0.688418 1.75479 0
M  V30 10150 C 963.943 1.59059 2.99028 0
M  V30 10151 C 962.989 2.79575 3.22087 0
M  V30 10152 S 963.822 4.41077 3.03664 0
M  V30 10153 C 964.978 4.40564 4.44583 0
M  V30 10154 H 965.211 2.56822 1.49766 0
M  V30 10155 H 962.744 1.38966 0.672893 0
M  V30 10156 H 964.702 1.5791 3.78913 0
M  V30 10157 H 963.363 0.657405 3.07143 0
M  V30 10158 H 962.556 2.73609 4.23266 0
M  V30 10159 H 962.158 2.78211 2.49949 0
M  V30 10160 H 964.45 4.13166 5.36936 0
M  V30 10161 H 965.393 5.42068 4.55596 0
M  V30 10162 H 965.801 3.70461 4.25933 0
M  V30 10163 N 965.199 -0.738761 1.39212 0
M  V30 10164 C 966.427 -1.52801 1.39497 0
M  V30 10165 C 966.842 -1.88797 -0.0114917 0
M  V30 10166 O 966.199 -1.53835 -0.981887 0
M  V30 10167 C 966.25 -2.81793 2.2644 0
M  V30 10168 O 965.971 -2.47328 3.61608 0
M  V30 10169 C 967.472 -3.75844 2.35067 0
M  V30 10170 H 964.692 -0.472322 0.476606 0
M  V30 10171 H 967.236 -0.913153 1.8298 0
M  V30 10172 H 965.391 -3.3962 1.8638 0
M  V30 10173 H 965.805 -3.30162 4.07545 0
M  V30 10174 H 967.279 -4.6326 3.00157 0
M  V30 10175 H 967.756 -4.17329 1.3687 0
M  V30 10176 H 968.362 -3.23937 2.75581 0
M  V30 10177 N 966.677 -1.24326 -0.968545 0
M  V30 10178 C 967.925 -1.08032 -1.70803 0
M  V30 10179 C 968.246 0.381728 -1.91227 0
M  V30 10180 O 967.516 1.27253 -1.48942 0
M  V30 10181 H 966.096 -0.396777 -0.632912 0
M  V30 10182 H 968.758 -1.56232 -1.16523 0
M  V30 10183 H 967.854 -1.57769 -2.69287 0
M  V30 10184 N 968.156 1.1691 -1.05688 0
M  V30 10185 C 969.384 1.91204 -0.790485 0
M  V30 10186 C 969.799 1.77095 0.654434 0
M  V30 10187 O 969.156 1.11146 1.44751 0
M  V30 10188 C 969.207 3.42108 -1.16808 0
M  V30 10189 O 968.928 3.55788 -2.55629 0
M  V30 10190 C 970.429 4.33466 -0.92855 0
M  V30 10191 H 967.649 0.606508 -0.287035 0
M  V30 10192 H 970.193 1.48225 -1.40888 0
M  V30 10193 H 968.348 3.82814 -0.59434 0
M  V30 10194 H 968.762 4.49321 -2.70575 0
M  V30 10195 H 970.236 5.37836 -1.24245 0
M  V30 10196 H 970.713 4.38989 0.136016 0
M  V30 10197 H 971.319 3.98481 -1.48638 0
M  V30 10198 N 969.634 0.838594 1.33437 0
M  V30 10199 C 970.883 0.430484 1.97053 0
M  V30 10200 C 971.196 -1.01556 1.6717 0
M  V30 10201 O 972.402 -1.52834 2.24397 0
M  V30 10202 C 970.858 0.718828 3.52648 0
M  V30 10203 C 970.466 2.17953 3.91408 0
M  V30 10204 C 972.21 0.377654 4.22817 0
M  V30 10205 C 970.117 2.41194 5.39981 0
M  V30 10206 H 969.047 0.157239 0.737422 0
M  V30 10207 H 971.698 1.02714 1.5206 0
M  V30 10208 H 970.08 0.0518042 3.95966 0
M  V30 10209 H 971.254 2.88701 3.59149 0
M  V30 10210 H 969.569 2.48366 3.34221 0
M  V30 10211 H 972.166 0.528926 5.32077 0
M  V30 10212 H 972.509 -0.679338 4.1072 0
M  V30 10213 H 973.042 0.999899 3.85028 0
M  V30 10214 H 969.781 3.45457 5.57081 0
M  V30 10215 H 969.301 1.75007 5.73701 0
M  V30 10216 H 970.98 2.24334 6.06863 0
M  V30 10217 N 971.112 -1.45937 0.595003 0
M  V30 10218 C 972.022 -2.34221 -0.133325 0
M  V30 10219 C 973.038 -1.50491 -0.873407 0
M  V30 10220 O 974.214 -1.83328 -0.833828 0
M  V30 10221 C 971.279 -3.27896 -1.12628 0
M  V30 10222 C 970.34 -4.27529 -0.389532 0
M  V30 10223 C 969.573 -5.16729 -1.33519 0
M  V30 10224 O 969.796 -5.09102 -2.57238 0
M  V30 10225 O 968.73 -5.96023 -0.839084 0
M  V30 10226 H 972.556 -2.97877 0.591861 0
M  V30 10227 H 970.141 -1.45113 0.355329 0
M  V30 10228 H 972.023 -3.85654 -1.69851 0
M  V30 10229 H 970.698 -2.6682 -1.83272 0
M  V30 10230 H 969.605 -3.73424 0.224843 0
M  V30 10231 H 970.938 -4.91425 0.276169 0
M  V30 10232 N 972.59 -0.333456 -1.54032 0
M  V30 10233 C 973.537 0.527981 -2.2468 0
M  V30 10234 C 974.507 1.10371 -1.24127 0
M  V30 10235 O 975.692 1.14221 -1.52834 0
M  V30 10236 C 972.832 1.67808 -3.01553 0
M  V30 10237 C 971.945 1.13064 -4.16942 0
M  V30 10238 C 971.08 2.24722 -4.81325 0
M  V30 10239 C 970.119 1.67277 -5.88799 0
M  V30 10240 N 969.256 2.72638 -6.47003 0
M  V30 10241 H 974.096 -0.0810308 -2.9789 0
M  V30 10242 H 971.633 -0.051761 -1.47009 0
M  V30 10243 H 973.591 2.35502 -3.44376 0
M  V30 10244 H 972.221 2.25823 -2.30659 0
M  V30 10245 H 971.273 0.344948 -3.78833 0
M  V30 10246 H 972.585 0.670373 -4.94275 0
M  V30 10247 H 971.739 3.00301 -5.27166 0
M  V30 10248 H 970.478 2.74089 -4.03394 0
M  V30 10249 H 969.483 0.902002 -5.4235 0
M  V30 10250 H 970.708 1.18775 -6.68632 0
M  V30 10251 H 968.654 3.21277 -5.71941 0
M  V30 10252 H 968.571 2.31204 -7.19778 0
M  V30 10253 H 969.839 3.48015 -6.97499 0
M  V30 10254 N 974.068 1.57479 -0.061844 0
M  V30 10255 C 975.314 1.93395 0.610443 0
M  V30 10256 C 975.647 0.941334 1.6986 0
M  V30 10257 O 974.922 -0.0310262 1.94475 0
M  V30 10258 C 975.205 3.39636 1.19664 0
M  V30 10259 C 975.058 4.49651 0.115805 0
M  V30 10260 C 976.377 3.86488 2.10512 0
M  V30 10261 H 973.496 0.703262 0.220436 0
M  V30 10262 H 976.138 1.89583 -0.125785 0
M  V30 10263 H 974.288 3.43015 1.82409 0
M  V30 10264 H 975.96 4.58397 -0.516728 0
M  V30 10265 H 974.203 4.30237 -0.55483 0
M  V30 10266 H 974.874 5.49089 0.566176 0
M  V30 10267 H 977.35 3.85052 1.57715 0
M  V30 10268 H 976.226 4.89444 2.48466 0
M  V30 10269 H 976.487 3.23856 3.00948 0
M  V30 10270 N 975.546 -0.211634 1.56173 0
M  V30 10271 C 976.793 -0.93455 1.79645 0
M  V30 10272 C 977.121 -1.83936 0.632294 0
M  V30 10273 O 976.376 -1.91919 -0.382841 0
M  V30 10274 C 976.675 -1.79657 3.08963 0
M  V30 10275 C 976.341 -1.04415 4.38644 0
M  V30 10276 C 975.003 -0.836351 4.73876 0
M  V30 10277 C 977.355 -0.51355 5.18664 0
M  V30 10278 C 974.683 -0.0861976 5.86637 0
M  V30 10279 C 977.035 0.223309 6.32206 0
M  V30 10280 C 975.699 0.442279 6.66033 0
M  V30 10281 H 974.969 -0.341976 0.657368 0
M  V30 10282 H 977.616 -0.202024 1.90431 0
M  V30 10283 H 975.921 -2.59726 2.93342 0
M  V30 10284 H 977.618 -2.35823 3.24328 0
M  V30 10285 H 974.208 -1.21611 4.10985 0
M  V30 10286 H 978.392 -0.661541 4.91871 0
M  V30 10287 H 973.648 0.0935866 6.11328 0
M  V30 10288 H 977.822 0.641917 6.93435 0
M  V30 10289 H 975.449 1.02547 7.53252 0
M  V30 10290 N 977.024 -1.50153 -0.478725 0
M  V30 10291 C 978.27 -1.60998 -1.23318 0
M  V30 10292 C 978.603 -0.305868 -1.91776 0
M  V30 10293 O 977.878 0.692158 -1.81767 0
M  V30 10294 C 978.161 -2.78495 -2.28282 0
M  V30 10295 C 978.014 -4.18767 -1.64178 0
M  V30 10296 C 979.333 -2.91569 -3.2966 0
M  V30 10297 H 976.452 -0.585983 -0.446982 0
M  V30 10298 H 979.094 -1.82514 -0.528063 0
M  V30 10299 H 977.244 -2.60281 -2.8842 0
M  V30 10300 H 978.916 -4.48552 -1.07696 0
M  V30 10301 H 977.159 -4.23379 -0.94514 0
M  V30 10302 H 977.83 -4.96894 -2.40417 0
M  V30 10303 H 980.306 -3.08219 -2.79536 0
M  V30 10304 H 979.182 -3.75419 -4.0044 0
M  V30 10305 H 979.443 -2.01859 -3.93326 0
M  V30 10306 N 978.502 0.731368 -1.39602 0
M  V30 10307 C 979.449 1.84541 -1.38612 0
M  V30 10308 C 980.419 1.64279 -0.245287 0
M  V30 10309 O 981.604 1.85635 -0.440954 0
M  V30 10310 C 978.744 3.22092 -1.23897 0
M  V30 10311 C 977.857 3.54034 -2.47555 0
M  V30 10312 C 976.992 4.81007 -2.25402 0
M  V30 10313 C 976.031 5.05804 -3.44716 0
M  V30 10314 N 975.168 6.23981 -3.21857 0
M  V30 10315 H 980.008 1.84722 -2.33841 0
M  V30 10316 H 977.545 0.902569 -1.16156 0
M  V30 10317 H 979.503 4.01499 -1.13376 0
M  V30 10318 H 978.133 3.2118 -0.322958 0
M  V30 10319 H 977.185 2.69301 -2.68665 0
M  V30 10320 H 978.497 3.68275 -3.36415 0
M  V30 10321 H 977.651 5.68401 -2.12143 0
M  V30 10322 H 976.39 4.68946 -1.33943 0
M  V30 10323 H 975.395 4.1687 -3.58468 0
M  V30 10324 H 976.62 5.19747 -4.37081 0
M  V30 10325 H 974.566 6.13202 -2.33065 0
M  V30 10326 H 974.483 6.38826 -4.04274 0
M  V30 10327 H 975.751 7.14205 -3.123 0
M  V30 10328 N 979.98 1.24838 0.961938 0
M  V30 10329 C 980.943 1.04674 2.03902 0
M  V30 10330 C 981.943 0.00204674 1.608 0
M  V30 10331 O 983.133 0.243555 1.72489 0
M  V30 10332 C 980.265 0.587736 3.35795 0
M  V30 10333 H 981.458 2.00278 2.23223 0
M  V30 10334 H 979.011 1.07142 1.138 0
M  V30 10335 H 979.746 -0.371244 3.22168 0
M  V30 10336 H 979.531 1.34182 3.68426 0
M  V30 10337 H 981.021 0.467867 4.14971 0
M  V30 10338 N 981.458 -1.16348 1.06306 0
M  V30 10339 C 982.706 -1.86512 0.778311 0
M  V30 10340 C 983.027 -1.82107 -0.697273 0
M  V30 10341 O 982.297 -1.2547 -1.50446 0
M  V30 10342 H 980.877 -0.690529 0.284919 0
M  V30 10343 H 983.539 -1.41092 1.34458 0
M  V30 10344 H 982.635 -2.91947 1.10333 0
M  V30 10345 N 982.937 -0.845659 -1.3299 0
M  V30 10346 C 984.214 -0.366306 -1.92139 0
M  V30 10347 C 984.594 1.14912 -1.77083 0
M  V30 10348 O 983.942 1.96667 -1.16338 0
M  V30 10349 C 984.152 -0.820716 -3.39213 0
M  V30 10350 C 985.5 -0.832667 -4.16355 0
M  V30 10351 O 986.524 -0.764764 -3.47893 0
M  V30 10352 O 985.383 -0.926658 -5.38586 0
M  V30 10353 H 982.477 -0.105063 -0.820299 0
M  V30 10354 H 985.023 -0.931962 -1.41819 0
M  V30 10355 H 983.795 -1.86357 -3.44074 0
M  V30 10356 H 983.418 -0.232009 -3.96923 0
M  V30 10357 N 984.415 1.45619 -0.602734 0
M  V30 10358 C 985.362 2.30493 0.118944 0
M  V30 10359 C 986.332 1.41816 0.864723 0
M  V30 10360 O 987.517 1.7075 0.851424 0
M  V30 10361 C 984.657 3.2664 1.11356 0
M  V30 10362 C 983.77 4.3042 0.369161 0
M  V30 10363 C 982.905 5.13678 1.35307 0
M  V30 10364 C 981.944 6.09189 0.596207 0
M  V30 10365 N 981.081 6.85245 1.52916 0
M  V30 10366 H 985.921 2.91672 -0.610836 0
M  V30 10367 H 983.458 1.43731 -0.313032 0
M  V30 10368 H 985.416 3.80846 1.7033 0
M  V30 10369 H 984.046 2.67225 1.81081 0
M  V30 10370 H 983.098 3.78913 -0.335994 0
M  V30 10371 H 984.41 4.98307 -0.221603 0
M  V30 10372 H 983.564 5.7226 2.01502 0
M  V30 10373 H 982.303 4.45798 1.97777 0
M  V30 10374 H 981.308 5.49743 -0.0793984 0
M  V30 10375 H 982.533 6.79096 -0.0233734 0
M  V30 10376 H 980.479 6.20058 2.14159 0
M  V30 10377 H 980.396 7.49467 0.991713 0
M  V30 10378 H 981.664 7.48371 2.18083 0
M  V30 10379 N 985.893 0.34162 1.53853 0
M  V30 10380 C 987.139 -0.255862 2.01179 0
M  V30 10381 C 987.472 -1.50356 1.22909 0
M  V30 10382 O 986.747 -1.91913 0.316198 0
M  V30 10383 C 987.03 -0.571934 3.55529 0
M  V30 10384 C 986.883 0.687727 4.44511 0
M  V30 10385 C 988.202 -1.38233 4.17827 0
M  V30 10386 H 985.321 -0.091521 0.731295 0
M  V30 10387 H 987.963 0.461775 1.84303 0
M  V30 10388 H 986.113 -1.18331 3.70041 0
M  V30 10389 H 987.785 1.32572 4.4184 0
M  V30 10390 H 986.028 1.313 4.13452 0
M  V30 10391 H 986.699 0.421858 5.50386 0
M  V30 10392 H 989.175 -0.865374 4.07002 0
M  V30 10393 H 988.051 -1.57223 5.25901 0
M  V30 10394 H 988.312 -2.38386 3.72323 0
M  V30 10395 N 987.371 -1.57444 0.0701946 0
M  V30 10396 C 988.318 -2.12631 -0.897599 0
M  V30 10397 C 989.288 -1.03841 -1.29639 0
M  V30 10398 O 990.473 -1.31495 -1.38253 0
M  V30 10399 C 987.613 -2.6911 -2.16041 0
M  V30 10400 C 986.726 -3.9205 -1.8144 0
M  V30 10401 C 985.861 -4.36778 -3.02321 0
M  V30 10402 C 984.9 -5.52371 -2.63729 0
M  V30 10403 N 984.037 -5.92065 -3.77364 0
M  V30 10404 H 988.877 -2.95024 -0.420104 0
M  V30 10405 H 986.414 -1.45792 -0.195716 0
M  V30 10406 H 988.372 -2.99963 -2.89962 0
M  V30 10407 H 987.002 -1.89484 -2.61334 0
M  V30 10408 H 986.054 -3.67669 -0.975896 0
M  V30 10409 H 987.366 -4.76011 -1.49046 0
M  V30 10410 H 986.52 -4.69285 -3.84521 0
M  V30 10411 H 985.259 -3.51668 -3.37907 0
M  V30 10412 H 984.264 -5.19517 -1.7995 0
M  V30 10413 H 985.489 -6.39212 -2.29315 0
M  V30 10414 H 983.435 -5.09904 -4.12715 0
M  V30 10415 H 983.352 -6.70762 -3.48733 0
M  V30 10416 H 984.62 -6.29193 -4.60148 0
M  V30 10417 N 988.849 0.203349 -1.56283 0
M  V30 10418 C 989.812 1.23566 -1.93039 0
M  V30 10419 C 990.812 1.38869 -0.810687 0
M  V30 10420 O 992.002 1.36822 -1.07821 0
M  V30 10421 C 989.134 2.60645 -2.1972 0
M  V30 10422 H 990.327 0.921692 -2.85385 0
M  V30 10423 H 987.88 0.44453 -1.49845 0
M  V30 10424 H 988.615 2.9711 -1.29985 0
M  V30 10425 H 988.4 2.50911 -3.01307 0
M  V30 10426 H 989.89 3.35103 -2.4919 0
M  V30 10427 N 990.327 1.50405 0.470755 0
M  V30 10428 C 991.575 1.61092 1.2204 0
M  V30 10429 C 991.896 0.313487 1.92464 0
M  V30 10430 O 991.166 -0.669043 1.84121 0
M  V30 10431 H 989.746 0.593618 0.45346 0
M  V30 10432 H 992.408 1.87184 0.542985 0
M  V30 10433 H 991.504 2.42222 1.96812 0
M  V30 10434 N 991.805 -0.723954 1.39988 0
M  V30 10435 C 993.082 -1.4763 1.28316 0
M  V30 10436 C 993.462 -2.10852 -0.102302 0
M  V30 10437 O 992.81 -1.9948 -1.11445 0
M  V30 10438 C 993.02 -2.51878 2.41574 0
M  V30 10439 C 994.368 -3.17948 2.81415 0
M  V30 10440 O 995.392 -2.62195 2.41106 0
M  V30 10441 O 994.251 -4.18858 3.51027 0
M  V30 10442 H 991.345 -0.656092 0.50346 0
M  V30 10443 H 993.891 -0.75684 1.51888 0
M  V30 10444 H 992.663 -2.03618 3.34149 0
M  V30 10445 H 992.286 -3.3137 2.19727 0
M  V30 10446 N 993.283 -1.25346 -0.955304 0
M  V30 10447 C 994.508 -1.12892 -1.73983 0
M  V30 10448 C 994.933 0.313455 -1.8547 0
M  V30 10449 O 994.291 1.22706 -1.33465 0
M  V30 10450 C 994.339 -1.78729 -3.1319 0
M  V30 10451 O 993.443 -1.06648 -3.98372 0
M  V30 10452 H 992.784 -0.394178 -0.534341 0
M  V30 10453 H 995.314 -1.65897 -1.19747 0
M  V30 10454 H 995.324 -1.84987 -3.63653 0
M  V30 10455 H 993.999 -2.83669 -3.04146 0
M  V30 10456 H 992.576 -1.08266 -3.56837 0
M  V30 10457 N 994.761 1.15782 -1.06922 0
M  V30 10458 C 995.691 2.22538 -0.707045 0
M  V30 10459 C 996.672 1.67371 0.303471 0
M  V30 10460 O 997.857 1.9339 0.177189 0
M  V30 10461 C 994.987 3.47158 -0.0994269 0
M  V30 10462 C 993.941 4.15257 -1.03661 0
M  V30 10463 C 993.267 5.33902 -0.291974 0
M  V30 10464 C 994.567 4.65516 -2.36837 0
M  V30 10465 H 996.261 2.53089 -1.59958 0
M  V30 10466 H 993.807 1.21649 -0.770552 0
M  V30 10467 H 995.76 4.21073 0.165852 0
M  V30 10468 H 994.484 3.15926 0.828155 0
M  V30 10469 H 993.143 3.43276 -1.28674 0
M  V30 10470 H 992.791 4.98926 0.638928 0
M  V30 10471 H 992.491 5.80407 -0.916613 0
M  V30 10472 H 994.015 6.1059 -0.0343915 0
M  V30 10473 H 995.429 5.30981 -2.16175 0
M  V30 10474 H 993.826 5.22666 -2.94856 0
M  V30 10475 H 994.896 3.81387 -2.99453 0
M  V30 10476 N 996.239 0.8527 1.3254 0
M  V30 10477 C 997.172 0.240733 2.26927 0
M  V30 10478 C 998.15 -0.620158 1.50309 0
M  V30 10479 O 999.334 -0.577389 1.79439 0
M  V30 10480 C 996.461 -0.660644 3.32195 0
M  V30 10481 C 995.507 0.126604 4.26312 0
M  V30 10482 S 996.34 1.49372 5.14245 0
M  V30 10483 C 997.496 0.598002 6.23037 0
M  V30 10484 H 997.729 1.04088 2.78483 0
M  V30 10485 H 995.262 0.650222 1.40041 0
M  V30 10486 H 997.22 -1.17506 3.93323 0
M  V30 10487 H 995.881 -1.43458 2.79426 0
M  V30 10488 H 995.074 -0.559851 5.00881 0
M  V30 10489 H 994.676 0.572536 3.69592 0
M  V30 10490 H 996.968 -0.198555 6.77209 0
M  V30 10491 H 997.911 1.31428 6.95796 0
M  V30 10492 H 998.319 0.173211 5.64234 0
M  V30 10493 N 997.718 -1.45297 0.610449 0
M  V30 10494 C 998.964 -2.02518 0.106917 0
M  V30 10495 C 999.297 -1.47747 -1.26034 0
M  V30 10496 O 998.572 -0.65329 -1.832 0
M  V30 10497 C 998.855 -3.6003 0.0710975 0
M  V30 10498 C 998.708 -4.25128 1.46922 0
M  V30 10499 C 1000.03 -4.35778 -0.61524 0
M  V30 10500 H 997.146 -0.735896 0.040327 0
M  V30 10501 H 999.788 -1.73117 0.782968 0
M  V30 10502 H 997.938 -3.85209 -0.504611 0
M  V30 10503 H 999.61 -4.11125 2.09223 0
M  V30 10504 H 997.853 -3.83418 2.02911 0
M  V30 10505 H 998.524 -5.34046 1.39637 0
M  V30 10506 H 1001 -4.1591 -0.125871 0
M  V30 10507 H 999.876 -5.45506 -0.609419 0
M  V30 10508 H 1000.14 -4.08859 -1.68186 0
M  V30 10509 N 999.196 -0.349774 -1.5367 0
M  V30 10510 C 1000.13 0.547309 -2.2154 0
M  V30 10511 C 1001.11 1.09543 -1.20163 0
M  V30 10512 O 1002.29 1.15453 -1.49006 0
M  V30 10513 C 999.418 1.75356 -2.89772 0
M  V30 10514 C 998.464 1.33433 -4.0509 0
M  V30 10515 S 999.297 0.348891 -5.34362 0
M  V30 10516 C 1000.45 1.56183 -6.061 0
M  V30 10517 H 1000.69 -0.0291392 -2.97286 0
M  V30 10518 H 998.219 -0.133853 -1.53819 0
M  V30 10519 H 1000.18 2.44555 -3.29701 0
M  V30 10520 H 998.838 2.30123 -2.1378 0
M  V30 10521 H 998.031 2.23388 -4.5179 0
M  V30 10522 H 997.633 0.721746 -3.6697 0
M  V30 10523 H 999.925 2.49535 -6.29872 0
M  V30 10524 H 1000.87 1.13651 -6.9892 0
M  V30 10525 H 1001.28 1.76071 -5.36339 0
M  V30 10526 N 1000.67 1.57404 -0.0785433 0
M  V30 10527 C 1001.92 1.9292 0.588626 0
M  V30 10528 C 1002.24 0.961106 1.70359 0
M  V30 10529 O 1003.44 1.20934 2.43079 0
M  V30 10530 C 1001.9 3.42729 1.09839 0
M  V30 10531 C 1001.51 4.47998 0.0140773 0
M  V30 10532 C 1003.25 3.87235 1.73924 0
M  V30 10533 C 1001.16 5.88945 0.538269 0
M  V30 10534 H 1000.09 0.720069 0.223645 0
M  V30 10535 H 1002.74 1.8287 -0.15187 0
M  V30 10536 H 1001.12 3.47875 1.89207 0
M  V30 10537 H 1002.29 4.54476 -0.760773 0
M  V30 10538 H 1000.61 4.13001 -0.53095 0
M  V30 10539 H 1003.21 4.89927 2.14186 0
M  V30 10540 H 1003.55 3.24971 2.60191 0
M  V30 10541 H 1004.08 3.84721 1.01168 0
M  V30 10542 H 1000.82 6.5487 -0.287395 0
M  V30 10543 H 1000.34 5.85972 1.28049 0
M  V30 10544 H 1002.02 6.39028 1.01253 0
M  V30 10545 N 1002.15 -0.195058 1.56388 0
M  V30 10546 C 1003.11 -1.2254 1.93692 0
M  V30 10547 C 1004.11 -1.38437 0.81804 0
M  V30 10548 O 1005.3 -1.36248 1.08545 0
M  V30 10549 C 1002.44 -2.59476 2.21099 0
M  V30 10550 H 1003.63 -0.906544 2.8587 0
M  V30 10551 H 1001.18 -0.436577 1.50079 0
M  V30 10552 H 1001.92 -2.96417 1.31558 0
M  V30 10553 H 1001.7 -2.4931 3.02634 0
M  V30 10554 H 1003.19 -3.33777 2.50964 0
M  V30 10555 N 1003.63 -1.50653 -0.462772 0
M  V30 10556 C 1004.56 -1.64773 -1.57877 0
M  V30 10557 C 1005.54 -0.495664 -1.54861 0
M  V30 10558 O 1006.72 -0.716248 -1.74362 0
M  V30 10559 C 1003.85 -1.63796 -2.9646 0
M  V30 10560 C 1002.9 -2.84663 -3.17599 0
M  V30 10561 S 1003.73 -4.45852 -2.96608 0
M  V30 10562 C 1004.89 -4.47581 -4.37518 0
M  V30 10563 H 1005.12 -2.59172 -1.45661 0
M  V30 10564 H 1002.65 -1.40019 -0.650699 0
M  V30 10565 H 1004.61 -1.63918 -3.76353 0
M  V30 10566 H 1003.27 -0.706185 -3.06059 0
M  V30 10567 H 1002.46 -2.80308 -4.1886 0
M  V30 10568 H 1002.07 -2.82152 -2.45492 0
M  V30 10569 H 1004.36 -4.21656 -5.30295 0
M  V30 10570 H 1005.3 -5.49248 -4.46914 0
M  V30 10571 H 1005.71 -3.7719 -4.19985 0
M  V30 10572 N 1005.11 0.71652 -1.4037 0
M  V30 10573 C 1006.06 1.8306 -1.40562 0
M  V30 10574 C 1007.03 1.64009 -0.262697 0
M  V30 10575 O 1008.21 1.85157 -0.460619 0
M  V30 10576 C 1005.35 3.2076 -1.27307 0
M  V30 10577 C 1004.46 3.51389 -2.51296 0
M  V30 10578 C 1003.6 4.78589 -2.30491 0
M  V30 10579 C 1002.64 5.02119 -3.50061 0
M  V30 10580 N 1001.77 6.20533 -3.28457 0
M  V30 10581 H 1006.61 1.82231 -2.35788 0
M  V30 10582 H 1004.15 0.890198 -1.17106 0
M  V30 10583 H 1006.11 4.00274 -1.17628 0
M  V30 10584 H 1004.74 3.2082 -0.357005 0
M  V30 10585 H 1003.79 2.66436 -2.71507 0
M  V30 10586 H 1005.1 3.64686 -3.40302 0
M  V30 10587 H 1004.26 5.66119 -2.1816 0
M  V30 10588 H 1003 4.67499 -1.38909 0
M  V30 10589 H 1002 4.13044 -3.6287 0
M  V30 10590 H 1003.23 5.15082 -4.42569 0
M  V30 10591 H 1001.17 6.10695 -2.39556 0
M  V30 10592 H 1001.09 6.34502 -4.11027 0
M  V30 10593 H 1002.36 7.10853 -3.19857 0
M  V30 10594 N 1006.59 1.25851 0.948643 0
M  V30 10595 C 1007.52 1.0108 2.04593 0
M  V30 10596 C 1008.5 -0.0619691 1.62482 0
M  V30 10597 O 1009.68 0.0789196 1.88335 0
M  V30 10598 C 1006.81 0.529174 3.34541 0
M  V30 10599 C 1005.85 1.59337 3.95618 0
M  V30 10600 S 1006.69 3.18026 4.30836 0
M  V30 10601 C 1007.84 2.71613 5.63895 0
M  V30 10602 H 1008.08 1.93988 2.2529 0
M  V30 10603 H 1005.61 1.09448 1.08906 0
M  V30 10604 H 1007.57 0.25795 4.09689 0
M  V30 10605 H 1006.23 -0.37951 3.11799 0
M  V30 10606 H 1005.42 1.20722 4.89328 0
M  V30 10607 H 1005.02 1.81559 3.26975 0
M  V30 10608 H 1007.32 2.15612 6.42275 0
M  V30 10609 H 1008.26 3.63986 6.07387 0
M  V30 10610 H 1008.67 2.11417 5.23415 0
M  V30 10611 N 1008.06 -1.15214 1.07534 0
M  V30 10612 C 1008.97 -2.23636 0.708818 0
M  V30 10613 C 1009.99 -1.7172 -0.280759 0
M  V30 10614 O 1011.17 -2.01 -0.126927 0
M  V30 10615 C 1008.23 -3.46512 0.114167 0
M  V30 10616 C 1007.29 -4.13409 1.15722 0
M  V30 10617 C 1006.53 -5.30419 0.59085 0
M  V30 10618 O 1006.75 -5.67314 -0.592512 0
M  V30 10619 O 1005.68 -5.86871 1.33663 0
M  V30 10620 H 1009.51 -2.57322 1.61305 0
M  V30 10621 H 1007.09 -1.22972 0.848422 0
M  V30 10622 H 1008.98 -4.20851 -0.215091 0
M  V30 10623 H 1007.65 -3.1457 -0.763356 0
M  V30 10624 H 1006.56 -3.40984 1.53886 0
M  V30 10625 H 1007.89 -4.49435 2.00671 0
M  V30 10626 N 1009.54 -0.859717 -1.32086 0
M  V30 10627 C 1010.49 -0.279715 -2.26278 0
M  V30 10628 C 1011.48 0.577348 -1.50185 0
M  V30 10629 O 1012.67 0.425903 -1.71799 0
M  V30 10630 C 1009.8 0.526622 -3.39237 0
M  V30 10631 C 1008.88 -0.343112 -4.2271 0
M  V30 10632 N 1009.27 -1.43176 -4.85113 0
M  V30 10633 C 1007.57 -0.133744 -4.45799 0
M  V30 10634 C 1008.27 -1.96725 -5.47425 0
M  V30 10635 N 1007.25 -1.26569 -5.2866 0
M  V30 10636 H 1011.05 -1.11191 -2.72055 0
M  V30 10637 H 1008.57 -0.706372 -1.46233 0
M  V30 10638 H 1010.56 0.958587 -4.0573 0
M  V30 10639 H 1009.22 1.35655 -2.95005 0
M  V30 10640 H 1010.23 -1.81469 -4.85066 0
M  V30 10641 H 1006.91 0.661064 -4.12233 0
M  V30 10642 H 1008.3 -2.88006 -6.07044 0
M  V30 10643 N 1011.02 1.44971 -0.618145 0
M  V30 10644 C 1012.25 2.06527 -0.124165 0
M  V30 10645 C 1012.66 1.46097 1.19588 0
M  V30 10646 O 1012.02 0.57901 1.73071 0
M  V30 10647 C 1012.07 3.61498 0.0106701 0
M  V30 10648 O 1011.79 4.19675 -1.25716 0
M  V30 10649 C 1013.29 4.40061 0.534872 0
M  V30 10650 H 1010.51 0.666941 -0.0736935 0
M  V30 10651 H 1013.06 1.8605 -0.848871 0
M  V30 10652 H 1011.21 3.81282 0.685752 0
M  V30 10653 H 1011.63 5.12972 -1.09362 0
M  V30 10654 H 1013.1 5.48963 0.57827 0
M  V30 10655 H 1013.58 4.10587 1.55931 0
M  V30 10656 H 1014.18 4.25167 -0.10652 0
M  V30 10657 N 1012.5 0.357919 1.53482 0
M  V30 10658 C 1013.75 -0.235241 2.00324 0
M  V30 10659 C 1014.06 -1.50494 1.24944 0
M  V30 10660 O 1015.27 -2.17623 1.62335 0
M  V30 10661 C 1013.72 -0.469748 3.56821 0
M  V30 10662 C 1013.33 0.784877 4.41071 0
M  V30 10663 C 1015.07 -1.02098 4.12039 0
M  V30 10664 C 1012.98 0.520377 5.89106 0
M  V30 10665 H 1011.91 -0.0916816 0.748405 0
M  V30 10666 H 1014.56 0.475474 1.77233 0
M  V30 10667 H 1012.94 -1.24153 3.76035 0
M  V30 10668 H 1014.12 1.55886 4.33631 0
M  V30 10669 H 1012.43 1.25878 3.96918 0
M  V30 10670 H 1015.03 -1.23406 5.20264 0
M  V30 10671 H 1015.37 -1.98084 3.66154 0
M  V30 10672 H 1015.91 -0.309554 3.96594 0
M  V30 10673 H 1012.65 1.45035 6.39254 0
M  V30 10674 H 1012.17 -0.215254 5.99414 0
M  V30 10675 H 1013.84 0.143006 6.46842 0
M  V30 10676 N 1013.98 -1.5736 0.0868897 0
M  V30 10677 C 1014.92 -2.13571 -0.874996 0
M  V30 10678 C 1015.89 -1.0521 -1.2853 0
M  V30 10679 O 1017.08 -1.32954 -1.3685 0
M  V30 10680 C 1014.22 -2.71386 -2.13175 0
M  V30 10681 C 1013.33 -3.93953 -1.77272 0
M  V30 10682 C 1012.47 -4.3996 -2.97671 0
M  V30 10683 C 1011.51 -5.55137 -2.57856 0
M  V30 10684 N 1010.64 -5.96034 -3.71064 0
M  V30 10685 H 1015.48 -2.95453 -0.388789 0
M  V30 10686 H 1013.02 -1.45992 -0.180242 0
M  V30 10687 H 1014.98 -3.03022 -2.86764 0
M  V30 10688 H 1013.61 -1.92245 -2.5931 0
M  V30 10689 H 1012.66 -3.68683 -0.936845 0
M  V30 10690 H 1013.97 -4.77565 -1.43989 0
M  V30 10691 H 1013.13 -4.73337 -3.79522 0
M  V30 10692 H 1011.86 -3.55232 -3.34158 0
M  V30 10693 H 1010.87 -5.21397 -1.7443 0
M  V30 10694 H 1012.09 -6.41608 -2.22522 0
M  V30 10695 H 1010.04 -5.14253 -4.07284 0
M  V30 10696 H 1009.96 -6.74423 -3.41599 0
M  V30 10697 H 1011.23 -6.34038 -4.53449 0
M  V30 10698 N 1015.45 0.186762 -1.56489 0
M  V30 10699 C 1016.68 0.925916 -1.85584 0
M  V30 10700 C 1017.1 1.75708 -0.671446 0
M  V30 10701 O 1016.46 1.7728 0.379687 0
M  V30 10702 C 1016.51 1.79107 -3.12975 0
M  V30 10703 O 1015.61 2.89088 -2.94112 0
M  V30 10704 H 1014.96 0.260275 -0.610863 0
M  V30 10705 H 1017.49 0.189561 -2.0372 0
M  V30 10706 H 1017.5 2.19408 -3.43983 0
M  V30 10707 H 1016.17 1.18044 -3.98796 0
M  V30 10708 H 1014.75 2.52482 -2.74422 0
M  V30 10709 N 1016.93 1.50896 0.454776 0
M  V30 10710 C 1018.34 1.55372 1.0352 0
M  V30 10711 C 1018.69 0.366822 1.9274 0
M  V30 10712 O 1017.82 -0.518444 2.10098 0
M  V30 10713 C 1018.41 2.81574 1.88418 0
M  V30 10714 C 1016.97 2.88679 2.4154 0
M  V30 10715 C 1016.12 2.49847 1.20298 0
M  V30 10716 H 1019.07 1.56924 0.236729 0
M  V30 10717 H 1019.09 2.64352 2.73676 0
M  V30 10718 H 1018.6 3.67941 1.23455 0
M  V30 10719 H 1016.71 2.06702 3.10008 0
M  V30 10720 H 1016.82 3.91944 2.7553 0
M  V30 10721 H 1015.18 2.02651 1.54288 0
M  V30 10722 H 1015.97 3.3854 0.569723 0
M  V30 10723 N 1018.41 -0.709066 1.40748 0
M  V30 10724 C 1019.36 -1.82312 1.4153 0
M  V30 10725 C 1020.33 -1.63868 0.271392 0
M  V30 10726 O 1021.51 -1.8491 0.470431 0
M  V30 10727 C 1018.65 -3.2008 1.29006 0
M  V30 10728 C 1017.77 -3.50051 2.53156 0
M  V30 10729 C 1016.9 -4.7736 2.33025 0
M  V30 10730 C 1015.94 -5.00255 3.52719 0
M  V30 10731 N 1015.08 -6.18782 3.31743 0
M  V30 10732 H 1019.92 -1.80978 2.36751 0
M  V30 10733 H 1017.45 -0.883975 1.17577 0
M  V30 10734 H 1019.41 -3.99645 1.19749 0
M  V30 10735 H 1018.04 -3.20626 0.374014 0
M  V30 10736 H 1017.09 -2.64993 2.72916 0
M  V30 10737 H 1018.41 -3.62877 3.42231 0
M  V30 10738 H 1017.56 -5.64954 2.21159 0
M  V30 10739 H 1016.3 -4.66756 1.41386 0
M  V30 10740 H 1015.3 -4.11114 3.65055 0
M  V30 10741 H 1016.53 -5.12728 4.45295 0
M  V30 10742 H 1014.47 -6.09416 2.42791 0
M  V30 10743 H 1014.39 -6.32313 4.14386 0
M  V30 10744 H 1015.66 -7.09146 3.23623 0
M  V30 10745 N 1019.89 -1.26353 -0.941956 0
M  V30 10746 C 1021.17 -1.02601 -1.6653 0
M  V30 10747 C 1021.55 0.44381 -2.06382 0
M  V30 10748 O 1020.89 1.42399 -1.78703 0
M  V30 10749 C 1021.1 -1.97401 -2.87809 0
M  V30 10750 C 1022.45 -2.25967 -3.59478 0
M  V30 10751 O 1023.48 -1.95261 -2.97912 0
M  V30 10752 O 1022.34 -2.78244 -4.70364 0
M  V30 10753 H 1019.43 -0.39007 -0.729228 0
M  V30 10754 H 1021.98 -1.37559 -0.993754 0
M  V30 10755 H 1020.75 -2.9659 -2.55245 0
M  V30 10756 H 1020.37 -1.62918 -3.62689 0
M  V30 10757 N 1021.37 1.14642 -1.08144 0
M  V30 10758 C 1022.62 1.8525 -0.807885 0
M  V30 10759 C 1022.94 1.83194 0.668213 0
M  V30 10760 O 1022.21 1.27848 1.48431 0
M  V30 10761 H 1020.79 0.685909 -0.295868 0
M  V30 10762 H 1023.45 1.38935 -1.36686 0
M  V30 10763 H 1022.54 2.90155 -1.14964 0
M  V30 10764 N 1022.85 0.866709 1.31628 0
M  V30 10765 C 1024.07 0.49039 2.01004 0
M  V30 10766 C 1024.49 -0.916244 1.65077 0
M  V30 10767 O 1023.85 -1.59975 0.8783 0
M  V30 10768 C 1023.9 0.634011 3.55897 0
M  V30 10769 O 1023.62 1.98525 3.90537 0
M  V30 10770 C 1025.12 0.258277 4.42547 0
M  V30 10771 H 1022.34 0.191421 0.643117 0
M  V30 10772 H 1024.88 1.16698 1.67934 0
M  V30 10773 H 1023.04 0.00501801 3.874 0
M  V30 10774 H 1023.45 1.99067 4.85255 0
M  V30 10775 H 1024.93 0.409733 5.50477 0
M  V30 10776 H 1025.4 -0.802301 4.3181 0
M  V30 10777 H 1026.01 0.862837 4.16456 0
M  V30 10778 N 1024.32 -1.44642 0.625825 0
M  V30 10779 C 1025.57 -2.02393 0.128391 0
M  V30 10780 C 1025.9 -1.49075 -1.2446 0
M  V30 10781 O 1025.18 -0.672684 -1.82497 0
M  V30 10782 C 1025.46 -3.59934 0.109279 0
M  V30 10783 C 1025.31 -4.23546 1.51423 0
M  V30 10784 C 1026.63 -4.36406 -0.568985 0
M  V30 10785 H 1023.75 -0.735427 0.0481299 0
M  V30 10786 H 1026.39 -1.72277 0.801286 0
M  V30 10787 H 1024.54 -3.85722 -0.463726 0
M  V30 10788 H 1026.22 -4.08882 2.13572 0
M  V30 10789 H 1024.46 -3.81245 2.06966 0
M  V30 10790 H 1025.13 -5.32535 1.45294 0
M  V30 10791 H 1027.61 -4.1602 -0.0817516 0
M  V30 10792 H 1026.48 -5.46122 -0.551527 0
M  V30 10793 H 1026.74 -4.1062 -1.6384 0
M  V30 10794 N 1025.8 -0.366053 -1.5329 0
M  V30 10795 C 1026.75 0.480205 -2.25749 0
M  V30 10796 C 1027.72 1.07713 -1.2644 0
M  V30 10797 O 1028.9 1.10953 -1.55222 0
M  V30 10798 C 1026.04 1.61374 -3.05045 0
M  V30 10799 C 1025.16 1.04194 -4.19246 0
M  V30 10800 C 1024.29 2.14462 -4.85983 0
M  V30 10801 C 1023.33 1.5475 -5.92215 0
M  V30 10802 N 1022.47 2.58852 -6.52641 0
M  V30 10803 H 1027.31 -0.144199 -2.97651 0
M  V30 10804 H 1024.84 -0.0829321 -1.46866 0
M  V30 10805 H 1026.8 2.28144 -3.49294 0
M  V30 10806 H 1025.43 2.2088 -2.35397 0
M  V30 10807 H 1024.48 0.264514 -3.79479 0
M  V30 10808 H 1025.8 0.565379 -4.95585 0
M  V30 10809 H 1024.95 2.89051 -5.33418 0
M  V30 10810 H 1023.69 2.6547 -4.09117 0
M  V30 10811 H 1022.69 0.786759 -5.44142 0
M  V30 10812 H 1023.92 1.04566 -6.71001 0
M  V30 10813 H 1021.87 3.09073 -5.78627 0
M  V30 10814 H 1021.78 2.15884 -7.24521 0
M  V30 10815 H 1023.05 3.33142 -7.04724 0
M  V30 10816 N 1027.28 1.57312 -0.0952337 0
M  V30 10817 C 1028.23 2.14032 0.863657 0
M  V30 10818 C 1029.2 1.0589 1.27971 0
M  V30 10819 O 1030.38 1.33678 1.36143 0
M  V30 10820 C 1027.52 2.72513 2.11733 0
M  V30 10821 C 1026.63 3.94887 1.7518 0
M  V30 10822 C 1025.77 4.41533 2.95334 0
M  V30 10823 C 1024.81 5.56496 2.54908 0
M  V30 10824 N 1023.95 5.97993 3.67897 0
M  V30 10825 H 1028.79 2.95655 0.373115 0
M  V30 10826 H 1026.32 1.46085 0.172497 0
M  V30 10827 H 1028.28 3.04539 2.85153 0
M  V30 10828 H 1026.91 1.93618 2.58287 0
M  V30 10829 H 1025.96 3.69175 0.917279 0
M  V30 10830 H 1027.27 4.78322 1.41455 0
M  V30 10831 H 1026.43 4.75343 3.77007 0
M  V30 10832 H 1025.17 3.56999 3.3227 0
M  V30 10833 H 1024.17 5.22314 1.71662 0
M  V30 10834 H 1025.4 6.42779 2.19117 0
M  V30 10835 H 1023.34 5.16405 4.04551 0
M  V30 10836 H 1023.26 6.76225 3.38018 0
M  V30 10837 H 1024.53 6.36434 4.5008 0
M  V30 10838 N 1028.76 -0.17846 1.56586 0
M  V30 10839 C 1030 -0.897562 1.81856 0
M  V30 10840 C 1030.34 -1.82204 0.671955 0
M  V30 10841 O 1029.61 -1.91739 -0.326535 0
M  V30 10842 C 1029.89 -1.69942 3.17477 0
M  V30 10843 C 1029.75 -0.798545 4.42655 0
M  V30 10844 C 1031.07 -2.66861 3.49962 0
M  V30 10845 H 1028.19 -0.324863 0.661539 0
M  V30 10846 H 1030.83 -0.164106 1.8929 0
M  V30 10847 H 1028.98 -2.32471 3.11271 0
M  V30 10848 H 1030.65 -0.18668 4.60922 0
M  V30 10849 H 1028.89 -0.106181 4.3367 0
M  V30 10850 H 1029.56 -1.39496 5.34083 0
M  V30 10851 H 1032.04 -2.1446 3.56576 0
M  V30 10852 H 1030.92 -3.20037 4.45946 0
M  V30 10853 H 1031.18 -3.46715 2.74301 0
M  V30 10854 N 1030.24 -1.51135 -0.446768 0
M  V30 10855 C 1031.48 -1.63336 -1.19698 0
M  V30 10856 C 1031.81 -0.345099 -1.91414 0
M  V30 10857 O 1031.07 0.670365 -1.8386 0
M  V30 10858 C 1031.36 -2.78034 -2.2457 0
M  V30 10859 C 1031.03 -4.17652 -1.69934 0
M  V30 10860 C 1029.69 -4.55636 -1.54756 0
M  V30 10861 C 1032.04 -5.04813 -1.29665 0
M  V30 10862 C 1029.37 -5.78496 -0.977689 0
M  V30 10863 C 1031.72 -6.28244 -0.741112 0
M  V30 10864 C 1030.39 -6.65009 -0.576156 0
M  V30 10865 H 1029.66 -0.597689 -0.438006 0
M  V30 10866 H 1032.31 -1.85141 -0.48939 0
M  V30 10867 H 1030.61 -2.50413 -3.01331 0
M  V30 10868 H 1032.31 -2.84675 -2.8242 0
M  V30 10869 H 1028.9 -3.87699 -1.82722 0
M  V30 10870 H 1033.08 -4.76081 -1.40216 0
M  V30 10871 H 1028.34 -6.05636 -0.837563 0
M  V30 10872 H 1032.51 -6.95129 -0.42053 0
M  V30 10873 H 1030.14 -7.60085 -0.132443 0
M  V30 10874 N 1031.71 0.701592 -1.41122 0
M  V30 10875 C 1032.94 1.48833 -1.43291 0
M  V30 10876 C 1033.35 1.89168 -0.0348668 0
M  V30 10877 O 1032.69 1.56937 0.9548 0
M  V30 10878 C 1032.76 2.78533 -2.27287 0
M  V30 10879 C 1032.42 2.60438 -3.75528 0
M  V30 10880 C 1033.42 2.26778 -4.67833 0
M  V30 10881 C 1031.1 2.76266 -4.19503 0
M  V30 10882 C 1033.1 2.09176 -6.021 0
M  V30 10883 C 1030.78 2.58281 -5.53836 0
M  V30 10884 C 1031.78 2.24786 -6.4495 0
M  V30 10885 O 1031.47 2.06952 -7.76805 0
M  V30 10886 H 1031.2 0.465401 -0.490284 0
M  V30 10887 H 1033.76 0.871843 -1.85979 0
M  V30 10888 H 1031.99 3.42566 -1.79403 0
M  V30 10889 H 1033.67 3.40312 -2.21229 0
M  V30 10890 H 1034.44 2.1417 -4.35151 0
M  V30 10891 H 1030.32 3.01322 -3.48893 0
M  V30 10892 H 1033.86 1.82955 -6.73181 0
M  V30 10893 H 1029.76 2.70478 -5.86099 0
M  V30 10894 H 1030.53 2.21762 -7.87886 0
M  V30 10895 N 1033.19 1.2685 0.935242 0
M  V30 10896 C 1034.61 1.04091 1.20984 0
M  V30 10897 C 1034.81 -0.230242 2.0018 0
M  V30 10898 O 1033.86 -0.93778 2.3444 0
M  V30 10899 C 1035.18 2.27586 1.96533 0
M  V30 10900 C 1036.72 2.32547 2.09501 0
M  V30 10901 C 1037.2 3.55751 2.88454 0
M  V30 10902 N 1038.69 3.56263 2.96025 0
M  V30 10903 C 1039.43 4.48262 3.57559 0
M  V30 10904 N 1038.92 5.50557 4.20546 0
M  V30 10905 N 1040.71 4.35901 3.5489 0
M  V30 10906 H 1032.87 2.08484 0.405954 0
M  V30 10907 H 1035.13 0.916548 0.242164 0
M  V30 10908 H 1034.83 3.20076 1.45753 0
M  V30 10909 H 1034.71 2.32305 2.97177 0
M  V30 10910 H 1037.1 1.40568 2.5947 0
M  V30 10911 H 1037.18 2.31836 1.08101 0
M  V30 10912 H 1036.82 4.48063 2.3917 0
M  V30 10913 H 1036.75 3.53711 3.90123 0
M  V30 10914 H 1039.24 2.82278 2.51252 0
M  V30 10915 H 1039.55 6.16935 4.65415 0
M  V30 10916 H 1037.9 5.54407 4.19115 0
M  V30 10917 H 1041.09 3.552 3.04879 0
M  V30 10918 H 1041.26 5.07792 4.02557 0
M  V30 10919 N 1034.67 -1.14067 1.0875 0
M  V30 10920 C 1035.58 -2.22871 0.732498 0
M  V30 10921 C 1036.6 -1.72008 -0.26253 0
M  V30 10922 O 1037.77 -2.01123 -0.105601 0
M  V30 10923 C 1034.84 -3.46371 0.150913 0
M  V30 10924 C 1033.9 -4.12158 1.201 0
M  V30 10925 C 1033.13 -5.29763 0.647075 0
M  V30 10926 O 1033.35 -5.67911 -0.532307 0
M  V30 10927 O 1032.29 -5.8542 1.3988 0
M  V30 10928 H 1036.11 -2.55596 1.64025 0
M  V30 10929 H 1033.7 -1.22065 0.861417 0
M  V30 10930 H 1035.58 -4.21055 -0.170442 0
M  V30 10931 H 1034.26 -3.15362 -0.729948 0
M  V30 10932 H 1033.16 -3.39332 1.57494 0
M  V30 10933 H 1034.5 -4.47282 2.05426 0
M  V30 10934 N 1036.15 -0.873678 -1.31166 0
M  V30 10935 C 1037.4 -0.485497 -1.96182 0
M  V30 10936 C 1037.72 0.96621 -1.69379 0
M  V30 10937 O 1036.99 1.67783 -1.01121 0
M  V30 10938 H 1035.57 -0.176547 -0.725838 0
M  V30 10939 H 1038.23 -1.11428 -1.59906 0
M  V30 10940 H 1037.33 -0.646325 -3.05334 0
M  V30 10941 N 1037.63 1.44308 -0.633487 0
M  V30 10942 C 1038.59 2.2912 0.060376 0
M  V30 10943 C 1039.59 1.41166 0.769992 0
M  V30 10944 O 1040.78 1.63012 0.614224 0
M  V30 10945 C 1037.91 3.22798 1.0961 0
M  V30 10946 H 1039.1 2.91958 -0.685617 0
M  V30 10947 H 1036.66 1.51259 -0.393738 0
M  V30 10948 H 1037.39 2.64815 1.87199 0
M  V30 10949 H 1037.18 3.87618 0.591161 0
M  V30 10950 H 1038.67 3.86504 1.58127 0
M  V30 10951 N 1039.1 0.374177 1.53094 0
M  V30 10952 C 1040.04 -0.503065 2.23611 0
M  V30 10953 C 1041.05 -1.03915 1.25321 0
M  V30 10954 O 1042.24 -0.944064 1.51492 0
M  V30 10955 C 1039.34 -1.70825 2.92698 0
M  V30 10956 C 1038.51 -1.30217 4.17567 0
M  V30 10957 C 1037.57 -2.37036 4.69788 0
M  V30 10958 O 1036.6 -1.99069 5.33254 0
M  V30 10959 N 1037.8 -3.68743 4.4834 0
M  V30 10960 H 1040.56 0.101013 2.9953 0
M  V30 10961 H 1038.12 0.199778 1.60663 0
M  V30 10962 H 1040.12 -2.41779 3.24538 0
M  V30 10963 H 1038.69 -2.219 2.2018 0
M  V30 10964 H 1037.91 -0.422121 3.91933 0
M  V30 10965 H 1039.19 -1.00728 4.9873 0
M  V30 10966 H 1038.59 -4.0236 3.97647 0
M  V30 10967 H 1037.15 -4.35776 4.84709 0
M  V30 10968 N 1040.58 -1.57259 0.103575 0
M  V30 10969 C 1041.55 -2.13337 -0.837859 0
M  V30 10970 C 1042.55 -1.06459 -1.20512 0
M  V30 10971 O 1043.74 -1.32307 -1.13316 0
M  V30 10972 C 1040.87 -2.66093 -2.13089 0
M  V30 10973 H 1042.06 -2.97842 -0.350775 0
M  V30 10974 H 1039.61 -1.55621 -0.145511 0
M  V30 10975 H 1040.35 -1.85133 -2.66264 0
M  V30 10976 H 1040.13 -3.44244 -1.87719 0
M  V30 10977 H 1041.62 -3.09443 -2.80419 0
M  V30 10978 N 1042.06 0.170153 -1.56679 0
M  V30 10979 C 1043.01 1.22997 -1.9742 0
M  V30 10980 C 1044 1.45762 -0.863117 0
M  V30 10981 O 1045.21 1.46328 -1.04824 0
M  V30 10982 H 1041.58 0.413482 -0.628122 0
M  V30 10983 H 1043.55 0.859502 -2.85754 0
M  V30 10984 C 1042.3 2.5615 -2.35122 0
M  V30 10985 H 1041.63 2.39456 -3.20158 0
M  V30 10986 H 1043.07 3.28991 -2.67471 0
M  V30 10987 C 1041.53 3.14992 -1.19507 0
M  V30 10988 O 1042.06 3.98781 -0.483357 0
M  V30 10989 N 1040.26 2.74098 -0.965332 0
M  V30 10990 H 1039.81 2.06062 -1.54585 0
M  V30 10991 H 1039.77 3.13803 -0.193611 0
M  V30 10992 N 1043.54 1.5137 0.438746 0
M  V30 10993 C 1044.95 1.39514 0.775116 0
M  V30 10994 C 1045.15 0.47638 1.95788 0
M  V30 10995 O 1044.21 -0.0689832 2.52406 0
M  V30 10996 C 1045.52 2.81517 1.05681 0
M  V30 10997 C 1047.07 2.90658 1.16133 0
M  V30 10998 C 1047.55 4.33566 1.47597 0
M  V30 10999 N 1049.04 4.36665 1.54524 0
M  V30 11000 C 1049.77 5.4427 1.80438 0
M  V30 11001 N 1049.27 6.62037 2.04154 0
M  V30 11002 N 1051.06 5.31749 1.82208 0
M  V30 11003 H 1043.21 2.09657 -0.340237 0
M  V30 11004 H 1045.48 0.943736 -0.0898115 0
M  V30 11005 H 1045.18 3.50734 0.260441 0
M  V30 11006 H 1045.06 3.20757 1.98481 0
M  V30 11007 H 1047.44 2.2164 1.94833 0
M  V30 11008 H 1047.52 2.54917 0.212376 0
M  V30 11009 H 1047.17 5.03133 0.694251 0
M  V30 11010 H 1047.1 4.66819 2.43696 0
M  V30 11011 H 1049.59 3.51761 1.38105 0
M  V30 11012 H 1049.9 7.39838 2.23293 0
M  V30 11013 H 1048.25 6.65155 2.01479 0
M  V30 11014 H 1051.44 4.3873 1.63198 0
M  V30 11015 H 1051.61 6.15689 2.02067 0
M  V30 11016 N 1045.02 -0.694098 1.41492 0
M  V30 11017 C 1045.97 -1.80016 1.39923 0
M  V30 11018 C 1046.95 -1.58561 0.273377 0
M  V30 11019 O 1048.14 -1.69368 0.514157 0
M  V30 11020 C 1045.27 -3.18333 1.28526 0
M  V30 11021 C 1044.36 -3.45478 2.45979 0
M  V30 11022 N 1044.75 -3.43313 3.71443 0
M  V30 11023 C 1043.05 -3.76033 2.39824 0
M  V30 11024 C 1043.75 -3.69404 4.4935 0
M  V30 11025 N 1042.72 -3.89221 3.79484 0
M  V30 11026 H 1046.53 -1.76707 2.34844 0
M  V30 11027 H 1044.04 -0.894148 1.35568 0
M  V30 11028 H 1046.04 -3.97567 1.25484 0
M  V30 11029 H 1044.7 -3.22852 0.345904 0
M  V30 11030 H 1045.71 -3.2366 4.04308 0
M  V30 11031 H 1042.38 -3.87913 1.54368 0
M  V30 11032 H 1043.77 -3.73854 5.58285 0
M  V30 11033 N 1046.49 -1.27344 -0.928501 0
M  V30 11034 C 1047.72 -1.16447 -1.7102 0
M  V30 11035 C 1048.14 0.278799 -1.8673 0
M  V30 11036 O 1047.49 1.18989 -1.38376 0
M  V30 11037 C 1047.55 -1.84242 -3.11026 0
M  V30 11038 O 1047.27 -3.2293 -2.96054 0
M  V30 11039 C 1048.77 -1.7946 -4.05351 0
M  V30 11040 H 1045.99 -0.404898 -0.535069 0
M  V30 11041 H 1048.53 -1.68201 -1.16313 0
M  V30 11042 H 1046.69 -1.36395 -3.62595 0
M  V30 11043 H 1047.1 -3.5667 -3.8456 0
M  V30 11044 H 1048.57 -2.31511 -5.01105 0
M  V30 11045 H 1049.05 -0.763771 -4.32508 0
M  V30 11046 H 1049.66 -2.26918 -3.59706 0
M  V30 11047 N 1047.97 1.13488 -1.09353 0
M  V30 11048 C 1049.38 1.66299 -0.848609 0
M  V30 11049 C 1049.73 1.86044 0.623051 0
M  V30 11050 O 1048.86 1.57871 1.48005 0
M  V30 11051 C 1049.45 3.02087 -1.53391 0
M  V30 11052 C 1048.01 3.51893 -1.33598 0
M  V30 11053 C 1047.16 2.27154 -1.59048 0
M  V30 11054 H 1050.11 0.974208 -1.25279 0
M  V30 11055 H 1050.13 3.68018 -0.966587 0
M  V30 11056 H 1049.64 2.87684 -2.60498 0
M  V30 11057 H 1047.75 3.715 -0.286045 0
M  V30 11058 H 1047.86 4.32059 -2.0703 0
M  V30 11059 H 1046.22 2.33708 -1.01256 0
M  V30 11060 H 1047.01 2.15317 -2.67383 0
M  V30 11061 N 1049.45 0.880621 1.30701 0
M  V30 11062 C 1050.38 0.360251 2.30704 0
M  V30 11063 C 1051.36 -0.554572 1.60806 0
M  V30 11064 O 1052.55 -0.469345 1.88443 0
M  V30 11065 C 1049.68 -0.429888 3.44629 0
M  V30 11066 C 1048.63 0.392786 4.26194 0
M  V30 11067 C 1047.96 -0.52369 5.32129 0
M  V30 11068 C 1049.26 1.63258 4.96129 0
M  V30 11069 H 1050.95 1.19591 2.74478 0
M  V30 11070 H 1048.5 0.576508 1.31956 0
M  V30 11071 H 1050.45 -0.804532 4.13649 0
M  V30 11072 H 1049.17 -1.29916 2.99649 0
M  V30 11073 H 1047.83 0.749514 3.58856 0
M  V30 11074 H 1047.48 -1.39054 4.83397 0
M  V30 11075 H 1047.18 0.0229272 5.87596 0
M  V30 11076 H 1048.71 -0.894946 6.04006 0
M  V30 11077 H 1050.12 1.32877 5.57689 0
M  V30 11078 H 1048.52 2.11906 5.61441 0
M  V30 11079 H 1049.59 2.37944 4.22505 0
M  V30 11080 N 1050.93 -1.4397 0.641131 0
M  V30 11081 C 1052.18 -2.02246 0.14985 0
M  V30 11082 C 1052.51 -1.50387 -1.22871 0
M  V30 11083 O 1051.78 -0.692003 -1.81773 0
M  V30 11084 C 1052.07 -3.59798 0.147449 0
M  V30 11085 C 1051.92 -4.21916 1.55907 0
M  V30 11086 C 1053.24 -4.36985 -0.522667 0
M  V30 11087 H 1050.36 -0.734875 0.0559274 0
M  V30 11088 H 1053 -1.71418 0.819513 0
M  V30 11089 H 1051.15 -3.86193 -0.422789 0
M  V30 11090 H 1052.82 -4.06594 2.17896 0
M  V30 11091 H 1051.06 -3.79028 2.10998 0
M  V30 11092 H 1051.74 -5.30964 1.50934 0
M  V30 11093 H 1054.21 -4.16083 -0.0376226 0
M  V30 11094 H 1053.09 -5.46676 -0.493572 0
M  V30 11095 H 1053.35 -4.12335 -1.59475 0
M  V30 11096 N 1052.41 -0.382291 -1.52893 0
M  V30 11097 C 1053.32 0.463745 -2.29971 0
M  V30 11098 C 1054.33 1.07777 -1.36602 0
M  V30 11099 O 1055.51 1.0851 -1.69669 0
M  V30 11100 C 1052.57 1.57938 -3.08637 0
M  V30 11101 C 1051.64 0.991182 -4.17701 0
M  V30 11102 C 1050.87 2.05365 -4.92606 0
M  V30 11103 O 1051.09 3.26757 -4.67532 0
M  V30 11104 O 1050.03 1.67487 -5.78128 0
M  V30 11105 H 1053.85 -0.163962 -3.03257 0
M  V30 11106 H 1051.44 -0.146199 -1.48683 0
M  V30 11107 H 1053.32 2.22765 -3.57706 0
M  V30 11108 H 1051.99 2.19218 -2.3817 0
M  V30 11109 H 1050.9 0.306364 -3.72843 0
M  V30 11110 H 1052.23 0.422699 -4.90382 0
M  V30 11111 N 1053.89 1.57202 -0.111913 0
M  V30 11112 C 1055.13 1.9495 0.547795 0
M  V30 11113 C 1055.46 0.994763 1.67137 0
M  V30 11114 O 1054.72 0.0173528 1.95692 0
M  V30 11115 C 1055.01 3.39152 1.12741 0
M  V30 11116 C 1054.68 4.50724 0.125916 0
M  V30 11117 C 1053.34 4.80968 -0.149489 0
M  V30 11118 C 1055.69 5.18215 -0.556987 0
M  V30 11119 C 1053.02 5.76023 -1.1142 0
M  V30 11120 C 1055.37 6.14307 -1.51029 0
M  V30 11121 C 1054.04 6.42947 -1.79375 0
M  V30 11122 H 1053.31 0.713372 0.200453 0
M  V30 11123 H 1055.96 1.90542 -0.191316 0
M  V30 11124 H 1054.26 3.4022 1.94313 0
M  V30 11125 H 1055.96 3.65668 1.64584 0
M  V30 11126 H 1052.55 4.27162 0.350756 0
M  V30 11127 H 1056.73 4.95012 -0.357378 0
M  V30 11128 H 1051.99 5.9652 -1.34064 0
M  V30 11129 H 1056.16 6.65692 -2.04516 0
M  V30 11130 H 1053.79 7.1641 -2.54284 0
M  V30 11131 N 1055.36 -0.161842 1.56767 0
M  V30 11132 C 1056.27 -1.21996 2.00385 0
M  V30 11133 C 1057.29 -1.4789 0.916768 0
M  V30 11134 O 1058.47 -1.59852 1.22513 0
M  V30 11135 C 1055.53 -2.53695 2.36305 0
M  V30 11136 C 1054.59 -2.3558 3.58888 0
M  V30 11137 C 1053.82 -3.60998 3.93085 0
M  V30 11138 O 1054.05 -4.6657 3.28129 0
M  V30 11139 O 1052.98 -3.54544 4.86397 0
M  V30 11140 H 1056.81 -0.879701 2.9068 0
M  V30 11141 H 1054.39 -0.369437 1.4476 0
M  V30 11142 H 1056.27 -3.31366 2.60335 0
M  V30 11143 H 1054.95 -2.87281 1.49169 0
M  V30 11144 H 1053.86 -1.55908 3.40064 0
M  V30 11145 H 1055.19 -2.06915 4.46595 0
M  V30 11146 N 1056.84 -1.516 -0.430713 0
M  V30 11147 C 1057.75 -1.76247 -1.54836 0
M  V30 11148 C 1058.77 -0.646985 -1.61524 0
M  V30 11149 O 1059.94 -0.929987 -1.78643 0
M  V30 11150 C 1057.01 -1.88833 -2.90763 0
M  V30 11151 C 1056.07 -3.12701 -2.94137 0
M  V30 11152 C 1055.3 -3.24676 -4.23581 0
M  V30 11153 O 1055.53 -2.42429 -5.16318 0
M  V30 11154 O 1054.46 -4.17697 -4.33374 0
M  V30 11155 H 1058.29 -2.71069 -1.3695 0
M  V30 11156 H 1055.87 -1.36182 -0.614396 0
M  V30 11157 H 1057.75 -1.99057 -3.71422 0
M  V30 11158 H 1056.43 -0.971987 -3.08762 0
M  V30 11159 H 1055.33 -3.0795 -2.1241 0
M  V30 11160 H 1056.67 -4.04045 -2.81084 0
M  V30 11161 N 1058.32 0.686584 -1.41858 0
M  V30 11162 C 1059.23 1.83002 -1.46791 0
M  V30 11163 C 1060.25 1.70284 -0.357675 0
M  V30 11164 O 1061.42 1.92042 -0.606781 0
M  V30 11165 C 1058.49 3.19056 -1.35661 0
M  V30 11166 C 1057.55 3.43817 -2.57077 0
M  V30 11167 C 1056.78 4.7338 -2.46469 0
M  V30 11168 O 1057 5.50483 -1.49413 0
M  V30 11169 O 1055.94 4.99124 -3.36391 0
M  V30 11170 H 1059.76 1.81797 -2.43277 0
M  V30 11171 H 1057.35 0.840812 -1.23494 0
M  V30 11172 H 1059.23 4.00267 -1.31773 0
M  V30 11173 H 1057.91 3.20925 -0.422951 0
M  V30 11174 H 1056.81 2.625 -2.66541 0
M  V30 11175 H 1058.15 3.4677 -3.49302 0
M  V30 11176 N 1059.8 1.27835 0.921735 0
M  V30 11177 C 1060.71 1.12904 2.05645 0
M  V30 11178 C 1061.72 0.0575704 1.73905 0
M  V30 11179 O 1062.9 0.265261 1.99645 0
M  V30 11180 C 1059.96 0.783957 3.3772 0
M  V30 11181 C 1059.03 1.93694 3.8312 0
M  V30 11182 C 1058.26 1.60823 5.08893 0
M  V30 11183 O 1058.48 0.518873 5.68035 0
M  V30 11184 O 1057.42 2.44932 5.49811 0
M  V30 11185 H 1061.24 2.08143 2.21157 0
M  V30 11186 H 1058.83 1.07078 1.04185 0
M  V30 11187 H 1060.71 0.605107 4.17033 0
M  V30 11188 H 1059.38 -0.138849 3.23402 0
M  V30 11189 H 1058.29 2.17089 3.04669 0
M  V30 11190 H 1059.62 2.84016 4.0199 0
M  V30 11191 N 1061.28 -1.12907 1.09954 0
M  V30 11192 C 1062.5 -1.88679 0.861099 0
M  V30 11193 C 1062.93 -1.78853 -0.582499 0
M  V30 11194 O 1062.28 -1.13992 -1.4098 0
M  V30 11195 C 1062.33 -3.36047 1.30785 0
M  V30 11196 O 1061.44 -4.09716 0.469728 0
M  V30 11197 H 1060.78 -0.586447 0.31141 0
M  V30 11198 H 1063.31 -1.42818 1.46507 0
M  V30 11199 H 1063.32 -3.86882 1.29562 0
M  V30 11200 H 1061.99 -3.42516 2.35914 0
M  V30 11201 H 1060.57 -3.6887 0.54674 0
M  V30 11202 N 1062.75 -0.88754 -1.30232 0
M  V30 11203 C 1064.03 -0.427249 -1.90877 0
M  V30 11204 C 1064.41 1.0922 -1.80649 0
M  V30 11205 O 1063.76 1.92866 -1.22536 0
M  V30 11206 C 1063.97 -0.928219 -3.3643 0
M  V30 11207 C 1065.32 -0.964706 -4.13496 0
M  V30 11208 O 1066.34 -0.875057 -3.45284 0
M  V30 11209 O 1065.2 -1.09754 -5.35366 0
M  V30 11210 H 1062.29 -0.131107 -0.816541 0
M  V30 11211 H 1064.84 -0.976609 -1.38782 0
M  V30 11212 H 1063.61 -1.97209 -3.37971 0
M  V30 11213 H 1063.23 -0.358169 -3.95983 0
M  V30 11214 N 1064.23 1.43628 -0.648757 0
M  V30 11215 C 1065.18 2.30755 0.0455536 0
M  V30 11216 C 1066.15 1.44495 0.819168 0
M  V30 11217 O 1067.33 1.73372 0.79667 0
M  V30 11218 C 1064.47 3.30017 1.00908 0
M  V30 11219 C 1063.59 4.31376 0.232039 0
M  V30 11220 C 1062.72 5.17723 1.18897 0
M  V30 11221 C 1061.76 6.10778 0.402096 0
M  V30 11222 N 1060.9 6.89763 1.31038 0
M  V30 11223 H 1065.74 2.89581 -0.70332 0
M  V30 11224 H 1063.28 1.42662 -0.3586 0
M  V30 11225 H 1065.23 3.86072 1.58128 0
M  V30 11226 H 1063.86 2.72851 1.72488 0
M  V30 11227 H 1062.92 3.77652 -0.456373 0
M  V30 11228 H 1064.23 4.9735 -0.380023 0
M  V30 11229 H 1063.38 5.78381 1.83194 0
M  V30 11230 H 1062.12 4.51864 1.83494 0
M  V30 11231 H 1061.13 5.49212 -0.254255 0
M  V30 11232 H 1062.35 6.78678 -0.239411 0
M  V30 11233 H 1060.3 6.26557 1.94324 0
M  V30 11234 H 1060.21 7.52243 0.752774 0
M  V30 11235 H 1061.48 7.54931 1.94164 0
M  V30 11236 N 1065.71 0.390394 1.52688 0
M  V30 11237 C 1067.13 0.0404028 1.59549 0
M  V30 11238 C 1067.33 -1.44503 1.40432 0
M  V30 11239 O 1066.38 -2.20968 1.22187 0
M  V30 11240 C 1067.7 0.518561 2.96195 0
M  V30 11241 C 1069.24 0.474913 3.09376 0
M  V30 11242 C 1069.72 0.929278 4.48473 0
M  V30 11243 N 1071.21 0.885335 4.5466 0
M  V30 11244 C 1071.94 1.2083 5.60524 0
M  V30 11245 N 1071.44 1.6018 6.74028 0
M  V30 11246 N 1073.23 1.12949 5.50635 0
M  V30 11247 H 1065.38 1.35743 1.63363 0
M  V30 11248 H 1067.65 0.556453 0.767505 0
M  V30 11249 H 1067.35 1.55606 3.15404 0
M  V30 11250 H 1067.23 -0.081779 3.77111 0
M  V30 11251 H 1069.61 -0.553503 2.89863 0
M  V30 11252 H 1069.7 1.11107 2.3041 0
M  V30 11253 H 1069.34 1.95593 4.68728 0
M  V30 11254 H 1069.27 0.270121 5.25907 0
M  V30 11255 H 1071.76 0.595787 3.73174 0
M  V30 11256 H 1072.07 1.83184 7.50775 0
M  V30 11257 H 1070.42 1.64067 6.75357 0
M  V30 11258 H 1073.61 0.821074 4.60843 0
M  V30 11259 H 1073.78 1.3845 6.33037 0
M  V30 11260 N 1067.19 -1.57141 0.120249 0
M  V30 11261 C 1068.1 -2.18925 -0.843155 0
M  V30 11262 C 1069.11 -1.16575 -1.29175 0
M  V30 11263 O 1070.29 -1.4905 -1.35448 0
M  V30 11264 C 1067.36 -2.7775 -2.075 0
M  V30 11265 C 1066.42 -3.95139 -1.6782 0
M  V30 11266 C 1065.65 -4.51149 -2.85132 0
M  V30 11267 O 1065.87 -4.06056 -4.00593 0
M  V30 11268 O 1064.81 -5.41815 -2.62145 0
M  V30 11269 H 1068.63 -3.01707 -0.347357 0
M  V30 11270 H 1066.22 -1.49028 -0.105427 0
M  V30 11271 H 1068.1 -3.15243 -2.79643 0
M  V30 11272 H 1066.77 -1.97998 -2.56083 0
M  V30 11273 H 1065.68 -3.62412 -0.927807 0
M  V30 11274 H 1067.01 -4.7633 -1.23977 0
M  V30 11275 N 1068.67 0.153526 -1.5685 0
M  V30 11276 C 1069.89 0.886343 -1.87507 0
M  V30 11277 C 1070.32 1.74244 -0.708565 0
M  V30 11278 O 1069.67 1.78045 0.341997 0
M  V30 11279 C 1069.72 1.72428 -3.16703 0
M  V30 11280 O 1068.83 2.82784 -3.00178 0
M  V30 11281 H 1068.17 0.247259 -0.616246 0
M  V30 11282 H 1070.7 0.146306 -2.04076 0
M  V30 11283 H 1070.71 2.12062 -3.4856 0
M  V30 11284 H 1069.38 1.09558 -4.01211 0
M  V30 11285 H 1067.96 2.46604 -2.79716 0
M  V30 11286 N 1070.14 1.51827 0.422667 0
M  V30 11287 C 1071.05 1.77066 1.53899 0
M  V30 11288 C 1072.07 0.655541 1.61179 0
M  V30 11289 O 1073.25 0.939448 1.78147 0
M  V30 11290 C 1070.31 1.90372 2.89758 0
M  V30 11291 C 1069.37 3.14256 2.92475 0
M  V30 11292 C 1068.61 3.26918 4.21853 0
M  V30 11293 O 1068.83 2.45164 5.15025 0
M  V30 11294 O 1067.76 4.19989 4.31153 0
M  V30 11295 H 1071.59 2.71791 1.35511 0
M  V30 11296 H 1069.17 1.36506 0.607165 0
M  V30 11297 H 1071.06 2.01024 3.70361 0
M  V30 11298 H 1069.73 0.988347 3.08242 0
M  V30 11299 H 1068.64 3.09072 2.10773 0
M  V30 11300 H 1069.97 4.0553 2.78937 0
M  V30 11301 O 1071.66 -0.568495 1.51163 0
M  V30 11302 H 1072.35 -1.22356 1.50162 0
M  V30 END ATOM
M  V30 BEGIN BOND
M  V30 END BOND
M  V30 END CTAB
M  END
$$$$
