drugbank_drug|DB00087 8005_H|alemtuzumab|||H-GAMMA-1 (VH(1-121)+CH1(122-219)+HINGE-REGION(220-220)+CH2(221-330)+CH3(331-437))|||||||437||||MW 47976.2|MW 47976.2|
 OpenBabel12092119113D

  0  0  0     0  0            999 V3000
M  V30 BEGIN CTAB
M  V30 COUNTS 6718 6809 0 0 0
M  V30 BEGIN ATOM
M  V30 1 H -0.908 1.98254 -0.117106 0
M  V30 2 N 0 1.576 0 0
M  V30 3 C 0.932 2.05273 1.01958 0
M  V30 4 C 1.945 0.970662 1.30698 0
M  V30 5 O 3.134 1.24746 1.27674 0
M  V30 6 C 0.234 2.43771 2.35433 0
M  V30 7 C -0.593 3.74711 2.25633 0
M  V30 8 C -1.534 4.00077 3.41796 0
M  V30 9 O -2.508 4.70743 3.19984 0
M  V30 10 N -1.306 3.47973 4.64645 0
M  V30 11 H 1.459 2.93363 0.613025 0
M  V30 12 H -0.98 1.60812 0.187383 0
M  V30 13 H 1.012 2.57855 3.11918 0
M  V30 14 H -0.418 1.612 2.67831 0
M  V30 15 H -1.198 3.70705 1.34059 0
M  V30 16 H 0.09 4.60554 2.16258 0
M  V30 17 H -0.512 2.90748 4.85265 0
M  V30 18 H -1.955 3.67386 5.38396 0
M  V30 19 N 1.4781 -0.272755 1.55222 0
M  V30 20 C 2.7241 -1.00581 1.761 0
M  V30 21 C 3.0571 -1.85932 0.560625 0
M  V30 22 O 2.3321 -1.89416 -0.441801 0
M  V30 23 C 2.6151 -1.88816 3.06628 0
M  V30 24 C 2.4681 -1.06457 4.37021 0
M  V30 25 C 3.7871 -2.8752 3.33197 0
M  V30 26 H 0.9061 -0.364244 0.640699 0
M  V30 27 H 3.5481 -0.278189 1.87952 0
M  V30 28 H 1.6981 -2.50856 2.96654 0
M  V30 29 H 3.3701 -0.464863 4.58952 0
M  V30 30 H 1.6131 -0.368043 4.32236 0
M  V30 31 H 2.2841 -1.71514 5.24678 0
M  V30 32 H 4.7601 -2.35615 3.42965 0
M  V30 33 H 3.6361 -3.46399 4.25792 0
M  V30 34 H 3.8971 -3.62657 2.52849 0
M  V30 35 N 2.9562 -1.48159 -0.537278 0
M  V30 36 C 3.8882 -1.58218 -1.65831 0
M  V30 37 C 4.9012 -0.466948 -1.5596 0
M  V30 38 O 6.0902 -0.73747 -1.62553 0
M  V30 39 C 3.1902 -1.48906 -3.04434 0
M  V30 40 C 2.3632 -2.75343 -3.3986 0
M  V30 41 C 1.4222 -2.59588 -4.57712 0
M  V30 42 O 0.4482 -3.33457 -4.61297 0
M  V30 43 N 1.6502 -1.68724 -5.55439 0
M  V30 44 H 4.4152 -2.54891 -1.57641 0
M  V30 45 H 1.9762 -1.4479 -0.724386 0
M  V30 46 H 3.9682 -1.36072 -3.81139 0
M  V30 47 H 2.5382 -0.602368 -3.06741 0
M  V30 48 H 1.7582 -3.02795 -2.52406 0
M  V30 49 H 3.0462 -3.5924 -3.60311 0
M  V30 50 H 2.4442 -1.07898 -5.55315 0
M  V30 51 H 1.0012 -1.61832 -6.3139 0
M  V30 52 N 4.4343 0.785586 -1.36625 0
M  V30 53 C 5.3643 1.91259 -1.33949 0
M  V30 54 C 6.3453 1.68795 -0.210325 0
M  V30 55 O 7.5303 1.89854 -0.408561 0
M  V30 56 C 4.6603 3.28339 -1.13186 0
M  V30 57 C 3.6143 3.65335 -2.22967 0
M  V30 58 C 2.9403 5.00806 -1.87342 0
M  V30 59 C 4.2403 3.7352 -3.65075 0
M  V30 60 H 5.9343 1.93755 -2.28253 0
M  V30 61 H 3.4803 0.930788 -1.09874 0
M  V30 62 H 5.4333 4.06804 -1.09948 0
M  V30 63 H 4.1573 3.2624 -0.153332 0
M  V30 64 H 2.8163 2.89169 -2.25337 0
M  V30 65 H 2.4643 4.95233 -0.880545 0
M  V30 66 H 2.1643 5.26529 -2.60846 0
M  V30 67 H 3.6883 5.81687 -1.85667 0
M  V30 68 H 5.1023 4.42168 -3.64911 0
M  V30 69 H 3.4993 4.10731 -4.37516 0
M  V30 70 H 4.5693 2.74527 -3.99703 0
M  V30 71 N 5.9124 1.20967 1.01018 0
M  V30 72 C 6.8444 0.922059 2.09835 0
M  V30 73 C 7.8574 -0.0927106 1.62536 0
M  V30 74 O 9.0464 0.139127 1.77957 0
M  V30 75 C 6.1464 0.362004 3.36961 0
M  V30 76 C 5.3194 1.42986 4.13369 0
M  V30 77 C 4.3784 0.879976 5.1879 0
M  V30 78 O 3.4044 1.56219 5.47343 0
M  V30 79 N 4.6064 -0.307396 5.79686 0
M  V30 80 H 7.3714 1.8588 2.35093 0
M  V30 81 H 4.9324 1.11422 1.1746 0
M  V30 82 H 6.9244 -0.0201474 4.04695 0
M  V30 83 H 5.4944 -0.479437 3.08902 0
M  V30 84 H 4.7144 1.98608 3.40512 0
M  V30 85 H 6.0024 2.14885 4.61196 0
M  V30 86 H 5.4004 -0.878796 5.58832 0
M  V30 87 H 3.9574 -0.631115 6.48737 0
M  V30 88 N 7.3905 -1.2043 1.01659 0
M  V30 89 C 8.3005 -2.2689 0.596484 0
M  V30 90 C 9.3165 -1.70107 -0.36599 0
M  V30 91 O 10.4925 -2.00117 -0.226942 0
M  V30 92 C 7.5575 -3.4665 -0.0586659 0
M  V30 93 C 6.6185 -4.18662 0.949751 0
M  V30 94 C 5.8515 -5.32705 0.32577 0
M  V30 95 O 6.0745 -5.63656 -0.874509 0
M  V30 96 O 5.0085 -5.92803 1.04249 0
M  V30 97 H 8.8345 -2.65041 1.4828 0
M  V30 98 H 6.4195 -1.27048 0.786082 0
M  V30 99 H 8.3015 -4.19256 -0.424564 0
M  V30 100 H 6.9765 -3.10375 -0.91918 0
M  V30 101 H 5.8835 -3.48229 1.36702 0
M  V30 102 H 7.2165 -4.58878 1.78023 0
M  V30 103 N 8.8686 -0.792821 -1.36206 0
M  V30 104 C 10.0936 -0.377701 -2.03932 0
M  V30 105 C 10.5186 0.998947 -1.59382 0
M  V30 106 O 9.8766 1.64421 -0.763903 0
M  V30 107 C 9.9246 -0.453635 -3.57735 0
M  V30 108 O 9.0286 0.538151 -4.08874 0
M  V30 109 H 8.3696 -0.159855 -0.644471 0
M  V30 110 H 10.8996 -1.07488 -1.7409 0
M  V30 111 H 10.9096 -0.318464 -4.06755 0
M  V30 112 H 9.5846 -1.45784 -3.89512 0
M  V30 113 H 8.1616 0.364359 -3.71116 0
M  V30 114 N 10.3467 1.47872 -0.545128 0
M  V30 115 C 11.5947 2.02093 -0.016553 0
M  V30 116 C 11.9157 1.42305 1.3332 0
M  V30 117 O 11.1857 0.593853 1.86682 0
M  V30 118 H 9.7657 0.746993 -0.00313038 0
M  V30 119 H 12.4277 1.81414 -0.712397 0
M  V30 120 H 11.5237 3.11996 0.0805422 0
M  V30 121 N 11.8248 0.280983 1.55075 0
M  V30 122 C 13.2358 -0.215629 1.85451 0
M  V30 123 C 13.5868 -1.54991 1.203 0
M  V30 124 O 12.7118 -2.10699 0.493435 0
M  V30 125 C 13.3068 -0.398026 3.36454 0
M  V30 126 C 11.8658 -0.838866 3.66933 0
M  V30 127 C 11.0128 0.064458 2.77225 0
M  V30 128 H 13.9638 0.502601 1.50531 0
M  V30 129 H 13.9848 -1.23569 3.59876 0
M  V30 130 H 13.4968 0.573241 3.83843 0
M  V30 131 H 11.5978 -1.8214 3.25048 0
M  V30 132 H 11.7108 -0.672123 4.74362 0
M  V30 133 H 10.0748 -0.452863 2.50642 0
M  V30 134 H 10.8578 1.03172 3.2743 0
M  V30 135 N 13.3029 -1.57598 0.00835791 0
M  V30 136 C 14.5509 -1.90551 -0.6734 0
M  V30 137 C 14.8719 -0.883301 -1.73847 0
M  V30 138 O 14.1419 0.0781442 -1.95744 0
M  V30 139 H 12.7219 -0.703312 -0.251717 0
M  V30 140 H 15.3839 -1.94833 0.0512592 0
M  V30 141 H 14.4799 -2.9056 -1.13935 0
M  V30 142 N 14.781 0.264519 -1.55364 0
M  V30 143 C 15.711 1.33121 -1.91836 0
M  V30 144 C 16.692 1.51101 -0.781192 0
M  V30 145 O 17.877 1.64003 -1.04003 0
M  V30 146 C 15.007 2.68921 -2.19769 0
M  V30 147 C 13.961 2.65661 -3.35571 0
M  V30 148 C 13.287 4.05093 -3.49004 0
M  V30 149 C 14.587 2.24187 -4.71739 0
M  V30 150 H 16.281 1.02844 -2.81182 0
M  V30 151 H 13.827 0.493286 -1.35287 0
M  V30 152 H 15.78 3.43663 -2.43872 0
M  V30 153 H 14.504 3.00799 -1.27231 0
M  V30 154 H 13.163 1.93377 -3.1145 0
M  V30 155 H 12.811 4.34206 -2.53917 0
M  V30 156 H 12.511 4.03804 -4.26868 0
M  V30 157 H 14.035 4.81561 -3.75408 0
M  V30 158 H 15.449 2.88654 -4.9533 0
M  V30 159 H 13.846 2.34044 -5.52579 0
M  V30 160 H 14.916 1.19327 -4.69988 0
M  V30 161 N 16.2591 1.48442 0.529413 0
M  V30 162 C 17.5051 1.5672 1.28711 0
M  V30 163 C 17.8381 0.2406 1.92704 0
M  V30 164 O 17.1131 -0.753454 1.79313 0
M  V30 165 C 17.3961 2.70587 2.37603 0
M  V30 166 C 17.2491 4.12953 1.78297 0
M  V30 167 C 18.5681 2.80212 3.39366 0
M  V30 168 H 15.6871 0.570474 0.466613 0
M  V30 169 H 18.3291 1.80617 0.589706 0
M  V30 170 H 16.4791 2.50342 2.97088 0
M  V30 171 H 18.1511 4.44639 1.22858 0
M  V30 172 H 16.3941 4.19927 1.0883 0
M  V30 173 H 17.0651 4.88448 2.57144 0
M  V30 174 H 19.5411 2.98553 2.89836 0
M  V30 175 H 18.4171 3.61611 4.12951 0
M  V30 176 H 18.6781 1.88393 3.99951 0
M  V30 177 N 17.7372 -0.778329 1.37039 0
M  V30 178 C 19.1532 -1.07796 1.17695 0
M  V30 179 C 19.3532 -2.01498 0.00860115 0
M  V30 180 O 18.4092 -2.43901 -0.653352 0
M  V30 181 C 19.7222 -1.68178 2.49272 0
M  V30 182 C 21.2702 -1.80467 2.55735 0
M  V30 183 C 21.7452 -2.44263 3.87427 0
M  V30 184 N 23.2362 -2.51721 3.88833 0
M  V30 185 C 23.9712 -3.01919 4.87476 0
M  V30 186 N 23.4672 -3.5234 5.96513 0
M  V30 187 N 25.2602 -3.00733 4.74885 0
M  V30 188 H 17.4112 -0.156032 2.11826 0
M  V30 189 H 19.6742 -0.131844 0.938787 0
M  V30 190 H 19.3802 -1.06796 3.35093 0
M  V30 191 H 19.2542 -2.67554 2.65885 0
M  V30 192 H 21.6412 -2.40984 1.70325 0
M  V30 193 H 21.7222 -0.798656 2.43013 0
M  V30 194 H 21.3662 -1.84388 4.73248 0
M  V30 195 H 21.2962 -3.45458 3.9745 0
M  V30 196 H 23.7872 -2.1603 3.10063 0
M  V30 197 H 24.1002 -3.89027 6.67741 0
M  V30 198 H 22.4452 -3.50462 6.00168 0
M  V30 199 H 25.6362 -2.60638 3.88826 0
M  V30 200 H 25.8092 -3.39545 5.51918 0
M  V30 201 N 19.2153 -1.21501 -1.00376 0
M  V30 202 C 20.6263 -1.03146 -1.55621 0
M  V30 203 C 20.9773 0.408375 -1.91903 0
M  V30 204 O 20.1023 1.29177 -1.73616 0
M  V30 205 C 20.6973 -1.86612 -2.82775 0
M  V30 206 C 19.2563 -1.72586 -3.34501 0
M  V30 207 C 18.4033 -1.83747 -2.07683 0
M  V30 208 H 21.3543 -1.35505 -0.826081 0
M  V30 209 H 21.3753 -1.3771 -3.54706 0
M  V30 210 H 20.8873 -2.91399 -2.56336 0
M  V30 211 H 18.9883 -0.704877 -3.65872 0
M  V30 212 H 19.1013 -2.54623 -4.05837 0
M  V30 213 H 17.4653 -1.27069 -2.20739 0
M  V30 214 H 18.2483 -2.90044 -1.83655 0
M  V30 215 N 20.6934 1.19889 -1.02296 0
M  V30 216 C 21.9184 1.9393 -0.735237 0
M  V30 217 C 22.3434 1.74639 0.698782 0
M  V30 218 O 21.7014 1.04481 1.48167 0
M  V30 219 C 21.7494 3.43916 -1.08417 0
M  V30 220 O 20.8534 4.11917 -0.199446 0
M  V30 221 H 20.1944 0.605645 -0.272196 0
M  V30 222 H 22.7244 1.52137 -1.36804 0
M  V30 223 H 22.7344 3.9456 -1.03856 0
M  V30 224 H 21.4094 3.5728 -2.12894 0
M  V30 225 H 19.9864 3.71666 -0.303136 0
M  V30 226 N 22.1715 0.800033 1.35784 0
M  V30 227 C 23.1035 0.163596 2.28615 0
M  V30 228 C 24.1165 -0.633317 1.49976 0
M  V30 229 O 25.3055 -0.466754 1.72289 0
M  V30 230 C 22.4055 -0.790958 3.29541 0
M  V30 231 C 21.5785 -0.0418255 4.3738 0
M  V30 232 C 20.6375 -0.91389 5.18203 0
M  V30 233 O 19.6635 -0.367234 5.68014 0
M  V30 234 N 20.8655 -2.23682 5.35674 0
M  V30 235 H 23.6305 0.96105 2.83873 0
M  V30 236 H 21.1915 0.654894 1.48063 0
M  V30 237 H 23.1835 -1.37844 3.80501 0
M  V30 238 H 21.7535 -1.48925 2.74846 0
M  V30 239 H 20.9735 0.726813 3.87442 0
M  V30 240 H 22.2615 0.474719 5.06581 0
M  V30 241 H 21.6595 -2.70497 4.96838 0
M  V30 242 H 20.2165 -2.77369 5.89839 0
M  V30 243 N 23.6496 -1.47581 0.552962 0
M  V30 244 C 24.8776 -2.06875 0.0320556 0
M  V30 245 C 25.2926 -1.40625 -1.25976 0
M  V30 246 O 24.6496 -0.501349 -1.75479 0
M  V30 247 C 24.7006 -3.61092 -0.17167 0
M  V30 248 O 24.4216 -4.24858 1.06899 0
M  V30 249 C 25.9226 -4.37242 -0.730344 0
M  V30 250 H 23.1426 -0.669561 0.043915 0
M  V30 251 H 25.6866 -1.89646 0.765163 0
M  V30 252 H 23.8416 -3.7785 -0.854894 0
M  V30 253 H 24.2556 -5.17334 0.864059 0
M  V30 254 H 25.7296 -5.45842 -0.822203 0
M  V30 255 H 26.2066 -4.03235 -1.74064 0
M  V30 256 H 26.8126 -4.25219 -0.0829543 0
M  V30 257 N 25.1277 -0.289203 -1.54924 0
M  V30 258 C 26.0577 0.58549 -2.2604 0
M  V30 259 C 27.0387 1.14753 -1.25562 0
M  V30 260 O 28.2237 1.17906 -1.54311 0
M  V30 261 C 25.3537 1.76305 -2.99222 0
M  V30 262 C 24.3077 1.33191 -4.06748 0
M  V30 263 C 23.6337 2.5937 -4.6758 0
M  V30 264 C 24.9337 0.471775 -5.20165 0
M  V30 265 H 26.6277 -0.00763532 -2.99399 0
M  V30 266 H 24.1737 -0.00511229 -1.43999 0
M  V30 267 H 26.1267 2.38097 -3.47689 0
M  V30 268 H 24.8507 2.38223 -2.23422 0
M  V30 269 H 23.5097 0.737121 -3.59113 0
M  V30 270 H 23.1577 3.19576 -3.88433 0
M  V30 271 H 22.8577 2.31228 -5.40192 0
M  V30 272 H 24.3817 3.21985 -5.18804 0
M  V30 273 H 25.7957 0.995056 -5.64599 0
M  V30 274 H 24.1927 0.284639 -5.99425 0
M  V30 275 H 25.2627 -0.506041 -4.82252 0
M  V30 276 N 26.6058 1.57591 -0.0167156 0
M  V30 277 C 27.8308 1.9598 0.67872 0
M  V30 278 C 28.2558 0.892546 1.65575 0
M  V30 279 O 27.6138 -0.147772 1.80697 0
M  V30 280 C 27.6618 3.33468 1.37227 0
M  V30 281 O 26.7658 3.28954 2.48722 0
M  V30 282 H 26.1068 0.639339 0.17928 0
M  V30 283 H 28.6368 2.04463 -0.0748802 0
M  V30 284 H 28.6468 3.69417 1.7319 0
M  V30 285 H 27.3218 4.10694 0.656007 0
M  V30 286 H 25.8988 3.04705 2.14963 0
M  V30 287 N 28.0839 -0.256276 1.55502 0
M  V30 288 C 29.0139 -1.32102 1.92539 0
M  V30 289 C 29.9949 -1.50684 0.789194 0
M  V30 290 O 31.1799 -1.63449 1.04872 0
M  V30 291 C 28.3099 -2.67752 2.21192 0
M  V30 292 C 27.2639 -2.63878 3.36975 0
M  V30 293 C 26.5899 -4.03236 3.51147 0
M  V30 294 C 27.8899 -2.21682 4.72921 0
M  V30 295 H 29.5839 -1.01351 2.81724 0
M  V30 296 H 27.1299 -0.486105 1.35547 0
M  V30 297 H 29.0829 -3.42365 2.45691 0
M  V30 298 H 27.8069 -3.0012 1.28824 0
M  V30 299 H 26.4659 -1.91722 3.12471 0
M  V30 300 H 26.1139 -4.32854 2.56216 0
M  V30 301 H 25.8139 -4.01535 4.29003 0
M  V30 302 H 27.3379 -4.79563 3.77957 0
M  V30 303 H 28.7519 -2.86023 4.96854 0
M  V30 304 H 27.1489 -2.3111 5.53812 0
M  V30 305 H 28.2189 -1.16833 4.70615 0
M  V30 306 N 29.562 -1.4872 -0.521534 0
M  V30 307 C 30.79 -1.60843 -1.30142 0
M  V30 308 C 31.205 -0.271897 -1.86832 0
M  V30 309 O 30.562 0.739969 -1.66825 0
M  V30 310 C 30.613 -2.66155 -2.4463 0
M  V30 311 O 30.334 -3.94623 -1.90275 0
M  V30 312 C 31.835 -2.88795 -3.36322 0
M  V30 313 H 29.055 -0.542075 -0.395468 0
M  V30 314 H 31.599 -1.94609 -0.628285 0
M  V30 315 H 29.754 -2.35224 -3.07812 0
M  V30 316 H 30.168 -4.52468 -2.65279 0
M  V30 317 H 31.642 -3.66264 -4.12983 0
M  V30 318 H 32.119 -1.97934 -3.9207 0
M  V30 319 H 32.725 -3.21063 -2.78924 0
M  V30 320 N 31.0401 0.771051 -1.3745 0
M  V30 321 C 32.2801 1.54264 -1.34096 0
M  V30 322 C 32.6441 1.91858 0.0737639 0
M  V30 323 O 33.8451 2.67797 0.23203 0
M  V30 324 C 32.1161 2.77326 -2.25445 0
M  V30 325 S 33.6751 3.67383 -2.39948 0
M  V30 326 H 30.4931 0.528122 -0.476034 0
M  V30 327 H 33.0951 0.906633 -1.73206 0
M  V30 328 H 31.7991 2.47788 -3.27153 0
M  V30 329 H 31.3301 3.45886 -1.87421 0
M  V30 330 H 33.3451 4.69334 -1.61059 0
M  V30 331 N 32.5182 1.22032 0.997298 0
M  V30 332 C 33.7462 1.06841 1.7718 0
M  V30 333 C 34.1612 -0.381325 1.84909 0
M  V30 334 O 33.5182 -1.26437 1.31605 0
M  V30 335 C 33.5692 1.66814 3.20711 0
M  V30 336 O 33.2902 3.06116 3.13408 0
M  V30 337 C 34.7912 1.56838 4.14628 0
M  V30 338 H 32.0112 0.374782 0.556578 0
M  V30 339 H 34.5552 1.61532 1.2541 0
M  V30 340 H 32.7102 1.16196 3.69564 0
M  V30 341 H 33.1242 3.34926 4.0364 0
M  V30 342 H 34.5982 2.03532 5.13107 0
M  V30 343 H 35.0752 0.524155 4.36061 0
M  V30 344 H 35.6812 2.06741 3.7167 0
M  V30 345 N 33.9963 -1.19345 1.0293 0
M  V30 346 C 35.2423 -1.89318 0.727083 0
M  V30 347 C 35.5753 -1.79446 -0.742483 0
M  V30 348 O 34.8503 -1.1871 -1.54072 0
M  V30 349 C 35.1333 -3.40238 1.17942 0
M  V30 350 C 34.9863 -3.58979 2.71024 0
M  V30 351 C 36.3053 -4.33479 0.760548 0
M  V30 352 H 33.4243 -0.687475 0.265606 0
M  V30 353 H 36.0663 -1.40477 1.2793 0
M  V30 354 H 34.2163 -3.81964 0.709608 0
M  V30 355 H 35.8883 -3.26421 3.25955 0
M  V30 356 H 34.1313 -3.02018 3.11396 0
M  V30 357 H 34.8023 -4.64823 2.9773 0
M  V30 358 H 37.2783 -3.99469 1.16464 0
M  V30 359 H 36.1543 -5.37664 1.10493 0
M  V30 360 H 36.4153 -4.40813 -0.337063 0
M  V30 361 N 35.4744 -0.807222 -1.35358 0
M  V30 362 C 36.6994 -0.399309 -2.0352 0
M  V30 363 C 37.1244 0.981986 -1.60433 0
M  V30 364 O 36.4824 1.63601 -0.781299 0
M  V30 365 C 36.5304 -0.491552 -3.57234 0
M  V30 366 O 35.6344 0.494754 -4.09421 0
M  V30 367 H 34.9754 -0.166682 -0.642739 0
M  V30 368 H 37.5054 -1.09328 -1.72941 0
M  V30 369 H 37.5154 -0.361588 -4.06395 0
M  V30 370 H 36.1904 -1.49907 -3.87944 0
M  V30 371 H 34.7674 0.324977 -3.71481 0
M  V30 372 N 36.9525 1.47285 -0.560781 0
M  V30 373 C 38.2005 2.02064 -0.0379868 0
M  V30 374 C 38.5215 1.43711 1.31803 0
M  V30 375 O 37.7915 0.61362 1.86042 0
M  V30 376 H 36.3715 0.746918 -0.0110531 0
M  V30 377 H 39.0335 1.80648 -0.731598 0
M  V30 378 H 38.1295 3.12064 0.0474463 0
M  V30 379 N 38.4306 0.297415 1.54768 0
M  V30 380 C 39.6776 -0.312913 2.00068 0
M  V30 381 C 40.0056 -1.54171 1.18582 0
M  V30 382 O 39.2606 -1.94108 0.249133 0
M  V30 383 C 39.5596 -0.717561 3.50123 0
M  V30 384 C 39.2256 0.409095 4.4904 0
M  V30 385 C 37.8876 0.718399 4.75807 0
M  V30 386 C 40.2396 1.16717 5.07963 0
M  V30 387 C 37.5676 1.78896 5.5876 0
M  V30 388 C 39.9196 2.22762 5.92081 0
M  V30 389 C 38.5836 2.54303 6.1716 0
M  V30 390 H 37.8536 -0.114503 0.7321 0
M  V30 391 H 40.5006 0.415767 1.86932 0
M  V30 392 H 38.8056 -1.52627 3.60849 0
M  V30 393 H 40.5026 -1.20091 3.82595 0
M  V30 394 H 37.0926 0.157918 4.28309 0
M  V30 395 H 41.2766 0.941466 4.87289 0
M  V30 396 H 36.5326 2.0381 5.7643 0
M  V30 397 H 40.7066 2.81962 6.36765 0
M  V30 398 H 38.3336 3.3739 6.81229 0
M  V30 399 N 39.9087 -1.5758 0.0250728 0
M  V30 400 C 41.1367 -1.9593 -0.664747 0
M  V30 401 C 41.5517 -0.901352 -1.65895 0
M  V30 402 O 40.9087 0.117255 -1.82123 0
M  V30 403 C 40.9597 -3.34342 -1.37468 0
M  V30 404 O 40.6807 -4.36079 -0.420324 0
M  V30 405 C 42.1817 -3.873 -2.1567 0
M  V30 406 H 39.4017 -0.645405 -0.183557 0
M  V30 407 H 41.9457 -2.04329 0.0836372 0
M  V30 408 H 40.1007 -3.27175 -2.0745 0
M  V30 409 H 40.5147 -5.16297 -0.923991 0
M  V30 410 H 41.9887 -4.86504 -2.60803 0
M  V30 411 H 42.4657 -3.21331 -2.99405 0
M  V30 412 H 43.0717 -3.97723 -1.50654 0
M  V30 413 N 41.3868 0.248026 -1.55636 0
M  V30 414 C 42.6338 0.976224 -1.77415 0
M  V30 415 C 42.9618 1.85361 -0.589193 0
M  V30 416 O 42.2168 1.90973 0.427529 0
M  V30 417 C 42.5158 1.86819 -3.04686 0
M  V30 418 C 42.1818 1.14625 -4.36087 0
M  V30 419 C 40.8438 0.946723 -4.71795 0
M  V30 420 C 43.1958 0.634463 -5.17324 0
M  V30 421 C 40.5238 0.223091 -5.86276 0
M  V30 422 C 42.8758 -0.0756959 -6.32555 0
M  V30 423 C 41.5398 -0.286711 -6.66884 0
M  V30 424 H 40.8098 0.357226 -0.649208 0
M  V30 425 H 43.4568 0.246415 -1.89908 0
M  V30 426 H 41.7618 2.66502 -2.872 0
M  V30 427 H 43.4588 2.43329 -3.18735 0
M  V30 428 H 40.0488 1.3117 -4.08035 0
M  V30 429 H 44.2328 0.77616 -4.90193 0
M  V30 430 H 39.4888 0.0491185 -6.1138 0
M  V30 431 H 43.6628 -0.479899 -6.94745 0
M  V30 432 H 41.2898 -0.849389 -7.5544 0
M  V30 433 N 42.8649 1.48995 0.513639 0
M  V30 434 C 44.0929 1.61531 1.29288 0
M  V30 435 C 44.5079 0.281801 1.86685 0
M  V30 436 O 43.8649 -0.731111 1.67215 0
M  V30 437 C 43.9159 2.67449 2.43215 0
M  V30 438 O 43.6369 3.95626 1.88179 0
M  V30 439 C 45.1379 2.90575 3.34785 0
M  V30 440 H 42.3579 0.544165 0.392588 0
M  V30 441 H 44.9019 1.9494 0.617956 0
M  V30 442 H 43.0569 2.36853 3.0656 0
M  V30 443 H 43.4709 4.53868 2.62876 0
M  V30 444 H 44.9449 3.68449 4.11035 0
M  V30 445 H 45.4219 2.00011 3.91015 0
M  V30 446 H 46.0279 3.22538 2.77218 0
M  V30 447 N 44.343 -0.763751 1.37857 0
M  V30 448 C 45.62 -1.51244 1.24035 0
M  V30 449 C 46 -2.10472 -0.162649 0
M  V30 450 O 45.348 -1.96206 -1.17112 0
M  V30 451 C 45.558 -2.58694 2.34261 0
M  V30 452 C 46.906 -3.25878 2.72193 0
M  V30 453 O 47.93 -2.68993 2.33497 0
M  V30 454 O 46.789 -4.2874 3.38887 0
M  V30 455 H 43.883 -0.670243 0.484462 0
M  V30 456 H 46.429 -0.800031 1.49658 0
M  V30 457 H 45.201 -2.13105 3.2818 0
M  V30 458 H 44.824 -3.37527 2.10146 0
M  V30 459 N 45.8211 -1.22559 -0.990812 0
M  V30 460 C 47.0681 -1.05141 -1.73065 0
M  V30 461 C 47.3961 0.413191 -1.9006 0
M  V30 462 O 46.6511 1.32257 -1.44245 0
M  V30 463 C 46.9501 -1.71011 -3.13831 0
M  V30 464 C 46.6161 -3.20911 -3.16745 0
M  V30 465 C 45.2781 -3.61812 -3.17247 0
M  V30 466 C 47.6301 -4.16846 -3.12872 0
M  V30 467 C 44.9581 -4.97127 -3.1158 0
M  V30 468 C 47.3101 -5.5214 -3.08746 0
M  V30 469 C 45.9741 -5.92419 -3.07565 0
M  V30 470 H 45.2441 -0.384738 -0.633291 0
M  V30 471 H 47.8911 -1.5235 -1.16025 0
M  V30 472 H 46.1961 -1.16133 -3.74193 0
M  V30 473 H 47.8931 -1.55023 -3.69823 0
M  V30 474 H 44.4831 -2.88344 -3.17105 0
M  V30 475 H 48.6671 -3.86263 -3.11632 0
M  V30 476 H 43.9231 -5.27562 -3.09012 0
M  V30 477 H 48.0971 -6.26201 -3.04705 0
M  V30 478 H 45.7241 -6.97236 -3.02929 0
M  V30 479 N 47.2992 1.18797 -1.03562 0
M  V30 480 C 48.5292 1.92319 -0.754773 0
M  V30 481 C 48.9372 1.7612 0.691248 0
M  V30 482 O 48.2802 1.08491 1.48241 0
M  V30 483 C 48.3422 3.44284 -1.03484 0
M  V30 484 C 48.0062 3.84258 -2.47376 0
M  V30 485 C 49.0032 3.88459 -3.45537 0
M  V30 486 C 46.6882 4.15701 -2.81954 0
M  V30 487 C 48.6822 4.23545 -4.76328 0
M  V30 488 C 46.3692 4.50458 -4.12954 0
M  V30 489 C 47.3672 4.54356 -5.09951 0
M  V30 490 O 47.0552 4.88305 -6.38603 0
M  V30 491 H 46.7872 0.617527 -0.275021 0
M  V30 492 H 49.3412 1.51683 -1.38497 0
M  V30 493 H 47.5712 3.85135 -0.347513 0
M  V30 494 H 49.2602 3.99049 -0.7426 0
M  V30 495 H 50.0262 3.6431 -3.20162 0
M  V30 496 H 45.9052 4.11847 -2.0713 0
M  V30 497 H 49.4492 4.26502 -5.52035 0
M  V30 498 H 45.3462 4.74067 -4.38099 0
M  V30 499 H 46.1142 5.06227 -6.43177 0
M  V30 500 N 48.7773 0.814389 1.34928 0
M  V30 501 C 49.7103 0.175641 2.27523 0
M  V30 502 C 50.6883 -0.662953 1.48471 0
M  V30 503 O 51.8723 -0.628545 1.77712 0
M  V30 504 C 48.9993 -0.755516 3.30166 0
M  V30 505 C 48.0453 0.00445305 4.265 0
M  V30 506 S 48.8783 1.34582 5.18313 0
M  V30 507 C 50.0343 0.419315 6.24494 0
M  V30 508 H 50.2673 0.960691 2.8135 0
M  V30 509 H 47.8003 0.609846 1.41846 0
M  V30 510 H 49.7583 -1.28723 3.89796 0
M  V30 511 H 48.4193 -1.51402 2.75202 0
M  V30 512 H 47.6123 -0.703077 4.99072 0
M  V30 513 H 47.2143 0.466447 3.7108 0
M  V30 514 H 49.5063 -0.392432 6.76362 0
M  V30 515 H 50.4493 1.11446 6.99275 0
M  V30 516 H 50.8573 0.0115389 5.64499 0
M  V30 517 N 50.2554 -1.46986 0.568584 0
M  V30 518 C 51.2034 -2.31858 -0.185649 0
M  V30 519 C 52.1974 -1.43624 -0.898249 0
M  V30 520 O 53.4034 -1.60327 -0.818242 0
M  V30 521 H 49.7784 -0.747866 -0.0787399 0
M  V30 522 H 51.7494 -2.93303 0.549191 0
M  V30 523 C 50.4984 -3.26513 -1.19519 0
M  V30 524 H 49.8214 -3.94377 -0.656285 0
M  V30 525 H 51.2614 -3.88707 -1.6936 0
M  V30 526 C 49.7204 -2.50847 -2.24894 0
M  V30 527 O 50.2504 -2.26119 -3.32014 0
M  V30 528 N 48.4564 -2.11656 -1.99124 0
M  V30 529 H 48.0034 -2.31966 -1.12024 0
M  V30 530 H 47.9614 -1.61347 -2.69842 0
M  V30 531 N 51.7335 -0.305618 -1.54608 0
M  V30 532 C 52.9795 0.295595 -2.01241 0
M  V30 533 C 53.3345 1.51171 -1.19018 0
M  V30 534 O 52.6275 1.89832 -0.259684 0
M  V30 535 C 52.8215 0.698983 -3.50498 0
M  V30 536 C 52.6505 -0.476491 -4.47168 0
M  V30 537 C 51.4205 -0.969963 -4.95903 0
M  V30 538 C 53.6185 -1.32294 -4.96994 0
M  V30 539 N 51.6005 -2.11172 -5.76437 0
M  V30 540 C 52.9715 -2.31212 -5.75275 0
M  V30 541 C 55.0265 -1.35278 -4.7917 0
M  V30 542 C 53.7295 -3.32896 -6.37631 0
M  V30 543 C 55.7555 -2.35823 -5.42348 0
M  V30 544 C 55.1175 -3.33469 -6.20466 0
M  V30 545 H 51.2165 0.0724992 -0.778632 0
M  V30 546 H 53.8005 -0.436583 -1.89742 0
M  V30 547 H 51.9715 1.40032 -3.62278 0
M  V30 548 H 53.7035 1.28013 -3.8392 0
M  V30 549 H 50.4585 -0.544178 -4.70463 0
M  V30 550 H 50.8825 -2.68714 -6.21387 0
M  V30 551 H 55.5245 -0.61157 -4.18354 0
M  V30 552 H 53.2425 -4.07933 -6.97579 0
M  V30 553 H 56.8285 -2.38911 -5.30484 0
M  V30 554 H 55.7085 -4.09996 -6.68485 0
M  V30 555 N 53.2116 1.57565 -0.0334293 0
M  V30 556 C 54.4576 1.92262 0.645226 0
M  V30 557 C 54.7906 0.910543 1.71531 0
M  V30 558 O 54.0656 -0.066099 1.94388 0
M  V30 559 C 54.3486 3.37422 1.2577 0
M  V30 560 C 54.2016 4.49369 0.196891 0
M  V30 561 C 55.5206 3.82628 2.17449 0
M  V30 562 H 52.6396 0.699171 0.233085 0
M  V30 563 H 55.2816 1.89779 -0.0915694 0
M  V30 564 H 53.4316 3.39669 1.88566 0
M  V30 565 H 55.1036 4.59254 -0.433962 0
M  V30 566 H 53.3466 4.31168 -0.477137 0
M  V30 567 H 54.0176 5.47978 0.665124 0
M  V30 568 H 56.4936 3.82145 1.64634 0
M  V30 569 H 55.3696 4.84883 2.57254 0
M  V30 570 H 55.6306 3.18376 3.0674 0
M  V30 571 N 54.6897 -0.239769 1.55765 0
M  V30 572 C 56.1057 -0.588624 1.48349 0
M  V30 573 C 56.3057 -1.88005 0.72502 0
M  V30 574 O 55.3617 -2.51186 0.257269 0
M  V30 575 C 56.6747 -0.68474 2.928 0
M  V30 576 C 58.2227 -0.77659 3.03213 0
M  V30 577 C 58.6977 -0.904207 4.48986 0
M  V30 578 N 60.1887 -0.968896 4.52953 0
M  V30 579 C 60.9237 -1.08703 5.63002 0
M  V30 580 N 60.4197 -1.17026 6.82845 0
M  V30 581 N 62.2127 -1.12074 5.50814 0
M  V30 582 H 54.3637 0.607911 2.03515 0
M  V30 583 H 56.6267 0.21083 0.924259 0
M  V30 584 H 56.3327 0.194284 3.51163 0
M  V30 585 H 56.2067 -1.55435 3.43686 0
M  V30 586 H 58.5937 -1.64606 2.44926 0
M  V30 587 H 58.6747 0.118315 2.55526 0
M  V30 588 H 58.3187 -0.0392633 5.07885 0
M  V30 589 H 58.2487 -1.81426 4.9436 0
M  V30 590 H 60.7397 -0.915633 3.6664 0
M  V30 591 H 61.0527 -1.25966 7.62465 0
M  V30 592 H 59.3977 -1.13971 6.85591 0
M  V30 593 H 62.5887 -1.05226 4.5612 0
M  V30 594 H 62.7617 -1.20936 6.36615 0
M  V30 595 N 56.1678 -1.49265 -0.50573 0
M  V30 596 C 57.0998 -1.617 -1.62437 0
M  V30 597 C 58.1128 -0.499924 -1.54934 0
M  V30 598 O 59.3018 -0.771785 -1.60953 0
M  V30 599 C 56.4018 -1.5533 -3.01207 0
M  V30 600 C 55.5748 -2.8249 -3.33943 0
M  V30 601 C 54.6338 -2.69238 -4.52103 0
M  V30 602 O 53.6598 -3.43167 -4.5412 0
M  V30 603 N 54.8618 -1.80468 -5.51735 0
M  V30 604 H 57.6268 -2.58177 -1.52199 0
M  V30 605 H 55.1878 -1.46294 -0.693511 0
M  V30 606 H 57.1798 -1.44125 -3.78167 0
M  V30 607 H 55.7498 -0.667297 -3.05395 0
M  V30 608 H 54.9698 -3.08081 -2.45926 0
M  V30 609 H 56.2578 -3.66802 -3.5261 0
M  V30 610 H 55.6558 -1.19653 -5.52901 0
M  V30 611 H 54.2128 -1.75188 -6.27816 0
M  V30 612 N 57.6459 0.756429 -1.3826 0
M  V30 613 C 59.0569 1.33359 -1.30661 0
M  V30 614 C 59.4079 1.96161 0.0388875 0
M  V30 615 O 58.5329 1.94874 0.940918 0
M  V30 616 C 59.1279 2.42477 -2.36622 0
M  V30 617 C 57.6869 2.95922 -2.3261 0
M  V30 618 C 56.8339 1.69275 -2.19639 0
M  V30 619 H 59.7849 0.55552 -1.4866 0
M  V30 620 H 59.8059 3.22345 -2.02174 0
M  V30 621 H 59.3179 1.96739 -3.34538 0
M  V30 622 H 57.4189 3.45996 -1.38267 0
M  V30 623 H 57.5319 3.50494 -3.26636 0
M  V30 624 H 55.8959 1.92793 -1.66442 0
M  V30 625 H 56.6789 1.25619 -3.19491 0
M  V30 626 N 59.124 1.23083 0.984299 0
M  V30 627 C 60.535 1.05609 1.5396 0
M  V30 628 C 60.886 -0.377793 1.92528 0
M  V30 629 O 60.011 -1.26398 1.75649 0
M  V30 630 C 60.606 1.91087 2.7977 0
M  V30 631 C 59.165 1.77885 3.31713 0
M  V30 632 C 58.312 1.87028 2.04733 0
M  V30 633 H 61.263 1.36802 0.804419 0
M  V30 634 H 61.284 1.43336 3.5247 0
M  V30 635 H 60.796 2.9544 2.51668 0
M  V30 636 H 58.897 0.762995 3.64704 0
M  V30 637 H 59.01 2.61047 4.01735 0
M  V30 638 H 57.374 1.30565 2.18689 0
M  V30 639 H 58.157 2.92929 1.79017 0
M  V30 640 N 60.6021 -1.18246 1.0419 0
M  V30 641 C 61.8501 -1.87886 0.744543 0
M  V30 642 C 62.1711 -1.8082 -0.730006 0
M  V30 643 O 61.4411 -1.22736 -1.52685 0
M  V30 644 H 60.0211 -0.695556 0.272417 0
M  V30 645 H 62.6831 -1.43494 1.31892 0
M  V30 646 H 61.7791 -2.9389 1.05049 0
M  V30 647 N 62.0802 -0.821533 -1.34494 0
M  V30 648 C 63.4962 -0.507117 -1.51329 0
M  V30 649 C 63.6962 0.968964 -1.76673 0
M  V30 650 O 62.7522 1.75348 -1.81685 0
M  V30 651 C 64.0652 -1.36544 -2.67911 0
M  V30 652 C 65.6132 -1.36242 -2.81793 0
M  V30 653 C 66.0882 -2.2052 -4.01416 0
M  V30 654 N 67.5792 -2.18136 -4.08621 0
M  V30 655 C 68.3142 -2.80095 -5.00334 0
M  V30 656 N 67.8102 -3.51039 -5.9728 0
M  V30 657 N 69.6032 -2.69656 -4.93196 0
M  V30 658 H 61.7542 -1.77729 -1.16302 0
M  V30 659 H 64.0172 -0.757291 -0.570276 0
M  V30 660 H 63.7232 -2.41361 -2.55808 0
M  V30 661 H 63.5972 -1.02917 -3.62888 0
M  V30 662 H 65.9842 -0.322041 -2.93338 0
M  V30 663 H 66.0652 -1.73866 -1.87628 0
M  V30 664 H 65.7092 -3.24607 -3.90631 0
M  V30 665 H 65.6392 -1.80247 -4.94791 0
M  V30 666 H 68.1302 -1.6653 -3.39229 0
M  V30 667 H 68.4432 -3.95565 -6.63889 0
M  V30 668 H 66.7882 -3.55145 -5.97409 0
M  V30 669 H 69.9792 -2.13808 -4.16418 0
M  V30 670 H 70.1522 -3.1823 -5.64476 0
M  V30 671 N 63.5583 1.46682 -0.576371 0
M  V30 672 C 64.8063 2.02013 -0.0594163 0
M  V30 673 C 65.1273 1.45101 1.30271 0
M  V30 674 O 64.3973 0.633317 1.8538 0
M  V30 675 H 62.9773 0.746759 -0.0189745 0
M  V30 676 H 65.6393 1.79862 -0.750717 0
M  V30 677 H 64.7353 3.12097 0.014345 0
M  V30 678 N 65.0364 0.313813 1.54444 0
M  V30 679 C 65.9664 -0.549454 2.26943 0
M  V30 680 C 66.9474 -1.12741 1.27372 0
M  V30 681 O 68.1324 -1.15436 1.56167 0
M  V30 682 C 65.2624 -1.71523 3.01989 0
M  V30 683 C 64.2164 -1.26703 4.08816 0
M  V30 684 C 63.5424 -2.51898 4.71647 0
M  V30 685 C 64.8424 -0.388962 5.2085 0
M  V30 686 H 66.5364 0.0552661 2.99349 0
M  V30 687 H 64.0824 0.0280207 1.43973 0
M  V30 688 H 66.0354 -2.32535 3.51433 0
M  V30 689 H 64.7594 -2.34639 2.27183 0
M  V30 690 H 63.4184 -0.679896 3.6024 0
M  V30 691 H 63.0664 -3.13356 3.93468 0
M  V30 692 H 62.7664 -2.22605 5.43802 0
M  V30 693 H 64.2904 -3.1369 5.23861 0
M  V30 694 H 65.7044 -0.905107 5.6611 0
M  V30 695 H 64.1014 -0.18924 5.99802 0
M  V30 696 H 65.1714 0.582699 4.81386 0
M  V30 697 N 66.5145 -1.57545 0.0417849 0
M  V30 698 C 67.4245 -2.14451 -0.951213 0
M  V30 699 C 68.4405 -1.09992 -1.34825 0
M  V30 700 O 69.6165 -1.42114 -1.42708 0
M  V30 701 C 66.6815 -2.67063 -2.21084 0
M  V30 702 C 65.7425 -3.86284 -1.87304 0
M  V30 703 C 64.9755 -4.36378 -3.07261 0
M  V30 704 O 65.1985 -3.85587 -4.20332 0
M  V30 705 O 64.1325 -5.28077 -2.88822 0
M  V30 706 H 67.9585 -2.99601 -0.497287 0
M  V30 707 H 65.5435 -1.48317 -0.179567 0
M  V30 708 H 67.4255 -3.00914 -2.95006 0
M  V30 709 H 66.1005 -1.84989 -2.65633 0
M  V30 710 H 65.0075 -3.57338 -1.10727 0
M  V30 711 H 66.3405 -4.6956 -1.47562 0
M  V30 712 N 67.9926 0.231505 -1.5589 0
M  V30 713 C 69.2386 0.954429 -1.79617 0
M  V30 714 C 69.5936 1.82367 -0.613199 0
M  V30 715 O 68.8866 1.87524 0.393094 0
M  V30 716 C 69.0806 1.83577 -3.0665 0
M  V30 717 C 68.9096 1.05334 -4.3719 0
M  V30 718 C 67.6796 0.75225 -4.99669 0
M  V30 719 C 69.8776 0.423444 -5.12554 0
M  V30 720 N 67.8596 -0.052627 -6.13877 0
M  V30 721 C 69.2306 -0.245287 -6.19515 0
M  V30 722 C 71.2856 0.335466 -4.96769 0
M  V30 723 C 69.9886 -0.993566 -7.12405 0
M  V30 724 C 72.0146 -0.399321 -5.9005 0
M  V30 725 C 71.3766 -1.05663 -6.9643 0
M  V30 726 H 67.4756 0.329846 -0.709031 0
M  V30 727 H 70.0596 0.226172 -1.93382 0
M  V30 728 H 68.2306 2.53592 -2.94186 0
M  V30 729 H 69.9626 2.49541 -3.18608 0
M  V30 730 H 66.7176 1.06783 -4.61405 0
M  V30 731 H 67.1416 -0.443609 -6.75545 0
M  V30 732 H 71.7836 0.829311 -4.14587 0
M  V30 733 H 69.5016 -1.49896 -7.94076 0
M  V30 734 H 73.0876 -0.468265 -5.79913 0
M  V30 735 H 71.9676 -1.61612 -7.67366 0
M  V30 736 N 69.4707 1.49531 0.497807 0
M  V30 737 C 70.7197 1.58426 1.24837 0
M  V30 738 C 71.0327 0.277643 1.93619 0
M  V30 739 O 72.2387 0.24517 2.70391 0
M  V30 740 C 70.6947 2.79538 2.26686 0
M  V30 741 C 70.3027 4.16971 1.63828 0
M  V30 742 C 72.0467 2.97764 3.0255 0
M  V30 743 C 69.9537 5.29301 2.63807 0
M  V30 744 H 68.8837 0.58989 0.469623 0
M  V30 745 H 71.5347 1.75923 0.521857 0
M  V30 746 H 69.9167 2.55542 3.02514 0
M  V30 747 H 71.0907 4.51116 0.939711 0
M  V30 748 H 69.4057 4.04129 1.00342 0
M  V30 749 H 72.0027 3.78856 3.77323 0
M  V30 750 H 72.3457 2.08448 3.60354 0
M  V30 751 H 72.8787 3.21815 2.33838 0
M  V30 752 H 69.6177 6.20687 2.10779 0
M  V30 753 H 69.1377 4.99606 3.31894 0
M  V30 754 H 70.8167 5.58768 3.2617 0
M  V30 755 N 70.9488 -0.749086 1.3866 0
M  V30 756 C 72.1968 -1.50535 1.34847 0
M  V30 757 C 72.5178 -1.94909 -0.0595016 0
M  V30 758 O 71.7878 -1.67973 -1.00806 0
M  V30 759 H 70.3678 -0.558395 0.49619 0
M  V30 760 H 73.0298 -0.890165 1.73384 0
M  V30 761 H 72.1258 -2.39413 2.00219 0
M  V30 762 N 72.4269 -1.23603 -0.977757 0
M  V30 763 C 73.6739 -1.06971 -1.71941 0
M  V30 764 C 74.0019 0.393009 -1.90488 0
M  V30 765 O 73.2569 1.30719 -1.4564 0
M  V30 766 C 73.5559 -1.7433 -3.11999 0
M  V30 767 C 73.2219 -3.24252 -3.13323 0
M  V30 768 C 71.8839 -3.65156 -3.13392 0
M  V30 769 C 74.2359 -4.20141 -3.08433 0
M  V30 770 C 71.5639 -5.00403 -3.0629 0
M  V30 771 C 73.9159 -5.55384 -3.02873 0
M  V30 772 C 72.5799 -5.95647 -3.01265 0
M  V30 773 H 71.8499 -0.391433 -0.629175 0
M  V30 774 H 74.4969 -1.53572 -1.14403 0
M  V30 775 H 72.8019 -1.20096 -3.7294 0
M  V30 776 H 74.4989 -1.58936 -3.68158 0
M  V30 777 H 71.0889 -2.91692 -3.14029 0
M  V30 778 H 75.2729 -3.89547 -3.07517 0
M  V30 779 H 70.5289 -5.3081 -3.03399 0
M  V30 780 H 74.7029 -6.29398 -2.98046 0
M  V30 781 H 72.3299 -7.0041 -2.95516 0
M  V30 782 N 73.905 1.17692 -1.04816 0
M  V30 783 C 75.154 1.87192 -0.751132 0
M  V30 784 C 75.467 1.8169 0.724441 0
M  V30 785 O 76.673 2.46625 1.13527 0
M  V30 786 C 75.129 3.35857 -1.29338 0
M  V30 787 C 74.737 3.4987 -2.79812 0
M  V30 788 C 76.481 4.10709 -1.07322 0
M  V30 789 C 74.388 4.92536 -3.27356 0
M  V30 790 H 73.318 0.701162 -0.277288 0
M  V30 791 H 75.969 1.32932 -1.26496 0
M  V30 792 H 74.351 3.89631 -0.707376 0
M  V30 793 H 75.525 3.06332 -3.44235 0
M  V30 794 H 73.84 2.88433 -3.00325 0
M  V30 795 H 76.437 5.15952 -1.4035 0
M  V30 796 H 76.78 4.16299 -0.0108001 0
M  V30 797 H 77.313 3.6313 -1.62423 0
M  V30 798 H 74.052 4.92119 -4.33012 0
M  V30 799 H 73.572 5.3676 -2.67673 0
M  V30 800 H 75.251 5.61288 -3.21815 0
M  V30 801 N 75.3831 0.828654 1.34056 0
M  V30 802 C 76.7991 0.515135 1.51058 0
M  V30 803 C 76.9991 -0.959581 1.77184 0
M  V30 804 O 76.0551 -1.74382 1.82612 0
M  V30 805 C 77.3681 1.37963 2.67183 0
M  V30 806 C 78.9161 1.37735 2.81066 0
M  V30 807 C 79.3911 2.22645 4.00241 0
M  V30 808 N 80.8821 2.203 4.07458 0
M  V30 809 C 81.6171 2.82744 4.98842 0
M  V30 810 N 81.1131 3.54201 5.9541 0
M  V30 811 N 82.9061 2.72268 4.91759 0
M  V30 812 H 75.0571 1.78343 1.15358 0
M  V30 813 H 77.3201 0.760304 0.566252 0
M  V30 814 H 77.0261 2.42714 2.54525 0
M  V30 815 H 76.9001 1.0484 3.62338 0
M  V30 816 H 79.2871 0.337593 2.93163 0
M  V30 817 H 79.3681 1.74859 1.86703 0
M  V30 818 H 79.0121 3.26674 3.88905 0
M  V30 819 H 78.9421 1.82869 4.93829 0
M  V30 820 H 81.4331 1.68327 3.38341 0
M  V30 821 H 81.7461 3.9908 6.61782 0
M  V30 822 H 80.0911 3.58308 5.95517 0
M  V30 823 H 83.2821 2.16014 4.15278 0
M  V30 824 H 83.4551 3.21219 5.62781 0
M  V30 825 N 76.8612 -1.46375 0.584142 0
M  V30 826 C 78.1382 -1.956 0.0033388 0
M  V30 827 C 78.5182 -1.52679 -1.45782 0
M  V30 828 O 77.8662 -0.77816 -2.14842 0
M  V30 829 C 78.0762 -3.48551 0.176891 0
M  V30 830 C 79.4242 -4.24576 0.0454609 0
M  V30 831 O 80.4482 -3.56043 0.105801 0
M  V30 832 O 79.3072 -5.46427 -0.0890376 0
M  V30 833 H 76.4012 -0.825547 -0.0490066 0
M  V30 834 H 78.9472 -1.56652 0.65256 0
M  V30 835 H 77.7192 -3.72683 1.1926 0
M  V30 836 H 77.3422 -3.94332 -0.508695 0
M  V30 837 N 78.3393 -0.321999 -1.54275 0
M  V30 838 C 79.2863 0.544664 -2.24281 0
M  V30 839 C 80.2563 1.1129 -1.23303 0
M  V30 840 O 81.4413 1.15354 -1.51981 0
M  V30 841 C 78.5813 1.70045 -3.00298 0
M  V30 842 C 77.6943 1.16159 -4.1609 0
M  V30 843 C 76.8293 2.28293 -4.79641 0
M  V30 844 C 75.8683 1.71648 -5.8754 0
M  V30 845 N 75.0053 2.77438 -6.44959 0
M  V30 846 H 79.8453 -0.0588907 -2.97942 0
M  V30 847 H 77.3823 -0.0408345 -1.47043 0
M  V30 848 H 79.3403 2.38054 -3.42616 0
M  V30 849 H 77.9703 2.27531 -2.28975 0
M  V30 850 H 77.0223 0.373092 -3.78566 0
M  V30 851 H 78.3343 0.707087 -4.93763 0
M  V30 852 H 77.4883 3.0421 -5.2492 0
M  V30 853 H 76.2273 2.77079 -4.01346 0
M  V30 854 H 75.2323 0.942282 -5.41665 0
M  V30 855 H 76.4573 1.23741 -6.67731 0
M  V30 856 H 74.4033 3.25519 -5.69538 0
M  V30 857 H 74.3203 2.36547 -7.1804 0
M  V30 858 H 75.5883 3.53189 -6.94894 0
M  V30 859 N 79.8174 1.5752 -0.0501392 0
M  V30 860 C 80.7804 2.1037 0.909786 0
M  V30 861 C 81.7804 1.02308 1.24056 0
M  V30 862 O 82.9704 1.28385 1.17741 0
M  V30 863 C 80.1024 2.58708 2.21998 0
M  V30 864 H 81.2954 2.96479 0.451665 0
M  V30 865 H 78.8484 1.55038 0.198248 0
M  V30 866 H 79.5834 1.75989 2.72394 0
M  V30 867 H 79.3684 3.37675 1.99295 0
M  V30 868 H 80.8584 2.99747 2.9076 0
M  V30 869 N 81.2955 -0.223234 1.56011 0
M  V30 870 C 82.2425 -1.27664 1.92277 0
M  V30 871 C 83.2125 -1.46659 0.779763 0
M  V30 872 O 84.3975 -1.60256 1.03551 0
M  V30 873 C 81.5375 -2.62234 2.24338 0
M  V30 874 C 80.6505 -2.51051 3.51564 0
M  V30 875 C 79.7855 -3.78133 3.7308 0
M  V30 876 C 78.8245 -3.61665 4.93827 0
M  V30 877 N 77.9615 -4.80693 5.11741 0
M  V30 878 H 82.8015 -0.960358 2.82101 0
M  V30 879 H 80.3385 -0.462901 1.39627 0
M  V30 880 H 82.2965 -3.40596 2.40936 0
M  V30 881 H 80.9265 -2.91961 1.3769 0
M  V30 882 H 79.9785 -1.64132 3.43169 0
M  V30 883 H 81.2905 -2.34803 4.40079 0
M  V30 884 H 80.4445 -4.64938 3.89766 0
M  V30 885 H 79.1835 -3.97304 2.82844 0
M  V30 886 H 78.1885 -2.73244 4.77093 0
M  V30 887 H 79.4135 -3.43966 5.85546 0
M  V30 888 H 77.3595 -5.00181 4.24446 0
M  V30 889 H 77.2765 -4.67165 5.94384 0
M  V30 890 H 78.5445 -5.6893 5.3286 0
M  V30 891 N 82.7736 -1.49793 -0.48987 0
M  V30 892 C 84.0216 -1.59525 -1.24081 0
M  V30 893 C 84.3426 -0.288953 -1.92847 0
M  V30 894 O 83.6126 0.692436 -1.83254 0
M  V30 895 H 82.1926 -0.587796 -0.460983 0
M  V30 896 H 84.8546 -1.86477 -0.566778 0
M  V30 897 H 83.9506 -2.39696 -1.99881 0
M  V30 898 N 84.2517 0.741722 -1.39055 0
M  V30 899 C 85.4817 1.52876 -1.3897 0
M  V30 900 C 85.8897 1.8919 0.0193266 0
M  V30 901 O 85.2327 1.54138 0.999356 0
M  V30 902 C 85.2947 2.84929 -2.19216 0
M  V30 903 C 84.9587 2.71086 -3.67915 0
M  V30 904 C 85.9557 2.40084 -4.61146 0
M  V30 905 C 83.6407 2.88168 -4.11418 0
M  V30 906 C 85.6347 2.26335 -5.95862 0
M  V30 907 C 83.3217 2.74037 -5.46211 0
M  V30 908 C 84.3197 2.43166 -6.38247 0
M  V30 909 O 84.0077 2.29115 -7.70559 0
M  V30 910 H 83.7397 0.479252 -0.476753 0
M  V30 911 H 86.2937 0.924751 -1.83405 0
M  V30 912 H 84.5237 3.47564 -1.69518 0
M  V30 913 H 86.2127 3.46509 -2.11392 0
M  V30 914 H 86.9787 2.26545 -4.28838 0
M  V30 915 H 82.8577 3.11191 -3.40119 0
M  V30 916 H 86.4017 2.0216 -6.67665 0
M  V30 917 H 82.2987 2.87153 -5.78112 0
M  V30 918 H 83.0667 2.44237 -7.81211 0
M  V30 919 N 85.7298 1.2412 0.971189 0
M  V30 920 C 86.9578 1.10575 1.74874 0
M  V30 921 C 87.3728 -0.342017 1.85676 0
M  V30 922 O 86.7298 -1.23617 1.34258 0
M  V30 923 C 86.7808 1.73579 3.171 0
M  V30 924 O 86.5018 3.12695 3.06844 0
M  V30 925 C 88.0028 1.65598 4.11208 0
M  V30 926 H 85.2228 0.386504 0.548503 0
M  V30 927 H 87.7668 1.64156 1.21955 0
M  V30 928 H 85.9218 1.24009 3.67016 0
M  V30 929 H 86.3358 3.43412 3.96445 0
M  V30 930 H 87.8098 2.1437 5.08674 0
M  V30 931 H 88.2868 0.616532 4.34851 0
M  V30 932 H 88.8928 2.14578 3.67201 0
M  V30 933 N 87.2079 -1.17134 1.05439 0
M  V30 934 C 88.4359 -1.91372 0.786414 0
M  V30 935 C 88.8509 -1.76955 -0.658202 0
M  V30 936 O 88.2079 -1.10838 -1.44987 0
M  V30 937 C 88.2589 -3.42356 1.1608 0
M  V30 938 O 87.9799 -3.56332 2.54871 0
M  V30 939 C 89.4809 -4.33663 0.919322 0
M  V30 940 H 86.7009 -0.607118 0.285743 0
M  V30 941 H 89.2449 -1.48525 1.40572 0
M  V30 942 H 87.3999 -3.82939 0.586191 0
M  V30 943 H 87.8139 -4.49896 2.69618 0
M  V30 944 H 89.2879 -5.38099 1.231 0
M  V30 945 H 89.7649 -4.38959 -0.145359 0
M  V30 946 H 90.3709 -3.98796 1.47789 0
M  V30 947 N 88.686 -0.835752 -1.33615 0
M  V30 948 C 89.596 -0.269088 -2.33052 0
M  V30 949 C 90.612 0.603251 -1.63208 0
M  V30 950 O 91.788 0.508112 -1.94885 0
M  V30 951 C 88.853 0.549091 -3.42324 0
M  V30 952 C 87.914 -0.347156 -4.27894 0
M  V30 953 C 87.147 0.43207 -5.31948 0
M  V30 954 O 87.37 1.66409 -5.45586 0
M  V30 955 O 86.304 -0.192298 -6.01593 0
M  V30 956 H 90.13 -1.09243 -2.83372 0
M  V30 957 H 87.715 -0.598198 -1.36901 0
M  V30 958 H 89.597 1.01414 -4.09015 0
M  V30 959 H 88.272 1.34955 -2.94226 0
M  V30 960 H 87.179 -0.859979 -3.64081 0
M  V30 961 H 88.512 -1.1123 -4.79467 0
M  V30 962 N 90.1641 1.46063 -0.591896 0
M  V30 963 C 91.3941 2.06418 -0.0867676 0
M  V30 964 C 91.8021 1.43975 1.22751 0
M  V30 965 O 91.1451 0.542531 1.75506 0
M  V30 966 C 91.2071 3.59213 0.143725 0
M  V30 967 C 90.8711 4.439 -1.08635 0
M  V30 968 C 91.8681 4.79864 -2.00067 0
M  V30 969 C 89.5531 4.84896 -1.31077 0
M  V30 970 C 91.5471 5.55661 -3.12282 0
M  V30 971 C 89.2341 5.6045 -2.43596 0
M  V30 972 C 90.2321 5.95747 -3.34027 0
M  V30 973 O 89.9201 6.69772 -4.4459 0
M  V30 974 H 89.6521 0.673443 -0.0587447 0
M  V30 975 H 92.2061 1.88539 -0.814994 0
M  V30 976 H 90.4361 3.75433 0.926668 0
M  V30 977 H 92.1251 4.01463 0.5985 0
M  V30 978 H 92.8911 4.48763 -1.83947 0
M  V30 979 H 88.7701 4.56867 -0.61594 0
M  V30 980 H 92.3141 5.8313 -3.82891 0
M  V30 981 H 88.2111 5.90965 -2.59674 0
M  V30 982 H 88.9791 6.88207 -4.43073 0
M  V30 983 N 91.6422 0.330177 1.54103 0
M  V30 984 C 92.5902 -0.548226 2.26047 0
M  V30 985 C 93.5842 -1.11309 1.27698 0
M  V30 986 O 94.7902 -1.06036 1.45452 0
M  V30 987 H 91.1652 -0.195456 0.726155 0
M  V30 988 H 93.1362 0.0807567 2.98291 0
M  V30 989 C 91.8852 -1.69415 3.03634 0
M  V30 990 H 91.2082 -1.26876 3.79134 0
M  V30 991 H 92.6482 -2.28423 3.5721 0
M  V30 992 C 91.1072 -2.61569 2.12328 0
M  V30 993 O 91.6372 -3.63462 1.7105 0
M  V30 994 N 89.8432 -2.29952 1.77681 0
M  V30 995 H 89.3902 -1.47134 2.11446 0
M  V30 996 H 89.3482 -2.91871 1.16869 0
M  V30 997 N 93.1203 -1.57491 0.0584922 0
M  V30 998 C 94.5313 -1.80526 -0.476138 0
M  V30 999 C 94.8823 -0.971334 -1.70469 0
M  V30 1000 O 94.0073 -0.190012 -2.15564 0
M  V30 1001 C 94.6023 -3.27424 -0.870587 0
M  V30 1002 C 93.1613 -3.51351 -1.35015 0
M  V30 1003 C 92.3083 -2.75343 -0.32887 0
M  V30 1004 H 95.2593 -1.56133 0.284312 0
M  V30 1005 H 95.2803 -3.38745 -1.73299 0
M  V30 1006 H 94.7923 -3.88093 0.0237627 0
M  V30 1007 H 92.8933 -2.95971 -2.26345 0
M  V30 1008 H 93.0063 -4.60059 -1.33726 0
M  V30 1009 H 91.3703 -2.417 -0.803321 0
M  V30 1010 H 92.1533 -3.38743 0.557521 0
M  V30 1011 N 94.5984 0.214957 -1.56127 0
M  V30 1012 C 95.8234 0.95924 -1.83884 0
M  V30 1013 C 96.2484 1.7689 -0.639644 0
M  V30 1014 O 95.6064 1.76566 0.411601 0
M  V30 1015 C 95.6544 1.84723 -3.09693 0
M  V30 1016 O 94.7584 2.94346 -2.8885 0
M  V30 1017 H 94.0994 0.27125 -0.606069 0
M  V30 1018 H 96.6294 0.226276 -2.03345 0
M  V30 1019 H 96.6394 2.25576 -3.39969 0
M  V30 1020 H 95.3144 1.25218 -3.96602 0
M  V30 1021 H 93.8914 2.57391 -2.69823 0
M  V30 1022 N 96.0765 1.50051 0.48192 0
M  V30 1023 C 97.3225 1.60736 1.2366 0
M  V30 1024 C 97.6555 0.301786 1.91841 0
M  V30 1025 O 96.9305 -0.696025 1.8162 0
M  V30 1026 C 97.2135 2.78009 2.28874 0
M  V30 1027 C 97.0665 4.18416 1.65069 0
M  V30 1028 C 98.3855 2.90867 3.30279 0
M  V30 1029 H 95.5045 0.585031 0.448228 0
M  V30 1030 H 98.1465 1.82402 0.531946 0
M  V30 1031 H 96.2965 2.59667 2.88973 0
M  V30 1032 H 97.9685 4.48322 1.0865 0
M  V30 1033 H 96.2115 4.23177 0.954148 0
M  V30 1034 H 96.8825 4.96381 2.41474 0
M  V30 1035 H 99.3585 3.07623 2.80191 0
M  V30 1036 H 98.2345 3.74566 4.01238 0
M  V30 1037 H 98.4955 2.01021 3.93755 0
M  V30 1038 N 97.5546 -0.734337 1.39446 0
M  V30 1039 C 98.5016 -1.84835 1.38219 0
M  V30 1040 C 99.4716 -1.64331 0.24179 0
M  V30 1041 O 100.657 -1.85728 0.437002 0
M  V30 1042 C 97.7966 -3.22355 1.23212 0
M  V30 1043 C 96.9096 -3.5456 2.46801 0
M  V30 1044 C 96.0446 -4.81485 2.24377 0
M  V30 1045 C 95.0836 -5.06536 3.43639 0
M  V30 1046 N 94.2206 -6.24665 3.20528 0
M  V30 1047 H 99.0606 -1.85219 2.33448 0
M  V30 1048 H 96.5976 -0.905039 1.15963 0
M  V30 1049 H 98.5556 -4.0174 1.12522 0
M  V30 1050 H 97.1856 -3.21248 0.316121 0
M  V30 1051 H 96.2376 -2.69872 2.68092 0
M  V30 1052 H 97.5496 -3.6899 3.3563 0
M  V30 1053 H 96.7036 -5.68852 2.10933 0
M  V30 1054 H 95.4426 -4.6923 1.32944 0
M  V30 1055 H 94.4476 -4.17632 3.5758 0
M  V30 1056 H 95.6726 -5.20676 4.35974 0
M  V30 1057 H 93.6186 -6.13696 2.3176 0
M  V30 1058 H 93.5356 -6.39685 4.02913 0
M  V30 1059 H 94.8036 -7.14868 3.10779 0
M  V30 1060 N 99.0327 -1.24633 -0.964593 0
M  V30 1061 C 100.281 -1.08573 -1.70459 0
M  V30 1062 C 100.602 0.375655 -1.91347 0
M  V30 1063 O 99.8717 1.26779 -1.49345 0
M  V30 1064 H 98.4517 -0.398784 -0.631649 0
M  V30 1065 H 101.114 -1.56601 -1.16026 0
M  V30 1066 H 100.21 -1.58623 -2.68785 0
M  V30 1067 N 100.511 1.16574 -1.06058 0
M  V30 1068 C 101.927 1.3904 -0.783585 0
M  V30 1069 C 102.127 1.91784 0.618145 0
M  V30 1070 O 101.183 2.11511 1.37911 0
M  V30 1071 C 102.496 2.37329 -1.84649 0
M  V30 1072 C 104.044 2.51018 -1.86973 0
M  V30 1073 C 104.519 3.52588 -2.92311 0
M  V30 1074 N 106.01 3.60113 -2.91329 0
M  V30 1075 C 106.745 4.38486 -3.69482 0
M  V30 1076 N 106.241 5.20302 -4.57447 0
M  V30 1077 N 108.034 4.33446 -3.57885 0
M  V30 1078 H 100.185 0.806725 -1.96483 0
M  V30 1079 H 102.448 0.417117 -0.851303 0
M  V30 1080 H 102.154 2.05663 -2.85299 0
M  V30 1081 H 102.028 3.36946 -1.6955 0
M  V30 1082 H 104.415 2.81989 -0.869827 0
M  V30 1083 H 104.496 1.51445 -2.0615 0
M  V30 1084 H 104.14 3.22354 -3.92492 0
M  V30 1085 H 104.07 4.51886 -2.70383 0
M  V30 1086 H 106.561 3.01707 -2.27555 0
M  V30 1087 H 106.874 5.77311 -5.13743 0
M  V30 1088 H 105.219 5.19653 -4.61503 0
M  V30 1089 H 108.41 3.68586 -2.88551 0
M  V30 1090 H 108.583 4.94279 -4.19037 0
M  V30 1091 N 101.989 0.842826 1.3317 0
M  V30 1092 C 103.235 0.441099 1.97945 0
M  V30 1093 C 103.568 -0.998024 1.66593 0
M  V30 1094 O 102.843 -1.69839 0.947898 0
M  V30 1095 C 103.126 0.666841 3.53872 0
M  V30 1096 C 102.979 2.15352 3.94897 0
M  V30 1097 C 104.298 0.115544 4.39948 0
M  V30 1098 H 101.417 0.161739 0.719034 0
M  V30 1099 H 104.059 1.05907 1.57746 0
M  V30 1100 H 102.209 0.140828 3.88245 0
M  V30 1101 H 103.881 2.7447 3.70761 0
M  V30 1102 H 102.124 2.63653 3.44484 0
M  V30 1103 H 102.795 2.26221 5.03516 0
M  V30 1104 H 105.271 0.565213 4.12243 0
M  V30 1105 H 104.147 0.303152 5.48062 0
M  V30 1106 H 104.408 -0.980935 4.3108 0
M  V30 1107 N 103.467 -1.45747 0.599634 0
M  V30 1108 C 104.695 -2.06668 0.0978551 0
M  V30 1109 C 105.11 -1.44562 -1.21439 0
M  V30 1110 O 104.467 -0.556923 -1.73795 0
M  V30 1111 C 104.518 -3.61456 -0.0567044 0
M  V30 1112 O 104.239 -4.21242 1.20361 0
M  V30 1113 C 105.74 -4.39345 -0.590869 0
M  V30 1114 H 102.96 -0.667825 0.0651943 0
M  V30 1115 H 105.504 -1.87115 0.82511 0
M  V30 1116 H 103.659 -3.80378 -0.734251 0
M  V30 1117 H 104.073 -5.14323 1.02821 0
M  V30 1118 H 105.547 -5.48182 -0.648131 0
M  V30 1119 H 106.024 -4.08568 -1.61147 0
M  V30 1120 H 106.63 -4.25268 0.0523679 0
M  V30 1121 N 104.945 -0.338344 -1.53925 0
M  V30 1122 C 105.878 0.563758 -2.21127 0
M  V30 1123 C 106.856 1.10433 -1.19345 0
M  V30 1124 O 108.04 1.16557 -1.48144 0
M  V30 1125 C 105.167 1.77505 -2.88461 0
M  V30 1126 C 104.213 1.3644 -4.04087 0
M  V30 1127 S 105.046 0.388593 -5.34088 0
M  V30 1128 C 106.202 1.60683 -6.04923 0
M  V30 1129 H 106.435 -0.00704546 -2.97299 0
M  V30 1130 H 103.968 -0.122418 -1.53914 0
M  V30 1131 H 105.926 2.46999 -3.27875 0
M  V30 1132 H 104.587 2.31706 -2.12064 0
M  V30 1133 H 103.78 2.26739 -4.50117 0
M  V30 1134 H 103.382 0.748998 -3.66423 0
M  V30 1135 H 105.674 2.54209 -6.28 0
M  V30 1136 H 106.617 1.18842 -6.98056 0
M  V30 1137 H 107.025 1.80052 -5.35015 0
M  V30 1138 N 106.423 1.57458 -0.0668435 0
M  V30 1139 C 107.353 2.15468 0.899764 0
M  V30 1140 C 108.334 1.08042 1.31381 0
M  V30 1141 O 109.519 1.36054 1.38574 0
M  V30 1142 C 106.649 2.71232 2.16911 0
M  V30 1143 C 105.603 3.83781 1.89463 0
M  V30 1144 C 104.929 4.26127 3.22986 0
M  V30 1145 C 106.229 5.08238 1.20381 0
M  V30 1146 H 107.923 2.96488 0.416529 0
M  V30 1147 H 105.469 1.4262 0.198908 0
M  V30 1148 H 107.422 3.10458 2.84945 0
M  V30 1149 H 106.146 1.87426 2.67468 0
M  V30 1150 H 104.805 3.45051 1.23836 0
M  V30 1151 H 104.453 3.39249 3.71374 0
M  V30 1152 H 104.153 5.01993 3.05413 0
M  V30 1153 H 105.677 4.67966 3.92225 0
M  V30 1154 H 107.091 5.44811 1.78475 0
M  V30 1155 H 105.488 5.89349 1.13083 0
M  V30 1156 H 106.558 4.84558 0.182153 0
M  V30 1157 N 107.901 -0.206675 1.56239 0
M  V30 1158 C 109.147 -0.930218 1.80208 0
M  V30 1159 C 109.48 -1.83387 0.638981 0
M  V30 1160 O 108.755 -1.91119 -0.361066 0
M  V30 1161 C 109.038 -1.75641 3.1436 0
M  V30 1162 C 108.891 -0.878257 4.41142 0
M  V30 1163 C 110.21 -2.73129 3.45092 0
M  V30 1164 H 107.329 -0.336742 0.655571 0
M  V30 1165 H 109.971 -0.198222 1.88963 0
M  V30 1166 H 108.121 -2.38048 3.07027 0
M  V30 1167 H 109.793 -0.269787 4.6051 0
M  V30 1168 H 108.036 -0.184385 4.33408 0
M  V30 1169 H 108.707 -1.49106 5.3148 0
M  V30 1170 H 111.183 -2.20856 3.52649 0
M  V30 1171 H 110.059 -3.28028 4.40101 0
M  V30 1172 H 110.32 -3.51606 2.68003 0
M  V30 1173 N 109.379 -1.50304 -0.473955 0
M  V30 1174 C 110.656 -1.51667 -1.23518 0
M  V30 1175 C 111.036 -0.259701 -2.09496 0
M  V30 1176 O 110.384 0.756986 -2.15597 0
M  V30 1177 C 110.594 -2.81082 -2.06868 0
M  V30 1178 C 111.942 -3.31631 -2.65153 0
M  V30 1179 O 112.966 -2.82384 -2.17113 0
M  V30 1180 O 111.825 -4.17471 -3.52675 0
M  V30 1181 H 108.919 -0.60822 -0.560355 0
M  V30 1182 H 111.465 -1.62592 -0.486011 0
M  V30 1183 H 110.237 -3.64041 -1.4349 0
M  V30 1184 H 109.86 -2.73146 -2.88924 0
M  V30 1185 N 110.857 0.726932 -1.39834 0
M  V30 1186 C 112.085 1.51613 -1.40787 0
M  V30 1187 C 112.5 1.88799 -0.00451505 0
M  V30 1188 O 111.857 1.54662 0.968809 0
M  V30 1189 C 111.908 2.79863 -2.28821 0
M  V30 1190 O 111.629 2.44253 -3.63692 0
M  V30 1191 C 113.13 3.73837 -2.38245 0
M  V30 1192 H 110.35 0.468264 -0.480593 0
M  V30 1193 H 112.894 0.897607 -1.83748 0
M  V30 1194 H 111.049 3.38027 -1.89252 0
M  V30 1195 H 111.463 3.26695 -4.1033 0
M  V30 1196 H 112.937 4.60699 -3.04073 0
M  V30 1197 H 113.414 4.16153 -1.40403 0
M  V30 1198 H 114.02 3.21589 -2.78317 0
M  V30 1199 N 112.336 1.25143 0.95797 0
M  V30 1200 C 113.561 1.12521 1.74223 0
M  V30 1201 C 113.986 -0.317402 1.85403 0
M  V30 1202 O 113.344 -1.2299 1.33204 0
M  V30 1203 C 113.392 1.78062 3.1357 0
M  V30 1204 O 112.496 1.058 3.98598 0
M  V30 1205 H 111.837 0.39304 0.535178 0
M  V30 1206 H 114.367 1.65641 1.201 0
M  V30 1207 H 114.377 1.84213 3.64046 0
M  V30 1208 H 113.052 2.83021 3.04749 0
M  V30 1209 H 111.629 1.07506 3.57067 0
M  V30 1210 N 113.814 -1.1601 1.06675 0
M  V30 1211 C 114.761 -2.20525 0.680967 0
M  V30 1212 C 115.731 -1.62904 -0.324283 0
M  V30 1213 O 116.916 -1.89615 -0.212294 0
M  V30 1214 C 114.056 -3.45013 0.0776551 0
M  V30 1215 C 113.169 -4.16863 1.13355 0
M  V30 1216 C 112.304 -5.2888 0.49597 0
M  V30 1217 C 111.343 -5.92537 1.53513 0
M  V30 1218 N 110.48 -6.96038 0.920631 0
M  V30 1219 H 115.32 -2.52876 1.57663 0
M  V30 1220 H 112.857 -1.24199 0.788223 0
M  V30 1221 H 114.815 -4.16193 -0.289704 0
M  V30 1222 H 113.445 -3.132 -0.781393 0
M  V30 1223 H 112.497 -3.44248 1.61857 0
M  V30 1224 H 113.809 -4.60294 1.92174 0
M  V30 1225 H 112.963 -6.06653 0.0758604 0
M  V30 1226 H 111.702 -4.86622 -0.324062 0
M  V30 1227 H 110.707 -5.13482 1.9651 0
M  V30 1228 H 111.932 -6.36873 2.35733 0
M  V30 1229 H 109.878 -6.55888 0.12138 0
M  V30 1230 H 109.795 -7.3786 1.64616 0
M  V30 1231 H 111.063 -7.77725 0.525795 0
M  V30 1232 N 115.292 -0.849877 -1.32721 0
M  V30 1233 C 116.24 -0.279745 -2.30912 0
M  V30 1234 C 117.234 0.594278 -1.58634 0
M  V30 1235 O 118.44 0.482613 -1.73409 0
M  V30 1236 H 114.815 -0.0717521 -0.748569 0
M  V30 1237 H 116.786 -1.12222 -2.76494 0
M  V30 1238 C 115.535 0.521108 -3.43773 0
M  V30 1239 H 114.858 -0.142141 -3.99547 0
M  V30 1240 H 116.298 0.885693 -4.14646 0
M  V30 1241 C 114.757 1.70442 -2.90605 0
M  V30 1242 O 115.287 2.8034 -2.87702 0
M  V30 1243 N 113.493 1.52991 -2.47067 0
M  V30 1244 H 113.04 0.635914 -2.49628 0
M  V30 1245 H 112.998 2.32311 -2.11847 0
M  V30 1246 N 116.77 1.45427 -0.607355 0
M  V30 1247 C 117.702 2.2871 0.149752 0
M  V30 1248 C 118.715 1.39937 0.831958 0
M  V30 1249 O 119.904 1.64313 0.697385 0
M  V30 1250 C 117.004 3.15673 1.23304 0
M  V30 1251 C 116.177 4.32722 0.637996 0
M  V30 1252 C 115.236 5.00895 1.61215 0
M  V30 1253 O 114.262 5.57697 1.13854 0
M  V30 1254 N 115.464 5.00159 2.94655 0
M  V30 1255 H 118.229 2.94328 -0.564882 0
M  V30 1256 H 115.79 1.55612 -0.446823 0
M  V30 1257 H 117.782 3.58144 1.88454 0
M  V30 1258 H 116.352 2.51965 1.8502 0
M  V30 1259 H 115.572 3.93734 -0.191572 0
M  V30 1260 H 116.86 5.08321 0.220665 0
M  V30 1261 H 116.258 4.553 3.35735 0
M  V30 1262 H 114.815 5.46495 3.55228 0
M  V30 1263 N 118.248 0.346503 1.53744 0
M  V30 1264 C 119.495 -0.249104 2.00962 0
M  V30 1265 C 119.823 -1.5032 1.23426 0
M  V30 1266 O 119.078 -1.93217 0.310761 0
M  V30 1267 C 119.377 -0.605809 3.52228 0
M  V30 1268 C 119.043 0.551747 4.47512 0
M  V30 1269 C 117.705 0.86941 4.73281 0
M  V30 1270 C 120.057 1.32818 5.03993 0
M  V30 1271 C 117.385 1.96582 5.52786 0
M  V30 1272 C 119.737 2.41486 5.84694 0
M  V30 1273 C 118.401 2.73808 6.08757 0
M  V30 1274 H 117.671 -0.0911538 0.735372 0
M  V30 1275 H 120.318 0.475027 1.85515 0
M  V30 1276 H 118.623 -1.4107 3.65522 0
M  V30 1277 H 120.32 -1.07858 3.86222 0
M  V30 1278 H 116.91 0.294102 4.2759 0
M  V30 1279 H 121.094 1.09602 4.84047 0
M  V30 1280 H 116.35 2.22045 5.69654 0
M  V30 1281 H 120.524 3.02078 6.27473 0
M  V30 1282 H 118.151 3.58892 6.7015 0
M  V30 1283 N 119.726 -1.57421 0.075193 0
M  V30 1284 C 120.951 -1.98364 -0.605515 0
M  V30 1285 C 121.376 -0.953383 -1.62149 0
M  V30 1286 O 120.734 0.0806053 -1.81121 0
M  V30 1287 C 120.782 -3.38332 -1.24756 0
M  V30 1288 O 119.886 -3.37959 -2.36342 0
M  V30 1289 H 119.227 -0.645553 -0.155428 0
M  V30 1290 H 121.757 -2.04044 0.150714 0
M  V30 1291 H 121.767 -3.75591 -1.5936 0
M  V30 1292 H 120.442 -4.12846 -0.503129 0
M  V30 1293 H 119.019 -3.12474 -2.03506 0
M  V30 1294 N 121.204 0.198386 -1.56346 0
M  V30 1295 C 122.134 1.24865 -1.9731 0
M  V30 1296 C 123.115 1.47651 -0.844576 0
M  V30 1297 O 124.3 1.59444 -1.10866 0
M  V30 1298 C 121.43 2.59358 -2.30977 0
M  V30 1299 C 120.384 2.5119 -3.46537 0
M  V30 1300 C 119.71 3.89926 -3.65871 0
M  V30 1301 C 121.01 2.03977 -4.80823 0
M  V30 1302 H 122.704 0.908252 -2.85291 0
M  V30 1303 H 120.25 0.435462 -1.37258 0
M  V30 1304 H 122.203 3.33011 -2.58228 0
M  V30 1305 H 120.927 2.95132 -1.39874 0
M  V30 1306 H 119.586 1.79993 -3.19371 0
M  V30 1307 H 119.234 4.23046 -2.72105 0
M  V30 1308 H 118.934 3.85336 -4.4361 0
M  V30 1309 H 120.458 4.65205 -3.95495 0
M  V30 1310 H 121.872 2.67386 -5.07127 0
M  V30 1311 H 120.269 2.10397 -5.62008 0
M  V30 1312 H 121.339 0.992861 -4.74626 0
M  V30 1313 N 122.682 1.50554 0.465978 0
M  V30 1314 C 124.098 1.38093 0.800154 0
M  V30 1315 C 124.298 0.440988 1.96615 0
M  V30 1316 O 123.354 -0.114499 2.5224 0
M  V30 1317 C 124.667 2.79565 1.10742 0
M  V30 1318 C 126.215 2.88516 1.21357 0
M  V30 1319 C 126.69 4.30833 1.55393 0
M  V30 1320 N 128.181 4.33807 1.62375 0
M  V30 1321 C 128.916 5.40927 1.90225 0
M  V30 1322 N 128.412 6.58247 2.16062 0
M  V30 1323 N 130.205 5.28376 1.9177 0
M  V30 1324 H 122.356 2.10237 -0.302366 0
M  V30 1325 H 124.619 0.945203 -0.0727746 0
M  V30 1326 H 124.325 3.50208 0.323661 0
M  V30 1327 H 124.199 3.17125 2.04234 0
M  V30 1328 H 126.586 2.1809 1.98799 0
M  V30 1329 H 126.667 2.54492 0.258321 0
M  V30 1330 H 126.311 5.01799 0.784889 0
M  V30 1331 H 126.241 4.62347 2.52076 0
M  V30 1332 H 128.732 3.49212 1.44427 0
M  V30 1333 H 129.045 7.3569 2.36601 0
M  V30 1334 H 127.39 6.61413 2.13444 0
M  V30 1335 H 130.581 4.35715 1.71085 0
M  V30 1336 H 130.754 6.11944 2.13139 0
M  V30 1337 N 124.16 -0.719506 1.40217 0
M  V30 1338 C 125.09 -1.8465 1.42922 0
M  V30 1339 C 126.071 -1.67599 0.29062 0
M  V30 1340 O 127.256 -1.87688 0.498677 0
M  V30 1341 C 124.386 -3.22565 1.28722 0
M  V30 1342 C 123.34 -3.54281 2.40144 0
M  V30 1343 C 122.666 -4.91298 2.11023 0
M  V30 1344 C 123.966 -3.55676 3.82481 0
M  V30 1345 H 125.66 -1.82644 2.37237 0
M  V30 1346 H 123.206 -0.877305 1.1419 0
M  V30 1347 H 125.159 -4.01095 1.29232 0
M  V30 1348 H 123.883 -3.25137 0.308811 0
M  V30 1349 H 122.542 -2.78088 2.38877 0
M  V30 1350 H 122.19 -4.90468 1.11582 0
M  V30 1351 H 121.89 -5.13485 2.8567 0
M  V30 1352 H 123.414 -5.72166 2.13209 0
M  V30 1353 H 124.828 -4.24254 3.85592 0
M  V30 1354 H 123.225 -3.89388 4.56614 0
M  V30 1355 H 124.295 -2.55144 4.12346 0
M  V30 1356 N 125.638 -1.25649 -0.95132 0
M  V30 1357 C 126.863 -1.13443 -1.73624 0
M  V30 1358 C 127.288 0.307565 -1.85568 0
M  V30 1359 O 126.646 1.22282 -1.33854 0
M  V30 1360 C 126.694 -1.79723 -3.12621 0
M  V30 1361 O 125.798 -1.07912 -3.98031 0
M  V30 1362 H 125.139 -0.395872 -0.533086 0
M  V30 1363 H 127.669 -1.66276 -1.1922 0
M  V30 1364 H 127.679 -1.86141 -3.63064 0
M  V30 1365 H 126.354 -2.84633 -3.03244 0
M  V30 1366 H 124.931 -1.09398 -3.56492 0
M  V30 1367 N 127.117 1.15442 -1.07289 0
M  V30 1368 C 128.342 1.90638 -0.816828 0
M  V30 1369 C 128.767 1.77445 0.624083 0
M  V30 1370 O 128.125 1.10671 1.43602 0
M  V30 1371 C 128.173 3.39008 -1.22906 0
M  V30 1372 O 127.277 4.10701 -0.373975 0
M  V30 1373 H 126.618 0.593555 -0.297638 0
M  V30 1374 H 129.148 1.46198 -1.43134 0
M  V30 1375 H 129.158 3.89801 -1.20497 0
M  V30 1376 H 127.833 3.47929 -2.27856 0
M  V30 1377 H 126.41 3.70046 -0.460499 0
M  V30 1378 N 128.595 0.856903 1.32268 0
M  V30 1379 C 129.841 0.462069 1.97466 0
M  V30 1380 C 130.174 -0.980298 1.67642 0
M  V30 1381 O 129.449 -1.68824 0.965858 0
M  V30 1382 C 129.732 0.704336 3.53145 0
M  V30 1383 C 129.585 2.19529 3.9259 0
M  V30 1384 C 130.904 0.1622 4.39801 0
M  V30 1385 H 128.023 0.169357 0.717278 0
M  V30 1386 H 130.665 1.07574 1.56614 0
M  V30 1387 H 128.815 0.181999 3.88073 0
M  V30 1388 H 130.487 2.78387 3.67829 0
M  V30 1389 H 128.73 2.67292 3.41668 0
M  V30 1390 H 129.401 2.31549 5.01088 0
M  V30 1391 H 131.877 0.608905 4.11621 0
M  V30 1392 H 130.753 0.361265 5.4771 0
M  V30 1393 H 131.014 -0.935158 4.32096 0
M  V30 1394 N 130.073 -1.45103 0.615059 0
M  V30 1395 C 131.301 -2.06553 0.11977 0
M  V30 1396 C 131.716 -1.45842 -1.19898 0
M  V30 1397 O 131.073 -0.575325 -1.73194 0
M  V30 1398 C 131.124 -3.61495 -0.018364 0
M  V30 1399 O 130.845 -4.19942 1.24822 0
M  V30 1400 C 132.346 -4.39947 -0.544237 0
M  V30 1401 H 129.566 -0.667096 0.0722739 0
M  V30 1402 H 132.11 -1.8623 0.84491 0
M  V30 1403 H 130.265 -3.81135 -0.693865 0
M  V30 1404 H 130.679 -5.13204 1.0827 0
M  V30 1405 H 132.153 -5.48838 -0.589953 0
M  V30 1406 H 132.63 -4.10255 -1.56805 0
M  V30 1407 H 133.236 -4.25188 0.0974703 0
M  V30 1408 N 131.551 -0.354651 -1.53558 0
M  V30 1409 C 132.514 0.484566 -2.24019 0
M  V30 1410 C 133.514 1.01861 -1.24422 0
M  V30 1411 O 134.704 0.906097 -1.4878 0
M  V30 1412 C 131.836 1.67615 -2.96847 0
M  V30 1413 H 133.029 -0.131843 -2.9961 0
M  V30 1414 H 130.582 -0.106165 -1.55939 0
M  V30 1415 H 131.317 2.33095 -2.25471 0
M  V30 1416 H 131.102 1.30029 -3.69912 0
M  V30 1417 H 132.592 2.27114 -3.50441 0
M  V30 1418 N 133.029 1.57378 -0.0835403 0
M  V30 1419 C 133.992 2.12252 0.864959 0
M  V30 1420 C 134.992 1.04916 1.21858 0
M  V30 1421 O 136.182 1.30853 1.14991 0
M  V30 1422 C 133.314 2.63358 2.16461 0
M  V30 1423 H 134.507 2.97371 0.388676 0
M  V30 1424 H 132.06 1.55423 0.165317 0
M  V30 1425 H 132.795 1.81727 2.686 0
M  V30 1426 H 132.58 3.41826 1.92087 0
M  V30 1427 H 134.07 3.05847 2.84337 0
M  V30 1428 N 134.507 -0.190092 1.56449 0
M  V30 1429 C 135.784 -0.935886 1.71757 0
M  V30 1430 C 136.164 -2.01173 0.639726 0
M  V30 1431 O 135.512 -2.25827 -0.348502 0
M  V30 1432 C 135.722 -1.51775 3.1427 0
M  V30 1433 C 137.07 -1.99794 3.74656 0
M  V30 1434 O 138.094 -1.61607 3.1743 0
M  V30 1435 O 136.953 -2.70079 4.751 0
M  V30 1436 H 134.047 -0.439229 0.700719 0
M  V30 1437 H 136.593 -0.179395 1.68749 0
M  V30 1438 H 135.365 -0.742505 3.84191 0
M  V30 1439 H 134.988 -2.33894 3.21527 0
M  V30 1440 N 135.985 -1.50799 -0.457987 0
M  V30 1441 C 137.213 -1.66218 -1.23203 0
M  V30 1442 C 137.628 -0.350894 -1.85511 0
M  V30 1443 O 136.985 0.668546 -1.69814 0
M  V30 1444 C 137.036 -2.76291 -2.33121 0
M  V30 1445 O 136.757 -4.02338 -1.73366 0
M  V30 1446 C 138.258 -3.028 -3.2377 0
M  V30 1447 H 135.478 -0.558361 -0.372121 0
M  V30 1448 H 138.022 -1.97099 -0.545179 0
M  V30 1449 H 136.177 -2.48068 -2.97558 0
M  V30 1450 H 136.591 -4.63312 -2.4585 0
M  V30 1451 H 138.065 -3.8345 -3.97077 0
M  V30 1452 H 138.542 -2.14385 -3.83322 0
M  V30 1453 H 139.148 -3.32604 -2.65056 0
M  V30 1454 N 137.463 0.71206 -1.40597 0
M  V30 1455 C 138.426 1.80785 -1.40888 0
M  V30 1456 C 139.426 1.57937 -0.302103 0
M  V30 1457 O 140.616 1.64913 -0.561182 0
M  V30 1458 C 137.748 3.18927 -1.20409 0
M  V30 1459 H 138.941 1.81924 -2.38419 0
M  V30 1460 H 136.494 0.91805 -1.26497 0
M  V30 1461 H 137.229 3.23436 -0.236522 0
M  V30 1462 H 137.014 3.36911 -2.00582 0
M  V30 1463 H 138.504 3.98949 -1.23408 0
M  V30 1464 N 138.941 1.26152 0.944643 0
M  V30 1465 C 140.187 1.11657 1.69294 0
M  V30 1466 C 140.52 -0.339926 1.91202 0
M  V30 1467 O 139.795 -1.24994 1.49019 0
M  V30 1468 C 140.078 1.88236 3.06984 0
M  V30 1469 C 139.931 3.41772 2.92424 0
M  V30 1470 C 141.25 1.67343 4.07043 0
M  V30 1471 H 138.369 0.407004 0.614424 0
M  V30 1472 H 141.011 1.55106 1.09737 0
M  V30 1473 H 139.161 1.51308 3.57824 0
M  V30 1474 H 140.833 3.88433 2.48832 0
M  V30 1475 H 139.076 3.68974 2.28124 0
M  V30 1476 H 139.747 3.90579 3.90067 0
M  V30 1477 H 142.223 1.99509 3.65151 0
M  V30 1478 H 141.099 2.23346 5.01406 0
M  V30 1479 H 141.36 0.617158 4.37771 0
M  V30 1480 N 140.419 -1.14872 1.07899 0
M  V30 1481 C 141.649 -1.89386 0.825631 0
M  V30 1482 C 142.057 -1.78565 -0.625406 0
M  V30 1483 O 141.4 -1.13918 -1.44113 0
M  V30 1484 C 141.462 -3.40206 1.16191 0
M  V30 1485 C 141.126 -3.74812 2.61467 0
M  V30 1486 C 142.123 -3.75367 3.59716 0
M  V30 1487 C 139.808 -4.0495 2.97189 0
M  V30 1488 C 141.802 -4.05574 4.9172 0
M  V30 1489 C 139.489 -4.34821 4.29388 0
M  V30 1490 C 140.487 -4.35116 5.26463 0
M  V30 1491 O 140.175 -4.64267 6.56286 0
M  V30 1492 H 139.907 -0.606894 0.297751 0
M  V30 1493 H 142.461 -1.46438 1.44031 0
M  V30 1494 H 140.691 -3.8358 0.490214 0
M  V30 1495 H 142.38 -3.96018 0.890193 0
M  V30 1496 H 143.146 -3.52176 3.33462 0
M  V30 1497 H 139.025 -4.03876 2.22273 0
M  V30 1498 H 142.569 -4.05719 5.67484 0
M  V30 1499 H 138.466 -4.5748 4.55392 0
M  V30 1500 H 139.234 -4.82007 6.61522 0
M  V30 1501 N 141.898 -0.863906 -1.31812 0
M  V30 1502 C 143.128 -0.485406 -2.00817 0
M  V30 1503 C 143.536 0.925007 -1.65046 0
M  V30 1504 O 142.879 1.61653 -0.872574 0
M  V30 1505 C 142.941 -0.555589 -3.55181 0
M  V30 1506 C 142.605 -1.92654 -4.14407 0
M  V30 1507 C 143.602 -2.89324 -4.31958 0
M  V30 1508 C 141.287 -2.2262 -4.50273 0
M  V30 1509 C 143.281 -4.14108 -4.84555 0
M  V30 1510 C 140.968 -3.47654 -5.02573 0
M  V30 1511 C 141.966 -4.43214 -5.19664 0
M  V30 1512 O 141.654 -5.66033 -5.70843 0
M  V30 1513 H 141.386 -0.188224 -0.649267 0
M  V30 1514 H 143.94 -1.16514 -1.69156 0
M  V30 1515 H 142.17 0.181037 -3.86276 0
M  V30 1516 H 143.859 -0.19138 -4.05449 0
M  V30 1517 H 144.625 -2.6748 -4.04573 0
M  V30 1518 H 140.504 -1.4902 -4.3625 0
M  V30 1519 H 144.048 -4.88703 -4.9781 0
M  V30 1520 H 139.945 -3.69345 -5.29391 0
M  V30 1521 H 140.713 -5.6812 -5.89222 0
M  V30 1522 N 143.376 1.44774 -0.622745 0
M  V30 1523 C 144.616 2.04004 -0.127102 0
M  V30 1524 C 144.98 1.47862 1.22478 0
M  V30 1525 O 146.181 1.98541 1.81204 0
M  V30 1526 C 144.452 3.57247 -0.104429 0
M  V30 1527 S 146.011 4.37574 0.327814 0
M  V30 1528 H 142.829 0.708713 -0.0569776 0
M  V30 1529 H 145.431 1.77275 -0.824253 0
M  V30 1530 H 144.135 3.95616 -1.09159 0
M  V30 1531 H 143.666 3.88575 0.614236 0
M  V30 1532 H 145.681 4.70575 1.57395 0
M  V30 1533 N 144.854 0.36279 1.53368 0
M  V30 1534 C 145.817 -0.472679 2.24273 0
M  V30 1535 C 146.817 -1.012 1.24961 0
M  V30 1536 O 148.007 -0.898194 1.49259 0
M  V30 1537 C 145.139 -1.66039 2.97731 0
M  V30 1538 H 146.332 0.14773 2.99536 0
M  V30 1539 H 143.885 0.114434 1.55881 0
M  V30 1540 H 144.62 -2.31896 2.26704 0
M  V30 1541 H 144.405 -1.28066 3.70596 0
M  V30 1542 H 145.895 -2.25252 3.51641 0
M  V30 1543 N 146.332 -1.57332 0.0918853 0
M  V30 1544 C 147.748 -1.57389 -0.264766 0
M  V30 1545 C 147.948 -1.10281 -1.68643 0
M  V30 1546 O 147.004 -0.777801 -2.40222 0
M  V30 1547 C 148.317 -3.00648 -0.0561195 0
M  V30 1548 C 149.865 -3.12754 -0.124116 0
M  V30 1549 C 150.34 -4.57965 0.0564972 0
M  V30 1550 N 151.831 -4.632 0.00155611 0
M  V30 1551 C 152.566 -5.73281 0.116598 0
M  V30 1552 N 152.062 -6.92208 0.286294 0
M  V30 1553 N 153.855 -5.6207 0.0580973 0
M  V30 1554 H 146.006 -1.86262 1.02079 0
M  V30 1555 H 148.269 -0.859579 0.399786 0
M  V30 1556 H 147.975 -3.393 0.925669 0
M  V30 1557 H 147.849 -3.68623 -0.799823 0
M  V30 1558 H 150.236 -2.73976 -1.09641 0
M  V30 1559 H 150.317 -2.47377 0.651024 0
M  V30 1560 H 149.961 -4.97436 1.02564 0
M  V30 1561 H 149.891 -5.21399 -0.738297 0
M  V30 1562 H 152.382 -3.77686 -0.127192 0
M  V30 1563 H 152.695 -7.71934 0.365676 0
M  V30 1564 H 151.04 -6.94254 0.32192 0
M  V30 1565 H 154.231 -4.68043 -0.0733204 0
M  V30 1566 H 154.404 -6.47824 0.151203 0
M  V30 1567 N 147.81 0.181792 -1.56548 0
M  V30 1568 C 148.72 1.24538 -1.98815 0
M  V30 1569 C 149.736 1.49045 -0.897861 0
M  V30 1570 O 150.912 1.61399 -1.20467 0
M  V30 1571 C 147.977 2.56683 -2.33055 0
M  V30 1572 C 147.038 2.40131 -3.55859 0
M  V30 1573 C 146.271 3.65975 -3.88456 0
M  V30 1574 O 146.494 4.70711 -3.22161 0
M  V30 1575 O 145.428 3.6071 -4.81842 0
M  V30 1576 H 149.254 0.916647 -2.89536 0
M  V30 1577 H 146.839 0.387842 -1.44278 0
M  V30 1578 H 148.721 3.34655 -2.56094 0
M  V30 1579 H 147.396 2.89157 -1.45498 0
M  V30 1580 H 146.303 1.60226 -3.38051 0
M  V30 1581 H 147.636 2.12585 -4.43924 0
M  V30 1582 N 149.288 1.51039 0.449983 0
M  V30 1583 C 150.536 1.62759 1.19808 0
M  V30 1584 C 150.857 0.339981 1.92013 0
M  V30 1585 O 150.127 -0.643606 1.85026 0
M  V30 1586 H 148.707 0.599811 0.445237 0
M  V30 1587 H 151.369 1.87914 0.517138 0
M  V30 1588 H 150.465 2.44911 1.93455 0
M  V30 1589 N 150.766 -0.704594 1.40972 0
M  V30 1590 C 151.716 -1.81051 1.38581 0
M  V30 1591 C 152.7 -1.58759 0.261585 0
M  V30 1592 O 153.892 -1.69745 0.501556 0
M  V30 1593 C 151.021 -3.19279 1.26157 0
M  V30 1594 C 150.107 -3.47296 2.43405 0
M  V30 1595 N 150.498 -3.46064 3.68881 0
M  V30 1596 C 148.796 -3.77804 2.37023 0
M  V30 1597 C 149.497 -3.72733 4.46592 0
M  V30 1598 N 148.473 -3.9203 3.76581 0
M  V30 1599 H 152.275 -1.78448 2.33525 0
M  V30 1600 H 149.789 -0.904198 1.349 0
M  V30 1601 H 151.786 -3.98488 1.22526 0
M  V30 1602 H 150.446 -3.231 0.321902 0
M  V30 1603 H 151.457 -3.26656 4.01891 0
M  V30 1604 H 148.134 -3.8905 1.51481 0
M  V30 1605 H 149.524 -3.77993 5.55492 0
M  V30 1606 N 152.244 -1.26651 -0.937939 0
M  V30 1607 C 153.472 -1.15173 -1.7188 0
M  V30 1608 C 153.887 0.292668 -1.86518 0
M  V30 1609 O 153.244 1.20014 -1.37488 0
M  V30 1610 C 153.295 -1.81925 -3.12387 0
M  V30 1611 O 153.016 -3.2072 -2.98446 0
M  V30 1612 C 154.517 -1.76442 -4.06673 0
M  V30 1613 H 151.737 -0.400911 -0.538063 0
M  V30 1614 H 154.281 -1.67332 -1.1756 0
M  V30 1615 H 152.436 -1.33696 -3.63599 0
M  V30 1616 H 152.85 -3.53802 -3.872 0
M  V30 1617 H 154.324 -2.27781 -5.02812 0
M  V30 1618 H 154.801 -0.731608 -4.33064 0
M  V30 1619 H 155.407 -2.24238 -3.61382 0
M  V30 1620 N 153.722 1.14298 -1.08507 0
M  V30 1621 C 154.685 2.17607 -0.719711 0
M  V30 1622 C 155.685 1.58907 0.245997 0
M  V30 1623 O 156.875 1.74181 0.0254081 0
M  V30 1624 C 154.007 3.40842 -0.0627695 0
M  V30 1625 H 155.2 2.51443 -1.63452 0
M  V30 1626 H 152.753 1.28963 -0.88307 0
M  V30 1627 H 153.488 3.12587 0.863716 0
M  V30 1628 H 153.273 3.84713 -0.757504 0
M  V30 1629 H 154.763 4.17221 0.177786 0
M  V30 1630 N 155.201 0.870884 1.31352 0
M  V30 1631 C 156.164 0.332243 2.26779 0
M  V30 1632 C 157.164 -0.517302 1.52252 0
M  V30 1633 O 158.354 -0.326477 1.71113 0
M  V30 1634 C 155.486 -0.528066 3.36785 0
M  V30 1635 H 156.679 1.17469 2.75937 0
M  V30 1636 H 154.232 0.64655 1.423 0
M  V30 1637 H 154.967 -1.39167 2.92922 0
M  V30 1638 H 154.752 0.0802582 3.92018 0
M  V30 1639 H 156.242 -0.897179 4.07849 0
M  V30 1640 N 156.679 -1.44442 0.630414 0
M  V30 1641 C 158.09 -1.85434 0.217063 0
M  V30 1642 C 158.441 -1.52748 -1.23136 0
M  V30 1643 O 157.566 -0.965205 -1.93682 0
M  V30 1644 C 158.161 -3.36581 0.387168 0
M  V30 1645 C 156.72 -3.76389 0.0283297 0
M  V30 1646 C 155.867 -2.68296 0.700889 0
M  V30 1647 H 158.818 -1.34919 0.83562 0
M  V30 1648 H 158.839 -3.78657 -0.374086 0
M  V30 1649 H 158.351 -3.60339 1.44144 0
M  V30 1650 H 156.452 -3.58246 -1.02423 0
M  V30 1651 H 156.565 -4.77095 0.437892 0
M  V30 1652 H 154.929 -2.54335 0.136267 0
M  V30 1653 H 155.712 -2.94887 1.75774 0
M  V30 1654 N 158.157 -0.370918 -1.53173 0
M  V30 1655 C 159.404 0.217102 -2.01333 0
M  V30 1656 C 159.732 1.48338 -1.25802 0
M  V30 1657 O 158.987 1.92698 -0.34146 0
M  V30 1658 C 159.286 0.549696 -3.53147 0
M  V30 1659 C 158.952 -0.622872 -4.46577 0
M  V30 1660 C 157.614 -0.944595 -4.71838 0
M  V30 1661 C 159.966 -1.40819 -5.01816 0
M  V30 1662 C 157.294 -2.05351 -5.49589 0
M  V30 1663 C 159.646 -2.50757 -5.80778 0
M  V30 1664 C 158.31 -2.83458 -6.04324 0
M  V30 1665 H 157.58 0.0794431 -0.736729 0
M  V30 1666 H 160.227 -0.504481 -1.84736 0
M  V30 1667 H 158.532 1.35237 -3.6772 0
M  V30 1668 H 160.229 1.017 -3.87889 0
M  V30 1669 H 156.819 -0.36209 -4.27068 0
M  V30 1670 H 161.003 -1.17289 -4.82242 0
M  V30 1671 H 156.259 -2.3108 -5.6605 0
M  V30 1672 H 160.433 -3.12022 -6.22588 0
M  V30 1673 H 158.06 -3.69508 -6.64355 0
M  V30 1674 N 159.635 1.57281 -0.100228 0
M  V30 1675 C 160.912 1.86014 0.604812 0
M  V30 1676 C 161.292 0.998025 1.86018 0
M  V30 1677 O 160.64 0.0718184 2.28387 0
M  V30 1678 C 160.85 3.36784 0.915278 0
M  V30 1679 C 162.198 4.04957 1.27651 0
M  V30 1680 O 163.222 3.41695 1.00613 0
M  V30 1681 O 162.081 5.16593 1.7831 0
M  V30 1682 H 159.175 0.76942 0.303185 0
M  V30 1683 H 161.721 1.69176 -0.133313 0
M  V30 1684 H 160.493 3.91292 0.0248896 0
M  V30 1685 H 160.116 3.58987 1.70921 0
M  V30 1686 N 161.113 -0.173488 1.56642 0
M  V30 1687 C 162.343 -0.904781 1.85734 0
M  V30 1688 C 162.751 -1.76431 0.68328 0
M  V30 1689 O 162.094 -1.802 -0.356865 0
M  V30 1690 C 162.156 -1.83382 3.09211 0
M  V30 1691 C 161.82 -1.15411 4.42187 0
M  V30 1692 C 162.817 -0.520609 5.17287 0
M  V30 1693 C 160.502 -1.15151 4.88923 0
M  V30 1694 C 162.496 0.106412 6.37311 0
M  V30 1695 C 160.183 -0.520664 6.08878 0
M  V30 1696 C 161.181 0.107196 6.82916 0
M  V30 1697 O 160.869 0.728102 8.00596 0
M  V30 1698 H 160.601 -0.268408 0.62043 0
M  V30 1699 H 163.155 -0.179096 2.04618 0
M  V30 1700 H 161.385 -2.59976 2.86268 0
M  V30 1701 H 163.074 -2.43476 3.24768 0
M  V30 1702 H 163.84 -0.514606 4.82262 0
M  V30 1703 H 159.719 -1.62961 4.31236 0
M  V30 1704 H 163.263 0.597081 6.9504 0
M  V30 1705 H 159.16 -0.524242 6.43368 0
M  V30 1706 H 159.928 0.627138 8.16094 0
M  V30 1707 N 162.591 -1.51276 -0.441967 0
M  V30 1708 C 163.837 -1.6492 -1.1905 0
M  V30 1709 C 164.192 -0.358731 -1.89026 0
M  V30 1710 O 163.485 0.645193 -1.8041 0
M  V30 1711 C 163.679 -2.78746 -2.23686 0
M  V30 1712 C 163.508 -4.18737 -1.63979 0
M  V30 1713 C 162.278 -4.84739 -1.42674 0
M  V30 1714 C 164.476 -5.01988 -1.11858 0
M  V30 1715 N 162.458 -6.08858 -0.785159 0
M  V30 1716 C 163.829 -6.17071 -0.601989 0
M  V30 1717 C 165.884 -4.87551 -1.0099 0
M  V30 1718 C 164.587 -7.19299 0.0126012 0
M  V30 1719 C 166.613 -5.89983 -0.409206 0
M  V30 1720 C 165.975 -7.04333 0.0968651 0
M  V30 1721 H 162.074 -0.657416 -0.423471 0
M  V30 1722 H 164.658 -1.8849 -0.48782 0
M  V30 1723 H 162.829 -2.56848 -2.91348 0
M  V30 1724 H 164.561 -2.81595 -2.90666 0
M  V30 1725 H 161.316 -4.42528 -1.68719 0
M  V30 1726 H 161.74 -6.75282 -0.481942 0
M  V30 1727 H 166.382 -3.99401 -1.38703 0
M  V30 1728 H 164.1 -8.071 0.401879 0
M  V30 1729 H 167.686 -5.8088 -0.327079 0
M  V30 1730 H 166.566 -7.82238 0.554373 0
M  V30 1731 N 164.069 0.697108 -1.41344 0
M  V30 1732 C 165.317 1.45426 -1.40341 0
M  V30 1733 C 165.638 1.94996 -0.0128787 0
M  V30 1734 O 164.908 1.71599 0.945027 0
M  V30 1735 H 163.488 0.539594 -0.516573 0
M  V30 1736 H 166.15 0.825201 -1.76569 0
M  V30 1737 H 165.246 2.31817 -2.08967 0
M  V30 1738 N 165.547 1.27147 0.931209 0
M  V30 1739 C 166.479 1.05364 2.03546 0
M  V30 1740 C 167.492 0.0108438 1.62796 0
M  V30 1741 O 168.681 0.25202 1.76712 0
M  V30 1742 C 165.781 0.575566 3.33977 0
M  V30 1743 C 164.954 1.68985 4.03439 0
M  V30 1744 C 164.013 1.20813 5.12143 0
M  V30 1745 O 163.039 1.90712 5.363 0
M  V30 1746 N 164.241 0.0618851 5.80467 0
M  V30 1747 H 167.006 2.00454 2.22796 0
M  V30 1748 H 164.567 1.18666 1.10136 0
M  V30 1749 H 166.559 0.237264 4.04004 0
M  V30 1750 H 165.129 -0.282016 3.11325 0
M  V30 1751 H 164.349 2.19861 3.27192 0
M  V30 1752 H 165.637 2.4378 4.46597 0
M  V30 1753 H 165.035 -0.521621 5.6329 0
M  V30 1754 H 163.592 -0.217264 6.51438 0
M  V30 1755 N 167.025 -1.13721 1.09112 0
M  V30 1756 C 168.273 -1.84559 0.823562 0
M  V30 1757 C 168.594 -1.83754 -0.652658 0
M  V30 1758 O 167.864 -1.29102 -1.47342 0
M  V30 1759 H 166.444 -0.683376 0.301673 0
M  V30 1760 H 169.106 -1.37771 1.37859 0
M  V30 1761 H 168.202 -2.8917 1.17419 0
M  V30 1762 N 168.503 -0.877838 -1.30888 0
M  V30 1763 C 169.728 -0.506629 -2.01117 0
M  V30 1764 C 170.153 0.895564 -1.65412 0
M  V30 1765 O 169.511 1.5923 -0.866922 0
M  V30 1766 C 169.559 -0.680223 -3.54126 0
M  V30 1767 O 168.663 0.277033 -4.11468 0
M  V30 1768 H 168.004 -0.200518 -0.633 0
M  V30 1769 H 170.534 -1.18342 -1.66902 0
M  V30 1770 H 170.544 -0.5765 -4.03907 0
M  V30 1771 H 169.219 -1.70261 -3.79452 0
M  V30 1772 H 167.796 0.127606 -3.72682 0
M  V30 1773 N 169.982 1.44106 -0.638065 0
M  V30 1774 C 170.912 2.33448 0.0494287 0
M  V30 1775 C 171.893 1.48606 0.827672 0
M  V30 1776 O 173.078 1.77308 0.792173 0
M  V30 1777 C 170.208 3.31771 1.02691 0
M  V30 1778 C 169.162 4.26485 0.359823 0
M  V30 1779 C 168.488 5.14729 1.44769 0
M  V30 1780 C 169.788 5.17056 -0.738296 0
M  V30 1781 H 171.482 2.91183 -0.696636 0
M  V30 1782 H 169.028 1.40014 -0.336456 0
M  V30 1783 H 170.981 3.93161 1.51666 0
M  V30 1784 H 169.705 2.7226 1.80395 0
M  V30 1785 H 168.364 3.66437 -0.10934 0
M  V30 1786 H 168.012 4.51566 2.21578 0
M  V30 1787 H 167.712 5.78913 1.00668 0
M  V30 1788 H 169.236 5.78991 1.93911 0
M  V30 1789 H 170.65 5.72342 -0.331354 0
M  V30 1790 H 169.047 5.89879 -1.10286 0
M  V30 1791 H 170.117 4.57652 -1.60258 0
M  V30 1792 N 171.46 0.379036 1.52974 0
M  V30 1793 C 172.706 -0.206727 2.01744 0
M  V30 1794 C 173.039 -1.47314 1.26539 0
M  V30 1795 O 172.314 -1.91084 0.362903 0
M  V30 1796 C 172.597 -0.485066 3.56818 0
M  V30 1797 C 172.45 0.795919 4.42702 0
M  V30 1798 C 173.769 -1.28003 4.21074 0
M  V30 1799 H 170.888 -0.0736607 0.73331 0
M  V30 1800 H 173.53 0.506581 1.83122 0
M  V30 1801 H 171.68 -1.09272 3.72816 0
M  V30 1802 H 173.352 1.43307 4.38476 0
M  V30 1803 H 171.595 1.41344 4.10127 0
M  V30 1804 H 172.266 0.555947 5.49193 0
M  V30 1805 H 174.742 -0.765867 4.08991 0
M  V30 1806 H 173.618 -1.44352 5.29579 0
M  V30 1807 H 173.879 -2.29236 3.78026 0
M  V30 1808 N 172.938 -1.57226 0.108567 0
M  V30 1809 C 174.166 -1.99179 -0.559954 0
M  V30 1810 C 174.581 -0.988022 -1.60884 0
M  V30 1811 O 173.938 0.0205512 -1.82488 0
M  V30 1812 C 173.989 -3.41159 -1.19552 0
M  V30 1813 O 173.71 -4.37694 -0.188577 0
M  V30 1814 C 175.211 -3.98188 -1.94837 0
M  V30 1815 H 172.431 -0.654228 -0.149088 0
M  V30 1816 H 174.975 -2.03598 0.19183 0
M  V30 1817 H 173.13 -3.37711 -1.89815 0
M  V30 1818 H 173.544 -5.20469 -0.649014 0
M  V30 1819 H 175.018 -4.99644 -2.34648 0
M  V30 1820 H 175.495 -3.3675 -2.81951 0
M  V30 1821 H 176.101 -4.0515 -1.2936 0
M  V30 1822 N 174.416 0.165178 -1.56732 0
M  V30 1823 C 175.662 0.882112 -1.82611 0
M  V30 1824 C 175.995 1.81628 -0.687378 0
M  V30 1825 O 175.27 1.92009 0.310267 0
M  V30 1826 C 175.553 1.67245 -3.18906 0
M  V30 1827 C 175.406 0.760987 -4.43316 0
M  V30 1828 C 176.725 2.63884 -3.52212 0
M  V30 1829 H 173.844 0.319242 -0.664269 0
M  V30 1830 H 176.486 0.148052 -1.89422 0
M  V30 1831 H 174.636 2.29824 -3.1323 0
M  V30 1832 H 176.308 0.147596 -4.61064 0
M  V30 1833 H 174.551 0.0694102 -4.33744 0
M  V30 1834 H 175.222 1.34962 -5.35247 0
M  V30 1835 H 177.698 2.11429 -3.58381 0
M  V30 1836 H 176.574 3.16245 -4.48643 0
M  V30 1837 H 176.835 3.44377 -2.77231 0
M  V30 1838 N 175.894 1.51508 0.433938 0
M  V30 1839 C 177.119 1.68443 1.21003 0
M  V30 1840 C 177.544 0.382636 1.84167 0
M  V30 1841 O 176.902 -0.65755 1.68956 0
M  V30 1842 C 176.95 2.80405 2.26727 0
M  V30 1843 O 176.054 2.44245 3.32292 0
M  V30 1844 H 175.395 0.561536 0.354363 0
M  V30 1845 H 177.925 1.9809 0.512024 0
M  V30 1846 H 177.935 3.0459 2.71457 0
M  V30 1847 H 176.61 3.74867 1.80132 0
M  V30 1848 H 175.187 2.30644 2.93015 0
M  V30 1849 N 177.372 -0.689602 1.41712 0
M  V30 1850 C 178.597 -1.48329 1.44959 0
M  V30 1851 C 179.022 -1.8801 0.0581283 0
M  V30 1852 O 178.38 -1.55026 -0.940035 0
M  V30 1853 C 178.428 -2.71835 2.36935 0
M  V30 1854 O 177.532 -3.69549 1.8305 0
M  V30 1855 H 176.873 -0.446199 0.491734 0
M  V30 1856 H 179.403 -0.847127 1.86239 0
M  V30 1857 H 179.413 -3.20076 2.53013 0
M  V30 1858 H 178.088 -2.42291 3.38035 0
M  V30 1859 H 176.665 -3.2851 1.76452 0
M  V30 1860 N 178.85 -1.27639 -0.924453 0
M  V30 1861 C 179.813 -1.10681 -2.00705 0
M  V30 1862 C 180.813 -0.0497823 -1.60723 0
M  V30 1863 O 182.003 -0.294654 -1.7169 0
M  V30 1864 C 179.135 -0.687164 -3.33902 0
M  V30 1865 H 180.328 -2.06817 -2.17179 0
M  V30 1866 H 177.881 -1.10473 -1.10569 0
M  V30 1867 H 178.616 0.275439 -3.23128 0
M  V30 1868 H 178.401 -1.45061 -3.6428 0
M  V30 1869 H 179.891 -0.590853 -4.13399 0
M  V30 1870 N 180.328 1.1314 -1.09713 0
M  V30 1871 C 181.553 1.88862 -0.857081 0
M  V30 1872 C 181.978 1.78729 0.586304 0
M  V30 1873 O 181.336 1.13692 1.41222 0
M  V30 1874 C 181.384 3.36325 -1.30069 0
M  V30 1875 O 180.488 4.09815 -0.461007 0
M  V30 1876 H 179.829 0.587108 -0.310162 0
M  V30 1877 H 182.359 1.43129 -1.46203 0
M  V30 1878 H 182.369 3.87157 -1.28738 0
M  V30 1879 H 181.044 3.43017 -2.35185 0
M  V30 1880 H 179.621 3.68986 -0.538888 0
M  V30 1881 N 181.806 0.884767 1.30421 0
M  V30 1882 C 183.034 0.518044 2.0031 0
M  V30 1883 C 183.449 -0.893408 1.66324 0
M  V30 1884 O 182.806 -1.5875 0.900262 0
M  V30 1885 C 182.857 0.682997 3.54989 0
M  V30 1886 O 182.578 2.03888 3.87764 0
M  V30 1887 C 184.079 0.31924 4.42149 0
M  V30 1888 H 181.299 0.200265 0.640418 0
M  V30 1889 H 183.843 1.19001 1.6631 0
M  V30 1890 H 181.998 0.0584052 3.87356 0
M  V30 1891 H 182.412 2.05735 4.82466 0
M  V30 1892 H 183.886 0.485555 5.4986 0
M  V30 1893 H 184.363 -0.742717 4.32875 0
M  V30 1894 H 184.969 0.920147 4.15227 0
M  V30 1895 N 183.284 -1.43765 0.645699 0
M  V30 1896 C 184.231 -2.30745 -0.0504648 0
M  V30 1897 C 185.201 -1.4432 -0.822241 0
M  V30 1898 O 186.386 -1.73202 -0.800358 0
M  V30 1899 C 183.526 -3.29802 -1.0161 0
M  V30 1900 C 182.639 -4.31326 -0.241219 0
M  V30 1901 C 181.774 -5.17469 -1.19998 0
M  V30 1902 C 180.813 -6.10691 -0.415094 0
M  V30 1903 N 179.95 -6.89483 -1.32506 0
M  V30 1904 H 184.79 -2.8973 0.697155 0
M  V30 1905 H 182.327 -1.42738 0.355563 0
M  V30 1906 H 184.285 -3.85734 -1.58949 0
M  V30 1907 H 182.915 -2.72483 -1.73069 0
M  V30 1908 H 181.967 -3.77749 0.448334 0
M  V30 1909 H 183.279 -4.9743 0.369437 0
M  V30 1910 H 182.433 -5.7799 -1.84424 0
M  V30 1911 H 181.172 -4.51473 -1.84455 0
M  V30 1912 H 180.177 -5.49265 0.242565 0
M  V30 1913 H 181.402 -6.78727 0.224966 0
M  V30 1914 H 179.348 -6.26142 -1.95657 0
M  V30 1915 H 179.265 -7.52081 -0.768783 0
M  V30 1916 H 180.533 -7.54516 -1.9577 0
M  V30 1917 N 184.763 -0.387143 -1.52771 0
M  V30 1918 C 186.011 0.195349 -2.01154 0
M  V30 1919 C 186.332 1.475 -1.27549 0
M  V30 1920 O 185.602 1.91878 -0.394924 0
M  V30 1921 H 184.182 0.075178 -0.743207 0
M  V30 1922 H 186.844 -0.518337 -1.87881 0
M  V30 1923 H 185.94 0.407096 -3.09434 0
M  V30 1924 N 186.241 1.57166 -0.116904 0
M  V30 1925 C 187.652 1.82169 0.408809 0
M  V30 1926 C 188.003 1.03393 1.66746 0
M  V30 1927 O 187.128 0.269886 2.1471 0
M  V30 1928 C 187.723 3.30429 0.748466 0
M  V30 1929 C 186.282 3.5612 1.21882 0
M  V30 1930 C 185.429 2.76374 0.226452 0
M  V30 1931 H 188.38 1.5497 -0.342063 0
M  V30 1932 H 188.401 3.44943 1.60607 0
M  V30 1933 H 187.913 3.87737 -0.167784 0
M  V30 1934 H 186.014 3.04168 2.15204 0
M  V30 1935 H 186.127 4.64705 1.16559 0
M  V30 1936 H 184.491 2.44515 0.713063 0
M  V30 1937 H 185.274 3.3644 -0.682859 0
M  V30 1938 N 187.719 -0.156864 1.56817 0
M  V30 1939 C 188.944 -0.890331 1.87318 0
M  V30 1940 C 189.369 -1.74394 0.704855 0
M  V30 1941 O 188.727 -1.77972 -0.345786 0
M  V30 1942 C 188.775 -1.73102 3.16336 0
M  V30 1943 O 187.879 -2.83422 2.99576 0
M  V30 1944 H 187.22 -0.24857 0.615718 0
M  V30 1945 H 189.75 -0.150649 2.04045 0
M  V30 1946 H 189.76 -2.12803 3.48107 0
M  V30 1947 H 188.435 -1.10412 4.00976 0
M  V30 1948 H 187.012 -2.47199 2.7919 0
M  V30 1949 N 189.197 -1.51736 -0.425897 0
M  V30 1950 C 190.443 -1.65214 -1.1761 0
M  V30 1951 C 190.776 -0.372778 -1.90589 0
M  V30 1952 O 190.051 0.628139 -1.84078 0
M  V30 1953 C 190.334 -2.86312 -2.18398 0
M  V30 1954 C 190.187 -4.24254 -1.49426 0
M  V30 1955 C 191.506 -3.02925 -3.19256 0
M  V30 1956 H 188.625 -0.601263 -0.426206 0
M  V30 1957 H 191.267 -1.8425 -0.463882 0
M  V30 1958 H 189.417 -2.70213 -2.79137 0
M  V30 1959 H 191.089 -4.52046 -0.919362 0
M  V30 1960 H 189.332 -4.26426 -0.796432 0
M  V30 1961 H 190.003 -5.05001 -2.22885 0
M  V30 1962 H 192.479 -3.1781 -2.68581 0
M  V30 1963 H 191.355 -3.89199 -3.8706 0
M  V30 1964 H 191.616 -2.15497 -3.86023 0
M  V30 1965 N 190.675 0.682077 -1.42076 0
M  V30 1966 C 191.922 1.44215 -1.42156 0
M  V30 1967 C 192.25 1.94468 -0.0354186 0
M  V30 1968 O 191.505 1.70816 0.955002 0
M  V30 1969 C 191.804 2.66036 -2.38662 0
M  V30 1970 C 191.47 2.34366 -3.85206 0
M  V30 1971 C 190.132 2.25439 -4.25124 0
M  V30 1972 C 192.484 2.08513 -4.77673 0
M  V30 1973 C 189.812 1.88775 -5.55501 0
M  V30 1974 C 192.164 1.73354 -6.08384 0
M  V30 1975 C 190.828 1.62933 -6.47309 0
M  V30 1976 H 190.098 0.527718 -0.520187 0
M  V30 1977 H 192.745 0.778387 -1.74967 0
M  V30 1978 H 191.05 3.3741 -1.99152 0
M  V30 1979 H 192.747 3.24205 -2.35991 0
M  V30 1980 H 189.337 2.42213 -3.53597 0
M  V30 1981 H 193.521 2.14346 -4.47626 0
M  V30 1982 H 188.777 1.7927 -5.84527 0
M  V30 1983 H 192.951 1.52373 -6.79526 0
M  V30 1984 H 190.578 1.34292 -7.48244 0
M  V30 1985 N 192.153 1.28127 0.917671 0
M  V30 1986 C 193.564 1.13622 1.48145 0
M  V30 1987 C 193.915 -0.275207 1.9426 0
M  V30 1988 O 193.04 -1.1691 1.82102 0
M  V30 1989 C 193.635 2.05648 2.69248 0
M  V30 1990 C 192.194 1.95219 3.21818 0
M  V30 1991 C 191.341 1.97618 1.94532 0
M  V30 1992 H 194.292 1.40874 0.730772 0
M  V30 1993 H 194.313 1.61818 3.44377 0
M  V30 1994 H 193.825 3.08365 2.35653 0
M  V30 1995 H 191.926 0.955244 3.60147 0
M  V30 1996 H 192.039 2.81976 3.87333 0
M  V30 1997 H 190.403 1.41973 2.11461 0
M  V30 1998 H 191.186 3.02007 1.63238 0
M  V30 1999 N 193.631 -1.12557 1.10312 0
M  V30 2000 C 194.561 -2.20341 0.772798 0
M  V30 2001 C 195.542 -1.68198 -0.25365 0
M  V30 2002 O 196.727 -1.93831 -0.119699 0
M  V30 2003 C 193.857 -3.46709 0.202443 0
M  V30 2004 C 192.811 -4.11996 1.15943 0
M  V30 2005 C 192.137 -5.328 0.450345 0
M  V30 2006 C 193.437 -4.5828 2.50552 0
M  V30 2007 H 195.131 -2.48229 1.674 0
M  V30 2008 H 192.677 -1.19308 0.806326 0
M  V30 2009 H 194.63 -4.2138 -0.0407752 0
M  V30 2010 H 193.354 -3.18245 -0.734001 0
M  V30 2011 H 192.013 -3.39305 1.38808 0
M  V30 2012 H 191.661 -5.00602 -0.490531 0
M  V30 2013 H 191.361 -5.7743 1.08851 0
M  V30 2014 H 192.885 -6.10219 0.215642 0
M  V30 2015 H 194.299 -5.2433 2.31843 0
M  V30 2016 H 192.696 -5.13683 3.10242 0
M  V30 2017 H 193.766 -3.72329 3.10643 0
M  V30 2018 N 195.109 -0.891671 -1.2995 0
M  V30 2019 C 196.072 -0.36828 -2.26222 0
M  V30 2020 C 197.072 0.493014 -1.53056 0
M  V30 2021 O 198.262 0.299213 -1.71611 0
M  V30 2022 C 195.394 0.47442 -3.37583 0
M  V30 2023 H 196.587 -1.21844 -2.74033 0
M  V30 2024 H 194.14 -0.669107 -1.41254 0
M  V30 2025 H 194.875 1.34489 -2.95099 0
M  V30 2026 H 194.66 -0.142615 -3.91841 0
M  V30 2027 H 196.15 0.83218 -4.09224 0
M  V30 2028 N 196.587 1.43421 -0.653314 0
M  V30 2029 C 197.998 1.85065 -0.246537 0
M  V30 2030 C 198.349 1.54688 1.2069 0
M  V30 2031 O 197.474 0.995896 1.92122 0
M  V30 2032 C 198.069 3.35922 -0.440666 0
M  V30 2033 C 196.628 3.76297 -0.0882064 0
M  V30 2034 C 195.775 2.67147 -0.743484 0
M  V30 2035 H 198.726 1.33572 -0.856979 0
M  V30 2036 H 198.747 3.79204 0.313798 0
M  V30 2037 H 198.259 3.58 -1.49858 0
M  V30 2038 H 196.36 3.5983 0.96711 0
M  V30 2039 H 196.473 4.76338 -0.513738 0
M  V30 2040 H 194.837 2.54086 -0.176712 0
M  V30 2041 H 195.62 2.92053 -1.80443 0
M  V30 2042 N 198.065 0.39524 1.52563 0
M  V30 2043 C 199.29 -0.187456 2.06551 0
M  V30 2044 C 199.715 -1.39249 1.26457 0
M  V30 2045 O 199.073 -1.78947 0.291151 0
M  V30 2046 C 199.121 -0.529985 3.56684 0
M  V30 2047 O 198.225 -1.62307 3.79118 0
M  V30 2048 H 197.566 -0.0202537 0.663691 0
M  V30 2049 H 200.096 0.564426 1.96661 0
M  V30 2050 H 200.106 -0.792598 4.00227 0
M  V30 2051 H 198.781 0.350987 4.14416 0
M  V30 2052 H 197.358 -1.3537 3.47461 0
M  V30 2053 N 199.544 -1.57102 0.125237 0
M  V30 2054 C 200.769 -2.0019 -0.542101 0
M  V30 2055 C 201.194 -1.00449 -1.59034 0
M  V30 2056 O 200.552 0.0229423 -1.81285 0
M  V30 2057 C 200.6 -3.42129 -1.13929 0
M  V30 2058 O 199.704 -3.45307 -2.2547 0
M  V30 2059 H 199.045 -0.650171 -0.134812 0
M  V30 2060 H 201.575 -2.03461 0.215553 0
M  V30 2061 H 201.585 -3.80471 -1.4733 0
M  V30 2062 H 200.26 -4.14237 -0.371531 0
M  V30 2063 H 198.837 -3.1879 -1.93462 0
M  V30 2064 N 201.022 0.148545 -1.56898 0
M  V30 2065 C 201.969 1.18345 -1.98149 0
M  V30 2066 C 202.939 1.42772 -0.848848 0
M  V30 2067 O 204.124 1.55132 -1.11079 0
M  V30 2068 C 201.264 2.51231 -2.36594 0
M  V30 2069 C 200.377 2.33991 -3.63142 0
M  V30 2070 C 199.512 3.59902 -3.90697 0
M  V30 2071 C 198.551 3.37692 -5.1052 0
M  V30 2072 N 197.688 4.5573 -5.34092 0
M  V30 2073 H 202.528 0.82467 -2.86362 0
M  V30 2074 H 200.065 0.395756 -1.41676 0
M  V30 2075 H 202.023 3.28713 -2.56912 0
M  V30 2076 H 200.653 2.85059 -1.51463 0
M  V30 2077 H 199.705 1.47572 -3.50609 0
M  V30 2078 H 201.017 2.13539 -4.5078 0
M  V30 2079 H 200.171 4.45813 -4.11505 0
M  V30 2080 H 198.91 3.83357 -3.01477 0
M  V30 2081 H 197.915 2.5017 -4.89587 0
M  V30 2082 H 199.14 3.15637 -6.0129 0
M  V30 2083 H 197.086 4.79361 -4.47827 0
M  V30 2084 H 197.003 4.38274 -6.15996 0
M  V30 2085 H 198.271 5.42858 -5.59397 0
M  V30 2086 N 202.5 1.5196 0.417844 0
M  V30 2087 C 203.725 1.69717 1.1921 0
M  V30 2088 C 204.15 0.402148 1.83751 0
M  V30 2089 O 203.508 -0.639593 1.69643 0
M  V30 2090 C 203.556 2.82794 2.2374 0
M  V30 2091 O 202.66 2.47756 3.29683 0
M  V30 2092 H 202.001 0.565263 0.348387 0
M  V30 2093 H 204.531 1.98621 0.490985 0
M  V30 2094 H 204.541 3.07452 2.68212 0
M  V30 2095 H 203.216 3.76756 1.76146 0
M  V30 2096 H 201.793 2.33739 2.90552 0
M  V30 2097 N 203.978 -0.674533 1.42435 0
M  V30 2098 C 205.206 -1.46283 1.46317 0
M  V30 2099 C 205.621 -1.88653 0.0745836 0
M  V30 2100 O 204.978 -1.58151 -0.91074 0
M  V30 2101 C 205.029 -2.71178 2.3905 0
M  V30 2102 O 204.75 -2.30586 3.72507 0
M  V30 2103 C 206.251 -3.64738 2.51955 0
M  V30 2104 H 203.471 -0.450104 0.497642 0
M  V30 2105 H 206.015 -0.828792 1.86953 0
M  V30 2106 H 204.17 -3.3077 2.01667 0
M  V30 2107 H 204.584 -3.11241 4.22172 0
M  V30 2108 H 206.058 -4.49096 3.20962 0
M  V30 2109 H 206.535 -4.10656 1.55752 0
M  V30 2110 H 207.141 -3.11038 2.90061 0
M  V30 2111 N 205.456 -1.28612 -0.910864 0
M  V30 2112 C 206.681 -1.1891 -1.69927 0
M  V30 2113 C 207.106 0.248372 -1.86453 0
M  V30 2114 O 206.464 1.17961 -1.37676 0
M  V30 2115 C 206.512 -1.89578 -3.06745 0
M  V30 2116 O 205.616 -1.20521 -3.94396 0
M  V30 2117 H 204.957 -0.412632 -0.520222 0
M  V30 2118 H 207.487 -1.69985 -1.1387 0
M  V30 2119 H 207.497 -1.97597 -3.56958 0
M  V30 2120 H 206.172 -2.94136 -2.94035 0
M  V30 2121 H 204.749 -1.20684 -3.52831 0
M  V30 2122 N 206.934 1.1197 -1.10907 0
M  V30 2123 C 208.182 1.83225 -0.852819 0
M  V30 2124 C 208.503 1.84769 0.623341 0
M  V30 2125 O 207.773 1.3143 1.45269 0
M  V30 2126 H 206.353 0.67849 -0.312507 0
M  V30 2127 H 209.015 1.3556 -1.40033 0
M  V30 2128 H 208.111 2.87265 -1.22005 0
M  V30 2129 N 208.412 0.89855 1.29475 0
M  V30 2130 C 209.66 0.522847 1.9522 0
M  V30 2131 C 209.981 -0.93371 1.71192 0
M  V30 2132 O 209.251 -1.65823 1.04305 0
M  V30 2133 H 207.831 0.190366 0.722336 0
M  V30 2134 H 210.493 1.14459 1.5775 0
M  V30 2135 H 209.589 0.704476 3.04045 0
M  V30 2136 N 209.89 -1.43072 0.660911 0
M  V30 2137 C 211.118 -2.06067 0.185422 0
M  V30 2138 C 211.533 -1.49582 -1.15198 0
M  V30 2139 O 210.89 -0.630134 -1.71276 0
M  V30 2140 C 210.941 -3.61371 0.0966523 0
M  V30 2141 O 210.662 -4.15758 1.38119 0
M  V30 2142 C 212.163 -4.41455 -0.403996 0
M  V30 2143 H 209.383 -0.664459 0.0934604 0
M  V30 2144 H 211.927 -1.83447 0.90373 0
M  V30 2145 H 210.082 -3.8315 -0.572259 0
M  V30 2146 H 210.496 -5.09499 1.24542 0
M  V30 2147 H 211.97 -5.50437 -0.415045 0
M  V30 2148 H 212.447 -4.15036 -1.43674 0
M  V30 2149 H 213.053 -4.24663 0.232691 0
M  V30 2150 N 211.368 -0.403325 -1.52352 0
M  V30 2151 C 212.331 0.413051 -2.25447 0
M  V30 2152 C 213.331 0.978513 -1.276 0
M  V30 2153 O 214.521 0.858305 -1.51587 0
M  V30 2154 C 211.653 1.58087 -3.02029 0
M  V30 2155 H 212.846 -0.227094 -2.99039 0
M  V30 2156 H 210.399 -0.155722 -1.55522 0
M  V30 2157 H 211.134 2.25804 -2.32772 0
M  V30 2158 H 210.919 1.18195 -3.73861 0
M  V30 2159 H 212.409 2.1585 -3.57489 0
M  V30 2160 N 212.846 1.57033 -0.133567 0
M  V30 2161 C 213.809 2.14897 0.796995 0
M  V30 2162 C 214.809 1.0874 1.18458 0
M  V30 2163 O 215.999 1.34446 1.1077 0
M  V30 2164 C 213.131 2.70112 2.07973 0
M  V30 2165 H 214.324 2.98457 0.293873 0
M  V30 2166 H 211.877 1.55871 0.115787 0
M  V30 2167 H 212.612 1.9018 2.62682 0
M  V30 2168 H 212.397 3.47764 1.81115 0
M  V30 2169 H 213.887 3.14738 2.74462 0
M  V30 2170 N 214.325 -0.140222 1.56975 0
M  V30 2171 C 215.255 -1.17456 2.01808 0
M  V30 2172 C 216.236 -1.44415 0.898794 0
M  V30 2173 O 217.421 -1.5522 1.16707 0
M  V30 2174 C 214.551 -2.50607 2.40444 0
M  V30 2175 C 213.505 -2.38155 3.55621 0
M  V30 2176 C 212.831 -3.76078 3.80091 0
M  V30 2177 C 214.131 -1.85991 4.88062 0
M  V30 2178 H 215.825 -0.801743 2.88466 0
M  V30 2179 H 213.371 -0.38422 1.38779 0
M  V30 2180 H 215.324 -3.23197 2.7041 0
M  V30 2181 H 214.048 -2.89737 1.50732 0
M  V30 2182 H 212.707 -1.68016 3.25832 0
M  V30 2183 H 212.355 -4.12656 2.87618 0
M  V30 2184 H 212.055 -3.68606 4.57606 0
M  V30 2185 H 213.579 -4.50206 4.12488 0
M  V30 2186 H 214.993 -2.4838 5.16701 0
M  V30 2187 H 213.39 -1.89393 5.6943 0
M  V30 2188 H 214.46 -0.816023 4.77984 0
M  V30 2189 N 215.803 -1.52179 -0.40978 0
M  V30 2190 C 217.051 -1.65878 -1.15451 0
M  V30 2191 C 217.372 -0.390771 -1.91044 0
M  V30 2192 O 216.642 0.594323 -1.86667 0
M  V30 2193 H 215.222 -0.611405 -0.429177 0
M  V30 2194 H 217.884 -1.89219 -0.467134 0
M  V30 2195 H 216.98 -2.49954 -1.86894 0
M  V30 2196 N 217.281 0.66697 -1.42791 0
M  V30 2197 C 218.521 1.43892 -1.4517 0
M  V30 2198 C 218.885 1.91877 -0.0687551 0
M  V30 2199 O 220.086 2.6878 0.0327455 0
M  V30 2200 C 218.357 2.59839 -2.45395 0
M  V30 2201 S 219.916 3.48572 -2.66539 0
M  V30 2202 H 216.734 0.491356 -0.513897 0
M  V30 2203 H 219.336 0.775656 -1.79454 0
M  V30 2204 H 218.04 2.22838 -3.44632 0
M  V30 2205 H 217.571 3.3103 -2.12562 0
M  V30 2206 H 219.586 4.56094 -1.95429 0
M  V30 2207 N 218.759 1.29093 0.90403 0
M  V30 2208 C 219.689 1.16401 2.02418 0
M  V30 2209 C 220.67 0.0593085 1.69997 0
M  V30 2210 O 221.855 0.238021 1.92736 0
M  V30 2211 C 218.985 0.835233 3.37107 0
M  V30 2212 C 217.939 1.89578 3.83724 0
M  V30 2213 C 217.265 1.42041 5.15489 0
M  V30 2214 C 218.565 3.30394 4.04521 0
M  V30 2215 H 220.259 2.10109 2.13295 0
M  V30 2216 H 217.805 1.01157 1.02486 0
M  V30 2217 H 219.758 0.733169 4.14973 0
M  V30 2218 H 218.482 -0.137543 3.2631 0
M  V30 2219 H 217.141 1.98715 3.08071 0
M  V30 2220 H 216.789 0.436426 5.01103 0
M  V30 2221 H 216.489 2.12964 5.4765 0
M  V30 2222 H 218.013 1.33176 5.959 0
M  V30 2223 H 219.427 3.24123 4.72882 0
M  V30 2224 H 217.824 3.99237 4.48029 0
M  V30 2225 H 218.894 3.73692 3.09002 0
M  V30 2226 N 220.237 -1.11381 1.11499 0
M  V30 2227 C 221.483 -1.83403 0.865512 0
M  V30 2228 C 221.816 -1.84459 -0.607329 0
M  V30 2229 O 221.091 -1.29811 -1.44842 0
M  V30 2230 C 221.374 -3.30552 1.42855 0
M  V30 2231 C 221.227 -3.37886 2.96906 0
M  V30 2232 C 222.546 -4.26643 1.08 0
M  V30 2233 H 219.665 -0.665879 0.31587 0
M  V30 2234 H 222.307 -1.30601 1.37998 0
M  V30 2235 H 220.457 -3.75648 0.990985 0
M  V30 2236 H 222.129 -3.01343 3.49271 0
M  V30 2237 H 220.372 -2.78088 3.32941 0
M  V30 2238 H 221.043 -4.41458 3.31389 0
M  V30 2239 H 223.519 -3.89729 1.45775 0
M  V30 2240 H 222.395 -5.27986 1.50072 0
M  V30 2241 H 222.656 -4.42099 -0.00915037 0
M  V30 2242 N 221.715 -0.905404 -1.28997 0
M  V30 2243 C 222.662 -0.385892 -2.27551 0
M  V30 2244 C 223.632 0.535113 -1.57244 0
M  V30 2245 O 224.817 0.459119 -1.85194 0
M  V30 2246 C 221.957 0.375461 -3.43051 0
M  V30 2247 C 221.07 -0.577092 -4.28128 0
M  V30 2248 C 220.205 0.201879 -5.30816 0
M  V30 2249 C 219.244 -0.744829 -6.07551 0
M  V30 2250 N 218.381 9.42587e-05 -7.021 0
M  V30 2251 H 223.221 -1.23139 -2.71368 0
M  V30 2252 H 220.758 -0.618542 -1.33463 0
M  V30 2253 H 222.716 0.832992 -4.088 0
M  V30 2254 H 221.346 1.18537 -3.00248 0
M  V30 2255 H 220.398 -1.15315 -3.62501 0
M  V30 2256 H 221.71 -1.30152 -4.8152 0
M  V30 2257 H 220.864 0.720351 -6.02408 0
M  V30 2258 H 219.603 0.959413 -4.7817 0
M  V30 2259 H 218.608 -1.27475 -5.34818 0
M  V30 2260 H 219.833 -1.50178 -6.62286 0
M  V30 2261 H 217.779 0.739791 -6.51815 0
M  V30 2262 H 217.696 -0.664321 -7.53076 0
M  V30 2263 H 218.964 0.498644 -7.77903 0
M  V30 2264 N 223.193 1.4272 -0.668489 0
M  V30 2265 C 224.47 1.95248 -0.117373 0
M  V30 2266 C 224.85 1.60919 1.36632 0
M  V30 2267 O 224.198 0.902095 2.09939 0
M  V30 2268 C 224.408 3.46927 -0.379806 0
M  V30 2269 C 225.756 4.23588 -0.292923 0
M  V30 2270 O 226.78 3.5482 -0.313204 0
M  V30 2271 O 225.639 5.46017 -0.229697 0
M  V30 2272 H 222.733 0.827 0.00079152 0
M  V30 2273 H 225.279 1.52581 -0.742783 0
M  V30 2274 H 224.051 3.65096 -1.40786 0
M  V30 2275 H 223.674 3.96627 0.277923 0
M  V30 2276 N 224.671 0.411399 1.52136 0
M  V30 2277 C 225.901 -0.16284 2.05957 0
M  V30 2278 C 226.309 -1.3922 1.28119 0
M  V30 2279 O 225.652 -1.80768 0.326881 0
M  V30 2280 C 225.714 -0.575946 3.54856 0
M  V30 2281 C 225.378 0.542998 4.53763 0
M  V30 2282 C 226.375 1.40726 5.00492 0
M  V30 2283 C 224.06 0.716337 4.97166 0
M  V30 2284 C 226.054 2.4298 5.8927 0
M  V30 2285 C 223.741 1.74218 5.8574 0
M  V30 2286 C 224.739 2.59731 6.31687 0
M  V30 2287 O 224.427 3.60558 7.18507 0
M  V30 2288 H 224.159 -0.0229125 0.675612 0
M  V30 2289 H 226.713 0.581634 1.96993 0
M  V30 2290 H 224.943 -1.37274 3.61515 0
M  V30 2291 H 226.632 -1.07836 3.91313 0
M  V30 2292 H 227.398 1.28476 4.67674 0
M  V30 2293 H 223.277 0.0603857 4.6096 0
M  V30 2294 H 226.821 3.0976 6.25055 0
M  V30 2295 H 222.718 1.86498 6.17971 0
M  V30 2296 H 223.486 3.56829 7.36624 0
M  V30 2297 N 226.149 -1.5696 0.141893 0
M  V30 2298 C 227.396 -1.9596 -0.510492 0
M  V30 2299 C 227.724 -1.02648 -1.65208 0
M  V30 2300 O 226.979 -0.0546947 -1.95624 0
M  V30 2301 C 227.278 -3.41242 -1.06249 0
M  V30 2302 C 226.944 -4.50882 -0.0398791 0
M  V30 2303 C 225.606 -4.80595 0.241247 0
M  V30 2304 C 227.958 -5.17058 0.65578 0
M  V30 2305 C 225.286 -5.73792 1.22393 0
M  V30 2306 C 227.638 -6.11313 1.62724 0
M  V30 2307 C 226.302 -6.39407 1.91612 0
M  V30 2308 H 225.572 -0.717068 -0.186802 0
M  V30 2309 H 228.219 -1.90142 0.227643 0
M  V30 2310 H 226.524 -3.43866 -1.87785 0
M  V30 2311 H 228.221 -3.68742 -1.57576 0
M  V30 2312 H 224.811 -4.27754 -0.269174 0
M  V30 2313 H 228.995 -4.94239 0.451779 0
M  V30 2314 H 224.251 -5.93853 1.45424 0
M  V30 2315 H 228.425 -6.61668 2.17183 0
M  V30 2316 H 226.052 -7.11427 2.6791 0
M  V30 2317 N 227.627 0.131896 -1.57047 0
M  V30 2318 C 229.038 0.690407 -1.73465 0
M  V30 2319 C 229.389 1.8094 -0.758629 0
M  V30 2320 O 228.514 2.16282 0.0713813 0
M  V30 2321 C 229.109 1.25916 -3.14532 0
M  V30 2322 C 227.668 1.76409 -3.32501 0
M  V30 2323 C 226.815 0.658579 -2.69366 0
M  V30 2324 H 229.766 -0.0939144 -1.58422 0
M  V30 2325 H 229.787 2.12892 -3.15369 0
M  V30 2326 H 229.299 0.444515 -3.85546 0
M  V30 2327 H 227.4 2.60391 -2.66509 0
M  V30 2328 H 227.513 1.88241 -4.4057 0
M  V30 2329 H 225.877 1.08899 -2.30246 0
M  V30 2330 H 226.66 -0.14487 -3.42994 0
M  V30 2331 N 229.106 1.52395 0.401703 0
M  V30 2332 C 230.016 1.7917 1.51444 0
M  V30 2333 C 231.032 0.677691 1.6026 0
M  V30 2334 O 232.208 0.963909 1.76835 0
M  V30 2335 C 229.273 1.94347 2.87107 0
M  V30 2336 C 228.334 3.18257 2.88116 0
M  V30 2337 C 227.567 3.32701 4.17308 0
M  V30 2338 O 227.79 2.52238 5.11598 0
M  V30 2339 O 226.724 4.25891 4.25324 0
M  V30 2340 H 230.55 2.73633 1.31752 0
M  V30 2341 H 228.135 1.3733 0.588296 0
M  V30 2342 H 230.017 2.06109 3.67555 0
M  V30 2343 H 228.692 1.03073 3.06851 0
M  V30 2344 H 227.599 3.11947 2.06494 0
M  V30 2345 H 228.932 4.09336 2.73322 0
M  V30 2346 N 230.584 -0.659388 1.43143 0
M  V30 2347 C 231.995 -1.24041 1.39537 0
M  V30 2348 C 232.346 -1.95963 0.0963364 0
M  V30 2349 O 231.471 -2.00892 -0.804438 0
M  V30 2350 C 232.066 -2.25601 2.52764 0
M  V30 2351 C 230.625 -2.79195 2.52443 0
M  V30 2352 C 229.772 -1.53743 2.30778 0
M  V30 2353 H 232.723 -0.451792 1.52133 0
M  V30 2354 H 232.744 -3.07651 2.23899 0
M  V30 2355 H 232.256 -1.73226 3.47296 0
M  V30 2356 H 230.357 -3.35649 1.61773 0
M  V30 2357 H 230.47 -3.2716 3.50004 0
M  V30 2358 H 228.834 -1.80869 1.79328 0
M  V30 2359 H 229.617 -1.03312 3.27386 0
M  V30 2360 N 232.062 -1.29571 -0.897171 0
M  V30 2361 C 233.308 -1.17863 -1.65034 0
M  V30 2362 C 233.641 0.268729 -1.92332 0
M  V30 2363 O 232.916 1.19378 -1.53555 0
M  V30 2364 C 233.199 -1.995 -2.99786 0
M  V30 2365 C 233.052 -3.5239 -2.79538 0
M  V30 2366 C 234.371 -1.82335 -4.00552 0
M  V30 2367 H 231.49 -0.429528 -0.598895 0
M  V30 2368 H 234.132 -1.59072 -1.03905 0
M  V30 2369 H 232.282 -1.64485 -3.51962 0
M  V30 2370 H 233.954 -3.97401 -2.34244 0
M  V30 2371 H 232.197 -3.77187 -2.14273 0
M  V30 2372 H 232.868 -4.04787 -3.75302 0
M  V30 2373 H 235.344 -2.12924 -3.57495 0
M  V30 2374 H 234.22 -2.41801 -4.92771 0
M  V30 2375 H 234.481 -0.779209 -4.35179 0
M  V30 2376 N 233.54 1.10788 -1.12088 0
M  V30 2377 C 234.768 1.86461 -0.896651 0
M  V30 2378 C 235.183 1.80492 0.553912 0
M  V30 2379 O 234.54 1.19102 1.38278 0
M  V30 2380 C 234.591 3.35006 -1.35843 0
M  V30 2381 O 234.312 3.40866 -2.75213 0
M  V30 2382 C 235.813 4.27565 -1.1706 0
M  V30 2383 H 233.033 0.589425 -0.320654 0
M  V30 2384 H 235.577 1.40076 -1.48993 0
M  V30 2385 H 233.732 3.7887 -0.808458 0
M  V30 2386 H 234.146 4.33411 -2.9539 0
M  V30 2387 H 235.62 5.30007 -1.54263 0
M  V30 2388 H 236.097 4.3906 -0.110814 0
M  V30 2389 H 236.703 3.89501 -1.70789 0
M  V30 2390 N 235.018 0.912232 1.28515 0
M  V30 2391 C 236.264 0.545405 1.95328 0
M  V30 2392 C 236.597 -0.908313 1.71649 0
M  V30 2393 O 235.872 -1.64575 1.03659 0
M  V30 2394 C 236.155 0.853483 3.4984 0
M  V30 2395 C 236.008 2.35982 3.82926 0
M  V30 2396 C 237.327 0.348589 4.38717 0
M  V30 2397 H 234.446 0.199626 0.709449 0
M  V30 2398 H 237.088 1.1412 1.5191 0
M  V30 2399 H 235.238 0.34643 3.86952 0
M  V30 2400 H 236.91 2.93738 3.55691 0
M  V30 2401 H 235.153 2.81543 3.30024 0
M  V30 2402 H 235.824 2.52593 4.90816 0
M  V30 2403 H 238.3 0.78294 4.08668 0
M  V30 2404 H 237.176 0.593242 5.45685 0
M  V30 2405 H 237.437 -0.751049 4.35674 0
M  V30 2406 N 236.496 -1.42363 0.676048 0
M  V30 2407 C 237.721 -2.06377 0.205705 0
M  V30 2408 C 238.146 -1.50463 -1.12883 0
M  V30 2409 O 237.504 -0.623619 -1.70237 0
M  V30 2410 C 237.552 -3.60277 0.152655 0
M  V30 2411 O 236.656 -4.02935 -0.87845 0
M  V30 2412 H 235.997 -0.655588 0.105359 0
M  V30 2413 H 238.527 -1.82475 0.925412 0
M  V30 2414 H 238.537 -4.07993 -0.0230675 0
M  V30 2415 H 237.212 -4.00346 1.12675 0
M  V30 2416 H 235.789 -3.66764 -0.673668 0
M  V30 2417 N 237.974 -0.419461 -1.51915 0
M  V30 2418 C 239.22 0.145505 -2.02879 0
M  V30 2419 C 239.575 1.41926 -1.29903 0
M  V30 2420 O 238.868 1.87383 -0.399782 0
M  V30 2421 C 239.062 0.437067 -3.54717 0
M  V30 2422 C 238.891 -0.806877 -4.42402 0
M  V30 2423 C 237.661 -1.33514 -4.87342 0
M  V30 2424 C 239.859 -1.68796 -4.85811 0
M  V30 2425 N 237.841 -2.53349 -5.59185 0
M  V30 2426 C 239.212 -2.73247 -5.56539 0
M  V30 2427 C 241.267 -1.70449 -4.67816 0
M  V30 2428 C 239.97 -3.79276 -6.11181 0
M  V30 2429 C 241.996 -2.75403 -5.23361 0
M  V30 2430 C 241.358 -3.78575 -5.9402 0
M  V30 2431 H 237.457 0.0145424 -0.781865 0
M  V30 2432 H 240.041 -0.576126 -1.85981 0
M  V30 2433 H 238.212 1.12774 -3.71667 0
M  V30 2434 H 239.944 0.99182 -3.92358 0
M  V30 2435 H 236.699 -0.891657 -4.65131 0
M  V30 2436 H 237.123 -3.14066 -5.99743 0
M  V30 2437 H 241.765 -0.920209 -4.12664 0
M  V30 2438 H 239.483 -4.58554 -6.65397 0
M  V30 2439 H 243.069 -2.77603 -5.113 0
M  V30 2440 H 241.949 -4.58453 -6.36231 0
M  V30 2441 N 239.452 1.56882 -0.150215 0
M  V30 2442 C 240.4 2.18214 0.805313 0
M  V30 2443 C 241.394 1.14006 1.25296 0
M  V30 2444 O 242.6 1.3225 1.22107 0
M  V30 2445 H 238.975 0.698762 0.277913 0
M  V30 2446 H 240.946 2.97231 0.263862 0
M  V30 2447 C 239.695 2.82065 2.03309 0
M  V30 2448 H 239.018 3.61968 1.69763 0
M  V30 2449 H 240.458 3.28477 2.68103 0
M  V30 2450 C 238.917 1.80739 2.84315 0
M  V30 2451 O 239.447 1.27983 3.80767 0
M  V30 2452 N 237.653 1.4997 2.48913 0
M  V30 2453 H 237.2 1.93062 1.70542 0
M  V30 2454 H 237.158 0.824217 3.03404 0
M  V30 2455 N 240.93 -0.123565 1.57115 0
M  V30 2456 C 242.155 -0.850398 1.89164 0
M  V30 2457 C 242.58 -1.7286 0.741688 0
M  V30 2458 O 241.938 -1.78665 -0.307958 0
M  V30 2459 C 241.986 -1.66353 3.19936 0
M  V30 2460 O 241.09 -2.77004 3.0552 0
M  V30 2461 H 240.431 -0.235454 0.620852 0
M  V30 2462 H 242.961 -0.107335 2.04318 0
M  V30 2463 H 242.971 -2.05372 3.52543 0
M  V30 2464 H 241.646 -1.01881 4.03228 0
M  V30 2465 H 240.223 -2.41221 2.84371 0
M  V30 2466 N 242.408 -1.52605 -0.393616 0
M  V30 2467 C 243.656 -1.67093 -1.13685 0
M  V30 2468 C 243.977 -0.411011 -1.90619 0
M  V30 2469 O 243.247 0.574491 -1.87287 0
M  V30 2470 H 241.827 -0.615923 -0.422668 0
M  V30 2471 H 244.489 -1.89704 -0.447039 0
M  V30 2472 H 243.585 -2.51922 -1.84232 0
M  V30 2473 N 243.887 0.651787 -1.4349 0
M  V30 2474 C 244.85 1.74647 -1.48429 0
M  V30 2475 C 245.85 1.56513 -0.368817 0
M  V30 2476 O 247.04 1.62385 -0.630623 0
M  V30 2477 C 244.172 3.13533 -1.33827 0
M  V30 2478 H 245.365 1.71649 -2.4592 0
M  V30 2479 H 242.918 0.863573 -1.30277 0
M  V30 2480 H 243.653 3.22142 -0.37349 0
M  V30 2481 H 243.438 3.28101 -2.14691 0
M  V30 2482 H 244.928 3.93356 -1.40218 0
M  V30 2483 N 245.365 1.30045 0.890287 0
M  V30 2484 C 246.295 1.18541 2.01172 0
M  V30 2485 C 247.276 0.0773356 1.69924 0
M  V30 2486 O 248.461 0.25845 1.92473 0
M  V30 2487 C 245.591 0.870941 3.36202 0
M  V30 2488 C 244.545 1.93637 3.81692 0
M  V30 2489 C 243.871 1.475 5.13953 0
M  V30 2490 C 245.171 3.34666 4.00994 0
M  V30 2491 H 246.865 2.12359 2.11054 0
M  V30 2492 H 244.411 1.02238 1.01407 0
M  V30 2493 H 246.364 0.777141 4.14172 0
M  V30 2494 H 245.088 -0.102926 3.26438 0
M  V30 2495 H 243.747 2.01972 3.05946 0
M  V30 2496 H 243.395 0.489551 5.00612 0
M  V30 2497 H 243.095 2.1876 5.4536 0
M  V30 2498 H 244.619 1.39489 5.94454 0
M  V30 2499 H 246.033 3.2912 4.69417 0
M  V30 2500 H 244.43 4.03966 4.43769 0
M  V30 2501 H 245.5 3.76949 3.05021 0
M  V30 2502 N 246.843 -1.10192 1.12674 0
M  V30 2503 C 248.071 -1.85983 0.906527 0
M  V30 2504 C 248.486 -1.80783 -0.544333 0
M  V30 2505 O 247.843 -1.19834 -1.37645 0
M  V30 2506 C 247.894 -3.34281 1.37618 0
M  V30 2507 O 247.615 -3.39401 2.77017 0
M  V30 2508 C 249.116 -4.26938 1.19325 0
M  V30 2509 H 246.336 -0.587716 0.323775 0
M  V30 2510 H 248.88 -1.39284 1.49734 0
M  V30 2511 H 247.035 -3.78436 0.828539 0
M  V30 2512 H 247.449 -4.31838 2.97684 0
M  V30 2513 H 248.923 -5.29181 1.57071 0
M  V30 2514 H 249.4 -4.38995 0.134097 0
M  V30 2515 H 250.006 -3.8859 1.72852 0
M  V30 2516 N 248.321 -0.919034 -1.28029 0
M  V30 2517 C 249.546 -0.570357 -1.99403 0
M  V30 2518 C 249.971 0.842486 -1.68178 0
M  V30 2519 O 249.329 1.56391 -0.917141 0
M  V30 2520 C 249.377 -0.792541 -3.51783 0
M  V30 2521 O 248.481 0.145988 -4.12142 0
M  V30 2522 H 247.822 -0.220555 -0.6263 0
M  V30 2523 H 250.352 -1.23592 -1.63053 0
M  V30 2524 H 250.362 -0.704708 -4.01868 0
M  V30 2525 H 249.037 -1.82247 -3.73844 0
M  V30 2526 H 247.614 0.00897528 -3.72899 0
M  V30 2527 N 249.799 1.42003 -0.683588 0
M  V30 2528 C 251.047 2.01015 -0.209101 0
M  V30 2529 C 251.368 1.54365 1.19149 0
M  V30 2530 O 250.638 0.769083 1.80172 0
M  V30 2531 H 249.218 0.743294 -0.074315 0
M  V30 2532 H 251.88 1.73798 -0.882066 0
M  V30 2533 H 250.976 3.11343 -0.2172 0
M  V30 2534 N 251.277 0.427512 1.51691 0
M  V30 2535 C 252.523 -0.142439 2.02299 0
M  V30 2536 C 252.856 -1.43214 1.31162 0
M  V30 2537 O 252.131 -1.89833 0.423511 0
M  V30 2538 C 252.414 -0.371301 3.58181 0
M  V30 2539 C 252.267 0.936358 4.39946 0
M  V30 2540 C 253.586 -1.14542 4.24933 0
M  V30 2541 H 250.705 -0.0502937 0.735282 0
M  V30 2542 H 253.347 0.564584 1.81418 0
M  V30 2543 H 251.497 -0.973559 3.76104 0
M  V30 2544 H 253.169 1.57184 4.33694 0
M  V30 2545 H 251.412 1.5432 4.05423 0
M  V30 2546 H 252.083 0.730388 5.47147 0
M  V30 2547 H 254.559 -0.635362 4.11221 0
M  V30 2548 H 253.435 -1.27431 5.33903 0
M  V30 2549 H 253.696 -2.17093 3.85127 0
M  V30 2550 N 252.755 -1.56801 0.158532 0
M  V30 2551 C 253.705 -2.13923 -0.788738 0
M  V30 2552 C 254.689 -1.07006 -1.2016 0
M  V30 2553 O 255.881 -1.33159 -1.1661 0
M  V30 2554 C 253.01 -2.77348 -2.02319 0
M  V30 2555 C 252.096 -3.91404 -1.6329 0
M  V30 2556 N 252.487 -4.9677 -0.951463 0
M  V30 2557 C 250.785 -4.02326 -1.92482 0
M  V30 2558 C 251.486 -5.76698 -0.761221 0
M  V30 2559 N 250.462 -5.27859 -1.29869 0
M  V30 2560 H 254.264 -2.92757 -0.258995 0
M  V30 2561 H 251.778 -1.62344 -0.0426055 0
M  V30 2562 H 253.775 -3.16639 -2.71192 0
M  V30 2563 H 252.435 -1.99991 -2.558 0
M  V30 2564 H 253.446 -5.14284 -0.610928 0
M  V30 2565 H 250.123 -3.36059 -2.47732 0
M  V30 2566 H 251.513 -6.71529 -0.223284 0
M  V30 2567 N 254.233 0.115231 -1.57178 0
M  V30 2568 C 255.461 0.836437 -1.89239 0
M  V30 2569 C 255.876 1.73256 -0.750175 0
M  V30 2570 O 255.233 1.80357 0.278832 0
M  V30 2571 C 255.284 1.66671 -3.20785 0
M  V30 2572 O 255.005 0.806652 -4.3061 0
M  V30 2573 C 256.506 2.49274 -3.66575 0
M  V30 2574 H 253.726 0.240253 -0.626514 0
M  V30 2575 H 256.27 0.0984932 -2.04263 0
M  V30 2576 H 254.425 2.35737 -3.0742 0
M  V30 2577 H 254.839 1.37969 -5.06028 0
M  V30 2578 H 256.313 3.03055 -4.6137 0
M  V30 2579 H 256.79 3.26807 -2.93417 0
M  V30 2580 H 257.396 1.85443 -3.82741 0
M  V30 2581 N 255.711 1.52812 0.385517 0
M  V30 2582 C 256.958 1.68026 1.1302 0
M  V30 2583 C 257.286 0.421934 1.89868 0
M  V30 2584 O 256.541 -0.595749 1.86412 0
M  V30 2585 C 256.84 2.86856 2.13187 0
M  V30 2586 C 256.506 4.24159 1.5297 0
M  V30 2587 C 255.168 4.61501 1.36274 0
M  V30 2588 C 257.52 5.09627 1.09223 0
M  V30 2589 C 254.848 5.81966 0.743837 0
M  V30 2590 C 257.2 6.30719 0.487411 0
M  V30 2591 C 255.864 6.6679 0.307777 0
M  V30 2592 H 255.134 0.614849 0.413571 0
M  V30 2593 H 257.781 1.86962 0.414405 0
M  V30 2594 H 256.086 2.6235 2.90998 0
M  V30 2595 H 257.783 2.95821 2.70722 0
M  V30 2596 H 254.373 3.94746 1.66954 0
M  V30 2597 H 258.557 4.81343 1.20922 0
M  V30 2598 H 253.813 6.08519 0.592891 0
M  V30 2599 H 257.987 6.96259 0.140143 0
M  V30 2600 H 255.614 7.60001 -0.173879 0
M  V30 2601 N 257.189 -0.644168 1.43834 0
M  V30 2602 C 258.6 -1.22554 1.40845 0
M  V30 2603 C 258.951 -1.9585 0.117115 0
M  V30 2604 O 258.076 -2.01734 -0.783086 0
M  V30 2605 C 258.671 -2.22907 2.55143 0
M  V30 2606 C 257.23 -2.76501 2.5539 0
M  V30 2607 C 256.377 -1.51287 2.32396 0
M  V30 2608 H 259.328 -0.43563 1.52604 0
M  V30 2609 H 259.349 -3.05259 2.2715 0
M  V30 2610 H 258.861 -1.69533 3.49114 0
M  V30 2611 H 256.962 -3.33914 1.65324 0
M  V30 2612 H 257.075 -3.23429 3.53455 0
M  V30 2613 H 255.439 -1.78957 1.81236 0
M  V30 2614 H 256.222 -0.998336 3.28463 0
M  V30 2615 N 258.668 -1.30515 -0.883378 0
M  V30 2616 C 259.631 -1.1701 -1.97082 0
M  V30 2617 C 260.631 -0.10089 -1.60483 0
M  V30 2618 O 261.821 -0.349127 -1.70666 0
M  V30 2619 C 258.953 -0.793045 -3.31547 0
M  V30 2620 H 260.146 -2.13622 -2.10489 0
M  V30 2621 H 257.699 -1.13935 -1.06998 0
M  V30 2622 H 258.434 0.172499 -3.23841 0
M  V30 2623 H 258.219 -1.56576 -3.5948 0
M  V30 2624 H 259.709 -0.722073 -4.1131 0
M  V30 2625 N 260.146 1.09593 -1.13257 0
M  V30 2626 C 261.392 1.82003 -0.89458 0
M  V30 2627 C 261.725 1.85402 0.577906 0
M  V30 2628 O 261 1.32099 1.42759 0
M  V30 2629 C 261.283 3.28237 -1.48096 0
M  V30 2630 C 261.136 3.3312 -3.02244 0
M  V30 2631 C 262.455 4.24871 -1.14774 0
M  V30 2632 H 259.574 0.66077 -0.326424 0
M  V30 2633 H 262.216 1.28389 -1.40058 0
M  V30 2634 H 260.366 3.74024 -1.05062 0
M  V30 2635 H 262.038 2.95748 -3.54021 0
M  V30 2636 H 260.281 2.72756 -3.37323 0
M  V30 2637 H 260.952 4.3613 -3.38371 0
M  V30 2638 H 263.428 3.87361 -1.51957 0
M  V30 2639 H 262.304 5.25532 -1.58452 0
M  V30 2640 H 262.565 4.42058 -0.0611849 0
M  V30 2641 N 261.624 0.925811 1.2754 0
M  V30 2642 C 262.554 0.440748 2.29303 0
M  V30 2643 C 263.535 -0.497971 1.62648 0
M  V30 2644 O 264.72 -0.403126 1.8997 0
M  V30 2645 C 261.85 -0.309048 3.45922 0
M  V30 2646 C 260.804 0.54166 4.24559 0
M  V30 2647 C 260.13 -0.337191 5.33636 0
M  V30 2648 C 261.43 1.80516 4.90114 0
M  V30 2649 H 263.124 1.29121 2.70126 0
M  V30 2650 H 260.67 0.622323 1.29858 0
M  V30 2651 H 262.623 -0.659315 4.1621 0
M  V30 2652 H 261.347 -1.19352 3.04011 0
M  V30 2653 H 260.006 0.874609 3.56014 0
M  V30 2654 H 259.654 -1.22056 4.87966 0
M  V30 2655 H 259.354 0.228497 5.87156 0
M  V30 2656 H 260.878 -0.683072 6.06767 0
M  V30 2657 H 262.292 1.52307 5.52698 0
M  V30 2658 H 260.689 2.3142 5.53683 0
M  V30 2659 H 261.759 2.52581 4.13921 0
M  V30 2660 N 263.102 -1.41638 0.69111 0
M  V30 2661 C 264.034 -2.29194 -0.0161523 0
M  V30 2662 C 265.047 -1.44549 -0.748955 0
M  V30 2663 O 266.236 -1.681 -0.6004 0
M  V30 2664 C 263.336 -3.22325 -1.0469 0
M  V30 2665 C 262.509 -4.35706 -0.384621 0
M  V30 2666 C 261.568 -5.09443 -1.31737 0
M  V30 2667 O 260.594 -5.63386 -0.811451 0
M  V30 2668 N 261.796 -5.16487 -2.64993 0
M  V30 2669 H 264.561 -2.90534 0.735523 0
M  V30 2670 H 262.122 -1.52742 0.53679 0
M  V30 2671 H 264.114 -3.68522 -1.67252 0
M  V30 2672 H 262.684 -2.62323 -1.70015 0
M  V30 2673 H 261.904 -3.91948 0.420804 0
M  V30 2674 H 263.192 -5.08743 0.0760765 0
M  V30 2675 H 262.59 -4.741 -3.08619 0
M  V30 2676 H 261.147 -5.66276 -3.22761 0
M  V30 2677 N 264.58 -0.43555 -1.51462 0
M  V30 2678 C 265.805 0.132627 -2.06976 0
M  V30 2679 C 266.23 1.35848 -1.30104 0
M  V30 2680 O 265.588 1.78112 -0.338493 0
M  V30 2681 C 265.636 0.43523 -3.57964 0
M  V30 2682 O 264.74 1.52198 -3.83288 0
M  V30 2683 H 264.081 0.00265 -0.663995 0
M  V30 2684 H 266.611 -0.616369 -1.95095 0
M  V30 2685 H 266.621 0.686206 -4.02188 0
M  V30 2686 H 265.296 -0.460739 -4.1334 0
M  V30 2687 H 263.873 1.2611 -3.50928 0
M  V30 2688 N 266.058 1.56714 -0.166846 0
M  V30 2689 C 267.283 2.01557 0.488833 0
M  V30 2690 C 267.708 1.0463 1.56314 0
M  V30 2691 O 267.066 0.0251304 1.81283 0
M  V30 2692 C 267.114 3.4503 1.04818 0
M  V30 2693 O 266.218 3.51163 2.16236 0
M  V30 2694 H 265.559 0.653516 0.117526 0
M  V30 2695 H 268.089 2.02818 -0.269421 0
M  V30 2696 H 268.099 3.84243 1.37191 0
M  V30 2697 H 266.774 4.15077 0.261572 0
M  V30 2698 H 265.351 3.23807 1.84942 0
M  V30 2699 N 267.536 -0.106894 1.57237 0
M  V30 2700 C 268.784 -0.810921 1.85117 0
M  V30 2701 C 269.105 -1.7984 0.753827 0
M  V30 2702 O 268.375 -1.94649 -0.221056 0
M  V30 2703 H 266.955 -0.302466 0.683025 0
M  V30 2704 H 269.617 -0.0913324 1.94686 0
M  V30 2705 H 268.713 -1.34875 2.81452 0
M  V30 2706 N 269.014 -1.53014 -0.377408 0
M  V30 2707 C 269.944 -1.81589 -1.46791 0
M  V30 2708 C 270.925 -0.668622 -1.56408 0
M  V30 2709 O 272.11 -0.917337 -1.71168 0
M  V30 2710 C 269.24 -1.99519 -2.8427 0
M  V30 2711 C 268.194 -3.15249 -2.89486 0
M  V30 2712 C 267.52 -3.18451 -4.29527 0
M  V30 2713 C 268.82 -4.54084 -2.58079 0
M  V30 2714 H 270.514 -2.7291 -1.23127 0
M  V30 2715 H 268.06 -1.31319 -0.590883 0
M  V30 2716 H 270.013 -2.18092 -3.60575 0
M  V30 2717 H 268.737 -1.04897 -3.09296 0
M  V30 2718 H 267.396 -2.96477 -2.15631 0
M  V30 2719 H 267.044 -2.2149 -4.5161 0
M  V30 2720 H 266.744 -3.962 -4.33934 0
M  V30 2721 H 268.268 -3.39193 -5.07721 0
M  V30 2722 H 269.682 -4.72899 -3.24098 0
M  V30 2723 H 268.079 -5.33987 -2.7382 0
M  V30 2724 H 269.149 -4.60006 -1.53372 0
M  V30 2725 N 270.492 0.636531 -1.44174 0
M  V30 2726 C 271.722 1.42146 -1.49927 0
M  V30 2727 C 272.13 1.88812 -0.121063 0
M  V30 2728 O 271.473 1.61126 0.882267 0
M  V30 2729 C 271.535 2.67883 -2.39748 0
M  V30 2730 C 271.199 2.43048 -3.8701 0
M  V30 2731 C 272.196 2.05216 -4.77684 0
M  V30 2732 C 269.881 2.56856 -4.3166 0
M  V30 2733 C 271.875 1.81512 -6.11009 0
M  V30 2734 C 269.562 2.32766 -5.65034 0
M  V30 2735 C 270.56 1.95152 -6.54526 0
M  V30 2736 O 270.248 1.71326 -7.85431 0
M  V30 2737 H 269.98 0.442567 -0.51099 0
M  V30 2738 H 272.534 0.786158 -1.8976 0
M  V30 2739 H 270.764 3.34032 -1.94832 0
M  V30 2740 H 272.453 3.29874 -2.36513 0
M  V30 2741 H 273.219 1.94111 -4.44462 0
M  V30 2742 H 269.098 2.85104 -3.62266 0
M  V30 2743 H 272.642 1.52077 -6.80822 0
M  V30 2744 H 268.539 2.43479 -5.97819 0
M  V30 2745 H 269.307 1.85616 -7.97176 0
M  V30 2746 N 271.97 1.30982 0.876444 0
M  V30 2747 C 273.195 1.23373 1.66715 0
M  V30 2748 C 273.62 -0.19885 1.87046 0
M  V30 2749 O 272.978 -1.1427 1.40756 0
M  V30 2750 C 273.026 1.97644 3.01611 0
M  V30 2751 O 272.13 1.30935 3.91062 0
M  V30 2752 H 271.471 0.426279 0.509099 0
M  V30 2753 H 274.001 1.72944 1.09323 0
M  V30 2754 H 274.011 2.06992 3.51594 0
M  V30 2755 H 272.686 3.01829 2.86133 0
M  V30 2756 H 271.263 1.29996 3.49507 0
M  V30 2757 N 273.449 -1.08991 1.13837 0
M  V30 2758 C 274.379 -2.17771 0.842507 0
M  V30 2759 C 275.36 -1.6892 -0.20001 0
M  V30 2760 O 276.545 -1.94113 -0.0579731 0
M  V30 2761 C 273.675 -3.4589 0.312644 0
M  V30 2762 C 272.629 -4.08099 1.28992 0
M  V30 2763 C 271.955 -5.31098 0.619623 0
M  V30 2764 C 273.255 -4.50077 2.65005 0
M  V30 2765 H 274.949 -2.42777 1.75213 0
M  V30 2766 H 272.495 -1.16682 0.843875 0
M  V30 2767 H 274.448 -4.21297 0.0933043 0
M  V30 2768 H 273.172 -3.20419 -0.632382 0
M  V30 2769 H 271.831 -3.34717 1.49533 0
M  V30 2770 H 271.479 -5.0191 -0.33102 0
M  V30 2771 H 271.179 -5.73674 1.27167 0
M  V30 2772 H 272.703 -6.09224 0.409669 0
M  V30 2773 H 274.117 -5.16688 2.48407 0
M  V30 2774 H 272.514 -5.03553 3.26427 0
M  V30 2775 H 273.584 -3.62257 3.22332 0
M  V30 2776 N 274.927 -0.932562 -1.27047 0
M  V30 2777 C 276.152 -0.591474 -1.98787 0
M  V30 2778 C 276.577 0.824601 -1.69062 0
M  V30 2779 O 275.935 1.5541 -0.933677 0
M  V30 2780 C 275.983 -0.829808 -3.50922 0
M  V30 2781 O 275.087 0.102266 -4.12273 0
M  V30 2782 H 274.428 -0.227185 -0.623926 0
M  V30 2783 H 276.958 -1.25314 -1.61733 0
M  V30 2784 H 276.968 -0.747292 -4.01098 0
M  V30 2785 H 275.643 -1.86201 -3.7189 0
M  V30 2786 H 274.22 -0.0305761 -3.72887 0
M  V30 2787 N 276.405 1.4127 -0.698611 0
M  V30 2788 C 277.63 2.06024 -0.238512 0
M  V30 2789 C 278.055 1.5224 1.10475 0
M  V30 2790 O 277.413 0.650623 1.69223 0
M  V30 2791 C 277.461 3.59988 -0.209952 0
M  V30 2792 O 276.565 4.04282 0.814235 0
M  V30 2793 H 275.906 0.653829 -0.115775 0
M  V30 2794 H 278.436 1.8098 -0.954326 0
M  V30 2795 H 278.446 4.07979 -0.0418436 0
M  V30 2796 H 277.121 3.98503 -1.1903 0
M  V30 2797 H 275.698 3.6779 0.615234 0
M  V30 2798 N 277.883 0.443576 1.51229 0
M  V30 2799 C 279.129 -0.120975 2.02439 0
M  V30 2800 C 279.462 -1.41815 1.32674 0
M  V30 2801 O 278.737 -1.89373 0.443622 0
M  V30 2802 C 279.02 -0.333291 3.58554 0
M  V30 2803 C 278.873 0.982968 4.38928 0
M  V30 2804 C 280.192 -1.10028 4.26124 0
M  V30 2805 H 277.311 -0.0424923 0.735774 0
M  V30 2806 H 279.953 0.583794 1.80809 0
M  V30 2807 H 278.103 -0.933614 3.77115 0
M  V30 2808 H 279.775 1.61775 4.32003 0
M  V30 2809 H 278.018 1.58611 4.03763 0
M  V30 2810 H 278.689 0.788379 5.46341 0
M  V30 2811 H 281.165 -0.591711 4.11871 0
M  V30 2812 H 280.041 -1.21761 5.35225 0
M  V30 2813 H 280.302 -2.12996 3.87408 0
M  V30 2814 N 279.361 -1.56624 0.175154 0
M  V30 2815 C 280.607 -1.9729 -0.469506 0
M  V30 2816 C 280.94 -1.06128 -1.62636 0
M  V30 2817 O 280.215 -0.109183 -1.94193 0
M  V30 2818 C 280.498 -3.47375 -0.948804 0
M  V30 2819 C 280.351 -4.49317 0.208491 0
M  V30 2820 C 281.67 -4.00652 -1.82116 0
M  V30 2821 H 278.789 -0.717317 -0.16919 0
M  V30 2822 H 281.431 -1.88184 0.262062 0
M  V30 2823 H 279.581 -3.55267 -1.57219 0
M  V30 2824 H 281.253 -4.53482 0.845682 0
M  V30 2825 H 279.496 -4.25121 0.863395 0
M  V30 2826 H 280.167 -5.51741 -0.169059 0
M  V30 2827 H 282.643 -3.95416 -1.2956 0
M  V30 2828 H 281.519 -5.06075 -2.12554 0
M  V30 2829 H 281.78 -3.44699 -2.7683 0
M  V30 2830 N 280.839 0.0985539 -1.57292 0
M  V30 2831 C 282.067 0.816318 -1.90115 0
M  V30 2832 C 282.482 1.72451 -0.768509 0
M  V30 2833 O 281.839 1.80643 0.259687 0
M  V30 2834 C 281.89 1.63259 -3.22535 0
M  V30 2835 O 281.611 0.760934 -4.31441 0
M  V30 2836 C 283.112 2.45372 -3.69199 0
M  V30 2837 H 280.332 0.233595 -0.629027 0
M  V30 2838 H 282.876 0.0768229 -2.04356 0
M  V30 2839 H 281.031 2.32463 -3.09903 0
M  V30 2840 H 281.445 1.32595 -5.07463 0
M  V30 2841 H 282.919 2.98144 -4.64558 0
M  V30 2842 H 283.396 3.23677 -2.96867 0
M  V30 2843 H 284.002 1.81373 -3.84687 0
M  V30 2844 N 282.317 1.53212 0.369288 0
M  V30 2845 C 283.563 1.69466 1.11397 0
M  V30 2846 C 283.896 0.443257 1.89074 0
M  V30 2847 O 283.171 -0.559386 1.86282 0
M  V30 2848 C 283.454 2.9422 2.07621 0
M  V30 2849 C 283.307 4.29508 1.33577 0
M  V30 2850 C 284.626 3.14565 3.07794 0
M  V30 2851 H 281.745 0.616667 0.403597 0
M  V30 2852 H 284.387 1.85845 0.395179 0
M  V30 2853 H 282.537 2.80387 2.68916 0
M  V30 2854 H 284.209 4.55147 0.750955 0
M  V30 2855 H 282.452 4.29088 0.637618 0
M  V30 2856 H 283.123 5.12926 2.03989 0
M  V30 2857 H 285.599 3.2756 2.56601 0
M  V30 2858 H 284.475 4.03297 3.72348 0
M  V30 2859 H 284.736 2.29675 3.77759 0
M  V30 2860 N 283.795 -0.628877 1.44509 0
M  V30 2861 C 285.206 -1.21054 1.42137 0
M  V30 2862 C 285.557 -1.95715 0.137881 0
M  V30 2863 O 284.682 -2.02554 -0.761645 0
M  V30 2864 C 285.277 -2.20189 2.57493 0
M  V30 2865 C 283.836 -2.73777 2.58308 0
M  V30 2866 C 282.983 -1.48813 2.33987 0
M  V30 2867 H 285.934 -0.41942 1.53057 0
M  V30 2868 H 285.955 -3.02833 2.30375 0
M  V30 2869 H 285.467 -1.6582 3.50892 0
M  V30 2870 H 283.568 -3.32142 1.68856 0
M  V30 2871 H 283.681 -3.19662 3.56865 0
M  V30 2872 H 282.045 -1.77024 1.83124 0
M  V30 2873 H 282.828 -0.963442 3.29504 0
M  V30 2874 N 285.273 -1.31445 -0.869486 0
M  V30 2875 C 286.498 -1.24256 -1.66058 0
M  V30 2876 C 286.923 0.188928 -1.87149 0
M  V30 2877 O 286.281 1.13522 -1.4136 0
M  V30 2878 C 286.329 -1.9924 -3.00559 0
M  V30 2879 O 285.433 -1.33007 -3.90362 0
M  V30 2880 H 284.774 -0.428973 -0.506831 0
M  V30 2881 H 287.304 -1.73521 -1.08404 0
M  V30 2882 H 287.314 -2.08854 -3.50491 0
M  V30 2883 H 285.989 -3.03342 -2.84528 0
M  V30 2884 H 284.566 -1.31848 -3.48813 0
M  V30 2885 N 286.751 1.08385 -1.14413 0
M  V30 2886 C 287.976 1.85057 -0.936413 0
M  V30 2887 C 288.401 1.81055 0.509971 0
M  V30 2888 O 287.759 1.1958 1.36273 0
M  V30 2889 C 287.807 3.30505 -1.44217 0
M  V30 2890 O 286.911 4.07491 -0.634409 0
M  V30 2891 H 286.252 0.573425 -0.334784 0
M  V30 2892 H 288.782 1.36799 -1.52142 0
M  V30 2893 H 288.792 3.81348 -1.45043 0
M  V30 2894 H 287.467 3.32734 -2.49522 0
M  V30 2895 H 286.044 3.66368 -0.694902 0
M  V30 2896 N 288.23 0.939286 1.26551 0
M  V30 2897 C 289.455 0.602008 1.98471 0
M  V30 2898 C 289.88 -0.815624 1.69497 0
M  V30 2899 O 289.238 -1.54912 0.941905 0
M  V30 2900 C 289.286 0.848407 3.50477 0
M  V30 2901 O 288.39 -0.0804009 4.12322 0
M  V30 2902 H 287.731 0.23049 0.622712 0
M  V30 2903 H 290.261 1.2617 1.61066 0
M  V30 2904 H 290.271 0.768553 4.00696 0
M  V30 2905 H 288.946 1.88171 3.70897 0
M  V30 2906 H 287.523 0.0503508 3.72866 0
M  V30 2907 N 289.708 -1.40897 0.706093 0
M  V30 2908 C 290.638 -2.33418 0.0620085 0
M  V30 2909 C 291.619 -1.52385 -0.755827 0
M  V30 2910 O 292.804 -1.80886 -0.706674 0
M  V30 2911 C 289.934 -3.36293 -0.867445 0
M  V30 2912 C 288.888 -4.27716 -0.155932 0
M  V30 2913 C 288.214 -5.2105 -1.20046 0
M  V30 2914 C 289.514 -5.12944 0.984149 0
M  V30 2915 H 291.208 -2.87527 0.83477 0
M  V30 2916 H 288.754 -1.38249 0.402875 0
M  V30 2917 H 290.707 -3.99949 -1.32735 0
M  V30 2918 H 289.431 -2.80556 -1.67199 0
M  V30 2919 H 288.09 -3.65498 0.284047 0
M  V30 2920 H 287.738 -4.61624 -1.99781 0
M  V30 2921 H 287.438 -5.83056 -0.729328 0
M  V30 2922 H 288.962 -5.87584 -1.66066 0
M  V30 2923 H 290.376 -5.70109 0.604048 0
M  V30 2924 H 288.773 -5.83945 1.38304 0
M  V30 2925 H 289.843 -4.49485 1.81911 0
M  V30 2926 N 291.186 -0.45159 -1.50991 0
M  V30 2927 C 292.434 0.109857 -2.01801 0
M  V30 2928 C 292.755 1.41958 -1.3369 0
M  V30 2929 O 292.025 1.9003 -0.475951 0
M  V30 2930 H 290.605 0.0435884 -0.745727 0
M  V30 2931 H 293.267 -0.597557 -1.85514 0
M  V30 2932 H 292.363 0.275489 -3.10882 0
M  V30 2933 N 292.664 1.56529 -0.183458 0
M  V30 2934 C 293.892 2.01623 0.464285 0
M  V30 2935 C 294.307 1.06366 1.55986 0
M  V30 2936 O 293.664 0.0665398 1.82379 0
M  V30 2937 C 293.715 3.46475 1.03139 0
M  V30 2938 O 293.436 4.38095 -0.0204675 0
M  V30 2939 C 294.937 4.0703 1.75617 0
M  V30 2940 H 292.157 0.660596 0.117704 0
M  V30 2941 H 294.701 2.02451 -0.288751 0
M  V30 2942 H 292.856 3.46383 1.73486 0
M  V30 2943 H 293.27 5.22973 0.399952 0
M  V30 2944 H 294.744 5.10271 2.10542 0
M  V30 2945 H 295.221 3.49819 2.65563 0
M  V30 2946 H 295.827 4.1086 1.09882 0
M  V30 2947 N 294.142 -0.090211 1.57342 0
M  V30 2948 C 295.074 -1.13541 1.99101 0
M  V30 2949 C 296.087 -1.3604 0.894258 0
M  V30 2950 O 297.276 -1.34606 1.17233 0
M  V30 2951 C 294.376 -2.49001 2.29895 0
M  V30 2952 C 293.549 -2.46712 3.61182 0
M  V30 2953 C 292.608 -3.64136 3.79857 0
M  V30 2954 O 291.634 -3.46405 4.51655 0
M  V30 2955 N 292.836 -4.83802 3.20806 0
M  V30 2956 H 295.601 -0.779942 2.89373 0
M  V30 2957 H 293.162 -0.279125 1.59476 0
M  V30 2958 H 295.154 -3.26166 2.39578 0
M  V30 2959 H 293.724 -2.76619 1.45605 0
M  V30 2960 H 292.944 -1.55058 3.62423 0
M  V30 2961 H 294.232 -2.42265 4.4742 0
M  V30 2962 H 293.63 -5.01112 2.62494 0
M  V30 2963 H 292.187 -5.58543 3.35966 0
M  V30 2964 N 295.62 -1.53406 -0.361157 0
M  V30 2965 C 296.848 -1.73717 -1.12383 0
M  V30 2966 C 297.263 -0.468161 -1.82904 0
M  V30 2967 O 296.62 0.559198 -1.73722 0
M  V30 2968 C 296.671 -2.90558 -2.15078 0
M  V30 2969 O 296.392 -4.12549 -1.47428 0
M  V30 2970 C 297.893 -3.22777 -3.03858 0
M  V30 2971 H 295.113 -0.580896 -0.335858 0
M  V30 2972 H 297.657 -2.00167 -0.418728 0
M  V30 2973 H 295.812 -2.66489 -2.8118 0
M  V30 2974 H 296.226 -4.78009 -2.15887 0
M  V30 2975 H 297.7 -4.07927 -3.71887 0
M  V30 2976 H 298.177 -2.38329 -3.68912 0
M  V30 2977 H 298.783 -3.48787 -2.43367 0
M  V30 2978 N 297.098 0.621204 -1.44841 0
M  V30 2979 C 298.328 1.40548 -1.51426 0
M  V30 2980 C 298.736 1.88673 -0.141083 0
M  V30 2981 O 298.079 1.62053 0.865128 0
M  V30 2982 C 298.141 2.65325 -2.42576 0
M  V30 2983 C 297.805 2.3893 -3.89566 0
M  V30 2984 C 298.802 2.00138 -4.79834 0
M  V30 2985 C 296.487 2.52263 -4.3436 0
M  V30 2986 C 298.481 1.75021 -6.129 0
M  V30 2987 C 296.168 2.2676 -5.67471 0
M  V30 2988 C 297.166 1.88199 -6.56559 0
M  V30 2989 O 296.854 1.62986 -7.87204 0
M  V30 2990 H 296.586 0.437122 -0.515655 0
M  V30 2991 H 299.14 0.765987 -1.90583 0
M  V30 2992 H 297.37 3.31947 -1.98364 0
M  V30 2993 H 299.059 3.27347 -2.39998 0
M  V30 2994 H 299.825 1.89386 -4.46495 0
M  V30 2995 H 295.704 2.81246 -3.65269 0
M  V30 2996 H 299.248 1.44848 -6.82396 0
M  V30 2997 H 295.145 2.37125 -6.00368 0
M  V30 2998 H 295.913 1.7715 -7.991 0
M  V30 2999 N 298.576 1.31904 0.862503 0
M  V30 3000 C 299.825 1.21373 1.61094 0
M  V30 3001 C 300.138 -0.22504 1.94301 0
M  V30 3002 O 301.344 -0.452121 2.67709 0
M  V30 3003 C 299.8 2.12525 2.9045 0
M  V30 3004 C 299.408 3.61441 2.64697 0
M  V30 3005 C 301.152 2.10813 3.68454 0
M  V30 3006 C 299.059 4.44578 3.90006 0
M  V30 3007 H 297.989 0.450705 0.604468 0
M  V30 3008 H 300.64 1.56811 0.953027 0
M  V30 3009 H 299.022 1.69994 3.57656 0
M  V30 3010 H 300.196 4.12264 2.05851 0
M  V30 3011 H 298.511 3.65205 2.00036 0
M  V30 3012 H 301.108 2.70167 4.61426 0
M  V30 3013 H 301.451 1.09713 4.01583 0
M  V30 3014 H 301.984 2.51583 3.08141 0
M  V30 3015 H 298.723 5.46461 3.62023 0
M  V30 3016 H 298.243 3.98508 4.48276 0
M  V30 3017 H 299.922 4.57176 4.5782 0
M  V30 3018 N 300.054 -1.07777 1.14986 0
M  V30 3019 C 301.294 -1.81888 0.932527 0
M  V30 3020 C 301.658 -1.84509 -0.531064 0
M  V30 3021 O 302.859 -2.54448 -0.866577 0
M  V30 3022 C 301.13 -3.23244 1.52473 0
M  V30 3023 S 302.689 -4.14154 1.44989 0
M  V30 3024 H 299.507 -0.626752 0.335712 0
M  V30 3025 H 302.109 -1.29503 1.46455 0
M  V30 3026 H 300.813 -3.18922 2.58296 0
M  V30 3027 H 300.344 -3.80704 0.991381 0
M  V30 3028 H 302.359 -4.94247 0.439799 0
M  V30 3029 N 301.532 -0.945985 -1.26051 0
M  V30 3030 C 302.48 -0.450259 -2.282 0
M  V30 3031 C 303.474 0.47497 -1.62605 0
M  V30 3032 O 304.68 0.352653 -1.76512 0
M  V30 3033 H 301.055 -0.127081 -0.741184 0
M  V30 3034 H 303.026 -1.32422 -2.67408 0
M  V30 3035 C 301.775 0.26467 -3.46691 0
M  V30 3036 H 301.098 -0.438123 -3.97392 0
M  V30 3037 H 302.538 0.575678 -4.20074 0
M  V30 3038 C 300.997 1.48416 -3.02447 0
M  V30 3039 O 301.527 2.58227 -3.07704 0
M  V30 3040 N 299.733 1.34243 -2.57735 0
M  V30 3041 H 299.28 0.448994 -2.53657 0
M  V30 3042 H 299.238 2.15957 -2.28495 0
M  V30 3043 N 303.011 1.40521 -0.713556 0
M  V30 3044 C 304.257 2.01221 -0.252564 0
M  V30 3045 C 304.59 1.56444 1.1506 0
M  V30 3046 O 303.865 0.783597 1.78017 0
M  V30 3047 C 304.148 3.58582 -0.330332 0
M  V30 3048 C 304.001 4.13437 -1.77173 0
M  V30 3049 C 305.32 4.39079 0.299641 0
M  V30 3050 H 302.439 0.731077 -0.0932471 0
M  V30 3051 H 305.081 1.67026 -0.905673 0
M  V30 3052 H 303.231 3.87844 0.225737 0
M  V30 3053 H 304.903 3.9498 -2.38303 0
M  V30 3054 H 303.146 3.67801 -2.3001 0
M  V30 3055 H 303.817 5.22597 -1.77755 0
M  V30 3056 H 306.293 4.15735 -0.174139 0
M  V30 3057 H 305.169 5.4848 0.214771 0
M  V30 3058 H 305.43 4.19915 1.38288 0
M  V30 3059 N 304.489 0.459591 1.5075 0
M  V30 3060 C 305.437 -0.354678 2.2988 0
M  V30 3061 C 306.431 -1.00086 1.36672 0
M  V30 3062 O 307.637 -0.933277 1.53915 0
M  V30 3063 H 304.012 -0.13321 0.740107 0
M  V30 3064 H 305.983 0.333269 2.96533 0
M  V30 3065 C 304.732 -1.43073 3.169 0
M  V30 3066 H 304.055 -0.942882 3.88523 0
M  V30 3067 H 305.495 -1.97328 3.75284 0
M  V30 3068 C 303.954 -2.42633 2.33732 0
M  V30 3069 O 304.484 -3.47658 2.01238 0
M  V30 3070 N 302.69 -2.14066 1.9653 0
M  V30 3071 H 302.237 -1.28685 2.23155 0
M  V30 3072 H 302.195 -2.80917 1.41185 0
M  V30 3073 N 305.967 -1.56429 0.191757 0
M  V30 3074 C 306.917 -2.15548 -0.743184 0
M  V30 3075 C 307.901 -1.09531 -1.17863 0
M  V30 3076 O 309.093 -1.35602 -1.13759 0
M  V30 3077 C 306.222 -2.81577 -1.96391 0
M  V30 3078 C 305.308 -3.9478 -1.54951 0
M  V30 3079 N 305.699 -4.98677 -0.845876 0
M  V30 3080 C 303.997 -4.06319 -1.83905 0
M  V30 3081 C 304.698 -5.78183 -0.638724 0
M  V30 3082 N 303.674 -5.30495 -1.18643 0
M  V30 3083 H 307.476 -2.9324 -0.196839 0
M  V30 3084 H 304.99 -1.62398 -0.0081603 0
M  V30 3085 H 306.987 -3.22321 -2.64415 0
M  V30 3086 H 305.647 -2.05371 -2.51501 0
M  V30 3087 H 306.658 -5.15464 -0.501704 0
M  V30 3088 H 303.335 -3.41238 -2.40548 0
M  V30 3089 H 304.725 -6.71851 -0.0807929 0
M  V30 3090 N 307.445 0.0818655 -1.57387 0
M  V30 3091 C 308.392 1.09834 -2.0299 0
M  V30 3092 C 309.362 1.39043 -0.908639 0
M  V30 3093 O 310.547 1.50282 -1.17559 0
M  V30 3094 C 307.687 2.40971 -2.47037 0
M  V30 3095 C 306.8 2.18379 -3.7274 0
M  V30 3096 C 305.935 3.43008 -4.0561 0
M  V30 3097 C 304.974 3.15736 -5.24383 0
M  V30 3098 N 304.111 4.32667 -5.52941 0
M  V30 3099 H 308.951 0.702472 -2.89602 0
M  V30 3100 H 306.488 0.33531 -1.43227 0
M  V30 3101 H 308.446 3.1752 -2.70623 0
M  V30 3102 H 307.076 2.78379 -1.63417 0
M  V30 3103 H 306.128 1.32569 -3.56552 0
M  V30 3104 H 307.44 1.94227 -4.59431 0
M  V30 3105 H 306.594 4.27958 -4.30043 0
M  V30 3106 H 305.333 3.70225 -3.17466 0
M  V30 3107 H 304.338 2.2918 -4.99757 0
M  V30 3108 H 305.563 2.8985 -6.14136 0
M  V30 3109 H 303.509 4.59935 -4.67756 0
M  V30 3110 H 303.426 4.11753 -6.34031 0
M  V30 3111 H 304.694 5.18644 -5.81918 0
M  V30 3112 N 308.923 1.53595 0.353017 0
M  V30 3113 C 310.334 1.61937 0.929153 0
M  V30 3114 C 310.685 0.494686 1.89861 0
M  V30 3115 O 309.81 -0.377017 2.1309 0
M  V30 3116 C 310.405 2.93526 1.69199 0
M  V30 3117 C 308.964 3.04161 2.21727 0
M  V30 3118 C 308.111 2.57322 1.03348 0
M  V30 3119 H 311.062 1.58155 0.131431 0
M  V30 3120 H 311.083 2.82034 2.55416 0
M  V30 3121 H 310.595 3.75362 0.986144 0
M  V30 3122 H 308.696 2.26938 2.95516 0
M  V30 3123 H 308.809 4.09465 2.48748 0
M  V30 3124 H 307.173 2.12499 1.40414 0
M  V30 3125 H 307.956 3.41588 0.342428 0
M  V30 3126 N 310.401 -0.613514 1.45168 0
M  V30 3127 C 311.626 -1.40437 1.52618 0
M  V30 3128 C 312.051 -1.87438 0.157707 0
M  V30 3129 O 311.409 -1.59791 -0.856537 0
M  V30 3130 C 311.457 -2.58894 2.51011 0
M  V30 3131 O 310.561 -3.59326 2.02382 0
M  V30 3132 H 309.902 -0.419506 0.514695 0
M  V30 3133 H 312.432 -0.747215 1.90467 0
M  V30 3134 H 312.442 -3.06214 2.69624 0
M  V30 3135 H 311.117 -2.24032 3.50403 0
M  V30 3136 H 309.694 -3.18695 1.93618 0
M  V30 3137 N 311.879 -1.3236 -0.855495 0
M  V30 3138 C 312.827 -1.2118 -1.9854 0
M  V30 3139 C 313.821 -0.116788 -1.68997 0
M  V30 3140 O 315.027 -0.279657 -1.77814 0
M  V30 3141 H 311.402 -0.375608 -0.651477 0
M  V30 3142 H 313.373 -2.16743 -2.05098 0
M  V30 3143 C 312.122 -0.950849 -3.34446 0
M  V30 3144 H 311.445 -1.78563 -3.57708 0
M  V30 3145 H 312.885 -0.912863 -4.14057 0
M  V30 3146 C 311.344 0.346404 -3.35114 0
M  V30 3147 O 311.874 1.35855 -3.7803 0
M  V30 3148 N 310.08 0.36808 -2.88259 0
M  V30 3149 H 309.627 -0.456102 -2.5353 0
M  V30 3150 H 309.585 1.23591 -2.89089 0
M  V30 3151 N 313.357 1.07166 -1.15556 0
M  V30 3152 C 314.585 1.83514 -0.955519 0
M  V30 3153 C 315 1.82163 0.49621 0
M  V30 3154 O 314.357 1.23441 1.34419 0
M  V30 3155 C 314.408 3.30515 -1.46432 0
M  V30 3156 O 314.129 3.31937 -2.85918 0
M  V30 3157 C 315.63 4.23625 -1.30603 0
M  V30 3158 H 312.85 0.578926 -0.339244 0
M  V30 3159 H 315.394 1.35265 -1.53374 0
M  V30 3160 H 313.549 3.76106 -0.928584 0
M  V30 3161 H 313.963 4.23794 -3.09029 0
M  V30 3162 H 315.437 5.24831 -1.71047 0
M  V30 3163 H 315.914 4.38485 -0.250441 0
M  V30 3164 H 316.52 3.83871 -1.83094 0
M  V30 3165 N 314.835 0.952656 1.25548 0
M  V30 3166 C 315.782 0.47008 2.25962 0
M  V30 3167 C 316.752 -0.476384 1.59122 0
M  V30 3168 O 317.937 -0.39007 1.8677 0
M  V30 3169 C 315.077 -0.247881 3.44209 0
M  V30 3170 C 314.19 0.735591 4.25691 0
M  V30 3171 C 313.325 -0.0047306 5.312 0
M  V30 3172 C 312.364 0.969805 6.04368 0
M  V30 3173 N 311.501 0.260486 7.01617 0
M  V30 3174 H 316.341 1.33126 2.66611 0
M  V30 3175 H 313.878 0.66765 1.31076 0
M  V30 3176 H 315.836 -0.680695 4.1161 0
M  V30 3177 H 314.466 -1.07312 3.0444 0
M  V30 3178 H 313.518 1.28689 3.57971 0
M  V30 3179 H 314.83 1.47934 4.76358 0
M  V30 3180 H 313.984 -0.496275 6.04667 0
M  V30 3181 H 312.723 -0.781282 4.81401 0
M  V30 3182 H 311.728 1.47237 5.29718 0
M  V30 3183 H 312.953 1.74655 6.56256 0
M  V30 3184 H 310.899 -0.497364 6.54112 0
M  V30 3185 H 310.816 0.943362 7.50091 0
M  V30 3186 H 312.084 -0.209587 7.79218 0
M  V30 3187 N 316.313 -1.40141 0.720998 0
M  V30 3188 C 317.559 -2.01084 0.263231 0
M  V30 3189 C 317.892 -1.57052 -1.14229 0
M  V30 3190 O 317.167 -0.793027 -1.77599 0
M  V30 3191 C 317.45 -3.58401 0.349344 0
M  V30 3192 C 317.303 -4.12491 1.79363 0
M  V30 3193 C 318.622 -4.39231 -0.276351 0
M  V30 3194 H 315.741 -0.730572 0.0971228 0
M  V30 3195 H 318.383 -1.66543 0.914518 0
M  V30 3196 H 316.533 -3.87958 -0.205165 0
M  V30 3197 H 318.205 -3.93711 2.40394 0
M  V30 3198 H 316.448 -3.66576 2.31958 0
M  V30 3199 H 317.119 -5.21646 1.80524 0
M  V30 3200 H 319.595 -4.15637 0.196184 0
M  V30 3201 H 318.471 -5.48586 -0.185681 0
M  V30 3202 H 318.732 -4.20643 -1.36059 0
M  V30 3203 N 317.792 -0.46758 -1.50504 0
M  V30 3204 C 319.069 0.15003 -1.95024 0
M  V30 3205 C 319.449 1.57304 -1.40779 0
M  V30 3206 O 318.797 2.20281 -0.607319 0
M  V30 3207 C 319.007 0.0969324 -3.48865 0
M  V30 3208 C 320.355 0.287565 -4.23625 0
M  V30 3209 O 321.379 0.173678 -3.55776 0
M  V30 3210 O 320.238 0.517186 -5.44047 0
M  V30 3211 H 317.332 0.113582 -0.819163 0
M  V30 3212 H 319.878 -0.52773 -1.61286 0
M  V30 3213 H 318.65 -0.896732 -3.80886 0
M  V30 3214 H 318.273 0.816303 -3.8913 0
M  V30 3215 N 319.27 1.56325 -0.20005 0
M  V30 3216 C 320.217 2.1932 0.718833 0
M  V30 3217 C 321.187 1.14198 1.20615 0
M  V30 3218 O 322.372 1.42469 1.26914 0
M  V30 3219 C 319.512 2.86041 1.93066 0
M  V30 3220 C 318.625 4.05702 1.48425 0
M  V30 3221 C 317.76 4.60266 2.65196 0
M  V30 3222 C 316.799 5.72273 2.17185 0
M  V30 3223 N 315.936 6.21221 3.27152 0
M  V30 3224 H 320.776 2.97486 0.17489 0
M  V30 3225 H 318.313 1.46911 0.0745794 0
M  V30 3226 H 320.271 3.22897 2.64184 0
M  V30 3227 H 318.901 2.1043 2.44783 0
M  V30 3228 H 317.953 3.74475 0.668755 0
M  V30 3229 H 319.265 4.86699 1.09204 0
M  V30 3230 H 318.419 4.99453 3.4443 0
M  V30 3231 H 317.158 3.78386 3.07693 0
M  V30 3232 H 316.163 5.3261 1.36407 0
M  V30 3233 H 317.388 6.55974 1.75713 0
M  V30 3234 H 315.334 5.42263 3.69171 0
M  V30 3235 H 315.251 6.97284 2.92116 0
M  V30 3236 H 316.519 6.65063 4.06585 0
M  V30 3237 N 320.748 -0.0735177 1.57428 0
M  V30 3238 C 321.695 -1.08756 2.0357 0
M  V30 3239 C 322.665 -1.38559 0.916 0
M  V30 3240 O 323.85 -1.49656 1.18354 0
M  V30 3241 C 320.99 -2.39657 2.48311 0
M  V30 3242 C 320.103 -2.16399 3.73892 0
M  V30 3243 C 319.238 -3.40852 4.07423 0
M  V30 3244 C 318.277 -3.1295 5.2605 0
M  V30 3245 N 317.414 -4.29729 5.55228 0
M  V30 3246 H 322.254 -0.687104 2.8997 0
M  V30 3247 H 319.791 -0.327709 1.43403 0
M  V30 3248 H 321.749 -3.16081 2.72303 0
M  V30 3249 H 320.379 -2.77508 1.64891 0
M  V30 3250 H 319.431 -1.30676 3.57251 0
M  V30 3251 H 320.743 -1.91788 4.60455 0
M  V30 3252 H 319.897 -4.25671 4.32306 0
M  V30 3253 H 318.636 -3.68537 3.19425 0
M  V30 3254 H 317.641 -2.26526 5.00965 0
M  V30 3255 H 318.866 -2.86589 6.15665 0
M  V30 3256 H 316.812 -4.57448 4.70188 0
M  V30 3257 H 316.729 -4.08385 6.36206 0
M  V30 3258 H 317.997 -5.1555 5.84661 0
M  V30 3259 N 322.226 -1.5378 -0.344866 0
M  V30 3260 C 323.472 -1.71216 -1.08687 0
M  V30 3261 C 323.805 -0.473281 -1.88345 0
M  V30 3262 O 323.08 0.52968 -1.87149 0
M  V30 3263 C 323.363 -2.97486 -2.02914 0
M  V30 3264 C 323.216 -4.31579 -1.26727 0
M  V30 3265 C 324.535 -3.19422 -3.0275 0
M  V30 3266 H 321.654 -0.62301 -0.393735 0
M  V30 3267 H 324.296 -1.8645 -0.365563 0
M  V30 3268 H 322.446 -2.84629 -2.64421 0
M  V30 3269 H 324.118 -4.56284 -0.67845 0
M  V30 3270 H 322.361 -4.30049 -0.569273 0
M  V30 3271 H 323.032 -5.16106 -1.95803 0
M  V30 3272 H 325.508 -3.316 -2.51357 0
M  V30 3273 H 324.384 -4.09169 -3.65885 0
M  V30 3274 H 324.645 -2.35656 -3.74057 0
M  V30 3275 N 323.704 0.605807 -1.45491 0
M  V30 3276 C 324.614 1.74466 -1.56839 0
M  V30 3277 C 325.63 1.68006 -0.452772 0
M  V30 3278 O 326.806 1.8833 -0.713708 0
M  V30 3279 C 323.871 3.10931 -1.53371 0
M  V30 3280 C 322.932 3.28832 -2.75986 0
M  V30 3281 C 322.165 4.58787 -2.72673 0
M  V30 3282 O 322.388 5.4122 -1.80102 0
M  V30 3283 O 321.322 4.79438 -3.63899 0
M  V30 3284 H 325.148 1.67843 -2.53106 0
M  V30 3285 H 322.733 0.770108 -1.28022 0
M  V30 3286 H 324.615 3.92233 -1.54051 0
M  V30 3287 H 323.29 3.18042 -0.602572 0
M  V30 3288 H 322.197 2.47112 -2.80867 0
M  V30 3289 H 323.53 3.26599 -3.68231 0
M  V30 3290 N 325.182 1.32811 0.848464 0
M  V30 3291 C 326.145 1.22194 1.9391 0
M  V30 3292 C 327.145 0.143404 1.60159 0
M  V30 3293 O 328.335 0.394253 1.6968 0
M  V30 3294 C 325.467 0.88067 3.29328 0
M  V30 3295 H 326.66 2.19127 2.04752 0
M  V30 3296 H 324.213 1.16731 1.0394 0
M  V30 3297 H 324.948 -0.0865776 3.24184 0
M  V30 3298 H 324.733 1.66052 3.55203 0
M  V30 3299 H 326.223 0.830871 4.09251 0
M  V30 3300 N 326.66 -1.06551 1.16123 0
M  V30 3301 C 328.071 -1.60768 0.949232 0
M  V30 3302 C 328.422 -1.89523 -0.507508 0
M  V30 3303 O 327.547 -1.66671 -1.38021 0
M  V30 3304 C 328.142 -2.92086 1.71671 0
M  V30 3305 C 326.701 -3.43015 1.54977 0
M  V30 3306 C 325.848 -2.16947 1.72711 0
M  V30 3307 H 328.799 -0.895354 1.31031 0
M  V30 3308 H 328.82 -3.6138 1.19099 0
M  V30 3309 H 328.332 -2.71127 2.7769 0
M  V30 3310 H 326.433 -3.69039 0.513873 0
M  V30 3311 H 326.546 -4.18516 2.33198 0
M  V30 3312 H 324.91 -2.27041 1.15431 0
M  V30 3313 H 325.693 -1.98473 2.80113 0
M  V30 3314 N 328.138 -0.959301 -1.25041 0
M  V30 3315 C 329.048 -0.489994 -2.29426 0
M  V30 3316 C 330.064 0.444944 -1.68215 0
M  V30 3317 O 331.24 0.320046 -1.98841 0
M  V30 3318 C 328.305 0.220309 -3.45999 0
M  V30 3319 C 327.366 -0.753418 -4.22637 0
M  V30 3320 C 326.599 -0.076918 -5.33645 0
M  V30 3321 O 326.822 1.13649 -5.58963 0
M  V30 3322 O 325.756 -0.764824 -5.97021 0
M  V30 3323 H 329.582 -1.35755 -2.71669 0
M  V30 3324 H 327.167 -0.725961 -1.30576 0
M  V30 3325 H 329.049 0.619677 -4.16819 0
M  V30 3326 H 327.724 1.06296 -3.0575 0
M  V30 3327 H 326.631 -1.20308 -3.54227 0
M  V30 3328 H 327.964 -1.56423 -4.66683 0
M  V30 3329 N 329.616 1.39756 -0.72842 0
M  V30 3330 C 330.546 2.33289 -0.0991354 0
M  V30 3331 C 331.527 1.53568 0.731489 0
M  V30 3332 O 332.712 1.81987 0.677807 0
M  V30 3333 C 329.842 3.3763 0.813834 0
M  V30 3334 C 328.796 4.2791 0.0878663 0
M  V30 3335 C 328.122 5.22894 1.11741 0
M  V30 3336 C 329.422 5.11314 -1.06563 0
M  V30 3337 H 331.116 2.86163 -0.880408 0
M  V30 3338 H 328.662 1.37591 -0.424819 0
M  V30 3339 H 330.615 4.0201 1.26355 0
M  V30 3340 H 329.339 2.83181 1.62715 0
M  V30 3341 H 327.998 3.65 -0.342159 0
M  V30 3342 H 327.646 4.64744 1.92412 0
M  V30 3343 H 327.346 5.84143 0.636477 0
M  V30 3344 H 328.87 5.90151 1.56697 0
M  V30 3345 H 330.284 5.69076 -0.694671 0
M  V30 3346 H 328.681 5.81671 -1.47577 0
M  V30 3347 H 329.751 4.46534 -1.89038 0
M  V30 3348 N 331.094 0.475555 1.50254 0
M  V30 3349 C 332.024 -0.30611 2.31485 0
M  V30 3350 C 333.005 -0.986228 1.38591 0
M  V30 3351 O 334.19 -0.982541 1.67511 0
M  V30 3352 C 331.32 -1.38588 3.1845 0
M  V30 3353 C 330.274 -0.827115 4.19932 0
M  V30 3354 C 329.6 -2.00551 4.95665 0
M  V30 3355 C 330.9 0.16463 5.2204 0
M  V30 3356 H 332.594 0.371866 2.97082 0
M  V30 3357 H 330.14 0.180282 1.42867 0
M  V30 3358 H 332.093 -1.94023 3.74076 0
M  V30 3359 H 330.817 -2.09269 2.50747 0
M  V30 3360 H 329.476 -0.294702 3.65414 0
M  V30 3361 H 329.124 -2.6994 4.2443 0
M  V30 3362 H 328.824 -1.63784 5.64313 0
M  V30 3363 H 330.348 -2.56468 5.54127 0
M  V30 3364 H 331.762 -0.300699 5.72511 0
M  V30 3365 H 330.159 0.446813 5.98434 0
M  V30 3366 H 331.229 1.08905 4.72512 0
M  V30 3367 N 332.573 -1.56217 0.208337 0
M  V30 3368 C 333.821 -1.97558 -0.426076 0
M  V30 3369 C 334.142 -1.09683 -1.61229 0
M  V30 3370 O 333.412 -0.170956 -1.95153 0
M  V30 3371 H 331.992 -0.729575 -0.160405 0
M  V30 3372 H 334.654 -1.92606 0.298155 0
M  V30 3373 H 333.75 -3.02672 -0.761312 0
M  V30 3374 N 334.051 0.0651679 -1.57465 0
M  V30 3375 C 335.299 0.761555 -1.87202 0
M  V30 3376 C 335.62 1.77778 -0.801243 0
M  V30 3377 O 334.89 1.95166 0.16937 0
M  V30 3378 H 333.47 0.284251 -0.690804 0
M  V30 3379 H 336.132 0.0396827 -1.9486 0
M  V30 3380 H 335.228 1.27365 -2.84929 0
M  V30 3381 N 335.529 1.53961 0.336706 0
M  V30 3382 C 336.94 1.62914 0.911925 0
M  V30 3383 C 337.291 0.514795 1.89326 0
M  V30 3384 O 336.416 -0.354395 2.13478 0
M  V30 3385 C 337.011 2.95304 1.66076 0
M  V30 3386 C 335.57 3.06496 2.18489 0
M  V30 3387 C 334.717 2.58403 1.00613 0
M  V30 3388 H 337.668 1.58285 0.114649 0
M  V30 3389 H 337.689 2.84727 2.5241 0
M  V30 3390 H 337.201 3.76387 0.946276 0
M  V30 3391 H 335.302 2.3006 2.93092 0
M  V30 3392 H 335.415 4.1208 2.44391 0
M  V30 3393 H 333.779 2.13977 1.38152 0
M  V30 3394 H 334.562 3.41932 0.306179 0
M  V30 3395 N 337.007 -0.598083 1.45811 0
M  V30 3396 C 338.232 -1.3881 1.54099 0
M  V30 3397 C 338.657 -1.8726 0.177578 0
M  V30 3398 O 338.015 -1.6069 -0.839541 0
M  V30 3399 C 338.063 -2.56217 2.53743 0
M  V30 3400 O 337.167 -3.5716 2.06182 0
M  V30 3401 H 336.508 -0.414024 0.519115 0
M  V30 3402 H 339.038 -0.726971 1.91249 0
M  V30 3403 H 339.048 -3.03337 2.72856 0
M  V30 3404 H 337.723 -2.20303 3.5276 0
M  V30 3405 H 336.3 -3.16624 1.96987 0
M  V30 3406 N 338.485 -1.33259 -0.841409 0
M  V30 3407 C 339.731 -1.24757 -1.59886 0
M  V30 3408 C 340.064 0.186913 -1.93298 0
M  V30 3409 O 339.339 1.12757 -1.5848 0
M  V30 3410 C 339.622 -2.12036 -2.91055 0
M  V30 3411 C 339.475 -3.63929 -2.6434 0
M  V30 3412 C 340.794 -1.9916 -3.92458 0
M  V30 3413 H 337.913 -0.454542 -0.580138 0
M  V30 3414 H 340.555 -1.63335 -0.970647 0
M  V30 3415 H 338.705 -1.79265 -3.44669 0
M  V30 3416 H 340.377 -4.06978 -2.17178 0
M  V30 3417 H 338.62 -3.85935 -1.98082 0
M  V30 3418 H 339.291 -4.20341 -3.57796 0
M  V30 3419 H 341.767 -2.27895 -3.48143 0
M  V30 3420 H 340.643 -2.62484 -4.82072 0
M  V30 3421 H 340.904 -0.963082 -4.31482 0
M  V30 3422 N 339.963 1.05934 -1.16686 0
M  V30 3423 C 341.21 1.788 -0.950622 0
M  V30 3424 C 341.538 1.87384 0.521305 0
M  V30 3425 O 340.793 1.36438 1.40297 0
M  V30 3426 C 341.092 3.23105 -1.52767 0
M  V30 3427 C 340.758 3.34594 -3.02254 0
M  V30 3428 C 339.42 3.37437 -3.43059 0
M  V30 3429 C 341.772 3.36219 -3.98254 0
M  V30 3430 C 339.1 3.39525 -4.78477 0
M  V30 3431 C 341.452 3.39845 -5.33562 0
M  V30 3432 C 340.116 3.40971 -5.73842 0
M  V30 3433 H 339.386 0.654275 -0.347857 0
M  V30 3434 H 342.033 1.24555 -1.45459 0
M  V30 3435 H 340.338 3.80227 -0.94524 0
M  V30 3436 H 342.035 3.7809 -1.336 0
M  V30 3437 H 338.625 3.3309 -2.6972 0
M  V30 3438 H 342.809 3.33231 -3.67792 0
M  V30 3439 H 338.065 3.38703 -5.09009 0
M  V30 3440 H 342.239 3.4005 -6.07733 0
M  V30 3441 H 339.866 3.42342 -6.78753 0
M  V30 3442 N 341.441 0.965919 1.2453 0
M  V30 3443 C 342.371 0.513476 2.27784 0
M  V30 3444 C 343.352 -0.445974 1.6415 0
M  V30 3445 O 344.537 -0.342485 1.91156 0
M  V30 3446 C 341.667 -0.198839 3.4673 0
M  V30 3447 C 340.621 0.676456 4.2262 0
M  V30 3448 C 339.947 -0.167248 5.34438 0
M  V30 3449 C 341.247 1.96017 4.84123 0
M  V30 3450 H 342.941 1.3765 2.65881 0
M  V30 3451 H 340.487 0.663321 1.27813 0
M  V30 3452 H 342.44 -0.526567 4.18097 0
M  V30 3453 H 341.164 -1.0962 3.07654 0
M  V30 3454 H 339.823 0.98743 3.53052 0
M  V30 3455 H 339.471 -1.0647 4.91603 0
M  V30 3456 H 339.171 0.415181 5.86131 0
M  V30 3457 H 340.695 -0.489688 6.08633 0
M  V30 3458 H 342.109 1.69814 5.47573 0
M  V30 3459 H 340.506 2.48918 5.4604 0
M  V30 3460 H 341.576 2.65622 4.05676 0
M  V30 3461 N 342.919 -1.39368 0.735821 0
M  V30 3462 C 344.166 -2.00497 0.284123 0
M  V30 3463 C 344.494 -1.58387 -1.12889 0
M  V30 3464 O 343.749 -0.804359 -1.78406 0
M  V30 3465 C 344.048 -3.5583 0.334651 0
M  V30 3466 C 343.714 -4.17593 1.7008 0
M  V30 3467 C 342.376 -4.34176 2.07472 0
M  V30 3468 C 344.728 -4.51848 2.59775 0
M  V30 3469 C 342.056 -4.82304 3.34065 0
M  V30 3470 C 344.408 -5.01384 3.85741 0
M  V30 3471 C 343.072 -5.16175 4.23225 0
M  V30 3472 H 342.342 -0.73367 0.103968 0
M  V30 3473 H 344.989 -1.66683 0.942825 0
M  V30 3474 H 343.294 -3.89674 -0.407625 0
M  V30 3475 H 344.991 -4.00986 -0.0329927 0
M  V30 3476 H 341.581 -4.05087 1.40008 0
M  V30 3477 H 345.765 -4.38653 2.32157 0
M  V30 3478 H 341.021 -4.91941 3.63049 0
M  V30 3479 H 345.195 -5.26863 4.55399 0
M  V30 3480 H 342.822 -5.5323 5.21384 0
M  V30 3481 N 344.397 -0.483516 -1.5 0
M  V30 3482 C 345.808 -0.0314176 -1.86674 0
M  V30 3483 C 346.159 1.37728 -1.39733 0
M  V30 3484 O 345.284 2.02327 -0.767635 0
M  V30 3485 C 345.879 -0.0502376 -3.38763 0
M  V30 3486 C 344.438 0.346442 -3.74802 0
M  V30 3487 C 343.585 -0.430366 -2.7394 0
M  V30 3488 H 346.536 -0.697182 -1.42566 0
M  V30 3489 H 346.557 0.749116 -3.73053 0
M  V30 3490 H 346.069 -1.07563 -3.72897 0
M  V30 3491 H 344.17 1.37572 -3.46273 0
M  V30 3492 H 344.283 0.0391486 -4.79084 0
M  V30 3493 H 342.647 0.117557 -2.54429 0
M  V30 3494 H 343.43 -1.4555 -3.10918 0
M  V30 3495 N 345.875 1.56104 -0.216619 0
M  V30 3496 C 347.286 1.844 0.292128 0
M  V30 3497 C 347.637 1.13788 1.59833 0
M  V30 3498 O 346.762 0.405888 2.12559 0
M  V30 3499 C 347.357 3.3452 0.53681 0
M  V30 3500 C 345.916 3.63151 0.989876 0
M  V30 3501 C 345.063 2.77255 0.0502302 0
M  V30 3502 H 348.014 1.52481 -0.439926 0
M  V30 3503 H 348.035 3.54459 1.38345 0
M  V30 3504 H 347.547 3.85885 -0.414031 0
M  V30 3505 H 345.648 3.17238 1.95425 0
M  V30 3506 H 345.761 4.71177 0.867698 0
M  V30 3507 H 344.125 2.48555 0.556117 0
M  V30 3508 H 344.908 3.31416 -0.89544 0
M  V30 3509 N 347.353 -0.0568162 1.57498 0
M  V30 3510 C 348.3 -1.06591 2.04712 0
M  V30 3511 C 349.27 -1.3758 0.930644 0
M  V30 3512 O 350.455 -1.48392 1.19935 0
M  V30 3513 C 347.595 -2.3701 2.50839 0
M  V30 3514 C 346.708 -2.12421 3.76167 0
M  V30 3515 C 345.843 -3.36511 4.11015 0
M  V30 3516 C 344.882 -3.07353 5.2934 0
M  V30 3517 N 344.019 -4.23816 5.59754 0
M  V30 3518 H 348.859 -0.65631 2.90683 0
M  V30 3519 H 346.396 -0.312481 1.43743 0
M  V30 3520 H 348.354 -3.13175 2.7564 0
M  V30 3521 H 346.984 -2.75744 1.67825 0
M  V30 3522 H 346.036 -1.2688 3.58616 0
M  V30 3523 H 347.348 -1.86894 4.62463 0
M  V30 3524 H 346.502 -4.21062 4.36797 0
M  V30 3525 H 345.241 -3.65128 3.23315 0
M  V30 3526 H 344.246 -2.212 5.03339 0
M  V30 3527 H 345.471 -2.80043 6.1867 0
M  V30 3528 H 343.417 -4.52436 4.75014 0
M  V30 3529 H 343.334 -4.01614 6.40501 0
M  V30 3530 H 344.602 -5.0932 5.90096 0
M  V30 3531 N 348.832 -1.54138 -0.328536 0
M  V30 3532 C 350.243 -1.63395 -0.903272 0
M  V30 3533 C 350.594 -0.524828 -1.8905 0
M  V30 3534 O 349.719 0.343068 -2.13663 0
M  V30 3535 C 350.314 -2.9618 -1.64507 0
M  V30 3536 C 348.873 -3.0765 -2.1686 0
M  V30 3537 C 348.02 -2.58933 -0.992416 0
M  V30 3538 H 350.971 -1.58344 -0.106253 0
M  V30 3539 H 350.992 -2.86061 -2.50897 0
M  V30 3540 H 350.504 -3.76884 -0.926302 0
M  V30 3541 H 348.605 -2.31611 -2.91868 0
M  V30 3542 H 348.718 -4.1337 -2.42202 0
M  V30 3543 H 347.082 -2.14706 -1.37016 0
M  V30 3544 H 347.865 -3.42089 -0.288041 0
M  V30 3545 N 350.31 0.590341 -1.46126 0
M  V30 3546 C 351.257 1.69994 -1.56111 0
M  V30 3547 C 352.227 1.61065 -0.405867 0
M  V30 3548 O 353.412 1.8039 -0.621613 0
M  V30 3549 C 350.552 3.08326 -1.55013 0
M  V30 3550 C 349.665 3.27936 -2.81215 0
M  V30 3551 C 348.8 4.56473 -2.71673 0
M  V30 3552 C 347.839 4.694 -3.92849 0
M  V30 3553 N 346.976 5.89254 -3.81738 0
M  V30 3554 H 351.816 1.60797 -2.50895 0
M  V30 3555 H 349.353 0.783799 -1.24479 0
M  V30 3556 H 351.311 3.88383 -1.52362 0
M  V30 3557 H 349.941 3.16439 -0.637667 0
M  V30 3558 H 348.993 2.41536 -2.93879 0
M  V30 3559 H 350.305 3.33357 -3.71045 0
M  V30 3560 H 349.459 5.44748 -2.67085 0
M  V30 3561 H 348.198 4.53477 -1.7947 0
M  V30 3562 H 347.203 3.79544 -3.97777 0
M  V30 3563 H 348.428 4.7418 -4.86138 0
M  V30 3564 H 346.374 5.87271 -2.92317 0
M  V30 3565 H 346.291 5.95911 -4.65217 0
M  V30 3566 H 347.559 6.79981 -3.81112 0
M  V30 3567 N 351.788 1.33704 0.83433 0
M  V30 3568 C 353.065 1.16011 1.57483 0
M  V30 3569 C 353.445 -0.27176 2.09343 0
M  V30 3570 O 352.793 -1.27146 1.89858 0
M  V30 3571 C 353.003 2.20507 2.70514 0
M  V30 3572 C 354.351 2.54898 3.39577 0
M  V30 3573 O 355.375 2.19209 2.80759 0
M  V30 3574 O 354.234 3.16158 4.45765 0
M  V30 3575 H 351.328 0.448992 0.694503 0
M  V30 3576 H 353.874 1.453 0.876691 0
M  V30 3577 H 352.646 3.16667 2.29865 0
M  V30 3578 H 352.269 1.92329 3.47987 0
M  V30 3579 N 353.266 -1.05314 1.17247 0
M  V30 3580 C 354.494 -1.81971 0.984593 0
M  V30 3581 C 354.909 -1.82929 -0.467166 0
M  V30 3582 O 354.266 -1.25564 -1.32438 0
M  V30 3583 C 354.317 -3.28143 1.51672 0
M  V30 3584 O 354.038 -3.27347 2.91163 0
M  V30 3585 C 355.539 -4.21493 1.37326 0
M  V30 3586 H 352.759 -0.573455 0.348411 0
M  V30 3587 H 355.303 -1.32808 1.55506 0
M  V30 3588 H 353.458 -3.74582 0.988302 0
M  V30 3589 H 353.872 -4.18824 3.15732 0
M  V30 3590 H 355.346 -5.22043 1.79375 0
M  V30 3591 H 355.823 -4.38031 0.320169 0
M  V30 3592 H 356.429 -3.80909 1.89178 0
M  V30 3593 N 354.744 -0.972509 -1.24016 0
M  V30 3594 C 355.674 -0.525548 -2.27509 0
M  V30 3595 C 356.655 0.437262 -1.64384 0
M  V30 3596 O 357.84 0.332343 -1.91335 0
M  V30 3597 C 354.97 0.180448 -3.46831 0
M  V30 3598 C 353.924 -0.698859 -4.22256 0
M  V30 3599 C 353.25 0.138903 -5.3452 0
M  V30 3600 C 354.55 -1.98582 -4.83076 0
M  V30 3601 H 356.244 -1.39058 -2.65148 0
M  V30 3602 H 353.79 -0.67009 -1.27459 0
M  V30 3603 H 355.743 0.504387 -4.18371 0
M  V30 3604 H 354.467 1.07987 -3.08231 0
M  V30 3605 H 353.126 -1.00614 -3.52523 0
M  V30 3606 H 352.774 1.03862 -4.9216 0
M  V30 3607 H 352.474 -0.446259 -5.85903 0
M  V30 3608 H 353.998 0.457404 -6.08884 0
M  V30 3609 H 355.412 -1.72715 -5.46665 0
M  V30 3610 H 353.809 -2.5181 -5.44713 0
M  V30 3611 H 354.879 -2.67769 -4.04262 0
M  V30 3612 N 356.222 1.38976 -0.743202 0
M  V30 3613 C 357.155 2.28128 -0.0572165 0
M  V30 3614 C 358.133 1.44827 0.739182 0
M  V30 3615 O 359.317 1.74207 0.720009 0
M  V30 3616 C 356.444 3.25796 0.926001 0
M  V30 3617 C 355.49 4.25947 0.217099 0
M  V30 3618 S 356.323 5.24604 -1.07477 0
M  V30 3619 C 357.479 6.25829 -0.0943545 0
M  V30 3620 H 357.712 2.85961 -0.813246 0
M  V30 3621 H 355.245 1.44822 -0.535341 0
M  V30 3622 H 357.203 3.82583 1.48797 0
M  V30 3623 H 355.864 2.66966 1.65493 0
M  V30 3624 H 355.057 4.94746 0.961372 0
M  V30 3625 H 354.659 3.73002 -0.273059 0
M  V30 3626 H 356.951 6.73411 0.743239 0
M  V30 3627 H 357.894 7.0412 -0.749713 0
M  V30 3628 H 358.302 5.63797 0.281706 0
M  V30 3629 N 357.7 0.491464 1.49741 0
M  V30 3630 C 358.949 -0.0582189 2.01616 0
M  V30 3631 C 359.262 -1.38927 1.3769 0
M  V30 3632 O 360.468 -2.02509 1.80838 0
M  V30 3633 C 358.924 -0.154235 3.59569 0
M  V30 3634 C 358.532 1.1696 4.32463 0
M  V30 3635 C 360.276 -0.65479 4.1942 0
M  V30 3636 C 358.183 1.03627 5.8225 0
M  V30 3637 H 357.113 -0.0255317 0.753568 0
M  V30 3638 H 359.764 0.629445 1.72367 0
M  V30 3639 H 358.146 -0.906138 3.85493 0
M  V30 3640 H 359.32 1.93405 4.18248 0
M  V30 3641 H 357.635 1.60285 3.84315 0
M  V30 3642 H 360.232 -0.771903 5.29099 0
M  V30 3643 H 360.575 -1.65127 3.8215 0
M  V30 3644 H 361.108 0.040304 3.9778 0
M  V30 3645 H 357.847 2.00672 6.24028 0
M  V30 3646 H 357.367 0.312546 5.98985 0
M  V30 3647 H 359.046 0.711114 6.4308 0
M  V30 3648 N 359.178 -1.55987 0.224894 0
M  V30 3649 C 360.403 -2.03232 -0.41369 0
M  V30 3650 C 360.828 -1.10359 -1.52323 0
M  V30 3651 O 360.186 -0.092395 -1.81064 0
M  V30 3652 C 360.234 -3.48682 -0.919405 0
M  V30 3653 O 359.338 -3.58947 -2.03054 0
M  V30 3654 H 358.679 -0.657428 -0.0931903 0
M  V30 3655 H 361.209 -2.01679 0.34451 0
M  V30 3656 H 361.219 -3.8907 -1.22835 0
M  V30 3657 H 359.894 -4.15761 -0.107339 0
M  V30 3658 H 358.471 -3.30448 -1.72796 0
M  V30 3659 N 360.656 0.0484629 -1.57525 0
M  V30 3660 C 362.072 0.40375 -1.54409 0
M  V30 3661 C 362.272 1.77786 -0.948384 0
M  V30 3662 O 361.328 2.46189 -0.560983 0
M  V30 3663 C 362.641 0.323394 -2.98956 0
M  V30 3664 C 364.189 0.401892 -3.10409 0
M  V30 3665 C 364.664 0.351195 -4.56652 0
M  V30 3666 N 366.155 0.410576 -4.61377 0
M  V30 3667 C 366.89 0.393933 -5.72045 0
M  V30 3668 N 366.386 0.330724 -6.9201 0
M  V30 3669 N 368.179 0.442227 -5.60358 0
M  V30 3670 H 360.33 -0.851016 -1.94606 0
M  V30 3671 H 362.593 -0.321721 -0.89174 0
M  V30 3672 H 362.299 -0.62011 -3.4619 0
M  V30 3673 H 362.173 1.12463 -3.60044 0
M  V30 3674 H 364.56 1.33582 -2.63134 0
M  V30 3675 H 364.641 -0.428342 -2.52188 0
M  V30 3676 H 364.285 -0.578987 -5.04589 0
M  V30 3677 H 364.215 1.19928 -5.12762 0
M  V30 3678 H 366.706 0.462729 -3.75056 0
M  V30 3679 H 367.019 0.322592 -7.72126 0
M  V30 3680 H 365.364 0.29706 -6.94365 0
M  V30 3681 H 368.555 0.489464 -4.65534 0
M  V30 3682 H 368.728 0.425788 -6.466 0
M  V30 3683 N 362.134 1.5431 0.320358 0
M  V30 3684 C 363.362 1.76636 1.07738 0
M  V30 3685 C 363.777 0.51649 1.81598 0
M  V30 3686 O 363.134 -0.512942 1.75143 0
M  V30 3687 C 363.185 2.96158 2.07299 0
M  V30 3688 O 362.906 4.16313 1.36438 0
M  V30 3689 C 364.407 3.3072 2.95193 0
M  V30 3690 H 361.627 0.589597 0.320339 0
M  V30 3691 H 364.171 2.01207 0.36551 0
M  V30 3692 H 362.326 2.73851 2.74016 0
M  V30 3693 H 362.74 4.83565 2.03138 0
M  V30 3694 H 364.214 4.17643 3.60941 0
M  V30 3695 H 364.691 2.48026 3.62463 0
M  V30 3696 H 365.297 3.55117 2.34034 0
M  V30 3697 N 363.613 -0.582584 1.46437 0
M  V30 3698 C 365.024 -1.1647 1.45916 0
M  V30 3699 C 365.375 -1.95177 0.200077 0
M  V30 3700 O 364.5 -2.04874 -0.696819 0
M  V30 3701 C 365.095 -2.11885 2.64367 0
M  V30 3702 C 363.654 -2.65421 2.66887 0
M  V30 3703 C 362.801 -1.41294 2.38603 0
M  V30 3704 H 365.752 -0.370514 1.54314 0
M  V30 3705 H 365.773 -2.9535 2.39892 0
M  V30 3706 H 365.285 -1.54573 3.5599 0
M  V30 3707 H 363.386 -3.26602 1.79338 0
M  V30 3708 H 363.499 -3.08147 3.66854 0
M  V30 3709 H 361.863 -1.71109 1.88663 0
M  V30 3710 H 362.646 -0.858125 3.32402 0
M  V30 3711 N 365.091 -1.34144 -0.827227 0
M  V30 3712 C 366.001 -1.27428 -1.96975 0
M  V30 3713 C 367.017 -0.182728 -1.73038 0
M  V30 3714 O 368.193 -0.408426 -1.97215 0
M  V30 3715 C 365.258 -1.02526 -3.31194 0
M  V30 3716 C 364.319 -2.20796 -3.68168 0
M  V30 3717 C 363.552 -1.97073 -4.95982 0
M  V30 3718 O 363.775 -0.926822 -5.6282 0
M  V30 3719 O 362.709 -2.83912 -5.30733 0
M  V30 3720 H 366.535 -2.23537 -2.05584 0
M  V30 3721 H 364.12 -1.14307 -0.961989 0
M  V30 3722 H 366.002 -0.904026 -4.11589 0
M  V30 3723 H 364.677 -0.0945389 -3.23562 0
M  V30 3724 H 363.584 -2.38477 -2.88235 0
M  V30 3725 H 364.917 -3.12243 -3.8048 0
M  V30 3726 N 366.569 1.04691 -1.17803 0
M  V30 3727 C 367.815 1.78045 -0.970969 0
M  V30 3728 C 368.148 1.87686 0.498751 0
M  V30 3729 O 367.423 1.38035 1.37027 0
M  V30 3730 C 367.706 3.2166 -1.61884 0
M  V30 3731 C 367.559 3.20001 -3.161 0
M  V30 3732 C 368.878 4.1962 -1.3269 0
M  V30 3733 H 365.997 0.64633 -0.354155 0
M  V30 3734 H 368.639 1.22333 -1.45378 0
M  V30 3735 H 366.789 3.69232 -1.20831 0
M  V30 3736 H 368.461 2.80467 -3.66246 0
M  V30 3737 H 366.704 2.58203 -3.48588 0
M  V30 3738 H 367.375 4.21386 -3.56564 0
M  V30 3739 H 369.851 3.80567 -1.68249 0
M  V30 3740 H 368.727 5.18339 -1.80599 0
M  V30 3741 H 368.988 4.414 -0.248622 0
M  V30 3742 N 368.047 0.979072 1.23499 0
M  V30 3743 C 369.275 0.665202 1.95915 0
M  V30 3744 C 369.69 -0.767571 1.72493 0
M  V30 3745 O 369.047 -1.51635 1.01554 0
M  V30 3746 C 369.098 0.944438 3.48945 0
M  V30 3747 O 368.819 2.3209 3.71572 0
M  V30 3748 C 370.32 0.646336 4.38563 0
M  V30 3749 H 367.54 0.247218 0.623798 0
M  V30 3750 H 370.084 1.31009 1.57025 0
M  V30 3751 H 368.239 0.345575 3.85856 0
M  V30 3752 H 368.653 2.40957 4.65876 0
M  V30 3753 H 370.127 0.892091 5.44744 0
M  V30 3754 H 370.604 -0.419575 4.37191 0
M  V30 3755 H 371.21 1.22562 4.07258 0
M  V30 3756 N 369.525 -1.3858 0.750561 0
M  V30 3757 C 370.765 -2.02032 0.310258 0
M  V30 3758 C 371.129 -1.58288 -1.08668 0
M  V30 3759 O 372.33 -2.14049 -1.62593 0
M  V30 3760 C 370.601 -3.54856 0.425647 0
M  V30 3761 S 372.16 -4.38748 0.0674797 0
M  V30 3762 H 368.978 -0.700705 0.120554 0
M  V30 3763 H 371.58 -1.69134 0.980512 0
M  V30 3764 H 370.284 -3.84182 1.44335 0
M  V30 3765 H 369.815 -3.92527 -0.261894 0
M  V30 3766 H 371.83 -4.82835 -1.14388 0
M  V30 3767 N 371.003 -0.499398 -1.49478 0
M  V30 3768 C 372.249 0.0457576 -2.02748 0
M  V30 3769 C 372.582 1.36793 -1.37846 0
M  V30 3770 O 371.857 1.87596 -0.513601 0
M  V30 3771 C 372.14 0.199986 -3.59544 0
M  V30 3772 C 371.993 -1.1452 -4.34977 0
M  V30 3773 C 373.312 0.94137 -4.29914 0
M  V30 3774 H 370.431 0.0151552 -0.736844 0
M  V30 3775 H 373.073 -0.650498 -1.78518 0
M  V30 3776 H 371.223 0.793007 -3.8032 0
M  V30 3777 H 372.895 -1.77697 -4.25701 0
M  V30 3778 H 371.138 -1.73488 -3.97598 0
M  V30 3779 H 371.809 -0.990607 -5.43039 0
M  V30 3780 H 374.285 0.43844 -4.13784 0
M  V30 3781 H 373.161 1.01812 -5.39375 0
M  V30 3782 H 373.422 1.98471 -3.95046 0
M  V30 3783 N 372.481 1.55866 -0.233164 0
M  V30 3784 C 373.727 1.98897 0.395959 0
M  V30 3785 C 374.06 1.12091 1.58585 0
M  V30 3786 O 373.335 0.181182 1.93654 0
M  V30 3787 C 373.618 3.50658 0.819224 0
M  V30 3788 C 373.471 4.48233 -0.375109 0
M  V30 3789 C 374.79 4.07135 1.67121 0
M  V30 3790 H 371.909 0.723102 0.142451 0
M  V30 3791 H 374.551 1.87082 -0.331725 0
M  V30 3792 H 372.701 3.60857 1.43925 0
M  V30 3793 H 374.373 4.50031 -1.01341 0
M  V30 3794 H 372.616 4.21624 -1.02058 0
M  V30 3795 H 373.287 5.51988 -0.0358328 0
M  V30 3796 H 375.763 3.99952 1.14795 0
M  V30 3797 H 374.639 5.13615 1.93625 0
M  V30 3798 H 374.9 3.54736 2.63846 0
M  V30 3799 N 373.959 -0.0401083 1.57549 0
M  V30 3800 C 375.205 -0.734211 1.89043 0
M  V30 3801 C 375.538 -1.75591 0.829535 0
M  V30 3802 O 374.813 -1.93868 -0.156706 0
M  V30 3803 C 375.096 -1.41374 3.31188 0
M  V30 3804 C 374.949 -0.406299 4.47961 0
M  V30 3805 C 376.268 -2.35061 3.72068 0
M  V30 3806 H 373.387 -0.265447 0.687537 0
M  V30 3807 H 376.029 0.00294087 1.9 0
M  V30 3808 H 374.179 -2.04206 3.30503 0
M  V30 3809 H 375.851 0.219255 4.60779 0
M  V30 3810 H 374.094 0.275485 4.32924 0
M  V30 3811 H 374.765 -0.920022 5.44279 0
M  V30 3812 H 377.241 -1.82282 3.74049 0
M  V30 3813 H 376.117 -2.79593 4.72355 0
M  V30 3814 H 376.378 -3.21258 3.0372 0
M  V30 3815 N 375.437 -1.54477 -0.31217 0
M  V30 3816 C 376.714 -1.63891 -1.06767 0
M  V30 3817 C 377.094 -0.480028 -2.0557 0
M  V30 3818 O 376.442 0.524487 -2.22399 0
M  V30 3819 C 376.652 -3.01402 -1.75948 0
M  V30 3820 C 378 -3.57838 -2.28554 0
M  V30 3821 O 379.024 -3.03782 -1.85998 0
M  V30 3822 O 377.883 -4.52462 -3.06497 0
M  V30 3823 H 374.977 -0.664125 -0.492816 0
M  V30 3824 H 377.523 -1.66823 -0.311149 0
M  V30 3825 H 376.295 -3.77187 -1.04144 0
M  V30 3826 H 375.918 -3.02199 -2.58383 0
M  V30 3827 N 376.915 0.57481 -1.46744 0
M  V30 3828 C 378.161 1.3347 -1.52688 0
M  V30 3829 C 378.494 1.93353 -0.181229 0
M  V30 3830 O 377.769 1.76912 0.808237 0
M  V30 3831 C 378.052 2.45811 -2.63152 0
M  V30 3832 C 377.905 1.90912 -4.07275 0
M  V30 3833 C 379.224 3.47822 -2.69644 0
M  V30 3834 H 376.343 0.483935 -0.555856 0
M  V30 3835 H 378.985 0.644968 -1.78718 0
M  V30 3836 H 377.135 3.04646 -2.41088 0
M  V30 3837 H 378.807 1.36473 -4.4065 0
M  V30 3838 H 377.05 1.21691 -4.16382 0
M  V30 3839 H 377.721 2.72042 -4.80309 0
M  V30 3840 H 380.197 2.9888 -2.895 0
M  V30 3841 H 379.073 4.23876 -3.48742 0
M  V30 3842 H 379.334 4.05555 -1.76005 0
M  V30 3843 N 378.394 1.34581 0.820102 0
M  V30 3844 C 379.619 1.30333 1.61332 0
M  V30 3845 C 380.044 -0.119339 1.87721 0
M  V30 3846 O 379.402 -1.08197 1.45475 0
M  V30 3847 C 379.45 2.10258 2.92957 0
M  V30 3848 O 378.554 1.47404 3.85157 0
M  V30 3849 H 377.895 0.447488 0.490561 0
M  V30 3850 H 380.425 1.77425 1.01889 0
M  V30 3851 H 380.435 2.21718 3.42498 0
M  V30 3852 H 379.11 3.13693 2.73074 0
M  V30 3853 H 377.687 1.44703 3.43679 0
M  V30 3854 N 379.872 -1.04064 1.18357 0
M  V30 3855 C 380.822 -2.10393 0.878561 0
M  V30 3856 C 381.806 -1.60183 -0.151713 0
M  V30 3857 O 382.998 -1.76923 0.0523303 0
M  V30 3858 C 380.127 -3.4089 0.406096 0
M  V30 3859 C 379.213 -3.97866 1.46844 0
M  V30 3860 N 379.604 -4.28657 2.68489 0
M  V30 3861 C 377.902 -4.2574 1.32896 0
M  V30 3862 C 378.603 -4.74253 3.36836 0
M  V30 3863 N 377.579 -4.75068 2.64219 0
M  V30 3864 H 381.381 -2.32076 1.80327 0
M  V30 3865 H 378.895 -1.21818 1.07397 0
M  V30 3866 H 380.892 -4.16557 0.169088 0
M  V30 3867 H 379.552 -3.20633 -0.512275 0
M  V30 3868 H 380.563 -4.18304 3.05356 0
M  V30 3869 H 377.24 -4.1481 0.473134 0
M  V30 3870 H 378.63 -5.07096 4.40798 0
M  V30 3871 N 381.35 -0.985608 -1.22978 0
M  V30 3872 C 382.26 -0.538548 -2.28335 0
M  V30 3873 C 383.276 0.409163 -1.69121 0
M  V30 3874 O 384.452 0.277797 -1.99475 0
M  V30 3875 C 381.517 0.146867 -3.46389 0
M  V30 3876 C 380.578 -0.842896 -4.20944 0
M  V30 3877 C 379.811 -0.190095 -5.33361 0
M  V30 3878 O 380.034 1.01767 -5.61248 0
M  V30 3879 O 378.968 -0.891289 -5.95264 0
M  V30 3880 H 382.794 -1.41487 -2.68729 0
M  V30 3881 H 380.379 -0.753495 -1.29007 0
M  V30 3882 H 382.261 0.531125 -4.1804 0
M  V30 3883 H 380.936 0.997871 -3.07935 0
M  V30 3884 H 379.843 -1.27795 -3.51595 0
M  V30 3885 H 381.176 -1.66287 -4.6326 0
M  V30 3886 N 382.828 1.3818 -0.7579 0
M  V30 3887 C 384.105 1.94106 -0.241306 0
M  V30 3888 C 384.485 1.69282 1.26122 0
M  V30 3889 O 383.833 1.03378 2.03777 0
M  V30 3890 C 384.043 3.43809 -0.59967 0
M  V30 3891 C 385.391 4.20868 -0.561717 0
M  V30 3892 O 386.415 3.5211 -0.538222 0
M  V30 3893 O 385.274 5.43451 -0.576478 0
M  V30 3894 H 382.368 0.825376 -0.0518042 0
M  V30 3895 H 384.914 1.47548 -0.838315 0
M  V30 3896 H 383.686 3.55403 -1.6372 0
M  V30 3897 H 383.309 3.97592 0.0251197 0
M  V30 3898 N 384.306 0.507319 1.49211 0
M  V30 3899 C 385.717 0.0611118 1.866 0
M  V30 3900 C 386.068 -1.35488 1.41907 0
M  V30 3901 O 385.193 -2.0108 0.799726 0
M  V30 3902 C 385.788 0.104125 3.3864 0
M  V30 3903 C 384.347 -0.28677 3.75306 0
M  V30 3904 C 383.494 0.473893 2.73221 0
M  V30 3905 H 386.445 0.719775 1.41439 0
M  V30 3906 H 386.466 -0.689672 3.74198 0
M  V30 3907 H 385.978 1.13482 3.71138 0
M  V30 3908 H 384.079 -1.32046 3.48417 0
M  V30 3909 H 384.192 0.0370745 4.79086 0
M  V30 3910 H 382.556 -0.0770644 2.54583 0
M  V30 3911 H 383.339 1.50478 3.08563 0
M  V30 3912 N 385.784 -1.5574 0.241426 0
M  V30 3913 C 386.694 -2.2479 -0.671305 0
M  V30 3914 C 387.71 -1.26217 -1.19772 0
M  V30 3915 O 388.886 -1.59079 -1.23514 0
M  V30 3916 C 385.951 -2.92966 -1.85396 0
M  V30 3917 C 385.012 -4.06935 -1.36756 0
M  V30 3918 C 384.245 -4.71851 -2.49384 0
M  V30 3919 O 384.468 -4.35823 -3.67987 0
M  V30 3920 O 383.402 -5.60467 -2.19454 0
M  V30 3921 H 387.228 -3.0349 -0.112966 0
M  V30 3922 H 384.813 -1.49397 0.0101513 0
M  V30 3923 H 386.695 -3.35927 -2.54423 0
M  V30 3924 H 385.37 -2.17211 -2.40002 0
M  V30 3925 H 384.277 -3.68503 -0.644726 0
M  V30 3926 H 385.61 -4.84492 -0.867647 0
M  V30 3927 N 387.262 0.0317525 -1.57568 0
M  V30 3928 C 388.508 0.724175 -1.8943 0
M  V30 3929 C 388.841 1.75149 -0.838836 0
M  V30 3930 O 388.116 1.93948 0.146422 0
M  V30 3931 C 388.399 1.39615 -3.31933 0
M  V30 3932 C 388.252 0.382537 -4.4817 0
M  V30 3933 C 389.571 2.33084 -3.73309 0
M  V30 3934 H 386.69 0.261797 -0.688935 0
M  V30 3935 H 389.332 -0.013017 -1.89996 0
M  V30 3936 H 387.482 2.02451 -3.31581 0
M  V30 3937 H 389.154 -0.243689 -4.60656 0
M  V30 3938 H 387.397 -0.29844 -4.32772 0
M  V30 3939 H 388.068 0.891145 -5.44759 0
M  V30 3940 H 390.544 1.80295 -3.7501 0
M  V30 3941 H 389.42 2.77084 -4.73831 0
M  V30 3942 H 389.681 3.19643 -3.05419 0
M  V30 3943 N 388.74 1.54641 0.303973 0
M  V30 3944 C 389.687 1.85386 1.37479 0
M  V30 3945 C 390.657 0.702528 1.50512 0
M  V30 3946 O 391.842 0.950867 1.65418 0
M  V30 3947 C 388.982 2.10413 2.73533 0
M  V30 3948 C 388.095 3.38049 2.68974 0
M  V30 3949 C 387.23 3.52934 3.97002 0
M  V30 3950 C 386.269 4.74373 3.86829 0
M  V30 3951 N 385.406 4.8608 5.06627 0
M  V30 3952 H 390.246 2.76732 1.1056 0
M  V30 3953 H 387.783 1.37034 0.534805 0
M  V30 3954 H 389.741 2.22919 3.52652 0
M  V30 3955 H 388.371 1.22338 2.98719 0
M  V30 3956 H 387.423 3.3418 1.81736 0
M  V30 3957 H 388.735 4.27288 2.57346 0
M  V30 3958 H 387.889 3.65088 4.84557 0
M  V30 3959 H 386.628 2.61824 4.1146 0
M  V30 3960 H 385.633 4.62255 2.97658 0
M  V30 3961 H 386.858 5.66888 3.73918 0
M  V30 3962 H 384.804 3.97891 5.21554 0
M  V30 3963 H 384.721 5.69315 4.9741 0
M  V30 3964 H 385.989 5.02587 5.95841 0
M  V30 3965 N 390.218 -0.567019 1.47046 0
M  V30 3966 C 391.465 -1.32462 1.53167 0
M  V30 3967 C 391.793 -1.93571 0.189841 0
M  V30 3968 O 391.048 -1.77865 -0.816243 0
M  V30 3969 C 391.347 -2.4623 2.59047 0
M  V30 3970 C 391.013 -2.03014 4.02612 0
M  V30 3971 C 389.675 -1.90944 4.41694 0
M  V30 3972 C 392.027 -1.69895 4.92732 0
M  V30 3973 C 389.355 -1.44035 5.68745 0
M  V30 3974 C 391.707 -1.2446 6.20236 0
M  V30 3975 C 390.371 -1.10979 6.5821 0
M  V30 3976 H 389.641 -0.484713 0.560477 0
M  V30 3977 H 392.288 -0.636888 1.80599 0
M  V30 3978 H 390.593 -3.20517 2.25335 0
M  V30 3979 H 392.29 -3.04427 2.61008 0
M  V30 3980 H 388.88 -2.13348 3.71726 0
M  V30 3981 H 393.064 -1.78098 4.63244 0
M  V30 3982 H 388.32 -1.32254 5.96925 0
M  V30 3983 H 392.494 -0.978924 6.89485 0
M  V30 3984 H 390.121 -0.744078 7.5655 0
M  V30 3985 N 391.696 -1.35014 -0.812953 0
M  V30 3986 C 392.644 -1.27435 -1.94585 0
M  V30 3987 C 393.638 -0.170494 -1.6854 0
M  V30 3988 O 394.844 -0.336085 -1.76835 0
M  V30 3989 H 391.219 -0.396144 -0.639198 0
M  V30 3990 H 393.19 -2.23158 -1.98098 0
M  V30 3991 C 391.939 -1.05677 -3.31252 0
M  V30 3992 H 391.262 -1.89853 -3.51846 0
M  V30 3993 H 392.702 -1.04413 -4.10943 0
M  V30 3994 C 391.161 0.239615 -3.36047 0
M  V30 3995 O 391.691 1.23759 -3.8216 0
M  V30 3996 N 389.897 0.276186 -2.89285 0
M  V30 3997 H 389.444 -0.53653 -2.51951 0
M  V30 3998 H 389.402 1.14332 -2.92875 0
M  V30 3999 N 393.175 1.03435 -1.18907 0
M  V30 4000 C 394.421 1.7713 -0.99982 0
M  V30 4001 C 394.776 1.86695 0.465049 0
M  V30 4002 O 394.069 1.36866 1.34083 0
M  V30 4003 C 394.263 3.19792 -1.59586 0
M  V30 4004 C 394.092 3.24134 -3.11717 0
M  V30 4005 C 392.862 3.32398 -3.80578 0
M  V30 4006 C 395.06 3.11625 -4.09138 0
M  V30 4007 N 393.042 3.26055 -5.20155 0
M  V30 4008 C 394.413 3.12855 -5.35277 0
M  V30 4009 C 396.468 2.95713 -4.00572 0
M  V30 4010 C 395.171 2.99805 -6.53842 0
M  V30 4011 C 397.197 2.84011 -5.1874 0
M  V30 4012 C 396.559 2.8589 -6.43775 0
M  V30 4013 H 392.658 0.659683 -0.419931 0
M  V30 4014 H 395.242 1.2317 -1.50789 0
M  V30 4015 H 393.413 3.72085 -1.11389 0
M  V30 4016 H 395.145 3.81819 -1.3415 0
M  V30 4017 H 391.9 3.38392 -3.31342 0
M  V30 4018 H 392.324 3.26307 -5.93172 0
M  V30 4019 H 396.966 2.93086 -3.0473 0
M  V30 4020 H 394.684 3.01184 -7.49876 0
M  V30 4021 H 398.27 2.72744 -5.13909 0
M  V30 4022 H 397.15 2.76931 -7.33675 0
M  V30 4023 N 394.653 0.992116 1.22453 0
M  V30 4024 C 395.883 0.684949 1.94915 0
M  V30 4025 C 396.291 -0.754292 1.73514 0
M  V30 4026 O 395.634 -1.52056 1.03076 0
M  V30 4027 C 395.696 0.910054 3.47791 0
M  V30 4028 C 395.36 2.33363 3.92926 0
M  V30 4029 C 396.357 3.31308 4.00663 0
M  V30 4030 C 394.042 2.66785 4.25595 0
M  V30 4031 C 396.036 4.6075 4.40441 0
M  V30 4032 C 393.723 3.96446 4.65053 0
M  V30 4033 C 394.721 4.9324 4.72444 0
M  V30 4034 O 394.409 6.20584 5.1101 0
M  V30 4035 H 394.141 0.25258 0.62704 0
M  V30 4036 H 396.695 1.32939 1.56577 0
M  V30 4037 H 394.925 0.208443 3.86138 0
M  V30 4038 H 396.614 0.598257 4.01467 0
M  V30 4039 H 397.38 3.0682 3.75615 0
M  V30 4040 H 393.259 1.92148 4.19047 0
M  V30 4041 H 396.803 5.363 4.46126 0
M  V30 4042 H 392.7 4.20724 4.89552 0
M  V30 4043 H 393.468 6.24509 5.29085 0
M  V30 4044 N 396.131 -1.37776 0.765217 0
M  V30 4045 C 397.377 -2.00145 0.327072 0
M  V30 4046 C 397.71 -1.60607 -1.09175 0
M  V30 4047 O 396.985 -0.849127 -1.74986 0
M  V30 4048 C 397.268 -3.57109 0.46319 0
M  V30 4049 C 397.121 -4.06576 1.92395 0
M  V30 4050 C 398.44 -4.39888 -0.136473 0
M  V30 4051 H 395.559 -0.727113 0.120316 0
M  V30 4052 H 398.201 -1.63549 0.967039 0
M  V30 4053 H 396.351 -3.88414 -0.0816358 0
M  V30 4054 H 398.023 -3.85864 2.52798 0
M  V30 4055 H 396.266 -3.59011 2.43503 0
M  V30 4056 H 396.937 -5.15639 1.97028 0
M  V30 4057 H 399.413 -4.14803 0.328317 0
M  V30 4058 H 398.289 -5.48899 -0.0110582 0
M  V30 4059 H 398.55 -4.24758 -1.22608 0
M  V30 4060 N 397.609 -0.515225 -1.4894 0
M  V30 4061 C 398.886 0.0879088 -1.95402 0
M  V30 4062 C 399.266 1.52745 -1.45712 0
M  V30 4063 O 398.614 2.18238 -0.677093 0
M  V30 4064 C 398.824 -0.0141055 -3.48997 0
M  V30 4065 C 400.172 0.152646 -4.24326 0
M  V30 4066 O 401.196 0.0604025 -3.56149 0
M  V30 4067 O 400.055 0.34384 -5.45417 0
M  V30 4068 H 397.149 0.0874636 -0.822362 0
M  V30 4069 H 399.695 -0.578775 -1.59525 0
M  V30 4070 H 398.467 -1.01745 -3.77841 0
M  V30 4071 H 398.09 0.692091 -3.9153 0
M  V30 4072 N 399.087 1.5561 -0.249682 0
M  V30 4073 C 400.335 1.98618 0.373548 0
M  V30 4074 C 400.656 1.13919 1.58264 0
M  V30 4075 O 399.926 0.222637 1.94631 0
M  V30 4076 H 398.506 0.733571 0.141006 0
M  V30 4077 H 401.168 1.91748 -0.349117 0
M  V30 4078 H 400.264 3.04584 0.680796 0
M  V30 4079 N 400.565 -0.0233959 1.57583 0
M  V30 4080 C 401.811 -0.714119 1.89811 0
M  V30 4081 C 402.144 -1.74702 0.848113 0
M  V30 4082 O 401.419 -1.94023 -0.136135 0
M  V30 4083 C 401.702 -1.37853 3.32669 0
M  V30 4084 C 401.555 -0.358764 4.48367 0
M  V30 4085 C 402.874 -2.31101 3.7454 0
M  V30 4086 H 399.993 -0.25814 0.690314 0
M  V30 4087 H 402.635 0.0230927 1.89986 0
M  V30 4088 H 400.785 -2.00689 3.3265 0
M  V30 4089 H 402.457 0.268115 4.6052 0
M  V30 4090 H 400.7 0.321387 4.32608 0
M  V30 4091 H 401.371 -0.862242 5.45224 0
M  V30 4092 H 403.847 -1.78304 3.75961 0
M  V30 4093 H 402.723 -2.74567 4.75294 0
M  V30 4094 H 402.984 -3.18018 3.0711 0
M  V30 4095 N 402.043 -1.548 -0.295768 0
M  V30 4096 C 402.953 -1.89177 -1.38742 0
M  V30 4097 C 403.969 -0.786481 -1.55211 0
M  V30 4098 O 405.145 -1.08344 -1.69775 0
M  V30 4099 C 402.21 -2.13663 -2.73036 0
M  V30 4100 C 401.271 -3.37349 -2.65508 0
M  V30 4101 C 400.504 -3.60658 -3.93398 0
M  V30 4102 O 400.727 -2.86882 -4.93006 0
M  V30 4103 O 399.661 -4.54179 -3.94975 0
M  V30 4104 H 403.487 -2.82059 -1.12589 0
M  V30 4105 H 401.072 -1.41056 -0.492295 0
M  V30 4106 H 402.954 -2.3094 -3.52484 0
M  V30 4107 H 401.629 -1.23967 -2.99022 0
M  V30 4108 H 400.536 -3.25431 -1.84514 0
M  V30 4109 H 401.869 -4.27192 -2.44474 0
M  V30 4110 N 403.521 0.559213 -1.47345 0
M  V30 4111 C 404.767 1.31843 -1.54095 0
M  V30 4112 C 405.1 1.93149 -0.201726 0
M  V30 4113 O 404.375 1.77759 0.789428 0
M  V30 4114 C 404.658 2.43006 -2.65744 0
M  V30 4115 C 404.511 1.86581 -4.09277 0
M  V30 4116 C 405.83 3.44943 -2.73318 0
M  V30 4117 H 402.949 0.478012 -0.560957 0
M  V30 4118 H 405.591 0.625977 -1.79392 0
M  V30 4119 H 403.741 3.02072 -2.44305 0
M  V30 4120 H 405.413 1.31792 -4.42073 0
M  V30 4121 H 403.656 1.17268 -4.17649 0
M  V30 4122 H 404.327 2.66933 -4.83168 0
M  V30 4123 H 406.803 2.95793 -2.92653 0
M  V30 4124 H 405.679 4.20153 -3.53218 0
M  V30 4125 H 405.94 4.03665 -1.80296 0
M  V30 4126 N 404.999 1.35443 0.805782 0
M  V30 4127 C 405.949 1.24972 1.90699 0
M  V30 4128 C 406.933 0.144806 1.60247 0
M  V30 4129 O 408.125 0.376102 1.72958 0
M  V30 4130 C 405.254 1.02475 3.27649 0
M  V30 4131 C 404.34 2.17361 3.64164 0
M  V30 4132 N 404.731 3.42591 3.72109 0
M  V30 4133 C 403.029 2.08765 3.94123 0
M  V30 4134 C 403.73 4.18144 4.04389 0
M  V30 4135 N 402.706 3.4691 4.18515 0
M  V30 4136 H 406.508 2.19852 1.95044 0
M  V30 4137 H 404.022 1.27928 1.00041 0
M  V30 4138 H 406.019 0.930617 4.06381 0
M  V30 4139 H 404.679 0.0848009 3.24589 0
M  V30 4140 H 405.69 3.76932 3.55166 0
M  V30 4141 H 402.367 1.22629 3.99084 0
M  V30 4142 H 403.757 5.26367 4.17597 0
M  V30 4143 N 406.477 -1.02803 1.19454 0
M  V30 4144 C 407.425 -2.13213 0.929673 0
M  V30 4145 C 408.419 -1.69011 -0.114806 0
M  V30 4146 O 409.625 -1.79967 0.0345147 0
M  V30 4147 H 406 -0.69662 0.28324 0
M  V30 4148 H 407.971 -2.32744 1.86743 0
M  V30 4149 C 406.72 -3.4429 0.485797 0
M  V30 4150 H 406.043 -3.7872 1.28105 0
M  V30 4151 H 407.483 -4.22638 0.339582 0
M  V30 4152 C 405.942 -3.27258 -0.800244 0
M  V30 4153 O 406.472 -3.55967 -1.86146 0
M  V30 4154 N 404.678 -2.80545 -0.75781 0
M  V30 4155 H 404.225 -2.57382 0.106039 0
M  V30 4156 H 404.183 -2.6953 -1.61867 0
M  V30 4157 N 407.956 -0.998596 -1.21925 0
M  V30 4158 C 408.919 -0.558679 -2.22287 0
M  V30 4159 C 409.919 0.361525 -1.56683 0
M  V30 4160 O 411.109 0.152695 -1.73529 0
M  V30 4161 C 408.241 0.18661 -3.40389 0
M  V30 4162 H 409.434 -1.4463 -2.62721 0
M  V30 4163 H 406.987 -0.786413 -1.35075 0
M  V30 4164 H 407.722 1.08996 -3.05435 0
M  V30 4165 H 407.507 -0.474188 -3.89222 0
M  V30 4166 H 408.997 0.482367 -4.14805 0
M  V30 4167 N 409.434 1.37368 -0.772513 0
M  V30 4168 C 410.381 2.30262 -0.157488 0
M  V30 4169 C 411.351 1.51137 0.688965 0
M  V30 4170 O 412.536 1.79704 0.641168 0
M  V30 4171 C 409.676 3.37611 0.715045 0
M  V30 4172 C 408.789 4.31746 -0.148098 0
M  V30 4173 C 407.924 5.26171 0.729213 0
M  V30 4174 C 406.963 6.11948 -0.136418 0
M  V30 4175 N 406.1 6.98613 0.698914 0
M  V30 4176 H 410.94 2.82277 -0.955179 0
M  V30 4177 H 408.477 1.38957 -0.482631 0
M  V30 4178 H 410.435 3.98479 1.23575 0
M  V30 4179 H 409.065 2.86959 1.47833 0
M  V30 4180 H 408.117 3.72178 -0.786613 0
M  V30 4181 H 409.429 4.92084 -0.81579 0
M  V30 4182 H 408.583 5.92247 1.31637 0
M  V30 4183 H 407.322 4.66246 1.43059 0
M  V30 4184 H 406.327 5.4485 -0.736102 0
M  V30 4185 H 407.552 6.73945 -0.835134 0
M  V30 4186 H 405.498 6.41215 1.38489 0
M  V30 4187 H 405.415 7.55948 0.0885358 0
M  V30 4188 H 406.683 7.69077 1.27044 0
M  V30 4189 N 410.912 0.523116 1.48665 0
M  V30 4190 C 412.14 -0.0096312 2.06898 0
M  V30 4191 C 412.555 -1.28784 1.38059 0
M  V30 4192 O 411.912 -1.76453 0.465893 0
M  V30 4193 C 411.963 -0.244386 3.60673 0
M  V30 4194 O 411.684 0.983172 4.26925 0
M  V30 4195 C 413.185 -0.818289 4.35682 0
M  V30 4196 H 410.405 0.0304161 0.67031 0
M  V30 4197 H 412.949 0.726799 1.91149 0
M  V30 4198 H 411.104 -0.930847 3.76051 0
M  V30 4199 H 411.518 0.759653 5.1897 0
M  V30 4200 H 412.992 -0.93201 5.44075 0
M  V30 4201 H 413.469 -1.82153 3.99646 0
M  V30 4202 H 414.075 -0.168609 4.24966 0
M  V30 4203 N 412.39 -1.55475 0.257931 0
M  V30 4204 C 413.337 -2.21837 -0.636939 0
M  V30 4205 C 414.307 -1.18596 -1.16294 0
M  V30 4206 O 415.492 -1.47081 -1.21539 0
M  V30 4207 C 412.632 -2.9301 -1.82317 0
M  V30 4208 C 411.745 -4.10931 -1.33265 0
M  V30 4209 C 410.88 -4.69791 -2.47931 0
M  V30 4210 C 409.919 -5.7994 -1.95796 0
M  V30 4211 N 409.056 -6.32935 -3.0387 0
M  V30 4212 H 413.896 -2.9793 -0.0643591 0
M  V30 4213 H 411.433 -1.47086 -0.0200031 0
M  V30 4214 H 413.391 -3.3248 -2.52018 0
M  V30 4215 H 412.021 -2.1937 -2.36805 0
M  V30 4216 H 411.073 -3.76699 -0.52931 0
M  V30 4217 H 412.385 -4.90417 -0.910654 0
M  V30 4218 H 411.539 -5.11892 -3.25656 0
M  V30 4219 H 410.278 -3.89545 -2.93438 0
M  V30 4220 H 409.283 -5.37305 -1.16546 0
M  V30 4221 H 410.508 -6.62043 -1.51246 0
M  V30 4222 H 408.454 -5.55591 -3.48791 0
M  V30 4223 H 408.371 -7.07645 -2.66035 0
M  V30 4224 H 409.639 -6.79695 -3.81621 0
M  V30 4225 N 413.868 0.0150385 -1.57593 0
M  V30 4226 C 415.279 0.559832 -1.78109 0
M  V30 4227 C 415.63 1.74814 -0.890756 0
M  V30 4228 O 414.755 2.16216 -0.0892482 0
M  V30 4229 C 415.35 1.02238 -3.23006 0
M  V30 4230 C 413.909 1.51258 -3.44671 0
M  V30 4231 C 413.056 0.456955 -2.73509 0
M  V30 4232 H 416.007 -0.211169 -1.57289 0
M  V30 4233 H 416.028 1.88912 -3.30292 0
M  V30 4234 H 415.54 0.157302 -3.87781 0
M  V30 4235 H 413.641 2.39905 -2.8509 0
M  V30 4236 H 413.754 1.55042 -4.5332 0
M  V30 4237 H 412.118 0.915196 -2.37689 0
M  V30 4238 H 412.901 -0.398896 -3.40975 0
M  V30 4239 N 415.346 1.54954 0.287554 0
M  V30 4240 C 416.762 1.46469 0.633964 0
M  V30 4241 C 416.962 0.666865 1.90145 0
M  V30 4242 O 416.018 0.179906 2.51858 0
M  V30 4243 C 417.331 2.90556 0.774454 0
M  V30 4244 C 418.879 3.00681 0.869462 0
M  V30 4245 C 419.354 4.45993 1.04184 0
M  V30 4246 N 420.845 4.4976 1.10772 0
M  V30 4247 C 421.58 5.59393 1.25964 0
M  V30 4248 N 421.076 6.78923 1.37968 0
M  V30 4249 N 422.869 5.47107 1.28959 0
M  V30 4250 H 415.02 2.05288 -0.545041 0
M  V30 4251 H 417.283 0.930305 -0.182308 0
M  V30 4252 H 416.989 3.51594 -0.086207 0
M  V30 4253 H 416.863 3.38743 1.6593 0
M  V30 4254 H 419.25 2.39749 1.7206 0
M  V30 4255 H 419.331 2.55769 -0.0396831 0
M  V30 4256 H 418.975 5.07524 0.195422 0
M  V30 4257 H 418.905 4.88548 1.96542 0
M  V30 4258 H 421.396 3.63651 1.02794 0
M  V30 4259 H 421.709 7.58231 1.49353 0
M  V30 4260 H 420.054 6.81763 1.34999 0
M  V30 4261 H 423.245 4.52668 1.19202 0
M  V30 4262 H 423.418 6.32595 1.40455 0
M  V30 4263 N 416.824 -0.551391 1.4764 0
M  V30 4264 C 417.734 -1.68525 1.63207 0
M  V30 4265 C 418.75 -1.6621 0.514815 0
M  V30 4266 O 419.926 -1.85551 0.783113 0
M  V30 4267 C 416.991 -3.05025 1.64805 0
M  V30 4268 C 416.052 -3.18362 2.88 0
M  V30 4269 C 415.285 -4.4835 2.89513 0
M  V30 4270 O 415.508 -5.34163 2.00065 0
M  V30 4271 O 414.442 -4.65602 3.81443 0
M  V30 4272 H 418.268 -1.58333 2.59161 0
M  V30 4273 H 415.853 -0.722063 1.30792 0
M  V30 4274 H 417.735 -3.86245 1.68502 0
M  V30 4275 H 416.41 -3.15587 0.720197 0
M  V30 4276 H 415.317 -2.36518 2.89845 0
M  V30 4277 H 416.65 -3.12707 3.80099 0
M  V30 4278 N 418.302 -1.35869 -0.798587 0
M  V30 4279 C 419.212 -1.31578 -1.94228 0
M  V30 4280 C 420.228 -0.21939 -1.72611 0
M  V30 4281 O 421.404 -0.450167 -1.96305 0
M  V30 4282 C 418.469 -1.09528 -3.28944 0
M  V30 4283 C 417.53 -2.28556 -3.63402 0
M  V30 4284 C 416.763 -2.07549 -4.9169 0
M  V30 4285 O 416.986 -1.046 -5.60727 0
M  V30 4286 O 415.92 -2.95106 -5.24591 0
M  V30 4287 H 419.746 -2.27847 -2.00796 0
M  V30 4288 H 417.331 -1.16322 -0.937526 0
M  V30 4289 H 419.213 -0.991127 -4.09579 0
M  V30 4290 H 417.888 -0.16315 -3.23289 0
M  V30 4291 H 416.795 -2.44538 -2.83112 0
M  V30 4292 H 418.128 -3.20244 -3.73771 0
M  V30 4293 N 419.78 1.02168 -1.19998 0
M  V30 4294 C 420.712 2.10705 -0.901994 0
M  V30 4295 C 421.725 1.6244 0.108216 0
M  V30 4296 O 422.914 1.78082 -0.12214 0
M  V30 4297 C 420.014 3.37291 -0.329834 0
M  V30 4298 C 419.187 4.14714 -1.39035 0
M  V30 4299 C 418.246 5.19606 -0.830432 0
M  V30 4300 O 417.272 5.48809 -1.50989 0
M  V30 4301 N 418.474 5.79366 0.362696 0
M  V30 4302 H 421.239 2.36856 -1.83628 0
M  V30 4303 H 418.8 1.18518 -1.10296 0
M  V30 4304 H 420.792 4.04657 0.0587633 0
M  V30 4305 H 419.362 3.0843 0.508891 0
M  V30 4306 H 418.582 3.42392 -1.9535 0
M  V30 4307 H 419.87 4.63226 -2.10474 0
M  V30 4308 H 419.268 5.57968 0.932081 0
M  V30 4309 H 417.825 6.48106 0.69299 0
M  V30 4310 N 421.258 1.00505 1.21394 0
M  V30 4311 C 422.488 0.705584 1.94178 0
M  V30 4312 C 422.896 -0.735846 1.74304 0
M  V30 4313 O 422.239 -1.50954 1.04683 0
M  V30 4314 C 422.301 0.94689 3.46806 0
M  V30 4315 C 421.965 2.37517 3.90429 0
M  V30 4316 C 422.962 3.35539 3.97127 0
M  V30 4317 C 420.647 2.71284 4.22742 0
M  V30 4318 C 422.641 4.65395 4.3553 0
M  V30 4319 C 420.328 4.01356 4.60822 0
M  V30 4320 C 421.326 4.98223 4.67186 0
M  V30 4321 O 421.014 6.25969 5.04399 0
M  V30 4322 H 420.746 0.259216 0.624326 0
M  V30 4323 H 423.3 1.34592 1.55159 0
M  V30 4324 H 421.53 0.249386 3.85895 0
M  V30 4325 H 423.219 0.640804 4.0081 0
M  V30 4326 H 423.985 3.10786 3.7234 0
M  V30 4327 H 419.864 1.96581 4.16985 0
M  V30 4328 H 423.408 5.41002 4.40412 0
M  V30 4329 H 419.305 4.25893 4.85063 0
M  V30 4330 H 420.073 6.30085 5.22431 0
M  V30 4331 N 422.737 -1.36956 0.779787 0
M  V30 4332 C 423.685 -2.32053 0.15942 0
M  V30 4333 C 424.679 -1.55333 -0.675878 0
M  V30 4334 O 425.885 -1.70668 -0.57204 0
M  V30 4335 H 422.26 -0.751286 0.0327707 0
M  V30 4336 H 424.231 -2.8195 0.977078 0
M  V30 4337 C 422.98 -3.40602 -0.698977 0
M  V30 4338 H 422.303 -3.99746 -0.0655966 0
M  V30 4339 H 423.743 -4.09486 -1.09989 0
M  V30 4340 C 422.202 -2.81359 -1.85307 0
M  V30 4341 O 422.732 -2.72751 -2.94906 0
M  V30 4342 N 420.938 -2.38786 -1.65619 0
M  V30 4343 H 420.485 -2.45987 -0.764725 0
M  V30 4344 H 420.443 -1.99493 -2.43002 0
M  V30 4345 N 424.215 -0.530993 -1.48385 0
M  V30 4346 C 425.44 0.000729535 -2.074 0
M  V30 4347 C 425.865 1.27298 -1.3848 0
M  V30 4348 O 425.223 1.75599 -0.451081 0
M  V30 4349 C 425.271 0.206697 -3.60007 0
M  V30 4350 O 424.375 1.27514 -3.92191 0
M  V30 4351 H 423.716 -0.039583 -0.662819 0
M  V30 4352 H 426.246 -0.739194 -1.9078 0
M  V30 4353 H 426.256 0.42904 -4.05738 0
M  V30 4354 H 424.931 -0.722675 -4.09573 0
M  V30 4355 H 423.508 1.03537 -3.58238 0
M  V30 4356 N 425.693 1.55336 -0.266172 0
M  V30 4357 C 426.921 2.03801 0.356756 0
M  V30 4358 C 427.336 1.14485 1.50129 0
M  V30 4359 O 426.693 0.163121 1.8177 0
M  V30 4360 C 426.744 3.51455 0.846281 0
M  V30 4361 O 426.465 4.37371 -0.252663 0
M  V30 4362 C 427.966 4.15767 1.53794 0
M  V30 4363 H 425.186 0.665906 0.0825218 0
M  V30 4364 H 427.73 2.00636 -0.39566 0
M  V30 4365 H 425.885 3.55092 1.54881 0
M  V30 4366 H 426.299 5.24358 0.122173 0
M  V30 4367 H 427.773 5.20714 1.83198 0
M  V30 4368 H 428.25 3.63404 2.46646 0
M  V30 4369 H 428.856 4.16107 0.879488 0
M  V30 4370 N 427.171 -0.0066808 1.57599 0
M  V30 4371 C 428.401 -0.703066 1.94269 0
M  V30 4372 C 428.809 -1.68206 0.866222 0
M  V30 4373 O 428.152 -1.82966 -0.164087 0
M  V30 4374 C 428.214 -1.49616 3.26887 0
M  V30 4375 C 427.878 -0.679494 4.5192 0
M  V30 4376 C 428.875 0.0299508 5.19891 0
M  V30 4377 C 426.56 -0.627433 4.98366 0
M  V30 4378 C 428.554 0.780514 6.32603 0
M  V30 4379 C 426.241 0.126861 6.10968 0
M  V30 4380 C 427.239 0.829574 6.77943 0
M  V30 4381 O 426.927 1.57157 7.88389 0
M  V30 4382 H 426.659 -0.201217 0.645359 0
M  V30 4383 H 429.213 0.0385326 2.05364 0
M  V30 4384 H 427.443 -2.28209 3.12182 0
M  V30 4385 H 429.132 -2.07726 3.48719 0
M  V30 4386 H 429.898 -0.00115963 4.85 0
M  V30 4387 H 425.777 -1.16392 4.46065 0
M  V30 4388 H 429.321 1.32954 6.84813 0
M  V30 4389 H 425.218 0.159815 6.45302 0
M  V30 4390 H 425.986 1.48758 8.04868 0
M  V30 4391 N 428.649 -1.55105 -0.279332 0
M  V30 4392 C 430.065 -1.46803 -0.626187 0
M  V30 4393 C 430.265 -0.676939 -1.89789 0
M  V30 4394 O 429.321 -0.19326 -2.51759 0
M  V30 4395 C 430.634 -2.90962 -0.759034 0
M  V30 4396 C 432.182 -3.01138 -0.853504 0
M  V30 4397 C 432.657 -4.46539 -1.01818 0
M  V30 4398 N 434.148 -4.50341 -1.08386 0
M  V30 4399 C 434.883 -5.60053 -1.22996 0
M  V30 4400 N 434.379 -6.79645 -1.34366 0
M  V30 4401 N 436.172 -5.47783 -1.26056 0
M  V30 4402 H 428.323 -2.04996 0.555921 0
M  V30 4403 H 430.586 -0.929325 0.187239 0
M  V30 4404 H 430.292 -3.51544 0.104852 0
M  V30 4405 H 430.166 -3.39619 -1.64131 0
M  V30 4406 H 432.553 -2.40658 -1.70786 0
M  V30 4407 H 432.634 -2.55745 0.0532466 0
M  V30 4408 H 432.278 -5.0762 -0.168504 0
M  V30 4409 H 432.208 -4.89583 -1.93948 0
M  V30 4410 H 434.699 -3.64191 -1.00864 0
M  V30 4411 H 435.012 -7.59012 -1.4533 0
M  V30 4412 H 433.357 -6.82469 -1.31382 0
M  V30 4413 H 436.548 -4.53294 -1.168 0
M  V30 4414 H 436.721 -6.33331 -1.37098 0
M  V30 4415 N 430.127 0.543554 -1.4793 0
M  V30 4416 C 431.373 1.30201 -1.55485 0
M  V30 4417 C 431.706 1.92925 -0.222201 0
M  V30 4418 O 430.981 1.78586 0.77053 0
M  V30 4419 C 431.264 2.40174 -2.68307 0
M  V30 4420 C 431.117 1.8223 -4.11233 0
M  V30 4421 C 432.436 3.42024 -2.76961 0
M  V30 4422 H 429.555 0.472036 -0.565996 0
M  V30 4423 H 432.197 0.606914 -1.80046 0
M  V30 4424 H 430.347 2.99463 -2.47495 0
M  V30 4425 H 432.019 1.27096 -4.43446 0
M  V30 4426 H 430.262 1.12832 -4.18869 0
M  V30 4427 H 430.933 2.61793 -4.85972 0
M  V30 4428 H 433.409 2.92672 -2.95774 0
M  V30 4429 H 432.285 4.16383 -3.57654 0
M  V30 4430 H 432.546 4.0173 -1.84568 0
M  V30 4431 N 431.605 1.3629 0.791371 0
M  V30 4432 C 432.851 1.30605 1.55146 0
M  V30 4433 C 433.184 -0.115042 1.93859 0
M  V30 4434 O 432.459 -1.06798 1.62556 0
M  V30 4435 C 432.742 2.22692 2.82985 0
M  V30 4436 C 432.595 3.73489 2.50651 0
M  V30 4437 C 433.914 2.13588 3.84796 0
M  V30 4438 H 431.033 0.475761 0.562868 0
M  V30 4439 H 433.675 1.66825 0.909358 0
M  V30 4440 H 431.825 1.91933 3.37778 0
M  V30 4441 H 433.497 4.14758 2.01924 0
M  V30 4442 H 431.74 3.93021 1.83622 0
M  V30 4443 H 432.411 4.3333 3.41949 0
M  V30 4444 H 434.887 2.40659 3.39445 0
M  V30 4445 H 433.763 2.80195 4.71998 0
M  V30 4446 H 434.024 1.12256 4.27611 0
M  V30 4447 N 433.083 -1.0153 1.20538 0
M  V30 4448 C 434.308 -1.79283 1.04271 0
M  V30 4449 C 434.733 -1.8372 -0.403544 0
M  V30 4450 O 434.091 -1.27321 -1.2907 0
M  V30 4451 C 434.139 -3.21535 1.63241 0
M  V30 4452 O 433.243 -4.03099 0.870908 0
M  V30 4453 H 432.584 -0.55293 0.367647 0
M  V30 4454 H 435.114 -1.27696 1.59859 0
M  V30 4455 H 435.124 -3.72243 1.6703 0
M  V30 4456 H 433.799 -3.1762 2.68497 0
M  V30 4457 H 432.376 -3.61693 0.907323 0
M  V30 4458 N 434.561 -1.01147 -1.20859 0
M  V30 4459 C 435.807 -0.698899 -1.90377 0
M  V30 4460 C 436.14 0.76904 -1.78324 0
M  V30 4461 O 435.415 1.55817 -1.16409 0
M  V30 4462 C 435.698 -1.12878 -3.41951 0
M  V30 4463 C 435.551 -2.65665 -3.62963 0
M  V30 4464 C 436.87 -0.696114 -4.3456 0
M  V30 4465 H 433.989 -0.255372 -0.691342 0
M  V30 4466 H 436.631 -1.25831 -1.42361 0
M  V30 4467 H 434.781 -0.652827 -3.82976 0
M  V30 4468 H 436.453 -3.21074 -3.31224 0
M  V30 4469 H 434.696 -3.06878 -3.06608 0
M  V30 4470 H 435.367 -2.90797 -4.69192 0
M  V30 4471 H 437.843 -1.10521 -4.01154 0
M  V30 4472 H 436.719 -1.025 -5.39245 0
M  V30 4473 H 436.98 0.402465 -4.40264 0
M  V30 4474 N 436.039 1.36541 -0.78704 0
M  V30 4475 C 436.969 2.32659 -0.197992 0
M  V30 4476 C 437.95 1.56533 0.665697 0
M  V30 4477 O 439.135 1.84698 0.60001 0
M  V30 4478 C 436.265 3.40778 0.669901 0
M  V30 4479 C 435.219 4.27897 -0.0937039 0
M  V30 4480 C 434.545 5.27163 0.894629 0
M  V30 4481 C 435.845 5.06334 -1.28154 0
M  V30 4482 H 437.539 2.82171 -1.00099 0
M  V30 4483 H 435.085 1.35665 -0.482793 0
M  V30 4484 H 437.038 4.07008 1.09191 0
M  V30 4485 H 435.762 2.89827 1.50558 0
M  V30 4486 H 434.421 3.6322 -0.49666 0
M  V30 4487 H 434.069 4.72486 1.72527 0
M  V30 4488 H 433.769 5.86317 0.388149 0
M  V30 4489 H 435.293 5.96266 1.31525 0
M  V30 4490 H 436.707 5.65617 -0.93541 0
M  V30 4491 H 435.104 5.74888 -1.72115 0
M  V30 4492 H 436.174 4.38114 -2.07807 0
M  V30 4493 N 437.518 0.538854 1.48102 0
M  V30 4494 C 438.746 0.0123136 2.06896 0
M  V30 4495 C 439.161 -1.27312 1.39417 0
M  V30 4496 O 438.518 -1.75949 0.484582 0
M  V30 4497 C 438.569 -0.206118 3.60912 0
M  V30 4498 O 438.29 1.0284 4.25859 0
M  V30 4499 C 439.791 -0.772033 4.36526 0
M  V30 4500 H 437.011 0.0375239 0.66995 0
M  V30 4501 H 439.555 0.747032 1.90367 0
M  V30 4502 H 437.71 -0.89091 3.77017 0
M  V30 4503 H 438.124 0.814654 5.18135 0
M  V30 4504 H 439.598 -0.874251 5.45033 0
M  V30 4505 H 440.075 -1.77904 4.01555 0
M  V30 4506 H 440.681 -0.123526 4.25121 0
M  V30 4507 N 438.996 -1.55193 0.274407 0
M  V30 4508 C 440.242 -1.99877 -0.343086 0
M  V30 4509 C 440.575 -1.16256 -1.55558 0
M  V30 4510 O 439.85 -0.232462 -1.93106 0
M  V30 4511 C 440.133 -3.52706 -0.725965 0
M  V30 4512 C 439.986 -4.47081 0.493818 0
M  V30 4513 C 441.305 -4.11422 -1.56268 0
M  V30 4514 H 438.424 -0.726625 -0.123229 0
M  V30 4515 H 441.066 -1.86136 0.38121 0
M  V30 4516 H 439.216 -3.64546 -1.34307 0
M  V30 4517 H 440.888 -4.47186 1.13237 0
M  V30 4518 H 439.131 -4.1877 1.13201 0
M  V30 4519 H 439.802 -5.51699 0.18217 0
M  V30 4520 H 442.278 -4.02855 -1.04151 0
M  V30 4521 H 441.154 -5.18568 -1.79939 0
M  V30 4522 H 441.415 -3.61607 -2.54348 0
M  V30 4523 N 440.474 -0.00167713 -1.576 0
M  V30 4524 C 441.404 0.988091 -2.11563 0
M  V30 4525 C 442.385 1.35736 -1.02517 0
M  V30 4526 O 443.57 1.44082 -1.30208 0
M  V30 4527 C 440.7 2.27941 -2.62031 0
M  V30 4528 C 439.654 2.0517 -3.75619 0
M  V30 4529 C 438.98 3.4033 -4.12407 0
M  V30 4530 C 440.28 1.41294 -5.02825 0
M  V30 4531 H 441.974 0.538771 -2.94513 0
M  V30 4532 H 439.52 0.257712 -1.41675 0
M  V30 4533 H 441.473 2.97539 -2.9841 0
M  V30 4534 H 440.197 2.74989 -1.76205 0
M  V30 4535 H 438.856 1.37998 -3.39635 0
M  V30 4536 H 438.504 3.85085 -3.23603 0
M  V30 4537 H 438.204 3.25909 -4.88935 0
M  V30 4538 H 439.728 4.1124 -4.51347 0
M  V30 4539 H 441.142 2.00851 -5.36965 0
M  V30 4540 H 439.539 1.37356 -5.84169 0
M  V30 4541 H 440.609 0.382362 -4.8339 0
M  V30 4542 N 441.952 1.55251 0.271103 0
M  V30 4543 C 442.902 1.84649 1.33749 0
M  V30 4544 C 443.886 0.705529 1.44607 0
M  V30 4545 O 445.078 0.966916 1.48256 0
M  V30 4546 C 442.207 2.12354 2.69742 0
M  V30 4547 C 441.293 3.32714 2.62988 0
M  V30 4548 N 441.684 4.52575 2.25853 0
M  V30 4549 C 439.982 3.35341 2.94045 0
M  V30 4550 C 440.683 5.34669 2.29136 0
M  V30 4551 N 439.659 4.73123 2.67685 0
M  V30 4552 H 443.461 2.74865 1.0405 0
M  V30 4553 H 440.975 1.55152 0.479738 0
M  V30 4554 H 442.972 2.31572 3.4667 0
M  V30 4555 H 441.632 1.23422 3.00328 0
M  V30 4556 H 442.643 4.78639 1.978 0
M  V30 4557 H 439.32 2.56608 3.2933 0
M  V30 4558 H 440.71 6.40509 2.02971 0
M  V30 4559 N 443.43 -0.535701 1.48216 0
M  V30 4560 C 444.362 -1.65662 1.58394 0
M  V30 4561 C 445.375 -1.5591 0.468607 0
M  V30 4562 O 446.564 -1.62475 0.7392 0
M  V30 4563 C 443.664 -3.04276 1.4923 0
M  V30 4564 C 442.837 -3.39567 2.75705 0
M  V30 4565 C 441.896 -4.57436 2.60075 0
M  V30 4566 O 440.922 -4.60942 3.33948 0
M  V30 4567 N 442.124 -5.55259 1.69315 0
M  V30 4568 H 444.889 -1.5737 2.55058 0
M  V30 4569 H 442.45 -0.722845 1.44867 0
M  V30 4570 H 444.442 -3.80994 1.36477 0
M  V30 4571 H 443.012 -3.06677 0.605632 0
M  V30 4572 H 442.232 -2.52083 3.03064 0
M  V30 4573 H 443.52 -3.59929 3.59623 0
M  V30 4574 H 442.918 -5.552 1.08489 0
M  V30 4575 H 441.475 -6.31218 1.62504 0
M  V30 4576 N 444.908 -1.36708 -0.784132 0
M  V30 4577 C 446.185 -1.21776 -1.53069 0
M  V30 4578 C 446.565 0.193876 -2.10208 0
M  V30 4579 O 445.913 1.20012 -1.94446 0
M  V30 4580 C 446.123 -2.30395 -2.62143 0
M  V30 4581 C 447.471 -2.67325 -3.29882 0
M  V30 4582 O 448.495 -2.29478 -2.7243 0
M  V30 4583 O 447.354 -3.32485 -4.33724 0
M  V30 4584 H 444.448 -0.474459 -0.677361 0
M  V30 4585 H 446.994 -1.48454 -0.82216 0
M  V30 4586 H 445.766 -3.2498 -2.17953 0
M  V30 4587 H 445.389 -2.05112 -3.40609 0
M  V30 4588 N 446.386 1.0089 -1.21074 0
M  V30 4589 C 447.632 1.7497 -1.03717 0
M  V30 4590 C 447.987 1.8764 0.425344 0
M  V30 4591 O 447.28 1.39679 1.3115 0
M  V30 4592 C 447.474 3.16335 -1.66334 0
M  V30 4593 C 447.303 3.17449 -3.18522 0
M  V30 4594 C 446.073 3.2425 -3.87543 0
M  V30 4595 C 448.271 3.02877 -4.15656 0
M  V30 4596 N 446.253 3.14949 -5.26954 0
M  V30 4597 C 447.624 3.0143 -5.41793 0
M  V30 4598 C 449.679 2.8715 -4.06755 0
M  V30 4599 C 448.382 2.85869 -6.60054 0
M  V30 4600 C 450.408 2.72944 -5.24648 0
M  V30 4601 C 449.77 2.72171 -6.49694 0
M  V30 4602 H 445.869 0.650627 -0.43383 0
M  V30 4603 H 448.453 1.19944 -1.53367 0
M  V30 4604 H 446.624 3.69638 -1.19256 0
M  V30 4605 H 448.356 3.78888 -1.42219 0
M  V30 4606 H 445.111 3.31288 -3.38446 0
M  V30 4607 H 445.535 3.13651 -5.9996 0
M  V30 4608 H 450.177 2.86557 -3.10878 0
M  V30 4609 H 447.895 2.8521 -7.56096 0
M  V30 4610 H 451.481 2.61782 -5.19578 0
M  V30 4611 H 450.361 2.61307 -7.39384 0
M  V30 4612 N 447.864 1.01787 1.20321 0
M  V30 4613 C 448.794 0.609625 2.25401 0
M  V30 4614 C 449.775 -0.375951 1.65893 0
M  V30 4615 O 450.96 -0.261101 1.92437 0
M  V30 4616 C 448.09 -0.0515995 3.47262 0
M  V30 4617 C 447.044 0.855095 4.19371 0
M  V30 4618 C 446.37 0.0595757 5.34667 0
M  V30 4619 C 447.67 2.16374 4.75373 0
M  V30 4620 H 449.364 1.48803 2.59804 0
M  V30 4621 H 446.91 0.716934 1.24884 0
M  V30 4622 H 448.863 -0.348764 4.19954 0
M  V30 4623 H 447.587 -0.964726 3.12027 0
M  V30 4624 H 446.246 1.13628 3.48546 0
M  V30 4625 H 445.894 -0.85524 4.95676 0
M  V30 4626 H 445.594 0.663406 5.83843 0
M  V30 4627 H 447.118 -0.231105 6.10162 0
M  V30 4628 H 448.532 1.92885 5.39878 0
M  V30 4629 H 446.929 2.71853 5.34991 0
M  V30 4630 H 447.999 2.82589 3.94045 0
M  V30 4631 N 449.342 -1.36122 0.79427 0
M  V30 4632 C 450.29 -2.31871 0.184023 0
M  V30 4633 C 451.284 -1.56041 -0.659365 0
M  V30 4634 O 452.49 -1.71266 -0.553906 0
M  V30 4635 H 448.865 -0.750896 0.0407373 0
M  V30 4636 H 450.836 -2.80898 1.00693 0
M  V30 4637 C 449.585 -3.41324 -0.662813 0
M  V30 4638 H 448.908 -3.99793 -0.0231944 0
M  V30 4639 H 450.348 -4.10629 -1.05639 0
M  V30 4640 C 448.807 -2.83308 -1.82313 0
M  V30 4641 O 449.337 -2.75863 -2.91997 0
M  V30 4642 N 447.543 -2.40529 -1.63077 0
M  V30 4643 H 447.09 -2.46785 -0.738591 0
M  V30 4644 H 447.048 -2.02059 -2.40872 0
M  V30 4645 N 450.82 -0.546701 -1.47814 0
M  V30 4646 C 452.068 -0.0187037 -2.02091 0
M  V30 4647 C 452.389 1.33168 -1.42447 0
M  V30 4648 O 451.659 1.86619 -0.595839 0
M  V30 4649 H 450.239 -0.00392531 -0.74699 0
M  V30 4650 H 452.901 -0.714327 -1.81338 0
M  V30 4651 H 451.997 0.0772219 -3.12004 0
M  V30 4652 N 452.299 1.55045 -0.282633 0
M  V30 4653 C 453.246 2.22822 0.601566 0
M  V30 4654 C 454.216 1.20431 1.14392 0
M  V30 4655 O 455.401 1.48996 1.19184 0
M  V30 4656 C 452.541 2.95873 1.77632 0
M  V30 4657 C 451.654 4.12999 1.26711 0
M  V30 4658 C 450.789 4.73676 2.40426 0
M  V30 4659 C 449.828 5.82981 1.86545 0
M  V30 4660 N 448.965 6.3769 2.93762 0
M  V30 4661 H 453.805 2.97995 0.0169528 0
M  V30 4662 H 451.342 1.471 -0.00339964 0
M  V30 4663 H 453.3 3.36447 2.46697 0
M  V30 4664 H 451.93 2.2311 2.33285 0
M  V30 4665 H 450.982 3.77494 0.469314 0
M  V30 4666 H 452.294 4.91803 0.832518 0
M  V30 4667 H 451.448 5.17008 3.17471 0
M  V30 4668 H 450.187 3.94164 2.87203 0
M  V30 4669 H 449.192 5.39092 1.07983 0
M  V30 4670 H 450.417 6.64366 1.40694 0
M  V30 4671 H 448.363 5.61069 3.39908 0
M  V30 4672 H 448.28 7.11788 2.54744 0
M  V30 4673 H 449.548 6.8568 3.7076 0
M  V30 4674 N 453.777 0.010035 1.57597 0
M  V30 4675 C 454.687 -0.994226 2.12491 0
M  V30 4676 C 455.703 -1.37013 1.07254 0
M  V30 4677 O 456.879 -1.45542 1.3921 0
M  V30 4678 C 453.944 -2.2642 2.62555 0
M  V30 4679 C 453.005 -1.95049 3.82432 0
M  V30 4680 C 452.238 -3.15991 4.30099 0
M  V30 4681 O 452.461 -4.28015 3.7704 0
M  V30 4682 O 451.395 -2.99403 5.22151 0
M  V30 4683 H 455.221 -0.557549 2.98538 0
M  V30 4684 H 452.806 -0.209413 1.47925 0
M  V30 4685 H 454.688 -3.01009 2.9491 0
M  V30 4686 H 453.363 -2.69306 1.796 0
M  V30 4687 H 452.27 -1.17904 3.55034 0
M  V30 4688 H 453.603 -1.56992 4.66491 0
M  V30 4689 N 455.255 -1.55392 -0.262866 0
M  V30 4690 C 456.485 -1.80251 -1.00961 0
M  V30 4691 C 456.893 -0.58117 -1.80053 0
M  V30 4692 O 456.236 0.459427 -1.77862 0
M  V30 4693 C 456.298 -2.98207 -2.00781 0
M  V30 4694 C 455.962 -4.34856 -1.40533 0
M  V30 4695 C 456.959 -5.13459 -0.815853 0
M  V30 4696 C 454.644 -4.8153 -1.42948 0
M  V30 4697 C 456.638 -6.36875 -0.258562 0
M  V30 4698 C 454.325 -6.04899 -0.868334 0
M  V30 4699 C 455.323 -6.8241 -0.283884 0
M  V30 4700 O 455.011 -8.03451 0.268644 0
M  V30 4701 H 454.743 -0.604049 -0.303482 0
M  V30 4702 H 457.297 -2.03257 -0.295926 0
M  V30 4703 H 455.527 -2.70917 -2.75936 0
M  V30 4704 H 457.216 -3.10299 -2.61667 0
M  V30 4705 H 457.982 -4.78526 -0.789812 0
M  V30 4706 H 453.861 -4.21201 -1.87378 0
M  V30 4707 H 457.405 -6.97318 0.198257 0
M  V30 4708 H 453.302 -6.39312 -0.891649 0
M  V30 4709 H 454.07 -8.18346 0.158974 0
M  V30 4710 N 456.733 0.527833 -1.48498 0
M  V30 4711 C 457.68 1.6322 -1.6318 0
M  V30 4712 C 458.65 1.59199 -0.473815 0
M  V30 4713 O 459.835 1.77591 -0.697563 0
M  V30 4714 C 456.975 3.01474 -1.67951 0
M  V30 4715 C 456.088 3.15713 -2.94871 0
M  V30 4716 C 455.223 4.44539 -2.90789 0
M  V30 4717 C 454.262 4.52315 -4.12404 0
M  V30 4718 N 453.399 5.72533 -4.06387 0
M  V30 4719 H 458.239 1.50011 -2.57489 0
M  V30 4720 H 455.776 0.730298 -1.27691 0
M  V30 4721 H 457.734 3.81572 -1.68698 0
M  V30 4722 H 456.364 3.1345 -0.771306 0
M  V30 4723 H 455.416 2.28854 -3.03859 0
M  V30 4724 H 456.728 3.1732 -3.8485 0
M  V30 4725 H 455.882 5.3293 -2.89949 0
M  V30 4726 H 454.621 4.45457 -1.98542 0
M  V30 4727 H 453.626 3.62331 -4.13517 0
M  V30 4728 H 454.851 4.53134 -5.05812 0
M  V30 4729 H 452.797 5.74344 -3.16962 0
M  V30 4730 H 452.714 5.75643 -4.90073 0
M  V30 4731 H 453.982 6.63204 -4.0961 0
M  V30 4732 N 458.211 1.37122 0.776871 0
M  V30 4733 C 459.451 1.33441 1.54831 0
M  V30 4734 C 459.815 -0.0818963 1.91825 0
M  V30 4735 O 461.016 -0.24338 2.67696 0
M  V30 4736 C 459.287 2.24267 2.78279 0
M  V30 4737 S 460.846 2.38389 3.68397 0
M  V30 4738 H 457.664 0.473791 0.530135 0
M  V30 4739 H 460.266 1.7282 0.913968 0
M  V30 4740 H 458.97 3.261 2.49173 0
M  V30 4741 H 458.501 1.85953 3.46677 0
M  V30 4742 H 460.516 1.59068 4.70013 0
M  V30 4743 N 459.689 -1.00246 1.21608 0
M  V30 4744 C 460.636 -2.09073 0.977613 0
M  V30 4745 C 461.606 -1.65815 -0.097297 0
M  V30 4746 O 462.791 -1.90734 0.0503445 0
M  V30 4747 C 459.931 -3.40671 0.551133 0
M  V30 4748 C 459.044 -3.97326 1.69576 0
M  V30 4749 C 458.179 -5.17043 1.2182 0
M  V30 4750 C 457.218 -5.65813 2.335 0
M  V30 4751 N 456.355 -6.76778 1.86859 0
M  V30 4752 H 461.195 -2.28806 1.90924 0
M  V30 4753 H 458.732 -1.12186 0.951452 0
M  V30 4754 H 460.69 -4.16225 0.285097 0
M  V30 4755 H 459.32 -3.20967 -0.343489 0
M  V30 4756 H 458.372 -3.18734 2.07637 0
M  V30 4757 H 459.684 -4.29511 2.53617 0
M  V30 4758 H 458.838 -5.99852 0.908975 0
M  V30 4759 H 457.577 -4.86458 0.347869 0
M  V30 4760 H 456.582 -4.81599 2.65222 0
M  V30 4761 H 457.807 -5.98427 3.21033 0
M  V30 4762 H 455.753 -6.47994 1.02174 0
M  V30 4763 H 455.67 -7.08231 2.64471 0
M  V30 4764 H 456.938 -7.63116 1.58978 0
M  V30 4765 N 461.167 -1.02423 -1.1978 0
M  V30 4766 C 462.413 -0.719051 -1.89625 0
M  V30 4767 C 462.746 0.750083 -1.7913 0
M  V30 4768 O 462.021 1.54574 -1.18056 0
M  V30 4769 C 462.304 -1.16499 -3.40735 0
M  V30 4770 C 462.157 -2.695 -3.60125 0
M  V30 4771 C 463.476 -0.742166 -4.33797 0
M  V30 4772 H 460.595 -0.26269 -0.688595 0
M  V30 4773 H 463.237 -1.27333 -1.41018 0
M  V30 4774 H 461.387 -0.69341 -3.82262 0
M  V30 4775 H 463.059 -3.24569 -3.278 0
M  V30 4776 H 461.302 -3.10113 -3.03336 0
M  V30 4777 H 461.973 -2.95757 -4.66081 0
M  V30 4778 H 464.449 -1.1477 -3.99959 0
M  V30 4779 H 463.325 -1.08213 -5.38127 0
M  V30 4780 H 463.586 0.355747 -4.40666 0
M  V30 4781 N 462.645 1.35699 -0.801477 0
M  V30 4782 C 463.87 2.03687 -0.390678 0
M  V30 4783 C 464.295 1.60015 0.988778 0
M  V30 4784 O 463.653 0.774357 1.63931 0
M  V30 4785 C 463.701 3.57439 -0.476404 0
M  V30 4786 O 462.805 4.09208 0.512106 0
M  V30 4787 H 462.146 0.64344 -0.163956 0
M  V30 4788 H 464.676 1.73403 -1.08594 0
M  V30 4789 H 464.686 4.06544 -0.344357 0
M  V30 4790 H 463.361 3.88576 -1.48262 0
M  V30 4791 H 461.938 3.7134 0.340721 0
M  V30 4792 N 464.123 0.554532 1.47522 0
M  V30 4793 C 465.071 -0.207765 2.3167 0
M  V30 4794 C 466.065 -0.911914 1.4276 0
M  V30 4795 O 467.271 -0.833504 1.59539 0
M  V30 4796 H 463.646 -0.0858726 0.747081 0
M  V30 4797 H 465.617 0.521178 2.93813 0
M  V30 4798 C 464.366 -1.2263 3.25357 0
M  V30 4799 H 463.689 -0.693887 3.93732 0
M  V30 4800 H 465.129 -1.73062 3.87073 0
M  V30 4801 C 463.588 -2.27278 2.4869 0
M  V30 4802 O 464.118 -3.34156 2.22941 0
M  V30 4803 N 462.324 -2.01134 2.09746 0
M  V30 4804 H 461.871 -1.14232 2.30887 0
M  V30 4805 H 461.829 -2.71369 1.58765 0
M  V30 4806 N 465.601 -1.54893 0.290851 0
M  V30 4807 C 466.548 -2.23138 -0.58974 0
M  V30 4808 C 467.518 -1.21036 -1.13752 0
M  V30 4809 O 468.703 -1.49626 -1.18392 0
M  V30 4810 C 465.843 -2.96811 -1.76061 0
M  V30 4811 C 464.956 -4.13665 -1.24519 0
M  V30 4812 C 464.091 -4.74944 -2.3791 0
M  V30 4813 C 463.13 -5.83963 -1.83451 0
M  V30 4814 N 462.267 -6.39239 -2.90376 0
M  V30 4815 H 467.107 -2.98 -0.00114915 0
M  V30 4816 H 464.644 -1.47096 0.0112006 0
M  V30 4817 H 466.602 -3.37751 -2.44909 0
M  V30 4818 H 465.232 -2.24344 -2.32098 0
M  V30 4819 H 464.284 -3.77737 -0.449288 0
M  V30 4820 H 465.596 -4.92238 -0.806424 0
M  V30 4821 H 464.75 -5.18684 -3.14724 0
M  V30 4822 H 463.489 -3.95682 -2.85109 0
M  V30 4823 H 462.494 -5.39657 -1.05122 0
M  V30 4824 H 463.719 -6.65103 -1.37169 0
M  V30 4825 H 461.665 -5.62864 -3.36927 0
M  V30 4826 H 461.582 -7.13129 -2.50965 0
M  V30 4827 H 462.85 -6.87637 -3.67118 0
M  V30 4828 N 467.08 -0.0183926 -1.57589 0
M  V30 4829 C 468.043 0.951986 -2.08494 0
M  V30 4830 C 469.043 1.26092 -0.997874 0
M  V30 4831 O 470.233 1.20304 -1.25987 0
M  V30 4832 C 467.365 2.27165 -2.54182 0
M  V30 4833 H 468.558 0.511307 -2.95509 0
M  V30 4834 H 466.111 0.229444 -1.54607 0
M  V30 4835 H 466.846 2.75884 -1.70465 0
M  V30 4836 H 466.631 2.06057 -3.33591 0
M  V30 4837 H 468.121 2.9674 -2.93828 0
M  V30 4838 N 468.558 1.5553 0.254621 0
M  V30 4839 C 469.488 1.9268 1.31897 0
M  V30 4840 C 470.469 0.790797 1.506 0
M  V30 4841 O 471.654 1.05045 1.63337 0
M  V30 4842 C 468.784 2.21477 2.67517 0
M  V30 4843 C 467.738 3.37256 2.63519 0
M  V30 4844 C 467.064 3.51576 4.02862 0
M  V30 4845 C 468.364 4.73157 2.21179 0
M  V30 4846 H 470.058 2.81832 1.01051 0
M  V30 4847 H 467.604 1.35599 0.484662 0
M  V30 4848 H 469.557 2.46055 3.42104 0
M  V30 4849 H 468.281 1.29144 2.99982 0
M  V30 4850 H 466.94 3.12675 1.9139 0
M  V30 4851 H 466.588 2.56676 4.32581 0
M  V30 4852 H 466.288 4.2943 4.01078 0
M  V30 4853 H 467.812 3.78467 4.79161 0
M  V30 4854 H 469.226 4.97158 2.85494 0
M  V30 4855 H 467.623 5.54058 2.30521 0
M  V30 4856 H 468.693 4.70739 1.16332 0
M  V30 4857 N 470.036 -0.519951 1.48776 0
M  V30 4858 C 471.447 -1.10177 1.50725 0
M  V30 4859 C 471.798 -1.94153 0.282678 0
M  V30 4860 O 470.923 -2.07645 -0.609298 0
M  V30 4861 C 471.518 -2.00482 2.73116 0
M  V30 4862 C 470.077 -2.53862 2.77905 0
M  V30 4863 C 469.224 -1.31047 2.44381 0
M  V30 4864 H 472.175 -0.30473 1.55747 0
M  V30 4865 H 472.196 -2.8491 2.52203 0
M  V30 4866 H 471.708 -1.39335 3.62225 0
M  V30 4867 H 469.809 -3.18702 1.93029 0
M  V30 4868 H 469.922 -2.9231 3.79594 0
M  V30 4869 H 468.286 -1.62953 1.95751 0
M  V30 4870 H 469.069 -0.71637 3.35743 0
M  V30 4871 N 471.514 -1.37532 -0.769588 0
M  V30 4872 C 472.477 -1.33292 -1.86456 0
M  V30 4873 C 473.477 -0.236537 -1.59051 0
M  V30 4874 O 474.667 -0.492511 -1.67093 0
M  V30 4875 C 471.799 -1.07118 -3.23633 0
M  V30 4876 H 472.992 -2.30692 -1.91628 0
M  V30 4877 H 470.545 -1.22593 -0.969572 0
M  V30 4878 H 471.28 -0.102578 -3.24138 0
M  V30 4879 H 471.065 -1.86479 -3.44917 0
M  V30 4880 H 472.555 -1.06806 -4.03711 0
M  V30 4881 N 472.992 0.995999 -1.22138 0
M  V30 4882 C 474.403 1.54961 -1.04135 0
M  V30 4883 C 474.754 1.92159 0.396147 0
M  V30 4884 O 473.879 1.74435 1.28069 0
M  V30 4885 C 474.474 2.81581 -1.88408 0
M  V30 4886 C 473.033 3.33396 -1.74712 0
M  V30 4887 C 472.18 2.06509 -1.85066 0
M  V30 4888 H 475.131 0.817436 -1.36028 0
M  V30 4889 H 475.152 3.53822 -1.39966 0
M  V30 4890 H 474.664 2.54476 -2.93025 0
M  V30 4891 H 472.765 3.65416 -0.728159 0
M  V30 4892 H 472.878 4.04208 -2.57202 0
M  V30 4893 H 471.242 2.19925 -1.28472 0
M  V30 4894 H 472.025 1.81804 -2.91208 0
M  V30 4895 N 474.47 1.03057 1.19235 0
M  V30 4896 C 475.719 0.72326 1.88287 0
M  V30 4897 C 476.032 -0.751333 1.80594 0
M  V30 4898 O 477.238 -1.17176 2.44912 0
M  V30 4899 C 475.694 1.24338 3.3774 0
M  V30 4900 C 475.302 2.74587 3.53986 0
M  V30 4901 C 477.046 1.01213 4.12257 0
M  V30 4902 C 474.953 3.20009 4.97341 0
M  V30 4903 H 473.883 0.266848 0.705201 0
M  V30 4904 H 476.534 1.24509 1.34795 0
M  V30 4905 H 474.916 0.649457 3.90638 0
M  V30 4906 H 476.09 3.39649 3.11408 0
M  V30 4907 H 474.405 2.9601 2.9286 0
M  V30 4908 H 477.002 1.32675 5.17978 0
M  V30 4909 H 477.345 -0.051001 4.16269 0
M  V30 4910 H 477.878 1.57014 3.65501 0
M  V30 4911 H 474.617 4.25659 4.98493 0
M  V30 4912 H 474.137 2.59676 5.40674 0
M  V30 4913 H 475.816 3.13447 5.66003 0
M  V30 4914 N 475.948 -1.35272 0.808662 0
M  V30 4915 C 476.858 -2.33546 0.222079 0
M  V30 4916 C 477.874 -1.6196 -0.636011 0
M  V30 4917 O 479.05 -1.93822 -0.547274 0
M  V30 4918 C 476.115 -3.41148 -0.61795 0
M  V30 4919 C 475.176 -4.28507 0.260875 0
M  V30 4920 C 474.409 -5.3097 -0.539156 0
M  V30 4921 O 474.632 -5.42123 -1.77367 0
M  V30 4922 O 473.566 -6.01858 0.0710526 0
M  V30 4923 H 477.392 -2.85515 1.03512 0
M  V30 4924 H 474.977 -1.38079 0.570495 0
M  V30 4925 H 476.859 -4.06889 -1.09634 0
M  V30 4926 H 475.534 -2.91447 -1.40855 0
M  V30 4927 H 474.441 -3.6574 0.786451 0
M  V30 4928 H 475.774 -4.81611 1.01547 0
M  V30 4929 N 477.426 -0.562348 -1.47226 0
M  V30 4930 C 478.373 0.182461 -2.30078 0
M  V30 4931 C 479.343 0.903503 -1.39377 0
M  V30 4932 O 480.528 0.898188 -1.68337 0
M  V30 4933 C 477.668 1.20322 -3.23445 0
M  V30 4934 C 476.781 0.487717 -4.29238 0
M  V30 4935 C 475.916 1.49422 -5.09752 0
M  V30 4936 C 474.955 0.763976 -6.07314 0
M  V30 4937 N 474.092 1.71755 -6.80768 0
M  V30 4938 H 478.932 -0.530169 -2.93246 0
M  V30 4939 H 476.469 -0.273276 -1.44539 0
M  V30 4940 H 478.427 1.80768 -3.76004 0
M  V30 4941 H 477.057 1.88382 -2.6213 0
M  V30 4942 H 476.109 -0.231374 -3.79696 0
M  V30 4943 H 477.421 -0.0841003 -4.98729 0
M  V30 4944 H 476.575 2.17206 -5.66486 0
M  V30 4945 H 475.314 2.09995 -4.40174 0
M  V30 4946 H 474.319 0.0722344 -5.49753 0
M  V30 4947 H 475.544 0.16391 -6.78902 0
M  V30 4948 H 473.49 2.31177 -6.13916 0
M  V30 4949 H 473.407 1.19802 -7.46447 0
M  V30 4950 H 474.675 2.38638 -7.42073 0
M  V30 4951 N 478.904 1.54736 -0.299062 0
M  V30 4952 C 480.132 2.04512 0.313447 0
M  V30 4953 C 480.547 1.17643 1.47667 0
M  V30 4954 O 479.904 0.20164 1.81383 0
M  V30 4955 C 479.955 3.53171 0.771542 0
M  V30 4956 O 479.676 4.36736 -0.345379 0
M  V30 4957 C 481.177 4.18936 1.4494 0
M  V30 4958 H 478.397 0.667507 0.0683784 0
M  V30 4959 H 480.941 1.99752 -0.438129 0
M  V30 4960 H 479.096 3.58298 1.47314 0
M  V30 4961 H 479.51 5.24499 0.0109219 0
M  V30 4962 H 480.984 5.24482 1.72111 0
M  V30 4963 H 481.461 3.68554 2.38883 0
M  V30 4964 H 482.067 4.17879 0.791028 0
M  V30 4965 N 480.382 0.0267497 1.57577 0
M  V30 4966 C 481.631 -0.651736 1.9088 0
M  V30 4967 C 481.944 -1.73427 0.904576 0
M  V30 4968 O 483.15 -2.46923 1.12877 0
M  V30 4969 C 481.606 -1.21048 3.38933 0
M  V30 4970 C 481.214 -0.161362 4.47709 0
M  V30 4971 C 482.958 -1.86562 3.81307 0
M  V30 4972 C 480.865 -0.731611 5.86857 0
M  V30 4973 H 479.795 -0.247198 0.712326 0
M  V30 4974 H 482.446 0.0916641 1.83271 0
M  V30 4975 H 480.828 -2.00542 3.41466 0
M  V30 4976 H 482.002 0.61094 4.56732 0
M  V30 4977 H 480.317 0.394877 4.14523 0
M  V30 4978 H 482.914 -2.30178 4.8262 0
M  V30 4979 H 483.257 -2.70735 3.16241 0
M  V30 4980 H 483.79 -1.13762 3.81186 0
M  V30 4981 H 480.529 0.0719329 6.55461 0
M  V30 4982 H 480.049 -1.47245 5.81445 0
M  V30 4983 H 481.728 -1.22208 6.35354 0
M  V30 4984 N 481.861 -1.55662 -0.24637 0
M  V30 4985 C 483.086 -1.81914 -0.996093 0
M  V30 4986 C 483.511 -0.603875 -1.78143 0
M  V30 4987 O 482.869 0.447091 -1.75701 0
M  V30 4988 C 482.917 -3.05908 -1.90925 0
M  V30 4989 O 482.021 -2.82861 -3.00105 0
M  V30 4990 H 481.362 -0.600481 -0.283406 0
M  V30 4991 H 483.892 -2.02848 -0.267199 0
M  V30 4992 H 483.902 -3.35356 -2.3238 0
M  V30 4993 H 482.577 -3.93999 -1.33183 0
M  V30 4994 H 481.154 -2.64583 -2.62775 0
M  V30 4995 N 483.339 0.512053 -1.4905 0
M  V30 4996 C 484.286 1.6148 -1.64902 0
M  V30 4997 C 485.256 1.58687 -0.490673 0
M  V30 4998 O 486.441 1.76842 -0.71636 0
M  V30 4999 C 483.581 2.99676 -1.71139 0
M  V30 5000 C 482.694 3.12568 -2.98203 0
M  V30 5001 C 481.829 4.4143 -2.95487 0
M  V30 5002 C 480.868 4.47916 -4.17179 0
M  V30 5003 N 480.005 5.68191 -4.12437 0
M  V30 5004 H 484.845 1.47271 -2.59066 0
M  V30 5005 H 482.382 0.716713 -1.28459 0
M  V30 5006 H 484.34 3.79761 -1.72736 0
M  V30 5007 H 482.97 3.12614 -0.804508 0
M  V30 5008 H 482.022 2.25618 -3.06269 0
M  V30 5009 H 483.334 3.1322 -3.88194 0
M  V30 5010 H 482.488 5.29825 -2.95585 0
M  V30 5011 H 481.227 4.43326 -2.03256 0
M  V30 5012 H 480.232 3.57925 -4.17337 0
M  V30 5013 H 481.457 4.47744 -5.1059 0
M  V30 5014 H 479.403 5.7095 -3.23036 0
M  V30 5015 H 479.32 5.70413 -4.96151 0
M  V30 5016 H 480.588 6.58823 -4.16621 0
M  V30 5017 N 484.817 1.37938 0.762283 0
M  V30 5018 C 485.78 1.34279 1.85747 0
M  V30 5019 C 486.78 0.244969 1.58923 0
M  V30 5020 O 487.97 0.501365 1.66829 0
M  V30 5021 C 485.102 1.08833 3.23061 0
M  V30 5022 H 486.295 2.31705 1.90401 0
M  V30 5023 H 483.848 1.23105 0.963057 0
M  V30 5024 H 484.583 0.119767 3.24079 0
M  V30 5025 H 484.368 1.88306 3.43923 0
M  V30 5026 H 485.858 1.08946 4.03138 0
M  V30 5027 N 486.295 -0.989507 1.22664 0
M  V30 5028 C 487.242 -2.08024 0.999733 0
M  V30 5029 C 488.212 -1.65909 -0.0797047 0
M  V30 5030 O 489.397 -1.90669 0.0705715 0
M  V30 5031 C 486.537 -3.40067 0.587234 0
M  V30 5032 C 485.65 -3.95505 1.73781 0
M  V30 5033 C 484.785 -5.15722 1.27297 0
M  V30 5034 C 483.824 -5.63305 2.39488 0
M  V30 5035 N 482.961 -6.74758 1.94026 0
M  V30 5036 H 487.801 -2.26768 1.9334 0
M  V30 5037 H 485.338 -1.11171 0.963297 0
M  V30 5038 H 487.296 -4.15899 0.329227 0
M  V30 5039 H 485.926 -3.21314 -0.309426 0
M  V30 5040 H 484.978 -3.16513 2.11006 0
M  V30 5041 H 486.29 -4.26797 2.58158 0
M  V30 5042 H 485.444 -5.98854 0.972546 0
M  V30 5043 H 484.183 -4.86061 0.399445 0
M  V30 5044 H 483.188 -4.78759 2.70315 0
M  V30 5045 H 484.413 -5.94988 3.27362 0
M  V30 5046 H 482.359 -6.46874 1.09041 0
M  V30 5047 H 482.276 -7.05386 2.71968 0
M  V30 5048 H 483.544 -7.61387 1.67062 0
M  V30 5049 N 487.773 -1.03688 -1.18687 0
M  V30 5050 C 489.021 -0.736572 -1.88199 0
M  V30 5051 C 489.342 0.737665 -1.80509 0
M  V30 5052 O 488.612 1.53204 -1.22088 0
M  V30 5053 H 487.192 -0.269466 -0.696704 0
M  V30 5054 H 489.854 -1.31282 -1.44052 0
M  V30 5055 H 488.95 -1.03802 -2.94332 0
M  V30 5056 N 489.251 1.34841 -0.815825 0
M  V30 5057 C 490.183 2.28409 -0.190265 0
M  V30 5058 C 491.196 1.50705 0.615771 0
M  V30 5059 O 492.385 1.72822 0.446616 0
M  V30 5060 C 489.485 3.30441 0.752446 0
M  V30 5061 C 488.658 4.37399 -0.00922152 0
M  V30 5062 C 487.717 5.19234 0.853351 0
M  V30 5063 O 486.743 5.68404 0.300919 0
M  V30 5064 N 487.945 5.38248 2.17416 0
M  V30 5065 H 490.71 2.82732 -0.994114 0
M  V30 5066 H 488.271 1.47289 -0.672129 0
M  V30 5067 H 490.263 3.82084 1.33394 0
M  V30 5068 H 488.833 2.76565 1.45707 0
M  V30 5069 H 488.053 3.86567 -0.771979 0
M  V30 5070 H 489.341 5.05992 -0.533807 0
M  V30 5071 H 488.739 4.99961 2.6468 0
M  V30 5072 H 487.296 5.93035 2.70467 0
M  V30 5073 N 490.729 0.570148 1.46925 0
M  V30 5074 C 492.14 0.1402 1.86173 0
M  V30 5075 C 492.491 -1.29347 1.47526 0
M  V30 5076 O 491.616 -1.97508 0.884292 0
M  V30 5077 C 492.211 0.247661 3.37894 0
M  V30 5078 C 490.77 -0.127332 3.76185 0
M  V30 5079 C 489.917 0.589349 2.70965 0
M  V30 5080 H 492.868 0.779117 1.38259 0
M  V30 5081 H 492.889 -0.530341 3.76786 0
M  V30 5082 H 492.401 1.29121 3.65991 0
M  V30 5083 H 490.502 -1.17149 3.53704 0
M  V30 5084 H 490.615 0.240238 4.78497 0
M  V30 5085 H 488.979 0.0309824 2.54681 0
M  V30 5086 H 489.762 1.6343 3.01903 0
M  V30 5087 N 492.207 -1.54576 0.307264 0
M  V30 5088 C 493.623 -1.59534 -0.0459251 0
M  V30 5089 C 493.823 -1.32414 -1.51884 0
M  V30 5090 O 492.879 -1.1006 -2.27251 0
M  V30 5091 C 494.192 -2.98566 0.357649 0
M  V30 5092 C 495.74 -3.11491 0.306937 0
M  V30 5093 C 496.215 -4.52842 0.685427 0
M  V30 5094 N 497.706 -4.58782 0.638203 0
M  V30 5095 C 498.441 -5.66238 0.903458 0
M  V30 5096 N 497.937 -6.81703 1.23501 0
M  V30 5097 N 499.73 -5.55937 0.830102 0
M  V30 5098 H 491.881 -1.70464 1.26712 0
M  V30 5099 H 494.144 -0.79647 0.514139 0
M  V30 5100 H 493.85 -3.23356 1.38325 0
M  V30 5101 H 493.724 -3.76117 -0.285565 0
M  V30 5102 H 496.111 -2.86446 -0.709424 0
M  V30 5103 H 496.192 -2.36081 0.984861 0
M  V30 5104 H 495.836 -4.78618 1.69963 0
M  V30 5105 H 495.766 -5.26598 -0.0146346 0
M  V30 5106 H 498.257 -3.75849 0.393138 0
M  V30 5107 H 498.57 -7.59582 1.42322 0
M  V30 5108 H 496.915 -6.8324 1.27311 0
M  V30 5109 H 500.106 -4.64608 0.570693 0
M  V30 5110 H 500.279 -6.39597 1.04019 0
M  V30 5111 N 493.685 -0.035106 -1.57561 0
M  V30 5112 C 494.595 0.960295 -2.14046 0
M  V30 5113 C 495.611 1.3529 -1.0942 0
M  V30 5114 O 496.787 1.43309 -1.41508 0
M  V30 5115 C 493.852 2.22214 -2.66124 0
M  V30 5116 C 492.913 1.8894 -3.85487 0
M  V30 5117 C 492.146 3.09109 -4.35072 0
M  V30 5118 O 492.369 4.21963 -3.83802 0
M  V30 5119 O 491.303 2.91058 -5.26848 0
M  V30 5120 H 495.129 0.509983 -2.99387 0
M  V30 5121 H 492.714 0.185853 -1.48239 0
M  V30 5122 H 494.596 2.96279 -2.99661 0
M  V30 5123 H 493.271 2.66414 -1.83862 0
M  V30 5124 H 492.178 1.12241 -3.56865 0
M  V30 5125 H 493.511 1.49551 -4.6893 0
M  V30 5126 N 495.163 1.55791 0.238111 0
M  V30 5127 C 496.574 1.68383 0.806472 0
M  V30 5128 C 496.925 0.634157 1.85669 0
M  V30 5129 O 496.05 -0.217913 2.153 0
M  V30 5130 C 496.645 3.05268 1.46959 0
M  V30 5131 C 495.204 3.1977 1.98555 0
M  V30 5132 C 494.351 2.64279 0.839763 0
M  V30 5133 H 497.302 1.58694 0.0137535 0
M  V30 5134 H 497.323 3.00203 2.33792 0
M  V30 5135 H 496.835 3.81643 0.704993 0
M  V30 5136 H 494.936 2.48234 2.77868 0
M  V30 5137 H 495.049 4.26788 2.17689 0
M  V30 5138 H 493.413 2.22329 1.24265 0
M  V30 5139 H 494.196 3.43187 0.0881032 0
M  V30 5140 N 496.642 -0.504142 1.49319 0
M  V30 5141 C 497.574 -1.62265 1.61872 0
M  V30 5142 C 498.587 -1.54881 0.501573 0
M  V30 5143 O 499.776 -1.6087 0.773497 0
M  V30 5144 C 496.876 -3.01042 1.55651 0
M  V30 5145 C 496.049 -3.33642 2.82845 0
M  V30 5146 C 495.108 -4.51816 2.69719 0
M  V30 5147 O 494.134 -4.53755 3.4365 0
M  V30 5148 N 495.336 -5.51543 1.81055 0
M  V30 5149 H 498.101 -1.51924 2.58339 0
M  V30 5150 H 495.662 -0.691954 1.46368 0
M  V30 5151 H 497.654 -3.78013 1.44528 0
M  V30 5152 H 496.224 -3.05323 0.670546 0
M  V30 5153 H 495.444 -2.45598 3.08343 0
M  V30 5154 H 496.732 -3.5222 3.67177 0
M  V30 5155 H 496.13 -5.52774 1.20241 0
M  V30 5156 H 494.687 -6.27629 1.75856 0
M  V30 5157 N 498.12 -1.38341 -0.754957 0
M  V30 5158 C 499.366 -1.34672 -1.51628 0
M  V30 5159 C 499.699 0.0636036 -1.94096 0
M  V30 5160 O 498.974 1.0245 -1.6533 0
M  V30 5161 C 499.257 -2.30116 -2.76981 0
M  V30 5162 C 499.11 -3.80003 -2.4066 0
M  V30 5163 C 500.429 -2.23715 -3.78998 0
M  V30 5164 H 497.548 -0.490517 -0.550056 0
M  V30 5165 H 500.19 -1.69178 -0.864807 0
M  V30 5166 H 498.34 -2.00821 -3.3257 0
M  V30 5167 H 500.012 -4.19966 -1.90856 0
M  V30 5168 H 498.255 -3.97751 -1.73137 0
M  V30 5169 H 498.926 -4.42244 -3.30339 0
M  V30 5170 H 501.402 -2.49574 -3.32945 0
M  V30 5171 H 500.278 -2.9261 -4.64403 0
M  V30 5172 H 500.539 -1.23554 -4.24484 0
M  V30 5173 N 499.598 0.982988 -1.23187 0
M  V30 5174 C 500.828 1.75666 -1.08743 0
M  V30 5175 C 501.236 1.85662 0.364195 0
M  V30 5176 O 500.579 1.33317 1.26382 0
M  V30 5177 C 500.641 3.20144 -1.63549 0
M  V30 5178 C 500.305 3.33665 -3.12277 0
M  V30 5179 C 501.302 3.20194 -4.096 0
M  V30 5180 C 498.987 3.58397 -3.51933 0
M  V30 5181 C 500.981 3.31256 -5.44563 0
M  V30 5182 C 498.668 3.69098 -4.87042 0
M  V30 5183 C 499.666 3.55537 -5.83166 0
M  V30 5184 O 499.354 3.65864 -7.1582 0
M  V30 5185 H 499.086 0.558194 -0.381307 0
M  V30 5186 H 501.64 1.24387 -1.63454 0
M  V30 5187 H 499.87 3.72659 -1.03256 0
M  V30 5188 H 501.559 3.79262 -1.4462 0
M  V30 5189 H 502.325 3.00987 -3.80305 0
M  V30 5190 H 498.204 3.68025 -2.77631 0
M  V30 5191 H 501.748 3.20588 -6.19572 0
M  V30 5192 H 497.645 3.87814 -5.16014 0
M  V30 5193 H 498.413 3.82675 -7.23534 0
M  V30 5194 N 501.076 1.04316 1.18135 0
M  V30 5195 C 502.304 0.768117 1.92113 0
M  V30 5196 C 502.719 -0.675057 1.76319 0
M  V30 5197 O 502.076 -1.46038 1.09449 0
M  V30 5198 C 502.127 1.12808 3.43448 0
M  V30 5199 O 501.848 2.5146 3.58747 0
M  V30 5200 C 503.349 0.8779 4.3452 0
M  V30 5201 H 500.569 0.279937 0.609817 0
M  V30 5202 H 503.113 1.39149 1.49859 0
M  V30 5203 H 501.268 0.549623 3.83481 0
M  V30 5204 H 501.682 2.65313 4.52448 0
M  V30 5205 H 503.156 1.17959 5.39249 0
M  V30 5206 H 503.633 -0.187239 4.38801 0
M  V30 5207 H 504.239 1.43977 4.00188 0
M  V30 5208 N 502.554 -1.34406 0.822964 0
M  V30 5209 C 503.484 -2.32052 0.259608 0
M  V30 5210 C 504.465 -1.58243 -0.623961 0
M  V30 5211 O 505.65 -1.86224 -0.55083 0
M  V30 5212 C 502.78 -3.42434 -0.579314 0
M  V30 5213 C 501.734 -4.27499 0.20712 0
M  V30 5214 C 501.06 -5.29349 -0.754547 0
M  V30 5215 C 502.36 -5.02758 1.41533 0
M  V30 5216 H 504.054 -2.79418 1.07545 0
M  V30 5217 H 501.6 -1.34338 0.518593 0
M  V30 5218 H 503.553 -4.0976 -0.983612 0
M  V30 5219 H 502.277 -2.93717 -1.4282 0
M  V30 5220 H 500.936 -3.61776 0.592787 0
M  V30 5221 H 500.584 -4.76895 -1.59939 0
M  V30 5222 H 500.284 -5.8714 -0.232561 0
M  V30 5223 H 501.808 -5.99544 -1.1567 0
M  V30 5224 H 503.222 -5.62938 1.08504 0
M  V30 5225 H 501.619 -5.70123 1.87296 0
M  V30 5226 H 502.689 -4.32451 2.1935 0
M  V30 5227 N 504.032 -0.577932 -1.46621 0
M  V30 5228 C 505.443 -0.150071 -1.86096 0
M  V30 5229 C 505.794 1.28563 -1.48209 0
M  V30 5230 O 504.919 1.97036 -0.894754 0
M  V30 5231 C 505.514 -0.265576 -3.37758 0
M  V30 5232 C 504.073 0.10738 -3.76247 0
M  V30 5233 C 503.22 -0.603711 -2.70649 0
M  V30 5234 H 506.171 -0.786438 -1.37844 0
M  V30 5235 H 506.192 0.510352 -3.77062 0
M  V30 5236 H 505.704 -1.3106 -3.65301 0
M  V30 5237 H 503.805 1.15272 -3.54321 0
M  V30 5238 H 503.918 -0.26561 -4.78363 0
M  V30 5239 H 502.282 -0.0444884 -2.54661 0
M  V30 5240 H 503.065 -1.65029 -3.01032 0
M  V30 5241 N 505.51 1.54411 -0.315457 0
M  V30 5242 C 506.921 1.85885 0.174265 0
M  V30 5243 C 507.272 1.23723 1.52273 0
M  V30 5244 O 506.397 0.540246 2.09548 0
M  V30 5245 C 506.992 3.37257 0.322981 0
M  V30 5246 C 505.551 3.68711 0.756922 0
M  V30 5247 C 504.698 2.77013 -0.126195 0
M  V30 5248 H 507.649 1.49374 -0.536007 0
M  V30 5249 H 507.67 3.62539 1.15522 0
M  V30 5250 H 507.182 3.82471 -0.658602 0
M  V30 5251 H 505.283 3.29024 1.74854 0
M  V30 5252 H 505.396 4.75741 0.566291 0
M  V30 5253 H 503.76 2.51588 0.39692 0
M  V30 5254 H 504.543 3.25051 -1.1044 0
M  V30 5255 N 506.988 0.0434614 1.5754 0
M  V30 5256 C 508.213 -0.645358 1.97104 0
M  V30 5257 C 508.638 -1.64037 0.920521 0
M  V30 5258 O 507.996 -1.80922 -0.11708 0
M  V30 5259 C 508.044 -1.31547 3.35749 0
M  V30 5260 O 507.148 -2.43103 3.33129 0
M  V30 5261 H 506.489 -0.168403 0.64229 0
M  V30 5262 H 509.019 0.109573 2.04306 0
M  V30 5263 H 509.029 -1.66895 3.72304 0
M  V30 5264 H 507.704 -0.586205 4.11748 0
M  V30 5265 H 506.281 -2.0976 3.0831 0
M  V30 5266 N 508.466 -1.55915 -0.229846 0
M  V30 5267 C 509.882 -1.48721 -0.579166 0
M  V30 5268 C 510.082 -0.736976 -1.87539 0
M  V30 5269 O 509.138 -0.273258 -2.51017 0
M  V30 5270 C 510.451 -2.9323 -0.666082 0
M  V30 5271 C 511.999 -3.03701 -0.757267 0
M  V30 5272 C 512.474 -4.49552 -0.8756 0
M  V30 5273 N 513.965 -4.53561 -0.940035 0
M  V30 5274 C 514.7 -5.63683 -1.05116 0
M  V30 5275 N 514.196 -6.83576 -1.12675 0
M  V30 5276 N 515.989 -5.51516 -1.08565 0
M  V30 5277 H 508.14 -2.03123 0.620857 0
M  V30 5278 H 510.403 -0.922898 0.21671 0
M  V30 5279 H 510.109 -3.51032 0.21664 0
M  V30 5280 H 509.983 -3.44668 -1.53243 0
M  V30 5281 H 512.37 -2.45969 -1.63043 0
M  V30 5282 H 512.451 -2.55446 0.134583 0
M  V30 5283 H 512.095 -5.079 -0.00692351 0
M  V30 5284 H 512.025 -4.95506 -1.78274 0
M  V30 5285 H 514.516 -3.67215 -0.892269 0
M  V30 5286 H 514.829 -7.63251 -1.21109 0
M  V30 5287 H 513.174 -6.86303 -1.09603 0
M  V30 5288 H 516.365 -4.5678 -1.02319 0
M  V30 5289 H 516.538 -6.37372 -1.1688 0
M  V30 5290 N 509.944 0.496216 -1.49584 0
M  V30 5291 C 511.221 1.25755 -1.49816 0
M  V30 5292 C 511.601 2.09859 -0.228572 0
M  V30 5293 O 510.949 2.14449 0.788908 0
M  V30 5294 C 511.159 2.11017 -2.7798 0
M  V30 5295 C 512.507 2.70047 -3.27658 0
M  V30 5296 O 513.531 2.21281 -2.79129 0
M  V30 5297 O 512.39 3.58834 -4.1219 0
M  V30 5298 H 509.484 0.569322 -0.599834 0
M  V30 5299 H 512.03 0.510094 -1.61852 0
M  V30 5300 H 510.802 1.48879 -3.61871 0
M  V30 5301 H 510.425 2.92947 -2.68827 0
M  V30 5302 N 511.423 1.38739 0.74761 0
M  V30 5303 C 512.333 1.38696 1.89211 0
M  V30 5304 C 513.349 0.283303 1.71678 0
M  V30 5305 O 514.525 0.522713 1.94498 0
M  V30 5306 C 511.59 1.21662 3.24653 0
M  V30 5307 C 510.651 2.41886 3.54669 0
M  V30 5308 C 509.884 2.25655 4.83648 0
M  V30 5309 O 510.107 1.25339 5.56459 0
M  V30 5310 O 509.041 3.14372 5.13277 0
M  V30 5311 H 512.867 2.35143 1.92202 0
M  V30 5312 H 510.452 1.19721 0.893708 0
M  V30 5313 H 512.334 1.14246 4.05618 0
M  V30 5314 H 511.009 0.283024 3.2246 0
M  V30 5315 H 509.916 2.54877 2.73841 0
M  V30 5316 H 511.249 3.33895 3.61628 0
M  V30 5317 N 512.901 -0.976442 1.23707 0
M  V30 5318 C 513.831 -2.08749 1.04624 0
M  V30 5319 C 514.812 -1.70057 -0.0380956 0
M  V30 5320 O 515.997 -1.93782 0.127308 0
M  V30 5321 C 513.127 -3.41335 0.640902 0
M  V30 5322 C 512.081 -3.93947 1.67302 0
M  V30 5323 C 511.407 -5.22774 1.12301 0
M  V30 5324 C 512.707 -4.22769 3.06697 0
M  V30 5325 H 514.401 -2.24972 1.97555 0
M  V30 5326 H 511.947 -1.08108 0.951247 0
M  V30 5327 H 513.9 -4.18489 0.494434 0
M  V30 5328 H 512.624 -3.24988 -0.324099 0
M  V30 5329 H 511.283 -3.18941 1.80755 0
M  V30 5330 H 510.931 -5.0278 0.148877 0
M  V30 5331 H 510.631 -5.58942 1.81267 0
M  V30 5332 H 512.155 -6.02546 0.988479 0
M  V30 5333 H 513.569 -4.90659 2.96524 0
M  V30 5334 H 511.966 -4.70147 3.72937 0
M  V30 5335 H 513.036 -3.29885 3.55392 0
M  V30 5336 N 514.379 -1.04941 -1.1758 0
M  V30 5337 C 515.607 -0.778294 -1.91703 0
M  V30 5338 C 516.022 0.665697 -1.76675 0
M  V30 5339 O 515.379 1.45456 -1.10222 0
M  V30 5340 C 515.43 -1.14628 -3.42845 0
M  V30 5341 O 515.151 -2.53359 -3.57409 0
M  V30 5342 C 516.652 -0.900931 -4.34049 0
M  V30 5343 H 513.872 -0.283167 -0.608323 0
M  V30 5344 H 516.416 -1.39942 -1.49119 0
M  V30 5345 H 514.571 -0.569953 -3.83184 0
M  V30 5346 H 514.985 -2.67709 -4.51035 0
M  V30 5347 H 516.459 -1.20817 -5.38616 0
M  V30 5348 H 516.936 0.163966 -4.38894 0
M  V30 5349 H 517.542 -1.46097 -3.99419 0
M  V30 5350 N 515.857 1.33968 -0.830081 0
M  V30 5351 C 516.804 2.29387 -0.255008 0
M  V30 5352 C 517.774 1.53923 0.624243 0
M  V30 5353 O 518.959 1.82262 0.564372 0
M  V30 5354 C 516.099 3.4034 0.571209 0
M  V30 5355 C 515.212 4.30729 -0.331083 0
M  V30 5356 C 514.347 5.2879 0.505389 0
M  V30 5357 C 513.386 6.10819 -0.395843 0
M  V30 5358 N 512.523 7.00948 0.401979 0
M  V30 5359 H 517.363 2.77972 -1.07404 0
M  V30 5360 H 514.9 1.36785 -0.541133 0
M  V30 5361 H 516.858 4.03361 1.06562 0
M  V30 5362 H 515.488 2.9297 1.35529 0
M  V30 5363 H 514.54 3.68507 -0.943759 0
M  V30 5364 H 515.852 4.88181 -1.02377 0
M  V30 5365 H 515.006 5.97297 1.06399 0
M  V30 5366 H 513.745 4.71894 1.23155 0
M  V30 5367 H 512.75 5.41238 -0.966529 0
M  V30 5368 H 513.975 6.69797 -1.12023 0
M  V30 5369 H 511.921 6.46512 1.11168 0
M  V30 5370 H 511.838 7.55643 -0.232167 0
M  V30 5371 H 513.106 7.73774 0.943102 0
M  V30 5372 N 517.335 0.585699 1.46312 0
M  V30 5373 C 518.283 -0.158577 2.32059 0
M  V30 5374 C 519.277 -0.881427 1.44662 0
M  V30 5375 O 520.483 -0.799476 1.61271 0
M  V30 5376 H 516.858 -0.0700066 0.748734 0
M  V30 5377 H 518.829 0.583383 2.92642 0
M  V30 5378 C 517.578 -1.15701 3.27885 0
M  V30 5379 H 516.901 -0.610215 3.95116 0
M  V30 5380 H 518.341 -1.64812 3.90657 0
M  V30 5381 C 516.8 -2.21951 2.53455 0
M  V30 5382 O 517.33 -3.29352 2.29978 0
M  V30 5383 N 515.536 -1.9664 2.13965 0
M  V30 5384 H 515.083 -1.09309 2.33258 0
M  V30 5385 H 515.041 -2.6794 1.64485 0
M  V30 5386 N 518.813 -1.54241 0.323641 0
M  V30 5387 C 519.745 -2.21836 -0.576311 0
M  V30 5388 C 520.758 -1.21837 -1.07979 0
M  V30 5389 O 521.947 -1.48306 -0.99336 0
M  V30 5390 C 519.047 -2.86923 -1.80356 0
M  V30 5391 C 518.22 -4.1306 -1.43875 0
M  V30 5392 C 517.279 -4.6174 -2.52353 0
M  V30 5393 O 516.305 -5.26421 -2.16494 0
M  V30 5394 N 517.507 -4.35974 -3.83284 0
M  V30 5395 H 520.272 -2.997 0.00247987 0
M  V30 5396 H 517.833 -1.61233 0.146848 0
M  V30 5397 H 519.825 -3.16414 -2.52318 0
M  V30 5398 H 518.395 -2.12765 -2.29019 0
M  V30 5399 H 517.615 -3.90334 -0.550752 0
M  V30 5400 H 518.903 -4.95148 -1.17071 0
M  V30 5401 H 518.301 -3.84203 -4.15216 0
M  V30 5402 H 516.858 -4.70119 -4.51477 0
M  V30 5403 N 520.291 -0.0518155 -1.57515 0
M  V30 5404 C 521.537 0.622745 -1.93002 0
M  V30 5405 C 521.87 1.70456 -0.930499 0
M  V30 5406 O 521.145 1.94452 0.0434086 0
M  V30 5407 C 521.428 1.21824 -3.38867 0
M  V30 5408 C 521.281 0.144434 -4.49568 0
M  V30 5409 C 522.6 2.12968 -3.8514 0
M  V30 5410 H 519.719 0.22491 -0.701844 0
M  V30 5411 H 522.361 -0.113711 -1.89659 0
M  V30 5412 H 520.511 1.8459 -3.41846 0
M  V30 5413 H 522.183 -0.48753 -4.58717 0
M  V30 5414 H 520.426 -0.527424 -4.30582 0
M  V30 5415 H 521.097 0.601127 -5.48717 0
M  V30 5416 H 523.573 1.60163 -3.8404 0
M  V30 5417 H 522.449 2.51578 -4.87852 0
M  V30 5418 H 522.71 3.03004 -3.21934 0
M  V30 5419 N 521.769 1.56035 0.221574 0
M  V30 5420 C 522.994 1.83476 0.967026 0
M  V30 5421 C 523.419 0.632139 1.7716 0
M  V30 5422 O 522.777 -0.419082 1.7639 0
M  V30 5423 C 522.825 3.08907 1.86034 0
M  V30 5424 O 521.929 2.876 2.95567 0
M  V30 5425 H 521.27 0.604913 0.273817 0
M  V30 5426 H 523.8 2.03247 0.234893 0
M  V30 5427 H 523.81 3.3901 2.27016 0
M  V30 5428 H 522.485 3.96068 1.26898 0
M  V30 5429 H 521.062 2.6873 2.58532 0
M  V30 5430 N 523.247 -0.488276 1.49845 0
M  V30 5431 C 524.177 -1.59675 1.70371 0
M  V30 5432 C 525.158 -1.60878 0.552473 0
M  V30 5433 O 526.343 -1.77417 0.78973 0
M  V30 5434 C 523.473 -2.98098 1.782 0
M  V30 5435 C 522.427 -3.11761 2.93239 0
M  V30 5436 C 521.753 -4.51661 2.86193 0
M  V30 5437 C 523.053 -2.90589 4.33999 0
M  V30 5438 H 524.747 -1.42752 2.63177 0
M  V30 5439 H 522.293 -0.685317 1.26647 0
M  V30 5440 H 524.246 -3.75555 1.91144 0
M  V30 5441 H 522.97 -3.16138 0.820018 0
M  V30 5442 H 521.629 -2.36732 2.79917 0
M  V30 5443 H 521.277 -4.66595 1.87877 0
M  V30 5444 H 520.977 -4.61742 3.63412 0
M  V30 5445 H 522.501 -5.31162 3.01163 0
M  V30 5446 H 523.915 -3.57807 4.47936 0
M  V30 5447 H 522.312 -3.1213 5.12538 0
M  V30 5448 H 523.382 -1.86595 4.4756 0
M  V30 5449 N 524.725 -1.39134 -0.740242 0
M  V30 5450 C 525.953 -1.39334 -1.5295 0
M  V30 5451 C 526.368 0.0135008 -1.88795 0
M  V30 5452 O 525.725 0.983524 -1.5373 0
M  V30 5453 C 525.776 -2.2614 -2.82034 0
M  V30 5454 O 525.497 -3.61345 -2.47712 0
M  V30 5455 C 526.998 -2.34666 -3.76094 0
M  V30 5456 H 524.218 -0.476103 -0.472828 0
M  V30 5457 H 526.762 -1.82883 -0.9151 0
M  V30 5458 H 524.917 -1.86018 -3.39818 0
M  V30 5459 H 525.331 -4.07194 -3.30595 0
M  V30 5460 H 526.805 -2.99663 -4.63579 0
M  V30 5461 H 527.282 -1.36426 -4.17474 0
M  V30 5462 H 527.888 -2.75236 -3.2423 0
M  V30 5463 N 526.204 0.969867 -1.24223 0
M  V30 5464 C 527.444 1.72754 -1.0925 0
M  V30 5465 C 527.808 1.88541 0.362787 0
M  V30 5466 O 529.009 2.61217 0.633969 0
M  V30 5467 C 527.28 3.08204 -1.80957 0
M  V30 5468 S 528.839 3.99418 -1.81688 0
M  V30 5469 H 525.657 0.593981 -0.390778 0
M  V30 5470 H 528.259 1.15792 -1.5752 0
M  V30 5471 H 526.963 2.94372 -2.85961 0
M  V30 5472 H 526.494 3.70232 -1.33012 0
M  V30 5473 H 528.509 4.8828 -0.883001 0
M  V30 5474 N 527.682 1.05563 1.17022 0
M  V30 5475 C 528.612 0.681026 2.23348 0
M  V30 5476 C 529.593 -0.322983 1.67005 0
M  V30 5477 O 530.778 -0.199746 1.9317 0
M  V30 5478 C 527.908 0.0589053 3.4725 0
M  V30 5479 C 526.862 0.988082 4.16438 0
M  V30 5480 C 526.188 0.229646 5.34207 0
M  V30 5481 C 527.488 2.31388 4.68249 0
M  V30 5482 H 529.182 1.56993 2.54938 0
M  V30 5483 H 526.728 0.756302 1.2254 0
M  V30 5484 H 528.681 -0.214982 4.20851 0
M  V30 5485 H 527.405 -0.864968 3.14938 0
M  V30 5486 H 526.064 1.24659 3.44754 0
M  V30 5487 H 525.712 -0.697111 4.98146 0
M  V30 5488 H 525.412 0.848815 5.81437 0
M  V30 5489 H 526.936 -0.0368694 6.10589 0
M  V30 5490 H 528.35 2.09964 5.33468 0
M  V30 5491 H 526.747 2.88736 5.26072 0
M  V30 5492 H 527.817 2.94982 3.84855 0
M  V30 5493 N 529.16 -1.33526 0.837174 0
M  V30 5494 C 530.406 -1.9813 0.432704 0
M  V30 5495 C 530.739 -1.66168 -1.00508 0
M  V30 5496 O 530.014 -0.94069 -1.70239 0
M  V30 5497 C 530.297 -3.54151 0.651834 0
M  V30 5498 C 530.15 -3.95806 2.13676 0
M  V30 5499 C 531.469 -4.39993 0.0968937 0
M  V30 5500 H 528.588 -0.719713 0.15869 0
M  V30 5501 H 531.23 -1.58193 1.05237 0
M  V30 5502 H 529.38 -3.88301 0.124369 0
M  V30 5503 H 531.052 -3.71921 2.72896 0
M  V30 5504 H 529.295 -3.45599 2.62191 0
M  V30 5505 H 529.966 -5.0447 2.24084 0
M  V30 5506 H 532.442 -4.12479 0.547733 0
M  V30 5507 H 531.318 -5.48186 0.279917 0
M  V30 5508 H 531.579 -4.3066 -0.9992 0
M  V30 5509 N 530.638 -0.59345 -1.46 0
M  V30 5510 C 531.585 0.133618 -2.30413 0
M  V30 5511 C 532.555 0.873736 -1.41262 0
M  V30 5512 O 533.74 0.862279 -1.70204 0
M  V30 5513 C 530.88 1.13434 -3.25924 0
M  V30 5514 C 529.993 0.39656 -4.30176 0
M  V30 5515 C 529.128 1.38575 -5.12806 0
M  V30 5516 C 528.167 0.634984 -6.08797 0
M  V30 5517 N 527.304 1.57276 -6.84258 0
M  V30 5518 H 532.144 -0.592252 -2.92055 0
M  V30 5519 H 529.681 -0.303874 -1.43927 0
M  V30 5520 H 531.639 1.72752 -3.79753 0
M  V30 5521 H 530.269 1.82779 -2.66067 0
M  V30 5522 H 529.321 -0.311861 -3.79119 0
M  V30 5523 H 530.633 -0.189869 -4.98438 0
M  V30 5524 H 529.787 2.05141 -5.70966 0
M  V30 5525 H 528.526 2.00611 -4.44529 0
M  V30 5526 H 527.531 -0.0443925 -5.49782 0
M  V30 5527 H 528.756 0.0198678 -6.79097 0
M  V30 5528 H 526.702 2.18103 -6.18682 0
M  V30 5529 H 526.619 1.03941 -7.48821 0
M  V30 5530 H 527.887 2.22844 -7.46968 0
M  V30 5531 N 532.116 1.54067 -0.331816 0
M  V30 5532 C 533.364 2.00319 0.267739 0
M  V30 5533 C 533.685 1.22148 1.52003 0
M  V30 5534 O 532.955 0.325494 1.93177 0
M  V30 5535 H 531.535 0.740014 0.101922 0
M  V30 5536 H 534.197 1.89628 -0.450267 0
M  V30 5537 H 533.293 3.07765 0.518385 0
M  V30 5538 N 533.594 0.0601682 1.57485 0
M  V30 5539 C 534.841 -0.611594 1.93043 0
M  V30 5540 C 535.169 -1.70317 0.939274 0
M  V30 5541 O 534.424 -1.95644 -0.046996 0
M  V30 5542 C 534.723 -1.23831 3.35262 0
M  V30 5543 C 534.389 -0.274037 4.50066 0
M  V30 5544 C 533.051 -0.00872394 4.81199 0
M  V30 5545 C 535.403 0.386308 5.19766 0
M  V30 5546 C 532.731 0.924218 5.79375 0
M  V30 5547 C 535.083 1.3075 6.1894 0
M  V30 5548 C 533.747 1.58139 6.48497 0
M  V30 5549 H 533.017 -0.223798 0.706396 0
M  V30 5550 H 535.664 0.128566 1.91068 0
M  V30 5551 H 533.969 -2.05394 3.33647 0
M  V30 5552 H 535.666 -1.76517 3.60059 0
M  V30 5553 H 532.256 -0.491008 4.25778 0
M  V30 5554 H 536.44 0.194436 4.95919 0
M  V30 5555 H 531.696 1.1438 6.00606 0
M  V30 5556 H 535.87 1.82519 6.72056 0
M  V30 5557 H 533.497 2.30593 7.24383 0
M  V30 5558 N 535.072 -1.5615 -0.213296 0
M  V30 5559 C 536.302 -1.83372 -0.951757 0
M  V30 5560 C 536.71 -0.638158 -1.78113 0
M  V30 5561 O 536.053 0.402609 -1.79234 0
M  V30 5562 C 536.115 -3.04444 -1.91192 0
M  V30 5563 C 535.779 -4.39107 -1.26627 0
M  V30 5564 C 536.776 -5.15794 -0.652087 0
M  V30 5565 C 534.461 -4.85834 -1.27556 0
M  V30 5566 C 536.455 -6.37376 -0.055814 0
M  V30 5567 C 534.142 -6.07356 -0.675451 0
M  V30 5568 C 535.14 -6.82967 -0.0666367 0
M  V30 5569 O 534.828 -8.0219 0.524119 0
M  V30 5570 H 534.56 -0.613398 -0.284111 0
M  V30 5571 H 537.114 -2.04096 -0.231112 0
M  V30 5572 H 535.344 -2.79559 -2.67178 0
M  V30 5573 H 537.033 -3.18466 -2.51662 0
M  V30 5574 H 537.799 -4.80796 -0.637172 0
M  V30 5575 H 533.678 -4.26949 -1.73883 0
M  V30 5576 H 537.222 -6.96334 0.420004 0
M  V30 5577 H 533.119 -6.41825 -0.687806 0
M  V30 5578 H 533.887 -8.17426 0.419243 0
M  V30 5579 N 536.55 0.480323 -1.50102 0
M  V30 5580 C 537.961 1.06142 -1.53593 0
M  V30 5581 C 538.312 1.93335 -0.334055 0
M  V30 5582 O 537.437 2.09188 0.55403 0
M  V30 5583 C 538.032 1.9317 -2.78336 0
M  V30 5584 C 536.591 2.46405 -2.84538 0
M  V30 5585 C 535.738 1.24521 -2.4777 0
M  V30 5586 H 538.689 0.26333 -1.565 0
M  V30 5587 H 538.71 2.78123 -2.59669 0
M  V30 5588 H 538.222 1.29683 -3.65792 0
M  V30 5589 H 536.323 3.13472 -2.01411 0
M  V30 5590 H 536.436 2.82143 -3.87211 0
M  V30 5591 H 534.8 1.57706 -2.00003 0
M  V30 5592 H 535.583 0.627102 -3.37524 0
M  V30 5593 N 538.028 1.39524 0.732853 0
M  V30 5594 C 539.253 1.40329 1.52717 0
M  V30 5595 C 539.678 0.000286574 1.881 0
M  V30 5596 O 539.036 -0.987262 1.52062 0
M  V30 5597 C 539.084 2.28464 2.78992 0
M  V30 5598 O 538.188 1.716 3.75003 0
M  V30 5599 H 537.529 0.47778 0.461109 0
M  V30 5600 H 540.059 1.83546 0.903996 0
M  V30 5601 H 540.069 2.43051 3.27705 0
M  V30 5602 H 538.744 3.30425 2.52572 0
M  V30 5603 H 537.321 1.66267 3.33781 0
M  V30 5604 N 539.506 -0.963266 1.24736 0
M  V30 5605 C 540.783 -1.68248 0.9976 0
M  V30 5606 C 541.163 -2.05599 -0.478776 0
M  V30 5607 O 540.511 -1.7626 -1.45412 0
M  V30 5608 C 540.721 -2.91118 1.92487 0
M  V30 5609 C 542.069 -3.63261 2.19833 0
M  V30 5610 O 543.093 -3.01184 1.90176 0
M  V30 5611 O 541.952 -4.75019 2.7022 0
M  V30 5612 H 539.046 -0.735744 0.377637 0
M  V30 5613 H 541.592 -1.01696 1.35853 0
M  V30 5614 H 540.364 -2.60242 2.92215 0
M  V30 5615 H 539.987 -3.65402 1.56738 0
M  V30 5616 N 540.985 -1.06182 -1.16461 0
M  V30 5617 C 542.234 -0.772927 -1.86303 0
M  V30 5618 C 542.547 0.703187 -1.82523 0
M  V30 5619 O 543.753 1.10641 -2.47933 0
M  V30 5620 C 542.209 -1.33249 -3.34324 0
M  V30 5621 C 541.817 -2.83876 -3.46581 0
M  V30 5622 C 543.561 -1.12108 -4.09429 0
M  V30 5623 C 541.468 -3.33082 -4.88682 0
M  V30 5624 H 540.398 -0.285452 -0.697878 0
M  V30 5625 H 543.049 -1.28039 -1.31447 0
M  V30 5626 H 541.431 -0.7528 -3.88779 0
M  V30 5627 H 542.605 -3.47786 -3.02293 0
M  V30 5628 H 540.92 -3.03671 -2.84909 0
M  V30 5629 H 543.517 -1.46361 -5.14279 0
M  V30 5630 H 543.86 -0.0593832 -4.16258 0
M  V30 5631 H 544.393 -1.6665 -3.6121 0
M  V30 5632 H 541.132 -4.38726 -4.87032 0
M  V30 5633 H 540.652 -2.73919 -5.33599 0
M  V30 5634 H 542.331 -3.28344 -5.57494 0
M  V30 5635 N 542.463 1.3308 -0.844243 0
M  V30 5636 C 543.426 2.27403 -0.286485 0
M  V30 5637 C 544.426 1.51179 0.547872 0
M  V30 5638 O 545.616 1.70421 0.360886 0
M  V30 5639 C 542.748 3.35653 0.595813 0
M  V30 5640 H 543.941 2.78248 -1.11885 0
M  V30 5641 H 541.494 1.43574 -0.617749 0
M  V30 5642 H 542.229 2.90058 1.4504 0
M  V30 5643 H 542.014 3.921 -0.00125994 0
M  V30 5644 H 543.504 4.05958 0.979168 0
M  V30 5645 N 543.941 0.601185 1.45683 0
M  V30 5646 C 545.187 0.0940202 2.02582 0
M  V30 5647 C 545.52 -1.26972 1.46941 0
M  V30 5648 O 544.795 -1.83613 0.641612 0
M  V30 5649 C 545.078 0.0481715 3.60068 0
M  V30 5650 C 544.931 1.44212 4.26055 0
M  V30 5651 C 546.25 -0.642975 4.35378 0
M  V30 5652 H 543.369 0.0356404 0.736138 0
M  V30 5653 H 546.011 0.771929 1.73612 0
M  V30 5654 H 544.161 -0.529128 3.8488 0
M  V30 5655 H 545.833 2.06601 4.12449 0
M  V30 5656 H 544.076 2.00465 3.84703 0
M  V30 5657 H 544.747 1.36234 5.34925 0
M  V30 5658 H 547.223 -0.152351 4.15821 0
M  V30 5659 H 546.099 -0.644141 5.45107 0
M  V30 5660 H 546.36 -1.70785 4.0778 0
M  V30 5661 N 545.419 -1.53889 0.339982 0
M  V30 5662 C 546.329 -2.28604 -0.526988 0
M  V30 5663 C 547.345 -1.33578 -1.11503 0
M  V30 5664 O 548.521 -1.66612 -1.13148 0
M  V30 5665 C 545.586 -3.04164 -1.66389 0
M  V30 5666 C 544.647 -4.14809 -1.10599 0
M  V30 5667 C 543.88 -4.86756 -2.18871 0
M  V30 5668 O 544.103 -4.58343 -3.39526 0
M  V30 5669 O 543.037 -5.73289 -1.83366 0
M  V30 5670 H 546.863 -3.03594 0.0802707 0
M  V30 5671 H 544.448 -1.4903 0.105141 0
M  V30 5672 H 546.33 -3.51427 -2.32544 0
M  V30 5673 H 545.005 -2.32035 -2.25703 0
M  V30 5674 H 543.912 -3.71857 -0.409067 0
M  V30 5675 H 545.245 -4.89029 -0.557771 0
M  V30 5676 N 546.897 -0.0685191 -1.57451 0
M  V30 5677 C 548.143 0.596247 -1.94465 0
M  V30 5678 C 548.498 1.67417 -0.948117 0
M  V30 5679 O 547.791 1.91576 0.0301056 0
M  V30 5680 C 547.985 1.22051 -3.35914 0
M  V30 5681 C 547.814 0.204586 -4.49234 0
M  V30 5682 C 546.584 -0.20959 -5.04865 0
M  V30 5683 C 548.782 -0.556872 -5.11276 0
M  V30 5684 N 546.764 -1.21656 -6.01725 0
M  V30 5685 C 548.135 -1.41642 -6.03604 0
M  V30 5686 C 550.19 -0.613297 -4.94108 0
M  V30 5687 C 548.893 -2.32737 -6.80607 0
M  V30 5688 C 550.919 -1.51174 -5.71752 0
M  V30 5689 C 550.281 -2.35898 -6.63726 0
M  V30 5690 H 546.38 0.189307 -0.75874 0
M  V30 5691 H 548.964 -0.144899 -1.9416 0
M  V30 5692 H 547.135 1.9316 -3.36963 0
M  V30 5693 H 548.867 1.84548 -3.60172 0
M  V30 5694 H 545.622 0.172871 -4.73284 0
M  V30 5695 H 546.046 -1.71746 -6.54853 0
M  V30 5696 H 550.688 0.0275228 -4.22791 0
M  V30 5697 H 548.406 -2.97856 -7.51204 0
M  V30 5698 H 551.992 -1.5602 -5.6049 0
M  V30 5699 H 550.872 -3.04291 -7.22756 0
M  V30 5700 N 548.375 1.56261 0.205012 0
M  V30 5701 C 549.285 1.96944 1.27476 0
M  V30 5702 C 550.301 0.875636 1.50362 0
M  V30 5703 O 551.477 1.18058 1.6317 0
M  V30 5704 C 548.542 2.29219 2.60115 0
M  V30 5705 C 547.603 3.52255 2.45387 0
M  V30 5706 C 546.836 3.8298 3.71701 0
M  V30 5707 O 547.059 3.15138 4.75441 0
M  V30 5708 O 545.993 4.76435 3.67823 0
M  V30 5709 H 549.819 2.88144 0.959527 0
M  V30 5710 H 547.404 1.43686 0.409217 0
M  V30 5711 H 549.286 2.51098 3.3842 0
M  V30 5712 H 547.961 1.4119 2.91285 0
M  V30 5713 H 546.868 3.35635 1.65227 0
M  V30 5714 H 548.201 4.40719 2.19152 0
M  V30 5715 N 549.853 -0.472356 1.50355 0
M  V30 5716 C 551.078 -1.25251 1.65309 0
M  V30 5717 C 551.503 -1.85081 0.335643 0
M  V30 5718 O 550.861 -1.67227 -0.700335 0
M  V30 5719 C 550.909 -2.3379 2.74544 0
M  V30 5720 O 550.013 -3.38401 2.35709 0
M  V30 5721 H 549.354 -0.368539 0.552336 0
M  V30 5722 H 551.884 -0.562271 1.96722 0
M  V30 5723 H 551.894 -2.79121 2.97583 0
M  V30 5724 H 550.569 -1.89614 3.70161 0
M  V30 5725 H 549.146 -2.9879 2.23112 0
M  V30 5726 N 551.331 -1.39911 -0.725443 0
M  V30 5727 C 552.279 -1.39552 -1.86086 0
M  V30 5728 C 553.273 -0.277334 -1.67114 0
M  V30 5729 O 554.479 -0.447865 -1.74339 0
M  V30 5730 H 550.854 -0.435993 -0.612711 0
M  V30 5731 H 552.825 -2.35305 -1.83505 0
M  V30 5732 C 551.574 -1.26529 -3.2386 0
M  V30 5733 H 550.897 -2.11845 -3.3906 0
M  V30 5734 H 552.337 -1.30336 -4.03471 0
M  V30 5735 C 550.796 0.0254168 -3.3689 0
M  V30 5736 O 551.326 0.992048 -3.89257 0
M  V30 5737 N 549.532 0.0916528 -2.90455 0
M  V30 5738 H 549.079 -0.695675 -2.48028 0
M  V30 5739 H 549.037 0.954745 -2.99553 0
M  V30 5740 N 552.809 0.956637 -1.25245 0
M  V30 5741 C 554.057 1.69764 -1.09657 0
M  V30 5742 C 554.378 1.91583 0.363464 0
M  V30 5743 O 553.648 1.50149 1.25825 0
M  V30 5744 H 552.228 0.629097 -0.402798 0
M  V30 5745 H 554.89 1.15026 -1.57337 0
M  V30 5746 H 553.986 2.67769 -1.60331 0
M  V30 5747 N 554.287 1.06798 1.15896 0
M  V30 5748 C 555.219 0.641263 2.20046 0
M  V30 5749 C 556.232 -0.303355 1.59949 0
M  V30 5750 O 557.421 -0.0935478 1.78255 0
M  V30 5751 C 554.521 -0.0794029 3.38807 0
M  V30 5752 C 553.694 0.879986 4.28457 0
M  V30 5753 C 552.753 0.197638 5.25829 0
M  V30 5754 O 551.779 0.836913 5.63014 0
M  V30 5755 N 552.981 -1.05886 5.70761 0
M  V30 5756 H 555.746 1.53718 2.57276 0
M  V30 5757 H 553.307 0.951951 1.30956 0
M  V30 5758 H 555.299 -0.546418 4.00994 0
M  V30 5759 H 553.869 -0.877193 3.0004 0
M  V30 5760 H 553.089 1.52625 3.63454 0
M  V30 5761 H 554.377 1.53065 4.8523 0
M  V30 5762 H 553.775 -1.59828 5.42652 0
M  V30 5763 H 552.332 -1.46965 6.35015 0
M  V30 5764 N 555.766 -1.3263 0.851289 0
M  V30 5765 C 557.177 -1.79653 0.5081 0
M  V30 5766 C 557.528 -1.70327 -0.973815 0
M  V30 5767 O 556.653 -1.25986 -1.75944 0
M  V30 5768 C 557.248 -3.26196 0.915515 0
M  V30 5769 C 555.807 -3.71187 0.624277 0
M  V30 5770 C 554.954 -2.53804 1.11709 0
M  V30 5771 H 557.905 -1.19976 1.03882 0
M  V30 5772 H 557.926 -3.79801 0.230535 0
M  V30 5773 H 557.438 -3.32952 1.99411 0
M  V30 5774 H 555.539 -3.69948 -0.443737 0
M  V30 5775 H 555.652 -4.64132 1.18821 0
M  V30 5776 H 554.016 -2.48964 0.537484 0
M  V30 5777 H 554.799 -2.63315 2.20272 0
M  V30 5778 N 557.244 -0.608902 -1.45362 0
M  V30 5779 C 558.154 0.110969 -2.34337 0
M  V30 5780 C 559.17 0.859007 -1.51318 0
M  V30 5781 O 560.346 0.816296 -1.84116 0
M  V30 5782 C 557.411 1.09494 -3.28956 0
M  V30 5783 C 556.472 0.348718 -4.27881 0
M  V30 5784 C 555.705 1.28582 -5.17979 0
M  V30 5785 O 555.928 2.52369 -5.11533 0
M  V30 5786 O 554.862 0.782172 -5.96796 0
M  V30 5787 H 558.688 -0.620258 -2.97299 0
M  V30 5788 H 556.273 -0.36916 -1.44767 0
M  V30 5789 H 558.155 1.66163 -3.87257 0
M  V30 5790 H 556.83 1.80717 -2.68557 0
M  V30 5791 H 555.737 -0.260465 -3.73192 0
M  V30 5792 H 557.07 -0.323049 -4.91139 0
M  V30 5793 N 558.722 1.53707 -0.348139 0
M  V30 5794 C 559.67 2.26671 0.521808 0
M  V30 5795 C 560.664 1.28988 1.09811 0
M  V30 5796 O 561.87 1.4668 1.04332 0
M  V30 5797 H 558.245 0.728387 0.186968 0
M  V30 5798 H 560.216 2.98176 -0.115563 0
M  V30 5799 C 558.965 3.05591 1.6586 0
M  V30 5800 H 558.288 3.80589 1.22443 0
M  V30 5801 H 559.728 3.59851 2.24239 0
M  V30 5802 C 558.187 2.15366 2.59073 0
M  V30 5803 O 558.717 1.7528 3.61441 0
M  V30 5804 N 556.923 1.80352 2.27863 0
M  V30 5805 H 556.47 2.13149 1.44656 0
M  V30 5806 H 556.428 1.20268 2.90488 0
M  V30 5807 N 560.2 0.0768682 1.57412 0
M  V30 5808 C 561.148 -0.906229 2.1422 0
M  V30 5809 C 562.142 -1.30477 1.08037 0
M  V30 5810 O 563.348 -1.28143 1.2641 0
M  V30 5811 H 559.723 -0.310207 0.685037 0
M  V30 5812 H 561.694 -0.402228 2.95677 0
M  V30 5813 C 560.443 -2.16245 2.72274 0
M  V30 5814 H 559.766 -1.86463 3.53655 0
M  V30 5815 H 561.206 -2.83134 3.15613 0
M  V30 5816 C 559.665 -2.92437 1.67279 0
M  V30 5817 O 560.195 -3.86322 1.10081 0
M  V30 5818 N 558.401 -2.55637 1.38195 0
M  V30 5819 H 557.948 -1.79363 1.84897 0
M  V30 5820 H 557.906 -3.06919 0.681787 0
M  V30 5821 N 561.678 -1.56367 -0.196722 0
M  V30 5822 C 562.908 -1.84371 -0.932254 0
M  V30 5823 C 563.316 -0.657013 -1.77426 0
M  V30 5824 O 562.659 0.383576 -1.79651 0
M  V30 5825 C 562.721 -3.06454 -1.87952 0
M  V30 5826 C 562.385 -4.40425 -1.21962 0
M  V30 5827 C 563.382 -5.16457 -0.597343 0
M  V30 5828 C 561.067 -4.8716 -1.22396 0
M  V30 5829 C 563.061 -6.37399 0.0117913 0
M  V30 5830 C 560.748 -6.08038 -0.610995 0
M  V30 5831 C 561.746 -6.83 0.00580487 0
M  V30 5832 O 561.434 -8.01589 0.609173 0
M  V30 5833 H 561.166 -0.616377 -0.277589 0
M  V30 5834 H 563.72 -2.04329 -0.209452 0
M  V30 5835 H 561.95 -2.82377 -2.64197 0
M  V30 5836 H 563.639 -3.21118 -2.48271 0
M  V30 5837 H 564.405 -4.81445 -0.586142 0
M  V30 5838 H 560.284 -4.2877 -1.69345 0
M  V30 5839 H 563.828 -6.9585 0.493836 0
M  V30 5840 H 559.725 -6.42519 -0.619693 0
M  V30 5841 H 560.493 -8.16935 0.505919 0
M  V30 5842 N 563.156 0.464375 -1.50603 0
M  V30 5843 C 564.103 1.56152 -1.69956 0
M  V30 5844 C 565.073 1.57046 -0.54091 0
M  V30 5845 O 566.258 1.74473 -0.772258 0
M  V30 5846 C 563.398 2.94079 -1.80586 0
M  V30 5847 C 562.511 3.02923 -3.07996 0
M  V30 5848 C 561.646 4.31806 -3.09382 0
M  V30 5849 C 560.685 4.34417 -4.31218 0
M  V30 5850 N 559.822 5.54782 -4.30304 0
M  V30 5851 H 564.662 1.38955 -2.6362 0
M  V30 5852 H 562.199 0.675482 -1.30674 0
M  V30 5853 H 564.157 3.74073 -1.8473 0
M  V30 5854 H 562.787 3.09896 -0.903556 0
M  V30 5855 H 561.839 2.1576 -3.13292 0
M  V30 5856 H 563.151 3.00712 -3.97962 0
M  V30 5857 H 562.305 5.20153 -3.12292 0
M  V30 5858 H 561.044 4.36636 -2.17257 0
M  V30 5859 H 560.049 3.44467 -4.28512 0
M  V30 5860 H 561.274 4.31273 -5.24576 0
M  V30 5861 H 559.22 5.60384 -3.41037 0
M  V30 5862 H 559.137 5.54339 -5.14047 0
M  V30 5863 H 560.405 6.45235 -4.3737 0
M  V30 5864 N 564.634 1.40294 0.718013 0
M  V30 5865 C 565.862 1.4175 1.50714 0
M  V30 5866 C 566.277 0.0165366 1.88793 0
M  V30 5867 O 565.634 -0.958942 1.55276 0
M  V30 5868 C 565.685 2.30598 2.784 0
M  V30 5869 O 565.406 3.6524 2.41932 0
M  V30 5870 C 566.907 2.4062 3.72313 0
M  V30 5871 H 564.127 0.483565 0.465194 0
M  V30 5872 H 566.671 1.84316 0.885889 0
M  V30 5873 H 564.826 1.91401 3.36815 0
M  V30 5874 H 565.24 4.12402 3.24076 0
M  V30 5875 H 566.714 3.07001 4.58753 0
M  V30 5876 H 567.191 1.4305 4.15251 0
M  V30 5877 H 567.797 2.80359 3.19811 0
M  V30 5878 N 566.112 -0.949982 1.2575 0
M  V30 5879 C 567.34 -1.72972 1.13527 0
M  V30 5880 C 567.755 -1.8623 -0.310453 0
M  V30 5881 O 567.112 -1.36336 -1.2132 0
M  V30 5882 C 567.163 -3.14108 1.78936 0
M  V30 5883 O 566.884 -3.01493 3.17858 0
M  V30 5884 C 568.385 -4.08338 1.72554 0
M  V30 5885 H 565.605 -0.541864 0.395758 0
M  V30 5886 H 568.149 -1.19151 1.66202 0
M  V30 5887 H 566.304 -3.64858 1.30221 0
M  V30 5888 H 566.718 -3.90559 3.50092 0
M  V30 5889 H 568.192 -5.04963 2.22973 0
M  V30 5890 H 568.669 -4.33742 0.690251 0
M  V30 5891 H 569.275 -3.63506 2.2078 0
M  V30 5892 N 567.59 -1.07411 -1.15328 0
M  V30 5893 C 569.001 -0.820261 -1.67716 0
M  V30 5894 C 569.352 0.654539 -1.8496 0
M  V30 5895 O 568.477 1.50664 -1.55337 0
M  V30 5896 C 569.072 -1.48242 -3.04647 0
M  V30 5897 C 567.631 -1.27606 -3.5411 0
M  V30 5898 C 566.778 -1.5517 -2.29821 0
M  V30 5899 H 569.729 -1.23608 -0.995332 0
M  V30 5900 H 569.75 -0.903984 -3.69606 0
M  V30 5901 H 569.262 -2.55578 -2.92064 0
M  V30 5902 H 567.363 -0.222948 -3.71932 0
M  V30 5903 H 567.476 -1.99667 -4.35511 0
M  V30 5904 H 565.84 -0.972747 -2.35393 0
M  V30 5905 H 566.623 -2.63689 -2.19824 0
M  V30 5906 N 569.068 1.32177 -0.85831 0
M  V30 5907 C 570.479 1.79381 -0.517621 0
M  V30 5908 C 570.83 1.70841 0.964769 0
M  V30 5909 O 569.955 1.26917 1.75274 0
M  V30 5910 C 570.55 3.25706 -0.932801 0
M  V30 5911 C 569.109 3.70851 -0.643953 0
M  V30 5912 C 568.256 2.53208 -1.13054 0
M  V30 5913 H 571.207 1.19424 -1.04516 0
M  V30 5914 H 571.228 3.79673 -0.250674 0
M  V30 5915 H 570.74 3.31889 -2.01174 0
M  V30 5916 H 568.841 3.70178 0.424112 0
M  V30 5917 H 568.954 4.63495 -1.21281 0
M  V30 5918 H 567.318 2.48676 -0.550679 0
M  V30 5919 H 568.101 2.62143 -2.21666 0
M  V30 5920 N 570.547 0.616602 1.45037 0
M  V30 5921 C 571.793 0.115501 2.02471 0
M  V30 5922 C 572.126 -1.25406 1.4828 0
M  V30 5923 O 571.401 -1.82922 0.661051 0
M  V30 5924 C 571.684 0.0863588 3.59996 0
M  V30 5925 C 571.537 1.48723 4.24501 0
M  V30 5926 C 572.856 -0.596762 4.36035 0
M  V30 5927 H 569.975 0.0434461 0.735718 0
M  V30 5928 H 572.617 0.7903 1.72784 0
M  V30 5929 H 570.767 -0.488277 3.85419 0
M  V30 5930 H 572.439 2.10964 4.10234 0
M  V30 5931 H 570.682 2.04534 3.82555 0
M  V30 5932 H 571.353 1.419 5.3345 0
M  V30 5933 H 573.829 -0.10824 4.15959 0
M  V30 5934 H 572.705 -0.586289 5.4576 0
M  V30 5935 H 572.966 -1.66451 4.09569 0
M  V30 5936 N 572.025 -1.5352 0.356285 0
M  V30 5937 C 572.955 -2.28372 -0.486661 0
M  V30 5938 C 573.936 -1.30432 -1.09185 0
M  V30 5939 O 575.121 -1.59291 -1.11085 0
M  V30 5940 C 572.251 -3.06604 -1.63129 0
M  V30 5941 C 571.205 -4.12154 -1.15381 0
M  V30 5942 C 570.531 -4.78415 -2.38796 0
M  V30 5943 C 571.831 -5.21724 -0.245179 0
M  V30 5944 H 573.525 -2.99083 0.137797 0
M  V30 5945 H 571.071 -1.43841 0.0677134 0
M  V30 5946 H 573.024 -3.57712 -2.22755 0
M  V30 5947 H 571.748 -2.33568 -2.28284 0
M  V30 5948 H 570.407 -3.61978 -0.580294 0
M  V30 5949 H 570.055 -4.01959 -3.02387 0
M  V30 5950 H 569.755 -5.49734 -2.07524 0
M  V30 5951 H 571.279 -5.32313 -2.99125 0
M  V30 5952 H 572.693 -5.68391 -0.748646 0
M  V30 5953 H 571.09 -6.00095 -0.0237608 0
M  V30 5954 H 572.16 -4.79596 0.715229 0
M  V30 5955 N 573.503 -0.0852151 -1.57369 0
M  V30 5956 C 574.78 0.622534 -1.85429 0
M  V30 5957 C 575.16 1.86962 -0.980229 0
M  V30 5958 O 574.508 2.28445 -0.0500219 0
M  V30 5959 C 574.718 0.947374 -3.35896 0
M  V30 5960 C 576.066 1.31509 -4.03721 0
M  V30 5961 O 577.09 1.03869 -3.40719 0
M  V30 5962 O 575.949 1.83231 -5.14868 0
M  V30 5963 H 573.043 0.310513 -0.766492 0
M  V30 5964 H 575.589 -0.117164 -1.69295 0
M  V30 5965 H 574.361 0.0622264 -3.91251 0
M  V30 5966 H 573.984 1.74338 -3.5734 0
M  V30 5967 N 574.981 1.5647 0.188427 0
M  V30 5968 C 576.206 1.85486 0.927891 0
M  V30 5969 C 576.631 0.669575 1.75779 0
M  V30 5970 O 575.989 -0.381573 1.77239 0
M  V30 5971 C 576.037 3.12784 1.7944 0
M  V30 5972 O 575.141 2.93805 2.894 0
M  V30 5973 H 574.482 0.610585 0.260925 0
M  V30 5974 H 577.012 2.037 0.191729 0
M  V30 5975 H 577.022 3.43749 2.19774 0
M  V30 5976 H 575.697 3.98671 1.18468 0
M  V30 5977 H 574.274 2.74153 2.52774 0
M  V30 5978 N 576.459 -0.456382 1.50847 0
M  V30 5979 C 577.736 -1.21739 1.53098 0
M  V30 5980 C 578.116 -2.09179 0.284132 0
M  V30 5981 O 577.464 -2.16466 -0.731773 0
M  V30 5982 C 577.674 -2.03573 2.83477 0
M  V30 5983 C 579.022 -2.61264 3.34703 0
M  V30 5984 O 580.046 -2.13802 2.84898 0
M  V30 5985 O 578.905 -3.47779 4.21559 0
M  V30 5986 H 575.999 -0.553219 0.614718 0
M  V30 5987 H 578.545 -0.467003 1.63148 0
M  V30 5988 H 577.317 -1.39232 3.65691 0
M  V30 5989 H 576.94 -2.85716 2.76499 0
M  V30 5990 N 577.937 -1.40673 -0.710563 0
M  V30 5991 C 579.185 -1.38947 -1.46759 0
M  V30 5992 C 579.506 0.00572879 -1.94999 0
M  V30 5993 O 578.776 0.961358 -1.70689 0
M  V30 5994 H 577.356 -0.5114 -0.544499 0
M  V30 5995 H 580.018 -1.75773 -0.842012 0
M  V30 5996 H 579.114 -2.06745 -2.33801 0
M  V30 5997 N 579.415 0.9433 -1.26252 0
M  V30 5998 C 580.64 1.72898 -1.14547 0
M  V30 5999 C 581.065 1.85761 0.295743 0
M  V30 6000 O 580.423 1.3463 1.21427 0
M  V30 6001 C 580.471 3.11471 -1.8171 0
M  V30 6002 O 579.575 3.97336 -1.10445 0
M  V30 6003 H 578.916 0.530555 -0.399259 0
M  V30 6004 H 581.446 1.18159 -1.67032 0
M  V30 6005 H 581.456 3.61872 -1.88449 0
M  V30 6006 H 580.131 3.01425 -2.86558 0
M  V30 6007 H 578.708 3.55788 -1.11666 0
M  V30 6008 N 580.893 1.08022 1.14757 0
M  V30 6009 C 582.14 0.807509 1.85703 0
M  V30 6010 C 582.468 -0.666617 1.8272 0
M  V30 6011 O 581.723 -1.50562 1.25018 0
M  V30 6012 C 582.022 1.26964 3.34088 0
M  V30 6013 C 581.688 2.7509 3.57262 0
M  V30 6014 C 580.35 3.15547 3.63296 0
M  V30 6015 C 582.702 3.70667 3.66409 0
M  V30 6016 C 580.03 4.50384 3.75994 0
M  V30 6017 C 582.382 5.05274 3.80632 0
M  V30 6018 C 581.046 5.45342 3.84913 0
M  V30 6019 H 580.316 0.295488 0.679535 0
M  V30 6020 H 582.963 1.35245 1.35577 0
M  V30 6021 H 581.268 0.644216 3.86467 0
M  V30 6022 H 582.965 1.03544 3.87401 0
M  V30 6023 H 579.555 2.42775 3.53212 0
M  V30 6024 H 583.739 3.40533 3.61041 0
M  V30 6025 H 578.995 4.80886 3.77569 0
M  V30 6026 H 583.169 5.79201 3.86652 0
M  V30 6027 H 580.796 6.49823 3.94505 0
M  V30 6028 N 582.371 -1.3172 0.865308 0
M  V30 6029 C 583.618 -1.96876 0.473931 0
M  V30 6030 C 583.946 -1.68425 -0.972786 0
M  V30 6031 O 583.201 -0.970742 -1.69927 0
M  V30 6032 C 583.5 -3.5102 0.672283 0
M  V30 6033 C 583.166 -3.9948 2.09108 0
M  V30 6034 C 581.828 -4.12425 2.4791 0
M  V30 6035 C 584.18 -4.2503 3.0166 0
M  V30 6036 C 581.508 -4.48267 3.78515 0
M  V30 6037 C 583.86 -4.62335 4.31774 0
M  V30 6038 C 582.524 -4.73486 4.70497 0
M  V30 6039 H 581.794 -0.72042 0.173424 0
M  V30 6040 H 584.441 -1.56937 1.0974 0
M  V30 6041 H 582.746 -3.91785 -0.034356 0
M  V30 6042 H 584.443 -3.99475 0.349353 0
M  V30 6043 H 581.033 -3.89898 1.77981 0
M  V30 6044 H 585.217 -4.14529 2.7291 0
M  V30 6045 H 580.473 -4.55097 4.08285 0
M  V30 6046 H 584.647 -4.81058 5.03543 0
M  V30 6047 H 582.274 -5.01016 5.71741 0
M  V30 6048 N 583.85 -0.624285 -1.44708 0
M  V30 6049 C 584.779 0.0717025 -2.3339 0
M  V30 6050 C 585.76 0.841814 -1.47809 0
M  V30 6051 O 586.946 0.809056 -1.76544 0
M  V30 6052 C 584.076 1.05852 -3.30776 0
M  V30 6053 C 583.029 0.400503 -4.26122 0
M  V30 6054 C 582.356 1.49674 -5.13324 0
M  V30 6055 C 583.656 -0.688924 -5.17737 0
M  V30 6056 H 585.35 -0.668819 -2.91834 0
M  V30 6057 H 582.896 -0.32308 -1.40329 0
M  V30 6058 H 584.849 1.5541 -3.91696 0
M  V30 6059 H 583.572 1.82984 -2.70526 0
M  V30 6060 H 582.231 -0.0743687 -3.66525 0
M  V30 6061 H 581.88 2.25877 -4.49431 0
M  V30 6062 H 581.58 1.06188 -5.77926 0
M  V30 6063 H 583.104 1.99427 -5.77115 0
M  V30 6064 H 584.518 -0.276724 -5.72632 0
M  V30 6065 H 582.915 -1.04652 -5.90904 0
M  V30 6066 H 583.985 -1.55884 -4.5916 0
M  V30 6067 N 585.328 1.53329 -0.364422 0
M  V30 6068 C 586.558 2.05359 0.226096 0
M  V30 6069 C 586.966 1.23777 1.43094 0
M  V30 6070 O 586.309 0.271139 1.81688 0
M  V30 6071 C 586.371 3.52918 0.684794 0
M  V30 6072 C 586.035 4.55218 -0.403206 0
M  V30 6073 C 587.032 5.04583 -1.2527 0
M  V30 6074 C 584.717 4.99134 -0.563117 0
M  V30 6075 C 586.711 5.96463 -2.24745 0
M  V30 6076 C 584.398 5.9082 -1.56124 0
M  V30 6077 C 585.396 6.39375 -2.40184 0
M  V30 6078 O 585.084 7.29255 -3.38293 0
M  V30 6079 H 584.816 0.674588 0.0436772 0
M  V30 6080 H 587.37 1.98688 -0.520782 0
M  V30 6081 H 585.6 3.57122 1.48326 0
M  V30 6082 H 587.289 3.87812 1.19818 0
M  V30 6083 H 588.055 4.71403 -1.14034 0
M  V30 6084 H 583.934 4.60928 0.0813909 0
M  V30 6085 H 587.478 6.34285 -2.90393 0
M  V30 6086 H 583.375 6.23414 -1.67407 0
M  V30 6087 H 584.143 7.47249 -3.34009 0
M  V30 6088 N 586.806 0.0935595 1.57322 0
M  V30 6089 C 588.031 -0.582324 1.99057 0
M  V30 6090 C 588.456 -1.61025 0.972242 0
M  V30 6091 O 587.814 -1.81202 -0.0594622 0
M  V30 6092 C 587.862 -1.20799 3.39765 0
M  V30 6093 O 586.966 -2.32382 3.40694 0
M  V30 6094 H 586.307 -0.147884 0.647323 0
M  V30 6095 H 588.837 0.174516 2.03854 0
M  V30 6096 H 588.847 -1.54966 3.77425 0
M  V30 6097 H 587.522 -0.454914 4.13405 0
M  V30 6098 H 586.099 -1.99845 3.14827 0
M  V30 6099 N 588.284 -1.56567 -0.180126 0
M  V30 6100 C 589.231 -1.95725 -1.22313 0
M  V30 6101 C 590.201 -0.819911 -1.44453 0
M  V30 6102 O 591.386 -1.07931 -1.57339 0
M  V30 6103 C 588.526 -2.31484 -2.55947 0
M  V30 6104 C 587.639 -3.58354 -2.4126 0
M  V30 6105 C 586.774 -3.83366 -3.67701 0
M  V30 6106 C 585.813 -5.03612 -3.47909 0
M  V30 6107 N 584.95 -5.24802 -4.66398 0
M  V30 6108 H 589.79 -2.84642 -0.882198 0
M  V30 6109 H 587.327 -1.4085 -0.42422 0
M  V30 6110 H 589.285 -2.50237 -3.33822 0
M  V30 6111 H 587.915 -1.45689 -2.88053 0
M  V30 6112 H 586.967 -3.47565 -1.54606 0
M  V30 6113 H 588.279 -4.46386 -2.22577 0
M  V30 6114 H 587.433 -4.02439 -4.54013 0
M  V30 6115 H 586.172 -2.93692 -3.89353 0
M  V30 6116 H 585.177 -4.84447 -2.59983 0
M  V30 6117 H 586.402 -5.94809 -3.27688 0
M  V30 6118 H 584.348 -4.38079 -4.88286 0
M  V30 6119 H 584.265 -6.07041 -4.50596 0
M  V30 6120 H 585.533 -5.48346 -5.54019 0
M  V30 6121 N 589.762 0.448376 -1.51087 0
M  V30 6122 C 590.692 1.55102 -1.74544 0
M  V30 6123 C 591.673 1.59357 -0.594932 0
M  V30 6124 O 592.858 1.75261 -0.836491 0
M  V30 6125 C 589.988 2.93268 -1.86041 0
M  V30 6126 C 588.942 3.03877 -3.01402 0
M  V30 6127 C 588.268 4.43914 -2.98068 0
M  V30 6128 C 589.568 2.7898 -4.41551 0
M  V30 6129 H 591.262 1.35724 -2.66869 0
M  V30 6130 H 588.808 0.651498 -1.28419 0
M  V30 6131 H 590.761 3.70356 -2.01034 0
M  V30 6132 H 589.485 3.13853 -0.903548 0
M  V30 6133 H 588.144 2.29227 -2.86096 0
M  V30 6134 H 587.792 4.6145 -2.00182 0
M  V30 6135 H 587.492 4.51944 -3.75527 0
M  V30 6136 H 589.016 5.22991 -3.1514 0
M  V30 6137 H 590.43 3.45805 -4.57265 0
M  V30 6138 H 588.827 2.98431 -5.20633 0
M  V30 6139 H 589.897 1.74663 -4.5235 0
M  V30 6140 N 591.24 1.41047 0.703093 0
M  V30 6141 C 592.468 1.4334 1.49202 0
M  V30 6142 C 592.883 0.0365596 1.88765 0
M  V30 6143 O 592.24 -0.942419 1.56284 0
M  V30 6144 C 592.291 2.33538 2.75939 0
M  V30 6145 O 592.012 3.67786 2.38045 0
M  V30 6146 C 593.513 2.44555 3.6974 0
M  V30 6147 H 590.733 0.488472 0.460039 0
M  V30 6148 H 593.277 1.85245 0.86629 0
M  V30 6149 H 591.432 1.94962 3.34766 0
M  V30 6150 H 591.846 4.15816 3.19683 0
M  V30 6151 H 593.32 3.11849 4.55471 0
M  V30 6152 H 593.797 1.47447 4.1371 0
M  V30 6153 H 594.403 2.83735 3.16819 0
M  V30 6154 N 592.718 -0.936591 1.26751 0
M  V30 6155 C 593.964 -1.6858 1.12733 0
M  V30 6156 C 594.297 -1.91414 -0.327745 0
M  V30 6157 O 593.572 -1.49812 -1.24043 0
M  V30 6158 C 593.855 -3.05779 1.90187 0
M  V30 6159 C 593.708 -2.90242 3.43627 0
M  V30 6160 C 595.027 -4.0597 1.69931 0
M  V30 6161 H 592.146 -0.61182 0.410908 0
M  V30 6162 H 594.788 -1.08747 1.55801 0
M  V30 6163 H 592.938 -3.56853 1.53584 0
M  V30 6164 H 594.61 -2.46354 3.9001 0
M  V30 6165 H 592.853 -2.2577 3.70419 0
M  V30 6166 H 593.524 -3.87572 3.93055 0
M  V30 6167 H 596 -3.63874 2.0183 0
M  V30 6168 H 594.876 -4.99974 2.26534 0
M  V30 6169 H 595.137 -4.37369 0.64502 0
M  V30 6170 N 594.196 -1.08629 -1.14182 0
M  V30 6171 C 595.473 -0.73002 -1.81466 0
M  V30 6172 C 595.853 0.785996 -1.95922 0
M  V30 6173 O 595.201 1.70535 -1.52086 0
M  V30 6174 C 595.411 -1.45957 -3.17014 0
M  V30 6175 C 596.759 -1.62008 -3.92477 0
M  V30 6176 O 597.783 -1.42141 -3.26611 0
M  V30 6177 O 596.642 -1.94806 -5.106 0
M  V30 6178 H 593.736 -0.261307 -0.784632 0
M  V30 6179 H 596.282 -1.188 -1.2118 0
M  V30 6180 H 595.054 -2.49221 -3.01669 0
M  V30 6181 H 594.677 -0.993222 -3.84995 0
M  V30 6182 N 595.674 1.31259 -0.872281 0
M  V30 6183 C 596.621 2.28459 -0.327857 0
M  V30 6184 C 597.591 1.55831 0.574957 0
M  V30 6185 O 598.776 1.83965 0.506101 0
M  V30 6186 C 595.916 3.41985 0.462644 0
M  V30 6187 C 595.029 4.29458 -0.467949 0
M  V30 6188 C 594.164 5.30131 0.336903 0
M  V30 6189 C 593.203 6.0925 -0.58997 0
M  V30 6190 N 592.34 7.01872 0.178775 0
M  V30 6191 H 597.18 2.74414 -1.16193 0
M  V30 6192 H 594.717 1.34994 -0.584376 0
M  V30 6193 H 596.675 4.06547 0.936759 0
M  V30 6194 H 595.305 2.97134 1.2614 0
M  V30 6195 H 594.357 3.65318 -1.06052 0
M  V30 6196 H 595.669 4.84677 -1.17856 0
M  V30 6197 H 594.823 6.0038 0.873427 0
M  V30 6198 H 593.562 4.75573 1.08079 0
M  V30 6199 H 592.567 5.37889 -1.13823 0
M  V30 6200 H 593.792 6.65894 -1.33275 0
M  V30 6201 H 591.738 6.49721 0.905435 0
M  V30 6202 H 591.655 7.54522 -0.472452 0
M  V30 6203 H 592.923 7.76382 0.696454 0
M  V30 6204 N 597.152 0.631951 1.44375 0
M  V30 6205 C 598.377 0.142146 2.06912 0
M  V30 6206 C 598.802 -1.17456 1.4692 0
M  V30 6207 O 598.16 -1.72074 0.570975 0
M  V30 6208 C 598.208 0.0417952 3.60576 0
M  V30 6209 O 597.312 -1.00194 4.00044 0
M  V30 6210 H 596.653 0.0851491 0.658518 0
M  V30 6211 H 599.183 0.868863 1.85235 0
M  V30 6212 H 599.193 -0.148517 4.0773 0
M  V30 6213 H 597.868 1.0031 4.03622 0
M  V30 6214 H 596.445 -0.786131 3.64519 0
M  V30 6215 N 598.631 -1.53133 0.372548 0
M  V30 6216 C 600.047 -1.59585 0.02178 0
M  V30 6217 C 600.247 -1.38736 -1.46132 0
M  V30 6218 O 599.303 -1.19599 -2.22379 0
M  V30 6219 C 600.616 -2.9678 0.483959 0
M  V30 6220 C 602.164 -3.09909 0.438775 0
M  V30 6221 C 602.639 -4.49527 0.876876 0
M  V30 6222 N 604.13 -4.55663 0.832214 0
M  V30 6223 C 604.865 -5.61896 1.14281 0
M  V30 6224 N 604.361 -6.75852 1.52303 0
M  V30 6225 N 606.154 -5.51916 1.06515 0
M  V30 6226 H 598.305 -1.64936 1.33827 0
M  V30 6227 H 600.568 -0.773947 0.547458 0
M  V30 6228 H 600.274 -3.17198 1.51915 0
M  V30 6229 H 600.148 -3.7699 -0.125784 0
M  V30 6230 H 602.535 -2.89197 -0.587294 0
M  V30 6231 H 602.616 -2.31691 1.0841 0
M  V30 6232 H 602.26 -4.70979 1.90109 0
M  V30 6233 H 602.19 -5.26186 0.208727 0
M  V30 6234 H 604.681 -3.73844 0.552195 0
M  V30 6235 H 604.994 -7.52862 1.7441 0
M  V30 6236 H 603.339 -6.77226 1.56175 0
M  V30 6237 H 606.53 -4.6177 0.767235 0
M  V30 6238 H 606.703 -6.34609 1.31053 0
M  V30 6239 N 600.109 -0.101901 -1.5727 0
M  V30 6240 C 601.355 0.554864 -1.95686 0
M  V30 6241 C 601.71 1.65368 -0.983415 0
M  V30 6242 O 601.003 1.91597 -0.0105374 0
M  V30 6243 C 601.197 1.14898 -3.38427 0
M  V30 6244 C 601.026 0.109251 -4.49567 0
M  V30 6245 C 599.796 -0.316633 -5.04307 0
M  V30 6246 C 601.994 -0.665196 -5.0998 0
M  V30 6247 N 599.976 -1.34393 -5.99009 0
M  V30 6248 C 601.347 -1.54413 -6.00464 0
M  V30 6249 C 603.402 -0.717966 -4.92696 0
M  V30 6250 C 602.105 -2.47122 -6.75517 0
M  V30 6251 C 604.131 -1.63268 -5.68417 0
M  V30 6252 C 603.493 -2.49923 -6.58572 0
M  V30 6253 H 599.592 0.17317 -0.762585 0
M  V30 6254 H 602.176 -0.18605 -1.93809 0
M  V30 6255 H 600.347 1.85969 -3.40984 0
M  V30 6256 H 602.079 1.76867 -3.64006 0
M  V30 6257 H 598.834 0.0724419 -4.73545 0
M  V30 6258 H 599.258 -1.85598 -6.51062 0
M  V30 6259 H 603.9 -0.0621637 -4.22754 0
M  V30 6260 H 601.618 -3.13724 -7.44717 0
M  V30 6261 H 605.204 -1.67874 -5.57054 0
M  V30 6262 H 604.084 -3.19553 -7.16139 0
M  V30 6263 N 601.587 1.56661 0.17182 0
M  V30 6264 C 602.519 1.92934 1.2373 0
M  V30 6265 C 603.532 0.822385 1.40502 0
M  V30 6266 O 604.721 1.10083 1.40514 0
M  V30 6267 C 601.821 2.16651 2.60607 0
M  V30 6268 C 600.994 3.47878 2.6514 0
M  V30 6269 C 600.053 3.60429 3.83377 0
M  V30 6270 O 599.079 4.33051 3.69398 0
M  V30 6271 N 600.281 2.95241 4.99813 0
M  V30 6272 H 603.046 2.84931 0.929205 0
M  V30 6273 H 600.607 1.5781 0.361588 0
M  V30 6274 H 602.599 2.22312 3.38171 0
M  V30 6275 H 601.169 1.3104 2.83809 0
M  V30 6276 H 600.389 3.53879 1.73675 0
M  V30 6277 H 601.677 4.34232 2.6518 0
M  V30 6278 H 601.075 2.3611 5.14071 0
M  V30 6279 H 599.632 3.06499 5.75241 0
M  V30 6280 N 603.065 -0.440357 1.51323 0
M  V30 6281 C 603.997 -1.55254 1.68609 0
M  V30 6282 C 605.01 -1.52614 0.566812 0
M  V30 6283 O 606.199 -1.57445 0.841032 0
M  V30 6284 C 603.299 -2.94169 1.68279 0
M  V30 6285 C 602.472 -3.21346 2.96742 0
M  V30 6286 C 601.531 -4.3997 2.8864 0
M  V30 6287 O 600.557 -4.38771 3.62586 0
M  V30 6288 N 601.759 -5.43367 2.04285 0
M  V30 6289 H 604.524 -1.40831 2.6455 0
M  V30 6290 H 602.085 -0.629251 1.49171 0
M  V30 6291 H 604.077 -3.71543 1.60431 0
M  V30 6292 H 602.647 -3.02205 0.799441 0
M  V30 6293 H 601.867 -2.32299 3.18482 0
M  V30 6294 H 603.155 -3.3633 3.81785 0
M  V30 6295 H 602.553 -5.47176 1.43578 0
M  V30 6296 H 601.11 -6.19605 2.02318 0
M  V30 6297 N 604.543 -1.41418 -0.695603 0
M  V30 6298 C 605.791 -1.40496 -1.45277 0
M  V30 6299 C 606.112 -0.0149538 -1.94994 0
M  V30 6300 O 605.382 0.9432 -1.71699 0
M  V30 6301 H 603.962 -0.517147 -0.539044 0
M  V30 6302 H 606.624 -1.76656 -0.823321 0
M  V30 6303 H 605.72 -2.09214 -2.31595 0
M  V30 6304 N 606.021 0.929856 -1.27246 0
M  V30 6305 C 606.969 2.05151 -1.09616 0
M  V30 6306 C 607.963 1.69388 -0.0198617 0
M  V30 6307 O 609.169 1.79124 -0.177417 0
M  V30 6308 H 605.544 0.671909 -0.337701 0
M  V30 6309 H 607.515 2.17168 -2.04648 0
M  V30 6310 C 606.264 3.3934 -0.757851 0
M  V30 6311 H 605.587 3.67343 -1.57795 0
M  V30 6312 H 607.027 4.18603 -0.674358 0
M  V30 6313 C 605.486 3.32582 0.537658 0
M  V30 6314 O 606.016 3.69633 1.57271 0
M  V30 6315 N 604.222 2.8568 0.532478 0
M  V30 6316 H 603.769 2.55725 -0.310233 0
M  V30 6317 H 603.727 2.81541 1.39936 0
M  V30 6318 N 607.499 1.09233 1.13605 0
M  V30 6319 C 608.745 0.828385 1.8511 0
M  V30 6320 C 609.078 -0.64437 1.83198 0
M  V30 6321 O 608.353 -1.47428 1.26867 0
M  V30 6322 C 608.636 1.36167 3.33363 0
M  V30 6323 C 608.489 2.90038 3.438 0
M  V30 6324 C 609.808 0.993819 4.28732 0
M  V30 6325 H 606.927 0.30239 0.672108 0
M  V30 6326 H 609.569 1.35339 1.33355 0
M  V30 6327 H 607.719 0.9151 3.77569 0
M  V30 6328 H 609.391 3.43128 3.08319 0
M  V30 6329 H 607.634 3.27271 2.84739 0
M  V30 6330 H 608.305 3.22428 4.48045 0
M  V30 6331 H 610.781 1.37893 3.92587 0
M  V30 6332 H 609.657 1.39403 5.30903 0
M  V30 6333 H 609.918 -0.0982206 4.41991 0
M  V30 6334 N 608.977 -1.30795 0.87923 0
M  V30 6335 C 610.224 -1.96362 0.494786 0
M  V30 6336 C 610.552 -1.69448 -0.954868 0
M  V30 6337 O 609.807 -0.988711 -1.68888 0
M  V30 6338 C 610.106 -3.50287 0.709476 0
M  V30 6339 C 609.772 -3.9724 2.13333 0
M  V30 6340 C 608.434 -4.09772 2.52271 0
M  V30 6341 C 610.786 -4.21807 3.06151 0
M  V30 6342 C 608.114 -4.44227 3.83248 0
M  V30 6343 C 610.466 -4.5773 4.36654 0
M  V30 6344 C 609.13 -4.68469 4.75492 0
M  V30 6345 H 608.4 -0.71854 0.181055 0
M  V30 6346 H 611.047 -1.55764 1.11399 0
M  V30 6347 H 609.352 -3.91799 0.0072 0
M  V30 6348 H 611.049 -3.99082 0.391703 0
M  V30 6349 H 607.639 -3.87988 1.82107 0
M  V30 6350 H 611.823 -4.11611 2.77291 0
M  V30 6351 H 607.079 -4.50741 4.13089 0
M  V30 6352 H 611.253 -4.7569 5.08617 0
M  V30 6353 H 608.88 -4.94923 5.77022 0
M  V30 6354 N 610.455 -0.639598 -1.44038 0
M  V30 6355 C 611.68 -0.153117 -2.06834 0
M  V30 6356 C 612.105 1.16676 -1.47541 0
M  V30 6357 O 611.463 1.71769 -0.580093 0
M  V30 6358 C 611.511 -0.0609169 -3.60549 0
M  V30 6359 O 610.615 0.98071 -4.00569 0
M  V30 6360 H 609.956 -0.0886402 -0.658057 0
M  V30 6361 H 612.486 -0.878674 -1.84771 0
M  V30 6362 H 612.496 0.126892 -4.07803 0
M  V30 6363 H 611.171 -1.0245 -4.03084 0
M  V30 6364 H 609.748 0.766789 -3.64931 0
M  V30 6365 N 611.933 1.52934 -0.380664 0
M  V30 6366 C 613.173 2.03378 0.204161 0
M  V30 6367 C 613.537 1.26132 1.44758 0
M  V30 6368 O 614.738 1.66657 2.109 0
M  V30 6369 C 613.009 3.54241 0.474118 0
M  V30 6370 S 614.568 4.26529 1.03046 0
M  V30 6371 H 611.386 0.708608 0.0582719 0
M  V30 6372 H 613.988 1.88263 -0.527017 0
M  V30 6373 H 612.692 4.08055 -0.438088 0
M  V30 6374 H 612.223 3.73547 1.23396 0
M  V30 6375 H 614.238 4.38964 2.31354 0
M  V30 6376 N 613.412 0.11024 1.57214 0
M  V30 6377 C 614.637 -0.561179 1.99664 0
M  V30 6378 C 615.062 -1.59985 0.989266 0
M  V30 6379 O 614.42 -1.81255 -0.0402399 0
M  V30 6380 C 614.468 -1.17189 3.41027 0
M  V30 6381 O 613.572 -2.28755 3.4314 0
M  V30 6382 H 612.913 -0.14101 0.648855 0
M  V30 6383 H 615.443 0.196128 2.03658 0
M  V30 6384 H 615.453 -1.50954 3.79047 0
M  V30 6385 H 614.128 -0.411041 4.13864 0
M  V30 6386 H 612.705 -1.96495 3.16929 0
M  V30 6387 N 614.89 -1.56749 -0.16351 0
M  V30 6388 C 616.136 -1.82704 -0.880168 0
M  V30 6389 C 616.469 -0.689311 -1.81555 0
M  V30 6390 O 615.744 0.308224 -1.92042 0
M  V30 6391 C 616.027 -3.19084 -1.66905 0
M  V30 6392 C 615.88 -4.43397 -0.756269 0
M  V30 6393 C 617.199 -3.52493 -2.63509 0
M  V30 6394 H 614.318 -0.664608 -0.318535 0
M  V30 6395 H 616.96 -1.89438 -0.146036 0
M  V30 6396 H 615.11 -3.13475 -2.2949 0
M  V30 6397 H 616.782 -4.61079 -0.14269 0
M  V30 6398 H 615.025 -4.33752 -0.0647944 0
M  V30 6399 H 615.696 -5.3539 -1.34393 0
M  V30 6400 H 618.172 -3.58606 -2.11047 0
M  V30 6401 H 617.048 -4.48979 -3.15767 0
M  V30 6402 H 617.309 -2.77597 -3.44082 0
M  V30 6403 N 616.368 0.432326 -1.51554 0
M  V30 6404 C 617.301 1.54525 -1.6792 0
M  V30 6405 C 618.279 1.53831 -0.526764 0
M  V30 6406 O 619.463 1.72884 -0.751233 0
M  V30 6407 C 616.59 2.931 -1.69736 0
M  V30 6408 C 615.636 3.11799 -2.91005 0
M  V30 6409 S 616.469 2.87565 -4.51737 0
M  V30 6410 C 617.625 4.28412 -4.56305 0
M  V30 6411 H 617.858 1.4041 -2.62054 0
M  V30 6412 H 615.391 0.622357 -1.41301 0
M  V30 6413 H 617.349 3.72974 -1.71467 0
M  V30 6414 H 616.01 3.04574 -0.767705 0
M  V30 6415 H 615.203 4.13127 -2.8869 0
M  V30 6416 H 614.805 2.39757 -2.87041 0
M  V30 6417 H 617.097 5.21692 -4.32254 0
M  V30 6418 H 618.04 4.35758 -5.58141 0
M  V30 6419 H 618.448 4.12301 -3.85576 0
M  V30 6420 N 617.846 1.41785 0.688094 0
M  V30 6421 C 618.796 1.40684 1.79421 0
M  V30 6422 C 619.78 0.280096 1.58443 0
M  V30 6423 O 620.972 0.521332 1.69148 0
M  V30 6424 C 618.101 1.29874 3.17785 0
M  V30 6425 C 617.187 2.47442 3.44432 0
M  V30 6426 N 617.578 3.72895 3.41736 0
M  V30 6427 C 615.876 2.41416 3.75013 0
M  V30 6428 C 616.577 4.50912 3.67496 0
M  V30 6429 N 615.553 3.81131 3.87608 0
M  V30 6430 H 619.355 2.35591 1.7571 0
M  V30 6431 H 616.869 1.35946 0.888393 0
M  V30 6432 H 618.866 1.27168 3.97031 0
M  V30 6433 H 617.526 0.359587 3.22703 0
M  V30 6434 H 618.537 4.05676 3.21943 0
M  V30 6435 H 615.214 1.56011 3.87256 0
M  V30 6436 H 616.604 5.59865 3.71484 0
M  V30 6437 N 619.324 -0.923095 1.27737 0
M  V30 6438 C 620.234 -2.05765 1.12685 0
M  V30 6439 C 621.25 -1.73911 0.0557197 0
M  V30 6440 O 622.426 -1.99674 0.263137 0
M  V30 6441 C 619.491 -3.37804 0.780363 0
M  V30 6442 C 618.552 -3.83326 1.93286 0
M  V30 6443 C 617.785 -5.09064 1.60281 0
M  V30 6444 O 618.008 -5.6809 0.512828 0
M  V30 6445 O 616.942 -5.50071 2.44347 0
M  V30 6446 H 620.768 -2.21378 2.07907 0
M  V30 6447 H 618.353 -1.04299 1.06968 0
M  V30 6448 H 620.235 -4.17097 0.600668 0
M  V30 6449 H 618.91 -3.23387 -0.142291 0
M  V30 6450 H 617.817 -3.049 2.16764 0
M  V30 6451 H 619.15 -4.02292 2.83588 0
M  V30 6452 N 620.802 -1.09834 -1.13024 0
M  V30 6453 C 621.765 -0.745058 -2.16752 0
M  V30 6454 C 622.765 0.227435 -1.59183 0
M  V30 6455 O 623.955 0.0050786 -1.74199 0
M  V30 6456 C 621.087 -0.102543 -3.40746 0
M  V30 6457 H 622.28 -1.66375 -2.49518 0
M  V30 6458 H 619.833 -0.898061 -1.27924 0
M  V30 6459 H 620.568 0.827177 -3.13573 0
M  V30 6460 H 620.353 -0.80235 -3.83803 0
M  V30 6461 H 621.843 0.129082 -4.174 0
M  V30 6462 N 622.28 1.30327 -0.886154 0
M  V30 6463 C 623.21 2.30549 -0.370028 0
M  V30 6464 C 624.191 1.61039 0.547751 0
M  V30 6465 O 625.376 1.8864 0.461353 0
M  V30 6466 C 622.506 3.44808 0.415275 0
M  V30 6467 C 621.46 4.26024 -0.41085 0
M  V30 6468 C 620.786 5.32347 0.501128 0
M  V30 6469 C 622.086 4.95433 -1.65359 0
M  V30 6470 H 623.78 2.73969 -1.20754 0
M  V30 6471 H 621.326 1.3171 -0.582097 0
M  V30 6472 H 623.279 4.13986 0.78699 0
M  V30 6473 H 622.003 3.00197 1.28644 0
M  V30 6474 H 620.662 3.58535 -0.764719 0
M  V30 6475 H 620.31 4.83982 1.37004 0
M  V30 6476 H 620.01 5.87581 -0.0478356 0
M  V30 6477 H 621.534 6.0438 0.869333 0
M  V30 6478 H 622.948 5.5712 -1.35239 0
M  V30 6479 H 621.345 5.60537 -2.14284 0
M  V30 6480 H 622.415 4.21493 -2.39733 0
M  V30 6481 N 623.758 0.647228 1.43697 0
M  V30 6482 C 624.708 -0.0702191 2.27892 0
M  V30 6483 C 625.692 -0.800601 1.39568 0
M  V30 6484 O 626.884 -0.684055 1.63247 0
M  V30 6485 C 624.013 -1.04008 3.27165 0
M  V30 6486 C 623.099 -0.308484 4.22977 0
M  V30 6487 N 623.49 0.671721 5.0132 0
M  V30 6488 C 621.788 -0.550751 4.42586 0
M  V30 6489 C 622.489 1.10543 5.711 0
M  V30 6490 N 621.465 0.440903 5.41809 0
M  V30 6491 H 625.267 0.682031 2.85877 0
M  V30 6492 H 622.781 0.474022 1.55328 0
M  V30 6493 H 624.778 -1.56881 3.86256 0
M  V30 6494 H 623.438 -1.79246 2.70742 0
M  V30 6495 H 624.449 1.0502 5.0714 0
M  V30 6496 H 621.126 -1.28476 3.97241 0
M  V30 6497 H 622.516 1.91614 6.43998 0
M  V30 6498 N 625.236 -1.5273 0.388769 0
M  V30 6499 C 626.184 -2.27975 -0.461527 0
M  V30 6500 C 627.178 -1.31854 -1.06352 0
M  V30 6501 O 628.384 -1.49394 -1.00406 0
M  V30 6502 H 624.759 -0.733088 -0.16759 0
M  V30 6503 H 626.73 -2.97765 0.194579 0
M  V30 6504 C 625.479 -3.09881 -1.577 0
M  V30 6505 H 624.802 -3.83701 -1.12309 0
M  V30 6506 H 626.242 -3.6567 -2.14619 0
M  V30 6507 C 624.701 -2.22159 -2.53272 0
M  V30 6508 O 625.231 -1.84802 -3.56667 0
M  V30 6509 N 623.437 -1.8633 -2.23001 0
M  V30 6510 H 622.984 -2.16909 -1.38954 0
M  V30 6511 H 622.942 -1.27927 -2.87197 0
M  V30 6512 N 626.714 -0.118576 -1.57153 0
M  V30 6513 C 627.664 0.842924 -2.11846 0
M  V30 6514 C 628.648 1.22845 -1.03914 0
M  V30 6515 O 629.84 1.19961 -1.30148 0
M  V30 6516 C 626.969 2.09312 -2.72109 0
M  V30 6517 C 626.055 1.73198 -3.87122 0
M  V30 6518 N 626.446 1.07758 -4.94188 0
M  V30 6519 C 624.744 2.02659 -3.97298 0
M  V30 6520 C 625.445 0.907741 -5.74574 0
M  V30 6521 N 624.421 1.4326 -5.24383 0
M  V30 6522 H 628.223 0.333416 -2.92003 0
M  V30 6523 H 625.737 0.0839073 -1.62183 0
M  V30 6524 H 627.734 2.79162 -3.09635 0
M  V30 6525 H 626.394 2.60807 -1.93416 0
M  V30 6526 H 627.405 0.741613 -5.12563 0
M  V30 6527 H 624.082 2.56204 -3.29645 0
M  V30 6528 H 625.472 0.394112 -6.70743 0
M  V30 6529 N 628.193 1.56834 0.155195 0
M  V30 6530 C 629.423 1.86778 0.883044 0
M  V30 6531 C 629.831 0.703824 1.75622 0
M  V30 6532 O 629.174 -0.33581 1.80605 0
M  V30 6533 C 629.236 3.1133 1.79761 0
M  V30 6534 C 628.9 4.43504 1.10242 0
M  V30 6535 C 629.897 5.17859 0.460204 0
M  V30 6536 C 627.582 4.90233 1.09437 0
M  V30 6537 C 629.576 6.37144 -0.180782 0
M  V30 6538 C 627.263 6.09444 0.449569 0
M  V30 6539 C 628.261 6.82744 -0.186888 0
M  V30 6540 O 627.949 7.99692 -0.821486 0
M  V30 6541 H 627.681 0.62352 0.261149 0
M  V30 6542 H 630.235 2.04813 0.155204 0
M  V30 6543 H 628.465 2.89282 2.56618 0
M  V30 6544 H 630.154 3.27587 2.39669 0
M  V30 6545 H 630.92 4.8283 0.458289 0
M  V30 6546 H 626.799 4.33109 1.57917 0
M  V30 6547 H 630.343 6.94296 -0.678154 0
M  V30 6548 H 626.24 6.43936 0.449123 0
M  V30 6549 H 627.008 8.15306 -0.722337 0
M  V30 6550 N 629.671 -0.424282 1.51781 0
M  V30 6551 C 630.899 -1.1947 1.68921 0
M  V30 6552 C 631.314 -1.84683 0.39213 0
M  V30 6553 O 630.671 -1.71261 -0.630554 0
M  V30 6554 C 630.722 -2.26909 2.81416 0
M  V30 6555 O 630.443 -1.64361 4.061 0
M  V30 6556 C 631.944 -3.16945 3.09937 0
M  V30 6557 H 629.164 -0.359591 0.566511 0
M  V30 6558 H 631.708 -0.501139 1.98265 0
M  V30 6559 H 629.863 -2.91959 2.54635 0
M  V30 6560 H 630.277 -2.35468 4.68674 0
M  V30 6561 H 631.751 -3.88437 3.922 0
M  V30 6562 H 632.228 -3.78451 2.22871 0
M  V30 6563 H 632.834 -2.57581 3.38426 0
M  V30 6564 N 631.149 -1.42148 -0.680565 0
M  V30 6565 C 632.081 -1.41119 -1.80605 0
M  V30 6566 C 633.094 -0.311099 -1.598 0
M  V30 6567 O 634.283 -0.573813 -1.69026 0
M  V30 6568 C 631.383 -1.18204 -3.17618 0
M  V30 6569 C 630.556 -2.40537 -3.65322 0
M  V30 6570 C 629.615 -2.13254 -4.8105 0
M  V30 6571 O 628.641 -2.8641 -4.91892 0
M  V30 6572 N 629.843 -1.13208 -5.69354 0
M  V30 6573 H 632.608 -2.38128 -1.81975 0
M  V30 6574 H 630.169 -1.36953 -0.863446 0
M  V30 6575 H 632.161 -0.97878 -3.92686 0
M  V30 6576 H 630.731 -0.29738 -3.11182 0
M  V30 6577 H 629.951 -2.76468 -2.80996 0
M  V30 6578 H 631.239 -3.22012 -3.93936 0
M  V30 6579 H 630.637 -0.526893 -5.63241 0
M  V30 6580 H 629.194 -0.988699 -6.44258 0
M  V30 6581 N 632.627 0.916307 -1.28225 0
M  V30 6582 C 633.574 2.01841 -1.11932 0
M  V30 6583 C 634.544 1.66091 -0.0171604 0
M  V30 6584 O 635.729 1.89934 -0.181617 0
M  V30 6585 C 632.869 3.36065 -0.784504 0
M  V30 6586 C 631.982 3.847 -1.96544 0
M  V30 6587 C 631.117 5.07423 -1.57149 0
M  V30 6588 C 630.156 5.48384 -2.71922 0
M  V30 6589 N 629.293 6.62298 -2.33037 0
M  V30 6590 H 634.133 2.1511 -2.06232 0
M  V30 6591 H 631.67 1.05366 -1.02647 0
M  V30 6592 H 633.628 4.13272 -0.571148 0
M  V30 6593 H 632.258 3.22571 0.121565 0
M  V30 6594 H 631.31 3.03673 -2.291 0
M  V30 6595 H 632.622 4.1102 -2.82603 0
M  V30 6596 H 631.776 5.92165 -1.32004 0
M  V30 6597 H 630.515 4.82906 -0.682153 0
M  V30 6598 H 629.52 4.62184 -2.97768 0
M  V30 6599 H 630.745 5.7489 -3.61494 0
M  V30 6600 H 628.691 6.39416 -1.4657 0
M  V30 6601 H 628.608 6.8833 -3.12631 0
M  V30 6602 H 629.876 7.50352 -2.11169 0
M  V30 6603 N 634.105 1.10431 1.1244 0
M  V30 6604 C 635.33 0.869089 1.88313 0
M  V30 6605 C 635.755 -0.574912 1.79099 0
M  V30 6606 O 635.113 -1.40496 1.14589 0
M  V30 6607 C 635.161 1.32208 3.3549 0
M  V30 6608 O 634.265 0.487092 4.09513 0
M  V30 6609 H 633.606 0.313894 0.585121 0
M  V30 6610 H 636.136 1.47111 1.42195 0
M  V30 6611 H 636.146 1.31201 3.86329 0
M  V30 6612 H 634.821 2.37364 3.41513 0
M  V30 6613 H 633.398 0.562372 3.68635 0
M  V30 6614 N 635.583 -1.29855 0.893053 0
M  V30 6615 C 636.513 -2.3035 0.382249 0
M  V30 6616 C 637.494 -1.61328 -0.539203 0
M  V30 6617 O 638.679 -1.88882 -0.451342 0
M  V30 6618 C 635.809 -3.45024 -0.396983 0
M  V30 6619 C 634.763 -4.258 0.433437 0
M  V30 6620 C 634.089 -5.32605 -0.472889 0
M  V30 6621 C 635.389 -4.94549 1.67984 0
M  V30 6622 H 637.083 -2.73325 1.22205 0
M  V30 6623 H 634.629 -1.314 0.589073 0
M  V30 6624 H 636.582 -4.14398 -0.765024 0
M  V30 6625 H 635.306 -3.00875 -1.2705 0
M  V30 6626 H 633.965 -3.58125 0.783723 0
M  V30 6627 H 633.613 -4.84702 -1.34435 0
M  V30 6628 H 633.313 -5.87547 0.0789958 0
M  V30 6629 H 634.837 -6.04832 -0.837269 0
M  V30 6630 H 636.251 -5.56395 1.38192 0
M  V30 6631 H 634.648 -5.59393 2.17254 0
M  V30 6632 H 635.718 -4.20215 2.41965 0
M  V30 6633 N 637.061 -0.65484 -1.43351 0
M  V30 6634 C 638.286 -0.175046 -2.0666 0
M  V30 6635 C 638.711 1.15104 -1.4877 0
M  V30 6636 O 638.069 1.71144 -0.598279 0
M  V30 6637 C 638.117 -0.0991544 -3.60464 0
M  V30 6638 O 637.221 0.938169 -4.01587 0
M  V30 6639 H 636.562 -0.0956148 -0.65708 0
M  V30 6640 H 639.092 -0.898222 -1.83829 0
M  V30 6641 H 639.102 0.083632 -4.07914 0
M  V30 6642 H 637.777 -1.06719 -4.01975 0
M  V30 6643 H 636.354 0.72804 -3.65724 0
M  V30 6644 N 638.539 1.52521 -0.396863 0
M  V30 6645 C 639.469 2.29582 0.425941 0
M  V30 6646 C 640.45 1.33281 1.05689 0
M  V30 6647 O 641.635 1.62181 1.06823 0
M  V30 6648 C 638.765 3.10821 1.54943 0
M  V30 6649 C 637.719 4.15069 1.04413 0
M  V30 6650 C 637.045 4.84578 2.26028 0
M  V30 6651 C 638.345 5.22191 0.106767 0
M  V30 6652 H 640.039 2.98612 -0.217045 0
M  V30 6653 H 637.585 1.43611 -0.105826 0
M  V30 6654 H 639.538 3.63492 2.13193 0
M  V30 6655 H 638.262 2.39538 2.22011 0
M  V30 6656 H 636.921 3.63389 0.484118 0
M  V30 6657 H 636.569 4.09835 2.91623 0
M  V30 6658 H 636.269 5.55043 1.92876 0
M  V30 6659 H 637.793 5.40056 2.84906 0
M  V30 6660 H 639.207 5.70176 0.597685 0
M  V30 6661 H 637.604 5.99947 -0.135352 0
M  V30 6662 H 638.674 4.77531 -0.842134 0
M  V30 6663 N 640.017 0.126909 1.57088 0
M  V30 6664 C 641.242 -0.53997 2.00248 0
M  V30 6665 C 641.667 -1.58927 1.00618 0
M  V30 6666 O 641.025 -1.81288 -0.0210131 0
M  V30 6667 C 641.073 -1.13565 3.4225 0
M  V30 6668 O 640.177 -2.25103 3.45547 0
M  V30 6669 H 639.518 -0.13412 0.650314 0
M  V30 6670 H 642.048 0.217718 2.03438 0
M  V30 6671 H 642.058 -1.46925 3.80627 0
M  V30 6672 H 640.733 -0.367122 4.14277 0
M  V30 6673 H 639.31 -1.93123 3.18995 0
M  V30 6674 N 641.495 -1.56914 -0.146875 0
M  V30 6675 C 642.906 -1.72799 -0.706928 0
M  V30 6676 C 643.257 -0.741329 -1.81656 0
M  V30 6677 O 642.382 0.0920162 -2.16204 0
M  V30 6678 C 642.977 -3.13317 -1.28911 0
M  V30 6679 C 641.536 -3.30803 -1.79573 0
M  V30 6680 C 640.683 -2.68725 -0.684252 0
M  V30 6681 H 643.634 -1.58504 0.0787931 0
M  V30 6682 H 643.655 -3.13323 -2.15891 0
M  V30 6683 H 643.167 -3.85104 -0.481284 0
M  V30 6684 H 641.268 -2.64012 -2.62923 0
M  V30 6685 H 641.381 -4.38754 -1.92436 0
M  V30 6686 H 639.745 -2.29196 -1.11091 0
M  V30 6687 H 640.528 -3.43117 0.112134 0
M  V30 6688 N 642.974 0.416227 -1.52004 0
M  V30 6689 C 644.222 1.16153 -1.65387 0
M  V30 6690 C 644.543 1.91208 -0.382669 0
M  V30 6691 O 643.813 1.86413 0.602231 0
M  V30 6692 H 642.393 0.431765 -0.60958 0
M  V30 6693 H 645.055 0.475151 -1.89019 0
M  V30 6694 H 644.151 1.87952 -2.4916 0
M  V30 6695 N 644.452 1.42507 0.673017 0
M  V30 6696 C 645.399 1.46124 1.78651 0
M  V30 6697 C 646.369 0.313007 1.63124 0
M  V30 6698 O 647.554 0.517337 1.83653 0
M  V30 6699 C 644.694 1.3711 3.16694 0
M  V30 6700 C 643.807 2.61983 3.43495 0
M  V30 6701 C 642.942 2.45098 4.71275 0
M  V30 6702 C 641.981 3.65336 4.91117 0
M  V30 6703 N 641.118 3.47383 6.10139 0
M  V30 6704 H 645.958 2.4128 1.74895 0
M  V30 6705 H 643.495 1.19788 0.853766 0
M  V30 6706 H 645.453 1.29881 3.96468 0
M  V30 6707 H 644.083 0.45549 3.1957 0
M  V30 6708 H 643.135 2.79571 2.57961 0
M  V30 6709 H 644.447 3.51355 3.5405 0
M  V30 6710 H 643.601 2.35466 5.59143 0
M  V30 6711 H 642.34 1.53219 4.63007 0
M  V30 6712 H 641.345 3.754 4.0169 0
M  V30 6713 H 642.57 4.58199 5.01229 0
M  V30 6714 H 640.516 2.58222 6.0304 0
M  V30 6715 H 640.433 4.30344 6.21563 0
M  V30 6716 H 641.701 3.41565 7.00681 0
M  V30 6717 O 645.969 -0.81563 1.39391 0
M  V30 6718 H 646.66 -1.4596 1.2734 0
M  V30 END ATOM
M  V30 BEGIN BOND
M  V30 END BOND
M  V30 END CTAB
M  END
$$$$
