drugbank_target|Q9H4Y5 Glutathione S-transferase omega-2 (DB00143)
 OpenBabel12092120083D

  0  0  0     0  0            999 V3000
M  V30 BEGIN CTAB
M  V30 COUNTS 3955 4012 0 0 0
M  V30 BEGIN ATOM
M  V30 1 H -0.908 1.98254 -0.117106 0
M  V30 2 N 0 1.576 0 0
M  V30 3 C 0.933 2.03868 1.02534 0
M  V30 4 C 1.911 0.928543 1.3348 0
M  V30 5 O 3.095 1.19667 1.45644 0
M  V30 6 C 0.222 2.43627 2.35294 0
M  V30 7 C -0.732 3.65373 2.2001 0
M  V30 8 S 0.101 5.13292 1.52614 0
M  V30 9 C 1.257 5.56322 2.86805 0
M  V30 10 H 1.49 2.90518 0.631377 0
M  V30 11 H -0.977 1.52953 0.210867 0
M  V30 12 H 0.981 2.67203 3.11629 0
M  V30 13 H -0.358 1.57376 2.7183 0
M  V30 14 H -1.165 3.90944 3.18086 0
M  V30 15 H -1.563 3.418 1.51819 0
M  V30 16 H 0.729 5.58782 3.83104 0
M  V30 17 H 1.672 6.56266 2.65933 0
M  V30 18 H 2.08 4.83886 2.90714 0
M  V30 19 N 1.4781 -0.272755 1.55222 0
M  V30 20 C 2.7031 -1.02683 1.80197 0
M  V30 21 C 3.1281 -1.79142 0.573551 0
M  V30 22 O 2.4861 -1.74917 -0.476849 0
M  V30 23 C 2.5341 -1.9609 3.02624 0
M  V30 24 O 1.6381 -3.04863 2.77727 0
M  V30 25 H 0.9791 -0.293557 0.595584 0
M  V30 26 H 3.5091 -0.30159 2.02365 0
M  V30 27 H 3.5191 -2.38039 3.31363 0
M  V30 28 H 2.1941 -1.39851 3.91682 0
M  V30 29 H 0.7711 -2.67228 2.60084 0
M  V30 30 N 2.9562 -1.48159 -0.537278 0
M  V30 31 C 4.2042 -1.55497 -1.29094 0
M  V30 32 C 4.5252 -0.227454 -1.93669 0
M  V30 33 O 3.7952 0.750386 -1.80959 0
M  V30 34 H 2.3752 -0.572832 -0.47945 0
M  V30 35 H 5.0372 -1.84579 -0.625818 0
M  V30 36 H 4.1332 -2.33216 -2.07405 0
M  V30 37 N 4.4343 0.785586 -1.36625 0
M  V30 38 C 5.7113 1.53198 -1.21613 0
M  V30 39 C 6.0913 2.10187 0.196113 0
M  V30 40 O 5.4393 1.94318 1.20219 0
M  V30 41 C 5.6493 2.62388 -2.30116 0
M  V30 42 C 6.9973 3.30167 -2.66974 0
M  V30 43 O 8.0213 2.72674 -2.29188 0
M  V30 44 O 6.8803 4.34077 -3.32023 0
M  V30 45 H 3.9743 0.677865 -0.473738 0
M  V30 46 H 6.5203 0.823739 -1.48367 0
M  V30 47 H 5.2923 2.18299 -3.24748 0
M  V30 48 H 4.9153 3.40827 -2.0475 0
M  V30 49 N 5.9124 1.20967 1.01018 0
M  V30 50 C 6.8754 0.965918 2.07853 0
M  V30 51 C 7.8754 -0.0610545 1.60684 0
M  V30 52 O 9.0654 0.175681 1.73312 0
M  V30 53 C 6.1974 0.455513 3.37843 0
M  V30 54 H 7.3904 1.91365 2.3091 0
M  V30 55 H 4.9434 1.02594 1.17916 0
M  V30 56 H 5.6784 -0.497381 3.20463 0
M  V30 57 H 5.4634 1.19622 3.73407 0
M  V30 58 H 6.9534 0.304667 4.16487 0
M  V30 59 N 7.3905 -1.2043 1.01659 0
M  V30 60 C 8.6185 -1.93777 0.725132 0
M  V30 61 C 9.0335 -1.74772 -0.714166 0
M  V30 62 O 8.3905 -1.06169 -1.4844 0
M  V30 63 C 8.4415 -3.45876 1.05129 0
M  V30 64 O 8.1625 -3.6426 2.43406 0
M  V30 65 C 9.6635 -4.36368 0.780891 0
M  V30 66 H 6.8835 -0.615901 0.266284 0
M  V30 67 H 9.4275 -1.52922 1.35776 0
M  V30 68 H 7.5825 -3.8461 0.464065 0
M  V30 69 H 7.9965 -4.58246 2.55169 0
M  V30 70 H 9.4705 -5.41743 1.05918 0
M  V30 71 H 9.9475 -4.38275 -0.284937 0
M  V30 72 H 10.5535 -4.03296 1.35027 0
M  V30 73 N 8.8686 -0.792821 -1.36206 0
M  V30 74 C 10.2846 -0.474903 -1.52371 0
M  V30 75 C 10.4846 1.00622 -1.74578 0
M  V30 76 O 9.5406 1.79162 -1.77924 0
M  V30 77 C 10.8536 -1.3083 -2.70747 0
M  V30 78 C 12.4016 -1.30234 -2.84619 0
M  V30 79 C 12.8766 -2.11956 -4.06004 0
M  V30 80 N 14.3676 -2.09419 -4.13156 0
M  V30 81 C 15.1026 -2.69419 -5.06163 0
M  V30 82 N 14.5986 -3.3829 -6.04592 0
M  V30 83 N 16.3916 -2.59134 -4.98804 0
M  V30 84 H 8.5426 -1.75222 -1.20046 0
M  V30 85 H 10.8056 -0.745024 -0.586211 0
M  V30 86 H 10.5116 -2.35881 -2.6087 0
M  V30 87 H 10.3856 -0.95196 -3.6499 0
M  V30 88 H 12.7726 -0.259748 -2.93955 0
M  V30 89 H 12.8536 -1.69847 -1.91274 0
M  V30 90 H 12.4976 -3.16248 -3.97429 0
M  V30 91 H 12.4276 -1.69711 -4.98503 0
M  V30 92 H 14.9186 -1.59297 -3.42685 0
M  V30 93 H 15.2316 -3.81394 -6.7213 0
M  V30 94 H 13.5766 -3.42393 -6.04807 0
M  V30 95 H 16.7676 -2.04927 -4.20859 0
M  V30 96 H 16.9406 -3.06185 -5.711 0
M  V30 97 N 10.3467 1.47872 -0.545128 0
M  V30 98 C 11.5747 2.06889 -0.021084 0
M  V30 99 C 11.9897 1.39955 1.2672 0
M  V30 100 O 11.3467 0.492036 1.75742 0
M  V30 101 C 11.3977 3.60996 0.190817 0
M  V30 102 O 11.1187 4.25419 -1.04644 0
M  V30 103 C 12.6197 4.36849 0.753521 0
M  V30 104 H 9.8397 0.669785 -0.0403635 0
M  V30 105 H 12.3837 1.90049 -0.755095 0
M  V30 106 H 10.5387 3.77391 0.87492 0
M  V30 107 H 10.9527 5.17785 -0.836611 0
M  V30 108 H 12.4267 5.45399 0.851139 0
M  V30 109 H 12.9037 4.02306 1.762 0
M  V30 110 H 13.5097 4.25169 0.105503 0
M  V30 111 N 11.8248 0.280983 1.55075 0
M  V30 112 C 12.7548 -0.597469 2.25727 0
M  V30 113 C 13.7358 -1.15417 1.24952 0
M  V30 114 O 14.9208 -1.18722 1.53684 0
M  V30 115 C 12.0508 -1.7789 2.98283 0
M  V30 116 C 11.0048 -1.35347 4.06036 0
M  V30 117 C 10.3308 -2.61846 4.66198 0
M  V30 118 C 11.6308 -0.499354 5.19907 0
M  V30 119 H 13.3248 -0.00824265 2.99399 0
M  V30 120 H 10.8708 -0.0025244 1.44 0
M  V30 121 H 12.8238 -2.39937 3.46422 0
M  V30 122 H 11.5478 -2.39405 2.22155 0
M  V30 123 H 10.2068 -0.756156 3.58717 0
M  V30 124 H 9.8548 -3.21632 3.86732 0
M  V30 125 H 9.5548 -2.3409 5.38958 0
M  V30 126 H 11.0788 -3.24732 5.1709 0
M  V30 127 H 12.4928 -1.02498 5.64063 0
M  V30 128 H 10.8898 -0.316424 5.99265 0
M  V30 129 H 11.9598 0.480459 4.82514 0
M  V30 130 N 13.3029 -1.57598 0.00835791 0
M  V30 131 C 14.5509 -1.90551 -0.6734 0
M  V30 132 C 14.8719 -0.883301 -1.73847 0
M  V30 133 O 14.1419 0.0781442 -1.95744 0
M  V30 134 H 12.7219 -0.703312 -0.251717 0
M  V30 135 H 15.3839 -1.94833 0.0512592 0
M  V30 136 H 14.4799 -2.9056 -1.13935 0
M  V30 137 N 14.781 0.264519 -1.55364 0
M  V30 138 C 15.728 1.32717 -1.88825 0
M  V30 139 C 16.698 1.48675 -0.740605 0
M  V30 140 O 17.883 1.62945 -0.992657 0
M  V30 141 C 15.023 2.68089 -2.17307 0
M  V30 142 C 14.136 2.60284 -3.44785 0
M  V30 143 C 13.271 3.87892 -3.62924 0
M  V30 144 C 12.31 3.74631 -4.84064 0
M  V30 145 N 11.447 4.94092 -4.98816 0
M  V30 146 H 16.287 1.03481 -2.79456 0
M  V30 147 H 13.824 0.499757 -1.3835 0
M  V30 148 H 15.782 3.46864 -2.31821 0
M  V30 149 H 14.412 2.95509 -1.299 0
M  V30 150 H 13.464 1.73173 -3.38697 0
M  V30 151 H 14.776 2.46388 -4.33698 0
M  V30 152 H 13.93 4.75109 -3.77302 0
M  V30 153 H 12.669 4.04664 -2.7221 0
M  V30 154 H 11.674 2.85797 -4.69681 0
M  V30 155 H 12.899 3.5937 -5.76221 0
M  V30 156 H 10.845 5.11259 -4.11036 0
M  V30 157 H 10.762 4.8276 -5.81789 0
M  V30 158 H 12.03 5.82857 -5.17588 0
M  V30 159 N 16.2591 1.48442 0.529413 0
M  V30 160 C 17.5071 1.56179 1.28267 0
M  V30 161 C 17.8281 0.237721 1.93546 0
M  V30 162 O 17.0981 -0.740779 1.81354 0
M  V30 163 H 15.6781 0.575367 0.476405 0
M  V30 164 H 18.3401 1.84909 0.61602 0
M  V30 165 H 17.4361 2.34312 2.06165 0
M  V30 166 N 17.7372 -0.778329 1.37039 0
M  V30 167 C 18.9622 -1.57248 1.35233 0
M  V30 168 C 19.3872 -1.87999 -0.0615568 0
M  V30 169 O 18.7452 -1.48734 -1.03672 0
M  V30 170 C 18.7932 -2.86353 2.19167 0
M  V30 171 O 17.8972 -3.80442 1.59178 0
M  V30 172 H 17.2382 -0.476569 0.462362 0
M  V30 173 H 19.7682 -0.963853 1.80474 0
M  V30 174 H 19.7782 -3.35519 2.32145 0
M  V30 175 H 18.4532 -2.63299 3.21942 0
M  V30 176 H 17.0302 -3.39067 1.55203 0
M  V30 177 N 19.2153 -1.21501 -1.00376 0
M  V30 178 C 20.1473 -0.933174 -2.09343 0
M  V30 179 C 21.1603 0.0840896 -1.62583 0
M  V30 180 O 22.3493 -0.148563 -1.77881 0
M  V30 181 C 19.4493 -0.379869 -3.36764 0
M  V30 182 C 18.6223 -1.45176 -4.12605 0
M  V30 183 C 17.6813 -0.907476 -5.18316 0
M  V30 184 O 16.7073 -1.5912 -5.46507 0
M  V30 185 N 17.9093 0.276649 -5.7984 0
M  V30 186 H 20.6743 -1.87124 -2.34104 0
M  V30 187 H 18.2353 -1.12043 -1.16867 0
M  V30 188 H 20.2273 -0.00131488 -4.047 0
M  V30 189 H 18.7973 0.463048 -3.09151 0
M  V30 190 H 18.0173 -2.00411 -3.39454 0
M  V30 191 H 19.3053 -2.17328 -4.6005 0
M  V30 192 H 18.7033 0.849147 -5.59291 0
M  V30 193 H 17.2603 0.596702 -6.49063 0
M  V30 194 N 20.6934 1.19889 -1.02296 0
M  V30 195 C 22.1044 1.71124 -0.746568 0
M  V30 196 C 22.4554 1.81939 0.734335 0
M  V30 197 O 21.5804 1.48639 1.57275 0
M  V30 198 C 22.1754 3.10804 -1.34857 0
M  V30 199 C 20.7344 3.59323 -1.1209 0
M  V30 200 C 19.8814 2.3635 -1.45031 0
M  V30 201 H 22.8324 1.04813 -1.19163 0
M  V30 202 H 22.8534 3.73186 -0.742437 0
M  V30 203 H 22.3654 3.029 -2.42638 0
M  V30 204 H 20.4664 3.7255 -0.0610337 0
M  V30 205 H 20.5794 4.4378 -1.80544 0
M  V30 206 H 18.9434 2.39399 -0.869487 0
M  V30 207 H 19.7264 2.31081 -2.53883 0
M  V30 208 N 22.1715 0.800033 1.35784 0
M  V30 209 C 23.5825 0.439142 1.81462 0
M  V30 210 C 23.9335 -1.03813 1.66485 0
M  V30 211 O 23.0585 -1.80626 1.19177 0
M  V30 212 C 23.6535 0.790314 3.29453 0
M  V30 213 C 22.2125 0.482111 3.733 0
M  V30 214 C 21.3595 1.01938 2.57883 0
M  V30 215 H 24.3105 0.992254 1.23855 0
M  V30 216 H 24.3315 0.0853677 3.80404 0
M  V30 217 H 23.8435 1.86554 3.40322 0
M  V30 218 H 21.9445 -0.584652 3.67984 0
M  V30 219 H 22.0575 1.01015 4.6833 0
M  V30 220 H 20.4215 0.442043 2.50835 0
M  V30 221 H 21.2045 2.10059 2.71533 0
M  V30 222 N 23.6496 -1.47581 0.552962 0
M  V30 223 C 24.8976 -2.02082 0.0272703 0
M  V30 224 C 25.2186 -1.4301 -1.32563 0
M  V30 225 O 24.4886 -0.603745 -1.86365 0
M  V30 226 H 23.0686 -0.746966 0.00709182 0
M  V30 227 H 25.7306 -1.81033 0.722008 0
M  V30 228 H 24.8266 -3.12034 -0.0639951 0
M  V30 229 N 25.1277 -0.289203 -1.54924 0
M  V30 230 C 26.5387 0.205791 -1.85562 0
M  V30 231 C 26.8897 1.54351 -1.2112 0
M  V30 232 O 26.0147 2.10435 -0.504601 0
M  V30 233 C 26.6097 0.380177 -3.3666 0
M  V30 234 C 25.1687 0.819395 -3.67373 0
M  V30 235 C 24.3157 -0.079159 -2.77187 0
M  V30 236 H 27.2667 -0.510577 -1.50262 0
M  V30 237 H 27.2877 1.21659 -3.60526 0
M  V30 238 H 26.7997 -0.593589 -3.83534 0
M  V30 239 H 24.9007 1.80413 -3.26009 0
M  V30 240 H 25.0137 0.646957 -4.74712 0
M  V30 241 H 23.3777 0.439565 -2.50878 0
M  V30 242 H 24.1607 -1.04906 -3.26878 0
M  V30 243 N 26.6058 1.57591 -0.0167156 0
M  V30 244 C 27.8518 1.91567 0.665582 0
M  V30 245 C 28.1848 0.892298 1.72487 0
M  V30 246 O 27.4598 -0.0867127 1.94307 0
M  V30 247 C 27.7428 3.36069 1.29342 0
M  V30 248 C 27.5958 4.49135 0.244541 0
M  V30 249 C 28.9148 3.803 2.21495 0
M  V30 250 H 26.0338 0.69666 0.240488 0
M  V30 251 H 28.6758 1.89866 -0.0714356 0
M  V30 252 H 26.8258 3.3765 1.92158 0
M  V30 253 H 28.4978 4.59689 -0.385228 0
M  V30 254 H 26.7408 4.3165 -0.431379 0
M  V30 255 H 27.4118 5.47242 0.723207 0
M  V30 256 H 29.8878 3.80377 1.68678 0
M  V30 257 H 28.7638 4.82127 2.62382 0
M  V30 258 H 29.0248 3.15104 3.101 0
M  V30 259 N 28.0839 -0.256276 1.55502 0
M  V30 260 C 29.4949 -0.826068 1.67431 0
M  V30 261 C 29.8459 -1.86396 0.612446 0
M  V30 262 O 28.9709 -2.15031 -0.243025 0
M  V30 263 C 29.5659 -1.50512 3.03532 0
M  V30 264 C 28.1249 -2.02273 3.17431 0
M  V30 265 C 27.2719 -0.870548 2.63281 0
M  V30 266 H 30.2229 -0.0322728 1.58667 0
M  V30 267 H 30.2439 -2.37279 2.97454 0
M  V30 268 H 29.7559 -0.749484 3.80794 0
M  V30 269 H 27.8569 -2.80746 2.44974 0
M  V30 270 H 27.9699 -2.22655 4.24219 0
M  V30 271 H 26.3339 -1.26851 2.20864 0
M  V30 272 H 27.1169 -0.128149 3.43061 0
M  V30 273 N 29.562 -1.4872 -0.521534 0
M  V30 274 C 30.472 -1.66569 -1.65203 0
M  V30 275 C 31.488 -0.548197 -1.65139 0
M  V30 276 O 32.664 -0.820339 -1.83936 0
M  V30 277 C 29.729 -1.70917 -3.01642 0
M  V30 278 C 28.79 -2.94356 -3.12495 0
M  V30 279 C 28.023 -2.98487 -4.42426 0
M  V30 280 O 28.246 -2.10786 -5.30024 0
M  V30 281 O 27.18 -3.90746 -4.57822 0
M  V30 282 H 31.006 -2.62298 -1.5308 0
M  V30 283 H 28.591 -1.3222 -0.695565 0
M  V30 284 H 30.473 -1.7625 -3.82771 0
M  V30 285 H 29.148 -0.783633 -3.14071 0
M  V30 286 H 28.055 -2.94552 -2.3063 0
M  V30 287 H 29.388 -3.86322 -3.04986 0
M  V30 288 N 31.0401 0.771051 -1.3745 0
M  V30 289 C 32.2881 1.52661 -1.32435 0
M  V30 290 C 32.6091 1.9479 0.0905024 0
M  V30 291 O 31.8791 1.66348 1.03466 0
M  V30 292 H 30.4591 0.566218 -0.487244 0
M  V30 293 H 33.1211 0.917636 -1.71946 0
M  V30 294 H 32.2171 2.42568 -1.96385 0
M  V30 295 N 32.5182 1.22032 0.997298 0
M  V30 296 C 33.4482 1.01065 2.10495 0
M  V30 297 C 34.4292 -0.0669542 1.69968 0
M  V30 298 O 35.6142 0.0943987 1.9397 0
M  V30 299 C 32.7442 0.582874 3.42374 0
M  V30 300 C 31.6982 1.60592 3.96729 0
M  V30 301 C 31.0242 1.03412 5.24605 0
M  V30 302 C 32.3242 2.99478 4.27914 0
M  V30 303 H 34.0182 1.93708 2.28292 0
M  V30 304 H 31.5642 0.932761 1.09707 0
M  V30 305 H 33.5172 0.423332 4.19268 0
M  V30 306 H 32.2412 -0.379213 3.24391 0
M  V30 307 H 30.9002 1.75316 3.21963 0
M  V30 308 H 30.5482 0.063518 5.0296 0
M  V30 309 H 30.2482 1.71754 5.61938 0
M  V30 310 H 31.7722 0.886066 6.04137 0
M  V30 311 H 33.1862 2.88153 4.95622 0
M  V30 312 H 31.5832 3.64903 4.76409 0
M  V30 313 H 32.6532 3.49742 3.3587 0
M  V30 314 N 33.9963 -1.19345 1.0293 0
M  V30 315 C 35.2453 -1.88363 0.721256 0
M  V30 316 C 35.5583 -1.80514 -0.753254 0
M  V30 317 O 36.7643 -2.44788 -1.17436 0
M  V30 318 C 35.2203 -3.37872 1.23978 0
M  V30 319 C 34.8283 -3.54278 2.74211 0
M  V30 320 C 36.5723 -4.12365 1.00775 0
M  V30 321 C 34.4793 -4.97682 3.19479 0
M  V30 322 H 33.4093 -0.705484 0.266098 0
M  V30 323 H 36.0603 -1.34928 1.24365 0
M  V30 324 H 34.4423 -3.90707 0.6453 0
M  V30 325 H 35.6163 -3.11769 3.39318 0
M  V30 326 H 33.9313 -2.93174 2.95699 0
M  V30 327 H 36.5283 -5.18119 1.32123 0
M  V30 328 H 36.8713 -4.16263 -0.0554308 0
M  V30 329 H 37.4043 -3.65668 1.56625 0
M  V30 330 H 34.1433 -4.98945 4.25128 0
M  V30 331 H 33.6633 -5.4095 2.591 0
M  V30 332 H 35.3423 -5.66337 3.12845 0
M  V30 333 N 35.4744 -0.807222 -1.35358 0
M  V30 334 C 36.8904 -0.491038 -1.51858 0
M  V30 335 C 37.0904 0.987648 -1.75635 0
M  V30 336 O 36.1464 1.77265 -1.79815 0
M  V30 337 C 37.4594 -1.33695 -2.69344 0
M  V30 338 C 39.0074 -1.33246 -2.83222 0
M  V30 339 C 39.4824 -2.1625 -4.03733 0
M  V30 340 N 40.9734 -2.1379 -4.10911 0
M  V30 341 C 41.7084 -2.74772 -5.03277 0
M  V30 342 N 41.2044 -3.44684 -6.0097 0
M  V30 343 N 42.9974 -2.6441 -4.96028 0
M  V30 344 H 35.1484 -1.76485 -1.18181 0
M  V30 345 H 37.4114 -0.751199 -0.578276 0
M  V30 346 H 37.1174 -2.38634 -2.58354 0
M  V30 347 H 36.9914 -0.990618 -3.6396 0
M  V30 348 H 39.3784 -0.290911 -2.93663 0
M  V30 349 H 39.4594 -1.71866 -1.89461 0
M  V30 350 H 39.1034 -3.20445 -3.94052 0
M  V30 351 H 39.0334 -1.74989 -4.96675 0
M  V30 352 H 41.5244 -1.62923 -3.40976 0
M  V30 353 H 41.8374 -3.88501 -6.68047 0
M  V30 354 H 40.1824 -3.48788 -6.01142 0
M  V30 355 H 43.3734 -2.0938 -4.18662 0
M  V30 356 H 43.5464 -3.12225 -5.6782 0
M  V30 357 N 36.9525 1.47285 -0.560781 0
M  V30 358 C 38.2015 2.01668 -0.035895 0
M  V30 359 C 38.5145 1.44021 1.32353 0
M  V30 360 O 39.7205 1.90088 1.93853 0
M  V30 361 C 38.1765 3.59897 -0.0136659 0
M  V30 362 C 37.7845 4.26536 -1.37006 0
M  V30 363 C 39.5285 4.22017 0.458425 0
M  V30 364 C 37.4355 5.76782 -1.30675 0
M  V30 365 H 36.3655 0.753938 -0.00964879 0
M  V30 366 H 39.0165 1.69243 -0.709166 0
M  V30 367 H 37.3985 3.89301 0.725325 0
M  V30 368 H 38.5725 4.0877 -2.12705 0
M  V30 369 H 36.8875 3.76419 -1.78038 0
M  V30 370 H 39.4845 5.32124 0.524247 0
M  V30 371 H 39.8275 3.89437 1.4712 0
M  V30 372 H 40.3605 3.97159 -0.225818 0
M  V30 373 H 37.0995 6.13988 -2.29564 0
M  V30 374 H 36.6195 5.96875 -0.591622 0
M  V30 375 H 38.2985 6.39063 -1.01033 0
M  V30 376 N 38.4306 0.297415 1.54768 0
M  V30 377 C 39.6606 -0.315165 2.04182 0
M  V30 378 C 40.0686 -1.4834 1.17439 0
M  V30 379 O 39.4116 -1.82695 0.191891 0
M  V30 380 C 39.4736 -0.837583 3.49607 0
M  V30 381 C 39.1376 0.204912 4.5654 0
M  V30 382 C 40.1346 1.03214 5.09552 0
M  V30 383 C 37.8196 0.345578 5.0111 0
M  V30 384 C 39.8136 1.986 6.05671 0
M  V30 385 C 37.5006 1.30289 5.97049 0
M  V30 386 C 38.4986 2.12159 6.49213 0
M  V30 387 O 38.1866 3.06268 7.43273 0
M  V30 388 H 37.9186 -0.0729646 0.672051 0
M  V30 389 H 40.4726 0.433907 2.00765 0
M  V30 390 H 38.7026 -1.63712 3.50336 0
M  V30 391 H 40.3916 -1.36566 3.82236 0
M  V30 392 H 41.1576 0.934312 4.75916 0
M  V30 393 H 37.0366 -0.28171 4.60138 0
M  V30 394 H 40.5806 2.62542 6.46311 0
M  V30 395 H 36.4776 1.40145 6.30103 0
M  V30 396 H 37.2456 3.01205 7.61064 0
M  V30 397 N 39.9087 -1.5758 0.0250728 0
M  V30 398 C 41.1337 -1.96337 -0.668317 0
M  V30 399 C 41.5587 -0.901314 -1.651 0
M  V30 400 O 40.9167 0.138187 -1.80773 0
M  V30 401 C 40.9647 -3.34191 -1.35457 0
M  V30 402 O 40.0687 -3.30269 -2.46974 0
M  V30 403 H 39.4097 -0.640281 -0.175887 0
M  V30 404 H 41.9397 -2.0442 0.0857224 0
M  V30 405 H 41.9497 -3.70331 -1.71228 0
M  V30 406 H 40.6247 -4.11036 -0.634218 0
M  V30 407 H 39.2017 -3.05841 -2.13344 0
M  V30 408 N 41.3868 0.248026 -1.55636 0
M  V30 409 C 42.3198 1.3334 -1.85191 0
M  V30 410 C 43.2978 1.46429 -0.706906 0
M  V30 411 O 44.4818 1.62662 -0.952544 0
M  V30 412 C 41.6088 2.70703 -2.03562 0
M  V30 413 C 40.6548 2.7477 -3.26196 0
M  V30 414 S 41.4878 2.31493 -4.82878 0
M  V30 415 C 42.6438 3.70783 -5.04253 0
M  V30 416 H 42.8768 1.08072 -2.76962 0
M  V30 417 H 40.4098 0.448952 -1.47729 0
M  V30 418 H 42.3678 3.49798 -2.1483 0
M  V30 419 H 41.0288 2.9321 -1.12635 0
M  V30 420 H 40.2218 3.75648 -3.36013 0
M  V30 421 H 39.8238 2.03719 -3.13647 0
M  V30 422 H 42.1158 4.6627 -4.91527 0
M  V30 423 H 43.0588 3.65901 -6.06236 0
M  V30 424 H 43.4668 3.63244 -4.32105 0
M  V30 425 N 42.8649 1.48995 0.513639 0
M  V30 426 C 44.2809 1.35478 0.843682 0
M  V30 427 C 44.4809 0.378213 1.97919 0
M  V30 428 O 43.5369 -0.194689 2.51748 0
M  V30 429 C 44.8499 2.75901 1.1958 0
M  V30 430 C 46.3979 2.84509 1.30474 0
M  V30 431 C 46.8729 4.25671 1.69021 0
M  V30 432 N 48.3639 4.28422 1.76094 0
M  V30 433 C 49.0989 5.34601 2.07338 0
M  V30 434 N 48.5949 6.5104 2.36894 0
M  V30 435 N 50.3879 5.22007 2.08483 0
M  V30 436 H 42.5389 2.11092 -0.235328 0
M  V30 437 H 44.8019 0.947039 -0.0426669 0
M  V30 438 H 44.5079 3.49001 0.434913 0
M  V30 439 H 44.3819 3.10467 2.1422 0
M  V30 440 H 46.7689 2.11655 2.05637 0
M  V30 441 H 46.8499 2.53542 0.339155 0
M  V30 442 H 46.4939 4.99048 0.944135 0
M  V30 443 H 46.4239 4.54094 2.66658 0
M  V30 444 H 48.9149 3.44441 1.55464 0
M  V30 445 H 49.2279 7.2779 2.59887 0
M  V30 446 H 47.5729 6.54287 2.34378 0
M  V30 447 H 50.7639 4.30051 1.84861 0
M  V30 448 H 50.9369 6.04854 2.325 0
M  V30 449 N 44.343 -0.763751 1.37857 0
M  V30 450 C 45.59 -1.52257 1.33506 0
M  V30 451 C 45.918 -1.94343 -0.078022 0
M  V30 452 O 45.173 -1.64958 -1.05297 0
M  V30 453 C 45.472 -2.79499 2.22745 0
M  V30 454 C 45.138 -2.56426 3.70886 0
M  V30 455 C 43.8 -2.49842 4.11257 0
M  V30 456 C 46.152 -2.36008 4.64704 0
M  V30 457 C 43.48 -2.20841 5.43549 0
M  V30 458 C 45.832 -2.0853 5.97242 0
M  V30 459 C 44.496 -2.00396 6.36709 0
M  V30 460 H 43.766 -0.557149 0.488534 0
M  V30 461 H 46.413 -0.879073 1.70131 0
M  V30 462 H 44.718 -3.48447 1.79142 0
M  V30 463 H 46.415 -3.37413 2.16688 0
M  V30 464 H 43.005 -2.62416 3.38874 0
M  V30 465 H 47.189 -2.40079 4.34368 0
M  V30 466 H 42.445 -2.13045 5.73081 0
M  V30 467 H 46.619 -1.91732 6.69486 0
M  V30 468 H 44.246 -1.77688 7.39142 0
M  V30 469 N 45.8211 -1.22559 -0.990812 0
M  V30 470 C 47.0611 -1.06302 -1.74583 0
M  V30 471 C 47.4251 0.394737 -1.87898 0
M  V30 472 O 48.6261 0.678214 -2.60103 0
M  V30 473 C 46.8971 -1.75699 -3.11231 0
M  V30 474 S 48.4561 -1.74882 -4.02445 0
M  V30 475 H 45.2741 -0.380639 -0.600529 0
M  V30 476 H 47.8761 -1.55532 -1.18449 0
M  V30 477 H 46.5801 -2.80923 -2.99183 0
M  V30 478 H 46.1111 -1.26708 -3.72436 0
M  V30 479 H 48.1261 -0.799997 -4.89709 0
M  V30 480 N 47.2992 1.18797 -1.03562 0
M  V30 481 C 48.7102 1.70322 -0.764676 0
M  V30 482 C 49.0612 1.82708 0.714996 0
M  V30 483 O 48.1862 1.50299 1.55689 0
M  V30 484 C 48.7812 3.09356 -1.38145 0
M  V30 485 C 47.3402 3.58114 -1.15895 0
M  V30 486 C 46.4872 2.34798 -1.4753 0
M  V30 487 H 49.4382 1.03543 -1.20268 0
M  V30 488 H 49.4592 3.72378 -0.781977 0
M  V30 489 H 48.9712 3.00309 -2.45837 0
M  V30 490 H 47.0722 3.72464 -0.100544 0
M  V30 491 H 47.1852 4.4184 -1.8524 0
M  V30 492 H 45.5492 2.38464 -0.894829 0
M  V30 493 H 46.3322 2.28375 -2.56319 0
M  V30 494 N 48.7773 0.814389 1.34928 0
M  V30 495 C 50.0073 0.41054 2.0248 0
M  V30 496 C 50.4153 -0.985625 1.61499 0
M  V30 497 O 49.7583 -1.64781 0.811976 0
M  V30 498 C 49.8203 0.423384 3.56998 0
M  V30 499 C 49.4843 1.77141 4.21272 0
M  V30 500 C 50.4813 2.73093 4.42398 0
M  V30 501 C 48.1663 2.05755 4.58225 0
M  V30 502 C 50.1603 3.95838 4.9959 0
M  V30 503 C 47.8473 3.28762 5.1513 0
M  V30 504 C 48.8453 4.23621 5.35755 0
M  V30 505 O 48.5333 5.44456 5.91458 0
M  V30 506 H 48.2653 0.163997 0.655806 0
M  V30 507 H 50.8193 1.10155 1.73364 0
M  V30 508 H 49.0493 -0.324276 3.85338 0
M  V30 509 H 50.7383 0.0407683 4.0588 0
M  V30 510 H 51.5043 2.5228 4.14222 0
M  V30 511 H 47.3833 1.32727 4.4148 0
M  V30 512 H 50.9273 4.69891 5.15605 0
M  V30 513 H 46.8243 3.49443 5.42734 0
M  V30 514 H 47.5923 5.4586 6.09901 0
M  V30 515 N 50.2554 -1.46986 0.568584 0
M  V30 516 C 51.4804 -2.07335 0.0520528 0
M  V30 517 C 51.9054 -1.41675 -1.23733 0
M  V30 518 O 51.2634 -0.495623 -1.74394 0
M  V30 519 C 51.3114 -3.60417 -0.11501 0
M  V30 520 O 50.4154 -3.95309 -1.17492 0
M  V30 521 H 49.7564 -0.661597 0.0564385 0
M  V30 522 H 52.2864 -1.88837 0.787507 0
M  V30 523 H 52.2964 -4.06698 -0.325644 0
M  V30 524 H 50.9714 -4.07601 0.826675 0
M  V30 525 H 49.5484 -3.60757 -0.943869 0
M  V30 526 N 51.7335 -0.305618 -1.54608 0
M  V30 527 C 52.6835 0.583595 -2.20405 0
M  V30 528 C 53.6675 1.09539 -1.17856 0
M  V30 529 O 54.8595 1.0354 -1.43557 0
M  V30 530 C 51.9885 1.75277 -2.95183 0
M  V30 531 C 51.0745 1.25672 -4.05052 0
M  V30 532 N 51.4655 0.478998 -5.03527 0
M  V30 533 C 49.7635 1.53704 -4.18678 0
M  V30 534 C 50.4645 0.214269 -5.81305 0
M  V30 535 N 49.4405 0.795374 -5.3775 0
M  V30 536 H 53.2425 -0.0180946 -2.93894 0
M  V30 537 H 50.7565 -0.110601 -1.62023 0
M  V30 538 H 52.7535 2.4014 -3.40791 0
M  V30 539 H 51.4135 2.35812 -2.23211 0
M  V30 540 H 52.4245 0.123473 -5.17753 0
M  V30 541 H 49.1015 2.14954 -3.57912 0
M  V30 542 H 50.4915 -0.410656 -6.70644 0
M  V30 543 N 53.2116 1.57565 -0.0334293 0
M  V30 544 C 54.6276 1.56297 0.322997 0
M  V30 545 C 54.8276 1.03945 1.7262 0
M  V30 546 O 53.8836 0.688109 2.42943 0
M  V30 547 C 55.1966 3.00232 0.167664 0
M  V30 548 C 56.7446 3.12078 0.240107 0
M  V30 549 C 57.2196 4.57859 0.113513 0
M  V30 550 N 58.7106 4.62887 0.170359 0
M  V30 551 C 59.4456 5.73319 0.0962517 0
M  V30 552 N 58.9416 6.92794 -0.0291881 0
M  V30 553 N 60.7346 5.61898 0.150551 0
M  V30 554 H 52.8856 1.89923 -0.950956 0
M  V30 555 H 55.1486 0.873824 -0.367608 0
M  V30 556 H 54.8546 3.42501 -0.799102 0
M  V30 557 H 54.7286 3.654 0.936083 0
M  V30 558 H 57.1156 2.69718 1.19733 0
M  V30 559 H 57.1966 2.49623 -0.558763 0
M  V30 560 H 56.8406 5.009 -0.840314 0
M  V30 561 H 56.7706 5.18299 0.931302 0
M  V30 562 H 59.2616 3.76954 0.26728 0
M  V30 563 H 59.5746 7.7276 -0.0789252 0
M  V30 564 H 57.9196 6.94971 -0.0640299 0
M  V30 565 H 61.1106 4.67448 0.246981 0
M  V30 566 H 61.2836 6.47938 0.0893365 0
M  V30 567 N 54.6897 -0.239769 1.55765 0
M  V30 568 C 55.9177 -0.98417 1.81994 0
M  V30 569 C 56.3327 -1.7867 0.610124 0
M  V30 570 O 55.6897 -1.77571 -0.421271 0
M  V30 571 C 55.7407 -1.91635 3.06526 0
M  V30 572 O 55.4617 -1.14629 4.22838 0
M  V30 573 C 56.9627 -2.77616 3.45607 0
M  V30 574 H 54.1827 -0.28928 0.605441 0
M  V30 575 H 56.7267 -0.260499 2.02834 0
M  V30 576 H 54.8817 -2.5942 2.87715 0
M  V30 577 H 55.2957 -1.77745 4.93464 0
M  V30 578 H 56.7697 -3.38759 4.35828 0
M  V30 579 H 57.2467 -3.4909 2.6652 0
M  V30 580 H 57.8527 -2.15271 3.66795 0
M  V30 581 N 56.1678 -1.49265 -0.50573 0
M  V30 582 C 57.5838 -1.35923 -0.836486 0
M  V30 583 C 57.7838 -0.388704 -1.97715 0
M  V30 584 O 56.8398 0.181336 -2.51848 0
M  V30 585 C 58.1528 -2.76531 -1.18115 0
M  V30 586 C 59.7008 -2.85197 -1.28964 0
M  V30 587 C 60.1758 -4.26561 -1.66761 0
M  V30 588 N 61.6668 -4.2935 -1.73819 0
M  V30 589 C 62.4018 -5.35693 -2.045 0
M  V30 590 N 61.8978 -6.52287 -2.33438 0
M  V30 591 N 63.6908 -5.23105 -2.05711 0
M  V30 592 H 55.8418 -2.10965 0.246519 0
M  V30 593 H 58.1048 -0.9468 0.0476887 0
M  V30 594 H 57.8108 -3.49226 -0.416398 0
M  V30 595 H 57.6848 -3.11599 -2.1257 0
M  V30 596 H 60.0718 -2.12742 -2.04511 0
M  V30 597 H 60.1528 -2.53718 -0.325704 0
M  V30 598 H 59.7968 -4.99541 -0.917656 0
M  V30 599 H 59.7268 -4.55502 -2.64246 0
M  V30 600 H 62.2178 -3.4526 -1.53635 0
M  V30 601 H 62.5308 -7.29158 -2.56024 0
M  V30 602 H 60.8758 -6.55521 -2.30905 0
M  V30 603 H 64.0668 -4.31026 -1.82577 0
M  V30 604 H 64.2398 -6.06078 -2.29289 0
M  V30 605 N 57.6459 0.756429 -1.3826 0
M  V30 606 C 58.5759 1.88374 -1.37976 0
M  V30 607 C 59.5569 1.68311 -0.246082 0
M  V30 608 O 60.7419 1.88944 -0.44874 0
M  V30 609 C 57.8719 3.25864 -1.20125 0
M  V30 610 C 56.8259 3.60523 -2.30666 0
M  V30 611 C 56.1519 4.9672 -1.97923 0
M  V30 612 C 57.4519 3.65692 -3.72916 0
M  V30 613 H 59.1459 1.88869 -2.32312 0
M  V30 614 H 56.6919 0.907272 -1.11824 0
M  V30 615 H 58.6449 4.0438 -1.18552 0
M  V30 616 H 57.3689 3.25841 -0.222498 0
M  V30 617 H 56.0279 2.84324 -2.3142 0
M  V30 618 H 55.6759 4.93253 -0.985393 0
M  V30 619 H 55.3759 5.20878 -2.71955 0
M  V30 620 H 56.8999 5.77618 -1.97964 0
M  V30 621 H 58.3139 4.34328 -3.74208 0
M  V30 622 H 56.7109 4.01358 -4.4613 0
M  V30 623 H 57.7809 2.65987 -4.05436 0
M  V30 624 N 59.124 1.23083 0.984299 0
M  V30 625 C 60.37 1.06214 1.72761 0
M  V30 626 C 60.703 -0.400584 1.90024 0
M  V30 627 O 59.978 -1.29672 1.44967 0
M  V30 628 C 60.261 1.78375 3.12817 0
M  V30 629 C 60.114 3.32296 3.03149 0
M  V30 630 C 61.433 1.54309 4.12161 0
M  V30 631 H 58.552 0.387251 0.627061 0
M  V30 632 H 61.194 1.51536 1.14616 0
M  V30 633 H 59.344 1.39848 3.62457 0
M  V30 634 H 61.016 3.8032 2.61064 0
M  V30 635 H 59.259 3.6153 2.39747 0
M  V30 636 H 59.93 3.77972 4.02295 0
M  V30 637 H 62.406 1.87791 3.71314 0
M  V30 638 H 61.282 2.07281 5.08258 0
M  V30 639 H 61.543 0.477572 4.39513 0
M  V30 640 N 60.6021 -1.18246 1.0419 0
M  V30 641 C 61.5321 -2.24127 0.654914 0
M  V30 642 C 62.5131 -1.66617 -0.342451 0
M  V30 643 O 63.6981 -1.92924 -0.222277 0
M  V30 644 C 60.8281 -3.47295 0.0183757 0
M  V30 645 C 59.7821 -4.17563 0.939414 0
M  V30 646 C 59.1081 -5.34438 0.167286 0
M  V30 647 C 60.4081 -4.70917 2.25908 0
M  V30 648 H 62.1021 -2.56753 1.54007 0
M  V30 649 H 59.6481 -1.23414 0.74195 0
M  V30 650 H 61.6011 -4.20572 -0.264082 0
M  V30 651 H 60.3251 -3.13907 -0.901664 0
M  V30 652 H 58.9841 -3.46186 1.20628 0
M  V30 653 H 58.6321 -4.97298 -0.7552 0
M  V30 654 H 58.3321 -5.82388 0.780901 0
M  V30 655 H 59.8561 -6.10504 -0.108125 0
M  V30 656 H 61.2701 -5.35882 2.03724 0
M  V30 657 H 59.6671 -5.29406 2.82577 0
M  V30 658 H 60.7371 -3.88272 2.9047 0
M  V30 659 N 62.0802 -0.821533 -1.34494 0
M  V30 660 C 63.0272 -0.240397 -2.29545 0
M  V30 661 C 63.9972 0.634031 -1.53523 0
M  V30 662 O 65.1822 0.575966 -1.81899 0
M  V30 663 C 62.3222 0.592869 -3.39969 0
M  V30 664 C 61.4352 -0.30365 -4.30932 0
M  V30 665 C 60.5702 0.539049 -5.28458 0
M  V30 666 C 59.6092 -0.356942 -6.11058 0
M  V30 667 N 58.7462 0.446603 -7.00678 0
M  V30 668 H 63.5862 -1.05632 -2.7865 0
M  V30 669 H 61.1232 -0.532413 -1.37127 0
M  V30 670 H 63.0812 1.09129 -4.02675 0
M  V30 671 H 61.7112 1.37392 -2.92102 0
M  V30 672 H 60.7632 -0.920276 -3.691 0
M  V30 673 H 62.0752 -0.992661 -4.88823 0
M  V30 674 H 61.2292 1.102 -5.96608 0
M  V30 675 H 59.9682 1.26157 -4.71101 0
M  V30 676 H 58.9732 -0.932047 -5.41842 0
M  V30 677 H 60.1982 -1.07755 -6.70497 0
M  V30 678 H 58.1442 1.15282 -6.45791 0
M  V30 679 H 58.0612 -0.184048 -7.55776 0
M  V30 680 H 59.3292 0.992352 -7.73158 0
M  V30 681 N 63.5583 1.46682 -0.576371 0
M  V30 682 C 64.5213 2.28707 0.150239 0
M  V30 683 C 65.5213 1.38035 0.824794 0
M  V30 684 O 66.7113 1.60476 0.677719 0
M  V30 685 C 63.8433 3.18248 1.22192 0
M  V30 686 H 65.0363 2.94423 -0.570521 0
M  V30 687 H 62.5893 1.52688 -0.334078 0
M  V30 688 H 63.3243 2.57265 1.97447 0
M  V30 689 H 63.1093 3.85 0.742812 0
M  V30 690 H 64.5993 3.80001 1.73172 0
M  V30 691 N 65.0364 0.313813 1.54444 0
M  V30 692 C 65.9834 -0.55655 2.23989 0
M  V30 693 C 66.9534 -1.11943 1.22711 0
M  V30 694 O 68.1384 -1.16158 1.51367 0
M  V30 695 C 65.2784 -1.71635 2.99392 0
M  V30 696 C 64.3914 -1.18364 4.15468 0
M  V30 697 C 63.5264 -2.30834 4.78424 0
M  V30 698 C 62.5654 -1.74762 5.86622 0
M  V30 699 N 61.7024 -2.80855 6.43479 0
M  V30 700 H 66.5424 0.0430893 2.97969 0
M  V30 701 H 64.0794 0.0330359 1.47063 0
M  V30 702 H 66.0374 -2.39868 3.41349 0
M  V30 703 H 64.6674 -2.28742 2.27765 0
M  V30 704 H 63.7194 -0.393163 3.78363 0
M  V30 705 H 65.0314 -0.733262 4.93381 0
M  V30 706 H 64.1854 -3.0699 5.23299 0
M  V30 707 H 62.9244 -2.79204 3.99871 0
M  V30 708 H 61.9294 -0.970995 5.41158 0
M  V30 709 H 63.1544 -1.2728 6.67066 0
M  V30 710 H 61.1004 -3.28535 5.67804 0
M  V30 711 H 61.0174 -2.40351 7.16776 0
M  V30 712 H 62.2854 -3.5687 6.93011 0
M  V30 713 N 66.5145 -1.57545 0.0417849 0
M  V30 714 C 67.7915 -1.83642 -0.673433 0
M  V30 715 C 68.1715 -0.928298 -1.89594 0
M  V30 716 O 67.5195 0.0129955 -2.28496 0
M  V30 717 C 67.7295 -3.33155 -1.03964 0
M  V30 718 C 69.0775 -3.99941 -1.42592 0
M  V30 719 O 70.1015 -3.37725 -1.13226 0
M  V30 720 O 68.9605 -5.09619 -1.9736 0
M  V30 721 H 66.0545 -0.757638 -0.331533 0
M  V30 722 H 68.6005 -1.69554 0.070433 0
M  V30 723 H 67.3725 -3.9093 -0.170098 0
M  V30 724 H 66.9955 -3.52396 -1.84126 0
M  V30 725 N 67.9926 0.231505 -1.5589 0
M  V30 726 C 69.2416 0.955346 -1.7764 0
M  V30 727 C 69.5546 1.85893 -0.608546 0
M  V30 728 O 70.7606 2.62067 -0.70943 0
M  V30 729 C 69.2166 1.74886 -3.14552 0
M  V30 730 C 68.8246 0.891915 -4.39032 0
M  V30 731 C 70.5686 2.46452 -3.45633 0
M  V30 732 C 68.4756 1.68221 -5.66971 0
M  V30 733 H 67.4056 0.360446 -0.662265 0
M  V30 734 H 70.0566 0.209516 -1.823 0
M  V30 735 H 68.4386 2.53723 -3.04041 0
M  V30 736 H 69.6126 0.144793 -4.60572 0
M  V30 737 H 67.9276 0.288863 -4.15397 0
M  V30 738 H 70.5246 3.06061 -4.38441 0
M  V30 739 H 70.8676 3.18841 -2.67668 0
M  V30 740 H 71.4006 1.74613 -3.57428 0
M  V30 741 H 68.1396 1.00178 -6.478 0
M  V30 742 H 67.6596 2.4042 -5.49507 0
M  V30 743 H 69.3386 2.24544 -6.06786 0
M  V30 744 N 69.4707 1.49531 0.497807 0
M  V30 745 C 70.8867 1.36365 0.829266 0
M  V30 746 C 71.0867 0.399184 1.97506 0
M  V30 747 O 70.1427 -0.167977 2.51941 0
M  V30 748 C 71.4557 2.77153 1.16647 0
M  V30 749 C 73.0037 2.85877 1.27449 0
M  V30 750 C 73.4787 4.2744 1.64497 0
M  V30 751 N 74.9697 4.30265 1.7154 0
M  V30 752 C 75.7047 5.3677 2.01656 0
M  V30 753 N 75.2007 6.53516 2.29976 0
M  V30 754 N 76.9937 5.24189 2.02934 0
M  V30 755 H 69.1447 2.10831 -0.257703 0
M  V30 756 H 71.4077 0.946534 -0.0527091 0
M  V30 757 H 71.1137 3.49442 0.397872 0
M  V30 758 H 70.9877 3.12722 2.10915 0
M  V30 759 H 73.3747 2.13824 2.0338 0
M  V30 760 H 73.4557 2.53887 0.312244 0
M  V30 761 H 73.0997 5.00021 0.891151 0
M  V30 762 H 73.0297 4.56896 2.61827 0
M  V30 763 H 75.5207 3.4607 1.51802 0
M  V30 764 H 75.8337 7.30506 2.52153 0
M  V30 765 H 74.1787 6.56737 2.27425 0
M  V30 766 H 77.3697 4.31988 1.80289 0
M  V30 767 H 77.5427 6.07286 2.26071 0
M  V30 768 N 70.9488 -0.749086 1.3866 0
M  V30 769 C 71.8988 -1.85368 1.32751 0
M  V30 770 C 72.8828 -1.59511 0.210945 0
M  V30 771 O 74.0748 -1.71255 0.447299 0
M  V30 772 C 71.2038 -3.23131 1.15935 0
M  V30 773 C 70.2898 -3.54864 2.32233 0
M  V30 774 N 70.6808 -3.57625 3.57684 0
M  V30 775 C 68.9788 -3.85154 2.24883 0
M  V30 776 C 69.6798 -3.86753 4.34508 0
M  V30 777 N 68.6558 -4.03812 3.63918 0
M  V30 778 H 72.4578 -1.85787 2.27729 0
M  V30 779 H 69.9718 -0.946658 1.31955 0
M  V30 780 H 71.9688 -4.02185 1.09786 0
M  V30 781 H 70.6288 -3.23961 0.218947 0
M  V30 782 H 71.6398 -3.39276 3.91295 0
M  V30 783 H 68.3168 -3.93672 1.39027 0
M  V30 784 H 69.7068 -3.95474 5.43185 0
M  V30 785 N 72.4269 -1.23603 -0.977757 0
M  V30 786 C 73.3369 -1.03632 -2.1047 0
M  V30 787 C 74.3529 0.0199435 -1.73989 0
M  V30 788 O 75.5289 -0.176076 -2.00629 0
M  V30 789 C 72.5939 -0.63276 -3.40877 0
M  V30 790 C 71.6549 -1.76437 -3.91367 0
M  V30 791 C 70.8879 -1.37997 -5.15551 0
M  V30 792 O 71.1109 -0.265357 -5.69782 0
M  V30 793 O 70.0449 -2.20201 -5.60174 0
M  V30 794 H 73.8709 -1.98086 -2.30208 0
M  V30 795 H 71.4559 -1.02332 -1.08851 0
M  V30 796 H 73.3379 -0.418761 -4.19314 0
M  V30 797 H 72.0129 0.282754 -3.22463 0
M  V30 798 H 70.9199 -2.03304 -3.14036 0
M  V30 799 H 72.2529 -2.6583 -4.14241 0
M  V30 800 N 73.905 1.17692 -1.04816 0
M  V30 801 C 75.151 1.88137 -0.75711 0
M  V30 802 C 75.484 1.80604 0.713841 0
M  V30 803 O 74.759 1.21146 1.52164 0
M  V30 804 C 75.042 3.38318 -1.2334 0
M  V30 805 C 74.895 3.54622 -2.76701 0
M  V30 806 C 76.214 4.32214 -0.829415 0
M  V30 807 H 73.333 0.683163 -0.27651 0
M  V30 808 H 75.975 1.38424 -1.30149 0
M  V30 809 H 74.125 3.80787 -0.770286 0
M  V30 810 H 75.797 3.21194 -3.31107 0
M  V30 811 H 74.04 2.97026 -3.16161 0
M  V30 812 H 74.711 4.60028 -3.05088 0
M  V30 813 H 77.187 3.97565 -1.22805 0
M  V30 814 H 76.063 5.35838 -1.19033 0
M  V30 815 H 76.324 4.41294 0.266891 0
M  V30 816 N 75.3831 0.828654 1.34056 0
M  V30 817 C 76.6291 0.42008 1.98402 0
M  V30 818 C 76.9621 -1.01564 1.65525 0
M  V30 819 O 76.2371 -1.70834 0.929831 0
M  V30 820 C 76.5201 0.62927 3.54559 0
M  V30 821 C 76.3731 2.11152 3.97159 0
M  V30 822 C 77.6921 0.0688756 4.40046 0
M  V30 823 H 74.8111 0.154104 0.720709 0
M  V30 824 H 77.4531 1.04228 1.5886 0
M  V30 825 H 75.6031 0.0996418 3.88372 0
M  V30 826 H 77.2751 2.70522 3.73651 0
M  V30 827 H 75.5181 2.59985 3.47261 0
M  V30 828 H 76.1891 2.20868 5.05887 0
M  V30 829 H 78.6651 0.521458 4.1282 0
M  V30 830 H 77.5411 0.245006 5.48353 0
M  V30 831 H 77.8021 -1.0266 4.30015 0
M  V30 832 N 76.8612 -1.46375 0.584142 0
M  V30 833 C 77.8092 -2.32042 -0.161047 0
M  V30 834 C 78.8032 -1.44569 -0.882966 0
M  V30 835 O 80.0092 -1.61186 -0.801191 0
M  V30 836 H 76.3842 -0.748659 -0.0708033 0
M  V30 837 H 78.3552 -2.92704 0.580269 0
M  V30 838 C 77.1042 -3.27762 -1.1605 0
M  V30 839 H 76.4272 -3.95051 -0.614419 0
M  V30 840 H 77.8672 -3.90481 -1.65228 0
M  V30 841 C 76.3262 -2.53218 -2.22221 0
M  V30 842 O 76.8562 -2.29628 -3.29597 0
M  V30 843 N 75.0622 -2.13756 -1.96868 0
M  V30 844 H 74.6092 -2.33142 -1.09557 0
M  V30 845 H 74.5672 -1.642 -2.68115 0
M  V30 846 N 78.3393 -0.321999 -1.54275 0
M  V30 847 C 79.5883 0.281931 -1.9972 0
M  V30 848 C 79.9013 1.53369 -1.21397 0
M  V30 849 O 81.1073 2.21352 -1.57211 0
M  V30 850 C 79.5633 0.5529 -3.55628 0
M  V30 851 C 79.1713 -0.681721 -4.42783 0
M  V30 852 C 80.9153 1.11687 -4.09544 0
M  V30 853 C 78.8223 -0.382742 -5.9016 0
M  V30 854 H 77.7523 0.109124 -0.746062 0
M  V30 855 H 80.4033 -0.43398 -1.78294 0
M  V30 856 H 78.7853 1.32896 -3.73035 0
M  V30 857 H 79.9593 -1.45723 -4.37151 0
M  V30 858 H 78.2743 -1.1658 -3.99748 0
M  V30 859 H 80.8713 1.35515 -5.17242 0
M  V30 860 H 81.2143 2.06575 -3.61431 0
M  V30 861 H 81.7473 0.402032 -3.95763 0
M  V30 862 H 78.4863 -1.30076 -6.42464 0
M  V30 863 H 78.0063 0.355094 -5.98748 0
M  V30 864 H 79.6853 0.00800157 -6.47 0
M  V30 865 N 79.8174 1.5752 -0.0501392 0
M  V30 866 C 80.7654 2.12651 0.942459 0
M  V30 867 C 81.7594 1.05807 1.32292 0
M  V30 868 O 82.9654 1.24217 1.3027 0
M  V30 869 H 79.3404 0.679673 0.321789 0
M  V30 870 H 81.3114 2.94951 0.452356 0
M  V30 871 C 80.0604 2.68565 2.20836 0
M  V30 872 H 79.3834 3.50439 1.92439 0
M  V30 873 H 80.8234 3.10761 2.8845 0
M  V30 874 C 79.2824 1.62291 2.95234 0
M  V30 875 O 79.8124 1.03508 3.88135 0
M  V30 876 N 78.0184 1.33836 2.57946 0
M  V30 877 H 77.5654 1.81826 1.82475 0
M  V30 878 H 77.5234 0.629595 3.08032 0
M  V30 879 N 81.2955 -0.223234 1.56011 0
M  V30 880 C 82.2255 -1.27988 1.95298 0
M  V30 881 C 83.2065 -1.48976 0.820979 0
M  V30 882 O 84.3915 -1.61188 1.08315 0
M  V30 883 C 81.5215 -2.63 2.26822 0
M  V30 884 C 80.4755 -2.56671 3.42497 0
M  V30 885 C 79.8015 -3.95697 3.59622 0
M  V30 886 C 81.1015 -2.11601 4.77517 0
M  V30 887 H 82.7955 -0.953525 2.8381 0
M  V30 888 H 80.3415 -0.457244 1.36548 0
M  V30 889 H 82.2945 -3.37077 2.52898 0
M  V30 890 H 81.0185 -2.9732 1.35161 0
M  V30 891 H 79.6775 -1.85051 3.16467 0
M  V30 892 H 79.3255 -4.27322 2.6534 0
M  V30 893 H 79.0255 -3.92345 4.37424 0
M  V30 894 H 80.5495 -4.71438 3.88044 0
M  V30 895 H 81.9635 -2.7542 5.02809 0
M  V30 896 H 80.3605 -2.19311 5.5859 0
M  V30 897 H 81.4305 -1.06824 4.72987 0
M  V30 898 N 82.7736 -1.49793 -0.48987 0
M  V30 899 C 84.1896 -1.36803 -0.822022 0
M  V30 900 C 84.3896 -0.409652 -1.97292 0
M  V30 901 O 83.4456 0.154614 -2.52026 0
M  V30 902 C 84.7586 -2.77768 -1.15175 0
M  V30 903 C 86.3066 -2.86549 -1.25931 0
M  V30 904 C 86.7816 -4.28306 -1.62228 0
M  V30 905 N 88.2726 -4.31169 -1.69256 0
M  V30 906 C 89.0076 -5.37832 -1.98807 0
M  V30 907 N 88.5036 -6.54726 -2.26507 0
M  V30 908 N 90.2966 -5.25258 -2.00152 0
M  V30 909 H 82.4476 -2.10691 0.268881 0
M  V30 910 H 84.7106 -0.946241 0.057728 0
M  V30 911 H 84.4166 -3.49648 -0.379335 0
M  V30 912 H 84.2906 -3.13836 -2.09253 0
M  V30 913 H 86.6776 -2.14899 -2.02243 0
M  V30 914 H 86.7586 -2.54049 -0.298776 0
M  V30 915 H 86.4026 -5.00486 -0.864622 0
M  V30 916 H 86.3326 -4.58279 -2.594 0
M  V30 917 H 88.8236 -3.4687 -1.49965 0
M  V30 918 H 89.1366 -7.31833 -2.48276 0
M  V30 919 H 87.4816 -6.57933 -2.23939 0
M  V30 920 H 90.6726 -4.32938 -1.77996 0
M  V30 921 H 90.8456 -6.08476 -2.22848 0
M  V30 922 N 84.2517 0.741722 -1.39055 0
M  V30 923 C 85.1997 1.87702 -1.3737 0
M  V30 924 C 86.1937 1.67427 -0.257812 0
M  V30 925 O 87.3997 1.7485 -0.427489 0
M  V30 926 H 83.7747 0.617757 -0.428812 0
M  V30 927 H 85.7457 1.86239 -2.33147 0
M  V30 928 C 84.4947 3.25315 -1.22741 0
M  V30 929 H 83.8177 3.41509 -2.07873 0
M  V30 930 H 85.2577 4.04964 -1.25618 0
M  V30 931 C 83.7167 3.36838 0.0647316 0
M  V30 932 O 84.2467 3.88073 1.03741 0
M  V30 933 N 82.4527 2.90329 0.125544 0
M  V30 934 H 81.9997 2.48823 -0.666682 0
M  V30 935 H 81.9577 2.98418 0.989639 0
M  V30 936 N 85.7298 1.2412 0.971189 0
M  V30 937 C 86.6768 1.0305 2.06517 0
M  V30 938 C 87.6468 -0.0550666 1.66009 0
M  V30 939 O 88.8318 0.0988688 1.90544 0
M  V30 940 C 85.9718 0.637653 3.39158 0
M  V30 941 C 85.0848 1.79633 3.92882 0
M  V30 942 C 84.2198 1.34939 5.13775 0
M  V30 943 C 83.2588 2.47823 5.59687 0
M  V30 944 N 82.3958 2.04022 6.71803 0
M  V30 945 H 87.2358 1.96685 2.23873 0
M  V30 946 H 84.7728 0.979694 1.09729 0
M  V30 947 H 86.7308 0.390931 4.15364 0
M  V30 948 H 85.3608 -0.261693 3.21737 0
M  V30 949 H 84.4128 2.15681 3.13346 0
M  V30 950 H 85.7248 2.64466 4.22918 0
M  V30 951 H 84.8788 1.06134 5.97345 0
M  V30 952 H 83.6178 0.471557 4.85415 0
M  V30 953 H 82.6228 2.77392 4.74693 0
M  V30 954 H 83.8478 3.36158 5.90063 0
M  V30 955 H 81.7938 1.18632 6.45184 0
M  V30 956 H 81.7108 2.82409 7.01271 0
M  V30 957 H 82.9788 1.78347 7.58823 0
M  V30 958 N 87.2079 -1.17134 1.05439 0
M  V30 959 C 88.6189 -1.69084 0.791676 0
M  V30 960 C 88.9699 -1.83822 -0.685839 0
M  V30 961 O 88.0949 -1.52757 -1.53278 0
M  V30 962 C 88.6899 -3.07119 1.4305 0
M  V30 963 C 87.2489 -3.56225 1.21577 0
M  V30 964 C 86.3959 -2.32421 1.51247 0
M  V30 965 H 89.3469 -1.01617 1.219 0
M  V30 966 H 89.3679 -3.71087 0.84112 0
M  V30 967 H 88.8799 -2.9636 2.50584 0
M  V30 968 H 86.9809 -3.72257 0.159787 0
M  V30 969 H 87.0939 -4.38837 1.92246 0
M  V30 970 H 85.4579 -2.3701 0.932653 0
M  V30 971 H 86.2409 -2.24268 2.5992 0
M  V30 972 N 88.686 -0.835752 -1.33615 0
M  V30 973 C 89.596 -0.269088 -2.33052 0
M  V30 974 C 90.612 0.603251 -1.63208 0
M  V30 975 O 91.788 0.508112 -1.94885 0
M  V30 976 C 88.853 0.549091 -3.42324 0
M  V30 977 C 87.914 -0.347156 -4.27894 0
M  V30 978 C 87.147 0.43207 -5.31948 0
M  V30 979 O 87.37 1.66409 -5.45586 0
M  V30 980 O 86.304 -0.192298 -6.01593 0
M  V30 981 H 90.13 -1.09243 -2.83372 0
M  V30 982 H 87.715 -0.598198 -1.36901 0
M  V30 983 H 89.597 1.01414 -4.09015 0
M  V30 984 H 88.272 1.34955 -2.94226 0
M  V30 985 H 87.179 -0.859979 -3.64081 0
M  V30 986 H 88.512 -1.1123 -4.79467 0
M  V30 987 N 90.1641 1.46063 -0.591896 0
M  V30 988 C 91.4101 2.03203 -0.0894879 0
M  V30 989 C 91.7651 1.45407 1.25994 0
M  V30 990 O 91.0581 0.61326 1.8152 0
M  V30 991 C 91.2521 3.57391 0.0249813 0
M  V30 992 C 91.0811 4.30142 -1.3118 0
M  V30 993 C 89.8511 4.68688 -1.88838 0
M  V30 994 C 92.0491 4.63098 -2.23708 0
M  V30 995 N 90.0311 5.26228 -3.1616 0
M  V30 996 C 91.4021 5.21305 -3.3562 0
M  V30 997 C 93.4571 4.45031 -2.23274 0
M  V30 998 C 92.1601 5.63351 -4.47245 0
M  V30 999 C 94.1861 4.881 -3.33935 0
M  V30 1000 C 93.5481 5.46386 -4.44569 0
M  V30 1001 H 89.6471 0.778323 -0.0757431 0
M  V30 1002 H 92.2311 1.78094 -0.78681 0
M  V30 1003 H 90.4021 3.82195 0.69149 0
M  V30 1004 H 92.1341 4.0118 0.532613 0
M  V30 1005 H 88.8891 4.5174 -1.42223 0
M  V30 1006 H 89.3131 5.59512 -3.8115 0
M  V30 1007 H 93.9551 3.99295 -1.39008 0
M  V30 1008 H 91.6731 6.08061 -5.32247 0
M  V30 1009 H 95.2591 4.75866 -3.34728 0
M  V30 1010 H 94.1391 5.79102 -5.28782 0
M  V30 1011 N 91.6422 0.330177 1.54103 0
M  V30 1012 C 92.8722 -0.271784 2.04805 0
M  V30 1013 C 93.2802 -1.45816 1.20559 0
M  V30 1014 O 92.6232 -1.82247 0.2306 0
M  V30 1015 C 92.6852 -0.763238 3.51305 0
M  V30 1016 C 92.3492 0.301705 4.56003 0
M  V30 1017 C 93.3462 1.13999 5.07248 0
M  V30 1018 C 91.0312 0.451793 5.00264 0
M  V30 1019 C 93.0252 2.11402 6.01322 0
M  V30 1020 C 90.7122 1.42924 5.94151 0
M  V30 1021 C 91.7102 2.25882 6.44567 0
M  V30 1022 O 91.3982 3.21965 7.3661 0
M  V30 1023 H 91.1302 -0.058693 0.673447 0
M  V30 1024 H 93.6842 0.476395 1.99799 0
M  V30 1025 H 91.9142 -1.56244 3.5373 0
M  V30 1026 H 93.6032 -1.28427 3.85047 0
M  V30 1027 H 94.3692 1.03505 4.73827 0
M  V30 1028 H 90.2482 -0.184044 4.60632 0
M  V30 1029 H 93.7922 2.76192 6.40596 0
M  V30 1030 H 89.6892 1.53479 6.26988 0
M  V30 1031 H 90.4572 3.17281 7.54503 0
M  V30 1032 N 93.1203 -1.57491 0.0584922 0
M  V30 1033 C 94.3503 -1.9701 -0.622134 0
M  V30 1034 C 94.7583 -0.935034 -1.6448 0
M  V30 1035 O 94.1013 0.0882904 -1.83488 0
M  V30 1036 C 94.1633 -3.32794 -1.35972 0
M  V30 1037 C 93.8273 -4.54343 -0.492043 0
M  V30 1038 C 94.8243 -5.19323 0.244901 0
M  V30 1039 C 92.5093 -5.00534 -0.420821 0
M  V30 1040 C 94.5033 -6.28835 1.04143 0
M  V30 1041 C 92.1903 -6.09921 0.379389 0
M  V30 1042 C 93.1883 -6.73933 1.10919 0
M  V30 1043 O 92.8763 -7.81216 1.89623 0
M  V30 1044 H 92.6083 -0.653127 -0.174359 0
M  V30 1045 H 95.1623 -2.05029 0.123418 0
M  V30 1046 H 93.3923 -3.21351 -2.15105 0
M  V30 1047 H 95.0813 -3.5701 -1.93129 0
M  V30 1048 H 95.8473 -4.8459 0.19939 0
M  V30 1049 H 91.7263 -4.50496 -0.978474 0
M  V30 1050 H 95.2703 -6.7873 1.61157 0
M  V30 1051 H 91.1673 -6.44089 0.426512 0
M  V30 1052 H 91.9353 -7.98029 1.81913 0
M  V30 1053 N 94.5984 0.214957 -1.56127 0
M  V30 1054 C 95.8264 0.955092 -1.83536 0
M  V30 1055 C 96.2414 1.77677 -0.638472 0
M  V30 1056 O 95.5984 1.78219 0.392968 0
M  V30 1057 C 95.6494 1.86734 -3.09536 0
M  V30 1058 O 95.3704 1.07887 -4.24608 0
M  V30 1059 C 96.8714 2.72082 -3.4998 0
M  V30 1060 H 94.0914 0.279611 -0.609966 0
M  V30 1061 H 96.6354 0.228197 -2.03223 0
M  V30 1062 H 94.7904 2.5481 -2.91806 0
M  V30 1063 H 95.2044 1.69872 -4.9623 0
M  V30 1064 H 96.6784 3.31782 -4.41163 0
M  V30 1065 H 97.1554 3.44806 -2.7204 0
M  V30 1066 H 97.7614 2.09409 -3.70173 0
M  V30 1067 N 96.0765 1.50051 0.48192 0
M  V30 1068 C 97.0235 1.68122 1.58125 0
M  V30 1069 C 97.9935 0.522545 1.57666 0
M  V30 1070 O 99.1785 0.751844 1.75362 0
M  V30 1071 C 96.3185 1.77142 2.96167 0
M  V30 1072 C 95.4315 3.0444 3.06497 0
M  V30 1073 C 94.5665 3.04321 4.35387 0
M  V30 1074 C 93.6055 4.26118 4.3942 0
M  V30 1075 N 92.7425 4.238 5.59766 0
M  V30 1076 H 97.5825 2.6198 1.42022 0
M  V30 1077 H 95.1195 1.29877 0.690687 0
M  V30 1078 H 97.0775 1.80352 3.76203 0
M  V30 1079 H 95.7075 0.867329 3.1093 0
M  V30 1080 H 94.7595 3.10752 2.19402 0
M  V30 1081 H 96.0715 3.94426 3.05336 0
M  V30 1082 H 95.2255 3.062 5.23762 0
M  V30 1083 H 93.9645 2.12147 4.39141 0
M  V30 1084 H 92.9695 4.24463 3.49444 0
M  V30 1085 H 94.1945 5.19507 4.37366 0
M  V30 1086 H 92.1405 3.34474 5.64326 0
M  V30 1087 H 92.0575 5.07542 5.60301 0
M  V30 1088 H 93.3255 4.2981 6.50295 0
M  V30 1089 N 97.5546 -0.734337 1.39446 0
M  V30 1090 C 98.5046 -1.83949 1.34709 0
M  V30 1091 C 99.4886 -1.59279 0.227851 0
M  V30 1092 O 100.681 -1.70771 0.465438 0
M  V30 1093 C 97.8096 -3.21884 1.19356 0
M  V30 1094 C 96.8956 -3.52381 2.35984 0
M  V30 1095 N 97.2866 -3.53811 3.61457 0
M  V30 1096 C 95.5846 -3.82747 2.28956 0
M  V30 1097 C 96.2856 -3.82122 4.38586 0
M  V30 1098 N 95.2616 -3.9993 3.68181 0
M  V30 1099 H 99.0636 -1.83361 2.29687 0
M  V30 1100 H 96.5776 -0.932609 1.32952 0
M  V30 1101 H 98.5746 -4.00998 1.14046 0
M  V30 1102 H 97.2346 -3.23711 0.253295 0
M  V30 1103 H 98.2456 -3.35107 3.94872 0
M  V30 1104 H 94.9226 -3.92175 1.43194 0
M  V30 1105 H 96.3126 -3.89691 5.47349 0
M  V30 1106 N 99.0327 -1.24633 -0.964593 0
M  V30 1107 C 100.444 -1.08045 -1.5226 0
M  V30 1108 C 100.795 0.347116 -1.93105 0
M  V30 1109 O 99.9197 1.23588 -1.77637 0
M  V30 1110 C 100.515 -1.95514 -2.76695 0
M  V30 1111 C 99.0737 -1.8314 -3.28841 0
M  V30 1112 C 98.2207 -1.90262 -2.01732 0
M  V30 1113 H 101.172 -1.38064 -0.782553 0
M  V30 1114 H 101.193 -1.48925 -3.50145 0
M  V30 1115 H 100.705 -2.99407 -2.46936 0
M  V30 1116 H 98.8057 -0.82092 -3.63444 0
M  V30 1117 H 98.9187 -2.67406 -3.97531 0
M  V30 1118 H 97.2827 -1.34027 -2.16584 0
M  V30 1119 H 98.0657 -2.9574 -1.74334 0
M  V30 1120 N 100.511 1.16574 -1.06058 0
M  V30 1121 C 101.758 1.87047 -0.775873 0
M  V30 1122 C 102.086 1.81562 0.697534 0
M  V30 1123 O 101.341 1.22445 1.52662 0
M  V30 1124 C 101.64 3.36195 -1.21275 0
M  V30 1125 C 101.306 3.6188 -2.68986 0
M  V30 1126 C 99.9678 3.68599 -3.09335 0
M  V30 1127 C 102.32 3.72648 -3.64394 0
M  V30 1128 C 99.6478 3.83584 -4.43937 0
M  V30 1129 C 102 3.89154 -4.98741 0
M  V30 1130 C 100.664 3.94114 -5.3873 0
M  V30 1131 H 99.9338 0.684452 -0.283912 0
M  V30 1132 H 102.581 1.37853 -1.32925 0
M  V30 1133 H 100.886 3.87505 -0.578528 0
M  V30 1134 H 102.583 3.89103 -0.969542 0
M  V30 1135 H 99.1728 3.57281 -2.36744 0
M  V30 1136 H 103.357 3.66769 -3.34356 0
M  V30 1137 H 98.6128 3.85677 -4.74409 0
M  V30 1138 H 102.787 3.96427 -5.72554 0
M  V30 1139 H 100.414 4.05478 -6.43033 0
M  V30 1140 N 101.989 0.842826 1.3317 0
M  V30 1141 C 103.237 0.439577 1.97262 0
M  V30 1142 C 103.558 -1.00548 1.67078 0
M  V30 1143 O 102.828 -1.70098 0.971779 0
M  V30 1144 H 101.408 0.159558 0.72976 0
M  V30 1145 H 104.07 1.07665 1.62463 0
M  V30 1146 H 103.166 0.574886 3.0676 0
M  V30 1147 N 103.467 -1.45747 0.599634 0
M  V30 1148 C 104.417 -2.27538 -0.145107 0
M  V30 1149 C 105.401 -1.3686 -0.846055 0
M  V30 1150 O 106.593 -1.6091 -0.737357 0
M  V30 1151 C 103.722 -3.23569 -1.14708 0
M  V30 1152 C 102.808 -4.21734 -0.447383 0
M  V30 1153 N 103.199 -5.03257 0.506535 0
M  V30 1154 C 101.497 -4.40536 -0.695966 0
M  V30 1155 C 102.198 -5.74426 0.917068 0
M  V30 1156 N 101.174 -5.42966 0.26253 0
M  V30 1157 H 104.976 -2.87965 0.587672 0
M  V30 1158 H 102.49 -1.56803 0.422697 0
M  V30 1159 H 104.487 -3.8089 -1.69495 0
M  V30 1160 H 103.147 -2.64702 -1.8805 0
M  V30 1161 H 104.158 -5.10319 0.882899 0
M  V30 1162 H 100.835 -3.92802 -1.41467 0
M  V30 1163 H 102.225 -6.4995 1.70338 0
M  V30 1164 N 104.945 -0.338344 -1.53925 0
M  V30 1165 C 106.194 0.260732 -2.00008 0
M  V30 1166 C 106.507 1.52073 -1.23017 0
M  V30 1167 O 107.713 2.19672 -1.5955 0
M  V30 1168 C 106.169 0.51515 -3.56194 0
M  V30 1169 C 105.777 -0.728645 -4.42035 0
M  V30 1170 C 107.521 1.07337 -4.10706 0
M  V30 1171 C 105.428 -0.445315 -5.89721 0
M  V30 1172 H 104.358 0.101205 -0.747177 0
M  V30 1173 H 107.009 -0.452866 -1.77824 0
M  V30 1174 H 105.391 1.28932 -3.74423 0
M  V30 1175 H 106.565 -1.50352 -4.35581 0
M  V30 1176 H 104.88 -1.20813 -3.98489 0
M  V30 1177 H 107.477 1.30022 -5.18651 0
M  V30 1178 H 107.82 2.0273 -3.63602 0
M  V30 1179 H 108.353 0.360034 -3.96167 0
M  V30 1180 H 105.092 -1.36883 -6.41049 0
M  V30 1181 H 104.612 0.291569 -5.99091 0
M  V30 1182 H 106.291 -0.0606218 -6.46972 0
M  V30 1183 N 106.423 1.57458 -0.0668435 0
M  V30 1184 C 107.834 1.80776 0.466558 0
M  V30 1185 C 108.185 0.980361 1.69951 0
M  V30 1186 O 107.31 0.201441 2.1546 0
M  V30 1187 C 107.905 3.27881 0.85321 0
M  V30 1188 C 106.464 3.52062 1.3315 0
M  V30 1189 C 105.611 2.75513 0.314264 0
M  V30 1190 H 108.562 1.5598 -0.292588 0
M  V30 1191 H 108.583 3.39659 1.715 0
M  V30 1192 H 108.095 3.88075 -0.0443439 0
M  V30 1193 H 106.196 2.97167 2.24772 0
M  V30 1194 H 106.309 4.60762 1.31285 0
M  V30 1195 H 104.673 2.42123 0.790492 0
M  V30 1196 H 105.456 3.38442 -0.575477 0
M  V30 1197 N 107.901 -0.206675 1.56239 0
M  V30 1198 C 109.147 -0.930218 1.80208 0
M  V30 1199 C 109.48 -1.83387 0.638981 0
M  V30 1200 O 108.755 -1.91119 -0.361066 0
M  V30 1201 C 109.038 -1.75641 3.1436 0
M  V30 1202 C 108.891 -0.878257 4.41142 0
M  V30 1203 C 110.21 -2.73129 3.45092 0
M  V30 1204 H 107.329 -0.336742 0.655571 0
M  V30 1205 H 109.971 -0.198222 1.88963 0
M  V30 1206 H 108.121 -2.38048 3.07027 0
M  V30 1207 H 109.793 -0.269787 4.6051 0
M  V30 1208 H 108.036 -0.184385 4.33408 0
M  V30 1209 H 108.707 -1.49106 5.3148 0
M  V30 1210 H 111.183 -2.20856 3.52649 0
M  V30 1211 H 110.059 -3.28028 4.40101 0
M  V30 1212 H 110.32 -3.51606 2.68003 0
M  V30 1213 N 109.379 -1.50304 -0.473955 0
M  V30 1214 C 110.309 -1.71886 -1.58042 0
M  V30 1215 C 111.29 -0.567799 -1.60344 0
M  V30 1216 O 112.475 -0.806623 -1.76656 0
M  V30 1217 C 109.605 -1.81036 -2.96384 0
M  V30 1218 C 108.559 -2.962 -3.08949 0
M  V30 1219 C 107.885 -2.9049 -4.48909 0
M  V30 1220 C 109.185 -4.36752 -2.86434 0
M  V30 1221 H 110.879 -2.64527 -1.40234 0
M  V30 1222 H 108.425 -1.27295 -0.673201 0
M  V30 1223 H 110.378 -1.94719 -3.73714 0
M  V30 1224 H 109.102 -0.850147 -3.15341 0
M  V30 1225 H 107.761 -2.82164 -2.3405 0
M  V30 1226 H 107.409 -1.92321 -4.64781 0
M  V30 1227 H 107.109 -3.67802 -4.58253 0
M  V30 1228 H 108.633 -3.06218 -5.28264 0
M  V30 1229 H 110.047 -4.5133 -3.53517 0
M  V30 1230 H 108.444 -5.15493 -3.07225 0
M  V30 1231 H 109.514 -4.49321 -1.82316 0
M  V30 1232 N 110.857 0.726932 -1.39834 0
M  V30 1233 C 111.767 1.87131 -1.41489 0
M  V30 1234 C 112.783 1.71239 -0.308757 0
M  V30 1235 O 113.959 1.93701 -0.551529 0
M  V30 1236 C 111.024 3.22811 -1.26468 0
M  V30 1237 C 110.085 3.51039 -2.47124 0
M  V30 1238 C 109.318 4.80245 -2.3281 0
M  V30 1239 O 109.541 5.54537 -1.33585 0
M  V30 1240 O 108.475 5.08554 -3.21957 0
M  V30 1241 H 112.301 1.8869 -2.3797 0
M  V30 1242 H 109.886 0.875837 -1.21035 0
M  V30 1243 H 111.768 4.03877 -1.20255 0
M  V30 1244 H 110.443 3.22005 -0.330862 0
M  V30 1245 H 109.35 2.70027 -2.58914 0
M  V30 1246 H 110.683 3.56632 -3.39227 0
M  V30 1247 N 112.336 1.25143 0.95797 0
M  V30 1248 C 113.564 1.12424 1.73691 0
M  V30 1249 C 113.979 -0.322304 1.86029 0
M  V30 1250 O 113.336 -1.22186 1.35561 0
M  V30 1251 C 113.387 1.76933 3.15241 0
M  V30 1252 O 113.108 3.15932 3.03511 0
M  V30 1253 C 114.609 1.6995 4.09429 0
M  V30 1254 H 111.829 0.3923 0.544373 0
M  V30 1255 H 114.373 1.6544 1.20207 0
M  V30 1256 H 112.528 1.27895 3.6568 0
M  V30 1257 H 112.942 3.47598 3.9278 0
M  V30 1258 H 114.416 2.19753 5.06372 0
M  V30 1259 H 114.893 0.662619 4.34173 0
M  V30 1260 H 115.499 2.18461 3.64904 0
M  V30 1261 N 113.814 -1.1601 1.06675 0
M  V30 1262 C 115.039 -1.91068 0.806706 0
M  V30 1263 C 115.464 -1.77112 -0.633485 0
M  V30 1264 O 114.822 -1.09908 -1.44187 0
M  V30 1265 C 114.87 -3.39655 1.21106 0
M  V30 1266 O 113.974 -4.10893 0.352189 0
M  V30 1267 H 113.315 -0.595125 0.294486 0
M  V30 1268 H 115.845 -1.46955 1.42356 0
M  V30 1269 H 115.855 -3.90434 1.18428 0
M  V30 1270 H 114.53 -3.49132 2.26008 0
M  V30 1271 H 113.107 -3.70285 0.440868 0
M  V30 1272 N 115.292 -0.849877 -1.32721 0
M  V30 1273 C 116.224 -0.248332 -2.27851 0
M  V30 1274 C 117.237 0.577218 -1.52224 0
M  V30 1275 O 118.426 0.402489 -1.73903 0
M  V30 1276 C 115.526 0.668107 -3.32249 0
M  V30 1277 C 114.699 -0.120534 -4.37234 0
M  V30 1278 C 113.758 0.720932 -5.21238 0
M  V30 1279 O 112.784 0.156166 -5.68986 0
M  V30 1280 N 113.986 2.03647 -5.43607 0
M  V30 1281 H 116.751 -1.06575 -2.80111 0
M  V30 1282 H 114.312 -0.709395 -1.45531 0
M  V30 1283 H 116.304 1.23627 -3.85355 0
M  V30 1284 H 114.874 1.38621 -2.80184 0
M  V30 1285 H 114.094 -0.870108 -3.84477 0
M  V30 1286 H 115.382 -0.662406 -5.0447 0
M  V30 1287 H 114.78 2.51871 -5.06535 0
M  V30 1288 H 113.337 2.55287 -5.99727 0
M  V30 1289 N 116.77 1.45427 -0.607355 0
M  V30 1290 C 118.01 2.04128 -0.105458 0
M  V30 1291 C 118.374 1.46555 1.24039 0
M  V30 1292 O 119.575 1.96608 1.833 0
M  V30 1293 C 117.846 3.57338 -0.0665324 0
M  V30 1294 S 119.405 4.37201 0.374207 0
M  V30 1295 H 116.223 0.709278 -0.0494575 0
M  V30 1296 H 118.825 1.78139 -0.805404 0
M  V30 1297 H 117.529 3.96752 -1.04957 0
M  V30 1298 H 117.06 3.87902 0.655415 0
M  V30 1299 H 119.075 4.6888 1.62377 0
M  V30 1300 N 118.248 0.346503 1.53744 0
M  V30 1301 C 119.18 -0.543316 2.22667 0
M  V30 1302 C 120.193 -1.06159 1.23427 0
M  V30 1303 O 121.382 -0.971235 1.49764 0
M  V30 1304 C 118.482 -1.76076 2.89569 0
M  V30 1305 C 117.655 -1.37727 4.15151 0
M  V30 1306 C 116.714 -2.45471 4.65436 0
M  V30 1307 O 115.74 -2.08655 5.29577 0
M  V30 1308 N 116.942 -3.7677 4.41616 0
M  V30 1309 H 119.707 0.0469703 2.99663 0
M  V30 1310 H 117.268 0.170766 1.60997 0
M  V30 1311 H 119.26 -2.47593 3.20125 0
M  V30 1312 H 117.83 -2.25835 2.16142 0
M  V30 1313 H 117.05 -0.492746 3.91108 0
M  V30 1314 H 118.338 -1.09708 4.96832 0
M  V30 1315 H 117.736 -4.09467 3.90325 0
M  V30 1316 H 116.293 -4.44448 4.7677 0
M  V30 1317 N 119.726 -1.57421 0.075193 0
M  V30 1318 C 120.656 -2.15942 -0.888324 0
M  V30 1319 C 121.637 -1.08737 -1.30806 0
M  V30 1320 O 122.822 -1.36787 -1.37851 0
M  V30 1321 C 119.952 -2.72379 -2.1547 0
M  V30 1322 C 118.906 -3.8478 -1.87425 0
M  V30 1323 C 118.232 -4.27834 -3.20721 0
M  V30 1324 C 119.532 -5.08869 -1.17684 0
M  V30 1325 H 121.226 -2.96705 -0.400799 0
M  V30 1326 H 118.772 -1.42723 -0.191342 0
M  V30 1327 H 120.725 -3.11965 -2.83295 0
M  V30 1328 H 119.449 -1.88841 -2.6647 0
M  V30 1329 H 118.108 -3.45703 -1.22004 0
M  V30 1330 H 117.756 -3.41214 -3.6957 0
M  V30 1331 H 117.456 -5.03605 -3.02746 0
M  V30 1332 H 118.98 -4.70039 -3.89738 0
M  V30 1333 H 120.394 -5.4575 -1.75584 0
M  V30 1334 H 118.791 -5.8994 -1.09956 0
M  V30 1335 H 119.861 -4.84648 -0.156453 0
M  V30 1336 N 121.204 0.198386 -1.56346 0
M  V30 1337 C 122.453 0.917451 -1.79627 0
M  V30 1338 C 122.766 1.8456 -0.64784 0
M  V30 1339 O 123.972 2.60504 -0.764859 0
M  V30 1340 C 122.428 1.68175 -3.18191 0
M  V30 1341 C 122.036 0.798589 -4.40825 0
M  V30 1342 C 123.78 2.39065 -3.50782 0
M  V30 1343 C 121.687 1.56157 -5.70411 0
M  V30 1344 H 120.617 0.346317 -0.669762 0
M  V30 1345 H 123.268 0.170801 -1.82703 0
M  V30 1346 H 121.65 2.47216 -3.09354 0
M  V30 1347 H 122.824 0.0470665 -4.60776 0
M  V30 1348 H 121.139 0.200686 -4.15916 0
M  V30 1349 H 123.736 2.96692 -4.44835 0
M  V30 1350 H 124.079 3.13091 -2.74371 0
M  V30 1351 H 124.612 1.66993 -3.61052 0
M  V30 1352 H 121.351 0.864142 -6.49779 0
M  V30 1353 H 120.871 2.2871 -5.54483 0
M  V30 1354 H 122.55 2.11622 -6.11412 0
M  V30 1355 N 122.682 1.50554 0.465978 0
M  V30 1356 C 123.912 1.65323 1.23903 0
M  V30 1357 C 124.32 0.338051 1.86155 0
M  V30 1358 O 123.663 -0.690518 1.70228 0
M  V30 1359 C 123.725 2.69048 2.3844 0
M  V30 1360 C 123.389 4.12462 1.96784 0
M  V30 1361 C 124.386 4.98168 1.48745 0
M  V30 1362 C 122.071 4.58407 2.05349 0
M  V30 1363 C 124.065 6.27868 1.0982 0
M  V30 1364 C 121.752 5.88112 1.66035 0
M  V30 1365 C 122.75 6.72668 1.18349 0
M  V30 1366 O 122.438 7.99951 0.795825 0
M  V30 1367 H 122.17 0.558629 0.38067 0
M  V30 1368 H 124.724 1.97561 0.562022 0
M  V30 1369 H 122.954 2.32062 3.09328 0
M  V30 1370 H 124.643 2.72985 3.0039 0
M  V30 1371 H 125.409 4.63885 1.41546 0
M  V30 1372 H 121.288 3.92735 2.41414 0
M  V30 1373 H 124.832 6.93819 0.725293 0
M  V30 1374 H 120.729 6.21914 1.72895 0
M  V30 1375 H 121.497 8.13265 0.924222 0
M  V30 1376 N 124.16 -0.719506 1.40217 0
M  V30 1377 C 125.07 -1.86378 1.42479 0
M  V30 1378 C 126.086 -1.71073 0.317834 0
M  V30 1379 O 127.262 -1.93406 0.561794 0
M  V30 1380 C 124.327 -3.22136 1.28178 0
M  V30 1381 C 123.388 -3.49723 2.48982 0
M  V30 1382 C 122.621 -4.79004 2.35353 0
M  V30 1383 O 122.844 -5.53821 1.36524 0
M  V30 1384 O 121.778 -5.06839 3.2465 0
M  V30 1385 H 125.604 -1.87425 2.38968 0
M  V30 1386 H 123.189 -0.869405 1.21498 0
M  V30 1387 H 125.071 -4.03234 1.22395 0
M  V30 1388 H 123.746 -3.21825 0.347934 0
M  V30 1389 H 122.653 -2.6865 2.60342 0
M  V30 1390 H 123.986 -3.54828 3.41113 0
M  V30 1391 N 125.638 -1.25649 -0.95132 0
M  V30 1392 C 126.863 -1.13443 -1.73624 0
M  V30 1393 C 127.288 0.307565 -1.85568 0
M  V30 1394 O 126.646 1.22282 -1.33854 0
M  V30 1395 C 126.694 -1.79723 -3.12621 0
M  V30 1396 O 125.798 -1.07912 -3.98031 0
M  V30 1397 H 125.139 -0.395872 -0.533086 0
M  V30 1398 H 127.669 -1.66276 -1.1922 0
M  V30 1399 H 127.679 -1.86141 -3.63064 0
M  V30 1400 H 126.354 -2.84633 -3.03244 0
M  V30 1401 H 124.931 -1.09398 -3.56492 0
M  V30 1402 N 127.117 1.15442 -1.07289 0
M  V30 1403 C 128.363 1.86489 -0.796846 0
M  V30 1404 C 128.696 1.82078 0.675371 0
M  V30 1405 O 127.971 1.24346 1.4956 0
M  V30 1406 C 128.254 3.35626 -1.30489 0
M  V30 1407 C 128.107 3.48673 -2.84161 0
M  V30 1408 C 129.426 4.30357 -0.920907 0
M  V30 1409 H 126.545 0.677144 -0.290939 0
M  V30 1410 H 129.187 1.35633 -1.33056 0
M  V30 1411 H 127.337 3.79068 -0.850883 0
M  V30 1412 H 129.009 3.14099 -3.37846 0
M  V30 1413 H 127.252 2.90253 -3.22391 0
M  V30 1414 H 127.923 4.53453 -3.14777 0
M  V30 1415 H 130.399 3.94871 -1.3121 0
M  V30 1416 H 129.275 5.33193 -1.30372 0
M  V30 1417 H 129.536 4.4176 0.173226 0
M  V30 1418 N 128.595 0.856903 1.32268 0
M  V30 1419 C 129.844 0.457599 1.96441 0
M  V30 1420 C 130.157 -0.992426 1.68553 0
M  V30 1421 O 131.363 -1.49727 2.26482 0
M  V30 1422 C 129.819 0.767358 3.51624 0
M  V30 1423 C 129.427 2.23326 3.88367 0
M  V30 1424 C 131.171 0.435887 4.22256 0
M  V30 1425 C 129.078 2.48613 5.36606 0
M  V30 1426 H 128.008 0.167387 0.735185 0
M  V30 1427 H 130.659 1.048 1.5063 0
M  V30 1428 H 129.041 0.106367 3.95857 0
M  V30 1429 H 130.215 2.93623 3.55137 0
M  V30 1430 H 128.53 2.52948 3.30766 0
M  V30 1431 H 131.127 0.602202 5.31298 0
M  V30 1432 H 131.47 -0.622672 4.11617 0
M  V30 1433 H 132.003 1.05286 3.83614 0
M  V30 1434 H 128.742 3.53101 5.52268 0
M  V30 1435 H 128.262 1.82896 5.71235 0
M  V30 1436 H 129.941 2.32676 6.03714 0
M  V30 1437 N 130.073 -1.45103 0.615059 0
M  V30 1438 C 131.036 -2.29025 -0.0895485 0
M  V30 1439 C 132.036 -1.40174 -0.787906 0
M  V30 1440 O 133.226 -1.62217 -0.634933 0
M  V30 1441 C 130.358 -3.21376 -1.13711 0
M  V30 1442 H 131.551 -2.92807 0.648382 0
M  V30 1443 H 129.104 -1.51749 0.374444 0
M  V30 1444 H 129.839 -2.6241 -1.90556 0
M  V30 1445 H 129.624 -3.86834 -0.640475 0
M  V30 1446 H 131.114 -3.84459 -1.63036 0
M  V30 1447 N 131.551 -0.354651 -1.53558 0
M  V30 1448 C 132.791 0.238651 -2.03002 0
M  V30 1449 C 133.155 1.46878 -1.23656 0
M  V30 1450 O 134.356 2.13699 -1.63053 0
M  V30 1451 C 132.627 0.534175 -3.53386 0
M  V30 1452 S 134.186 1.10271 -4.24719 0
M  V30 1453 H 131.004 0.0702908 -0.707517 0
M  V30 1454 H 133.606 -0.494987 -1.8913 0
M  V30 1455 H 132.31 -0.368765 -4.0874 0
M  V30 1456 H 131.841 1.29718 -3.71398 0
M  V30 1457 H 133.856 2.38772 -4.34974 0
M  V30 1458 N 133.029 1.57378 -0.0835403 0
M  V30 1459 C 133.939 2.16897 0.894021 0
M  V30 1460 C 134.955 1.13528 1.31861 0
M  V30 1461 O 136.131 1.45848 1.3889 0
M  V30 1462 C 133.196 2.72831 2.13925 0
M  V30 1463 C 132.257 3.91115 1.76997 0
M  V30 1464 C 131.49 4.44371 2.95584 0
M  V30 1465 O 131.713 3.96596 4.09961 0
M  V30 1466 O 130.647 5.35549 2.74719 0
M  V30 1467 H 134.473 3.00814 0.417679 0
M  V30 1468 H 132.058 1.48741 0.140181 0
M  V30 1469 H 133.94 3.0863 2.86924 0
M  V30 1470 H 132.615 1.91967 2.60635 0
M  V30 1471 H 131.522 3.60148 1.01214 0
M  V30 1472 H 132.855 4.73307 1.3506 0
M  V30 1473 N 134.507 -0.190092 1.56449 0
M  V30 1474 C 135.737 -0.92443 1.84764 0
M  V30 1475 C 136.145 -1.77146 0.664529 0
M  V30 1476 O 135.488 -1.79812 -0.375957 0
M  V30 1477 C 135.55 -1.86651 3.07248 0
M  V30 1478 C 135.214 -1.20094 4.40938 0
M  V30 1479 C 136.211 -0.575445 5.16706 0
M  V30 1480 C 133.896 -1.2033 4.87674 0
M  V30 1481 C 135.89 0.0388111 6.37388 0
M  V30 1482 C 133.577 -0.585214 6.08291 0
M  V30 1483 C 134.575 0.0347578 6.82991 0
M  V30 1484 O 134.263 0.643147 8.01323 0
M  V30 1485 H 133.995 -0.274974 0.617548 0
M  V30 1486 H 136.549 -0.200788 2.04416 0
M  V30 1487 H 134.779 -2.62998 2.83494 0
M  V30 1488 H 136.468 -2.46907 3.22167 0
M  V30 1489 H 137.234 -0.565728 4.81689 0
M  V30 1490 H 133.113 -1.67526 4.29484 0
M  V30 1491 H 136.657 0.523329 6.95634 0
M  V30 1492 H 132.554 -0.592451 6.42775 0
M  V30 1493 H 133.322 0.540545 8.16713 0
M  V30 1494 N 135.985 -1.50799 -0.457987 0
M  V30 1495 C 136.915 -1.73553 -1.5621 0
M  V30 1496 C 137.896 -0.584774 -1.59732 0
M  V30 1497 O 139.081 -0.825314 -1.7579 0
M  V30 1498 C 136.211 -1.84169 -2.94447 0
M  V30 1499 C 135.165 -2.99461 -3.0579 0
M  V30 1500 C 134.491 -2.95235 -4.45803 0
M  V30 1501 C 135.791 -4.39766 -2.81786 0
M  V30 1502 H 137.485 -2.66 -1.37421 0
M  V30 1503 H 135.031 -1.28002 -0.659662 0
M  V30 1504 H 136.984 -1.98672 -3.71628 0
M  V30 1505 H 135.708 -0.883545 -3.14422 0
M  V30 1506 H 134.367 -2.8463 -2.31044 0
M  V30 1507 H 134.015 -1.97239 -4.62715 0
M  V30 1508 H 133.715 -3.72642 -4.54326 0
M  V30 1509 H 135.239 -3.11803 -5.24987 0
M  V30 1510 H 136.653 -4.55054 -3.4871 0
M  V30 1511 H 135.05 -5.18722 -3.0174 0
M  V30 1512 H 136.12 -4.51229 -1.7754 0
M  V30 1513 N 137.463 0.71206 -1.40597 0
M  V30 1514 C 138.74 1.46536 -1.29563 0
M  V30 1515 C 139.12 2.10931 0.0844217 0
M  V30 1516 O 138.468 2.00418 1.0975 0
M  V30 1517 C 138.678 2.49821 -2.43701 0
M  V30 1518 C 140.026 3.15551 -2.841 0
M  V30 1519 O 141.05 2.60142 -2.4332 0
M  V30 1520 O 139.909 4.15867 -3.54566 0
M  V30 1521 H 137.003 0.651801 -0.509004 0
M  V30 1522 H 139.549 0.743935 -1.52524 0
M  V30 1523 H 138.321 2.00778 -3.35863 0
M  V30 1524 H 137.944 3.29495 -2.22528 0
M  V30 1525 N 138.941 1.26152 0.944643 0
M  V30 1526 C 140.218 1.02247 1.66748 0
M  V30 1527 C 140.598 -0.448202 2.06287 0
M  V30 1528 O 139.946 -1.42779 1.78399 0
M  V30 1529 C 140.156 1.96788 2.88228 0
M  V30 1530 C 141.504 2.25201 3.59958 0
M  V30 1531 O 142.528 1.94626 2.98327 0
M  V30 1532 O 141.387 2.77242 4.70956 0
M  V30 1533 H 138.481 0.388517 0.730057 0
M  V30 1534 H 141.027 1.37348 0.99668 0
M  V30 1535 H 139.799 2.96047 2.55875 0
M  V30 1536 H 139.422 1.62145 3.63035 0
M  V30 1537 N 140.419 -1.14872 1.07899 0
M  V30 1538 C 141.382 -2.17986 0.708161 0
M  V30 1539 C 142.382 -1.58775 -0.25442 0
M  V30 1540 O 143.572 -1.74166 -0.034645 0
M  V30 1541 C 140.704 -3.40871 0.0446929 0
M  V30 1542 H 141.897 -2.52306 1.62116 0
M  V30 1543 H 139.45 -1.2943 0.876218 0
M  V30 1544 H 140.185 -3.12124 -0.880281 0
M  V30 1545 H 139.97 -3.8511 0.737091 0
M  V30 1546 H 141.46 -4.17121 -0.19991 0
M  V30 1547 N 141.898 -0.863906 -1.31812 0
M  V30 1548 C 143.128 -0.485406 -2.00817 0
M  V30 1549 C 143.536 0.925007 -1.65046 0
M  V30 1550 O 142.879 1.61653 -0.872574 0
M  V30 1551 C 142.941 -0.555589 -3.55181 0
M  V30 1552 C 142.605 -1.92654 -4.14407 0
M  V30 1553 C 143.602 -2.89324 -4.31958 0
M  V30 1554 C 141.287 -2.2262 -4.50273 0
M  V30 1555 C 143.281 -4.14108 -4.84555 0
M  V30 1556 C 140.968 -3.47654 -5.02573 0
M  V30 1557 C 141.966 -4.43214 -5.19664 0
M  V30 1558 O 141.654 -5.66033 -5.70843 0
M  V30 1559 H 141.386 -0.188224 -0.649267 0
M  V30 1560 H 143.94 -1.16514 -1.69156 0
M  V30 1561 H 142.17 0.181037 -3.86276 0
M  V30 1562 H 143.859 -0.19138 -4.05449 0
M  V30 1563 H 144.625 -2.6748 -4.04573 0
M  V30 1564 H 140.504 -1.4902 -4.3625 0
M  V30 1565 H 144.048 -4.88703 -4.9781 0
M  V30 1566 H 139.945 -3.69345 -5.29391 0
M  V30 1567 H 140.713 -5.6812 -5.89222 0
M  V30 1568 N 143.376 1.44774 -0.622745 0
M  V30 1569 C 144.787 1.85546 -0.207226 0
M  V30 1570 C 145.138 1.52093 1.23944 0
M  V30 1571 O 144.263 0.95492 1.94191 0
M  V30 1572 C 144.858 3.36781 -0.369313 0
M  V30 1573 C 143.417 3.76399 -0.00836847 0
M  V30 1574 C 142.564 2.68664 -0.686651 0
M  V30 1575 H 145.515 1.3536 -0.828454 0
M  V30 1576 H 145.536 3.78453 0.394162 0
M  V30 1577 H 145.048 3.61098 -1.42231 0
M  V30 1578 H 143.149 3.57698 1.04322 0
M  V30 1579 H 143.262 4.7732 -0.412584 0
M  V30 1580 H 141.626 2.54404 -0.122777 0
M  V30 1581 H 142.409 2.95815 -1.74208 0
M  V30 1582 N 144.854 0.36279 1.53368 0
M  V30 1583 C 146.102 -0.227326 2.00817 0
M  V30 1584 C 146.423 -1.49511 1.25186 0
M  V30 1585 O 145.693 -1.92482 0.364348 0
M  V30 1586 H 144.273 -0.0869923 0.741917 0
M  V30 1587 H 146.935 0.488381 1.88682 0
M  V30 1588 H 146.031 -0.456273 3.08747 0
M  V30 1589 N 146.332 -1.57332 0.0918853 0
M  V30 1590 C 147.748 -1.57389 -0.264766 0
M  V30 1591 C 147.948 -1.10281 -1.68643 0
M  V30 1592 O 147.004 -0.777801 -2.40222 0
M  V30 1593 C 148.317 -3.00648 -0.0561195 0
M  V30 1594 C 149.865 -3.12754 -0.124116 0
M  V30 1595 C 150.34 -4.57965 0.0564972 0
M  V30 1596 N 151.831 -4.632 0.00155611 0
M  V30 1597 C 152.566 -5.73281 0.116598 0
M  V30 1598 N 152.062 -6.92208 0.286294 0
M  V30 1599 N 153.855 -5.6207 0.0580973 0
M  V30 1600 H 146.006 -1.86262 1.02079 0
M  V30 1601 H 148.269 -0.859579 0.399786 0
M  V30 1602 H 147.975 -3.393 0.925669 0
M  V30 1603 H 147.849 -3.68623 -0.799823 0
M  V30 1604 H 150.236 -2.73976 -1.09641 0
M  V30 1605 H 150.317 -2.47377 0.651024 0
M  V30 1606 H 149.961 -4.97436 1.02564 0
M  V30 1607 H 149.891 -5.21399 -0.738297 0
M  V30 1608 H 152.382 -3.77686 -0.127192 0
M  V30 1609 H 152.695 -7.71934 0.365676 0
M  V30 1610 H 151.04 -6.94254 0.32192 0
M  V30 1611 H 154.231 -4.68043 -0.0733204 0
M  V30 1612 H 154.404 -6.47824 0.151203 0
M  V30 1613 N 147.81 0.181792 -1.56548 0
M  V30 1614 C 148.757 1.22521 -1.95595 0
M  V30 1615 C 149.727 1.4454 -0.818373 0
M  V30 1616 O 150.912 1.57454 -1.07763 0
M  V30 1617 C 148.052 2.56193 -2.31212 0
M  V30 1618 C 147.165 2.41641 -3.58097 0
M  V30 1619 C 146.3 3.68108 -3.82975 0
M  V30 1620 C 145.339 3.48445 -5.03242 0
M  V30 1621 N 144.476 4.66956 -5.24306 0
M  V30 1622 H 149.316 0.885226 -2.84548 0
M  V30 1623 H 146.853 0.425718 -1.40805 0
M  V30 1624 H 148.811 3.34088 -2.49882 0
M  V30 1625 H 147.441 2.88208 -1.45382 0
M  V30 1626 H 146.493 1.54976 -3.474 0
M  V30 1627 H 147.805 2.23052 -4.46149 0
M  V30 1628 H 146.959 4.54441 -4.01956 0
M  V30 1629 H 145.698 3.89666 -2.93278 0
M  V30 1630 H 144.703 2.60499 -4.8417 0
M  V30 1631 H 145.928 3.2832 -5.9446 0
M  V30 1632 H 143.874 4.88752 -4.37559 0
M  V30 1633 H 143.791 4.51242 -6.06561 0
M  V30 1634 H 145.059 5.54602 -5.47756 0
M  V30 1635 N 149.288 1.51039 0.449983 0
M  V30 1636 C 150.218 1.74379 1.55288 0
M  V30 1637 C 151.199 0.593236 1.5942 0
M  V30 1638 O 152.384 0.834625 1.7535 0
M  V30 1639 C 149.514 1.85728 2.93466 0
M  V30 1640 C 148.468 3.01078 3.04197 0
M  V30 1641 C 147.794 2.97595 4.44231 0
M  V30 1642 C 149.094 4.41254 2.7945 0
M  V30 1643 H 150.788 2.66725 1.36008 0
M  V30 1644 H 148.334 1.2835 0.652864 0
M  V30 1645 H 150.287 2.0064 3.70569 0
M  V30 1646 H 149.011 0.900207 3.13949 0
M  V30 1647 H 147.67 2.85851 2.29531 0
M  V30 1648 H 147.318 1.99691 4.61663 0
M  V30 1649 H 147.018 3.75046 4.52343 0
M  V30 1650 H 148.542 3.14583 5.23326 0
M  V30 1651 H 149.956 4.56897 3.46292 0
M  V30 1652 H 148.353 5.20315 2.98985 0
M  V30 1653 H 149.423 4.52164 1.75144 0
M  V30 1654 N 150.766 -0.704594 1.40972 0
M  V30 1655 C 152.013 -1.46458 1.39844 0
M  V30 1656 C 152.341 -1.94499 0.00447594 0
M  V30 1657 O 151.596 -1.69275 -0.982057 0
M  V30 1658 C 151.895 -2.698 2.34399 0
M  V30 1659 C 151.561 -2.40464 3.81429 0
M  V30 1660 C 150.223 -2.32174 4.21484 0
M  V30 1661 C 152.575 -2.16086 4.74296 0
M  V30 1662 C 149.903 -1.97589 5.52427 0
M  V30 1663 C 152.255 -1.83011 6.05549 0
M  V30 1664 C 150.919 -1.7321 6.44635 0
M  V30 1665 H 150.189 -0.535927 0.511725 0
M  V30 1666 H 152.836 -0.806124 1.73706 0
M  V30 1667 H 151.141 -3.40536 1.93759 0
M  V30 1668 H 152.838 -3.27919 2.30804 0
M  V30 1669 H 149.428 -2.47808 3.49699 0
M  V30 1670 H 153.612 -2.2144 4.4416 0
M  V30 1671 H 148.868 -1.88547 5.81601 0
M  V30 1672 H 153.042 -1.63164 6.77016 0
M  V30 1673 H 150.669 -1.46179 7.46013 0
M  V30 1674 N 152.244 -1.26651 -0.937939 0
M  V30 1675 C 153.655 -1.1125 -1.49934 0
M  V30 1676 C 154.006 0.306077 -1.93798 0
M  V30 1677 O 153.131 1.19792 -1.80219 0
M  V30 1678 C 153.726 -2.01339 -2.72485 0
M  V30 1679 C 152.285 -1.90074 -3.24883 0
M  V30 1680 C 151.432 -1.94498 -1.97651 0
M  V30 1681 H 154.383 -1.39693 -0.753091 0
M  V30 1682 H 154.404 -1.56319 -3.46907 0
M  V30 1683 H 153.916 -3.04577 -2.40529 0
M  V30 1684 H 152.017 -0.897827 -3.61621 0
M  V30 1685 H 152.13 -2.75778 -3.9177 0
M  V30 1686 H 150.494 -1.38591 -2.13693 0
M  V30 1687 H 151.277 -2.99372 -1.68022 0
M  V30 1688 N 153.722 1.14298 -1.08507 0
M  V30 1689 C 154.952 1.88945 -0.835663 0
M  V30 1690 C 155.36 1.78894 0.615928 0
M  V30 1691 O 154.703 1.1468 1.43506 0
M  V30 1692 C 154.765 3.39585 -1.17994 0
M  V30 1693 C 154.429 3.7342 -2.63451 0
M  V30 1694 C 155.426 3.73454 -3.61702 0
M  V30 1695 C 153.111 4.03368 -2.99332 0
M  V30 1696 C 155.105 4.02961 -4.93864 0
M  V30 1697 C 152.792 4.32538 -4.31687 0
M  V30 1698 C 153.79 4.32318 -5.28763 0
M  V30 1699 O 153.478 4.6078 -6.58739 0
M  V30 1700 H 153.21 0.605307 -0.300965 0
M  V30 1701 H 155.764 1.45673 -1.44806 0
M  V30 1702 H 153.994 3.83315 -0.51055 0
M  V30 1703 H 155.683 3.9554 -0.911182 0
M  V30 1704 H 156.449 3.50403 -3.35325 0
M  V30 1705 H 152.328 4.02692 -2.24411 0
M  V30 1706 H 155.872 4.02704 -5.69627 0
M  V30 1707 H 151.769 4.55059 -4.57812 0
M  V30 1708 H 152.537 4.78492 -6.64069 0
M  V30 1709 N 155.201 0.870884 1.31352 0
M  V30 1710 C 156.478 0.402907 1.91405 0
M  V30 1711 C 156.858 -1.11512 1.79244 0
M  V30 1712 O 156.206 -1.94411 1.2007 0
M  V30 1713 C 156.416 0.885301 3.37585 0
M  V30 1714 C 157.764 0.911971 4.14691 0
M  V30 1715 O 158.788 0.831016 3.46371 0
M  V30 1716 O 157.647 1.02927 5.3672 0
M  V30 1717 H 154.741 0.120698 0.818145 0
M  V30 1718 H 157.287 0.958857 1.40014 0
M  V30 1719 H 156.059 1.92889 3.40455 0
M  V30 1720 H 155.682 0.307714 3.96407 0
M  V30 1721 N 156.679 -1.44442 0.630414 0
M  V30 1722 C 158.09 -1.85434 0.217063 0
M  V30 1723 C 158.441 -1.52748 -1.23136 0
M  V30 1724 O 157.566 -0.965205 -1.93682 0
M  V30 1725 C 158.161 -3.36581 0.387168 0
M  V30 1726 C 156.72 -3.76389 0.0283297 0
M  V30 1727 C 155.867 -2.68296 0.700889 0
M  V30 1728 H 158.818 -1.34919 0.83562 0
M  V30 1729 H 158.839 -3.78657 -0.374086 0
M  V30 1730 H 158.351 -3.60339 1.44144 0
M  V30 1731 H 156.452 -3.58246 -1.02423 0
M  V30 1732 H 156.565 -4.77095 0.437892 0
M  V30 1733 H 154.929 -2.54335 0.136267 0
M  V30 1734 H 155.712 -2.94887 1.75774 0
M  V30 1735 N 158.157 -0.370918 -1.53173 0
M  V30 1736 C 159.387 0.217389 -2.05453 0
M  V30 1737 C 159.795 1.42568 -1.24382 0
M  V30 1738 O 159.138 1.81571 -0.278839 0
M  V30 1739 C 159.2 0.669827 -3.53205 0
M  V30 1740 C 158.864 -0.4225 -4.55043 0
M  V30 1741 C 159.861 -1.27407 -5.04047 0
M  V30 1742 C 157.546 -0.58427 -4.9889 0
M  V30 1743 C 159.54 -2.27271 -5.95505 0
M  V30 1744 C 157.227 -1.58627 -5.90153 0
M  V30 1745 C 158.225 -2.42892 -6.38351 0
M  V30 1746 O 157.913 -3.41382 -7.27814 0
M  V30 1747 H 157.645 0.0408171 -0.674767 0
M  V30 1748 H 160.199 -0.5292 -1.98466 0
M  V30 1749 H 158.429 1.4681 -3.57748 0
M  V30 1750 H 160.118 1.18173 -3.88317 0
M  V30 1751 H 160.884 -1.16031 -4.70916 0
M  V30 1752 H 156.763 0.061851 -4.60959 0
M  V30 1753 H 160.307 -2.93079 -6.33049 0
M  V30 1754 H 156.204 -1.70048 -6.22699 0
M  V30 1755 H 156.972 -3.37173 -7.45826 0
M  V30 1756 N 159.635 1.57281 -0.100228 0
M  V30 1757 C 160.545 2.17833 0.870965 0
M  V30 1758 C 161.561 1.14921 1.30649 0
M  V30 1759 O 162.737 1.47313 1.37335 0
M  V30 1760 C 159.802 2.75085 2.1102 0
M  V30 1761 C 158.863 3.9297 1.72838 0
M  V30 1762 C 158.096 4.47482 2.90854 0
M  V30 1763 O 158.319 4.00922 4.05731 0
M  V30 1764 O 157.253 5.38433 2.69023 0
M  V30 1765 H 161.079 3.0124 0.38575 0
M  V30 1766 H 158.664 1.48881 0.124397 0
M  V30 1767 H 160.546 3.11656 2.83634 0
M  V30 1768 H 159.221 1.94721 2.58584 0
M  V30 1769 H 158.128 3.61201 0.973883 0
M  V30 1770 H 159.461 4.74713 1.30033 0
M  V30 1771 N 161.113 -0.173488 1.56642 0
M  V30 1772 C 162.529 -0.525174 1.50712 0
M  V30 1773 C 162.729 -1.8476 0.804107 0
M  V30 1774 O 161.785 -2.49869 0.363574 0
M  V30 1775 C 163.098 -0.559937 2.95441 0
M  V30 1776 C 164.646 -0.647288 3.06234 0
M  V30 1777 C 165.121 -0.712963 4.52417 0
M  V30 1778 N 166.612 -0.775911 4.56655 0
M  V30 1779 C 167.347 -0.847264 5.67106 0
M  V30 1780 N 166.843 -0.879585 6.87194 0
M  V30 1781 N 168.636 -0.886117 5.55071 0
M  V30 1782 H 160.787 0.693681 2.00753 0
M  V30 1783 H 163.05 0.249841 0.914485 0
M  V30 1784 H 162.756 0.343049 3.50023 0
M  V30 1785 H 162.63 -1.40718 3.49969 0
M  V30 1786 H 165.017 -1.5407 2.51687 0
M  V30 1787 H 165.098 0.226586 2.54794 0
M  V30 1788 H 164.742 0.176183 5.07594 0
M  V30 1789 H 164.672 -1.60295 5.0161 0
M  V30 1790 H 167.163 -0.759304 3.70193 0
M  V30 1791 H 167.476 -0.935144 7.67121 0
M  V30 1792 H 165.821 -0.847898 6.89808 0
M  V30 1793 H 169.012 -0.857853 4.60172 0
M  V30 1794 H 169.185 -0.938263 6.41171 0
M  V30 1795 N 162.591 -1.51276 -0.441967 0
M  V30 1796 C 163.554 -1.7167 -1.51862 0
M  V30 1797 C 164.554 -0.586793 -1.49711 0
M  V30 1798 O 165.744 -0.854276 -1.51815 0
M  V30 1799 C 162.876 -1.76889 -2.91416 0
M  V30 1800 H 164.069 -2.67754 -1.35084 0
M  V30 1801 H 161.622 -1.41196 -0.670333 0
M  V30 1802 H 162.357 -0.826026 -3.13604 0
M  V30 1803 H 162.142 -2.59001 -2.94382 0
M  V30 1804 H 163.632 -1.94522 -3.69528 0
M  V30 1805 N 164.069 0.697108 -1.41344 0
M  V30 1806 C 165.485 1.00751 -1.2378 0
M  V30 1807 C 165.685 2.01105 -0.126066 0
M  V30 1808 O 164.741 2.47295 0.51004 0
M  V30 1809 C 166.054 1.53359 -2.58653 0
M  V30 1810 C 167.602 1.6525 -2.65822 0
M  V30 1811 C 168.077 2.2126 -4.01009 0
M  V30 1812 N 169.568 2.28622 -4.02847 0
M  V30 1813 C 170.303 2.72984 -5.04249 0
M  V30 1814 N 169.799 3.16962 -6.16041 0
M  V30 1815 N 171.592 2.72534 -4.91611 0
M  V30 1816 H 163.743 0.0322662 -2.12375 0
M  V30 1817 H 166.006 0.0768853 -0.944877 0
M  V30 1818 H 165.712 0.870773 -3.4075 0
M  V30 1819 H 165.586 2.51597 -2.81032 0
M  V30 1820 H 167.973 2.30644 -1.84086 0
M  V30 1821 H 168.054 0.655614 -2.47256 0
M  V30 1822 H 167.698 1.56482 -4.83193 0
M  V30 1823 H 167.628 3.21698 -4.16915 0
M  V30 1824 H 170.119 1.97585 -3.22131 0
M  V30 1825 H 170.432 3.49434 -6.89287 0
M  V30 1826 H 168.777 3.14875 -6.1958 0
M  V30 1827 H 171.968 2.37525 -4.0336 0
M  V30 1828 H 172.141 3.06789 -5.70775 0
M  V30 1829 N 165.547 1.27147 0.931209 0
M  V30 1830 C 166.479 1.05364 2.03546 0
M  V30 1831 C 167.492 0.0108438 1.62796 0
M  V30 1832 O 168.681 0.25202 1.76712 0
M  V30 1833 C 165.781 0.575566 3.33977 0
M  V30 1834 C 164.954 1.68985 4.03439 0
M  V30 1835 C 164.013 1.20813 5.12143 0
M  V30 1836 O 163.039 1.90712 5.363 0
M  V30 1837 N 164.241 0.0618851 5.80467 0
M  V30 1838 H 167.006 2.00454 2.22796 0
M  V30 1839 H 164.567 1.18666 1.10136 0
M  V30 1840 H 166.559 0.237264 4.04004 0
M  V30 1841 H 165.129 -0.282016 3.11325 0
M  V30 1842 H 164.349 2.19861 3.27192 0
M  V30 1843 H 165.637 2.4378 4.46597 0
M  V30 1844 H 165.035 -0.521621 5.6329 0
M  V30 1845 H 163.592 -0.217264 6.51438 0
M  V30 1846 N 167.025 -1.13721 1.09112 0
M  V30 1847 C 167.972 -2.19031 0.727591 0
M  V30 1848 C 168.942 -1.63555 -0.289656 0
M  V30 1849 O 170.127 -1.90023 -0.172026 0
M  V30 1850 C 167.267 -3.4477 0.15082 0
M  V30 1851 C 166.38 -4.14365 1.22172 0
M  V30 1852 C 165.515 -5.27709 0.608042 0
M  V30 1853 C 164.554 -5.89147 1.66047 0
M  V30 1854 N 163.691 -6.93929 1.06806 0
M  V30 1855 H 168.531 -2.49475 1.62991 0
M  V30 1856 H 166.068 -1.22499 0.81439 0
M  V30 1857 H 168.026 -4.16714 -0.201358 0
M  V30 1858 H 166.656 -3.14787 -0.714783 0
M  V30 1859 H 165.708 -3.40737 1.69122 0
M  V30 1860 H 167.02 -4.56114 2.01895 0
M  V30 1861 H 166.174 -6.06355 0.204523 0
M  V30 1862 H 164.913 -4.872 -0.220769 0
M  V30 1863 H 163.918 -5.09198 2.07357 0
M  V30 1864 H 165.143 -6.31729 2.49189 0
M  V30 1865 H 163.089 -6.55483 0.260476 0
M  V30 1866 H 163.006 -7.34202 1.8023 0
M  V30 1867 H 164.274 -7.76434 0.690644 0
M  V30 1868 N 168.503 -0.877838 -1.30888 0
M  V30 1869 C 169.436 -0.283995 -2.26426 0
M  V30 1870 C 170.414 0.591361 -1.51465 0
M  V30 1871 O 171.598 0.54304 -1.80509 0
M  V30 1872 C 168.725 0.597129 -3.33395 0
M  V30 1873 C 167.771 -0.207937 -4.25993 0
M  V30 1874 S 168.604 -1.59158 -5.11301 0
M  V30 1875 C 169.76 -0.716791 -6.21782 0
M  V30 1876 H 169.993 -1.09383 -2.76446 0
M  V30 1877 H 167.526 -0.676828 -1.38775 0
M  V30 1878 H 169.484 1.09978 -3.95493 0
M  V30 1879 H 168.145 1.38099 -2.82113 0
M  V30 1880 H 167.338 0.464163 -5.01858 0
M  V30 1881 H 166.94 -0.642963 -3.68432 0
M  V30 1882 H 169.232 0.0692833 -6.77465 0
M  V30 1883 H 170.175 -1.44682 -6.93161 0
M  V30 1884 H 170.583 -0.280855 -5.63801 0
M  V30 1885 N 169.982 1.44106 -0.638065 0
M  V30 1886 C 170.912 2.33448 0.0494287 0
M  V30 1887 C 171.893 1.48606 0.827672 0
M  V30 1888 O 173.078 1.77308 0.792173 0
M  V30 1889 C 170.208 3.31771 1.02691 0
M  V30 1890 C 169.162 4.26485 0.359823 0
M  V30 1891 C 168.488 5.14729 1.44769 0
M  V30 1892 C 169.788 5.17056 -0.738296 0
M  V30 1893 H 171.482 2.91183 -0.696636 0
M  V30 1894 H 169.028 1.40014 -0.336456 0
M  V30 1895 H 170.981 3.93161 1.51666 0
M  V30 1896 H 169.705 2.7226 1.80395 0
M  V30 1897 H 168.364 3.66437 -0.10934 0
M  V30 1898 H 168.012 4.51566 2.21578 0
M  V30 1899 H 167.712 5.78913 1.00668 0
M  V30 1900 H 169.236 5.78991 1.93911 0
M  V30 1901 H 170.65 5.72342 -0.331354 0
M  V30 1902 H 169.047 5.89879 -1.10286 0
M  V30 1903 H 170.117 4.57652 -1.60258 0
M  V30 1904 N 171.46 0.379036 1.52974 0
M  V30 1905 C 172.39 -0.452706 2.29069 0
M  V30 1906 C 173.371 -1.07237 1.32039 0
M  V30 1907 O 174.556 -1.08708 1.60923 0
M  V30 1908 C 171.686 -1.5856 3.08992 0
M  V30 1909 C 170.64 -1.0925 4.13822 0
M  V30 1910 C 169.966 -2.31668 4.81907 0
M  V30 1911 C 171.266 -0.167702 5.22031 0
M  V30 1912 H 172.96 0.182181 2.98845 0
M  V30 1913 H 170.506 0.0890592 1.43724 0
M  V30 1914 H 172.459 -2.1742 3.6098 0
M  V30 1915 H 171.183 -2.24792 2.36931 0
M  V30 1916 H 169.842 -0.526494 3.628 0
M  V30 1917 H 169.49 -2.96386 4.06404 0
M  V30 1918 H 169.19 -1.9934 5.52754 0
M  V30 1919 H 170.714 -2.91189 5.36695 0
M  V30 1920 H 172.128 -0.664186 5.6944 0
M  V30 1921 H 170.525 0.0653265 6.00064 0
M  V30 1922 H 171.595 0.786347 4.78482 0
M  V30 1923 N 172.938 -1.57226 0.108567 0
M  V30 1924 C 173.848 -2.18292 -0.859401 0
M  V30 1925 C 174.864 -1.15612 -1.30038 0
M  V30 1926 O 176.04 -1.48039 -1.36552 0
M  V30 1927 C 173.105 -2.762 -2.09558 0
M  V30 1928 C 172.166 -3.93881 -1.70752 0
M  V30 1929 C 171.399 -4.49018 -2.88477 0
M  V30 1930 O 171.622 -4.03068 -4.036 0
M  V30 1931 O 170.556 -5.39852 -2.66164 0
M  V30 1932 H 174.382 -3.01441 -0.369769 0
M  V30 1933 H 171.967 -1.48945 -0.1165 0
M  V30 1934 H 173.849 -3.13156 -2.81978 0
M  V30 1935 H 172.524 -1.96089 -2.57548 0
M  V30 1936 H 171.431 -3.61713 -0.954714 0
M  V30 1937 H 172.764 -4.75396 -1.27513 0
M  V30 1938 N 174.416 0.165178 -1.56732 0
M  V30 1939 C 175.346 1.20651 -1.99914 0
M  V30 1940 C 176.327 1.45827 -0.875705 0
M  V30 1941 O 177.512 1.57057 -1.14223 0
M  V30 1942 C 174.642 2.54401 -2.36427 0
M  V30 1943 C 173.596 2.43782 -3.51787 0
M  V30 1944 C 172.922 3.82078 -3.7406 0
M  V30 1945 C 174.222 1.93732 -4.85041 0
M  V30 1946 H 175.916 0.847534 -2.87154 0
M  V30 1947 H 173.462 0.40625 -1.38151 0
M  V30 1948 H 175.415 3.27458 -2.65234 0
M  V30 1949 H 174.139 2.92098 -1.46103 0
M  V30 1950 H 172.798 1.73178 -3.23117 0
M  V30 1951 H 172.446 4.17179 -2.81017 0
M  V30 1952 H 172.146 3.7584 -4.51684 0
M  V30 1953 H 173.67 4.56712 -4.05274 0
M  V30 1954 H 175.084 2.56569 -5.12684 0
M  V30 1955 H 173.481 1.98428 -5.66345 0
M  V30 1956 H 174.551 0.891962 -4.76626 0
M  V30 1957 N 175.894 1.51508 0.433938 0
M  V30 1958 C 177.141 1.64345 1.18309 0
M  V30 1959 C 177.469 0.361315 1.91115 0
M  V30 1960 O 176.724 -0.654753 1.84422 0
M  V30 1961 C 177.023 2.79928 2.22205 0
M  V30 1962 C 176.689 4.19078 1.66387 0
M  V30 1963 C 175.351 4.56932 1.50887 0
M  V30 1964 C 177.703 5.05894 1.25381 0
M  V30 1965 C 175.031 5.79305 0.928608 0
M  V30 1966 C 177.383 6.2885 0.687823 0
M  V30 1967 C 176.047 6.65473 0.519755 0
M  V30 1968 H 175.317 0.601381 0.432923 0
M  V30 1969 H 177.964 1.85549 0.473676 0
M  V30 1970 H 176.269 2.52959 2.99197 0
M  V30 1971 H 177.966 2.87059 2.79997 0
M  V30 1972 H 174.556 3.89234 1.79428 0
M  V30 1973 H 178.74 4.77253 1.36175 0
M  V30 1974 H 173.996 6.06324 0.786186 0
M  V30 1975 H 178.17 6.95461 0.361581 0
M  V30 1976 H 175.797 7.6017 0.0679979 0
M  V30 1977 N 177.372 -0.689602 1.41712 0
M  V30 1978 C 178.612 -1.46184 1.42862 0
M  V30 1979 C 178.976 -1.91962 0.0382204 0
M  V30 1980 O 180.177 -2.68694 -0.0755019 0
M  V30 1981 C 178.448 -2.6371 2.4123 0
M  V30 1982 S 180.007 -3.52768 2.6096 0
M  V30 1983 H 176.825 -0.49947 0.506015 0
M  V30 1984 H 179.427 -0.804107 1.78198 0
M  V30 1985 H 178.131 -2.28293 3.41044 0
M  V30 1986 H 177.662 -3.3437 2.07269 0
M  V30 1987 H 179.677 -4.59146 1.88148 0
M  V30 1988 N 178.85 -1.27639 -0.924453 0
M  V30 1989 C 179.797 -1.10644 -2.0255 0
M  V30 1990 C 180.767 -0.00658438 -1.66099 0
M  V30 1991 O 181.952 -0.16952 -1.90045 0
M  V30 1992 C 179.092 -0.76309 -3.36557 0
M  V30 1993 C 178.205 -1.94091 -3.85944 0
M  V30 1994 C 177.34 -1.53914 -5.08413 0
M  V30 1995 C 176.379 -2.68425 -5.50104 0
M  V30 1996 N 175.516 -2.28815 -6.63768 0
M  V30 1997 H 180.356 -2.04858 -2.16419 0
M  V30 1998 H 177.893 -1.01974 -1.06017 0
M  V30 1999 H 179.851 -0.544822 -4.13627 0
M  V30 2000 H 178.481 0.142102 -3.22487 0
M  V30 2001 H 177.533 -2.27162 -3.05125 0
M  V30 2002 H 178.845 -2.7998 -4.12811 0
M  V30 2003 H 177.999 -1.28231 -5.92994 0
M  V30 2004 H 176.738 -0.651391 -4.8333 0
M  V30 2005 H 175.743 -2.94819 -4.64071 0
M  V30 2006 H 176.968 -3.57826 -5.7718 0
M  V30 2007 H 174.914 -1.42495 -6.40337 0
M  V30 2008 H 174.831 -3.08242 -6.90306 0
M  V30 2009 H 176.099 -2.06387 -7.51681 0
M  V30 2010 N 180.328 1.1314 -1.09713 0
M  V30 2011 C 181.574 1.84757 -0.836224 0
M  V30 2012 C 181.907 1.8347 0.636598 0
M  V30 2013 O 181.182 1.27491 1.46889 0
M  V30 2014 C 181.465 3.32782 -1.37578 0
M  V30 2015 C 181.318 3.42567 -2.91493 0
M  V30 2016 C 182.637 4.28307 -1.01198 0
M  V30 2017 H 179.756 0.67082 -0.305236 0
M  V30 2018 H 182.398 1.3278 -1.35903 0
M  V30 2019 H 180.548 3.77177 -0.931097 0
M  V30 2020 H 182.22 3.06862 -3.44432 0
M  V30 2021 H 180.463 2.83349 -3.28475 0
M  V30 2022 H 181.134 4.46674 -3.24324 0
M  V30 2023 H 183.61 3.91999 -1.39556 0
M  V30 2024 H 182.486 5.30307 -1.41653 0
M  V30 2025 H 182.747 4.42029 0.0794833 0
M  V30 2026 N 181.806 0.884767 1.30421 0
M  V30 2027 C 183.217 0.553656 1.78302 0
M  V30 2028 C 183.568 -0.930153 1.7275 0
M  V30 2029 O 182.693 -1.72681 1.30423 0
M  V30 2030 C 183.288 0.998234 3.2376 0
M  V30 2031 C 181.847 0.71854 3.69478 0
M  V30 2032 C 180.994 1.18132 2.50879 0
M  V30 2033 H 183.945 1.06901 1.17294 0
M  V30 2034 H 183.966 0.327118 3.79091 0
M  V30 2035 H 183.478 2.0782 3.27769 0
M  V30 2036 H 181.579 -0.349444 3.70958 0
M  V30 2037 H 181.692 1.30595 4.60958 0
M  V30 2038 H 180.056 0.600669 2.47516 0
M  V30 2039 H 180.839 2.26902 2.57624 0
M  V30 2040 N 183.284 -1.43765 0.645699 0
M  V30 2041 C 184.234 -2.27884 -0.0726442 0
M  V30 2042 C 185.218 -1.39483 -0.802086 0
M  V30 2043 O 186.41 -1.63174 -0.685791 0
M  V30 2044 C 183.539 -3.27055 -1.04356 0
M  V30 2045 C 182.625 -4.22944 -0.312985 0
M  V30 2046 N 183.016 -5.01391 0.666386 0
M  V30 2047 C 181.314 -4.42528 -0.55546 0
M  V30 2048 C 182.015 -5.71217 1.09935 0
M  V30 2049 N 180.991 -5.41856 0.435137 0
M  V30 2050 H 184.793 -2.85949 0.678988 0
M  V30 2051 H 182.307 -1.55378 0.472368 0
M  V30 2052 H 184.304 -3.86089 -1.57292 0
M  V30 2053 H 182.964 -2.70551 -1.79534 0
M  V30 2054 H 183.975 -5.07252 1.04481 0
M  V30 2055 H 180.652 -3.97104 -1.28899 0
M  V30 2056 H 182.042 -6.44202 1.90929 0
M  V30 2057 N 184.763 -0.387143 -1.52771 0
M  V30 2058 C 185.693 0.440551 -2.29306 0
M  V30 2059 C 186.674 1.06535 -1.32606 0
M  V30 2060 O 187.859 1.07853 -1.61497 0
M  V30 2061 C 184.989 1.56919 -3.09829 0
M  V30 2062 C 183.943 1.07054 -4.14395 0
M  V30 2063 C 183.269 2.29109 -4.83129 0
M  V30 2064 C 184.569 0.140015 -5.22112 0
M  V30 2065 H 186.263 -0.198026 -2.98744 0
M  V30 2066 H 183.809 -0.09668 -1.43675 0
M  V30 2067 H 185.762 2.15503 -3.62128 0
M  V30 2068 H 184.486 2.23532 -2.3812 0
M  V30 2069 H 183.145 0.507247 -3.63074 0
M  V30 2070 H 182.793 2.94227 -4.0797 0
M  V30 2071 H 182.493 1.96406 -5.53804 0
M  V30 2072 H 184.017 2.88339 -5.38231 0
M  V30 2073 H 185.431 0.633978 -5.69784 0
M  V30 2074 H 183.828 -0.0971485 -6.00021 0
M  V30 2075 H 184.898 -0.811711 -4.78058 0
M  V30 2076 N 186.241 1.57166 -0.116904 0
M  V30 2077 C 187.469 1.99473 0.549383 0
M  V30 2078 C 187.884 0.996541 1.60357 0
M  V30 2079 O 187.241 -0.0108731 1.82497 0
M  V30 2080 C 187.292 3.41788 1.17741 0
M  V30 2081 O 187.013 4.37788 0.165362 0
M  V30 2082 C 188.514 3.99216 1.92722 0
M  V30 2083 H 185.734 0.655009 0.145616 0
M  V30 2084 H 188.278 2.03494 -0.202625 0
M  V30 2085 H 186.433 3.38713 1.88021 0
M  V30 2086 H 186.847 5.20806 0.621403 0
M  V30 2087 H 188.321 5.00882 2.31995 0
M  V30 2088 H 188.798 3.3824 2.80161 0
M  V30 2089 H 189.404 4.0583 1.27209 0
M  V30 2090 N 187.719 -0.156864 1.56817 0
M  V30 2091 C 188.666 -1.19394 1.97519 0
M  V30 2092 C 189.636 -1.4322 0.841265 0
M  V30 2093 O 190.821 -1.55719 1.10255 0
M  V30 2094 C 187.961 -2.52483 2.35258 0
M  V30 2095 C 187.074 -2.35914 3.61896 0
M  V30 2096 C 186.209 -3.61969 3.88782 0
M  V30 2097 C 185.248 -3.40395 5.08722 0
M  V30 2098 N 184.385 -4.58556 5.31668 0
M  V30 2099 H 189.225 -0.839845 2.85921 0
M  V30 2100 H 186.762 -0.403264 1.41464 0
M  V30 2101 H 188.72 -3.30071 2.55165 0
M  V30 2102 H 187.35 -2.85859 1.49949 0
M  V30 2103 H 186.402 -1.49429 3.49821 0
M  V30 2104 H 187.714 -2.15926 4.49641 0
M  V30 2105 H 186.868 -4.47989 4.09135 0
M  V30 2106 H 185.607 -3.84951 2.9944 0
M  V30 2107 H 184.612 -2.52763 4.88253 0
M  V30 2108 H 185.837 -3.18822 5.99608 0
M  V30 2109 H 183.783 -4.81729 4.45279 0
M  V30 2110 H 183.7 -4.41535 6.13664 0
M  V30 2111 H 184.968 -5.45817 5.5651 0
M  V30 2112 N 189.197 -1.51736 -0.425897 0
M  V30 2113 C 190.107 -1.76738 -1.54275 0
M  V30 2114 C 191.123 -0.65211 -1.61318 0
M  V30 2115 O 192.299 -0.935654 -1.78346 0
M  V30 2116 C 189.364 -1.89755 -2.90162 0
M  V30 2117 C 188.425 -3.13633 -2.93143 0
M  V30 2118 C 187.658 -3.2602 -4.22548 0
M  V30 2119 O 187.881 -2.44067 -5.15546 0
M  V30 2120 O 186.815 -4.19071 -4.32046 0
M  V30 2121 H 190.641 -2.71502 -1.36089 0
M  V30 2122 H 188.226 -1.36376 -0.610069 0
M  V30 2123 H 190.108 -2.00236 -3.70788 0
M  V30 2124 H 188.783 -0.981785 -3.08452 0
M  V30 2125 H 187.69 -3.08622 -2.11431 0
M  V30 2126 H 189.023 -4.04936 -2.798 0
M  V30 2127 N 190.675 0.682077 -1.42076 0
M  V30 2128 C 191.915 1.45424 -1.43636 0
M  V30 2129 C 192.279 1.91939 -0.0484001 0
M  V30 2130 O 193.48 2.6873 0.0612514 0
M  V30 2131 C 191.751 2.62427 -2.42625 0
M  V30 2132 S 193.31 3.51379 -2.62827 0
M  V30 2133 H 190.128 0.496779 -0.508657 0
M  V30 2134 H 192.73 0.794645 -1.78621 0
M  V30 2135 H 191.434 2.26481 -3.42249 0
M  V30 2136 H 190.965 3.33266 -2.09039 0
M  V30 2137 H 192.98 4.58141 -1.9058 0
M  V30 2138 N 192.153 1.28127 0.917671 0
M  V30 2139 C 193.083 1.14248 2.03641 0
M  V30 2140 C 194.064 0.0412748 1.7005 0
M  V30 2141 O 195.249 0.217566 1.92977 0
M  V30 2142 C 192.379 0.799431 3.37974 0
M  V30 2143 C 191.333 1.85497 3.85713 0
M  V30 2144 C 190.659 1.36565 5.16966 0
M  V30 2145 C 191.959 3.26085 4.08002 0
M  V30 2146 H 193.653 2.07835 2.15511 0
M  V30 2147 H 191.199 1.00064 1.03553 0
M  V30 2148 H 193.152 0.689114 4.15727 0
M  V30 2149 H 191.876 -0.172145 3.26146 0
M  V30 2150 H 190.535 1.95437 3.10161 0
M  V30 2151 H 190.183 0.383253 5.01538 0
M  V30 2152 H 189.883 2.07143 5.49878 0
M  V30 2153 H 191.407 1.26848 5.97279 0
M  V30 2154 H 192.821 3.19089 4.76293 0
M  V30 2155 H 191.218 3.94462 4.52238 0
M  V30 2156 H 192.288 3.70394 3.12948 0
M  V30 2157 N 193.631 -1.12557 1.10312 0
M  V30 2158 C 194.877 -1.84311 0.846011 0
M  V30 2159 C 195.21 -1.83805 -0.626859 0
M  V30 2160 O 194.485 -1.28268 -1.46211 0
M  V30 2161 C 194.768 -3.32048 1.39341 0
M  V30 2162 C 194.621 -3.41016 2.93305 0
M  V30 2163 C 195.94 -4.27764 1.03468 0
M  V30 2164 H 193.059 -0.669192 0.30879 0
M  V30 2165 H 195.701 -1.32057 1.36605 0
M  V30 2166 H 193.851 -3.76678 0.951087 0
M  V30 2167 H 195.523 -3.05031 3.46055 0
M  V30 2168 H 193.766 -2.81603 3.29973 0
M  V30 2169 H 194.437 -4.44948 3.26689 0
M  V30 2170 H 196.913 -3.91253 1.41633 0
M  V30 2171 H 195.789 -5.29549 1.44463 0
M  V30 2172 H 196.05 -4.42064 -0.0560404 0
M  V30 2173 N 195.109 -0.891671 -1.2995 0
M  V30 2174 C 196.072 -0.36828 -2.26222 0
M  V30 2175 C 197.072 0.493014 -1.53056 0
M  V30 2176 O 198.262 0.299213 -1.71611 0
M  V30 2177 C 195.394 0.47442 -3.37583 0
M  V30 2178 H 196.587 -1.21844 -2.74033 0
M  V30 2179 H 194.14 -0.669107 -1.41254 0
M  V30 2180 H 194.875 1.34489 -2.95099 0
M  V30 2181 H 194.66 -0.142615 -3.91841 0
M  V30 2182 H 196.15 0.83218 -4.09224 0
M  V30 2183 N 196.587 1.43421 -0.653314 0
M  V30 2184 C 197.517 2.33487 0.0246656 0
M  V30 2185 C 198.498 1.49475 0.811863 0
M  V30 2186 O 199.683 1.78139 0.773322 0
M  V30 2187 C 196.813 3.32841 0.99166 0
M  V30 2188 C 195.767 4.26842 0.314568 0
M  V30 2189 C 195.093 5.16236 1.39302 0
M  V30 2190 C 196.393 5.16243 -0.793095 0
M  V30 2191 H 198.087 2.90427 -0.727481 0
M  V30 2192 H 195.633 1.39649 -0.351287 0
M  V30 2193 H 197.586 3.94747 1.47487 0
M  V30 2194 H 196.31 2.74158 1.77497 0
M  V30 2195 H 194.969 3.663 -0.148199 0
M  V30 2196 H 194.617 4.53891 2.16776 0
M  V30 2197 H 194.317 5.79948 0.945223 0
M  V30 2198 H 195.841 5.81015 1.87759 0
M  V30 2199 H 197.255 5.71958 -0.392039 0
M  V30 2200 H 195.652 5.88676 -1.16536 0
M  V30 2201 H 196.722 4.55927 -1.65103 0
M  V30 2202 N 198.065 0.39524 1.52563 0
M  V30 2203 C 199.481 0.0454682 1.59535 0
M  V30 2204 C 199.681 -1.44056 1.4089 0
M  V30 2205 O 198.737 -2.20579 1.22888 0
M  V30 2206 C 200.05 0.527963 2.96029 0
M  V30 2207 C 201.598 0.484733 3.09224 0
M  V30 2208 C 202.073 0.943512 4.48176 0
M  V30 2209 N 203.564 0.899765 4.54377 0
M  V30 2210 C 204.299 1.22609 5.60138 0
M  V30 2211 N 203.795 1.62319 6.73516 0
M  V30 2212 N 205.588 1.14696 5.50274 0
M  V30 2213 H 197.739 1.36261 1.62931 0
M  V30 2214 H 200.002 0.558887 0.765735 0
M  V30 2215 H 199.708 1.56607 3.14908 0
M  V30 2216 H 199.582 -0.0698056 3.77135 0
M  V30 2217 H 201.969 -0.544298 2.90037 0
M  V30 2218 H 202.05 1.11838 2.30056 0
M  V30 2219 H 201.694 1.9708 4.68104 0
M  V30 2220 H 201.624 0.286817 5.25818 0
M  V30 2221 H 204.115 0.607632 3.72983 0
M  V30 2222 H 204.428 1.85567 7.5019 0
M  V30 2223 H 202.773 1.66211 6.74833 0
M  V30 2224 H 205.964 0.835701 4.6058 0
M  V30 2225 H 206.137 1.40459 6.32594 0
M  V30 2226 N 199.544 -1.57102 0.125237 0
M  V30 2227 C 200.784 -1.97294 -0.534259 0
M  V30 2228 C 201.148 -1.0074 -1.63449 0
M  V30 2229 O 202.349 -1.29893 -2.35332 0
M  V30 2230 C 200.62 -3.41705 -1.04748 0
M  V30 2231 S 202.179 -4.03913 -1.71463 0
M  V30 2232 H 198.997 -0.689517 -0.173458 0
M  V30 2233 H 201.599 -1.94349 0.211797 0
M  V30 2234 H 200.303 -4.09723 -0.235649 0
M  V30 2235 H 199.834 -3.48315 -1.82867 0
M  V30 2236 H 201.849 -3.95182 -3.00077 0
M  V30 2237 N 201.022 0.148545 -1.56898 0
M  V30 2238 C 202.27 0.859717 -1.82902 0
M  V30 2239 C 202.591 1.81775 -0.70588 0
M  V30 2240 O 201.861 1.93994 0.272586 0
M  V30 2241 H 200.441 0.320469 -0.674766 0
M  V30 2242 H 203.103 0.142918 -1.94375 0
M  V30 2243 H 202.199 1.4229 -2.77777 0
M  V30 2244 N 202.5 1.5196 0.417844 0
M  V30 2245 C 203.916 1.40569 0.755816 0
M  V30 2246 C 204.116 0.503316 1.95113 0
M  V30 2247 O 203.172 -0.0341925 2.52477 0
M  V30 2248 C 204.485 2.82947 1.01791 0
M  V30 2249 C 206.033 2.92231 1.12116 0
M  V30 2250 C 206.508 4.35559 1.41608 0
M  V30 2251 N 207.999 4.38753 1.48491 0
M  V30 2252 C 208.734 5.46705 1.7292 0
M  V30 2253 N 208.23 6.64788 1.95011 0
M  V30 2254 N 210.023 5.34209 1.74863 0
M  V30 2255 H 202.174 2.09168 -0.369098 0
M  V30 2256 H 204.437 0.942409 -0.102809 0
M  V30 2257 H 204.143 3.5106 0.212081 0
M  V30 2258 H 204.017 3.23462 1.94042 0
M  V30 2259 H 206.404 2.24304 1.9176 0
M  V30 2260 H 206.485 2.55185 0.177225 0
M  V30 2261 H 206.129 5.04042 0.624848 0
M  V30 2262 H 206.059 4.70133 2.37239 0
M  V30 2263 H 208.55 3.5363 1.33244 0
M  V30 2264 H 208.863 7.42845 2.13076 0
M  V30 2265 H 207.208 6.67869 1.92293 0
M  V30 2266 H 210.399 4.40937 1.57137 0
M  V30 2267 H 210.572 6.18415 1.93563 0
M  V30 2268 N 203.978 -0.674533 1.42435 0
M  V30 2269 C 204.888 -1.81751 1.48337 0
M  V30 2270 C 205.904 -1.69975 0.372099 0
M  V30 2271 O 207.08 -1.91521 0.62304 0
M  V30 2272 C 204.145 -3.17895 1.38361 0
M  V30 2273 C 203.206 -3.41625 2.59982 0
M  V30 2274 C 202.439 -4.71274 2.50473 0
M  V30 2275 O 202.662 -5.49197 1.54075 0
M  V30 2276 O 201.596 -4.96254 3.4061 0
M  V30 2277 H 205.422 -1.79728 2.44809 0
M  V30 2278 H 203.007 -0.830312 1.24202 0
M  V30 2279 H 204.889 -3.99136 1.35161 0
M  V30 2280 H 203.564 -3.20555 0.450144 0
M  V30 2281 H 202.471 -2.60231 2.68757 0
M  V30 2282 H 203.804 -3.43796 3.52229 0
M  V30 2283 N 205.456 -1.28612 -0.910864 0
M  V30 2284 C 206.696 -1.1719 -1.67469 0
M  V30 2285 C 207.06 0.274441 -1.90028 0
M  V30 2286 O 208.261 0.511425 -2.6389 0
M  V30 2287 C 206.532 -1.95137 -2.99427 0
M  V30 2288 S 208.091 -2.00122 -3.90508 0
M  V30 2289 H 204.909 -0.41806 -0.575106 0
M  V30 2290 H 207.511 -1.6275 -1.08317 0
M  V30 2291 H 206.215 -2.99381 -2.80712 0
M  V30 2292 H 205.746 -1.50137 -3.63624 0
M  V30 2293 H 207.761 -1.10981 -4.8363 0
M  V30 2294 N 206.934 1.1197 -1.10907 0
M  V30 2295 C 208.162 1.87402 -0.876824 0
M  V30 2296 C 208.577 1.79894 0.573025 0
M  V30 2297 O 207.934 1.17629 1.39534 0
M  V30 2298 C 207.985 3.36428 -1.32282 0
M  V30 2299 O 207.706 3.43765 -2.71582 0
M  V30 2300 C 209.207 4.28783 -1.12518 0
M  V30 2301 H 206.427 0.592793 -0.314384 0
M  V30 2302 H 208.971 1.41649 -1.47499 0
M  V30 2303 H 207.126 3.79706 -0.768229 0
M  V30 2304 H 207.54 4.3652 -2.90776 0
M  V30 2305 H 209.014 5.31613 -1.48633 0
M  V30 2306 H 209.491 4.39153 -0.0642394 0
M  V30 2307 H 210.097 3.91291 -1.66648 0
M  V30 2308 N 208.412 0.89855 1.29475 0
M  V30 2309 C 209.36 0.365253 2.29714 0
M  V30 2310 C 210.354 -0.534993 1.6073 0
M  V30 2311 O 211.56 -0.417921 1.75081 0
M  V30 2312 H 207.935 0.0994853 0.74539 0
M  V30 2313 H 209.906 1.22406 2.72138 0
M  V30 2314 C 208.655 -0.393159 3.4547 0
M  V30 2315 H 207.978 0.290332 3.98744 0
M  V30 2316 H 209.418 -0.731189 4.17648 0
M  V30 2317 C 207.877 -1.59539 2.9673 0
M  V30 2318 O 208.407 -2.69469 2.97908 0
M  V30 2319 N 206.613 -1.43716 2.52575 0
M  V30 2320 H 206.16 -0.542828 2.51816 0
M  V30 2321 H 206.118 -2.24288 2.20323 0
M  V30 2322 N 209.89 -1.43072 0.660911 0
M  V30 2323 C 210.82 -2.33497 -0.0122829 0
M  V30 2324 C 211.801 -1.49903 -0.803925 0
M  V30 2325 O 212.986 -1.78546 -0.763864 0
M  V30 2326 C 210.116 -3.33363 -0.973994 0
M  V30 2327 C 209.07 -4.27003 -0.291928 0
M  V30 2328 C 208.396 -5.16967 -1.36562 0
M  V30 2329 C 209.696 -5.15816 0.820462 0
M  V30 2330 H 211.39 -2.90038 0.742873 0
M  V30 2331 H 208.936 -1.39461 0.358688 0
M  V30 2332 H 210.889 -3.95524 -1.45392 0
M  V30 2333 H 209.613 -2.75095 -1.7604 0
M  V30 2334 H 208.272 -3.66217 0.167623 0
M  V30 2335 H 207.92 -4.55034 -2.14366 0
M  V30 2336 H 207.62 -5.80441 -0.914454 0
M  V30 2337 H 209.144 -5.82003 -1.84675 0
M  V30 2338 H 210.558 -5.71742 0.422366 0
M  V30 2339 H 208.955 -5.8805 1.19656 0
M  V30 2340 H 210.025 -4.55045 1.67518 0
M  V30 2341 N 211.368 -0.403325 -1.52352 0
M  V30 2342 C 212.315 0.425011 -2.26853 0
M  V30 2343 C 213.285 1.04598 -1.29029 0
M  V30 2344 O 214.47 1.07135 -1.57882 0
M  V30 2345 C 211.61 1.53888 -3.08889 0
M  V30 2346 C 210.723 0.939396 -4.21663 0
M  V30 2347 C 209.858 2.02547 -4.91068 0
M  V30 2348 C 208.897 1.40263 -5.95813 0
M  V30 2349 N 208.034 2.4286 -6.58759 0
M  V30 2350 H 212.874 -0.21674 -2.97211 0
M  V30 2351 H 210.411 -0.118722 -1.4662 0
M  V30 2352 H 212.369 2.19558 -3.54753 0
M  V30 2353 H 210.999 2.15074 -2.40714 0
M  V30 2354 H 210.051 0.171898 -3.80011 0
M  V30 2355 H 211.363 0.44436 -4.96817 0
M  V30 2356 H 210.517 2.75958 -5.40308 0
M  V30 2357 H 209.256 2.55415 -4.15469 0
M  V30 2358 H 208.261 0.653833 -5.45898 0
M  V30 2359 H 209.486 0.881719 -6.73352 0
M  V30 2360 H 207.432 2.94871 -5.85992 0
M  V30 2361 H 207.349 1.98152 -7.2957 0
M  V30 2362 H 208.617 3.15858 -7.12639 0
M  V30 2363 N 212.846 1.57033 -0.133567 0
M  V30 2364 C 213.809 2.14897 0.796995 0
M  V30 2365 C 214.809 1.0874 1.18458 0
M  V30 2366 O 215.999 1.34446 1.1077 0
M  V30 2367 C 213.131 2.70112 2.07973 0
M  V30 2368 H 214.324 2.98457 0.293873 0
M  V30 2369 H 211.877 1.55871 0.115787 0
M  V30 2370 H 212.612 1.9018 2.62682 0
M  V30 2371 H 212.397 3.47764 1.81115 0
M  V30 2372 H 213.887 3.14738 2.74462 0
M  V30 2373 N 214.325 -0.140222 1.56975 0
M  V30 2374 C 215.288 -1.15689 1.97861 0
M  V30 2375 C 216.288 -1.3549 0.865974 0
M  V30 2376 O 217.478 -1.32367 1.13246 0
M  V30 2377 C 214.61 -2.51582 2.30042 0
M  V30 2378 H 215.803 -0.805971 2.88867 0
M  V30 2379 H 213.356 -0.383801 1.51515 0
M  V30 2380 H 214.091 -2.91632 1.41849 0
M  V30 2381 H 213.876 -2.38569 3.11171 0
M  V30 2382 H 215.366 -3.24792 2.62488 0
M  V30 2383 N 215.803 -1.52179 -0.40978 0
M  V30 2384 C 216.733 -1.78435 -1.5061 0
M  V30 2385 C 217.714 -0.635295 -1.57791 0
M  V30 2386 O 218.899 -0.880823 -1.73076 0
M  V30 2387 C 216.029 -1.93444 -2.88439 0
M  V30 2388 C 214.983 -3.09038 -2.96108 0
M  V30 2389 C 214.309 -3.09268 -4.36185 0
M  V30 2390 C 215.609 -4.48508 -2.67652 0
M  V30 2391 H 217.303 -2.70237 -1.28889 0
M  V30 2392 H 214.849 -1.30036 -0.618605 0
M  V30 2393 H 216.802 -2.10394 -3.65119 0
M  V30 2394 H 215.526 -0.983129 -3.11452 0
M  V30 2395 H 214.185 -2.91837 -2.21872 0
M  V30 2396 H 213.833 -2.11861 -4.56206 0
M  V30 2397 H 213.533 -3.86907 -4.42241 0
M  V30 2398 H 215.057 -3.28348 -5.14801 0
M  V30 2399 H 216.471 -4.65918 -3.34056 0
M  V30 2400 H 214.868 -5.28059 -2.85085 0
M  V30 2401 H 215.938 -4.56649 -1.63095 0
M  V30 2402 N 217.281 0.66697 -1.42791 0
M  V30 2403 C 218.697 0.981027 -1.25889 0
M  V30 2404 C 218.897 2.00793 -0.168695 0
M  V30 2405 O 217.953 2.48321 0.45747 0
M  V30 2406 C 219.266 1.47838 -2.61848 0
M  V30 2407 C 220.814 1.59575 -2.69267 0
M  V30 2408 C 221.289 2.12704 -4.05612 0
M  V30 2409 N 222.78 2.20026 -4.07606 0
M  V30 2410 C 223.515 2.62227 -5.09926 0
M  V30 2411 N 223.011 3.03824 -6.22626 0
M  V30 2412 N 224.804 2.62045 -4.97281 0
M  V30 2413 H 216.955 -0.0127891 -2.12396 0
M  V30 2414 H 219.218 0.0568258 -0.946295 0
M  V30 2415 H 218.924 0.798299 -3.4252 0
M  V30 2416 H 218.798 2.45579 -2.86305 0
M  V30 2417 H 221.185 2.26687 -1.88936 0
M  V30 2418 H 221.266 0.60302 -2.48591 0
M  V30 2419 H 220.91 1.46198 -4.86404 0
M  V30 2420 H 220.84 3.12782 -4.23645 0
M  V30 2421 H 223.331 1.90708 -3.2625 0
M  V30 2422 H 223.644 3.34734 -6.96544 0
M  V30 2423 H 221.989 3.01662 -6.26119 0
M  V30 2424 H 225.18 2.28916 -4.08308 0
M  V30 2425 H 225.353 2.94613 -5.77154 0
M  V30 2426 N 218.759 1.29093 0.90403 0
M  V30 2427 C 219.691 1.09658 2.01266 0
M  V30 2428 C 220.704 0.0453729 1.62737 0
M  V30 2429 O 221.893 0.289446 1.76138 0
M  V30 2430 C 218.993 0.646278 3.32681 0
M  V30 2431 C 218.166 1.77505 3.99763 0
M  V30 2432 C 217.225 1.31649 5.09465 0
M  V30 2433 O 216.251 2.02045 5.32134 0
M  V30 2434 N 217.453 0.184997 5.80205 0
M  V30 2435 H 220.218 2.05135 2.18494 0
M  V30 2436 H 217.779 1.20975 1.07594 0
M  V30 2437 H 219.771 0.322906 4.0341 0
M  V30 2438 H 218.341 -0.215916 3.11853 0
M  V30 2439 H 217.561 2.26752 3.22455 0
M  V30 2440 H 218.849 2.53198 4.41325 0
M  V30 2441 H 218.247 -0.402021 5.6427 0
M  V30 2442 H 216.804 -0.0790358 6.51752 0
M  V30 2443 N 220.237 -1.11381 1.11499 0
M  V30 2444 C 221.147 -2.21019 0.786628 0
M  V30 2445 C 222.163 -1.72597 -0.220507 0
M  V30 2446 O 223.339 -2.01321 -0.0565251 0
M  V30 2447 C 220.404 -3.459 0.235333 0
M  V30 2448 C 219.465 -4.09107 1.30115 0
M  V30 2449 C 218.698 -5.28027 0.776068 0
M  V30 2450 O 218.921 -5.6904 -0.393661 0
M  V30 2451 O 217.855 -5.81835 1.54114 0
M  V30 2452 H 221.681 -2.51521 1.70209 0
M  V30 2453 H 219.266 -1.19928 0.890928 0
M  V30 2454 H 221.148 -4.21346 -0.067715 0
M  V30 2455 H 219.823 -3.17049 -0.652828 0
M  V30 2456 H 218.73 -3.35391 1.65722 0
M  V30 2457 H 220.063 -4.42139 2.16273 0
M  V30 2458 N 221.715 -0.905404 -1.28997 0
M  V30 2459 C 222.962 -0.534248 -1.95325 0
M  V30 2460 C 223.29 0.920535 -1.71337 0
M  V30 2461 O 222.545 1.66861 -1.02254 0
M  V30 2462 C 222.844 -0.779906 -3.48787 0
M  V30 2463 C 222.51 -2.21293 -3.92861 0
M  V30 2464 C 221.172 -2.60475 -4.04606 0
M  V30 2465 C 223.524 -3.14587 -4.15553 0
M  V30 2466 C 220.852 -3.9212 -4.36416 0
M  V30 2467 C 223.204 -4.45787 -4.48839 0
M  V30 2468 C 221.868 -4.84834 -4.58794 0
M  V30 2469 H 221.138 -0.195495 -0.714747 0
M  V30 2470 H 223.785 -1.14514 -1.53488 0
M  V30 2471 H 222.09 -0.0861365 -3.91705 0
M  V30 2472 H 223.787 -0.472029 -3.98212 0
M  V30 2473 H 220.377 -1.89887 -3.84241 0
M  V30 2474 H 224.561 -2.85528 -4.0594 0
M  V30 2475 H 219.817 -4.22086 -4.42327 0
M  V30 2476 H 223.991 -5.18098 -4.65346 0
M  V30 2477 H 221.618 -5.86877 -4.83197 0
M  V30 2478 N 223.193 1.4272 -0.668489 0
M  V30 2479 C 224.418 2.06484 -0.194758 0
M  V30 2480 C 224.843 1.49862 1.13679 0
M  V30 2481 O 224.201 0.614582 1.70565 0
M  V30 2482 C 224.249 3.60353 -0.133546 0
M  V30 2483 O 223.353 4.02464 0.899806 0
M  V30 2484 H 222.694 0.656137 -0.10188 0
M  V30 2485 H 225.224 1.82964 -0.915722 0
M  V30 2486 H 225.234 4.07976 0.0447041 0
M  V30 2487 H 223.909 4.00938 -1.1055 0
M  V30 2488 H 222.486 3.66402 0.693109 0
M  V30 2489 N 224.671 0.411399 1.52136 0
M  V30 2490 C 225.619 -0.427633 2.28635 0
M  V30 2491 C 226.613 -1.04383 1.33419 0
M  V30 2492 O 227.819 -0.981772 1.50868 0
M  V30 2493 H 224.194 -0.156689 0.735495 0
M  V30 2494 H 226.165 0.238761 2.97443 0
M  V30 2495 C 224.914 -1.53082 3.12188 0
M  V30 2496 H 224.237 -1.06601 3.85326 0
M  V30 2497 H 225.677 -2.09167 3.68816 0
M  V30 2498 C 224.136 -2.49946 2.25895 0
M  V30 2499 O 224.666 -3.53884 1.90076 0
M  V30 2500 N 222.872 -2.2021 1.8962 0
M  V30 2501 H 222.419 -1.35719 2.18948 0
M  V30 2502 H 222.377 -2.85266 1.32176 0
M  V30 2503 N 226.149 -1.5696 0.141893 0
M  V30 2504 C 227.079 -2.19516 -0.795936 0
M  V30 2505 C 228.06 -1.14187 -1.26077 0
M  V30 2506 O 229.245 -1.42511 -1.31925 0
M  V30 2507 C 226.375 -2.81272 -2.03723 0
M  V30 2508 C 225.329 -3.92384 -1.70936 0
M  V30 2509 C 224.655 -4.41052 -3.02287 0
M  V30 2510 C 225.955 -5.13403 -0.959954 0
M  V30 2511 H 227.649 -2.98138 -0.274596 0
M  V30 2512 H 225.195 -1.43406 -0.130636 0
M  V30 2513 H 227.148 -3.237 -2.69808 0
M  V30 2514 H 225.872 -1.99973 -2.58221 0
M  V30 2515 H 224.531 -3.50566 -1.07232 0
M  V30 2516 H 224.179 -3.56582 -3.54765 0
M  V30 2517 H 223.879 -5.15993 -2.81114 0
M  V30 2518 H 225.403 -4.86146 -3.69451 0
M  V30 2519 H 226.817 -5.52706 -1.52279 0
M  V30 2520 H 225.214 -5.94073 -0.848357 0
M  V30 2521 H 226.284 -4.84875 0.0492434 0
M  V30 2522 N 227.627 0.131896 -1.57047 0
M  V30 2523 C 228.537 1.1815 -2.02676 0
M  V30 2524 C 229.553 1.46113 -0.944824 0
M  V30 2525 O 230.729 1.57485 -1.25541 0
M  V30 2526 C 227.794 2.49139 -2.41103 0
M  V30 2527 C 226.855 2.28688 -3.63318 0
M  V30 2528 C 226.088 3.53431 -3.99903 0
M  V30 2529 O 226.311 4.60223 -3.36973 0
M  V30 2530 O 225.245 3.45198 -4.93074 0
M  V30 2531 H 229.071 0.824069 -2.92306 0
M  V30 2532 H 226.656 0.341745 -1.45439 0
M  V30 2533 H 228.538 3.26338 -2.66611 0
M  V30 2534 H 227.213 2.84382 -1.54624 0
M  V30 2535 H 226.12 1.4939 -3.42977 0
M  V30 2536 H 227.453 1.98355 -4.50462 0
M  V30 2537 N 229.106 1.52395 0.401703 0
M  V30 2538 C 230.016 1.7917 1.51444 0
M  V30 2539 C 231.032 0.677691 1.6026 0
M  V30 2540 O 232.208 0.963909 1.76835 0
M  V30 2541 C 229.273 1.94347 2.87107 0
M  V30 2542 C 228.334 3.18257 2.88116 0
M  V30 2543 C 227.567 3.32701 4.17308 0
M  V30 2544 O 227.79 2.52238 5.11598 0
M  V30 2545 O 226.724 4.25891 4.25324 0
M  V30 2546 H 230.55 2.73633 1.31752 0
M  V30 2547 H 228.135 1.3733 0.588296 0
M  V30 2548 H 230.017 2.06109 3.67555 0
M  V30 2549 H 228.692 1.03073 3.06851 0
M  V30 2550 H 227.599 3.11947 2.06494 0
M  V30 2551 H 228.932 4.09336 2.73322 0
M  V30 2552 N 230.584 -0.659388 1.43143 0
M  V30 2553 C 231.833 -1.41518 1.43721 0
M  V30 2554 C 232.146 -1.95499 0.0628176 0
M  V30 2555 O 233.352 -2.71446 -0.0539683 0
M  V30 2556 C 231.808 -2.5608 2.52885 0
M  V30 2557 C 231.416 -2.08733 3.96402 0
M  V30 2558 C 233.16 -3.3349 2.62649 0
M  V30 2559 C 231.067 -3.20469 4.97045 0
M  V30 2560 H 229.997 -0.531705 0.534608 0
M  V30 2561 H 232.648 -0.712343 1.69109 0
M  V30 2562 H 231.03 -3.28805 2.20688 0
M  V30 2563 H 232.204 -1.43059 4.3803 0
M  V30 2564 H 230.519 -1.44219 3.90627 0
M  V30 2565 H 233.116 -4.16734 3.35017 0
M  V30 2566 H 233.459 -3.8111 1.67513 0
M  V30 2567 H 233.992 -2.67842 2.94118 0
M  V30 2568 H 230.731 -2.77824 5.93712 0
M  V30 2569 H 230.251 -3.84874 4.60034 0
M  V30 2570 H 231.93 -3.85698 5.19467 0
M  V30 2571 N 232.062 -1.29571 -0.897171 0
M  V30 2572 C 232.992 -1.17473 -2.01798 0
M  V30 2573 C 233.973 -0.068323 -1.69963 0
M  V30 2574 O 235.158 -0.248239 -1.92607 0
M  V30 2575 C 232.288 -0.853099 -3.36659 0
M  V30 2576 C 231.242 -1.9161 -3.82713 0
M  V30 2577 C 230.568 -1.44773 -5.14728 0
M  V30 2578 C 231.868 -3.32535 -4.02763 0
M  V30 2579 H 233.562 -2.11237 -2.12177 0
M  V30 2580 H 231.108 -1.01699 -1.01948 0
M  V30 2581 H 233.061 -0.755165 -4.14578 0
M  V30 2582 H 231.785 0.120236 -3.26379 0
M  V30 2583 H 230.444 -2.00346 -3.07013 0
M  V30 2584 H 230.092 -0.462995 -5.00865 0
M  V30 2585 H 229.792 -2.15865 -5.46513 0
M  V30 2586 H 231.316 -1.36334 -5.95185 0
M  V30 2587 H 232.73 -3.26626 -4.71156 0
M  V30 2588 H 231.127 -4.01607 -4.45905 0
M  V30 2589 H 232.197 -3.75326 -3.07016 0
M  V30 2590 N 233.54 1.10788 -1.12088 0
M  V30 2591 C 234.45 2.20599 -0.798338 0
M  V30 2592 C 235.466 1.72712 0.21135 0
M  V30 2593 O 236.642 2.01348 0.0458477 0
M  V30 2594 C 233.707 3.45771 -0.253674 0
M  V30 2595 C 232.768 4.08411 -1.32283 0
M  V30 2596 C 232.001 5.27608 -0.80406 0
M  V30 2597 O 232.224 5.69241 0.363478 0
M  V30 2598 O 231.158 5.8101 -1.57198 0
M  V30 2599 H 234.984 2.50614 -1.7154 0
M  V30 2600 H 232.569 1.19454 -0.897275 0
M  V30 2601 H 234.451 4.21376 0.0453691 0
M  V30 2602 H 233.126 3.1739 0.636005 0
M  V30 2603 H 232.033 3.34507 -1.67499 0
M  V30 2604 H 233.366 4.40986 -2.18614 0
M  V30 2605 N 235.018 0.912232 1.28515 0
M  V30 2606 C 236.248 0.559604 1.98877 0
M  V30 2607 C 236.656 -0.863113 1.68366 0
M  V30 2608 O 235.999 -1.58304 0.931969 0
M  V30 2609 C 236.061 0.68703 3.52874 0
M  V30 2610 C 235.725 2.07901 4.06972 0
M  V30 2611 C 236.722 3.05157 4.20922 0
M  V30 2612 C 234.407 2.39178 4.417 0
M  V30 2613 C 236.401 4.31806 4.68852 0
M  V30 2614 C 234.088 3.66068 4.89324 0
M  V30 2615 C 235.086 4.62195 5.02856 0
M  V30 2616 O 234.774 5.86829 5.49442 0
M  V30 2617 H 234.506 0.212191 0.641834 0
M  V30 2618 H 237.06 1.22712 1.64715 0
M  V30 2619 H 235.29 -0.0375486 3.86682 0
M  V30 2620 H 236.979 0.341727 4.04459 0
M  V30 2621 H 237.745 2.82311 3.94367 0
M  V30 2622 H 233.624 1.65109 4.30418 0
M  V30 2623 H 237.168 5.06842 4.79329 0
M  V30 2624 H 233.065 3.88739 5.15318 0
M  V30 2625 H 233.833 5.89597 5.6773 0
M  V30 2626 N 236.496 -1.42363 0.676048 0
M  V30 2627 C 237.428 -2.29164 -0.0404605 0
M  V30 2628 C 238.441 -1.43747 -0.764245 0
M  V30 2629 O 239.63 -1.67453 -0.618195 0
M  V30 2630 C 236.73 -3.21196 -1.08103 0
M  V30 2631 C 235.903 -4.35273 -0.430812 0
M  V30 2632 C 234.962 -5.08017 -1.37133 0
M  V30 2633 O 233.988 -5.62494 -0.87116 0
M  V30 2634 N 235.19 -5.13647 -2.70456 0
M  V30 2635 H 237.955 -2.91298 0.704667 0
M  V30 2636 H 235.516 -1.53303 0.520559 0
M  V30 2637 H 237.508 -3.66728 -1.71152 0
M  V30 2638 H 236.078 -2.60505 -1.72788 0
M  V30 2639 H 235.298 -3.92372 0.379209 0
M  V30 2640 H 236.586 -5.08795 0.0221132 0
M  V30 2641 H 235.984 -4.708 -3.1363 0
M  V30 2642 H 234.541 -5.62821 -3.28749 0
M  V30 2643 N 237.974 -0.419461 -1.51915 0
M  V30 2644 C 238.922 0.415502 -2.28859 0
M  V30 2645 C 239.916 1.03674 -1.3397 0
M  V30 2646 O 241.122 0.973757 -1.51387 0
M  V30 2647 H 237.497 0.152786 -0.736315 0
M  V30 2648 H 239.468 -0.254531 -2.97312 0
M  V30 2649 C 238.217 1.51425 -3.12995 0
M  V30 2650 H 237.54 1.04556 -3.85886 0
M  V30 2651 H 238.98 2.07208 -3.6992 0
M  V30 2652 C 237.439 2.48745 -2.27217 0
M  V30 2653 O 237.969 3.52871 -1.9195 0
M  V30 2654 N 236.175 2.19202 -1.90785 0
M  V30 2655 H 235.722 1.34556 -2.19664 0
M  V30 2656 H 235.68 2.84561 -1.33687 0
M  V30 2657 N 239.452 1.56882 -0.150215 0
M  V30 2658 C 240.68 2.00593 0.506948 0
M  V30 2659 C 241.095 1.03033 1.58208 0
M  V30 2660 O 240.452 0.0278396 1.82479 0
M  V30 2661 C 240.503 3.44209 1.10465 0
M  V30 2662 O 240.224 4.3804 0.0724636 0
M  V30 2663 C 241.725 4.03214 1.84211 0
M  V30 2664 H 238.945 0.65795 0.13169 0
M  V30 2665 H 241.489 2.03018 -0.245743 0
M  V30 2666 H 239.644 3.42625 1.80795 0
M  V30 2667 H 240.058 5.22007 0.510793 0
M  V30 2668 H 241.532 5.0569 2.21318 0
M  V30 2669 H 242.009 3.44107 2.72923 0
M  V30 2670 H 242.615 4.08437 1.18572 0
M  V30 2671 N 240.93 -0.123565 1.57115 0
M  V30 2672 C 242.158 -0.846461 1.88793 0
M  V30 2673 C 242.573 -1.73652 0.740976 0
M  V30 2674 O 241.93 -1.80207 -0.288393 0
M  V30 2675 C 241.981 -1.6837 3.19897 0
M  V30 2676 O 241.702 -0.829477 4.30176 0
M  V30 2677 C 243.203 -2.51214 3.65248 0
M  V30 2678 H 240.423 -0.243573 0.625231 0
M  V30 2679 H 242.967 -0.109324 2.04208 0
M  V30 2680 H 241.122 -2.37364 3.06165 0
M  V30 2681 H 241.536 -1.40651 5.0529 0
M  V30 2682 H 243.01 -3.05497 4.59756 0
M  V30 2683 H 243.487 -3.28359 2.9168 0
M  V30 2684 H 244.093 -1.8747 3.81752 0
M  V30 2685 N 242.408 -1.52605 -0.393616 0
M  V30 2686 C 243.655 -1.67424 -1.1391 0
M  V30 2687 C 243.983 -0.411859 -1.90089 0
M  V30 2688 O 243.238 0.605626 -1.86093 0
M  V30 2689 C 243.537 -2.85721 -2.14705 0
M  V30 2690 C 243.203 -4.23342 -1.55218 0
M  V30 2691 C 241.865 -4.60771 -1.3872 0
M  V30 2692 C 244.217 -5.09041 -1.11924 0
M  V30 2693 C 241.545 -5.81563 -0.774689 0
M  V30 2694 C 243.897 -6.30452 -0.520853 0
M  V30 2695 C 242.561 -6.66617 -0.343134 0
M  V30 2696 H 241.831 -0.612648 -0.416826 0
M  V30 2697 H 244.478 -1.8674 -0.424315 0
M  V30 2698 H 242.783 -2.60803 -2.92385 0
M  V30 2699 H 244.48 -2.94382 -2.72288 0
M  V30 2700 H 241.07 -3.93855 -1.69045 0
M  V30 2701 H 245.254 -4.80695 -1.23473 0
M  V30 2702 H 240.51 -6.08196 -0.625154 0
M  V30 2703 H 244.684 -6.96175 -0.177065 0
M  V30 2704 H 242.311 -7.60083 0.133571 0
M  V30 2705 N 243.887 0.651787 -1.4349 0
M  V30 2706 C 245.134 1.41167 -1.45183 0
M  V30 2707 C 245.462 1.94349 -0.0766601 0
M  V30 2708 O 244.717 1.72804 0.918555 0
M  V30 2709 C 245.016 2.60914 -2.44251 0
M  V30 2710 C 244.682 2.26142 -3.9009 0
M  V30 2711 C 243.344 2.16371 -4.2981 0
M  V30 2712 C 245.696 1.98334 -4.81989 0
M  V30 2713 C 243.024 1.7695 -5.5938 0
M  V30 2714 C 245.376 1.6041 -6.11924 0
M  V30 2715 C 244.04 1.49166 -6.5062 0
M  V30 2716 H 243.31 0.516566 -0.531263 0
M  V30 2717 H 245.957 0.741099 -1.76579 0
M  V30 2718 H 244.262 3.3311 -2.06265 0
M  V30 2719 H 245.959 3.19127 -2.42815 0
M  V30 2720 H 242.549 2.34658 -3.58655 0
M  V30 2721 H 246.733 2.04803 -4.52072 0
M  V30 2722 H 241.989 1.66831 -5.88198 0
M  V30 2723 H 246.163 1.37925 -6.82605 0
M  V30 2724 H 243.79 1.1839 -7.50925 0
M  V30 2725 N 245.365 1.30045 0.890287 0
M  V30 2726 C 246.613 1.18327 1.63839 0
M  V30 2727 C 246.934 -0.263455 1.93212 0
M  V30 2728 O 246.204 -1.17856 1.56482 0
M  V30 2729 H 244.784 0.434933 0.607324 0
M  V30 2730 H 247.446 1.631 1.06698 0
M  V30 2731 H 246.542 1.74024 2.59079 0
M  V30 2732 N 246.843 -1.10192 1.12674 0
M  V30 2733 C 248.091 -1.81845 0.881861 0
M  V30 2734 C 248.412 -1.85737 -0.593867 0
M  V30 2735 O 247.682 -1.33724 -1.4316 0
M  V30 2736 H 246.262 -0.673432 0.323261 0
M  V30 2737 H 248.924 -1.33316 1.42172 0
M  V30 2738 H 248.02 -2.85288 1.2656 0
M  V30 2739 N 248.321 -0.919034 -1.28029 0
M  V30 2740 C 249.549 -0.570971 -1.98866 0
M  V30 2741 C 249.964 0.848996 -1.68634 0
M  V30 2742 O 249.321 1.56307 -0.942036 0
M  V30 2743 C 249.372 -0.776876 -3.53054 0
M  V30 2744 O 249.093 -2.14097 -3.82222 0
M  V30 2745 C 250.594 -0.436356 -4.41147 0
M  V30 2746 H 247.814 -0.217175 -0.634883 0
M  V30 2747 H 250.358 -1.23368 -1.63097 0
M  V30 2748 H 248.513 -0.161085 -3.87065 0
M  V30 2749 H 248.927 -2.18455 -4.76841 0
M  V30 2750 H 250.401 -0.63117 -5.4838 0
M  V30 2751 H 250.878 0.627686 -4.34692 0
M  V30 2752 H 251.484 -1.02991 -4.12641 0
M  V30 2753 N 249.799 1.42003 -0.683588 0
M  V30 2754 C 251.039 2.03282 -0.213513 0
M  V30 2755 C 251.403 1.52924 1.16097 0
M  V30 2756 O 252.604 2.06048 1.7262 0
M  V30 2757 C 250.875 3.56483 -0.255856 0
M  V30 2758 S 252.434 4.3857 0.14193 0
M  V30 2759 H 249.252 0.705659 -0.0869853 0
M  V30 2760 H 251.854 1.73619 -0.8987 0
M  V30 2761 H 250.558 3.90631 -1.25841 0
M  V30 2762 H 250.089 3.90831 0.448875 0
M  V30 2763 H 252.104 4.76828 1.37295 0
M  V30 2764 N 251.277 0.427512 1.51691 0
M  V30 2765 C 252.526 -0.143679 2.01188 0
M  V30 2766 C 252.839 -1.44642 1.31674 0
M  V30 2767 O 254.045 -2.09997 1.72086 0
M  V30 2768 C 252.501 -0.306602 3.58592 0
M  V30 2769 C 252.109 0.985125 4.37035 0
M  V30 2770 C 253.853 -0.832091 4.16265 0
M  V30 2771 C 251.76 0.788382 5.86122 0
M  V30 2772 H 250.69 -0.0574701 0.751807 0
M  V30 2773 H 253.341 0.555772 1.74881 0
M  V30 2774 H 251.723 -1.06882 3.81303 0
M  V30 2775 H 252.897 1.75492 4.26074 0
M  V30 2776 H 251.212 1.4384 3.90767 0
M  V30 2777 H 253.809 -0.995617 5.25349 0
M  V30 2778 H 254.152 -1.81186 3.74803 0
M  V30 2779 H 254.685 -0.128444 3.97593 0
M  V30 2780 H 251.424 1.74025 6.31978 0
M  V30 2781 H 250.944 0.0582143 5.99772 0
M  V30 2782 H 252.623 0.437722 6.45518 0
M  V30 2783 N 252.755 -1.56801 0.158532 0
M  V30 2784 C 253.98 -2.01295 -0.499516 0
M  V30 2785 C 254.405 -1.03799 -1.56867 0
M  V30 2786 O 253.763 -0.0155162 -1.81293 0
M  V30 2787 C 253.811 -3.44469 -1.06647 0
M  V30 2788 O 252.915 -3.50012 -2.18095 0
M  V30 2789 H 252.256 -0.652884 -0.12099 0
M  V30 2790 H 254.786 -2.02958 0.258661 0
M  V30 2791 H 254.796 -3.8351 -1.39227 0
M  V30 2792 H 253.471 -4.14932 -0.283581 0
M  V30 2793 H 252.048 -3.22822 -1.86656 0
M  V30 2794 N 254.233 0.115231 -1.57178 0
M  V30 2795 C 255.166 1.17166 -1.95825 0
M  V30 2796 C 256.144 1.39912 -0.828463 0
M  V30 2797 O 257.328 1.54004 -1.08697 0
M  V30 2798 C 254.455 2.52478 -2.25771 0
M  V30 2799 C 253.501 2.46136 -3.48309 0
M  V30 2800 S 254.334 1.89736 -5.0076 0
M  V30 2801 C 255.49 3.26713 -5.33863 0
M  V30 2802 H 255.723 0.842103 -2.85124 0
M  V30 2803 H 253.256 0.322136 -1.51002 0
M  V30 2804 H 255.214 3.30332 -2.43702 0
M  V30 2805 H 253.875 2.82609 -1.37079 0
M  V30 2806 H 253.068 3.45819 -3.66641 0
M  V30 2807 H 252.67 1.76404 -3.29784 0
M  V30 2808 H 254.962 4.22935 -5.29275 0
M  V30 2809 H 255.905 3.13205 -6.35065 0
M  V30 2810 H 256.313 3.25316 -4.61335 0
M  V30 2811 N 255.711 1.52812 0.385517 0
M  V30 2812 C 256.96 1.67249 1.12741 0
M  V30 2813 C 257.273 0.4205 1.91027 0
M  V30 2814 O 258.479 0.445064 2.67827 0
M  V30 2815 C 256.935 2.95583 2.05326 0
M  V30 2816 C 256.543 4.27974 1.32447 0
M  V30 2817 C 258.287 3.19386 2.7963 0
M  V30 2818 C 256.194 5.47412 2.23818 0
M  V30 2819 H 255.124 0.6231 0.424573 0
M  V30 2820 H 257.775 1.79309 0.389924 0
M  V30 2821 H 256.157 2.77277 2.82725 0
M  V30 2822 H 257.331 4.56844 0.602495 0
M  V30 2823 H 255.646 4.10459 0.700885 0
M  V30 2824 H 258.243 4.05801 3.48181 0
M  V30 2825 H 258.586 2.34604 3.43899 0
M  V30 2826 H 259.119 3.38274 2.09322 0
M  V30 2827 H 255.858 6.34612 1.64157 0
M  V30 2828 H 255.378 5.22849 2.93921 0
M  V30 2829 H 257.057 5.81423 2.83824 0
M  V30 2830 N 257.189 -0.644168 1.43834 0
M  V30 2831 C 258.466 -1.40188 1.36406 0
M  V30 2832 C 258.846 -2.11094 0.0163124 0
M  V30 2833 O 258.194 -2.05426 -1.00062 0
M  V30 2834 C 258.404 -2.3791 2.55343 0
M  V30 2835 C 259.752 -3.01637 2.98832 0
M  V30 2836 O 260.776 -2.48237 2.55455 0
M  V30 2837 O 259.635 -3.98477 3.74003 0
M  V30 2838 H 256.729 -0.626773 0.539523 0
M  V30 2839 H 259.275 -0.670317 1.559 0
M  V30 2840 H 258.047 -1.84525 3.4506 0
M  V30 2841 H 257.67 -3.18503 2.37995 0
M  V30 2842 N 258.668 -1.30515 -0.883378 0
M  V30 2843 C 259.898 -1.22182 -1.66599 0
M  V30 2844 C 260.306 0.217507 -1.87946 0
M  V30 2845 O 259.649 1.1554 -1.42815 0
M  V30 2846 C 259.711 -1.88146 -3.06335 0
M  V30 2847 C 259.375 -3.37476 -3.08154 0
M  V30 2848 C 260.372 -4.33443 -2.87094 0
M  V30 2849 C 258.057 -3.7895 -3.29701 0
M  V30 2850 C 260.051 -5.68858 -2.8754 0
M  V30 2851 C 257.738 -5.14482 -3.29776 0
M  V30 2852 C 258.736 -6.09246 -3.0872 0
M  V30 2853 O 258.424 -7.42302 -3.08615 0
M  V30 2854 H 258.156 -0.423898 -0.52658 0
M  V30 2855 H 260.71 -1.72703 -1.11188 0
M  V30 2856 H 258.94 -1.32157 -3.63416 0
M  V30 2857 H 260.629 -1.7391 -3.66756 0
M  V30 2858 H 261.395 -4.02733 -2.70243 0
M  V30 2859 H 257.274 -3.05631 -3.45124 0
M  V30 2860 H 260.818 -6.428 -2.71024 0
M  V30 2861 H 256.715 -5.44832 -3.46163 0
M  V30 2862 H 257.483 -7.5131 -3.24769 0
M  V30 2863 N 260.146 1.09593 -1.13257 0
M  V30 2864 C 261.076 2.18214 -0.830946 0
M  V30 2865 C 262.057 1.68812 0.208966 0
M  V30 2866 O 263.242 1.9408 0.0682666 0
M  V30 2867 C 260.372 3.46051 -0.294296 0
M  V30 2868 C 259.326 4.08778 -1.26826 0
M  V30 2869 C 258.652 5.31419 -0.591449 0
M  V30 2870 C 259.952 4.51476 -2.62615 0
M  V30 2871 H 261.646 2.43703 -1.73923 0
M  V30 2872 H 259.192 1.17128 -0.837675 0
M  V30 2873 H 261.145 4.2134 -0.0709606 0
M  V30 2874 H 259.869 3.20079 0.649366 0
M  V30 2875 H 258.528 3.35505 -1.47756 0
M  V30 2876 H 258.176 5.01727 0.357633 0
M  V30 2877 H 257.876 5.74341 -1.24123 0
M  V30 2878 H 259.4 6.09433 -0.377355 0
M  V30 2879 H 260.814 5.17999 -2.45663 0
M  V30 2880 H 259.211 5.05277 -3.23752 0
M  V30 2881 H 260.281 3.63962 -3.20406 0
M  V30 2882 N 261.624 0.925811 1.2754 0
M  V30 2883 C 262.554 0.440748 2.29303 0
M  V30 2884 C 263.535 -0.497971 1.62648 0
M  V30 2885 O 264.72 -0.403126 1.8997 0
M  V30 2886 C 261.85 -0.309048 3.45922 0
M  V30 2887 C 260.804 0.54166 4.24559 0
M  V30 2888 C 260.13 -0.337191 5.33636 0
M  V30 2889 C 261.43 1.80516 4.90114 0
M  V30 2890 H 263.124 1.29121 2.70126 0
M  V30 2891 H 260.67 0.622323 1.29858 0
M  V30 2892 H 262.623 -0.659315 4.1621 0
M  V30 2893 H 261.347 -1.19352 3.04011 0
M  V30 2894 H 260.006 0.874609 3.56014 0
M  V30 2895 H 259.654 -1.22056 4.87966 0
M  V30 2896 H 259.354 0.228497 5.87156 0
M  V30 2897 H 260.878 -0.683072 6.06767 0
M  V30 2898 H 262.292 1.52307 5.52698 0
M  V30 2899 H 260.689 2.3142 5.53683 0
M  V30 2900 H 261.759 2.52581 4.13921 0
M  V30 2901 N 263.102 -1.41638 0.69111 0
M  V30 2902 C 264.348 -2.02104 0.229258 0
M  V30 2903 C 264.703 -1.53741 -1.15678 0
M  V30 2904 O 263.996 -0.736849 -1.76865 0
M  V30 2905 C 264.19 -3.56714 0.221277 0
M  V30 2906 C 264.019 -4.20083 1.605 0
M  V30 2907 C 262.789 -4.54566 2.20676 0
M  V30 2908 C 264.987 -4.46587 2.55078 0
M  V30 2909 N 262.969 -5.03199 3.5166 0
M  V30 2910 C 264.34 -4.96946 3.70735 0
M  V30 2911 C 266.395 -4.28593 2.53401 0
M  V30 2912 C 265.098 -5.31203 4.8499 0
M  V30 2913 C 267.124 -4.63936 3.66765 0
M  V30 2914 C 266.486 -5.14463 4.81152 0
M  V30 2915 H 262.585 -0.771256 0.12918 0
M  V30 2916 H 265.169 -1.72251 0.907626 0
M  V30 2917 H 263.34 -3.86051 -0.426562 0
M  V30 2918 H 265.072 -4.03896 -0.254983 0
M  V30 2919 H 261.827 -4.4087 1.73005 0
M  V30 2920 H 262.251 -5.31926 4.18789 0
M  V30 2921 H 266.893 -3.88771 1.66184 0
M  V30 2922 H 264.611 -5.69951 5.72871 0
M  V30 2923 H 268.197 -4.51677 3.66714 0
M  V30 2924 H 267.077 -5.41299 5.67419 0
M  V30 2925 N 264.58 -0.43555 -1.51462 0
M  V30 2926 C 265.991 0.0279871 -1.86679 0
M  V30 2927 C 266.342 1.42104 -1.35281 0
M  V30 2928 O 265.467 2.04667 -0.702878 0
M  V30 2929 C 266.062 0.0575626 -3.38751 0
M  V30 2930 C 264.621 0.465507 -3.7351 0
M  V30 2931 C 263.768 -0.342996 -2.75171 0
M  V30 2932 H 266.719 -0.651473 -1.44712 0
M  V30 2933 H 266.74 0.867421 -3.70481 0
M  V30 2934 H 266.252 -0.956448 -3.7613 0
M  V30 2935 H 264.353 1.48519 -3.41721 0
M  V30 2936 H 264.466 0.191546 -4.78717 0
M  V30 2937 H 262.83 0.198442 -2.53926 0
M  V30 2938 H 263.613 -1.35585 -3.15391 0
M  V30 2939 N 266.058 1.56714 -0.166846 0
M  V30 2940 C 267.304 1.97813 0.473473 0
M  V30 2941 C 267.659 1.05095 1.61161 0
M  V30 2942 O 266.952 0.0897541 1.9139 0
M  V30 2943 C 267.146 3.42889 1.00806 0
M  V30 2944 C 266.975 4.49635 -0.0767392 0
M  V30 2945 C 265.745 5.02566 -0.524894 0
M  V30 2946 C 267.943 5.06793 -0.875504 0
M  V30 2947 N 265.925 5.9294 -1.59047 0
M  V30 2948 C 267.296 5.93565 -1.79111 0
M  V30 2949 C 269.351 4.89306 -0.921083 0
M  V30 2950 C 268.054 6.64721 -2.74843 0
M  V30 2951 C 270.08 5.61179 -1.86633 0
M  V30 2952 C 269.442 6.47675 -2.76942 0
M  V30 2953 H 265.541 0.769093 0.141489 0
M  V30 2954 H 268.125 1.92874 -0.266031 0
M  V30 2955 H 266.296 3.48382 1.7171 0
M  V30 2956 H 268.028 3.71008 1.61664 0
M  V30 2957 H 264.783 4.73439 -0.123432 0
M  V30 2958 H 265.207 6.42831 -2.12361 0
M  V30 2959 H 269.849 4.22136 -0.23692 0
M  V30 2960 H 267.567 7.31107 -3.44249 0
M  V30 2961 H 271.153 5.49636 -1.90764 0
M  V30 2962 H 270.033 7.02313 -3.48893 0
M  V30 2963 N 267.536 -0.106894 1.57237 0
M  V30 2964 C 268.783 -0.812526 1.85484 0
M  V30 2965 C 269.111 -1.79304 0.753687 0
M  V30 2966 O 268.366 -1.94047 -0.253853 0
M  V30 2967 C 268.665 -1.58628 3.20268 0
M  V30 2968 C 268.331 -0.748967 4.44636 0
M  V30 2969 C 266.993 -0.518104 4.78403 0
M  V30 2970 C 269.345 -0.166122 5.20935 0
M  V30 2971 C 266.673 0.305659 5.85903 0
M  V30 2972 C 269.025 0.644899 6.29304 0
M  V30 2973 C 267.689 0.885965 6.61594 0
M  V30 2974 H 266.959 -0.297324 0.678734 0
M  V30 2975 H 269.606 -0.0744332 1.91355 0
M  V30 2976 H 267.911 -2.39562 3.10028 0
M  V30 2977 H 269.608 -2.13643 3.39349 0
M  V30 2978 H 266.198 -0.939006 4.18187 0
M  V30 2979 H 270.382 -0.33167 4.95191 0
M  V30 2980 H 265.638 0.501528 6.0934 0
M  V30 2981 H 269.812 1.10345 6.87602 0
M  V30 2982 H 267.439 1.52609 7.44725 0
M  V30 2983 N 269.014 -1.53014 -0.377408 0
M  V30 2984 C 269.924 -1.81557 -1.48574 0
M  V30 2985 C 270.94 -0.703102 -1.59162 0
M  V30 2986 O 272.116 -0.99192 -1.75279 0
M  V30 2987 C 269.181 -1.9889 -2.83978 0
M  V30 2988 C 268.242 -3.22801 -2.83016 0
M  V30 2989 C 267.475 -3.39298 -4.11962 0
M  V30 2990 O 267.698 -2.60345 -5.0752 0
M  V30 2991 O 266.632 -4.32604 -4.18494 0
M  V30 2992 H 270.458 -2.75695 -1.27382 0
M  V30 2993 H 268.043 -1.38248 -0.566373 0
M  V30 2994 H 269.925 -2.11931 -3.6423 0
M  V30 2995 H 268.6 -1.07942 -3.05172 0
M  V30 2996 H 267.507 -3.15193 -2.01505 0
M  V30 2997 H 268.84 -4.13632 -2.66775 0
M  V30 2998 N 270.492 0.636531 -1.44174 0
M  V30 2999 C 271.908 0.954104 -1.27941 0
M  V30 3000 C 272.108 2.0039 -0.211248 0
M  V30 3001 O 271.164 2.49236 0.404695 0
M  V30 3002 C 272.477 1.4225 -2.64925 0
M  V30 3003 C 274.025 1.53827 -2.72592 0
M  V30 3004 C 274.5 2.04053 -4.10032 0
M  V30 3005 N 275.991 2.11331 -4.12182 0
M  V30 3006 C 276.726 2.51352 -5.15374 0
M  V30 3007 N 276.222 2.90549 -6.2893 0
M  V30 3008 N 278.015 2.51438 -5.02728 0
M  V30 3009 H 270.166 -0.0578386 -2.12321 0
M  V30 3010 H 272.429 0.0367406 -0.947288 0
M  V30 3011 H 272.135 0.725466 -3.44136 0
M  V30 3012 H 272.009 2.39451 -2.9145 0
M  V30 3013 H 274.396 2.22628 -1.93702 0
M  V30 3014 H 274.477 0.550154 -2.49814 0
M  V30 3015 H 274.121 1.35848 -4.89395 0
M  V30 3016 H 274.051 3.03726 -4.30184 0
M  V30 3017 H 276.542 1.83745 -3.30222 0
M  V30 3018 H 276.855 3.19884 -7.03487 0
M  V30 3019 H 275.2 2.88313 -6.32377 0
M  V30 3020 H 278.391 2.20203 -4.13072 0
M  V30 3021 H 278.564 2.82304 -5.83274 0
M  V30 3022 N 271.97 1.30982 0.876444 0
M  V30 3023 C 272.9 1.20668 1.99903 0
M  V30 3024 C 273.881 0.095354 1.69833 0
M  V30 3025 O 275.066 0.27885 1.92188 0
M  V30 3026 C 272.196 0.90655 3.3526 0
M  V30 3027 C 271.15 1.97675 3.79617 0
M  V30 3028 C 270.476 1.52943 5.1236 0
M  V30 3029 C 271.776 3.389 3.97422 0
M  V30 3030 H 273.47 2.14586 2.0879 0
M  V30 3031 H 271.016 1.03308 1.00317 0
M  V30 3032 H 272.969 0.821025 4.13324 0
M  V30 3033 H 271.693 -0.0682969 3.26529 0
M  V30 3034 H 270.352 2.05205 3.03787 0
M  V30 3035 H 270 0.54262 5.00065 0
M  V30 3036 H 269.7 2.24532 5.43009 0
M  V30 3037 H 271.224 1.45786 5.92941 0
M  V30 3038 H 272.638 3.34081 4.659 0
M  V30 3039 H 271.035 4.0865 4.3946 0
M  V30 3040 H 272.105 3.80163 3.01006 0
M  V30 3041 N 273.449 -1.08991 1.13837 0
M  V30 3042 C 274.726 -1.77863 0.813876 0
M  V30 3043 C 275.106 -1.99375 -0.693746 0
M  V30 3044 O 274.454 -1.59875 -1.63255 0
M  V30 3045 C 274.664 -3.0986 1.60586 0
M  V30 3046 C 276.012 -3.84493 1.8014 0
M  V30 3047 O 277.036 -3.19624 1.57222 0
M  V30 3048 O 275.895 -5.00957 2.18413 0
M  V30 3049 H 272.989 -0.771589 0.297624 0
M  V30 3050 H 275.535 -1.15507 1.24323 0
M  V30 3051 H 274.307 -2.89715 2.63022 0
M  V30 3052 H 273.93 -3.79942 1.17173 0
M  V30 3053 N 274.927 -0.932562 -1.27047 0
M  V30 3054 C 276.173 -0.576412 -1.94436 0
M  V30 3055 C 276.506 0.880891 -1.73072 0
M  V30 3056 O 275.781 1.62905 -1.06264 0
M  V30 3057 C 276.064 -0.909031 -3.48437 0
M  V30 3058 C 275.917 -2.42044 -3.79123 0
M  V30 3059 C 277.236 -0.418341 -4.38107 0
M  V30 3060 H 274.355 -0.210888 -0.706184 0
M  V30 3061 H 276.997 -1.16522 -1.50075 0
M  V30 3062 H 275.147 -0.407947 -3.86352 0
M  V30 3063 H 276.819 -2.99359 -3.50973 0
M  V30 3064 H 275.062 -2.86758 -3.25503 0
M  V30 3065 H 275.733 -2.6037 -4.86736 0
M  V30 3066 H 278.209 -0.847856 -4.0737 0
M  V30 3067 H 277.085 -0.679981 -5.44672 0
M  V30 3068 H 277.346 0.681642 -4.36814 0
M  V30 3069 N 276.405 1.4127 -0.698611 0
M  V30 3070 C 277.635 2.05205 -0.239644 0
M  V30 3071 C 278.043 1.52684 1.11733 0
M  V30 3072 O 277.386 0.671222 1.70998 0
M  V30 3073 C 277.448 3.59289 -0.123126 0
M  V30 3074 C 277.112 4.34619 -1.41263 0
M  V30 3075 C 278.109 4.63701 -2.35111 0
M  V30 3076 C 275.794 4.73837 -1.66684 0
M  V30 3077 C 277.788 5.30966 -3.52639 0
M  V30 3078 C 275.475 5.40837 -2.84498 0
M  V30 3079 C 276.473 5.69329 -3.77298 0
M  V30 3080 O 276.161 6.34949 -4.93047 0
M  V30 3081 H 275.893 0.66723 -0.108537 0
M  V30 3082 H 278.447 1.81974 -0.952602 0
M  V30 3083 H 276.677 3.81272 0.645628 0
M  V30 3084 H 278.366 4.04797 0.299056 0
M  V30 3085 H 279.132 4.33882 -2.16729 0
M  V30 3086 H 275.011 4.51039 -0.953135 0
M  V30 3087 H 278.555 5.53121 -4.25091 0
M  V30 3088 H 274.452 5.70075 -3.02795 0
M  V30 3089 H 275.22 6.53445 -4.92902 0
M  V30 3090 N 277.883 0.443576 1.51229 0
M  V30 3091 C 279.131 -0.120557 2.0174 0
M  V30 3092 C 279.452 -1.42665 1.32935 0
M  V30 3093 O 278.722 -1.9028 0.465866 0
M  V30 3094 H 277.302 -0.0475426 0.745486 0
M  V30 3095 H 279.964 0.587711 1.85828 0
M  V30 3096 H 279.06 -0.291972 3.10731 0
M  V30 3097 N 279.361 -1.56624 0.175154 0
M  V30 3098 C 280.61 -1.96173 -0.468921 0
M  V30 3099 C 280.923 -1.06401 -1.64128 0
M  V30 3100 O 282.129 -1.35648 -2.35185 0
M  V30 3101 C 280.585 -3.48833 -0.885633 0
M  V30 3102 C 280.193 -4.47237 0.261343 0
M  V30 3103 C 281.937 -3.97194 -1.49791 0
M  V30 3104 C 279.844 -5.9114 -0.175214 0
M  V30 3105 H 278.774 -0.732455 -0.178958 0
M  V30 3106 H 281.425 -1.81591 0.263997 0
M  V30 3107 H 279.807 -3.58848 -1.67464 0
M  V30 3108 H 280.981 -4.4894 1.03871 0
M  V30 3109 H 279.296 -4.08956 0.783827 0
M  V30 3110 H 281.893 -5.02167 -1.83665 0
M  V30 3111 H 282.236 -3.40351 -2.39722 0
M  V30 3112 H 282.769 -3.90212 -0.773267 0
M  V30 3113 H 279.508 -6.51865 0.689414 0
M  V30 3114 H 279.028 -5.92735 -0.91786 0
M  V30 3115 H 280.707 -6.44044 -0.617792 0
M  V30 3116 N 280.839 0.0985539 -1.57292 0
M  V30 3117 C 281.769 1.12064 -2.04851 0
M  V30 3118 C 282.75 1.41981 -0.936767 0
M  V30 3119 O 283.935 1.52071 -1.20781 0
M  V30 3120 C 281.065 2.44144 -2.47004 0
M  V30 3121 C 280.019 2.28643 -3.6181 0
M  V30 3122 C 279.345 3.65869 -3.89929 0
M  V30 3123 C 280.645 1.72986 -4.92822 0
M  V30 3124 H 282.339 0.724979 -2.9049 0
M  V30 3125 H 279.885 0.34729 -1.39749 0
M  V30 3126 H 281.838 3.15914 -2.78884 0
M  V30 3127 H 280.562 2.85639 -1.5836 0
M  V30 3128 H 279.221 1.59318 -3.30172 0
M  V30 3129 H 278.869 4.04885 -2.98458 0
M  V30 3130 H 278.569 3.56344 -4.67218 0
M  V30 3131 H 280.093 4.39112 -4.2428 0
M  V30 3132 H 281.507 2.34593 -5.23105 0
M  V30 3133 H 279.904 1.74229 -5.74251 0
M  V30 3134 H 280.974 0.689007 -4.7998 0
M  V30 3135 N 282.317 1.53212 0.369288 0
M  V30 3136 C 283.594 1.59815 1.12776 0
M  V30 3137 C 283.974 0.403402 2.0721 0
M  V30 3138 O 283.322 -0.606667 2.20299 0
M  V30 3139 C 283.532 2.94664 1.87013 0
M  V30 3140 C 284.88 3.49109 2.41677 0
M  V30 3141 O 285.904 2.96669 1.97144 0
M  V30 3142 O 284.763 4.40775 3.23079 0
M  V30 3143 H 281.857 0.645376 0.517125 0
M  V30 3144 H 284.403 1.65553 0.37285 0
M  V30 3145 H 283.175 3.73061 1.18071 0
M  V30 3146 H 282.798 2.92401 2.69421 0
M  V30 3147 N 283.795 -0.628877 1.44509 0
M  V30 3148 C 285.035 -1.39993 1.48934 0
M  V30 3149 C 285.399 -1.91627 0.119604 0
M  V30 3150 O 286.6 -2.68772 0.0385283 0
M  V30 3151 C 284.871 -2.53241 2.52198 0
M  V30 3152 S 286.43 -3.41383 2.75687 0
M  V30 3153 H 283.248 -0.477558 0.526744 0
M  V30 3154 H 285.85 -0.727804 1.81448 0
M  V30 3155 H 284.554 -2.13622 3.50419 0
M  V30 3156 H 284.085 -3.25278 2.21264 0
M  V30 3157 H 286.1 -4.50752 2.07453 0
M  V30 3158 N 285.273 -1.31445 -0.869486 0
M  V30 3159 C 286.519 -1.21337 -1.62496 0
M  V30 3160 C 286.852 0.227872 -1.92858 0
M  V30 3161 O 286.127 1.16094 -1.56053 0
M  V30 3162 C 286.41 -2.05814 -2.95487 0
M  V30 3163 C 286.263 -3.5824 -2.72 0
M  V30 3164 C 287.582 -1.9079 -3.96594 0
M  V30 3165 H 284.701 -0.442135 -0.589649 0
M  V30 3166 H 287.343 -1.6124 -1.00507 0
M  V30 3167 H 285.493 -1.71913 -3.48394 0
M  V30 3168 H 287.165 -4.0228 -2.25762 0
M  V30 3169 H 285.408 -3.81647 -2.06224 0
M  V30 3170 H 286.079 -4.12657 -3.66631 0
M  V30 3171 H 288.555 -2.20459 -3.52898 0
M  V30 3172 H 287.431 -2.52199 -4.87531 0
M  V30 3173 H 287.692 -0.871341 -4.33428 0
M  V30 3174 N 286.751 1.08385 -1.14413 0
M  V30 3175 C 287.976 1.85057 -0.936413 0
M  V30 3176 C 288.401 1.81055 0.509971 0
M  V30 3177 O 287.759 1.1958 1.36273 0
M  V30 3178 C 287.807 3.30505 -1.44217 0
M  V30 3179 O 286.911 4.07491 -0.634409 0
M  V30 3180 H 286.252 0.573425 -0.334784 0
M  V30 3181 H 288.782 1.36799 -1.52142 0
M  V30 3182 H 288.792 3.81348 -1.45043 0
M  V30 3183 H 287.467 3.32734 -2.49522 0
M  V30 3184 H 286.044 3.66368 -0.694902 0
M  V30 3185 N 288.23 0.939286 1.26551 0
M  V30 3186 C 289.18 0.418284 2.2413 0
M  V30 3187 C 290.164 -0.483935 1.5345 0
M  V30 3188 O 291.356 -0.319489 1.74093 0
M  V30 3189 C 288.485 -0.31709 3.41832 0
M  V30 3190 C 287.571 0.602311 4.19801 0
M  V30 3191 N 287.962 1.72726 4.75394 0
M  V30 3192 C 286.26 0.407534 4.44134 0
M  V30 3193 C 286.961 2.30004 5.34297 0
M  V30 3194 N 285.937 1.58828 5.1988 0
M  V30 3195 H 289.739 1.27705 2.64705 0
M  V30 3196 H 287.253 0.794929 1.41614 0
M  V30 3197 H 289.25 -0.707364 4.10855 0
M  V30 3198 H 287.91 -1.17264 3.02786 0
M  V30 3199 H 288.921 2.10944 4.72994 0
M  V30 3200 H 285.598 -0.406406 4.15517 0
M  V30 3201 H 286.988 3.24778 5.88191 0
M  V30 3202 N 289.708 -1.40897 0.706093 0
M  V30 3203 C 290.936 -2.05373 0.250887 0
M  V30 3204 C 291.351 -1.53172 -1.10381 0
M  V30 3205 O 290.708 -0.684305 -1.69185 0
M  V30 3206 C 290.759 -3.6088 0.211571 0
M  V30 3207 O 290.48 -4.11153 1.51276 0
M  V30 3208 C 291.981 -4.42517 -0.263346 0
M  V30 3209 H 289.201 -0.66115 0.114552 0
M  V30 3210 H 291.745 -1.80479 0.961635 0
M  V30 3211 H 289.9 -3.84777 -0.450073 0
M  V30 3212 H 290.314 -5.05279 1.40689 0
M  V30 3213 H 291.788 -5.51479 -0.239718 0
M  V30 3214 H 292.265 -4.19396 -1.30397 0
M  V30 3215 H 292.871 -4.23708 0.367677 0
M  V30 3216 N 291.186 -0.45159 -1.50991 0
M  V30 3217 C 292.597 0.00818571 -1.86698 0
M  V30 3218 C 292.948 1.40661 -1.3678 0
M  V30 3219 O 292.073 2.0391 -0.724546 0
M  V30 3220 C 292.668 0.0216303 -3.38793 0
M  V30 3221 C 291.227 0.425865 -3.73983 0
M  V30 3222 C 290.374 -0.372163 -2.74791 0
M  V30 3223 H 293.325 -0.666785 -1.44013 0
M  V30 3224 H 293.346 0.828078 -3.7138 0
M  V30 3225 H 292.858 -0.996288 -3.75094 0
M  V30 3226 H 290.959 1.44886 -3.43277 0
M  V30 3227 H 291.072 0.140761 -4.78893 0
M  V30 3228 H 289.436 0.171498 -2.54122 0
M  V30 3229 H 290.219 -1.38922 -3.13935 0
M  V30 3230 N 292.664 1.56529 -0.183458 0
M  V30 3231 C 293.627 2.17324 0.728223 0
M  V30 3232 C 294.627 1.12453 1.14939 0
M  V30 3233 O 295.817 1.37902 1.06437 0
M  V30 3234 C 292.949 2.76591 1.99274 0
M  V30 3235 H 294.142 2.99241 0.198772 0
M  V30 3236 H 291.695 1.5616 0.0661391 0
M  V30 3237 H 292.43 1.98441 2.56499 0
M  V30 3238 H 292.215 3.5335 1.69959 0
M  V30 3239 H 293.705 3.23311 2.6431 0
M  V30 3240 N 294.142 -0.090211 1.57342 0
M  V30 3241 C 295.072 -1.10976 2.05443 0
M  V30 3242 C 296.053 -1.41482 0.944284 0
M  V30 3243 O 297.238 -1.51428 1.21586 0
M  V30 3244 C 294.368 -2.42831 2.48295 0
M  V30 3245 C 293.322 -2.26721 3.63018 0
M  V30 3246 C 292.648 -3.63796 3.91863 0
M  V30 3247 C 293.948 -1.7037 4.93732 0
M  V30 3248 H 295.642 -0.709564 2.9087 0
M  V30 3249 H 293.188 -0.339874 1.39932 0
M  V30 3250 H 295.141 -3.14431 2.80555 0
M  V30 3251 H 293.865 -2.84795 1.59873 0
M  V30 3252 H 292.524 -1.57565 3.31012 0
M  V30 3253 H 292.172 -4.03297 3.00601 0
M  V30 3254 H 291.872 -3.53861 4.69101 0
M  V30 3255 H 293.396 -4.36855 4.26603 0
M  V30 3256 H 294.81 -2.31816 5.24342 0
M  V30 3257 H 293.207 -1.71181 5.75167 0
M  V30 3258 H 294.277 -0.663542 4.80339 0
M  V30 3259 N 295.62 -1.53406 -0.361157 0
M  V30 3260 C 297.036 -1.43277 -0.703124 0
M  V30 3261 C 297.236 -0.575384 -1.9311 0
M  V30 3262 O 296.292 -0.0595362 -2.5243 0
M  V30 3263 C 297.605 -2.8653 -0.9122 0
M  V30 3264 C 299.153 -2.96191 -1.01193 0
M  V30 3265 C 299.628 -4.40514 -1.25345 0
M  V30 3266 N 301.119 -4.43962 -1.32105 0
M  V30 3267 C 301.854 -5.52746 -1.5251 0
M  V30 3268 N 301.35 -6.71567 -1.70203 0
M  V30 3269 N 303.143 -5.40331 -1.54916 0
M  V30 3270 H 295.294 -2.07654 0.446475 0
M  V30 3271 H 297.557 -0.937944 0.137715 0
M  V30 3272 H 297.263 -3.51605 -0.0816414 0
M  V30 3273 H 297.137 -3.30441 -1.81903 0
M  V30 3274 H 299.524 -2.31266 -1.83303 0
M  V30 3275 H 299.605 -2.55667 -0.0823929 0
M  V30 3276 H 299.249 -5.06014 -0.437346 0
M  V30 3277 H 299.179 -4.78614 -2.19627 0
M  V30 3278 H 301.67 -3.58332 -1.20028 0
M  V30 3279 H 301.983 -7.50241 -1.85359 0
M  V30 3280 H 300.328 -6.74545 -1.67373 0
M  V30 3281 H 303.519 -4.46465 -1.40663 0
M  V30 3282 H 303.692 -6.25173 -1.70477 0
M  V30 3283 N 297.098 0.621204 -1.44841 0
M  V30 3284 C 298.028 1.74366 -1.55303 0
M  V30 3285 C 299.009 1.65199 -0.405385 0
M  V30 3286 O 300.194 1.83807 -0.626787 0
M  V30 3287 C 297.324 3.12931 -1.50637 0
M  V30 3288 C 296.278 3.36896 -2.63979 0
M  V30 3289 C 295.604 4.75594 -2.44366 0
M  V30 3290 C 296.904 3.28483 -4.06074 0
M  V30 3291 H 298.598 1.65867 -2.49256 0
M  V30 3292 H 296.144 0.796558 -1.19962 0
M  V30 3293 H 298.097 3.9124 -1.56555 0
M  V30 3294 H 296.821 3.22237 -0.532057 0
M  V30 3295 H 295.48 2.60972 -2.57467 0
M  V30 3296 H 295.128 4.81616 -1.45105 0
M  V30 3297 H 294.828 4.92586 -3.20364 0
M  V30 3298 H 296.352 5.5612 -2.52117 0
M  V30 3299 H 297.766 3.96684 -4.13902 0
M  V30 3300 H 296.163 3.57008 -4.82354 0
M  V30 3301 H 297.233 2.26133 -4.28943 0
M  V30 3302 N 298.576 1.31904 0.862503 0
M  V30 3303 C 299.822 1.23207 1.61838 0
M  V30 3304 C 300.177 -0.206062 1.91293 0
M  V30 3305 O 299.47 -1.14162 1.53875 0
M  V30 3306 C 299.664 2.01713 2.95037 0
M  V30 3307 C 299.493 3.53014 2.78588 0
M  V30 3308 C 298.263 4.22359 2.77382 0
M  V30 3309 C 300.461 4.47819 2.52909 0
M  V30 3310 N 298.443 5.59766 2.52062 0
M  V30 3311 C 299.814 5.72947 2.36922 0
M  V30 3312 C 301.869 4.37162 2.38314 0
M  V30 3313 C 300.572 6.88623 2.07823 0
M  V30 3314 C 302.598 5.5263 2.10604 0
M  V30 3315 C 301.96 6.76752 1.95411 0
M  V30 3316 H 298.059 0.505984 0.596242 0
M  V30 3317 H 300.643 1.66179 1.01452 0
M  V30 3318 H 298.814 1.61098 3.53415 0
M  V30 3319 H 300.546 1.84975 3.59953 0
M  V30 3320 H 297.301 3.74401 2.90036 0
M  V30 3321 H 297.725 6.32135 2.42352 0
M  V30 3322 H 302.367 3.41857 2.48784 0
M  V30 3323 H 300.085 7.83948 1.9609 0
M  V30 3324 H 303.671 5.46307 2.00101 0
M  V30 3325 H 302.551 7.6459 1.74274 0
M  V30 3326 N 300.054 -1.07777 1.14986 0
M  V30 3327 C 301.303 -1.79669 0.916617 0
M  V30 3328 C 301.616 -1.87474 -0.557917 0
M  V30 3329 O 302.822 -2.55845 -0.908617 0
M  V30 3330 C 301.278 -3.22848 1.59051 0
M  V30 3331 C 300.886 -3.23257 3.10176 0
M  V30 3332 C 302.63 -3.99379 1.43864 0
M  V30 3333 C 300.537 -4.61063 3.70372 0
M  V30 3334 H 299.467 -0.673349 0.33929 0
M  V30 3335 H 302.118 -1.21003 1.37951 0
M  V30 3336 H 300.5 -3.8168 1.0553 0
M  V30 3337 H 301.674 -2.74095 3.70417 0
M  V30 3338 H 299.989 -2.60222 3.25074 0
M  V30 3339 H 302.586 -5.0122 1.86232 0
M  V30 3340 H 302.929 -4.14511 0.385564 0
M  V30 3341 H 303.462 -3.47032 1.94457 0
M  V30 3342 H 300.201 -4.51135 4.7556 0
M  V30 3343 H 299.721 -5.1048 3.14913 0
M  V30 3344 H 301.4 -5.30034 3.71043 0
M  V30 3345 N 301.532 -0.945985 -1.26051 0
M  V30 3346 C 302.757 -0.612525 -1.98149 0
M  V30 3347 C 303.182 0.806623 -1.69927 0
M  V30 3348 O 302.54 1.54411 -0.950108 0
M  V30 3349 C 302.588 -0.866981 -3.50023 0
M  V30 3350 O 301.692 0.0585333 -4.12358 0
M  V30 3351 H 301.033 -0.23379 -0.621481 0
M  V30 3352 H 303.563 -1.27023 -1.60395 0
M  V30 3353 H 303.573 -0.789792 -4.00283 0
M  V30 3354 H 302.248 -1.90135 -3.69894 0
M  V30 3355 H 300.825 -0.0701241 -3.72834 0
M  V30 3356 N 303.011 1.40521 -0.713556 0
M  V30 3357 C 303.974 2.29098 -0.0684347 0
M  V30 3358 C 304.974 1.45268 0.689472 0
M  V30 3359 O 306.164 1.66205 0.521677 0
M  V30 3360 C 303.296 3.28446 0.913024 0
M  V30 3361 H 304.489 2.87645 -0.84855 0
M  V30 3362 H 302.042 1.48809 -0.47809 0
M  V30 3363 H 302.777 2.74913 1.72027 0
M  V30 3364 H 302.562 3.90327 0.372472 0
M  V30 3365 H 304.052 3.94777 1.36165 0
M  V30 3366 N 304.489 0.459591 1.5075 0
M  V30 3367 C 305.422 -0.386257 2.24907 0
M  V30 3368 C 306.4 -1.006 1.27744 0
M  V30 3369 O 307.584 -1.04416 1.56938 0
M  V30 3370 C 304.711 -1.54021 3.01654 0
M  V30 3371 C 303.757 -1.03898 4.13651 0
M  V30 3372 S 304.59 0.0370501 5.35487 0
M  V30 3373 C 305.746 -1.12105 6.15779 0
M  V30 3374 H 305.979 0.243272 2.96303 0
M  V30 3375 H 303.512 0.244339 1.52454 0
M  V30 3376 H 305.47 -2.20163 3.46466 0
M  V30 3377 H 304.131 -2.14121 2.29806 0
M  V30 3378 H 303.324 -1.90254 4.66711 0
M  V30 3379 H 302.926 -0.45545 3.71216 0
M  V30 3380 H 305.218 -2.03501 6.46215 0
M  V30 3381 H 306.161 -0.62995 7.05292 0
M  V30 3382 H 306.569 -1.36967 5.47631 0
M  V30 3383 N 305.967 -1.56429 0.191757 0
M  V30 3384 C 306.914 -2.18936 -0.730454 0
M  V30 3385 C 307.884 -1.13557 -1.21219 0
M  V30 3386 O 309.069 -1.41794 -1.27668 0
M  V30 3387 C 306.209 -2.85013 -1.9458 0
M  V30 3388 C 305.322 -4.04909 -1.50574 0
M  V30 3389 C 304.457 -4.58853 -2.67634 0
M  V30 3390 C 303.496 -5.71114 -2.20217 0
M  V30 3391 N 302.633 -6.19478 -3.30442 0
M  V30 3392 H 307.473 -2.97389 -0.190664 0
M  V30 3393 H 305.01 -1.46869 -0.0823694 0
M  V30 3394 H 306.968 -3.21492 -2.65893 0
M  V30 3395 H 305.598 -2.09129 -2.45896 0
M  V30 3396 H 304.65 -3.74115 -0.688605 0
M  V30 3397 H 305.962 -4.86113 -1.11784 0
M  V30 3398 H 305.116 -4.97619 -3.47074 0
M  V30 3399 H 303.855 -3.76749 -3.09696 0
M  V30 3400 H 302.86 -5.31879 -1.3923 0
M  V30 3401 H 304.085 -6.55033 -1.79189 0
M  V30 3402 H 302.031 -5.40297 -3.72041 0
M  V30 3403 H 301.948 -6.95725 -2.9581 0
M  V30 3404 H 303.216 -6.62898 -4.10106 0
M  V30 3405 N 307.445 0.0818655 -1.57387 0
M  V30 3406 C 308.691 0.778884 -1.87896 0
M  V30 3407 C 309.046 1.75692 -0.784229 0
M  V30 3408 O 308.339 1.90417 0.212567 0
M  V30 3409 C 308.533 1.53513 -3.22752 0
M  V30 3410 C 308.362 0.631838 -4.45239 0
M  V30 3411 C 307.132 0.272571 -5.04564 0
M  V30 3412 C 309.33 -0.0670191 -5.14256 0
M  V30 3413 N 307.312 -0.637498 -6.10581 0
M  V30 3414 C 308.683 -0.834653 -6.14356 0
M  V30 3415 C 310.738 -0.139551 -4.97704 0
M  V30 3416 C 309.441 -1.66806 -6.99691 0
M  V30 3417 C 311.467 -0.959903 -5.83558 0
M  V30 3418 C 310.829 -1.71561 -6.83188 0
M  V30 3419 H 306.928 0.260764 -0.737242 0
M  V30 3420 H 309.512 0.0408227 -1.94657 0
M  V30 3421 H 307.683 2.24398 -3.17018 0
M  V30 3422 H 309.415 2.18038 -3.40942 0
M  V30 3423 H 306.17 0.62319 -4.69482 0
M  V30 3424 H 306.594 -1.08548 -6.68241 0
M  V30 3425 H 311.236 0.430376 -4.20604 0
M  V30 3426 H 308.954 -2.249 -7.76174 0
M  V30 3427 H 312.54 -1.01887 -5.72809 0
M  V30 3428 H 311.42 -2.34017 -7.48469 0
M  V30 3429 N 308.923 1.53595 0.353017 0
M  V30 3430 C 310.2 1.61002 1.11075 0
M  V30 3431 C 310.58 0.425356 2.0677 0
M  V30 3432 O 309.928 -0.583267 2.2093 0
M  V30 3433 C 310.138 2.96631 1.83877 0
M  V30 3434 C 311.486 3.51653 2.37961 0
M  V30 3435 O 312.51 2.98743 1.93987 0
M  V30 3436 O 311.369 4.44177 3.18386 0
M  V30 3437 H 308.463 0.650825 0.510251 0
M  V30 3438 H 311.009 1.6594 0.35527 0
M  V30 3439 H 309.781 3.74293 1.14108 0
M  V30 3440 H 309.404 2.95242 2.66304 0
M  V30 3441 N 310.401 -0.613514 1.45168 0
M  V30 3442 C 311.812 -1.19539 1.43413 0
M  V30 3443 C 312.163 -1.95558 0.158632 0
M  V30 3444 O 311.288 -2.0335 -0.740119 0
M  V30 3445 C 311.883 -2.17445 2.59813 0
M  V30 3446 C 310.442 -2.71022 2.61197 0
M  V30 3447 C 309.589 -1.46323 2.35552 0
M  V30 3448 H 312.54 -0.403163 1.53494 0
M  V30 3449 H 312.561 -3.00373 2.33574 0
M  V30 3450 H 312.073 -1.62089 3.52631 0
M  V30 3451 H 310.174 -3.30332 1.7237 0
M  V30 3452 H 310.287 -3.15859 3.60236 0
M  V30 3453 H 308.651 -1.75072 1.84992 0
M  V30 3454 H 309.434 -0.92844 3.30507 0
M  V30 3455 N 311.879 -1.3236 -0.855495 0
M  V30 3456 C 313.107 -1.2587 -1.64208 0
M  V30 3457 C 313.522 0.173457 -1.88002 0
M  V30 3458 O 312.879 1.11027 -1.44842 0
M  V30 3459 C 312.93 -2.01424 -3.00184 0
M  V30 3460 O 312.651 -3.39051 -2.77445 0
M  V30 3461 C 314.152 -2.01948 -3.94629 0
M  V30 3462 H 311.372 -0.434318 -0.511477 0
M  V30 3463 H 313.916 -1.74469 -1.0668 0
M  V30 3464 H 312.071 -1.56549 -3.5436 0
M  V30 3465 H 312.485 -3.77711 -3.63916 0
M  V30 3466 H 313.959 -2.59297 -4.87308 0
M  V30 3467 H 314.436 -1.00554 -4.27534 0
M  V30 3468 H 315.042 -2.46767 -3.4639 0
M  V30 3469 N 313.357 1.07166 -1.15556 0
M  V30 3470 C 314.603 1.80065 -0.932984 0
M  V30 3471 C 314.936 1.86586 0.53845 0
M  V30 3472 O 314.211 1.35098 1.39924 0
M  V30 3473 C 314.494 3.25022 -1.55025 0
M  V30 3474 C 314.347 3.26634 -3.09242 0
M  V30 3475 C 315.666 4.22341 -1.2376 0
M  V30 3476 H 312.785 0.653697 -0.340366 0
M  V30 3477 H 315.427 1.25389 -1.4275 0
M  V30 3478 H 313.577 3.71712 -1.12972 0
M  V30 3479 H 315.249 2.88173 -3.60214 0
M  V30 3480 H 313.492 2.65539 -3.43033 0
M  V30 3481 H 314.163 4.28854 -3.47546 0
M  V30 3482 H 316.639 3.8405 -1.60139 0
M  V30 3483 H 315.515 5.22053 -1.69564 0
M  V30 3484 H 315.776 4.41828 -0.154938 0
M  V30 3485 N 314.835 0.952656 1.25548 0
M  V30 3486 C 316.075 0.614013 1.9496 0
M  V30 3487 C 316.439 -0.833215 1.72978 0
M  V30 3488 O 317.64 -1.28135 2.36294 0
M  V30 3489 C 315.911 0.960562 3.4425 0
M  V30 3490 S 317.47 0.734195 4.32614 0
M  V30 3491 H 314.288 0.225754 0.674208 0
M  V30 3492 H 316.89 1.22641 1.52248 0
M  V30 3493 H 315.594 2.01103 3.57751 0
M  V30 3494 H 315.125 0.338336 3.91942 0
M  V30 3495 H 317.14 -0.395995 4.94617 0
M  V30 3496 N 316.313 -1.40141 0.720998 0
M  V30 3497 C 317.276 -2.29058 0.0805834 0
M  V30 3498 C 318.276 -1.45632 -0.681758 0
M  V30 3499 O 319.466 -1.6648 -0.512856 0
M  V30 3500 C 316.598 -3.28925 -0.895593 0
M  V30 3501 H 317.791 -2.87191 0.863793 0
M  V30 3502 H 315.344 -1.48553 0.485975 0
M  V30 3503 H 316.079 -2.75822 -1.70566 0
M  V30 3504 H 315.864 -3.90519 -0.351766 0
M  V30 3505 H 317.354 -3.95494 -1.34069 0
M  V30 3506 N 317.792 -0.46758 -1.50504 0
M  V30 3507 C 318.722 0.318381 -2.31319 0
M  V30 3508 C 319.703 0.993564 -1.38066 0
M  V30 3509 O 320.888 0.991411 -1.66987 0
M  V30 3510 C 318.018 1.40275 -3.17711 0
M  V30 3511 C 316.972 0.849373 -4.19487 0
M  V30 3512 C 316.298 2.03177 -4.94594 0
M  V30 3513 C 317.598 -0.136942 -5.2212 0
M  V30 3514 H 319.292 -0.356106 -2.97275 0
M  V30 3515 H 316.838 -0.172703 -1.42961 0
M  V30 3516 H 318.791 1.96004 -3.73042 0
M  V30 3517 H 317.515 2.10596 -2.49634 0
M  V30 3518 H 316.174 0.314076 -3.65252 0
M  V30 3519 H 315.822 2.72187 -4.22993 0
M  V30 3520 H 315.522 1.66774 -5.63436 0
M  V30 3521 H 317.046 2.59403 -5.52759 0
M  V30 3522 H 318.46 0.331056 -5.72343 0
M  V30 3523 H 316.857 -0.41507 -5.98663 0
M  V30 3524 H 317.927 -1.06398 -4.73083 0
M  V30 3525 N 319.27 1.56325 -0.20005 0
M  V30 3526 C 320.2 2.22318 0.713916 0
M  V30 3527 C 321.181 1.18788 1.21752 0
M  V30 3528 O 322.366 1.47309 1.26545 0
M  V30 3529 C 319.496 2.88639 1.93144 0
M  V30 3530 C 318.45 3.98457 1.56255 0
M  V30 3531 C 317.776 4.51967 2.85709 0
M  V30 3532 C 319.076 5.16612 0.768747 0
M  V30 3533 H 320.77 2.98952 0.163755 0
M  V30 3534 H 318.316 1.43792 0.0773219 0
M  V30 3535 H 320.269 3.33491 2.57608 0
M  V30 3536 H 318.993 2.09419 2.50621 0
M  V30 3537 H 317.652 3.54305 0.941471 0
M  V30 3538 H 317.3 3.69503 3.41287 0
M  V30 3539 H 317 5.26071 2.6177 0
M  V30 3540 H 318.524 4.99523 3.51154 0
M  V30 3541 H 319.938 5.57977 1.3166 0
M  V30 3542 H 318.335 5.96812 0.627286 0
M  V30 3543 H 319.405 4.84358 -0.229168 0
M  V30 3544 N 320.748 -0.0735177 1.57428 0
M  V30 3545 C 321.681 -1.11932 1.98863 0
M  V30 3546 C 322.659 -1.37666 0.865266 0
M  V30 3547 O 323.843 -1.51068 1.12742 0
M  V30 3548 C 320.97 -2.46403 2.32386 0
M  V30 3549 C 320.016 -2.36815 3.54713 0
M  V30 3550 S 320.849 -1.76392 5.05614 0
M  V30 3551 C 322.005 -3.12444 5.42337 0
M  V30 3552 H 322.238 -0.766212 2.87257 0
M  V30 3553 H 319.771 -0.281987 1.51803 0
M  V30 3554 H 321.729 -3.23755 2.52375 0
M  V30 3555 H 320.39 -2.78876 1.44524 0
M  V30 3556 H 319.583 -3.35977 3.7568 0
M  V30 3557 H 319.185 -1.67598 3.34345 0
M  V30 3558 H 321.477 -4.08753 5.40303 0
M  V30 3559 H 322.42 -2.96258 6.43146 0
M  V30 3560 H 322.828 -3.1297 4.69798 0
M  V30 3561 N 322.226 -1.5378 -0.344866 0
M  V30 3562 C 323.503 -1.61589 -1.10219 0
M  V30 3563 C 323.883 -0.436316 -2.06542 0
M  V30 3564 O 323.231 0.571543 -2.21237 0
M  V30 3565 C 323.441 -2.97602 -1.82301 0
M  V30 3566 C 324.789 -3.5291 -2.36093 0
M  V30 3567 O 325.813 -2.99768 -1.924 0
M  V30 3568 O 324.672 -4.45859 -3.16026 0
M  V30 3569 H 321.766 -0.653522 -0.506792 0
M  V30 3570 H 324.312 -1.66126 -0.346465 0
M  V30 3571 H 323.084 -3.74893 -1.12121 0
M  V30 3572 H 322.707 -2.9665 -2.64735 0
M  V30 3573 N 323.704 0.605807 -1.45491 0
M  V30 3574 C 324.651 1.7164 -1.54299 0
M  V30 3575 C 325.621 1.61486 -0.388761 0
M  V30 3576 O 326.806 1.81039 -0.602445 0
M  V30 3577 C 323.946 3.09953 -1.51734 0
M  V30 3578 C 323.059 3.309 -2.77721 0
M  V30 3579 C 322.194 4.59329 -2.66816 0
M  V30 3580 C 321.233 4.7354 -3.87848 0
M  V30 3581 N 320.37 5.9327 -3.75467 0
M  V30 3582 H 325.21 1.63449 -2.49176 0
M  V30 3583 H 322.747 0.796957 -1.23641 0
M  V30 3584 H 324.705 3.89977 -1.48235 0
M  V30 3585 H 323.335 3.17098 -0.604068 0
M  V30 3586 H 322.387 2.44639 -2.913 0
M  V30 3587 H 323.699 3.37274 -3.67488 0
M  V30 3588 H 322.853 5.4755 -2.61292 0
M  V30 3589 H 321.592 4.55355 -1.74651 0
M  V30 3590 H 320.597 3.83741 -3.93729 0
M  V30 3591 H 321.822 4.79309 -4.81082 0
M  V30 3592 H 319.768 5.90338 -2.86072 0
M  V30 3593 H 319.685 6.00811 -4.5887 0
M  V30 3594 H 320.953 6.83984 -3.73879 0
M  V30 3595 N 325.182 1.32811 0.848464 0
M  V30 3596 C 326.407 1.26882 1.6406 0
M  V30 3597 C 326.832 -0.15913 1.87426 0
M  V30 3598 O 326.19 -1.11258 1.43148 0
M  V30 3599 C 326.238 2.03997 2.97351 0
M  V30 3600 O 325.342 1.39201 3.88197 0
M  V30 3601 H 324.683 0.436982 0.499943 0
M  V30 3602 H 327.213 1.75224 1.0563 0
M  V30 3603 H 327.223 2.14403 3.47124 0
M  V30 3604 H 325.898 3.0783 2.79666 0
M  V30 3605 H 324.475 1.37381 3.46671 0
M  V30 3606 N 326.66 -1.06551 1.16123 0
M  V30 3607 C 327.909 -1.78687 0.935622 0
M  V30 3608 C 328.222 -1.88056 -0.538001 0
M  V30 3609 O 329.428 -2.56794 -0.88143 0
M  V30 3610 C 327.884 -3.21143 1.62466 0
M  V30 3611 C 327.492 -3.19949 3.13587 0
M  V30 3612 C 329.236 -3.9783 1.48092 0
M  V30 3613 C 327.143 -4.57108 3.75241 0
M  V30 3614 H 326.073 -0.669712 0.346412 0
M  V30 3615 H 328.724 -1.19534 1.39226 0
M  V30 3616 H 327.106 -3.80539 1.09572 0
M  V30 3617 H 328.28 -2.70151 3.73303 0
M  V30 3618 H 326.595 -2.5676 3.27816 0
M  V30 3619 H 329.192 -4.99217 1.91538 0
M  V30 3620 H 329.535 -4.14078 0.429507 0
M  V30 3621 H 330.068 -3.4495 1.98127 0
M  V30 3622 H 326.807 -4.46065 4.80319 0
M  V30 3623 H 326.327 -5.07111 3.20309 0
M  V30 3624 H 328.006 -5.26069 3.76644 0
M  V30 3625 N 328.138 -0.959301 -1.25041 0
M  V30 3626 C 329.385 -0.616611 -1.92884 0
M  V30 3627 C 329.713 0.847036 -1.75087 0
M  V30 3628 O 328.968 1.62374 -1.09239 0
M  V30 3629 C 329.267 -0.927136 -3.45165 0
M  V30 3630 C 328.933 -2.37757 -3.83122 0
M  V30 3631 C 327.595 -2.77402 -3.93194 0
M  V30 3632 C 329.947 -3.31929 -4.01836 0
M  V30 3633 C 327.275 -4.10277 -4.19392 0
M  V30 3634 C 329.627 -4.64423 -4.29528 0
M  V30 3635 C 328.291 -5.03857 -4.37818 0
M  V30 3636 H 327.561 -0.225634 -0.705812 0
M  V30 3637 H 330.208 -1.20921 -1.48493 0
M  V30 3638 H 328.513 -0.252195 -3.90987 0
M  V30 3639 H 330.21 -0.6405 -3.95852 0
M  V30 3640 H 326.8 -2.06013 -3.75841 0
M  V30 3641 H 330.984 -3.02488 -3.93465 0
M  V30 3642 H 326.24 -4.40467 -4.24027 0
M  V30 3643 H 330.414 -5.37369 -4.42953 0
M  V30 3644 H 328.041 -6.06843 -4.57871 0
M  V30 3645 N 329.616 1.39756 -0.72842 0
M  V30 3646 C 330.548 2.29157 -0.0446202 0
M  V30 3647 C 331.561 1.46484 0.710367 0
M  V30 3648 O 332.75 1.69632 0.55562 0
M  V30 3649 C 329.85 3.24987 0.961071 0
M  V30 3650 C 329.023 4.36572 0.268967 0
M  V30 3651 C 328.082 5.12756 1.18184 0
M  V30 3652 O 327.108 5.6534 0.661794 0
M  V30 3653 N 328.31 5.23331 2.51206 0
M  V30 3654 H 331.075 2.88482 -0.812295 0
M  V30 3655 H 328.636 1.51265 -0.577098 0
M  V30 3656 H 330.628 3.72827 1.57423 0
M  V30 3657 H 329.198 2.66739 1.63 0
M  V30 3658 H 328.418 3.90694 -0.524574 0
M  V30 3659 H 329.706 5.08363 -0.210934 0
M  V30 3660 H 329.104 4.82116 2.9594 0
M  V30 3661 H 327.661 5.74634 3.07634 0
M  V30 3662 N 331.094 0.475555 1.50254 0
M  V30 3663 C 332.342 -0.077738 2.0195 0
M  V30 3664 C 332.663 -1.39813 1.35931 0
M  V30 3665 O 331.933 -1.89249 0.506123 0
M  V30 3666 H 330.513 -0.031719 0.746326 0
M  V30 3667 H 333.175 0.626995 1.84539 0
M  V30 3668 H 332.271 -0.225995 3.11281 0
M  V30 3669 N 332.573 -1.56217 0.208337 0
M  V30 3670 C 333.82 -1.97949 -0.42692 0
M  V30 3671 C 334.148 -1.09562 -1.60706 0
M  V30 3672 O 333.403 -0.137616 -1.95216 0
M  V30 3673 C 333.702 -3.45441 -0.916797 0
M  V30 3674 C 333.368 -4.50646 0.151391 0
M  V30 3675 C 332.03 -4.79139 0.444867 0
M  V30 3676 C 334.382 -5.13811 0.874492 0
M  V30 3677 C 331.71 -5.68084 1.46619 0
M  V30 3678 C 334.062 -6.03861 1.88506 0
M  V30 3679 C 332.726 -6.30704 2.18559 0
M  V30 3680 H 331.996 -0.724345 -0.156221 0
M  V30 3681 H 334.643 -1.89006 0.308084 0
M  V30 3682 H 332.948 -3.51521 -1.73032 0
M  V30 3683 H 334.645 -3.75094 -1.41794 0
M  V30 3684 H 331.235 -4.28511 -0.0875068 0
M  V30 3685 H 335.419 -4.91879 0.660996 0
M  V30 3686 H 330.675 -5.87151 1.7048 0
M  V30 3687 H 334.849 -6.51861 2.45051 0
M  V30 3688 H 332.476 -6.99424 2.97843 0
M  V30 3689 N 334.051 0.0651679 -1.57465 0
M  V30 3690 C 334.981 1.07693 -2.07182 0
M  V30 3691 C 335.962 1.39962 -0.966673 0
M  V30 3692 O 337.147 1.49475 -1.2398 0
M  V30 3693 C 334.277 2.3885 -2.52127 0
M  V30 3694 C 333.231 2.20917 -3.66579 0
M  V30 3695 C 332.557 3.57515 -3.97601 0
M  V30 3696 C 333.857 1.62493 -4.9638 0
M  V30 3697 H 335.551 0.663199 -2.91962 0
M  V30 3698 H 333.097 0.317569 -1.40455 0
M  V30 3699 H 335.05 3.09928 -2.85522 0
M  V30 3700 H 333.774 2.82215 -1.64384 0
M  V30 3701 H 332.433 1.52279 -3.33477 0
M  V30 3702 H 332.081 3.98463 -3.06979 0
M  V30 3703 H 331.781 3.46353 -4.74672 0
M  V30 3704 H 333.305 4.30013 -4.33499 0
M  V30 3705 H 334.719 2.23445 -5.27963 0
M  V30 3706 H 333.116 1.62009 -5.77818 0
M  V30 3707 H 334.186 0.587041 -4.81333 0
M  V30 3708 N 335.529 1.53961 0.336706 0
M  V30 3709 C 336.477 1.83136 1.43401 0
M  V30 3710 C 337.471 0.702313 1.54156 0
M  V30 3711 O 338.677 0.885765 1.56698 0
M  V30 3712 H 335.052 0.580309 0.478273 0
M  V30 3713 H 337.023 2.74925 1.16012 0
M  V30 3714 C 335.772 2.06385 2.79822 0
M  V30 3715 H 335.095 2.92718 2.72316 0
M  V30 3716 H 336.535 2.30761 3.55704 0
M  V30 3717 C 334.994 0.851414 3.25964 0
M  V30 3718 O 335.524 0.0541904 4.01663 0
M  V30 3719 N 333.73 0.66672 2.82848 0
M  V30 3720 H 333.277 1.31665 2.21409 0
M  V30 3721 H 333.235 -0.143032 3.14074 0
M  V30 3722 N 337.007 -0.598083 1.45811 0
M  V30 3723 C 337.937 -1.71873 1.58057 0
M  V30 3724 C 338.918 -1.64533 0.431615 0
M  V30 3725 O 340.103 -1.82787 0.65595 0
M  V30 3726 C 337.233 -3.10495 1.55597 0
M  V30 3727 C 336.187 -3.32654 2.69305 0
M  V30 3728 C 335.513 -4.71646 2.51902 0
M  V30 3729 C 336.813 -3.21981 4.11248 0
M  V30 3730 H 338.507 -1.61881 2.51863 0
M  V30 3731 H 336.053 -0.777372 1.21214 0
M  V30 3732 H 338.006 -3.88699 1.6276 0
M  V30 3733 H 336.73 -3.2135 0.583255 0
M  V30 3734 H 335.389 -2.56843 2.61586 0
M  V30 3735 H 335.037 -4.79246 1.52748 0
M  V30 3736 H 334.737 -4.87426 3.2816 0
M  V30 3737 H 336.261 -5.52038 2.60933 0
M  V30 3738 H 337.675 -3.90049 4.20161 0
M  V30 3739 H 336.072 -3.49289 4.87972 0
M  V30 3740 H 337.142 -2.1928 4.32486 0
M  V30 3741 N 338.485 -1.33259 -0.841409 0
M  V30 3742 C 339.715 -1.2742 -1.62628 0
M  V30 3743 C 340.123 0.157604 -1.88542 0
M  V30 3744 O 339.466 1.10938 -1.46419 0
M  V30 3745 C 339.528 -1.97797 -3.00194 0
M  V30 3746 C 339.192 -3.47109 -2.97261 0
M  V30 3747 C 340.189 -4.42358 -2.73159 0
M  V30 3748 C 337.874 -3.89247 -3.17478 0
M  V30 3749 C 339.868 -5.77718 -2.69296 0
M  V30 3750 C 337.555 -5.24713 -3.13241 0
M  V30 3751 C 338.553 -6.1876 -2.89181 0
M  V30 3752 O 338.241 -7.51745 -2.84843 0
M  V30 3753 H 337.973 -0.440436 -0.512827 0
M  V30 3754 H 340.527 -1.76153 -1.05638 0
M  V30 3755 H 338.757 -1.43652 -3.59028 0
M  V30 3756 H 340.446 -1.8549 -3.61038 0
M  V30 3757 H 341.212 -4.11127 -2.57294 0
M  V30 3758 H 337.091 -3.16456 -3.35226 0
M  V30 3759 H 340.635 -6.51097 -2.50436 0
M  V30 3760 H 336.532 -5.55569 -3.28654 0
M  V30 3761 H 337.3 -7.61262 -3.00702 0
M  V30 3762 N 339.963 1.05934 -1.16686 0
M  V30 3763 C 341.21 1.788 -0.950622 0
M  V30 3764 C 341.538 1.87384 0.521305 0
M  V30 3765 O 340.793 1.36438 1.40297 0
M  V30 3766 C 341.092 3.23105 -1.52767 0
M  V30 3767 C 340.758 3.34594 -3.02254 0
M  V30 3768 C 339.42 3.37437 -3.43059 0
M  V30 3769 C 341.772 3.36219 -3.98254 0
M  V30 3770 C 339.1 3.39525 -4.78477 0
M  V30 3771 C 341.452 3.39845 -5.33562 0
M  V30 3772 C 340.116 3.40971 -5.73842 0
M  V30 3773 H 339.386 0.654275 -0.347857 0
M  V30 3774 H 342.033 1.24555 -1.45459 0
M  V30 3775 H 340.338 3.80227 -0.94524 0
M  V30 3776 H 342.035 3.7809 -1.336 0
M  V30 3777 H 338.625 3.3309 -2.6972 0
M  V30 3778 H 342.809 3.33231 -3.67792 0
M  V30 3779 H 338.065 3.38703 -5.09009 0
M  V30 3780 H 342.239 3.4005 -6.07733 0
M  V30 3781 H 339.866 3.42342 -6.78753 0
M  V30 3782 N 341.441 0.965919 1.2453 0
M  V30 3783 C 342.373 0.452465 2.2469 0
M  V30 3784 C 343.386 -0.437821 1.56802 0
M  V30 3785 O 344.575 -0.244283 1.76821 0
M  V30 3786 C 341.675 -0.366258 3.36915 0
M  V30 3787 C 340.848 0.513701 4.34373 0
M  V30 3788 C 339.907 -0.248716 5.25612 0
M  V30 3789 O 338.933 0.356745 5.68081 0
M  V30 3790 N 340.135 -1.53877 5.59734 0
M  V30 3791 H 342.9 1.31361 2.69378 0
M  V30 3792 H 340.461 0.837541 1.38553 0
M  V30 3793 H 342.453 -0.884297 3.94921 0
M  V30 3794 H 341.023 -1.12832 2.91526 0
M  V30 3795 H 340.243 1.21273 3.75082 0
M  V30 3796 H 341.531 1.11391 4.96457 0
M  V30 3797 H 340.929 -2.05243 5.27154 0
M  V30 3798 H 339.486 -2.00254 6.20275 0
M  V30 3799 N 342.919 -1.39368 0.735821 0
M  V30 3800 C 343.867 -2.32443 0.0855131 0
M  V30 3801 C 344.861 -1.53104 -0.724954 0
M  V30 3802 O 346.067 -1.68762 -0.626047 0
M  V30 3803 H 342.442 -0.751948 0.00885257 0
M  V30 3804 H 344.413 -2.84916 0.886883 0
M  V30 3805 C 343.162 -3.38206 -0.806983 0
M  V30 3806 H 342.485 -3.99335 -0.19274 0
M  V30 3807 H 343.925 -4.05779 -1.2296 0
M  V30 3808 C 342.384 -2.75321 -1.94165 0
M  V30 3809 O 342.914 -2.63231 -3.03435 0
M  V30 3810 N 341.12 -2.33396 -1.73132 0
M  V30 3811 H 340.667 -2.4343 -0.842596 0
M  V30 3812 H 340.625 -1.91661 -2.49225 0
M  V30 3813 N 344.397 -0.483516 -1.5 0
M  V30 3814 C 345.345 0.318061 -2.30415 0
M  V30 3815 C 346.339 0.978988 -1.38247 0
M  V30 3816 O 347.545 0.908673 -1.55381 0
M  V30 3817 H 343.92 0.121419 -0.742133 0
M  V30 3818 H 345.891 -0.380403 -2.95965 0
M  V30 3819 C 344.64 1.38013 -3.19136 0
M  V30 3820 H 343.963 0.880952 -3.89973 0
M  V30 3821 H 345.403 1.91332 -3.78375 0
M  V30 3822 C 343.862 2.38884 -2.37563 0
M  V30 3823 O 344.392 3.44412 -2.06744 0
M  V30 3824 N 342.598 2.10912 -1.99911 0
M  V30 3825 H 342.145 1.25118 -2.25174 0
M  V30 3826 H 342.103 2.78635 -1.45636 0
M  V30 3827 N 345.875 1.56104 -0.216619 0
M  V30 3828 C 347.286 1.844 0.292128 0
M  V30 3829 C 347.637 1.13788 1.59833 0
M  V30 3830 O 346.762 0.405888 2.12559 0
M  V30 3831 C 347.357 3.3452 0.53681 0
M  V30 3832 C 345.916 3.63151 0.989876 0
M  V30 3833 C 345.063 2.77255 0.0502302 0
M  V30 3834 H 348.014 1.52481 -0.439926 0
M  V30 3835 H 348.035 3.54459 1.38345 0
M  V30 3836 H 347.547 3.85885 -0.414031 0
M  V30 3837 H 345.648 3.17238 1.95425 0
M  V30 3838 H 345.761 4.71177 0.867698 0
M  V30 3839 H 344.125 2.48555 0.556117 0
M  V30 3840 H 344.908 3.31416 -0.89544 0
M  V30 3841 N 347.353 -0.0568162 1.57498 0
M  V30 3842 C 348.301 -1.08452 2.05769 0
M  V30 3843 C 349.295 -1.39164 0.965903 0
M  V30 3844 O 350.501 -1.38395 1.15095 0
M  V30 3845 H 346.876 -0.367148 0.656282 0
M  V30 3846 H 348.847 -0.651368 2.91204 0
M  V30 3847 C 347.596 -2.38543 2.52968 0
M  V30 3848 H 346.919 -2.15765 3.36579 0
M  V30 3849 H 348.359 -3.08863 2.90481 0
M  V30 3850 C 346.818 -3.05562 1.41893 0
M  V30 3851 O 347.348 -3.94262 0.769442 0
M  V30 3852 N 345.554 -2.6643 1.16032 0
M  V30 3853 H 345.101 -1.94387 1.6903 0
M  V30 3854 H 345.059 -3.11593 0.419219 0
M  V30 3855 N 348.832 -1.54138 -0.328536 0
M  V30 3856 C 349.795 -1.82462 -1.38709 0
M  V30 3857 C 350.795 -0.696229 -1.44946 0
M  V30 3858 O 351.985 -0.964535 -1.4506 0
M  V30 3859 C 349.117 -1.98018 -2.77492 0
M  V30 3860 H 350.31 -2.77037 -1.14851 0
M  V30 3861 H 347.863 -1.45779 -0.563751 0
M  V30 3862 H 348.598 -1.05637 -3.06613 0
M  V30 3863 H 348.383 -2.80124 -2.74359 0
M  V30 3864 H 349.873 -2.21396 -3.54081 0
M  V30 3865 N 350.31 0.590341 -1.46126 0
M  V30 3866 C 351.557 1.34882 -1.5104 0
M  V30 3867 C 351.885 1.93849 -0.159021 0
M  V30 3868 O 351.14 1.76544 0.844436 0
M  V30 3869 C 351.439 2.5032 -2.55097 0
M  V30 3870 C 351.105 2.09394 -3.99331 0
M  V30 3871 C 349.767 1.97947 -4.38601 0
M  V30 3872 C 352.119 1.77712 -4.89967 0
M  V30 3873 C 349.447 1.53065 -5.66381 0
M  V30 3874 C 351.799 1.34312 -6.18177 0
M  V30 3875 C 350.463 1.21436 -6.56361 0
M  V30 3876 H 349.733 0.493568 -0.552695 0
M  V30 3877 H 352.38 0.665539 -1.79563 0
M  V30 3878 H 350.685 3.24062 -2.20207 0
M  V30 3879 H 352.382 3.08541 -2.56132 0
M  V30 3880 H 348.972 2.19235 -3.68285 0
M  V30 3881 H 353.156 1.85445 -4.60352 0
M  V30 3882 H 348.412 1.41733 -5.94745 0
M  V30 3883 H 352.586 1.08849 -6.87841 0
M  V30 3884 H 350.213 0.864345 -7.5527 0
M  V30 3885 N 351.788 1.33704 0.83433 0
M  V30 3886 C 353.065 1.16011 1.57483 0
M  V30 3887 C 353.445 -0.27176 2.09343 0
M  V30 3888 O 352.793 -1.27146 1.89858 0
M  V30 3889 C 353.003 2.20507 2.70514 0
M  V30 3890 C 354.351 2.54898 3.39577 0
M  V30 3891 O 355.375 2.19209 2.80759 0
M  V30 3892 O 354.234 3.16158 4.45765 0
M  V30 3893 H 351.328 0.448992 0.694503 0
M  V30 3894 H 353.874 1.453 0.876691 0
M  V30 3895 H 352.646 3.16667 2.29865 0
M  V30 3896 H 352.269 1.92329 3.47987 0
M  V30 3897 N 353.266 -1.05314 1.17247 0
M  V30 3898 C 354.513 -1.78293 0.960091 0
M  V30 3899 C 354.841 -1.87658 -0.51136 0
M  V30 3900 O 354.096 -1.3718 -1.39571 0
M  V30 3901 C 354.395 -3.2229 1.54479 0
M  V30 3902 C 354.061 -3.32987 3.04024 0
M  V30 3903 C 352.723 -3.35613 3.44844 0
M  V30 3904 C 355.075 -3.34102 4.00031 0
M  V30 3905 C 352.403 -3.36982 4.8027 0
M  V30 3906 C 354.755 -3.3701 5.35357 0
M  V30 3907 C 353.419 -3.37923 5.75642 0
M  V30 3908 H 352.689 -0.652422 0.351322 0
M  V30 3909 H 355.336 -1.23782 1.46117 0
M  V30 3910 H 353.641 -3.7972 0.965391 0
M  V30 3911 H 355.338 -3.77376 1.35603 0
M  V30 3912 H 351.928 -3.31655 2.71483 0
M  V30 3913 H 356.112 -3.31276 3.69554 0
M  V30 3914 H 351.368 -3.35999 5.10798 0
M  V30 3915 H 355.542 -3.36822 6.09528 0
M  V30 3916 H 353.169 -3.38738 6.80559 0
M  V30 3917 N 354.744 -0.972509 -1.24016 0
M  V30 3918 C 355.992 -0.635776 -1.91839 0
M  V30 3919 C 356.313 0.832312 -1.76345 0
M  V30 3920 O 355.583 1.5946 -1.13795 0
M  V30 3921 H 354.163 -0.232157 -0.710009 0
M  V30 3922 H 356.825 -1.23462 -1.50809 0
M  V30 3923 H 355.921 -0.880545 -2.99421 0
M  V30 3924 N 356.222 1.38976 -0.743202 0
M  V30 3925 C 357.152 2.33171 -0.123873 0
M  V30 3926 C 358.133 1.54336 0.71516 0
M  V30 3927 O 359.318 1.82696 0.658467 0
M  V30 3928 C 356.448 3.38474 0.777978 0
M  V30 3929 C 355.402 4.27979 0.0424758 0
M  V30 3930 C 354.728 5.2405 1.06189 0
M  V30 3931 C 356.028 5.10155 -1.1198 0
M  V30 3932 H 357.722 2.85213 -0.910709 0
M  V30 3933 H 355.268 1.37133 -0.439388 0
M  V30 3934 H 357.221 4.03328 1.22084 0
M  V30 3935 H 355.945 2.84891 1.59702 0
M  V30 3936 H 354.604 3.64616 -0.380853 0
M  V30 3937 H 354.252 4.66758 1.87472 0
M  V30 3938 H 353.952 5.84785 0.574485 0
M  V30 3939 H 355.476 5.9178 1.50428 0
M  V30 3940 H 356.89 5.68307 -0.75499 0
M  V30 3941 H 355.287 5.80073 -1.53738 0
M  V30 3942 H 356.357 4.44504 -1.93764 0
M  V30 3943 N 357.7 0.491464 1.49741 0
M  V30 3944 C 358.94 -0.0549118 2.04326 0
M  V30 3945 C 359.304 -1.35148 1.36378 0
M  V30 3946 O 360.505 -1.9815 1.81631 0
M  V30 3947 C 358.776 -0.213841 3.5676 0
M  V30 3948 S 360.335 -0.715839 4.32922 0
M  V30 3949 H 357.153 -0.00630513 0.710972 0
M  V30 3950 H 359.755 0.663257 1.83905 0
M  V30 3951 H 358.459 0.73527 4.0376 0
M  V30 3952 H 357.99 -0.957529 3.81569 0
M  V30 3953 H 360.005 -1.9864 4.54705 0
M  V30 3954 O 359.217 -1.57286 0.366498 0
M  V30 3955 H 359.908 -1.92825 -0.183877 0
M  V30 END ATOM
M  V30 BEGIN BOND
M  V30 END BOND
M  V30 END CTAB
M  END
$$$$
