drugbank_target|P60880 Synaptosomal-associated protein 25 (DB00083)
 OpenBabel12092119303D

  0  0  0     0  0            999 V3000
M  V30 BEGIN CTAB
M  V30 COUNTS 3198 3205 0 0 0
M  V30 BEGIN ATOM
M  V30 1 H -0.908 1.98254 -0.117106 0
M  V30 2 N 0 1.576 0 0
M  V30 3 C 0.933 2.03868 1.02534 0
M  V30 4 C 1.911 0.928543 1.3348 0
M  V30 5 O 3.095 1.19667 1.45644 0
M  V30 6 C 0.222 2.43627 2.35294 0
M  V30 7 C -0.732 3.65373 2.2001 0
M  V30 8 S 0.101 5.13292 1.52614 0
M  V30 9 C 1.257 5.56322 2.86805 0
M  V30 10 H 1.49 2.90518 0.631377 0
M  V30 11 H -0.977 1.52953 0.210867 0
M  V30 12 H 0.981 2.67203 3.11629 0
M  V30 13 H -0.358 1.57376 2.7183 0
M  V30 14 H -1.165 3.90944 3.18086 0
M  V30 15 H -1.563 3.418 1.51819 0
M  V30 16 H 0.729 5.58782 3.83104 0
M  V30 17 H 1.672 6.56266 2.65933 0
M  V30 18 H 2.08 4.83886 2.90714 0
M  V30 19 N 1.4781 -0.272755 1.55222 0
M  V30 20 C 2.4411 -1.32041 1.87344 0
M  V30 21 C 3.4411 -1.42342 0.74803 0
M  V30 22 O 4.6311 -1.41488 1.0162 0
M  V30 23 C 1.7631 -2.70173 2.07893 0
M  V30 24 H 2.9561 -1.04789 2.80997 0
M  V30 25 H 0.5091 -0.51083 1.47717 0
M  V30 26 H 1.2441 -3.02605 1.16622 0
M  V30 27 H 1.0291 -2.64082 2.89833 0
M  V30 28 H 2.5191 -3.45869 2.34017 0
M  V30 29 N 2.9562 -1.48159 -0.537278 0
M  V30 30 C 3.8662 -1.64807 -1.6696 0
M  V30 31 C 4.8822 -0.530651 -1.65711 0
M  V30 32 O 6.0582 -0.800784 -1.84796 0
M  V30 33 C 3.1232 -1.67708 -3.03438 0
M  V30 34 C 2.1842 -2.91025 -3.156 0
M  V30 35 C 1.4172 -2.93778 -4.45567 0
M  V30 36 O 1.6402 -2.05153 -5.3223 0
M  V30 37 O 0.5742 -3.85868 -4.61941 0
M  V30 38 H 4.4002 -2.6066 -1.55853 0
M  V30 39 H 1.9852 -1.31475 -0.709549 0
M  V30 40 H 3.8672 -1.7218 -3.84619 0
M  V30 41 H 2.5422 -0.750278 -3.14885 0
M  V30 42 H 1.4492 -2.92089 -2.33741 0
M  V30 43 H 2.7822 -3.83065 -3.09066 0
M  V30 44 N 4.4343 0.785586 -1.36625 0
M  V30 45 C 5.7113 1.53198 -1.21613 0
M  V30 46 C 6.0913 2.10187 0.196113 0
M  V30 47 O 5.4393 1.94318 1.20219 0
M  V30 48 C 5.6493 2.62388 -2.30116 0
M  V30 49 C 6.9973 3.30167 -2.66974 0
M  V30 50 O 8.0213 2.72674 -2.29188 0
M  V30 51 O 6.8803 4.34077 -3.32023 0
M  V30 52 H 3.9743 0.677865 -0.473738 0
M  V30 53 H 6.5203 0.823739 -1.48367 0
M  V30 54 H 5.2923 2.18299 -3.24748 0
M  V30 55 H 4.9153 3.40827 -2.0475 0
M  V30 56 N 5.9124 1.20967 1.01018 0
M  V30 57 C 6.8754 0.965918 2.07853 0
M  V30 58 C 7.8754 -0.0610545 1.60684 0
M  V30 59 O 9.0654 0.175681 1.73312 0
M  V30 60 C 6.1974 0.455513 3.37843 0
M  V30 61 H 7.3904 1.91365 2.3091 0
M  V30 62 H 4.9434 1.02594 1.17916 0
M  V30 63 H 5.6784 -0.497381 3.20463 0
M  V30 64 H 5.4634 1.19622 3.73407 0
M  V30 65 H 6.9534 0.304667 4.16487 0
M  V30 66 N 7.3905 -1.2043 1.01659 0
M  V30 67 C 8.6675 -1.8548 0.621004 0
M  V30 68 C 9.0475 -1.9091 -0.900919 0
M  V30 69 O 8.3955 -1.41694 -1.79263 0
M  V30 70 C 8.6055 -3.25119 1.2688 0
M  V30 71 C 9.9535 -4.01403 1.38423 0
M  V30 72 O 10.9775 -3.34473 1.22501 0
M  V30 73 O 9.8365 -5.21265 1.64151 0
M  V30 74 H 6.9305 -0.798761 0.214266 0
M  V30 75 H 9.4765 -1.28019 1.11396 0
M  V30 76 H 8.2485 -3.15932 2.30873 0
M  V30 77 H 7.8715 -3.90212 0.762917 0
M  V30 78 N 8.8686 -0.792821 -1.36206 0
M  V30 79 C 9.8016 -0.139422 -2.27774 0
M  V30 80 C 10.7796 0.68649 -1.47398 0
M  V30 81 O 11.9636 0.656738 -1.7669 0
M  V30 82 C 9.0906 0.807947 -3.28922 0
M  V30 83 C 8.1366 0.0633999 -4.26453 0
M  V30 84 S 8.9696 -1.26319 -5.20388 0
M  V30 85 C 10.1256 -0.31991 -6.25082 0
M  V30 86 H 10.3586 -0.915809 -2.82843 0
M  V30 87 H 7.8916 -0.587203 -1.42798 0
M  V30 88 H 9.8496 1.34908 -3.87699 0
M  V30 89 H 8.5106 1.55761 -2.72759 0
M  V30 90 H 7.7036 0.782386 -4.9789 0
M  V30 91 H 7.3056 -0.407352 -3.71775 0
M  V30 92 H 9.5976 0.499985 -6.75653 0
M  V30 93 H 10.5406 -1.00307 -7.00959 0
M  V30 94 H 10.9486 0.0782694 -5.64446 0
M  V30 95 N 10.3467 1.47872 -0.545128 0
M  V30 96 C 11.7627 1.5829 -0.204032 0
M  V30 97 C 11.9627 1.54529 1.29317 0
M  V30 98 O 11.0187 1.44232 2.07252 0
M  V30 99 C 12.3317 2.89304 -0.819987 0
M  V30 100 C 13.8797 3.02864 -0.790105 0
M  V30 101 C 14.3547 4.3656 -1.38491 0
M  V30 102 N 15.8457 4.43165 -1.34755 0
M  V30 103 C 16.5807 5.45153 -1.77753 0
M  V30 104 N 16.0767 6.54016 -2.2855 0
M  V30 105 N 17.8697 5.36125 -1.68897 0
M  V30 106 H 10.0207 1.4856 -1.51802 0
M  V30 107 H 12.2837 0.706305 -0.632327 0
M  V30 108 H 11.9897 2.97757 -1.87173 0
M  V30 109 H 11.8637 3.75957 -0.305915 0
M  V30 110 H 14.2507 2.94014 0.252913 0
M  V30 111 H 14.3317 2.17782 -1.34181 0
M  V30 112 H 13.9757 4.46164 -2.42693 0
M  V30 113 H 13.9057 5.20353 -0.808754 0
M  V30 114 H 16.3967 3.65083 -0.975855 0
M  V30 115 H 16.7097 7.27994 -2.59314 0
M  V30 116 H 15.0547 6.54938 -2.32553 0
M  V30 117 H 18.2457 4.49975 -1.28998 0
M  V30 118 H 18.4187 6.15472 -2.02726 0
M  V30 119 N 11.8248 0.280983 1.55075 0
M  V30 120 C 12.7728 -0.619864 2.24188 0
M  V30 121 C 13.7668 -1.15315 1.24092 0
M  V30 122 O 14.9728 -1.1061 1.42005 0
M  V30 123 H 11.3478 -0.218459 0.719569 0
M  V30 124 H 13.3188 -0.0141831 2.98397 0
M  V30 125 C 12.0678 -1.7899 2.98091 0
M  V30 126 H 11.3908 -1.38874 3.74905 0
M  V30 127 H 12.8308 -2.39672 3.49762 0
M  V30 128 C 11.2898 -2.68192 2.03899 0
M  V30 129 O 11.8198 -3.6872 1.594 0
M  V30 130 N 10.0258 -2.35488 1.70275 0
M  V30 131 H 9.5728 -1.53787 2.06658 0
M  V30 132 H 9.5308 -2.95442 1.07524 0
M  V30 133 N 13.3029 -1.57598 0.00835791 0
M  V30 134 C 14.2129 -2.12385 -0.996487 0
M  V30 135 C 15.2289 -1.07108 -1.37127 0
M  V30 136 O 16.4049 -1.39055 -1.4569 0
M  V30 137 C 13.4699 -2.62314 -2.26699 0
M  V30 138 C 12.5309 -3.82225 -1.95456 0
M  V30 139 C 11.7639 -4.29763 -3.16449 0
M  V30 140 O 11.9869 -3.76584 -4.28416 0
M  V30 141 O 10.9209 -5.21832 -2.99958 0
M  V30 142 H 14.7469 -2.98479 -0.560725 0
M  V30 143 H 12.3319 -1.47903 -0.210987 0
M  V30 144 H 14.2139 -2.94589 -3.01322 0
M  V30 145 H 12.8889 -1.79313 -2.69497 0
M  V30 146 H 11.7959 -3.54909 -1.18282 0
M  V30 147 H 13.1289 -4.66324 -1.57489 0
M  V30 148 N 14.781 0.264519 -1.55364 0
M  V30 149 C 15.711 1.33121 -1.91836 0
M  V30 150 C 16.692 1.51101 -0.781192 0
M  V30 151 O 17.877 1.64003 -1.04003 0
M  V30 152 C 15.007 2.68921 -2.19769 0
M  V30 153 C 13.961 2.65661 -3.35571 0
M  V30 154 C 13.287 4.05093 -3.49004 0
M  V30 155 C 14.587 2.24187 -4.71739 0
M  V30 156 H 16.281 1.02844 -2.81182 0
M  V30 157 H 13.827 0.493286 -1.35287 0
M  V30 158 H 15.78 3.43663 -2.43872 0
M  V30 159 H 14.504 3.00799 -1.27231 0
M  V30 160 H 13.163 1.93377 -3.1145 0
M  V30 161 H 12.811 4.34206 -2.53917 0
M  V30 162 H 12.511 4.03804 -4.26868 0
M  V30 163 H 14.035 4.81561 -3.75408 0
M  V30 164 H 15.449 2.88654 -4.9533 0
M  V30 165 H 13.846 2.34044 -5.52579 0
M  V30 166 H 14.916 1.19327 -4.69988 0
M  V30 167 N 16.2591 1.48442 0.529413 0
M  V30 168 C 17.1691 1.6569 1.66084 0
M  V30 169 C 18.1851 0.539432 1.65427 0
M  V30 170 O 19.3611 0.810572 1.84368 0
M  V30 171 C 16.4261 1.69315 3.02545 0
M  V30 172 C 15.4871 2.92694 3.14052 0
M  V30 173 C 14.7201 2.96137 4.44003 0
M  V30 174 O 14.9431 2.07973 5.31134 0
M  V30 175 O 13.8771 3.88312 4.59888 0
M  V30 176 H 17.7031 2.61483 1.54469 0
M  V30 177 H 15.2881 1.3185 0.702567 0
M  V30 178 H 17.1701 1.74217 3.83701 0
M  V30 179 H 15.8451 0.766966 3.14483 0
M  V30 180 H 14.7521 2.93324 2.32189 0
M  V30 181 H 16.0851 3.84699 3.0703 0
M  V30 182 N 17.7372 -0.778329 1.37039 0
M  V30 183 C 18.6472 -1.92253 1.34446 0
M  V30 184 C 19.6632 -1.72267 0.244991 0
M  V30 185 O 20.8392 -1.95615 0.479258 0
M  V30 186 C 17.9042 -3.27282 1.144 0
M  V30 187 C 16.9652 -3.59969 2.33925 0
M  V30 188 C 16.1982 -4.88555 2.14825 0
M  V30 189 O 16.4212 -5.59113 1.12912 0
M  V30 190 O 15.3552 -5.20153 3.02861 0
M  V30 191 H 19.1812 -1.97392 2.30803 0
M  V30 192 H 16.7662 -0.920154 1.17701 0
M  V30 193 H 18.6482 -4.08062 1.05182 0
M  V30 194 H 17.3232 -3.23011 0.211124 0
M  V30 195 H 16.2302 -2.7945 2.48714 0
M  V30 196 H 17.5632 -3.68976 3.25757 0
M  V30 197 N 19.2153 -1.21501 -1.00376 0
M  V30 198 C 20.1483 -0.918669 -2.08892 0
M  V30 199 C 21.1263 0.134277 -1.62045 0
M  V30 200 O 22.3103 0.00504255 -1.88499 0
M  V30 201 C 19.4373 -0.379645 -3.36566 0
M  V30 202 C 18.4833 -1.41559 -4.02323 0
M  V30 203 S 19.3163 -2.98521 -4.44574 0
M  V30 204 C 20.4723 -2.46228 -5.75433 0
M  V30 205 H 20.7053 -1.83761 -2.33707 0
M  V30 206 H 18.2383 -1.04489 -1.13673 0
M  V30 207 H 20.1963 -0.0752195 -4.10431 0
M  V30 208 H 18.8573 0.518008 -3.09799 0
M  V30 209 H 18.0503 -0.988076 -4.9422 0
M  V30 210 H 17.6523 -1.66815 -3.34737 0
M  V30 211 H 19.9443 -1.86791 -6.51241 0
M  V30 212 H 20.8873 -3.36572 -6.22997 0
M  V30 213 H 21.2953 -1.87894 -5.32312 0
M  V30 214 N 20.6934 1.19889 -1.02296 0
M  V30 215 C 21.6254 2.22334 -0.556787 0
M  V30 216 C 22.6384 1.58674 0.364199 0
M  V30 217 O 23.8274 1.77768 0.161533 0
M  V30 218 C 20.9274 3.38257 0.208694 0
M  V30 219 C 20.1004 4.31504 -0.71577 0
M  V30 220 C 19.1594 5.262 0.00325597 0
M  V30 221 O 18.1854 5.65798 -0.621357 0
M  V30 222 N 19.3874 5.66303 1.27599 0
M  V30 223 H 22.1524 2.62957 -1.43784 0
M  V30 224 H 19.7134 1.34495 -0.901261 0
M  V30 225 H 21.7054 3.98616 0.699111 0
M  V30 226 H 20.2754 2.96472 0.991102 0
M  V30 227 H 19.4954 3.69016 -1.38638 0
M  V30 228 H 20.7834 4.9072 -1.34428 0
M  V30 229 H 20.1814 5.36155 1.80429 0
M  V30 230 H 18.7384 6.28942 1.71102 0
M  V30 231 N 22.1715 0.800033 1.35784 0
M  V30 232 C 23.5875 0.482977 1.52117 0
M  V30 233 C 23.7875 -0.996948 1.75109 0
M  V30 234 O 22.8435 -1.78216 1.78872 0
M  V30 235 C 24.1565 1.32264 2.70049 0
M  V30 236 C 25.7045 1.31742 2.83924 0
M  V30 237 C 26.1795 2.14106 4.04874 0
M  V30 238 N 27.6705 2.11607 4.12039 0
M  V30 239 C 28.4055 2.72099 5.04727 0
M  V30 240 N 27.9015 3.41492 6.02789 0
M  V30 241 N 29.6945 2.61776 4.97423 0
M  V30 242 H 21.8455 1.75856 1.19115 0
M  V30 243 H 24.1085 0.748122 0.582252 0
M  V30 244 H 23.8145 2.37261 2.59616 0
M  V30 245 H 23.6885 0.971303 3.6448 0
M  V30 246 H 26.0755 0.275333 2.93813 0
M  V30 247 H 26.1565 1.70859 1.9037 0
M  V30 248 H 25.8005 3.18351 3.95746 0
M  V30 249 H 25.7305 1.72353 4.97596 0
M  V30 250 H 28.2215 1.61112 3.41835 0
M  V30 251 H 28.5345 3.84953 6.70098 0
M  V30 252 H 26.8795 3.45596 6.02983 0
M  V30 253 H 30.0705 2.07157 4.19766 0
M  V30 254 H 30.2435 3.0921 5.69468 0
M  V30 255 N 23.6496 -1.47581 0.552962 0
M  V30 256 C 25.0656 -1.5818 0.212424 0
M  V30 257 C 25.2656 -1.55213 -1.28496 0
M  V30 258 O 24.3216 -1.45329 -2.06484 0
M  V30 259 C 25.6346 -2.88865 0.835318 0
M  V30 260 C 27.1826 -3.0244 0.806156 0
M  V30 261 C 27.6576 -4.35819 1.40804 0
M  V30 262 N 29.1486 -4.42444 1.37103 0
M  V30 263 C 29.8836 -5.44202 1.80641 0
M  V30 264 N 29.3796 -6.52795 2.32015 0
M  V30 265 N 31.1726 -5.35222 1.71738 0
M  V30 266 H 23.3236 -1.47753 1.52587 0
M  V30 267 H 25.5866 -0.702941 0.636064 0
M  V30 268 H 25.2926 -2.9676 1.88749 0
M  V30 269 H 25.1666 -3.7579 0.325848 0
M  V30 270 H 27.5536 -2.94144 -0.237317 0
M  V30 271 H 27.6346 -2.17068 1.35334 0
M  V30 272 H 27.2786 -4.44871 2.45056 0
M  V30 273 H 27.2086 -5.19916 0.836338 0
M  V30 274 H 29.6996 -3.6456 0.995202 0
M  V30 275 H 30.0126 -7.26609 2.63171 0
M  V30 276 H 28.3576 -6.53696 2.36023 0
M  V30 277 H 31.5486 -4.49284 1.31382 0
M  V30 278 H 31.7216 -6.14389 2.05987 0
M  V30 279 N 25.1277 -0.289203 -1.54924 0
M  V30 280 C 26.0907 0.579144 -2.21762 0
M  V30 281 C 27.0907 1.07047 -1.1999 0
M  V30 282 O 28.2807 0.968384 -1.44803 0
M  V30 283 C 25.4127 1.80055 -2.8947 0
M  V30 284 H 26.6057 -0.00464908 -2.999 0
M  V30 285 H 24.1587 -0.0399306 -1.56249 0
M  V30 286 H 24.8937 2.42449 -2.15381 0
M  V30 287 H 24.6787 1.45602 -3.64064 0
M  V30 288 H 26.1687 2.41773 -3.40493 0
M  V30 289 N 26.6058 1.57591 -0.0167156 0
M  V30 290 C 27.8828 1.82547 0.702564 0
M  V30 291 C 28.2628 0.898018 1.91047 0
M  V30 292 O 27.6108 -0.0493456 2.28447 0
M  V30 293 C 27.8208 3.31459 1.09251 0
M  V30 294 C 29.1688 3.97622 1.48937 0
M  V30 295 O 30.1928 3.35881 1.18584 0
M  V30 296 O 29.0518 5.06415 2.05442 0
M  V30 297 H 26.1458 0.752268 0.343544 0
M  V30 298 H 28.6918 1.69644 -0.0434495 0
M  V30 299 H 27.4638 3.9061 0.23227 0
M  V30 300 H 27.0868 3.49422 1.89709 0
M  V30 301 N 28.0839 -0.256276 1.55502 0
M  V30 302 C 29.0159 -1.33981 1.85962 0
M  V30 303 C 30.0289 -1.44743 0.745212 0
M  V30 304 O 31.2179 -1.4626 1.02324 0
M  V30 305 C 28.3179 -2.7194 2.02242 0
M  V30 306 C 27.4909 -2.83562 3.33033 0
M  V30 307 C 26.5499 -4.02304 3.39172 0
M  V30 308 O 25.5759 -3.92273 4.12444 0
M  V30 309 N 26.7779 -5.15045 2.67784 0
M  V30 310 H 29.5429 -1.08191 2.7949 0
M  V30 311 H 27.1039 -0.446388 1.55624 0
M  V30 312 H 29.0959 -3.49697 2.03701 0
M  V30 313 H 27.6659 -2.90479 1.15502 0
M  V30 314 H 26.8859 -1.92555 3.43971 0
M  V30 315 H 28.1739 -2.88271 4.19258 0
M  V30 316 H 27.5719 -5.26085 2.07968 0
M  V30 317 H 26.1289 -5.90972 2.74947 0
M  V30 318 N 29.562 -1.4872 -0.521534 0
M  V30 319 C 30.492 -1.66771 -1.63431 0
M  V30 320 C 31.473 -0.516499 -1.62069 0
M  V30 321 O 32.658 -0.750013 -1.79132 0
M  V30 322 C 29.788 -1.71515 -3.01993 0
M  V30 323 C 28.742 -2.86222 -3.18216 0
M  V30 324 C 28.068 -2.76061 -4.57924 0
M  V30 325 C 29.368 -4.27419 -3.00184 0
M  V30 326 H 31.062 -2.59932 -1.48579 0
M  V30 327 H 28.608 -1.25089 -0.713358 0
M  V30 328 H 30.561 -1.82731 -3.7972 0
M  V30 329 H 29.285 -0.749393 -3.17886 0
M  V30 330 H 27.944 -2.74575 -2.42908 0
M  V30 331 H 27.592 -1.77437 -4.70665 0
M  V30 332 H 27.292 -3.53037 -4.69722 0
M  V30 333 H 28.816 -2.89256 -5.37739 0
M  V30 334 H 30.23 -4.39855 -3.67697 0
M  V30 335 H 28.627 -5.05458 -3.2347 0
M  V30 336 H 29.697 -4.43293 -1.96518 0
M  V30 337 N 31.0401 0.771051 -1.3745 0
M  V30 338 C 32.0031 1.86598 -1.33093 0
M  V30 339 C 33.0031 1.59076 -0.234845 0
M  V30 340 O 34.1931 1.67145 -0.490732 0
M  V30 341 C 31.3251 3.23747 -1.06773 0
M  V30 342 H 32.5181 1.91873 -2.30488 0
M  V30 343 H 30.0711 0.970876 -1.2249 0
M  V30 344 H 30.8061 3.24148 -0.099129 0
M  V30 345 H 30.5911 3.45115 -1.86112 0
M  V30 346 H 32.0811 4.03824 -1.06377 0
M  V30 347 N 32.5182 1.22032 0.997298 0
M  V30 348 C 33.7952 0.950823 1.70935 0
M  V30 349 C 34.1752 -0.535292 2.042 0
M  V30 350 O 33.5232 -1.50217 1.72183 0
M  V30 351 C 33.7332 1.84386 2.96315 0
M  V30 352 C 35.0812 2.09732 3.69185 0
M  V30 353 O 36.1052 1.81798 3.06314 0
M  V30 354 O 34.9642 2.57018 4.82291 0
M  V30 355 H 32.0582 0.357204 0.745878 0
M  V30 356 H 34.6042 1.32997 1.05404 0
M  V30 357 H 33.3762 2.84928 2.68201 0
M  V30 358 H 32.9992 1.46602 3.69586 0
M  V30 359 N 33.9963 -1.19345 1.0293 0
M  V30 360 C 34.9063 -2.26245 0.620515 0
M  V30 361 C 35.9223 -1.70486 -0.347928 0
M  V30 362 O 37.0983 -2.00347 -0.205704 0
M  V30 363 C 34.1633 -3.46693 -0.0218957 0
M  V30 364 C 33.2243 -4.17632 0.994102 0
M  V30 365 C 32.4573 -5.32329 0.382253 0
M  V30 366 O 32.6803 -5.64552 -0.814676 0
M  V30 367 O 31.6143 -5.91664 1.10531 0
M  V30 368 H 35.4403 -2.63453 1.51083 0
M  V30 369 H 33.0253 -1.26207 0.799513 0
M  V30 370 H 34.9073 -4.19683 -0.380072 0
M  V30 371 H 33.5823 -3.11333 -0.886209 0
M  V30 372 H 32.4893 -3.4676 1.40387 0
M  V30 373 H 33.8223 -4.56964 1.8288 0
M  V30 374 N 35.4744 -0.807222 -1.35358 0
M  V30 375 C 36.6994 -0.399309 -2.0352 0
M  V30 376 C 37.1244 0.981986 -1.60433 0
M  V30 377 O 36.4824 1.63601 -0.781299 0
M  V30 378 C 36.5304 -0.491552 -3.57234 0
M  V30 379 O 35.6344 0.494754 -4.09421 0
M  V30 380 H 34.9754 -0.166682 -0.642739 0
M  V30 381 H 37.5054 -1.09328 -1.72941 0
M  V30 382 H 37.5154 -0.361588 -4.06395 0
M  V30 383 H 36.1904 -1.49907 -3.87944 0
M  V30 384 H 34.7674 0.324977 -3.71481 0
M  V30 385 N 36.9525 1.47285 -0.560781 0
M  V30 386 C 37.8825 2.32857 0.173105 0
M  V30 387 C 38.8635 1.44009 0.905281 0
M  V30 388 O 40.0485 1.7286 0.885046 0
M  V30 389 C 37.1785 3.25861 1.20133 0
M  V30 390 C 36.1325 4.23978 0.585388 0
M  V30 391 C 35.4585 5.06332 1.7185 0
M  V30 392 C 36.7585 5.20242 -0.463178 0
M  V30 393 H 38.4525 2.94466 -0.541307 0
M  V30 394 H 35.9985 1.41601 -0.261764 0
M  V30 395 H 37.9515 3.84569 1.72293 0
M  V30 396 H 36.6755 2.62315 1.94573 0
M  V30 397 H 35.3345 3.66501 0.085054 0
M  V30 398 H 34.9825 4.39186 2.45203 0
M  V30 399 H 34.6825 5.72762 1.31213 0
M  V30 400 H 36.2065 5.67899 2.24329 0
M  V30 401 H 37.6205 5.73293 -0.027502 0
M  V30 402 H 36.0175 5.94896 -0.788627 0
M  V30 403 H 37.0875 4.65504 -1.35773 0
M  V30 404 N 38.4306 0.297415 1.54768 0
M  V30 405 C 39.3406 -0.58983 2.27064 0
M  V30 406 C 40.3566 -1.15144 1.30453 0
M  V30 407 O 41.5326 -1.17699 1.63428 0
M  V30 408 C 38.5976 -1.74714 2.9946 0
M  V30 409 C 37.6586 -1.21997 4.11601 0
M  V30 410 C 36.8916 -2.32212 4.80535 0
M  V30 411 O 37.1146 -3.52036 4.48806 0
M  V30 412 O 36.0486 -1.99106 5.68014 0
M  V30 413 H 39.8746 -0.00348199 3.037 0
M  V30 414 H 37.4596 0.0640035 1.49263 0
M  V30 415 H 39.3416 -2.42147 3.44881 0
M  V30 416 H 38.0166 -2.32016 2.25722 0
M  V30 417 H 36.9236 -0.511458 3.70587 0
M  V30 418 H 38.2566 -0.692419 4.87305 0
M  V30 419 N 39.9087 -1.5758 0.0250728 0
M  V30 420 C 41.1337 -1.96337 -0.668317 0
M  V30 421 C 41.5587 -0.901314 -1.651 0
M  V30 422 O 40.9167 0.138187 -1.80773 0
M  V30 423 C 40.9647 -3.34191 -1.35457 0
M  V30 424 O 40.0687 -3.30269 -2.46974 0
M  V30 425 H 39.4097 -0.640281 -0.175887 0
M  V30 426 H 41.9397 -2.0442 0.0857224 0
M  V30 427 H 41.9497 -3.70331 -1.71228 0
M  V30 428 H 40.6247 -4.11036 -0.634218 0
M  V30 429 H 39.2017 -3.05841 -2.13344 0
M  V30 430 N 41.3868 0.248026 -1.55636 0
M  V30 431 C 42.6148 0.993808 -1.81469 0
M  V30 432 C 43.0298 1.78991 -0.60064 0
M  V30 433 O 42.3868 1.77345 0.430682 0
M  V30 434 C 42.4378 1.93258 -3.05506 0
M  V30 435 O 42.1588 1.16869 -4.22224 0
M  V30 436 C 43.6598 2.79444 -3.4413 0
M  V30 437 H 40.8798 0.292486 -0.603898 0
M  V30 438 H 43.4238 0.271253 -2.02693 0
M  V30 439 H 41.5788 2.60943 -2.86335 0
M  V30 440 H 41.9928 1.80359 -4.92515 0
M  V30 441 H 43.4668 3.41066 -4.34026 0
M  V30 442 H 43.9438 3.50499 -2.64665 0
M  V30 443 H 44.5498 2.17214 -3.65648 0
M  V30 444 N 42.8649 1.48995 0.513639 0
M  V30 445 C 44.2809 1.35478 0.843682 0
M  V30 446 C 44.4809 0.378213 1.97919 0
M  V30 447 O 43.5369 -0.194689 2.51748 0
M  V30 448 C 44.8499 2.75901 1.1958 0
M  V30 449 C 46.3979 2.84509 1.30474 0
M  V30 450 C 46.8729 4.25671 1.69021 0
M  V30 451 N 48.3639 4.28422 1.76094 0
M  V30 452 C 49.0989 5.34601 2.07338 0
M  V30 453 N 48.5949 6.5104 2.36894 0
M  V30 454 N 50.3879 5.22007 2.08483 0
M  V30 455 H 42.5389 2.11092 -0.235328 0
M  V30 456 H 44.8019 0.947039 -0.0426669 0
M  V30 457 H 44.5079 3.49001 0.434913 0
M  V30 458 H 44.3819 3.10467 2.1422 0
M  V30 459 H 46.7689 2.11655 2.05637 0
M  V30 460 H 46.8499 2.53542 0.339155 0
M  V30 461 H 46.4939 4.99048 0.944135 0
M  V30 462 H 46.4239 4.54094 2.66658 0
M  V30 463 H 48.9149 3.44441 1.55464 0
M  V30 464 H 49.2279 7.2779 2.59887 0
M  V30 465 H 47.5729 6.54287 2.34378 0
M  V30 466 H 50.7639 4.30051 1.84861 0
M  V30 467 H 50.9369 6.04854 2.325 0
M  V30 468 N 44.343 -0.763751 1.37857 0
M  V30 469 C 45.759 -1.06542 1.18832 0
M  V30 470 C 45.959 -2.01478 0.0299722 0
M  V30 471 O 45.015 -2.4458 -0.627447 0
M  V30 472 C 46.328 -1.65525 2.51042 0
M  V30 473 C 47.876 -1.77745 2.57635 0
M  V30 474 C 48.351 -2.4014 3.89996 0
M  V30 475 N 49.842 -2.47582 3.91481 0
M  V30 476 C 50.577 -2.96732 4.9065 0
M  V30 477 N 50.073 -3.45993 6.00217 0
M  V30 478 N 51.866 -2.95679 4.78048 0
M  V30 479 H 44.017 -0.133556 2.1198 0
M  V30 480 H 46.28 -0.121879 0.940133 0
M  V30 481 H 45.986 -1.03236 3.36207 0
M  V30 482 H 45.86 -2.64719 2.68707 0
M  V30 483 H 48.247 -2.39164 1.72872 0
M  V30 484 H 48.328 -0.772836 2.43846 0
M  V30 485 H 47.972 -1.79358 4.75177 0
M  V30 486 H 47.902 -3.41223 4.01092 0
M  V30 487 H 50.393 -2.1273 3.12337 0
M  V30 488 H 50.706 -3.81922 6.7183 0
M  V30 489 H 49.051 -3.44077 6.03851 0
M  V30 490 H 52.242 -2.56499 3.91568 0
M  V30 491 H 52.415 -3.33672 5.55488 0
M  V30 492 N 45.8211 -1.22559 -0.990812 0
M  V30 493 C 46.7541 -0.940773 -2.07905 0
M  V30 494 C 47.7321 0.117082 -1.62178 0
M  V30 495 O 48.9161 -0.0149506 -1.88494 0
M  V30 496 C 46.0431 -0.415321 -3.36144 0
M  V30 497 C 45.0891 -1.45818 -4.00799 0
M  V30 498 S 45.9221 -3.03219 -4.41382 0
M  V30 499 C 47.0781 -2.52317 -5.72789 0
M  V30 500 H 47.3111 -1.8623 -2.31745 0
M  V30 501 H 44.8441 -1.05688 -1.12558 0
M  V30 502 H 46.8021 -0.118747 -4.10328 0
M  V30 503 H 45.4631 0.485121 -3.10331 0
M  V30 504 H 44.6561 -1.04044 -4.93144 0
M  V30 505 H 44.2581 -1.70356 -3.32949 0
M  V30 506 H 46.5501 -1.93688 -6.49224 0
M  V30 507 H 47.4931 -3.43161 -6.19392 0
M  V30 508 H 47.9011 -1.93529 -5.30289 0
M  V30 509 N 47.2992 1.18797 -1.03562 0
M  V30 510 C 48.2292 2.24472 -0.643019 0
M  V30 511 C 49.2102 1.66433 0.351283 0
M  V30 512 O 50.3952 1.92803 0.232505 0
M  V30 513 C 47.5252 3.473 4.24935e-05 0
M  V30 514 C 46.4792 4.18055 -0.917257 0
M  V30 515 C 45.8052 5.34519 -0.138941 0
M  V30 516 C 47.1052 4.72109 -2.23407 0
M  V30 517 H 48.7992 2.57566 -1.52643 0
M  V30 518 H 46.3452 1.23806 -0.735394 0
M  V30 519 H 48.2982 4.20426 0.286383 0
M  V30 520 H 47.0222 3.13424 0.918299 0
M  V30 521 H 45.6812 3.46821 -1.1879 0
M  V30 522 H 45.3292 4.96891 0.781562 0
M  V30 523 H 45.0292 5.82794 -0.750005 0
M  V30 524 H 46.5532 6.10438 0.1405 0
M  V30 525 H 47.9672 5.36955 -2.00879 0
M  V30 526 H 46.3642 5.30897 -2.79765 0
M  V30 527 H 47.4342 3.89807 -2.88407 0
M  V30 528 N 48.7773 0.814389 1.34928 0
M  V30 529 C 49.7093 0.187834 2.28429 0
M  V30 530 C 50.7223 -0.617374 1.5064 0
M  V30 531 O 51.9113 -0.448454 1.72775 0
M  V30 532 C 49.0113 -0.755962 3.30361 0
M  V30 533 C 48.1843 0.00456686 4.374 0
M  V30 534 C 47.2433 -0.858876 5.19143 0
M  V30 535 O 46.2693 -0.306968 5.68372 0
M  V30 536 N 47.4713 -2.17988 5.38016 0
M  V30 537 H 50.2363 0.991105 2.82838 0
M  V30 538 H 47.7973 0.670561 1.4736 0
M  V30 539 H 49.7893 -1.338 3.81942 0
M  V30 540 H 48.3593 -1.46001 2.7641 0
M  V30 541 H 47.5793 0.767865 3.86649 0
M  V30 542 H 48.8673 0.528422 5.06049 0
M  V30 543 H 48.2653 -2.65212 4.99679 0
M  V30 544 H 46.8223 -2.71098 5.92747 0
M  V30 545 N 50.2554 -1.46986 0.568584 0
M  V30 546 C 51.1854 -2.32946 -0.160753 0
M  V30 547 C 52.1664 -1.44487 -0.897631 0
M  V30 548 O 53.3514 -1.73327 -0.875867 0
M  V30 549 C 50.4814 -3.26494 -1.18403 0
M  V30 550 C 49.4354 -4.24282 -0.562895 0
M  V30 551 C 48.7614 -5.07236 -1.69163 0
M  V30 552 C 50.0614 -5.19989 0.490761 0
M  V30 553 H 51.7554 -2.94175 0.556916 0
M  V30 554 H 49.3014 -1.4146 0.26927 0
M  V30 555 H 51.2544 -3.85477 -1.70251 0
M  V30 556 H 49.9784 -2.63343 -1.93179 0
M  V30 557 H 48.6374 -3.66541 -0.0656164 0
M  V30 558 H 48.2854 -4.4048 -2.42871 0
M  V30 559 H 47.9854 -5.7345 -1.28174 0
M  V30 560 H 49.5094 -5.6908 -2.21314 0
M  V30 561 H 50.9234 -5.73271 0.0579047 0
M  V30 562 H 49.3204 -5.94469 0.820165 0
M  V30 563 H 50.3904 -4.64777 1.3824 0
M  V30 564 N 51.7335 -0.305618 -1.54608 0
M  V30 565 C 52.9795 0.302746 -2.00528 0
M  V30 566 C 53.3125 1.53184 -1.19367 0
M  V30 567 O 52.5875 1.92598 -0.271321 0
M  V30 568 C 52.8705 0.654756 -3.54097 0
M  V30 569 C 52.7235 -0.583793 -4.45995 0
M  V30 570 C 54.0425 1.47947 -4.14487 0
M  V30 571 H 51.1615 0.108564 -0.72896 0
M  V30 572 H 53.8035 -0.418634 -1.85331 0
M  V30 573 H 51.9535 1.26935 -3.67178 0
M  V30 574 H 53.6255 -1.22224 -4.44814 0
M  V30 575 H 51.8685 -1.21615 -4.16404 0
M  V30 576 H 52.5395 -0.293287 -5.5122 0
M  V30 577 H 55.0155 0.96013 -4.04871 0
M  V30 578 H 53.8915 1.69454 -5.22088 0
M  V30 579 H 54.1525 2.47011 -3.66658 0
M  V30 580 N 53.2116 1.57565 -0.0334293 0
M  V30 581 C 54.1216 2.13943 0.962572 0
M  V30 582 C 55.1376 1.09276 1.35406 0
M  V30 583 O 56.3136 1.41355 1.4346 0
M  V30 584 C 53.3786 2.65887 2.22497 0
M  V30 585 C 52.4396 3.85286 1.8935 0
M  V30 586 C 51.6726 4.34743 3.09571 0
M  V30 587 O 51.8956 3.83352 4.22371 0
M  V30 588 O 50.8296 5.26538 2.91618 0
M  V30 589 H 54.6556 2.99333 0.513169 0
M  V30 590 H 52.2406 1.4822 0.18743 0
M  V30 591 H 54.1226 2.99346 2.96598 0
M  V30 592 H 52.7976 1.83578 2.6661 0
M  V30 593 H 51.7046 3.56746 1.1262 0
M  V30 594 H 53.0376 4.68771 1.5005 0
M  V30 595 N 54.6897 -0.239769 1.55765 0
M  V30 596 C 55.5997 -1.31831 1.94056 0
M  V30 597 C 56.6157 -1.52275 0.841925 0
M  V30 598 O 57.7917 -1.65759 1.14394 0
M  V30 599 C 54.8567 -2.65156 2.23368 0
M  V30 600 C 53.9177 -2.53173 3.46701 0
M  V30 601 C 53.1507 -3.8014 3.74606 0
M  V30 602 O 53.3737 -4.82343 3.04469 0
M  V30 603 O 52.3077 -3.78344 4.68123 0
M  V30 604 H 56.1337 -1.02347 2.85935 0
M  V30 605 H 53.7187 -0.441123 1.42739 0
M  V30 606 H 55.6007 -3.43929 2.43497 0
M  V30 607 H 54.2757 -2.94358 1.34666 0
M  V30 608 H 53.1827 -1.72662 3.31871 0
M  V30 609 H 54.5157 -2.28915 4.35728 0
M  V30 610 N 56.1678 -1.49265 -0.50573 0
M  V30 611 C 57.3928 -1.62478 -1.28902 0
M  V30 612 C 57.8178 -0.294332 -1.85783 0
M  V30 613 O 57.1758 0.737412 -1.65626 0
M  V30 614 C 57.2238 -2.69268 -2.39848 0
M  V30 615 O 56.3278 -2.28113 -3.43567 0
M  V30 616 H 55.6688 -0.54399 -0.380751 0
M  V30 617 H 58.1988 -1.95421 -0.605952 0
M  V30 618 H 58.2088 -2.91291 -2.85681 0
M  V30 619 H 56.8838 -3.65846 -1.97812 0
M  V30 620 H 55.4608 -2.16401 -3.03685 0
M  V30 621 N 57.6459 0.756429 -1.3826 0
M  V30 622 C 58.5929 1.87011 -1.35261 0
M  V30 623 C 59.5629 1.64695 -0.215616 0
M  V30 624 O 60.7479 1.864 -0.407399 0
M  V30 625 C 57.8879 3.24275 -1.18068 0
M  V30 626 C 57.0009 3.58442 -2.41129 0
M  V30 627 C 56.1359 4.84994 -2.16689 0
M  V30 628 C 55.1749 5.11939 -3.35537 0
M  V30 629 N 54.3119 6.29685 -3.10549 0
M  V30 630 H 59.1519 1.8891 -2.30472 0
M  V30 631 H 56.6889 0.923373 -1.14509 0
M  V30 632 H 58.6469 4.03479 -1.06116 0
M  V30 633 H 57.2769 3.21711 -0.264973 0
M  V30 634 H 56.3289 2.74103 -2.63764 0
M  V30 635 H 57.6409 3.74283 -3.29717 0
M  V30 636 H 56.7949 5.72135 -2.01857 0
M  V30 637 H 55.5339 4.71286 -1.25462 0
M  V30 638 H 54.5389 4.23268 -3.50891 0
M  V30 639 H 55.7639 5.27546 -4.27635 0
M  V30 640 H 53.7099 6.17306 -2.21967 0
M  V30 641 H 53.6269 6.46014 -3.92686 0
M  V30 642 H 54.8949 7.19722 -2.99367 0
M  V30 643 N 59.124 1.23083 0.984299 0
M  V30 644 C 60.401 0.9689 1.69917 0
M  V30 645 C 60.781 -0.513604 2.04757 0
M  V30 646 O 60.129 -1.48383 1.73767 0
M  V30 647 C 60.339 1.87518 2.94343 0
M  V30 648 C 61.687 2.13636 3.6694 0
M  V30 649 O 62.711 1.85036 3.04368 0
M  V30 650 O 61.57 2.62119 4.79537 0
M  V30 651 H 58.664 0.365095 0.742048 0
M  V30 652 H 61.21 1.34107 1.03987 0
M  V30 653 H 59.982 2.87756 2.65164 0
M  V30 654 H 59.605 1.50514 3.6801 0
M  V30 655 N 60.6021 -1.18246 1.0419 0
M  V30 656 C 61.5651 -2.20128 0.638452 0
M  V30 657 C 62.5651 -1.57885 -0.304805 0
M  V30 658 O 63.7551 -1.73967 -0.0900369 0
M  V30 659 C 60.8871 -3.4084 -0.0637751 0
M  V30 660 H 62.0801 -2.57336 1.54007 0
M  V30 661 H 59.6331 -1.32152 0.834598 0
M  V30 662 H 60.3681 -3.09166 -0.979136 0
M  V30 663 H 60.1531 -3.8726 0.614198 0
M  V30 664 H 61.6431 -4.16274 -0.332512 0
M  V30 665 N 62.0802 -0.821533 -1.34494 0
M  V30 666 C 63.3282 -0.408139 -1.97936 0
M  V30 667 C 63.6492 1.03193 -1.65457 0
M  V30 668 O 62.9192 1.71622 -0.944595 0
M  V30 669 H 61.4992 -0.147928 -0.732206 0
M  V30 670 H 64.1612 -1.05067 -1.64155 0
M  V30 671 H 63.2572 -0.52601 -3.07635 0
M  V30 672 N 63.5583 1.46682 -0.576371 0
M  V30 673 C 64.8073 2.01619 -0.0572825 0
M  V30 674 C 65.1203 1.45417 1.30818 0
M  V30 675 O 66.3263 1.92133 1.91825 0
M  V30 676 C 64.7823 3.59863 -0.0518371 0
M  V30 677 C 64.3903 4.25059 -1.41523 0
M  V30 678 C 66.1343 4.2248 0.413639 0
M  V30 679 C 64.0413 5.75364 -1.36785 0
M  V30 680 H 62.9713 0.753794 -0.0176448 0
M  V30 681 H 65.6223 1.68481 -0.727076 0
M  V30 682 H 64.0043 3.90048 0.683994 0
M  V30 683 H 65.1783 4.06491 -2.17029 0
M  V30 684 H 63.4933 3.7451 -1.8202 0
M  V30 685 H 66.0903 5.3265 0.467779 0
M  V30 686 H 66.4333 3.90976 1.42982 0
M  V30 687 H 66.9663 3.96897 -0.267929 0
M  V30 688 H 63.7053 6.11518 -2.36063 0
M  V30 689 H 63.2253 5.96214 -0.654895 0
M  V30 690 H 64.9043 6.37955 -1.07805 0
M  V30 691 N 65.0364 0.313813 1.54444 0
M  V30 692 C 66.4524 -0.0391619 1.59552 0
M  V30 693 C 66.6524 -1.51322 1.33056 0
M  V30 694 O 65.7084 -2.26782 1.11022 0
M  V30 695 C 67.0214 0.370302 2.98411 0
M  V30 696 C 68.5694 0.320139 3.11358 0
M  V30 697 C 69.0444 0.704617 4.52547 0
M  V30 698 N 70.5354 0.657645 4.58508 0
M  V30 699 C 71.2704 0.927453 5.6585 0
M  V30 700 N 70.7664 1.26389 6.81174 0
M  V30 701 N 72.5594 0.853662 5.5558 0
M  V30 702 H 64.7104 1.27433 1.69925 0
M  V30 703 H 66.9734 0.517511 0.794284 0
M  V30 704 H 66.6794 1.39694 3.22767 0
M  V30 705 H 66.5534 -0.269619 3.76235 0
M  V30 706 H 68.9404 -0.697275 2.86744 0
M  V30 707 H 69.0214 0.99486 2.35661 0
M  V30 708 H 68.6654 1.7199 4.77893 0
M  V30 709 H 68.5954 0.00768843 5.26599 0
M  V30 710 H 71.0864 0.409067 3.75679 0
M  V30 711 H 71.3994 1.4554 7.58972 0
M  V30 712 H 69.7444 1.30206 6.82694 0
M  V30 713 H 72.9354 0.590383 4.64362 0
M  V30 714 H 73.1084 1.0673 6.3915 0
M  V30 715 N 66.5145 -1.57545 0.0417849 0
M  V30 716 C 67.7425 -1.96624 -0.643928 0
M  V30 717 C 68.1575 -0.918897 -1.64929 0
M  V30 718 O 67.5145 0.0979323 -1.82237 0
M  V30 719 C 67.5655 -3.35781 -1.33914 0
M  V30 720 O 67.2865 -4.365 -0.374048 0
M  V30 721 C 68.7875 -3.89566 -2.1155 0
M  V30 722 H 66.0075 -0.647316 -0.176702 0
M  V30 723 H 68.5515 -2.04229 0.105304 0
M  V30 724 H 66.7065 -3.29357 -2.03968 0
M  V30 725 H 67.1205 -5.17248 -0.869179 0
M  V30 726 H 68.5945 -4.89242 -2.55628 0
M  V30 727 H 69.0715 -3.24488 -2.9598 0
M  V30 728 H 69.6775 -3.99298 -1.46427 0
M  V30 729 N 67.9926 0.231505 -1.5589 0
M  V30 730 C 68.9226 1.29022 -1.94617 0
M  V30 731 C 69.9036 1.4941 -0.813067 0
M  V30 732 O 71.0886 1.6176 -1.07459 0
M  V30 733 C 68.2186 2.64199 -2.25424 0
M  V30 734 C 67.1726 2.58484 -3.41131 0
M  V30 735 C 66.4986 3.97599 -3.57518 0
M  V30 736 C 67.7986 2.1413 -4.76388 0
M  V30 737 H 69.4926 0.968563 -2.83301 0
M  V30 738 H 67.0386 0.464479 -1.36303 0
M  V30 739 H 68.9916 3.38413 -2.51107 0
M  V30 740 H 67.7156 2.98032 -1.33583 0
M  V30 741 H 66.3746 1.86727 -3.15481 0
M  V30 742 H 66.0226 4.28723 -2.6307 0
M  V30 743 H 65.7226 3.94659 -4.35337 0
M  V30 744 H 67.2466 4.7349 -3.85538 0
M  V30 745 H 68.6606 2.78083 -5.01341 0
M  V30 746 H 67.0576 2.2227 -5.57419 0
M  V30 747 H 68.1276 1.09331 -4.72414 0
M  V30 748 N 69.4707 1.49531 0.497807 0
M  V30 749 C 70.7167 1.59415 1.25358 0
M  V30 750 C 71.0497 0.281422 1.9215 0
M  V30 751 O 70.3247 -0.715249 1.80871 0
M  V30 752 C 70.6077 2.75566 2.3181 0
M  V30 753 C 70.4607 4.16642 1.69498 0
M  V30 754 C 71.7797 2.87347 3.33346 0
M  V30 755 H 68.8987 0.580244 0.454408 0
M  V30 756 H 71.5407 1.81827 0.551262 0
M  V30 757 H 69.6907 2.56587 2.91711 0
M  V30 758 H 71.3627 4.47145 1.13399 0
M  V30 759 H 69.6057 4.22141 0.998978 0
M  V30 760 H 70.2767 4.93792 2.46725 0
M  V30 761 H 72.7527 3.04634 2.83438 0
M  V30 762 H 71.6287 3.70289 4.05188 0
M  V30 763 H 71.8897 1.96834 3.95865 0
M  V30 764 N 70.9488 -0.749086 1.3866 0
M  V30 765 C 71.8818 -1.87111 1.30631 0
M  V30 766 C 72.8598 -1.61572 0.18251 0
M  V30 767 O 74.0438 -1.85019 0.360592 0
M  V30 768 C 71.1708 -3.22815 1.02511 0
M  V30 769 C 70.2168 -3.67234 2.1689 0
M  V30 770 S 71.0498 -3.78245 3.79066 0
M  V30 771 C 72.2058 -5.16761 3.53142 0
M  V30 772 H 72.4388 -1.93636 2.25594 0
M  V30 773 H 69.9718 -0.912525 1.24549 0
M  V30 774 H 71.9298 -4.01181 0.869701 0
M  V30 775 H 70.5908 -3.13964 0.0925884 0
M  V30 776 H 69.7838 -4.65677 1.92771 0
M  V30 777 H 69.3858 -2.96034 2.28561 0
M  V30 778 H 71.6778 -6.02656 3.09534 0
M  V30 779 H 72.6208 -5.45902 4.50995 0
M  V30 780 H 73.0288 -4.85771 2.87554 0
M  V30 781 N 72.4269 -1.23603 -0.977757 0
M  V30 782 C 73.3569 -1.04401 -2.0886 0
M  V30 783 C 74.3379 0.0399052 -1.70053 0
M  V30 784 O 75.5229 -0.125246 -1.93796 0
M  V30 785 C 72.6529 -0.637269 -3.41403 0
M  V30 786 C 71.6069 -1.66883 -3.94124 0
M  V30 787 C 70.9329 -1.11745 -5.22893 0
M  V30 788 C 72.2329 -3.06247 -4.23096 0
M  V30 789 H 73.9269 -1.97316 -2.25182 0
M  V30 790 H 71.4729 -0.950096 -1.08209 0
M  V30 791 H 73.4259 -0.48998 -4.18542 0
M  V30 792 H 72.1499 0.327557 -3.24953 0
M  V30 793 H 70.8089 -1.80416 -3.19133 0
M  V30 794 H 70.4569 -0.143527 -5.02795 0
M  V30 795 H 70.1569 -1.80672 -5.59134 0
M  V30 796 H 71.6809 -0.982067 -6.02651 0
M  V30 797 H 73.0949 -2.96001 -4.90975 0
M  V30 798 H 71.4919 -3.72436 -4.70544 0
M  V30 799 H 72.5619 -3.55041 -3.30263 0
M  V30 800 N 73.905 1.17692 -1.04816 0
M  V30 801 C 75.182 1.83768 -0.669963 0
M  V30 802 C 75.562 1.93232 0.849986 0
M  V30 803 O 74.91 1.46397 1.75443 0
M  V30 804 C 75.12 3.21641 -1.35455 0
M  V30 805 C 76.468 3.97592 -1.49017 0
M  V30 806 O 77.492 3.31107 -1.31326 0
M  V30 807 O 76.351 5.16729 -1.77914 0
M  V30 808 H 73.445 0.792799 -0.235368 0
M  V30 809 H 75.991 1.25021 -1.14751 0
M  V30 810 H 74.763 3.097 -2.39168 0
M  V30 811 H 74.386 3.88052 -0.866107 0
M  V30 812 N 75.3831 0.828654 1.34056 0
M  V30 813 C 76.2931 0.256725 2.33191 0
M  V30 814 C 77.3091 -0.611898 1.62886 0
M  V30 815 O 78.4851 -0.51844 1.94613 0
M  V30 816 C 75.5501 -0.567238 3.42028 0
M  V30 817 C 74.6111 0.324458 4.28072 0
M  V30 818 C 73.8441 -0.460274 5.31712 0
M  V30 819 O 74.0671 -1.693 5.44696 0
M  V30 820 O 73.0011 0.160391 6.01686 0
M  V30 821 H 76.8271 1.07739 2.83947 0
M  V30 822 H 74.4121 0.59093 1.37217 0
M  V30 823 H 76.2941 -1.03582 4.08471 0
M  V30 824 H 74.9691 -1.36513 2.93506 0
M  V30 825 H 73.8761 0.840659 3.64532 0
M  V30 826 H 75.2091 1.08685 4.8005 0
M  V30 827 N 76.8612 -1.46375 0.584142 0
M  V30 828 C 77.7932 -2.28443 -0.186119 0
M  V30 829 C 78.8062 -1.38596 -0.854115 0
M  V30 830 O 79.9952 -1.63183 -0.723438 0
M  V30 831 C 77.0952 -3.13671 -1.28311 0
M  V30 832 C 76.2682 -4.31652 -0.706758 0
M  V30 833 C 75.3272 -4.98267 -1.69163 0
M  V30 834 O 74.3532 -5.55815 -1.22712 0
M  V30 835 N 75.5552 -4.95408 -3.02575 0
M  V30 836 H 78.3202 -2.9519 0.517986 0
M  V30 837 H 75.8812 -1.56303 0.42201 0
M  V30 838 H 77.8732 -3.55101 -1.94128 0
M  V30 839 H 76.4432 -2.48989 -1.89005 0
M  V30 840 H 75.6632 -3.93989 0.128908 0
M  V30 841 H 76.9512 -5.07906 -0.301506 0
M  V30 842 H 76.3492 -4.49902 -3.42936 0
M  V30 843 H 74.9062 -5.40774 -3.63877 0
M  V30 844 N 78.3393 -0.321999 -1.54275 0
M  V30 845 C 79.5873 0.280489 -2.00144 0
M  V30 846 C 79.9083 1.52777 -1.21178 0
M  V30 847 O 79.1783 1.9338 -0.313187 0
M  V30 848 H 77.7583 0.106632 -0.73935 0
M  V30 849 H 80.4203 -0.438184 -1.8991 0
M  V30 850 H 79.5163 0.537972 -3.07428 0
M  V30 851 N 79.8174 1.5752 -0.0501392 0
M  V30 852 C 80.7274 2.14952 0.939827 0
M  V30 853 C 81.7434 1.10706 1.34239 0
M  V30 854 O 82.9194 1.42869 1.41952 0
M  V30 855 C 79.9844 2.68232 2.19665 0
M  V30 856 C 79.0454 3.87272 1.85253 0
M  V30 857 C 78.2784 4.38002 3.04943 0
M  V30 858 O 78.5014 3.87811 4.18281 0
M  V30 859 O 77.4354 5.29602 2.86017 0
M  V30 860 H 81.2614 2.9986 0.481392 0
M  V30 861 H 78.8464 1.4841 0.171699 0
M  V30 862 H 80.7284 3.02475 2.93406 0
M  V30 863 H 79.4034 1.86395 2.64648 0
M  V30 864 H 78.3104 3.5792 1.0883 0
M  V30 865 H 79.6434 4.70336 1.4507 0
M  V30 866 N 81.2955 -0.223234 1.56011 0
M  V30 867 C 82.2275 -1.30006 1.88762 0
M  V30 868 C 83.2405 -1.43129 0.775746 0
M  V30 869 O 84.4295 -1.44057 1.05403 0
M  V30 870 C 81.5295 -2.67589 2.07965 0
M  V30 871 C 80.7025 -2.76434 3.38973 0
M  V30 872 C 79.7615 -3.95019 3.47629 0
M  V30 873 O 78.7875 -3.83436 4.20672 0
M  V30 874 N 79.9895 -5.09249 2.78649 0
M  V30 875 H 82.7545 -1.02238 2.81722 0
M  V30 876 H 80.3155 -0.413278 1.56536 0
M  V30 877 H 82.3075 -3.45297 2.11073 0
M  V30 878 H 80.8775 -2.87964 1.21638 0
M  V30 879 H 80.0975 -1.85216 3.47978 0
M  V30 880 H 81.3855 -2.79313 4.25278 0
M  V30 881 H 80.7835 -5.21556 2.19081 0
M  V30 882 H 79.3405 -5.85007 2.8742 0
M  V30 883 N 82.7736 -1.49793 -0.48987 0
M  V30 884 C 83.7036 -1.70201 -1.59856 0
M  V30 885 C 84.6846 -0.55076 -1.60937 0
M  V30 886 O 85.8696 -0.787841 -1.77501 0
M  V30 887 C 82.9996 -1.77882 -2.98287 0
M  V30 888 C 81.9536 -2.92907 -3.12073 0
M  V30 889 C 81.2796 -2.85712 -4.51965 0
M  V30 890 C 82.5796 -4.3369 -2.91051 0
M  V30 891 H 84.2736 -2.63025 -1.43032 0
M  V30 892 H 81.8196 -1.26574 -0.686664 0
M  V30 893 H 83.7726 -1.90744 -3.75759 0
M  V30 894 H 82.4966 -0.816653 -3.16225 0
M  V30 895 H 81.1556 -2.79665 -2.37029 0
M  V30 896 H 80.8036 -1.8738 -4.66795 0
M  V30 897 H 80.5036 -3.62921 -4.62128 0
M  V30 898 H 82.0276 -3.00598 -5.31482 0
M  V30 899 H 83.4416 -4.47555 -3.58284 0
M  V30 900 H 81.8386 -5.12205 -3.12675 0
M  V30 901 H 82.9086 -4.47362 -1.87071 0
M  V30 902 N 84.2517 0.741722 -1.39055 0
M  V30 903 C 85.1617 1.88621 -1.39496 0
M  V30 904 C 86.1777 1.71557 -0.290578 0
M  V30 905 O 87.3537 1.94275 -0.530954 0
M  V30 906 C 84.4187 3.24134 -1.23037 0
M  V30 907 C 83.4797 3.5364 -2.43387 0
M  V30 908 C 82.7127 4.82687 -2.27703 0
M  V30 909 O 82.9357 5.55922 -1.27696 0
M  V30 910 O 81.8697 5.1194 -3.16545 0
M  V30 911 H 85.6957 1.91203 -2.35956 0
M  V30 912 H 83.2807 0.888625 -1.20099 0
M  V30 913 H 85.1627 4.0513 -1.15964 0
M  V30 914 H 83.8377 3.22337 -0.296691 0
M  V30 915 H 82.7447 2.72758 -2.56035 0
M  V30 916 H 84.0777 3.60209 -3.35425 0
M  V30 917 N 85.7298 1.2412 0.971189 0
M  V30 918 C 87.1458 1.00584 1.23916 0
M  V30 919 C 87.3458 -0.287481 1.99439 0
M  V30 920 O 86.4018 -1.00454 2.31658 0
M  V30 921 C 87.7148 2.21864 2.0297 0
M  V30 922 C 89.2628 2.26452 2.16076 0
M  V30 923 C 89.7378 3.47343 2.98524 0
M  V30 924 N 91.2288 3.47639 3.06107 0
M  V30 925 C 91.9638 4.37837 3.70251 0
M  V30 926 N 91.4598 5.38286 4.36142 0
M  V30 927 N 93.2528 4.25558 3.67228 0
M  V30 928 H 85.4038 2.07236 0.465499 0
M  V30 929 H 87.6668 0.909236 0.268315 0
M  V30 930 H 87.3728 3.15771 1.54861 0
M  V30 931 H 87.2468 2.23698 3.03709 0
M  V30 932 H 89.6338 1.33078 2.6339 0
M  V30 933 H 89.7148 2.28645 1.14696 0
M  V30 934 H 89.3588 4.41029 2.51905 0
M  V30 935 H 89.2888 3.42393 4.00093 0
M  V30 936 H 91.7798 2.74966 2.59233 0
M  V30 937 H 92.0928 6.03352 4.82894 0
M  V30 938 H 90.4378 5.42176 4.34822 0
M  V30 939 H 93.6288 3.46322 3.14927 0
M  V30 940 H 93.8018 4.96054 4.16935 0
M  V30 941 N 87.2079 -1.17134 1.05439 0
M  V30 942 C 88.4569 -1.86791 0.761049 0
M  V30 943 C 88.7699 -1.82072 -0.714795 0
M  V30 944 O 89.9759 -2.47223 -1.12218 0
M  V30 945 C 88.4319 -3.35166 1.31117 0
M  V30 946 C 88.0399 -3.48381 2.81664 0
M  V30 947 C 89.7839 -4.10134 1.09499 0
M  V30 948 C 87.6909 -4.90793 3.29964 0
M  V30 949 H 86.6209 -0.699681 0.281002 0
M  V30 950 H 89.2719 -1.3226 1.27199 0
M  V30 951 H 87.6539 -3.8925 0.72803 0
M  V30 952 H 88.8279 -3.04502 3.45855 0
M  V30 953 H 87.1429 -2.86836 3.01851 0
M  V30 954 H 89.7399 -5.152 1.43084 0
M  V30 955 H 90.0829 -4.16287 0.0328772 0
M  V30 956 H 90.6159 -3.62264 1.64346 0
M  V30 957 H 87.3549 -4.89816 4.35616 0
M  V30 958 H 86.8749 -5.35333 2.70516 0
M  V30 959 H 88.5539 -5.59573 3.24787 0
M  V30 960 N 88.686 -0.835752 -1.33615 0
M  V30 961 C 89.596 -0.269088 -2.33052 0
M  V30 962 C 90.612 0.603251 -1.63208 0
M  V30 963 O 91.788 0.508112 -1.94885 0
M  V30 964 C 88.853 0.549091 -3.42324 0
M  V30 965 C 87.914 -0.347156 -4.27894 0
M  V30 966 C 87.147 0.43207 -5.31948 0
M  V30 967 O 87.37 1.66409 -5.45586 0
M  V30 968 O 86.304 -0.192298 -6.01593 0
M  V30 969 H 90.13 -1.09243 -2.83372 0
M  V30 970 H 87.715 -0.598198 -1.36901 0
M  V30 971 H 89.597 1.01414 -4.09015 0
M  V30 972 H 88.272 1.34955 -2.94226 0
M  V30 973 H 87.179 -0.859979 -3.64081 0
M  V30 974 H 88.512 -1.1123 -4.79467 0
M  V30 975 N 90.1641 1.46063 -0.591896 0
M  V30 976 C 91.0741 2.34192 0.13831 0
M  V30 977 C 92.0901 1.50305 0.876608 0
M  V30 978 O 93.2661 1.8315 0.837728 0
M  V30 979 C 90.3311 3.27656 1.13326 0
M  V30 980 C 89.3921 4.27445 0.39863 0
M  V30 981 C 88.6251 5.16443 1.34618 0
M  V30 982 O 88.8481 5.08553 2.58321 0
M  V30 983 O 87.7821 5.95843 0.851768 0
M  V30 984 H 91.6081 2.98002 -0.58552 0
M  V30 985 H 89.1931 1.45188 -0.352239 0
M  V30 986 H 91.0751 3.85291 1.70671 0
M  V30 987 H 89.7501 2.6643 1.83839 0
M  V30 988 H 88.6571 3.73471 -0.216895 0
M  V30 989 H 89.9901 4.91482 -0.265709 0
M  V30 990 N 91.6422 0.330177 1.54103 0
M  V30 991 C 92.8902 -0.269871 2.0029 0
M  V30 992 C 93.2112 -1.52133 1.21986 0
M  V30 993 O 92.4812 -1.93212 0.323438 0
M  V30 994 H 91.0612 -0.10271 0.739905 0
M  V30 995 H 93.7232 0.448249 1.89675 0
M  V30 996 H 92.8192 -0.52166 3.07709 0
M  V30 997 N 93.1203 -1.57491 0.0584922 0
M  V30 998 C 94.0533 -2.07533 -0.948969 0
M  V30 999 C 95.0313 -0.977444 -1.29942 0
M  V30 1000 O 96.2153 -1.2499 -1.41102 0
M  V30 1001 C 93.3423 -2.52192 -2.2609 0
M  V30 1002 C 92.3883 -3.73287 -2.06298 0
M  V30 1003 S 93.2213 -5.18603 -1.33459 0
M  V30 1004 C 94.3773 -5.66583 -2.65959 0
M  V30 1005 H 94.6103 -2.92662 -0.523118 0
M  V30 1006 H 92.1433 -1.53631 -0.153954 0
M  V30 1007 H 94.1013 -2.78585 -3.01498 0
M  V30 1008 H 92.7623 -1.67356 -2.65802 0
M  V30 1009 H 91.9553 -4.0248 -3.03357 0
M  V30 1010 H 91.5573 -3.47199 -1.39029 0
M  V30 1011 H 93.8493 -5.72616 -3.62101 0
M  V30 1012 H 94.7923 -6.65684 -2.41393 0
M  V30 1013 H 95.2003 -4.94342 -2.72554 0
M  V30 1014 N 94.5984 0.214957 -1.56127 0
M  V30 1015 C 95.8754 0.963093 -1.70247 0
M  V30 1016 C 96.2554 2.02166 -0.60764 0
M  V30 1017 O 95.6034 2.25244 0.384385 0
M  V30 1018 C 95.8134 1.56756 -3.11815 0
M  V30 1019 C 97.1614 2.0573 -3.7143 0
M  V30 1020 O 98.1854 1.66637 -3.14818 0
M  V30 1021 O 97.0444 2.77603 -4.70743 0
M  V30 1022 H 94.1384 0.450321 -0.693643 0
M  V30 1023 H 96.6844 0.206219 -1.68442 0
M  V30 1024 H 95.4564 0.803533 -3.82961 0
M  V30 1025 H 95.0794 2.3898 -3.17765 0
M  V30 1026 N 96.0765 1.50051 0.48192 0
M  V30 1027 C 97.0085 1.64263 1.59844 0
M  V30 1028 C 98.0215 0.52451 1.54119 0
M  V30 1029 O 99.2105 0.797293 1.59704 0
M  V30 1030 C 96.3105 1.60102 2.98698 0
M  V30 1031 C 95.4835 2.87767 3.29407 0
M  V30 1032 C 94.5425 2.76397 4.47762 0
M  V30 1033 O 93.5685 3.50348 4.48603 0
M  V30 1034 N 94.7705 1.89222 5.48794 0
M  V30 1035 H 97.5355 2.60566 1.48073 0
M  V30 1036 H 95.0965 1.47379 0.670149 0
M  V30 1037 H 97.0885 1.50123 3.75826 0
M  V30 1038 H 95.6585 0.715798 3.04294 0
M  V30 1039 H 94.8785 3.11954 2.40994 0
M  V30 1040 H 96.1665 3.72365 3.4673 0
M  V30 1041 H 95.5645 1.28434 5.50928 0
M  V30 1042 H 94.1215 1.85154 6.24949 0
M  V30 1043 N 97.5546 -0.734337 1.39446 0
M  V30 1044 C 98.8036 -1.48937 1.36017 0
M  V30 1045 C 99.1166 -1.95557 -0.0409005 0
M  V30 1046 O 100.323 -2.70779 -0.19778 0
M  V30 1047 C 98.7786 -2.69125 2.38955 0
M  V30 1048 C 98.3866 -2.29452 3.8478 0
M  V30 1049 C 100.131 -3.46944 2.44603 0
M  V30 1050 C 98.0376 -3.46366 4.79358 0
M  V30 1051 H 96.9676 -0.559296 0.505672 0
M  V30 1052 H 99.6186 -0.800983 1.65095 0
M  V30 1053 H 98.0006 -3.40041 2.02948 0
M  V30 1054 H 99.1746 -1.66077 4.29831 0
M  V30 1055 H 97.4896 -1.64723 3.82433 0
M  V30 1056 H 100.087 -4.33907 3.12456 0
M  V30 1057 H 100.43 -3.89454 1.47076 0
M  V30 1058 H 100.963 -2.83056 2.79507 0
M  V30 1059 H 97.7016 -3.08905 5.78151 0
M  V30 1060 H 97.2216 -4.08719 4.38986 0
M  V30 1061 H 98.9006 -4.12691 4.98292 0
M  V30 1062 N 99.0327 -1.24633 -0.964593 0
M  V30 1063 C 99.9807 -1.03917 -2.08096 0
M  V30 1064 C 100.975 0.0268581 -1.69379 0
M  V30 1065 O 102.181 -0.127952 -1.79545 0
M  V30 1066 H 98.5557 -0.319044 -0.680966 0
M  V30 1067 H 100.527 -1.98581 -2.22729 0
M  V30 1068 C 99.2757 -0.663983 -3.41301 0
M  V30 1069 H 98.5987 -1.47605 -3.71555 0
M  V30 1070 H 100.039 -0.558663 -4.20303 0
M  V30 1071 C 98.4977 0.629169 -3.30973 0
M  V30 1072 O 99.0277 1.67404 -3.65156 0
M  V30 1073 N 97.2337 0.611057 -2.84103 0
M  V30 1074 H 96.7807 -0.239593 -2.56483 0
M  V30 1075 H 96.7387 1.47647 -2.77575 0
M  V30 1076 N 100.511 1.16574 -1.06058 0
M  V30 1077 C 101.458 2.20883 -0.669263 0
M  V30 1078 C 102.428 1.62729 0.332918 0
M  V30 1079 O 103.613 1.895 0.222346 0
M  V30 1080 C 100.753 3.45049 -0.0593572 0
M  V30 1081 C 99.8658 4.17458 -1.11143 0
M  V30 1082 C 99.0008 5.29135 -0.467916 0
M  V30 1083 C 98.0398 5.93343 -1.50369 0
M  V30 1084 N 97.1768 6.96516 -0.883706 0
M  V30 1085 H 102.017 2.53709 -1.5632 0
M  V30 1086 H 99.5538 1.24616 -0.781625 0
M  V30 1087 H 101.512 4.16033 0.311771 0
M  V30 1088 H 100.142 3.12781 0.797992 0
M  V30 1089 H 99.1938 3.45101 -1.60029 0
M  V30 1090 H 100.506 4.61307 -1.89731 0
M  V30 1091 H 99.6598 6.06684 -0.0436871 0
M  V30 1092 H 98.3988 4.86443 0.349864 0
M  V30 1093 H 97.4038 5.14517 -1.93784 0
M  V30 1094 H 98.6288 6.38114 -2.32352 0
M  V30 1095 H 96.5748 6.55943 -0.086595 0
M  V30 1096 H 96.4918 7.38723 -1.607 0
M  V30 1097 H 97.7598 7.77993 -0.484543 0
M  V30 1098 N 101.989 0.842826 1.3317 0
M  V30 1099 C 103.266 0.362216 1.92217 0
M  V30 1100 C 103.646 -1.15289 1.76838 0
M  V30 1101 O 102.994 -1.96914 1.15919 0
M  V30 1102 C 103.204 0.813495 3.39387 0
M  V30 1103 C 104.552 0.823804 4.16532 0
M  V30 1104 O 105.576 0.757358 3.48055 0
M  V30 1105 O 104.435 0.915193 5.38782 0
M  V30 1106 H 101.529 0.103317 0.820521 0
M  V30 1107 H 104.075 0.928942 1.42017 0
M  V30 1108 H 102.847 1.85624 3.4447 0
M  V30 1109 H 102.47 0.223561 3.96971 0
M  V30 1110 N 103.467 -1.45747 0.599634 0
M  V30 1111 C 104.4 -2.27547 -0.172552 0
M  V30 1112 C 105.378 -1.36657 -0.881116 0
M  V30 1113 O 106.562 -1.66081 -0.891595 0
M  V30 1114 C 103.689 -3.14829 -1.24903 0
M  V30 1115 C 102.735 -4.21603 -0.644465 0
M  V30 1116 S 103.568 -5.32754 0.541606 0
M  V30 1117 C 104.724 -6.23604 -0.535656 0
M  V30 1118 H 104.957 -2.92691 0.521468 0
M  V30 1119 H 102.49 -1.49473 0.386947 0
M  V30 1120 H 104.448 -3.65675 -1.86527 0
M  V30 1121 H 103.109 -2.48965 -1.91508 0
M  V30 1122 H 102.302 -4.82566 -1.45417 0
M  V30 1123 H 101.904 -3.73857 -0.103534 0
M  V30 1124 H 104.196 -6.62519 -1.41686 0
M  V30 1125 H 105.139 -7.0809 0.0376246 0
M  V30 1126 H 105.547 -5.58103 -0.84741 0
M  V30 1127 N 104.945 -0.338344 -1.53925 0
M  V30 1128 C 105.892 0.520845 -2.24846 0
M  V30 1129 C 106.862 1.09976 -1.24477 0
M  V30 1130 O 108.047 1.13735 -1.53196 0
M  V30 1131 C 105.187 1.6685 -3.02084 0
M  V30 1132 C 104.3 1.11739 -4.17299 0
M  V30 1133 C 103.435 2.23193 -4.82036 0
M  V30 1134 C 102.474 1.65407 -5.89328 0
M  V30 1135 N 101.611 2.70582 -6.47866 0
M  V30 1136 H 106.451 -0.0904881 -2.97863 0
M  V30 1137 H 103.988 -0.0564282 -1.46992 0
M  V30 1138 H 105.946 2.34407 -3.45122 0
M  V30 1139 H 104.576 2.2509 -2.31375 0
M  V30 1140 H 103.628 0.332919 -3.7894 0
M  V30 1141 H 104.94 0.654677 -4.94485 0
M  V30 1142 H 104.094 2.98626 -5.28117 0
M  V30 1143 H 102.833 2.72807 -4.04262 0
M  V30 1144 H 101.838 0.884779 -5.42634 0
M  V30 1145 H 103.063 1.16652 -6.69006 0
M  V30 1146 H 101.009 3.1946 -5.72959 0
M  V30 1147 H 100.926 2.28917 -7.20509 0
M  V30 1148 H 102.194 3.45799 -6.98601 0
M  V30 1149 N 106.423 1.57458 -0.0668435 0
M  V30 1150 C 107.333 2.15937 0.916975 0
M  V30 1151 C 108.349 1.12123 1.33058 0
M  V30 1152 O 109.525 1.44366 1.40429 0
M  V30 1153 C 106.59 2.70547 2.16807 0
M  V30 1154 C 105.651 3.89215 1.81135 0
M  V30 1155 C 104.884 4.41211 3.0028 0
M  V30 1156 O 105.107 3.92225 4.14144 0
M  V30 1157 O 104.041 5.32605 2.80384 0
M  V30 1158 H 107.867 3.00354 0.449561 0
M  V30 1159 H 105.452 1.48584 0.155949 0
M  V30 1160 H 107.334 3.0557 2.90181 0
M  V30 1161 H 106.009 1.89192 2.62656 0
M  V30 1162 H 104.916 3.59054 1.05028 0
M  V30 1163 H 106.249 4.71848 1.40073 0
M  V30 1164 N 107.901 -0.206675 1.56239 0
M  V30 1165 C 108.864 -1.23976 1.92776 0
M  V30 1166 C 109.864 -1.39041 0.807729 0
M  V30 1167 O 111.054 -1.37051 1.0753 0
M  V30 1168 C 108.186 -2.61112 2.19165 0
M  V30 1169 H 109.379 -0.927764 2.85189 0
M  V30 1170 H 106.932 -0.447718 1.4975 0
M  V30 1171 H 107.667 -2.97386 1.29352 0
M  V30 1172 H 107.452 -2.51552 3.00772 0
M  V30 1173 H 108.942 -3.35633 2.48476 0
M  V30 1174 N 109.379 -1.50304 -0.473955 0
M  V30 1175 C 110.289 -1.7174 -1.5982 0
M  V30 1176 C 111.305 -0.600457 -1.63311 0
M  V30 1177 O 112.481 -0.878441 -1.81233 0
M  V30 1178 C 109.546 -1.80427 -2.96052 0
M  V30 1179 C 108.607 -3.04148 -3.02972 0
M  V30 1180 C 107.84 -3.12411 -4.32706 0
M  V30 1181 O 108.063 -2.27542 -5.23049 0
M  V30 1182 O 106.997 -4.05113 -4.45159 0
M  V30 1183 H 110.823 -2.67035 -1.44657 0
M  V30 1184 H 108.408 -1.34366 -0.653148 0
M  V30 1185 H 110.29 -1.88338 -3.7697 0
M  V30 1186 H 108.965 -0.883156 -3.11419 0
M  V30 1187 H 107.872 -3.0174 -2.21142 0
M  V30 1188 H 109.205 -3.95829 -2.92541 0
M  V30 1189 N 110.857 0.726932 -1.39834 0
M  V30 1190 C 111.804 1.841 -1.39197 0
M  V30 1191 C 112.774 1.642 -0.250502 0
M  V30 1192 O 113.959 1.85494 -0.446846 0
M  V30 1193 C 111.099 3.21697 -1.24919 0
M  V30 1194 C 110.212 3.53247 -2.48678 0
M  V30 1195 C 109.347 4.80289 -2.26928 0
M  V30 1196 C 108.386 5.04707 -3.4632 0
M  V30 1197 N 107.523 6.22956 -3.23836 0
M  V30 1198 H 112.363 1.83979 -2.34427 0
M  V30 1199 H 109.9 0.898876 -1.16442 0
M  V30 1200 H 111.858 4.01137 -1.1465 0
M  V30 1201 H 110.488 3.21076 -0.333153 0
M  V30 1202 H 109.54 2.68447 -2.69519 0
M  V30 1203 H 110.852 3.67205 -3.37582 0
M  V30 1204 H 110.006 5.67725 -2.13947 0
M  V30 1205 H 108.745 4.68519 -1.35431 0
M  V30 1206 H 107.75 4.1573 -3.5979 0
M  V30 1207 H 108.975 5.18357 -4.38729 0
M  V30 1208 H 106.921 6.12459 -2.35011 0
M  V30 1209 H 106.838 6.37539 -4.063 0
M  V30 1210 H 108.106 7.1321 -3.14566 0
M  V30 1211 N 112.336 1.25143 0.95797 0
M  V30 1212 C 113.284 1.05019 2.07542 0
M  V30 1213 C 114.278 -0.0178751 1.69391 0
M  V30 1214 O 115.484 0.137472 1.79474 0
M  V30 1215 H 111.859 0.32265 0.679265 0
M  V30 1216 H 113.83 1.99759 2.21673 0
M  V30 1217 C 112.579 0.682074 3.40944 0
M  V30 1218 H 111.902 1.49573 3.70767 0
M  V30 1219 H 113.342 0.580945 4.20001 0
M  V30 1220 C 111.801 -0.611608 3.31302 0
M  V30 1221 O 112.331 -1.65465 3.66038 0
M  V30 1222 N 110.537 -0.595982 2.84423 0
M  V30 1223 H 110.084 0.253192 2.56353 0
M  V30 1224 H 110.042 -1.46173 2.78354 0
M  V30 1225 N 113.814 -1.1601 1.06675 0
M  V30 1226 C 114.744 -2.22688 0.702307 0
M  V30 1227 C 115.725 -1.67306 -0.307032 0
M  V30 1228 O 116.91 -1.93352 -0.181305 0
M  V30 1229 C 114.04 -3.47178 0.092038 0
M  V30 1230 C 112.994 -4.15477 1.02777 0
M  V30 1231 C 112.32 -5.33963 0.28061 0
M  V30 1232 C 113.62 -4.66019 2.35846 0
M  V30 1233 H 115.314 -2.53429 1.59419 0
M  V30 1234 H 112.86 -1.21813 0.767961 0
M  V30 1235 H 114.813 -4.21037 -0.174814 0
M  V30 1236 H 113.537 -3.15749 -0.834877 0
M  V30 1237 H 112.196 -3.43549 1.27944 0
M  V30 1238 H 111.844 -4.98788 -0.649545 0
M  V30 1239 H 111.544 -5.806 0.904258 0
M  V30 1240 H 113.068 -6.10596 0.021396 0
M  V30 1241 H 114.482 -5.3144 2.15045 0
M  V30 1242 H 112.879 -5.23293 2.93743 0
M  V30 1243 H 113.949 -3.82023 2.98641 0
M  V30 1244 N 115.292 -0.849877 -1.32721 0
M  V30 1245 C 116.52 -0.464754 -2.01613 0
M  V30 1246 C 116.935 0.937191 -1.63897 0
M  V30 1247 O 116.292 1.61081 -0.857856 0
M  V30 1248 C 116.343 -0.588638 -3.56675 0
M  V30 1249 O 116.064 -1.93535 -3.93034 0
M  V30 1250 C 117.565 -0.2019 -4.4284 0
M  V30 1251 H 114.785 -0.183215 -0.645502 0
M  V30 1252 H 117.329 -1.1455 -1.69407 0
M  V30 1253 H 115.484 0.0443159 -3.87375 0
M  V30 1254 H 115.898 -1.92871 -4.87751 0
M  V30 1255 H 117.372 -0.339599 -5.50954 0
M  V30 1256 H 117.849 0.857224 -4.30753 0
M  V30 1257 H 118.455 -0.809733 -4.17521 0
M  V30 1258 N 116.77 1.45427 -0.607355 0
M  V30 1259 C 118.047 1.9557 -0.0344566 0
M  V30 1260 C 118.427 1.54979 1.43334 0
M  V30 1261 O 117.775 0.812241 2.13576 0
M  V30 1262 C 117.985 3.48226 -0.232321 0
M  V30 1263 C 119.333 4.2445 -0.113001 0
M  V30 1264 O 120.357 3.55829 -0.162431 0
M  V30 1265 O 119.216 5.465 0.00209442 0
M  V30 1266 H 116.31 0.826222 0.0358667 0
M  V30 1267 H 118.856 1.55594 -0.6774 0
M  V30 1268 H 117.628 3.70739 -1.25174 0
M  V30 1269 H 117.251 3.95092 0.445896 0
M  V30 1270 N 118.248 0.346503 1.53744 0
M  V30 1271 C 119.178 -0.501193 2.28058 0
M  V30 1272 C 120.159 -1.10014 1.29734 0
M  V30 1273 O 121.344 -1.12097 1.58581 0
M  V30 1274 C 118.474 -1.65078 3.05559 0
M  V30 1275 C 117.428 -1.18003 4.11411 0
M  V30 1276 C 116.754 -2.41837 4.76884 0
M  V30 1277 C 118.054 -0.278394 5.21558 0
M  V30 1278 H 119.748 0.11875 2.99164 0
M  V30 1279 H 117.294 0.0585531 1.43881 0
M  V30 1280 H 119.247 -2.25028 3.56287 0
M  V30 1281 H 117.971 -2.29767 2.32109 0
M  V30 1282 H 116.63 -0.603331 3.61601 0
M  V30 1283 H 116.278 -3.0494 4.00026 0
M  V30 1284 H 115.978 -2.1102 5.48402 0
M  V30 1285 H 117.502 -3.02508 5.30397 0
M  V30 1286 H 118.916 -0.784823 5.67903 0
M  V30 1287 H 117.313 -0.0619707 6.00068 0
M  V30 1288 H 118.383 0.684677 4.80042 0
M  V30 1289 N 119.726 -1.57421 0.075193 0
M  V30 1290 C 120.974 -1.93236 -0.591974 0
M  V30 1291 C 121.295 -0.956241 -1.69944 0
M  V30 1292 O 120.565 -0.00494792 -1.95899 0
M  V30 1293 H 119.145 -0.713355 -0.22166 0
M  V30 1294 H 121.807 -1.9444 0.133848 0
M  V30 1295 H 120.903 -2.95131 -1.01509 0
M  V30 1296 N 121.204 0.198386 -1.56346 0
M  V30 1297 C 122.151 1.24589 -1.94284 0
M  V30 1298 C 123.121 1.454 -0.802997 0
M  V30 1299 O 124.306 1.58588 -1.06087 0
M  V30 1300 C 121.446 2.58631 -2.28482 0
M  V30 1301 C 120.559 2.45426 -3.55514 0
M  V30 1302 C 119.694 3.7215 -3.79049 0
M  V30 1303 C 118.733 3.53763 -4.99518 0
M  V30 1304 N 117.87 4.72491 -5.19323 0
M  V30 1305 H 122.71 0.915356 -2.83593 0
M  V30 1306 H 120.247 0.440629 -1.40346 0
M  V30 1307 H 122.205 3.3672 -2.46324 0
M  V30 1308 H 120.835 2.89734 -1.42317 0
M  V30 1309 H 119.887 1.58652 -3.45737 0
M  V30 1310 H 121.199 2.27772 -4.43758 0
M  V30 1311 H 120.353 4.58679 -3.97113 0
M  V30 1312 H 119.092 3.92754 -2.89129 0
M  V30 1313 H 118.097 2.65619 -4.8138 0
M  V30 1314 H 119.322 3.34607 -5.90944 0
M  V30 1315 H 117.268 4.93365 -4.3235 0
M  V30 1316 H 117.185 4.5765 -6.01741 0
M  V30 1317 H 118.453 5.6038 -5.41843 0
M  V30 1318 N 122.682 1.50554 0.465978 0
M  V30 1319 C 123.929 1.61798 1.21768 0
M  V30 1320 C 124.257 0.320696 1.91838 0
M  V30 1321 O 123.512 -0.693724 1.82992 0
M  V30 1322 C 123.811 2.75152 2.28093 0
M  V30 1323 C 123.477 4.15454 1.75239 0
M  V30 1324 C 122.139 4.53628 1.60546 0
M  V30 1325 C 124.491 5.03121 1.36083 0
M  V30 1326 C 121.819 5.77204 1.05128 0
M  V30 1327 C 124.171 6.27249 0.821056 0
M  V30 1328 C 122.835 6.64221 0.660795 0
M  V30 1329 H 122.105 0.592063 0.445582 0
M  V30 1330 H 124.752 1.84503 0.512927 0
M  V30 1331 H 123.057 2.46556 3.04496 0
M  V30 1332 H 124.754 2.81055 2.86023 0
M  V30 1333 H 121.344 3.85341 1.87644 0
M  V30 1334 H 125.528 4.74257 1.46267 0
M  V30 1335 H 120.784 6.0452 0.91462 0
M  V30 1336 H 124.958 6.94537 0.509018 0
M  V30 1337 H 122.585 7.59854 0.229226 0
M  V30 1338 N 124.16 -0.719506 1.40217 0
M  V30 1339 C 125.4 -1.49181 1.39729 0
M  V30 1340 C 125.764 -1.92 -0.00250614 0
M  V30 1341 O 126.965 -2.68473 -0.132479 0
M  V30 1342 C 125.236 -2.68767 2.35582 0
M  V30 1343 S 126.795 -3.58224 2.53418 0
M  V30 1344 H 123.613 -0.510091 0.495307 0
M  V30 1345 H 126.215 -0.841724 1.76452 0
M  V30 1346 H 124.919 -2.35475 3.36124 0
M  V30 1347 H 124.45 -3.38691 2.0013 0
M  V30 1348 H 126.465 -4.63033 1.78367 0
M  V30 1349 N 125.638 -1.25649 -0.95132 0
M  V30 1350 C 126.886 -1.10375 -1.69298 0
M  V30 1351 C 127.207 0.355339 -1.91735 0
M  V30 1352 O 126.477 1.25188 -1.50681 0
M  V30 1353 H 125.057 -0.405461 -0.627384 0
M  V30 1354 H 127.719 -1.57823 -1.14358 0
M  V30 1355 H 126.815 -1.61465 -2.67087 0
M  V30 1356 N 127.117 1.15442 -1.07289 0
M  V30 1357 C 128.047 2.22312 -0.714107 0
M  V30 1358 C 129.028 1.67467 0.298155 0
M  V30 1359 O 130.213 1.93445 0.171048 0
M  V30 1360 C 127.343 3.47124 -0.110448 0
M  V30 1361 C 126.297 4.14926 -1.04979 0
M  V30 1362 C 125.623 5.33807 -0.308924 0
M  V30 1363 C 126.923 4.64762 -2.38314 0
M  V30 1364 H 128.617 2.5258 -1.6076 0
M  V30 1365 H 126.163 1.21404 -0.77441 0
M  V30 1366 H 128.116 4.21124 0.152482 0
M  V30 1367 H 126.84 3.16187 0.81812 0
M  V30 1368 H 125.499 3.42866 -1.29764 0
M  V30 1369 H 125.147 4.99126 0.623084 0
M  V30 1370 H 124.847 5.80113 -0.935036 0
M  V30 1371 H 126.371 6.10576 -0.0537771 0
M  V30 1372 H 127.785 5.30292 -2.1786 0
M  V30 1373 H 126.182 5.21728 -2.96514 0
M  V30 1374 H 127.252 3.80434 -3.00663 0
M  V30 1375 N 128.595 0.856903 1.32268 0
M  V30 1376 C 129.835 0.467705 1.98977 0
M  V30 1377 C 130.199 -0.959231 1.66321 0
M  V30 1378 O 131.4 -1.4531 2.26138 0
M  V30 1379 C 129.671 0.70256 3.50427 0
M  V30 1380 S 131.23 0.411269 4.36868 0
M  V30 1381 H 128.048 0.175121 0.689096 0
M  V30 1382 H 130.65 1.1101 1.60925 0
M  V30 1383 H 129.354 1.74012 3.71683 0
M  V30 1384 H 128.885 0.0466707 3.93372 0
M  V30 1385 H 130.9 -0.761799 4.90317 0
M  V30 1386 N 130.073 -1.45103 0.615059 0
M  V30 1387 C 131.319 -2.02483 0.113347 0
M  V30 1388 C 131.652 -1.48146 -1.25564 0
M  V30 1389 O 130.927 -0.659104 -1.82992 0
M  V30 1390 C 131.21 -3.60005 0.0825278 0
M  V30 1391 C 131.063 -4.2466 1.48271 0
M  V30 1392 C 132.382 -4.35972 -0.601401 0
M  V30 1393 H 129.501 -0.735764 0.0426632 0
M  V30 1394 H 132.143 -1.72868 0.788461 0
M  V30 1395 H 130.293 -3.85367 -0.492378 0
M  V30 1396 H 131.965 -4.10458 2.10527 0
M  V30 1397 H 130.208 -3.82772 2.04127 0
M  V30 1398 H 130.879 -5.336 1.41332 0
M  V30 1399 H 133.355 -4.15947 -0.112666 0
M  V30 1400 H 132.231 -5.45697 -0.592097 0
M  V30 1401 H 132.492 -4.09391 -1.66887 0
M  V30 1402 N 131.551 -0.354651 -1.53558 0
M  V30 1403 C 132.791 0.238651 -2.03002 0
M  V30 1404 C 133.155 1.46878 -1.23656 0
M  V30 1405 O 134.356 2.13699 -1.63053 0
M  V30 1406 C 132.627 0.534175 -3.53386 0
M  V30 1407 S 134.186 1.10271 -4.24719 0
M  V30 1408 H 131.004 0.0702908 -0.707517 0
M  V30 1409 H 133.606 -0.494987 -1.8913 0
M  V30 1410 H 132.31 -0.368765 -4.0874 0
M  V30 1411 H 131.841 1.29718 -3.71398 0
M  V30 1412 H 133.856 2.38772 -4.34974 0
M  V30 1413 N 133.029 1.57378 -0.0835403 0
M  V30 1414 C 134.44 1.81261 0.447358 0
M  V30 1415 C 134.791 0.998331 1.68902 0
M  V30 1416 O 133.916 0.224282 2.15235 0
M  V30 1417 C 134.511 3.28767 0.818386 0
M  V30 1418 C 133.07 3.53455 1.29409 0
M  V30 1419 C 132.217 2.75831 0.285024 0
M  V30 1420 H 135.168 1.5566 -0.309115 0
M  V30 1421 H 135.189 3.41459 1.67887 0
M  V30 1422 H 134.701 3.88006 -0.0855019 0
M  V30 1423 H 132.802 2.99534 2.21608 0
M  V30 1424 H 132.915 4.62128 1.2639 0
M  V30 1425 H 131.279 2.42947 0.764767 0
M  V30 1426 H 132.062 3.37813 -0.611341 0
M  V30 1427 N 134.507 -0.190092 1.56449 0
M  V30 1428 C 135.747 -0.916414 1.82705 0
M  V30 1429 C 136.111 -1.80235 0.661763 0
M  V30 1430 O 137.312 -2.56484 0.80433 0
M  V30 1431 C 135.583 -1.70691 3.14005 0
M  V30 1432 S 137.142 -2.48457 3.61683 0
M  V30 1433 H 133.96 -0.307281 0.64117 0
M  V30 1434 H 136.562 -0.179433 1.94675 0
M  V30 1435 H 135.266 -1.04677 3.96826 0
M  V30 1436 H 134.797 -2.48562 3.04927 0
M  V30 1437 H 136.812 -3.72756 3.27517 0
M  V30 1438 N 135.985 -1.50799 -0.457987 0
M  V30 1439 C 136.933 -1.71162 -1.575 0
M  V30 1440 C 137.927 -0.577592 -1.59249 0
M  V30 1441 O 139.133 -0.758443 -1.63241 0
M  V30 1442 H 135.508 -0.540468 -0.522875 0
M  V30 1443 H 137.479 -2.64837 -1.37492 0
M  V30 1444 C 136.228 -1.83496 -2.95338 0
M  V30 1445 H 135.551 -2.70153 -2.94716 0
M  V30 1446 H 136.991 -2.01765 -3.72917 0
M  V30 1447 C 135.45 -0.589694 -3.31699 0
M  V30 1448 O 135.98 0.265163 -4.00824 0
M  V30 1449 N 134.186 -0.439845 -2.87252 0
M  V30 1450 H 133.733 -1.13655 -2.31172 0
M  V30 1451 H 133.691 0.392159 -3.11945 0
M  V30 1452 N 137.463 0.71206 -1.40597 0
M  V30 1453 C 138.41 1.82613 -1.41142 0
M  V30 1454 C 139.38 1.63925 -0.267903 0
M  V30 1455 O 140.565 1.85009 -0.466495 0
M  V30 1456 C 137.705 3.20354 -1.28324 0
M  V30 1457 C 136.818 3.50589 -2.52411 0
M  V30 1458 C 135.953 4.77855 -2.32009 0
M  V30 1459 C 134.992 5.01005 -3.51654 0
M  V30 1460 N 134.129 6.19487 -3.30425 0
M  V30 1461 H 138.969 1.81482 -2.36365 0
M  V30 1462 H 136.506 0.886475 -1.17388 0
M  V30 1463 H 138.464 3.99899 -1.18899 0
M  V30 1464 H 137.094 3.20705 -0.367189 0
M  V30 1465 H 136.146 2.65573 -2.72351 0
M  V30 1466 H 137.458 3.63604 -3.41458 0
M  V30 1467 H 136.612 5.65424 -2.19956 0
M  V30 1468 H 135.351 4.67056 -1.40392 0
M  V30 1469 H 134.356 4.1189 -3.64179 0
M  V30 1470 H 135.581 5.13674 -4.44202 0
M  V30 1471 H 133.527 6.09932 -2.41494 0
M  V30 1472 H 133.444 6.33194 -4.13039 0
M  V30 1473 H 134.712 7.09834 -3.22113 0
M  V30 1474 N 138.941 1.26152 0.944643 0
M  V30 1475 C 139.871 1.09902 2.06019 0
M  V30 1476 C 140.852 0.00519538 1.70099 0
M  V30 1477 O 142.037 0.176583 1.93396 0
M  V30 1478 C 139.167 0.727562 3.39594 0
M  V30 1479 C 138.121 1.77274 3.89561 0
M  V30 1480 C 137.447 1.25569 5.19747 0
M  V30 1481 C 138.747 3.17357 4.14827 0
M  V30 1482 H 140.441 2.03217 2.19871 0
M  V30 1483 H 137.987 0.978452 1.05652 0
M  V30 1484 H 139.94 0.600777 4.17095 0
M  V30 1485 H 138.664 -0.241287 3.25707 0
M  V30 1486 H 137.323 1.88814 3.14237 0
M  V30 1487 H 136.971 0.276783 5.02238 0
M  V30 1488 H 136.671 1.95433 5.54148 0
M  V30 1489 H 138.195 1.1415 5.99835 0
M  V30 1490 H 139.609 3.08914 4.82954 0
M  V30 1491 H 138.006 3.84781 4.60504 0
M  V30 1492 H 139.076 3.63673 3.20734 0
M  V30 1493 N 140.419 -1.14872 1.07899 0
M  V30 1494 C 141.366 -2.19791 0.704319 0
M  V30 1495 C 142.336 -1.63238 -0.306987 0
M  V30 1496 O 143.521 -1.8983 -0.192171 0
M  V30 1497 C 140.661 -3.44911 0.114244 0
M  V30 1498 C 139.774 -4.15637 1.1777 0
M  V30 1499 C 138.909 -5.28324 0.552037 0
M  V30 1500 C 137.948 -5.90875 1.59789 0
M  V30 1501 N 137.085 -6.95022 0.994404 0
M  V30 1502 H 141.925 -2.5119 1.60336 0
M  V30 1503 H 139.462 -1.23356 0.801352 0
M  V30 1504 H 141.42 -4.16477 -0.245544 0
M  V30 1505 H 140.05 -3.14011 -0.74813 0
M  V30 1506 H 139.102 -3.42512 1.65499 0
M  V30 1507 H 140.414 -4.5823 1.97046 0
M  V30 1508 H 139.568 -6.06538 0.1402 0
M  V30 1509 H 138.307 -4.86939 -0.272431 0
M  V30 1510 H 137.312 -5.11369 2.01945 0
M  V30 1511 H 138.537 -6.34337 2.42474 0
M  V30 1512 H 136.483 -6.55722 0.190939 0
M  V30 1513 H 136.4 -7.36073 1.72432 0
M  V30 1514 H 137.668 -7.77123 0.608253 0
M  V30 1515 N 141.898 -0.863906 -1.31812 0
M  V30 1516 C 143.123 -0.48527 -2.01643 0
M  V30 1517 C 143.548 0.913058 -1.64453 0
M  V30 1518 O 142.906 1.6014 -0.849985 0
M  V30 1519 C 142.954 -0.642625 -3.54828 0
M  V30 1520 O 142.058 0.320659 -4.11151 0
M  V30 1521 H 141.399 -0.193793 -0.635091 0
M  V30 1522 H 143.929 -1.16565 -1.68148 0
M  V30 1523 H 143.939 -0.533628 -4.04495 0
M  V30 1524 H 142.614 -1.66227 -3.81237 0
M  V30 1525 H 141.191 0.167126 -3.72525 0
M  V30 1526 N 143.376 1.44774 -0.622745 0
M  V30 1527 C 144.601 2.06999 -0.128968 0
M  V30 1528 C 145.026 1.4617 1.1839 0
M  V30 1529 O 144.384 0.560007 1.72434 0
M  V30 1530 C 144.432 3.60595 -0.0188351 0
M  V30 1531 O 143.536 3.99398 1.02739 0
M  V30 1532 H 142.877 0.659047 -0.0809544 0
M  V30 1533 H 145.407 1.85784 -0.85705 0
M  V30 1534 H 145.417 4.07627 0.174476 0
M  V30 1535 H 144.092 4.04252 -0.977384 0
M  V30 1536 H 142.669 3.64011 0.809326 0
M  V30 1537 N 144.854 0.36279 1.53368 0
M  V30 1538 C 146.131 -0.284021 1.93527 0
M  V30 1539 C 146.511 -1.66628 1.29608 0
M  V30 1540 O 145.859 -2.23942 0.45413 0
M  V30 1541 C 146.069 -0.337028 3.47369 0
M  V30 1542 C 147.417 -0.578708 4.20638 0
M  V30 1543 O 148.441 -0.418352 3.53735 0
M  V30 1544 O 147.3 -0.89074 5.39192 0
M  V30 1545 H 144.394 -0.169743 0.809393 0
M  V30 1546 H 146.94 0.41537 1.64538 0
M  V30 1547 H 145.712 0.632217 3.86159 0
M  V30 1548 H 145.335 -1.08243 3.82582 0
M  V30 1549 N 146.332 -1.57332 0.0918853 0
M  V30 1550 C 147.295 -2.12708 -0.85369 0
M  V30 1551 C 148.295 -1.05561 -1.213 0
M  V30 1552 O 149.485 -1.31461 -1.14296 0
M  V30 1553 C 146.617 -2.64503 -2.15061 0
M  V30 1554 H 147.81 -2.97573 -0.3729 0
M  V30 1555 H 145.363 -1.55509 -0.157072 0
M  V30 1556 H 146.098 -1.83149 -2.67632 0
M  V30 1557 H 145.883 -3.4284 -1.90272 0
M  V30 1558 H 147.373 -3.07351 -2.82711 0
M  V30 1559 N 147.81 0.181792 -1.56548 0
M  V30 1560 C 149.04 0.914618 -1.85252 0
M  V30 1561 C 149.448 1.76791 -0.673914 0
M  V30 1562 O 148.791 1.80009 0.366416 0
M  V30 1563 C 148.853 1.85019 -3.08234 0
M  V30 1564 C 148.517 1.17754 -4.41569 0
M  V30 1565 C 149.514 0.548035 -5.17003 0
M  V30 1566 C 147.199 1.17742 -4.88305 0
M  V30 1567 C 149.193 -0.0726128 -6.37359 0
M  V30 1568 C 146.88 0.552946 -6.08593 0
M  V30 1569 C 147.878 -0.070978 -6.82963 0
M  V30 1570 O 147.566 -0.685635 -8.00971 0
M  V30 1571 H 147.298 0.271695 -0.618998 0
M  V30 1572 H 149.852 0.189944 -2.0452 0
M  V30 1573 H 148.082 2.61491 -2.84885 0
M  V30 1574 H 149.771 2.45195 -3.23472 0
M  V30 1575 H 150.537 0.540174 -4.81982 0
M  V30 1576 H 146.416 1.65246 -4.30366 0
M  V30 1577 H 149.96 -0.560213 -6.95347 0
M  V30 1578 H 145.857 0.558354 -6.43081 0
M  V30 1579 H 146.625 -0.58385 -8.16415 0
M  V30 1580 N 149.288 1.51039 0.449983 0
M  V30 1581 C 150.235 1.71439 1.54523 0
M  V30 1582 C 151.205 0.555871 1.56522 0
M  V30 1583 O 152.39 0.788871 1.73728 0
M  V30 1584 C 149.53 1.83384 2.92343 0
M  V30 1585 C 148.643 3.10873 2.9997 0
M  V30 1586 C 147.778 3.13488 4.28834 0
M  V30 1587 C 146.817 4.35343 4.30282 0
M  V30 1588 N 145.954 4.35579 5.5065 0
M  V30 1589 H 150.794 2.64934 1.36433 0
M  V30 1590 H 148.331 1.31312 0.662982 0
M  V30 1591 H 150.289 1.88291 3.72293 0
M  V30 1592 H 148.919 0.933086 3.0902 0
M  V30 1593 H 147.971 3.15336 2.12761 0
M  V30 1594 H 149.283 4.00814 2.96901 0
M  V30 1595 H 148.437 3.17241 5.17149 0
M  V30 1596 H 147.176 2.21414 4.34543 0
M  V30 1597 H 146.181 4.3178 3.40362 0
M  V30 1598 H 147.406 5.28668 4.26248 0
M  V30 1599 H 145.352 3.46369 5.57104 0
M  V30 1600 H 145.269 5.19313 5.49409 0
M  V30 1601 H 146.537 4.43507 6.41032 0
M  V30 1602 N 150.766 -0.704594 1.40972 0
M  V30 1603 C 151.713 -1.81862 1.42109 0
M  V30 1604 C 152.683 -1.63781 0.276593 0
M  V30 1605 O 153.868 -1.84759 0.4763 0
M  V30 1606 C 151.008 -3.19669 1.30022 0
M  V30 1607 C 150.121 -3.49246 2.54267 0
M  V30 1608 C 149.256 -4.76618 2.3454 0
M  V30 1609 C 148.295 -4.99133 3.54306 0
M  V30 1610 N 147.432 -6.17726 3.33706 0
M  V30 1611 H 152.272 -1.80226 2.37324 0
M  V30 1612 H 149.809 -0.880238 1.17857 0
M  V30 1613 H 151.767 -3.99263 1.21018 0
M  V30 1614 H 150.397 -3.20506 0.384192 0
M  V30 1615 H 149.449 -2.64125 2.73756 0
M  V30 1616 H 150.761 -3.61788 3.43381 0
M  V30 1617 H 149.915 -5.64249 2.22952 0
M  V30 1618 H 148.654 -4.66305 1.42867 0
M  V30 1619 H 147.659 -4.09953 3.66359 0
M  V30 1620 H 148.884 -5.11311 4.4692 0
M  V30 1621 H 146.83 -6.08642 2.44725 0
M  V30 1622 H 146.747 -6.30995 4.16391 0
M  V30 1623 H 148.015 -7.08115 3.25873 0
M  V30 1624 N 152.244 -1.26651 -0.937939 0
M  V30 1625 C 153.207 -1.08546 -2.01867 0
M  V30 1626 C 154.207 -0.0327327 -1.60767 0
M  V30 1627 O 155.397 -0.276427 -1.71993 0
M  V30 1628 C 152.529 -0.651711 -3.34613 0
M  V30 1629 H 153.722 -2.04502 -2.1936 0
M  V30 1630 H 151.275 -1.09294 -1.11734 0
M  V30 1631 H 152.01 0.309696 -3.22818 0
M  V30 1632 H 151.795 -1.41189 -3.65798 0
M  V30 1633 H 153.285 -0.546973 -4.14002 0
M  V30 1634 N 153.722 1.14298 -1.08507 0
M  V30 1635 C 154.968 1.85854 -0.826438 0
M  V30 1636 C 155.323 1.81413 0.640878 0
M  V30 1637 O 154.616 1.23463 1.46518 0
M  V30 1638 C 154.81 3.33547 -1.28379 0
M  V30 1639 C 154.639 3.52369 -2.79403 0
M  V30 1640 C 153.409 3.67159 -3.47164 0
M  V30 1641 C 155.607 3.49203 -3.77573 0
M  V30 1642 N 153.589 3.74149 -4.86709 0
M  V30 1643 C 154.96 3.6245 -5.03021 0
M  V30 1644 C 157.015 3.32547 -3.70563 0
M  V30 1645 C 155.718 3.60761 -6.2229 0
M  V30 1646 C 157.744 3.32162 -4.89308 0
M  V30 1647 C 157.106 3.45949 -6.13595 0
M  V30 1648 H 153.205 0.696705 -0.355143 0
M  V30 1649 H 155.789 1.36981 -1.38362 0
M  V30 1650 H 153.96 3.81008 -0.754166 0
M  V30 1651 H 155.692 3.92867 -0.971469 0
M  V30 1652 H 152.447 3.68433 -2.9758 0
M  V30 1653 H 152.871 3.81359 -5.5937 0
M  V30 1654 H 157.513 3.20797 -2.75407 0
M  V30 1655 H 155.231 3.71286 -7.17755 0
M  V30 1656 H 158.817 3.20485 -4.85573 0
M  V30 1657 H 157.697 3.456 -7.03939 0
M  V30 1658 N 155.201 0.870884 1.31352 0
M  V30 1659 C 156.449 0.48132 1.96285 0
M  V30 1660 C 156.77 -0.969813 1.69173 0
M  V30 1661 O 156.04 -1.67998 1.00764 0
M  V30 1662 H 154.62 0.175002 0.726212 0
M  V30 1663 H 157.282 1.11087 1.60143 0
M  V30 1664 H 156.378 0.639825 3.05471 0
M  V30 1665 N 156.679 -1.44442 0.630414 0
M  V30 1666 C 157.627 -2.32437 -0.0871428 0
M  V30 1667 C 158.621 -1.47304 -0.836525 0
M  V30 1668 O 159.827 -1.63653 -0.749506 0
M  V30 1669 H 156.202 -0.750533 -0.0469495 0
M  V30 1670 H 158.173 -2.90709 0.673096 0
M  V30 1671 C 156.922 -3.31288 -1.05563 0
M  V30 1672 H 156.245 -3.96805 -0.488426 0
M  V30 1673 H 157.685 -3.9554 -1.52721 0
M  V30 1674 C 156.144 -2.6016 -2.14052 0
M  V30 1675 O 156.674 -2.39997 -3.22124 0
M  V30 1676 N 154.88 -2.19911 -1.89967 0
M  V30 1677 H 154.427 -2.36509 -1.02085 0
M  V30 1678 H 154.385 -1.72646 -2.62756 0
M  V30 1679 N 158.157 -0.370918 -1.53173 0
M  V30 1680 C 159.105 0.488101 -2.27421 0
M  V30 1681 C 160.099 1.07884 -1.30604 0
M  V30 1682 O 161.305 1.02143 -1.48212 0
M  V30 1683 H 157.68 0.176134 -0.731082 0
M  V30 1684 H 159.651 -0.159815 -2.97972 0
M  V30 1685 C 158.4 1.61306 -3.08019 0
M  V30 1686 H 157.723 1.1678 -3.82364 0
M  V30 1687 H 159.163 2.18872 -3.63141 0
M  V30 1688 C 157.622 2.55848 -2.19188 0
M  V30 1689 O 158.152 3.58799 -1.80626 0
M  V30 1690 N 156.358 2.2516 -1.83715 0
M  V30 1691 H 155.905 1.41476 -2.15273 0
M  V30 1692 H 155.863 2.8867 -1.24567 0
M  V30 1693 N 159.635 1.57281 -0.100228 0
M  V30 1694 C 160.567 2.11342 0.886972 0
M  V30 1695 C 161.58 1.05182 1.24261 0
M  V30 1696 O 162.769 1.32613 1.19483 0
M  V30 1697 C 159.869 2.5825 2.19454 0
M  V30 1698 C 159.042 3.88302 2.01346 0
M  V30 1699 C 158.101 4.21004 3.15661 0
M  V30 1700 O 157.127 4.9014 2.89398 0
M  V30 1701 N 158.329 3.76818 4.41575 0
M  V30 1702 H 161.094 2.96668 0.425216 0
M  V30 1703 H 158.655 1.61678 0.0847334 0
M  V30 1704 H 160.647 2.7717 2.94888 0
M  V30 1705 H 159.217 1.77907 2.57037 0
M  V30 1706 H 158.437 3.7848 1.10212 0
M  V30 1707 H 159.725 4.73375 1.8653 0
M  V30 1708 H 159.123 3.2102 4.65792 0
M  V30 1709 H 157.68 4.00882 5.13942 0
M  V30 1710 N 161.113 -0.173488 1.56642 0
M  V30 1711 C 162.39 -0.917617 1.7274 0
M  V30 1712 C 162.77 -2.00484 0.661027 0
M  V30 1713 O 162.118 -2.26184 -0.32453 0
M  V30 1714 C 162.328 -1.48433 3.15862 0
M  V30 1715 C 163.676 -1.95809 3.76754 0
M  V30 1716 O 164.7 -1.58231 3.19126 0
M  V30 1717 O 163.559 -2.65024 4.77938 0
M  V30 1718 H 160.653 -0.431772 0.705338 0
M  V30 1719 H 163.199 -0.161487 1.6893 0
M  V30 1720 H 161.971 -0.701715 3.84957 0
M  V30 1721 H 161.594 -2.30471 3.23989 0
M  V30 1722 N 162.591 -1.51276 -0.441967 0
M  V30 1723 C 163.839 -1.63392 -1.18943 0
M  V30 1724 C 164.16 -0.350159 -1.9183 0
M  V30 1725 O 163.43 0.633784 -1.85364 0
M  V30 1726 H 162.01 -0.602164 -0.442049 0
M  V30 1727 H 164.672 -1.88186 -0.507165 0
M  V30 1728 H 163.768 -2.45934 -1.92154 0
M  V30 1729 N 164.069 0.697108 -1.41344 0
M  V30 1730 C 165.315 1.4593 -1.40827 0
M  V30 1731 C 165.648 1.94193 -0.0167098 0
M  V30 1732 O 164.923 1.69425 0.955263 0
M  V30 1733 C 165.206 2.67229 -2.41373 0
M  V30 1734 C 165.059 2.24741 -3.8963 0
M  V30 1735 C 166.378 3.69423 -2.39196 0
M  V30 1736 H 163.497 0.529303 -0.512842 0
M  V30 1737 H 166.139 0.794112 -1.72609 0
M  V30 1738 H 164.289 3.23982 -2.14401 0
M  V30 1739 H 165.961 1.73327 -4.27499 0
M  V30 1740 H 164.204 1.56542 -4.0457 0
M  V30 1741 H 164.875 3.1177 -4.55525 0
M  V30 1742 H 167.351 3.2234 -2.63128 0
M  V30 1743 H 166.227 4.51907 -3.11563 0
M  V30 1744 H 166.488 4.19012 -1.41001 0
M  V30 1745 N 165.547 1.27147 0.931209 0
M  V30 1746 C 166.793 1.13446 1.68101 0
M  V30 1747 C 167.126 -0.319628 1.91552 0
M  V30 1748 O 166.401 -1.23407 1.50336 0
M  V30 1749 C 166.684 1.91482 3.0497 0
M  V30 1750 C 166.537 3.44855 2.88782 0
M  V30 1751 C 167.856 1.71651 4.05246 0
M  V30 1752 H 164.975 0.413498 0.610072 0
M  V30 1753 H 167.617 1.56261 1.08086 0
M  V30 1754 H 165.767 1.55095 3.56199 0
M  V30 1755 H 167.439 3.9105 2.44698 0
M  V30 1756 H 165.682 3.71373 2.24198 0
M  V30 1757 H 166.353 3.94694 3.85902 0
M  V30 1758 H 168.829 2.0337 3.63015 0
M  V30 1759 H 167.705 2.28651 4.99009 0
M  V30 1760 H 167.966 0.663555 4.37092 0
M  V30 1761 N 167.025 -1.13721 1.09112 0
M  V30 1762 C 167.988 -2.17222 0.731241 0
M  V30 1763 C 168.988 -1.59035 -0.237566 0
M  V30 1764 O 170.178 -1.74192 -0.0161704 0
M  V30 1765 C 167.31 -3.40804 0.0808443 0
M  V30 1766 H 168.503 -2.50573 1.64783 0
M  V30 1767 H 166.056 -1.28493 0.889897 0
M  V30 1768 H 166.791 -3.1304 -0.847127 0
M  V30 1769 H 166.576 -3.84306 0.777896 0
M  V30 1770 H 168.066 -4.1731 -0.155657 0
M  V30 1771 N 168.503 -0.877838 -1.30888 0
M  V30 1772 C 169.728 -0.506629 -2.01117 0
M  V30 1773 C 170.153 0.895564 -1.65412 0
M  V30 1774 O 169.511 1.5923 -0.866922 0
M  V30 1775 C 169.559 -0.680223 -3.54126 0
M  V30 1776 O 168.663 0.277033 -4.11468 0
M  V30 1777 H 168.004 -0.200518 -0.633 0
M  V30 1778 H 170.534 -1.18342 -1.66902 0
M  V30 1779 H 170.544 -0.5765 -4.03907 0
M  V30 1780 H 169.219 -1.70261 -3.79452 0
M  V30 1781 H 167.796 0.127606 -3.72682 0
M  V30 1782 N 169.982 1.44106 -0.638065 0
M  V30 1783 C 170.914 2.28976 0.101205 0
M  V30 1784 C 171.927 1.4167 0.802088 0
M  V30 1785 O 173.116 1.65755 0.662375 0
M  V30 1786 C 170.216 3.18217 1.16581 0
M  V30 1787 C 169.389 4.33978 0.546066 0
M  V30 1788 C 168.448 5.04202 1.50554 0
M  V30 1789 O 167.474 5.59986 1.01999 0
M  V30 1790 N 168.676 5.06296 2.8398 0
M  V30 1791 H 171.441 2.93064 -0.627186 0
M  V30 1792 H 169.002 1.54629 -0.479731 0
M  V30 1793 H 170.994 3.62061 1.80815 0
M  V30 1794 H 169.564 2.55833 1.79634 0
M  V30 1795 H 168.784 3.93239 -0.275046 0
M  V30 1796 H 170.072 5.08675 0.112793 0
M  V30 1797 H 169.47 4.62319 3.26002 0
M  V30 1798 H 168.027 5.53907 3.43556 0
M  V30 1799 N 171.46 0.379036 1.52974 0
M  V30 1800 C 172.871 -0.0972525 1.86447 0
M  V30 1801 C 173.222 -1.47027 1.29914 0
M  V30 1802 O 172.347 -2.07135 0.626433 0
M  V30 1803 C 172.942 -0.183248 3.38304 0
M  V30 1804 C 171.501 -0.603812 3.71525 0
M  V30 1805 C 170.648 0.240632 2.76254 0
M  V30 1806 H 173.599 0.597316 1.4703 0
M  V30 1807 H 173.62 -1.00432 3.67006 0
M  V30 1808 H 173.132 0.816191 3.79421 0
M  V30 1809 H 171.233 -1.61099 3.35973 0
M  V30 1810 H 171.346 -0.369086 4.77676 0
M  V30 1811 H 169.71 -0.292548 2.53014 0
M  V30 1812 H 170.493 1.23786 3.20206 0
M  V30 1813 N 172.938 -1.57226 0.108567 0
M  V30 1814 C 173.901 -2.13602 -0.831082 0
M  V30 1815 C 174.901 -1.06841 -1.20173 0
M  V30 1816 O 176.091 -1.32666 -1.12895 0
M  V30 1817 C 173.223 -2.66769 -2.12243 0
M  V30 1818 H 174.416 -2.97951 -0.341317 0
M  V30 1819 H 171.969 -1.55667 -0.14057 0
M  V30 1820 H 172.704 -1.85977 -2.65675 0
M  V30 1821 H 172.489 -3.44839 -1.86625 0
M  V30 1822 H 173.979 -3.10332 -2.79435 0
M  V30 1823 N 174.416 0.165178 -1.56732 0
M  V30 1824 C 175.832 0.517174 -1.50988 0
M  V30 1825 C 176.032 1.84331 -0.813894 0
M  V30 1826 O 175.088 2.49672 -0.37682 0
M  V30 1827 C 176.401 0.544261 -2.95733 0
M  V30 1828 C 177.949 0.631039 -3.06573 0
M  V30 1829 C 178.424 0.68896 -4.52788 0
M  V30 1830 N 179.915 0.751683 -4.5706 0
M  V30 1831 C 180.65 0.817177 -5.67547 0
M  V30 1832 N 180.146 0.843129 -6.8765 0
M  V30 1833 N 181.939 0.856668 -5.55534 0
M  V30 1834 H 174.09 -0.704318 -2.00382 0
M  V30 1835 H 176.353 -0.254687 -0.913148 0
M  V30 1836 H 176.059 -0.361607 -3.49836 0
M  V30 1837 H 175.933 1.3886 -3.5071 0
M  V30 1838 H 178.32 1.52733 -2.52501 0
M  V30 1839 H 178.401 -0.240095 -2.54671 0
M  V30 1840 H 178.045 -0.2031 -5.07494 0
M  V30 1841 H 177.975 1.57633 -5.02454 0
M  V30 1842 H 180.466 0.739661 -3.70591 0
M  V30 1843 H 180.779 0.894448 -7.67606 0
M  V30 1844 H 179.124 0.811304 -6.90248 0
M  V30 1845 H 182.315 0.833437 -4.60621 0
M  V30 1846 H 182.488 0.904247 -6.4166 0
M  V30 1847 N 175.894 1.51508 0.433938 0
M  V30 1848 C 177.14 1.64588 1.18484 0
M  V30 1849 C 177.473 0.362666 1.90784 0
M  V30 1850 O 176.748 -0.637892 1.83742 0
M  V30 1851 C 177.031 2.85149 2.19913 0
M  V30 1852 C 176.884 4.23456 1.51674 0
M  V30 1853 C 178.203 3.01227 3.20858 0
M  V30 1854 H 175.322 0.598994 0.429389 0
M  V30 1855 H 177.964 1.84002 0.473647 0
M  V30 1856 H 176.114 2.68729 2.80566 0
M  V30 1857 H 177.786 4.51552 0.943322 0
M  V30 1858 H 176.029 4.25998 0.819035 0
M  V30 1859 H 176.7 5.03812 2.2556 0
M  V30 1860 H 179.176 3.16382 2.70263 0
M  V30 1861 H 178.052 3.87141 3.89118 0
M  V30 1862 H 178.313 2.13447 3.8716 0
M  V30 1863 N 177.372 -0.689602 1.41712 0
M  V30 1864 C 178.618 -1.45181 1.41599 0
M  V30 1865 C 178.951 -1.94181 0.0270081 0
M  V30 1866 O 178.226 -1.6993 -0.946265 0
M  V30 1867 C 178.509 -2.65945 2.42787 0
M  V30 1868 C 178.362 -2.22672 3.90816 0
M  V30 1869 C 179.681 -3.68149 2.41151 0
M  V30 1870 H 176.8 -0.526576 0.515642 0
M  V30 1871 H 179.442 -0.784947 1.73028 0
M  V30 1872 H 177.592 -3.2284 2.16116 0
M  V30 1873 H 179.264 -1.71058 4.28412 0
M  V30 1874 H 177.507 -1.54394 4.05395 0
M  V30 1875 H 178.178 -3.0935 4.57172 0
M  V30 1876 H 180.654 -3.2094 2.64834 0
M  V30 1877 H 179.53 -4.50248 3.13955 0
M  V30 1878 H 179.791 -4.18259 1.43221 0
M  V30 1879 N 178.85 -1.27639 -0.924453 0
M  V30 1880 C 180.127 -1.04887 -1.651 0
M  V30 1881 C 180.507 0.415327 -2.06974 0
M  V30 1882 O 179.855 1.39923 -1.80648 0
M  V30 1883 C 180.065 -2.01348 -2.85061 0
M  V30 1884 C 181.413 -2.30899 -3.56329 0
M  V30 1885 O 182.437 -1.99348 -2.95193 0
M  V30 1886 O 181.296 -2.84699 -4.66485 0
M  V30 1887 H 178.39 -0.400083 -0.723784 0
M  V30 1888 H 180.936 -1.38916 -0.974703 0
M  V30 1889 H 179.708 -3.0008 -2.51133 0
M  V30 1890 H 179.331 -1.679 -3.6041 0
M  V30 1891 N 180.328 1.1314 -1.09713 0
M  V30 1892 C 181.238 2.22242 -0.751367 0
M  V30 1893 C 182.254 1.72224 0.247938 0
M  V30 1894 O 183.43 2.01205 0.0885463 0
M  V30 1895 C 180.495 3.46231 -0.180274 0
M  V30 1896 C 179.556 4.11125 -1.2359 0
M  V30 1897 C 178.789 5.29195 -0.691966 0
M  V30 1898 O 179.012 5.68342 0.48414 0
M  V30 1899 O 177.946 5.84214 -1.44838 0
M  V30 1900 H 181.772 2.54197 -1.66186 0
M  V30 1901 H 179.357 1.21331 -0.871735 0
M  V30 1902 H 181.239 4.21185 0.134739 0
M  V30 1903 H 179.914 3.1597 0.703185 0
M  V30 1904 H 178.821 3.37985 -1.60366 0
M  V30 1905 H 180.154 4.45524 -2.09211 0
M  V30 1906 N 181.806 0.884767 1.30421 0
M  V30 1907 C 183.222 0.57874 1.48737 0
M  V30 1908 C 183.422 -0.883567 1.81095 0
M  V30 1909 O 182.478 -1.6648 1.89844 0
M  V30 1910 C 183.791 1.49171 2.61091 0
M  V30 1911 C 185.339 1.49532 2.74971 0
M  V30 1912 C 185.814 2.39421 3.90438 0
M  V30 1913 N 187.305 2.37383 3.97748 0
M  V30 1914 C 188.04 3.03647 4.86401 0
M  V30 1915 N 187.536 3.79136 5.79852 0
M  V30 1916 N 189.329 2.9288 4.79768 0
M  V30 1917 H 181.48 1.83075 1.0769 0
M  V30 1918 H 183.743 0.783637 0.533495 0
M  V30 1919 H 183.449 2.53291 2.44001 0
M  V30 1920 H 183.323 1.20113 3.57565 0
M  V30 1921 H 185.71 0.46163 2.91467 0
M  V30 1922 H 185.791 1.8262 1.79119 0
M  V30 1923 H 185.435 3.42874 3.74699 0
M  V30 1924 H 185.365 2.03649 4.85628 0
M  V30 1925 H 187.856 1.82525 3.30897 0
M  V30 1926 H 188.169 4.26789 6.4426 0
M  V30 1927 H 186.514 3.83243 5.79784 0
M  V30 1928 H 189.705 2.33433 4.05742 0
M  V30 1929 H 189.878 3.448 5.4865 0
M  V30 1930 N 183.284 -1.43765 0.645699 0
M  V30 1931 C 184.194 -2.34544 -0.0512957 0
M  V30 1932 C 185.21 -1.53455 -0.82022 0
M  V30 1933 O 186.386 -1.86133 -0.769176 0
M  V30 1934 C 183.451 -3.31636 -1.01087 0
M  V30 1935 C 182.512 -4.2863 -0.239712 0
M  V30 1936 C 181.745 -5.21084 -1.15358 0
M  V30 1937 O 181.968 -5.1779 -2.39269 0
M  V30 1938 O 180.902 -5.98593 -0.630038 0
M  V30 1939 H 184.728 -2.95624 0.695718 0
M  V30 1940 H 182.313 -1.43781 0.405882 0
M  V30 1941 H 184.195 -3.9136 -1.56254 0
M  V30 1942 H 182.87 -2.73069 -1.73824 0
M  V30 1943 H 181.777 -3.72408 0.355356 0
M  V30 1944 H 183.11 -4.90157 0.447936 0
M  V30 1945 N 184.763 -0.387143 -1.52771 0
M  V30 1946 C 185.695 0.484089 -2.2403 0
M  V30 1947 C 186.708 1.02849 -1.26198 0
M  V30 1948 O 187.897 0.931186 -1.52286 0
M  V30 1949 C 184.997 1.68337 -2.94136 0
M  V30 1950 C 184.17 1.26672 -4.18656 0
M  V30 1951 C 183.229 2.33045 -4.7178 0
M  V30 1952 O 182.255 1.94541 -5.34923 0
M  V30 1953 N 183.457 3.64929 -4.5145 0
M  V30 1954 H 186.222 -0.126404 -2.99433 0
M  V30 1955 H 183.783 -0.213392 -1.60488 0
M  V30 1956 H 185.775 2.39019 -3.26577 0
M  V30 1957 H 184.345 2.20025 -2.22053 0
M  V30 1958 H 183.565 0.388878 -3.92277 0
M  V30 1959 H 184.853 0.964964 -4.99566 0
M  V30 1960 H 184.251 3.98974 -4.01044 0
M  V30 1961 H 182.808 4.31651 -4.88386 0
M  V30 1962 N 186.241 1.57166 -0.116904 0
M  V30 1963 C 187.174 2.10912 0.871291 0
M  V30 1964 C 188.152 1.025 1.26224 0
M  V30 1965 O 189.336 1.3014 1.36366 0
M  V30 1966 C 186.463 2.6041 2.16574 0
M  V30 1967 C 185.509 3.80687 1.92302 0
M  V30 1968 S 186.342 5.23199 1.14119 0
M  V30 1969 C 187.498 5.76064 2.44748 0
M  V30 1970 H 187.731 2.94401 0.414138 0
M  V30 1971 H 185.264 1.54096 0.096829 0
M  V30 1972 H 187.222 2.89583 2.9095 0
M  V30 1973 H 185.883 1.77106 2.59408 0
M  V30 1974 H 185.076 4.13462 2.8821 0
M  V30 1975 H 184.678 3.5212 1.26047 0
M  V30 1976 H 186.97 5.8566 3.406 0
M  V30 1977 H 187.913 6.74184 2.16521 0
M  V30 1978 H 188.321 5.04117 2.54019 0
M  V30 1979 N 187.719 -0.156864 1.56817 0
M  V30 1980 C 188.682 -1.17781 1.96622 0
M  V30 1981 C 189.682 -1.36401 0.851555 0
M  V30 1982 O 190.872 -1.33561 1.11836 0
M  V30 1983 C 188.004 -2.54008 2.27361 0
M  V30 1984 H 189.197 -0.836564 2.87996 0
M  V30 1985 H 186.75 -0.39985 1.51099 0
M  V30 1986 H 187.485 -2.9312 1.38748 0
M  V30 1987 H 187.27 -2.41856 3.08623 0
M  V30 1988 H 188.76 -3.27558 2.59029 0
M  V30 1989 N 189.197 -1.51736 -0.425897 0
M  V30 1990 C 190.446 -1.64201 -1.17136 0
M  V30 1991 C 190.759 -0.369705 -1.92074 0
M  V30 1992 O 191.965 -0.373898 -2.68913 0
M  V30 1993 C 190.421 -2.90035 -2.13091 0
M  V30 1994 C 190.029 -4.24312 -1.43747 0
M  V30 1995 C 191.773 -3.1186 -2.87999 0
M  V30 1996 C 189.68 -5.41285 -2.38253 0
M  V30 1997 H 188.61 -0.611624 -0.440944 0
M  V30 1998 H 191.261 -1.78212 -0.437328 0
M  V30 1999 H 189.643 -2.69684 -2.89977 0
M  V30 2000 H 190.817 -4.55086 -0.723408 0
M  V30 2001 H 189.132 -4.08456 -0.809465 0
M  V30 2002 H 191.729 -3.96427 -3.58817 0
M  V30 2003 H 192.072 -2.25403 -3.49999 0
M  V30 2004 H 192.605 -3.32605 -2.18217 0
M  V30 2005 H 189.344 -6.30037 -1.80925 0
M  V30 2006 H 188.864 -5.14872 -3.0768 0
M  V30 2007 H 190.543 -5.73694 -2.99139 0
M  V30 2008 N 190.675 0.682077 -1.42076 0
M  V30 2009 C 191.9 1.47558 -1.45744 0
M  V30 2010 C 192.325 1.87977 -0.0680981 0
M  V30 2011 O 191.683 1.55522 0.9318 0
M  V30 2012 C 191.731 2.70575 -2.38373 0
M  V30 2013 O 190.835 3.68573 -1.85007 0
M  V30 2014 H 190.176 0.443585 -0.494093 0
M  V30 2015 H 192.706 0.837238 -1.86686 0
M  V30 2016 H 192.716 3.18729 -2.54707 0
M  V30 2017 H 191.391 2.40495 -3.39315 0
M  V30 2018 H 189.968 3.2757 -1.78192 0
M  V30 2019 N 192.153 1.28127 0.917671 0
M  V30 2020 C 193.401 1.14825 1.66312 0
M  V30 2021 C 193.722 -0.304379 1.9261 0
M  V30 2022 O 192.992 -1.21149 1.53947 0
M  V30 2023 H 191.572 0.421953 0.616413 0
M  V30 2024 H 194.234 1.608 1.10134 0
M  V30 2025 H 193.33 1.68489 2.62712 0
M  V30 2026 N 193.631 -1.12557 1.10312 0
M  V30 2027 C 194.879 -1.83675 0.843091 0
M  V30 2028 C 195.2 -1.84435 -0.633131 0
M  V30 2029 O 194.47 -1.30657 -1.45964 0
M  V30 2030 H 193.05 -0.680138 0.308904 0
M  V30 2031 H 195.712 -1.36301 1.39313 0
M  V30 2032 H 194.808 -2.87908 1.2048 0
M  V30 2033 N 195.109 -0.891671 -1.2995 0
M  V30 2034 C 196.356 -0.513501 -1.95881 0
M  V30 2035 C 196.684 0.938655 -1.70351 0
M  V30 2036 O 195.939 1.67936 -1.00478 0
M  V30 2037 C 196.238 -0.742868 -3.49594 0
M  V30 2038 C 195.904 -2.17114 -3.95186 0
M  V30 2039 C 194.566 -2.56169 -4.07346 0
M  V30 2040 C 196.918 -3.10162 -4.18866 0
M  V30 2041 C 194.246 -3.87469 -4.4055 0
M  V30 2042 C 196.598 -4.41001 -4.53542 0
M  V30 2043 C 195.262 -4.79941 -4.63911 0
M  V30 2044 H 194.532 -0.187903 -0.71678 0
M  V30 2045 H 197.179 -1.1288 -1.54694 0
M  V30 2046 H 195.484 -0.044586 -3.91775 0
M  V30 2047 H 197.181 -0.429767 -3.9869 0
M  V30 2048 H 193.771 -1.85801 -3.86233 0
M  V30 2049 H 197.955 -2.81206 -4.08946 0
M  V30 2050 H 193.211 -4.17371 -4.46779 0
M  V30 2051 H 197.385 -5.13133 -4.70815 0
M  V30 2052 H 195.012 -5.81719 -4.89395 0
M  V30 2053 N 196.587 1.43421 -0.653314 0
M  V30 2054 C 197.836 2.01032 -0.164076 0
M  V30 2055 C 198.149 1.52147 1.22926 0
M  V30 2056 O 199.355 2.02031 1.81371 0
M  V30 2057 C 197.811 3.59082 -0.24252 0
M  V30 2058 C 197.419 4.1696 -1.63855 0
M  V30 2059 C 199.163 4.24079 0.18911 0
M  V30 2060 C 197.07 5.67304 -1.67092 0
M  V30 2061 H 196 0.751798 -0.0575769 0
M  V30 2062 H 198.651 1.6439 -0.815362 0
M  V30 2063 H 197.033 3.93125 0.476276 0
M  V30 2064 H 198.207 3.94416 -2.38271 0
M  V30 2065 H 196.522 3.64335 -2.01616 0
M  V30 2066 H 199.119 5.34381 0.184775 0
M  V30 2067 H 199.462 3.98005 1.22056 0
M  V30 2068 H 199.995 3.94918 -0.477938 0
M  V30 2069 H 196.734 5.98145 -2.68146 0
M  V30 2070 H 196.254 5.91904 -0.970014 0
M  V30 2071 H 197.933 6.31344 -1.4147 0
M  V30 2072 N 198.065 0.39524 1.52563 0
M  V30 2073 C 199.481 0.0454682 1.59535 0
M  V30 2074 C 199.681 -1.44056 1.4089 0
M  V30 2075 O 198.737 -2.20579 1.22888 0
M  V30 2076 C 200.05 0.527963 2.96029 0
M  V30 2077 C 201.598 0.484733 3.09224 0
M  V30 2078 C 202.073 0.943512 4.48176 0
M  V30 2079 N 203.564 0.899765 4.54377 0
M  V30 2080 C 204.299 1.22609 5.60138 0
M  V30 2081 N 203.795 1.62319 6.73516 0
M  V30 2082 N 205.588 1.14696 5.50274 0
M  V30 2083 H 197.739 1.36261 1.62931 0
M  V30 2084 H 200.002 0.558887 0.765735 0
M  V30 2085 H 199.708 1.56607 3.14908 0
M  V30 2086 H 199.582 -0.0698056 3.77135 0
M  V30 2087 H 201.969 -0.544298 2.90037 0
M  V30 2088 H 202.05 1.11838 2.30056 0
M  V30 2089 H 201.694 1.9708 4.68104 0
M  V30 2090 H 201.624 0.286817 5.25818 0
M  V30 2091 H 204.115 0.607632 3.72983 0
M  V30 2092 H 204.428 1.85567 7.5019 0
M  V30 2093 H 202.773 1.66211 6.74833 0
M  V30 2094 H 205.964 0.835701 4.6058 0
M  V30 2095 H 206.137 1.40459 6.32594 0
M  V30 2096 N 199.544 -1.57102 0.125237 0
M  V30 2097 C 200.96 -1.57915 -0.231322 0
M  V30 2098 C 201.16 -1.13833 -1.66266 0
M  V30 2099 O 200.216 -0.828581 -2.38518 0
M  V30 2100 C 201.529 -3.00699 0.00766489 0
M  V30 2101 C 203.077 -3.12947 -0.0577483 0
M  V30 2102 C 203.552 -4.57742 0.153626 0
M  V30 2103 N 205.043 -4.63092 0.0998073 0
M  V30 2104 C 205.778 -5.72905 0.238174 0
M  V30 2105 N 205.274 -6.91445 0.433057 0
M  V30 2106 N 207.067 -5.6182 0.177308 0
M  V30 2107 H 199.218 -1.84055 1.06007 0
M  V30 2108 H 201.481 -0.850905 0.417929 0
M  V30 2109 H 201.187 -3.3726 0.997431 0
M  V30 2110 H 201.061 -3.70236 -0.721452 0
M  V30 2111 H 203.448 -2.7624 -1.03804 0
M  V30 2112 H 203.529 -2.4594 0.70335 0
M  V30 2113 H 203.173 -4.95149 1.13092 0
M  V30 2114 H 203.103 -5.22848 -0.627534 0
M  V30 2115 H 205.594 -3.77871 -0.047051 0
M  V30 2116 H 205.907 -7.70985 0.529332 0
M  V30 2117 H 204.252 -6.93415 0.469109 0
M  V30 2118 H 207.443 -4.68093 0.0259748 0
M  V30 2119 H 207.616 -6.47357 0.288582 0
M  V30 2120 N 201.022 0.148545 -1.56898 0
M  V30 2121 C 202.268 0.862694 -1.83536 0
M  V30 2122 C 202.601 1.80889 -0.706604 0
M  V30 2123 O 201.876 1.92328 0.289885 0
M  V30 2124 C 202.159 1.63853 -3.20662 0
M  V30 2125 C 202.012 0.713925 -4.44098 0
M  V30 2126 C 203.331 2.60133 -3.54991 0
M  V30 2127 H 200.45 0.312179 -0.667618 0
M  V30 2128 H 203.092 0.127953 -1.89569 0
M  V30 2129 H 201.242 2.26489 -3.1565 0
M  V30 2130 H 202.914 0.098686 -4.61194 0
M  V30 2131 H 201.157 0.0234019 -4.33794 0
M  V30 2132 H 201.828 1.29278 -5.36648 0
M  V30 2133 H 204.304 2.07616 -3.60603 0
M  V30 2134 H 203.18 3.11468 -4.51972 0
M  V30 2135 H 203.441 3.41417 -2.80868 0
M  V30 2136 N 202.5 1.5196 0.417844 0
M  V30 2137 C 203.728 1.69426 1.18753 0
M  V30 2138 C 204.143 0.399955 1.84515 0
M  V30 2139 O 203.5 -0.623288 1.71527 0
M  V30 2140 C 203.551 2.82375 2.25714 0
M  V30 2141 O 203.272 4.06793 1.62638 0
M  V30 2142 C 204.773 3.11277 3.15628 0
M  V30 2143 H 201.993 0.568031 0.357186 0
M  V30 2144 H 204.537 1.98475 0.49273 0
M  V30 2145 H 202.692 2.5587 2.90877 0
M  V30 2146 H 203.106 4.69667 2.3348 0
M  V30 2147 H 204.58 3.93843 3.86771 0
M  V30 2148 H 205.057 2.24473 3.77503 0
M  V30 2149 H 205.663 3.39515 2.56144 0
M  V30 2150 N 203.978 -0.674533 1.42435 0
M  V30 2151 C 204.926 -1.80934 1.46169 0
M  V30 2152 C 205.92 -1.66006 0.3374 0
M  V30 2153 O 207.126 -1.72611 0.510425 0
M  V30 2154 H 203.501 -0.596594 0.457798 0
M  V30 2155 H 205.472 -1.74903 2.41767 0
M  V30 2156 C 204.221 -3.19088 1.38123 0
M  V30 2157 H 203.544 -3.31203 2.23931 0
M  V30 2158 H 204.984 -3.9851 1.44797 0
M  V30 2159 C 203.443 -3.36763 0.0960517 0
M  V30 2160 O 203.973 -3.92581 -0.851073 0
M  V30 2161 N 202.179 -2.90597 0.0131186 0
M  V30 2162 H 201.726 -2.45359 0.784639 0
M  V30 2163 H 201.684 -3.028 -0.846133 0
M  V30 2164 N 205.456 -1.28612 -0.910864 0
M  V30 2165 C 206.733 -1.06632 -1.63979 0
M  V30 2166 C 207.113 0.393351 -2.07403 0
M  V30 2167 O 206.461 1.37999 -1.82122 0
M  V30 2168 C 206.671 -2.0436 -2.8291 0
M  V30 2169 C 208.019 -2.34666 -3.5386 0
M  V30 2170 O 209.043 -2.02467 -2.93062 0
M  V30 2171 O 207.902 -2.89631 -4.63439 0
M  V30 2172 H 204.996 -0.407737 -0.7195 0
M  V30 2173 H 207.542 -1.39942 -0.959914 0
M  V30 2174 H 206.314 -3.02727 -2.47936 0
M  V30 2175 H 205.937 -1.71714 -3.58609 0
M  V30 2176 N 206.934 1.1197 -1.10907 0
M  V30 2177 C 207.897 2.16031 -0.765707 0
M  V30 2178 C 208.897 1.59393 0.212235 0
M  V30 2179 O 210.087 1.74196 -0.0115441 0
M  V30 2180 C 207.219 3.40632 -0.135053 0
M  V30 2181 H 208.412 2.47919 -1.68748 0
M  V30 2182 H 205.965 1.27061 -0.910226 0
M  V30 2183 H 206.7 3.14348 0.797218 0
M  V30 2184 H 206.485 3.8302 -0.838937 0
M  V30 2185 H 207.975 4.17505 0.0892469 0
M  V30 2186 N 208.412 0.89855 1.29475 0
M  V30 2187 C 209.828 0.594483 1.48115 0
M  V30 2188 C 210.028 -0.86431 1.82022 0
M  V30 2189 O 209.084 -1.64457 1.91599 0
M  V30 2190 C 210.397 1.51932 2.59494 0
M  V30 2191 C 211.945 1.5244 2.7337 0
M  V30 2192 C 212.42 2.43548 3.87877 0
M  V30 2193 N 213.911 2.41589 3.95208 0
M  V30 2194 C 214.646 3.08789 4.83153 0
M  V30 2195 N 214.142 3.85265 5.75798 0
M  V30 2196 N 215.935 2.97952 4.76635 0
M  V30 2197 H 208.086 1.84207 1.05742 0
M  V30 2198 H 210.349 0.789251 0.525154 0
M  V30 2199 H 210.055 2.55865 2.41301 0
M  V30 2200 H 209.929 1.23899 3.56271 0
M  V30 2201 H 212.316 0.492518 2.90961 0
M  V30 2202 H 212.397 1.8451 1.77172 0
M  V30 2203 H 212.041 3.46829 3.71041 0
M  V30 2204 H 211.971 2.08788 4.83441 0
M  V30 2205 H 214.462 1.86025 3.28943 0
M  V30 2206 H 214.775 4.33598 6.39697 0
M  V30 2207 H 213.12 3.89371 5.75687 0
M  V30 2208 H 216.311 2.37723 4.03244 0
M  V30 2209 H 216.484 3.50599 5.44962 0
M  V30 2210 N 209.89 -1.43072 0.660911 0
M  V30 2211 C 210.8 -2.34585 -0.0264163 0
M  V30 2212 C 211.816 -1.54316 -0.803898 0
M  V30 2213 O 212.992 -1.86939 -0.749391 0
M  V30 2214 C 210.057 -3.32689 -0.975639 0
M  V30 2215 C 209.118 -4.2886 -0.194236 0
M  V30 2216 C 208.351 -5.22278 -1.09825 0
M  V30 2217 O 208.574 -5.20299 -2.33763 0
M  V30 2218 O 207.508 -5.99228 -0.566513 0
M  V30 2219 H 211.334 -2.94869 0.727034 0
M  V30 2220 H 208.919 -1.43342 0.42111 0
M  V30 2221 H 210.801 -3.92995 -1.52094 0
M  V30 2222 H 209.476 -2.74898 -1.70918 0
M  V30 2223 H 208.383 -3.72011 0.394835 0
M  V30 2224 H 209.716 -4.89655 0.499899 0
M  V30 2225 N 211.368 -0.403325 -1.52352 0
M  V30 2226 C 212.316 0.439752 -2.28405 0
M  V30 2227 C 213.31 1.05089 -1.32863 0
M  V30 2228 O 214.516 0.989759 -1.50345 0
M  V30 2229 H 210.891 0.160587 -0.734653 0
M  V30 2230 H 212.862 -0.222983 -2.97566 0
M  V30 2231 C 211.611 1.54736 -3.11371 0
M  V30 2232 H 210.934 1.08643 -3.84755 0
M  V30 2233 H 212.374 2.1112 -3.67701 0
M  V30 2234 C 210.833 2.51141 -2.24566 0
M  V30 2235 O 211.363 3.54887 -1.88196 0
M  V30 2236 N 209.569 2.21213 -1.8845 0
M  V30 2237 H 209.116 1.36878 -2.18225 0
M  V30 2238 H 209.074 2.85963 -1.30662 0
M  V30 2239 N 212.846 1.57033 -0.133567 0
M  V30 2240 C 213.756 2.19632 0.824564 0
M  V30 2241 C 214.772 1.17666 1.28182 0
M  V30 2242 O 215.948 1.50193 1.3418 0
M  V30 2243 C 213.013 2.79499 2.05137 0
M  V30 2244 C 212.074 3.96548 1.64464 0
M  V30 2245 C 211.307 4.5355 2.81297 0
M  V30 2246 O 211.53 4.09438 3.97136 0
M  V30 2247 O 210.464 5.44018 2.57542 0
M  V30 2248 H 214.29 3.01991 0.321766 0
M  V30 2249 H 211.875 1.49112 0.0927889 0
M  V30 2250 H 213.757 3.17602 2.7696 0
M  V30 2251 H 212.432 2.00162 2.54395 0
M  V30 2252 H 211.339 3.63186 0.897048 0
M  V30 2253 H 212.672 4.77364 1.19934 0
M  V30 2254 N 214.325 -0.140222 1.56975 0
M  V30 2255 C 215.258 -1.20266 1.93936 0
M  V30 2256 C 216.236 -1.41212 0.806099 0
M  V30 2257 O 217.42 -1.55713 1.06234 0
M  V30 2258 C 214.547 -2.56037 2.21726 0
M  V30 2259 C 213.593 -2.51646 3.44349 0
M  V30 2260 S 214.426 -1.97678 4.97678 0
M  V30 2261 C 215.582 -3.35165 5.28597 0
M  V30 2262 H 215.815 -0.887358 2.83749 0
M  V30 2263 H 213.348 -0.346119 1.50471 0
M  V30 2264 H 215.306 -3.34167 2.38416 0
M  V30 2265 H 213.967 -2.84755 1.32566 0
M  V30 2266 H 213.16 -3.51608 3.61092 0
M  V30 2267 H 212.762 -1.81628 3.26936 0
M  V30 2268 H 215.054 -4.31302 5.2248 0
M  V30 2269 H 215.997 -3.23269 6.30002 0
M  V30 2270 H 216.405 -3.32614 4.56101 0
M  V30 2271 N 215.803 -1.52179 -0.40978 0
M  V30 2272 C 217.08 -1.56769 -1.16974 0
M  V30 2273 C 217.46 -0.348322 -2.08206 0
M  V30 2274 O 216.808 0.664862 -2.18613 0
M  V30 2275 C 217.018 -2.89603 -1.9476 0
M  V30 2276 C 218.366 -3.42579 -2.50849 0
M  V30 2277 O 219.39 -2.91338 -2.04941 0
M  V30 2278 O 218.249 -4.32054 -3.34652 0
M  V30 2279 H 215.343 -0.631439 -0.534054 0
M  V30 2280 H 217.889 -1.64507 -0.416613 0
M  V30 2281 H 216.661 -3.698 -1.27921 0
M  V30 2282 H 216.284 -2.85155 -2.77079 0
M  V30 2283 N 217.281 0.66697 -1.42791 0
M  V30 2284 C 218.191 1.80962 -1.49299 0
M  V30 2285 C 219.207 1.69775 -0.381108 0
M  V30 2286 O 220.383 1.91188 -0.633188 0
M  V30 2287 C 217.448 3.17156 -1.40045 0
M  V30 2288 C 216.509 3.40242 -2.6179 0
M  V30 2289 C 215.742 4.69939 -2.52969 0
M  V30 2290 O 215.965 5.48372 -1.56985 0
M  V30 2291 O 214.899 4.94441 -3.43237 0
M  V30 2292 H 218.725 1.78427 -2.45759 0
M  V30 2293 H 216.31 0.823713 -1.24641 0
M  V30 2294 H 218.192 3.98413 -1.37276 0
M  V30 2295 H 216.867 3.20312 -0.467138 0
M  V30 2296 H 215.774 2.58802 -2.70134 0
M  V30 2297 H 217.107 3.41923 -3.54047 0
M  V30 2298 N 218.759 1.29093 0.90403 0
M  V30 2299 C 219.707 1.13727 2.02901 0
M  V30 2300 C 220.701 0.0539853 1.69314 0
M  V30 2301 O 221.907 0.213469 1.7873 0
M  V30 2302 H 218.282 0.35117 0.664969 0
M  V30 2303 H 220.253 2.08982 2.13001 0
M  V30 2304 C 219.002 0.826066 3.37745 0
M  V30 2305 H 218.325 1.65164 3.64089 0
M  V30 2306 H 219.765 0.758559 4.17159 0
M  V30 2307 C 218.224 -0.470541 3.33598 0
M  V30 2308 O 218.754 -1.49792 3.72727 0
M  V30 2309 N 216.96 -0.474812 2.86695 0
M  V30 2310 H 216.507 0.361692 2.55048 0
M  V30 2311 H 216.465 -1.34236 2.84303 0
M  V30 2312 N 220.237 -1.11381 1.11499 0
M  V30 2313 C 221.167 -2.19509 0.796125 0
M  V30 2314 C 222.148 -1.68458 -0.235796 0
M  V30 2315 O 223.333 -1.93947 -0.0991344 0
M  V30 2316 C 220.463 -3.46475 0.239205 0
M  V30 2317 C 219.417 -4.10744 1.20307 0
M  V30 2318 C 218.743 -5.32293 0.50683 0
M  V30 2319 C 220.043 -4.55597 2.55399 0
M  V30 2320 H 221.737 -2.46439 1.70024 0
M  V30 2321 H 219.283 -1.18446 0.818935 0
M  V30 2322 H 221.236 -4.214 0.00392006 0
M  V30 2323 H 219.96 -3.19006 -0.700206 0
M  V30 2324 H 218.619 -3.37813 1.42399 0
M  V30 2325 H 218.267 -5.01095 -0.437408 0
M  V30 2326 H 217.967 -5.76243 1.1497 0
M  V30 2327 H 219.491 -6.09956 0.280351 0
M  V30 2328 H 220.905 -5.21841 2.37391 0
M  V30 2329 H 219.302 -5.10363 3.15673 0
M  V30 2330 H 220.372 -3.69013 3.14575 0
M  V30 2331 N 221.715 -0.905404 -1.28997 0
M  V30 2332 C 222.625 -0.392246 -2.31298 0
M  V30 2333 C 223.641 0.515889 -1.66176 0
M  V30 2334 O 224.817 0.404093 -1.97304 0
M  V30 2335 C 221.882 0.36686 -3.44754 0
M  V30 2336 C 220.943 -0.573485 -4.25452 0
M  V30 2337 C 220.176 0.149488 -5.33491 0
M  V30 2338 O 220.399 1.37255 -5.5364 0
M  V30 2339 O 219.333 -0.510919 -5.99728 0
M  V30 2340 H 223.159 -1.2411 -2.77183 0
M  V30 2341 H 220.744 -0.669926 -1.33538 0
M  V30 2342 H 222.626 0.795907 -4.13816 0
M  V30 2343 H 221.301 1.19169 -3.00966 0
M  V30 2344 H 220.208 -1.05176 -3.59011 0
M  V30 2345 H 221.541 -1.36489 -4.72897 0
M  V30 2346 N 223.193 1.4272 -0.668489 0
M  V30 2347 C 224.125 2.2914 0.052613 0
M  V30 2348 C 225.138 1.43339 0.771857 0
M  V30 2349 O 226.327 1.67123 0.627067 0
M  V30 2350 C 223.427 3.20618 1.09804 0
M  V30 2351 C 222.6 4.35039 0.45389 0
M  V30 2352 C 221.659 5.07282 1.39825 0
M  V30 2353 O 220.685 5.62024 0.900978 0
M  V30 2354 N 221.887 5.12206 2.73176 0
M  V30 2355 H 224.652 2.91668 -0.689209 0
M  V30 2356 H 222.213 1.53577 -0.512422 0
M  V30 2357 H 224.205 3.65815 1.73094 0
M  V30 2358 H 222.775 2.59585 1.74167 0
M  V30 2359 H 221.995 3.92567 -0.358396 0
M  V30 2360 H 223.283 5.088 0.00486972 0
M  V30 2361 H 222.681 4.6913 3.16122 0
M  V30 2362 H 221.238 5.61069 3.31729 0
M  V30 2363 N 224.671 0.411399 1.52136 0
M  V30 2364 C 225.917 -0.163888 2.02137 0
M  V30 2365 C 226.25 -1.44597 1.29636 0
M  V30 2366 O 225.525 -1.90272 0.403353 0
M  V30 2367 C 225.808 -0.40927 3.57767 0
M  V30 2368 C 225.661 0.889643 4.40914 0
M  V30 2369 C 226.98 -1.19042 4.23694 0
M  V30 2370 H 224.099 -0.0580896 0.734707 0
M  V30 2371 H 226.741 0.54531 1.82007 0
M  V30 2372 H 224.891 -1.0134 3.7505 0
M  V30 2373 H 226.563 1.52575 4.35337 0
M  V30 2374 H 224.806 1.50011 4.07037 0
M  V30 2375 H 225.477 0.672314 5.4789 0
M  V30 2376 H 227.953 -0.678942 4.10524 0
M  V30 2377 H 226.829 -1.33086 5.32522 0
M  V30 2378 H 227.09 -2.21166 3.82803 0
M  V30 2379 N 226.149 -1.5696 0.141893 0
M  V30 2380 C 227.374 -2.00754 -0.520838 0
M  V30 2381 C 227.799 -1.0213 -1.57959 0
M  V30 2382 O 227.157 0.00371324 -1.813 0
M  V30 2383 C 227.205 -3.43318 -1.10294 0
M  V30 2384 O 226.309 -3.47679 -2.21795 0
M  V30 2385 H 225.65 -0.651564 -0.127908 0
M  V30 2386 H 228.18 -2.03221 0.23712 0
M  V30 2387 H 228.19 -3.82012 -1.43287 0
M  V30 2388 H 226.865 -4.14608 -0.327574 0
M  V30 2389 H 225.442 -3.20824 -1.9007 0
M  V30 2390 N 227.627 0.131896 -1.57047 0
M  V30 2391 C 228.875 0.840269 -1.83804 0
M  V30 2392 C 229.196 1.81017 -0.72512 0
M  V30 2393 O 228.466 1.94272 0.251995 0
M  V30 2394 H 227.046 0.313294 -0.678127 0
M  V30 2395 H 229.708 0.122294 -1.94516 0
M  V30 2396 H 228.804 1.39335 -2.79271 0
M  V30 2397 N 229.106 1.52395 0.401703 0
M  V30 2398 C 230.355 1.66044 1.14509 0
M  V30 2399 C 230.668 0.400216 1.91462 0
M  V30 2400 O 231.874 0.416632 2.68284 0
M  V30 2401 C 230.33 2.93388 2.0845 0
M  V30 2402 C 229.938 4.26545 1.36978 0
M  V30 2403 C 231.682 3.16402 2.83001 0
M  V30 2404 C 229.589 5.45007 2.29611 0
M  V30 2405 H 228.519 0.618562 0.431158 0
M  V30 2406 H 231.17 1.78886 0.40892 0
M  V30 2407 H 229.552 2.74263 2.8565 0
M  V30 2408 H 230.726 4.56179 0.650916 0
M  V30 2409 H 229.041 4.09692 0.74438 0
M  V30 2410 H 231.638 4.02085 3.52465 0
M  V30 2411 H 231.981 2.30943 3.46368 0
M  V30 2412 H 232.514 3.36034 2.12898 0
M  V30 2413 H 229.253 6.32835 1.70879 0
M  V30 2414 H 228.773 5.19702 2.9945 0
M  V30 2415 H 230.452 5.7838 2.89974 0
M  V30 2416 N 230.584 -0.659388 1.43143 0
M  V30 2417 C 231.833 -1.41518 1.43721 0
M  V30 2418 C 232.146 -1.95499 0.0628176 0
M  V30 2419 O 233.352 -2.71446 -0.0539683 0
M  V30 2420 C 231.808 -2.5608 2.52885 0
M  V30 2421 C 231.416 -2.08733 3.96402 0
M  V30 2422 C 233.16 -3.3349 2.62649 0
M  V30 2423 C 231.067 -3.20469 4.97045 0
M  V30 2424 H 229.997 -0.531705 0.534608 0
M  V30 2425 H 232.648 -0.712343 1.69109 0
M  V30 2426 H 231.03 -3.28805 2.20688 0
M  V30 2427 H 232.204 -1.43059 4.3803 0
M  V30 2428 H 230.519 -1.44219 3.90627 0
M  V30 2429 H 233.116 -4.16734 3.35017 0
M  V30 2430 H 233.459 -3.8111 1.67513 0
M  V30 2431 H 233.992 -2.67842 2.94118 0
M  V30 2432 H 230.731 -2.77824 5.93712 0
M  V30 2433 H 230.251 -3.84874 4.60034 0
M  V30 2434 H 231.93 -3.85698 5.19467 0
M  V30 2435 N 232.062 -1.29571 -0.897171 0
M  V30 2436 C 233.31 -1.17456 -1.64464 0
M  V30 2437 C 233.631 0.273698 -1.9307 0
M  V30 2438 O 232.901 1.18684 -1.55855 0
M  V30 2439 H 231.481 -0.431706 -0.609622 0
M  V30 2440 H 234.143 -1.62531 -1.07562 0
M  V30 2441 H 233.239 -1.72648 -2.59998 0
M  V30 2442 N 233.54 1.10788 -1.12088 0
M  V30 2443 C 234.488 2.19111 -0.780587 0
M  V30 2444 C 235.482 1.67818 0.230961 0
M  V30 2445 O 236.688 1.79777 0.0895427 0
M  V30 2446 H 233.063 0.714477 -0.234578 0
M  V30 2447 H 235.034 2.45055 -1.70266 0
M  V30 2448 C 233.783 3.46818 -0.24747 0
M  V30 2449 H 233.106 3.86646 -1.01712 0
M  V30 2450 H 234.546 4.23973 -0.0476291 0
M  V30 2451 C 233.005 3.20968 1.02378 0
M  V30 2452 O 233.535 3.42298 2.10226 0
M  V30 2453 N 231.741 2.74658 0.949271 0
M  V30 2454 H 231.288 2.57501 0.0715173 0
M  V30 2455 H 231.246 2.57739 1.80049 0
M  V30 2456 N 235.018 0.912232 1.28515 0
M  V30 2457 C 235.948 0.416403 2.29757 0
M  V30 2458 C 236.929 -0.515194 1.6211 0
M  V30 2459 O 238.114 -0.423253 1.89532 0
M  V30 2460 C 235.244 -0.34572 3.45575 0
M  V30 2461 C 234.198 0.496599 4.25109 0
M  V30 2462 C 233.524 -0.393771 5.33248 0
M  V30 2463 C 234.824 1.75307 4.92001 0
M  V30 2464 H 236.518 1.26249 2.7148 0
M  V30 2465 H 234.064 0.608515 1.30511 0
M  V30 2466 H 236.017 -0.703422 4.15488 0
M  V30 2467 H 234.741 -1.2257 3.02728 0
M  V30 2468 H 233.4 0.8368 3.56922 0
M  V30 2469 H 233.048 -1.27225 4.86644 0
M  V30 2470 H 232.748 0.166209 5.87365 0
M  V30 2471 H 234.272 -0.747389 6.06009 0
M  V30 2472 H 235.686 1.46437 5.54283 0
M  V30 2473 H 234.083 2.25534 5.56106 0
M  V30 2474 H 235.153 2.48176 4.16577 0
M  V30 2475 N 236.496 -1.42363 0.676048 0
M  V30 2476 C 237.912 -1.55811 0.345718 0
M  V30 2477 C 238.112 -1.65544 -1.14879 0
M  V30 2478 O 237.168 -1.62306 -1.93424 0
M  V30 2479 C 238.481 -2.80746 1.07713 0
M  V30 2480 C 240.029 -2.9452 1.05958 0
M  V30 2481 C 240.504 -4.22318 1.77233 0
M  V30 2482 N 241.995 -4.29233 1.74108 0
M  V30 2483 C 242.73 -5.26935 2.26113 0
M  V30 2484 N 242.226 -6.30783 2.86505 0
M  V30 2485 N 244.019 -5.18741 2.1648 0
M  V30 2486 H 236.17 -1.34289 1.6456 0
M  V30 2487 H 238.433 -0.646506 0.69335 0
M  V30 2488 H 238.139 -2.79696 2.13221 0
M  V30 2489 H 238.013 -3.71676 0.64316 0
M  V30 2490 H 240.4 -2.95097 0.0128255 0
M  V30 2491 H 240.481 -2.04817 1.53244 0
M  V30 2492 H 240.125 -4.22502 2.81877 0
M  V30 2493 H 240.055 -5.10958 1.27396 0
M  V30 2494 H 242.546 -3.54814 1.30059 0
M  V30 2495 H 242.859 -7.01691 3.23805 0
M  V30 2496 H 241.204 -6.31341 2.90575 0
M  V30 2497 H 244.395 -4.36533 1.68987 0
M  V30 2498 H 244.568 -5.94721 2.57316 0
M  V30 2499 N 237.974 -0.419461 -1.51915 0
M  V30 2500 C 238.924 0.418496 -2.24126 0
M  V30 2501 C 239.908 1.00495 -1.25656 0
M  V30 2502 O 241.1 0.926058 -1.50842 0
M  V30 2503 C 238.229 1.52899 -3.07371 0
M  V30 2504 C 237.315 0.952797 -4.13258 0
M  V30 2505 N 237.706 0.104175 -5.05693 0
M  V30 2506 C 236.004 1.22224 -4.28926 0
M  V30 2507 C 236.705 -0.21752 -5.81293 0
M  V30 2508 N 235.681 0.394293 -5.42168 0
M  V30 2509 H 239.483 -0.236048 -2.92951 0
M  V30 2510 H 236.997 -0.230481 -1.60756 0
M  V30 2511 H 238.994 2.14199 -3.57665 0
M  V30 2512 H 237.654 2.18605 -2.40088 0
M  V30 2513 H 238.665 -0.260924 -5.17242 0
M  V30 2514 H 235.342 1.87812 -3.72871 0
M  V30 2515 H 236.732 -0.906992 -6.6575 0
M  V30 2516 N 239.452 1.56882 -0.150215 0
M  V30 2517 C 240.385 2.12712 0.826358 0
M  V30 2518 C 241.363 1.05154 1.24022 0
M  V30 2519 O 242.547 1.33004 1.33575 0
M  V30 2520 C 239.674 2.64945 2.11002 0
M  V30 2521 C 238.72 3.8468 1.84183 0
M  V30 2522 S 239.553 5.25502 1.02995 0
M  V30 2523 C 240.709 5.81125 2.32474 0
M  V30 2524 H 240.942 2.95214 0.351598 0
M  V30 2525 H 238.475 1.54267 0.0641211 0
M  V30 2526 H 240.433 2.95689 2.84742 0
M  V30 2527 H 239.094 1.82568 2.55593 0
M  V30 2528 H 238.287 4.19482 2.79375 0
M  V30 2529 H 237.889 3.54714 1.1855 0
M  V30 2530 H 240.181 5.92753 3.281 0
M  V30 2531 H 241.124 6.78625 2.02171 0
M  V30 2532 H 241.532 5.09392 2.43269 0
M  V30 2533 N 240.93 -0.123565 1.57115 0
M  V30 2534 C 241.893 -1.13583 1.99076 0
M  V30 2535 C 242.893 -1.34564 0.880296 0
M  V30 2536 O 244.083 -1.31158 1.14644 0
M  V30 2537 C 241.215 -2.49128 2.32698 0
M  V30 2538 H 242.408 -0.775287 2.89706 0
M  V30 2539 H 239.961 -0.36771 1.51913 0
M  V30 2540 H 240.696 -2.90111 1.44934 0
M  V30 2541 H 240.481 -2.35255 3.13684 0
M  V30 2542 H 241.971 -3.2199 2.65918 0
M  V30 2543 N 242.408 -1.52605 -0.393616 0
M  V30 2544 C 243.338 -1.80022 -1.48709 0
M  V30 2545 C 244.319 -0.651995 -1.57108 0
M  V30 2546 O 245.504 -0.89913 -1.72132 0
M  V30 2547 C 242.634 -1.96492 -2.86371 0
M  V30 2548 C 241.588 -3.12161 -2.92813 0
M  V30 2549 C 240.914 -3.13877 -4.3288 0
M  V30 2550 C 242.214 -4.51322 -2.6288 0
M  V30 2551 H 243.908 -2.71589 -1.26015 0
M  V30 2552 H 241.454 -1.30684 -0.604778 0
M  V30 2553 H 243.407 -2.14255 -3.62867 0
M  V30 2554 H 242.131 -1.01611 -3.10391 0
M  V30 2555 H 240.79 -2.94173 -2.18764 0
M  V30 2556 H 240.438 -2.16687 -4.53933 0
M  V30 2557 H 240.138 -3.91576 -4.38112 0
M  V30 2558 H 241.662 -3.33789 -5.1129 0
M  V30 2559 H 243.076 -4.69435 -3.29096 0
M  V30 2560 H 241.473 -5.31053 -2.79468 0
M  V30 2561 H 242.543 -4.58353 -1.58242 0
M  V30 2562 N 243.887 0.651787 -1.4349 0
M  V30 2563 C 245.164 1.40909 -1.35661 0
M  V30 2564 C 245.544 2.11099 -0.00511733 0
M  V30 2565 O 244.892 2.04892 1.0115 0
M  V30 2566 C 245.102 2.3926 -2.54078 0
M  V30 2567 C 246.45 3.03217 -2.97228 0
M  V30 2568 O 247.474 2.49588 -2.54135 0
M  V30 2569 O 246.333 4.00455 -3.71885 0
M  V30 2570 H 243.427 0.629625 -0.536191 0
M  V30 2571 H 245.973 0.678575 -1.55542 0
M  V30 2572 H 244.745 1.86352 -3.44076 0
M  V30 2573 H 244.368 3.1976 -2.36303 0
M  V30 2574 N 245.365 1.30045 0.890287 0
M  V30 2575 C 246.298 1.10301 1.99772 0
M  V30 2576 C 247.276 0.0121631 1.62595 0
M  V30 2577 O 248.46 0.16469 1.87779 0
M  V30 2578 C 245.587 0.681125 3.31781 0
M  V30 2579 C 244.633 1.77206 3.87944 0
M  V30 2580 S 245.466 3.37335 4.15891 0
M  V30 2581 C 246.622 2.97036 5.50927 0
M  V30 2582 H 246.855 2.04057 2.16213 0
M  V30 2583 H 244.388 1.14299 1.03804 0
M  V30 2584 H 246.346 0.444439 4.08087 0
M  V30 2585 H 245.007 -0.236981 3.13205 0
M  V30 2586 H 244.2 1.42903 4.83316 0
M  V30 2587 H 243.802 1.96275 3.18358 0
M  V30 2588 H 246.094 2.44666 6.31779 0
M  V30 2589 H 247.037 3.91296 5.90164 0
M  V30 2590 H 247.445 2.35057 5.13233 0
M  V30 2591 N 246.843 -1.10192 1.12674 0
M  V30 2592 C 248.091 -1.81845 0.881861 0
M  V30 2593 C 248.412 -1.85737 -0.593867 0
M  V30 2594 O 247.682 -1.33724 -1.4316 0
M  V30 2595 H 246.262 -0.673432 0.323261 0
M  V30 2596 H 248.924 -1.33316 1.42172 0
M  V30 2597 H 248.02 -2.85288 1.2656 0
M  V30 2598 N 248.321 -0.919034 -1.28029 0
M  V30 2599 C 249.269 -0.401753 -2.29104 0
M  V30 2600 C 250.263 0.509354 -1.61561 0
M  V30 2601 O 251.469 0.390014 -1.75724 0
M  V30 2602 H 247.844 -0.111331 -0.743713 0
M  V30 2603 H 249.815 -1.2672 -2.70156 0
M  V30 2604 C 248.564 0.338148 -3.46052 0
M  V30 2605 H 247.887 -0.353732 -3.98232 0
M  V30 2606 H 249.327 0.664653 -4.18758 0
M  V30 2607 C 247.786 1.54798 -2.99231 0
M  V30 2608 O 248.316 2.64696 -3.02157 0
M  V30 2609 N 246.522 1.3968 -2.54829 0
M  V30 2610 H 246.069 0.502698 -2.52647 0
M  V30 2611 H 246.027 2.20755 -2.23863 0
M  V30 2612 N 249.799 1.42003 -0.683588 0
M  V30 2613 C 250.709 2.34597 -0.0109075 0
M  V30 2614 C 251.725 1.55576 0.779245 0
M  V30 2615 O 252.901 1.88107 0.719555 0
M  V30 2616 C 249.966 3.34199 0.922588 0
M  V30 2617 C 249.027 4.29115 0.125984 0
M  V30 2618 C 248.26 5.23959 1.01502 0
M  V30 2619 O 248.483 5.23952 2.25456 0
M  V30 2620 O 247.417 6.00053 0.47111 0
M  V30 2621 H 251.243 2.93675 -0.773853 0
M  V30 2622 H 248.828 1.42654 -0.443861 0
M  V30 2623 H 250.71 3.95365 1.45823 0
M  V30 2624 H 249.385 2.77582 1.66523 0
M  V30 2625 H 248.292 3.71335 -0.453969 0
M  V30 2626 H 249.625 4.88798 -0.577736 0
M  V30 2627 N 251.277 0.427512 1.51691 0
M  V30 2628 C 252.526 -0.143679 2.01188 0
M  V30 2629 C 252.839 -1.44642 1.31674 0
M  V30 2630 O 254.045 -2.09997 1.72086 0
M  V30 2631 C 252.501 -0.306602 3.58592 0
M  V30 2632 C 252.109 0.985125 4.37035 0
M  V30 2633 C 253.853 -0.832091 4.16265 0
M  V30 2634 C 251.76 0.788382 5.86122 0
M  V30 2635 H 250.69 -0.0574701 0.751807 0
M  V30 2636 H 253.341 0.555772 1.74881 0
M  V30 2637 H 251.723 -1.06882 3.81303 0
M  V30 2638 H 252.897 1.75492 4.26074 0
M  V30 2639 H 251.212 1.4384 3.90767 0
M  V30 2640 H 253.809 -0.995617 5.25349 0
M  V30 2641 H 254.152 -1.81186 3.74803 0
M  V30 2642 H 254.685 -0.128444 3.97593 0
M  V30 2643 H 251.424 1.74025 6.31978 0
M  V30 2644 H 250.944 0.0582143 5.99772 0
M  V30 2645 H 252.623 0.437722 6.45518 0
M  V30 2646 N 252.755 -1.56801 0.158532 0
M  V30 2647 C 254.032 -1.88131 -0.535357 0
M  V30 2648 C 254.412 -1.06638 -1.82186 0
M  V30 2649 O 253.76 -0.156533 -2.27963 0
M  V30 2650 C 253.97 -3.39949 -0.789653 0
M  V30 2651 C 255.318 -4.09416 -1.12533 0
M  V30 2652 O 256.342 -3.45194 -0.878622 0
M  V30 2653 O 255.201 -5.22855 -1.59014 0
M  V30 2654 H 252.295 -0.780143 -0.27442 0
M  V30 2655 H 254.841 -1.68564 0.19601 0
M  V30 2656 H 253.613 -3.91115 0.120353 0
M  V30 2657 H 253.236 -3.65084 -1.57479 0
M  V30 2658 N 254.233 0.115231 -1.57178 0
M  V30 2659 C 255.461 0.836437 -1.89239 0
M  V30 2660 C 255.876 1.73256 -0.750175 0
M  V30 2661 O 255.233 1.80357 0.278832 0
M  V30 2662 C 255.284 1.66671 -3.20785 0
M  V30 2663 O 255.005 0.806652 -4.3061 0
M  V30 2664 C 256.506 2.49274 -3.66575 0
M  V30 2665 H 253.726 0.240253 -0.626514 0
M  V30 2666 H 256.27 0.0984932 -2.04263 0
M  V30 2667 H 254.425 2.35737 -3.0742 0
M  V30 2668 H 254.839 1.37969 -5.06028 0
M  V30 2669 H 256.313 3.03055 -4.6137 0
M  V30 2670 H 256.79 3.26807 -2.93417 0
M  V30 2671 H 257.396 1.85443 -3.82741 0
M  V30 2672 N 255.711 1.52812 0.385517 0
M  V30 2673 C 256.643 1.74096 1.49074 0
M  V30 2674 C 257.656 0.621462 1.50472 0
M  V30 2675 O 258.845 0.897245 1.54311 0
M  V30 2676 C 255.945 1.78774 2.87911 0
M  V30 2677 C 255.118 3.08134 3.10439 0
M  V30 2678 C 254.177 3.04313 4.29278 0
M  V30 2679 O 253.203 3.78168 4.25415 0
M  V30 2680 N 254.405 2.23741 5.35649 0
M  V30 2681 H 257.17 2.69455 1.31202 0
M  V30 2682 H 254.731 1.51343 0.575065 0
M  V30 2683 H 256.723 1.73721 3.65518 0
M  V30 2684 H 255.293 0.907869 2.99126 0
M  V30 2685 H 254.513 3.26649 2.20667 0
M  V30 2686 H 255.801 3.93662 3.22347 0
M  V30 2687 H 255.199 1.63211 5.41645 0
M  V30 2688 H 253.756 2.24524 6.11909 0
M  V30 2689 N 257.189 -0.644168 1.43834 0
M  V30 2690 C 258.137 -1.77793 1.49974 0
M  V30 2691 C 259.131 -1.65253 0.372536 0
M  V30 2692 O 260.337 -1.7149 0.546924 0
M  V30 2693 H 256.712 -0.58675 0.47035 0
M  V30 2694 H 258.683 -1.69736 2.45423 0
M  V30 2695 C 257.432 -3.16087 1.4486 0
M  V30 2696 H 256.755 -3.26378 2.30905 0
M  V30 2697 H 258.195 -3.95349 1.53217 0
M  V30 2698 C 256.654 -3.36484 0.167463 0
M  V30 2699 O 257.184 -3.94298 -0.767609 0
M  V30 2700 N 255.39 -2.90504 0.0747556 0
M  V30 2701 H 254.937 -2.4364 0.836507 0
M  V30 2702 H 254.895 -3.04527 -0.781714 0
M  V30 2703 N 258.668 -1.30515 -0.883378 0
M  V30 2704 C 260.084 -1.08881 -1.16692 0
M  V30 2705 C 260.284 0.149409 -2.00945 0
M  V30 2706 O 259.34 0.84257 -2.38027 0
M  V30 2707 C 260.653 -2.35319 -1.87204 0
M  V30 2708 C 262.201 -2.40799 -1.99962 0
M  V30 2709 C 262.676 -3.67083 -2.73887 0
M  V30 2710 N 264.167 -3.679 -2.81432 0
M  V30 2711 C 264.902 -4.62303 -3.3921 0
M  V30 2712 N 264.398 -5.67052 -3.98025 0
M  V30 2713 N 266.191 -4.49845 -3.3704 0
M  V30 2714 H 258.342 -2.09951 -0.321633 0
M  V30 2715 H 260.605 -0.92556 -0.205043 0
M  V30 2716 H 260.311 -3.25689 -1.3274 0
M  V30 2717 H 260.185 -2.44089 -2.87577 0
M  V30 2718 H 262.572 -1.50907 -2.53597 0
M  V30 2719 H 262.653 -2.36003 -0.98673 0
M  V30 2720 H 262.297 -4.57334 -2.20925 0
M  V30 2721 H 262.227 -3.69141 -3.75556 0
M  V30 2722 H 264.718 -2.92171 -2.39676 0
M  V30 2723 H 265.031 -6.35184 -4.40183 0
M  V30 2724 H 263.376 -5.70842 -3.96439 0
M  V30 2725 H 266.567 -3.67194 -2.90321 0
M  V30 2726 H 266.74 -5.23597 -3.81772 0
M  V30 2727 N 260.146 1.09593 -1.13257 0
M  V30 2728 C 261.078 2.16015 -0.766167 0
M  V30 2729 C 262.091 1.61423 0.211303 0
M  V30 2730 O 263.28 1.78498 -0.00863946 0
M  V30 2731 C 260.38 3.38706 -0.114662 0
M  V30 2732 C 259.553 4.22717 -1.12379 0
M  V30 2733 C 258.612 5.23835 -0.498301 0
M  V30 2734 O 257.638 5.573 -1.15781 0
M  V30 2735 N 258.84 5.75886 0.730417 0
M  V30 2736 H 261.605 2.48055 -1.68193 0
M  V30 2737 H 259.166 1.25292 -1.02535 0
M  V30 2738 H 261.158 4.03464 0.315991 0
M  V30 2739 H 259.728 3.04569 0.704011 0
M  V30 2740 H 258.948 3.54122 -1.73179 0
M  V30 2741 H 260.236 4.75673 -1.80589 0
M  V30 2742 H 259.634 5.50911 1.28504 0
M  V30 2743 H 258.191 6.42387 1.10376 0
M  V30 2744 N 261.624 0.925811 1.2754 0
M  V30 2745 C 262.873 0.561084 1.93739 0
M  V30 2746 C 263.186 -0.901685 1.73577 0
M  V30 2747 O 264.392 -1.37511 2.34101 0
M  V30 2748 C 262.848 0.952668 3.47062 0
M  V30 2749 C 262.456 2.43599 3.75983 0
M  V30 2750 C 264.2 0.659103 4.19352 0
M  V30 2751 C 262.107 2.76707 5.22673 0
M  V30 2752 H 261.037 0.206122 0.725279 0
M  V30 2753 H 263.688 1.12637 1.44863 0
M  V30 2754 H 262.07 0.316053 3.94737 0
M  V30 2755 H 263.244 3.12035 3.39073 0
M  V30 2756 H 261.559 2.70125 3.16893 0
M  V30 2757 H 264.156 0.882985 5.27359 0
M  V30 2758 H 264.499 -0.403607 4.14339 0
M  V30 2759 H 265.032 1.25473 3.77494 0
M  V30 2760 H 261.771 3.8188 5.32774 0
M  V30 2761 H 261.291 2.12919 5.60737 0
M  V30 2762 H 262.97 2.6435 5.90532 0
M  V30 2763 N 263.102 -1.41638 0.69111 0
M  V30 2764 C 264.379 -1.95036 0.148421 0
M  V30 2765 C 264.759 -1.63072 -1.34055 0
M  V30 2766 O 264.107 -0.93538 -2.08478 0
M  V30 2767 C 264.317 -3.46279 0.434951 0
M  V30 2768 C 265.665 -4.23069 0.360275 0
M  V30 2769 O 266.689 -3.54277 0.369613 0
M  V30 2770 O 265.548 -5.45583 0.316534 0
M  V30 2771 H 262.642 -0.826908 0.0123654 0
M  V30 2772 H 265.188 -1.5138 0.766963 0
M  V30 2773 H 263.96 -3.6281 1.46576 0
M  V30 2774 H 263.583 -3.97019 -0.214787 0
M  V30 2775 N 264.58 -0.43555 -1.51462 0
M  V30 2776 C 265.996 -0.0877501 -1.59359 0
M  V30 2777 C 266.196 1.4027 -1.4466 0
M  V30 2778 O 265.252 2.17243 -1.28693 0
M  V30 2779 C 266.565 -0.606264 -2.94525 0
M  V30 2780 C 268.113 -0.566548 -3.0783 0
M  V30 2781 C 268.588 -1.06201 -4.45517 0
M  V30 2782 N 270.079 -1.01992 -4.51832 0
M  V30 2783 C 270.814 -1.37417 -5.5669 0
M  V30 2784 N 270.31 -1.80119 -6.68976 0
M  V30 2785 N 272.103 -1.29245 -5.47039 0
M  V30 2786 H 264.254 -1.40533 -1.59261 0
M  V30 2787 H 266.517 -0.578992 -0.750648 0
M  V30 2788 H 266.223 -1.64901 -3.10645 0
M  V30 2789 H 266.097 -0.0302097 -3.77188 0
M  V30 2790 H 268.484 0.467208 -2.91378 0
M  V30 2791 H 268.565 -1.17898 -2.2701 0
M  V30 2792 H 268.209 -2.09422 -4.62715 0
M  V30 2793 H 268.139 -0.426127 -5.24873 0
M  V30 2794 H 270.63 -0.706308 -3.71241 0
M  V30 2795 H 270.943 -2.05392 -7.45006 0
M  V30 2796 H 269.288 -1.84044 -6.70189 0
M  V30 2797 H 272.479 -0.957522 -4.58202 0
M  V30 2798 H 272.652 -1.57182 -6.28648 0
M  V30 2799 N 266.058 1.56714 -0.166846 0
M  V30 2800 C 267.307 1.95922 0.479318 0
M  V30 2801 C 267.62 1.05529 1.6469 0
M  V30 2802 O 268.826 1.34399 2.35901 0
M  V30 2803 C 267.282 3.48359 0.90412 0
M  V30 2804 C 266.89 4.47369 -0.237621 0
M  V30 2805 C 268.634 3.96394 1.51896 0
M  V30 2806 C 266.541 5.91039 0.206561 0
M  V30 2807 H 265.471 0.731495 0.18284 0
M  V30 2808 H 268.122 1.81728 -0.254363 0
M  V30 2809 H 266.504 3.57955 1.69365 0
M  V30 2810 H 267.678 4.49485 -1.01489 0
M  V30 2811 H 265.993 4.09366 -0.762128 0
M  V30 2812 H 268.59 5.01186 1.86325 0
M  V30 2813 H 268.933 3.39075 2.41524 0
M  V30 2814 H 269.466 3.89796 0.79395 0
M  V30 2815 H 266.205 6.52221 -0.654834 0
M  V30 2816 H 265.725 5.9224 0.949282 0
M  V30 2817 H 267.404 6.43707 0.651939 0
M  V30 2818 N 267.536 -0.106894 1.57237 0
M  V30 2819 C 268.469 -1.16125 1.96444 0
M  V30 2820 C 269.447 -1.3947 0.835871 0
M  V30 2821 O 270.631 -1.53425 1.09513 0
M  V30 2822 C 267.758 -2.51277 2.27107 0
M  V30 2823 C 266.804 -2.44285 3.4961 0
M  V30 2824 S 267.637 -1.87077 5.01759 0
M  V30 2825 C 268.793 -3.23877 5.35588 0
M  V30 2826 H 269.026 -0.826971 2.85567 0
M  V30 2827 H 266.559 -0.314124 1.51171 0
M  V30 2828 H 268.517 -3.29035 2.45451 0
M  V30 2829 H 267.178 -2.81879 1.38576 0
M  V30 2830 H 266.371 -3.4387 3.68469 0
M  V30 2831 H 265.973 -1.74652 3.30715 0
M  V30 2832 H 268.265 -4.20122 5.31511 0
M  V30 2833 H 269.208 -3.09833 6.36717 0
M  V30 2834 H 269.616 -3.22864 4.63054 0
M  V30 2835 N 269.014 -1.53014 -0.377408 0
M  V30 2836 C 269.924 -1.81557 -1.48574 0
M  V30 2837 C 270.94 -0.703102 -1.59162 0
M  V30 2838 O 272.116 -0.99192 -1.75279 0
M  V30 2839 C 269.181 -1.9889 -2.83978 0
M  V30 2840 C 268.242 -3.22801 -2.83016 0
M  V30 2841 C 267.475 -3.39298 -4.11962 0
M  V30 2842 O 267.698 -2.60345 -5.0752 0
M  V30 2843 O 266.632 -4.32604 -4.18494 0
M  V30 2844 H 270.458 -2.75695 -1.27382 0
M  V30 2845 H 268.043 -1.38248 -0.566373 0
M  V30 2846 H 269.925 -2.11931 -3.6423 0
M  V30 2847 H 268.6 -1.07942 -3.05172 0
M  V30 2848 H 267.507 -3.15193 -2.01505 0
M  V30 2849 H 268.84 -4.13632 -2.66775 0
M  V30 2850 N 270.492 0.636531 -1.44174 0
M  V30 2851 C 271.439 1.74875 -1.50624 0
M  V30 2852 C 272.409 1.62275 -0.35442 0
M  V30 2853 O 273.594 1.82276 -0.563908 0
M  V30 2854 C 270.734 3.13102 -1.45125 0
M  V30 2855 C 269.847 3.36717 -2.7064 0
M  V30 2856 C 268.982 4.64885 -2.57013 0
M  V30 2857 C 268.021 4.8166 -3.77717 0
M  V30 2858 N 267.158 6.01101 -3.62798 0
M  V30 2859 H 271.998 1.68697 -2.45653 0
M  V30 2860 H 269.535 0.823004 -1.21922 0
M  V30 2861 H 271.493 3.93034 -1.39929 0
M  V30 2862 H 270.123 3.18308 -0.536671 0
M  V30 2863 H 269.175 2.50763 -2.86046 0
M  V30 2864 H 270.487 3.44993 -3.60252 0
M  V30 2865 H 269.641 5.52969 -2.49619 0
M  V30 2866 H 268.38 4.58957 -1.64953 0
M  V30 2867 H 267.385 3.92007 -3.85501 0
M  V30 2868 H 268.61 4.89406 -4.70807 0
M  V30 2869 H 266.556 5.96273 -2.73486 0
M  V30 2870 H 266.473 6.10409 -4.46023 0
M  V30 2871 H 267.741 6.91761 -3.59286 0
M  V30 2872 N 271.97 1.30982 0.876444 0
M  V30 2873 C 272.933 1.18054 1.96459 0
M  V30 2874 C 273.933 0.109399 1.60427 0
M  V30 2875 O 275.123 0.358173 1.70478 0
M  V30 2876 C 272.255 0.810616 3.31122 0
M  V30 2877 H 273.448 2.14735 2.09354 0
M  V30 2878 H 271.001 1.145 1.06392 0
M  V30 2879 H 271.736 -0.155322 3.23928 0
M  V30 2880 H 271.521 1.58481 3.58645 0
M  V30 2881 H 273.011 0.743876 4.10921 0
M  V30 2882 N 273.449 -1.08991 1.13837 0
M  V30 2883 C 274.726 -1.77863 0.813876 0
M  V30 2884 C 275.106 -1.99375 -0.693746 0
M  V30 2885 O 274.454 -1.59875 -1.63255 0
M  V30 2886 C 274.664 -3.0986 1.60586 0
M  V30 2887 C 276.012 -3.84493 1.8014 0
M  V30 2888 O 277.036 -3.19624 1.57222 0
M  V30 2889 O 275.895 -5.00957 2.18413 0
M  V30 2890 H 272.989 -0.771589 0.297624 0
M  V30 2891 H 275.535 -1.15507 1.24323 0
M  V30 2892 H 274.307 -2.89715 2.63022 0
M  V30 2893 H 273.93 -3.79942 1.17173 0
M  V30 2894 N 274.927 -0.932562 -1.27047 0
M  V30 2895 C 276.152 -0.591474 -1.98787 0
M  V30 2896 C 276.577 0.824601 -1.69062 0
M  V30 2897 O 275.935 1.5541 -0.933677 0
M  V30 2898 C 275.983 -0.829808 -3.50922 0
M  V30 2899 O 275.087 0.102266 -4.12273 0
M  V30 2900 H 274.428 -0.227185 -0.623926 0
M  V30 2901 H 276.958 -1.25314 -1.61733 0
M  V30 2902 H 276.968 -0.747292 -4.01098 0
M  V30 2903 H 275.643 -1.86201 -3.7189 0
M  V30 2904 H 274.22 -0.0305761 -3.72887 0
M  V30 2905 N 276.405 1.4127 -0.698611 0
M  V30 2906 C 277.353 2.32588 -0.023855 0
M  V30 2907 C 278.347 1.51128 0.765292 0
M  V30 2908 O 279.553 1.67043 0.670571 0
M  V30 2909 H 275.928 0.751918 0.0110871 0
M  V30 2910 H 277.899 2.87167 -0.811031 0
M  V30 2911 C 276.648 3.35947 0.896369 0
M  V30 2912 H 275.971 3.98684 0.298548 0
M  V30 2913 H 277.411 4.02376 1.33676 0
M  V30 2914 C 275.87 2.70076 2.01396 0
M  V30 2915 O 276.4 2.55093 3.10307 0
M  V30 2916 N 274.606 2.28724 1.79259 0
M  V30 2917 H 274.153 2.4111 0.906841 0
M  V30 2918 H 274.111 1.84986 2.54219 0
M  V30 2919 N 277.883 0.443576 1.51229 0
M  V30 2920 C 278.83 -0.364716 2.279 0
M  V30 2921 C 279.8 -1.0114 1.31757 0
M  V30 2922 O 280.985 -1.02912 1.60667 0
M  V30 2923 C 278.125 -1.45644 3.12861 0
M  V30 2924 C 277.238 -0.827269 4.24005 0
M  V30 2925 C 276.373 -1.89456 4.96266 0
M  V30 2926 C 275.412 -1.24416 5.99322 0
M  V30 2927 N 274.549 -2.25309 6.64966 0
M  V30 2928 H 279.389 0.295464 2.96532 0
M  V30 2929 H 276.926 0.157554 1.46254 0
M  V30 2930 H 278.884 -2.10076 3.6045 0
M  V30 2931 H 277.514 -2.08616 2.46331 0
M  V30 2932 H 276.566 -0.0710839 3.80334 0
M  V30 2933 H 277.878 -0.312481 4.9782 0
M  V30 2934 H 277.032 -2.61535 5.47434 0
M  V30 2935 H 275.771 -2.4431 4.22095 0
M  V30 2936 H 274.776 -0.508868 5.4744 0
M  V30 2937 H 276.001 -0.702882 6.75453 0
M  V30 2938 H 273.947 -2.79231 5.93604 0
M  V30 2939 H 273.864 -1.78739 7.34567 0
M  V30 2940 H 275.132 -2.96853 7.20763 0
M  V30 2941 N 279.361 -1.56624 0.175154 0
M  V30 2942 C 280.589 -2.01374 -0.474971 0
M  V30 2943 C 281.004 -1.05537 -1.56548 0
M  V30 2944 O 280.361 -0.0568668 -1.82411 0
M  V30 2945 C 280.412 -3.45923 -1.04975 0
M  V30 2946 O 280.133 -4.381 -0.00276605 0
M  V30 2947 C 281.634 -4.06093 -1.77773 0
M  V30 2948 H 278.854 -0.659962 -0.121206 0
M  V30 2949 H 281.398 -2.02601 0.27801 0
M  V30 2950 H 279.553 -3.45458 -1.75321 0
M  V30 2951 H 279.967 -5.22753 -0.427681 0
M  V30 2952 H 281.441 -5.09147 -2.13245 0
M  V30 2953 H 281.918 -3.48405 -2.67414 0
M  V30 2954 H 282.524 -4.10272 -1.12059 0
M  V30 2955 N 280.839 0.0985539 -1.57292 0
M  V30 2956 C 282.255 0.45267 -1.53046 0
M  V30 2957 C 282.455 1.80713 -0.891342 0
M  V30 2958 O 281.511 2.4785 -0.482375 0
M  V30 2959 C 282.824 0.418341 -2.97776 0
M  V30 2960 C 284.372 0.500443 -3.08973 0
M  V30 2961 C 284.847 0.496297 -4.55303 0
M  V30 2962 N 286.338 0.557151 -4.59837 0
M  V30 2963 C 287.073 0.575726 -5.70502 0
M  V30 2964 N 286.569 0.550714 -6.90608 0
M  V30 2965 N 288.362 0.620277 -5.58667 0
M  V30 2966 H 280.513 -0.788673 -1.97215 0
M  V30 2967 H 282.776 -0.293188 -0.901524 0
M  V30 2968 H 282.482 -0.509659 -3.47988 0
M  V30 2969 H 282.356 1.2386 -3.56284 0
M  V30 2970 H 284.743 1.41886 -2.58751 0
M  V30 2971 H 284.824 -0.347894 -2.53423 0
M  V30 2972 H 284.468 -0.418162 -5.06176 0
M  V30 2973 H 284.398 1.3618 -5.08687 0
M  V30 2974 H 286.889 0.581816 -3.73394 0
M  V30 2975 H 287.202 0.568075 -7.70709 0
M  V30 2976 H 285.547 0.517816 -6.93068 0
M  V30 2977 H 288.738 0.637322 -4.63741 0
M  V30 2978 H 288.911 0.631283 -6.44918 0
M  V30 2979 N 282.317 1.53212 0.369288 0
M  V30 2980 C 283.566 1.68436 1.10961 0
M  V30 2981 C 283.879 0.440738 1.9057 0
M  V30 2982 O 285.085 0.473446 2.6734 0
M  V30 2983 C 283.541 2.97744 2.0218 0
M  V30 2984 C 283.149 4.29355 1.279 0
M  V30 2985 C 284.893 3.22334 2.76226 0
M  V30 2986 C 282.8 5.49755 2.17999 0
M  V30 2987 H 281.73 0.627568 0.41794 0
M  V30 2988 H 284.381 1.79713 0.370884 0
M  V30 2989 H 282.763 2.8026 2.79768 0
M  V30 2990 H 283.937 4.57458 0.554007 0
M  V30 2991 H 282.252 4.11179 0.657311 0
M  V30 2992 H 284.849 4.09471 3.43857 0
M  V30 2993 H 285.192 2.38238 3.41392 0
M  V30 2994 H 285.725 3.40475 2.05723 0
M  V30 2995 H 282.464 6.36318 1.57417 0
M  V30 2996 H 281.984 5.25937 2.88359 0
M  V30 2997 H 283.663 5.84401 2.77641 0
M  V30 2998 N 283.795 -0.628877 1.44509 0
M  V30 2999 C 285.072 -1.38733 1.37886 0
M  V30 3000 C 285.452 -2.11065 0.0387008 0
M  V30 3001 O 284.8 -2.06476 -0.97878 0
M  V30 3002 C 285.01 -2.35188 2.57852 0
M  V30 3003 C 286.358 -2.9845 3.02014 0
M  V30 3004 O 287.382 -2.45513 2.58073 0
M  V30 3005 O 286.241 -3.94487 3.78209 0
M  V30 3006 H 283.335 -0.621015 0.54614 0
M  V30 3007 H 285.881 -0.653744 1.56602 0
M  V30 3008 H 284.653 -1.80855 3.46998 0
M  V30 3009 H 284.276 -3.1596 2.4136 0
M  V30 3010 N 285.273 -1.31445 -0.869486 0
M  V30 3011 C 286.183 -1.21097 -2.0093 0
M  V30 3012 C 287.199 -0.127584 -1.73532 0
M  V30 3013 O 288.375 -0.345477 -1.98415 0
M  V30 3014 C 285.44 -0.919378 -3.34288 0
M  V30 3015 C 284.501 -2.08971 -3.75006 0
M  V30 3016 C 283.734 -1.81194 -5.02001 0
M  V30 3017 O 283.957 -0.747296 -5.65484 0
M  V30 3018 O 282.891 -2.66883 -5.39497 0
M  V30 3019 H 286.717 -2.16883 -2.12592 0
M  V30 3020 H 284.302 -1.11189 -0.997868 0
M  V30 3021 H 286.184 -0.772625 -4.14257 0
M  V30 3022 H 284.859 0.00844772 -3.23699 0
M  V30 3023 H 283.766 -2.29187 -2.95676 0
M  V30 3024 H 285.099 -2.9998 -3.90221 0
M  V30 3025 N 286.751 1.08385 -1.14413 0
M  V30 3026 C 287.714 2.13486 -0.834048 0
M  V30 3027 C 288.714 1.59988 0.161418 0
M  V30 3028 O 289.904 1.74071 -0.0669575 0
M  V30 3029 C 287.036 3.4003 -0.243354 0
M  V30 3030 H 288.229 2.42425 -1.7655 0
M  V30 3031 H 285.782 1.24101 -0.950189 0
M  V30 3032 H 286.517 3.16726 0.696807 0
M  V30 3033 H 286.302 3.80157 -0.960367 0
M  V30 3034 H 287.792 4.17577 -0.0436242 0
M  V30 3035 N 288.23 0.939286 1.26551 0
M  V30 3036 C 289.178 0.43815 2.28436 0
M  V30 3037 C 290.172 -0.483587 1.62351 0
M  V30 3038 O 291.378 -0.362009 1.76322 0
M  V30 3039 H 287.753 0.123149 0.741848 0
M  V30 3040 H 289.724 1.31002 2.68106 0
M  V30 3041 C 288.473 -0.283052 3.46546 0
M  V30 3042 H 287.796 0.417043 3.97619 0
M  V30 3043 H 289.236 -0.597948 4.19763 0
M  V30 3044 C 287.695 -1.50018 3.01656 0
M  V30 3045 O 288.225 -2.59855 3.0633 0
M  V30 3046 N 286.431 -1.35608 2.57019 0
M  V30 3047 H 285.978 -0.46244 2.53415 0
M  V30 3048 H 285.936 -2.17165 2.27347 0
M  V30 3049 N 289.708 -1.40897 0.706093 0
M  V30 3050 C 290.64 -2.29199 0.00815776 0
M  V30 3051 C 291.653 -1.45336 -0.733582 0
M  V30 3052 O 292.842 -1.68727 -0.582537 0
M  V30 3053 C 289.942 -3.23417 -1.01265 0
M  V30 3054 C 289.115 -4.36089 -0.338387 0
M  V30 3055 C 288.174 -5.10811 -1.26326 0
M  V30 3056 O 287.2 -5.64215 -0.751651 0
M  V30 3057 N 288.402 -5.19269 -2.595 0
M  V30 3058 H 291.167 -2.89738 0.766297 0
M  V30 3059 H 288.728 -1.52164 0.55296 0
M  V30 3060 H 290.72 -3.70276 -1.63334 0
M  V30 3061 H 289.29 -2.64112 -1.67223 0
M  V30 3062 H 288.51 -3.91479 0.462352 0
M  V30 3063 H 289.798 -5.08634 0.130031 0
M  V30 3064 H 289.196 -4.77347 -3.03573 0
M  V30 3065 H 287.753 -5.69667 -3.16737 0
M  V30 3066 N 291.186 -0.45159 -1.50991 0
M  V30 3067 C 292.602 -0.104647 -1.59257 0
M  V30 3068 C 292.802 1.38728 -1.4614 0
M  V30 3069 O 291.858 2.15866 -1.30989 0
M  V30 3070 C 293.171 -0.637468 -2.93865 0
M  V30 3071 C 294.719 -0.599166 -3.07212 0
M  V30 3072 C 295.194 -1.1092 -4.44366 0
M  V30 3073 N 296.685 -1.06778 -4.50725 0
M  V30 3074 C 297.42 -1.43314 -5.55201 0
M  V30 3075 N 296.916 -1.87204 -6.67028 0
M  V30 3076 N 298.709 -1.3504 -5.45638 0
M  V30 3077 H 290.86 -1.42214 -1.57762 0
M  V30 3078 H 293.123 -0.586921 -0.744465 0
M  V30 3079 H 292.829 -1.68187 -3.08879 0
M  V30 3080 H 292.703 -0.0702139 -3.77135 0
M  V30 3081 H 295.09 0.436277 -2.91857 0
M  V30 3082 H 295.171 -1.20299 -2.25747 0
M  V30 3083 H 294.815 -2.14318 -4.60467 0
M  V30 3084 H 294.745 -0.481773 -5.24392 0
M  V30 3085 H 297.236 -0.745643 -3.70471 0
M  V30 3086 H 297.549 -2.13282 -7.42786 0
M  V30 3087 H 295.894 -1.91142 -6.68199 0
M  V30 3088 H 299.085 -1.00607 -4.57161 0
M  V30 3089 H 299.258 -1.63841 -6.26945 0
M  V30 3090 N 292.664 1.56529 -0.183458 0
M  V30 3091 C 293.627 2.17324 0.728223 0
M  V30 3092 C 294.627 1.12453 1.14939 0
M  V30 3093 O 295.817 1.37902 1.06437 0
M  V30 3094 C 292.949 2.76591 1.99274 0
M  V30 3095 H 294.142 2.99241 0.198772 0
M  V30 3096 H 291.695 1.5616 0.0661391 0
M  V30 3097 H 292.43 1.98441 2.56499 0
M  V30 3098 H 292.215 3.5335 1.69959 0
M  V30 3099 H 293.705 3.23311 2.6431 0
M  V30 3100 N 294.142 -0.090211 1.57342 0
M  V30 3101 C 295.37 -0.806224 1.90546 0
M  V30 3102 C 295.785 -1.72041 0.777644 0
M  V30 3103 O 295.142 -1.80778 -0.250103 0
M  V30 3104 C 295.193 -1.61546 3.23396 0
M  V30 3105 O 294.914 -0.738043 4.31839 0
M  V30 3106 C 296.415 -2.4341 3.70495 0
M  V30 3107 H 293.635 -0.230256 0.630257 0
M  V30 3108 H 296.179 -0.0659843 2.04394 0
M  V30 3109 H 294.334 -2.30816 3.11131 0
M  V30 3110 H 294.748 -1.29901 5.08159 0
M  V30 3111 H 296.222 -2.95676 4.66133 0
M  V30 3112 H 296.699 -3.22098 2.98579 0
M  V30 3113 H 297.305 -1.79331 3.85643 0
M  V30 3114 N 295.62 -1.53406 -0.361157 0
M  V30 3115 C 296.567 -1.80156 -1.44265 0
M  V30 3116 C 297.537 -0.646183 -1.53015 0
M  V30 3117 O 298.722 -0.888818 -1.68833 0
M  V30 3118 C 295.862 -2.00116 -2.81154 0
M  V30 3119 C 294.975 -3.27833 -2.81335 0
M  V30 3120 C 294.11 -3.37957 -4.09828 0
M  V30 3121 C 293.149 -4.59689 -4.04168 0
M  V30 3122 N 292.286 -4.66942 -5.24318 0
M  V30 3123 H 297.126 -2.72438 -1.20754 0
M  V30 3124 H 294.663 -1.34954 -0.585296 0
M  V30 3125 H 296.621 -2.09677 -3.60682 0
M  V30 3126 H 295.251 -1.11167 -3.03054 0
M  V30 3127 H 294.303 -3.27204 -1.94014 0
M  V30 3128 H 295.615 -4.17442 -2.73027 0
M  V30 3129 H 294.769 -3.46853 -4.97773 0
M  V30 3130 H 293.508 -2.46372 -4.20894 0
M  V30 3131 H 292.513 -4.50889 -3.14609 0
M  V30 3132 H 293.738 -5.5262 -3.947 0
M  V30 3133 H 291.684 -3.7826 -5.35962 0
M  V30 3134 H 291.601 -5.50462 -5.18197 0
M  V30 3135 H 292.869 -4.80127 -6.14084 0
M  V30 3136 N 297.098 0.621204 -1.44841 0
M  V30 3137 C 298.031 1.7459 -1.46947 0
M  V30 3138 C 299.009 1.59273 -0.327238 0
M  V30 3139 O 300.193 1.81021 -0.525706 0
M  V30 3140 C 297.32 3.12274 -1.31159 0
M  V30 3141 C 296.366 3.46216 -2.49072 0
M  V30 3142 S 297.199 3.4258 -4.11581 0
M  V30 3143 C 298.355 4.82867 -3.98233 0
M  V30 3144 H 298.588 1.72538 -2.42111 0
M  V30 3145 H 296.121 0.796683 -1.32259 0
M  V30 3146 H 298.079 3.91722 -1.22737 0
M  V30 3147 H 296.74 3.11855 -0.374885 0
M  V30 3148 H 295.933 4.4643 -2.33915 0
M  V30 3149 H 295.535 2.74253 -2.54286 0
M  V30 3150 H 297.827 5.7234 -3.62537 0
M  V30 3151 H 298.77 5.0308 -4.98313 0
M  V30 3152 H 299.178 4.57908 -3.30121 0
M  V30 3153 N 298.576 1.31904 0.862503 0
M  V30 3154 C 299.506 1.22782 1.98612 0
M  V30 3155 C 300.487 0.113362 1.69722 0
M  V30 3156 O 301.672 0.299218 1.91881 0
M  V30 3157 C 298.802 0.942058 3.34279 0
M  V30 3158 C 297.756 2.0169 3.77499 0
M  V30 3159 C 297.082 1.58369 5.10709 0
M  V30 3160 C 298.382 3.43096 3.93805 0
M  V30 3161 H 300.076 2.16788 2.06502 0
M  V30 3162 H 297.622 1.04366 0.992154 0
M  V30 3163 H 299.575 0.864818 4.1243 0
M  V30 3164 H 298.299 -0.0336603 3.26583 0
M  V30 3165 H 296.958 2.08416 3.01593 0
M  V30 3166 H 296.606 0.595628 4.99461 0
M  V30 3167 H 296.306 2.30279 5.40597 0
M  V30 3168 H 297.83 1.52067 5.91361 0
M  V30 3169 H 299.244 3.39003 4.62331 0
M  V30 3170 H 297.641 4.13288 4.35101 0
M  V30 3171 H 298.711 3.83334 2.96957 0
M  V30 3172 N 300.054 -1.07777 1.14986 0
M  V30 3173 C 301.302 -1.79934 0.920235 0
M  V30 3174 C 301.623 -1.86955 -0.554336 0
M  V30 3175 O 300.893 -1.36731 -1.40291 0
M  V30 3176 H 299.473 -0.666424 0.337473 0
M  V30 3177 H 302.135 -1.3027 1.44968 0
M  V30 3178 H 301.231 -2.82539 1.32583 0
M  V30 3179 N 301.532 -0.945985 -1.26051 0
M  V30 3180 C 302.757 -0.612525 -1.98149 0
M  V30 3181 C 303.182 0.806623 -1.69927 0
M  V30 3182 O 302.54 1.54411 -0.950108 0
M  V30 3183 C 302.588 -0.866981 -3.50023 0
M  V30 3184 O 301.692 0.0585333 -4.12358 0
M  V30 3185 H 301.033 -0.23379 -0.621481 0
M  V30 3186 H 303.563 -1.27023 -1.60395 0
M  V30 3187 H 303.573 -0.789792 -4.00283 0
M  V30 3188 H 302.248 -1.90135 -3.69894 0
M  V30 3189 H 300.825 -0.0701241 -3.72834 0
M  V30 3190 N 303.011 1.40521 -0.713556 0
M  V30 3191 C 304.259 2.00527 -0.251692 0
M  V30 3192 C 304.58 1.56857 1.15848 0
M  V30 3193 O 303.85 0.807127 1.785 0
M  V30 3194 H 302.43 0.741551 -0.0900646 0
M  V30 3195 H 305.092 1.71887 -0.918733 0
M  V30 3196 H 304.188 3.10813 -0.283192 0
M  V30 3197 O 304.528 0.601524 1.4988 0
M  V30 3198 H 305.219 0.111623 1.93378 0
M  V30 END ATOM
M  V30 BEGIN BOND
M  V30 END BOND
M  V30 END CTAB
M  END
$$$$
