drugbank_target|Q6NXR0 Interferon-inducible GTPase 5 (DB03814; DB04315)
 OpenBabel12092120563D

  0  0  0     0  0            999 V3000
M  V30 BEGIN CTAB
M  V30 COUNTS 7073 7138 0 0 0
M  V30 BEGIN ATOM
M  V30 1 H -0.908 1.98254 -0.117106 0
M  V30 2 N 0 1.576 0 0
M  V30 3 C 0.933 2.03868 1.02534 0
M  V30 4 C 1.911 0.928543 1.3348 0
M  V30 5 O 3.095 1.19667 1.45644 0
M  V30 6 C 0.222 2.43627 2.35294 0
M  V30 7 C -0.732 3.65373 2.2001 0
M  V30 8 S 0.101 5.13292 1.52614 0
M  V30 9 C 1.257 5.56322 2.86805 0
M  V30 10 H 1.49 2.90518 0.631377 0
M  V30 11 H -0.977 1.52953 0.210867 0
M  V30 12 H 0.981 2.67203 3.11629 0
M  V30 13 H -0.358 1.57376 2.7183 0
M  V30 14 H -1.165 3.90944 3.18086 0
M  V30 15 H -1.563 3.418 1.51819 0
M  V30 16 H 0.729 5.58782 3.83104 0
M  V30 17 H 1.672 6.56266 2.65933 0
M  V30 18 H 2.08 4.83886 2.90714 0
M  V30 19 N 1.4781 -0.272755 1.55222 0
M  V30 20 C 2.4411 -1.32041 1.87344 0
M  V30 21 C 3.4411 -1.42342 0.74803 0
M  V30 22 O 4.6311 -1.41488 1.0162 0
M  V30 23 C 1.7631 -2.70173 2.07893 0
M  V30 24 H 2.9561 -1.04789 2.80997 0
M  V30 25 H 0.5091 -0.51083 1.47717 0
M  V30 26 H 1.2441 -3.02605 1.16622 0
M  V30 27 H 1.0291 -2.64082 2.89833 0
M  V30 28 H 2.5191 -3.45869 2.34017 0
M  V30 29 N 2.9562 -1.48159 -0.537278 0
M  V30 30 C 4.1842 -1.59454 -1.31841 0
M  V30 31 C 4.5992 -0.252065 -1.8711 0
M  V30 32 O 3.9562 0.757621 -1.66031 0
M  V30 33 C 4.0072 -2.63546 -2.47439 0
M  V30 34 O 3.7282 -3.92583 -1.94449 0
M  V30 35 C 5.2292 -2.85212 -3.39366 0
M  V30 36 H 2.4492 -0.53785 -0.401196 0
M  V30 37 H 4.9932 -1.93932 -0.648891 0
M  V30 38 H 3.1482 -2.31946 -3.1029 0
M  V30 39 H 3.5622 -4.49629 -2.70063 0
M  V30 40 H 5.0362 -3.61863 -4.16844 0
M  V30 41 H 5.5132 -1.93765 -3.94147 0
M  V30 42 H 6.1192 -3.18086 -2.82314 0
M  V30 43 N 4.4343 0.785586 -1.36625 0
M  V30 44 C 5.6593 1.57963 -1.34397 0
M  V30 45 C 6.0843 1.87964 0.071526 0
M  V30 46 O 5.4423 1.48182 1.0446 0
M  V30 47 C 5.4903 2.87511 -2.17646 0
M  V30 48 O 4.5943 3.81281 -1.57158 0
M  V30 49 H 3.9353 0.479014 -0.459828 0
M  V30 50 H 6.4653 0.973411 -1.79961 0
M  V30 51 H 6.4753 3.36745 -2.30362 0
M  V30 52 H 5.1503 2.65002 -3.20541 0
M  V30 53 H 3.7273 3.39885 -1.53403 0
M  V30 54 N 5.9124 1.20967 1.01018 0
M  V30 55 C 6.8594 0.964281 2.09691 0
M  V30 56 C 7.8294 -0.107853 1.65749 0
M  V30 57 O 9.0144 0.0381987 1.90762 0
M  V30 58 C 6.1544 0.52943 3.41015 0
M  V30 59 C 5.2674 1.67043 3.98398 0
M  V30 60 C 4.4024 1.18525 5.17808 0
M  V30 61 C 3.4414 2.29892 5.67288 0
M  V30 62 N 2.5784 1.82546 6.77954 0
M  V30 63 H 7.4184 1.89463 2.30017 0
M  V30 64 H 4.9554 0.944289 1.1279 0
M  V30 65 H 6.9134 0.258588 4.16398 0
M  V30 66 H 5.5434 -0.363919 3.20742 0
M  V30 67 H 4.5954 2.05603 3.20049 0
M  V30 68 H 5.9074 2.50877 4.31117 0
M  V30 69 H 5.0614 0.870762 6.00419 0
M  V30 70 H 3.8004 0.316887 4.86669 0
M  V30 71 H 2.8054 2.6215 4.83278 0
M  V30 72 H 4.0304 3.17216 6.00459 0
M  V30 73 H 1.9764 0.980454 6.48632 0
M  V30 74 H 1.8934 2.59956 7.09901 0
M  V30 75 H 3.1614 1.54115 7.64113 0
M  V30 76 N 7.3905 -1.2043 1.01659 0
M  V30 77 C 8.3205 -2.25466 0.607226 0
M  V30 78 C 9.3015 -1.65853 -0.377716 0
M  V30 79 O 10.4865 -1.92409 -0.263149 0
M  V30 80 C 7.6165 -3.47256 -0.0552949 0
M  V30 81 C 6.5705 -4.19462 0.850632 0
M  V30 82 C 5.8965 -5.34673 0.0538859 0
M  V30 83 C 7.1965 -4.75603 2.15868 0
M  V30 84 H 8.8905 -2.59962 1.48526 0
M  V30 85 H 6.4365 -1.2496 0.715605 0
M  V30 86 H 8.3895 -4.19917 -0.353233 0
M  V30 87 H 7.1135 -3.11924 -0.968045 0
M  V30 88 H 5.7725 -3.48667 1.13257 0
M  V30 89 H 5.4205 -4.95585 -0.860514 0
M  V30 90 H 5.1205 -5.83913 0.657192 0
M  V30 91 H 6.6445 -6.10138 -0.237598 0
M  V30 92 H 8.0585 -5.40083 1.92311 0
M  V30 93 H 6.4555 -5.3528 2.71284 0
M  V30 94 H 7.5255 -3.94346 2.82169 0
M  V30 95 N 8.8686 -0.792821 -1.36206 0
M  V30 96 C 10.2796 -0.429513 -1.81692 0
M  V30 97 C 10.6306 1.04695 -1.65932 0
M  V30 98 O 9.7556 1.81256 -1.18218 0
M  V30 99 C 10.3506 -0.772831 -3.29868 0
M  V30 100 C 8.9096 -0.462307 -3.7355 0
M  V30 101 C 8.0566 -1.00569 -2.5842 0
M  V30 102 H 11.0076 -0.985672 -1.24379 0
M  V30 103 H 11.0286 -0.0651928 -3.80444 0
M  V30 104 H 10.5406 -1.84747 -3.41307 0
M  V30 105 H 8.6416 0.604158 -3.67669 0
M  V30 106 H 8.7546 -0.985299 -4.68859 0
M  V30 107 H 7.1186 -0.428734 -2.51066 0
M  V30 108 H 7.9016 -2.08616 -2.72643 0
M  V30 109 N 10.3467 1.47872 -0.545128 0
M  V30 110 C 11.5927 2.02793 -0.0166104 0
M  V30 111 C 11.9257 1.41987 1.32489 0
M  V30 112 O 11.2007 0.571045 1.85928 0
M  V30 113 C 11.4837 3.59989 0.0893294 0
M  V30 114 C 11.3367 4.3125 -1.27841 0
M  V30 115 C 12.6557 4.32606 0.808724 0
M  V30 116 H 9.7747 0.736962 -0.00751035 0
M  V30 117 H 12.4167 1.76433 -0.705085 0
M  V30 118 H 10.5667 3.82579 0.675681 0
M  V30 119 H 12.2387 4.20035 -1.90704 0
M  V30 120 H 10.4817 3.92076 -1.85632 0
M  V30 121 H 11.1527 5.39736 -1.15713 0
M  V30 122 H 13.6287 4.14936 0.310992 0
M  V30 123 H 12.5047 5.42251 0.851782 0
M  V30 124 H 12.7657 4.00963 1.86229 0
M  V30 125 N 11.8248 0.280983 1.55075 0
M  V30 126 C 13.0708 -0.33461 2.00021 0
M  V30 127 C 13.4038 -1.55063 1.16915 0
M  V30 128 O 12.6788 -1.93006 0.240646 0
M  V30 129 C 12.9618 -0.711007 3.53011 0
M  V30 130 C 12.8148 0.512766 4.46868 0
M  V30 131 C 14.1338 -1.54522 4.12081 0
M  V30 132 H 11.2528 -0.120147 0.727141 0
M  V30 133 H 13.8948 0.389097 1.85973 0
M  V30 134 H 12.0448 -1.32761 3.65112 0
M  V30 135 H 13.7168 1.15131 4.46702 0
M  V30 136 H 11.9598 1.14975 4.18286 0
M  V30 137 H 12.6308 0.205556 5.51617 0
M  V30 138 H 15.1068 -1.02442 4.03293 0
M  V30 139 H 13.9828 -1.77739 5.19327 0
M  V30 140 H 14.2438 -2.52813 3.62682 0
M  V30 141 N 13.3029 -1.57598 0.00835791 0
M  V30 142 C 14.7139 -1.7892 -0.53333 0
M  V30 143 C 15.0649 -0.916609 -1.73473 0
M  V30 144 O 14.1899 -0.121336 -2.1606 0
M  V30 145 C 14.7849 -3.24488 -0.974313 0
M  V30 146 C 13.3439 -3.46878 -1.46125 0
M  V30 147 C 12.4909 -2.74157 -0.416302 0
M  V30 148 H 15.4419 -1.56958 0.234495 0
M  V30 149 H 15.4629 -3.3306 -1.83988 0
M  V30 150 H 14.9749 -3.87972 -0.099718 0
M  V30 151 H 13.0759 -2.8862 -2.35646 0
M  V30 152 H 13.1889 -4.55572 -1.48295 0
M  V30 153 H 11.5529 -2.39022 -0.87981 0
M  V30 154 H 12.3359 -3.40345 0.44947 0
M  V30 155 N 14.781 0.264519 -1.55364 0
M  V30 156 C 16.029 0.993021 -1.76021 0
M  V30 157 C 16.35 1.86511 -0.569099 0
M  V30 158 O 15.62 1.91438 0.415735 0
M  V30 159 H 14.2 0.369639 -0.649135 0
M  V30 160 H 16.862 0.286707 -1.9278 0
M  V30 161 H 15.958 1.62502 -2.66457 0
M  V30 162 N 16.2591 1.48442 0.529413 0
M  V30 163 C 17.1691 1.6569 1.66084 0
M  V30 164 C 18.1851 0.539432 1.65427 0
M  V30 165 O 19.3611 0.810572 1.84368 0
M  V30 166 C 16.4261 1.69315 3.02545 0
M  V30 167 C 15.4871 2.92694 3.14052 0
M  V30 168 C 14.7201 2.96137 4.44003 0
M  V30 169 O 14.9431 2.07973 5.31134 0
M  V30 170 O 13.8771 3.88312 4.59888 0
M  V30 171 H 17.7031 2.61483 1.54469 0
M  V30 172 H 15.2881 1.3185 0.702567 0
M  V30 173 H 17.1701 1.74217 3.83701 0
M  V30 174 H 15.8451 0.766966 3.14483 0
M  V30 175 H 14.7521 2.93324 2.32189 0
M  V30 176 H 16.0851 3.84699 3.0703 0
M  V30 177 N 17.7372 -0.778329 1.37039 0
M  V30 178 C 18.6472 -1.92253 1.34446 0
M  V30 179 C 19.6632 -1.72267 0.244991 0
M  V30 180 O 20.8392 -1.95615 0.479258 0
M  V30 181 C 17.9042 -3.27282 1.144 0
M  V30 182 C 16.9652 -3.59969 2.33925 0
M  V30 183 C 16.1982 -4.88555 2.14825 0
M  V30 184 O 16.4212 -5.59113 1.12912 0
M  V30 185 O 15.3552 -5.20153 3.02861 0
M  V30 186 H 19.1812 -1.97392 2.30803 0
M  V30 187 H 16.7662 -0.920154 1.17701 0
M  V30 188 H 18.6482 -4.08062 1.05182 0
M  V30 189 H 17.3232 -3.23011 0.211124 0
M  V30 190 H 16.2302 -2.7945 2.48714 0
M  V30 191 H 17.5632 -3.68976 3.25757 0
M  V30 192 N 19.2153 -1.21501 -1.00376 0
M  V30 193 C 20.1253 -0.991447 -2.12621 0
M  V30 194 C 21.1413 0.0568446 -1.73907 0
M  V30 195 O 22.3173 -0.13348 -2.00957 0
M  V30 196 C 19.3823 -0.560312 -3.42142 0
M  V30 197 C 18.4433 -1.68096 -3.95022 0
M  V30 198 C 17.6763 -1.2703 -5.18362 0
M  V30 199 O 17.8993 -0.144438 -5.70217 0
M  V30 200 O 16.8333 -2.08269 -5.64719 0
M  V30 201 H 20.6593 -1.93158 -2.34358 0
M  V30 202 H 18.2443 -0.999999 -1.10997 0
M  V30 203 H 20.1263 -0.329724 -4.20108 0
M  V30 204 H 18.8013 0.351089 -3.2179 0
M  V30 205 H 17.7083 -1.96597 -3.18278 0
M  V30 206 H 19.0413 -2.56983 -4.19786 0
M  V30 207 N 20.6934 1.19889 -1.02296 0
M  V30 208 C 21.6414 2.24938 -0.592081 0
M  V30 209 C 22.6354 1.65257 0.372357 0
M  V30 210 O 23.8414 1.78371 0.241583 0
M  V30 211 H 20.2164 0.731787 -0.173182 0
M  V30 212 H 22.1874 2.58603 -1.48885 0
M  V30 213 C 20.9364 3.47668 0.047351 0
M  V30 214 H 20.2594 3.93875 -0.685772 0
M  V30 215 H 21.6994 4.22852 0.311862 0
M  V30 216 C 20.1584 3.11136 1.29212 0
M  V30 217 O 20.6884 3.2325 2.38479 0
M  V30 218 N 18.8944 2.65625 1.17863 0
M  V30 219 H 18.4414 2.55968 0.289493 0
M  V30 220 H 18.3994 2.41553 2.01245 0
M  V30 221 N 22.1715 0.800033 1.35784 0
M  V30 222 C 23.3995 0.389606 2.03199 0
M  V30 223 C 23.8145 -0.997375 1.60306 0
M  V30 224 O 23.1715 -1.64154 0.797481 0
M  V30 225 C 23.2225 0.455855 3.58614 0
M  V30 226 O 22.9435 1.78815 3.99946 0
M  V30 227 C 24.4445 0.0374032 4.43284 0
M  V30 228 H 21.6645 0.159132 0.651857 0
M  V30 229 H 24.2085 1.08183 1.73541 0
M  V30 230 H 22.3635 -0.188057 3.86943 0
M  V30 231 H 22.7775 1.74636 4.94573 0
M  V30 232 H 24.2515 0.134882 5.51835 0
M  V30 233 H 24.7285 -1.01651 4.27275 0
M  V30 234 H 25.3345 0.654215 4.20238 0
M  V30 235 N 23.6496 -1.47581 0.552962 0
M  V30 236 C 24.8986 -2.01684 0.0251995 0
M  V30 237 C 25.2116 -1.43317 -1.33115 0
M  V30 238 O 26.4176 -1.89057 -1.94858 0
M  V30 239 C 24.8736 -3.599 -0.00542052 0
M  V30 240 C 24.4816 -4.27257 1.34742 0
M  V30 241 C 26.2256 -4.21768 -0.4808 0
M  V30 242 C 24.1326 -5.77467 1.27614 0
M  V30 243 H 23.0626 -0.753979 0.00565033 0
M  V30 244 H 25.7136 -1.69616 0.70018 0
M  V30 245 H 24.0956 -3.88911 -0.745961 0
M  V30 246 H 25.2696 -4.09893 2.10534 0
M  V30 247 H 23.5846 -3.77358 1.76039 0
M  V30 248 H 26.1816 -5.31838 -0.55246 0
M  V30 249 H 26.5246 -3.88651 -1.49184 0
M  V30 250 H 27.0576 -3.97273 0.204752 0
M  V30 251 H 23.7966 -6.15196 2.26304 0
M  V30 252 H 23.3166 -5.9718 0.55996 0
M  V30 253 H 24.9956 -6.3959 0.976421 0
M  V30 254 N 25.1277 -0.289203 -1.54924 0
M  V30 255 C 26.0577 0.58549 -2.2604 0
M  V30 256 C 27.0387 1.14753 -1.25562 0
M  V30 257 O 28.2237 1.17906 -1.54311 0
M  V30 258 C 25.3537 1.76305 -2.99222 0
M  V30 259 C 24.3077 1.33191 -4.06748 0
M  V30 260 C 23.6337 2.5937 -4.6758 0
M  V30 261 C 24.9337 0.471775 -5.20165 0
M  V30 262 H 26.6277 -0.00763532 -2.99399 0
M  V30 263 H 24.1737 -0.00511229 -1.43999 0
M  V30 264 H 26.1267 2.38097 -3.47689 0
M  V30 265 H 24.8507 2.38223 -2.23422 0
M  V30 266 H 23.5097 0.737121 -3.59113 0
M  V30 267 H 23.1577 3.19576 -3.88433 0
M  V30 268 H 22.8577 2.31228 -5.40192 0
M  V30 269 H 24.3817 3.21985 -5.18804 0
M  V30 270 H 25.7957 0.995056 -5.64599 0
M  V30 271 H 24.1927 0.284639 -5.99425 0
M  V30 272 H 25.2627 -0.506041 -4.82252 0
M  V30 273 N 26.6058 1.57591 -0.0167156 0
M  V30 274 C 27.5388 2.04944 1.00366 0
M  V30 275 C 28.5168 0.942648 1.32487 0
M  V30 276 O 29.7008 1.21205 1.44367 0
M  V30 277 C 26.8278 2.46109 2.32697 0
M  V30 278 C 25.8738 3.67686 2.16123 0
M  V30 279 S 26.7068 5.14882 1.47161 0
M  V30 280 C 27.8628 5.59332 2.80888 0
M  V30 281 H 28.0958 2.91172 0.600528 0
M  V30 282 H 25.6288 1.53168 0.194632 0
M  V30 283 H 27.5868 2.70493 3.08778 0
M  V30 284 H 26.2478 1.6025 2.70146 0
M  V30 285 H 25.4408 3.94296 3.13922 0
M  V30 286 H 25.0428 3.43391 1.48185 0
M  V30 287 H 27.3348 5.62814 3.77156 0
M  V30 288 H 28.2778 6.5905 2.58958 0
M  V30 289 H 28.6858 4.86942 2.85565 0
M  V30 290 N 28.0839 -0.256276 1.55502 0
M  V30 291 C 29.0469 -1.30047 1.88734 0
M  V30 292 C 30.0469 -1.4154 0.763086 0
M  V30 293 O 31.2369 -1.40403 1.03115 0
M  V30 294 C 28.3689 -2.67953 2.10747 0
M  V30 295 H 29.5619 -1.01802 2.82093 0
M  V30 296 H 27.1149 -0.495134 1.4825 0
M  V30 297 H 27.8499 -3.01351 1.19825 0
M  V30 298 H 27.6349 -2.60993 2.92617 0
M  V30 299 H 29.1249 -3.43368 2.37673 0
M  V30 300 N 29.562 -1.4872 -0.521534 0
M  V30 301 C 30.509 -1.63871 -1.62527 0
M  V30 302 C 31.479 -0.480559 -1.58996 0
M  V30 303 O 32.664 -0.705085 -1.77294 0
M  V30 304 C 29.804 -1.69227 -3.00759 0
M  V30 305 C 28.917 -2.96207 -3.14461 0
M  V30 306 C 28.052 -2.92671 -4.43303 0
M  V30 307 C 27.091 -4.14318 -4.50563 0
M  V30 308 N 26.228 -4.0881 -5.70805 0
M  V30 309 H 31.068 -2.58123 -1.48918 0
M  V30 310 H 28.605 -1.28 -0.724878 0
M  V30 311 H 30.563 -1.70314 -3.80853 0
M  V30 312 H 29.193 -0.784586 -3.1312 0
M  V30 313 H 28.245 -3.04826 -2.27564 0
M  V30 314 H 29.557 -3.86192 -3.15686 0
M  V30 315 H 28.711 -2.92206 -5.31696 0
M  V30 316 H 27.45 -2.00429 -4.44612 0
M  V30 317 H 26.455 -4.15049 -3.60575 0
M  V30 318 H 27.68 -5.07729 -4.50986 0
M  V30 319 H 25.626 -3.19394 -5.72995 0
M  V30 320 H 25.543 -4.92509 -5.7356 0
M  V30 321 H 26.811 -4.12418 -6.61462 0
M  V30 322 N 31.0401 0.771051 -1.3745 0
M  V30 323 C 31.9501 1.91538 -1.35464 0
M  V30 324 C 32.9661 1.72134 -0.254123 0
M  V30 325 O 34.1421 1.95358 -0.489626 0
M  V30 326 C 31.2071 3.26671 -1.16134 0
M  V30 327 C 30.2681 3.58723 -2.35831 0
M  V30 328 C 29.5011 4.87409 -2.17413 0
M  V30 329 O 29.7241 5.58506 -1.15876 0
M  V30 330 O 28.6581 5.18539 -3.05615 0
M  V30 331 H 32.4841 1.96165 -2.31847 0
M  V30 332 H 30.0691 0.9139 -1.18187 0
M  V30 333 H 31.9511 4.07499 -1.07345 0
M  V30 334 H 30.6261 3.22894 -0.228251 0
M  V30 335 H 29.5331 2.78127 -2.50192 0
M  V30 336 H 30.8661 3.67243 -3.27709 0
M  V30 337 N 32.5182 1.22032 0.997298 0
M  V30 338 C 33.9342 0.979326 1.26021 0
M  V30 339 C 34.1342 -0.32972 1.98784 0
M  V30 340 O 33.1902 -1.05345 2.29475 0
M  V30 341 C 34.5032 2.17509 2.07631 0
M  V30 342 C 36.0512 2.21817 2.2083 0
M  V30 343 C 36.5262 3.40933 3.05825 0
M  V30 344 N 38.0172 3.41067 3.13412 0
M  V30 345 C 38.7522 4.29885 3.79455 0
M  V30 346 N 38.2482 5.28914 4.47462 0
M  V30 347 N 40.0412 4.17673 3.76173 0
M  V30 348 H 32.1922 2.06202 0.509352 0
M  V30 349 H 34.4552 0.90334 0.287541 0
M  V30 350 H 34.1612 3.12415 1.61524 0
M  V30 351 H 34.0352 2.17206 3.08385 0
M  V30 352 H 36.4222 1.27462 2.66153 0
M  V30 353 H 36.5032 2.2616 1.1952 0
M  V30 354 H 36.1472 4.35586 2.61203 0
M  V30 355 H 36.0772 3.33829 4.07266 0
M  V30 356 H 38.5682 2.69406 2.65007 0
M  V30 357 H 38.8812 5.92973 4.95583 0
M  V30 358 H 37.2262 5.32831 4.46224 0
M  V30 359 H 40.4172 3.39564 3.22202 0
M  V30 360 H 40.5902 4.87098 4.27363 0
M  V30 361 N 33.9963 -1.19345 1.0293 0
M  V30 362 C 34.9263 -2.2481 0.631105 0
M  V30 363 C 35.9073 -1.66245 -0.360104 0
M  V30 364 O 37.0923 -1.92677 -0.242726 0
M  V30 365 C 34.2223 -3.47295 -0.0184607 0
M  V30 366 C 33.1763 -4.18536 0.895073 0
M  V30 367 C 32.5023 -5.34586 0.110592 0
M  V30 368 C 33.8023 -4.73287 2.209 0
M  V30 369 H 35.4963 -2.58372 1.51275 0
M  V30 370 H 33.0423 -1.24194 0.728818 0
M  V30 371 H 34.9953 -4.20268 -0.308675 0
M  V30 372 H 33.7193 -3.12933 -0.934907 0
M  V30 373 H 32.3783 -3.47446 1.16949 0
M  V30 374 H 32.0263 -4.96469 -0.807902 0
M  V30 375 H 31.7263 -5.83183 0.719087 0
M  V30 376 H 33.2503 -6.10355 -0.172871 0
M  V30 377 H 34.6643 -5.38013 1.98028 0
M  V30 378 H 33.0613 -5.32373 2.76946 0
M  V30 379 H 34.1313 -3.91331 2.86336 0
M  V30 380 N 35.4744 -0.807222 -1.35358 0
M  V30 381 C 36.3844 -0.219594 -2.3357 0
M  V30 382 C 37.4004 0.637734 -1.61892 0
M  V30 383 O 38.5764 0.549336 -1.93763 0
M  V30 384 C 35.6414 0.62158 -3.41083 0
M  V30 385 C 34.7024 -0.256315 -4.28534 0
M  V30 386 C 33.9354 0.544807 -5.30912 0
M  V30 387 O 34.1584 1.77944 -5.41934 0
M  V30 388 O 33.0924 -0.0646478 -6.01865 0
M  V30 389 H 36.9184 -1.03208 -2.85625 0
M  V30 390 H 34.5034 -0.569025 -1.38139 0
M  V30 391 H 36.3854 1.10067 -4.06772 0
M  V30 392 H 35.0604 1.41165 -2.91297 0
M  V30 393 H 33.9674 -0.782559 -3.65823 0
M  V30 394 H 35.3004 -1.01034 -4.81719 0
M  V30 395 N 36.9525 1.47285 -0.560781 0
M  V30 396 C 37.9155 2.28535 0.174488 0
M  V30 397 C 38.9155 1.37153 0.839388 0
M  V30 398 O 40.1055 1.59748 0.694702 0
M  V30 399 C 37.2375 3.16934 1.25561 0
M  V30 400 H 38.4305 2.95012 -0.539262 0
M  V30 401 H 35.9835 1.53034 -0.317865 0
M  V30 402 H 36.7185 2.55157 2.00164 0
M  V30 403 H 36.5035 3.8419 0.783604 0
M  V30 404 H 37.9935 3.78143 1.77193 0
M  V30 405 N 38.4306 0.297415 1.54768 0
M  V30 406 C 39.3606 -0.573494 2.26348 0
M  V30 407 C 40.3416 -1.14085 1.26169 0
M  V30 408 O 41.5266 -1.17086 1.54934 0
M  V30 409 C 38.6566 -1.74716 3.00153 0
M  V30 410 C 37.6106 -1.31032 4.07449 0
M  V30 411 C 36.9366 -2.56887 4.68949 0
M  V30 412 C 38.2366 -0.444183 5.20408 0
M  V30 413 H 39.9306 0.0235131 2.99391 0
M  V30 414 H 37.4766 0.0127488 1.43994 0
M  V30 415 H 39.4296 -2.3625 3.48947 0
M  V30 416 H 38.1536 -2.37035 2.24682 0
M  V30 417 H 36.8126 -0.718066 3.59499 0
M  V30 418 H 36.4606 -3.17512 3.90122 0
M  V30 419 H 36.1606 -2.2836 5.41411 0
M  V30 420 H 37.6846 -3.19229 5.20505 0
M  V30 421 H 39.0986 -0.9651 5.65118 0
M  V30 422 H 37.4956 -0.252846 5.99567 0
M  V30 423 H 38.5656 0.531609 4.81977 0
M  V30 424 N 39.9087 -1.5758 0.0250728 0
M  V30 425 C 41.3247 -1.56124 -0.331282 0
M  V30 426 C 41.5247 -1.03029 -1.73169 0
M  V30 427 O 40.5807 -0.675215 -2.43305 0
M  V30 428 C 41.8937 -3.00139 -0.183584 0
M  V30 429 C 43.4417 -3.11946 -0.256654 0
M  V30 430 C 43.9167 -4.57793 -0.137792 0
M  V30 431 N 45.4077 -4.6279 -0.194904 0
M  V30 432 C 46.1427 -5.7326 -0.126655 0
M  V30 433 N 45.6387 -6.928 -0.00755288 0
M  V30 434 N 47.4317 -5.61811 -0.180348 0
M  V30 435 H 39.5827 -1.90424 0.94087 0
M  V30 436 H 41.8457 -0.875761 0.362968 0
M  V30 437 H 41.5517 -3.4292 0.780927 0
M  V30 438 H 41.4257 -3.64899 -0.955448 0
M  V30 439 H 43.8127 -2.69079 -1.21162 0
M  V30 440 H 43.8937 -2.49915 0.545517 0
M  V30 441 H 43.5377 -5.01339 0.813739 0
M  V30 442 H 43.4677 -5.17798 -0.958775 0
M  V30 443 H 45.9587 -3.76807 -0.287267 0
M  V30 444 H 46.2717 -7.72791 0.0379428 0
M  V30 445 H 44.6167 -6.94995 0.0271731 0
M  V30 446 H 47.8077 -4.6731 -0.271767 0
M  V30 447 H 47.9807 -6.47882 -0.123697 0
M  V30 448 N 41.3868 0.248026 -1.55636 0
M  V30 449 C 42.6148 0.993808 -1.81469 0
M  V30 450 C 43.0298 1.78991 -0.60064 0
M  V30 451 O 42.3868 1.77345 0.430682 0
M  V30 452 C 42.4378 1.93258 -3.05506 0
M  V30 453 O 42.1588 1.16869 -4.22224 0
M  V30 454 C 43.6598 2.79444 -3.4413 0
M  V30 455 H 40.8798 0.292486 -0.603898 0
M  V30 456 H 43.4238 0.271253 -2.02693 0
M  V30 457 H 41.5788 2.60943 -2.86335 0
M  V30 458 H 41.9928 1.80359 -4.92515 0
M  V30 459 H 43.4668 3.41066 -4.34026 0
M  V30 460 H 43.9438 3.50499 -2.64665 0
M  V30 461 H 44.5498 2.17214 -3.65648 0
M  V30 462 N 42.8649 1.48995 0.513639 0
M  V30 463 C 43.8279 1.64229 1.59879 0
M  V30 464 C 44.8279 0.514696 1.5234 0
M  V30 465 O 46.0179 0.78087 1.55718 0
M  V30 466 C 43.1499 1.62783 2.99524 0
M  V30 467 H 44.3429 2.61004 1.47705 0
M  V30 468 H 41.8959 1.37837 0.736936 0
M  V30 469 H 42.6309 0.675461 3.17188 0
M  V30 470 H 42.4159 2.4466 3.06404 0
M  V30 471 H 43.9059 1.76669 3.78388 0
M  V30 472 N 44.343 -0.763751 1.37857 0
M  V30 473 C 45.59 -1.52257 1.33506 0
M  V30 474 C 45.918 -1.94343 -0.078022 0
M  V30 475 O 45.173 -1.64958 -1.05297 0
M  V30 476 C 45.472 -2.79499 2.22745 0
M  V30 477 C 45.138 -2.56426 3.70886 0
M  V30 478 C 43.8 -2.49842 4.11257 0
M  V30 479 C 46.152 -2.36008 4.64704 0
M  V30 480 C 43.48 -2.20841 5.43549 0
M  V30 481 C 45.832 -2.0853 5.97242 0
M  V30 482 C 44.496 -2.00396 6.36709 0
M  V30 483 H 43.766 -0.557149 0.488534 0
M  V30 484 H 46.413 -0.879073 1.70131 0
M  V30 485 H 44.718 -3.48447 1.79142 0
M  V30 486 H 46.415 -3.37413 2.16688 0
M  V30 487 H 43.005 -2.62416 3.38874 0
M  V30 488 H 47.189 -2.40079 4.34368 0
M  V30 489 H 42.445 -2.13045 5.73081 0
M  V30 490 H 46.619 -1.91732 6.69486 0
M  V30 491 H 44.246 -1.77688 7.39142 0
M  V30 492 N 45.8211 -1.22559 -0.990812 0
M  V30 493 C 46.7311 -1.01394 -2.11557 0
M  V30 494 C 47.7471 0.0383962 -1.73958 0
M  V30 495 O 48.9231 -0.154787 -2.00804 0
M  V30 496 C 45.9881 -0.596569 -3.41529 0
M  V30 497 C 45.0491 -1.72276 -3.93217 0
M  V30 498 C 44.2821 -1.32521 -5.16985 0
M  V30 499 O 44.5051 -0.204909 -5.70032 0
M  V30 500 O 43.4391 -2.14247 -5.62478 0
M  V30 501 H 47.2651 -1.95633 -2.32296 0
M  V30 502 H 44.8501 -1.01172 -1.0993 0
M  V30 503 H 46.7321 -0.374263 -4.19735 0
M  V30 504 H 45.4071 0.316939 -3.22145 0
M  V30 505 H 44.3141 -1.99961 -3.16174 0
M  V30 506 H 45.6471 -2.61421 -4.17037 0
M  V30 507 N 47.2992 1.18797 -1.03562 0
M  V30 508 C 48.5242 1.9314 -0.755764 0
M  V30 509 C 48.9492 1.7537 0.68022 0
M  V30 510 O 48.3072 1.06046 1.47051 0
M  V30 511 C 48.3552 3.42747 -1.12058 0
M  V30 512 O 47.4592 4.11683 -0.243124 0
M  V30 513 H 46.8002 0.602724 -0.278604 0
M  V30 514 H 49.3302 1.50678 -1.3841 0
M  V30 515 H 49.3402 3.93437 -1.08035 0
M  V30 516 H 48.0152 3.55002 -2.16672 0
M  V30 517 H 46.5922 3.71323 -0.342539 0
M  V30 518 N 48.7773 0.814389 1.34928 0
M  V30 519 C 50.0253 0.397636 1.9815 0
M  V30 520 C 50.3463 -1.04069 1.64908 0
M  V30 521 O 49.6163 -1.72121 0.93548 0
M  V30 522 H 48.1963 0.144043 0.732981 0
M  V30 523 H 50.8583 1.04195 1.6471 0
M  V30 524 H 49.9543 0.509688 3.0791 0
M  V30 525 N 50.2554 -1.46986 0.568584 0
M  V30 526 C 51.5324 -1.95592 -0.0174074 0
M  V30 527 C 51.9124 -1.51124 -1.47393 0
M  V30 528 O 51.2604 -0.755329 -2.15655 0
M  V30 529 C 51.4704 -3.48719 0.139913 0
M  V30 530 C 52.8184 -4.246 0.000426376 0
M  V30 531 O 53.8424 -3.56135 0.0680316 0
M  V30 532 O 52.7014 -5.46302 -0.146988 0
M  V30 533 H 49.7954 -0.82498 -0.0577599 0
M  V30 534 H 52.3414 -1.57335 0.635909 0
M  V30 535 H 51.1134 -3.73927 1.15301 0
M  V30 536 H 50.7364 -3.93771 -0.550491 0
M  V30 537 N 51.7335 -0.305618 -1.54608 0
M  V30 538 C 52.6635 0.561482 -2.26649 0
M  V30 539 C 53.6445 1.13415 -1.26772 0
M  V30 540 O 54.8295 1.16262 -1.55553 0
M  V30 541 C 51.9595 1.73122 -3.01075 0
M  V30 542 C 50.9135 1.2887 -4.08138 0
M  V30 543 C 50.2395 2.54396 -4.70305 0
M  V30 544 C 51.5395 0.416578 -5.20636 0
M  V30 545 H 53.2335 -0.0393902 -2.99374 0
M  V30 546 H 50.7795 -0.020385 -1.43986 0
M  V30 547 H 52.7325 2.34396 -3.50195 0
M  V30 548 H 51.4565 2.3584 -2.25936 0
M  V30 549 H 50.1155 0.698991 -3.59875 0
M  V30 550 H 49.7635 3.15439 -3.918 0
M  V30 551 H 49.4635 2.25486 -5.42614 0
M  V30 552 H 50.9875 3.16464 -5.2219 0
M  V30 553 H 52.4015 0.935116 -5.65622 0
M  V30 554 H 50.7985 0.221046 -5.99693 0
M  V30 555 H 51.8685 -0.557162 -4.81688 0
M  V30 556 N 53.2116 1.57565 -0.0334293 0
M  V30 557 C 54.6226 1.79746 0.504798 0
M  V30 558 C 54.9736 0.944091 1.71992 0
M  V30 559 O 54.0986 0.155694 2.15839 0
M  V30 560 C 54.6936 3.25997 0.922567 0
M  V30 561 C 53.2526 3.49159 1.40588 0
M  V30 562 C 52.3996 2.74785 0.372633 0
M  V30 563 H 55.3506 1.56565 -0.259436 0
M  V30 564 H 55.3716 3.35945 1.78666 0
M  V30 565 H 54.8836 3.88081 0.0379825 0
M  V30 566 H 52.9846 2.92332 2.31025 0
M  V30 567 H 53.0976 4.57873 1.41028 0
M  V30 568 H 51.4616 2.40391 0.841672 0
M  V30 569 H 52.2446 3.39587 -0.503559 0
M  V30 570 N 54.6897 -0.239769 1.55765 0
M  V30 571 C 55.6217 -1.32001 1.87372 0
M  V30 572 C 56.6347 -1.43944 0.760522 0
M  V30 573 O 57.8237 -1.45167 1.0387 0
M  V30 574 C 54.9237 -2.69779 2.05115 0
M  V30 575 C 54.0967 -2.80014 3.36022 0
M  V30 576 C 53.1557 -3.98684 3.4342 0
M  V30 577 O 52.1817 -3.87877 4.16582 0
M  V30 578 N 53.3837 -5.12176 2.73232 0
M  V30 579 H 56.1487 -1.0522 2.80622 0
M  V30 580 H 53.7097 -0.429857 1.56089 0
M  V30 581 H 55.7017 -3.47517 2.07399 0
M  V30 582 H 54.2717 -2.89237 1.18577 0
M  V30 583 H 53.4917 -1.88896 3.45994 0
M  V30 584 H 54.7797 -2.83808 4.22292 0
M  V30 585 H 54.1777 -5.2385 2.13536 0
M  V30 586 H 52.7347 -5.88022 2.81199 0
M  V30 587 N 56.1678 -1.49265 -0.50573 0
M  V30 588 C 57.1308 -1.65075 -1.59006 0
M  V30 589 C 58.1308 -0.522768 -1.52065 0
M  V30 590 O 59.3208 -0.789117 -1.55302 0
M  V30 591 C 56.4528 -1.64369 -2.98656 0
M  V30 592 H 57.6458 -2.61784 -1.46319 0
M  V30 593 H 55.1988 -1.38226 -0.729616 0
M  V30 594 H 55.9338 -0.692272 -3.16825 0
M  V30 595 H 55.7188 -2.46282 -3.05103 0
M  V30 596 H 57.2088 -1.78674 -3.77446 0
M  V30 597 N 57.6459 0.756429 -1.3826 0
M  V30 598 C 58.6089 1.85176 -1.35065 0
M  V30 599 C 59.6089 1.58818 -0.251703 0
M  V30 600 O 60.7989 1.66615 -0.508433 0
M  V30 601 C 57.9309 3.22596 -1.10201 0
M  V30 602 H 59.1239 1.89417 -2.3251 0
M  V30 603 H 56.6769 0.95783 -1.23512 0
M  V30 604 H 57.4119 3.24025 -0.133504 0
M  V30 605 H 57.1969 3.43122 -1.89762 0
M  V30 606 H 58.6869 4.02673 -1.10654 0
M  V30 607 N 59.124 1.23083 0.984299 0
M  V30 608 C 60.349 1.088 1.76571 0
M  V30 609 C 60.774 -0.356657 1.84688 0
M  V30 610 O 60.132 -1.25788 1.30565 0
M  V30 611 C 60.18 1.71371 3.17277 0
M  V30 612 O 59.284 0.973213 4.00752 0
M  V30 613 H 58.625 0.381599 0.543395 0
M  V30 614 H 61.155 1.63057 1.23587 0
M  V30 615 H 61.165 1.76449 3.67872 0
M  V30 616 H 59.84 2.76493 3.10684 0
M  V30 617 H 58.417 0.999078 3.59267 0
M  V30 618 N 60.6021 -1.18246 1.0419 0
M  V30 619 C 61.5521 -2.19843 0.604392 0
M  V30 620 C 62.5361 -1.56962 -0.353814 0
M  V30 621 O 63.7281 -1.76156 -0.17267 0
M  V30 622 C 60.8571 -3.43287 -0.0298975 0
M  V30 623 C 59.9431 -4.13288 0.951531 0
M  V30 624 N 60.3341 -4.59271 2.11906 0
M  V30 625 C 58.6321 -4.39165 0.7778 0
M  V30 626 C 59.3331 -5.13173 2.73912 0
M  V30 627 N 58.3091 -5.04763 2.01779 0
M  V30 628 H 62.1111 -2.53089 1.4941 0
M  V30 629 H 59.6251 -1.34465 0.910658 0
M  V30 630 H 61.6221 -4.15334 -0.361037 0
M  V30 631 H 60.2821 -3.11537 -0.915127 0
M  V30 632 H 61.2931 -4.5368 2.49789 0
M  V30 633 H 57.9701 -4.17461 -0.0572331 0
M  V30 634 H 59.3601 -5.58947 3.72864 0
M  V30 635 N 62.0802 -0.821533 -1.34494 0
M  V30 636 C 63.0102 -0.257138 -2.3208 0
M  V30 637 C 63.9912 0.625645 -1.58176 0
M  V30 638 O 65.1762 0.552811 -1.86166 0
M  V30 639 C 62.3062 0.582958 -3.42372 0
M  V30 640 C 61.2602 -0.202571 -4.2752 0
M  V30 641 C 60.5862 0.760179 -5.29269 0
M  V30 642 C 61.8862 -1.40998 -5.02908 0
M  V30 643 H 63.5802 -1.07247 -2.79532 0
M  V30 644 H 61.1262 -0.517163 -1.34393 0
M  V30 645 H 63.0792 0.987972 -4.09655 0
M  V30 646 H 61.8032 1.43133 -2.93565 0
M  V30 647 H 60.4622 -0.588936 -3.61838 0
M  V30 648 H 60.1102 1.60447 -4.76724 0
M  V30 649 H 59.8102 0.238809 -5.87115 0
M  V30 650 H 61.3342 1.16308 -5.9942 0
M  V30 651 H 62.7482 -1.07905 -5.63054 0
M  V30 652 H 61.1452 -1.86689 -5.70322 0
M  V30 653 H 62.2152 -2.1889 -4.32684 0
M  V30 654 N 63.5583 1.46682 -0.576371 0
M  V30 655 C 64.4903 2.28341 0.198231 0
M  V30 656 C 65.5033 1.38141 0.861453 0
M  V30 657 O 66.6923 1.62797 0.732082 0
M  V30 658 C 63.7923 3.12986 1.29972 0
M  V30 659 C 62.9653 4.31271 0.729639 0
M  V30 660 C 62.0243 4.97363 1.71803 0
M  V30 661 O 61.0503 5.55156 1.25658 0
M  V30 662 N 62.2523 4.93796 3.05198 0
M  V30 663 H 65.0173 2.9546 -0.502324 0
M  V30 664 H 62.5783 1.56525 -0.413715 0
M  V30 665 H 64.5703 3.54066 1.96008 0
M  V30 666 H 63.1403 2.47984 1.90323 0
M  V30 667 H 62.3603 3.94052 -0.108012 0
M  V30 668 H 63.6483 5.07739 0.328438 0
M  V30 669 H 63.0463 4.48077 3.45317 0
M  V30 670 H 61.6033 5.38837 3.6674 0
M  V30 671 N 65.0364 0.313813 1.54444 0
M  V30 672 C 65.9464 -0.565714 2.27677 0
M  V30 673 C 66.9624 -1.13754 1.31666 0
M  V30 674 O 68.1384 -1.15959 1.64668 0
M  V30 675 C 65.2034 -1.71528 3.01296 0
M  V30 676 C 64.2644 -1.17624 4.12872 0
M  V30 677 C 63.4974 -2.27102 4.8297 0
M  V30 678 O 63.7204 -3.47256 4.52514 0
M  V30 679 O 62.6544 -1.9307 5.70094 0
M  V30 680 H 66.4804 0.0287296 3.03686 0
M  V30 681 H 64.0654 0.0798312 1.49187 0
M  V30 682 H 65.9474 -2.38476 3.4743 0
M  V30 683 H 64.6224 -2.29608 2.2817 0
M  V30 684 H 63.5294 -0.472124 3.71109 0
M  V30 685 H 64.8624 -0.640695 4.88012 0
M  V30 686 N 66.5145 -1.57545 0.0417849 0
M  V30 687 C 67.4445 -2.14009 -0.933929 0
M  V30 688 C 68.4255 -1.05938 -1.33083 0
M  V30 689 O 69.6105 -1.33833 -1.40721 0
M  V30 690 C 66.7405 -2.67747 -2.21199 0
M  V30 691 C 65.6945 -3.80718 -1.95544 0
M  V30 692 C 65.0205 -4.20935 -3.29724 0
M  V30 693 C 66.3205 -5.06258 -1.28452 0
M  V30 694 H 68.0145 -2.95788 -0.463645 0
M  V30 695 H 65.5605 -1.42285 -0.221573 0
M  V30 696 H 67.5135 -3.05886 -2.89848 0
M  V30 697 H 66.2375 -1.83147 -2.70416 0
M  V30 698 H 64.8965 -3.43037 -1.2931 0
M  V30 699 H 64.5445 -3.33298 -3.76724 0
M  V30 700 H 64.2445 -4.9707 -3.13361 0
M  V30 701 H 65.7685 -4.61666 -3.9962 0
M  V30 702 H 67.1825 -5.41903 -1.8712 0
M  V30 703 H 65.5795 -5.87475 -1.22445 0
M  V30 704 H 66.6495 -4.84207 -0.259219 0
M  V30 705 N 67.9926 0.231505 -1.5589 0
M  V30 706 C 68.9226 1.29022 -1.94617 0
M  V30 707 C 69.9036 1.4941 -0.813067 0
M  V30 708 O 71.0886 1.6176 -1.07459 0
M  V30 709 C 68.2186 2.64199 -2.25424 0
M  V30 710 C 67.1726 2.58484 -3.41131 0
M  V30 711 C 66.4986 3.97599 -3.57518 0
M  V30 712 C 67.7986 2.1413 -4.76388 0
M  V30 713 H 69.4926 0.968563 -2.83301 0
M  V30 714 H 67.0386 0.464479 -1.36303 0
M  V30 715 H 68.9916 3.38413 -2.51107 0
M  V30 716 H 67.7156 2.98032 -1.33583 0
M  V30 717 H 66.3746 1.86727 -3.15481 0
M  V30 718 H 66.0226 4.28723 -2.6307 0
M  V30 719 H 65.7226 3.94659 -4.35337 0
M  V30 720 H 67.2466 4.7349 -3.85538 0
M  V30 721 H 68.6606 2.78083 -5.01341 0
M  V30 722 H 67.0576 2.2227 -5.57419 0
M  V30 723 H 68.1276 1.09331 -4.72414 0
M  V30 724 N 69.4707 1.49531 0.497807 0
M  V30 725 C 70.4337 1.65916 1.58128 0
M  V30 726 C 71.4337 0.530825 1.51786 0
M  V30 727 O 72.6237 0.797342 1.54881 0
M  V30 728 C 69.7557 1.65951 2.9778 0
M  V30 729 H 70.9487 2.62556 1.44929 0
M  V30 730 H 68.5017 1.38611 0.722275 0
M  V30 731 H 69.2367 0.709065 3.16453 0
M  V30 732 H 69.0217 2.47897 3.03792 0
M  V30 733 H 70.5117 1.80673 3.76493 0
M  V30 734 N 70.9488 -0.749086 1.3866 0
M  V30 735 C 72.1738 -1.54344 1.38538 0
M  V30 736 C 72.5988 -1.88088 -0.0216655 0
M  V30 737 O 71.9568 -1.50899 -1.00494 0
M  V30 738 C 72.0048 -2.8164 2.25192 0
M  V30 739 O 71.1088 -3.7698 1.67212 0
M  V30 740 H 70.4498 -0.466654 0.472367 0
M  V30 741 H 72.9798 -0.925355 1.82478 0
M  V30 742 H 72.9898 -3.30519 2.3921 0
M  V30 743 H 71.6648 -2.56411 3.27454 0
M  V30 744 H 70.2418 -3.35699 1.6236 0
M  V30 745 N 72.4269 -1.23603 -0.977757 0
M  V30 746 C 73.6549 -1.09646 -1.75458 0
M  V30 747 C 74.0699 0.351859 -1.85492 0
M  V30 748 O 73.4269 1.24327 -1.336 0
M  V30 749 C 73.4779 -1.71895 -3.18016 0
M  V30 750 O 73.1989 -3.11063 -3.08498 0
M  V30 751 C 74.6999 -1.63415 -4.12081 0
M  V30 752 H 71.9199 -0.38359 -0.550545 0
M  V30 753 H 74.4639 -1.63507 -1.22824 0
M  V30 754 H 72.6189 -1.22061 -3.67668 0
M  V30 755 H 73.0329 -3.41305 -3.9826 0
M  V30 756 H 74.5069 -2.11669 -5.09804 0
M  V30 757 H 74.9839 -0.593462 -4.35172 0
M  V30 758 H 75.5899 -2.12628 -3.68334 0
M  V30 759 N 73.905 1.17692 -1.04816 0
M  V30 760 C 74.815 2.25229 -0.65643 0
M  V30 761 C 75.831 1.71018 0.320761 0
M  V30 762 O 77.007 2.00649 0.173805 0
M  V30 763 C 74.072 3.46684 -0.0332629 0
M  V30 764 C 73.133 4.15997 -1.06042 0
M  V30 765 C 72.366 5.31654 -0.466893 0
M  V30 766 O 72.589 5.65777 0.724758 0
M  V30 767 O 71.523 5.89831 -1.1993 0
M  V30 768 H 75.349 2.61016 -1.55255 0
M  V30 769 H 72.934 1.24919 -0.81949 0
M  V30 770 H 74.816 4.20234 0.313256 0
M  V30 771 H 73.491 3.12703 0.836566 0
M  V30 772 H 72.398 3.44482 -1.45886 0
M  V30 773 H 73.731 4.53996 -1.90127 0
M  V30 774 N 75.3831 0.828654 1.34056 0
M  V30 775 C 76.6081 0.431637 2.02859 0
M  V30 776 C 77.0331 -0.956339 1.61975 0
M  V30 777 O 76.3911 -1.62338 0.807228 0
M  V30 778 C 76.4391 0.548323 3.56407 0
M  V30 779 O 75.5431 -0.429556 4.10157 0
M  V30 780 H 74.8841 0.176886 0.640006 0
M  V30 781 H 77.4141 1.12066 1.71179 0
M  V30 782 H 77.4241 0.426196 4.05768 0
M  V30 783 H 76.0991 1.5606 3.8551 0
M  V30 784 H 74.6761 -0.265836 3.71951 0
M  V30 785 N 76.8612 -1.46375 0.584142 0
M  V30 786 C 78.1102 -2.01585 0.0679741 0
M  V30 787 C 78.4232 -1.46109 -1.30045 0
M  V30 788 O 79.6292 -1.93148 -1.90804 0
M  V30 789 C 78.0852 -3.5983 0.0709207 0
M  V30 790 C 77.6932 -4.24303 1.43775 0
M  V30 791 C 79.4372 -4.22693 -0.391228 0
M  V30 792 C 77.3442 -5.74631 1.39834 0
M  V30 793 H 76.2742 -0.753689 0.0216421 0
M  V30 794 H 78.9252 -1.68093 0.736001 0
M  V30 795 H 77.3072 -3.90405 -0.663299 0
M  V30 796 H 78.4812 -4.05335 2.19181 0
M  V30 797 H 76.7962 -3.73539 1.84004 0
M  V30 798 H 79.3932 -5.3289 -0.439524 0
M  V30 799 H 79.7362 -3.91728 -1.40906 0
M  V30 800 H 80.2692 -3.96749 0.288974 0
M  V30 801 H 77.0082 -6.10258 2.39303 0
M  V30 802 H 76.5282 -5.95858 0.686505 0
M  V30 803 H 78.2072 -6.37375 1.11187 0
M  V30 804 N 78.3393 -0.321999 -1.54275 0
M  V30 805 C 79.7553 0.0306999 -1.5957 0
M  V30 806 C 79.9553 1.50614 -1.33857 0
M  V30 807 O 79.0113 2.2619 -1.12223 0
M  V30 808 C 80.3243 -0.386122 -2.98211 0
M  V30 809 C 81.8723 -0.336647 -3.11184 0
M  V30 810 C 82.3473 -0.728607 -4.52167 0
M  V30 811 N 83.8383 -0.681952 -4.58152 0
M  V30 812 C 84.5733 -0.957449 -5.6535 0
M  V30 813 N 84.0693 -1.3 -6.80494 0
M  V30 814 N 85.8623 -0.883113 -5.55119 0
M  V30 815 H 78.0133 -1.28332 -1.69247 0
M  V30 816 H 80.2763 -0.521716 -0.791528 0
M  V30 817 H 79.9823 -1.41404 -3.22022 0
M  V30 818 H 79.8563 0.249662 -3.76373 0
M  V30 819 H 82.2433 0.682058 -2.8711 0
M  V30 820 H 82.3243 -1.00734 -2.3513 0
M  V30 821 H 81.9683 -1.74522 -4.76974 0
M  V30 822 H 81.8983 -0.0356152 -5.26588 0
M  V30 823 H 84.3893 -0.428985 -3.75457 0
M  V30 824 H 84.7023 -1.49563 -7.58189 0
M  V30 825 H 83.0473 -1.33824 -6.81994 0
M  V30 826 H 86.2383 -0.615001 -4.64042 0
M  V30 827 H 86.4113 -1.10118 -6.38575 0
M  V30 828 N 79.8174 1.5752 -0.0501392 0
M  V30 829 C 80.7474 2.14502 0.922566 0
M  V30 830 C 81.7284 1.06642 1.3252 0
M  V30 831 O 82.9134 1.34577 1.4001 0
M  V30 832 C 80.0434 2.68916 2.19776 0
M  V30 833 C 78.9974 3.8175 1.93523 0
M  V30 834 C 78.3234 4.22677 3.27487 0
M  V30 835 C 79.6234 5.06932 1.25765 0
M  V30 836 H 81.3174 2.9603 0.447952 0
M  V30 837 H 78.8634 1.42401 0.214024 0
M  V30 838 H 80.8164 3.07419 2.88222 0
M  V30 839 H 79.5404 1.84578 2.69441 0
M  V30 840 H 78.1994 3.43718 1.27489 0
M  V30 841 H 77.8474 3.35291 3.74952 0
M  V30 842 H 77.5474 4.98725 3.1072 0
M  V30 843 H 79.0714 4.63779 3.97166 0
M  V30 844 H 80.4854 5.42888 1.84244 0
M  V30 845 H 78.8824 5.88116 1.19328 0
M  V30 846 H 79.9524 4.84337 0.233536 0
M  V30 847 N 81.2955 -0.223234 1.56011 0
M  V30 848 C 82.2055 -1.29766 1.95443 0
M  V30 849 C 83.2215 -1.51373 0.858028 0
M  V30 850 O 84.3975 -1.64536 1.16146 0
M  V30 851 C 81.4625 -2.62772 2.26167 0
M  V30 852 C 80.5235 -2.49482 3.49367 0
M  V30 853 C 79.7565 -3.76145 3.78616 0
M  V30 854 O 79.9795 -4.79087 3.09568 0
M  V30 855 O 78.9135 -3.73358 4.72109 0
M  V30 856 H 82.7395 -0.99309 2.87004 0
M  V30 857 H 80.3245 -0.425958 1.43199 0
M  V30 858 H 82.2065 -3.41327 2.47131 0
M  V30 859 H 80.8815 -2.92913 1.37781 0
M  V30 860 H 79.7885 -1.69133 3.33684 0
M  V30 861 H 81.1215 -2.2428 4.38131 0
M  V30 862 N 82.7736 -1.49793 -0.48987 0
M  V30 863 C 84.0196 -1.60078 -1.24511 0
M  V30 864 C 84.3526 -0.291608 -1.91998 0
M  V30 865 O 83.6276 0.705647 -1.81248 0
M  V30 866 C 83.9106 -2.76791 -2.30345 0
M  V30 867 C 83.7636 -4.17535 -1.67286 0
M  V30 868 C 85.0826 -2.89111 -3.31817 0
M  V30 869 H 82.2016 -0.582645 -0.451324 0
M  V30 870 H 84.8436 -1.82117 -0.541612 0
M  V30 871 H 82.9936 -2.5813 -2.90346 0
M  V30 872 H 84.6656 -4.4774 -1.11026 0
M  V30 873 H 82.9086 -4.22665 -0.976577 0
M  V30 874 H 83.5796 -4.95094 -2.44103 0
M  V30 875 H 86.0556 -3.06133 -2.81819 0
M  V30 876 H 84.9316 -3.72433 -4.03219 0
M  V30 877 H 85.1926 -1.9893 -3.94815 0
M  V30 878 N 84.2517 0.741722 -1.39055 0
M  V30 879 C 85.4997 1.49818 -1.35643 0
M  V30 880 C 85.8207 1.94938 0.0491642 0
M  V30 881 O 85.0907 1.68505 0.999141 0
M  V30 882 H 83.6707 0.555755 -0.499144 0
M  V30 883 H 86.3327 0.880957 -1.73854 0
M  V30 884 H 85.4287 2.38348 -2.01486 0
M  V30 885 N 85.7298 1.2412 0.971189 0
M  V30 886 C 86.9758 1.08041 1.71625 0
M  V30 887 C 87.3088 -0.380407 1.90438 0
M  V30 888 O 86.5838 -1.28127 1.46334 0
M  V30 889 C 86.8668 1.81682 3.10908 0
M  V30 890 C 86.7198 3.35493 2.99608 0
M  V30 891 C 88.0388 1.58671 4.10501 0
M  V30 892 H 85.1578 0.39388 0.622919 0
M  V30 893 H 87.7998 1.52743 1.13003 0
M  V30 894 H 85.9498 1.43684 3.60953 0
M  V30 895 H 87.6218 3.83068 2.57015 0
M  V30 896 H 85.8648 3.64052 2.35899 0
M  V30 897 H 86.5358 3.82217 3.98264 0
M  V30 898 H 89.0118 1.91719 3.69301 0
M  V30 899 H 87.8878 2.1266 5.06031 0
M  V30 900 H 88.1488 0.524161 4.38982 0
M  V30 901 N 87.2079 -1.17134 1.05439 0
M  V30 902 C 88.4359 -1.91372 0.786414 0
M  V30 903 C 88.8509 -1.76955 -0.658202 0
M  V30 904 O 88.2079 -1.10838 -1.44987 0
M  V30 905 C 88.2589 -3.42356 1.1608 0
M  V30 906 O 87.9799 -3.56332 2.54871 0
M  V30 907 C 89.4809 -4.33663 0.919322 0
M  V30 908 H 86.7009 -0.607118 0.285743 0
M  V30 909 H 89.2449 -1.48525 1.40572 0
M  V30 910 H 87.3999 -3.82939 0.586191 0
M  V30 911 H 87.8139 -4.49896 2.69618 0
M  V30 912 H 89.2879 -5.38099 1.231 0
M  V30 913 H 89.7649 -4.38959 -0.145359 0
M  V30 914 H 90.3709 -3.98796 1.47789 0
M  V30 915 N 88.686 -0.835752 -1.33615 0
M  V30 916 C 89.934 -0.429109 -1.97492 0
M  V30 917 C 90.255 1.01433 -1.66543 0
M  V30 918 O 89.525 1.70611 -0.962744 0
M  V30 919 H 88.105 -0.155686 -0.730596 0
M  V30 920 H 90.767 -1.06802 -1.63031 0
M  V30 921 H 89.863 -0.55861 -3.0706 0
M  V30 922 N 90.1641 1.46063 -0.591896 0
M  V30 923 C 91.0741 2.34192 0.13831 0
M  V30 924 C 92.0901 1.50305 0.876608 0
M  V30 925 O 93.2661 1.8315 0.837728 0
M  V30 926 C 90.3311 3.27656 1.13326 0
M  V30 927 C 89.3921 4.27445 0.39863 0
M  V30 928 C 88.6251 5.16443 1.34618 0
M  V30 929 O 88.8481 5.08553 2.58321 0
M  V30 930 O 87.7821 5.95843 0.851768 0
M  V30 931 H 91.6081 2.98002 -0.58552 0
M  V30 932 H 89.1931 1.45188 -0.352239 0
M  V30 933 H 91.0751 3.85291 1.70671 0
M  V30 934 H 89.7501 2.6643 1.83839 0
M  V30 935 H 88.6571 3.73471 -0.216895 0
M  V30 936 H 89.9901 4.91482 -0.265709 0
M  V30 937 N 91.6422 0.330177 1.54103 0
M  V30 938 C 92.8672 -0.274893 2.0557 0
M  V30 939 C 93.2922 -1.44487 1.20437 0
M  V30 940 O 92.6502 -1.80021 0.214991 0
M  V30 941 C 92.6982 -0.68079 3.54115 0
M  V30 942 O 91.8022 -1.7824 3.71893 0
M  V30 943 H 91.1432 -0.0483849 0.662235 0
M  V30 944 H 93.6732 0.480508 1.98878 0
M  V30 945 H 93.6832 -0.961635 3.96505 0
M  V30 946 H 92.3582 0.174903 4.15532 0
M  V30 947 H 90.9352 -1.49985 3.41407 0
M  V30 948 N 93.1203 -1.57491 0.0584922 0
M  V30 949 C 94.3683 -1.92597 -0.612436 0
M  V30 950 C 94.6893 -0.938162 -1.70949 0
M  V30 951 O 93.9593 0.0158301 -1.95894 0
M  V30 952 H 92.5393 -0.710964 -0.229214 0
M  V30 953 H 95.2013 -1.94571 0.113218 0
M  V30 954 H 94.2973 -2.94038 -1.04633 0
M  V30 955 N 94.5984 0.214957 -1.56127 0
M  V30 956 C 95.5614 1.24997 -1.92116 0
M  V30 957 C 96.5614 1.39467 -0.800344 0
M  V30 958 O 97.7514 1.37619 -1.06802 0
M  V30 959 C 94.8834 2.62271 -2.17777 0
M  V30 960 H 96.0764 0.942875 -2.84693 0
M  V30 961 H 93.6294 0.455654 -1.49511 0
M  V30 962 H 94.3644 2.98068 -1.27773 0
M  V30 963 H 94.1494 2.53143 -2.99434 0
M  V30 964 H 95.6394 3.36946 -2.46693 0
M  V30 965 N 96.0765 1.50051 0.48192 0
M  V30 966 C 97.3245 1.60181 1.23234 0
M  V30 967 C 97.6455 0.299176 1.92691 0
M  V30 968 O 96.9155 -0.682708 1.83619 0
M  V30 969 H 95.4955 0.590232 0.457859 0
M  V30 970 H 98.1575 1.86775 0.556881 0
M  V30 971 H 97.2535 2.40753 1.98607 0
M  V30 972 N 97.5546 -0.734337 1.39446 0
M  V30 973 C 98.5016 -1.84835 1.38219 0
M  V30 974 C 99.4716 -1.64331 0.24179 0
M  V30 975 O 100.657 -1.85728 0.437002 0
M  V30 976 C 97.7966 -3.22355 1.23212 0
M  V30 977 C 96.9096 -3.5456 2.46801 0
M  V30 978 C 96.0446 -4.81485 2.24377 0
M  V30 979 C 95.0836 -5.06536 3.43639 0
M  V30 980 N 94.2206 -6.24665 3.20528 0
M  V30 981 H 99.0606 -1.85219 2.33448 0
M  V30 982 H 96.5976 -0.905039 1.15963 0
M  V30 983 H 98.5556 -4.0174 1.12522 0
M  V30 984 H 97.1856 -3.21248 0.316121 0
M  V30 985 H 96.2376 -2.69872 2.68092 0
M  V30 986 H 97.5496 -3.6899 3.3563 0
M  V30 987 H 96.7036 -5.68852 2.10933 0
M  V30 988 H 95.4426 -4.6923 1.32944 0
M  V30 989 H 94.4476 -4.17632 3.5758 0
M  V30 990 H 95.6726 -5.20676 4.35974 0
M  V30 991 H 93.6186 -6.13696 2.3176 0
M  V30 992 H 93.5356 -6.39685 4.02913 0
M  V30 993 H 94.8036 -7.14868 3.10779 0
M  V30 994 N 99.0327 -1.24633 -0.964593 0
M  V30 995 C 100.258 -1.11596 -1.74818 0
M  V30 996 C 100.683 0.32723 -1.85232 0
M  V30 997 O 100.041 1.23695 -1.32549 0
M  V30 998 C 100.089 -1.76397 -3.1451 0
M  V30 999 O 99.1927 -1.03685 -3.99153 0
M  V30 1000 H 98.5337 -0.390196 -0.537255 0
M  V30 1001 H 101.064 -1.65002 -1.20977 0
M  V30 1002 H 101.074 -1.8228 -3.65018 0
M  V30 1003 H 99.7487 -2.81401 -3.06246 0
M  V30 1004 H 98.3257 -1.05611 -3.57632 0
M  V30 1005 N 100.511 1.16574 -1.06058 0
M  V30 1006 C 101.736 1.91493 -0.796562 0
M  V30 1007 C 102.161 1.76773 0.642868 0
M  V30 1008 O 101.519 1.09142 1.44768 0
M  V30 1009 C 101.567 3.40293 -1.19303 0
M  V30 1010 O 100.671 4.11074 -0.330394 0
M  V30 1011 H 100.012 0.596678 -0.291326 0
M  V30 1012 H 102.542 1.47708 -1.41575 0
M  V30 1013 H 102.552 3.91057 -1.16356 0
M  V30 1014 H 101.227 3.50326 -2.24153 0
M  V30 1015 H 99.8038 3.70513 -0.421225 0
M  V30 1016 N 101.989 0.842826 1.3317 0
M  V30 1017 C 102.919 0.294028 2.31641 0
M  V30 1018 C 103.9 -0.600401 1.59151 0
M  V30 1019 O 105.085 -0.523124 1.87022 0
M  V30 1020 C 102.215 -0.528416 3.43257 0
M  V30 1021 C 101.169 0.27056 4.27144 0
M  V30 1022 C 100.495 -0.675881 5.30411 0
M  V30 1023 C 101.795 1.48981 5.00602 0
M  V30 1024 H 103.489 1.11681 2.77791 0
M  V30 1025 H 101.035 0.538478 1.33553 0
M  V30 1026 H 102.988 -0.922674 4.11175 0
M  V30 1027 H 101.712 -1.38445 2.95805 0
M  V30 1028 H 100.371 0.646427 3.60856 0
M  V30 1029 H 100.019 -1.52842 4.79216 0
M  V30 1030 H 99.7189 -0.145374 5.8742 0
M  V30 1031 H 101.243 -1.06757 6.01195 0
M  V30 1032 H 102.657 1.16849 5.61266 0
M  V30 1033 H 101.054 1.95739 5.6728 0
M  V30 1034 H 102.124 2.25746 4.29147 0
M  V30 1035 N 103.467 -1.45747 0.599634 0
M  V30 1036 C 104.716 -2.01502 0.0893511 0
M  V30 1037 C 105.029 -1.4748 -1.28488 0
M  V30 1038 O 106.235 -1.95161 -1.88745 0
M  V30 1039 C 104.691 -3.59735 0.109082 0
M  V30 1040 C 104.299 -4.22754 1.48267 0
M  V30 1041 C 106.043 -4.23085 -0.346374 0
M  V30 1042 C 103.95 -5.73115 1.45921 0
M  V30 1043 H 102.88 -0.753417 0.0296347 0
M  V30 1044 H 105.531 -1.67303 0.753788 0
M  V30 1045 H 103.913 -3.91087 -0.621854 0
M  V30 1046 H 105.087 -4.02987 2.23468 0
M  V30 1047 H 103.402 -3.71567 1.87955 0
M  V30 1048 H 105.999 -5.33327 -0.38298 0
M  V30 1049 H 106.342 -3.93201 -1.36743 0
M  V30 1050 H 106.875 -3.9642 0.331038 0
M  V30 1051 H 103.614 -6.07685 2.45762 0
M  V30 1052 H 103.134 -5.95097 0.749665 0
M  V30 1053 H 104.813 -6.3616 1.17941 0
M  V30 1054 N 104.945 -0.338344 -1.53925 0
M  V30 1055 C 105.893 0.536231 -2.26335 0
M  V30 1056 C 106.887 1.1063 -1.28286 0
M  V30 1057 O 108.093 1.05264 -1.46012 0
M  V30 1058 H 104.468 0.191602 -0.727181 0
M  V30 1059 H 106.439 -0.0965747 -2.98244 0
M  V30 1060 C 105.188 1.67803 -3.04528 0
M  V30 1061 H 104.511 1.24864 -3.79801 0
M  V30 1062 H 105.951 2.26526 -3.58416 0
M  V30 1063 C 104.41 2.60439 -2.13712 0
M  V30 1064 O 104.94 3.6255 -1.72975 0
M  V30 1065 N 103.146 2.29006 -1.78898 0
M  V30 1066 H 102.693 1.46011 -2.12223 0
M  V30 1067 H 102.651 2.91248 -1.18416 0
M  V30 1068 N 106.423 1.57458 -0.0668435 0
M  V30 1069 C 107.386 2.11323 0.887422 0
M  V30 1070 C 108.386 1.03618 1.22964 0
M  V30 1071 O 109.576 1.29626 1.16373 0
M  V30 1072 C 106.708 2.61048 2.19242 0
M  V30 1073 H 107.901 2.96942 0.420194 0
M  V30 1074 H 105.454 1.55239 0.181793 0
M  V30 1075 H 106.189 1.78868 2.70512 0
M  V30 1076 H 105.974 3.39769 1.95702 0
M  V30 1077 H 107.464 3.02814 2.87565 0
M  V30 1078 N 107.901 -0.206675 1.56239 0
M  V30 1079 C 108.831 -1.25909 1.96645 0
M  V30 1080 C 109.812 -1.48097 0.836734 0
M  V30 1081 O 110.997 -1.6003 1.10019 0
M  V30 1082 C 108.127 -2.6058 2.29599 0
M  V30 1083 C 107.081 -2.53024 3.452 0
M  V30 1084 C 106.407 -3.91861 3.63798 0
M  V30 1085 C 107.707 -2.06524 4.79734 0
M  V30 1086 H 109.401 -0.923369 2.84806 0
M  V30 1087 H 106.947 -0.442735 1.37025 0
M  V30 1088 H 108.9 -3.34375 2.56459 0
M  V30 1089 H 107.624 -2.95869 1.38307 0
M  V30 1090 H 106.283 -1.81684 3.18412 0
M  V30 1091 H 105.931 -4.24483 2.69857 0
M  V30 1092 H 105.631 -3.87683 4.4156 0
M  V30 1093 H 107.155 -4.67296 3.93022 0
M  V30 1094 H 108.569 -2.70072 5.05702 0
M  V30 1095 H 106.966 -2.13374 5.60885 0
M  V30 1096 H 108.036 -1.01802 4.74093 0
M  V30 1097 N 109.379 -1.50304 -0.473955 0
M  V30 1098 C 110.795 -1.37667 -0.807466 0
M  V30 1099 C 110.995 -0.430555 -1.96846 0
M  V30 1100 O 110.051 0.127874 -2.52176 0
M  V30 1101 C 111.364 -2.78974 -1.12223 0
M  V30 1102 C 112.912 -2.87868 -1.22885 0
M  V30 1103 C 113.387 -4.30003 -1.57676 0
M  V30 1104 N 114.878 -4.3294 -1.64673 0
M  V30 1105 C 115.613 -5.3991 -1.93091 0
M  V30 1106 N 115.109 -6.57092 -2.1955 0
M  V30 1107 N 116.902 -5.27351 -1.94569 0
M  V30 1108 H 109.053 -2.10394 0.291212 0
M  V30 1109 H 111.316 -0.945575 0.0677609 0
M  V30 1110 H 111.022 -3.50031 -0.342229 0
M  V30 1111 H 110.896 -3.16038 -2.05913 0
M  V30 1112 H 113.283 -2.17032 -1.99953 0
M  V30 1113 H 113.364 -2.54352 -0.271814 0
M  V30 1114 H 113.008 -5.01375 -0.81149 0
M  V30 1115 H 112.938 -4.61004 -2.54525 0
M  V30 1116 H 115.429 -3.48441 -1.46277 0
M  V30 1117 H 115.742 -7.34425 -2.405 0
M  V30 1118 H 114.087 -6.60272 -2.16948 0
M  V30 1119 H 117.278 -4.34801 -1.73394 0
M  V30 1120 H 117.451 -6.10805 -2.16381 0
M  V30 1121 N 110.857 0.726932 -1.39834 0
M  V30 1122 C 112.105 1.4837 -1.37225 0
M  V30 1123 C 112.426 1.94979 0.0284857 0
M  V30 1124 O 111.696 1.69555 0.981213 0
M  V30 1125 H 110.276 0.55043 -0.505011 0
M  V30 1126 H 112.938 0.862468 -1.74778 0
M  V30 1127 H 112.034 2.36198 -2.04003 0
M  V30 1128 N 112.336 1.25143 0.95797 0
M  V30 1129 C 113.266 1.07711 2.07173 0
M  V30 1130 C 114.247 -0.0128462 1.70095 0
M  V30 1131 O 115.432 0.156061 1.93572 0
M  V30 1132 C 112.562 0.691503 3.40346 0
M  V30 1133 C 111.516 1.73132 3.9142 0
M  V30 1134 C 110.842 1.20049 5.21049 0
M  V30 1135 C 112.142 3.1294 4.1817 0
M  V30 1136 H 113.836 2.00873 2.22014 0
M  V30 1137 H 111.382 0.967191 1.06684 0
M  V30 1138 H 113.335 0.556505 4.17709 0
M  V30 1139 H 112.059 -0.275819 3.25433 0
M  V30 1140 H 110.718 1.8547 3.16222 0
M  V30 1141 H 110.366 0.223499 5.02503 0
M  V30 1142 H 110.066 1.89545 5.56189 0
M  V30 1143 H 111.59 1.07782 6.01012 0
M  V30 1144 H 113.004 3.03775 4.86203 0
M  V30 1145 H 111.401 3.79875 4.64559 0
M  V30 1146 H 112.471 3.6025 3.24573 0
M  V30 1147 N 113.814 -1.1601 1.06675 0
M  V30 1148 C 114.724 -2.24156 0.692179 0
M  V30 1149 C 115.74 -1.71507 -0.293513 0
M  V30 1150 O 116.916 -2.009 -0.141861 0
M  V30 1151 C 113.981 -3.46587 0.0884131 0
M  V30 1152 C 113.042 -4.14257 1.12646 0
M  V30 1153 C 112.275 -5.30844 0.551416 0
M  V30 1154 O 112.498 -5.66858 -0.634656 0
M  V30 1155 O 111.432 -5.87848 1.29298 0
M  V30 1156 H 115.258 -2.58513 1.59388 0
M  V30 1157 H 112.843 -1.23599 0.83926 0
M  V30 1158 H 114.725 -4.20679 -0.246361 0
M  V30 1159 H 113.4 -3.13994 -0.786712 0
M  V30 1160 H 112.307 -3.42118 1.51348 0
M  V30 1161 H 113.64 -4.50914 1.97325 0
M  V30 1162 N 115.292 -0.849877 -1.32721 0
M  V30 1163 C 116.255 -0.296122 -2.27279 0
M  V30 1164 C 117.255 0.541458 -1.5141 0
M  V30 1165 O 118.445 0.353658 -1.70572 0
M  V30 1166 C 115.577 0.581579 -3.35902 0
M  V30 1167 H 116.77 -1.13064 -2.77771 0
M  V30 1168 H 114.323 -0.62383 -1.43311 0
M  V30 1169 H 115.058 1.43809 -2.9067 0
M  V30 1170 H 114.843 -0.0178814 -3.92096 0
M  V30 1171 H 116.333 0.961951 -4.0637 0
M  V30 1172 N 116.77 1.45427 -0.607355 0
M  V30 1173 C 117.68 2.34325 0.113463 0
M  V30 1174 C 118.696 1.51226 0.860617 0
M  V30 1175 O 119.872 1.84029 0.818255 0
M  V30 1176 C 116.937 3.28839 1.09844 0
M  V30 1177 C 115.998 4.27844 0.353271 0
M  V30 1178 C 115.231 5.17842 1.29133 0
M  V30 1179 O 115.454 5.11264 2.52913 0
M  V30 1180 O 114.388 5.96713 0.788523 0
M  V30 1181 H 118.214 2.97364 -0.617094 0
M  V30 1182 H 115.799 1.44807 -0.367619 0
M  V30 1183 H 117.681 3.8708 1.66575 0
M  V30 1184 H 116.356 2.68365 1.81003 0
M  V30 1185 H 115.263 3.7322 -0.256494 0
M  V30 1186 H 116.596 4.91173 -0.317822 0
M  V30 1187 N 118.248 0.346503 1.53744 0
M  V30 1188 C 119.525 -0.304532 1.93215 0
M  V30 1189 C 119.905 -1.67993 1.27834 0
M  V30 1190 O 119.253 -2.24411 0.430352 0
M  V30 1191 C 119.463 -0.373852 3.46992 0
M  V30 1192 C 120.811 -0.62329 4.2 0
M  V30 1193 O 121.835 -0.455847 3.53271 0
M  V30 1194 O 120.694 -0.947879 5.38217 0
M  V30 1195 H 117.788 -0.178318 0.807547 0
M  V30 1196 H 120.334 0.397895 1.64969 0
M  V30 1197 H 119.106 0.591224 3.86808 0
M  V30 1198 H 118.729 -1.12294 3.81413 0
M  V30 1199 N 119.726 -1.57421 0.075193 0
M  V30 1200 C 121.137 -1.81021 -0.456964 0
M  V30 1201 C 121.488 -0.98936 -1.69429 0
M  V30 1202 O 120.613 -0.212865 -2.15351 0
M  V30 1203 C 121.208 -3.28329 -0.83581 0
M  V30 1204 C 119.767 -3.52764 -1.31281 0
M  V30 1205 C 118.914 -2.75676 -0.299648 0
M  V30 1206 H 121.865 -1.55822 0.300856 0
M  V30 1207 H 121.886 -3.40564 -1.69696 0
M  V30 1208 H 121.398 -3.88046 0.0649238 0
M  V30 1209 H 119.499 -2.98355 -2.23193 0
M  V30 1210 H 119.612 -4.61451 -1.28839 0
M  V30 1211 H 117.976 -2.42538 -0.777641 0
M  V30 1212 H 118.759 -3.38132 0.593417 0
M  V30 1213 N 121.204 0.198386 -1.56346 0
M  V30 1214 C 122.452 0.91747 -1.80075 0
M  V30 1215 C 122.773 1.83929 -0.647692 0
M  V30 1216 O 122.043 1.93029 0.334166 0
M  V30 1217 H 120.623 0.341774 -0.664228 0
M  V30 1218 H 123.285 0.204684 -1.93822 0
M  V30 1219 H 122.381 1.51055 -2.7311 0
M  V30 1220 N 122.682 1.50554 0.465978 0
M  V30 1221 C 123.645 1.69233 1.54574 0
M  V30 1222 C 124.645 0.562901 1.50626 0
M  V30 1223 O 125.835 0.830016 1.53155 0
M  V30 1224 C 122.967 1.7223 2.94193 0
M  V30 1225 H 124.16 2.65571 1.39327 0
M  V30 1226 H 121.713 1.40111 0.692711 0
M  V30 1227 H 122.448 0.77603 3.14878 0
M  V30 1228 H 122.233 2.54285 2.98466 0
M  V30 1229 H 123.723 1.88618 3.72576 0
M  V30 1230 N 124.16 -0.719506 1.40217 0
M  V30 1231 C 125.123 -1.8153 1.39927 0
M  V30 1232 C 126.123 -1.58095 0.293723 0
M  V30 1233 O 127.313 -1.65209 0.552429 0
M  V30 1234 C 124.445 -3.19561 1.18716 0
M  V30 1235 H 125.638 -1.83186 2.37451 0
M  V30 1236 H 123.191 -0.924746 1.26008 0
M  V30 1237 H 123.926 -3.23557 0.219366 0
M  V30 1238 H 123.711 -3.3797 1.98793 0
M  V30 1239 H 125.201 -3.99598 1.21291 0
M  V30 1240 N 125.638 -1.25649 -0.95132 0
M  V30 1241 C 126.568 -1.08808 -2.06599 0
M  V30 1242 C 127.549 0.00382547 -1.701 0
M  V30 1243 O 128.734 -0.166325 -1.93486 0
M  V30 1244 C 125.864 -0.709542 -3.39975 0
M  V30 1245 C 124.818 -1.75206 -3.90496 0
M  V30 1246 C 124.144 -1.22811 -5.20405 0
M  V30 1247 C 125.444 -3.15153 -4.16504 0
M  V30 1248 H 127.138 -2.02048 -2.20946 0
M  V30 1249 H 124.684 -0.972835 -1.06169 0
M  V30 1250 H 126.637 -0.578649 -4.17408 0
M  V30 1251 H 125.361 0.258556 -3.25575 0
M  V30 1252 H 124.02 -1.87145 -3.15234 0
M  V30 1253 H 123.668 -0.250145 -5.02378 0
M  V30 1254 H 123.368 -1.92492 -5.55176 0
M  V30 1255 H 124.892 -1.10968 -6.00432 0
M  V30 1256 H 126.306 -3.06349 -4.84586 0
M  V30 1257 H 124.703 -3.82333 -4.62538 0
M  V30 1258 H 125.773 -3.61966 -3.22658 0
M  V30 1259 N 127.117 1.15442 -1.07289 0
M  V30 1260 C 128.345 1.90096 -0.81676 0
M  V30 1261 C 128.76 1.7798 0.629966 0
M  V30 1262 O 128.117 1.1313 1.43206 0
M  V30 1263 C 128.168 3.40466 -1.21512 0
M  V30 1264 O 127.889 3.52232 -2.60508 0
M  V30 1265 C 129.39 4.32145 -0.988198 0
M  V30 1266 H 126.61 0.602495 -0.295366 0
M  V30 1267 H 129.154 1.4627 -1.42918 0
M  V30 1268 H 127.309 3.81958 -0.647039 0
M  V30 1269 H 127.723 4.45549 -2.76742 0
M  V30 1270 H 129.197 5.36072 -1.31645 0
M  V30 1271 H 129.674 4.39135 0.0755063 0
M  V30 1272 H 130.28 3.96395 -1.54115 0
M  V30 1273 N 128.595 0.856903 1.32268 0
M  V30 1274 C 129.843 0.460474 1.96784 0
M  V30 1275 C 130.164 -0.987701 1.68135 0
M  V30 1276 O 129.434 -1.69058 0.989765 0
M  V30 1277 H 128.014 0.167289 0.728027 0
M  V30 1278 H 130.676 1.09383 1.61312 0
M  V30 1279 H 129.772 0.60739 3.06133 0
M  V30 1280 N 130.073 -1.45103 0.615059 0
M  V30 1281 C 131.319 -2.02483 0.113347 0
M  V30 1282 C 131.652 -1.48146 -1.25564 0
M  V30 1283 O 130.927 -0.659104 -1.82992 0
M  V30 1284 C 131.21 -3.60005 0.0825278 0
M  V30 1285 C 131.063 -4.2466 1.48271 0
M  V30 1286 C 132.382 -4.35972 -0.601401 0
M  V30 1287 H 129.501 -0.735764 0.0426632 0
M  V30 1288 H 132.143 -1.72868 0.788461 0
M  V30 1289 H 130.293 -3.85367 -0.492378 0
M  V30 1290 H 131.965 -4.10458 2.10527 0
M  V30 1291 H 130.208 -3.82772 2.04127 0
M  V30 1292 H 130.879 -5.336 1.41332 0
M  V30 1293 H 133.355 -4.15947 -0.112666 0
M  V30 1294 H 132.231 -5.45697 -0.592097 0
M  V30 1295 H 132.492 -4.09391 -1.66887 0
M  V30 1296 N 131.551 -0.354651 -1.53558 0
M  V30 1297 C 132.484 0.540273 -2.21712 0
M  V30 1298 C 133.462 1.09161 -1.2051 0
M  V30 1299 O 134.646 1.14979 -1.49372 0
M  V30 1300 C 131.773 1.74435 -2.90328 0
M  V30 1301 C 130.819 1.32146 -4.05512 0
M  V30 1302 S 131.652 0.331924 -5.3447 0
M  V30 1303 C 132.808 1.54258 -6.06593 0
M  V30 1304 H 133.041 -0.0385776 -2.97275 0
M  V30 1305 H 130.574 -0.138736 -1.53775 0
M  V30 1306 H 132.532 2.43507 -3.30476 0
M  V30 1307 H 131.193 2.29444 -2.1451 0
M  V30 1308 H 130.386 2.21952 -4.52497 0
M  V30 1309 H 129.988 0.710091 -3.67197 0
M  V30 1310 H 132.28 2.47534 -6.30661 0
M  V30 1311 H 133.223 1.11431 -6.99277 0
M  V30 1312 H 133.631 1.74367 -5.36895 0
M  V30 1313 N 133.029 1.57378 -0.0835403 0
M  V30 1314 C 133.939 2.16897 0.894021 0
M  V30 1315 C 134.955 1.13528 1.31861 0
M  V30 1316 O 136.131 1.45848 1.3889 0
M  V30 1317 C 133.196 2.72831 2.13925 0
M  V30 1318 C 132.257 3.91115 1.76997 0
M  V30 1319 C 131.49 4.44371 2.95584 0
M  V30 1320 O 131.713 3.96596 4.09961 0
M  V30 1321 O 130.647 5.35549 2.74719 0
M  V30 1322 H 134.473 3.00814 0.417679 0
M  V30 1323 H 132.058 1.48741 0.140181 0
M  V30 1324 H 133.94 3.0863 2.86924 0
M  V30 1325 H 132.615 1.91967 2.60635 0
M  V30 1326 H 131.522 3.60148 1.01214 0
M  V30 1327 H 132.855 4.73307 1.3506 0
M  V30 1328 N 134.507 -0.190092 1.56449 0
M  V30 1329 C 135.735 -0.925772 1.85033 0
M  V30 1330 C 136.15 -1.76638 0.666658 0
M  V30 1331 O 135.507 -1.78822 -0.364565 0
M  V30 1332 C 135.558 -1.81786 3.12468 0
M  V30 1333 O 135.279 -1.01118 4.26271 0
M  V30 1334 C 136.78 -2.6648 3.54265 0
M  V30 1335 H 134 -0.269872 0.614337 0
M  V30 1336 H 136.544 -0.195837 2.0356 0
M  V30 1337 H 134.699 -2.50136 2.95822 0
M  V30 1338 H 135.113 -1.61956 4.98869 0
M  V30 1339 H 136.587 -3.24722 4.46385 0
M  V30 1340 H 137.064 -3.40434 2.77491 0
M  V30 1341 H 137.67 -2.03493 3.73458 0
M  V30 1342 N 135.985 -1.50799 -0.457987 0
M  V30 1343 C 137.213 -1.66218 -1.23203 0
M  V30 1344 C 137.628 -0.350894 -1.85511 0
M  V30 1345 O 136.985 0.668546 -1.69814 0
M  V30 1346 C 137.036 -2.76291 -2.33121 0
M  V30 1347 O 136.757 -4.02338 -1.73366 0
M  V30 1348 C 138.258 -3.028 -3.2377 0
M  V30 1349 H 135.478 -0.558361 -0.372121 0
M  V30 1350 H 138.022 -1.97099 -0.545179 0
M  V30 1351 H 136.177 -2.48068 -2.97558 0
M  V30 1352 H 136.591 -4.63312 -2.4585 0
M  V30 1353 H 138.065 -3.8345 -3.97077 0
M  V30 1354 H 138.542 -2.14385 -3.83322 0
M  V30 1355 H 139.148 -3.32604 -2.65056 0
M  V30 1356 N 137.463 0.71206 -1.40597 0
M  V30 1357 C 138.396 1.83582 -1.35546 0
M  V30 1358 C 139.374 1.61032 -0.225284 0
M  V30 1359 O 140.558 1.83998 -0.409519 0
M  V30 1360 C 137.685 3.19983 -1.11034 0
M  V30 1361 C 136.731 3.61355 -2.2655 0
M  V30 1362 S 137.564 3.68062 -3.88961 0
M  V30 1363 C 138.72 5.07216 -3.66719 0
M  V30 1364 H 138.953 1.87586 -2.30648 0
M  V30 1365 H 136.486 0.879182 -1.26924 0
M  V30 1366 H 138.444 3.98734 -0.975761 0
M  V30 1367 H 137.105 3.13608 -0.175798 0
M  V30 1368 H 136.298 4.60403 -2.0505 0
M  V30 1369 H 135.9 2.8987 -2.36329 0
M  V30 1370 H 138.192 5.94238 -3.25404 0
M  V30 1371 H 139.135 5.33753 -4.6531 0
M  V30 1372 H 139.543 4.77976 -3.00332 0
M  V30 1373 N 138.941 1.26152 0.944643 0
M  V30 1374 C 139.873 1.03199 2.04652 0
M  V30 1375 C 140.886 -0.00642356 1.62799 0
M  V30 1376 O 142.075 0.233263 1.76969 0
M  V30 1377 C 139.175 0.540111 3.34568 0
M  V30 1378 C 138.348 1.64697 4.05208 0
M  V30 1379 C 137.407 1.15374 5.13396 0
M  V30 1380 O 136.433 1.85013 5.38293 0
M  V30 1381 N 137.635 0.00031529 5.805 0
M  V30 1382 H 140.4 1.9808 2.2491 0
M  V30 1383 H 137.961 1.17491 1.11389 0
M  V30 1384 H 139.953 0.194401 4.04233 0
M  V30 1385 H 138.523 -0.315021 3.11009 0
M  V30 1386 H 137.743 2.16379 3.29506 0
M  V30 1387 H 139.031 2.3903 4.49157 0
M  V30 1388 H 138.429 -0.581336 5.62705 0
M  V30 1389 H 136.986 -0.286346 6.51171 0
M  V30 1390 N 140.419 -1.14872 1.07899 0
M  V30 1391 C 141.83 -1.67367 0.827363 0
M  V30 1392 C 142.181 -1.85236 -0.646693 0
M  V30 1393 O 141.306 -1.55974 -1.50004 0
M  V30 1394 C 141.901 -3.04016 1.49532 0
M  V30 1395 C 140.46 -3.53566 1.29106 0
M  V30 1396 C 139.607 -2.29161 1.56143 0
M  V30 1397 H 142.558 -0.990083 1.24028 0
M  V30 1398 H 142.579 -3.69219 0.919643 0
M  V30 1399 H 142.091 -2.90978 2.56814 0
M  V30 1400 H 140.192 -3.71835 0.238713 0
M  V30 1401 H 140.305 -4.34661 2.01511 0
M  V30 1402 H 138.669 -2.34978 0.982717 0
M  V30 1403 H 139.452 -2.18705 2.64619 0
M  V30 1404 N 141.898 -0.863906 -1.31812 0
M  V30 1405 C 143.123 -0.48527 -2.01643 0
M  V30 1406 C 143.548 0.913058 -1.64453 0
M  V30 1407 O 142.906 1.6014 -0.849985 0
M  V30 1408 C 142.954 -0.642625 -3.54828 0
M  V30 1409 O 142.058 0.320659 -4.11151 0
M  V30 1410 H 141.399 -0.193793 -0.635091 0
M  V30 1411 H 143.929 -1.16565 -1.68148 0
M  V30 1412 H 143.939 -0.533628 -4.04495 0
M  V30 1413 H 142.614 -1.66227 -3.81237 0
M  V30 1414 H 141.191 0.167126 -3.72525 0
M  V30 1415 N 143.376 1.44774 -0.622745 0
M  V30 1416 C 144.787 1.85546 -0.207226 0
M  V30 1417 C 145.138 1.52093 1.23944 0
M  V30 1418 O 144.263 0.95492 1.94191 0
M  V30 1419 C 144.858 3.36781 -0.369313 0
M  V30 1420 C 143.417 3.76399 -0.00836847 0
M  V30 1421 C 142.564 2.68664 -0.686651 0
M  V30 1422 H 145.515 1.3536 -0.828454 0
M  V30 1423 H 145.536 3.78453 0.394162 0
M  V30 1424 H 145.048 3.61098 -1.42231 0
M  V30 1425 H 143.149 3.57698 1.04322 0
M  V30 1426 H 143.262 4.7732 -0.412584 0
M  V30 1427 H 141.626 2.54404 -0.122777 0
M  V30 1428 H 142.409 2.95815 -1.74208 0
M  V30 1429 N 144.854 0.36279 1.53368 0
M  V30 1430 C 146.084 -0.228281 2.05335 0
M  V30 1431 C 146.492 -1.43226 1.23625 0
M  V30 1432 O 145.835 -1.81717 0.269206 0
M  V30 1433 C 145.897 -0.688549 3.52845 0
M  V30 1434 C 145.561 0.398362 4.5526 0
M  V30 1435 C 146.558 1.24732 5.04716 0
M  V30 1436 C 144.243 0.557805 4.99193 0
M  V30 1437 C 146.237 2.2411 5.96702 0
M  V30 1438 C 143.924 1.55495 5.90986 0
M  V30 1439 C 144.922 2.39503 6.39631 0
M  V30 1440 O 144.61 3.37517 7.29615 0
M  V30 1441 H 144.342 -0.044395 0.674541 0
M  V30 1442 H 146.896 0.518668 1.98744 0
M  V30 1443 H 145.126 -1.48706 3.56964 0
M  V30 1444 H 146.815 -1.20231 3.87685 0
M  V30 1445 H 147.581 1.13532 4.71525 0
M  V30 1446 H 143.46 -0.0862959 4.60919 0
M  V30 1447 H 147.004 2.89718 6.34594 0
M  V30 1448 H 142.901 1.66744 6.23592 0
M  V30 1449 H 143.669 3.33213 7.47604 0
M  V30 1450 N 146.332 -1.57332 0.0918853 0
M  V30 1451 C 147.743 -1.81496 -0.437739 0
M  V30 1452 C 148.094 -1.00727 -1.6837 0
M  V30 1453 O 147.219 -0.235694 -2.15113 0
M  V30 1454 C 147.814 -3.29197 -0.800939 0
M  V30 1455 C 146.373 -3.54136 -1.27532 0
M  V30 1456 C 145.52 -2.75979 -0.270392 0
M  V30 1457 H 148.471 -1.55494 0.317366 0
M  V30 1458 H 148.492 -3.42344 -1.66074 0
M  V30 1459 H 148.004 -3.87955 0.106078 0
M  V30 1460 H 146.105 -3.00705 -2.20016 0
M  V30 1461 H 146.218 -4.62792 -1.23938 0
M  V30 1462 H 144.582 -2.43349 -0.751872 0
M  V30 1463 H 145.365 -3.37484 0.629248 0
M  V30 1464 N 147.81 0.181792 -1.56548 0
M  V30 1465 C 148.76 1.22961 -1.92002 0
M  V30 1466 C 149.744 1.40331 -0.787146 0
M  V30 1467 O 150.936 1.42478 -1.05019 0
M  V30 1468 C 148.065 2.57144 -2.27446 0
M  V30 1469 C 147.151 2.43512 -3.47222 0
M  V30 1470 N 147.542 1.99577 -4.64761 0
M  V30 1471 C 145.84 2.74368 -3.51622 0
M  V30 1472 C 146.541 1.98156 -5.46909 0
M  V30 1473 N 145.517 2.40164 -4.8767 0
M  V30 1474 H 149.319 0.881462 -2.8037 0
M  V30 1475 H 146.833 0.390141 -1.57644 0
M  V30 1476 H 148.83 3.32847 -2.51035 0
M  V30 1477 H 147.49 2.92771 -1.40411 0
M  V30 1478 H 148.501 1.70078 -4.89177 0
M  V30 1479 H 145.178 3.14102 -2.75038 0
M  V30 1480 H 146.568 1.65975 -6.51077 0
M  V30 1481 N 149.288 1.51039 0.449983 0
M  V30 1482 C 150.699 1.557 1.03026 0
M  V30 1483 C 151.05 0.372939 1.92623 0
M  V30 1484 O 150.175 -0.511771 2.10261 0
M  V30 1485 C 150.77 2.82171 1.87523 0
M  V30 1486 C 149.329 2.89444 2.40622 0
M  V30 1487 C 148.476 2.50228 1.19504 0
M  V30 1488 H 151.427 1.56999 0.231745 0
M  V30 1489 H 151.448 2.65219 2.72835 0
M  V30 1490 H 150.96 3.68331 1.22286 0
M  V30 1491 H 149.061 2.07685 3.0935 0
M  V30 1492 H 149.174 3.92816 2.74285 0
M  V30 1493 H 147.538 2.03139 1.53644 0
M  V30 1494 H 148.321 3.38719 0.558972 0
M  V30 1495 N 150.766 -0.704594 1.40972 0
M  V30 1496 C 151.698 -1.82974 1.38033 0
M  V30 1497 C 152.711 -1.60305 0.283931 0
M  V30 1498 O 153.9 -1.69975 0.545042 0
M  V30 1499 C 151 -3.19578 1.12795 0
M  V30 1500 C 150.173 -3.69352 2.34302 0
M  V30 1501 C 149.232 -4.84601 2.05058 0
M  V30 1502 O 148.258 -4.96682 2.7802 0
M  V30 1503 N 149.46 -5.71194 1.03528 0
M  V30 1504 H 152.225 -1.85991 2.35005 0
M  V30 1505 H 149.786 -0.886567 1.35468 0
M  V30 1506 H 151.778 -3.9429 0.911987 0
M  V30 1507 H 150.348 -3.11642 0.24452 0
M  V30 1508 H 149.568 -2.85649 2.71659 0
M  V30 1509 H 150.856 -3.99345 3.1528 0
M  V30 1510 H 150.254 -5.64054 0.431217 0
M  V30 1511 H 148.811 -6.45843 0.879205 0
M  V30 1512 N 152.244 -1.26651 -0.937939 0
M  V30 1513 C 153.491 -1.12387 -1.6845 0
M  V30 1514 C 153.819 0.332208 -1.91642 0
M  V30 1515 O 153.074 1.2602 -1.49725 0
M  V30 1516 C 153.373 -1.84168 -3.06295 0
M  V30 1517 C 153.039 -3.34056 -3.02849 0
M  V30 1518 C 151.701 -3.74942 -3.01616 0
M  V30 1519 C 154.053 -4.29741 -2.9491 0
M  V30 1520 C 151.381 -5.09894 -2.90215 0
M  V30 1521 C 153.733 -5.64738 -2.8505 0
M  V30 1522 C 152.397 -6.0493 -2.82162 0
M  V30 1523 H 151.667 -0.411252 -0.616403 0
M  V30 1524 H 154.314 -1.57134 -1.09459 0
M  V30 1525 H 152.619 -1.319 -3.6893 0
M  V30 1526 H 154.316 -1.70569 -3.62915 0
M  V30 1527 H 150.906 -3.01534 -3.0459 0
M  V30 1528 H 155.09 -3.99133 -2.94969 0
M  V30 1529 H 150.346 -5.40194 -2.86358 0
M  V30 1530 H 154.52 -6.38561 -2.77872 0
M  V30 1531 H 152.147 -7.09457 -2.73084 0
M  V30 1532 N 153.722 1.14298 -1.08507 0
M  V30 1533 C 155.133 1.66926 -0.836227 0
M  V30 1534 C 155.484 1.85576 0.63686 0
M  V30 1535 O 154.609 1.56767 1.49175 0
M  V30 1536 C 155.204 3.03219 -1.51142 0
M  V30 1537 C 153.763 3.52876 -1.30979 0
M  V30 1538 C 152.91 2.2833 -1.57356 0
M  V30 1539 H 155.861 0.983491 -1.24552 0
M  V30 1540 H 155.882 3.68726 -0.939211 0
M  V30 1541 H 155.394 2.89612 -2.58353 0
M  V30 1542 H 153.495 3.71703 -0.258429 0
M  V30 1543 H 153.608 4.33586 -2.03814 0
M  V30 1544 H 151.972 2.34454 -0.995164 0
M  V30 1545 H 152.755 2.17298 -2.65775 0
M  V30 1546 N 155.201 0.870884 1.31352 0
M  V30 1547 C 156.478 0.402907 1.91405 0
M  V30 1548 C 156.858 -1.11512 1.79244 0
M  V30 1549 O 156.206 -1.94411 1.2007 0
M  V30 1550 C 156.416 0.885301 3.37585 0
M  V30 1551 C 157.764 0.911971 4.14691 0
M  V30 1552 O 158.788 0.831016 3.46371 0
M  V30 1553 O 157.647 1.02927 5.3672 0
M  V30 1554 H 154.741 0.120698 0.818145 0
M  V30 1555 H 157.287 0.958857 1.40014 0
M  V30 1556 H 156.059 1.92889 3.40455 0
M  V30 1557 H 155.682 0.307714 3.96407 0
M  V30 1558 N 156.679 -1.44442 0.630414 0
M  V30 1559 C 157.925 -2.02351 0.134816 0
M  V30 1560 C 158.258 -1.4947 -1.23986 0
M  V30 1561 O 157.533 -0.678475 -1.82283 0
M  V30 1562 C 157.816 -3.59898 0.120707 0
M  V30 1563 C 157.669 -4.23063 1.52767 0
M  V30 1564 C 158.988 -4.36585 -0.555127 0
M  V30 1565 H 156.107 -0.73527 0.0504646 0
M  V30 1566 H 158.749 -1.72022 0.806751 0
M  V30 1567 H 156.899 -3.85868 -0.451477 0
M  V30 1568 H 158.571 -4.08202 2.14869 0
M  V30 1569 H 156.814 -3.80586 2.08175 0
M  V30 1570 H 157.485 -5.32071 1.46984 0
M  V30 1571 H 159.961 -4.16044 -0.0685429 0
M  V30 1572 H 158.837 -5.46294 -0.534185 0
M  V30 1573 H 159.098 -4.11138 -1.62535 0
M  V30 1574 N 158.157 -0.370918 -1.53173 0
M  V30 1575 C 159.385 0.217704 -2.05751 0
M  V30 1576 C 159.8 1.42018 -1.24404 0
M  V30 1577 O 159.157 1.80245 -0.286033 0
M  V30 1578 C 159.208 0.605954 -3.56385 0
M  V30 1579 O 158.929 -0.548734 -4.3465 0
M  V30 1580 C 160.43 1.2524 -4.25241 0
M  V30 1581 H 157.65 0.0371659 -0.66997 0
M  V30 1582 H 160.194 -0.530832 -1.9749 0
M  V30 1583 H 158.349 1.3044 -3.6478 0
M  V30 1584 H 158.763 -0.23376 -5.23979 0
M  V30 1585 H 160.237 1.47458 -5.3194 0
M  V30 1586 H 160.714 2.2143 -3.79296 0
M  V30 1587 H 161.32 0.595233 -4.21114 0
M  V30 1588 N 159.635 1.57281 -0.100228 0
M  V30 1589 C 160.565 2.17328 0.853857 0
M  V30 1590 C 161.546 1.10804 1.2906 0
M  V30 1591 O 162.731 1.38963 1.35657 0
M  V30 1592 C 159.861 2.75772 2.11109 0
M  V30 1593 C 158.815 3.87713 1.81279 0
M  V30 1594 C 158.141 4.32882 3.13874 0
M  V30 1595 C 159.441 5.10677 1.09574 0
M  V30 1596 H 161.135 2.97305 0.353545 0
M  V30 1597 H 158.681 1.43009 0.168612 0
M  V30 1598 H 160.634 3.16433 2.78296 0
M  V30 1599 H 159.358 1.93057 2.63432 0
M  V30 1600 H 158.017 3.476 1.16489 0
M  V30 1601 H 157.665 3.47051 3.64095 0
M  V30 1602 H 157.365 5.08358 2.94696 0
M  V30 1603 H 158.889 4.7618 3.82211 0
M  V30 1604 H 160.303 5.48474 1.66879 0
M  V30 1605 H 158.7 5.91615 1.00557 0
M  V30 1606 H 159.77 4.84835 0.0793299 0
M  V30 1607 N 161.113 -0.173488 1.56642 0
M  V30 1608 C 162.359 -0.887108 1.83035 0
M  V30 1609 C 162.714 -1.79965 0.680461 0
M  V30 1610 O 162.007 -1.88854 -0.323225 0
M  V30 1611 C 162.201 -1.72069 3.13252 0
M  V30 1612 C 162.03 -0.89035 4.40798 0
M  V30 1613 C 160.8 -0.566282 5.02117 0
M  V30 1614 C 162.998 -0.232921 5.13772 0
M  V30 1615 N 160.98 0.280427 6.13259 0
M  V30 1616 C 162.351 0.475046 6.18177 0
M  V30 1617 C 164.406 -0.150863 4.97671 0
M  V30 1618 C 163.109 1.25729 7.08227 0
M  V30 1619 C 165.135 0.618039 5.88162 0
M  V30 1620 C 164.497 1.31438 6.92029 0
M  V30 1621 H 160.596 -0.303303 0.720785 0
M  V30 1622 H 163.18 -0.154244 1.94088 0
M  V30 1623 H 161.351 -2.42499 3.03395 0
M  V30 1624 H 163.083 -2.37545 3.2765 0
M  V30 1625 H 159.838 -0.895852 4.6505 0
M  V30 1626 H 160.262 0.694027 6.73433 0
M  V30 1627 H 164.904 -0.674868 4.17379 0
M  V30 1628 H 162.622 1.79265 7.87966 0
M  V30 1629 H 166.208 0.683173 5.77775 0
M  V30 1630 H 165.088 1.89981 7.6084 0
M  V30 1631 N 162.591 -1.51276 -0.441967 0
M  V30 1632 C 163.868 -1.54252 -1.20273 0
M  V30 1633 C 164.248 -0.30408 -2.08898 0
M  V30 1634 O 163.596 0.711084 -2.17154 0
M  V30 1635 C 163.806 -2.85406 -2.00859 0
M  V30 1636 C 165.154 -3.37181 -2.58059 0
M  V30 1637 O 166.178 -2.86925 -2.11074 0
M  V30 1638 O 165.037 -4.24858 -3.43741 0
M  V30 1639 H 162.131 -0.619969 -0.547328 0
M  V30 1640 H 164.677 -1.63586 -0.451413 0
M  V30 1641 H 163.449 -3.67003 -1.35736 0
M  V30 1642 H 163.072 -2.79213 -2.83065 0
M  V30 1643 N 164.069 0.697108 -1.41344 0
M  V30 1644 C 164.999 1.82353 -1.45841 0
M  V30 1645 C 165.98 1.67115 -0.317247 0
M  V30 1646 O 167.165 1.86871 -0.528474 0
M  V30 1647 C 164.295 3.20476 -1.33838 0
M  V30 1648 C 163.249 3.50415 -2.4575 0
M  V30 1649 C 162.575 4.87878 -2.18813 0
M  V30 1650 C 163.875 3.49546 -3.88091 0
M  V30 1651 H 165.569 1.78846 -2.40113 0
M  V30 1652 H 163.115 0.859028 -1.15571 0
M  V30 1653 H 165.068 3.98988 -1.35596 0
M  V30 1654 H 163.792 3.24604 -0.360498 0
M  V30 1655 H 162.451 2.74253 -2.43271 0
M  V30 1656 H 162.099 4.8863 -1.19371 0
M  V30 1657 H 161.799 5.08875 -2.93803 0
M  V30 1658 H 163.323 5.68702 -2.22284 0
M  V30 1659 H 164.737 4.18066 -3.92293 0
M  V30 1660 H 163.134 3.82075 -4.62751 0
M  V30 1661 H 164.204 2.48552 -4.16353 0
M  V30 1662 N 165.547 1.27147 0.931209 0
M  V30 1663 C 166.958 1.12044 1.49342 0
M  V30 1664 C 167.309 -0.295795 1.93957 0
M  V30 1665 O 166.434 -1.18835 1.80852 0
M  V30 1666 C 167.029 2.02781 2.71414 0
M  V30 1667 C 165.588 1.91794 3.2387 0
M  V30 1668 C 164.735 1.95543 1.96617 0
M  V30 1669 H 167.686 1.40091 0.745672 0
M  V30 1670 H 167.707 1.58156 3.46074 0
M  V30 1671 H 167.219 3.05848 2.38911 0
M  V30 1672 H 165.32 0.916992 3.6114 0
M  V30 1673 H 165.433 2.77852 3.90302 0
M  V30 1674 H 163.797 1.39722 2.12955 0
M  V30 1675 H 164.58 3.00259 1.66432 0
M  V30 1676 N 167.025 -1.13721 1.09112 0
M  V30 1677 C 168.273 -1.84559 0.823562 0
M  V30 1678 C 168.594 -1.83754 -0.652658 0
M  V30 1679 O 167.864 -1.29102 -1.47342 0
M  V30 1680 H 166.444 -0.683376 0.301673 0
M  V30 1681 H 169.106 -1.37771 1.37859 0
M  V30 1682 H 168.202 -2.8917 1.17419 0
M  V30 1683 N 168.503 -0.877838 -1.30888 0
M  V30 1684 C 169.466 -0.344265 -2.266 0
M  V30 1685 C 170.466 0.50922 -1.52524 0
M  V30 1686 O 171.656 0.317398 -1.71284 0
M  V30 1687 C 168.788 0.510198 -3.37061 0
M  V30 1688 H 169.981 -1.1893 -2.7531 0
M  V30 1689 H 167.534 -0.654088 -1.41956 0
M  V30 1690 H 168.269 1.37612 -2.93655 0
M  V30 1691 H 168.054 -0.101047 -3.9197 0
M  V30 1692 H 169.544 0.875537 -4.08319 0
M  V30 1693 N 169.982 1.44106 -0.638065 0
M  V30 1694 C 171.23 2.01579 -0.145043 0
M  V30 1695 C 171.551 1.50496 1.24 0
M  V30 1696 O 170.821 0.711374 1.82527 0
M  V30 1697 H 169.401 0.745282 -0.05063 0
M  V30 1698 H 172.063 1.76516 -0.826327 0
M  V30 1699 H 171.159 3.11877 -0.118039 0
M  V30 1700 N 171.46 0.379036 1.52974 0
M  V30 1701 C 172.685 -0.209353 2.06341 0
M  V30 1702 C 173.11 -1.40583 1.24972 0
M  V30 1703 O 172.468 -1.79246 0.272155 0
M  V30 1704 C 172.516 -0.567786 3.56102 0
M  V30 1705 O 171.62 -1.66318 3.77375 0
M  V30 1706 H 170.961 -0.0272919 0.663439 0
M  V30 1707 H 173.491 0.543536 1.97248 0
M  V30 1708 H 173.501 -0.835003 3.99364 0
M  V30 1709 H 172.176 0.307013 4.14765 0
M  V30 1710 H 170.753 -1.39048 3.46006 0
M  V30 1711 N 172.938 -1.57226 0.108567 0
M  V30 1712 C 174.349 -1.8195 -0.418464 0
M  V30 1713 C 174.7 -1.02508 -1.67292 0
M  V30 1714 O 173.825 -0.258496 -2.14851 0
M  V30 1715 C 174.42 -3.30028 -0.765979 0
M  V30 1716 C 172.979 -3.55469 -1.23769 0
M  V30 1717 C 172.126 -2.7625 -0.241106 0
M  V30 1718 H 175.077 -1.55149 0.33384 0
M  V30 1719 H 175.098 -3.44086 -1.62434 0
M  V30 1720 H 174.61 -3.87821 0.147219 0
M  V30 1721 H 172.711 -3.03022 -2.16814 0
M  V30 1722 H 172.824 -4.6408 -1.19022 0
M  V30 1723 H 171.188 -2.44133 -0.72602 0
M  V30 1724 H 171.971 -3.36797 0.665007 0
M  V30 1725 N 174.416 0.165178 -1.56732 0
M  V30 1726 C 175.664 0.879068 -1.8198 0
M  V30 1727 C 175.985 1.82514 -0.686561 0
M  V30 1728 O 175.255 1.93694 0.293146 0
M  V30 1729 H 173.835 0.327608 -0.671329 0
M  V30 1730 H 176.497 0.163526 -1.94213 0
M  V30 1731 H 175.593 1.45228 -2.76252 0
M  V30 1732 N 175.894 1.51508 0.433938 0
M  V30 1733 C 177.134 1.66006 1.19253 0
M  V30 1734 C 177.498 0.369868 1.88404 0
M  V30 1735 O 178.699 0.39066 2.65946 0
M  V30 1736 C 176.97 2.83229 2.17981 0
M  V30 1737 S 178.529 3.18075 3.02281 0
M  V30 1738 H 175.347 0.584821 0.404358 0
M  V30 1739 H 177.949 1.89425 0.48357 0
M  V30 1740 H 176.653 3.75407 1.65824 0
M  V30 1741 H 176.184 2.6201 2.93453 0
M  V30 1742 H 178.199 2.64772 4.19655 0
M  V30 1743 N 177.372 -0.689602 1.41712 0
M  V30 1744 C 178.783 -1.26973 1.36875 0
M  V30 1745 C 179.134 -1.96124 0.054748 0
M  V30 1746 O 178.259 -1.99141 -0.84687 0
M  V30 1747 C 178.854 -2.30912 2.47922 0
M  V30 1748 C 177.413 -2.84486 2.46464 0
M  V30 1749 C 176.56 -1.58603 2.27465 0
M  V30 1750 H 179.511 -0.48396 1.51141 0
M  V30 1751 H 179.532 -3.12331 2.17323 0
M  V30 1752 H 179.044 -1.80554 3.43543 0
M  V30 1753 H 177.145 -3.39005 1.54617 0
M  V30 1754 H 177.258 -3.34511 3.42986 0
M  V30 1755 H 175.622 -1.84632 1.75451 0
M  V30 1756 H 176.405 -1.10233 3.25121 0
M  V30 1757 N 178.85 -1.27639 -0.924453 0
M  V30 1758 C 179.813 -1.10681 -2.00705 0
M  V30 1759 C 180.813 -0.0497823 -1.60723 0
M  V30 1760 O 182.003 -0.294654 -1.7169 0
M  V30 1761 C 179.135 -0.687164 -3.33902 0
M  V30 1762 H 180.328 -2.06817 -2.17179 0
M  V30 1763 H 177.881 -1.10473 -1.10569 0
M  V30 1764 H 178.616 0.275439 -3.23128 0
M  V30 1765 H 178.401 -1.45061 -3.6428 0
M  V30 1766 H 179.891 -0.590853 -4.13399 0
M  V30 1767 N 180.328 1.1314 -1.09713 0
M  V30 1768 C 181.605 1.80762 -0.747302 0
M  V30 1769 C 181.985 1.96663 0.767265 0
M  V30 1770 O 181.333 1.53706 1.69076 0
M  V30 1771 C 181.543 3.15606 -1.48975 0
M  V30 1772 C 182.891 3.90914 -1.65746 0
M  V30 1773 O 183.915 3.25239 -1.45251 0
M  V30 1774 O 182.774 5.08718 -1.9967 0
M  V30 1775 H 179.868 0.782103 -0.268782 0
M  V30 1776 H 182.414 1.20041 -1.19951 0
M  V30 1777 H 181.186 2.99278 -2.52088 0
M  V30 1778 H 180.809 3.84029 -1.02991 0
M  V30 1779 N 181.806 0.884767 1.30421 0
M  V30 1780 C 182.753 0.349642 2.28136 0
M  V30 1781 C 183.723 -0.560061 1.56373 0
M  V30 1782 O 184.908 -0.488524 1.8444 0
M  V30 1783 C 182.048 -0.42999 3.42411 0
M  V30 1784 C 181.161 0.508907 4.28992 0
M  V30 1785 C 180.296 -0.286301 5.30428 0
M  V30 1786 C 179.335 0.648079 6.08659 0
M  V30 1787 N 178.472 -0.111792 7.02011 0
M  V30 1788 H 183.312 1.18807 2.73293 0
M  V30 1789 H 180.849 0.597231 1.3443 0
M  V30 1790 H 182.807 -0.897923 4.07423 0
M  V30 1791 H 181.437 -1.23299 2.98324 0
M  V30 1792 H 180.489 1.09533 3.64289 0
M  V30 1793 H 181.801 1.22475 4.8353 0
M  V30 1794 H 180.955 -0.816098 6.01186 0
M  V30 1795 H 179.694 -1.03536 4.76583 0
M  V30 1796 H 178.699 1.18951 5.36778 0
M  V30 1797 H 179.924 1.39623 6.64592 0
M  V30 1798 H 177.87 -0.843395 6.50556 0
M  V30 1799 H 177.787 0.544429 7.54037 0
M  V30 1800 H 179.055 -0.622339 7.77012 0
M  V30 1801 N 183.284 -1.43765 0.645699 0
M  V30 1802 C 184.514 -2.05953 0.163318 0
M  V30 1803 C 184.922 -1.48432 -1.17322 0
M  V30 1804 O 184.265 -0.607295 -1.73371 0
M  V30 1805 C 184.327 -3.59499 -0.0103065 0
M  V30 1806 C 183.991 -4.39563 1.25035 0
M  V30 1807 C 184.988 -4.72108 2.17739 0
M  V30 1808 C 182.673 -4.79697 1.48983 0
M  V30 1809 C 184.667 -5.43688 3.3269 0
M  V30 1810 C 182.354 -5.51023 2.64229 0
M  V30 1811 C 183.352 -5.8294 3.55908 0
M  V30 1812 O 183.04 -6.5281 4.69142 0
M  V30 1813 H 182.772 -0.670798 0.0836986 0
M  V30 1814 H 185.326 -1.85384 0.884407 0
M  V30 1815 H 183.556 -3.78613 -0.78669 0
M  V30 1816 H 185.245 -4.03408 -0.449087 0
M  V30 1817 H 186.011 -4.41627 2.00476 0
M  V30 1818 H 181.89 -4.54266 0.785078 0
M  V30 1819 H 185.434 -5.68517 4.04269 0
M  V30 1820 H 181.331 -5.8092 2.81429 0
M  V30 1821 H 182.099 -6.71288 4.6831 0
M  V30 1822 N 184.763 -0.387143 -1.52771 0
M  V30 1823 C 185.693 0.440551 -2.29306 0
M  V30 1824 C 186.674 1.06535 -1.32606 0
M  V30 1825 O 187.859 1.07853 -1.61497 0
M  V30 1826 C 184.989 1.56919 -3.09829 0
M  V30 1827 C 183.943 1.07054 -4.14395 0
M  V30 1828 C 183.269 2.29109 -4.83129 0
M  V30 1829 C 184.569 0.140015 -5.22112 0
M  V30 1830 H 186.263 -0.198026 -2.98744 0
M  V30 1831 H 183.809 -0.09668 -1.43675 0
M  V30 1832 H 185.762 2.15503 -3.62128 0
M  V30 1833 H 184.486 2.23532 -2.3812 0
M  V30 1834 H 183.145 0.507247 -3.63074 0
M  V30 1835 H 182.793 2.94227 -4.0797 0
M  V30 1836 H 182.493 1.96406 -5.53804 0
M  V30 1837 H 184.017 2.88339 -5.38231 0
M  V30 1838 H 185.431 0.633978 -5.69784 0
M  V30 1839 H 183.828 -0.0971485 -6.00021 0
M  V30 1840 H 184.898 -0.811711 -4.78058 0
M  V30 1841 N 186.241 1.57166 -0.116904 0
M  V30 1842 C 187.188 2.15202 0.83408 0
M  V30 1843 C 188.158 1.07644 1.26499 0
M  V30 1844 O 189.343 1.35541 1.34288 0
M  V30 1845 C 186.483 2.75405 2.07957 0
M  V30 1846 C 185.596 3.97264 1.69721 0
M  V30 1847 C 184.731 4.45561 2.89221 0
M  V30 1848 C 183.77 5.59956 2.47215 0
M  V30 1849 N 182.907 6.03006 3.59622 0
M  V30 1850 H 187.747 2.96141 0.332335 0
M  V30 1851 H 185.284 1.46309 0.152349 0
M  V30 1852 H 187.242 3.08439 2.80929 0
M  V30 1853 H 185.872 1.97159 2.55594 0
M  V30 1854 H 184.924 3.70404 0.866316 0
M  V30 1855 H 186.236 4.80226 1.34849 0
M  V30 1856 H 185.39 4.80493 3.7042 0
M  V30 1857 H 184.129 3.61544 3.27318 0
M  V30 1858 H 183.134 5.2463 1.64448 0
M  V30 1859 H 184.359 6.45738 2.10238 0
M  V30 1860 H 182.305 5.21931 3.97396 0
M  V30 1861 H 182.222 6.80819 3.28667 0
M  V30 1862 H 183.49 6.42576 4.41267 0
M  V30 1863 N 187.719 -0.156864 1.56817 0
M  V30 1864 C 188.651 -1.21883 1.94106 0
M  V30 1865 C 189.664 -1.3971 0.835754 0
M  V30 1866 O 190.853 -1.39457 1.11418 0
M  V30 1867 C 187.953 -2.58527 2.19127 0
M  V30 1868 C 187.126 -2.61809 3.50393 0
M  V30 1869 C 186.185 -3.7992 3.64071 0
M  V30 1870 O 185.211 -3.65249 4.36557 0
M  V30 1871 N 186.413 -4.96973 2.99997 0
M  V30 1872 H 189.178 -0.901974 2.85805 0
M  V30 1873 H 186.739 -0.346513 1.58148 0
M  V30 1874 H 188.731 -3.36034 2.25529 0
M  V30 1875 H 187.301 -2.82545 1.33742 0
M  V30 1876 H 186.521 -1.7029 3.5552 0
M  V30 1877 H 187.809 -2.61024 4.36742 0
M  V30 1878 H 187.207 -5.11794 2.41004 0
M  V30 1879 H 185.764 -5.7229 3.11974 0
M  V30 1880 N 189.197 -1.51736 -0.425897 0
M  V30 1881 C 190.443 -1.65214 -1.1761 0
M  V30 1882 C 190.776 -0.372778 -1.90589 0
M  V30 1883 O 190.051 0.628139 -1.84078 0
M  V30 1884 C 190.334 -2.86312 -2.18398 0
M  V30 1885 C 190.187 -4.24254 -1.49426 0
M  V30 1886 C 191.506 -3.02925 -3.19256 0
M  V30 1887 H 188.625 -0.601263 -0.426206 0
M  V30 1888 H 191.267 -1.8425 -0.463882 0
M  V30 1889 H 189.417 -2.70213 -2.79137 0
M  V30 1890 H 191.089 -4.52046 -0.919362 0
M  V30 1891 H 189.332 -4.26426 -0.796432 0
M  V30 1892 H 190.003 -5.05001 -2.22885 0
M  V30 1893 H 192.479 -3.1781 -2.68581 0
M  V30 1894 H 191.355 -3.89199 -3.8706 0
M  V30 1895 H 191.616 -2.15497 -3.86023 0
M  V30 1896 N 190.675 0.682077 -1.42076 0
M  V30 1897 C 191.952 1.43755 -1.32642 0
M  V30 1898 C 192.332 2.11063 0.0396611 0
M  V30 1899 O 191.68 2.02701 1.05474 0
M  V30 1900 C 191.89 2.44596 -2.48946 0
M  V30 1901 C 193.238 3.09454 -2.9073 0
M  V30 1902 O 194.262 2.54922 -2.48783 0
M  V30 1903 O 193.121 4.08253 -3.63307 0
M  V30 1904 H 190.215 0.640857 -0.522715 0
M  V30 1905 H 192.761 0.711415 -1.54068 0
M  V30 1906 H 191.533 1.93609 -3.40046 0
M  V30 1907 H 191.156 3.24701 -2.29467 0
M  V30 1908 N 192.153 1.28127 0.917671 0
M  V30 1909 C 193.4 1.15052 1.66641 0
M  V30 1910 C 193.728 -0.301677 1.92146 0
M  V30 1911 O 192.983 -1.23622 1.51711 0
M  V30 1912 C 193.282 1.89018 3.03327 0
M  V30 1913 C 192.948 3.38832 2.97496 0
M  V30 1914 C 191.61 3.79693 2.95613 0
M  V30 1915 C 193.962 4.34378 2.88036 0
M  V30 1916 C 191.29 5.14447 2.82066 0
M  V30 1917 C 193.642 5.69201 2.7603 0
M  V30 1918 C 192.306 6.09343 2.72502 0
M  V30 1919 H 191.576 0.421006 0.609783 0
M  V30 1920 H 194.223 1.58855 1.06945 0
M  V30 1921 H 192.528 1.37752 3.66785 0
M  V30 1922 H 194.225 1.76321 3.60156 0
M  V30 1923 H 190.815 3.06342 2.99754 0
M  V30 1924 H 194.999 4.03775 2.88581 0
M  V30 1925 H 190.255 5.44681 2.77728 0
M  V30 1926 H 194.429 6.42901 2.67678 0
M  V30 1927 H 192.056 7.13712 2.61762 0
M  V30 1928 N 193.631 -1.12557 1.10312 0
M  V30 1929 C 194.856 -1.88405 0.867085 0
M  V30 1930 C 195.281 -1.79038 -0.576817 0
M  V30 1931 O 194.639 -1.14439 -1.40618 0
M  V30 1932 C 194.687 -3.3563 1.31851 0
M  V30 1933 O 193.791 -4.09565 0.482734 0
M  V30 1934 H 193.132 -0.585455 0.313271 0
M  V30 1935 H 195.662 -1.42352 1.4696 0
M  V30 1936 H 195.672 -3.86469 1.3079 0
M  V30 1937 H 194.347 -3.41765 2.37001 0
M  V30 1938 H 192.924 -3.68695 0.558448 0
M  V30 1939 N 195.109 -0.891671 -1.2995 0
M  V30 1940 C 196.525 -0.58662 -1.48428 0
M  V30 1941 C 196.725 0.873951 -1.81561 0
M  V30 1942 O 195.781 1.65471 -1.90724 0
M  V30 1943 C 197.094 -1.50553 -2.60296 0
M  V30 1944 C 198.642 -1.50988 -2.74175 0
M  V30 1945 C 199.117 -2.41488 -3.89163 0
M  V30 1946 N 200.608 -2.39489 -3.96483 0
M  V30 1947 C 201.343 -3.06223 -4.84784 0
M  V30 1948 N 200.839 -3.82206 -5.77833 0
M  V30 1949 N 202.632 -2.95421 -4.78208 0
M  V30 1950 H 194.783 -1.83644 -1.06718 0
M  V30 1951 H 197.046 -0.786455 -0.529332 0
M  V30 1952 H 196.752 -2.54581 -2.42654 0
M  V30 1953 H 196.626 -1.22008 -3.56923 0
M  V30 1954 H 199.013 -0.47708 -2.91218 0
M  V30 1955 H 199.094 -1.83567 -1.78148 0
M  V30 1956 H 198.738 -3.44857 -3.72876 0
M  V30 1957 H 198.668 -2.06222 -4.84541 0
M  V30 1958 H 201.159 -1.84278 -3.29924 0
M  V30 1959 H 201.472 -4.302 -6.41988 0
M  V30 1960 H 199.817 -3.86313 -5.77743 0
M  V30 1961 H 203.008 -2.35581 -4.04499 0
M  V30 1962 H 203.181 -3.47704 -5.46814 0
M  V30 1963 N 196.587 1.43421 -0.653314 0
M  V30 1964 C 197.817 2.05864 -0.174238 0
M  V30 1965 C 198.225 1.49052 1.16534 0
M  V30 1966 O 197.568 0.616481 1.73047 0
M  V30 1967 C 197.63 3.59499 -0.00875873 0
M  V30 1968 C 197.294 4.38893 -1.27364 0
M  V30 1969 C 198.291 4.70947 -2.20239 0
M  V30 1970 C 195.976 4.789 -1.51525 0
M  V30 1971 C 197.97 5.41916 -3.35568 0
M  V30 1972 C 195.657 5.49614 -2.67147 0
M  V30 1973 C 196.655 5.81044 -3.58994 0
M  V30 1974 O 196.343 6.50313 -4.72597 0
M  V30 1975 H 196.075 0.670345 -0.0872549 0
M  V30 1976 H 198.629 1.84913 -0.894226 0
M  V30 1977 H 196.859 3.79025 0.7666 0
M  V30 1978 H 198.548 4.0364 0.427687 0
M  V30 1979 H 199.314 4.40558 -2.02815 0
M  V30 1980 H 195.193 4.53843 -0.809158 0
M  V30 1981 H 198.737 5.66365 -4.07279 0
M  V30 1982 H 194.634 5.79419 -2.84505 0
M  V30 1983 H 195.402 6.68795 -4.71864 0
M  V30 1984 N 198.065 0.39524 1.52563 0
M  V30 1985 C 199.342 -0.242908 1.94086 0
M  V30 1986 C 199.722 -1.63841 1.33114 0
M  V30 1987 O 199.07 -2.22928 0.501529 0
M  V30 1988 C 199.28 -0.26327 3.48006 0
M  V30 1989 C 200.628 -0.489354 4.21771 0
M  V30 1990 O 201.652 -0.343226 3.54543 0
M  V30 1991 O 200.511 -0.776169 5.4096 0
M  V30 1992 H 197.605 -0.152536 0.812811 0
M  V30 1993 H 200.151 0.450178 1.6362 0
M  V30 1994 H 198.923 0.713985 3.84731 0
M  V30 1995 H 198.546 -1.00103 3.84792 0
M  V30 1996 N 199.544 -1.57102 0.125237 0
M  V30 1997 C 200.791 -1.95407 -0.531248 0
M  V30 1998 C 201.119 -1.0089 -1.66287 0
M  V30 1999 O 200.374 -0.0339431 -1.95671 0
M  V30 2000 C 200.673 -3.40096 -1.09862 0
M  V30 2001 C 200.339 -4.50815 -0.0876989 0
M  V30 2002 C 199.001 -4.80824 0.19026 0
M  V30 2003 C 201.353 -5.17724 0.600902 0
M  V30 2004 C 198.681 -5.75058 1.163 0
M  V30 2005 C 201.033 -6.13005 1.56231 0
M  V30 2006 C 199.697 -6.41403 1.8482 0
M  V30 2007 H 198.967 -0.715046 -0.194397 0
M  V30 2008 H 201.614 -1.90373 0.207463 0
M  V30 2009 H 199.919 -3.41855 -1.91422 0
M  V30 2010 H 201.616 -3.6705 -1.61478 0
M  V30 2011 H 198.206 -4.27444 -0.314528 0
M  V30 2012 H 202.39 -4.94691 0.399333 0
M  V30 2013 H 197.646 -5.95362 1.39117 0
M  V30 2014 H 201.82 -6.63934 2.10153 0
M  V30 2015 H 199.447 -7.14229 2.60349 0
M  V30 2016 N 201.022 0.148545 -1.56898 0
M  V30 2017 C 202.269 0.861418 -1.83264 0
M  V30 2018 C 202.597 1.81239 -0.705883 0
M  V30 2019 O 201.852 1.93305 0.305212 0
M  V30 2020 C 202.151 1.67064 -3.1595 0
M  V30 2021 C 201.817 0.866591 -4.42494 0
M  V30 2022 C 200.479 0.644762 -4.76861 0
M  V30 2023 C 202.831 0.30418 -5.20312 0
M  V30 2024 C 200.159 -0.15021 -5.86508 0
M  V30 2025 C 202.511 -0.477824 -6.30793 0
M  V30 2026 C 201.175 -0.710244 -6.63711 0
M  V30 2027 H 200.445 0.315215 -0.670612 0
M  V30 2028 H 203.092 0.125142 -1.91091 0
M  V30 2029 H 201.397 2.47698 -3.03567 0
M  V30 2030 H 203.094 2.22566 -3.33565 0
M  V30 2031 H 199.684 1.04955 -4.15551 0
M  V30 2032 H 203.868 0.462844 -4.94137 0
M  V30 2033 H 199.124 -0.339796 -6.10455 0
M  V30 2034 H 203.298 -0.92076 -6.90286 0
M  V30 2035 H 200.925 -1.3281 -7.48509 0
M  V30 2036 N 202.5 1.5196 0.417844 0
M  V30 2037 C 203.43 1.77634 1.51554 0
M  V30 2038 C 204.411 0.626918 1.58126 0
M  V30 2039 O 205.596 0.871632 1.7354 0
M  V30 2040 C 202.726 1.91911 2.8946 0
M  V30 2041 C 201.68 3.07463 2.97743 0
M  V30 2042 C 201.006 3.06951 4.37819 0
M  V30 2043 C 202.306 4.47082 2.70027 0
M  V30 2044 H 204 2.6955 1.3032 0
M  V30 2045 H 201.546 1.29706 0.625492 0
M  V30 2046 H 203.499 2.08455 3.6623 0
M  V30 2047 H 202.223 0.966598 3.11969 0
M  V30 2048 H 200.882 2.90656 2.23416 0
M  V30 2049 H 200.53 2.09438 4.57323 0
M  V30 2050 H 200.23 3.84556 4.44286 0
M  V30 2051 H 201.754 3.25613 5.16535 0
M  V30 2052 H 203.168 4.6414 3.36522 0
M  V30 2053 H 201.565 5.2654 2.87881 0
M  V30 2054 H 202.635 4.55777 1.65514 0
M  V30 2055 N 203.978 -0.674533 1.42435 0
M  V30 2056 C 204.908 -1.80009 1.48724 0
M  V30 2057 C 205.889 -1.6659 0.343793 0
M  V30 2058 O 207.074 -1.86007 0.558137 0
M  V30 2059 C 204.204 -3.18306 1.38919 0
M  V30 2060 C 203.158 -3.46461 2.51294 0
M  V30 2061 C 202.484 -4.84335 2.26547 0
M  V30 2062 C 203.784 -3.43328 3.93603 0
M  V30 2063 H 205.478 -1.75004 2.42928 0
M  V30 2064 H 203.024 -0.840533 1.16923 0
M  V30 2065 H 204.977 -3.9678 1.41927 0
M  V30 2066 H 203.701 -3.2399 0.412094 0
M  V30 2067 H 202.36 -2.70348 2.47604 0
M  V30 2068 H 202.008 -4.86669 1.2713 0
M  V30 2069 H 201.708 -5.04136 3.01861 0
M  V30 2070 H 203.232 -5.65094 2.31304 0
M  V30 2071 H 204.646 -4.11772 3.98894 0
M  V30 2072 H 203.043 -3.74664 4.68771 0
M  V30 2073 H 204.113 -2.41897 4.20255 0
M  V30 2074 N 205.456 -1.28612 -0.910864 0
M  V30 2075 C 206.702 -1.16106 -1.66274 0
M  V30 2076 C 207.035 0.289113 -1.92036 0
M  V30 2077 O 206.31 1.21 -1.52281 0
M  V30 2078 C 206.593 -1.96309 -3.01885 0
M  V30 2079 C 206.446 -3.49405 -2.8326 0
M  V30 2080 C 207.765 -1.78076 -4.02463 0
M  V30 2081 H 204.884 -0.423152 -0.603417 0
M  V30 2082 H 207.526 -1.57961 -1.05586 0
M  V30 2083 H 205.676 -1.60742 -3.53687 0
M  V30 2084 H 207.348 -3.94894 -2.38446 0
M  V30 2085 H 205.591 -3.74893 -2.18261 0
M  V30 2086 H 206.262 -4.00784 -3.79574 0
M  V30 2087 H 208.738 -2.0912 -3.59733 0
M  V30 2088 H 207.614 -2.36561 -4.95308 0
M  V30 2089 H 207.875 -0.733008 -4.35981 0
M  V30 2090 N 206.934 1.1197 -1.10907 0
M  V30 2091 C 208.159 1.87942 -0.877064 0
M  V30 2092 C 208.584 1.79341 0.567314 0
M  V30 2093 O 207.942 1.15184 1.40009 0
M  V30 2094 C 207.99 3.34926 -1.33629 0
M  V30 2095 O 207.094 4.09303 -0.504447 0
M  V30 2096 H 206.435 0.583785 -0.316371 0
M  V30 2097 H 208.965 1.4157 -1.47712 0
M  V30 2098 H 208.975 3.8577 -1.32837 0
M  V30 2099 H 207.65 3.40504 -2.3881 0
M  V30 2100 H 206.227 3.68393 -0.577993 0
M  V30 2101 N 208.412 0.89855 1.29475 0
M  V30 2102 C 209.823 0.572537 1.77705 0
M  V30 2103 C 210.174 -0.911778 1.73727 0
M  V30 2104 O 209.299 -1.71288 1.32247 0
M  V30 2105 C 209.894 1.03252 3.22683 0
M  V30 2106 C 208.453 0.757687 3.68695 0
M  V30 2107 C 207.6 1.20787 2.49612 0
M  V30 2108 H 210.551 1.08139 1.16153 0
M  V30 2109 H 210.572 0.367307 3.78723 0
M  V30 2110 H 210.084 2.11285 3.25546 0
M  V30 2111 H 208.185 -0.310079 3.71308 0
M  V30 2112 H 208.298 1.35476 4.59547 0
M  V30 2113 H 206.662 0.626888 2.46865 0
M  V30 2114 H 207.445 2.29622 2.55203 0
M  V30 2115 N 209.89 -1.43072 0.660911 0
M  V30 2116 C 211.306 -1.56169 0.329173 0
M  V30 2117 C 211.506 -1.64317 -1.16629 0
M  V30 2118 O 210.562 -1.60245 -1.95135 0
M  V30 2119 C 211.875 -2.81873 1.04729 0
M  V30 2120 C 213.423 -2.95627 1.02828 0
M  V30 2121 C 213.898 -4.24174 1.72744 0
M  V30 2122 N 215.389 -4.31055 1.69545 0
M  V30 2123 C 216.124 -5.29304 2.20511 0
M  V30 2124 N 215.62 -6.33786 2.79799 0
M  V30 2125 N 217.413 -5.21008 2.10966 0
M  V30 2126 H 209.564 -1.36027 1.63127 0
M  V30 2127 H 211.827 -0.653823 0.686454 0
M  V30 2128 H 211.533 -2.81942 2.10242 0
M  V30 2129 H 211.407 -3.72338 0.603702 0
M  V30 2130 H 213.794 -2.95094 -0.0184742 0
M  V30 2131 H 213.875 -2.06431 1.51063 0
M  V30 2132 H 213.519 -4.25467 2.7738 0
M  V30 2133 H 213.449 -5.1228 1.2197 0
M  V30 2134 H 215.94 -3.56174 1.26288 0
M  V30 2135 H 216.253 -7.05086 3.16344 0
M  V30 2136 H 214.598 -6.34387 2.83863 0
M  V30 2137 H 217.789 -4.38301 1.64347 0
M  V30 2138 H 217.962 -5.97416 2.50993 0
M  V30 2139 N 211.368 -0.403325 -1.52352 0
M  V30 2140 C 212.784 -0.0539281 -1.59509 0
M  V30 2141 C 212.984 1.43307 -1.41652 0
M  V30 2142 O 212.04 2.19924 -1.24056 0
M  V30 2143 C 213.353 -0.543654 -2.95745 0
M  V30 2144 C 214.901 -0.501125 -3.08962 0
M  V30 2145 C 215.376 -0.967267 -4.47669 0
M  V30 2146 N 216.867 -0.923849 -4.53893 0
M  V30 2147 C 217.602 -1.25578 -5.5948 0
M  V30 2148 N 217.098 -1.65889 -6.72646 0
M  V30 2149 N 218.891 -1.17613 -5.49658 0
M  V30 2150 H 211.042 -1.37123 -1.62206 0
M  V30 2151 H 213.305 -0.56294 -0.76276 0
M  V30 2152 H 213.011 -1.58275 -3.14073 0
M  V30 2153 H 212.885 0.0498042 -3.77167 0
M  V30 2154 H 215.272 0.528909 -2.90321 0
M  V30 2155 H 215.353 -1.13056 -2.2946 0
M  V30 2156 H 214.997 -1.9956 -4.67053 0
M  V30 2157 H 214.927 -0.314698 -5.25659 0
M  V30 2158 H 217.418 -0.627403 -3.72655 0
M  V30 2159 H 217.731 -1.89543 -7.49195 0
M  V30 2160 H 216.076 -1.69787 -6.73942 0
M  V30 2161 H 219.267 -0.860115 -4.6013 0
M  V30 2162 H 219.44 -1.43812 -6.3184 0
M  V30 2163 N 212.846 1.57033 -0.133567 0
M  V30 2164 C 214.086 1.97575 0.523789 0
M  V30 2165 C 214.45 1.01605 1.62912 0
M  V30 2166 O 215.651 1.3114 2.3464 0
M  V30 2167 C 213.922 3.42256 1.02935 0
M  V30 2168 S 215.481 4.04817 1.69319 0
M  V30 2169 H 212.299 0.690427 0.169799 0
M  V30 2170 H 214.901 1.94234 -0.222101 0
M  V30 2171 H 213.605 4.09842 0.213917 0
M  V30 2172 H 213.136 3.4928 1.81017 0
M  V30 2173 H 215.151 3.96767 2.97977 0
M  V30 2174 N 214.325 -0.140222 1.56975 0
M  V30 2175 C 215.573 -0.850005 1.83356 0
M  V30 2176 C 215.894 -1.81399 0.71551 0
M  V30 2177 O 215.164 -1.94136 -0.262294 0
M  V30 2178 H 213.744 -0.316886 0.676456 0
M  V30 2179 H 216.406 -0.132608 1.94448 0
M  V30 2180 H 215.502 -1.40814 2.78528 0
M  V30 2181 N 215.803 -1.52179 -0.40978 0
M  V30 2182 C 216.766 -1.74853 -1.48186 0
M  V30 2183 C 217.766 -0.618417 -1.48433 0
M  V30 2184 O 218.956 -0.886286 -1.49969 0
M  V30 2185 C 216.088 -1.8303 -2.87598 0
M  V30 2186 H 217.281 -2.70559 -1.29374 0
M  V30 2187 H 214.834 -1.42586 -0.640233 0
M  V30 2188 H 215.569 -0.89236 -3.11781 0
M  V30 2189 H 215.354 -2.65187 -2.88822 0
M  V30 2190 H 216.844 -2.02316 -3.65319 0
M  V30 2191 N 217.281 0.66697 -1.42791 0
M  V30 2192 C 218.527 1.4291 -1.43891 0
M  V30 2193 C 218.86 1.94114 -0.0578972 0
M  V30 2194 O 218.135 1.71414 0.91911 0
M  V30 2195 C 218.418 2.62049 -2.46987 0
M  V30 2196 C 218.271 2.16426 -3.94309 0
M  V30 2197 C 219.59 3.64266 -2.46978 0
M  V30 2198 H 216.709 0.518306 -0.523954 0
M  V30 2199 H 219.351 0.757321 -1.74255 0
M  V30 2200 H 217.501 3.19361 -2.21225 0
M  V30 2201 H 219.173 1.64221 -4.31079 0
M  V30 2202 H 217.416 1.47925 -4.078 0
M  V30 2203 H 218.087 3.02038 -4.62036 0
M  V30 2204 H 220.563 3.16686 -2.69906 0
M  V30 2205 H 219.439 4.45196 -3.21079 0
M  V30 2206 H 219.7 4.15927 -1.49857 0
M  V30 2207 N 218.759 1.29093 0.90403 0
M  V30 2208 C 219.669 1.15727 2.0407 0
M  V30 2209 C 220.685 0.0815308 1.73809 0
M  V30 2210 O 221.861 0.292749 1.99261 0
M  V30 2211 C 218.926 0.830424 3.36608 0
M  V30 2212 C 217.987 1.98955 3.80415 0
M  V30 2213 C 217.22 1.6782 5.06628 0
M  V30 2214 O 217.443 0.597105 5.67266 0
M  V30 2215 O 216.377 2.52486 5.46383 0
M  V30 2216 H 220.203 2.11171 2.18267 0
M  V30 2217 H 217.788 1.08504 1.027 0
M  V30 2218 H 219.67 0.662521 4.16159 0
M  V30 2219 H 218.345 -0.0942678 3.23563 0
M  V30 2220 H 217.252 2.21267 3.01648 0
M  V30 2221 H 218.585 2.89529 3.98037 0
M  V30 2222 N 220.237 -1.11381 1.11499 0
M  V30 2223 C 221.465 -1.86934 0.88675 0
M  V30 2224 C 221.88 -1.80195 -0.563476 0
M  V30 2225 O 221.237 -1.18367 -1.38908 0
M  V30 2226 C 221.288 -3.35722 1.34064 0
M  V30 2227 O 221.009 -3.4232 2.73401 0
M  V30 2228 C 222.51 -4.2818 1.14791 0
M  V30 2229 H 219.73 -0.591117 0.317523 0
M  V30 2230 H 222.274 -1.40865 1.48248 0
M  V30 2231 H 220.429 -3.79294 0.788355 0
M  V30 2232 H 220.843 -4.34971 2.93087 0
M  V30 2233 H 222.317 -5.30817 1.5145 0
M  V30 2234 H 222.794 -4.39113 0.0875279 0
M  V30 2235 H 223.4 -3.90402 1.68721 0
M  V30 2236 N 221.715 -0.905404 -1.28997 0
M  V30 2237 C 223.131 -0.60233 -1.47798 0
M  V30 2238 C 223.331 0.854645 -1.82478 0
M  V30 2239 O 222.387 1.63439 -1.92468 0
M  V30 2240 C 223.7 -1.53306 -2.58685 0
M  V30 2241 C 225.248 -1.53887 -2.72558 0
M  V30 2242 C 225.723 -2.45602 -3.86579 0
M  V30 2243 N 227.214 -2.43681 -3.93921 0
M  V30 2244 C 227.949 -3.11347 -4.81509 0
M  V30 2245 N 227.445 -3.88313 -5.73746 0
M  V30 2246 N 229.238 -3.00476 -4.75048 0
M  V30 2247 H 221.389 -1.84765 -1.04764 0
M  V30 2248 H 223.652 -0.792025 -0.520961 0
M  V30 2249 H 223.358 -2.57141 -2.39941 0
M  V30 2250 H 223.232 -1.25787 -3.55609 0
M  V30 2251 H 225.619 -0.507941 -2.90696 0
M  V30 2252 H 225.7 -1.85447 -1.76191 0
M  V30 2253 H 225.344 -3.48792 -3.69197 0
M  V30 2254 H 225.274 -2.11349 -4.82327 0
M  V30 2255 H 227.765 -1.87767 -3.27951 0
M  V30 2256 H 228.078 -4.36985 -6.37389 0
M  V30 2257 H 226.423 -3.92419 -5.73614 0
M  V30 2258 H 229.614 -2.39858 -4.01977 0
M  V30 2259 H 229.787 -3.53485 -5.43095 0
M  V30 2260 N 223.193 1.4272 -0.668489 0
M  V30 2261 C 224.123 2.335 -0.000100175 0
M  V30 2262 C 225.104 1.50328 0.795964 0
M  V30 2263 O 226.289 1.78949 0.754385 0
M  V30 2264 C 223.419 3.33874 0.956302 0
M  V30 2265 C 222.373 4.27152 0.269278 0
M  V30 2266 C 221.699 5.17684 1.33818 0
M  V30 2267 C 222.999 5.15373 -0.847805 0
M  V30 2268 H 224.693 2.89639 -0.758244 0
M  V30 2269 H 222.239 1.39269 -0.366079 0
M  V30 2270 H 224.192 3.9629 1.43292 0
M  V30 2271 H 222.916 2.76025 1.74579 0
M  V30 2272 H 221.575 3.66123 -0.187042 0
M  V30 2273 H 221.223 4.56165 2.1195 0
M  V30 2274 H 220.923 5.80918 0.883659 0
M  V30 2275 H 222.447 5.82974 1.81586 0
M  V30 2276 H 223.861 5.7151 -0.452681 0
M  V30 2277 H 222.258 5.87407 -1.22773 0
M  V30 2278 H 223.328 4.5415 -1.69929 0
M  V30 2279 N 224.671 0.411399 1.52136 0
M  V30 2280 C 225.634 -0.401089 2.25663 0
M  V30 2281 C 226.634 -0.971732 1.28117 0
M  V30 2282 O 227.824 -0.850254 1.52041 0
M  V30 2283 C 224.956 -1.56483 3.02863 0
M  V30 2284 H 226.149 0.24295 2.98914 0
M  V30 2285 H 223.702 0.163968 1.55438 0
M  V30 2286 H 224.437 -2.24567 2.33967 0
M  V30 2287 H 224.222 -1.16211 3.74483 0
M  V30 2288 H 225.712 -2.13951 3.58629 0
M  V30 2289 N 226.149 -1.5696 0.141893 0
M  V30 2290 C 227.112 -2.15316 -0.785587 0
M  V30 2291 C 228.112 -1.09366 -1.1788 0
M  V30 2292 O 229.302 -1.35031 -1.10056 0
M  V30 2293 C 226.434 -2.71211 -2.06537 0
M  V30 2294 H 227.627 -2.98608 -0.278041 0
M  V30 2295 H 225.18 -1.5593 -0.107519 0
M  V30 2296 H 225.915 -1.91571 -2.6167 0
M  V30 2297 H 225.7 -3.4872 -1.79268 0
M  V30 2298 H 227.19 -3.16189 -2.72789 0
M  V30 2299 N 227.627 0.131896 -1.57047 0
M  V30 2300 C 228.537 1.1815 -2.02676 0
M  V30 2301 C 229.553 1.46113 -0.944824 0
M  V30 2302 O 230.729 1.57485 -1.25541 0
M  V30 2303 C 227.794 2.49139 -2.41103 0
M  V30 2304 C 226.855 2.28688 -3.63318 0
M  V30 2305 C 226.088 3.53431 -3.99903 0
M  V30 2306 O 226.311 4.60223 -3.36973 0
M  V30 2307 O 225.245 3.45198 -4.93074 0
M  V30 2308 H 229.071 0.824069 -2.92306 0
M  V30 2309 H 226.656 0.341745 -1.45439 0
M  V30 2310 H 228.538 3.26338 -2.66611 0
M  V30 2311 H 227.213 2.84382 -1.54624 0
M  V30 2312 H 226.12 1.4939 -3.42977 0
M  V30 2313 H 227.453 1.98355 -4.50462 0
M  V30 2314 N 229.106 1.52395 0.401703 0
M  V30 2315 C 230.355 1.66044 1.14509 0
M  V30 2316 C 230.668 0.400216 1.91462 0
M  V30 2317 O 231.874 0.416632 2.68284 0
M  V30 2318 C 230.33 2.93388 2.0845 0
M  V30 2319 C 229.938 4.26545 1.36978 0
M  V30 2320 C 231.682 3.16402 2.83001 0
M  V30 2321 C 229.589 5.45007 2.29611 0
M  V30 2322 H 228.519 0.618562 0.431158 0
M  V30 2323 H 231.17 1.78886 0.40892 0
M  V30 2324 H 229.552 2.74263 2.8565 0
M  V30 2325 H 230.726 4.56179 0.650916 0
M  V30 2326 H 229.041 4.09692 0.74438 0
M  V30 2327 H 231.638 4.02085 3.52465 0
M  V30 2328 H 231.981 2.30943 3.46368 0
M  V30 2329 H 232.514 3.36034 2.12898 0
M  V30 2330 H 229.253 6.32835 1.70879 0
M  V30 2331 H 228.773 5.19702 2.9945 0
M  V30 2332 H 230.452 5.7838 2.89974 0
M  V30 2333 N 230.584 -0.659388 1.43143 0
M  V30 2334 C 231.514 -1.78422 1.50625 0
M  V30 2335 C 232.495 -1.66216 0.361443 0
M  V30 2336 O 233.68 -1.85404 0.577834 0
M  V30 2337 C 230.81 -3.16815 1.42287 0
M  V30 2338 C 229.764 -3.43777 2.54954 0
M  V30 2339 C 229.09 -4.81905 2.31671 0
M  V30 2340 C 230.39 -3.39134 3.97222 0
M  V30 2341 H 232.084 -1.72417 2.44771 0
M  V30 2342 H 229.63 -0.828084 1.17808 0
M  V30 2343 H 231.583 -3.95253 1.46127 0
M  V30 2344 H 230.307 -3.23534 0.446435 0
M  V30 2345 H 228.966 -2.67707 2.50457 0
M  V30 2346 H 228.614 -4.85294 1.32284 0
M  V30 2347 H 228.314 -5.00906 3.07192 0
M  V30 2348 H 229.838 -5.62609 2.37284 0
M  V30 2349 H 231.252 -4.07518 4.03239 0
M  V30 2350 H 229.649 -3.69671 4.72719 0
M  V30 2351 H 230.719 -2.37426 4.22797 0
M  V30 2352 N 232.062 -1.29571 -0.897171 0
M  V30 2353 C 233.302 -1.18959 -1.66217 0
M  V30 2354 C 233.666 0.254271 -1.90309 0
M  V30 2355 O 234.867 0.483407 -2.64417 0
M  V30 2356 C 233.138 -1.98302 -2.9734 0
M  V30 2357 S 234.697 -2.04253 -3.88364 0
M  V30 2358 H 231.515 -0.424137 -0.570639 0
M  V30 2359 H 234.117 -1.6389 -1.06585 0
M  V30 2360 H 232.821 -3.02342 -2.77521 0
M  V30 2361 H 232.352 -1.53986 -3.62011 0
M  V30 2362 H 234.367 -1.16105 -4.82425 0
M  V30 2363 N 233.54 1.10788 -1.12088 0
M  V30 2364 C 234.472 2.16816 -0.743213 0
M  V30 2365 C 235.485 1.6119 0.228412 0
M  V30 2366 O 236.674 1.78497 0.0102931 0
M  V30 2367 C 233.774 3.38809 -0.0787313 0
M  V30 2368 C 232.947 4.23885 -1.0789 0
M  V30 2369 C 232.006 5.24334 -0.442713 0
M  V30 2370 O 231.032 5.58497 -1.09864 0
M  V30 2371 N 232.234 5.75079 0.791457 0
M  V30 2372 H 234.999 2.49825 -1.65552 0
M  V30 2373 H 232.56 1.26373 -1.012 0
M  V30 2374 H 234.552 4.03107 0.358766 0
M  V30 2375 H 233.122 3.03805 0.736275 0
M  V30 2376 H 232.342 3.55939 -1.69414 0
M  V30 2377 H 233.63 4.77562 -1.75533 0
M  V30 2378 H 233.028 5.49517 1.3434 0
M  V30 2379 H 231.585 6.4118 1.17183 0
M  V30 2380 N 235.018 0.912232 1.28515 0
M  V30 2381 C 236.266 0.543523 1.94654 0
M  V30 2382 C 236.587 -0.9155 1.72173 0
M  V30 2383 O 235.857 -1.64708 1.06058 0
M  V30 2384 H 234.437 0.198017 0.720277 0
M  V30 2385 H 237.099 1.16126 1.56527 0
M  V30 2386 H 236.195 0.736684 3.03281 0
M  V30 2387 N 236.496 -1.42363 0.676048 0
M  V30 2388 C 237.443 -2.308 -0.00150904 0
M  V30 2389 C 238.413 -1.46032 -0.791444 0
M  V30 2390 O 239.598 -1.74861 -0.76344 0
M  V30 2391 C 236.738 -3.31883 -0.945919 0
M  V30 2392 C 235.851 -4.31741 -0.149675 0
M  V30 2393 C 234.986 -5.19898 -1.08995 0
M  V30 2394 C 234.025 -6.11434 -0.285465 0
M  V30 2395 N 233.162 -6.92138 -1.17851 0
M  V30 2396 H 238.002 -2.88187 0.758455 0
M  V30 2397 H 235.539 -1.41952 0.38576 0
M  V30 2398 H 237.497 -3.89019 -1.50731 0
M  V30 2399 H 236.127 -2.76093 -1.6725 0
M  V30 2400 H 235.179 -3.76713 0.528359 0
M  V30 2401 H 236.491 -4.96534 0.474866 0
M  V30 2402 H 235.645 -5.81772 -1.72123 0
M  V30 2403 H 234.384 -4.55284 -1.74837 0
M  V30 2404 H 233.389 -5.48627 0.359018 0
M  V30 2405 H 234.614 -6.78097 0.368883 0
M  V30 2406 H 232.56 -6.30152 -1.82332 0
M  V30 2407 H 232.477 -7.53542 -0.609082 0
M  V30 2408 H 233.745 -7.58499 -1.79722 0
M  V30 2409 N 237.974 -0.419461 -1.51915 0
M  V30 2410 C 238.921 0.400927 -2.27291 0
M  V30 2411 C 239.891 1.03224 -1.30131 0
M  V30 2412 O 241.076 1.05455 -1.59009 0
M  V30 2413 C 238.216 1.50603 -3.10504 0
M  V30 2414 C 237.329 0.89462 -4.22635 0
M  V30 2415 C 236.464 1.97328 -4.93189 0
M  V30 2416 C 235.503 1.33935 -5.97267 0
M  V30 2417 N 234.64 2.3586 -6.61298 0
M  V30 2418 H 239.48 -0.248251 -2.96964 0
M  V30 2419 H 237.017 -0.134266 -1.46486 0
M  V30 2420 H 238.975 2.15783 -3.57062 0
M  V30 2421 H 237.605 2.12509 -2.42981 0
M  V30 2422 H 236.657 0.131583 -3.80172 0
M  V30 2423 H 237.969 0.391641 -4.9726 0
M  V30 2424 H 237.123 2.70211 -5.43204 0
M  V30 2425 H 235.862 2.50994 -4.18155 0
M  V30 2426 H 234.867 0.595896 -5.46561 0
M  V30 2427 H 236.092 0.810252 -6.74249 0
M  V30 2428 H 234.038 2.88639 -5.89087 0
M  V30 2429 H 233.955 1.90403 -7.3163 0
M  V30 2430 H 235.223 3.08282 -7.15949 0
M  V30 2431 N 239.452 1.56882 -0.150215 0
M  V30 2432 C 240.699 1.96228 0.500093 0
M  V30 2433 C 241.027 1.03522 1.64661 0
M  V30 2434 O 240.282 0.0650683 1.95592 0
M  V30 2435 C 240.581 3.41801 1.04437 0
M  V30 2436 C 240.247 4.50897 0.0159671 0
M  V30 2437 C 238.909 4.8046 -0.266731 0
M  V30 2438 C 241.261 5.16703 -0.683192 0
M  V30 2439 C 238.589 5.73135 -1.25434 0
M  V30 2440 C 240.941 6.10441 -1.65964 0
M  V30 2441 C 239.605 6.38382 -1.95 0
M  V30 2442 H 238.875 0.718048 0.182997 0
M  V30 2443 H 241.522 1.90019 -0.237724 0
M  V30 2444 H 239.827 3.44857 1.85959 0
M  V30 2445 H 241.524 3.69573 1.55618 0
M  V30 2446 H 238.114 4.27891 0.246485 0
M  V30 2447 H 242.298 4.93993 -0.477983 0
M  V30 2448 H 237.554 5.93074 -1.48571 0
M  V30 2449 H 241.728 6.60507 -2.20689 0
M  V30 2450 H 239.355 7.09996 -2.71679 0
M  V30 2451 N 240.93 -0.123565 1.57115 0
M  V30 2452 C 242.16 -0.845233 1.88519 0
M  V30 2453 C 242.568 -1.74168 0.739064 0
M  V30 2454 O 241.911 -1.81244 -0.299355 0
M  V30 2455 C 241.973 -1.73452 3.14888 0
M  V30 2456 C 241.637 -1.01285 4.45635 0
M  V30 2457 C 242.634 -0.355774 5.18681 0
M  V30 2458 C 240.319 -0.99538 4.92339 0
M  V30 2459 C 242.313 0.309114 6.3665 0
M  V30 2460 C 240 -0.32669 6.10226 0
M  V30 2461 C 240.998 0.324406 6.82229 0
M  V30 2462 O 240.686 0.982437 7.97874 0
M  V30 2463 H 240.418 -0.248534 0.628655 0
M  V30 2464 H 242.972 -0.113907 2.05084 0
M  V30 2465 H 241.202 -2.50737 2.94394 0
M  V30 2466 H 242.891 -2.33021 3.32349 0
M  V30 2467 H 243.657 -0.360918 4.83655 0
M  V30 2468 H 239.536 -1.49159 4.36202 0
M  V30 2469 H 243.08 0.8179 6.92789 0
M  V30 2470 H 238.977 -0.319294 6.4471 0
M  V30 2471 H 239.745 0.886454 8.13686 0
M  V30 2472 N 242.408 -1.52605 -0.393616 0
M  V30 2473 C 243.655 -1.67424 -1.1391 0
M  V30 2474 C 243.983 -0.411859 -1.90089 0
M  V30 2475 O 243.238 0.605626 -1.86093 0
M  V30 2476 C 243.537 -2.85721 -2.14705 0
M  V30 2477 C 243.203 -4.23342 -1.55218 0
M  V30 2478 C 241.865 -4.60771 -1.3872 0
M  V30 2479 C 244.217 -5.09041 -1.11924 0
M  V30 2480 C 241.545 -5.81563 -0.774689 0
M  V30 2481 C 243.897 -6.30452 -0.520853 0
M  V30 2482 C 242.561 -6.66617 -0.343134 0
M  V30 2483 H 241.831 -0.612648 -0.416826 0
M  V30 2484 H 244.478 -1.8674 -0.424315 0
M  V30 2485 H 242.783 -2.60803 -2.92385 0
M  V30 2486 H 244.48 -2.94382 -2.72288 0
M  V30 2487 H 241.07 -3.93855 -1.69045 0
M  V30 2488 H 245.254 -4.80695 -1.23473 0
M  V30 2489 H 240.51 -6.08196 -0.625154 0
M  V30 2490 H 244.684 -6.96175 -0.177065 0
M  V30 2491 H 242.311 -7.60083 0.133571 0
M  V30 2492 N 243.887 0.651787 -1.4349 0
M  V30 2493 C 245.133 1.41376 -1.45398 0
M  V30 2494 C 245.466 1.94041 -0.0784823 0
M  V30 2495 O 244.741 1.72379 0.900878 0
M  V30 2496 C 245.024 2.59414 -2.49752 0
M  V30 2497 C 244.877 2.12232 -3.96582 0
M  V30 2498 C 246.196 3.61626 -2.50827 0
M  V30 2499 H 243.315 0.512719 -0.529422 0
M  V30 2500 H 245.957 0.738796 -1.75048 0
M  V30 2501 H 244.107 3.16997 -2.246 0
M  V30 2502 H 245.779 1.59639 -4.32797 0
M  V30 2503 H 244.022 1.43592 -4.09346 0
M  V30 2504 H 244.693 2.9712 -4.65214 0
M  V30 2505 H 247.169 3.13805 -2.7325 0
M  V30 2506 H 246.045 4.41766 -3.25783 0
M  V30 2507 H 246.306 4.14314 -1.5426 0
M  V30 2508 N 245.365 1.30045 0.890287 0
M  V30 2509 C 246.781 1.08261 1.17268 0
M  V30 2510 C 246.981 -0.160063 2.00863 0
M  V30 2511 O 246.037 -0.855181 2.37577 0
M  V30 2512 C 247.35 2.34323 1.8845 0
M  V30 2513 C 248.898 2.39735 2.01237 0
M  V30 2514 C 249.373 3.65625 2.7583 0
M  V30 2515 N 250.864 3.66402 2.83379 0
M  V30 2516 C 251.599 4.60498 3.41657 0
M  V30 2517 N 251.095 5.64933 4.01026 0
M  V30 2518 N 252.888 4.48051 3.39421 0
M  V30 2519 H 245.039 2.09777 0.332762 0
M  V30 2520 H 247.302 0.92446 0.209948 0
M  V30 2521 H 247.008 3.2498 1.34465 0
M  V30 2522 H 246.882 2.4256 2.88867 0
M  V30 2523 H 249.269 1.4956 2.54393 0
M  V30 2524 H 249.35 2.35476 0.999232 0
M  V30 2525 H 248.994 4.56156 2.23347 0
M  V30 2526 H 248.924 3.67144 3.77509 0
M  V30 2527 H 251.415 2.90896 2.41222 0
M  V30 2528 H 251.728 6.32841 4.43545 0
M  V30 2529 H 250.073 5.68732 3.99461 0
M  V30 2530 H 253.264 3.65649 2.92264 0
M  V30 2531 H 253.437 5.21565 3.84544 0
M  V30 2532 N 246.843 -1.10192 1.12674 0
M  V30 2533 C 248.071 -1.85983 0.906527 0
M  V30 2534 C 248.486 -1.80783 -0.544333 0
M  V30 2535 O 247.843 -1.19834 -1.37645 0
M  V30 2536 C 247.894 -3.34281 1.37618 0
M  V30 2537 O 247.615 -3.39401 2.77017 0
M  V30 2538 C 249.116 -4.26938 1.19325 0
M  V30 2539 H 246.336 -0.587716 0.323775 0
M  V30 2540 H 248.88 -1.39284 1.49734 0
M  V30 2541 H 247.035 -3.78436 0.828539 0
M  V30 2542 H 247.449 -4.31838 2.97684 0
M  V30 2543 H 248.923 -5.29181 1.57071 0
M  V30 2544 H 249.4 -4.38995 0.134097 0
M  V30 2545 H 250.006 -3.8859 1.72852 0
M  V30 2546 N 248.321 -0.919034 -1.28029 0
M  V30 2547 C 249.268 -0.410005 -2.27129 0
M  V30 2548 C 250.238 0.518405 -1.57803 0
M  V30 2549 O 251.423 0.439451 -1.8567 0
M  V30 2550 C 248.563 0.339054 -3.4343 0
M  V30 2551 C 247.676 -0.622468 -4.27492 0
M  V30 2552 C 246.811 0.145567 -5.31001 0
M  V30 2553 C 245.85 -0.809226 -6.06727 0
M  V30 2554 N 244.987 -0.0743728 -7.02061 0
M  V30 2555 H 249.827 -1.26011 -2.70047 0
M  V30 2556 H 247.364 -0.632663 -1.328 0
M  V30 2557 H 249.322 0.789586 -4.0966 0
M  V30 2558 H 247.952 1.15346 -3.01488 0
M  V30 2559 H 247.004 -1.19153 -3.61257 0
M  V30 2560 H 248.316 -1.35252 -4.80113 0
M  V30 2561 H 247.47 0.656417 -6.03139 0
M  V30 2562 H 246.209 0.908643 -4.79161 0
M  V30 2563 H 245.214 -1.3314 -5.33436 0
M  V30 2564 H 246.439 -1.57194 -6.60656 0
M  V30 2565 H 244.385 0.670616 -6.52563 0
M  V30 2566 H 244.302 -0.744157 -7.52329 0
M  V30 2567 H 245.57 0.416109 -7.78389 0
M  V30 2568 N 249.799 1.42003 -0.683588 0
M  V30 2569 C 251.045 2.01712 -0.209825 0
M  V30 2570 C 251.378 1.53968 1.18353 0
M  V30 2571 O 250.653 0.745661 1.79639 0
M  V30 2572 C 250.936 3.59202 -0.254197 0
M  V30 2573 C 250.789 4.17102 -1.68363 0
M  V30 2574 C 252.108 4.38344 0.392709 0
M  V30 2575 H 249.227 0.732891 -0.0777189 0
M  V30 2576 H 251.869 1.68909 -0.87004 0
M  V30 2577 H 250.019 3.87278 0.307954 0
M  V30 2578 H 251.691 3.99946 -2.29871 0
M  V30 2579 H 249.934 3.72597 -2.22157 0
M  V30 2580 H 250.605 5.26249 -1.6663 0
M  V30 2581 H 253.081 4.16011 -0.0859162 0
M  V30 2582 H 251.957 5.47901 0.331063 0
M  V30 2583 H 252.218 4.16887 1.47164 0
M  V30 2584 N 251.277 0.427512 1.51691 0
M  V30 2585 C 252.554 -0.201684 1.94557 0
M  V30 2586 C 252.934 -1.60981 1.36559 0
M  V30 2587 O 252.282 -2.21814 0.548702 0
M  V30 2588 C 252.492 -0.189394 3.48486 0
M  V30 2589 C 253.84 -0.39978 4.22714 0
M  V30 2590 O 254.864 -0.267945 3.55191 0
M  V30 2591 O 253.723 -0.661249 5.42485 0
M  V30 2592 H 250.817 -0.135261 0.815864 0
M  V30 2593 H 253.363 0.484782 1.62628 0
M  V30 2594 H 252.135 0.795431 3.8313 0
M  V30 2595 H 251.758 -0.919187 3.86829 0
M  V30 2596 N 252.755 -1.56801 0.158532 0
M  V30 2597 C 253.665 -2.20916 -0.789518 0
M  V30 2598 C 254.681 -1.1969 -1.26294 0
M  V30 2599 O 255.857 -1.52308 -1.31773 0
M  V30 2600 C 252.922 -2.82727 -2.00665 0
M  V30 2601 C 251.983 -3.99114 -1.58134 0
M  V30 2602 C 251.216 -4.57968 -2.74045 0
M  V30 2603 O 251.439 -4.15704 -3.90572 0
M  V30 2604 O 250.373 -5.48047 -2.48855 0
M  V30 2605 H 254.199 -3.02464 -0.273681 0
M  V30 2606 H 251.784 -1.4924 -0.0690548 0
M  V30 2607 H 253.666 -3.21968 -2.71872 0
M  V30 2608 H 252.341 -2.04184 -2.51179 0
M  V30 2609 H 251.248 -3.64567 -0.839155 0
M  V30 2610 H 252.581 -4.79212 -1.12325 0
M  V30 2611 N 254.233 0.115231 -1.57178 0
M  V30 2612 C 255.51 0.852873 -1.76027 0
M  V30 2613 C 255.89 1.97892 -0.73498 0
M  V30 2614 O 255.238 2.27232 0.24036 0
M  V30 2615 C 255.448 1.36608 -3.21153 0
M  V30 2616 C 256.796 1.81692 -3.83762 0
M  V30 2617 O 257.82 1.46278 -3.24779 0
M  V30 2618 O 256.679 2.47104 -4.87444 0
M  V30 2619 H 253.773 0.405296 -0.720877 0
M  V30 2620 H 256.319 0.0986785 -1.69413 0
M  V30 2621 H 255.091 0.558357 -3.87296 0
M  V30 2622 H 254.714 2.18287 -3.3232 0
M  V30 2623 N 255.711 1.52812 0.385517 0
M  V30 2624 C 256.641 1.80808 1.47752 0
M  V30 2625 C 257.622 0.660318 1.5676 0
M  V30 2626 O 258.807 0.908246 1.71652 0
M  V30 2627 C 255.937 1.98008 2.85324 0
M  V30 2628 C 254.891 3.13709 2.91154 0
M  V30 2629 C 254.217 3.16169 4.31209 0
M  V30 2630 C 255.517 4.52709 2.60483 0
M  V30 2631 H 257.211 2.72253 1.24573 0
M  V30 2632 H 254.757 1.31003 0.597839 0
M  V30 2633 H 256.71 2.16176 3.61726 0
M  V30 2634 H 255.434 1.03255 3.09848 0
M  V30 2635 H 254.093 2.95329 2.17201 0
M  V30 2636 H 253.741 2.19092 4.52778 0
M  V30 2637 H 253.441 3.93894 4.36029 0
M  V30 2638 H 254.965 3.36496 5.09512 0
M  V30 2639 H 256.379 4.71173 3.26602 0
M  V30 2640 H 254.776 5.32528 2.76648 0
M  V30 2641 H 255.846 4.59186 1.55809 0
M  V30 2642 N 257.189 -0.644168 1.43834 0
M  V30 2643 C 258.152 -1.73857 1.49353 0
M  V30 2644 C 259.152 -1.56315 0.377112 0
M  V30 2645 O 260.342 -1.62048 0.639226 0
M  V30 2646 C 257.474 -3.12819 1.35488 0
M  V30 2647 H 258.667 -1.70342 2.46827 0
M  V30 2648 H 256.22 -0.856652 1.30733 0
M  V30 2649 H 256.955 -3.2194 0.390569 0
M  V30 2650 H 256.74 -3.26958 2.16428 0
M  V30 2651 H 258.23 -3.92606 1.42302 0
M  V30 2652 N 258.668 -1.30515 -0.883378 0
M  V30 2653 C 259.631 -1.1701 -1.97082 0
M  V30 2654 C 260.631 -0.10089 -1.60483 0
M  V30 2655 O 261.821 -0.349127 -1.70666 0
M  V30 2656 C 258.953 -0.793045 -3.31547 0
M  V30 2657 H 260.146 -2.13622 -2.10489 0
M  V30 2658 H 257.699 -1.13935 -1.06998 0
M  V30 2659 H 258.434 0.172499 -3.23841 0
M  V30 2660 H 258.219 -1.56576 -3.5948 0
M  V30 2661 H 259.709 -0.722073 -4.1131 0
M  V30 2662 N 260.146 1.09593 -1.13257 0
M  V30 2663 C 261.374 1.855 -0.916378 0
M  V30 2664 C 261.789 1.81069 0.534738 0
M  V30 2665 O 261.146 1.20562 1.37007 0
M  V30 2666 C 261.197 3.33546 -1.39388 0
M  V30 2667 O 260.918 3.37927 -2.78813 0
M  V30 2668 C 262.419 4.26299 -1.21588 0
M  V30 2669 H 259.639 0.585991 -0.326887 0
M  V30 2670 H 262.183 1.38488 -1.5047 0
M  V30 2671 H 260.338 3.77992 -0.848597 0
M  V30 2672 H 260.752 4.30254 -2.9997 0
M  V30 2673 H 262.226 5.28341 -1.59876 0
M  V30 2674 H 262.703 4.38918 -0.157376 0
M  V30 2675 H 263.309 3.87668 -1.7491 0
M  V30 2676 N 261.624 0.925811 1.2754 0
M  V30 2677 C 263.04 0.625767 1.46821 0
M  V30 2678 C 263.24 -0.825506 1.83814 0
M  V30 2679 O 262.296 -1.60356 1.95044 0
M  V30 2680 C 263.609 1.57402 2.56213 0
M  V30 2681 C 265.157 1.58204 2.70075 0
M  V30 2682 C 265.632 2.51721 3.82623 0
M  V30 2683 N 267.123 2.49917 3.89994 0
M  V30 2684 C 267.858 3.18968 4.76494 0
M  V30 2685 N 267.354 3.97391 5.67496 0
M  V30 2686 N 269.147 3.07996 4.70208 0
M  V30 2687 H 261.298 1.86409 1.01811 0
M  V30 2688 H 263.561 0.800213 0.508295 0
M  V30 2689 H 263.267 2.60925 2.35819 0
M  V30 2690 H 263.141 1.31428 3.53563 0
M  V30 2691 H 265.528 0.554124 2.89851 0
M  V30 2692 H 265.609 1.88226 1.73218 0
M  V30 2693 H 265.253 3.54622 3.63601 0
M  V30 2694 H 265.183 2.18996 4.78903 0
M  V30 2695 H 267.674 1.9296 3.24923 0
M  V30 2696 H 267.987 4.4707 6.30356 0
M  V30 2697 H 266.332 4.01495 5.67298 0
M  V30 2698 H 269.523 2.46223 3.9811 0
M  V30 2699 H 269.696 3.6208 5.37403 0
M  V30 2700 N 263.102 -1.41638 0.69111 0
M  V30 2701 C 264.33 -2.05628 0.22909 0
M  V30 2702 C 264.745 -1.51992 -1.11999 0
M  V30 2703 O 264.102 -0.666322 -1.69901 0
M  V30 2704 C 264.153 -3.61084 0.173283 0
M  V30 2705 O 263.874 -4.12735 1.46907 0
M  V30 2706 C 265.375 -4.42213 -0.310266 0
M  V30 2707 H 262.595 -0.662327 0.107534 0
M  V30 2708 H 265.139 -1.81489 0.942438 0
M  V30 2709 H 263.294 -3.84278 -0.490858 0
M  V30 2710 H 263.708 -5.06743 1.35322 0
M  V30 2711 H 265.182 -5.51194 -0.298196 0
M  V30 2712 H 265.659 -4.1799 -1.34838 0
M  V30 2713 H 266.265 -4.24074 0.322716 0
M  V30 2714 N 264.58 -0.43555 -1.51462 0
M  V30 2715 C 265.512 0.41257 -2.25456 0
M  V30 2716 C 266.525 0.987822 -1.29406 0
M  V30 2717 O 267.714 0.882266 -1.55172 0
M  V30 2718 C 264.814 1.58894 -2.99342 0
M  V30 2719 C 263.987 1.13288 -4.22474 0
M  V30 2720 C 263.046 2.17917 -4.78956 0
M  V30 2721 O 262.072 1.77425 -5.40841 0
M  V30 2722 N 263.274 3.50382 -4.62832 0
M  V30 2723 H 266.039 -0.221603 -2.9888 0
M  V30 2724 H 263.6 -0.264342 -1.59727 0
M  V30 2725 H 265.592 2.28508 -3.34015 0
M  V30 2726 H 264.162 2.12849 -2.28941 0
M  V30 2727 H 263.382 0.263881 -3.93316 0
M  V30 2728 H 264.67 0.805542 -5.02383 0
M  V30 2729 H 264.068 3.86013 -4.13534 0
M  V30 2730 H 262.625 4.15895 -5.01871 0
M  V30 2731 N 266.058 1.56714 -0.166846 0
M  V30 2732 C 267.474 1.58473 0.189372 0
M  V30 2733 C 267.674 1.18201 1.63189 0
M  V30 2734 O 266.73 0.891528 2.36237 0
M  V30 2735 C 268.043 3.00573 -0.0873872 0
M  V30 2736 C 269.591 3.1299 -0.0252443 0
M  V30 2737 C 270.066 4.57174 -0.274934 0
M  V30 2738 N 271.557 4.62665 -0.222553 0
M  V30 2739 C 272.292 5.72072 -0.389985 0
M  V30 2740 N 271.788 6.90054 -0.616229 0
M  V30 2741 N 273.581 5.61153 -0.326202 0
M  V30 2742 H 265.732 1.8118 -1.10849 0
M  V30 2743 H 267.995 0.839525 -0.440342 0
M  V30 2744 H 267.701 3.34497 -1.0865 0
M  V30 2745 H 267.575 3.72019 0.623037 0
M  V30 2746 H 269.962 2.78895 0.96444 0
M  V30 2747 H 270.043 2.43989 -0.768309 0
M  V30 2748 H 269.687 4.91976 -1.26181 0
M  V30 2749 H 269.617 5.24328 0.48869 0
M  V30 2750 H 272.108 3.77863 -0.0531512 0
M  V30 2751 H 272.421 7.69311 -0.733559 0
M  V30 2752 H 270.766 6.91927 -0.652791 0
M  V30 2753 H 273.957 4.67859 -0.150072 0
M  V30 2754 H 274.13 6.46364 -0.460116 0
M  V30 2755 N 267.536 -0.106894 1.57237 0
M  V30 2756 C 268.947 -0.662723 1.74542 0
M  V30 2757 C 269.298 -1.7971 0.787319 0
M  V30 2758 O 268.423 -2.16368 -0.0369636 0
M  V30 2759 C 269.018 -1.20896 3.16496 0
M  V30 2760 C 267.577 -1.71096 3.35266 0
M  V30 2761 C 266.724 -0.615642 2.7038 0
M  V30 2762 H 269.675 0.119106 1.58252 0
M  V30 2763 H 269.696 -2.07847 3.18716 0
M  V30 2764 H 269.208 -0.383122 3.86204 0
M  V30 2765 H 267.309 -2.56119 2.70618 0
M  V30 2766 H 267.422 -1.81208 4.43509 0
M  V30 2767 H 265.786 -1.05222 2.31949 0
M  V30 2768 H 266.569 0.199419 3.4272 0
M  V30 2769 N 269.014 -1.53014 -0.377408 0
M  V30 2770 C 270.239 -1.72818 -1.14668 0
M  V30 2771 C 270.664 -0.450725 -1.8262 0
M  V30 2772 O 270.022 0.59439 -1.7128 0
M  V30 2773 C 270.07 -2.88627 -2.16164 0
M  V30 2774 O 269.174 -2.56409 -3.22998 0
M  V30 2775 H 268.515 -0.574301 -0.333278 0
M  V30 2776 H 271.045 -1.99853 -0.438152 0
M  V30 2777 H 271.055 -3.14455 -2.59966 0
M  V30 2778 H 269.73 -3.81294 -1.66095 0
M  V30 2779 H 268.307 -2.4136 -2.84253 0
M  V30 2780 N 270.492 0.636531 -1.44174 0
M  V30 2781 C 271.74 1.39343 -1.46383 0
M  V30 2782 C 272.061 1.94766 -0.0955715 0
M  V30 2783 O 271.331 1.75452 0.871395 0
M  V30 2784 H 269.911 0.517199 -0.538994 0
M  V30 2785 H 272.573 0.74957 -1.7991 0
M  V30 2786 H 271.669 2.22746 -2.18611 0
M  V30 2787 N 271.97 1.30982 0.876444 0
M  V30 2788 C 273.217 1.20296 1.62896 0
M  V30 2789 C 273.545 -0.240395 1.93009 0
M  V30 2790 O 272.8 -1.18733 1.55567 0
M  V30 2791 C 273.099 1.98572 2.9716 0
M  V30 2792 C 272.765 3.48125 2.86566 0
M  V30 2793 C 271.427 3.88905 2.83383 0
M  V30 2794 C 273.779 4.43322 2.74071 0
M  V30 2795 C 271.107 5.2316 2.65556 0
M  V30 2796 C 273.459 5.77695 2.57781 0
M  V30 2797 C 272.123 6.17704 2.52979 0
M  V30 2798 H 271.393 0.440193 0.59608 0
M  V30 2799 H 274.04 1.62177 1.01837 0
M  V30 2800 H 272.345 1.49352 3.62217 0
M  V30 2801 H 274.042 1.8769 3.54364 0
M  V30 2802 H 270.632 3.15723 2.89856 0
M  V30 2803 H 274.816 4.12752 2.75589 0
M  V30 2804 H 270.072 5.53241 2.60259 0
M  V30 2805 H 274.246 6.51091 2.47089 0
M  V30 2806 H 271.873 7.21678 2.38924 0
M  V30 2807 N 273.449 -1.08991 1.13837 0
M  V30 2808 C 274.865 -1.33312 0.877506 0
M  V30 2809 C 275.065 -1.95587 -0.48456 0
M  V30 2810 O 274.121 -2.20509 -1.23013 0
M  V30 2811 C 275.434 -2.24045 2.0056 0
M  V30 2812 C 276.982 -2.37542 2.03821 0
M  V30 2813 C 277.457 -3.31614 3.15905 0
M  V30 2814 N 278.948 -3.39189 3.15445 0
M  V30 2815 C 279.683 -4.11992 3.98811 0
M  V30 2816 N 279.179 -4.87553 4.92203 0
M  V30 2817 N 280.972 -4.07762 3.86894 0
M  V30 2818 H 273.123 -0.669456 2.01574 0
M  V30 2819 H 275.386 -0.357482 0.878015 0
M  V30 2820 H 275.092 -1.85521 2.98789 0
M  V30 2821 H 274.966 -3.24466 1.92359 0
M  V30 2822 H 277.353 -2.75327 1.06202 0
M  V30 2823 H 277.434 -1.36884 2.16093 0
M  V30 2824 H 277.078 -2.94551 4.13766 0
M  V30 2825 H 277.008 -4.32186 3.0087 0
M  V30 2826 H 279.499 -2.85314 2.47799 0
M  V30 2827 H 279.812 -5.40549 5.52292 0
M  V30 2828 H 278.157 -4.86627 4.96205 0
M  V30 2829 H 281.348 -3.47833 3.13257 0
M  V30 2830 H 281.521 -4.64238 4.52092 0
M  V30 2831 N 274.927 -0.932562 -1.27047 0
M  V30 2832 C 275.837 -0.441219 -2.30414 0
M  V30 2833 C 276.853 0.480525 -1.67233 0
M  V30 2834 O 278.029 0.362151 -1.98117 0
M  V30 2835 C 275.094 0.293651 -3.45454 0
M  V30 2836 C 274.155 -0.663601 -4.2414 0
M  V30 2837 C 273.388 0.0362932 -5.33688 0
M  V30 2838 O 273.611 1.2548 -5.56427 0
M  V30 2839 O 272.545 -0.638015 -5.98509 0
M  V30 2840 H 276.371 -1.29962 -2.74488 0
M  V30 2841 H 273.956 -0.6981 -1.32087 0
M  V30 2842 H 275.838 0.707951 -4.15411 0
M  V30 2843 H 274.513 1.12758 -3.03426 0
M  V30 2844 H 273.42 -1.12768 -3.56699 0
M  V30 2845 H 274.753 -1.46489 -4.69896 0
M  V30 2846 N 276.405 1.4127 -0.698611 0
M  V30 2847 C 277.368 2.29158 -0.044132 0
M  V30 2848 C 278.368 1.44529 0.704841 0
M  V30 2849 O 279.558 1.65643 0.539276 0
M  V30 2850 C 276.69 3.27459 0.947809 0
M  V30 2851 H 277.883 2.88529 -0.817994 0
M  V30 2852 H 275.436 1.49307 -0.46228 0
M  V30 2853 H 276.171 2.73073 1.74933 0
M  V30 2854 H 275.956 3.8991 0.41385 0
M  V30 2855 H 277.446 3.93311 1.40344 0
M  V30 2856 N 277.883 0.443576 1.51229 0
M  V30 2857 C 278.846 -0.353132 2.26463 0
M  V30 2858 C 279.846 -0.944338 1.3015 0
M  V30 2859 O 281.036 -0.817813 1.5381 0
M  V30 2860 C 278.168 -1.50023 3.06114 0
M  V30 2861 H 279.361 0.3063 2.98332 0
M  V30 2862 H 276.914 0.196902 1.55055 0
M  V30 2863 H 277.649 -2.19553 2.38677 0
M  V30 2864 H 277.434 -1.08241 3.76864 0
M  V30 2865 H 278.924 -2.06296 3.63087 0
M  V30 2866 N 279.361 -1.56624 0.175154 0
M  V30 2867 C 280.607 -1.9729 -0.469506 0
M  V30 2868 C 280.94 -1.06128 -1.62636 0
M  V30 2869 O 280.215 -0.109183 -1.94193 0
M  V30 2870 C 280.498 -3.47375 -0.948804 0
M  V30 2871 C 280.351 -4.49317 0.208491 0
M  V30 2872 C 281.67 -4.00652 -1.82116 0
M  V30 2873 H 278.789 -0.717317 -0.16919 0
M  V30 2874 H 281.431 -1.88184 0.262062 0
M  V30 2875 H 279.581 -3.55267 -1.57219 0
M  V30 2876 H 281.253 -4.53482 0.845682 0
M  V30 2877 H 279.496 -4.25121 0.863395 0
M  V30 2878 H 280.167 -5.51741 -0.169059 0
M  V30 2879 H 282.643 -3.95416 -1.2956 0
M  V30 2880 H 281.519 -5.06075 -2.12554 0
M  V30 2881 H 281.78 -3.44699 -2.7683 0
M  V30 2882 N 280.839 0.0985539 -1.57292 0
M  V30 2883 C 281.769 1.12064 -2.04851 0
M  V30 2884 C 282.75 1.41981 -0.936767 0
M  V30 2885 O 283.935 1.52071 -1.20781 0
M  V30 2886 C 281.065 2.44144 -2.47004 0
M  V30 2887 C 280.019 2.28643 -3.6181 0
M  V30 2888 C 279.345 3.65869 -3.89929 0
M  V30 2889 C 280.645 1.72986 -4.92822 0
M  V30 2890 H 282.339 0.724979 -2.9049 0
M  V30 2891 H 279.885 0.34729 -1.39749 0
M  V30 2892 H 281.838 3.15914 -2.78884 0
M  V30 2893 H 280.562 2.85639 -1.5836 0
M  V30 2894 H 279.221 1.59318 -3.30172 0
M  V30 2895 H 278.869 4.04885 -2.98458 0
M  V30 2896 H 278.569 3.56344 -4.67218 0
M  V30 2897 H 280.093 4.39112 -4.2428 0
M  V30 2898 H 281.507 2.34593 -5.23105 0
M  V30 2899 H 279.904 1.74229 -5.74251 0
M  V30 2900 H 280.974 0.689007 -4.7998 0
M  V30 2901 N 282.317 1.53212 0.369288 0
M  V30 2902 C 283.249 1.75668 1.47219 0
M  V30 2903 C 284.262 0.637387 1.49804 0
M  V30 2904 O 285.451 0.913561 1.5335 0
M  V30 2905 C 282.551 1.81818 2.85999 0
M  V30 2906 C 281.724 3.11409 3.07153 0
M  V30 2907 C 280.783 3.08849 4.26026 0
M  V30 2908 O 279.809 3.82659 4.2138 0
M  V30 2909 N 281.011 2.29409 5.33246 0
M  V30 2910 H 283.776 2.70832 1.28337 0
M  V30 2911 H 281.337 1.51944 0.55898 0
M  V30 2912 H 283.329 1.77588 3.63655 0
M  V30 2913 H 281.899 0.939544 2.98146 0
M  V30 2914 H 281.119 3.28971 2.1719 0
M  V30 2915 H 282.407 3.97059 3.18154 0
M  V30 2916 H 281.805 1.68946 5.39883 0
M  V30 2917 H 280.362 2.31001 6.09493 0
M  V30 2918 N 283.795 -0.628877 1.44509 0
M  V30 2919 C 284.705 -1.7694 1.54044 0
M  V30 2920 C 285.721 -1.68705 0.425987 0
M  V30 2921 O 286.897 -1.89442 0.683656 0
M  V30 2922 C 283.962 -3.13332 1.48405 0
M  V30 2923 C 283.023 -3.33181 2.70719 0
M  V30 2924 C 282.256 -4.63067 2.6534 0
M  V30 2925 O 282.479 -5.44017 1.71469 0
M  V30 2926 O 281.413 -4.85167 3.56226 0
M  V30 2927 H 285.239 -1.71848 2.50403 0
M  V30 2928 H 282.824 -0.790378 1.26781 0
M  V30 2929 H 284.706 -3.94634 1.47791 0
M  V30 2930 H 283.381 -3.1896 0.551898 0
M  V30 2931 H 282.288 -2.51549 2.769 0
M  V30 2932 H 283.621 -3.32416 3.62988 0
M  V30 2933 N 285.273 -1.31445 -0.869486 0
M  V30 2934 C 286.522 -1.20517 -1.61736 0
M  V30 2935 C 286.835 0.235341 -1.94179 0
M  V30 2936 O 288.041 0.466312 -2.67465 0
M  V30 2937 C 286.497 -2.10982 -2.91573 0
M  V30 2938 C 286.105 -3.60032 -2.66611 0
M  V30 2939 C 287.849 -2.08856 -3.69567 0
M  V30 2940 C 285.756 -4.42503 -3.92358 0
M  V30 2941 H 284.686 -0.447493 -0.606849 0
M  V30 2942 H 287.337 -1.56303 -0.96133 0
M  V30 2943 H 285.719 -1.68095 -3.58553 0
M  V30 2944 H 286.893 -4.11167 -2.08035 0
M  V30 2945 H 285.208 -3.64139 -2.0197 0
M  V30 2946 H 287.805 -2.67716 -4.62852 0
M  V30 2947 H 288.148 -1.07582 -4.02159 0
M  V30 2948 H 288.681 -2.49945 -3.09471 0
M  V30 2949 H 285.42 -5.44533 -3.64916 0
M  V30 2950 H 284.94 -3.96125 -4.50383 0
M  V30 2951 H 286.619 -4.54741 -4.60238 0
M  V30 2952 N 286.751 1.08385 -1.14413 0
M  V30 2953 C 288.167 1.32844 -0.884563 0
M  V30 2954 C 288.367 1.95841 0.474181 0
M  V30 2955 O 287.423 2.21158 1.21842 0
M  V30 2956 C 288.736 2.22978 -2.01745 0
M  V30 2957 C 290.284 2.36458 -2.05077 0
M  V30 2958 C 290.759 3.29934 -3.1766 0
M  V30 2959 N 292.25 3.37511 -3.17239 0
M  V30 2960 C 292.985 4.09871 -4.0099 0
M  V30 2961 N 292.481 4.84936 -4.94781 0
M  V30 2962 N 294.274 4.05704 -3.89051 0
M  V30 2963 H 286.425 0.658756 -2.01926 0
M  V30 2964 H 288.688 0.352821 -0.879899 0
M  V30 2965 H 288.394 1.83934 -2.99769 0
M  V30 2966 H 288.268 3.23441 -1.94077 0
M  V30 2967 H 290.655 2.7476 -1.0766 0
M  V30 2968 H 290.736 1.35736 -2.16816 0
M  V30 2969 H 290.38 2.92352 -4.15322 0
M  V30 2970 H 290.31 4.30584 -3.03158 0
M  V30 2971 H 292.801 2.83996 -2.49308 0
M  V30 2972 H 293.114 5.37612 -5.55151 0
M  V30 2973 H 291.459 4.83988 -4.98779 0
M  V30 2974 H 294.65 3.46167 -3.15097 0
M  V30 2975 H 294.823 4.61834 -4.54547 0
M  V30 2976 N 288.23 0.939286 1.26551 0
M  V30 2977 C 289.507 0.5038 1.89001 0
M  V30 2978 C 289.887 -1.01854 1.84903 0
M  V30 2979 O 289.235 -1.87773 1.30206 0
M  V30 2980 C 289.445 1.063 3.32417 0
M  V30 2981 C 290.793 1.13051 4.09273 0
M  V30 2982 O 291.817 1.01345 3.41479 0
M  V30 2983 O 290.676 1.31233 5.30509 0
M  V30 2984 H 287.77 0.163897 0.810597 0
M  V30 2985 H 290.316 1.03173 1.34735 0
M  V30 2986 H 289.088 2.10665 3.29752 0
M  V30 2987 H 288.711 0.517408 3.94219 0
M  V30 2988 N 289.708 -1.40897 0.706093 0
M  V30 2989 C 290.658 -2.27987 0.0240746 0
M  V30 2990 C 291.642 -1.42759 -0.742204 0
M  V30 2991 O 292.834 -1.65936 -0.615966 0
M  V30 2992 C 289.963 -3.31186 -0.903907 0
M  V30 2993 C 289.049 -4.2389 -0.133318 0
M  V30 2994 N 289.44 -4.98113 0.878444 0
M  V30 2995 C 287.738 -4.44485 -0.367269 0
M  V30 2996 C 288.439 -5.6604 1.34064 0
M  V30 2997 N 287.415 -5.39522 0.664565 0
M  V30 2998 H 291.217 -2.82812 0.799658 0
M  V30 2999 H 288.731 -1.53235 0.537845 0
M  V30 3000 H 290.728 -3.92413 -1.40775 0
M  V30 3001 H 289.388 -2.77922 -1.67897 0
M  V30 3002 H 290.399 -5.02364 1.25901 0
M  V30 3003 H 287.076 -4.02213 -1.1194 0
M  V30 3004 H 288.466 -6.35524 2.1808 0
M  V30 3005 N 291.186 -0.45159 -1.50991 0
M  V30 3006 C 292.426 0.109066 -2.04109 0
M  V30 3007 C 292.79 1.38716 -1.32747 0
M  V30 3008 O 293.991 2.02896 -1.76314 0
M  V30 3009 C 292.262 0.308354 -3.56067 0
M  V30 3010 S 293.821 0.830369 -4.30872 0
M  V30 3011 H 290.639 0.0251531 -0.710555 0
M  V30 3012 H 293.241 -0.614264 -1.85599 0
M  V30 3013 H 291.945 -0.627962 -4.05567 0
M  V30 3014 H 291.476 1.05836 -3.78896 0
M  V30 3015 H 293.491 2.10626 -4.49279 0
M  V30 3016 N 292.664 1.56529 -0.183458 0
M  V30 3017 C 293.627 2.17324 0.728223 0
M  V30 3018 C 294.627 1.12453 1.14939 0
M  V30 3019 O 295.817 1.37902 1.06437 0
M  V30 3020 C 292.949 2.76591 1.99274 0
M  V30 3021 H 294.142 2.99241 0.198772 0
M  V30 3022 H 291.695 1.5616 0.0661391 0
M  V30 3023 H 292.43 1.98441 2.56499 0
M  V30 3024 H 292.215 3.5335 1.69959 0
M  V30 3025 H 293.705 3.23311 2.6431 0
M  V30 3026 N 294.142 -0.090211 1.57342 0
M  V30 3027 C 295.052 -1.12735 2.05738 0
M  V30 3028 C 296.068 -1.43557 0.983231 0
M  V30 3029 O 297.244 -1.54101 1.29672 0
M  V30 3030 C 294.309 -2.42659 2.47624 0
M  V30 3031 C 293.37 -2.18975 3.69254 0
M  V30 3032 C 292.603 -3.42704 4.09133 0
M  V30 3033 O 292.826 -4.51127 3.49057 0
M  V30 3034 O 291.76 -3.32003 5.02053 0
M  V30 3035 H 295.586 -0.746279 2.94388 0
M  V30 3036 H 293.171 -0.303064 1.46294 0
M  V30 3037 H 295.053 -3.19155 2.7517 0
M  V30 3038 H 293.728 -2.80182 1.62109 0
M  V30 3039 H 292.635 -1.40244 3.46818 0
M  V30 3040 H 293.968 -1.86342 4.55563 0
M  V30 3041 N 295.62 -1.53406 -0.361157 0
M  V30 3042 C 297.036 -1.43277 -0.703124 0
M  V30 3043 C 297.236 -0.575384 -1.9311 0
M  V30 3044 O 296.292 -0.0595362 -2.5243 0
M  V30 3045 C 297.605 -2.8653 -0.9122 0
M  V30 3046 C 299.153 -2.96191 -1.01193 0
M  V30 3047 C 299.628 -4.40514 -1.25345 0
M  V30 3048 N 301.119 -4.43962 -1.32105 0
M  V30 3049 C 301.854 -5.52746 -1.5251 0
M  V30 3050 N 301.35 -6.71567 -1.70203 0
M  V30 3051 N 303.143 -5.40331 -1.54916 0
M  V30 3052 H 295.294 -2.07654 0.446475 0
M  V30 3053 H 297.557 -0.937944 0.137715 0
M  V30 3054 H 297.263 -3.51605 -0.0816414 0
M  V30 3055 H 297.137 -3.30441 -1.81903 0
M  V30 3056 H 299.524 -2.31266 -1.83303 0
M  V30 3057 H 299.605 -2.55667 -0.0823929 0
M  V30 3058 H 299.249 -5.06014 -0.437346 0
M  V30 3059 H 299.179 -4.78614 -2.19627 0
M  V30 3060 H 301.67 -3.58332 -1.20028 0
M  V30 3061 H 301.983 -7.50241 -1.85359 0
M  V30 3062 H 300.328 -6.74545 -1.67373 0
M  V30 3063 H 303.519 -4.46465 -1.40663 0
M  V30 3064 H 303.692 -6.25173 -1.70477 0
M  V30 3065 N 297.098 0.621204 -1.44841 0
M  V30 3066 C 298.028 1.74366 -1.55303 0
M  V30 3067 C 299.009 1.65199 -0.405385 0
M  V30 3068 O 300.194 1.83807 -0.626787 0
M  V30 3069 C 297.324 3.12931 -1.50637 0
M  V30 3070 C 296.278 3.36896 -2.63979 0
M  V30 3071 C 295.604 4.75594 -2.44366 0
M  V30 3072 C 296.904 3.28483 -4.06074 0
M  V30 3073 H 298.598 1.65867 -2.49256 0
M  V30 3074 H 296.144 0.796558 -1.19962 0
M  V30 3075 H 298.097 3.9124 -1.56555 0
M  V30 3076 H 296.821 3.22237 -0.532057 0
M  V30 3077 H 295.48 2.60972 -2.57467 0
M  V30 3078 H 295.128 4.81616 -1.45105 0
M  V30 3079 H 294.828 4.92586 -3.20364 0
M  V30 3080 H 296.352 5.5612 -2.52117 0
M  V30 3081 H 297.766 3.96684 -4.13902 0
M  V30 3082 H 296.163 3.57008 -4.82354 0
M  V30 3083 H 297.233 2.26133 -4.28943 0
M  V30 3084 N 298.576 1.31904 0.862503 0
M  V30 3085 C 299.992 1.10724 1.14945 0
M  V30 3086 C 300.192 -0.117421 2.01158 0
M  V30 3087 O 299.248 -0.804595 2.39338 0
M  V30 3088 C 300.561 2.38267 1.83437 0
M  V30 3089 C 302.109 2.43949 1.96106 0
M  V30 3090 C 302.584 3.71394 2.68013 0
M  V30 3091 N 304.075 3.72331 2.75543 0
M  V30 3092 C 304.81 4.67641 3.31812 0
M  V30 3093 N 304.306 5.73313 3.88953 0
M  V30 3094 N 306.099 4.5515 3.29841 0
M  V30 3095 H 298.25 2.10436 0.288191 0
M  V30 3096 H 300.513 0.928705 0.190292 0
M  V30 3097 H 300.219 3.27759 1.27542 0
M  V30 3098 H 300.093 2.48633 2.83657 0
M  V30 3099 H 302.48 1.54922 2.51164 0
M  V30 3100 H 302.561 2.37543 0.949059 0
M  V30 3101 H 302.205 4.60791 2.13621 0
M  V30 3102 H 302.135 3.75069 3.69636 0
M  V30 3103 H 304.626 2.95947 2.34997 0
M  V30 3104 H 304.939 6.42107 4.30022 0
M  V30 3105 H 303.284 5.77077 3.87308 0
M  V30 3106 H 306.475 3.71766 2.84443 0
M  V30 3107 H 306.648 5.29604 3.73394 0
M  V30 3108 N 300.054 -1.07777 1.14986 0
M  V30 3109 C 300.964 -2.18404 0.856546 0
M  V30 3110 C 301.98 -1.73211 -0.165485 0
M  V30 3111 O 303.156 -2.01399 0.00755219 0
M  V30 3112 C 300.221 -3.44977 0.34526 0
M  V30 3113 C 299.282 -4.0476 1.43065 0
M  V30 3114 C 298.515 -5.25291 0.943663 0
M  V30 3115 O 298.738 -5.70004 -0.212426 0
M  V30 3116 O 297.672 -5.76638 1.72547 0
M  V30 3117 H 301.498 -2.45978 1.78125 0
M  V30 3118 H 299.083 -1.17033 0.928631 0
M  V30 3119 H 300.965 -4.21348 0.0663671 0
M  V30 3120 H 299.64 -3.18965 -0.551631 0
M  V30 3121 H 298.547 -3.29949 1.76309 0
M  V30 3122 H 299.88 -4.35035 2.30229 0
M  V30 3123 N 301.532 -0.945985 -1.26051 0
M  V30 3124 C 302.495 -0.463897 -2.24456 0
M  V30 3125 C 303.495 0.427655 -1.55009 0
M  V30 3126 O 304.685 0.226157 -1.72726 0
M  V30 3127 C 301.817 0.330812 -3.39291 0
M  V30 3128 H 303.01 -1.33357 -2.68619 0
M  V30 3129 H 300.563 -0.728416 -1.38289 0
M  V30 3130 H 301.298 1.21852 -3.00537 0
M  V30 3131 H 301.083 -0.308679 -3.90883 0
M  V30 3132 H 302.573 0.657865 -4.12386 0
M  V30 3133 N 303.011 1.40521 -0.713556 0
M  V30 3134 C 304.259 2.00527 -0.251692 0
M  V30 3135 C 304.58 1.56857 1.15848 0
M  V30 3136 O 303.85 0.807127 1.785 0
M  V30 3137 H 302.43 0.741551 -0.0900646 0
M  V30 3138 H 305.092 1.71887 -0.918733 0
M  V30 3139 H 304.188 3.10813 -0.283192 0
M  V30 3140 N 304.489 0.459591 1.5075 0
M  V30 3141 C 305.735 -0.0994966 2.02556 0
M  V30 3142 C 306.068 -1.40399 1.3417 0
M  V30 3143 O 305.343 -1.88892 0.463683 0
M  V30 3144 C 305.626 -0.295242 3.58888 0
M  V30 3145 C 305.479 1.02947 4.37861 0
M  V30 3146 C 306.798 -1.05502 4.27267 0
M  V30 3147 H 303.917 -0.034686 0.736183 0
M  V30 3148 H 306.559 0.602938 1.8018 0
M  V30 3149 H 304.709 -0.893563 3.78084 0
M  V30 3150 H 306.381 1.66348 4.30263 0
M  V30 3151 H 304.624 1.62885 4.02058 0
M  V30 3152 H 305.295 0.846281 5.45474 0
M  V30 3153 H 307.771 -0.547993 4.12476 0
M  V30 3154 H 306.647 -1.16077 5.36486 0
M  V30 3155 H 306.908 -2.08875 3.89645 0
M  V30 3156 N 305.967 -1.56429 0.191757 0
M  V30 3157 C 306.93 -2.17707 -0.716688 0
M  V30 3158 C 307.93 -1.13061 -1.14341 0
M  V30 3159 O 309.12 -1.38464 -1.05704 0
M  V30 3160 C 306.252 -2.77644 -1.97804 0
M  V30 3161 H 307.445 -2.99342 -0.1829 0
M  V30 3162 H 304.998 -1.56193 -0.0578566 0
M  V30 3163 H 305.733 -1.99799 -2.55443 0
M  V30 3164 H 305.518 -3.54246 -1.68083 0
M  V30 3165 H 307.008 -3.24708 -2.62592 0
M  V30 3166 N 307.445 0.0818655 -1.57387 0
M  V30 3167 C 308.722 0.815343 -1.77796 0
M  V30 3168 C 309.102 1.96289 -0.77679 0
M  V30 3169 O 308.45 2.27691 0.192106 0
M  V30 3170 C 308.66 1.29765 -3.23978 0
M  V30 3171 C 310.008 1.7351 -3.8753 0
M  V30 3172 O 311.032 1.39356 -3.27808 0
M  V30 3173 O 309.891 2.36708 -4.92576 0
M  V30 3174 H 306.985 0.389914 -0.729312 0
M  V30 3175 H 309.531 0.0627213 -1.69584 0
M  V30 3176 H 308.303 0.47608 -3.88393 0
M  V30 3177 H 307.926 2.11189 -3.36875 0
M  V30 3178 N 308.923 1.53595 0.353017 0
M  V30 3179 C 310.334 1.61937 0.929153 0
M  V30 3180 C 310.685 0.494686 1.89861 0
M  V30 3181 O 309.81 -0.377017 2.1309 0
M  V30 3182 C 310.405 2.93526 1.69199 0
M  V30 3183 C 308.964 3.04161 2.21727 0
M  V30 3184 C 308.111 2.57322 1.03348 0
M  V30 3185 H 311.062 1.58155 0.131431 0
M  V30 3186 H 311.083 2.82034 2.55416 0
M  V30 3187 H 310.595 3.75362 0.986144 0
M  V30 3188 H 308.696 2.26938 2.95516 0
M  V30 3189 H 308.809 4.09465 2.48748 0
M  V30 3190 H 307.173 2.12499 1.40414 0
M  V30 3191 H 307.956 3.41588 0.342428 0
M  V30 3192 N 310.401 -0.613514 1.45168 0
M  V30 3193 C 311.817 -0.933629 1.29443 0
M  V30 3194 C 312.017 -2.00028 0.243101 0
M  V30 3195 O 311.073 -2.49848 -0.364992 0
M  V30 3196 C 312.386 -1.38018 2.67155 0
M  V30 3197 C 313.934 -1.49471 2.75004 0
M  V30 3198 C 314.409 -1.97503 4.13227 0
M  V30 3199 N 315.9 -2.04746 4.15491 0
M  V30 3200 C 316.635 -2.43121 5.19307 0
M  V30 3201 N 316.131 -2.80506 6.33473 0
M  V30 3202 N 317.924 -2.43408 5.06664 0
M  V30 3203 H 310.075 0.0916097 2.12202 0
M  V30 3204 H 312.338 -0.0216655 0.947752 0
M  V30 3205 H 312.044 -0.670625 3.45247 0
M  V30 3206 H 311.918 -2.34784 2.95222 0
M  V30 3207 H 314.305 -2.19519 1.9722 0
M  V30 3208 H 314.386 -0.510342 2.50657 0
M  V30 3209 H 314.03 -1.28045 4.91495 0
M  V30 3210 H 313.96 -2.96843 4.34962 0
M  V30 3211 H 316.451 -1.78468 3.33103 0
M  V30 3212 H 316.764 -3.08652 7.08487 0
M  V30 3213 H 315.109 -2.78216 6.36884 0
M  V30 3214 H 318.3 -2.13604 4.16523 0
M  V30 3215 H 318.473 -2.72989 5.87691 0
M  V30 3216 N 311.879 -1.3236 -0.855495 0
M  V30 3217 C 313.128 -1.22226 -1.60448 0
M  V30 3218 C 313.441 0.214733 -1.94418 0
M  V30 3219 O 314.647 0.437917 -2.67945 0
M  V30 3220 C 313.103 -2.14063 -2.89318 0
M  V30 3221 C 312.711 -3.62839 -2.62777 0
M  V30 3222 C 314.455 -2.12764 -3.67331 0
M  V30 3223 C 312.362 -4.4664 -3.87643 0
M  V30 3224 H 311.292 -0.453904 -0.602069 0
M  V30 3225 H 313.943 -1.57314 -0.944698 0
M  V30 3226 H 312.325 -1.71889 -3.5675 0
M  V30 3227 H 313.499 -4.1335 -2.03662 0
M  V30 3228 H 311.814 -3.66261 -1.98096 0
M  V30 3229 H 314.411 -2.72611 -4.59987 0
M  V30 3230 H 314.754 -1.11841 -4.00995 0
M  V30 3231 H 315.287 -2.53214 -3.06802 0
M  V30 3232 H 312.026 -5.48373 -3.5912 0
M  V30 3233 H 311.546 -4.0088 -4.46156 0
M  V30 3234 H 313.225 -4.59597 -4.55389 0
M  V30 3235 N 313.357 1.07166 -1.15556 0
M  V30 3236 C 314.604 1.79798 -0.931604 0
M  V30 3237 C 314.932 1.8682 0.54115 0
M  V30 3238 O 314.187 1.34942 1.41736 0
M  V30 3239 C 314.486 3.24707 -1.49332 0
M  V30 3240 C 314.152 3.37781 -2.98688 0
M  V30 3241 C 312.814 3.41057 -3.39461 0
M  V30 3242 C 315.166 3.40424 -3.94665 0
M  V30 3243 C 312.494 3.4458 -4.74849 0
M  V30 3244 C 314.846 3.45485 -5.29927 0
M  V30 3245 C 313.51 3.47039 -5.70193 0
M  V30 3246 H 312.78 0.657928 -0.340898 0
M  V30 3247 H 315.427 1.26091 -1.44129 0
M  V30 3248 H 313.732 3.81208 -0.904859 0
M  V30 3249 H 315.429 3.79486 -1.29582 0
M  V30 3250 H 312.019 3.35932 -2.66172 0
M  V30 3251 H 316.203 3.37113 -3.64237 0
M  V30 3252 H 311.459 3.44083 -5.05388 0
M  V30 3253 H 315.633 3.46476 -6.04092 0
M  V30 3254 H 313.26 3.49522 -6.75084 0
M  V30 3255 N 314.835 0.952656 1.25548 0
M  V30 3256 C 315.765 0.489287 2.28316 0
M  V30 3257 C 316.746 -0.463359 1.63667 0
M  V30 3258 O 317.931 -0.36274 1.90782 0
M  V30 3259 C 315.061 -0.235603 3.465 0
M  V30 3260 C 314.015 0.631593 4.23314 0
M  V30 3261 C 313.341 -0.223923 5.34231 0
M  V30 3262 C 314.641 1.90871 4.86174 0
M  V30 3263 H 316.335 1.34822 2.67326 0
M  V30 3264 H 313.881 0.649728 1.28509 0
M  V30 3265 H 315.834 -0.570882 4.17515 0
M  V30 3266 H 314.558 -1.12877 3.06474 0
M  V30 3267 H 313.217 0.949929 3.54079 0
M  V30 3268 H 312.865 -1.11678 4.90446 0
M  V30 3269 H 312.565 0.35299 5.86539 0
M  V30 3270 H 314.089 -0.554214 6.0808 0
M  V30 3271 H 315.503 1.63997 5.49343 0
M  V30 3272 H 313.9 2.43112 5.4865 0
M  V30 3273 H 314.97 2.61304 4.08471 0
M  V30 3274 N 316.313 -1.40141 0.720998 0
M  V30 3275 C 317.559 -2.01084 0.263231 0
M  V30 3276 C 317.892 -1.57052 -1.14229 0
M  V30 3277 O 317.167 -0.793027 -1.77599 0
M  V30 3278 C 317.45 -3.58401 0.349344 0
M  V30 3279 C 317.303 -4.12491 1.79363 0
M  V30 3280 C 318.622 -4.39231 -0.276351 0
M  V30 3281 H 315.741 -0.730572 0.0971228 0
M  V30 3282 H 318.383 -1.66543 0.914518 0
M  V30 3283 H 316.533 -3.87958 -0.205165 0
M  V30 3284 H 318.205 -3.93711 2.40394 0
M  V30 3285 H 316.448 -3.66576 2.31958 0
M  V30 3286 H 317.119 -5.21646 1.80524 0
M  V30 3287 H 319.595 -4.15637 0.196184 0
M  V30 3288 H 318.471 -5.48586 -0.185681 0
M  V30 3289 H 318.732 -4.20643 -1.36059 0
M  V30 3290 N 317.792 -0.46758 -1.50504 0
M  V30 3291 C 319.017 0.0886943 -2.0721 0
M  V30 3292 C 319.442 1.33057 -1.32956 0
M  V30 3293 O 318.8 1.77354 -0.376197 0
M  V30 3294 C 318.848 0.359202 -3.58806 0
M  V30 3295 O 317.952 1.44034 -3.8643 0
M  V30 3296 H 317.293 -0.0114349 -0.663902 0
M  V30 3297 H 319.823 -0.657613 -1.93744 0
M  V30 3298 H 319.833 0.600742 -4.03553 0
M  V30 3299 H 318.508 -0.548311 -4.1227 0
M  V30 3300 H 317.085 1.18638 -3.53524 0
M  V30 3301 N 319.27 1.56325 -0.20005 0
M  V30 3302 C 320.218 2.20666 0.735482 0
M  V30 3303 C 321.212 1.17934 1.21605 0
M  V30 3304 O 322.418 1.36068 1.17837 0
M  V30 3305 H 318.793 0.70725 0.255542 0
M  V30 3306 H 320.764 2.9792 0.169166 0
M  V30 3307 C 319.513 2.88391 1.94232 0
M  V30 3308 H 318.836 3.67185 1.58161 0
M  V30 3309 H 320.276 3.3684 2.57517 0
M  V30 3310 C 318.735 1.89692 2.78421 0
M  V30 3311 O 319.265 1.40032 3.76502 0
M  V30 3312 N 317.471 1.57813 2.44015 0
M  V30 3313 H 317.018 1.9839 1.64314 0
M  V30 3314 H 316.976 0.920325 3.00628 0
M  V30 3315 N 320.748 -0.0735177 1.57428 0
M  V30 3316 C 321.678 -1.0879 2.06608 0
M  V30 3317 C 322.659 -1.40473 0.959237 0
M  V30 3318 O 323.844 -1.5013 1.23185 0
M  V30 3319 C 320.974 -2.40183 2.50857 0
M  V30 3320 C 319.928 -2.22858 3.65402 0
M  V30 3321 C 319.254 -3.59619 3.957 0
M  V30 3322 C 320.554 -1.65123 4.95511 0
M  V30 3323 H 322.248 -0.678673 2.91607 0
M  V30 3324 H 319.794 -0.325013 1.40284 0
M  V30 3325 H 321.747 -3.11437 2.83874 0
M  V30 3326 H 320.471 -2.83083 1.62885 0
M  V30 3327 H 319.13 -1.54045 3.32664 0
M  V30 3328 H 318.778 -4.00086 3.04861 0
M  V30 3329 H 318.478 -3.48866 4.72828 0
M  V30 3330 H 320.002 -4.32306 4.31212 0
M  V30 3331 H 321.416 -2.26241 5.26771 0
M  V30 3332 H 319.813 -1.65071 5.7695 0
M  V30 3333 H 320.883 -0.612559 4.81015 0
M  V30 3334 N 322.226 -1.5378 -0.344866 0
M  V30 3335 C 323.451 -1.75211 -1.10977 0
M  V30 3336 C 323.876 -0.48936 -1.81623 0
M  V30 3337 O 323.234 0.557925 -1.72502 0
M  V30 3338 C 323.282 -2.93147 -2.09993 0
M  V30 3339 O 322.386 -2.63203 -3.17487 0
M  V30 3340 H 321.727 -0.581241 -0.321021 0
M  V30 3341 H 324.257 -2.00738 -0.395661 0
M  V30 3342 H 324.267 -3.19898 -2.53237 0
M  V30 3343 H 322.942 -3.84731 -1.5797 0
M  V30 3344 H 321.519 -2.47336 -2.79069 0
M  V30 3345 N 323.704 0.605807 -1.45491 0
M  V30 3346 C 325.115 1.18777 -1.44045 0
M  V30 3347 C 325.466 1.95471 -0.169001 0
M  V30 3348 O 324.591 2.0374 0.729324 0
M  V30 3349 C 325.186 2.16064 -2.60963 0
M  V30 3350 C 323.745 2.69633 -2.62631 0
M  V30 3351 C 322.892 1.45072 -2.36325 0
M  V30 3352 H 325.843 0.395017 -1.53705 0
M  V30 3353 H 325.864 2.9913 -2.35163 0
M  V30 3354 H 325.376 1.60217 -3.53486 0
M  V30 3355 H 323.477 3.29414 -1.74119 0
M  V30 3356 H 323.59 3.13944 -3.61906 0
M  V30 3357 H 321.954 1.74089 -1.85917 0
M  V30 3358 H 322.737 0.910899 -3.30995 0
M  V30 3359 N 325.182 1.32811 0.848464 0
M  V30 3360 C 326.145 1.22194 1.9391 0
M  V30 3361 C 327.145 0.143404 1.60159 0
M  V30 3362 O 328.335 0.394253 1.6968 0
M  V30 3363 C 325.467 0.88067 3.29328 0
M  V30 3364 H 326.66 2.19127 2.04752 0
M  V30 3365 H 324.213 1.16731 1.0394 0
M  V30 3366 H 324.948 -0.0865776 3.24184 0
M  V30 3367 H 324.733 1.66052 3.55203 0
M  V30 3368 H 326.223 0.830871 4.09251 0
M  V30 3369 N 326.66 -1.06551 1.16123 0
M  V30 3370 C 328.076 -1.3142 0.905585 0
M  V30 3371 C 328.276 -1.96571 -0.442964 0
M  V30 3372 O 327.332 -2.23068 -1.18308 0
M  V30 3373 C 328.645 -2.19741 2.05267 0
M  V30 3374 C 330.193 -2.33165 2.08813 0
M  V30 3375 C 330.668 -3.24838 3.22868 0
M  V30 3376 N 332.159 -3.32421 3.22568 0
M  V30 3377 C 332.894 -4.0344 4.0746 0
M  V30 3378 N 332.39 -4.77003 5.02434 0
M  V30 3379 N 334.183 -3.99464 3.95456 0
M  V30 3380 H 326.334 -0.626548 2.02949 0
M  V30 3381 H 328.597 -0.338777 0.8854 0
M  V30 3382 H 328.303 -1.79142 3.02657 0
M  V30 3383 H 328.177 -3.20313 1.99198 0
M  V30 3384 H 330.564 -2.73013 1.12018 0
M  V30 3385 H 330.645 -1.3227 2.18948 0
M  V30 3386 H 330.289 -2.85708 4.19921 0
M  V30 3387 H 330.219 -4.25707 3.0997 0
M  V30 3388 H 332.71 -2.79994 2.53795 0
M  V30 3389 H 333.023 -5.28712 5.63634 0
M  V30 3390 H 331.368 -4.75992 5.06415 0
M  V30 3391 H 334.559 -3.4111 3.20564 0
M  V30 3392 H 334.732 -4.54544 4.61837 0
M  V30 3393 N 328.138 -0.959301 -1.25041 0
M  V30 3394 C 329.368 -0.63303 -1.96663 0
M  V30 3395 C 329.776 0.800031 -1.71453 0
M  V30 3396 O 329.119 1.54736 -0.99008 0
M  V30 3397 C 329.181 -0.817523 -3.50081 0
M  V30 3398 C 328.845 -2.22863 -3.98975 0
M  V30 3399 C 329.842 -3.20569 -4.09306 0
M  V30 3400 C 327.527 -2.55407 -4.32519 0
M  V30 3401 C 329.521 -4.4891 -4.52503 0
M  V30 3402 C 327.208 -3.83976 -4.754 0
M  V30 3403 C 328.206 -4.8054 -4.85356 0
M  V30 3404 O 327.894 -6.06817 -5.27284 0
M  V30 3405 H 327.626 -0.235866 -0.633516 0
M  V30 3406 H 330.18 -1.2874 -1.60047 0
M  V30 3407 H 328.41 -0.105992 -3.86555 0
M  V30 3408 H 330.099 -0.491604 -4.02912 0
M  V30 3409 H 330.865 -2.96753 -3.83618 0
M  V30 3410 H 326.744 -1.8097 -4.23994 0
M  V30 3411 H 330.288 -5.24283 -4.60188 0
M  V30 3412 H 326.185 -4.07596 -5.00535 0
M  V30 3413 H 326.953 -6.10262 -5.45457 0
M  V30 3414 N 329.616 1.39756 -0.72842 0
M  V30 3415 C 330.893 1.94574 -0.200079 0
M  V30 3416 C 331.273 1.66569 1.29684 0
M  V30 3417 O 330.621 0.990326 2.05924 0
M  V30 3418 C 330.831 3.45004 -0.526608 0
M  V30 3419 C 332.179 4.21965 -0.472318 0
M  V30 3420 O 333.203 3.53173 -0.463413 0
M  V30 3421 O 332.062 5.44552 -0.461075 0
M  V30 3422 H 329.156 0.826289 -0.0342851 0
M  V30 3423 H 331.702 1.49293 -0.806829 0
M  V30 3424 H 330.474 3.58796 -1.56144 0
M  V30 3425 H 330.097 3.97449 0.109449 0
M  V30 3426 N 331.094 0.475555 1.50254 0
M  V30 3427 C 332.341 -0.0778919 2.0235 0
M  V30 3428 C 332.669 -1.39319 1.35722 0
M  V30 3429 O 331.924 -1.89888 0.473395 0
M  V30 3430 C 332.223 -0.305114 3.56095 0
M  V30 3431 C 331.889 0.92903 4.41225 0
M  V30 3432 C 330.551 1.26739 4.6421 0
M  V30 3433 C 332.903 1.75054 4.90923 0
M  V30 3434 C 330.231 2.42724 5.34137 0
M  V30 3435 C 332.583 2.9017 5.62125 0
M  V30 3436 C 331.247 3.24416 5.83362 0
M  V30 3437 H 330.517 -0.0285027 0.740452 0
M  V30 3438 H 333.164 0.630543 1.80821 0
M  V30 3439 H 331.469 -1.09584 3.76163 0
M  V30 3440 H 333.166 -0.747377 3.93974 0
M  V30 3441 H 329.756 0.655428 4.23559 0
M  V30 3442 H 333.94 1.50231 4.73016 0
M  V30 3443 H 329.196 2.69525 5.48786 0
M  V30 3444 H 333.37 3.54169 5.99614 0
M  V30 3445 H 330.997 4.14396 6.37323 0
M  V30 3446 N 332.573 -1.56217 0.208337 0
M  V30 3447 C 333.984 -1.84243 -0.301904 0
M  V30 3448 C 334.335 -1.12939 -1.60434 0
M  V30 3449 O 333.46 -0.39461 -2.12772 0
M  V30 3450 C 334.055 -3.34231 -0.554543 0
M  V30 3451 C 332.614 -3.62621 -1.00912 0
M  V30 3452 C 331.761 -2.77224 -0.064933 0
M  V30 3453 H 334.712 -1.52712 0.431833 0
M  V30 3454 H 334.733 -3.5372 -1.40223 0
M  V30 3455 H 334.245 -3.86099 0.393561 0
M  V30 3456 H 332.346 -3.16197 -1.97104 0
M  V30 3457 H 332.459 -4.7071 -0.892674 0
M  V30 3458 H 330.823 -2.48256 -0.56929 0
M  V30 3459 H 331.606 -3.31887 0.877851 0
M  V30 3460 N 334.051 0.0651679 -1.57465 0
M  V30 3461 C 335.279 0.775808 -1.91804 0
M  V30 3462 C 335.694 1.70782 -0.804916 0
M  V30 3463 O 335.051 1.81153 0.221311 0
M  V30 3464 C 335.102 1.56381 -3.25925 0
M  V30 3465 O 334.823 0.669248 -4.32958 0
M  V30 3466 C 336.324 2.37485 -3.7432 0
M  V30 3467 H 333.544 0.2202 -0.63384 0
M  V30 3468 H 336.088 0.0334587 -2.04473 0
M  V30 3469 H 334.243 2.25837 -3.14764 0
M  V30 3470 H 334.657 1.21801 -5.10162 0
M  V30 3471 H 336.131 2.88223 -4.70778 0
M  V30 3472 H 336.608 3.17307 -3.03666 0
M  V30 3473 H 337.214 1.73173 -3.88447 0
M  V30 3474 N 335.529 1.53961 0.336706 0
M  V30 3475 C 336.459 1.85417 1.41925 0
M  V30 3476 C 337.44 0.709856 1.5458 0
M  V30 3477 O 338.625 0.962396 1.68676 0
M  V30 3478 C 335.755 2.06985 2.78881 0
M  V30 3479 C 334.709 3.22813 2.81026 0
M  V30 3480 C 334.035 3.29727 4.20932 0
M  V30 3481 C 335.335 4.60767 2.45949 0
M  V30 3482 H 337.029 2.76079 1.15848 0
M  V30 3483 H 334.575 1.32839 0.555859 0
M  V30 3484 H 336.528 2.27575 3.54665 0
M  V30 3485 H 335.252 1.13061 3.06406 0
M  V30 3486 H 333.911 3.0209 2.07695 0
M  V30 3487 H 333.559 2.33385 4.45579 0
M  V30 3488 H 333.259 4.07566 4.23277 0
M  V30 3489 H 334.783 3.52536 4.98549 0
M  V30 3490 H 336.197 4.81325 3.11446 0
M  V30 3491 H 334.594 5.4106 2.59566 0
M  V30 3492 H 335.664 4.6391 1.41122 0
M  V30 3493 N 337.007 -0.598083 1.45811 0
M  V30 3494 C 338.253 -1.35882 1.50545 0
M  V30 3495 C 338.586 -1.93616 0.150445 0
M  V30 3496 O 337.861 -1.75604 -0.83628 0
M  V30 3497 C 338.144 -2.49966 2.59208 0
M  V30 3498 C 337.997 -1.97367 4.04186 0
M  V30 3499 C 339.316 -3.52068 2.64076 0
M  V30 3500 H 336.435 -0.492717 0.548087 0
M  V30 3501 H 339.077 -0.673319 1.77669 0
M  V30 3502 H 337.227 -3.08443 2.3621 0
M  V30 3503 H 338.899 -1.43466 4.38423 0
M  V30 3504 H 337.142 -1.283 4.14393 0
M  V30 3505 H 337.813 -2.79649 4.75921 0
M  V30 3506 H 340.289 -3.03448 2.84708 0
M  V30 3507 H 339.165 -4.2937 3.41954 0
M  V30 3508 H 339.426 -4.08304 1.69531 0
M  V30 3509 N 338.485 -1.33259 -0.841409 0
M  V30 3510 C 339.71 -1.2775 -1.63385 0
M  V30 3511 C 340.135 0.149188 -1.87507 0
M  V30 3512 O 339.493 1.10498 -1.43736 0
M  V30 3513 C 339.541 -2.05571 -2.96265 0
M  V30 3514 O 338.645 -1.41257 -3.87453 0
M  V30 3515 H 337.986 -0.439627 -0.497618 0
M  V30 3516 H 340.516 -1.75782 -1.04699 0
M  V30 3517 H 340.526 -2.16241 -3.45982 0
M  V30 3518 H 339.201 -3.09309 -2.7803 0
M  V30 3519 H 337.778 -1.39217 -3.45938 0
M  V30 3520 N 339.963 1.05934 -1.16686 0
M  V30 3521 C 341.191 1.8249 -0.974929 0
M  V30 3522 C 341.606 1.82679 0.476861 0
M  V30 3523 O 340.963 1.2486 1.33103 0
M  V30 3524 C 341.014 3.28943 -1.49929 0
M  V30 3525 O 340.735 3.28886 -2.89423 0
M  V30 3526 C 342.236 4.22215 -1.35089 0
M  V30 3527 H 339.456 0.575295 -0.345365 0
M  V30 3528 H 342 1.33631 -1.548 0
M  V30 3529 H 340.155 3.751 -0.968423 0
M  V30 3530 H 340.569 4.20493 -3.13506 0
M  V30 3531 H 342.043 5.22987 -1.76603 0
M  V30 3532 H 342.52 4.38195 -0.296935 0
M  V30 3533 H 343.126 3.81907 -1.87155 0
M  V30 3534 N 341.441 0.965919 1.2453 0
M  V30 3535 C 342.687 0.637349 1.93156 0
M  V30 3536 C 343.042 -0.818261 1.74133 0
M  V30 3537 O 342.335 -1.58079 1.08266 0
M  V30 3538 C 342.529 0.945428 3.44669 0
M  V30 3539 C 342.358 2.42944 3.78429 0
M  V30 3540 C 341.128 3.08895 3.9989 0
M  V30 3541 C 343.326 3.40941 3.8505 0
M  V30 3542 N 341.308 4.47052 4.20735 0
M  V30 3543 C 342.679 4.64448 4.10717 0
M  V30 3544 C 344.734 3.35624 3.67779 0
M  V30 3545 C 343.437 5.83292 4.20907 0
M  V30 3546 C 345.463 4.53818 3.79214 0
M  V30 3547 C 344.825 5.76114 4.05304 0
M  V30 3548 H 340.924 0.284034 0.728594 0
M  V30 3549 H 343.508 1.24041 1.50073 0
M  V30 3550 H 341.679 0.371193 3.86622 0
M  V30 3551 H 343.411 0.575613 4.00586 0
M  V30 3552 H 340.166 2.59432 3.96222 0
M  V30 3553 H 340.59 5.18634 4.35141 0
M  V30 3554 H 345.232 2.4211 3.46616 0
M  V30 3555 H 342.95 6.77236 4.40883 0
M  V30 3556 H 346.536 4.51263 3.67224 0
M  V30 3557 H 345.416 6.66045 4.13949 0
M  V30 3558 N 342.919 -1.39368 0.735821 0
M  V30 3559 C 343.829 -2.34395 0.0979693 0
M  V30 3560 C 344.845 -1.58361 -0.720968 0
M  V30 3561 O 346.021 -1.90648 -0.649245 0
M  V30 3562 C 343.086 -3.37393 -0.797916 0
M  V30 3563 C 342.147 -4.29287 0.0333662 0
M  V30 3564 C 341.38 -5.27365 -0.819854 0
M  V30 3565 O 341.603 -5.31959 -2.05855 0
M  V30 3566 O 340.537 -6.01389 -0.248079 0
M  V30 3567 H 344.363 -2.90601 0.882315 0
M  V30 3568 H 341.948 -1.40909 0.4965 0
M  V30 3569 H 343.83 -4.00505 -1.31048 0
M  V30 3570 H 342.505 -2.83571 -1.56106 0
M  V30 3571 H 341.412 -3.69395 0.591475 0
M  V30 3572 H 342.745 -4.86317 0.758752 0
M  V30 3573 N 344.397 -0.483516 -1.5 0
M  V30 3574 C 345.347 0.32306 -2.257 0
M  V30 3575 C 346.331 0.950755 -1.29805 0
M  V30 3576 O 347.523 0.861247 -1.54634 0
M  V30 3577 C 344.652 1.39724 -3.13579 0
M  V30 3578 C 343.738 0.776663 -4.16928 0
M  V30 3579 N 344.129 -0.1104 -5.0568 0
M  V30 3580 C 342.427 1.03922 -4.33724 0
M  V30 3581 C 343.128 -0.46387 -5.79848 0
M  V30 3582 N 342.104 0.163987 -5.43353 0
M  V30 3583 H 345.906 -0.360086 -2.91686 0
M  V30 3584 H 343.42 -0.298456 -1.59634 0
M  V30 3585 H 345.417 1.98837 -3.66428 0
M  V30 3586 H 344.077 2.08225 -2.49143 0
M  V30 3587 H 345.088 -0.480069 -5.1567 0
M  V30 3588 H 341.765 1.71829 -3.80501 0
M  V30 3589 H 343.155 -1.18854 -6.61304 0
M  V30 3590 N 345.875 1.56104 -0.216619 0
M  V30 3591 C 347.152 1.89988 0.465165 0
M  V30 3592 C 347.532 1.13326 1.78102 0
M  V30 3593 O 346.88 0.241033 2.27225 0
M  V30 3594 C 347.09 3.42646 0.662939 0
M  V30 3595 C 348.438 4.13311 0.972602 0
M  V30 3596 O 349.462 3.48217 0.749901 0
M  V30 3597 O 348.321 5.28396 1.39499 0
M  V30 3598 H 345.415 0.78979 0.245276 0
M  V30 3599 H 347.961 1.67721 -0.258436 0
M  V30 3600 H 346.733 3.90399 -0.26543 0
M  V30 3601 H 346.356 3.70677 1.43821 0
M  V30 3602 N 347.353 -0.0568162 1.57498 0
M  V30 3603 C 348.283 -1.06593 2.0775 0
M  V30 3604 C 349.264 -1.39448 0.974082 0
M  V30 3605 O 350.449 -1.48815 1.24771 0
M  V30 3606 C 347.579 -2.37509 2.5339 0
M  V30 3607 C 346.533 -2.1897 3.67745 0
M  V30 3608 C 345.859 -3.55402 3.99492 0
M  V30 3609 C 347.159 -1.59859 4.97235 0
M  V30 3610 H 348.853 -0.647706 2.9231 0
M  V30 3611 H 346.399 -0.310116 1.40621 0
M  V30 3612 H 348.352 -3.08409 2.87162 0
M  V30 3613 H 347.076 -2.8134 1.65878 0
M  V30 3614 H 345.735 -1.50508 3.3428 0
M  V30 3615 H 345.383 -3.9683 3.09088 0
M  V30 3616 H 345.083 -3.43831 4.76502 0
M  V30 3617 H 346.607 -4.27708 4.35773 0
M  V30 3618 H 348.021 -2.20642 5.29141 0
M  V30 3619 H 346.418 -1.58942 5.78669 0
M  V30 3620 H 347.488 -0.561506 4.81638 0
M  V30 3621 N 348.832 -1.54138 -0.328536 0
M  V30 3622 C 350.243 -1.63395 -0.903272 0
M  V30 3623 C 350.594 -0.524828 -1.8905 0
M  V30 3624 O 349.719 0.343068 -2.13663 0
M  V30 3625 C 350.314 -2.9618 -1.64507 0
M  V30 3626 C 348.873 -3.0765 -2.1686 0
M  V30 3627 C 348.02 -2.58933 -0.992416 0
M  V30 3628 H 350.971 -1.58344 -0.106253 0
M  V30 3629 H 350.992 -2.86061 -2.50897 0
M  V30 3630 H 350.504 -3.76884 -0.926302 0
M  V30 3631 H 348.605 -2.31611 -2.91868 0
M  V30 3632 H 348.718 -4.1337 -2.42202 0
M  V30 3633 H 347.082 -2.14706 -1.37016 0
M  V30 3634 H 347.865 -3.42089 -0.288041 0
M  V30 3635 N 350.31 0.590341 -1.46126 0
M  V30 3636 C 351.535 1.37991 -1.54833 0
M  V30 3637 C 351.96 1.87163 -0.187506 0
M  V30 3638 O 351.318 1.61133 0.831008 0
M  V30 3639 C 351.366 2.54867 -2.55098 0
M  V30 3640 O 350.47 3.56061 -2.08073 0
M  V30 3641 H 349.811 0.411265 -0.521303 0
M  V30 3642 H 352.341 0.716819 -1.91632 0
M  V30 3643 H 352.351 3.01886 -2.74461 0
M  V30 3644 H 351.026 2.18429 -3.53923 0
M  V30 3645 H 349.603 3.15574 -1.98664 0
M  V30 3646 N 351.788 1.33704 0.83433 0
M  V30 3647 C 352.738 1.20899 1.93306 0
M  V30 3648 C 353.722 0.110783 1.60518 0
M  V30 3649 O 354.914 0.339331 1.73717 0
M  V30 3650 C 352.043 0.955018 3.29749 0
M  V30 3651 C 351.129 2.09587 3.68692 0
M  V30 3652 N 351.52 3.34621 3.79292 0
M  V30 3653 C 349.818 2.00358 3.98463 0
M  V30 3654 C 350.519 4.09472 4.13167 0
M  V30 3655 N 349.495 3.37954 4.25779 0
M  V30 3656 H 353.297 2.15665 1.99664 0
M  V30 3657 H 350.811 1.25777 1.02732 0
M  V30 3658 H 352.808 0.844208 4.08263 0
M  V30 3659 H 351.468 0.0159317 3.24696 0
M  V30 3660 H 352.479 3.69313 3.63082 0
M  V30 3661 H 349.156 1.14137 4.01596 0
M  V30 3662 H 350.546 5.17391 4.28668 0
M  V30 3663 N 353.266 -1.05314 1.17247 0
M  V30 3664 C 354.682 -1.30452 0.919473 0
M  V30 3665 C 354.882 -1.9703 -0.42209 0
M  V30 3666 O 353.938 -2.24311 -1.15935 0
M  V30 3667 C 355.251 -2.17551 2.07586 0
M  V30 3668 C 356.799 -2.30937 2.11275 0
M  V30 3669 C 357.274 -3.21396 3.26296 0
M  V30 3670 N 358.765 -3.28981 3.26076 0
M  V30 3671 C 359.5 -3.99095 4.11716 0
M  V30 3672 N 358.996 -4.71648 5.07465 0
M  V30 3673 N 360.789 -3.95247 3.9967 0
M  V30 3674 H 352.94 -0.604988 2.03602 0
M  V30 3675 H 355.203 -0.329368 0.888944 0
M  V30 3676 H 354.909 -1.75921 3.0454 0
M  V30 3677 H 354.783 -3.18182 2.02584 0
M  V30 3678 H 357.17 -2.71809 1.14907 0
M  V30 3679 H 357.251 -1.2994 2.20339 0
M  V30 3680 H 356.895 -2.81238 4.22927 0
M  V30 3681 H 356.825 -4.22395 3.14467 0
M  V30 3682 H 359.316 -2.77286 2.5675 0
M  V30 3683 H 359.629 -5.22705 5.6921 0
M  V30 3684 H 357.974 -4.70594 5.11435 0
M  V30 3685 H 361.165 -3.37691 3.24164 0
M  V30 3686 H 361.338 -4.4962 4.66632 0
M  V30 3687 N 354.744 -0.972509 -1.24016 0
M  V30 3688 C 356.16 -0.679827 -1.44397 0
M  V30 3689 C 356.36 0.756716 -1.86751 0
M  V30 3690 O 355.416 1.53007 -2.00861 0
M  V30 3691 C 356.729 -1.66803 -2.50195 0
M  V30 3692 C 358.277 -1.68119 -2.64017 0
M  V30 3693 C 358.752 -2.65748 -3.73017 0
M  V30 3694 N 360.243 -2.64219 -3.8045 0
M  V30 3695 C 360.978 -3.36433 -4.64328 0
M  V30 3696 N 360.474 -4.1818 -5.52356 0
M  V30 3697 N 362.267 -3.25235 -4.58453 0
M  V30 3698 H 354.418 -1.90059 -0.948228 0
M  V30 3699 H 356.681 -0.818527 -0.478245 0
M  V30 3700 H 356.387 -2.69498 -2.25973 0
M  V30 3701 H 356.261 -1.4446 -3.48441 0
M  V30 3702 H 358.648 -0.661319 -2.87594 0
M  V30 3703 H 358.729 -1.94525 -1.66113 0
M  V30 3704 H 358.373 -3.67872 -3.50189 0
M  V30 3705 H 358.303 -2.36619 -4.70446 0
M  V30 3706 H 360.794 -2.04887 -3.17537 0
M  V30 3707 H 361.107 -4.70157 -6.13329 0
M  V30 3708 H 359.452 -4.22273 -5.52006 0
M  V30 3709 H 362.643 -2.60829 -3.88698 0
M  V30 3710 H 362.816 -3.81776 -5.23594 0
M  V30 3711 N 356.222 1.38976 -0.743202 0
M  V30 3712 C 357.172 2.27843 -0.084513 0
M  V30 3713 C 358.156 1.44677 0.704094 0
M  V30 3714 O 359.348 1.67511 0.571755 0
M  V30 3715 C 356.477 3.33466 0.815781 0
M  V30 3716 C 355.563 4.24095 0.0208844 0
M  V30 3717 N 355.954 4.95609 -1.0102 0
M  V30 3718 C 354.252 4.45303 0.249293 0
M  V30 3719 C 354.953 5.62287 -1.49024 0
M  V30 3720 N 353.929 5.37571 -0.807377 0
M  V30 3721 H 357.731 2.80593 -0.87436 0
M  V30 3722 H 355.245 1.51755 -0.578283 0
M  V30 3723 H 357.242 3.96008 1.30321 0
M  V30 3724 H 355.902 2.82276 1.6047 0
M  V30 3725 H 356.913 4.98849 -1.39176 0
M  V30 3726 H 353.59 4.0504 1.01237 0
M  V30 3727 H 354.98 6.29519 -2.34853 0
M  V30 3728 N 357.7 0.491464 1.49741 0
M  V30 3729 C 358.663 -0.280906 2.27472 0
M  V30 3730 C 359.663 -0.902454 1.33088 0
M  V30 3731 O 360.853 -0.768465 1.56334 0
M  V30 3732 C 357.985 -1.40209 3.10732 0
M  V30 3733 H 359.178 0.401056 2.97206 0
M  V30 3734 H 356.731 0.246131 1.5435 0
M  V30 3735 H 357.466 -2.11849 2.45541 0
M  V30 3736 H 357.251 -0.961969 3.80117 0
M  V30 3737 H 358.741 -1.9464 3.69466 0
M  V30 3738 N 359.178 -1.55987 0.224894 0
M  V30 3739 C 360.426 -1.97998 -0.405099 0
M  V30 3740 C 360.747 -1.11387 -1.60056 0
M  V30 3741 O 360.017 -0.191645 -1.9496 0
M  V30 3742 H 358.597 -0.731235 -0.152658 0
M  V30 3743 H 361.259 -1.92279 0.318567 0
M  V30 3744 H 360.355 -3.03463 -0.729167 0
M  V30 3745 N 360.656 0.0484629 -1.57525 0
M  V30 3746 C 361.586 1.0549 -2.08313 0
M  V30 3747 C 362.567 1.38929 -0.981463 0
M  V30 3748 O 363.752 1.48151 -1.25558 0
M  V30 3749 C 360.882 2.36162 -2.54646 0
M  V30 3750 C 359.836 2.17016 -3.68901 0
M  V30 3751 C 359.162 3.53278 -4.01371 0
M  V30 3752 C 360.462 1.57219 -4.98076 0
M  V30 3753 H 362.156 0.632195 -2.92649 0
M  V30 3754 H 359.702 0.302654 -1.40784 0
M  V30 3755 H 361.655 3.06882 -2.88793 0
M  V30 3756 H 360.379 2.80456 -1.67368 0
M  V30 3757 H 359.038 1.48733 -3.35073 0
M  V30 3758 H 358.686 3.95185 -3.11188 0
M  V30 3759 H 358.386 3.41299 -4.78318 0
M  V30 3760 H 359.91 4.25391 -4.38035 0
M  V30 3761 H 361.324 2.17832 -5.30304 0
M  V30 3762 H 359.721 1.55871 -5.79503 0
M  V30 3763 H 360.791 0.535956 -4.81929 0
M  V30 3764 N 362.134 1.5431 0.320358 0
M  V30 3765 C 363.064 1.86912 1.3995 0
M  V30 3766 C 364.045 0.726211 1.53819 0
M  V30 3767 O 365.23 0.980233 1.67646 0
M  V30 3768 C 362.36 2.09932 2.7667 0
M  V30 3769 C 361.314 3.25776 2.77586 0
M  V30 3770 C 360.64 3.34173 4.17412 0
M  V30 3771 C 361.94 4.6335 2.41048 0
M  V30 3772 H 363.634 2.77292 1.12914 0
M  V30 3773 H 361.18 1.33421 0.541738 0
M  V30 3774 H 363.133 2.31324 3.52232 0
M  V30 3775 H 361.857 1.16304 3.0519 0
M  V30 3776 H 360.516 3.04276 2.04479 0
M  V30 3777 H 360.164 2.38098 4.43078 0
M  V30 3778 H 359.864 4.12033 4.18931 0
M  V30 3779 H 361.388 3.57803 4.94782 0
M  V30 3780 H 362.802 4.84602 3.06324 0
M  V30 3781 H 361.199 5.43782 2.53813 0
M  V30 3782 H 362.269 4.65381 1.36193 0
M  V30 3783 N 363.613 -0.582584 1.46437 0
M  V30 3784 C 364.838 -1.37168 1.55563 0
M  V30 3785 C 365.263 -1.87061 0.19743 0
M  V30 3786 O 364.621 -1.61572 -0.822451 0
M  V30 3787 C 364.669 -2.53511 2.56446 0
M  V30 3788 O 363.773 -3.54953 2.09958 0
M  V30 3789 H 363.114 -0.408494 0.523477 0
M  V30 3790 H 365.644 -0.706646 1.9201 0
M  V30 3791 H 365.654 -3.00426 2.76058 0
M  V30 3792 H 364.329 -2.16549 3.55076 0
M  V30 3793 H 362.906 -3.14516 2.00334 0
M  V30 3794 N 365.091 -1.34144 -0.827227 0
M  V30 3795 C 366.021 -1.28005 -1.95287 0
M  V30 3796 C 367.002 -0.158321 -1.69362 0
M  V30 3797 O 368.187 -0.349987 -1.9102 0
M  V30 3798 C 365.317 -1.03036 -3.31664 0
M  V30 3799 C 364.271 -2.11628 -3.72019 0
M  V30 3800 C 363.597 -1.71854 -5.0633 0
M  V30 3801 C 364.897 -3.53417 -3.8457 0
M  V30 3802 H 366.591 -2.22187 -2.00682 0
M  V30 3803 H 364.137 -1.0696 -0.964135 0
M  V30 3804 H 366.09 -0.973863 -4.09993 0
M  V30 3805 H 364.814 -0.0529391 -3.26557 0
M  V30 3806 H 363.473 -2.16339 -2.95961 0
M  V30 3807 H 363.121 -0.727841 -4.97706 0
M  V30 3808 H 362.821 -2.44531 -5.34302 0
M  V30 3809 H 364.345 -1.67692 -5.87122 0
M  V30 3810 H 365.759 -3.51142 -4.5318 0
M  V30 3811 H 364.156 -4.24679 -4.2399 0
M  V30 3812 H 365.226 -3.91072 -2.86689 0
M  V30 3813 N 366.569 1.04691 -1.17803 0
M  V30 3814 C 367.98 1.59238 -0.974689 0
M  V30 3815 C 368.331 1.90306 0.477292 0
M  V30 3816 O 367.456 1.68846 1.35352 0
M  V30 3817 C 368.051 2.89318 -1.76296 0
M  V30 3818 C 366.61 3.40506 -1.60414 0
M  V30 3819 C 365.757 2.14172 -1.76141 0
M  V30 3820 H 368.708 0.874395 -1.32439 0
M  V30 3821 H 368.729 3.5944 -1.24833 0
M  V30 3822 H 368.241 2.66675 -2.81968 0
M  V30 3823 H 366.342 3.68175 -0.572519 0
M  V30 3824 H 366.455 4.14753 -2.39827 0
M  V30 3825 H 364.819 2.25176 -1.19028 0
M  V30 3826 H 365.602 1.93992 -2.83235 0
M  V30 3827 N 368.047 0.979072 1.23499 0
M  V30 3828 C 369.324 0.563674 1.87302 0
M  V30 3829 C 369.704 -0.959199 1.88049 0
M  V30 3830 O 369.052 -1.83535 1.36114 0
M  V30 3831 C 369.262 1.16822 3.28867 0
M  V30 3832 C 370.61 1.26014 4.0547 0
M  V30 3833 O 371.634 1.12158 3.38082 0
M  V30 3834 O 370.493 1.48044 5.26066 0
M  V30 3835 H 367.587 0.189602 0.804972 0
M  V30 3836 H 370.133 1.07407 1.31384 0
M  V30 3837 H 368.905 2.21049 3.22883 0
M  V30 3838 H 368.528 0.642564 3.92373 0
M  V30 3839 N 369.525 -1.3858 0.750561 0
M  V30 3840 C 370.774 -1.99424 0.302172 0
M  V30 3841 C 371.087 -1.60254 -1.12152 0
M  V30 3842 O 372.293 -2.14046 -1.67023 0
M  V30 3843 C 370.749 -3.56558 0.489307 0
M  V30 3844 C 370.357 -4.04682 1.92189 0
M  V30 3845 C 372.101 -4.24374 0.103478 0
M  V30 3846 C 370.008 -5.54446 2.05775 0
M  V30 3847 H 368.938 -0.746046 0.10923 0
M  V30 3848 H 371.589 -1.58383 0.92667 0
M  V30 3849 H 369.971 -3.95472 -0.204329 0
M  V30 3850 H 371.145 -3.77065 2.64875 0
M  V30 3851 H 369.46 -3.4958 2.26236 0
M  V30 3852 H 372.057 -5.34384 0.183787 0
M  V30 3853 H 372.4 -4.05468 -0.943481 0
M  V30 3854 H 372.933 -3.90688 0.748854 0
M  V30 3855 H 369.672 -5.78252 3.08714 0
M  V30 3856 H 369.192 -5.83816 1.37546 0
M  V30 3857 H 370.871 -6.20099 1.84626 0
M  V30 3858 N 371.003 -0.499398 -1.49478 0
M  V30 3859 C 372.228 0.044722 -2.07352 0
M  V30 3860 C 372.653 1.30207 -1.35749 0
M  V30 3861 O 372.011 1.76516 -0.413732 0
M  V30 3862 C 372.059 0.283013 -3.59488 0
M  V30 3863 O 371.163 1.35804 -3.89398 0
M  V30 3864 H 370.504 -0.0255147 -0.66351 0
M  V30 3865 H 373.034 -0.698561 -1.92305 0
M  V30 3866 H 373.044 0.515007 -4.04737 0
M  V30 3867 H 371.719 -0.635636 -4.11014 0
M  V30 3868 H 370.296 1.11113 -3.55961 0
M  V30 3869 N 372.481 1.55866 -0.233164 0
M  V30 3870 C 373.411 2.23783 0.666599 0
M  V30 3871 C 374.392 1.21343 1.19205 0
M  V30 3872 O 375.577 1.4996 1.23392 0
M  V30 3873 C 372.707 2.92671 1.86978 0
M  V30 3874 C 371.661 4.01682 1.47768 0
M  V30 3875 C 370.987 4.57926 2.76058 0
M  V30 3876 C 372.287 5.18126 0.658993 0
M  V30 3877 H 373.981 2.99232 0.100306 0
M  V30 3878 H 371.527 1.43924 0.046804 0
M  V30 3879 H 373.48 3.3888 2.50476 0
M  V30 3880 H 372.204 2.14688 2.46123 0
M  V30 3881 H 370.863 3.56222 0.866106 0
M  V30 3882 H 370.511 3.76659 3.33372 0
M  V30 3883 H 370.211 5.31505 2.50552 0
M  V30 3884 H 371.735 5.06859 3.40479 0
M  V30 3885 H 373.149 5.60644 1.19795 0
M  V30 3886 H 371.546 5.98009 0.500552 0
M  V30 3887 H 372.616 4.83763 -0.331856 0
M  V30 3888 N 373.959 -0.0401083 1.57549 0
M  V30 3889 C 374.869 -1.06133 2.0922 0
M  V30 3890 C 375.885 -1.40356 1.0284 0
M  V30 3891 O 377.061 -1.49897 1.34509 0
M  V30 3892 C 374.126 -2.34658 2.55218 0
M  V30 3893 C 373.187 -2.07117 3.76033 0
M  V30 3894 C 372.42 -3.29514 4.19829 0
M  V30 3895 O 372.643 -4.39794 3.63232 0
M  V30 3896 O 371.577 -3.15863 5.12362 0
M  V30 3897 H 375.403 -0.652244 2.96613 0
M  V30 3898 H 372.988 -0.256368 1.47184 0
M  V30 3899 H 374.87 -3.10239 2.85184 0
M  V30 3900 H 373.545 -2.74883 1.70941 0
M  V30 3901 H 372.452 -1.29139 3.51104 0
M  V30 3902 H 373.785 -1.71754 4.61261 0
M  V30 3903 N 375.437 -1.54477 -0.31217 0
M  V30 3904 C 376.4 -1.83923 -1.36766 0
M  V30 3905 C 377.4 -0.711563 -1.44199 0
M  V30 3906 O 378.59 -0.979866 -1.44029 0
M  V30 3907 C 375.722 -2.0095 -2.75376 0
M  V30 3908 H 376.915 -2.78239 -1.11906 0
M  V30 3909 H 374.468 -1.46369 -0.548257 0
M  V30 3910 H 375.203 -1.08883 -3.05475 0
M  V30 3911 H 374.988 -2.83018 -2.71373 0
M  V30 3912 H 376.478 -2.2514 -3.51713 0
M  V30 3913 N 376.915 0.57481 -1.46744 0
M  V30 3914 C 377.845 1.69337 -1.60771 0
M  V30 3915 C 378.826 1.63825 -0.457736 0
M  V30 3916 O 380.011 1.8172 -0.684947 0
M  V30 3917 C 377.141 3.0798 -1.60517 0
M  V30 3918 C 376.095 3.28327 -2.74564 0
M  V30 3919 C 375.421 4.67578 -2.59373 0
M  V30 3920 C 376.721 3.15398 -4.16319 0
M  V30 3921 H 378.415 1.57853 -2.54407 0
M  V30 3922 H 375.961 0.75799 -1.22436 0
M  V30 3923 H 377.914 3.86061 -1.68923 0
M  V30 3924 H 376.638 3.20381 -0.634305 0
M  V30 3925 H 375.297 2.52649 -2.65639 0
M  V30 3926 H 374.945 4.76755 -1.60353 0
M  V30 3927 H 374.645 4.82144 -3.35873 0
M  V30 3928 H 376.169 5.47817 -2.69682 0
M  V30 3929 H 377.583 3.83315 -4.26313 0
M  V30 3930 H 375.98 3.41482 -4.93468 0
M  V30 3931 H 377.05 2.12372 -4.3592 0
M  V30 3932 N 378.394 1.34581 0.820102 0
M  V30 3933 C 379.326 1.22236 1.93884 0
M  V30 3934 C 380.339 0.148776 1.62119 0
M  V30 3935 O 381.528 0.400877 1.7394 0
M  V30 3936 C 378.628 0.856542 3.27897 0
M  V30 3937 C 377.801 2.02569 3.87666 0
M  V30 3938 C 376.86 1.63782 5.00062 0
M  V30 3939 O 375.886 2.35477 5.18208 0
M  V30 3940 N 377.088 0.553611 5.77854 0
M  V30 3941 H 379.853 2.18615 2.05006 0
M  V30 3942 H 377.414 1.27573 0.99683 0
M  V30 3943 H 379.406 0.578806 4.0054 0
M  V30 3944 H 377.976 -0.0171518 3.12595 0
M  V30 3945 H 377.196 2.468 3.07382 0
M  V30 3946 H 378.484 2.80752 4.24329 0
M  V30 3947 H 377.882 -0.0423528 5.65684 0
M  V30 3948 H 376.439 0.335614 6.50935 0
M  V30 3949 N 379.872 -1.04064 1.18357 0
M  V30 3950 C 380.819 -2.12077 0.910603 0
M  V30 3951 C 381.789 -1.65421 -0.15 0
M  V30 3952 O 382.974 -1.90797 -0.0103614 0
M  V30 3953 C 380.114 -3.42252 0.442472 0
M  V30 3954 C 379.227 -4.0252 1.5685 0
M  V30 3955 C 378.362 -5.20657 1.05309 0
M  V30 3956 C 377.401 -5.72955 2.1538 0
M  V30 3957 N 376.538 -6.8238 1.65233 0
M  V30 3958 H 381.378 -2.34764 1.83548 0
M  V30 3959 H 378.915 -1.15157 0.915279 0
M  V30 3960 H 380.873 -4.16921 0.152534 0
M  V30 3961 H 379.503 -3.19712 -0.445428 0
M  V30 3962 H 378.555 -3.25178 1.97391 0
M  V30 3963 H 379.867 -4.37362 2.39824 0
M  V30 3964 H 379.021 -6.0244 0.717677 0
M  V30 3965 H 377.76 -4.87318 0.19293 0
M  V30 3966 H 376.765 -4.89793 2.49766 0
M  V30 3967 H 377.99 -6.08337 3.01832 0
M  V30 3968 H 375.936 -6.50917 0.815064 0
M  V30 3969 H 375.853 -7.16286 2.41805 0
M  V30 3970 H 377.121 -7.67788 1.34619 0
M  V30 3971 N 381.35 -0.985608 -1.22978 0
M  V30 3972 C 382.297 -0.529825 -2.24636 0
M  V30 3973 C 383.267 0.434028 -1.60329 0
M  V30 3974 O 384.452 0.340414 -1.87739 0
M  V30 3975 C 381.592 0.156533 -3.44745 0
M  V30 3976 C 380.705 -0.848197 -4.23591 0
M  V30 3977 C 379.84 -0.136109 -5.31026 0
M  V30 3978 C 378.879 -1.1297 -6.01585 0
M  V30 3979 N 378.016 -0.446415 -7.00679 0
M  V30 3980 H 382.856 -1.40148 -2.62988 0
M  V30 3981 H 380.393 -0.702168 -1.29259 0
M  V30 3982 H 382.351 0.571324 -4.1327 0
M  V30 3983 H 380.981 0.992025 -3.07179 0
M  V30 3984 H 380.033 -1.38135 -3.54433 0
M  V30 3985 H 381.345 -1.60512 -4.72268 0
M  V30 3986 H 380.499 0.335784 -6.0577 0
M  V30 3987 H 379.238 0.653373 -4.83304 0
M  V30 3988 H 378.243 -1.6123 -5.25628 0
M  V30 3989 H 379.468 -1.91993 -6.51395 0
M  V30 3990 H 377.414 0.323763 -6.55201 0
M  V30 3991 H 377.331 -1.1419 -7.47326 0
M  V30 3992 H 378.599 0.00291697 -7.795 0
M  V30 3993 N 382.828 1.3818 -0.7579 0
M  V30 3994 C 383.775 2.30416 -0.133057 0
M  V30 3995 C 384.745 1.50398 0.704957 0
M  V30 3996 O 385.93 1.79014 0.660192 0
M  V30 3997 C 383.07 3.36834 0.750813 0
M  V30 3998 C 382.183 4.31879 -0.102297 0
M  V30 3999 C 381.318 5.25368 0.784979 0
M  V30 4000 C 380.357 6.12058 -0.0715046 0
M  V30 4001 N 379.494 6.97832 0.772972 0
M  V30 4002 H 384.334 2.83274 -0.925186 0
M  V30 4003 H 381.871 1.39461 -0.467866 0
M  V30 4004 H 383.829 3.97145 1.27794 0
M  V30 4005 H 382.459 2.85374 1.50868 0
M  V30 4006 H 381.511 3.72991 -0.747095 0
M  V30 4007 H 382.823 4.92921 -0.763552 0
M  V30 4008 H 381.977 5.90818 1.37911 0
M  V30 4009 H 380.716 4.64703 1.47996 0
M  V30 4010 H 379.721 5.456 -0.678272 0
M  V30 4011 H 380.946 6.74793 -0.763606 0
M  V30 4012 H 378.892 6.3971 1.45282 0
M  V30 4013 H 378.809 7.55812 0.168709 0
M  V30 4014 H 380.077 7.67687 1.35194 0
M  V30 4015 N 384.306 0.507319 1.49211 0
M  V30 4016 C 385.269 -0.256763 2.27757 0
M  V30 4017 C 386.269 -0.888287 1.34038 0
M  V30 4018 O 387.459 -0.751841 1.5714 0
M  V30 4019 C 384.591 -1.36905 3.12202 0
M  V30 4020 H 385.784 0.432557 2.96764 0
M  V30 4021 H 383.337 0.262488 1.5408 0
M  V30 4022 H 384.072 -2.09233 2.47775 0
M  V30 4023 H 383.857 -0.921599 3.81115 0
M  V30 4024 H 385.347 -1.9071 3.7151 0
M  V30 4025 N 385.784 -1.5574 0.241426 0
M  V30 4026 C 386.717 -2.17168 -0.700935 0
M  V30 4027 C 387.695 -1.12206 -1.1768 0
M  V30 4028 O 388.879 -1.40565 -1.25593 0
M  V30 4029 C 386.006 -2.76796 -1.95196 0
M  V30 4030 C 385.052 -3.94764 -1.61442 0
M  V30 4031 S 385.885 -5.30613 -0.72182 0
M  V30 4032 C 387.041 -5.93691 -1.98197 0
M  V30 4033 H 387.274 -2.96761 -0.178882 0
M  V30 4034 H 384.807 -1.54378 0.0259299 0
M  V30 4035 H 386.765 -3.11787 -2.67019 0
M  V30 4036 H 385.426 -1.9716 -2.44514 0
M  V30 4037 H 384.619 -4.35057 -2.54443 0
M  V30 4038 H 384.221 -3.61022 -0.976672 0
M  V30 4039 H 386.513 -6.10874 -2.92983 0
M  V30 4040 H 387.456 -6.89258 -1.62262 0
M  V30 4041 H 387.864 -5.22709 -2.13156 0
M  V30 4042 N 387.262 0.0317525 -1.57568 0
M  V30 4043 C 388.192 1.03274 -2.0942 0
M  V30 4044 C 389.173 1.3788 -0.996143 0
M  V30 4045 O 390.358 1.46811 -1.27122 0
M  V30 4046 C 387.488 2.33448 -2.57137 0
M  V30 4047 C 386.442 2.13091 -3.71182 0
M  V30 4048 C 385.768 3.49001 -4.05095 0
M  V30 4049 C 387.068 1.51928 -4.99715 0
M  V30 4050 H 388.762 0.60112 -2.93303 0
M  V30 4051 H 386.308 0.287705 -1.41097 0
M  V30 4052 H 388.261 3.03802 -2.92032 0
M  V30 4053 H 386.985 2.78665 -1.70333 0
M  V30 4054 H 385.644 1.45171 -3.36632 0
M  V30 4055 H 385.292 3.91862 -3.15362 0
M  V30 4056 H 384.992 3.36207 -4.81911 0
M  V30 4057 H 386.516 4.20721 -4.42522 0
M  V30 4058 H 387.93 2.12196 -5.32584 0
M  V30 4059 H 386.327 1.49716 -5.81124 0
M  V30 4060 H 387.397 0.484811 -4.8247 0
M  V30 4061 N 388.74 1.54641 0.303973 0
M  V30 4062 C 389.672 1.81754 1.39636 0
M  V30 4063 C 390.685 0.70035 1.46966 0
M  V30 4064 O 391.874 0.97778 1.49338 0
M  V30 4065 C 388.974 1.93785 2.7803 0
M  V30 4066 C 388.147 3.24156 2.93669 0
M  V30 4067 C 387.206 3.26641 4.12544 0
M  V30 4068 O 386.232 4.00187 4.04771 0
M  V30 4069 N 387.434 2.5182 5.23036 0
M  V30 4070 H 390.199 2.76031 1.16734 0
M  V30 4071 H 387.76 1.54178 0.494033 0
M  V30 4072 H 389.752 1.92852 3.55795 0
M  V30 4073 H 388.322 1.06515 2.93893 0
M  V30 4074 H 387.542 3.37887 2.03042 0
M  V30 4075 H 388.83 4.10195 3.01027 0
M  V30 4076 H 388.228 1.91692 5.32232 0
M  V30 4077 H 386.785 2.56644 5.99147 0
M  V30 4078 N 390.218 -0.567019 1.47046 0
M  V30 4079 C 391.128 -1.70247 1.6141 0
M  V30 4080 C 392.144 -1.66746 0.497157 0
M  V30 4081 O 393.32 -1.86371 0.763389 0
M  V30 4082 C 390.385 -3.06756 1.61561 0
M  V30 4083 C 389.446 -3.21399 2.84607 0
M  V30 4084 C 388.679 -4.51396 2.84741 0
M  V30 4085 O 388.902 -5.36255 1.94388 0
M  V30 4086 O 387.836 -4.69621 3.76483 0
M  V30 4087 H 391.662 -1.61073 2.57467 0
M  V30 4088 H 389.247 -0.735894 1.30019 0
M  V30 4089 H 391.129 -3.8801 1.64396 0
M  V30 4090 H 389.804 -3.16333 0.686684 0
M  V30 4091 H 388.711 -2.39579 2.8732 0
M  V30 4092 H 390.044 -3.16721 3.76761 0
M  V30 4093 N 391.696 -1.35014 -0.812953 0
M  V30 4094 C 392.628 -1.23262 -1.93233 0
M  V30 4095 C 393.641 -0.157371 -1.62038 0
M  V30 4096 O 394.83 -0.410096 -1.73725 0
M  V30 4097 C 391.93 -0.87392 -3.27438 0
M  V30 4098 C 391.103 -2.04622 -3.86586 0
M  V30 4099 C 390.162 -1.66432 -4.99186 0
M  V30 4100 O 389.188 -2.38222 -5.16951 0
M  V30 4101 N 390.39 -0.584248 -5.77552 0
M  V30 4102 H 393.155 -2.19699 -2.03844 0
M  V30 4103 H 390.716 -1.281 -0.99005 0
M  V30 4104 H 392.708 -0.600039 -4.00227 0
M  V30 4105 H 391.278 0.00057392 -3.126 0
M  V30 4106 H 390.498 -2.48427 -3.06068 0
M  V30 4107 H 391.786 -2.82999 -4.22835 0
M  V30 4108 H 391.184 0.0123526 -5.65699 0
M  V30 4109 H 389.741 -0.37013 -6.50748 0
M  V30 4110 N 393.175 1.03435 -1.18907 0
M  V30 4111 C 394.421 1.77005 -0.989798 0
M  V30 4112 C 394.754 1.88205 0.478816 0
M  V30 4113 O 394.029 1.39481 1.35556 0
M  V30 4114 C 394.312 3.19925 -1.65287 0
M  V30 4115 C 394.165 3.1663 -3.19477 0
M  V30 4116 C 395.484 4.18189 -1.37134 0
M  V30 4117 H 392.603 0.642538 -0.360991 0
M  V30 4118 H 395.245 1.20784 -1.46667 0
M  V30 4119 H 393.395 3.67929 -1.24741 0
M  V30 4120 H 395.067 2.76567 -3.692 0
M  V30 4121 H 393.31 2.54491 -3.51307 0
M  V30 4122 H 393.981 4.1758 -3.61013 0
M  V30 4123 H 396.457 3.78761 -1.72276 0
M  V30 4124 H 395.333 5.16394 -1.86087 0
M  V30 4125 H 395.594 4.41112 -0.295424 0
M  V30 4126 N 394.653 0.992116 1.22453 0
M  V30 4127 C 395.583 0.561677 2.26644 0
M  V30 4128 C 396.564 -0.411055 1.65059 0
M  V30 4129 O 397.749 -0.301861 1.9184 0
M  V30 4130 C 394.879 -0.125247 3.47074 0
M  V30 4131 C 393.833 0.765948 4.21091 0
M  V30 4132 C 393.159 -0.0538484 5.34673 0
M  V30 4133 C 394.459 2.06242 4.79856 0
M  V30 4134 H 396.153 1.43259 2.62902 0
M  V30 4135 H 393.699 0.690283 1.26377 0
M  V30 4136 H 395.652 -0.437764 4.1912 0
M  V30 4137 H 394.376 -1.03069 3.0991 0
M  V30 4138 H 393.035 1.0621 3.50878 0
M  V30 4139 H 392.683 -0.960188 4.9375 0
M  V30 4140 H 392.383 0.539415 5.85119 0
M  V30 4141 H 393.907 -0.360477 6.09535 0
M  V30 4142 H 395.321 1.8139 5.43848 0
M  V30 4143 H 393.718 2.60444 5.40638 0
M  V30 4144 H 394.788 2.74167 3.99951 0
M  V30 4145 N 396.131 -1.37776 0.765217 0
M  V30 4146 C 397.078 -2.30342 0.145274 0
M  V30 4147 C 398.048 -1.5077 -0.696971 0
M  V30 4148 O 399.233 -1.79362 -0.650689 0
M  V30 4149 C 396.373 -3.37227 -0.732939 0
M  V30 4150 C 395.486 -4.31819 0.125199 0
M  V30 4151 C 394.621 -5.25777 -0.757107 0
M  V30 4152 C 393.66 -6.12012 0.103963 0
M  V30 4153 N 392.797 -6.98232 -0.735953 0
M  V30 4154 H 397.637 -2.8278 0.940195 0
M  V30 4155 H 395.174 -1.39211 0.475255 0
M  V30 4156 H 397.132 -3.97818 -1.25686 0
M  V30 4157 H 395.762 -2.86171 -1.49353 0
M  V30 4158 H 394.814 -3.7259 0.766865 0
M  V30 4159 H 396.126 -4.92509 0.789683 0
M  V30 4160 H 395.28 -5.91541 -1.34776 0
M  V30 4161 H 394.019 -4.65481 -1.45529 0
M  V30 4162 H 393.024 -5.45233 0.707197 0
M  V30 4163 H 394.249 -6.74379 0.799381 0
M  V30 4164 H 392.195 -6.40472 -1.41887 0
M  V30 4165 H 392.112 -7.55891 -0.128624 0
M  V30 4166 H 393.38 -7.68393 -1.31121 0
M  V30 4167 N 397.609 -0.515225 -1.4894 0
M  V30 4168 C 398.837 0.0206034 -2.0689 0
M  V30 4169 C 399.252 1.29514 -1.37374 0
M  V30 4170 O 398.609 1.76698 -0.456529 0
M  V30 4171 C 398.66 0.26351 -3.60538 0
M  V30 4172 O 398.381 -0.960517 -4.27441 0
M  V30 4173 C 399.882 0.841383 -4.35242 0
M  V30 4174 H 397.102 -0.0268608 -0.670462 0
M  V30 4175 H 399.646 -0.716651 -1.91532 0
M  V30 4176 H 397.801 0.950777 -3.75552 0
M  V30 4177 H 398.215 -0.73212 -5.19365 0
M  V30 4178 H 399.689 0.96085 -5.43573 0
M  V30 4179 H 400.166 1.8427 -3.98674 0
M  V30 4180 H 400.772 0.191143 -4.2487 0
M  V30 4181 N 399.087 1.5561 -0.249682 0
M  V30 4182 C 400.05 2.20217 0.635394 0
M  V30 4183 C 401.05 1.17227 1.10066 0
M  V30 4184 O 402.24 1.42292 1.00492 0
M  V30 4185 C 399.372 2.84794 1.87363 0
M  V30 4186 H 400.565 2.99814 0.0716752 0
M  V30 4187 H 398.118 1.563 -0.000153234 0
M  V30 4188 H 398.853 2.09142 2.47851 0
M  V30 4189 H 398.638 3.60241 1.5482 0
M  V30 4190 H 400.128 3.3423 2.5036 0
M  V30 4191 N 400.565 -0.0233959 1.57583 0
M  V30 4192 C 401.495 -1.02162 2.09965 0
M  V30 4193 C 402.476 -1.3735 1.00344 0
M  V30 4194 O 403.661 -1.46135 1.27899 0
M  V30 4195 C 400.791 -2.32081 2.58371 0
M  V30 4196 C 399.745 -2.1112 3.72307 0
M  V30 4197 C 399.071 -3.46848 4.06941 0
M  V30 4198 C 400.371 -1.49276 5.00514 0
M  V30 4199 H 402.065 -0.585557 2.93618 0
M  V30 4200 H 399.611 -0.280218 1.41247 0
M  V30 4201 H 401.564 -3.02249 2.93639 0
M  V30 4202 H 400.288 -2.77758 1.71808 0
M  V30 4203 H 398.947 -1.43384 3.37397 0
M  V30 4204 H 398.595 -3.90184 3.17436 0
M  V30 4205 H 398.295 -3.33646 4.83688 0
M  V30 4206 H 399.819 -4.18369 4.44747 0
M  V30 4207 H 401.233 -2.09368 5.33702 0
M  V30 4208 H 399.63 -1.46632 5.8191 0
M  V30 4209 H 400.7 -0.459217 4.82721 0
M  V30 4210 N 402.043 -1.548 -0.295768 0
M  V30 4211 C 403.289 -1.74588 -1.03184 0
M  V30 4212 C 403.622 -0.532962 -1.86744 0
M  V30 4213 O 402.897 0.469872 -1.88739 0
M  V30 4214 C 403.18 -3.03791 -1.93347 0
M  V30 4215 C 403.033 -4.35392 -1.12933 0
M  V30 4216 C 404.352 -3.28892 -2.92435 0
M  V30 4217 H 401.471 -0.635221 -0.373715 0
M  V30 4218 H 404.113 -1.87519 -0.30606 0
M  V30 4219 H 402.263 -2.92898 -2.55232 0
M  V30 4220 H 403.935 -4.58211 -0.532943 0
M  V30 4221 H 402.178 -4.31642 -0.432168 0
M  V30 4222 H 402.849 -5.22074 -1.79284 0
M  V30 4223 H 405.325 -3.39429 -2.4068 0
M  V30 4224 H 404.201 -4.20603 -3.52682 0
M  V30 4225 H 404.462 -2.47437 -3.6637 0
M  V30 4226 N 403.521 0.559213 -1.47345 0
M  V30 4227 C 404.451 1.67622 -1.62558 0
M  V30 4228 C 405.432 1.63331 -0.475087 0
M  V30 4229 O 406.617 1.80983 -0.704182 0
M  V30 4230 C 403.747 3.0626 -1.63774 0
M  V30 4231 C 402.701 3.25397 -2.7803 0
M  V30 4232 C 402.027 4.64801 -2.64318 0
M  V30 4233 C 403.327 3.10965 -4.19641 0
M  V30 4234 H 405.021 1.55146 -2.56067 0
M  V30 4235 H 402.567 0.744961 -1.23233 0
M  V30 4236 H 404.52 3.84247 -1.73008 0
M  V30 4237 H 403.244 3.1969 -0.66825 0
M  V30 4238 H 401.903 2.49817 -2.68304 0
M  V30 4239 H 401.551 4.75028 -1.65401 0
M  V30 4240 H 401.251 4.78555 -3.40968 0
M  V30 4241 H 402.775 5.44926 -2.75478 0
M  V30 4242 H 404.189 3.78772 -4.30354 0
M  V30 4243 H 402.586 3.36229 -4.97062 0
M  V30 4244 H 403.656 2.07736 -4.38148 0
M  V30 4245 N 404.999 1.35443 0.805782 0
M  V30 4246 C 406.247 1.28507 1.55982 0
M  V30 4247 C 406.568 -0.140046 1.94496 0
M  V30 4248 O 405.838 -1.07666 1.63661 0
M  V30 4249 H 404.418 0.472676 0.578434 0
M  V30 4250 H 407.08 1.69555 0.961098 0
M  V30 4251 H 406.176 1.90148 2.47488 0
M  V30 4252 N 406.477 -1.02803 1.19454 0
M  V30 4253 C 407.723 -1.76478 0.999171 0
M  V30 4254 C 408.056 -1.88456 -0.468828 0
M  V30 4255 O 407.331 -1.40198 -1.34814 0
M  V30 4256 C 407.614 -3.19044 1.66981 0
M  V30 4257 C 407.467 -3.14932 3.21151 0
M  V30 4258 C 408.786 -4.17456 1.39349 0
M  V30 4259 H 405.905 -0.640614 0.364393 0
M  V30 4260 H 408.547 -1.20005 1.47305 0
M  V30 4261 H 406.697 -3.67263 1.2669 0
M  V30 4262 H 408.369 -2.74605 3.70661 0
M  V30 4263 H 406.612 -2.52625 3.52652 0
M  V30 4264 H 407.283 -4.1566 3.63223 0
M  V30 4265 H 409.759 -3.77842 1.74283 0
M  V30 4266 H 408.635 -5.154 1.88823 0
M  V30 4267 H 408.896 -4.40949 0.318813 0
M  V30 4268 N 407.956 -0.998596 -1.21925 0
M  V30 4269 C 409.205 -0.673085 -1.90138 0
M  V30 4270 C 409.518 0.79895 -1.78539 0
M  V30 4271 O 410.724 1.23628 -2.4172 0
M  V30 4272 C 409.18 -1.15339 -3.40918 0
M  V30 4273 C 408.788 -2.65106 -3.61141 0
M  V30 4274 C 410.532 -0.902476 -4.14796 0
M  V30 4275 C 408.439 -3.0671 -5.05651 0
M  V30 4276 H 407.369 -0.248057 -0.712028 0
M  V30 4277 H 410.02 -1.20891 -1.38049 0
M  V30 4278 H 408.402 -0.545658 -3.92223 0
M  V30 4279 H 409.576 -3.31274 -3.20304 0
M  V30 4280 H 407.891 -2.88142 -3.00605 0
M  V30 4281 H 410.488 -1.18895 -5.21314 0
M  V30 4282 H 410.831 0.161349 -4.15987 0
M  V30 4283 H 411.364 -1.47269 -3.69536 0
M  V30 4284 H 408.103 -4.12292 -5.09603 0
M  V30 4285 H 407.623 -2.45249 -5.47369 0
M  V30 4286 H 409.302 -2.9833 -5.74115 0
M  V30 4287 N 409.434 1.37368 -0.772513 0
M  V30 4288 C 410.366 2.28899 -0.117502 0
M  V30 4289 C 411.379 1.4867 0.663405 0
M  V30 4290 O 412.568 1.71314 0.501372 0
M  V30 4291 C 409.668 3.2788 0.857192 0
M  V30 4292 C 408.841 4.37207 0.129938 0
M  V30 4293 C 407.9 5.16257 1.01811 0
M  V30 4294 O 406.926 5.67159 0.481601 0
M  V30 4295 N 408.128 5.31058 2.3443 0
M  V30 4296 H 410.893 2.85752 -0.903662 0
M  V30 4297 H 408.454 1.49353 -0.62493 0
M  V30 4298 H 410.446 3.77647 1.45482 0
M  V30 4299 H 409.016 2.7179 1.54432 0
M  V30 4300 H 408.236 3.88827 -0.648605 0
M  V30 4301 H 409.524 5.07434 -0.372559 0
M  V30 4302 H 408.922 4.91287 2.80452 0
M  V30 4303 H 407.479 5.84131 2.89197 0
M  V30 4304 N 410.912 0.523116 1.48665 0
M  V30 4305 C 411.875 -0.232592 2.28017 0
M  V30 4306 C 412.875 -0.874021 1.34972 0
M  V30 4307 O 414.065 -0.735132 1.57929 0
M  V30 4308 C 411.197 -1.33586 3.13636 0
M  V30 4309 H 412.39 0.464008 2.96289 0
M  V30 4310 H 409.943 0.278816 1.53793 0
M  V30 4311 H 410.678 -2.06593 2.4998 0
M  V30 4312 H 410.463 -0.881125 3.82071 0
M  V30 4313 H 411.953 -1.86759 3.73511 0
M  V30 4314 N 412.39 -1.55475 0.257931 0
M  V30 4315 C 413.32 -2.24815 -0.630912 0
M  V30 4316 C 414.301 -1.23224 -1.17259 0
M  V30 4317 O 415.486 -1.51904 -1.20991 0
M  V30 4318 C 412.616 -2.95609 -1.82298 0
M  V30 4319 C 411.57 -4.03982 -1.41359 0
M  V30 4320 C 410.896 -4.6226 -2.68738 0
M  V30 4321 C 412.196 -5.19109 -0.57648 0
M  V30 4322 H 413.89 -2.99354 -0.0526878 0
M  V30 4323 H 411.436 -1.4398 -0.023901 0
M  V30 4324 H 413.389 -3.42822 -2.45054 0
M  V30 4325 H 412.113 -2.18577 -2.42676 0
M  V30 4326 H 410.772 -3.57555 -0.809324 0
M  V30 4327 H 410.42 -3.81915 -3.27338 0
M  V30 4328 H 410.12 -5.35424 -2.42065 0
M  V30 4329 H 411.644 -5.12212 -3.32372 0
M  V30 4330 H 413.058 -5.62479 -1.10861 0
M  V30 4331 H 411.455 -5.98729 -0.405351 0
M  V30 4332 H 412.525 -4.83174 0.408776 0
M  V30 4333 N 413.868 0.0150385 -1.57593 0
M  V30 4334 C 415.279 0.559832 -1.78109 0
M  V30 4335 C 415.63 1.74814 -0.890756 0
M  V30 4336 O 414.755 2.16216 -0.0892482 0
M  V30 4337 C 415.35 1.02238 -3.23006 0
M  V30 4338 C 413.909 1.51258 -3.44671 0
M  V30 4339 C 413.056 0.456955 -2.73509 0
M  V30 4340 H 416.007 -0.211169 -1.57289 0
M  V30 4341 H 416.028 1.88912 -3.30292 0
M  V30 4342 H 415.54 0.157302 -3.87781 0
M  V30 4343 H 413.641 2.39905 -2.8509 0
M  V30 4344 H 413.754 1.55042 -4.5332 0
M  V30 4345 H 412.118 0.915196 -2.37689 0
M  V30 4346 H 412.901 -0.398896 -3.40975 0
M  V30 4347 N 415.346 1.54954 0.287554 0
M  V30 4348 C 416.592 1.75132 1.02257 0
M  V30 4349 C 416.925 0.542858 1.86458 0
M  V30 4350 O 416.2 -0.459856 1.88986 0
M  V30 4351 C 416.483 3.04812 1.91733 0
M  V30 4352 C 416.336 4.35985 1.10622 0
M  V30 4353 C 417.655 3.30438 2.90687 0
M  V30 4354 H 414.774 0.637194 0.370341 0
M  V30 4355 H 417.416 1.87678 0.296111 0
M  V30 4356 H 415.566 2.94247 2.53675 0
M  V30 4357 H 417.238 4.58487 0.508636 0
M  V30 4358 H 415.481 4.31865 0.409271 0
M  V30 4359 H 416.152 5.23017 1.76513 0
M  V30 4360 H 418.628 3.40701 2.38877 0
M  V30 4361 H 417.504 4.22467 3.50447 0
M  V30 4362 H 417.765 2.49377 3.65053 0
M  V30 4363 N 416.824 -0.551391 1.4764 0
M  V30 4364 C 418.235 -1.13349 1.48354 0
M  V30 4365 C 418.586 -1.94709 0.241432 0
M  V30 4366 O 417.711 -2.06306 -0.653205 0
M  V30 4367 C 418.306 -2.0623 2.68802 0
M  V30 4368 C 416.865 -2.597 2.72457 0
M  V30 4369 C 416.012 -1.36201 2.41546 0
M  V30 4370 H 418.963 -0.337698 1.55065 0
M  V30 4371 H 418.984 -2.90196 2.46103 0
M  V30 4372 H 418.496 -1.46987 3.59188 0
M  V30 4373 H 416.597 -3.22724 1.86225 0
M  V30 4374 H 416.71 -3.00296 3.73308 0
M  V30 4375 H 415.074 -1.67068 1.9225 0
M  V30 4376 H 415.857 -0.787425 3.34147 0
M  V30 4377 N 418.302 -1.35869 -0.798587 0
M  V30 4378 C 419.55 -1.29332 -1.55298 0
M  V30 4379 C 419.871 0.129729 -1.94568 0
M  V30 4380 O 419.141 1.06796 -1.6423 0
M  V30 4381 H 417.721 -0.475737 -0.57592 0
M  V30 4382 H 420.383 -1.70062 -0.952093 0
M  V30 4383 H 419.479 -1.91458 -2.46476 0
M  V30 4384 N 419.78 1.02168 -1.19998 0
M  V30 4385 C 420.71 2.12488 -0.96804 0
M  V30 4386 C 421.691 1.69799 0.101185 0
M  V30 4387 O 422.876 1.94121 -0.0552993 0
M  V30 4388 C 420.006 3.43479 -0.513776 0
M  V30 4389 C 418.96 3.99884 -1.52566 0
M  V30 4390 C 418.286 5.26582 -0.928214 0
M  V30 4391 C 419.586 4.33861 -2.90795 0
M  V30 4392 H 421.28 2.32149 -1.89069 0
M  V30 4393 H 418.826 1.11564 -0.910468 0
M  V30 4394 H 420.779 4.20036 -0.338774 0
M  V30 4395 H 419.503 3.23561 0.444493 0
M  V30 4396 H 418.162 3.25429 -1.68794 0
M  V30 4397 H 417.81 5.02986 0.0378289 0
M  V30 4398 H 417.51 5.65284 -1.60397 0
M  V30 4399 H 419.034 6.05799 -0.764167 0
M  V30 4400 H 420.448 5.01327 -2.78109 0
M  V30 4401 H 418.845 4.83664 -3.55231 0
M  V30 4402 H 419.915 3.42848 -3.42904 0
M  V30 4403 N 421.258 1.00505 1.21394 0
M  V30 4404 C 422.221 0.570459 2.21987 0
M  V30 4405 C 423.221 -0.353211 1.56873 0
M  V30 4406 O 424.411 -0.14349 1.73608 0
M  V30 4407 C 421.543 -0.168555 3.40483 0
M  V30 4408 H 422.736 1.46021 2.6195 0
M  V30 4409 H 420.289 0.793565 1.34656 0
M  V30 4410 H 421.024 -1.07374 3.06009 0
M  V30 4411 H 420.809 0.494823 3.88965 0
M  V30 4412 H 422.299 -0.460362 4.15055 0
M  V30 4413 N 422.737 -1.36956 0.779787 0
M  V30 4414 C 423.7 -2.2851 0.177662 0
M  V30 4415 C 424.7 -1.48393 -0.619377 0
M  V30 4416 O 425.89 -1.68505 -0.441785 0
M  V30 4417 C 423.022 -3.32428 -0.755279 0
M  V30 4418 H 424.215 -2.83269 0.984823 0
M  V30 4419 H 421.768 -1.46358 0.548544 0
M  V30 4420 H 422.503 -2.82808 -1.58714 0
M  V30 4421 H 422.288 -3.91659 -0.185817 0
M  V30 4422 H 423.778 -4.00824 -1.17174 0
M  V30 4423 N 424.215 -0.530993 -1.48385 0
M  V30 4424 C 425.178 0.220497 -2.28137 0
M  V30 4425 C 426.178 0.866851 -1.35434 0
M  V30 4426 O 427.368 0.726746 -1.58316 0
M  V30 4427 C 424.5 1.31921 -3.1434 0
M  V30 4428 H 425.693 -0.479714 -2.96038 0
M  V30 4429 H 423.246 -0.286968 -1.53643 0
M  V30 4430 H 423.981 2.05264 -2.51072 0
M  V30 4431 H 423.766 0.86085 -3.82533 0
M  V30 4432 H 425.256 1.84776 -3.74497 0
M  V30 4433 N 425.693 1.55336 -0.266172 0
M  V30 4434 C 426.923 2.03506 0.356239 0
M  V30 4435 C 427.331 1.14426 1.50676 0
M  V30 4436 O 426.674 0.155043 1.83045 0
M  V30 4437 C 426.736 3.47848 0.90785 0
M  V30 4438 C 426.4 4.56861 -0.112888 0
M  V30 4439 C 427.397 5.11528 -0.929264 0
M  V30 4440 C 425.082 5.01704 -0.244546 0
M  V30 4441 C 427.076 6.09549 -1.86357 0
M  V30 4442 C 424.763 5.99553 -1.18234 0
M  V30 4443 C 425.761 6.53356 -1.99036 0
M  V30 4444 O 425.449 7.49293 -2.91231 0
M  V30 4445 H 425.181 0.670444 0.08649 0
M  V30 4446 H 427.735 2.01598 -0.39337 0
M  V30 4447 H 425.965 3.46967 1.70737 0
M  V30 4448 H 427.654 3.79407 1.44239 0
M  V30 4449 H 428.42 4.77701 -0.838237 0
M  V30 4450 H 424.299 4.59477 0.374359 0
M  V30 4451 H 427.843 6.51469 -2.49467 0
M  V30 4452 H 423.74 6.32799 -1.27421 0
M  V30 4453 H 424.508 7.66978 -2.8581 0
M  V30 4454 N 427.171 -0.0066808 1.57599 0
M  V30 4455 C 428.448 -0.729586 1.81484 0
M  V30 4456 C 428.828 -1.92359 0.869558 0
M  V30 4457 O 428.176 -2.28348 -0.0832533 0
M  V30 4458 C 428.386 -1.1416 3.29801 0
M  V30 4459 C 429.734 -1.54823 3.95367 0
M  V30 4460 O 430.758 -1.23558 3.34084 0
M  V30 4461 O 429.617 -2.12937 5.03309 0
M  V30 4462 H 426.711 -0.354674 0.747085 0
M  V30 4463 H 429.257 0.0182609 1.6969 0
M  V30 4464 H 428.029 -0.290231 3.90222 0
M  V30 4465 H 427.652 -1.94876 3.46568 0
M  V30 4466 N 428.649 -1.55105 -0.279332 0
M  V30 4467 C 429.926 -1.66119 -1.03267 0
M  V30 4468 C 430.306 -0.523525 -2.04505 0
M  V30 4469 O 429.654 0.477194 -2.23462 0
M  V30 4470 C 429.864 -3.05067 -1.69515 0
M  V30 4471 C 431.212 -3.62606 -2.20912 0
M  V30 4472 O 432.236 -3.07659 -1.79512 0
M  V30 4473 O 431.095 -4.58861 -2.96831 0
M  V30 4474 H 428.189 -0.674429 -0.478618 0
M  V30 4475 H 430.735 -1.67446 -0.275694 0
M  V30 4476 H 429.507 -3.79311 -0.9612 0
M  V30 4477 H 429.13 -3.07611 -2.51915 0
M  V30 4478 N 430.127 0.543554 -1.4793 0
M  V30 4479 C 431.09 1.63156 -1.60975 0
M  V30 4480 C 432.09 1.53346 -0.483899 0
M  V30 4481 O 433.28 1.5726 -0.749339 0
M  V30 4482 C 430.412 3.02743 -1.56716 0
M  V30 4483 H 431.605 1.52934 -2.57975 0
M  V30 4484 H 429.158 0.764557 -1.36324 0
M  V30 4485 H 429.893 3.18484 -0.611418 0
M  V30 4486 H 429.678 3.11272 -2.38438 0
M  V30 4487 H 431.168 3.81871 -1.6901 0
M  V30 4488 N 431.605 1.3629 0.791371 0
M  V30 4489 C 432.535 1.33137 1.91825 0
M  V30 4490 C 433.516 0.203168 1.68882 0
M  V30 4491 O 434.701 0.400509 1.90025 0
M  V30 4492 C 431.831 1.11793 3.28816 0
M  V30 4493 C 430.785 2.21417 3.66277 0
M  V30 4494 C 430.111 1.85218 5.01596 0
M  V30 4495 C 431.411 3.63489 3.75064 0
M  V30 4496 H 433.105 2.2743 1.9472 0
M  V30 4497 H 430.651 1.09479 0.935437 0
M  V30 4498 H 432.604 1.08222 4.07266 0
M  V30 4499 H 431.328 0.139501 3.26302 0
M  V30 4500 H 429.987 2.2411 2.90121 0
M  V30 4501 H 429.635 0.859544 4.95602 0
M  V30 4502 H 429.335 2.58611 5.27631 0
M  V30 4503 H 430.859 1.832 5.82469 0
M  V30 4504 H 432.273 3.63034 4.43711 0
M  V30 4505 H 430.67 4.35771 4.12582 0
M  V30 4506 H 431.74 3.98536 2.76219 0
M  V30 4507 N 433.083 -1.0153 1.20538 0
M  V30 4508 C 434.013 -2.11972 0.979295 0
M  V30 4509 C 434.994 -1.6985 -0.0921787 0
M  V30 4510 O 436.179 -1.94089 0.0655932 0
M  V30 4511 C 433.309 -3.43201 0.531984 0
M  V30 4512 C 432.263 -3.9907 1.54685 0
M  V30 4513 C 431.589 -5.26082 0.956127 0
M  V30 4514 C 432.889 -4.32313 2.93092 0
M  V30 4515 H 434.583 -2.31143 1.90298 0
M  V30 4516 H 432.129 -1.11079 0.916372 0
M  V30 4517 H 434.082 -4.1985 0.361044 0
M  V30 4518 H 432.806 -3.23792 -0.427327 0
M  V30 4519 H 431.465 -3.2453 1.70517 0
M  V30 4520 H 431.113 -5.02999 -0.0111538 0
M  V30 4521 H 430.813 -5.64426 1.63393 0
M  V30 4522 H 432.337 -6.05386 0.796284 0
M  V30 4523 H 433.751 -4.99845 2.80763 0
M  V30 4524 H 432.148 -4.81774 3.57791 0
M  V30 4525 H 433.218 -3.41025 3.44717 0
M  V30 4526 N 434.561 -1.01147 -1.20859 0
M  V30 4527 C 435.81 -0.693214 -1.89413 0
M  V30 4528 C 436.123 0.779969 -1.79376 0
M  V30 4529 O 437.329 1.21057 -2.43017 0
M  V30 4530 C 435.785 -1.18949 -3.39675 0
M  V30 4531 C 435.393 -2.68921 -3.58309 0
M  V30 4532 C 437.137 -0.94642 -4.13815 0
M  V30 4533 C 435.044 -3.12056 -5.0237 0
M  V30 4534 H 433.974 -0.255595 -0.709357 0
M  V30 4535 H 436.625 -1.22349 -1.36759 0
M  V30 4536 H 435.007 -0.587228 -3.91622 0
M  V30 4537 H 436.181 -3.34652 -3.16772 0
M  V30 4538 H 434.496 -2.91314 -2.97532 0
M  V30 4539 H 437.093 -1.24417 -5.20023 0
M  V30 4540 H 437.436 0.117219 -4.16135 0
M  V30 4541 H 437.969 -1.5118 -3.67953 0
M  V30 4542 H 434.708 -4.17674 -5.05202 0
M  V30 4543 H 434.228 -2.51041 -5.44737 0
M  V30 4544 H 435.907 -3.04403 -5.70918 0
M  V30 4545 N 436.039 1.36541 -0.78704 0
M  V30 4546 C 436.989 2.27459 -0.156957 0
M  V30 4547 C 437.973 1.46843 0.657709 0
M  V30 4548 O 439.165 1.69245 0.518173 0
M  V30 4549 C 436.294 3.35893 0.709278 0
M  V30 4550 C 435.38 4.23947 -0.114049 0
M  V30 4551 N 435.771 4.92145 -1.16736 0
M  V30 4552 C 434.069 4.4587 0.107497 0
M  V30 4553 C 434.77 5.57261 -1.66837 0
M  V30 4554 N 433.746 5.3473 -0.977992 0
M  V30 4555 H 437.548 2.77669 -0.963185 0
M  V30 4556 H 435.062 1.49839 -0.62627 0
M  V30 4557 H 437.059 3.99953 1.17656 0
M  V30 4558 H 435.719 2.87238 1.51408 0
M  V30 4559 H 436.73 4.94169 -1.54976 0
M  V30 4560 H 433.407 4.08056 0.882994 0
M  V30 4561 H 434.797 6.21728 -2.54762 0
M  V30 4562 N 437.518 0.538854 1.48102 0
M  V30 4563 C 438.743 0.0102694 2.07397 0
M  V30 4564 C 439.168 -1.26562 1.39153 0
M  V30 4565 O 438.526 -1.75357 0.460387 0
M  V30 4566 C 438.574 -0.187602 3.60112 0
M  V30 4567 O 437.678 -1.25432 3.92862 0
M  V30 4568 H 437.019 0.0430975 0.6626 0
M  V30 4569 H 439.549 0.749301 1.90385 0
M  V30 4570 H 439.559 -0.407517 4.0596 0
M  V30 4571 H 438.234 0.744386 4.09184 0
M  V30 4572 H 436.811 -1.01636 3.58782 0
M  V30 4573 N 438.996 -1.55193 0.274407 0
M  V30 4574 C 439.926 -2.25471 -0.607032 0
M  V30 4575 C 440.907 -1.24461 -1.15946 0
M  V30 4576 O 442.092 -1.53179 -1.19373 0
M  V30 4577 C 439.222 -2.97526 -1.79153 0
M  V30 4578 C 438.176 -4.05459 -1.37067 0
M  V30 4579 C 437.502 -4.65084 -2.6382 0
M  V30 4580 C 438.802 -5.19691 -0.521389 0
M  V30 4581 H 440.496 -2.99393 -0.0209343 0
M  V30 4582 H 438.042 -1.43997 -0.00862866 0
M  V30 4583 H 439.995 -3.45402 -2.41404 0
M  V30 4584 H 438.719 -2.21138 -2.40344 0
M  V30 4585 H 437.378 -3.58393 -0.771355 0
M  V30 4586 H 437.026 -3.85365 -3.23268 0
M  V30 4587 H 436.726 -5.37961 -2.36372 0
M  V30 4588 H 438.25 -5.15708 -3.26921 0
M  V30 4589 H 439.664 -5.63623 -1.04889 0
M  V30 4590 H 438.061 -5.99126 -0.341825 0
M  V30 4591 H 439.131 -4.82713 0.46 0
M  V30 4592 N 440.474 -0.00167713 -1.576 0
M  V30 4593 C 441.89 0.354422 -1.55615 0
M  V30 4594 C 442.09 1.74679 -1.00447 0
M  V30 4595 O 441.146 2.4428 -0.639022 0
M  V30 4596 C 442.459 0.22812 -2.99833 0
M  V30 4597 C 444.007 0.302934 -3.11531 0
M  V30 4598 C 444.482 0.205737 -4.57538 0
M  V30 4599 N 445.973 0.263584 -4.62449 0
M  V30 4600 C 446.708 0.211742 -5.73009 0
M  V30 4601 N 446.204 0.110399 -6.92712 0
M  V30 4602 N 447.997 0.263729 -5.61481 0
M  V30 4603 H 440.148 -0.912498 -1.918 0
M  V30 4604 H 442.411 -0.349928 -0.881053 0
M  V30 4605 H 442.117 -0.729934 -3.44042 0
M  V30 4606 H 441.991 1.00951 -3.6344 0
M  V30 4607 H 444.378 1.25143 -2.67251 0
M  V30 4608 H 444.459 -0.508357 -2.50698 0
M  V30 4609 H 444.103 -0.739225 -5.02492 0
M  V30 4610 H 444.033 1.03554 -5.16318 0
M  V30 4611 H 446.524 0.343173 -3.76339 0
M  V30 4612 H 446.837 0.0767828 -7.72762 0
M  V30 4613 H 445.182 0.0760025 -6.94958 0
M  V30 4614 H 448.373 0.34111 -4.66855 0
M  V30 4615 H 448.546 0.219862 -6.47627 0
M  V30 4616 N 441.952 1.55251 0.271103 0
M  V30 4617 C 443.2 1.75599 1.00047 0
M  V30 4618 C 443.521 0.561188 1.8675 0
M  V30 4619 O 442.791 -0.423846 1.9126 0
M  V30 4620 H 441.371 0.647562 0.372387 0
M  V30 4621 H 444.033 1.92656 0.294876 0
M  V30 4622 H 443.129 2.65766 1.6363 0
M  V30 4623 N 443.43 -0.535701 1.48216 0
M  V30 4624 C 444.66 -1.3148 1.59363 0
M  V30 4625 C 445.068 -1.8753 0.250844 0
M  V30 4626 O 444.411 -1.66821 -0.769174 0
M  V30 4627 C 444.473 -2.50731 2.57632 0
M  V30 4628 C 444.137 -2.15811 4.02833 0
M  V30 4629 C 445.134 -1.71822 4.90686 0
M  V30 4630 C 442.819 -2.26509 4.48329 0
M  V30 4631 C 444.813 -1.3899 6.22062 0
M  V30 4632 C 442.5 -1.93289 5.79726 0
M  V30 4633 C 443.498 -1.49599 6.66415 0
M  V30 4634 O 443.186 -1.16812 7.95368 0
M  V30 4635 H 442.918 -0.406315 0.540263 0
M  V30 4636 H 445.472 -0.653569 1.94725 0
M  V30 4637 H 443.702 -3.19817 2.1738 0
M  V30 4638 H 445.391 -3.12797 2.58675 0
M  V30 4639 H 446.157 -1.63031 4.56778 0
M  V30 4640 H 442.036 -2.59471 3.81045 0
M  V30 4641 H 445.58 -1.04816 6.89681 0
M  V30 4642 H 441.477 -2.01718 6.13172 0
M  V30 4643 H 442.245 -1.30259 8.08069 0
M  V30 4644 N 444.908 -1.36708 -0.784132 0
M  V30 4645 C 445.858 -1.2799 -1.88686 0
M  V30 4646 C 446.842 -0.170282 -1.59996 0
M  V30 4647 O 448.034 -0.403571 -1.72338 0
M  V30 4648 C 445.163 -1.07674 -3.25977 0
M  V30 4649 C 444.249 -2.23127 -3.60659 0
M  V30 4650 N 444.64 -3.48467 -3.66612 0
M  V30 4651 C 442.938 -2.15009 -3.90752 0
M  V30 4652 C 443.639 -4.24525 -3.97685 0
M  V30 4653 N 442.615 -3.53524 -4.12943 0
M  V30 4654 H 446.417 -2.22927 -1.91522 0
M  V30 4655 H 443.931 -1.29503 -0.979933 0
M  V30 4656 H 445.928 -0.995151 -4.04849 0
M  V30 4657 H 444.588 -0.13643 -3.24413 0
M  V30 4658 H 445.599 -3.82534 -3.49125 0
M  V30 4659 H 442.276 -1.28963 -3.97083 0
M  V30 4660 H 443.666 -5.32944 -4.0917 0
M  V30 4661 N 446.386 1.0089 -1.21074 0
M  V30 4662 C 447.802 1.2695 -0.967257 0
M  V30 4663 C 448.002 1.9846 0.348673 0
M  V30 4664 O 447.058 2.28459 1.0753 0
M  V30 4665 C 448.371 2.09697 -2.15517 0
M  V30 4666 C 449.919 2.22937 -2.197 0
M  V30 4667 C 450.394 3.09064 -3.37999 0
M  V30 4668 N 451.885 3.16653 -3.38061 0
M  V30 4669 C 452.62 3.8354 -4.26245 0
M  V30 4670 N 452.116 4.52488 -5.2462 0
M  V30 4671 N 453.909 3.80141 -4.14064 0
M  V30 4672 H 446.06 0.529005 -2.05707 0
M  V30 4673 H 448.323 0.296148 -0.900556 0
M  V30 4674 H 448.029 1.64497 -3.10859 0
M  V30 4675 H 447.903 3.10444 -2.14253 0
M  V30 4676 H 450.29 2.67357 -1.24916 0
M  V30 4677 H 450.371 1.21673 -2.2501 0
M  V30 4678 H 450.015 2.65347 -4.33074 0
M  V30 4679 H 449.945 4.10433 -3.29928 0
M  V30 4680 H 452.436 2.67566 -2.66865 0
M  V30 4681 H 452.749 5.01219 -5.88217 0
M  V30 4682 H 451.094 4.51288 -5.28549 0
M  V30 4683 H 454.285 3.25427 -3.36474 0
M  V30 4684 H 454.458 4.31992 -4.82998 0
M  V30 4685 N 447.864 1.01787 1.20321 0
M  V30 4686 C 449.089 0.727009 1.9424 0
M  V30 4687 C 449.514 -0.706179 1.74341 0
M  V30 4688 O 448.872 -1.48609 1.03852 0
M  V30 4689 C 448.92 1.06958 3.44372 0
M  V30 4690 O 448.024 0.181983 4.11998 0
M  V30 4691 H 447.365 0.269626 0.606793 0
M  V30 4692 H 449.895 1.36158 1.52716 0
M  V30 4693 H 449.905 1.02182 3.94997 0
M  V30 4694 H 448.58 2.11378 3.58179 0
M  V30 4695 H 447.157 0.287378 3.71791 0
M  V30 4696 N 449.342 -1.36122 0.79427 0
M  V30 4697 C 450.589 -1.99111 0.368905 0
M  V30 4698 C 450.917 -1.63032 -1.0607 0
M  V30 4699 O 450.172 -0.879303 -1.74833 0
M  V30 4700 C 450.471 -3.5409 0.48527 0
M  V30 4701 C 450.137 -4.10003 1.87638 0
M  V30 4702 C 448.799 -4.24986 2.257 0
M  V30 4703 C 451.151 -4.40423 2.78706 0
M  V30 4704 C 448.479 -4.67701 3.54221 0
M  V30 4705 C 450.831 -4.84573 4.0666 0
M  V30 4706 C 449.495 -4.97761 4.44737 0
M  V30 4707 H 448.765 -0.7286 0.134992 0
M  V30 4708 H 451.412 -1.62534 1.01267 0
M  V30 4709 H 449.717 -3.91052 -0.241984 0
M  V30 4710 H 451.414 -4.00766 0.137109 0
M  V30 4711 H 448.004 -3.98784 1.57064 0
M  V30 4712 H 452.188 -4.28412 2.50553 0
M  V30 4713 H 447.444 -4.761 3.83587 0
M  V30 4714 H 451.618 -5.07074 4.77336 0
M  V30 4715 H 449.245 -5.30618 5.44379 0
M  V30 4716 N 450.82 -0.546701 -1.47814 0
M  V30 4717 C 452.068 -0.0187037 -2.02091 0
M  V30 4718 C 452.389 1.33168 -1.42447 0
M  V30 4719 O 451.659 1.86619 -0.595839 0
M  V30 4720 H 450.239 -0.00392531 -0.74699 0
M  V30 4721 H 452.901 -0.714327 -1.81338 0
M  V30 4722 H 451.997 0.0772219 -3.12004 0
M  V30 4723 N 452.299 1.55045 -0.282633 0
M  V30 4724 C 453.229 2.2579 0.595066 0
M  V30 4725 C 454.21 1.25074 1.15284 0
M  V30 4726 O 455.395 1.5381 1.18559 0
M  V30 4727 C 452.525 2.98472 1.77572 0
M  V30 4728 C 451.479 4.0618 1.34914 0
M  V30 4729 C 450.805 4.66477 2.6135 0
M  V30 4730 C 452.105 5.1996 0.493821 0
M  V30 4731 H 453.799 2.994 0.00505653 0
M  V30 4732 H 451.345 1.44 0.000992001 0
M  V30 4733 H 453.298 3.46677 2.39568 0
M  V30 4734 H 452.022 2.2241 2.39168 0
M  V30 4735 H 450.681 3.58797 0.752338 0
M  V30 4736 H 450.329 3.87074 3.2122 0
M  V30 4737 H 450.029 5.39207 2.33516 0
M  V30 4738 H 451.553 5.17435 3.24181 0
M  V30 4739 H 452.967 5.64172 1.01898 0
M  V30 4740 H 451.364 5.99299 0.310047 0
M  V30 4741 H 452.434 4.82462 -0.485593 0
M  V30 4742 N 453.777 0.010035 1.57597 0
M  V30 4743 C 455.054 -0.710296 1.82248 0
M  V30 4744 C 455.434 -1.91426 0.889911 0
M  V30 4745 O 454.782 -2.28424 -0.0590292 0
M  V30 4746 C 454.992 -1.10655 3.30993 0
M  V30 4747 C 456.34 -1.50621 3.96987 0
M  V30 4748 O 457.364 -1.20007 3.35375 0
M  V30 4749 O 456.223 -2.07587 5.05539 0
M  V30 4750 H 453.317 -0.34673 0.750804 0
M  V30 4751 H 455.863 0.0362578 1.69661 0
M  V30 4752 H 454.635 -0.248826 3.90508 0
M  V30 4753 H 454.258 -1.91189 3.48615 0
M  V30 4754 N 455.255 -1.55392 -0.262866 0
M  V30 4755 C 456.532 -1.67204 -1.01499 0
M  V30 4756 C 456.912 -0.545186 -2.03939 0
M  V30 4757 O 456.26 0.453467 -2.23955 0
M  V30 4758 C 456.47 -3.06847 -1.6627 0
M  V30 4759 C 457.818 -3.64928 -2.17054 0
M  V30 4760 O 458.842 -3.09545 -1.76239 0
M  V30 4761 O 457.701 -4.61984 -2.91947 0
M  V30 4762 H 454.795 -0.679467 -0.471438 0
M  V30 4763 H 457.341 -1.67729 -0.257918 0
M  V30 4764 H 456.113 -3.80309 -0.920915 0
M  V30 4765 H 455.736 -3.10266 -2.48638 0
M  V30 4766 N 456.733 0.527833 -1.48498 0
M  V30 4767 C 458.01 1.28905 -1.47115 0
M  V30 4768 C 458.39 2.10297 -0.184007 0
M  V30 4769 O 457.738 2.12728 0.834218 0
M  V30 4770 C 457.948 2.16866 -2.73441 0
M  V30 4771 C 459.296 2.76936 -3.21857 0
M  V30 4772 O 460.32 2.27152 -2.74373 0
M  V30 4773 O 459.179 3.67496 -4.04486 0
M  V30 4774 H 456.273 0.581918 -0.587623 0
M  V30 4775 H 458.819 0.544311 -1.60734 0
M  V30 4776 H 457.591 1.56521 -3.58632 0
M  V30 4777 H 457.214 2.98583 -2.62553 0
M  V30 4778 N 458.211 1.37122 0.776871 0
M  V30 4779 C 459.436 1.354 1.57104 0
M  V30 4780 C 459.861 -0.0595562 1.88006 0
M  V30 4781 O 459.219 -1.03514 1.48844 0
M  V30 4782 C 459.267 2.19472 2.8612 0
M  V30 4783 O 458.371 1.59582 3.80273 0
M  V30 4784 H 457.712 0.462869 0.476076 0
M  V30 4785 H 460.242 1.80577 0.961932 0
M  V30 4786 H 460.252 2.32502 3.35271 0
M  V30 4787 H 458.927 3.22222 2.62956 0
M  V30 4788 H 457.504 1.55564 3.38902 0
M  V30 4789 N 459.689 -1.00246 1.21608 0
M  V30 4790 C 460.619 -2.10921 1.00172 0
M  V30 4791 C 461.6 -1.69938 -0.0741587 0
M  V30 4792 O 462.785 -1.94009 0.0861753 0
M  V30 4793 C 459.915 -3.42618 0.568355 0
M  V30 4794 C 458.869 -3.97407 1.58909 0
M  V30 4795 C 458.195 -5.25038 1.01187 0
M  V30 4796 C 459.495 -4.2918 2.97661 0
M  V30 4797 H 461.189 -2.29112 1.92739 0
M  V30 4798 H 458.735 -1.10101 0.928102 0
M  V30 4799 H 460.688 -4.19444 0.405555 0
M  V30 4800 H 459.412 -3.24227 -0.392961 0
M  V30 4801 H 458.071 -3.22703 1.73949 0
M  V30 4802 H 457.719 -5.02982 0.0421965 0
M  V30 4803 H 457.419 -5.62661 1.6937 0
M  V30 4804 H 458.943 -6.04507 0.860448 0
M  V30 4805 H 460.357 -4.96839 2.86049 0
M  V30 4806 H 458.754 -4.77952 3.6288 0
M  V30 4807 H 459.824 -3.3735 3.48315 0
M  V30 4808 N 461.167 -1.02423 -1.1978 0
M  V30 4809 C 462.13 -0.605703 -2.21052 0
M  V30 4810 C 463.13 0.328209 -1.57415 0
M  V30 4811 O 464.32 0.115853 -1.73814 0
M  V30 4812 C 461.452 0.114366 -3.40708 0
M  V30 4813 H 462.645 -1.5017 -2.59594 0
M  V30 4814 H 460.198 -0.814888 -1.33376 0
M  V30 4815 H 460.933 1.02492 -3.07678 0
M  V30 4816 H 460.718 -0.556641 -3.88129 0
M  V30 4817 H 462.208 0.394272 -4.15735 0
M  V30 4818 N 462.645 1.35699 -0.801477 0
M  V30 4819 C 463.592 2.29876 -0.206294 0
M  V30 4820 C 464.562 1.52565 0.656752 0
M  V30 4821 O 465.747 1.81024 0.602906 0
M  V30 4822 C 462.887 3.39052 0.643272 0
M  V30 4823 C 462 4.31335 -0.239644 0
M  V30 4824 C 461.135 5.27599 0.61744 0
M  V30 4825 C 460.174 6.11521 -0.26619 0
M  V30 4826 N 459.311 6.99938 0.550571 0
M  V30 4827 H 464.151 2.80187 -1.01484 0
M  V30 4828 H 461.688 1.37902 -0.511997 0
M  V30 4829 H 463.646 4.0101 1.15094 0
M  V30 4830 H 462.276 2.9003 1.41713 0
M  V30 4831 H 461.328 3.70426 -0.865381 0
M  V30 4832 H 462.64 4.90243 -0.919985 0
M  V30 4833 H 461.794 5.94906 1.19045 0
M  V30 4834 H 460.533 4.69176 1.33137 0
M  V30 4835 H 459.538 5.43166 -0.851507 0
M  V30 4836 H 460.763 6.72022 -0.9779 0
M  V30 4837 H 458.709 6.44008 1.24856 0
M  V30 4838 H 458.626 7.55966 -0.071832 0
M  V30 4839 H 459.894 7.71599 1.10702 0
M  V30 4840 N 464.123 0.554532 1.47522 0
M  V30 4841 C 465.053 -0.182974 2.32782 0
M  V30 4842 C 466.034 -0.911377 1.43624 0
M  V30 4843 O 467.219 -0.892366 1.72483 0
M  V30 4844 C 464.349 -1.21513 3.25349 0
M  V30 4845 C 463.303 -0.603355 4.23726 0
M  V30 4846 C 462.629 -1.73995 5.05598 0
M  V30 4847 C 463.929 0.441121 5.20434 0
M  V30 4848 H 465.623 0.52882 2.94693 0
M  V30 4849 H 463.169 0.255759 1.41711 0
M  V30 4850 H 465.122 -1.73922 3.83835 0
M  V30 4851 H 463.846 -1.95683 2.61487 0
M  V30 4852 H 462.505 -0.10059 3.66462 0
M  V30 4853 H 462.153 -2.47063 4.38143 0
M  V30 4854 H 461.853 -1.3364 5.72201 0
M  V30 4855 H 463.377 -2.26735 5.66942 0
M  V30 4856 H 464.791 0.00319931 5.733 0
M  V30 4857 H 463.188 0.763402 5.95224 0
M  V30 4858 H 464.258 1.33799 4.66075 0
M  V30 4859 N 465.601 -1.54893 0.290851 0
M  V30 4860 C 466.564 -2.21824 -0.576784 0
M  V30 4861 C 467.564 -1.20104 -1.06919 0
M  V30 4862 O 468.754 -1.44906 -0.966843 0
M  V30 4863 C 465.886 -2.89662 -1.79747 0
M  V30 4864 H 467.079 -2.99899 0.00784051 0
M  V30 4865 H 464.632 -1.56245 0.0415934 0
M  V30 4866 H 465.367 -2.15639 -2.42219 0
M  V30 4867 H 465.152 -3.64219 -1.45214 0
M  V30 4868 H 466.642 -3.4075 -2.4141 0
M  V30 4869 N 467.08 -0.0183926 -1.57589 0
M  V30 4870 C 467.99 0.982943 -2.13015 0
M  V30 4871 C 469.006 1.36443 -1.07979 0
M  V30 4872 O 470.182 1.44802 -1.3998 0
M  V30 4873 C 467.247 2.25024 -2.63752 0
M  V30 4874 C 466.308 1.93018 -3.83461 0
M  V30 4875 C 465.541 3.13706 -4.31769 0
M  V30 4876 O 465.764 4.2601 -3.79305 0
M  V30 4877 O 464.698 2.96629 -5.23732 0
M  V30 4878 H 468.524 0.541709 -2.9883 0
M  V30 4879 H 466.109 0.201565 -1.48034 0
M  V30 4880 H 467.991 2.99441 -2.96502 0
M  V30 4881 H 466.666 2.68349 -1.81026 0
M  V30 4882 H 465.573 1.16019 -3.55655 0
M  V30 4883 H 466.906 1.54516 -4.67317 0
M  V30 4884 N 468.558 1.5553 0.254621 0
M  V30 4885 C 469.49 1.86104 1.33783 0
M  V30 4886 C 470.503 0.746752 1.44663 0
M  V30 4887 O 471.692 1.0248 1.46151 0
M  V30 4888 C 468.792 2.02532 2.71724 0
M  V30 4889 C 467.965 3.33335 2.83208 0
M  V30 4890 C 467.024 3.396 4.01943 0
M  V30 4891 O 466.05 4.12862 3.91834 0
M  V30 4892 N 467.252 2.68332 5.1476 0
M  V30 4893 H 470.017 2.79605 1.07893 0
M  V30 4894 H 467.578 1.55672 0.444732 0
M  V30 4895 H 469.57 2.04074 3.4948 0
M  V30 4896 H 468.14 1.15811 2.90356 0
M  V30 4897 H 467.36 3.44176 1.92189 0
M  V30 4898 H 468.648 4.19565 2.87824 0
M  V30 4899 H 468.046 2.08528 5.25864 0
M  V30 4900 H 466.603 2.75575 5.90679 0
M  V30 4901 N 470.036 -0.519951 1.48776 0
M  V30 4902 C 471.282 -1.27711 1.57536 0
M  V30 4903 C 471.615 -1.92547 0.252866 0
M  V30 4904 O 470.89 -1.7979 -0.742021 0
M  V30 4905 C 471.173 -2.35875 2.72094 0
M  V30 4906 C 471.026 -1.75664 4.1408 0
M  V30 4907 C 472.345 -3.37575 2.82367 0
M  V30 4908 H 469.464 -0.462971 0.573434 0
M  V30 4909 H 472.106 -0.578194 1.80989 0
M  V30 4910 H 470.256 -2.95488 2.52228 0
M  V30 4911 H 471.928 -1.20025 4.45412 0
M  V30 4912 H 470.171 -1.06154 4.20611 0
M  V30 4913 H 470.842 -2.54029 4.90075 0
M  V30 4914 H 473.318 -2.87929 3.00393 0
M  V30 4915 H 472.194 -4.1064 3.64233 0
M  V30 4916 H 472.455 -3.98743 1.90936 0
M  V30 4917 N 471.514 -1.37532 -0.769588 0
M  V30 4918 C 472.762 -1.32597 -1.5252 0
M  V30 4919 C 473.083 0.0884294 -1.94799 0
M  V30 4920 O 472.353 1.03289 -1.66458 0
M  V30 4921 H 470.933 -0.487846 -0.565699 0
M  V30 4922 H 473.595 -1.72044 -0.915806 0
M  V30 4923 H 472.691 -1.96643 -2.42359 0
M  V30 4924 N 472.992 0.995999 -1.22138 0
M  V30 4925 C 473.939 2.08551 -0.988687 0
M  V30 4926 C 474.909 1.65864 0.0885021 0
M  V30 4927 O 476.094 1.90704 -0.0604589 0
M  V30 4928 C 473.234 3.40374 -0.569191 0
M  V30 4929 C 472.347 3.96421 -1.71681 0
M  V30 4930 C 471.482 5.1639 -1.2456 0
M  V30 4931 C 470.521 5.64567 -2.36497 0
M  V30 4932 N 469.658 6.75777 -1.90445 0
M  V30 4933 H 474.498 2.2779 -1.92135 0
M  V30 4934 H 472.035 1.1168 -0.957388 0
M  V30 4935 H 473.993 4.16068 -0.307166 0
M  V30 4936 H 472.623 3.21145 0.326462 0
M  V30 4937 H 471.675 3.17628 -2.09324 0
M  V30 4938 H 472.987 4.2816 -2.55891 0
M  V30 4939 H 472.141 5.99362 -0.940774 0
M  V30 4940 H 470.88 4.86266 -0.373662 0
M  V30 4941 H 469.885 4.80185 -2.67772 0
M  V30 4942 H 471.11 5.96716 -3.24202 0
M  V30 4943 H 469.056 6.47443 -1.05609 0
M  V30 4944 H 468.973 7.06818 -2.68223 0
M  V30 4945 H 470.241 7.62262 -1.63022 0
M  V30 4946 N 474.47 1.03057 1.19235 0
M  V30 4947 C 475.402 0.570932 2.21975 0
M  V30 4948 C 476.415 -0.354088 1.58903 0
M  V30 4949 O 477.604 -0.150211 1.77867 0
M  V30 4950 C 474.704 -0.187152 3.38383 0
M  V30 4951 C 473.877 0.743231 4.31039 0
M  V30 4952 C 472.936 0.0302493 5.26191 0
M  V30 4953 O 471.962 0.657371 5.65391 0
M  V30 4954 N 473.164 -1.23991 5.67104 0
M  V30 4955 H 475.929 1.45456 2.62036 0
M  V30 4956 H 473.49 0.909807 1.33918 0
M  V30 4957 H 475.482 -0.673715 3.99053 0
M  V30 4958 H 474.052 -0.972205 2.97098 0
M  V30 4959 H 473.272 1.40985 3.68126 0
M  V30 4960 H 474.56 1.3755 4.89854 0
M  V30 4961 H 473.958 -1.77011 5.37293 0
M  V30 4962 H 472.515 -1.67093 6.30018 0
M  V30 4963 N 475.948 -1.35272 0.808662 0
M  V30 4964 C 476.911 -2.28082 0.226093 0
M  V30 4965 C 477.911 -1.49673 -0.587762 0
M  V30 4966 O 479.101 -1.69404 -0.405943 0
M  V30 4967 C 476.233 -3.33955 -0.684596 0
M  V30 4968 H 477.426 -2.81116 1.04469 0
M  V30 4969 H 474.979 -1.45162 0.579466 0
M  V30 4970 H 475.714 -2.86111 -1.5268 0
M  V30 4971 H 475.499 -3.91965 -0.102699 0
M  V30 4972 H 476.989 -4.03219 -1.08646 0
M  V30 4973 N 477.426 -0.562348 -1.47226 0
M  V30 4974 C 478.674 -0.0401371 -2.0206 0
M  V30 4975 C 478.995 1.3165 -1.43852 0
M  V30 4976 O 478.265 1.85976 -0.615599 0
M  V30 4977 H 476.845 -0.0118479 -0.746906 0
M  V30 4978 H 479.507 -0.73352 -1.8057 0
M  V30 4979 H 478.603 0.0441254 -3.12069 0
M  V30 4980 N 478.904 1.54736 -0.299062 0
M  V30 4981 C 480.181 1.92187 0.363802 0
M  V30 4982 C 480.561 1.22607 1.71845 0
M  V30 4983 O 479.909 0.361141 2.25628 0
M  V30 4984 C 480.119 3.45678 0.480377 0
M  V30 4985 C 481.467 4.17885 0.752147 0
M  V30 4986 O 482.491 3.51702 0.564264 0
M  V30 4987 O 481.35 5.35048 1.11294 0
M  V30 4988 H 478.444 0.801681 0.203066 0
M  V30 4989 H 480.99 1.66115 -0.346978 0
M  V30 4990 H 479.762 3.88443 -0.471999 0
M  V30 4991 H 479.385 3.77779 1.2397 0
M  V30 4992 N 480.382 0.0267497 1.57577 0
M  V30 4993 C 481.312 -0.954308 2.13108 0
M  V30 4994 C 482.293 -1.34088 1.04663 0
M  V30 4995 O 483.478 -1.41992 1.32484 0
M  V30 4996 C 480.608 -2.23744 2.65624 0
M  V30 4997 C 479.562 -1.99168 3.78835 0
M  V30 4998 C 478.888 -3.33726 4.17769 0
M  V30 4999 C 480.188 -1.33277 5.0501 0
M  V30 5000 H 481.882 -0.491848 2.95332 0
M  V30 5001 H 479.428 -0.23514 1.42067 0
M  V30 5002 H 481.381 -2.92754 3.03106 0
M  V30 5003 H 480.105 -2.72151 1.80558 0
M  V30 5004 H 478.764 -1.32577 3.41788 0
M  V30 5005 H 478.412 -3.79888 3.29688 0
M  V30 5006 H 478.112 -3.18089 4.94058 0
M  V30 5007 H 479.636 -4.04008 4.57832 0
M  V30 5008 H 481.05 -1.92283 5.40093 0
M  V30 5009 H 479.447 -1.28045 5.8628 0
M  V30 5010 H 480.517 -0.305411 4.83937 0
M  V30 5011 N 481.861 -1.55662 -0.24637 0
M  V30 5012 C 483.277 -1.48098 -0.594907 0
M  V30 5013 C 483.477 -0.717044 -1.8831 0
M  V30 5014 O 482.533 -0.246618 -2.51293 0
M  V30 5015 C 483.846 -2.92507 -0.697146 0
M  V30 5016 C 485.394 -3.02881 -0.789436 0
M  V30 5017 C 485.869 -4.48598 -0.923232 0
M  V30 5018 N 487.36 -4.52538 -0.988088 0
M  V30 5019 C 488.095 -5.62536 -1.11089 0
M  V30 5020 N 487.591 -6.82342 -1.19919 0
M  V30 5021 N 489.384 -5.50334 -1.14408 0
M  V30 5022 H 481.535 -2.0377 0.599278 0
M  V30 5023 H 483.798 -0.925145 0.20691 0
M  V30 5024 H 483.504 -3.51242 0.179396 0
M  V30 5025 H 483.378 -3.43024 -1.5689 0
M  V30 5026 H 485.765 -2.44226 -1.65643 0
M  V30 5027 H 485.846 -2.55574 0.107482 0
M  V30 5028 H 485.49 -5.07864 -0.0607927 0
M  V30 5029 H 485.42 -4.93587 -1.8352 0
M  V30 5030 H 487.911 -3.66248 -0.931167 0
M  V30 5031 H 488.224 -7.61924 -1.29197 0
M  V30 5032 H 486.569 -6.85102 -1.16876 0
M  V30 5033 H 489.76 -4.5567 -1.07158 0
M  V30 5034 H 489.933 -6.36096 -1.23634 0
M  V30 5035 N 483.339 0.512053 -1.4905 0
M  V30 5036 C 484.564 1.2959 -1.6193 0
M  V30 5037 C 484.989 1.85906 -0.286454 0
M  V30 5038 O 484.347 1.65312 0.744426 0
M  V30 5039 C 484.395 2.40987 -2.68249 0
M  V30 5040 O 483.499 3.44531 -2.26654 0
M  V30 5041 H 482.84 0.383053 -0.542371 0
M  V30 5042 H 485.37 0.614231 -1.95162 0
M  V30 5043 H 485.38 2.86913 -2.90078 0
M  V30 5044 H 484.055 1.99361 -3.65004 0
M  V30 5045 H 482.632 3.046 -2.15112 0
M  V30 5046 N 484.817 1.37938 0.762283 0
M  V30 5047 C 486.063 1.33866 1.52341 0
M  V30 5048 C 486.396 -0.0738961 1.94059 0
M  V30 5049 O 485.671 -1.03326 1.64785 0
M  V30 5050 C 485.954 2.28644 2.78197 0
M  V30 5051 C 485.807 3.78722 2.42672 0
M  V30 5052 C 487.126 2.21702 3.80179 0
M  V30 5053 H 484.245 0.487593 0.55265 0
M  V30 5054 H 486.887 1.68717 0.873767 0
M  V30 5055 H 485.037 1.99055 3.33631 0
M  V30 5056 H 486.709 4.18948 1.93081 0
M  V30 5057 H 484.952 3.96827 1.75244 0
M  V30 5058 H 485.623 4.40486 3.3268 0
M  V30 5059 H 488.099 2.47805 3.34263 0
M  V30 5060 H 486.975 2.90143 4.65949 0
M  V30 5061 H 487.236 1.21301 4.25133 0
M  V30 5062 N 486.295 -0.989507 1.22664 0
M  V30 5063 C 487.544 -1.72375 1.04737 0
M  V30 5064 C 487.857 -1.91096 -0.417316 0
M  V30 5065 O 489.063 -2.6188 -0.716334 0
M  V30 5066 C 487.519 -3.10161 1.82561 0
M  V30 5067 C 487.127 -2.99358 3.333 0
M  V30 5068 C 488.871 -3.87607 1.73093 0
M  V30 5069 C 486.778 -4.32319 4.03552 0
M  V30 5070 H 485.708 -0.646326 0.388302 0
M  V30 5071 H 488.359 -1.10437 1.46546 0
M  V30 5072 H 486.741 -3.728 1.33552 0
M  V30 5073 H 487.915 -2.45863 3.89728 0
M  V30 5074 H 486.23 -2.35392 3.43481 0
M  V30 5075 H 488.827 -4.86025 2.22899 0
M  V30 5076 H 489.17 -4.10509 0.691976 0
M  V30 5077 H 489.703 -3.31652 2.19663 0
M  V30 5078 H 486.442 -4.14616 5.07714 0
M  V30 5079 H 485.962 -4.85714 3.51911 0
M  V30 5080 H 487.641 -5.01051 4.09337 0
M  V30 5081 N 487.773 -1.03688 -1.18687 0
M  V30 5082 C 489.189 -0.755413 -1.4059 0
M  V30 5083 C 489.389 0.656659 -1.905 0
M  V30 5084 O 488.445 1.42144 -2.08689 0
M  V30 5085 C 489.758 -1.7983 -2.41001 0
M  V30 5086 C 491.306 -1.81877 -2.54735 0
M  V30 5087 C 491.781 -2.85148 -3.58406 0
M  V30 5088 N 493.272 -2.84015 -3.6591 0
M  V30 5089 C 494.007 -3.60573 -4.45841 0
M  V30 5090 N 493.503 -4.46871 -5.29413 0
M  V30 5091 N 495.296 -3.49079 -4.40568 0
M  V30 5092 H 487.447 -1.94818 -0.846148 0
M  V30 5093 H 489.71 -0.842727 -0.434184 0
M  V30 5094 H 489.416 -2.81097 -2.1137 0
M  V30 5095 H 489.29 -1.62727 -3.40294 0
M  V30 5096 H 491.677 -0.812836 -2.83685 0
M  V30 5097 H 491.758 -2.03057 -1.55568 0
M  V30 5098 H 491.402 -3.85918 -3.30197 0
M  V30 5099 H 491.332 -2.61224 -4.57241 0
M  V30 5100 H 493.823 -2.21431 -3.0623 0
M  V30 5101 H 494.136 -5.02007 -5.87545 0
M  V30 5102 H 492.481 -4.5094 -5.28846 0
M  V30 5103 H 495.672 -2.81066 -3.74325 0
M  V30 5104 H 495.845 -4.08994 -5.02621 0
M  V30 5105 N 489.251 1.34841 -0.815825 0
M  V30 5106 C 490.476 2.03261 -0.41226 0
M  V30 5107 C 490.901 1.61055 0.971751 0
M  V30 5108 O 490.259 0.7917 1.63101 0
M  V30 5109 C 490.307 3.56914 -0.514289 0
M  V30 5110 O 489.411 4.09728 0.468675 0
M  V30 5111 H 488.752 0.641664 -0.170771 0
M  V30 5112 H 491.282 1.72241 -1.10427 0
M  V30 5113 H 491.292 4.06156 -0.387457 0
M  V30 5114 H 489.967 3.86982 -1.52375 0
M  V30 5115 H 488.544 3.71681 0.301316 0
M  V30 5116 N 490.729 0.570148 1.46925 0
M  V30 5117 C 492.14 0.1402 1.86173 0
M  V30 5118 C 492.491 -1.29347 1.47526 0
M  V30 5119 O 491.616 -1.97508 0.884292 0
M  V30 5120 C 492.211 0.247661 3.37894 0
M  V30 5121 C 490.77 -0.127332 3.76185 0
M  V30 5122 C 489.917 0.589349 2.70965 0
M  V30 5123 H 492.868 0.779117 1.38259 0
M  V30 5124 H 492.889 -0.530341 3.76786 0
M  V30 5125 H 492.401 1.29121 3.65991 0
M  V30 5126 H 490.502 -1.17149 3.53704 0
M  V30 5127 H 490.615 0.240238 4.78497 0
M  V30 5128 H 488.979 0.0309824 2.54681 0
M  V30 5129 H 489.762 1.6343 3.01903 0
M  V30 5130 N 492.207 -1.54576 0.307264 0
M  V30 5131 C 493.137 -2.26708 -0.55907 0
M  V30 5132 C 494.118 -1.26893 -1.1328 0
M  V30 5133 O 495.303 -1.55677 -1.16097 0
M  V30 5134 C 492.433 -3.01259 -1.72801 0
M  V30 5135 C 491.387 -4.08275 -1.28435 0
M  V30 5136 C 490.713 -4.70575 -2.53895 0
M  V30 5137 C 492.013 -5.2068 -0.411038 0
M  V30 5138 H 493.707 -2.9937 0.042576 0
M  V30 5139 H 491.253 -1.43983 0.0219173 0
M  V30 5140 H 493.206 -3.50444 -2.34023 0
M  V30 5141 H 491.93 -2.26187 -2.356 0
M  V30 5142 H 490.589 -3.59949 -0.695161 0
M  V30 5143 H 490.237 -3.92136 -3.15021 0
M  V30 5144 H 489.937 -5.42854 -2.24908 0
M  V30 5145 H 491.461 -5.22527 -3.15908 0
M  V30 5146 H 492.875 -5.65721 -0.929097 0
M  V30 5147 H 491.272 -5.99716 -0.214664 0
M  V30 5148 H 492.342 -4.81629 0.562287 0
M  V30 5149 N 493.685 -0.035106 -1.57561 0
M  V30 5150 C 494.648 0.929819 -2.09492 0
M  V30 5151 C 495.648 1.25026 -1.01119 0
M  V30 5152 O 496.838 1.18961 -1.27255 0
M  V30 5153 C 493.97 2.24457 -2.56577 0
M  V30 5154 H 495.163 0.479935 -2.96035 0
M  V30 5155 H 492.716 0.213033 -1.54841 0
M  V30 5156 H 493.451 2.74061 -1.73382 0
M  V30 5157 H 493.236 2.02508 -3.35757 0
M  V30 5158 H 494.726 2.93607 -2.96959 0
M  V30 5159 N 495.163 1.55791 0.238111 0
M  V30 5160 C 496.111 1.91885 1.31464 0
M  V30 5161 C 497.105 0.798929 1.49377 0
M  V30 5162 O 498.311 0.983626 1.50747 0
M  V30 5163 H 494.686 0.609551 0.440399 0
M  V30 5164 H 496.657 2.81747 0.982925 0
M  V30 5165 C 495.406 2.23763 2.6613 0
M  V30 5166 H 494.729 3.09444 2.53149 0
M  V30 5167 H 496.169 2.52915 3.40309 0
M  V30 5168 C 494.628 1.05699 3.1989 0
M  V30 5169 O 495.158 0.309524 4.00506 0
M  V30 5170 N 493.364 0.845251 2.78036 0
M  V30 5171 H 492.911 1.4548 2.12588 0
M  V30 5172 H 492.869 0.0569973 3.14348 0
M  V30 5173 N 496.642 -0.504142 1.49319 0
M  V30 5174 C 497.552 -1.63248 1.68486 0
M  V30 5175 C 498.568 -1.64488 0.567432 0
M  V30 5176 O 499.744 -1.82966 0.841749 0
M  V30 5177 C 496.809 -2.99627 1.74426 0
M  V30 5178 C 495.87 -3.09039 2.97982 0
M  V30 5179 C 495.103 -4.38913 3.0363 0
M  V30 5180 O 495.326 -5.27528 2.16958 0
M  V30 5181 O 494.26 -4.53231 3.96062 0
M  V30 5182 H 498.086 -1.50008 2.64067 0
M  V30 5183 H 495.671 -0.680086 1.33023 0
M  V30 5184 H 497.553 -3.80689 1.80705 0
M  V30 5185 H 496.228 -3.13136 0.820233 0
M  V30 5186 H 495.135 -2.27177 2.97223 0
M  V30 5187 H 496.468 -3.00456 3.89855 0
M  V30 5188 N 498.12 -1.38341 -0.754957 0
M  V30 5189 C 499.366 -1.34672 -1.51628 0
M  V30 5190 C 499.699 0.0636036 -1.94096 0
M  V30 5191 O 498.974 1.0245 -1.6533 0
M  V30 5192 C 499.257 -2.30116 -2.76981 0
M  V30 5193 C 499.11 -3.80003 -2.4066 0
M  V30 5194 C 500.429 -2.23715 -3.78998 0
M  V30 5195 H 497.548 -0.490517 -0.550056 0
M  V30 5196 H 500.19 -1.69178 -0.864807 0
M  V30 5197 H 498.34 -2.00821 -3.3257 0
M  V30 5198 H 500.012 -4.19966 -1.90856 0
M  V30 5199 H 498.255 -3.97751 -1.73137 0
M  V30 5200 H 498.926 -4.42244 -3.30339 0
M  V30 5201 H 501.402 -2.49574 -3.32945 0
M  V30 5202 H 500.278 -2.9261 -4.64403 0
M  V30 5203 H 500.539 -1.23554 -4.24484 0
M  V30 5204 N 499.598 0.982988 -1.23187 0
M  V30 5205 C 500.823 1.76455 -1.08988 0
M  V30 5206 C 501.248 1.84726 0.354691 0
M  V30 5207 O 500.606 1.30699 1.25649 0
M  V30 5208 C 500.654 3.17094 -1.71708 0
M  V30 5209 O 499.758 4.00648 -0.977477 0
M  V30 5210 H 499.099 0.542988 -0.382177 0
M  V30 5211 H 501.629 1.23413 -1.63188 0
M  V30 5212 H 501.639 3.67684 -1.76841 0
M  V30 5213 H 500.314 3.10389 -2.76823 0
M  V30 5214 H 498.891 3.59161 -1.0029 0
M  V30 5215 N 501.076 1.04316 1.18135 0
M  V30 5216 C 502.487 0.775505 1.69832 0
M  V30 5217 C 502.838 -0.703348 1.8316 0
M  V30 5218 O 501.963 -1.54729 1.51287 0
M  V30 5219 C 502.558 1.40112 3.0847 0
M  V30 5220 C 501.117 1.18172 3.57368 0
M  V30 5221 C 500.264 1.49022 2.33854 0
M  V30 5222 H 503.215 1.20925 1.02775 0
M  V30 5223 H 503.236 0.805672 3.71873 0
M  V30 5224 H 502.748 2.47744 2.98738 0
M  V30 5225 H 500.849 0.124258 3.72393 0
M  V30 5226 H 500.962 1.8805 4.40652 0
M  V30 5227 H 499.326 0.909995 2.37889 0
M  V30 5228 H 500.109 2.57768 2.26738 0
M  V30 5229 N 502.554 -1.34406 0.822964 0
M  V30 5230 C 503.464 -2.33298 0.246838 0
M  V30 5231 C 504.48 -1.62625 -0.618797 0
M  V30 5232 O 505.656 -1.94391 -0.526685 0
M  V30 5233 C 502.721 -3.41785 -0.581731 0
M  V30 5234 C 501.782 -4.28206 0.306309 0
M  V30 5235 C 501.015 -5.31512 -0.48281 0
M  V30 5236 O 501.238 -5.43973 -1.71607 0
M  V30 5237 O 500.172 -6.01749 0.134884 0
M  V30 5238 H 503.998 -2.84401 1.06534 0
M  V30 5239 H 501.583 -1.37466 0.585108 0
M  V30 5240 H 503.465 -4.08028 -1.05313 0
M  V30 5241 H 502.14 -2.92925 -1.37756 0
M  V30 5242 H 501.047 -3.64885 0.825199 0
M  V30 5243 H 502.38 -4.80507 1.06649 0
M  V30 5244 N 504.032 -0.577932 -1.46621 0
M  V30 5245 C 505.26 -0.0671642 -2.06791 0
M  V30 5246 C 505.675 1.23571 -1.42743 0
M  V30 5247 O 505.032 1.74602 -0.531062 0
M  V30 5248 C 505.083 0.110357 -3.61332 0
M  V30 5249 O 504.804 -1.14095 -4.22982 0
M  V30 5250 C 506.305 0.656025 -4.38419 0
M  V30 5251 H 503.525 -0.0552732 -0.66872 0
M  V30 5252 H 506.069 -0.797242 -1.8832 0
M  V30 5253 H 504.224 0.790637 -3.79246 0
M  V30 5254 H 504.638 -0.951742 -5.15793 0
M  V30 5255 H 506.112 0.729438 -5.47159 0
M  V30 5256 H 506.589 1.67195 -4.06131 0
M  V30 5257 H 507.195 0.0107692 -4.25299 0
M  V30 5258 N 505.51 1.54411 -0.315457 0
M  V30 5259 C 506.756 2.00716 0.289972 0
M  V30 5260 C 507.089 1.2034 1.5242 0
M  V30 5261 O 506.364 0.283579 1.92422 0
M  V30 5262 C 506.647 3.54507 0.632196 0
M  V30 5263 C 506.5 4.45615 -0.61218 0
M  V30 5264 C 507.819 4.15421 1.45305 0
M  V30 5265 H 504.938 0.729637 0.10392 0
M  V30 5266 H 507.58 1.8506 -0.430427 0
M  V30 5267 H 505.73 3.67979 1.24595 0
M  V30 5268 H 507.402 4.44026 -1.25053 0
M  V30 5269 H 505.645 4.15621 -1.24264 0
M  V30 5270 H 506.316 5.51022 -0.328379 0
M  V30 5271 H 508.792 4.05474 0.934331 0
M  V30 5272 H 507.668 5.23157 1.66127 0
M  V30 5273 H 507.929 3.68223 2.44671 0
M  V30 5274 N 506.988 0.0434614 1.5754 0
M  V30 5275 C 507.918 -0.931651 2.14109 0
M  V30 5276 C 508.899 -1.32971 1.06079 0
M  V30 5277 O 510.084 -1.40579 1.33982 0
M  V30 5278 C 507.214 -2.20914 2.67982 0
M  V30 5279 C 506.168 -1.95139 3.80926 0
M  V30 5280 C 505.494 -3.29276 4.21285 0
M  V30 5281 C 506.794 -1.27913 5.06395 0
M  V30 5282 H 508.488 -0.460497 2.95837 0
M  V30 5283 H 506.034 -0.220058 1.42309 0
M  V30 5284 H 507.987 -2.89522 3.06194 0
M  V30 5285 H 506.711 -2.70221 1.83434 0
M  V30 5286 H 505.37 -1.28945 3.43175 0
M  V30 5287 H 505.018 -3.76369 3.33699 0
M  V30 5288 H 504.718 -3.12831 4.97404 0
M  V30 5289 H 506.242 -3.99129 4.62091 0
M  V30 5290 H 507.656 -1.86544 5.42102 0
M  V30 5291 H 506.053 -1.2182 5.87605 0
M  V30 5292 H 507.123 -0.254066 4.84234 0
M  V30 5293 N 508.466 -1.55915 -0.229846 0
M  V30 5294 C 509.882 -1.48721 -0.579166 0
M  V30 5295 C 510.082 -0.736976 -1.87539 0
M  V30 5296 O 509.138 -0.273258 -2.51017 0
M  V30 5297 C 510.451 -2.9323 -0.666082 0
M  V30 5298 C 511.999 -3.03701 -0.757267 0
M  V30 5299 C 512.474 -4.49552 -0.8756 0
M  V30 5300 N 513.965 -4.53561 -0.940035 0
M  V30 5301 C 514.7 -5.63683 -1.05116 0
M  V30 5302 N 514.196 -6.83576 -1.12675 0
M  V30 5303 N 515.989 -5.51516 -1.08565 0
M  V30 5304 H 508.14 -2.03123 0.620857 0
M  V30 5305 H 510.403 -0.922898 0.21671 0
M  V30 5306 H 510.109 -3.51032 0.21664 0
M  V30 5307 H 509.983 -3.44668 -1.53243 0
M  V30 5308 H 512.37 -2.45969 -1.63043 0
M  V30 5309 H 512.451 -2.55446 0.134583 0
M  V30 5310 H 512.095 -5.079 -0.00692351 0
M  V30 5311 H 512.025 -4.95506 -1.78274 0
M  V30 5312 H 514.516 -3.67215 -0.892269 0
M  V30 5313 H 514.829 -7.63251 -1.21109 0
M  V30 5314 H 513.174 -6.86303 -1.09603 0
M  V30 5315 H 516.365 -4.5678 -1.02319 0
M  V30 5316 H 516.538 -6.37372 -1.1688 0
M  V30 5317 N 509.944 0.496216 -1.49584 0
M  V30 5318 C 510.874 1.60576 -1.69521 0
M  V30 5319 C 511.855 1.61169 -0.543933 0
M  V30 5320 O 513.04 1.77834 -0.78031 0
M  V30 5321 C 510.17 2.99038 -1.76616 0
M  V30 5322 C 509.124 3.13312 -2.91581 0
M  V30 5323 C 508.45 4.53172 -2.83794 0
M  V30 5324 C 509.75 2.92886 -4.32452 0
M  V30 5325 H 511.444 1.44146 -2.62416 0
M  V30 5326 H 508.99 0.692024 -1.26282 0
M  V30 5327 H 510.943 3.76564 -1.8915 0
M  V30 5328 H 509.667 3.16568 -0.80324 0
M  V30 5329 H 508.326 2.38213 -2.78658 0
M  V30 5330 H 507.974 4.67585 -1.854 0
M  V30 5331 H 507.674 4.63662 -3.60958 0
M  V30 5332 H 509.198 5.32752 -2.98342 0
M  V30 5333 H 510.612 3.60178 -4.46032 0
M  V30 5334 H 509.009 3.14844 -5.10875 0
M  V30 5335 H 510.079 1.88966 -4.46565 0
M  V30 5336 N 511.423 1.38739 0.74761 0
M  V30 5337 C 512.653 1.3832 1.53464 0
M  V30 5338 C 513.061 -0.0273464 1.8918 0
M  V30 5339 O 512.404 -1.00588 1.53713 0
M  V30 5340 C 512.466 2.18007 2.85855 0
M  V30 5341 C 512.13 3.66762 2.72644 0
M  V30 5342 C 513.127 4.60124 2.42037 0
M  V30 5343 C 510.812 4.10193 2.89909 0
M  V30 5344 C 512.806 5.94897 2.28859 0
M  V30 5345 C 510.493 5.45045 2.7635 0
M  V30 5346 C 511.491 6.37211 2.45869 0
M  V30 5347 O 511.179 7.69581 2.3238 0
M  V30 5348 H 510.911 0.474718 0.481268 0
M  V30 5349 H 513.465 1.83012 0.932518 0
M  V30 5350 H 511.695 1.68043 3.48279 0
M  V30 5351 H 513.384 2.09921 3.47402 0
M  V30 5352 H 514.15 4.27874 2.28361 0
M  V30 5353 H 510.029 3.38797 3.1263 0
M  V30 5354 H 513.573 6.66802 2.04989 0
M  V30 5355 H 509.47 5.76889 2.89601 0
M  V30 5356 H 510.238 7.80169 2.47546 0
M  V30 5357 N 512.901 -0.976442 1.23707 0
M  V30 5358 C 514.126 -1.75875 1.09922 0
M  V30 5359 C 514.551 -1.84911 -0.34489 0
M  V30 5360 O 513.909 -1.31363 -1.24954 0
M  V30 5361 C 513.957 -3.16179 1.73388 0
M  V30 5362 O 513.061 -4.00124 0.99871 0
M  V30 5363 H 512.402 -0.540954 0.385052 0
M  V30 5364 H 514.932 -1.22546 1.6384 0
M  V30 5365 H 514.942 -3.66741 1.78788 0
M  V30 5366 H 513.617 -3.08917 2.78466 0
M  V30 5367 H 512.194 -3.58624 1.02193 0
M  V30 5368 N 514.379 -1.04941 -1.1758 0
M  V30 5369 C 515.311 -0.606174 -2.21039 0
M  V30 5370 C 516.324 0.328763 -1.59446 0
M  V30 5371 O 517.513 0.121895 -1.78083 0
M  V30 5372 C 514.613 0.133294 -3.38638 0
M  V30 5373 C 513.786 -0.811711 -4.29802 0
M  V30 5374 C 512.845 -0.113958 -5.26077 0
M  V30 5375 O 511.871 -0.747237 -5.64274 0
M  V30 5376 N 513.073 1.14953 -5.69004 0
M  V30 5377 H 515.838 -1.49606 -2.59689 0
M  V30 5378 H 513.399 -0.930997 -1.32454 0
M  V30 5379 H 515.391 0.610144 -4.00074 0
M  V30 5380 H 513.961 0.924816 -2.98607 0
M  V30 5381 H 513.181 -1.46824 -3.65837 0
M  V30 5382 H 514.469 -1.45326 -4.87604 0
M  V30 5383 H 513.867 1.68441 -5.40041 0
M  V30 5384 H 512.424 1.57049 -6.32597 0
M  V30 5385 N 515.857 1.33968 -0.830081 0
M  V30 5386 C 517.082 2.02813 -0.433796 0
M  V30 5387 C 517.507 1.62076 0.954614 0
M  V30 5388 O 516.865 0.808955 1.62252 0
M  V30 5389 C 516.913 3.56348 -0.552115 0
M  V30 5390 O 516.017 4.10202 0.425191 0
M  V30 5391 H 515.358 0.639817 -0.177567 0
M  V30 5392 H 517.888 1.7106 -1.12248 0
M  V30 5393 H 517.898 4.05722 -0.430513 0
M  V30 5394 H 516.573 3.85344 -1.56471 0
M  V30 5395 H 515.15 3.71979 0.261878 0
M  V30 5396 N 517.335 0.585699 1.46312 0
M  V30 5397 C 518.56 0.0762461 2.0726 0
M  V30 5398 C 518.985 -1.22071 1.43109 0
M  V30 5399 O 518.343 -1.73804 0.515942 0
M  V30 5400 C 518.391 -0.0729404 3.60526 0
M  V30 5401 O 517.495 -1.1287 3.96654 0
M  V30 5402 H 516.836 0.0641558 0.660893 0
M  V30 5403 H 519.366 0.809492 1.87905 0
M  V30 5404 H 519.376 -0.278158 4.07051 0
M  V30 5405 H 518.051 0.874188 4.06609 0
M  V30 5406 H 516.628 -0.901703 3.61834 0
M  V30 5407 N 518.813 -1.54241 0.323641 0
M  V30 5408 C 520.09 -1.92741 -0.333181 0
M  V30 5409 C 520.47 -1.25326 -1.69872 0
M  V30 5410 O 519.818 -0.396991 -2.25025 0
M  V30 5411 C 520.028 -3.46399 -0.425322 0
M  V30 5412 C 521.376 -4.19029 -0.68557 0
M  V30 5413 O 522.4 -3.52555 -0.50824 0
M  V30 5414 O 521.259 -5.36751 -1.02767 0
M  V30 5415 H 518.353 -0.804811 -0.190286 0
M  V30 5416 H 520.899 -1.65542 0.373361 0
M  V30 5417 H 519.671 -3.87643 0.533737 0
M  V30 5418 H 519.294 -3.79704 -1.17944 0
M  V30 5419 N 520.291 -0.0518155 -1.57515 0
M  V30 5420 C 521.539 0.620595 -1.92336 0
M  V30 5421 C 521.86 1.71345 -0.930907 0
M  V30 5422 O 521.13 1.95885 0.0241341 0
M  V30 5423 H 519.71 0.232226 -0.709986 0
M  V30 5424 H 522.372 -0.104969 -1.94617 0
M  V30 5425 H 521.468 1.05879 -2.93592 0
M  V30 5426 N 521.769 1.56035 0.221574 0
M  V30 5427 C 522.732 1.91584 1.2581 0
M  V30 5428 C 523.732 0.794425 1.39805 0
M  V30 5429 O 524.922 1.06217 1.38071 0
M  V30 5430 C 522.054 2.16663 2.63192 0
M  V30 5431 H 523.247 2.8429 0.954935 0
M  V30 5432 H 520.8 1.49316 0.461988 0
M  V30 5433 H 521.535 1.26508 2.98607 0
M  V30 5434 H 521.32 2.98358 2.5441 0
M  V30 5435 H 522.81 2.45262 3.37988 0
M  V30 5436 N 523.247 -0.488276 1.49845 0
M  V30 5437 C 524.18 -1.60651 1.62069 0
M  V30 5438 C 525.158 -1.5568 0.469308 0
M  V30 5439 O 526.342 -1.75553 0.686551 0
M  V30 5440 C 523.469 -2.99197 1.58741 0
M  V30 5441 C 522.515 -3.22385 2.79232 0
M  V30 5442 S 523.348 -3.04133 4.40753 0
M  V30 5443 C 524.504 -4.45052 4.4009 0
M  V30 5444 H 524.737 -1.50039 2.56662 0
M  V30 5445 H 522.27 -0.674371 1.38894 0
M  V30 5446 H 524.228 -3.79081 1.57506 0
M  V30 5447 H 522.889 -3.07213 0.654136 0
M  V30 5448 H 522.082 -4.23557 2.73159 0
M  V30 5449 H 521.684 -2.50245 2.77945 0
M  V30 5450 H 523.976 -5.37375 4.12594 0
M  V30 5451 H 524.919 -4.56172 5.41583 0
M  V30 5452 H 525.327 -4.26327 3.70008 0
M  V30 5453 N 524.725 -1.39134 -0.740242 0
M  V30 5454 C 526.141 -1.20623 -1.0451 0
M  V30 5455 C 526.341 -0.0641651 -2.01398 0
M  V30 5456 O 525.397 0.585843 -2.4561 0
M  V30 5457 C 526.71 -2.53815 -1.6124 0
M  V30 5458 C 528.258 -2.60615 -1.73346 0
M  V30 5459 C 528.733 -3.94015 -2.33486 0
M  V30 5460 N 530.224 -3.95627 -2.40902 0
M  V30 5461 C 530.959 -4.95616 -2.88361 0
M  V30 5462 N 530.455 -6.06003 -3.35756 0
M  V30 5463 N 532.248 -4.82998 -2.87523 0
M  V30 5464 H 524.399 -2.12176 -0.0975576 0
M  V30 5465 H 526.662 -0.942066 -0.105904 0
M  V30 5466 H 526.368 -3.37911 -0.975144 0
M  V30 5467 H 526.242 -2.73162 -2.6012 0
M  V30 5468 H 528.629 -1.76906 -2.36195 0
M  V30 5469 H 528.71 -2.45123 -0.731336 0
M  V30 5470 H 528.354 -4.78153 -1.71267 0
M  V30 5471 H 528.284 -4.06825 -3.34366 0
M  V30 5472 H 530.775 -3.15903 -2.07398 0
M  V30 5473 H 531.088 -6.78215 -3.70464 0
M  V30 5474 H 529.433 -6.09604 -3.33778 0
M  V30 5475 H 532.624 -3.95866 -2.49816 0
M  V30 5476 H 532.797 -5.61072 -3.24196 0
M  V30 5477 N 526.204 0.969867 -1.24223 0
M  V30 5478 C 527.45 1.7151 -1.08223 0
M  V30 5479 C 527.783 1.90478 0.37838 0
M  V30 5480 O 527.058 1.4647 1.27971 0
M  V30 5481 C 527.341 3.10714 -1.82013 0
M  V30 5482 C 527.194 2.9925 -3.35811 0
M  V30 5483 C 528.513 4.10332 -1.59108 0
M  V30 5484 H 525.632 0.622499 -0.394543 0
M  V30 5485 H 528.274 1.1284 -1.52863 0
M  V30 5486 H 526.424 3.608 -1.44068 0
M  V30 5487 H 528.096 2.56608 -3.83341 0
M  V30 5488 H 526.339 2.35512 -3.64303 0
M  V30 5489 H 527.01 3.97857 -3.82641 0
M  V30 5490 H 529.486 3.69097 -1.92111 0
M  V30 5491 H 528.362 5.05804 -2.13198 0
M  V30 5492 H 528.623 4.38926 -0.528832 0
M  V30 5493 N 527.682 1.05563 1.17022 0
M  V30 5494 C 528.645 0.664098 2.19368 0
M  V30 5495 C 529.645 -0.286358 1.5823 0
M  V30 5496 O 530.835 -0.069728 1.7406 0
M  V30 5497 C 527.967 -0.0239932 3.40892 0
M  V30 5498 H 529.16 1.57 2.55521 0
M  V30 5499 H 526.713 0.849964 1.31169 0
M  V30 5500 H 527.448 -0.942988 3.10287 0
M  V30 5501 H 527.233 0.659351 3.86516 0
M  V30 5502 H 528.723 -0.283909 4.16634 0
M  V30 5503 N 529.16 -1.33526 0.837174 0
M  V30 5504 C 530.576 -1.50727 0.524743 0
M  V30 5505 C 530.776 -1.77792 -0.948279 0
M  V30 5506 O 529.832 -1.83719 -1.73216 0
M  V30 5507 C 531.145 -2.66299 1.39661 0
M  V30 5508 C 532.693 -2.80183 1.39521 0
M  V30 5509 C 533.168 -3.98815 2.25189 0
M  V30 5510 N 534.659 -4.06047 2.2289 0
M  V30 5511 C 535.394 -4.97032 2.85915 0
M  V30 5512 N 534.89 -5.93143 3.57985 0
M  V30 5513 N 536.683 -4.90015 2.75394 0
M  V30 5514 H 528.834 -1.1422 1.79074 0
M  V30 5515 H 531.097 -0.561399 0.763894 0
M  V30 5516 H 530.803 -2.52974 2.4433 0
M  V30 5517 H 530.677 -3.61663 1.07145 0
M  V30 5518 H 533.064 -2.92942 0.356253 0
M  V30 5519 H 533.145 -1.85586 1.76044 0
M  V30 5520 H 532.789 -3.86817 3.29143 0
M  V30 5521 H 532.719 -4.92654 1.86009 0
M  V30 5522 H 535.21 -3.37262 1.70478 0
M  V30 5523 H 535.523 -6.59227 4.03286 0
M  V30 5524 H 533.868 -5.93223 3.62093 0
M  V30 5525 H 537.059 -4.13894 2.18654 0
M  V30 5526 H 537.232 -5.60724 3.24796 0
M  V30 5527 N 530.638 -0.59345 -1.46 0
M  V30 5528 C 531.601 0.123538 -2.28867 0
M  V30 5529 C 532.601 0.808628 -1.38989 0
M  V30 5530 O 533.791 0.658945 -1.61256 0
M  V30 5531 C 530.923 1.1847 -3.19653 0
M  V30 5532 H 532.116 -0.604843 -2.93737 0
M  V30 5533 H 529.669 -0.351875 -1.52288 0
M  V30 5534 H 530.404 1.94431 -2.59552 0
M  V30 5535 H 530.189 0.69783 -3.8584 0
M  V30 5536 H 531.679 1.68726 -3.81997 0
M  V30 5537 N 532.116 1.54067 -0.331816 0
M  V30 5538 C 533.363 2.00715 0.268269 0
M  V30 5539 C 533.691 1.21986 1.51491 0
M  V30 5540 O 532.946 0.292309 1.93505 0
M  V30 5541 C 533.245 3.51634 0.639392 0
M  V30 5542 C 532.911 4.48018 -0.509019 0
M  V30 5543 C 531.573 4.74089 -0.824209 0
M  V30 5544 C 533.925 5.05237 -1.28003 0
M  V30 5545 C 531.253 5.54637 -1.91298 0
M  V30 5546 C 533.605 5.86972 -2.35895 0
M  V30 5547 C 532.269 6.11342 -2.67987 0
M  V30 5548 H 531.539 0.734469 0.0981667 0
M  V30 5549 H 534.186 1.8596 -0.457304 0
M  V30 5550 H 532.491 3.6416 1.44551 0
M  V30 5551 H 534.188 3.85175 1.11539 0
M  V30 5552 H 530.778 4.27851 -0.253287 0
M  V30 5553 H 534.962 4.8507 -1.04978 0
M  V30 5554 H 530.218 5.71747 -2.16599 0
M  V30 5555 H 534.392 6.30327 -2.96076 0
M  V30 5556 H 532.019 6.73544 -3.5248 0
M  V30 5557 N 533.594 0.0601682 1.57485 0
M  V30 5558 C 534.504 -0.926121 2.15546 0
M  V30 5559 C 535.52 -1.33532 1.11558 0
M  V30 5560 O 536.696 -1.4104 1.4377 0
M  V30 5561 C 533.761 -2.17952 2.69625 0
M  V30 5562 C 532.822 -1.82783 3.88444 0
M  V30 5563 C 532.055 -3.02148 4.39935 0
M  V30 5564 O 532.278 -4.15803 3.90466 0
M  V30 5565 O 531.212 -2.82639 5.31412 0
M  V30 5566 H 535.038 -0.462289 3.00161 0
M  V30 5567 H 532.623 -0.162246 1.48516 0
M  V30 5568 H 534.505 -2.91474 3.04337 0
M  V30 5569 H 533.18 -2.63456 1.88077 0
M  V30 5570 H 532.087 -1.06549 3.58606 0
M  V30 5571 H 533.42 -1.42072 4.7125 0
M  V30 5572 N 535.072 -1.5615 -0.213296 0
M  V30 5573 C 536.488 -1.49327 -0.56336 0
M  V30 5574 C 536.688 -0.756826 -1.86747 0
M  V30 5575 O 535.744 -0.299866 -2.50713 0
M  V30 5576 C 537.057 -2.9392 -0.634944 0
M  V30 5577 C 538.605 -3.04487 -0.725013 0
M  V30 5578 C 539.08 -4.50456 -0.82787 0
M  V30 5579 N 540.571 -4.54533 -0.891876 0
M  V30 5580 C 541.306 -5.64766 -0.991315 0
M  V30 5581 N 540.802 -6.84733 -1.05419 0
M  V30 5582 N 542.595 -5.52637 -1.02709 0
M  V30 5583 H 534.746 -2.02453 0.642366 0
M  V30 5584 H 537.009 -0.920548 0.226487 0
M  V30 5585 H 536.715 -3.50783 0.253859 0
M  V30 5586 H 536.589 -3.46274 -1.49579 0
M  V30 5587 H 538.976 -2.47685 -1.60425 0
M  V30 5588 H 539.057 -2.55289 0.161669 0
M  V30 5589 H 538.701 -5.07878 0.0469464 0
M  V30 5590 H 538.631 -4.97369 -1.73009 0
M  V30 5591 H 541.122 -3.68141 -0.85327 0
M  V30 5592 H 541.435 -7.64493 -1.13007 0
M  V30 5593 H 539.78 -6.87427 -1.02318 0
M  V30 5594 H 542.971 -4.5784 -0.974687 0
M  V30 5595 H 543.144 -6.38576 -1.10113 0
M  V30 5596 N 536.55 0.480323 -1.50102 0
M  V30 5597 C 537.798 1.23063 -1.60312 0
M  V30 5598 C 538.119 1.92659 -0.301226 0
M  V30 5599 O 537.389 1.83691 0.680753 0
M  V30 5600 H 535.969 0.457231 -0.590719 0
M  V30 5601 H 538.631 0.554893 -1.86834 0
M  V30 5602 H 537.727 1.9835 -2.40964 0
M  V30 5603 N 538.028 1.39524 0.732853 0
M  V30 5604 C 539.277 1.36175 1.48792 0
M  V30 5605 C 539.59 -0.0388195 1.95561 0
M  V30 5606 O 540.796 -0.194899 2.708 0
M  V30 5607 C 539.252 2.39242 2.68871 0
M  V30 5608 C 538.86 3.85024 2.29042 0
M  V30 5609 C 540.604 2.44972 3.46683 0
M  V30 5610 C 538.511 4.79727 3.45856 0
M  V30 5611 H 537.441 0.506267 0.558757 0
M  V30 5612 H 540.092 1.65181 0.799226 0
M  V30 5613 H 538.474 2.0331 3.39825 0
M  V30 5614 H 539.648 4.30008 1.6562 0
M  V30 5615 H 537.963 3.82609 1.64316 0
M  V30 5616 H 540.56 3.12918 4.33574 0
M  V30 5617 H 540.903 1.4749 3.89297 0
M  V30 5618 H 541.436 2.79808 2.82759 0
M  V30 5619 H 538.175 5.78479 3.08289 0
M  V30 5620 H 537.695 4.39421 4.08251 0
M  V30 5621 H 539.374 4.98731 4.12161 0
M  V30 5622 N 539.506 -0.963266 1.24736 0
M  V30 5623 C 540.917 -1.52145 1.08207 0
M  V30 5624 C 541.268 -1.93142 -0.345061 0
M  V30 5625 O 540.393 -1.77769 -1.23399 0
M  V30 5626 C 540.988 -2.76486 1.95808 0
M  V30 5627 C 539.547 -3.28646 1.8349 0
M  V30 5628 C 538.694 -2.01529 1.90476 0
M  V30 5629 H 541.645 -0.781083 1.38148 0
M  V30 5630 H 541.666 -3.49986 1.49297 0
M  V30 5631 H 541.178 -2.46617 2.99669 0
M  V30 5632 H 539.279 -3.63357 0.824787 0
M  V30 5633 H 539.392 -3.97246 2.67829 0
M  V30 5634 H 537.756 -2.16442 1.34258 0
M  V30 5635 H 538.539 -1.7402 2.95926 0
M  V30 5636 N 540.985 -1.06182 -1.16461 0
M  V30 5637 C 542.231 -0.779015 -1.87241 0
M  V30 5638 C 542.564 0.692715 -1.81425 0
M  V30 5639 O 541.839 1.5074 -1.22913 0
M  V30 5640 C 542.122 -1.2728 -3.36856 0
M  V30 5641 C 541.975 -2.80821 -3.51368 0
M  V30 5642 C 543.294 -0.879799 -4.31216 0
M  V30 5643 H 540.413 -0.284464 -0.679889 0
M  V30 5644 H 543.055 -1.31755 -1.36896 0
M  V30 5645 H 541.205 -0.814673 -3.79862 0
M  V30 5646 H 542.877 -3.34833 -3.17308 0
M  V30 5647 H 541.12 -3.19606 -2.93316 0
M  V30 5648 H 541.791 -3.10435 -4.56436 0
M  V30 5649 H 544.267 -1.27436 -3.96105 0
M  V30 5650 H 543.143 -1.25278 -5.34412 0
M  V30 5651 H 543.404 0.215372 -4.41575 0
M  V30 5652 N 542.463 1.3308 -0.844243 0
M  V30 5653 C 543.71 1.97605 -0.44255 0
M  V30 5654 C 544.038 1.66856 0.999458 0
M  V30 5655 O 543.293 0.943586 1.7145 0
M  V30 5656 C 543.592 3.52045 -0.616354 0
M  V30 5657 C 543.258 4.02757 -2.02726 0
M  V30 5658 C 541.92 4.16316 -2.41317 0
M  V30 5659 C 544.272 4.29776 -2.9486 0
M  V30 5660 C 541.6 4.54232 -3.71335 0
M  V30 5661 C 543.952 4.69146 -4.24364 0
M  V30 5662 C 542.616 4.80911 -4.62904 0
M  V30 5663 H 541.886 0.723088 -0.161941 0
M  V30 5664 H 544.533 1.58663 -1.0723 0
M  V30 5665 H 542.838 3.91681 0.0966812 0
M  V30 5666 H 544.535 3.99981 -0.285756 0
M  V30 5667 H 541.125 3.9268 -1.71756 0
M  V30 5668 H 545.309 4.18818 -2.6628 0
M  V30 5669 H 540.565 4.61535 -4.00993 0
M  V30 5670 H 544.739 4.89008 -4.95827 0
M  V30 5671 H 542.366 5.10048 -5.63698 0
M  V30 5672 N 543.941 0.601185 1.45683 0
M  V30 5673 C 545.189 0.0936957 2.01883 0
M  V30 5674 C 545.51 -1.2779 1.47291 0
M  V30 5675 O 544.78 -1.84279 0.664691 0
M  V30 5676 H 543.36 0.0316466 0.746329 0
M  V30 5677 H 546.022 0.781137 1.78562 0
M  V30 5678 H 545.118 0.0386297 3.12076 0
M  V30 5679 N 545.419 -1.53889 0.339982 0
M  V30 5680 C 546.647 -2.05271 -0.259114 0
M  V30 5681 C 547.062 -1.21517 -1.44496 0
M  V30 5682 O 546.419 -0.24966 -1.80784 0
M  V30 5683 C 546.47 -3.55092 -0.677634 0
M  V30 5684 O 546.191 -4.35667 0.461051 0
M  V30 5685 C 547.692 -4.22631 -1.33782 0
M  V30 5686 H 544.912 -0.669085 -0.0506566 0
M  V30 5687 H 547.456 -1.9852 0.490935 0
M  V30 5688 H 545.611 -3.62077 -1.37763 0
M  V30 5689 H 546.025 -5.24343 0.128144 0
M  V30 5690 H 547.499 -5.28861 -1.58145 0
M  V30 5691 H 547.976 -3.74758 -2.29027 0
M  V30 5692 H 548.582 -4.19829 -0.679957 0
M  V30 5693 N 546.897 -0.0685191 -1.57451 0
M  V30 5694 C 547.827 0.89747 -2.15564 0
M  V30 5695 C 548.808 1.31266 -1.08181 0
M  V30 5696 O 549.993 1.38429 -1.36202 0
M  V30 5697 C 547.123 2.16623 -2.71463 0
M  V30 5698 C 546.077 1.89054 -3.83982 0
M  V30 5699 C 545.403 3.22532 -4.26471 0
M  V30 5700 C 546.703 1.1984 -5.08366 0
M  V30 5701 H 548.397 0.413373 -2.96533 0
M  V30 5702 H 545.943 0.197391 -1.42641 0
M  V30 5703 H 547.896 2.84614 -3.10761 0
M  V30 5704 H 546.62 2.67269 -1.8771 0
M  V30 5705 H 545.279 1.23469 -3.45183 0
M  V30 5706 H 544.927 3.71013 -3.39644 0
M  V30 5707 H 544.627 3.04879 -5.02317 0
M  V30 5708 H 546.151 3.91727 -4.68383 0
M  V30 5709 H 547.565 1.77896 -5.45001 0
M  V30 5710 H 545.962 1.12456 -5.89469 0
M  V30 5711 H 547.032 0.176996 -4.84577 0
M  V30 5712 N 548.375 1.56261 0.205012 0
M  V30 5713 C 549.621 1.80306 0.9283 0
M  V30 5714 C 549.954 0.640932 1.83319 0
M  V30 5715 O 549.229 -0.359032 1.91158 0
M  V30 5716 C 549.512 3.14547 1.75306 0
M  V30 5717 C 549.365 4.41236 0.873562 0
M  V30 5718 C 550.684 3.45382 2.72762 0
M  V30 5719 H 547.803 0.655929 0.336044 0
M  V30 5720 H 550.445 1.88984 0.196211 0
M  V30 5721 H 548.595 3.0728 2.37721 0
M  V30 5722 H 550.267 4.60539 0.264887 0
M  V30 5723 H 548.51 4.33427 0.179773 0
M  V30 5724 H 549.181 5.31639 1.48541 0
M  V30 5725 H 551.657 3.52884 2.20481 0
M  V30 5726 H 550.533 4.40449 3.2756 0
M  V30 5727 H 550.794 2.68377 3.51321 0
M  V30 5728 N 549.853 -0.472356 1.50355 0
M  V30 5729 C 550.816 -1.5529 1.68576 0
M  V30 5730 C 551.816 -1.50863 0.556511 0
M  V30 5731 O 553.006 -1.53505 0.823516 0
M  V30 5732 C 550.138 -2.94921 1.70981 0
M  V30 5733 H 551.331 -1.40451 2.64978 0
M  V30 5734 H 548.884 -0.698645 1.39816 0
M  V30 5735 H 549.619 -3.15204 0.762675 0
M  V30 5736 H 549.404 -2.99541 2.53017 0
M  V30 5737 H 550.894 -3.73372 1.87037 0
M  V30 5738 N 551.331 -1.39911 -0.725443 0
M  V30 5739 C 552.579 -1.37382 -1.48224 0
M  V30 5740 C 552.9 0.0264107 -1.94982 0
M  V30 5741 O 552.17 0.979408 -1.6966 0
M  V30 5742 H 550.75 -0.505596 -0.549892 0
M  V30 5743 H 553.412 -1.7487 -0.860608 0
M  V30 5744 H 552.508 -2.04254 -2.3598 0
M  V30 5745 N 552.809 0.956637 -1.25245 0
M  V30 5746 C 554.057 1.69764 -1.09657 0
M  V30 5747 C 554.378 1.91583 0.363464 0
M  V30 5748 O 553.648 1.50149 1.25825 0
M  V30 5749 H 552.228 0.629097 -0.402798 0
M  V30 5750 H 554.89 1.15026 -1.57337 0
M  V30 5751 H 553.986 2.67769 -1.60331 0
M  V30 5752 N 554.287 1.06798 1.15896 0
M  V30 5753 C 555.536 0.782796 1.8589 0
M  V30 5754 C 555.849 -0.693498 1.82893 0
M  V30 5755 O 557.055 -1.09325 2.48516 0
M  V30 5756 C 555.511 1.3502 3.33613 0
M  V30 5757 C 555.119 2.8571 3.45071 0
M  V30 5758 C 556.863 1.14278 4.08829 0
M  V30 5759 C 554.77 3.35669 4.86909 0
M  V30 5760 H 553.7 0.289149 0.696354 0
M  V30 5761 H 556.351 1.28734 1.30766 0
M  V30 5762 H 554.733 0.773407 3.88374 0
M  V30 5763 H 555.907 3.49385 3.00445 0
M  V30 5764 H 554.222 3.05178 2.83294 0
M  V30 5765 H 556.819 1.49087 5.13495 0
M  V30 5766 H 557.162 0.0814575 4.1622 0
M  V30 5767 H 557.695 1.68563 3.60321 0
M  V30 5768 H 554.434 4.41302 4.84698 0
M  V30 5769 H 553.954 2.76745 5.32139 0
M  V30 5770 H 555.633 3.31296 5.55745 0
M  V30 5771 N 555.766 -1.3263 0.851289 0
M  V30 5772 C 556.991 -2.02097 0.466006 0
M  V30 5773 C 557.416 -1.63574 -0.928709 0
M  V30 5774 O 556.774 -0.834665 -1.60944 0
M  V30 5775 C 556.822 -3.55425 0.608737 0
M  V30 5776 O 555.926 -4.10827 -0.359878 0
M  V30 5777 H 555.267 -0.636911 0.187724 0
M  V30 5778 H 557.797 -1.69253 1.14955 0
M  V30 5779 H 557.807 -4.04986 0.495006 0
M  V30 5780 H 556.482 -3.82806 1.62581 0
M  V30 5781 H 555.059 -3.72349 -0.202666 0
M  V30 5782 N 557.244 -0.608902 -1.45362 0
M  V30 5783 C 558.491 -0.104607 -2.0223 0
M  V30 5784 C 558.819 1.26534 -1.47714 0
M  V30 5785 O 558.074 1.84855 -0.642435 0
M  V30 5786 C 558.373 -0.0167296 -3.57396 0
M  V30 5787 C 558.039 -1.32251 -4.31069 0
M  V30 5788 C 556.701 -1.68019 -4.50914 0
M  V30 5789 C 559.053 -2.18542 -4.73169 0
M  V30 5790 C 556.381 -2.89828 -5.10114 0
M  V30 5791 C 558.733 -3.39602 -5.33717 0
M  V30 5792 C 557.397 -3.7562 -5.51784 0
M  V30 5793 H 556.667 -0.0382785 -0.740011 0
M  V30 5794 H 559.314 -0.790782 -1.7441 0
M  V30 5795 H 557.619 0.752715 -3.84502 0
M  V30 5796 H 559.316 0.389634 -3.99103 0
M  V30 5797 H 555.906 -1.03411 -4.15938 0
M  V30 5798 H 560.09 -1.92208 -4.5757 0
M  V30 5799 H 555.346 -3.17839 -5.22291 0
M  V30 5800 H 559.52 -4.06716 -5.65292 0
M  V30 5801 H 557.147 -4.70093 -5.97425 0
M  V30 5802 N 558.722 1.53707 -0.348139 0
M  V30 5803 C 559.97 2.00591 0.246478 0
M  V30 5804 C 560.291 1.23753 1.50699 0
M  V30 5805 O 559.561 0.345964 1.92821 0
M  V30 5806 H 558.141 0.741053 0.0940679 0
M  V30 5807 H 560.803 1.89139 -0.470354 0
M  V30 5808 H 559.899 3.08297 0.485714 0
M  V30 5809 N 560.2 0.0768682 1.57412 0
M  V30 5810 C 561.163 -0.873949 2.11884 0
M  V30 5811 C 562.163 -1.22301 1.04398 0
M  V30 5812 O 563.353 -1.15545 1.30365 0
M  V30 5813 C 560.485 -2.17575 2.62438 0
M  V30 5814 H 561.678 -0.401278 2.97203 0
M  V30 5815 H 559.231 -0.171904 1.55352 0
M  V30 5816 H 559.966 -2.69368 1.80587 0
M  V30 5817 H 559.751 -1.93534 3.41009 0
M  V30 5818 H 561.241 -2.85631 3.04639 0
M  V30 5819 N 561.678 -1.56367 -0.196722 0
M  V30 5820 C 562.924 -1.80796 -0.918725 0
M  V30 5821 C 563.257 -0.650645 -1.82976 0
M  V30 5822 O 562.532 0.348889 -1.91345 0
M  V30 5823 C 562.815 -3.15472 -1.73636 0
M  V30 5824 C 562.668 -4.41693 -0.85015 0
M  V30 5825 C 563.987 -3.46824 -2.70927 0
M  V30 5826 H 561.106 -0.657702 -0.332561 0
M  V30 5827 H 563.748 -1.89086 -0.186186 0
M  V30 5828 H 561.898 -3.08536 -2.36088 0
M  V30 5829 H 563.57 -4.60673 -0.240459 0
M  V30 5830 H 561.813 -4.33517 -0.156785 0
M  V30 5831 H 562.484 -5.32419 -1.45719 0
M  V30 5832 H 564.96 -3.54049 -2.18607 0
M  V30 5833 H 563.836 -4.4218 -3.25219 0
M  V30 5834 H 564.097 -2.70236 -3.49893 0
M  V30 5835 N 563.156 0.464375 -1.50603 0
M  V30 5836 C 564.386 1.23727 -1.65454 0
M  V30 5837 C 564.794 1.86119 -0.340032 0
M  V30 5838 O 564.137 1.70301 0.688706 0
M  V30 5839 C 564.199 2.38153 -2.69301 0
M  V30 5840 C 563.863 1.96345 -4.12671 0
M  V30 5841 C 564.86 1.48215 -4.98326 0
M  V30 5842 C 562.545 2.04861 -4.58625 0
M  V30 5843 C 564.539 1.09152 -6.27985 0
M  V30 5844 C 562.226 1.65409 -5.88288 0
M  V30 5845 C 563.224 1.17634 -6.72794 0
M  V30 5846 O 562.912 0.787312 -8.00035 0
M  V30 5847 H 562.644 0.380075 -0.559034 0
M  V30 5848 H 565.198 0.559919 -1.97621 0
M  V30 5849 H 563.428 3.09081 -2.32392 0
M  V30 5850 H 565.117 3.00099 -2.73304 0
M  V30 5851 H 565.883 1.41052 -4.64036 0
M  V30 5852 H 561.762 2.40996 -3.92991 0
M  V30 5853 H 565.306 0.717909 -6.93896 0
M  V30 5854 H 561.203 1.72233 -6.22098 0
M  V30 5855 H 561.971 0.915567 -8.13363 0
M  V30 5856 N 564.634 1.40294 0.718013 0
M  V30 5857 C 565.862 1.4175 1.50714 0
M  V30 5858 C 566.277 0.0165366 1.88793 0
M  V30 5859 O 565.634 -0.958942 1.55276 0
M  V30 5860 C 565.685 2.30598 2.784 0
M  V30 5861 O 565.406 3.6524 2.41932 0
M  V30 5862 C 566.907 2.4062 3.72313 0
M  V30 5863 H 564.127 0.483565 0.465194 0
M  V30 5864 H 566.671 1.84316 0.885889 0
M  V30 5865 H 564.826 1.91401 3.36815 0
M  V30 5866 H 565.24 4.12402 3.24076 0
M  V30 5867 H 566.714 3.07001 4.58753 0
M  V30 5868 H 567.191 1.4305 4.15251 0
M  V30 5869 H 567.797 2.80359 3.19811 0
M  V30 5870 N 566.112 -0.949982 1.2575 0
M  V30 5871 C 567.045 -2.047 1.00862 0
M  V30 5872 C 568.023 -1.62475 -0.0636982 0
M  V30 5873 O 569.207 -1.88343 0.0769153 0
M  V30 5874 C 566.334 -3.34597 0.525613 0
M  V30 5875 C 565.38 -3.95788 1.58916 0
M  V30 5876 S 566.213 -4.31175 3.17567 0
M  V30 5877 C 567.369 -5.64183 2.71013 0
M  V30 5878 H 567.602 -2.25497 1.93749 0
M  V30 5879 H 565.135 -1.09022 1.09332 0
M  V30 5880 H 567.093 -4.09716 0.25359 0
M  V30 5881 H 565.754 -3.11758 -0.382828 0
M  V30 5882 H 564.947 -4.89457 1.20201 0
M  V30 5883 H 564.549 -3.27168 1.81211 0
M  V30 5884 H 566.841 -6.42504 2.14928 0
M  V30 5885 H 567.784 -6.07774 3.6334 0
M  V30 5886 H 568.192 -5.2364 2.1086 0
M  V30 5887 N 567.59 -1.07411 -1.15328 0
M  V30 5888 C 568.52 -0.716472 -2.22236 0
M  V30 5889 C 569.501 0.296373 -1.67498 0
M  V30 5890 O 570.686 0.168989 -1.93463 0
M  V30 5891 C 567.816 -0.114142 -3.47112 0
M  V30 5892 C 566.77 -1.05421 -4.14814 0
M  V30 5893 C 566.096 -0.314604 -5.33774 0
M  V30 5894 C 567.396 -2.38808 -4.64508 0
M  V30 5895 H 569.09 -1.61029 -2.52408 0
M  V30 5896 H 566.636 -0.775702 -1.21321 0
M  V30 5897 H 568.589 0.148001 -4.2114 0
M  V30 5898 H 567.313 0.814755 -3.16274 0
M  V30 5899 H 565.972 -1.30128 -3.42728 0
M  V30 5900 H 565.62 0.617772 -4.99192 0
M  V30 5901 H 565.32 -0.941209 -5.80013 0
M  V30 5902 H 566.844 -0.0602747 -6.1057 0
M  V30 5903 H 568.258 -2.18424 -5.3006 0
M  V30 5904 H 566.655 -2.97069 -5.21412 0
M  V30 5905 H 567.725 -3.01067 -3.80114 0
M  V30 5906 N 569.068 1.32177 -0.85831 0
M  V30 5907 C 570 2.27688 -0.262835 0
M  V30 5908 C 571.013 1.52588 0.567513 0
M  V30 5909 O 572.202 1.74156 0.391407 0
M  V30 5910 C 569.302 3.32668 0.646937 0
M  V30 5911 C 568.475 4.37148 -0.148372 0
M  V30 5912 C 567.534 5.21686 0.687728 0
M  V30 5913 O 566.56 5.69074 0.119934 0
M  V30 5914 N 567.762 5.44892 2.00182 0
M  V30 5915 H 570.527 2.79426 -1.08356 0
M  V30 5916 H 568.088 1.45076 -0.718647 0
M  V30 5917 H 570.08 3.86134 1.2117 0
M  V30 5918 H 568.65 2.81061 1.36834 0
M  V30 5919 H 567.87 3.83915 -0.894572 0
M  V30 5920 H 569.158 5.04038 -0.694514 0
M  V30 5921 H 568.556 5.08128 2.4864 0
M  V30 5922 H 567.113 6.0134 2.51463 0
M  V30 5923 N 570.547 0.616602 1.45037 0
M  V30 5924 C 571.795 0.115103 2.01772 0
M  V30 5925 C 572.116 -1.2622 1.48639 0
M  V30 5926 O 571.386 -1.83563 0.684199 0
M  V30 5927 H 569.966 0.0395607 0.745952 0
M  V30 5928 H 572.628 0.800032 1.77723 0
M  V30 5929 H 571.724 0.0717274 3.12018 0
M  V30 5930 N 572.025 -1.5352 0.356285 0
M  V30 5931 C 573.265 -2.03027 -0.23649 0
M  V30 5932 C 573.629 -1.23813 -1.46746 0
M  V30 5933 O 574.83 -1.63281 -2.13525 0
M  V30 5934 C 573.101 -3.53442 -0.530415 0
M  V30 5935 S 574.66 -4.24836 -1.09819 0
M  V30 5936 H 571.478 -0.707591 -0.0695378 0
M  V30 5937 H 574.08 -1.89077 0.496999 0
M  V30 5938 H 572.784 -4.087 0.373114 0
M  V30 5939 H 572.315 -3.71536 -1.29323 0
M  V30 5940 H 574.33 -4.35228 -2.38309 0
M  V30 5941 N 573.503 -0.0852151 -1.57369 0
M  V30 5942 C 574.433 0.874556 -2.16503 0
M  V30 5943 C 575.414 1.30111 -1.09568 0
M  V30 5944 O 576.599 1.36977 -1.37662 0
M  V30 5945 C 573.729 2.13731 -2.73745 0
M  V30 5946 C 572.683 1.84971 -3.85966 0
M  V30 5947 C 572.009 3.17991 -4.29867 0
M  V30 5948 C 573.309 1.14442 -5.09608 0
M  V30 5949 H 575.003 0.381899 -2.96954 0
M  V30 5950 H 572.549 0.18225 -1.42842 0
M  V30 5951 H 574.502 2.81302 -3.13763 0
M  V30 5952 H 573.226 2.65263 -1.90534 0
M  V30 5953 H 571.885 1.19801 -3.46473 0
M  V30 5954 H 571.533 3.6739 -3.4356 0
M  V30 5955 H 571.233 2.99534 -5.05523 0
M  V30 5956 H 572.757 3.86737 -4.72511 0
M  V30 5957 H 574.171 1.72105 -5.46857 0
M  V30 5958 H 572.568 1.06197 -5.90629 0
M  V30 5959 H 573.638 0.12559 -4.84737 0
M  V30 5960 N 574.981 1.5647 0.188427 0
M  V30 5961 C 575.929 1.95971 1.25293 0
M  V30 5962 C 576.923 0.846047 1.4676 0
M  V30 5963 O 578.129 1.03109 1.47542 0
M  V30 5964 H 574.504 0.623253 0.420784 0
M  V30 5965 H 576.475 2.84731 0.892792 0
M  V30 5966 C 575.224 2.32116 2.58877 0
M  V30 5967 H 574.547 3.17341 2.43176 0
M  V30 5968 H 575.987 2.63613 3.3209 0
M  V30 5969 C 574.446 1.15823 3.16365 0
M  V30 5970 O 574.976 0.436785 3.99318 0
M  V30 5971 N 573.182 0.933278 2.75206 0
M  V30 5972 H 572.729 1.52169 2.07852 0
M  V30 5973 H 572.687 0.156976 3.14008 0
M  V30 5974 N 576.459 -0.456382 1.50847 0
M  V30 5975 C 577.369 -1.57805 1.73594 0
M  V30 5976 C 578.385 -1.62599 0.619476 0
M  V30 5977 O 579.561 -1.80195 0.899532 0
M  V30 5978 C 576.626 -2.93926 1.8387 0
M  V30 5979 C 575.687 -2.99402 3.07663 0
M  V30 5980 C 574.92 -4.29031 3.1744 0
M  V30 5981 O 575.143 -5.20358 2.33631 0
M  V30 5982 O 574.077 -4.40401 4.10281 0
M  V30 5983 H 577.903 -1.41531 2.68705 0
M  V30 5984 H 575.488 -0.637422 1.3512 0
M  V30 5985 H 577.37 -3.74747 1.92725 0
M  V30 5986 H 576.045 -3.10368 0.91944 0
M  V30 5987 H 574.952 -2.17606 3.043 0
M  V30 5988 H 576.285 -2.87901 3.99216 0
M  V30 5989 N 577.937 -1.40673 -0.710563 0
M  V30 5990 C 578.87 -1.35742 -1.83438 0
M  V30 5991 C 579.848 -0.226997 -1.61008 0
M  V30 5992 O 581.032 -0.411477 -1.83954 0
M  V30 5993 C 578.159 -1.11374 -3.19865 0
M  V30 5994 C 577.205 -2.26935 -3.61113 0
M  V30 5995 S 578.038 -3.89352 -3.67648 0
M  V30 5996 C 579.194 -3.67258 -5.06826 0
M  V30 5997 H 579.427 -2.30848 -1.87341 0
M  V30 5998 H 576.96 -1.27018 -0.877831 0
M  V30 5999 H 578.918 -0.980004 -3.9863 0
M  V30 6000 H 577.579 -0.179135 -3.13589 0
M  V30 6001 H 576.772 -2.0554 -4.60184 0
M  V30 6002 H 576.374 -2.36638 -2.89618 0
M  V30 6003 H 578.666 -3.26036 -5.93891 0
M  V30 6004 H 579.609 -4.65878 -5.33257 0
M  V30 6005 H 580.017 -3.0084 -4.77656 0
M  V30 6006 N 579.415 0.9433 -1.26252 0
M  V30 6007 C 580.378 2.02326 -1.07689 0
M  V30 6008 C 581.378 1.60779 -0.0259174 0
M  V30 6009 O 582.568 1.72108 -0.269134 0
M  V30 6010 C 579.7 3.34886 -0.63752 0
M  V30 6011 H 580.893 2.20225 -2.0357 0
M  V30 6012 H 578.446 1.12197 -1.08819 0
M  V30 6013 H 579.181 3.22684 0.323377 0
M  V30 6014 H 578.966 3.66393 -1.39637 0
M  V30 6015 H 580.456 4.14231 -0.529418 0
M  V30 6016 N 580.893 1.08022 1.14757 0
M  V30 6017 C 581.803 0.718292 2.23333 0
M  V30 6018 C 582.819 -0.273477 1.71837 0
M  V30 6019 O 583.995 -0.118406 2.01052 0
M  V30 6020 C 581.06 0.128855 3.4646 0
M  V30 6021 C 580.121 1.17473 4.12915 0
M  V30 6022 C 579.354 0.61333 5.30164 0
M  V30 6023 O 579.577 -0.568458 5.6756 0
M  V30 6024 O 578.511 1.3615 5.86299 0
M  V30 6025 H 582.337 1.62394 2.56636 0
M  V30 6026 H 579.922 0.853628 1.22611 0
M  V30 6027 H 581.804 -0.197249 4.20938 0
M  V30 6028 H 580.479 -0.750014 3.14891 0
M  V30 6029 H 579.386 1.5533 3.40328 0
M  V30 6030 H 580.719 2.02574 4.48581 0
M  V30 6031 N 582.371 -1.3172 0.865308 0
M  V30 6032 C 583.648 -1.91574 0.394789 0
M  V30 6033 C 584.028 -1.78769 -1.12271 0
M  V30 6034 O 583.376 -1.19245 -1.94918 0
M  V30 6035 C 583.586 -3.37957 0.870982 0
M  V30 6036 C 584.934 -4.15073 0.894384 0
M  V30 6037 O 585.958 -3.4672 0.816325 0
M  V30 6038 O 584.817 -5.37151 1.00651 0
M  V30 6039 H 581.911 -0.818649 0.117229 0
M  V30 6040 H 584.457 -1.4042 0.952913 0
M  V30 6041 H 583.229 -3.41269 1.91444 0
M  V30 6042 H 582.852 -3.96534 0.290907 0
M  V30 6043 N 583.85 -0.624285 -1.44708 0
M  V30 6044 C 584.812 0.0749638 -2.29077 0
M  V30 6045 C 585.812 0.778965 -1.40673 0
M  V30 6046 O 587.003 0.624591 -1.62618 0
M  V30 6047 C 584.135 1.11663 -3.22094 0
M  V30 6048 H 585.327 -0.667013 -2.92388 0
M  V30 6049 H 582.88 -0.384098 -1.51507 0
M  V30 6050 H 583.615 1.88881 -2.63618 0
M  V30 6051 H 583.401 0.61583 -3.87234 0
M  V30 6052 H 584.891 1.60585 -3.8549 0
M  V30 6053 N 585.328 1.53329 -0.364422 0
M  V30 6054 C 586.26 2.23286 0.517293 0
M  V30 6055 C 587.273 1.24657 1.04711 0
M  V30 6056 O 588.462 1.50887 0.95369 0
M  V30 6057 C 585.562 2.91604 1.72685 0
M  V30 6058 C 584.735 4.1673 1.32873 0
M  V30 6059 C 583.794 4.68269 2.40022 0
M  V30 6060 O 582.82 5.31976 2.02461 0
M  V30 6061 N 584.022 4.45983 3.7159 0
M  V30 6062 H 586.787 2.99588 -0.0819391 0
M  V30 6063 H 584.348 1.60787 -0.189544 0
M  V30 6064 H 586.34 3.22992 2.4384 0
M  V30 6065 H 584.91 2.18763 2.23297 0
M  V30 6066 H 584.13 3.91657 0.447069 0
M  V30 6067 H 585.418 4.98078 1.03902 0
M  V30 6068 H 584.816 3.95077 4.04883 0
M  V30 6069 H 583.373 4.81924 4.38854 0
M  V30 6070 N 586.806 0.0935595 1.57322 0
M  V30 6071 C 588.222 -0.263091 1.57417 0
M  V30 6072 C 588.422 -1.68526 1.1046 0
M  V30 6073 O 587.478 -2.40139 0.780357 0
M  V30 6074 C 588.791 -0.0529201 3.00653 0
M  V30 6075 C 590.339 -0.120788 3.12767 0
M  V30 6076 C 590.814 0.0613707 4.57959 0
M  V30 6077 N 592.305 0.00648534 4.632 0
M  V30 6078 C 593.04 0.122699 5.73269 0
M  V30 6079 N 592.536 0.29366 6.92177 0
M  V30 6080 N 594.329 0.0640787 5.62063 0
M  V30 6081 H 586.48 1.02277 1.86154 0
M  V30 6082 H 588.743 0.4007 0.859153 0
M  V30 6083 H 588.449 0.929279 3.39201 0
M  V30 6084 H 588.323 -0.795899 3.68708 0
M  V30 6085 H 590.71 -1.09349 2.74093 0
M  V30 6086 H 590.791 0.653656 2.47307 0
M  V30 6087 H 590.435 1.03093 4.97327 0
M  V30 6088 H 590.365 -0.732748 5.21477 0
M  V30 6089 H 592.856 -0.123173 3.77699 0
M  V30 6090 H 593.169 0.37389 7.71895 0
M  V30 6091 H 591.514 0.329307 6.94219 0
M  V30 6092 H 594.705 -0.0683396 4.6805 0
M  V30 6093 H 594.878 0.158097 6.47807 0
M  V30 6094 N 588.284 -1.56567 -0.180126 0
M  V30 6095 C 589.53 -1.81761 -0.899497 0
M  V30 6096 C 589.863 -0.670015 -1.82276 0
M  V30 6097 O 589.138 0.328575 -1.91705 0
M  V30 6098 C 589.421 -3.17296 -1.7028 0
M  V30 6099 C 589.274 -4.4257 -0.803255 0
M  V30 6100 C 590.593 -3.49678 -2.67233 0
M  V30 6101 H 587.712 -0.661192 -0.325567 0
M  V30 6102 H 590.354 -1.89272 -0.16612 0
M  V30 6103 H 588.504 -3.11023 -2.32802 0
M  V30 6104 H 590.176 -4.60902 -0.191585 0
M  V30 6105 H 588.419 -4.33658 -0.110796 0
M  V30 6106 H 589.09 -5.33935 -1.40064 0
M  V30 6107 H 591.566 -3.56347 -2.14839 0
M  V30 6108 H 590.442 -4.45605 -3.20511 0
M  V30 6109 H 590.703 -2.73932 -3.47007 0
M  V30 6110 N 589.762 0.448376 -1.51087 0
M  V30 6111 C 591.178 0.783984 -1.39017 0
M  V30 6112 C 591.378 1.96087 -0.463904 0
M  V30 6113 O 590.434 2.52357 0.0850534 0
M  V30 6114 C 591.747 1.07471 -2.80839 0
M  V30 6115 C 593.295 1.17981 -2.89913 0
M  V30 6116 C 593.77 1.50354 -4.32617 0
M  V30 6117 N 595.261 1.57301 -4.35673 0
M  V30 6118 C 595.996 1.839 -5.4311 0
M  V30 6119 N 595.492 2.08365 -6.60724 0
M  V30 6120 N 597.285 1.8559 -5.30578 0
M  V30 6121 H 589.436 -0.326881 -2.0987 0
M  V30 6122 H 591.699 -0.0838006 -0.944289 0
M  V30 6123 H 591.405 0.282768 -3.50561 0
M  V30 6124 H 591.279 2.00519 -3.19487 0
M  V30 6125 H 593.666 1.9624 -2.20395 0
M  V30 6126 H 593.747 0.228603 -2.54776 0
M  V30 6127 H 593.391 0.726273 -5.0268 0
M  V30 6128 H 593.321 2.46663 -4.65258 0
M  V30 6129 H 595.812 1.40342 -3.50874 0
M  V30 6130 H 596.125 2.27999 -7.38401 0
M  V30 6131 H 594.47 2.0571 -6.63859 0
M  V30 6132 H 597.661 1.65989 -4.37682 0
M  V30 6133 H 597.834 2.05983 -6.1439 0
M  V30 6134 N 591.24 1.41047 0.703093 0
M  V30 6135 C 592.489 1.39301 1.4587 0
M  V30 6136 C 592.802 0.00267077 1.956 0
M  V30 6137 O 594.008 -0.137414 2.71152 0
M  V30 6138 C 592.464 2.44891 2.63735 0
M  V30 6139 C 592.072 3.89796 2.20824 0
M  V30 6140 C 593.816 2.5227 3.41409 0
M  V30 6141 C 591.723 4.86955 3.35602 0
M  V30 6142 H 590.653 0.518005 0.547893 0
M  V30 6143 H 593.304 1.66839 0.764009 0
M  V30 6144 H 591.686 2.10472 3.35436 0
M  V30 6145 H 592.86 4.33424 1.56461 0
M  V30 6146 H 591.175 3.86008 1.56163 0
M  V30 6147 H 593.772 3.22044 4.26839 0
M  V30 6148 H 594.115 1.55714 3.86081 0
M  V30 6149 H 594.648 2.85742 2.7676 0
M  V30 6150 H 591.387 5.84888 2.9595 0
M  V30 6151 H 590.907 4.47982 3.98839 0
M  V30 6152 H 592.586 5.07361 4.01489 0
M  V30 6153 N 592.718 -0.936591 1.26751 0
M  V30 6154 C 593.665 -2.03597 1.08706 0
M  V30 6155 C 594.635 -1.66097 -0.00926542 0
M  V30 6156 O 595.82 -1.90199 0.151377 0
M  V30 6157 C 592.96 -3.3727 0.73094 0
M  V30 6158 C 592.073 -3.87778 1.90399 0
M  V30 6159 C 591.208 -5.09859 1.49056 0
M  V30 6160 C 590.247 -5.5264 2.63164 0
M  V30 6161 N 589.384 -6.65921 2.22471 0
M  V30 6162 H 594.224 -2.18364 2.02784 0
M  V30 6163 H 591.761 -1.06985 1.00958 0
M  V30 6164 H 593.719 -4.14128 0.505328 0
M  V30 6165 H 592.349 -3.22337 -0.172868 0
M  V30 6166 H 591.401 -3.07279 2.2424 0
M  V30 6167 H 592.713 -4.15464 2.76028 0
M  V30 6168 H 591.867 -5.9419 1.22567 0
M  V30 6169 H 590.606 -4.8393 0.60524 0
M  V30 6170 H 589.611 -4.66863 2.90377 0
M  V30 6171 H 590.836 -5.80568 3.52303 0
M  V30 6172 H 588.782 -6.41667 1.36379 0
M  V30 6173 H 588.699 -6.93216 3.01641 0
M  V30 6174 H 589.967 -7.53616 1.99205 0
M  V30 6175 N 594.196 -1.08629 -1.14182 0
M  V30 6176 C 595.159 -0.722027 -2.1753 0
M  V30 6177 C 596.159 0.244305 -1.58933 0
M  V30 6178 O 597.349 0.0235545 -1.74184 0
M  V30 6179 C 594.481 -0.0663966 -3.40835 0
M  V30 6180 H 595.674 -1.63719 -2.51269 0
M  V30 6181 H 593.227 -0.884442 -1.28869 0
M  V30 6182 H 593.962 0.860389 -3.12678 0
M  V30 6183 H 593.747 -0.761598 -3.84632 0
M  V30 6184 H 595.237 0.173346 -4.1724 0
M  V30 6185 N 595.674 1.31259 -0.872281 0
M  V30 6186 C 596.604 2.30929 -0.345554 0
M  V30 6187 C 597.585 1.60449 0.5648 0
M  V30 6188 O 598.77 1.8814 0.481335 0
M  V30 6189 C 595.9 3.44348 0.451823 0
M  V30 6190 C 594.854 4.26435 -0.365641 0
M  V30 6191 C 594.18 5.31785 0.557562 0
M  V30 6192 C 595.48 4.97159 -1.60095 0
M  V30 6193 H 597.174 2.75234 -1.17841 0
M  V30 6194 H 594.72 1.3232 -0.568094 0
M  V30 6195 H 596.673 4.13128 0.830854 0
M  V30 6196 H 595.397 2.98816 1.31821 0
M  V30 6197 H 594.056 3.59326 -0.726649 0
M  V30 6198 H 593.704 4.82502 1.4213 0
M  V30 6199 H 593.404 5.87598 0.0144878 0
M  V30 6200 H 594.928 6.03424 0.933387 0
M  V30 6201 H 596.342 5.58523 -1.29323 0
M  V30 6202 H 594.739 5.62779 -2.08327 0
M  V30 6203 H 595.809 4.24012 -2.35249 0
M  V30 6204 N 597.152 0.631951 1.44375 0
M  V30 6205 C 598.062 -0.073674 2.34484 0
M  V30 6206 C 599.078 -0.834825 1.52665 0
M  V30 6207 O 600.254 -0.786902 1.85391 0
M  V30 6208 C 597.319 -1.04247 3.30656 0
M  V30 6209 C 596.38 -0.280602 4.28382 0
M  V30 6210 C 595.613 -1.20325 5.19959 0
M  V30 6211 O 595.836 -2.44199 5.15484 0
M  V30 6212 O 594.77 -0.687128 5.97965 0
M  V30 6213 H 598.596 0.667477 2.96274 0
M  V30 6214 H 596.181 0.392144 1.44162 0
M  V30 6215 H 598.063 -1.59981 3.89851 0
M  V30 6216 H 596.738 -1.76422 2.71398 0
M  V30 6217 H 595.645 0.319804 3.72731 0
M  V30 6218 H 596.978 0.401144 4.90563 0
M  V30 6219 N 598.631 -1.53133 0.372548 0
M  V30 6220 C 599.908 -1.93704 -0.271693 0
M  V30 6221 C 600.288 -1.30667 -1.65799 0
M  V30 6222 O 599.636 -0.46838 -2.23648 0
M  V30 6223 C 599.846 -3.47576 -0.314903 0
M  V30 6224 C 601.194 -4.20998 -0.551912 0
M  V30 6225 O 602.218 -3.53994 -0.39582 0
M  V30 6226 O 601.077 -5.39748 -0.85639 0
M  V30 6227 H 598.171 -0.810457 -0.164586 0
M  V30 6228 H 600.717 -1.6427 0.425838 0
M  V30 6229 H 599.489 -3.85749 0.656792 0
M  V30 6230 H 599.112 -3.83264 -1.05804 0
M  V30 6231 N 600.109 -0.101901 -1.5727 0
M  V30 6232 C 601.386 0.602832 -1.86079 0
M  V30 6233 C 601.766 1.85912 -1 0
M  V30 6234 O 601.114 2.28379 -0.0742488 0
M  V30 6235 C 601.324 0.911694 -3.36881 0
M  V30 6236 C 602.672 1.2722 -4.05093 0
M  V30 6237 O 603.696 1.0025 -3.41802 0
M  V30 6238 O 602.555 1.7776 -5.16782 0
M  V30 6239 H 599.649 0.302366 -0.769743 0
M  V30 6240 H 602.195 -0.135113 -1.69161 0
M  V30 6241 H 600.967 0.0207256 -3.91295 0
M  V30 6242 H 600.59 1.70538 -3.59169 0
M  V30 6243 N 601.587 1.56661 0.17182 0
M  V30 6244 C 602.497 1.99604 1.2327 0
M  V30 6245 C 603.513 0.907333 1.4847 0
M  V30 6246 O 604.689 1.21492 1.60629 0
M  V30 6247 C 601.754 2.34685 2.55194 0
M  V30 6248 C 600.815 3.57381 2.3786 0
M  V30 6249 C 600.048 3.90779 3.63494 0
M  V30 6250 O 600.271 3.25152 4.6865 0
M  V30 6251 O 599.205 4.84129 3.57634 0
M  V30 6252 H 603.031 2.90114 0.898192 0
M  V30 6253 H 600.616 1.44522 0.378647 0
M  V30 6254 H 602.498 2.5822 3.33017 0
M  V30 6255 H 601.173 1.47336 2.88225 0
M  V30 6256 H 600.08 3.39064 1.5807 0
M  V30 6257 H 601.413 4.45268 2.09754 0
M  V30 6258 N 603.065 -0.440357 1.51323 0
M  V30 6259 C 604.476 -1.02032 1.56353 0
M  V30 6260 C 604.827 -1.92382 0.385197 0
M  V30 6261 O 603.952 -2.10583 -0.498373 0
M  V30 6262 C 604.547 -1.85723 2.83359 0
M  V30 6263 C 603.106 -2.38774 2.90971 0
M  V30 6264 C 602.253 -1.17908 2.50984 0
M  V30 6265 H 605.204 -0.221744 1.57143 0
M  V30 6266 H 605.225 -2.71141 2.66951 0
M  V30 6267 H 604.737 -1.19939 3.69102 0
M  V30 6268 H 602.838 -3.08021 2.09651 0
M  V30 6269 H 602.951 -2.71778 3.94555 0
M  V30 6270 H 601.315 -1.52347 2.04114 0
M  V30 6271 H 602.098 -0.537393 3.39068 0
M  V30 6272 N 604.543 -1.41418 -0.695603 0
M  V30 6273 C 605.475 -1.39195 -1.82092 0
M  V30 6274 C 606.488 -0.294132 -1.60121 0
M  V30 6275 O 607.677 -0.555854 -1.69625 0
M  V30 6276 C 604.777 -1.14828 -3.18854 0
M  V30 6277 C 603.95 -2.36649 -3.67853 0
M  V30 6278 C 603.009 -2.08139 -4.83285 0
M  V30 6279 O 602.035 -2.81177 -4.94902 0
M  V30 6280 N 603.237 -1.07162 -5.70523 0
M  V30 6281 H 606.002 -2.36185 -1.84491 0
M  V30 6282 H 603.563 -1.3603 -0.877923 0
M  V30 6283 H 605.555 -0.937075 -3.93702 0
M  V30 6284 H 604.125 -0.264358 -3.1148 0
M  V30 6285 H 603.345 -2.73472 -2.83913 0
M  V30 6286 H 604.633 -3.17816 -3.97329 0
M  V30 6287 H 604.031 -0.467124 -5.63768 0
M  V30 6288 H 602.588 -0.920311 -6.4527 0
M  V30 6289 N 606.021 0.929856 -1.27246 0
M  V30 6290 C 607.432 1.49223 -1.12203 0
M  V30 6291 C 607.783 1.93989 0.293731 0
M  V30 6292 O 606.908 1.80978 1.18642 0
M  V30 6293 C 607.503 2.71198 -2.0307 0
M  V30 6294 C 606.062 3.23666 -1.92139 0
M  V30 6295 C 605.209 1.96409 -1.95752 0
M  V30 6296 H 608.16 0.744181 -1.4017 0
M  V30 6297 H 608.181 3.45905 -1.58524 0
M  V30 6298 H 607.693 2.38585 -3.06102 0
M  V30 6299 H 605.794 3.61042 -0.920834 0
M  V30 6300 H 605.907 3.90006 -2.78267 0
M  V30 6301 H 604.271 2.12806 -1.39949 0
M  V30 6302 H 605.054 1.66113 -3.00436 0
M  V30 6303 N 607.499 1.09233 1.13605 0
M  V30 6304 C 608.409 0.741939 2.22559 0
M  V30 6305 C 609.425 -0.255236 1.72118 0
M  V30 6306 O 610.601 -0.0970747 2.01166 0
M  V30 6307 C 607.666 0.165595 3.46304 0
M  V30 6308 C 606.727 1.21846 4.11645 0
M  V30 6309 C 605.96 0.669526 5.29484 0
M  V30 6310 O 606.183 -0.508228 5.68131 0
M  V30 6311 O 605.117 1.42361 5.84822 0
M  V30 6312 H 608.943 1.65107 2.54899 0
M  V30 6313 H 606.528 0.866584 1.21699 0
M  V30 6314 H 608.41 -0.152592 4.21124 0
M  V30 6315 H 607.085 -0.716573 3.15669 0
M  V30 6316 H 605.992 1.58931 3.38662 0
M  V30 6317 H 607.325 2.07321 4.46407 0
M  V30 6318 N 608.977 -1.30795 0.87923 0
M  V30 6319 C 610.223 -1.96653 0.495519 0
M  V30 6320 C 610.556 -1.69282 -0.951703 0
M  V30 6321 O 609.831 -0.994374 -1.6716 0
M  V30 6322 C 610.114 -3.51898 0.764174 0
M  V30 6323 C 609.967 -3.88808 2.2616 0
M  V30 6324 C 611.286 -4.39462 0.236825 0
M  V30 6325 H 608.405 -0.7143 0.181507 0
M  V30 6326 H 611.047 -1.54765 1.10217 0
M  V30 6327 H 609.197 -3.87709 0.247841 0
M  V30 6328 H 610.869 -3.63051 2.8459 0
M  V30 6329 H 609.112 -3.37082 2.73053 0
M  V30 6330 H 609.783 -4.97086 2.4002 0
M  V30 6331 H 612.259 -4.10528 0.678683 0
M  V30 6332 H 611.135 -5.47018 0.454176 0
M  V30 6333 H 611.396 -4.33621 -0.861683 0
M  V30 6334 N 610.455 -0.639598 -1.44038 0
M  V30 6335 C 611.68 -0.153117 -2.06834 0
M  V30 6336 C 612.105 1.16676 -1.47541 0
M  V30 6337 O 611.463 1.71769 -0.580093 0
M  V30 6338 C 611.511 -0.0609169 -3.60549 0
M  V30 6339 O 610.615 0.98071 -4.00569 0
M  V30 6340 H 609.956 -0.0886402 -0.658057 0
M  V30 6341 H 612.486 -0.878674 -1.84771 0
M  V30 6342 H 612.496 0.126892 -4.07803 0
M  V30 6343 H 611.171 -1.0245 -4.03084 0
M  V30 6344 H 609.748 0.766789 -3.64931 0
M  V30 6345 N 611.933 1.52934 -0.380664 0
M  V30 6346 C 612.863 2.29118 0.450268 0
M  V30 6347 C 613.844 1.32153 1.07096 0
M  V30 6348 O 615.029 1.61038 1.08537 0
M  V30 6349 C 612.159 3.09161 1.58231 0
M  V30 6350 C 611.113 4.13938 1.0881 0
M  V30 6351 C 610.439 4.82153 2.31155 0
M  V30 6352 C 611.739 5.22048 0.162146 0
M  V30 6353 H 613.433 2.98826 -0.185361 0
M  V30 6354 H 610.979 1.43715 -0.0905886 0
M  V30 6355 H 612.932 3.61211 2.17036 0
M  V30 6356 H 611.656 2.3717 2.2454 0
M  V30 6357 H 610.315 3.62855 0.522633 0
M  V30 6358 H 609.963 4.06719 2.95953 0
M  V30 6359 H 609.663 5.52966 1.98752 0
M  V30 6360 H 611.187 5.37004 2.90618 0
M  V30 6361 H 612.601 5.6951 0.658126 0
M  V30 6362 H 610.998 6.00057 -0.0717122 0
M  V30 6363 H 612.068 4.78398 -0.791438 0
M  V30 6364 N 613.412 0.11024 1.57214 0
M  V30 6365 C 614.322 -0.857077 2.18383 0
M  V30 6366 C 615.338 -1.29915 1.1575 0
M  V30 6367 O 616.514 -1.36394 1.48184 0
M  V30 6368 C 613.579 -2.09264 2.76423 0
M  V30 6369 C 612.64 -1.70333 3.94063 0
M  V30 6370 C 611.873 -2.87999 4.49324 0
M  V30 6371 O 612.096 -4.0317 4.03497 0
M  V30 6372 O 611.03 -2.6559 5.40135 0
M  V30 6373 H 614.856 -0.366561 3.0148 0
M  V30 6374 H 612.441 -0.114914 1.48957 0
M  V30 6375 H 614.323 -2.81644 3.13456 0
M  V30 6376 H 612.998 -2.57339 1.96363 0
M  V30 6377 H 611.905 -0.950864 3.61814 0
M  V30 6378 H 613.238 -1.27007 4.75531 0
M  V30 6379 N 614.89 -1.56749 -0.16351 0
M  V30 6380 C 616.136 -1.82704 -0.880168 0
M  V30 6381 C 616.469 -0.689311 -1.81555 0
M  V30 6382 O 615.744 0.308224 -1.92042 0
M  V30 6383 C 616.027 -3.19084 -1.66905 0
M  V30 6384 C 615.88 -4.43397 -0.756269 0
M  V30 6385 C 617.199 -3.52493 -2.63509 0
M  V30 6386 H 614.318 -0.664608 -0.318535 0
M  V30 6387 H 616.96 -1.89438 -0.146036 0
M  V30 6388 H 615.11 -3.13475 -2.2949 0
M  V30 6389 H 616.782 -4.61079 -0.14269 0
M  V30 6390 H 615.025 -4.33752 -0.0647944 0
M  V30 6391 H 615.696 -5.3539 -1.34393 0
M  V30 6392 H 618.172 -3.58606 -2.11047 0
M  V30 6393 H 617.048 -4.48979 -3.15767 0
M  V30 6394 H 617.309 -2.77597 -3.44082 0
M  V30 6395 N 616.368 0.432326 -1.51554 0
M  V30 6396 C 617.331 1.50765 -1.72634 0
M  V30 6397 C 618.331 1.49334 -0.596314 0
M  V30 6398 O 619.521 1.51268 -0.863925 0
M  V30 6399 C 616.653 2.90284 -1.7874 0
M  V30 6400 H 617.846 1.33377 -2.68609 0
M  V30 6401 H 615.399 0.661329 -1.4162 0
M  V30 6402 H 616.134 3.13071 -0.845977 0
M  V30 6403 H 615.919 2.92727 -2.6087 0
M  V30 6404 H 617.409 3.68282 -1.96871 0
M  V30 6405 N 617.846 1.41785 0.688094 0
M  V30 6406 C 619.071 1.45117 1.48175 0
M  V30 6407 C 619.496 0.060129 1.88004 0
M  V30 6408 O 618.854 -0.938385 1.55126 0
M  V30 6409 C 618.902 2.37224 2.71583 0
M  V30 6410 O 618.006 1.83443 3.69354 0
M  V30 6411 H 617.347 0.492208 0.445676 0
M  V30 6412 H 619.877 1.86329 0.845145 0
M  V30 6413 H 619.887 2.53353 3.19806 0
M  V30 6414 H 618.562 3.38293 2.41931 0
M  V30 6415 H 617.139 1.76802 3.28322 0
M  V30 6416 N 619.324 -0.923095 1.27737 0
M  V30 6417 C 620.601 -1.64989 1.05062 0
M  V30 6418 C 620.981 -2.07018 -0.413124 0
M  V30 6419 O 620.329 -1.80797 -1.39731 0
M  V30 6420 C 620.539 -2.84847 2.01652 0
M  V30 6421 C 621.887 -3.56083 2.31279 0
M  V30 6422 O 622.911 -2.94981 1.99662 0
M  V30 6423 O 621.77 -4.66182 2.85196 0
M  V30 6424 H 618.864 -0.723357 0.400853 0
M  V30 6425 H 621.41 -0.973224 1.3902 0
M  V30 6426 H 620.182 -2.50814 3.00347 0
M  V30 6427 H 619.805 -3.60231 1.68284 0
M  V30 6428 N 620.802 -1.09834 -1.13024 0
M  V30 6429 C 621.75 -0.736283 -2.20639 0
M  V30 6430 C 622.744 0.264725 -1.67319 0
M  V30 6431 O 623.95 0.125745 -1.7956 0
M  V30 6432 H 620.325 -0.220136 -0.719058 0
M  V30 6433 H 622.296 -1.65295 -2.48436 0
M  V30 6434 C 621.045 -0.177544 -3.47246 0
M  V30 6435 H 620.368 -0.939009 -3.88616 0
M  V30 6436 H 621.808 0.0378007 -4.23983 0
M  V30 6437 C 620.267 1.08824 -3.1884 0
M  V30 6438 O 620.797 2.1708 -3.37993 0
M  V30 6439 N 619.003 1.00442 -2.7269 0
M  V30 6440 H 618.55 0.123383 -2.57304 0
M  V30 6441 H 618.508 1.85206 -2.5406 0
M  V30 6442 N 622.28 1.30327 -0.886154 0
M  V30 6443 C 623.528 1.9571 -0.504195 0
M  V30 6444 C 623.849 1.70294 0.950003 0
M  V30 6445 O 623.119 1.02718 1.66811 0
M  V30 6446 H 621.699 0.72412 -0.183465 0
M  V30 6447 H 624.361 1.58835 -1.12949 0
M  V30 6448 H 623.457 3.04704 -0.675431 0
M  V30 6449 N 623.758 0.647228 1.43697 0
M  V30 6450 C 625.004 0.158422 2.0218 0
M  V30 6451 C 625.337 -1.22233 1.50907 0
M  V30 6452 O 624.612 -1.81478 0.699702 0
M  V30 6453 C 624.895 0.1627 3.59732 0
M  V30 6454 C 624.748 1.57694 4.21251 0
M  V30 6455 C 626.067 -0.504138 4.37203 0
M  V30 6456 H 623.186 0.059042 0.734631 0
M  V30 6457 H 625.828 0.826772 1.71069 0
M  V30 6458 H 623.978 -0.406414 3.86368 0
M  V30 6459 H 625.65 2.19618 4.05667 0
M  V30 6460 H 623.893 2.12603 3.7813 0
M  V30 6461 H 624.564 1.53183 5.3032 0
M  V30 6462 H 627.04 -0.0199841 4.16095 0
M  V30 6463 H 625.916 -0.470394 5.46881 0
M  V30 6464 H 626.177 -1.57726 4.13007 0
M  V30 6465 N 625.236 -1.5273 0.388769 0
M  V30 6466 C 626.146 -2.30165 -0.453993 0
M  V30 6467 C 627.162 -1.37058 -1.07197 0
M  V30 6468 O 628.338 -1.70127 -1.0779 0
M  V30 6469 C 625.403 -3.09303 -1.56628 0
M  V30 6470 C 624.464 -4.18117 -0.973467 0
M  V30 6471 C 623.697 -4.93472 -2.03275 0
M  V30 6472 O 623.92 -4.68913 -3.24772 0
M  V30 6473 O 622.854 -5.78833 -1.65034 0
M  V30 6474 H 626.68 -3.03185 0.176816 0
M  V30 6475 H 624.265 -1.4862 0.152501 0
M  V30 6476 H 626.147 -3.58648 -2.21246 0
M  V30 6477 H 624.822 -2.39098 -2.18206 0
M  V30 6478 H 623.729 -3.7297 -0.290556 0
M  V30 6479 H 625.062 -4.90556 -0.401908 0
M  V30 6480 N 626.714 -0.118576 -1.57153 0
M  V30 6481 C 627.661 0.831789 -2.1529 0
M  V30 6482 C 628.631 1.26385 -1.07778 0
M  V30 6483 O 629.816 1.34144 -1.35684 0
M  V30 6484 C 626.956 2.07664 -2.75626 0
M  V30 6485 C 626.069 1.69298 -3.97444 0
M  V30 6486 C 625.204 2.88747 -4.45868 0
M  V30 6487 C 624.243 2.46619 -5.60219 0
M  V30 6488 N 623.38 3.5898 -6.03389 0
M  V30 6489 H 628.22 0.329183 -2.96176 0
M  V30 6490 H 625.757 0.150792 -1.46325 0
M  V30 6491 H 627.715 2.80601 -3.08738 0
M  V30 6492 H 626.345 2.55384 -1.97431 0
M  V30 6493 H 625.397 0.862374 -3.70496 0
M  V30 6494 H 626.709 1.34338 -4.80369 0
M  V30 6495 H 625.863 3.69909 -4.80887 0
M  V30 6496 H 624.602 3.26933 -3.61892 0
M  V30 6497 H 623.607 1.63889 -5.24805 0
M  V30 6498 H 624.832 2.0955 -6.45961 0
M  V30 6499 H 622.778 3.9684 -5.22354 0
M  V30 6500 H 622.695 3.27942 -6.81168 0
M  V30 6501 H 623.963 4.40583 -6.43045 0
M  V30 6502 N 628.193 1.56834 0.155195 0
M  V30 6503 C 629.441 1.82536 0.867462 0
M  V30 6504 C 629.762 0.698168 1.82073 0
M  V30 6505 O 629.032 -0.280807 1.93877 0
M  V30 6506 H 627.612 0.673401 0.323327 0
M  V30 6507 H 630.274 1.94313 0.151156 0
M  V30 6508 H 629.37 2.77171 1.43466 0
M  V30 6509 N 629.671 -0.424282 1.51781 0
M  V30 6510 C 630.919 -1.17028 1.64769 0
M  V30 6511 C 631.24 -1.91409 0.372523 0
M  V30 6512 O 630.51 -1.86091 -0.612108 0
M  V30 6513 H 629.09 -0.434992 0.607282 0
M  V30 6514 H 631.752 -0.485169 1.88765 0
M  V30 6515 H 630.848 -1.8927 2.4816 0
M  V30 6516 N 631.149 -1.42148 -0.680565 0
M  V30 6517 C 632.374 -1.45901 -1.47403 0
M  V30 6518 C 632.799 -0.0700985 -1.87969 0
M  V30 6519 O 632.157 0.930145 -1.55621 0
M  V30 6520 C 632.205 -2.38661 -2.70321 0
M  V30 6521 O 631.309 -1.85399 -3.68376 0
M  V30 6522 H 630.65 -0.494565 -0.443059 0
M  V30 6523 H 633.18 -1.86774 -0.835251 0
M  V30 6524 H 633.19 -2.55046 -3.18458 0
M  V30 6525 H 631.865 -3.39571 -2.40134 0
M  V30 6526 H 630.442 -1.78541 -3.2738 0
M  V30 6527 N 632.627 0.916307 -1.28225 0
M  V30 6528 C 633.875 1.6619 -1.15002 0
M  V30 6529 C 634.196 1.92642 0.302329 0
M  V30 6530 O 633.466 1.54076 1.20985 0
M  V30 6531 H 632.046 0.615964 -0.422608 0
M  V30 6532 H 634.708 1.09963 -1.60917 0
M  V30 6533 H 633.804 2.62533 -1.68769 0
M  V30 6534 N 634.105 1.10431 1.1244 0
M  V30 6535 C 635.015 0.765502 2.21759 0
M  V30 6536 C 636.031 -0.236966 1.72379 0
M  V30 6537 O 637.207 -0.0757329 2.01258 0
M  V30 6538 C 634.272 0.202316 3.46109 0
M  V30 6539 C 633.333 1.26205 4.1033 0
M  V30 6540 C 632.566 0.725648 5.28744 0
M  V30 6541 O 632.789 -0.447942 5.68638 0
M  V30 6542 O 631.723 1.48555 5.83279 0
M  V30 6543 H 635.549 1.67801 2.53133 0
M  V30 6544 H 633.134 0.879443 1.20773 0
M  V30 6545 H 635.016 -0.107918 4.21262 0
M  V30 6546 H 633.691 -0.683052 3.16411 0
M  V30 6547 H 632.598 1.62514 3.36957 0
M  V30 6548 H 633.931 2.12044 4.44183 0
M  V30 6549 N 635.583 -1.29855 0.893053 0
M  V30 6550 C 636.831 -1.9544 0.514566 0
M  V30 6551 C 637.152 -1.70795 -0.940959 0
M  V30 6552 O 636.422 -1.03601 -1.66264 0
M  V30 6553 H 635.002 -0.723137 0.187302 0
M  V30 6554 H 637.664 -1.58234 1.13789 0
M  V30 6555 H 636.76 -3.04341 0.691581 0
M  V30 6556 N 637.061 -0.65484 -1.43351 0
M  V30 6557 C 638.309 -0.168559 -2.01396 0
M  V30 6558 C 638.63 1.22235 -1.51933 0
M  V30 6559 O 637.9 1.81685 -0.732627 0
M  V30 6560 H 636.48 -0.0593244 -0.744641 0
M  V30 6561 H 639.142 -0.846871 -1.75539 0
M  V30 6562 H 638.238 -0.154428 -3.11718 0
M  V30 6563 N 638.539 1.52521 -0.396863 0
M  V30 6564 C 639.787 2.01274 0.182536 0
M  V30 6565 C 640.108 1.28485 1.46685 0
M  V30 6566 O 639.378 0.407134 1.91623 0
M  V30 6567 H 637.958 0.743671 0.0704442 0
M  V30 6568 H 640.62 1.87547 -0.530289 0
M  V30 6569 H 639.716 3.09687 0.387385 0
M  V30 6570 N 640.017 0.126909 1.57088 0
M  V30 6571 C 640.927 -0.833867 2.1928 0
M  V30 6572 C 641.943 -1.2868 1.17122 0
M  V30 6573 O 643.119 -1.34815 1.49622 0
M  V30 6574 C 640.184 -2.0632 2.78627 0
M  V30 6575 C 639.245 -1.66143 3.95847 0
M  V30 6576 C 638.478 -2.83217 4.52354 0
M  V30 6577 O 638.701 -3.98868 4.0775 0
M  V30 6578 O 637.635 -2.59846 5.42922 0
M  V30 6579 H 641.461 -0.334564 3.01852 0
M  V30 6580 H 639.046 -0.0991091 1.49071 0
M  V30 6581 H 640.928 -2.78304 3.16425 0
M  V30 6582 H 639.603 -2.55242 1.99082 0
M  V30 6583 H 638.51 -0.912435 3.62802 0
M  V30 6584 H 639.843 -1.21957 4.76852 0
M  V30 6585 N 641.495 -1.56914 -0.146875 0
M  V30 6586 C 642.405 -2.0154 -1.20079 0
M  V30 6587 C 643.421 -0.930838 -1.47008 0
M  V30 6588 O 644.597 -1.24032 -1.58676 0
M  V30 6589 C 641.662 -2.38715 -2.51428 0
M  V30 6590 C 640.723 -3.6112 -2.32145 0
M  V30 6591 C 639.956 -3.96512 -3.57231 0
M  V30 6592 O 640.179 -3.32566 -4.63418 0
M  V30 6593 O 639.113 -4.89758 -3.49887 0
M  V30 6594 H 642.939 -2.91506 -0.851924 0
M  V30 6595 H 640.524 -1.45106 -0.355607 0
M  V30 6596 H 642.406 -2.63485 -3.28867 0
M  V30 6597 H 641.081 -1.51903 -2.85845 0
M  V30 6598 H 639.988 -3.41536 -1.52656 0
M  V30 6599 H 641.321 -4.48549 -2.02644 0
M  V30 6600 N 642.974 0.416227 -1.52004 0
M  V30 6601 C 643.937 1.48926 -1.74223 0
M  V30 6602 C 644.937 1.48693 -0.612119 0
M  V30 6603 O 646.127 1.50343 -0.879921 0
M  V30 6604 C 643.259 2.88372 -1.81809 0
M  V30 6605 H 644.452 1.3052 -2.70008 0
M  V30 6606 H 642.005 0.646271 -1.42313 0
M  V30 6607 H 642.74 3.12157 -0.879135 0
M  V30 6608 H 642.525 2.89944 -2.6396 0
M  V30 6609 H 644.015 3.66173 -2.00766 0
M  V30 6610 N 644.452 1.42507 0.673017 0
M  V30 6611 C 645.863 1.38347 1.25367 0
M  V30 6612 C 646.214 0.0776327 1.96046 0
M  V30 6613 O 645.339 -0.823571 2.00116 0
M  V30 6614 C 645.934 2.506 2.28002 0
M  V30 6615 C 644.493 2.49767 2.81591 0
M  V30 6616 C 643.64 2.293 1.55938 0
M  V30 6617 H 646.591 1.51695 0.466288 0
M  V30 6618 H 646.612 2.20953 3.09774 0
M  V30 6619 H 646.124 3.45627 1.76532 0
M  V30 6620 H 644.225 1.58563 3.37177 0
M  V30 6621 H 644.338 3.46867 3.30485 0
M  V30 6622 H 642.702 1.77594 1.82572 0
M  V30 6623 H 643.485 3.26385 1.06431 0
M  V30 6624 N 645.93 -0.909495 1.28709 0
M  V30 6625 C 646.86 -2.0291 1.15542 0
M  V30 6626 C 647.841 -1.7002 0.0521017 0
M  V30 6627 O 649.026 -1.92835 0.229849 0
M  V30 6628 C 646.156 -3.37458 0.820935 0
M  V30 6629 C 645.11 -3.84524 1.87949 0
M  V30 6630 C 644.436 -5.16086 1.39854 0
M  V30 6631 C 645.736 -4.05918 3.28676 0
M  V30 6632 H 647.43 -2.14183 2.09203 0
M  V30 6633 H 644.976 -1.02913 1.00722 0
M  V30 6634 H 646.929 -4.1528 0.715571 0
M  V30 6635 H 645.653 -3.26249 -0.151374 0
M  V30 6636 H 644.312 -3.08911 1.97408 0
M  V30 6637 H 643.96 -5.01284 0.41518 0
M  V30 6638 H 643.66 -5.48547 2.1064 0
M  V30 6639 H 645.184 -5.96459 1.30649 0
M  V30 6640 H 646.598 -4.74252 3.22115 0
M  V30 6641 H 644.995 -4.49717 3.97334 0
M  V30 6642 H 646.065 -3.10583 3.72379 0
M  V30 6643 N 647.408 -1.11026 -1.11852 0
M  V30 6644 C 648.633 -0.879064 -1.87849 0
M  V30 6645 C 649.058 0.565406 -1.79401 0
M  V30 6646 O 648.416 1.39886 -1.15333 0
M  V30 6647 C 648.464 -1.33985 -3.34784 0
M  V30 6648 O 647.568 -0.508803 -4.09249 0
M  V30 6649 H 646.909 -0.316992 -0.583448 0
M  V30 6650 H 649.439 -1.47863 -1.41413 0
M  V30 6651 H 649.449 -1.33248 -3.85628 0
M  V30 6652 H 648.124 -2.39172 -3.40249 0
M  V30 6653 H 646.701 -0.581913 -3.68332 0
M  V30 6654 N 648.886 1.2938 -0.899927 0
M  V30 6655 C 650.114 1.99691 -0.541386 0
M  V30 6656 C 650.529 1.67355 0.873936 0
M  V30 6657 O 649.886 0.918728 1.57688 0
M  V30 6658 C 649.937 3.54168 -0.72438 0
M  V30 6659 O 649.658 3.85359 -2.08399 0
M  V30 6660 C 651.159 4.41746 -0.370819 0
M  V30 6661 H 648.379 0.638037 -0.207726 0
M  V30 6662 H 650.923 1.6491 -1.20934 0
M  V30 6663 H 649.078 3.87261 -0.103607 0
M  V30 6664 H 649.492 4.80032 -2.11352 0
M  V30 6665 H 650.966 5.49256 -0.549693 0
M  V30 6666 H 651.443 4.33712 0.692148 0
M  V30 6667 H 652.049 4.14125 -0.968543 0
M  V30 6668 N 650.364 0.662433 1.43002 0
M  V30 6669 C 651.604 0.183312 2.03576 0
M  V30 6670 C 651.968 -1.18354 1.51183 0
M  V30 6671 O 653.169 -1.7566 2.03462 0
M  V30 6672 C 651.44 0.202908 3.56824 0
M  V30 6673 S 652.999 -0.20702 4.38311 0
M  V30 6674 H 649.817 0.0765001 0.706872 0
M  V30 6675 H 652.419 0.872827 1.74934 0
M  V30 6676 H 651.123 1.20028 3.92456 0
M  V30 6677 H 650.654 -0.506845 3.90121 0
M  V30 6678 H 652.669 -1.44358 4.74737 0
M  V30 6679 N 651.842 -1.52309 0.404946 0
M  V30 6680 C 653.258 -1.59503 0.0556255 0
M  V30 6681 C 653.458 -1.41805 -1.43156 0
M  V30 6682 O 652.514 -1.2429 -2.19792 0
M  V30 6683 C 653.827 -2.95687 0.546801 0
M  V30 6684 C 655.375 -3.08909 0.504413 0
M  V30 6685 C 655.85 -4.47566 0.97203 0
M  V30 6686 N 657.341 -4.53795 0.928679 0
M  V30 6687 C 658.076 -5.59346 1.26174 0
M  V30 6688 N 657.572 -6.72469 1.66604 0
M  V30 6689 N 659.365 -5.49532 1.18198 0
M  V30 6690 H 651.516 -1.6206 1.37296 0
M  V30 6691 H 653.779 -0.762161 0.563751 0
M  V30 6692 H 653.485 -3.13905 1.58609 0
M  V30 6693 H 653.359 -3.77172 -0.0457905 0
M  V30 6694 H 655.746 -2.90378 -0.525819 0
M  V30 6695 H 655.827 -2.2934 1.13301 0
M  V30 6696 H 655.471 -4.6684 2.00057 0
M  V30 6697 H 655.401 -5.25625 0.320292 0
M  V30 6698 H 657.892 -3.72588 0.631369 0
M  V30 6699 H 658.205 -7.48993 1.9034 0
M  V30 6700 H 656.55 -6.73761 1.70504 0
M  V30 6701 H 659.741 -4.60038 0.865011 0
M  V30 6702 H 659.914 -6.31687 1.44485 0
M  V30 6703 N 653.32 -0.135238 -1.57019 0
M  V30 6704 C 654.267 0.808908 -2.1616 0
M  V30 6705 C 655.237 1.25234 -1.09113 0
M  V30 6706 O 656.422 1.32697 -1.37099 0
M  V30 6707 C 653.562 2.04729 -2.77813 0
M  V30 6708 C 652.675 1.65074 -3.99218 0
M  V30 6709 C 651.81 2.84002 -4.48906 0
M  V30 6710 C 650.849 2.40663 -5.62803 0
M  V30 6711 N 649.986 3.5256 -6.07162 0
M  V30 6712 H 654.826 0.297751 -2.96509 0
M  V30 6713 H 652.363 0.135264 -1.46477 0
M  V30 6714 H 654.321 2.7731 -3.11697 0
M  V30 6715 H 652.951 2.53275 -2.00128 0
M  V30 6716 H 652.003 0.823029 -3.7139 0
M  V30 6717 H 653.315 1.29236 -4.81767 0
M  V30 6718 H 652.469 3.64788 -4.84783 0
M  V30 6719 H 651.208 3.23076 -3.65339 0
M  V30 6720 H 650.213 1.58314 -5.26514 0
M  V30 6721 H 651.438 2.02687 -6.48147 0
M  V30 6722 H 649.384 3.91278 -5.26534 0
M  V30 6723 H 649.301 3.20699 -6.84608 0
M  V30 6724 H 650.569 4.33738 -6.47682 0
M  V30 6725 N 654.798 1.5699 0.138552 0
M  V30 6726 C 655.728 2.01933 1.17241 0
M  V30 6727 C 656.709 0.90033 1.44319 0
M  V30 6728 O 657.894 1.16872 1.55095 0
M  V30 6729 C 655.024 2.40711 2.50351 0
M  V30 6730 C 653.978 3.55874 2.37776 0
M  V30 6731 C 653.304 3.80491 3.75674 0
M  V30 6732 C 654.604 4.8826 1.85472 0
M  V30 6733 H 656.298 2.88551 0.798672 0
M  V30 6734 H 653.844 1.3882 0.382743 0
M  V30 6735 H 655.797 2.70754 3.22909 0
M  V30 6736 H 654.521 1.5104 2.89576 0
M  V30 6737 H 653.18 3.2601 1.67669 0
M  V30 6738 H 652.828 2.88057 4.12349 0
M  V30 6739 H 652.528 4.57998 3.68119 0
M  V30 6740 H 654.052 4.12967 4.49767 0
M  V30 6741 H 655.466 5.16965 2.4783 0
M  V30 6742 H 653.863 5.69631 1.88787 0
M  V30 6743 H 654.933 4.78071 0.810935 0
M  V30 6744 N 656.276 -0.40816 1.52223 0
M  V30 6745 C 657.524 -1.15274 1.66001 0
M  V30 6746 C 657.845 -1.91003 0.392803 0
M  V30 6747 O 657.115 -1.8673 -0.592336 0
M  V30 6748 H 655.695 -0.428526 0.611861 0
M  V30 6749 H 658.357 -0.46512 1.89269 0
M  V30 6750 H 657.453 -1.86628 2.50153 0
M  V30 6751 N 657.755 -1.42862 -0.66545 0
M  V30 6752 C 658.685 -1.49867 -1.79059 0
M  V30 6753 C 659.666 -0.354394 -1.66367 0
M  V30 6754 O 660.851 -0.569969 -1.85647 0
M  V30 6755 C 657.981 -1.40943 -3.17415 0
M  V30 6756 C 656.935 -2.53495 -3.44854 0
M  V30 6757 C 656.261 -2.29626 -4.82883 0
M  V30 6758 C 657.561 -3.95781 -3.40815 0
M  V30 6759 H 659.255 -2.44037 -1.73453 0
M  V30 6760 H 656.801 -1.17456 -0.833071 0
M  V30 6761 H 658.754 -1.4445 -3.95869 0
M  V30 6762 H 657.478 -0.432716 -3.23721 0
M  V30 6763 H 656.137 -2.4932 -2.68766 0
M  V30 6764 H 655.785 -1.30226 -4.8585 0
M  V30 6765 H 655.485 -3.05065 -5.02204 0
M  V30 6766 H 657.009 -2.34897 -5.63609 0
M  V30 6767 H 658.423 -4.01508 -4.09224 0
M  V30 6768 H 656.82 -4.71148 -3.71672 0
M  V30 6769 H 657.89 -4.21786 -2.39216 0
M  V30 6770 N 659.233 0.902656 -1.29189 0
M  V30 6771 C 660.163 2.02294 -1.16616 0
M  V30 6772 C 661.144 1.6999 -0.0611175 0
M  V30 6773 O 662.329 1.9271 -0.240072 0
M  V30 6774 C 659.459 3.37018 -0.83882 0
M  V30 6775 C 658.413 3.83522 -1.89986 0
M  V30 6776 C 657.739 5.15337 -1.42589 0
M  V30 6777 C 659.039 4.04169 -3.30824 0
M  V30 6778 H 660.733 2.13071 -2.10336 0
M  V30 6779 H 658.279 1.02378 -1.01266 0
M  V30 6780 H 660.232 4.14895 -0.737584 0
M  V30 6781 H 658.956 3.26325 0.134071 0
M  V30 6782 H 657.615 3.07859 -1.99043 0
M  V30 6783 H 657.263 5.01056 -0.441759 0
M  V30 6784 H 656.963 5.47423 -2.13547 0
M  V30 6785 H 658.487 5.95758 -1.3381 0
M  V30 6786 H 659.901 4.72537 -3.24626 0
M  V30 6787 H 658.298 4.47604 -3.99713 0
M  V30 6788 H 659.368 3.08604 -3.74021 0
M  V30 6789 N 660.711 1.11618 1.11262 0
M  V30 6790 C 661.641 0.79846 2.19424 0
M  V30 6791 C 662.622 -0.234003 1.68483 0
M  V30 6792 O 663.807 -0.0970704 1.93957 0
M  V30 6793 C 660.937 0.242892 3.4645 0
M  V30 6794 C 659.891 1.20744 4.10615 0
M  V30 6795 C 659.217 0.512494 5.32238 0
M  V30 6796 C 660.517 2.55884 4.55325 0
M  V30 6797 H 662.211 1.70286 2.46258 0
M  V30 6798 H 659.757 0.820195 1.18359 0
M  V30 6799 H 661.71 0.00840447 4.21399 0
M  V30 6800 H 660.434 -0.696811 3.1908 0
M  V30 6801 H 659.093 1.42759 3.37662 0
M  V30 6802 H 658.741 -0.432075 5.01141 0
M  V30 6803 H 658.441 1.15583 5.7612 0
M  V30 6804 H 659.965 0.286842 6.09926 0
M  V30 6805 H 661.379 2.37946 5.21588 0
M  V30 6806 H 659.776 3.16216 5.10027 0
M  V30 6807 H 660.846 3.14968 3.68678 0
M  V30 6808 N 662.189 -1.289 0.906776 0
M  V30 6809 C 663.136 -2.2751 0.388313 0
M  V30 6810 C 664.106 -1.57301 -0.533439 0
M  V30 6811 O 665.291 -1.85243 -0.457148 0
M  V30 6812 C 662.431 -3.43091 -0.37181 0
M  V30 6813 C 661.544 -4.28066 0.581647 0
M  V30 6814 C 660.679 -5.30837 -0.19623 0
M  V30 6815 C 659.718 -6.07472 0.751294 0
M  V30 6816 N 658.855 -7.021 0.00737727 0
M  V30 6817 H 663.695 -2.71237 1.23428 0
M  V30 6818 H 661.232 -1.33397 0.619962 0
M  V30 6819 H 663.19 -4.08888 -0.828641 0
M  V30 6820 H 661.82 -3.00374 -1.18218 0
M  V30 6821 H 660.872 -3.62378 1.157 0
M  V30 6822 H 662.184 -4.81382 1.30665 0
M  V30 6823 H 661.338 -6.02485 -0.71394 0
M  V30 6824 H 660.077 -4.78272 -0.954324 0
M  V30 6825 H 659.082 -5.34682 1.28044 0
M  V30 6826 H 660.307 -6.62126 1.50883 0
M  V30 6827 H 658.253 -6.51894 -0.732854 0
M  V30 6828 H 658.17 -7.53004 0.672334 0
M  V30 6829 H 659.438 -7.77956 -0.490365 0
M  V30 6830 N 663.667 -0.670007 -1.42649 0
M  V30 6831 C 664.897 -0.198252 -2.05647 0
M  V30 6832 C 665.305 1.14786 -1.50402 0
M  V30 6833 O 664.648 1.72316 -0.636634 0
M  V30 6834 C 664.71 -0.0507132 -3.59464 0
M  V30 6835 C 664.374 -1.32478 -4.37377 0
M  V30 6836 C 665.371 -2.2572 -4.68344 0
M  V30 6837 C 663.056 -1.57104 -4.77099 0
M  V30 6838 C 665.05 -3.4187 -5.37963 0
M  V30 6839 C 662.737 -2.73543 -5.46459 0
M  V30 6840 C 663.735 -3.65751 -5.76815 0
M  V30 6841 O 663.423 -4.80154 -6.44753 0
M  V30 6842 H 663.155 -0.0950721 -0.669281 0
M  V30 6843 H 665.709 -0.915745 -1.83857 0
M  V30 6844 H 663.939 0.722314 -3.79894 0
M  V30 6845 H 665.628 0.380552 -4.04112 0
M  V30 6846 H 666.394 -2.07943 -4.38161 0
M  V30 6847 H 662.273 -0.862069 -4.52868 0
M  V30 6848 H 665.817 -4.13861 -5.61574 0
M  V30 6849 H 661.714 -2.91248 -5.7606 0
M  V30 6850 H 662.482 -4.79637 -6.63243 0
M  V30 6851 N 665.145 1.52092 -0.413018 0
M  V30 6852 C 666.394 2.01041 0.16287 0
M  V30 6853 C 666.707 1.30288 1.45892 0
M  V30 6854 O 667.913 1.70075 2.11629 0
M  V30 6855 C 666.369 3.58283 0.340806 0
M  V30 6856 C 665.977 4.37955 -0.943377 0
M  V30 6857 C 667.721 4.15452 0.871774 0
M  V30 6858 C 665.628 5.86847 -0.732417 0
M  V30 6859 H 664.558 0.751224 0.0646414 0
M  V30 6860 H 667.209 1.75404 -0.539059 0
M  V30 6861 H 665.591 3.80266 1.10516 0
M  V30 6862 H 666.765 4.2773 -1.71418 0
M  V30 6863 H 665.08 3.92122 -1.40105 0
M  V30 6864 H 667.677 5.24375 1.0457 0
M  V30 6865 H 668.02 3.73057 1.84755 0
M  V30 6866 H 668.553 3.97452 0.166377 0
M  V30 6867 H 665.292 6.33609 -1.67986 0
M  V30 6868 H 664.812 5.998 -0.000980058 0
M  V30 6869 H 666.491 6.45906 -0.376105 0
M  V30 6870 N 666.623 0.143563 1.56945 0
M  V30 6871 C 667.553 -0.7936 2.196 0
M  V30 6872 C 668.534 -1.25955 1.14321 0
M  V30 6873 O 669.719 -1.31773 1.42651 0
M  V30 6874 C 666.849 -2.03424 2.81489 0
M  V30 6875 C 665.803 -1.70519 3.92565 0
M  V30 6876 C 665.129 -3.01817 4.41373 0
M  V30 6877 C 666.429 -0.95449 5.13504 0
M  V30 6878 H 668.123 -0.271423 2.98167 0
M  V30 6879 H 665.669 -0.12911 1.4342 0
M  V30 6880 H 667.622 -2.69463 3.23987 0
M  V30 6881 H 666.346 -2.58008 2.00248 0
M  V30 6882 H 665.005 -1.06859 3.5068 0
M  V30 6883 H 664.653 -3.54386 3.56959 0
M  V30 6884 H 664.353 -2.80565 5.16292 0
M  V30 6885 H 665.877 -3.68934 4.86539 0
M  V30 6886 H 667.291 -1.5169 5.52868 0
M  V30 6887 H 665.688 -0.842035 5.94163 0
M  V30 6888 H 666.758 0.0544033 4.84869 0
M  V30 6889 N 668.101 -1.57061 -0.130224 0
M  V30 6890 C 669.378 -1.75205 -0.869631 0
M  V30 6891 C 669.758 -0.716063 -1.98584 0
M  V30 6892 O 669.106 0.262032 -2.26993 0
M  V30 6893 C 669.316 -3.19835 -1.39666 0
M  V30 6894 C 670.664 -3.82011 -1.85345 0
M  V30 6895 O 671.688 -3.23368 -1.49371 0
M  V30 6896 O 670.547 -4.85064 -2.51744 0
M  V30 6897 H 667.641 -0.716977 -0.412157 0
M  V30 6898 H 670.187 -1.69311 -0.11484 0
M  V30 6899 H 668.959 -3.86745 -0.595288 0
M  V30 6900 H 668.582 -3.30222 -2.21448 0
M  V30 6901 N 669.579 0.400081 -1.52437 0
M  V30 6902 C 670.804 1.17221 -1.71096 0
M  V30 6903 C 671.229 1.83269 -0.423565 0
M  V30 6904 O 670.587 1.70378 0.619751 0
M  V30 6905 C 670.635 2.20425 -2.85386 0
M  V30 6906 O 669.739 3.26769 -2.51586 0
M  V30 6907 H 669.08 0.341766 -0.569291 0
M  V30 6908 H 671.61 0.467772 -1.99181 0
M  V30 6909 H 671.62 2.64605 -3.10561 0
M  V30 6910 H 670.295 1.71737 -3.78786 0
M  V30 6911 H 668.872 2.87804 -2.37114 0
M  V30 6912 N 671.057 1.43213 0.657864 0
M  V30 6913 C 672.303 1.45795 1.41829 0
M  V30 6914 C 672.658 0.0792176 1.92237 0
M  V30 6915 O 671.951 -0.901406 1.69072 0
M  V30 6916 C 672.145 2.43143 2.61947 0
M  V30 6917 C 671.974 3.90345 2.23295 0
M  V30 6918 C 670.744 4.58749 2.11843 0
M  V30 6919 C 672.942 4.80308 1.83873 0
M  V30 6920 N 670.924 5.90898 1.66473 0
M  V30 6921 C 672.295 6.01693 1.49549 0
M  V30 6922 C 674.35 4.67609 1.71015 0
M  V30 6923 C 673.053 7.11792 1.03657 0
M  V30 6924 C 675.079 5.77707 1.26527 0
M  V30 6925 C 674.441 6.98215 0.931379 0
M  V30 6926 H 670.54 0.588628 0.514822 0
M  V30 6927 H 673.124 1.7936 0.7575 0
M  V30 6928 H 671.295 2.11612 3.25692 0
M  V30 6929 H 673.027 2.36193 3.28626 0
M  V30 6930 H 669.782 4.1319 2.31453 0
M  V30 6931 H 670.206 6.61034 1.46163 0
M  V30 6932 H 674.848 3.74902 1.95469 0
M  V30 6933 H 672.566 8.04332 0.779502 0
M  V30 6934 H 676.152 5.69899 1.17074 0
M  V30 6935 H 675.032 7.81959 0.592379 0
M  V30 6936 N 672.536 -0.895792 1.29666 0
M  V30 6937 C 673.483 -2.00035 1.15129 0
M  V30 6938 C 674.453 -1.66043 0.0435819 0
M  V30 6939 O 675.638 -1.89621 0.211811 0
M  V30 6940 C 672.778 -3.34774 0.83787 0
M  V30 6941 C 671.891 -3.81525 2.0264 0
M  V30 6942 C 671.026 -5.04858 1.65201 0
M  V30 6943 C 670.065 -5.43988 2.80612 0
M  V30 6944 N 669.202 -6.58507 2.43544 0
M  V30 6945 H 674.042 -2.11802 2.09628 0
M  V30 6946 H 671.579 -1.03719 1.04311 0
M  V30 6947 H 673.537 -4.12311 0.636824 0
M  V30 6948 H 672.167 -3.22724 -0.0702314 0
M  V30 6949 H 671.219 -2.9999 2.33903 0
M  V30 6950 H 672.531 -4.06472 2.89106 0
M  V30 6951 H 671.685 -5.8999 1.41408 0
M  V30 6952 H 670.424 -4.81759 0.758893 0
M  V30 6953 H 669.429 -4.57388 3.05083 0
M  V30 6954 H 670.654 -5.69066 3.70595 0
M  V30 6955 H 668.6 -6.37004 1.56724 0
M  V30 6956 H 668.517 -6.83269 3.23542 0
M  V30 6957 H 669.785 -7.46897 2.2308 0
M  V30 6958 N 674.014 -1.12206 -1.10668 0
M  V30 6959 C 674.961 -0.787716 -2.16942 0
M  V30 6960 C 675.931 0.244442 -1.64291 0
M  V30 6961 O 677.116 0.119558 -1.90425 0
M  V30 6962 C 674.256 -0.24584 -3.44223 0
M  V30 6963 C 673.369 -1.33552 -4.10838 0
M  V30 6964 C 672.504 -0.753337 -5.25831 0
M  V30 6965 C 671.543 -1.82231 -5.84344 0
M  V30 6966 N 670.68 -1.25902 -6.90719 0
M  V30 6967 H 675.52 -1.69809 -2.44885 0
M  V30 6968 H 673.057 -0.847862 -1.20207 0
M  V30 6969 H 675.015 0.0863639 -4.17111 0
M  V30 6970 H 673.645 0.627702 -3.16638 0
M  V30 6971 H 672.697 -1.78454 -3.35944 0
M  V30 6972 H 674.009 -2.14396 -4.50373 0
M  V30 6973 H 673.163 -0.37166 -6.05561 0
M  V30 6974 H 671.902 0.0863297 -4.87624 0
M  V30 6975 H 670.907 -2.2132 -5.03287 0
M  V30 6976 H 672.132 -2.66515 -6.24617 0
M  V30 6977 H 670.078 -0.44114 -6.54515 0
M  V30 6978 H 669.995 -2.00408 -7.28953 0
M  V30 6979 H 671.263 -0.904498 -7.74235 0
M  V30 6980 N 675.492 1.28418 -0.913599 0
M  V30 6981 C 676.442 2.24928 -0.373042 0
M  V30 6982 C 677.426 1.52444 0.514753 0
M  V30 6983 O 678.618 1.73414 0.3545 0
M  V30 6984 C 675.747 3.41124 0.385896 0
M  V30 6985 C 674.833 4.20929 -0.51761 0
M  V30 6986 N 675.224 4.78777 -1.63113 0
M  V30 6987 C 673.522 4.44865 -0.317969 0
M  V30 6988 C 674.223 5.38822 -2.19193 0
M  V30 6989 N 673.199 5.22974 -1.48321 0
M  V30 6990 H 677.001 2.67224 -1.22346 0
M  V30 6991 H 674.515 1.43187 -0.766236 0
M  V30 6992 H 676.512 4.09347 0.789997 0
M  V30 6993 H 675.172 3.00362 1.23341 0
M  V30 6994 H 676.183 4.77148 -2.01372 0
M  V30 6995 H 672.86 4.14614 0.49004 0
M  V30 6996 H 674.25 5.94615 -3.12861 0
M  V30 6997 N 676.97 0.677563 1.42291 0
M  V30 6998 C 678.247 0.129803 1.95169 0
M  V30 6999 C 678.627 -1.35605 1.61786 0
M  V30 7000 O 677.975 -2.09361 0.915444 0
M  V30 7001 C 678.185 0.401889 3.46678 0
M  V30 7002 C 679.533 0.319889 4.23393 0
M  V30 7003 O 680.557 0.33579 3.54614 0
M  V30 7004 O 679.416 0.264459 5.4586 0
M  V30 7005 H 676.51 0.00447433 0.826988 0
M  V30 7006 H 679.056 0.752483 1.52105 0
M  V30 7007 H 677.828 1.43108 3.64192 0
M  V30 7008 H 677.451 -0.252662 3.96796 0
M  V30 7009 N 678.448 -1.51871 0.421078 0
M  V30 7010 C 679.673 -2.0684 -0.152371 0
M  V30 7011 C 680.098 -1.28802 -1.37083 0
M  V30 7012 O 679.456 -0.321482 -1.78427 0
M  V30 7013 C 679.504 -3.57532 -0.469368 0
M  V30 7014 O 678.608 -3.81818 -1.55848 0
M  V30 7015 H 677.949 -0.663939 -0.00898586 0
M  V30 7016 H 680.479 -1.95674 0.597724 0
M  V30 7017 H 680.489 -4.01515 -0.724553 0
M  V30 7018 H 679.164 -4.13761 0.421276 0
M  V30 7019 H 677.741 -3.49709 -1.29453 0
M  V30 7020 N 679.926 -0.151884 -1.56866 0
M  V30 7021 C 680.836 0.798876 -2.20579 0
M  V30 7022 C 681.852 1.268 -1.19154 0
M  V30 7023 O 683.028 1.32418 -1.51748 0
M  V30 7024 C 680.093 2.01861 -2.81874 0
M  V30 7025 C 679.154 1.59825 -3.9844 0
M  V30 7026 C 678.387 2.75984 -4.56802 0
M  V30 7027 O 678.61 3.92331 -4.14044 0
M  V30 7028 O 677.544 2.51175 -5.46987 0
M  V30 7029 H 681.37 0.2865 -3.02346 0
M  V30 7030 H 678.955 0.0753806 -1.4921 0
M  V30 7031 H 680.837 2.73235 -3.20813 0
M  V30 7032 H 679.512 2.52042 -2.03117 0
M  V30 7033 H 678.419 0.854601 -3.64208 0
M  V30 7034 H 679.752 1.14355 -4.78731 0
M  V30 7035 N 681.404 1.57128 0.121893 0
M  V30 7036 C 682.314 2.03425 1.16857 0
M  V30 7037 C 683.33 0.954108 1.45509 0
M  V30 7038 O 684.506 1.26541 1.56682 0
M  V30 7039 C 681.571 2.42685 2.47599 0
M  V30 7040 C 680.632 3.64767 2.2637 0
M  V30 7041 C 679.865 4.02145 3.50878 0
M  V30 7042 O 680.088 3.39897 4.58068 0
M  V30 7043 O 679.022 4.95262 3.42051 0
M  V30 7044 H 682.848 2.92825 0.80544 0
M  V30 7045 H 680.433 1.45654 0.332477 0
M  V30 7046 H 682.315 2.68684 3.24634 0
M  V30 7047 H 680.99 1.56432 2.83392 0
M  V30 7048 H 679.897 3.43922 1.47203 0
M  V30 7049 H 681.23 4.51716 1.95482 0
M  V30 7050 N 682.882 -0.391992 1.52647 0
M  V30 7051 C 683.829 -1.47866 1.77213 0
M  V30 7052 C 684.799 -1.54286 0.615223 0
M  V30 7053 O 685.984 -1.7059 0.854622 0
M  V30 7054 C 683.124 -2.85129 1.94411 0
M  V30 7055 C 682.237 -2.87883 3.22098 0
M  V30 7056 C 681.372 -4.16553 3.29631 0
M  V30 7057 C 680.411 -4.13348 4.51453 0
M  V30 7058 N 679.548 -5.33619 4.56284 0
M  V30 7059 H 684.388 -1.26219 2.6995 0
M  V30 7060 H 681.925 -0.612367 1.33748 0
M  V30 7061 H 683.883 -3.64833 2.02367 0
M  V30 7062 H 682.513 -3.05232 1.05038 0
M  V30 7063 H 681.565 -2.00567 3.23229 0
M  V30 7064 H 682.877 -2.81382 4.11856 0
M  V30 7065 H 682.031 -5.0466 3.36753 0
M  V30 7066 H 680.77 -4.25773 2.37842 0
M  V30 7067 H 679.775 -3.23629 4.44459 0
M  V30 7068 H 681 -4.05754 5.44555 0
M  V30 7069 H 678.946 -5.43474 3.67385 0
M  V30 7070 H 678.863 -5.29182 5.3991 0
M  V30 7071 H 680.131 -6.23632 4.67657 0
M  V30 7072 O 684.399 -1.52278 -0.537924 0
M  V30 7073 H 685.09 -1.52597 -1.19306 0
M  V30 END ATOM
M  V30 BEGIN BOND
M  V30 END BOND
M  V30 END CTAB
M  END
$$$$
