drugbank_target|Q16584 Mitogen-activated protein kinase kinase kinase 11 (DB12010)
 OpenBabel12092121163D

  0  0  0     0  0            999 V3000
M  V30 BEGIN CTAB
M  V30 COUNTS 12979 13168 0 0 0
M  V30 BEGIN ATOM
M  V30 1 H -0.908 1.98254 -0.117106 0
M  V30 2 N 0 1.576 0 0
M  V30 3 C 0.933 2.03868 1.02534 0
M  V30 4 C 1.911 0.928543 1.3348 0
M  V30 5 O 3.095 1.19667 1.45644 0
M  V30 6 C 0.222 2.43627 2.35294 0
M  V30 7 C -0.732 3.65373 2.2001 0
M  V30 8 S 0.101 5.13292 1.52614 0
M  V30 9 C 1.257 5.56322 2.86805 0
M  V30 10 H 1.49 2.90518 0.631377 0
M  V30 11 H -0.977 1.52953 0.210867 0
M  V30 12 H 0.981 2.67203 3.11629 0
M  V30 13 H -0.358 1.57376 2.7183 0
M  V30 14 H -1.165 3.90944 3.18086 0
M  V30 15 H -1.563 3.418 1.51819 0
M  V30 16 H 0.729 5.58782 3.83104 0
M  V30 17 H 1.672 6.56266 2.65933 0
M  V30 18 H 2.08 4.83886 2.90714 0
M  V30 19 N 1.4781 -0.272755 1.55222 0
M  V30 20 C 2.3881 -1.35918 1.91216 0
M  V30 21 C 3.4041 -1.54026 0.809436 0
M  V30 22 O 4.5801 -1.68148 1.10852 0
M  V30 23 C 1.6451 -2.69834 2.17693 0
M  V30 24 C 0.7061 -2.6047 3.41253 0
M  V30 25 C -0.0609 -3.88 3.66458 0
M  V30 26 O 0.1621 -4.88693 2.94169 0
M  V30 27 O -0.9039 -3.88189 4.59992 0
M  V30 28 H 2.9221 -1.0839 2.83699 0
M  V30 29 H 0.5071 -0.471301 1.41771 0
M  V30 30 H 2.3891 -3.49017 2.36147 0
M  V30 31 H 1.0641 -2.97148 1.28392 0
M  V30 32 H -0.0289 -1.79663 3.28134 0
M  V30 33 H 1.3041 -2.38106 4.30774 0
M  V30 34 N 2.9562 -1.48159 -0.537278 0
M  V30 35 C 4.3672 -1.49429 -1.11928 0
M  V30 36 C 4.7182 -0.26 -1.9447 0
M  V30 37 O 3.8432 0.633489 -2.0692 0
M  V30 38 C 4.4382 -2.70758 -2.03656 0
M  V30 39 C 2.9972 -2.74923 -2.57088 0
M  V30 40 C 2.1442 -2.42835 -1.3389 0
M  V30 41 H 5.0952 -1.55381 -0.322886 0
M  V30 42 H 5.1162 -2.48861 -2.87834 0
M  V30 43 H 4.6282 -3.60575 -1.43553 0
M  V30 44 H 2.7292 -1.89296 -3.20933 0
M  V30 45 H 2.8422 -3.76157 -2.9672 0
M  V30 46 H 1.2062 -1.93836 -1.65226 0
M  V30 47 H 1.9892 -3.34884 -0.755504 0
M  V30 48 N 4.4343 0.785586 -1.36625 0
M  V30 49 C 5.3643 1.91259 -1.33949 0
M  V30 50 C 6.3453 1.68795 -0.210325 0
M  V30 51 O 7.5303 1.89854 -0.408561 0
M  V30 52 C 4.6603 3.28339 -1.13186 0
M  V30 53 C 3.6143 3.65335 -2.22967 0
M  V30 54 C 2.9403 5.00806 -1.87342 0
M  V30 55 C 4.2403 3.7352 -3.65075 0
M  V30 56 H 5.9343 1.93755 -2.28253 0
M  V30 57 H 3.4803 0.930788 -1.09874 0
M  V30 58 H 5.4333 4.06804 -1.09948 0
M  V30 59 H 4.1573 3.2624 -0.153332 0
M  V30 60 H 2.8163 2.89169 -2.25337 0
M  V30 61 H 2.4643 4.95233 -0.880545 0
M  V30 62 H 2.1643 5.26529 -2.60846 0
M  V30 63 H 3.6883 5.81687 -1.85667 0
M  V30 64 H 5.1023 4.42168 -3.64911 0
M  V30 65 H 3.4993 4.10731 -4.37516 0
M  V30 66 H 4.5693 2.74527 -3.99703 0
M  V30 67 N 5.9124 1.20967 1.01018 0
M  V30 68 C 6.8594 0.964281 2.09691 0
M  V30 69 C 7.8294 -0.107853 1.65749 0
M  V30 70 O 9.0144 0.0381987 1.90762 0
M  V30 71 C 6.1544 0.52943 3.41015 0
M  V30 72 C 5.2674 1.67043 3.98398 0
M  V30 73 C 4.4024 1.18525 5.17808 0
M  V30 74 C 3.4414 2.29892 5.67288 0
M  V30 75 N 2.5784 1.82546 6.77954 0
M  V30 76 H 7.4184 1.89463 2.30017 0
M  V30 77 H 4.9554 0.944289 1.1279 0
M  V30 78 H 6.9134 0.258588 4.16398 0
M  V30 79 H 5.5434 -0.363919 3.20742 0
M  V30 80 H 4.5954 2.05603 3.20049 0
M  V30 81 H 5.9074 2.50877 4.31117 0
M  V30 82 H 5.0614 0.870762 6.00419 0
M  V30 83 H 3.8004 0.316887 4.86669 0
M  V30 84 H 2.8054 2.6215 4.83278 0
M  V30 85 H 4.0304 3.17216 6.00459 0
M  V30 86 H 1.9764 0.980454 6.48632 0
M  V30 87 H 1.8934 2.59956 7.09901 0
M  V30 88 H 3.1614 1.54115 7.64113 0
M  V30 89 N 7.3905 -1.2043 1.01659 0
M  V30 90 C 8.6155 -1.94318 0.724942 0
M  V30 91 C 9.0405 -1.74266 -0.708034 0
M  V30 92 O 8.3985 -1.03694 -1.48719 0
M  V30 93 C 8.4465 -3.44486 1.06591 0
M  V30 94 O 7.5505 -4.12017 0.177599 0
M  V30 95 H 6.8915 -0.60708 0.26898 0
M  V30 96 H 9.4215 -1.52861 1.35995 0
M  V30 97 H 9.4315 -3.95106 1.01762 0
M  V30 98 H 8.1065 -3.58404 2.10997 0
M  V30 99 H 6.6835 -3.71821 0.283421 0
M  V30 100 N 8.8686 -0.792821 -1.36206 0
M  V30 101 C 9.7986 -0.207853 -2.32573 0
M  V30 102 C 10.7796 0.659055 -1.56813 0
M  V30 103 O 11.9646 0.592176 -1.84951 0
M  V30 104 C 9.0946 0.655449 -3.41059 0
M  V30 105 C 8.0486 -0.111842 -4.27854 0
M  V30 106 C 7.3746 0.872274 -5.27537 0
M  V30 107 C 8.6746 -1.30299 -5.05786 0
M  V30 108 H 10.3686 -1.01294 -2.81744 0
M  V30 109 H 7.9146 -0.48854 -1.3546 0
M  V30 110 H 9.8676 1.07464 -4.07467 0
M  V30 111 H 8.5916 1.49328 -2.90463 0
M  V30 112 H 7.2506 -0.512053 -3.63006 0
M  V30 113 H 6.8986 1.70523 -4.73214 0
M  V30 114 H 6.5986 0.363291 -5.86476 0
M  V30 115 H 8.1226 1.28996 -5.96818 0
M  V30 116 H 9.5366 -0.959379 -5.65216 0
M  V30 117 H 7.9336 -1.7455 -5.74154 0
M  V30 118 H 9.0036 -2.09663 -4.37229 0
M  V30 119 N 10.3467 1.47872 -0.545128 0
M  V30 120 C 11.5937 2.02493 -0.0165858 0
M  V30 121 C 11.9217 1.42073 1.32836 0
M  V30 122 O 11.1767 0.561459 1.87473 0
M  V30 123 C 11.4757 3.57131 0.13867 0
M  V30 124 C 11.1417 4.36411 -1.13384 0
M  V30 125 C 9.8037 4.57792 -1.48256 0
M  V30 126 C 12.1557 4.82223 -1.97764 0
M  V30 127 C 9.4837 5.22233 -2.67376 0
M  V30 128 C 11.8357 5.47977 -3.16076 0
M  V30 129 C 10.4997 5.67593 -3.51275 0
M  V30 130 H 9.7697 0.740975 -0.00606918 0
M  V30 131 H 12.4167 1.77683 -0.714207 0
M  V30 132 H 10.7217 3.80865 0.919172 0
M  V30 133 H 12.4187 3.97031 0.562782 0
M  V30 134 H 9.0087 4.2004 -0.852297 0
M  V30 135 H 13.1927 4.65493 -1.72132 0
M  V30 136 H 8.4487 5.35616 -2.94831 0
M  V30 137 H 12.6227 5.8244 -3.81755 0
M  V30 138 H 10.2497 6.17298 -4.43675 0
M  V30 139 N 11.8248 0.280983 1.55075 0
M  V30 140 C 12.7548 -0.597469 2.25727 0
M  V30 141 C 13.7358 -1.15417 1.24952 0
M  V30 142 O 14.9208 -1.18722 1.53684 0
M  V30 143 C 12.0508 -1.7789 2.98283 0
M  V30 144 C 11.0048 -1.35347 4.06036 0
M  V30 145 C 10.3308 -2.61846 4.66198 0
M  V30 146 C 11.6308 -0.499354 5.19907 0
M  V30 147 H 13.3248 -0.00824265 2.99399 0
M  V30 148 H 10.8708 -0.0025244 1.44 0
M  V30 149 H 12.8238 -2.39937 3.46422 0
M  V30 150 H 11.5478 -2.39405 2.22155 0
M  V30 151 H 10.2068 -0.756156 3.58717 0
M  V30 152 H 9.8548 -3.21632 3.86732 0
M  V30 153 H 9.5548 -2.3409 5.38958 0
M  V30 154 H 11.0788 -3.24732 5.1709 0
M  V30 155 H 12.4928 -1.02498 5.64063 0
M  V30 156 H 10.8898 -0.316424 5.99265 0
M  V30 157 H 11.9598 0.480459 4.82514 0
M  V30 158 N 13.3029 -1.57598 0.00835791 0
M  V30 159 C 14.2499 -2.08945 -0.980346 0
M  V30 160 C 15.2199 -0.986738 -1.33614 0
M  V30 161 O 16.4049 -1.25968 -1.43306 0
M  V30 162 C 13.5449 -2.60425 -2.26435 0
M  V30 163 C 12.6579 -3.84628 -1.96685 0
M  V30 164 C 11.7929 -4.24579 -3.19228 0
M  V30 165 C 10.8319 -5.41596 -2.85202 0
M  V30 166 N 9.9689 -5.768 -4.00307 0
M  V30 167 H 14.8089 -2.93148 -0.535551 0
M  V30 168 H 12.3459 -1.44912 -0.252776 0
M  V30 169 H 14.3039 -2.88354 -3.01509 0
M  V30 170 H 12.9339 -1.79083 -2.68568 0
M  V30 171 H 11.9859 -3.63556 -1.11942 0
M  V30 172 H 13.2979 -4.69796 -1.67611 0
M  V30 173 H 12.4519 -4.53834 -4.02641 0
M  V30 174 H 11.1909 -3.38137 -3.51447 0
M  V30 175 H 10.1959 -5.12056 -2.00198 0
M  V30 176 H 11.4209 -6.29721 -2.54222 0
M  V30 177 H 9.3669 -4.93316 -4.32407 0
M  V30 178 H 9.2839 -6.5656 -3.74786 0
M  V30 179 H 10.5519 -6.10652 -4.84484 0
M  V30 180 N 14.781 0.264519 -1.55364 0
M  V30 181 C 16.006 1.01726 -1.80739 0
M  V30 182 C 16.431 1.78836 -0.583044 0
M  V30 183 O 15.789 1.75167 0.467566 0
M  V30 184 C 15.837 1.94482 -3.03659 0
M  V30 185 O 14.941 3.03386 -2.7934 0
M  V30 186 H 14.282 0.290395 -0.597132 0
M  V30 187 H 16.812 0.290854 -2.02522 0
M  V30 188 H 16.822 2.36278 -3.32621 0
M  V30 189 H 15.497 1.37772 -3.92418 0
M  V30 190 H 14.074 2.65844 -2.61498 0
M  V30 191 N 16.2591 1.48442 0.529413 0
M  V30 192 C 17.6701 1.5002 1.11134 0
M  V30 193 C 18.0211 0.27031 1.94329 0
M  V30 194 O 17.1461 -0.622507 2.07253 0
M  V30 195 C 17.7411 2.71834 2.02217 0
M  V30 196 C 16.3001 2.76283 2.55627 0
M  V30 197 C 15.4471 2.43542 1.326 0
M  V30 198 H 18.3981 1.5555 0.314641 0
M  V30 199 H 18.4191 2.50384 2.8651 0
M  V30 200 H 17.9311 3.61331 1.41639 0
M  V30 201 H 16.0321 1.90995 3.19924 0
M  V30 202 H 16.1451 3.77725 2.94721 0
M  V30 203 H 14.5091 1.94709 1.64196 0
M  V30 204 H 15.2921 3.3528 0.737734 0
M  V30 205 N 17.7372 -0.778329 1.37039 0
M  V30 206 C 18.6672 -1.90546 1.34962 0
M  V30 207 C 19.6482 -1.68681 0.219274 0
M  V30 208 O 20.8332 -1.89634 0.418624 0
M  V30 209 C 17.9632 -3.27734 1.14925 0
M  V30 210 C 16.9172 -3.64147 2.24902 0
M  V30 211 C 16.2432 -4.99806 1.89996 0
M  V30 212 C 17.5432 -3.71579 3.67051 0
M  V30 213 H 19.2372 -1.92541 2.29277 0
M  V30 214 H 16.7832 -0.924948 1.10366 0
M  V30 215 H 18.7362 -4.06215 1.12104 0
M  V30 216 H 17.4602 -3.26154 0.170631 0
M  V30 217 H 16.1192 -2.8797 2.26868 0
M  V30 218 H 15.7672 -4.94759 0.906796 0
M  V30 219 H 15.4672 -5.25139 2.63634 0
M  V30 220 H 16.9912 -5.80694 1.88749 0
M  V30 221 H 18.4052 -4.40227 3.67251 0
M  V30 222 H 16.8022 -4.08405 4.39688 0
M  V30 223 H 17.8722 -2.72404 4.01154 0
M  V30 224 N 19.2153 -1.21501 -1.00376 0
M  V30 225 C 20.4633 -1.03095 -1.73827 0
M  V30 226 C 20.7843 0.436341 -1.90055 0
M  V30 227 O 20.0543 1.31466 -1.45236 0
M  V30 228 H 18.6343 -0.378487 -0.644016 0
M  V30 229 H 21.2963 -1.52831 -1.20949 0
M  V30 230 H 20.3923 -1.49991 -2.73695 0
M  V30 231 N 20.6934 1.19889 -1.02296 0
M  V30 232 C 21.9184 1.9393 -0.735237 0
M  V30 233 C 22.3434 1.74639 0.698782 0
M  V30 234 O 21.7014 1.04481 1.48167 0
M  V30 235 C 21.7494 3.43916 -1.08417 0
M  V30 236 O 20.8534 4.11917 -0.199446 0
M  V30 237 H 20.1944 0.605645 -0.272196 0
M  V30 238 H 22.7244 1.52137 -1.36804 0
M  V30 239 H 22.7344 3.9456 -1.03856 0
M  V30 240 H 21.4094 3.5728 -2.12894 0
M  V30 241 H 19.9864 3.71666 -0.303136 0
M  V30 242 N 22.1715 0.800033 1.35784 0
M  V30 243 C 23.4175 0.38701 1.99684 0
M  V30 244 C 23.7725 -1.03268 1.62338 0
M  V30 245 O 23.0655 -1.70543 0.87325 0
M  V30 246 C 23.2595 0.500276 3.53881 0
M  V30 247 C 23.0885 1.92942 4.06206 0
M  V30 248 C 21.8585 2.55637 4.35865 0
M  V30 249 C 24.0565 2.89307 4.25213 0
M  V30 250 N 22.0385 3.9003 4.74078 0
M  V30 251 C 23.4095 4.08556 4.66349 0
M  V30 252 C 25.4645 2.86225 4.07406 0
M  V30 253 C 24.1675 5.25146 4.91543 0
M  V30 254 C 26.1935 4.02011 4.33752 0
M  V30 255 C 25.5555 5.20007 4.75155 0
M  V30 256 H 21.6545 0.189252 0.758754 0
M  V30 257 H 24.2385 1.03988 1.64604 0
M  V30 258 H 22.4095 -0.122568 3.88207 0
M  V30 259 H 24.1415 0.0624733 4.04652 0
M  V30 260 H 20.8965 2.07039 4.25948 0
M  V30 261 H 21.3205 4.59205 4.97454 0
M  V30 262 H 25.9625 1.96154 3.74544 0
M  V30 263 H 23.6805 6.15794 5.23281 0
M  V30 264 H 27.2665 4.00999 4.21534 0
M  V30 265 H 26.1465 6.08113 4.95145 0
M  V30 266 N 23.6496 -1.47581 0.552962 0
M  V30 267 C 24.5976 -2.31648 -0.21023 0
M  V30 268 C 25.5916 -1.42663 -0.913432 0
M  V30 269 O 26.7976 -1.5945 -0.835201 0
M  V30 270 H 23.1726 -0.746989 -0.0866676 0
M  V30 271 H 25.1436 -2.93869 0.518051 0
M  V30 272 C 23.8926 -3.25226 -1.22976 0
M  V30 273 H 23.2156 -3.93658 -0.698077 0
M  V30 274 H 24.6556 -3.86889 -1.73473 0
M  V30 275 C 23.1146 -2.48448 -2.27542 0
M  V30 276 O 23.6446 -2.22585 -3.34393 0
M  V30 277 N 21.8506 -2.09532 -2.01357 0
M  V30 278 H 21.3976 -2.30765 -1.14478 0
M  V30 279 H 21.3556 -1.58476 -2.71538 0
M  V30 280 N 25.1277 -0.289203 -1.54924 0
M  V30 281 C 26.3757 0.322879 -1.99504 0
M  V30 282 C 26.6967 1.55313 -1.1791 0
M  V30 283 O 25.9667 1.94001 -0.272097 0
M  V30 284 H 24.5467 0.122291 -0.736922 0
M  V30 285 H 27.2087 -0.397802 -1.90797 0
M  V30 286 H 26.3047 0.603061 -3.06218 0
M  V30 287 N 26.6058 1.57591 -0.0167156 0
M  V30 288 C 27.8308 1.9598 0.67872 0
M  V30 289 C 28.2558 0.892546 1.65575 0
M  V30 290 O 27.6138 -0.147772 1.80697 0
M  V30 291 C 27.6618 3.33468 1.37227 0
M  V30 292 O 26.7658 3.28954 2.48722 0
M  V30 293 H 26.1068 0.639339 0.17928 0
M  V30 294 H 28.6368 2.04463 -0.0748802 0
M  V30 295 H 28.6468 3.69417 1.7319 0
M  V30 296 H 27.3218 4.10694 0.656007 0
M  V30 297 H 25.8988 3.04705 2.14963 0
M  V30 298 N 28.0839 -0.256276 1.55502 0
M  V30 299 C 29.3319 -0.983672 1.76545 0
M  V30 300 C 29.6529 -1.86206 0.578982 0
M  V30 301 O 28.9229 -1.91656 -0.405577 0
M  V30 302 H 27.5029 -0.366191 0.651086 0
M  V30 303 H 30.1649 -0.276479 1.92929 0
M  V30 304 H 29.2609 -1.61087 2.67315 0
M  V30 305 N 29.562 -1.4872 -0.521534 0
M  V30 306 C 30.787 -1.61101 -1.30618 0
M  V30 307 C 31.212 -0.274611 -1.86085 0
M  V30 308 O 30.57 0.754937 -1.64834 0
M  V30 309 C 30.618 -2.66709 -2.4269 0
M  V30 310 O 29.722 -2.24456 -3.45967 0
M  V30 311 H 29.063 -0.539921 -0.386499 0
M  V30 312 H 31.593 -1.94767 -0.626645 0
M  V30 313 H 31.603 -2.88245 -2.88754 0
M  V30 314 H 30.278 -3.63727 -2.01682 0
M  V30 315 H 28.855 -2.13168 -3.05964 0
M  V30 316 N 31.0401 0.771051 -1.3745 0
M  V30 317 C 32.2881 1.52661 -1.32435 0
M  V30 318 C 32.6091 1.9479 0.0905024 0
M  V30 319 O 31.8791 1.66348 1.03466 0
M  V30 320 H 30.4591 0.566218 -0.487244 0
M  V30 321 H 33.1211 0.917636 -1.71946 0
M  V30 322 H 32.2171 2.42568 -1.96385 0
M  V30 323 N 32.5182 1.22032 0.997298 0
M  V30 324 C 33.7662 1.04016 1.73278 0
M  V30 325 C 34.0872 -0.426255 1.90284 0
M  V30 326 O 33.3572 -1.30694 1.45931 0
M  V30 327 H 31.9372 0.381897 0.642 0
M  V30 328 H 34.5992 1.5347 1.20137 0
M  V30 329 H 33.6952 1.51441 2.72896 0
M  V30 330 N 33.9963 -1.19345 1.0293 0
M  V30 331 C 35.2443 -1.88665 0.724574 0
M  V30 332 C 35.5653 -1.80036 -0.749144 0
M  V30 333 O 34.8353 -1.2111 -1.53978 0
M  V30 334 H 33.4153 -0.698406 0.265025 0
M  V30 335 H 36.0773 -1.44885 1.30362 0
M  V30 336 H 35.1733 -2.94987 1.01926 0
M  V30 337 N 35.4744 -0.807222 -1.35358 0
M  V30 338 C 36.7224 -0.387122 -1.98358 0
M  V30 339 C 37.0434 1.04942 -1.64354 0
M  V30 340 O 36.3134 1.72615 -0.926339 0
M  V30 341 H 34.8934 -0.140154 -0.733734 0
M  V30 342 H 37.5554 -1.0332 -1.6526 0
M  V30 343 H 36.6514 -0.493352 -3.08176 0
M  V30 344 N 36.9525 1.47285 -0.560781 0
M  V30 345 C 38.2005 2.02064 -0.0379868 0
M  V30 346 C 38.5215 1.43711 1.31803 0
M  V30 347 O 37.7915 0.61362 1.86042 0
M  V30 348 H 36.3715 0.746918 -0.0110531 0
M  V30 349 H 39.0335 1.80648 -0.731598 0
M  V30 350 H 38.1295 3.12064 0.0474463 0
M  V30 351 N 38.4306 0.297415 1.54768 0
M  V30 352 C 39.6786 -0.312295 1.99673 0
M  V30 353 C 39.9996 -1.54686 1.18732 0
M  V30 354 O 39.2696 -1.93854 0.282382 0
M  V30 355 H 37.8496 -0.118381 0.73756 0
M  V30 356 H 40.5116 0.407915 1.90583 0
M  V30 357 H 39.6076 -0.586813 3.06534 0
M  V30 358 N 39.9087 -1.5758 0.0250728 0
M  V30 359 C 41.1567 -1.91255 -0.653151 0
M  V30 360 C 41.4777 -0.901691 -1.729 0
M  V30 361 O 40.7477 0.0573785 -1.95816 0
M  V30 362 H 39.3277 -0.705942 -0.244243 0
M  V30 363 H 41.9897 -1.94767 0.0719209 0
M  V30 364 H 41.0857 -2.91752 -1.10847 0
M  V30 365 N 41.3868 0.248026 -1.55636 0
M  V30 366 C 42.6348 0.974295 -1.77065 0
M  V30 367 C 42.9558 1.85897 -0.588849 0
M  V30 368 O 42.2258 1.91868 0.395407 0
M  V30 369 H 40.8058 0.362733 -0.653019 0
M  V30 370 H 43.4678 0.266244 -1.93073 0
M  V30 371 H 42.5638 1.59667 -2.68166 0
M  V30 372 N 42.8649 1.48995 0.513639 0
M  V30 373 C 44.1129 1.57531 1.26604 0
M  V30 374 C 44.4339 0.258236 1.93283 0
M  V30 375 O 43.7039 -0.721502 1.8213 0
M  V30 376 H 42.2839 0.580387 0.470276 0
M  V30 377 H 44.9459 1.85552 0.596373 0
M  V30 378 H 44.0419 2.36486 2.03669 0
M  V30 379 N 44.343 -0.763751 1.37857 0
M  V30 380 C 45.759 -1.06542 1.18832 0
M  V30 381 C 45.959 -2.01478 0.0299722 0
M  V30 382 O 45.015 -2.4458 -0.627447 0
M  V30 383 C 46.328 -1.65525 2.51042 0
M  V30 384 C 47.876 -1.77745 2.57635 0
M  V30 385 C 48.351 -2.4014 3.89996 0
M  V30 386 N 49.842 -2.47582 3.91481 0
M  V30 387 C 50.577 -2.96732 4.9065 0
M  V30 388 N 50.073 -3.45993 6.00217 0
M  V30 389 N 51.866 -2.95679 4.78048 0
M  V30 390 H 44.017 -0.133556 2.1198 0
M  V30 391 H 46.28 -0.121879 0.940133 0
M  V30 392 H 45.986 -1.03236 3.36207 0
M  V30 393 H 45.86 -2.64719 2.68707 0
M  V30 394 H 48.247 -2.39164 1.72872 0
M  V30 395 H 48.328 -0.772836 2.43846 0
M  V30 396 H 47.972 -1.79358 4.75177 0
M  V30 397 H 47.902 -3.41223 4.01092 0
M  V30 398 H 50.393 -2.1273 3.12337 0
M  V30 399 H 50.706 -3.81922 6.7183 0
M  V30 400 H 49.051 -3.44077 6.03851 0
M  V30 401 H 52.242 -2.56499 3.91568 0
M  V30 402 H 52.415 -3.33672 5.55488 0
M  V30 403 N 45.8211 -1.22559 -0.990812 0
M  V30 404 C 47.2321 -1.04791 -1.54518 0
M  V30 405 C 47.5831 0.387998 -1.92325 0
M  V30 406 O 46.7081 1.27328 -1.74976 0
M  V30 407 C 47.3031 -1.896 -2.80779 0
M  V30 408 C 45.8621 -1.76124 -3.32652 0
M  V30 409 C 45.0091 -1.8594 -2.05722 0
M  V30 410 H 47.9601 -1.36374 -0.811662 0
M  V30 411 H 47.9811 -1.41464 -3.53225 0
M  V30 412 H 47.4931 -2.94101 -2.53231 0
M  V30 413 H 45.5941 -0.743643 -3.65104 0
M  V30 414 H 45.7071 -2.58913 -4.03114 0
M  V30 415 H 44.0711 -1.29403 -2.19379 0
M  V30 416 H 44.8541 -2.91976 -1.80568 0
M  V30 417 N 47.2992 1.18797 -1.03562 0
M  V30 418 C 48.2092 2.25913 -0.632505 0
M  V30 419 C 49.2252 1.70668 0.338882 0
M  V30 420 O 50.4012 2.00453 0.195076 0
M  V30 421 C 47.4662 3.467 0.00350942 0
M  V30 422 C 46.5272 4.17098 -1.01624 0
M  V30 423 C 45.7602 5.32119 -0.410478 0
M  V30 424 O 45.9832 5.64976 0.784725 0
M  V30 425 O 44.9172 5.9107 -1.13667 0
M  V30 426 H 48.7432 2.62648 -1.52478 0
M  V30 427 H 46.3282 1.25781 -0.806195 0
M  V30 428 H 48.2102 4.19878 0.35781 0
M  V30 429 H 46.8852 3.11798 0.869686 0
M  V30 430 H 45.7922 3.4601 -1.42224 0
M  V30 431 H 47.1252 4.55987 -1.85301 0
M  V30 432 N 48.7773 0.814389 1.34928 0
M  V30 433 C 50.0253 0.397636 1.9815 0
M  V30 434 C 50.3463 -1.04069 1.64908 0
M  V30 435 O 49.6163 -1.72121 0.93548 0
M  V30 436 H 48.1963 0.144043 0.732981 0
M  V30 437 H 50.8583 1.04195 1.6471 0
M  V30 438 H 49.9543 0.509688 3.0791 0
M  V30 439 N 50.2554 -1.46986 0.568584 0
M  V30 440 C 51.4804 -2.07335 0.0520528 0
M  V30 441 C 51.9054 -1.41675 -1.23733 0
M  V30 442 O 51.2634 -0.495623 -1.74394 0
M  V30 443 C 51.3114 -3.60417 -0.11501 0
M  V30 444 O 50.4154 -3.95309 -1.17492 0
M  V30 445 H 49.7564 -0.661597 0.0564385 0
M  V30 446 H 52.2864 -1.88837 0.787507 0
M  V30 447 H 52.2964 -4.06698 -0.325644 0
M  V30 448 H 50.9714 -4.07601 0.826675 0
M  V30 449 H 49.5484 -3.60757 -0.943869 0
M  V30 450 N 51.7335 -0.305618 -1.54608 0
M  V30 451 C 53.1445 0.186098 -1.8577 0
M  V30 452 C 53.4955 1.53058 -1.22751 0
M  V30 453 O 52.6205 2.09888 -0.526893 0
M  V30 454 C 53.2155 0.344449 -3.37044 0
M  V30 455 C 51.7745 0.780384 -3.68221 0
M  V30 456 C 50.9215 -0.108554 -2.77087 0
M  V30 457 H 53.8725 -0.526485 -1.49712 0
M  V30 458 H 53.8935 1.17828 -3.61796 0
M  V30 459 H 53.4055 -0.634235 -3.82883 0
M  V30 460 H 51.5065 1.76945 -3.27904 0
M  V30 461 H 51.6195 0.596572 -4.75371 0
M  V30 462 H 49.9835 0.412931 -2.5133 0
M  V30 463 H 50.7665 -1.08368 -3.25747 0
M  V30 464 N 53.2116 1.57565 -0.0334293 0
M  V30 465 C 54.1586 2.10478 0.946981 0
M  V30 466 C 55.1286 1.00787 1.32027 0
M  V30 467 O 56.3136 1.28232 1.41284 0
M  V30 468 C 53.4536 2.63994 2.22263 0
M  V30 469 C 52.5666 3.87709 1.90541 0
M  V30 470 C 51.7016 4.29604 3.12433 0
M  V30 471 C 50.7406 5.46065 2.76549 0
M  V30 472 N 49.8776 5.83096 3.9108 0
M  V30 473 H 54.7176 2.93963 0.488846 0
M  V30 474 H 52.2546 1.45296 0.22969 0
M  V30 475 H 54.2126 2.93114 2.96884 0
M  V30 476 H 52.8426 1.83333 2.65685 0
M  V30 477 H 51.8946 3.65291 1.06144 0
M  V30 478 H 53.2066 4.72403 1.60116 0
M  V30 479 H 52.3606 4.60182 3.9537 0
M  V30 480 H 51.0996 3.43685 3.46023 0
M  V30 481 H 50.1046 5.15176 1.92026 0
M  V30 482 H 51.3296 6.33685 2.44171 0
M  V30 483 H 49.2756 5.00132 4.24504 0
M  V30 484 H 49.1926 6.6244 3.64293 0
M  V30 485 H 50.4606 6.18282 4.74708 0
M  V30 486 N 54.6897 -0.239769 1.55765 0
M  V30 487 C 55.6527 -1.28038 1.90103 0
M  V30 488 C 56.6527 -1.40723 0.778055 0
M  V30 489 O 57.8427 -1.39301 1.04599 0
M  V30 490 C 54.9747 -2.65702 2.13577 0
M  V30 491 H 56.1677 -0.988048 2.83157 0
M  V30 492 H 53.7207 -0.479382 1.48767 0
M  V30 493 H 54.4557 -3.00063 1.23015 0
M  V30 494 H 54.2407 -2.57875 2.95369 0
M  V30 495 H 55.7307 -3.40828 2.41301 0
M  V30 496 N 56.1678 -1.49265 -0.50573 0
M  V30 497 C 57.1308 -1.65075 -1.59006 0
M  V30 498 C 58.1308 -0.522768 -1.52065 0
M  V30 499 O 59.3208 -0.789117 -1.55302 0
M  V30 500 C 56.4528 -1.64369 -2.98656 0
M  V30 501 H 57.6458 -2.61784 -1.46319 0
M  V30 502 H 55.1988 -1.38226 -0.729616 0
M  V30 503 H 55.9338 -0.692272 -3.16825 0
M  V30 504 H 55.7188 -2.46282 -3.05103 0
M  V30 505 H 57.2088 -1.78674 -3.77446 0
M  V30 506 N 57.6459 0.756429 -1.3826 0
M  V30 507 C 58.8939 1.51248 -1.34047 0
M  V30 508 C 59.2149 1.94875 0.0698372 0
M  V30 509 O 58.4849 1.67436 1.01696 0
M  V30 510 H 57.0649 0.561018 -0.493222 0
M  V30 511 H 59.7269 0.899347 -1.7291 0
M  V30 512 H 58.8229 2.40472 -1.98947 0
M  V30 513 N 59.124 1.23083 0.984299 0
M  V30 514 C 60.354 1.08556 1.75781 0
M  V30 515 C 60.762 -0.366171 1.85623 0
M  V30 516 O 60.105 -1.26524 1.33182 0
M  V30 517 C 60.167 1.63208 3.20318 0
M  V30 518 C 59.831 3.11922 3.33997 0
M  V30 519 C 60.828 4.09259 3.2063 0
M  V30 520 C 58.513 3.51552 3.58771 0
M  V30 521 C 60.507 5.4421 3.31835 0
M  V30 522 C 58.194 4.86649 3.69616 0
M  V30 523 C 59.192 5.82787 3.56157 0
M  V30 524 O 58.88 7.15431 3.66626 0
M  V30 525 H 58.612 0.380713 0.5586 0
M  V30 526 H 61.166 1.63321 1.2456 0
M  V30 527 H 59.396 1.0286 3.72769 0
M  V30 528 H 61.085 1.44216 3.79416 0
M  V30 529 H 61.851 3.79984 3.01392 0
M  V30 530 H 57.73 2.77239 3.6832 0
M  V30 531 H 61.274 6.1923 3.21247 0
M  V30 532 H 57.171 5.15601 3.88363 0
M  V30 533 H 57.939 7.23127 3.83445 0
M  V30 534 N 60.6021 -1.18246 1.0419 0
M  V30 535 C 61.5651 -2.20128 0.638452 0
M  V30 536 C 62.5651 -1.57885 -0.304805 0
M  V30 537 O 63.7551 -1.73967 -0.0900369 0
M  V30 538 C 60.8871 -3.4084 -0.0637751 0
M  V30 539 H 62.0801 -2.57336 1.54007 0
M  V30 540 H 59.6331 -1.32152 0.834598 0
M  V30 541 H 60.3681 -3.09166 -0.979136 0
M  V30 542 H 60.1531 -3.8726 0.614198 0
M  V30 543 H 61.6431 -4.16274 -0.332512 0
M  V30 544 N 62.0802 -0.821533 -1.34494 0
M  V30 545 C 63.0282 -0.230702 -2.31453 0
M  V30 546 C 64.0222 0.627793 -1.57338 0
M  V30 547 O 65.2282 0.519288 -1.72347 0
M  V30 548 H 61.6032 -0.0558577 -0.749923 0
M  V30 549 H 63.5742 -1.06332 -2.78812 0
M  V30 550 C 62.3232 0.59391 -3.4259 0
M  V30 551 H 61.6462 -0.0573588 -3.99759 0
M  V30 552 H 63.0862 0.973446 -4.12674 0
M  V30 553 C 61.5452 1.76568 -2.86924 0
M  V30 554 O 62.0752 2.8638 -2.81691 0
M  V30 555 N 60.2812 1.58198 -2.43766 0
M  V30 556 H 59.8282 0.68872 -2.48222 0
M  V30 557 H 59.7862 2.36752 -2.06871 0
M  V30 558 N 63.5583 1.46682 -0.576371 0
M  V30 559 C 64.9693 1.86112 -0.148091 0
M  V30 560 C 65.3203 1.48073 1.2872 0
M  V30 561 O 64.4453 0.892656 1.97131 0
M  V30 562 C 65.0403 3.37786 -0.261982 0
M  V30 563 C 63.5993 3.76235 0.111384 0
M  V30 564 C 62.7463 2.70713 -0.60083 0
M  V30 565 H 65.6973 1.37927 -0.78497 0
M  V30 566 H 65.7183 3.77007 0.514364 0
M  V30 567 H 65.2303 3.6544 -1.30671 0
M  V30 568 H 63.3313 3.54198 1.15649 0
M  V30 569 H 63.4443 4.78391 -0.26052 0
M  V30 570 H 61.8083 2.54666 -0.0417783 0
M  V30 571 H 62.5913 3.01208 -1.64708 0
M  V30 572 N 65.0364 0.313813 1.54444 0
M  V30 573 C 66.2824 -0.292108 2.00685 0
M  V30 574 C 66.6154 -1.52548 1.20177 0
M  V30 575 O 65.8904 -1.92452 0.281531 0
M  V30 576 C 66.1734 -0.635968 3.5444 0
M  V30 577 C 66.0264 0.607437 4.4568 0
M  V30 578 C 67.3454 -1.45747 4.15266 0
M  V30 579 H 64.4644 -0.104697 0.729526 0
M  V30 580 H 67.1064 0.428457 1.85106 0
M  V30 581 H 65.2564 -1.24986 3.67846 0
M  V30 582 H 66.9284 1.24581 4.44159 0
M  V30 583 H 65.1714 1.23822 4.15753 0
M  V30 584 H 65.8424 0.322515 5.51057 0
M  V30 585 H 68.3184 -0.938645 4.05375 0
M  V30 586 H 67.1944 -1.66683 5.2298 0
M  V30 587 H 67.4554 -2.45063 3.67963 0
M  V30 588 N 66.5145 -1.57545 0.0417849 0
M  V30 589 C 67.7605 -1.93424 -0.629168 0
M  V30 590 C 68.1155 -0.919564 -1.69002 0
M  V30 591 O 67.4085 0.0626178 -1.91498 0
M  V30 592 C 67.6025 -3.33794 -1.27735 0
M  V30 593 C 67.4315 -4.48822 -0.280806 0
M  V30 594 C 66.2015 -5.05148 0.123869 0
M  V30 595 C 68.3995 -5.12148 0.470012 0
M  V30 596 N 66.3815 -6.03703 1.11426 0
M  V30 597 C 67.7525 -6.05921 1.31377 0
M  V30 598 C 69.8075 -4.95078 0.529343 0
M  V30 599 C 68.5105 -6.84459 2.21152 0
M  V30 600 C 70.5365 -5.74235 1.41448 0
M  V30 601 C 69.8985 -6.67634 2.24598 0
M  V30 602 H 65.9975 -0.755418 -0.202158 0
M  V30 603 H 68.5815 -1.94378 0.111923 0
M  V30 604 H 66.7525 -3.33635 -1.98852 0
M  V30 605 H 68.4845 -3.56988 -1.90635 0
M  V30 606 H 65.2395 -4.72923 -0.253178 0
M  V30 607 H 65.6635 -6.57674 1.60607 0
M  V30 608 H 70.3055 -4.22683 -0.0992798 0
M  V30 609 H 68.0235 -7.56151 2.85063 0
M  V30 610 H 71.6095 -5.63057 1.46484 0
M  V30 611 H 70.4895 -7.27817 2.9198 0
M  V30 612 N 67.9926 0.231505 -1.5589 0
M  V30 613 C 69.2206 0.974505 -1.82513 0
M  V30 614 C 69.6356 1.78344 -0.619591 0
M  V30 615 O 68.9926 1.77792 0.411848 0
M  V30 616 C 69.0436 1.90007 -3.07538 0
M  V30 617 O 68.7646 1.12385 -4.2344 0
M  V30 618 C 70.2656 2.75779 -3.47075 0
M  V30 619 H 67.4856 0.286065 -0.606966 0
M  V30 620 H 70.0296 0.249739 -2.02969 0
M  V30 621 H 68.1846 2.57891 -2.89086 0
M  V30 622 H 68.5986 1.75125 -4.944 0
M  V30 623 H 70.0726 3.36443 -4.37619 0
M  V30 624 H 70.5496 3.47672 -2.68367 0
M  V30 625 H 71.1556 2.13323 -3.67931 0
M  V30 626 N 69.4707 1.49531 0.497807 0
M  V30 627 C 70.4337 1.65916 1.58128 0
M  V30 628 C 71.4337 0.530825 1.51786 0
M  V30 629 O 72.6237 0.797342 1.54881 0
M  V30 630 C 69.7557 1.65951 2.9778 0
M  V30 631 H 70.9487 2.62556 1.44929 0
M  V30 632 H 68.5017 1.38611 0.722275 0
M  V30 633 H 69.2367 0.709065 3.16453 0
M  V30 634 H 69.0217 2.47897 3.03792 0
M  V30 635 H 70.5117 1.80673 3.76493 0
M  V30 636 N 70.9488 -0.749086 1.3866 0
M  V30 637 C 71.8788 -1.8764 1.38973 0
M  V30 638 C 72.8598 -1.68178 0.255004 0
M  V30 639 O 74.0448 -1.88704 0.458754 0
M  V30 640 C 71.1748 -3.25222 1.21851 0
M  V30 641 C 70.1288 -3.59295 2.32575 0
M  V30 642 C 69.4548 -4.95663 2.00555 0
M  V30 643 C 70.7548 -3.63709 3.7485 0
M  V30 644 H 72.4488 -1.87635 2.3331 0
M  V30 645 H 69.9948 -0.901329 1.12303 0
M  V30 646 H 71.9478 -4.03746 1.20695 0
M  V30 647 H 70.6718 -3.25719 0.239775 0
M  V30 648 H 69.3308 -2.83093 2.32925 0
M  V30 649 H 68.9788 -4.92724 1.01154 0
M  V30 650 H 68.6788 -5.19429 2.74714 0
M  V30 651 H 70.2028 -5.7656 2.01024 0
M  V30 652 H 71.6168 -4.32338 3.76506 0
M  V30 653 H 70.0138 -3.98986 4.48252 0
M  V30 654 H 71.0838 -2.63834 4.06841 0
M  V30 655 N 72.4269 -1.23603 -0.977757 0
M  V30 656 C 73.6739 -1.06971 -1.71941 0
M  V30 657 C 74.0019 0.393009 -1.90488 0
M  V30 658 O 73.2569 1.30719 -1.4564 0
M  V30 659 C 73.5559 -1.7433 -3.11999 0
M  V30 660 C 73.2219 -3.24252 -3.13323 0
M  V30 661 C 71.8839 -3.65156 -3.13392 0
M  V30 662 C 74.2359 -4.20141 -3.08433 0
M  V30 663 C 71.5639 -5.00403 -3.0629 0
M  V30 664 C 73.9159 -5.55384 -3.02873 0
M  V30 665 C 72.5799 -5.95647 -3.01265 0
M  V30 666 H 71.8499 -0.391433 -0.629175 0
M  V30 667 H 74.4969 -1.53572 -1.14403 0
M  V30 668 H 72.8019 -1.20096 -3.7294 0
M  V30 669 H 74.4989 -1.58936 -3.68158 0
M  V30 670 H 71.0889 -2.91692 -3.14029 0
M  V30 671 H 75.2729 -3.89547 -3.07517 0
M  V30 672 H 70.5289 -5.3081 -3.03399 0
M  V30 673 H 74.7029 -6.29398 -2.98046 0
M  V30 674 H 72.3299 -7.0041 -2.95516 0
M  V30 675 N 73.905 1.17692 -1.04816 0
M  V30 676 C 75.182 1.83768 -0.669963 0
M  V30 677 C 75.562 1.93232 0.849986 0
M  V30 678 O 74.91 1.46397 1.75443 0
M  V30 679 C 75.12 3.21641 -1.35455 0
M  V30 680 C 76.468 3.97592 -1.49017 0
M  V30 681 O 77.492 3.31107 -1.31326 0
M  V30 682 O 76.351 5.16729 -1.77914 0
M  V30 683 H 73.445 0.792799 -0.235368 0
M  V30 684 H 75.991 1.25021 -1.14751 0
M  V30 685 H 74.763 3.097 -2.39168 0
M  V30 686 H 74.386 3.88052 -0.866107 0
M  V30 687 N 75.3831 0.828654 1.34056 0
M  V30 688 C 76.6131 0.431993 2.02033 0
M  V30 689 C 77.0211 -0.96844 1.62536 0
M  V30 690 O 76.3641 -1.6391 0.829408 0
M  V30 691 C 76.4261 0.461224 3.56529 0
M  V30 692 C 76.0901 1.81599 4.1937 0
M  V30 693 C 77.0871 2.7777 4.39477 0
M  V30 694 C 74.7721 2.10604 4.56017 0
M  V30 695 C 76.7661 4.01115 4.95364 0
M  V30 696 C 74.4531 3.34207 5.11614 0
M  V30 697 C 75.4511 4.2928 5.31232 0
M  V30 698 O 75.1391 5.50699 5.8565 0
M  V30 699 H 74.8711 0.170943 0.654029 0
M  V30 700 H 77.4251 1.11988 1.72185 0
M  V30 701 H 75.6551 -0.283388 3.8566 0
M  V30 702 H 77.3441 0.0838149 4.05813 0
M  V30 703 H 78.1101 2.56659 4.11523 0
M  V30 704 H 73.9891 1.37402 4.40047 0
M  V30 705 H 77.5331 4.75333 5.10592 0
M  V30 706 H 73.4301 3.55179 5.38997 0
M  V30 707 H 74.1981 5.52298 6.04077 0
M  V30 708 N 76.8612 -1.46375 0.584142 0
M  V30 709 C 77.7712 -2.34115 -0.150728 0
M  V30 710 C 78.7872 -1.49838 -0.884567 0
M  V30 711 O 79.9632 -1.82704 -0.847429 0
M  V30 712 C 77.0282 -3.2705 -1.15062 0
M  V30 713 C 76.0892 -4.27228 -0.421293 0
M  V30 714 C 75.3222 -5.15722 -1.37355 0
M  V30 715 O 75.5452 -5.07176 -2.61014 0
M  V30 716 O 74.4792 -5.95383 -0.883355 0
M  V30 717 H 78.3052 -2.98309 0.569708 0
M  V30 718 H 75.8902 -1.45373 0.344535 0
M  V30 719 H 77.7722 -3.84381 -1.72712 0
M  V30 720 H 76.4472 -2.65451 -1.8525 0
M  V30 721 H 75.3542 -3.7358 0.197085 0
M  V30 722 H 76.6872 -4.91616 0.239641 0
M  V30 723 N 78.3393 -0.321999 -1.54275 0
M  V30 724 C 79.7503 0.166384 -1.85957 0
M  V30 725 C 80.1013 1.51747 -1.24367 0
M  V30 726 O 79.2263 2.09317 -0.549124 0
M  V30 727 C 79.8213 0.308681 -3.37391 0
M  V30 728 C 78.3803 0.741286 -3.69028 0
M  V30 729 C 77.5273 -0.137937 -2.76957 0
M  V30 730 H 80.4783 -0.542335 -1.49146 0
M  V30 731 H 80.4993 1.13984 -3.63026 0
M  V30 732 H 80.0113 -0.674809 -3.82188 0
M  V30 733 H 78.1123 1.73458 -3.29762 0
M  V30 734 H 78.2253 0.546118 -4.75977 0
M  V30 735 H 76.5893 0.386251 -2.51754 0
M  V30 736 H 77.3723 -1.11816 -3.2458 0
M  V30 737 N 79.8174 1.5752 -0.0501392 0
M  V30 738 C 81.0424 1.97376 0.636997 0
M  V30 739 C 81.4674 0.927466 1.63645 0
M  V30 740 O 80.8254 -0.10941 1.8097 0
M  V30 741 C 80.8734 3.36304 1.30123 0
M  V30 742 O 79.9774 3.34156 2.41689 0
M  V30 743 H 79.3184 0.642998 0.165679 0
M  V30 744 H 81.8484 2.04258 -0.118233 0
M  V30 745 H 81.8584 3.73008 1.65315 0
M  V30 746 H 80.5334 4.11993 0.568746 0
M  V30 747 H 79.1104 3.09196 2.08451 0
M  V30 748 N 81.2955 -0.223234 1.56011 0
M  V30 749 C 82.5435 -0.946003 1.78592 0
M  V30 750 C 82.8645 -1.84936 0.618349 0
M  V30 751 O 82.1345 -1.92473 -0.364833 0
M  V30 752 H 80.7145 -0.352298 0.658707 0
M  V30 753 H 83.3765 -0.235494 1.93472 0
M  V30 754 H 82.4725 -1.55381 2.70672 0
M  V30 755 N 82.7736 -1.49793 -0.48987 0
M  V30 756 C 83.7056 -1.63413 -1.60713 0
M  V30 757 C 84.7186 -0.516329 -1.54395 0
M  V30 758 O 85.9076 -0.788812 -1.60125 0
M  V30 759 C 83.0076 -1.58516 -2.99543 0
M  V30 760 C 82.1806 -2.86016 -3.30928 0
M  V30 761 C 81.2396 -2.74018 -4.49222 0
M  V30 762 O 80.2656 -3.47964 -4.50455 0
M  V30 763 N 81.4676 -1.86309 -5.4979 0
M  V30 764 H 84.2326 -2.59777 -1.49452 0
M  V30 765 H 81.7936 -1.47022 -0.677955 0
M  V30 766 H 83.7856 -1.48128 -3.76617 0
M  V30 767 H 82.3556 -0.69965 -3.0467 0
M  V30 768 H 81.5756 -3.10672 -2.42645 0
M  V30 769 H 82.8636 -3.70521 -3.487 0
M  V30 770 H 82.2616 -1.2551 -5.51601 0
M  V30 771 H 80.8186 -1.81837 -6.25922 0
M  V30 772 N 84.2517 0.741722 -1.39055 0
M  V30 773 C 85.5287 1.49252 -1.26425 0
M  V30 774 C 85.9087 2.10705 0.129144 0
M  V30 775 O 85.2567 1.98045 1.13976 0
M  V30 776 C 85.4667 2.54934 -2.38347 0
M  V30 777 C 86.8147 3.21506 -2.77343 0
M  V30 778 O 87.8387 2.65245 -2.37747 0
M  V30 779 O 86.6977 4.23294 -3.45665 0
M  V30 780 H 83.7917 0.662451 -0.495064 0
M  V30 781 H 86.3377 0.776121 -1.50912 0
M  V30 782 H 85.1097 2.07857 -3.31529 0
M  V30 783 H 84.7327 3.34141 -2.15489 0
M  V30 784 N 85.7298 1.2412 0.971189 0
M  V30 785 C 86.6398 1.04747 2.09917 0
M  V30 786 C 87.6558 -0.0107162 1.73997 0
M  V30 787 O 88.8318 0.186714 2.00533 0
M  V30 788 C 85.8968 0.650828 3.40537 0
M  V30 789 C 84.9578 1.7851 3.90426 0
M  V30 790 C 84.1908 1.40729 5.14812 0
M  V30 791 O 84.4138 0.29557 5.69634 0
M  V30 792 O 83.3478 2.23168 5.58999 0
M  V30 793 H 87.1738 1.99304 2.29154 0
M  V30 794 H 84.7588 1.02908 1.08307 0
M  V30 795 H 86.6408 0.440992 4.19086 0
M  V30 796 H 85.3158 -0.265649 3.22608 0
M  V30 797 H 84.2228 2.04966 3.12953 0
M  V30 798 H 85.5558 2.68023 4.12825 0
M  V30 799 N 87.2079 -1.17134 1.05439 0
M  V30 800 C 88.1379 -2.2342 0.678649 0
M  V30 801 C 89.1189 -1.66971 -0.32476 0
M  V30 802 O 90.3039 -1.93149 -0.201802 0
M  V30 803 C 87.4339 -3.47256 0.0552099 0
M  V30 804 C 86.3879 -4.16543 0.98365 0
M  V30 805 C 85.7139 -5.34231 0.223961 0
M  V30 806 C 87.0139 -4.68495 2.3089 0
M  V30 807 H 88.7079 -2.55105 1.56722 0
M  V30 808 H 86.2539 -1.2262 0.754998 0
M  V30 809 H 88.2069 -4.20828 -0.21946 0
M  V30 810 H 86.9309 -3.14846 -0.868319 0
M  V30 811 H 85.5899 -3.44887 1.24293 0
M  V30 812 H 85.2379 -4.98071 -0.702412 0
M  V30 813 H 84.9379 -5.81527 0.842627 0
M  V30 814 H 86.4619 -6.10585 -0.0433671 0
M  V30 815 H 87.8759 -5.33691 2.09396 0
M  V30 816 H 86.2729 -5.26379 2.88176 0
M  V30 817 H 87.3429 -3.85169 2.94572 0
M  V30 818 N 88.686 -0.835752 -1.33615 0
M  V30 819 C 89.649 -0.272 -2.2758 0
M  V30 820 C 90.649 0.557487 -1.50827 0
M  V30 821 O 91.839 0.37173 -1.70188 0
M  V30 822 C 88.971 0.617173 -3.35267 0
M  V30 823 H 90.164 -1.10111 -2.78954 0
M  V30 824 H 87.717 -0.608594 -1.43965 0
M  V30 825 H 88.452 1.46884 -2.89129 0
M  V30 826 H 88.237 0.0237066 -3.92093 0
M  V30 827 H 89.727 1.005 -4.05326 0
M  V30 828 N 90.1641 1.46063 -0.591896 0
M  V30 829 C 91.0941 2.33172 0.123673 0
M  V30 830 C 92.0751 1.45897 0.87453 0
M  V30 831 O 93.2601 1.74698 0.848181 0
M  V30 832 C 90.3901 3.28336 1.13194 0
M  V30 833 C 89.3441 4.25124 0.495324 0
M  V30 834 C 88.6701 5.09863 1.61071 0
M  V30 835 C 89.9701 5.19143 -0.573425 0
M  V30 836 H 91.6641 2.93252 -0.603646 0
M  V30 837 H 89.2101 1.41014 -0.291741 0
M  V30 838 H 91.1631 3.88137 1.64097 0
M  V30 839 H 89.8871 2.66383 1.88965 0
M  V30 840 H 88.5461 3.66599 0.00729452 0
M  V30 841 H 88.1941 4.44288 2.35832 0
M  V30 842 H 87.8941 5.75417 1.19035 0
M  V30 843 H 89.4181 5.72529 2.12233 0
M  V30 844 H 90.8321 5.73106 -0.1491 0
M  V30 845 H 89.2291 5.93089 -0.914636 0
M  V30 846 H 90.2991 4.62519 -1.45617 0
M  V30 847 N 91.6422 0.330177 1.54103 0
M  V30 848 C 93.0582 -0.0222371 1.59585 0
M  V30 849 C 93.2582 -1.49902 1.34654 0
M  V30 850 O 92.3142 -2.25592 1.13421 0
M  V30 851 C 93.6272 0.401932 2.98002 0
M  V30 852 C 95.1752 0.353145 3.11001 0
M  V30 853 C 95.6502 0.752576 4.51775 0
M  V30 854 N 97.1412 0.706239 4.57784 0
M  V30 855 C 97.8762 0.987417 5.64834 0
M  V30 856 N 97.3722 1.33607 6.79795 0
M  V30 857 N 99.1652 0.91254 5.54643 0
M  V30 858 H 91.3162 1.29228 1.68564 0
M  V30 859 H 93.5792 0.525906 0.78875 0
M  V30 860 H 93.2852 1.4311 3.21267 0
M  V30 861 H 93.1592 -0.229699 3.765 0
M  V30 862 H 95.5462 -0.666822 2.87467 0
M  V30 863 H 95.6272 1.0198 2.34593 0
M  V30 864 H 95.2712 1.77049 4.76042 0
M  V30 865 H 95.2012 0.0635409 5.26562 0
M  V30 866 H 97.6922 0.44889 3.75224 0
M  V30 867 H 98.0052 1.53582 7.57385 0
M  V30 868 H 96.3502 1.37439 6.81275 0
M  V30 869 H 99.5412 0.639601 4.6371 0
M  V30 870 H 99.7142 1.13503 6.37982 0
M  V30 871 N 93.1203 -1.57491 0.0584922 0
M  V30 872 C 94.0673 -2.11958 -0.913376 0
M  V30 873 C 95.0373 -1.02875 -1.30407 0
M  V30 874 O 96.2223 -1.30464 -1.39226 0
M  V30 875 C 93.3623 -2.67497 -2.18035 0
M  V30 876 C 92.4753 -3.90691 -1.84349 0
M  V30 877 C 91.6103 -4.3452 -3.05559 0
M  V30 878 C 90.6493 -5.50395 -2.67827 0
M  V30 879 N 89.7863 -5.89244 -3.81754 0
M  V30 880 H 94.6263 -2.94704 -0.442017 0
M  V30 881 H 92.1633 -1.45643 -0.206545 0
M  V30 882 H 94.1213 -2.978 -2.92183 0
M  V30 883 H 92.7513 -1.87537 -2.62735 0
M  V30 884 H 91.8033 -3.66934 -1.00319 0
M  V30 885 H 93.1153 -4.7489 -1.5258 0
M  V30 886 H 92.2693 -4.66414 -3.87998 0
M  V30 887 H 91.0083 -3.49147 -3.40511 0
M  V30 888 H 90.0133 -5.18165 -1.83806 0
M  V30 889 H 91.2383 -6.3749 -2.34059 0
M  V30 890 H 89.1843 -5.06823 -4.16493 0
M  V30 891 H 89.1013 -6.68151 -3.53708 0
M  V30 892 H 90.3693 -6.25756 -4.64811 0
M  V30 893 N 94.5984 0.214957 -1.56127 0
M  V30 894 C 95.8464 0.936518 -1.79091 0
M  V30 895 C 96.1674 1.84606 -0.628148 0
M  V30 896 O 95.4374 1.92664 0.35462 0
M  V30 897 H 94.0174 0.3488 -0.660566 0
M  V30 898 H 96.6794 0.22523 -1.93594 0
M  V30 899 H 95.7754 1.53943 -2.71492 0
M  V30 900 N 96.0765 1.50051 0.48192 0
M  V30 901 C 97.3535 1.51009 1.2432 0
M  V30 902 C 97.7335 0.248587 2.09631 0
M  V30 903 O 97.0815 -0.768409 2.15192 0
M  V30 904 C 97.2915 2.79981 2.08355 0
M  V30 905 C 98.6395 3.3022 2.66908 0
M  V30 906 O 99.6635 2.81228 2.18607 0
M  V30 907 O 98.5225 4.15595 3.54884 0
M  V30 908 H 95.6165 0.605239 0.563573 0
M  V30 909 H 98.1625 1.62332 0.494627 0
M  V30 910 H 96.9345 3.63275 1.45419 0
M  V30 911 H 96.5575 2.7161 2.90368 0
M  V30 912 N 97.5546 -0.734337 1.39446 0
M  V30 913 C 98.9706 -1.03997 1.21065 0
M  V30 914 C 99.1706 -2.01369 0.0727019 0
M  V30 915 O 98.2266 -2.45856 -0.575426 0
M  V30 916 C 99.5396 -1.60163 2.54496 0
M  V30 917 C 101.088 -1.7224 2.61347 0
M  V30 918 C 101.563 -2.31814 3.95002 0
M  V30 919 N 103.054 -2.39223 3.96644 0
M  V30 920 C 103.789 -2.86258 4.96834 0
M  V30 921 N 103.285 -3.33184 6.07421 0
M  V30 922 N 105.078 -2.85473 4.84213 0
M  V30 923 H 97.2286 -0.0885624 2.12215 0
M  V30 924 H 99.4916 -0.10191 0.942506 0
M  V30 925 H 99.1976 -0.960811 3.38321 0
M  V30 926 H 99.0716 -2.5896 2.74262 0
M  V30 927 H 101.459 -2.35443 1.77906 0
M  V30 928 H 101.54 -0.720939 2.4543 0
M  V30 929 H 101.184 -1.69238 4.78875 0
M  V30 930 H 101.114 -3.32638 4.08239 0
M  V30 931 H 103.605 -2.06057 3.16779 0
M  V30 932 H 103.918 -3.67586 6.7978 0
M  V30 933 H 102.263 -3.31191 6.11013 0
M  V30 934 H 105.454 -2.48136 3.96921 0
M  V30 935 H 105.627 -3.21814 5.62441 0
M  V30 936 N 99.0327 -1.24633 -0.964593 0
M  V30 937 C 100.279 -1.08949 -1.71049 0
M  V30 938 C 100.612 0.370302 -1.90637 0
M  V30 939 O 99.8867 1.27349 -1.47011 0
M  V30 940 C 100.17 -1.83329 -3.0994 0
M  V30 941 C 100.023 -3.37077 -2.97824 0
M  V30 942 C 101.342 -1.60846 -4.09654 0
M  V30 943 H 98.4607 -0.397178 -0.620821 0
M  V30 944 H 101.103 -1.5334 -1.12191 0
M  V30 945 H 99.2527 -1.45597 -3.60186 0
M  V30 946 H 100.925 -3.84425 -2.5498 0
M  V30 947 H 99.1677 -3.65298 -2.33965 0
M  V30 948 H 99.8387 -3.84324 -3.96231 0
M  V30 949 H 102.315 -1.93674 -3.68279 0
M  V30 950 H 101.191 -2.1534 -5.04896 0
M  V30 951 H 101.452 -0.547434 -4.38698 0
M  V30 952 N 100.511 1.16574 -1.06058 0
M  V30 953 C 101.421 2.2452 -0.680282 0
M  V30 954 C 102.437 1.71348 0.302604 0
M  V30 955 O 103.613 2.00822 0.152513 0
M  V30 956 C 100.678 3.46629 -0.0700315 0
M  V30 957 C 99.7388 4.14849 -1.10448 0
M  V30 958 C 98.9718 5.31129 -0.523256 0
M  V30 959 O 99.1948 5.66514 0.664709 0
M  V30 960 O 98.1288 5.88526 -1.26179 0
M  V30 961 H 101.955 2.59355 -1.58015 0
M  V30 962 H 99.5398 1.24043 -0.832694 0
M  V30 963 H 101.422 4.20543 0.268667 0
M  V30 964 H 100.097 3.13573 0.803353 0
M  V30 965 H 99.0038 3.42916 -1.49532 0
M  V30 966 H 100.337 4.51954 -1.94931 0
M  V30 967 N 101.989 0.842826 1.3317 0
M  V30 968 C 103.235 0.441099 1.97945 0
M  V30 969 C 103.568 -0.998024 1.66593 0
M  V30 970 O 102.843 -1.69839 0.947898 0
M  V30 971 C 103.126 0.666841 3.53872 0
M  V30 972 C 102.979 2.15352 3.94897 0
M  V30 973 C 104.298 0.115544 4.39948 0
M  V30 974 H 101.417 0.161739 0.719034 0
M  V30 975 H 104.059 1.05907 1.57746 0
M  V30 976 H 102.209 0.140828 3.88245 0
M  V30 977 H 103.881 2.7447 3.70761 0
M  V30 978 H 102.124 2.63653 3.44484 0
M  V30 979 H 102.795 2.26221 5.03516 0
M  V30 980 H 105.271 0.565213 4.12243 0
M  V30 981 H 104.147 0.303152 5.48062 0
M  V30 982 H 104.408 -0.980935 4.3108 0
M  V30 983 N 103.467 -1.45747 0.599634 0
M  V30 984 C 104.397 -2.33235 -0.111306 0
M  V30 985 C 105.378 -1.46359 -0.866781 0
M  V30 986 O 106.563 -1.75146 -0.838904 0
M  V30 987 C 103.693 -3.28932 -1.11451 0
M  V30 988 C 102.647 -4.25381 -0.472772 0
M  V30 989 C 101.973 -5.1071 -1.58365 0
M  V30 990 C 103.273 -5.18831 0.600948 0
M  V30 991 H 104.967 -2.92927 0.61919 0
M  V30 992 H 102.513 -1.40857 0.299215 0
M  V30 993 H 104.466 -3.89002 -1.62036 0
M  V30 994 H 103.19 -2.67381 -1.8755 0
M  V30 995 H 101.849 -3.66598 0.0121472 0
M  V30 996 H 101.497 -4.45533 -2.33473 0
M  V30 997 H 101.197 -5.7604 -1.15982 0
M  V30 998 H 102.721 -5.73647 -2.09194 0
M  V30 999 H 104.135 -5.73019 0.179491 0
M  V30 1000 H 102.532 -5.92595 0.946076 0
M  V30 1001 H 103.602 -4.6174 1.48068 0
M  V30 1002 N 104.945 -0.338344 -1.53925 0
M  V30 1003 C 106.17 0.263987 -2.05713 0
M  V30 1004 C 106.595 1.43847 -1.21201 0
M  V30 1005 O 105.953 1.79904 -0.224535 0
M  V30 1006 C 106.001 0.662 -3.54471 0
M  V30 1007 O 105.105 1.76265 -3.72833 0
M  V30 1008 H 104.446 0.0448722 -0.662482 0
M  V30 1009 H 106.976 -0.491048 -1.9862 0
M  V30 1010 H 106.986 0.940594 -3.9701 0
M  V30 1011 H 105.661 -0.196937 -4.15433 0
M  V30 1012 H 104.238 1.48173 -3.42198 0
M  V30 1013 N 106.423 1.57458 -0.0668435 0
M  V30 1014 C 107.839 1.56947 0.289772 0
M  V30 1015 C 108.039 1.07584 1.70376 0
M  V30 1016 O 107.095 0.739486 2.41429 0
M  V30 1017 C 108.408 3.0052 0.103943 0
M  V30 1018 C 109.956 3.12517 0.173857 0
M  V30 1019 C 110.431 4.57997 0.0163682 0
M  V30 1020 N 111.922 4.63144 0.0721352 0
M  V30 1021 C 112.657 5.73394 -0.0253794 0
M  V30 1022 N 112.153 6.92576 -0.176133 0
M  V30 1023 N 113.946 5.62091 0.0313305 0
M  V30 1024 H 106.097 1.87863 -0.991027 0
M  V30 1025 H 108.36 0.86583 -0.38606 0
M  V30 1026 H 108.066 3.40729 -0.871572 0
M  V30 1027 H 107.94 3.67304 0.858366 0
M  V30 1028 H 110.327 2.72197 1.13985 0
M  V30 1029 H 110.408 2.48381 -0.611586 0
M  V30 1030 H 110.052 4.99005 -0.946374 0
M  V30 1031 H 109.982 5.20158 0.821153 0
M  V30 1032 H 112.473 3.77436 0.187263 0
M  V30 1033 H 112.786 7.72418 -0.242821 0
M  V30 1034 H 111.131 6.94678 -0.211429 0
M  V30 1035 H 114.322 4.67867 0.147773 0
M  V30 1036 H 114.495 6.47982 -0.048121 0
M  V30 1037 N 107.901 -0.206675 1.56239 0
M  V30 1038 C 109.178 -0.954051 1.70755 0
M  V30 1039 C 109.558 -2.01841 0.618353 0
M  V30 1040 O 108.906 -2.25444 -0.372434 0
M  V30 1041 C 109.116 -1.551 3.12642 0
M  V30 1042 C 110.464 -2.03757 3.72516 0
M  V30 1043 O 111.488 -1.64965 3.15698 0
M  V30 1044 O 110.347 -2.75103 4.72208 0
M  V30 1045 H 107.441 -0.446636 0.696021 0
M  V30 1046 H 109.987 -0.197283 1.68549 0
M  V30 1047 H 108.759 -0.783212 3.83382 0
M  V30 1048 H 108.382 -2.37291 3.19028 0
M  V30 1049 N 109.379 -1.50304 -0.473955 0
M  V30 1050 C 110.342 -1.6841 -1.55469 0
M  V30 1051 C 111.342 -0.554905 -1.50922 0
M  V30 1052 O 112.532 -0.821882 -1.53593 0
M  V30 1053 C 109.664 -1.70667 -2.95102 0
M  V30 1054 H 110.857 -2.64828 -1.40733 0
M  V30 1055 H 108.41 -1.39742 -0.700132 0
M  V30 1056 H 109.145 -0.75932 -3.15285 0
M  V30 1057 H 108.93 -2.52698 -2.9981 0
M  V30 1058 H 110.42 -1.8664 -3.73571 0
M  V30 1059 N 110.857 0.726932 -1.39834 0
M  V30 1060 C 111.82 1.82269 -1.38962 0
M  V30 1061 C 112.82 1.58248 -0.285334 0
M  V30 1062 O 114.01 1.65499 -0.54366 0
M  V30 1063 C 111.142 3.20186 -1.17019 0
M  V30 1064 H 112.335 1.84443 -2.36476 0
M  V30 1065 H 109.888 0.931416 -1.25516 0
M  V30 1066 H 110.623 3.23669 -0.202204 0
M  V30 1067 H 110.408 3.3902 -1.96998 0
M  V30 1068 H 111.898 4.00235 -1.1917 0
M  V30 1069 N 112.336 1.25143 0.95797 0
M  V30 1070 C 113.585 1.0909 1.69654 0
M  V30 1071 C 113.898 -0.368548 1.92097 0
M  V30 1072 O 115.104 -0.649455 2.63618 0
M  V30 1073 C 113.56 1.90395 3.05414 0
M  V30 1074 C 113.168 3.4081 2.90779 0
M  V30 1075 C 114.912 1.82901 3.83076 0
M  V30 1076 C 112.819 4.14423 4.21909 0
M  V30 1077 H 111.749 0.404625 0.636235 0
M  V30 1078 H 114.4 1.4931 1.06672 0
M  V30 1079 H 112.782 1.42996 3.69281 0
M  V30 1080 H 113.956 3.95859 2.35865 0
M  V30 1081 H 112.271 3.49361 2.26575 0
M  V30 1082 H 114.868 2.35196 4.80195 0
M  V30 1083 H 115.211 0.796224 4.08615 0
M  V30 1084 H 115.744 2.28033 3.25954 0
M  V30 1085 H 112.483 5.18102 4.01561 0
M  V30 1086 H 112.003 3.64159 4.76601 0
M  V30 1087 H 113.682 4.21956 4.90471 0
M  V30 1088 N 113.814 -1.1601 1.06675 0
M  V30 1089 C 115.039 -1.91068 0.806706 0
M  V30 1090 C 115.464 -1.77112 -0.633485 0
M  V30 1091 O 114.822 -1.09908 -1.44187 0
M  V30 1092 C 114.87 -3.39655 1.21106 0
M  V30 1093 O 113.974 -4.10893 0.352189 0
M  V30 1094 H 113.315 -0.595125 0.294486 0
M  V30 1095 H 115.845 -1.46955 1.42356 0
M  V30 1096 H 115.855 -3.90434 1.18428 0
M  V30 1097 H 114.53 -3.49132 2.26008 0
M  V30 1098 H 113.107 -3.70285 0.440868 0
M  V30 1099 N 115.292 -0.849877 -1.32721 0
M  V30 1100 C 116.54 -0.450032 -1.97026 0
M  V30 1101 C 116.861 0.996604 -1.67609 0
M  V30 1102 O 116.131 1.6958 -0.980786 0
M  V30 1103 H 114.711 -0.163426 -0.728904 0
M  V30 1104 H 117.373 -1.08526 -1.6189 0
M  V30 1105 H 116.469 -0.591146 -3.0645 0
M  V30 1106 N 116.77 1.45427 -0.607355 0
M  V30 1107 C 118.047 1.9557 -0.0344566 0
M  V30 1108 C 118.427 1.54979 1.43334 0
M  V30 1109 O 117.775 0.812241 2.13576 0
M  V30 1110 C 117.985 3.48226 -0.232321 0
M  V30 1111 C 119.333 4.2445 -0.113001 0
M  V30 1112 O 120.357 3.55829 -0.162431 0
M  V30 1113 O 119.216 5.465 0.00209442 0
M  V30 1114 H 116.31 0.826222 0.0358667 0
M  V30 1115 H 118.856 1.55594 -0.6774 0
M  V30 1116 H 117.628 3.70739 -1.25174 0
M  V30 1117 H 117.251 3.95092 0.445896 0
M  V30 1118 N 118.248 0.346503 1.53744 0
M  V30 1119 C 119.158 -0.517293 2.28826 0
M  V30 1120 C 120.174 -1.10935 1.3405 0
M  V30 1121 O 121.35 -1.1244 1.6709 0
M  V30 1122 C 118.415 -1.65098 3.04866 0
M  V30 1123 C 117.476 -1.0884 4.15274 0
M  V30 1124 C 116.709 -2.16806 4.87679 0
M  V30 1125 O 116.932 -3.3758 4.59778 0
M  V30 1126 O 115.866 -1.80934 5.74061 0
M  V30 1127 H 119.692 0.0931396 3.03557 0
M  V30 1128 H 117.277 0.111458 1.48984 0
M  V30 1129 H 119.159 -2.31053 3.5241 0
M  V30 1130 H 117.834 -2.24717 2.32989 0
M  V30 1131 H 116.741 -0.3933 3.72027 0
M  V30 1132 H 118.074 -0.537036 4.89261 0
M  V30 1133 N 119.726 -1.57421 0.075193 0
M  V30 1134 C 120.974 -1.93236 -0.591974 0
M  V30 1135 C 121.295 -0.956241 -1.69944 0
M  V30 1136 O 120.565 -0.00494792 -1.95899 0
M  V30 1137 H 119.145 -0.713355 -0.22166 0
M  V30 1138 H 121.807 -1.9444 0.133848 0
M  V30 1139 H 120.903 -2.95131 -1.01509 0
M  V30 1140 N 121.204 0.198386 -1.56346 0
M  V30 1141 C 122.45 0.916115 -1.81601 0
M  V30 1142 C 122.805 1.81025 -0.651744 0
M  V30 1143 O 122.098 1.88316 0.353229 0
M  V30 1144 C 122.292 1.77031 -3.10475 0
M  V30 1145 C 122.121 0.960365 -4.39326 0
M  V30 1146 C 120.891 0.646093 -5.01152 0
M  V30 1147 C 123.089 0.314628 -5.13337 0
M  V30 1148 N 121.071 -0.182828 -6.13628 0
M  V30 1149 C 122.442 -0.37664 -6.18855 0
M  V30 1150 C 124.497 0.230019 -4.97368 0
M  V30 1151 C 123.2 -1.14445 -7.10137 0
M  V30 1152 C 125.226 -0.524389 -5.89071 0
M  V30 1153 C 124.588 -1.20412 -6.94032 0
M  V30 1154 H 120.687 0.314732 -0.715868 0
M  V30 1155 H 123.271 0.185102 -1.93818 0
M  V30 1156 H 121.442 2.47295 -2.99499 0
M  V30 1157 H 123.174 2.42727 -3.2383 0
M  V30 1158 H 119.929 0.969724 -4.63566 0
M  V30 1159 H 120.353 -0.586802 -6.74452 0
M  V30 1160 H 124.995 0.741184 -4.16253 0
M  V30 1161 H 122.713 -1.66706 -7.90718 0
M  V30 1162 H 126.299 -0.591167 -5.78789 0
M  V30 1163 H 125.179 -1.77853 -7.63766 0
M  V30 1164 N 122.682 1.50554 0.465978 0
M  V30 1165 C 123.928 1.63006 1.21658 0
M  V30 1166 C 124.283 0.328613 1.89573 0
M  V30 1167 O 123.576 -0.673813 1.79361 0
M  V30 1168 C 123.77 2.75152 2.28093 0
M  V30 1169 C 123.599 4.16075 1.7062 0
M  V30 1170 C 122.369 4.82408 1.50368 0
M  V30 1171 C 124.567 5.00145 1.1983 0
M  V30 1172 N 122.549 6.07532 0.881924 0
M  V30 1173 C 123.92 6.16035 0.700083 0
M  V30 1174 C 125.975 4.85882 1.08733 0
M  V30 1175 C 124.678 7.19228 0.101835 0
M  V30 1176 C 126.704 5.89257 0.503016 0
M  V30 1177 C 126.066 7.04398 0.0152005 0
M  V30 1178 H 122.165 0.650596 0.433877 0
M  V30 1179 H 124.749 1.8769 0.517746 0
M  V30 1180 H 122.92 2.52181 2.95397 0
M  V30 1181 H 124.652 2.76935 2.95109 0
M  V30 1182 H 121.407 4.39788 1.75737 0
M  V30 1183 H 121.831 6.7443 0.589312 0
M  V30 1184 H 126.473 3.97144 1.4504 0
M  V30 1185 H 124.191 8.07637 -0.273426 0
M  V30 1186 H 127.777 5.80286 0.419451 0
M  V30 1187 H 126.657 7.83021 -0.429856 0
M  V30 1188 N 124.16 -0.719506 1.40217 0
M  V30 1189 C 125.123 -1.8153 1.39927 0
M  V30 1190 C 126.123 -1.58095 0.293723 0
M  V30 1191 O 127.313 -1.65209 0.552429 0
M  V30 1192 C 124.445 -3.19561 1.18716 0
M  V30 1193 H 125.638 -1.83186 2.37451 0
M  V30 1194 H 123.191 -0.924746 1.26008 0
M  V30 1195 H 123.926 -3.23557 0.219366 0
M  V30 1196 H 123.711 -3.3797 1.98793 0
M  V30 1197 H 125.201 -3.99598 1.21291 0
M  V30 1198 N 125.638 -1.25649 -0.95132 0
M  V30 1199 C 126.886 -1.10375 -1.69298 0
M  V30 1200 C 127.207 0.355339 -1.91735 0
M  V30 1201 O 126.477 1.25188 -1.50681 0
M  V30 1202 H 125.057 -0.405461 -0.627384 0
M  V30 1203 H 127.719 -1.57823 -1.14358 0
M  V30 1204 H 126.815 -1.61465 -2.67087 0
M  V30 1205 N 127.117 1.15442 -1.07289 0
M  V30 1206 C 128.049 2.19773 -0.650585 0
M  V30 1207 C 129.062 1.60076 0.296572 0
M  V30 1208 O 130.251 1.78293 0.0859905 0
M  V30 1209 C 127.351 3.38838 0.0650398 0
M  V30 1210 C 126.524 4.2808 -0.898141 0
M  V30 1211 C 125.583 5.2574 -0.219926 0
M  V30 1212 O 124.609 5.62654 -0.860773 0
M  V30 1213 N 125.811 5.71205 1.03466 0
M  V30 1214 H 128.576 2.56622 -1.54808 0
M  V30 1215 H 126.137 1.30551 -0.957494 0
M  V30 1216 H 128.129 4.01222 0.529415 0
M  V30 1217 H 126.699 3.00409 0.864466 0
M  V30 1218 H 125.919 3.62804 -1.54165 0
M  V30 1219 H 127.207 4.84577 -1.5512 0
M  V30 1220 H 126.605 5.43325 1.57526 0
M  V30 1221 H 125.162 6.35633 1.44272 0
M  V30 1222 N 128.595 0.856903 1.32268 0
M  V30 1223 C 129.841 0.462069 1.97466 0
M  V30 1224 C 130.174 -0.980298 1.67642 0
M  V30 1225 O 129.449 -1.68824 0.965858 0
M  V30 1226 C 129.732 0.704336 3.53145 0
M  V30 1227 C 129.585 2.19529 3.9259 0
M  V30 1228 C 130.904 0.1622 4.39801 0
M  V30 1229 H 128.023 0.169357 0.717278 0
M  V30 1230 H 130.665 1.07574 1.56614 0
M  V30 1231 H 128.815 0.181999 3.88073 0
M  V30 1232 H 130.487 2.78387 3.67829 0
M  V30 1233 H 128.73 2.67292 3.41668 0
M  V30 1234 H 129.401 2.31549 5.01088 0
M  V30 1235 H 131.877 0.608905 4.11621 0
M  V30 1236 H 130.753 0.361265 5.4771 0
M  V30 1237 H 131.014 -0.935158 4.32096 0
M  V30 1238 N 130.073 -1.45103 0.615059 0
M  V30 1239 C 131.321 -2.01784 0.112955 0
M  V30 1240 C 131.642 -1.48504 -1.26378 0
M  V30 1241 O 130.912 -0.682245 -1.83636 0
M  V30 1242 H 129.492 -0.745993 0.0387668 0
M  V30 1243 H 132.154 -1.77808 0.798141 0
M  V30 1244 H 131.25 -3.12025 0.0684069 0
M  V30 1245 N 131.551 -0.354651 -1.53558 0
M  V30 1246 C 132.799 0.237972 -2.00694 0
M  V30 1247 C 133.12 1.50173 -1.24391 0
M  V30 1248 O 132.39 1.92673 -0.354135 0
M  V30 1249 H 130.97 0.0909256 -0.741446 0
M  V30 1250 H 133.632 -0.478368 -1.88938 0
M  V30 1251 H 132.728 0.47264 -3.085 0
M  V30 1252 N 133.029 1.57378 -0.0835403 0
M  V30 1253 C 133.961 2.10389 0.909338 0
M  V30 1254 C 134.974 1.03858 1.25369 0
M  V30 1255 O 136.163 1.31338 1.20882 0
M  V30 1256 C 133.263 2.55908 2.2218 0
M  V30 1257 C 132.436 3.86145 2.05453 0
M  V30 1258 C 131.495 4.17633 3.20108 0
M  V30 1259 O 130.521 4.87043 2.94581 0
M  V30 1260 N 131.723 3.72113 4.45547 0
M  V30 1261 H 134.488 2.962 0.456657 0
M  V30 1262 H 132.049 1.61579 0.101877 0
M  V30 1263 H 134.041 2.74027 2.97811 0
M  V30 1264 H 132.611 1.75171 2.58909 0
M  V30 1265 H 131.831 3.7729 1.1422 0
M  V30 1266 H 133.119 4.7137 1.91541 0
M  V30 1267 H 132.517 3.16062 4.69171 0
M  V30 1268 H 131.074 3.95409 5.18165 0
M  V30 1269 N 134.507 -0.190092 1.56449 0
M  V30 1270 C 135.753 -0.911052 1.81184 0
M  V30 1271 C 136.086 -1.82699 0.658396 0
M  V30 1272 O 135.361 -1.91491 -0.340775 0
M  V30 1273 C 135.644 -1.72297 3.16205 0
M  V30 1274 C 135.497 -0.831419 4.42049 0
M  V30 1275 C 136.816 -2.69454 3.47969 0
M  V30 1276 H 133.935 -0.32977 0.659106 0
M  V30 1277 H 136.577 -0.178169 1.89163 0
M  V30 1278 H 134.727 -2.34778 3.09534 0
M  V30 1279 H 136.399 -0.220929 4.60771 0
M  V30 1280 H 134.642 -0.138406 4.33579 0
M  V30 1281 H 135.313 -1.43461 5.33032 0
M  V30 1282 H 137.789 -2.17104 3.54972 0
M  V30 1283 H 136.665 -3.23342 4.43555 0
M  V30 1284 H 136.926 -3.48744 2.71717 0
M  V30 1285 N 135.985 -1.50799 -0.457987 0
M  V30 1286 C 137.233 -1.62121 -1.2067 0
M  V30 1287 C 137.554 -0.329793 -1.92191 0
M  V30 1288 O 136.824 0.653409 -1.84682 0
M  V30 1289 H 135.404 -0.597441 -0.448411 0
M  V30 1290 H 138.066 -1.87637 -0.527096 0
M  V30 1291 H 137.162 -2.43882 -1.94751 0
M  V30 1292 N 137.463 0.71206 -1.40597 0
M  V30 1293 C 138.712 1.46754 -1.38369 0
M  V30 1294 C 139.025 1.95598 0.0097839 0
M  V30 1295 O 140.231 2.71059 0.154677 0
M  V30 1296 C 138.687 2.65289 -2.43207 0
M  V30 1297 C 138.295 2.23301 -3.88382 0
M  V30 1298 C 140.039 3.43008 -2.50091 0
M  V30 1299 C 137.946 3.38696 -4.84808 0
M  V30 1300 H 136.876 0.55118 -0.514506 0
M  V30 1301 H 139.527 0.774616 -1.66349 0
M  V30 1302 H 137.909 3.36769 -2.08332 0
M  V30 1303 H 139.083 1.59218 -4.32419 0
M  V30 1304 H 137.398 1.58618 -3.85006 0
M  V30 1305 H 139.995 4.28881 -3.1932 0
M  V30 1306 H 140.338 3.87065 -1.53253 0
M  V30 1307 H 140.871 2.78574 -2.83974 0
M  V30 1308 H 137.61 2.99668 -5.82992 0
M  V30 1309 H 137.13 4.01683 -4.45433 0
M  V30 1310 H 138.809 4.04712 -5.04794 0
M  V30 1311 N 138.941 1.26152 0.944643 0
M  V30 1312 C 140.188 1.11492 1.69044 0
M  V30 1313 C 140.516 -0.342366 1.91463 0
M  V30 1314 O 139.771 -1.26812 1.49054 0
M  V30 1315 C 140.07 1.82541 3.07268 0
M  V30 1316 C 139.736 3.32445 3.04616 0
M  V30 1317 C 138.398 3.73337 3.036 0
M  V30 1318 C 140.75 4.28171 2.97185 0
M  V30 1319 C 138.078 5.08348 2.92915 0
M  V30 1320 C 140.43 5.63218 2.88041 0
M  V30 1321 C 139.094 6.03426 2.85366 0
M  V30 1322 H 138.364 0.407977 0.618576 0
M  V30 1323 H 141.011 1.56551 1.10291 0
M  V30 1324 H 139.316 1.29941 3.69625 0
M  V30 1325 H 141.013 1.68642 3.63815 0
M  V30 1326 H 137.603 2.99915 3.06185 0
M  V30 1327 H 141.787 3.97563 2.97081 0
M  V30 1328 H 137.043 5.38667 2.89219 0
M  V30 1329 H 141.217 6.37078 2.81254 0
M  V30 1330 H 138.844 7.07999 2.76842 0
M  V30 1331 N 140.419 -1.14872 1.07899 0
M  V30 1332 C 141.83 -1.67367 0.827363 0
M  V30 1333 C 142.181 -1.85236 -0.646693 0
M  V30 1334 O 141.306 -1.55974 -1.50004 0
M  V30 1335 C 141.901 -3.04016 1.49532 0
M  V30 1336 C 140.46 -3.53566 1.29106 0
M  V30 1337 C 139.607 -2.29161 1.56143 0
M  V30 1338 H 142.558 -0.990083 1.24028 0
M  V30 1339 H 142.579 -3.69219 0.919643 0
M  V30 1340 H 142.091 -2.90978 2.56814 0
M  V30 1341 H 140.192 -3.71835 0.238713 0
M  V30 1342 H 140.305 -4.34661 2.01511 0
M  V30 1343 H 138.669 -2.34978 0.982717 0
M  V30 1344 H 139.452 -2.18705 2.64619 0
M  V30 1345 N 141.898 -0.863906 -1.31812 0
M  V30 1346 C 143.123 -0.48527 -2.01643 0
M  V30 1347 C 143.548 0.913058 -1.64453 0
M  V30 1348 O 142.906 1.6014 -0.849985 0
M  V30 1349 C 142.954 -0.642625 -3.54828 0
M  V30 1350 O 142.058 0.320659 -4.11151 0
M  V30 1351 H 141.399 -0.193793 -0.635091 0
M  V30 1352 H 143.929 -1.16565 -1.68148 0
M  V30 1353 H 143.939 -0.533628 -4.04495 0
M  V30 1354 H 142.614 -1.66227 -3.81237 0
M  V30 1355 H 141.191 0.167126 -3.72525 0
M  V30 1356 N 143.376 1.44774 -0.622745 0
M  V30 1357 C 144.324 2.32387 0.0994683 0
M  V30 1358 C 145.318 1.46859 0.844326 0
M  V30 1359 O 146.524 1.63254 0.758174 0
M  V30 1360 H 142.899 0.750273 0.0509291 0
M  V30 1361 H 144.87 2.91062 -0.65767 0
M  V30 1362 C 143.619 3.30723 1.07319 0
M  V30 1363 H 142.942 3.96541 0.509462 0
M  V30 1364 H 144.382 3.94725 1.54817 0
M  V30 1365 C 142.841 2.59021 2.15429 0
M  V30 1366 O 143.371 2.38286 3.23393 0
M  V30 1367 N 141.577 2.189 1.91131 0
M  V30 1368 H 141.124 2.35964 1.03337 0
M  V30 1369 H 141.082 1.71251 2.63668 0
M  V30 1370 N 144.854 0.36279 1.53368 0
M  V30 1371 C 146.084 -0.228281 2.05335 0
M  V30 1372 C 146.492 -1.43226 1.23625 0
M  V30 1373 O 145.835 -1.81717 0.269206 0
M  V30 1374 C 145.897 -0.688549 3.52845 0
M  V30 1375 C 145.561 0.398362 4.5526 0
M  V30 1376 C 146.558 1.24732 5.04716 0
M  V30 1377 C 144.243 0.557805 4.99193 0
M  V30 1378 C 146.237 2.2411 5.96702 0
M  V30 1379 C 143.924 1.55495 5.90986 0
M  V30 1380 C 144.922 2.39503 6.39631 0
M  V30 1381 O 144.61 3.37517 7.29615 0
M  V30 1382 H 144.342 -0.044395 0.674541 0
M  V30 1383 H 146.896 0.518668 1.98744 0
M  V30 1384 H 145.126 -1.48706 3.56964 0
M  V30 1385 H 146.815 -1.20231 3.87685 0
M  V30 1386 H 147.581 1.13532 4.71525 0
M  V30 1387 H 143.46 -0.0862959 4.60919 0
M  V30 1388 H 147.004 2.89718 6.34594 0
M  V30 1389 H 142.901 1.66744 6.23592 0
M  V30 1390 H 143.669 3.33213 7.47604 0
M  V30 1391 N 146.332 -1.57332 0.0918853 0
M  V30 1392 C 147.578 -1.94524 -0.573425 0
M  V30 1393 C 147.911 -0.973578 -1.68033 0
M  V30 1394 O 147.186 -0.00609226 -1.94499 0
M  V30 1395 C 147.469 -3.41858 -1.13161 0
M  V30 1396 C 147.322 -4.4979 -0.0299747 0
M  V30 1397 C 148.641 -3.90435 -2.03098 0
M  V30 1398 H 145.76 -0.70734 -0.206975 0
M  V30 1399 H 148.402 -1.89309 0.161942 0
M  V30 1400 H 146.552 -3.46433 -1.7583 0
M  V30 1401 H 148.224 -4.57327 0.604112 0
M  V30 1402 H 146.467 -4.291 0.636833 0
M  V30 1403 H 147.138 -5.50069 -0.461287 0
M  V30 1404 H 149.614 -3.87992 -1.50338 0
M  V30 1405 H 148.49 -4.94097 -2.39081 0
M  V30 1406 H 148.751 -3.29541 -2.94712 0
M  V30 1407 N 147.81 0.181792 -1.56548 0
M  V30 1408 C 149.035 0.920019 -1.85877 0
M  V30 1409 C 149.46 1.75494 -0.677021 0
M  V30 1410 O 148.818 1.77399 0.374056 0
M  V30 1411 C 148.866 1.78112 -3.13542 0
M  V30 1412 O 147.97 2.88152 -2.95029 0
M  V30 1413 H 147.311 0.258334 -0.611686 0
M  V30 1414 H 149.841 0.183092 -2.03779 0
M  V30 1415 H 149.851 2.18314 -3.44678 0
M  V30 1416 H 148.526 1.16777 -3.99169 0
M  V30 1417 H 147.103 2.51609 -2.75222 0
M  V30 1418 N 149.288 1.51039 0.449983 0
M  V30 1419 C 150.704 1.38934 0.785462 0
M  V30 1420 C 150.904 0.461817 1.96136 0
M  V30 1421 O 149.96 -0.0877389 2.52348 0
M  V30 1422 C 151.273 2.80724 1.0777 0
M  V30 1423 C 152.821 2.89787 1.1829 0
M  V30 1424 C 153.296 4.32457 1.50815 0
M  V30 1425 N 154.787 4.35505 1.57764 0
M  V30 1426 C 155.522 5.42914 1.84477 0
M  V30 1427 N 155.018 6.60502 2.09068 0
M  V30 1428 N 156.811 5.3038 1.86155 0
M  V30 1429 H 148.962 2.09904 -0.324647 0
M  V30 1430 H 151.225 0.944378 -0.0827957 0
M  V30 1431 H 150.931 3.50531 0.286498 0
M  V30 1432 H 150.805 3.19273 2.00859 0
M  V30 1433 H 153.192 2.20186 1.96474 0
M  V30 1434 H 153.273 2.54752 0.231314 0
M  V30 1435 H 152.917 5.02603 0.731622 0
M  V30 1436 H 152.847 4.64995 2.47158 0
M  V30 1437 H 155.338 3.50724 1.40715 0
M  V30 1438 H 155.651 7.38158 2.28785 0
M  V30 1439 H 153.996 6.63639 2.06416 0
M  V30 1440 H 157.187 4.37505 1.66454 0
M  V30 1441 H 157.36 6.1417 2.06637 0
M  V30 1442 N 150.766 -0.704594 1.40972 0
M  V30 1443 C 152.014 -1.46169 1.39568 0
M  V30 1444 C 152.335 -1.95 0.00253745 0
M  V30 1445 O 151.605 -1.71095 -0.954114 0
M  V30 1446 H 150.185 -0.542326 0.513704 0
M  V30 1447 H 152.847 -0.834553 1.76128 0
M  V30 1448 H 151.943 -2.32922 2.07735 0
M  V30 1449 N 152.244 -1.26651 -0.937939 0
M  V30 1450 C 153.492 -1.12165 -1.68118 0
M  V30 1451 C 153.813 0.334983 -1.92101 0
M  V30 1452 O 153.083 1.23583 -1.52 0
M  V30 1453 H 151.663 -0.412093 -0.623048 0
M  V30 1454 H 154.325 -1.59027 -1.12678 0
M  V30 1455 H 153.421 -1.64289 -2.6536 0
M  V30 1456 N 153.722 1.14298 -1.08507 0
M  V30 1457 C 154.97 1.84993 -0.813763 0
M  V30 1458 C 155.291 1.83405 0.662393 0
M  V30 1459 O 154.561 1.28319 1.48024 0
M  V30 1460 H 153.141 0.684966 -0.298045 0
M  V30 1461 H 155.803 1.385 -1.37126 0
M  V30 1462 H 154.899 2.89788 -1.15884 0
M  V30 1463 N 155.201 0.870884 1.31352 0
M  V30 1464 C 156.612 0.534714 1.78879 0
M  V30 1465 C 156.963 -0.948423 1.71754 0
M  V30 1466 O 156.088 -1.74055 1.28584 0
M  V30 1467 C 156.683 0.963839 3.24801 0
M  V30 1468 C 155.242 0.679311 3.70219 0
M  V30 1469 C 154.389 1.15465 2.52117 0
M  V30 1470 H 157.34 1.05651 1.18421 0
M  V30 1471 H 157.361 0.286892 3.79417 0
M  V30 1472 H 156.873 2.04332 3.29955 0
M  V30 1473 H 154.974 -0.388769 3.70566 0
M  V30 1474 H 155.087 1.25698 4.62317 0
M  V30 1475 H 153.451 0.574383 2.48139 0
M  V30 1476 H 154.234 2.24157 2.60016 0
M  V30 1477 N 156.679 -1.44442 0.630414 0
M  V30 1478 C 158.09 -1.85434 0.217063 0
M  V30 1479 C 158.441 -1.52748 -1.23136 0
M  V30 1480 O 157.566 -0.965205 -1.93682 0
M  V30 1481 C 158.161 -3.36581 0.387168 0
M  V30 1482 C 156.72 -3.76389 0.0283297 0
M  V30 1483 C 155.867 -2.68296 0.700889 0
M  V30 1484 H 158.818 -1.34919 0.83562 0
M  V30 1485 H 158.839 -3.78657 -0.374086 0
M  V30 1486 H 158.351 -3.60339 1.44144 0
M  V30 1487 H 156.452 -3.58246 -1.02423 0
M  V30 1488 H 156.565 -4.77095 0.437892 0
M  V30 1489 H 154.929 -2.54335 0.136267 0
M  V30 1490 H 155.712 -2.94887 1.75774 0
M  V30 1491 N 158.157 -0.370918 -1.53173 0
M  V30 1492 C 159.568 0.107139 -1.86392 0
M  V30 1493 C 159.919 1.47714 -1.29132 0
M  V30 1494 O 159.044 2.07464 -0.615439 0
M  V30 1495 C 159.639 0.201187 -3.38202 0
M  V30 1496 C 158.198 0.623507 -3.712 0
M  V30 1497 C 157.345 -0.225978 -2.76378 0
M  V30 1498 H 160.296 -0.58951 -1.47345 0
M  V30 1499 H 160.317 1.02377 -3.66468 0
M  V30 1500 H 159.829 -0.796058 -3.79848 0
M  V30 1501 H 157.93 1.62879 -3.35114 0
M  V30 1502 H 158.043 0.394414 -4.77474 0
M  V30 1503 H 156.407 0.305962 -2.52856 0
M  V30 1504 H 157.19 -1.22086 -3.20858 0
M  V30 1505 N 159.635 1.57281 -0.100228 0
M  V30 1506 C 160.875 1.96419 0.56558 0
M  V30 1507 C 161.239 0.981265 1.65031 0
M  V30 1508 O 162.44 1.26133 2.37369 0
M  V30 1509 C 160.711 3.39996 1.10171 0
M  V30 1510 S 162.27 4.01134 1.77867 0
M  V30 1511 H 159.088 0.68667 0.184406 0
M  V30 1512 H 161.69 1.94662 -0.180851 0
M  V30 1513 H 160.394 4.09296 0.300803 0
M  V30 1514 H 159.925 3.45361 1.88385 0
M  V30 1515 H 161.94 3.90358 3.06326 0
M  V30 1516 N 161.113 -0.173488 1.56642 0
M  V30 1517 C 162.023 -1.23482 1.99473 0
M  V30 1518 C 163.039 -1.48567 0.905752 0
M  V30 1519 O 164.215 -1.60758 1.21321 0
M  V30 1520 C 161.28 -2.55444 2.34413 0
M  V30 1521 C 160.341 -2.38241 3.57127 0
M  V30 1522 C 159.574 -3.63909 3.90392 0
M  V30 1523 O 159.797 -4.68996 3.24653 0
M  V30 1524 O 158.731 -3.58149 4.83749 0
M  V30 1525 H 162.557 -0.901279 2.90018 0
M  V30 1526 H 160.142 -0.380185 1.44482 0
M  V30 1527 H 162.024 -3.33292 2.57865 0
M  V30 1528 H 160.699 -2.88382 1.4703 0
M  V30 1529 H 159.606 -1.58431 3.38896 0
M  V30 1530 H 160.939 -2.10228 4.45045 0
M  V30 1531 N 162.591 -1.51276 -0.441967 0
M  V30 1532 C 163.837 -1.63958 -1.19355 0
M  V30 1533 C 164.17 -0.352543 -1.90973 0
M  V30 1534 O 163.445 0.647627 -1.83401 0
M  V30 1535 C 163.728 -2.83979 -2.21422 0
M  V30 1536 C 163.581 -4.22646 -1.53918 0
M  V30 1537 C 164.9 -2.99521 -3.22451 0
M  V30 1538 H 162.019 -0.596709 -0.432559 0
M  V30 1539 H 164.661 -1.83748 -0.483398 0
M  V30 1540 H 162.811 -2.67237 -2.81987 0
M  V30 1541 H 164.483 -4.51045 -0.967256 0
M  V30 1542 H 162.726 -4.25558 -0.841615 0
M  V30 1543 H 163.397 -5.02609 -2.28229 0
M  V30 1544 H 165.873 -3.14944 -2.71937 0
M  V30 1545 H 164.749 -3.85072 -3.91166 0
M  V30 1546 H 165.01 -2.11391 -3.88287 0
M  V30 1547 N 164.069 0.697108 -1.41344 0
M  V30 1548 C 165.032 1.79281 -1.42797 0
M  V30 1549 C 166.032 1.57607 -0.318837 0
M  V30 1550 O 167.222 1.64309 -0.578642 0
M  V30 1551 C 164.354 3.17632 -1.23785 0
M  V30 1552 H 165.547 1.79385 -2.40335 0
M  V30 1553 H 163.1 0.904582 -1.27464 0
M  V30 1554 H 163.835 3.23167 -0.270814 0
M  V30 1555 H 163.62 3.34765 -2.04144 0
M  V30 1556 H 165.11 3.97617 -1.27633 0
M  V30 1557 N 165.547 1.27147 0.931209 0
M  V30 1558 C 166.772 1.16191 1.71797 0
M  V30 1559 C 167.197 -0.278004 1.86034 0
M  V30 1560 O 166.555 -1.20137 1.35782 0
M  V30 1561 C 166.603 1.84673 3.09723 0
M  V30 1562 O 165.707 1.14231 3.96264 0
M  V30 1563 H 165.048 0.404303 0.526721 0
M  V30 1564 H 167.578 1.68152 1.1656 0
M  V30 1565 H 167.588 1.91893 3.60057 0
M  V30 1566 H 166.263 2.89421 2.98677 0
M  V30 1567 H 164.84 1.15056 3.54706 0
M  V30 1568 N 167.025 -1.13721 1.09112 0
M  V30 1569 C 168.272 -1.84924 0.825192 0
M  V30 1570 C 168.6 -1.83347 -0.649151 0
M  V30 1571 O 167.855 -1.26449 -1.49362 0
M  V30 1572 C 168.154 -3.32861 1.30146 0
M  V30 1573 C 167.82 -3.54621 2.78486 0
M  V30 1574 C 166.482 -3.60268 3.18999 0
M  V30 1575 C 168.834 -3.62855 3.74146 0
M  V30 1576 C 166.162 -3.71679 4.53951 0
M  V30 1577 C 168.514 -3.75793 5.08883 0
M  V30 1578 C 167.178 -3.79692 5.4899 0
M  V30 1579 H 166.448 -0.676684 0.301959 0
M  V30 1580 H 169.095 -1.3428 1.36533 0
M  V30 1581 H 167.4 -3.85835 0.681064 0
M  V30 1582 H 169.097 -3.86395 1.07236 0
M  V30 1583 H 165.687 -3.50879 2.46134 0
M  V30 1584 H 169.871 -3.57775 3.43963 0
M  V30 1585 H 165.127 -3.72963 4.84467 0
M  V30 1586 H 169.301 -3.81107 5.82864 0
M  V30 1587 H 166.928 -3.88287 6.53558 0
M  V30 1588 N 168.503 -0.877838 -1.30888 0
M  V30 1589 C 169.435 -0.296607 -2.27273 0
M  V30 1590 C 170.448 0.544799 -1.53414 0
M  V30 1591 O 171.637 0.365511 -1.74718 0
M  V30 1592 C 168.737 0.597481 -3.33592 0
M  V30 1593 C 167.91 -0.213251 -4.3688 0
M  V30 1594 C 166.969 0.610208 -5.2265 0
M  V30 1595 O 165.995 0.035441 -5.69189 0
M  V30 1596 N 167.197 1.92071 -5.47804 0
M  V30 1597 H 169.962 -1.12492 -2.77787 0
M  V30 1598 H 167.523 -0.740105 -1.43993 0
M  V30 1599 H 169.515 1.15425 -3.87891 0
M  V30 1600 H 168.085 1.32647 -2.83061 0
M  V30 1601 H 167.305 -0.951466 -3.82545 0
M  V30 1602 H 168.593 -0.769262 -5.02951 0
M  V30 1603 H 167.991 2.4107 -5.11763 0
M  V30 1604 H 166.548 2.42508 -6.05007 0
M  V30 1605 N 169.982 1.44106 -0.638065 0
M  V30 1606 C 170.892 2.34513 0.0637334 0
M  V30 1607 C 171.908 1.53018 0.828346 0
M  V30 1608 O 173.084 1.85723 0.779036 0
M  V30 1609 C 170.149 3.31095 1.02844 0
M  V30 1610 C 169.21 4.28497 0.26244 0
M  V30 1611 C 168.443 5.20465 1.1812 0
M  V30 1612 O 168.666 5.16514 2.42011 0
M  V30 1613 O 167.6 5.98251 0.661774 0
M  V30 1614 H 171.426 2.95989 -0.68003 0
M  V30 1615 H 169.011 1.43994 -0.398252 0
M  V30 1616 H 170.893 3.90526 1.58327 0
M  V30 1617 H 169.568 2.72144 1.7527 0
M  V30 1618 H 168.475 3.72592 -0.335602 0
M  V30 1619 H 169.808 4.90388 -0.421936 0
M  V30 1620 N 171.46 0.379036 1.52974 0
M  V30 1621 C 172.39 -0.452706 2.29069 0
M  V30 1622 C 173.371 -1.07237 1.32039 0
M  V30 1623 O 174.556 -1.08708 1.60923 0
M  V30 1624 C 171.686 -1.5856 3.08992 0
M  V30 1625 C 170.64 -1.0925 4.13822 0
M  V30 1626 C 169.966 -2.31668 4.81907 0
M  V30 1627 C 171.266 -0.167702 5.22031 0
M  V30 1628 H 172.96 0.182181 2.98845 0
M  V30 1629 H 170.506 0.0890592 1.43724 0
M  V30 1630 H 172.459 -2.1742 3.6098 0
M  V30 1631 H 171.183 -2.24792 2.36931 0
M  V30 1632 H 169.842 -0.526494 3.628 0
M  V30 1633 H 169.49 -2.96386 4.06404 0
M  V30 1634 H 169.19 -1.9934 5.52754 0
M  V30 1635 H 170.714 -2.91189 5.36695 0
M  V30 1636 H 172.128 -0.664186 5.6944 0
M  V30 1637 H 170.525 0.0653265 6.00064 0
M  V30 1638 H 171.595 0.786347 4.78482 0
M  V30 1639 N 172.938 -1.57226 0.108567 0
M  V30 1640 C 174.354 -1.5766 -0.248058 0
M  V30 1641 C 174.554 -1.12063 -1.67464 0
M  V30 1642 O 173.61 -0.803236 -2.39383 0
M  V30 1643 C 174.923 -3.0069 -0.0242287 0
M  V30 1644 C 176.471 -3.12868 -0.0909372 0
M  V30 1645 C 176.946 -4.57879 0.105067 0
M  V30 1646 N 178.437 -4.63172 0.0506846 0
M  V30 1647 C 179.172 -5.73126 0.177396 0
M  V30 1648 N 178.668 -6.91866 0.359696 0
M  V30 1649 N 180.461 -5.61977 0.117709 0
M  V30 1650 H 172.612 -1.85169 1.04049 0
M  V30 1651 H 174.875 -0.85529 0.40888 0
M  V30 1652 H 174.581 -3.38299 0.961604 0
M  V30 1653 H 174.455 -3.6945 -0.76068 0
M  V30 1654 H 176.842 -2.75124 -1.06729 0
M  V30 1655 H 176.923 -2.46672 0.677225 0
M  V30 1656 H 176.567 -4.96321 1.07834 0
M  V30 1657 H 176.497 -5.22153 -0.682954 0
M  V30 1658 H 178.988 -3.778 -0.0871266 0
M  V30 1659 H 179.301 -7.71503 0.447529 0
M  V30 1660 H 177.646 -6.93874 0.395536 0
M  V30 1661 H 180.837 -4.68094 -0.0236741 0
M  V30 1662 H 181.01 -6.47627 0.219905 0
M  V30 1663 N 174.416 0.165178 -1.56732 0
M  V30 1664 C 175.346 1.20651 -1.99914 0
M  V30 1665 C 176.327 1.45827 -0.875705 0
M  V30 1666 O 177.512 1.57057 -1.14223 0
M  V30 1667 C 174.642 2.54401 -2.36427 0
M  V30 1668 C 173.596 2.43782 -3.51787 0
M  V30 1669 C 172.922 3.82078 -3.7406 0
M  V30 1670 C 174.222 1.93732 -4.85041 0
M  V30 1671 H 175.916 0.847534 -2.87154 0
M  V30 1672 H 173.462 0.40625 -1.38151 0
M  V30 1673 H 175.415 3.27458 -2.65234 0
M  V30 1674 H 174.139 2.92098 -1.46103 0
M  V30 1675 H 172.798 1.73178 -3.23117 0
M  V30 1676 H 172.446 4.17179 -2.81017 0
M  V30 1677 H 172.146 3.7584 -4.51684 0
M  V30 1678 H 173.67 4.56712 -4.05274 0
M  V30 1679 H 175.084 2.56569 -5.12684 0
M  V30 1680 H 173.481 1.98428 -5.66345 0
M  V30 1681 H 174.551 0.891962 -4.76626 0
M  V30 1682 N 175.894 1.51508 0.433938 0
M  V30 1683 C 176.804 1.75917 1.5521 0
M  V30 1684 C 177.82 0.643545 1.61662 0
M  V30 1685 O 178.996 0.926183 1.7884 0
M  V30 1686 C 176.061 1.88213 2.91164 0
M  V30 1687 C 175.122 3.12074 2.94802 0
M  V30 1688 C 174.355 3.23774 4.24271 0
M  V30 1689 O 174.578 2.4133 5.16833 0
M  V30 1690 O 173.512 4.16774 4.34262 0
M  V30 1691 H 177.338 2.70777 1.37527 0
M  V30 1692 H 174.923 1.36051 0.617293 0
M  V30 1693 H 176.805 1.98267 3.71845 0
M  V30 1694 H 175.48 0.965413 3.08968 0
M  V30 1695 H 174.387 3.07497 2.13065 0
M  V30 1696 H 175.72 4.03446 2.81943 0
M  V30 1697 N 177.372 -0.689602 1.41712 0
M  V30 1698 C 178.282 -1.83314 1.46401 0
M  V30 1699 C 179.298 -1.7036 0.35405 0
M  V30 1700 O 180.474 -1.92171 0.602692 0
M  V30 1701 C 177.539 -3.19344 1.34982 0
M  V30 1702 C 176.6 -3.44363 2.56344 0
M  V30 1703 C 175.833 -4.73904 2.45461 0
M  V30 1704 O 176.056 -5.508 1.48241 0
M  V30 1705 O 174.99 -4.99839 3.35328 0
M  V30 1706 H 178.816 -1.82314 2.42889 0
M  V30 1707 H 176.401 -0.843438 1.23315 0
M  V30 1708 H 178.283 -4.00547 1.3092 0
M  V30 1709 H 176.958 -3.21014 0.41612 0
M  V30 1710 H 175.865 -2.63067 2.65982 0
M  V30 1711 H 177.198 -3.47512 3.48563 0
M  V30 1712 N 178.85 -1.27639 -0.924453 0
M  V30 1713 C 180.096 -1.14336 -1.67497 0
M  V30 1714 C 180.429 0.309465 -1.91718 0
M  V30 1715 O 179.704 1.22608 -1.50989 0
M  V30 1716 C 179.987 -1.93096 -3.0395 0
M  V30 1717 C 179.84 -3.46381 -2.8695 0
M  V30 1718 C 181.159 -1.73798 -4.0433 0
M  V30 1719 H 178.278 -0.416728 -0.607871 0
M  V30 1720 H 180.92 -1.56832 -1.07256 0
M  V30 1721 H 179.07 -1.56982 -3.55372 0
M  V30 1722 H 180.742 -3.92343 -2.42621 0
M  V30 1723 H 178.985 -3.72557 -2.22225 0
M  V30 1724 H 179.656 -3.96735 -3.83804 0
M  V30 1725 H 182.132 -2.05293 -3.61931 0
M  V30 1726 H 181.008 -2.31294 -4.97789 0
M  V30 1727 H 181.269 -0.686725 -4.36734 0
M  V30 1728 N 180.328 1.1314 -1.09713 0
M  V30 1729 C 181.577 1.83838 -0.829851 0
M  V30 1730 C 181.89 1.84599 0.646728 0
M  V30 1731 O 183.096 2.51218 1.02965 0
M  V30 1732 C 181.552 3.30069 -1.43466 0
M  V30 1733 C 181.16 3.37688 -2.94399 0
M  V30 1734 C 182.904 4.05788 -1.24645 0
M  V30 1735 C 180.811 4.78209 -3.47952 0
M  V30 1736 H 179.741 0.68877 -0.306777 0
M  V30 1737 H 182.392 1.27448 -1.3202 0
M  V30 1738 H 180.774 3.8628 -0.871996 0
M  V30 1739 H 181.948 2.91456 -3.56918 0
M  V30 1740 H 180.263 2.75436 -3.12289 0
M  V30 1741 H 182.86 5.09535 -1.62107 0
M  V30 1742 H 183.203 4.15878 -0.187357 0
M  V30 1743 H 183.736 3.55915 -1.77678 0
M  V30 1744 H 180.475 4.73311 -4.53495 0
M  V30 1745 H 179.995 5.24924 -2.90198 0
M  V30 1746 H 181.674 5.47133 -3.45332 0
M  V30 1747 N 181.806 0.884767 1.30421 0
M  V30 1748 C 183.054 0.502112 1.95763 0
M  V30 1749 C 183.375 -0.951815 1.70192 0
M  V30 1750 O 182.645 -1.6692 1.0254 0
M  V30 1751 H 181.225 0.182694 0.724315 0
M  V30 1752 H 183.887 1.1278 1.58955 0
M  V30 1753 H 182.983 0.672188 3.04775 0
M  V30 1754 N 183.284 -1.43765 0.645699 0
M  V30 1755 C 184.533 -2.01116 0.153412 0
M  V30 1756 C 184.846 -1.51493 -1.23731 0
M  V30 1757 O 186.052 -2.01067 -1.8244 0
M  V30 1758 C 184.508 -3.59206 0.223473 0
M  V30 1759 C 184.116 -4.17823 1.61642 0
M  V30 1760 C 185.86 -4.23972 -0.211597 0
M  V30 1761 C 183.767 -5.68183 1.64081 0
M  V30 1762 H 182.697 -0.752093 0.0535891 0
M  V30 1763 H 185.348 -1.6482 0.806633 0
M  V30 1764 H 183.73 -3.92867 -0.497118 0
M  V30 1765 H 184.904 -3.95674 2.36176 0
M  V30 1766 H 183.219 -3.65399 1.99681 0
M  V30 1767 H 185.816 -5.34275 -0.213112 0
M  V30 1768 H 186.159 -3.97352 -1.24165 0
M  V30 1769 H 186.692 -3.95166 0.456988 0
M  V30 1770 H 183.431 -5.99559 2.64971 0
M  V30 1771 H 182.951 -5.9241 0.938611 0
M  V30 1772 H 184.63 -6.32085 1.3812 0
M  V30 1773 N 184.763 -0.387143 -1.52771 0
M  V30 1774 C 186.011 0.195349 -2.01154 0
M  V30 1775 C 186.332 1.475 -1.27549 0
M  V30 1776 O 185.602 1.91878 -0.394924 0
M  V30 1777 H 184.182 0.075178 -0.743207 0
M  V30 1778 H 186.844 -0.518337 -1.87881 0
M  V30 1779 H 185.94 0.407096 -3.09434 0
M  V30 1780 N 186.241 1.57166 -0.116904 0
M  V30 1781 C 187.489 1.94737 0.540533 0
M  V30 1782 C 187.81 1.00096 1.67349 0
M  V30 1783 O 187.08 0.0568854 1.95817 0
M  V30 1784 H 185.66 0.718981 0.202669 0
M  V30 1785 H 188.322 1.94017 -0.185353 0
M  V30 1786 H 187.418 2.97719 0.936483 0
M  V30 1787 N 187.719 -0.156864 1.56817 0
M  V30 1788 C 188.966 -0.871125 1.82805 0
M  V30 1789 C 189.294 -1.81611 0.696262 0
M  V30 1790 O 188.549 -1.93141 -0.315459 0
M  V30 1791 C 188.848 -1.68737 3.1506 0
M  V30 1792 C 188.514 -0.890045 4.42028 0
M  V30 1793 C 187.176 -0.670042 4.76512 0
M  V30 1794 C 189.528 -0.331769 5.20143 0
M  V30 1795 C 186.856 0.119104 5.86579 0
M  V30 1796 C 189.208 0.444365 6.31037 0
M  V30 1797 C 187.872 0.675035 6.64078 0
M  V30 1798 H 187.142 -0.318767 0.668931 0
M  V30 1799 H 189.789 -0.135274 1.91022 0
M  V30 1800 H 188.094 -2.49304 3.0225 0
M  V30 1801 H 189.791 -2.24331 3.3238 0
M  V30 1802 H 186.381 -1.07157 4.14988 0
M  V30 1803 H 190.565 -0.489043 4.93885 0
M  V30 1804 H 185.821 0.307417 6.10627 0
M  V30 1805 H 189.995 0.884139 6.90765 0
M  V30 1806 H 187.622 1.28839 7.49203 0
M  V30 1807 N 189.197 -1.51736 -0.425897 0
M  V30 1808 C 190.445 -1.64644 -1.17204 0
M  V30 1809 C 190.766 -0.370486 -1.91448 0
M  V30 1810 O 190.036 0.614088 -1.86026 0
M  V30 1811 H 188.616 -0.606819 -0.435638 0
M  V30 1812 H 191.278 -1.88713 -0.487177 0
M  V30 1813 H 190.374 -2.47958 -1.89534 0
M  V30 1814 N 190.675 0.682077 -1.42076 0
M  V30 1815 C 191.622 1.79578 -1.44984 0
M  V30 1816 C 192.592 1.6332 -0.302614 0
M  V30 1817 O 193.777 1.83978 -0.505633 0
M  V30 1818 C 190.917 3.1756 -1.35091 0
M  V30 1819 C 190.03 3.45156 -2.59791 0
M  V30 1820 C 189.165 4.72826 -2.42093 0
M  V30 1821 C 188.204 4.93433 -3.62202 0
M  V30 1822 N 187.341 6.12338 -3.43491 0
M  V30 1823 H 192.181 1.76427 -2.40161 0
M  V30 1824 H 189.718 0.861376 -1.19242 0
M  V30 1825 H 191.676 3.97287 -1.27354 0
M  V30 1826 H 190.306 3.19854 -0.435133 0
M  V30 1827 H 189.358 2.59736 -2.77923 0
M  V30 1828 H 190.67 3.5628 -3.49094 0
M  V30 1829 H 189.824 5.60631 -2.319 0
M  V30 1830 H 188.563 4.63973 -1.50268 0
M  V30 1831 H 187.568 4.04073 -3.72834 0
M  V30 1832 H 188.793 5.04136 -4.54998 0
M  V30 1833 H 186.739 6.04672 -2.54377 0
M  V30 1834 H 186.656 6.2429 -4.26377 0
M  V30 1835 H 187.924 7.02841 -3.37097 0
M  V30 1836 N 192.153 1.28127 0.917671 0
M  V30 1837 C 193.399 1.15223 1.66888 0
M  V30 1838 C 193.732 -0.299293 1.9188 0
M  V30 1839 O 193.007 -1.21805 1.51637 0
M  V30 1840 C 193.29 1.94706 3.02922 0
M  V30 1841 C 193.143 3.47898 2.85109 0
M  V30 1842 C 194.462 1.75939 4.03402 0
M  V30 1843 H 191.581 0.419946 0.605652 0
M  V30 1844 H 194.223 1.57398 1.06423 0
M  V30 1845 H 192.373 1.58864 3.54534 0
M  V30 1846 H 194.045 3.93624 2.40537 0
M  V30 1847 H 192.288 3.7373 2.20246 0
M  V30 1848 H 192.959 3.98765 3.81694 0
M  V30 1849 H 195.435 2.07209 3.60837 0
M  V30 1850 H 194.311 2.33931 4.96556 0
M  V30 1851 H 194.572 0.709877 4.36364 0
M  V30 1852 N 193.631 -1.12557 1.10312 0
M  V30 1853 C 194.861 -1.87592 0.865617 0
M  V30 1854 C 195.269 -1.79851 -0.587389 0
M  V30 1855 O 194.612 -1.16949 -1.41664 0
M  V30 1856 C 194.674 -3.37665 1.23381 0
M  V30 1857 C 194.338 -3.69181 2.69359 0
M  V30 1858 C 195.335 -3.67652 3.67597 0
M  V30 1859 C 193.02 -3.98555 3.05711 0
M  V30 1860 C 195.014 -3.95053 5.00212 0
M  V30 1861 C 192.701 -4.25616 4.38514 0
M  V30 1862 C 193.699 -4.23851 5.35574 0
M  V30 1863 O 193.387 -4.50242 6.65986 0
M  V30 1864 H 193.119 -0.600442 0.310557 0
M  V30 1865 H 195.673 -1.4335 1.47105 0
M  V30 1866 H 193.903 -3.82454 0.571467 0
M  V30 1867 H 195.592 -3.94041 0.973994 0
M  V30 1868 H 196.358 -3.45024 3.40857 0
M  V30 1869 H 192.237 -3.99071 2.30789 0
M  V30 1870 H 195.781 -3.93591 5.75962 0
M  V30 1871 H 191.678 -4.47718 4.64994 0
M  V30 1872 H 192.446 -4.67867 6.71597 0
M  V30 1873 N 195.109 -0.891671 -1.2995 0
M  V30 1874 C 196.525 -0.58662 -1.48428 0
M  V30 1875 C 196.725 0.873951 -1.81561 0
M  V30 1876 O 195.781 1.65471 -1.90724 0
M  V30 1877 C 197.094 -1.50553 -2.60296 0
M  V30 1878 C 198.642 -1.50988 -2.74175 0
M  V30 1879 C 199.117 -2.41488 -3.89163 0
M  V30 1880 N 200.608 -2.39489 -3.96483 0
M  V30 1881 C 201.343 -3.06223 -4.84784 0
M  V30 1882 N 200.839 -3.82206 -5.77833 0
M  V30 1883 N 202.632 -2.95421 -4.78208 0
M  V30 1884 H 194.783 -1.83644 -1.06718 0
M  V30 1885 H 197.046 -0.786455 -0.529332 0
M  V30 1886 H 196.752 -2.54581 -2.42654 0
M  V30 1887 H 196.626 -1.22008 -3.56923 0
M  V30 1888 H 199.013 -0.47708 -2.91218 0
M  V30 1889 H 199.094 -1.83567 -1.78148 0
M  V30 1890 H 198.738 -3.44857 -3.72876 0
M  V30 1891 H 198.668 -2.06222 -4.84541 0
M  V30 1892 H 201.159 -1.84278 -3.29924 0
M  V30 1893 H 201.472 -4.302 -6.41988 0
M  V30 1894 H 199.817 -3.86313 -5.77743 0
M  V30 1895 H 203.008 -2.35581 -4.04499 0
M  V30 1896 H 203.181 -3.47704 -5.46814 0
M  V30 1897 N 196.587 1.43421 -0.653314 0
M  V30 1898 C 197.835 2.01414 -0.166415 0
M  V30 1899 C 198.156 1.51803 1.22397 0
M  V30 1900 O 197.426 0.730693 1.81763 0
M  V30 1901 H 196.006 0.744703 -0.0585319 0
M  V30 1902 H 198.668 1.75629 -0.845003 0
M  V30 1903 H 197.764 3.11734 -0.151111 0
M  V30 1904 N 198.065 0.39524 1.52563 0
M  V30 1905 C 199.29 -0.187456 2.06551 0
M  V30 1906 C 199.715 -1.39249 1.26457 0
M  V30 1907 O 199.073 -1.78947 0.291151 0
M  V30 1908 C 199.121 -0.529985 3.56684 0
M  V30 1909 O 198.225 -1.62307 3.79118 0
M  V30 1910 H 197.566 -0.0202537 0.663691 0
M  V30 1911 H 200.096 0.564426 1.96661 0
M  V30 1912 H 200.106 -0.792598 4.00227 0
M  V30 1913 H 198.781 0.350987 4.14416 0
M  V30 1914 H 197.358 -1.3537 3.47461 0
M  V30 1915 N 199.544 -1.57102 0.125237 0
M  V30 1916 C 200.79 -1.96488 -0.525753 0
M  V30 1917 C 201.145 -1.00786 -1.6389 0
M  V30 1918 O 200.438 -0.038979 -1.9156 0
M  V30 1919 C 200.632 -3.40096 -1.09862 0
M  V30 1920 C 200.461 -4.4968 -0.0425004 0
M  V30 1921 C 199.231 -5.03781 0.391463 0
M  V30 1922 C 201.429 -5.08936 0.740829 0
M  V30 1923 N 199.411 -5.96948 1.4327 0
M  V30 1924 C 200.782 -5.98105 1.6331 0
M  V30 1925 C 202.837 -4.91576 0.791029 0
M  V30 1926 C 201.54 -6.71774 2.57122 0
M  V30 1927 C 203.566 -5.6593 1.71688 0
M  V30 1928 C 202.928 -6.5479 2.59672 0
M  V30 1929 H 199.027 -0.765072 -0.161831 0
M  V30 1930 H 201.611 -1.93511 0.214801 0
M  V30 1931 H 199.782 -3.43707 -1.80887 0
M  V30 1932 H 201.514 -3.66591 -1.71444 0
M  V30 1933 H 198.269 -4.736 -0.00213584 0
M  V30 1934 H 198.693 -6.48236 1.95243 0
M  V30 1935 H 203.335 -4.22615 0.124915 0
M  V30 1936 H 201.053 -7.39977 3.24744 0
M  V30 1937 H 204.639 -5.54501 1.76125 0
M  V30 1938 H 203.519 -7.11316 3.30149 0
M  V30 1939 N 201.022 0.148545 -1.56898 0
M  V30 1940 C 202.438 0.501131 -1.51528 0
M  V30 1941 C 202.638 1.83458 -0.833399 0
M  V30 1942 O 201.694 2.49259 -0.40328 0
M  V30 1943 C 203.007 0.512864 -2.96294 0
M  V30 1944 C 204.555 0.598487 -3.07225 0
M  V30 1945 C 205.03 0.640897 -4.53494 0
M  V30 1946 N 206.521 0.703163 -4.57832 0
M  V30 1947 C 207.256 0.756935 -5.68382 0
M  V30 1948 N 206.752 0.770147 -6.88506 0
M  V30 1949 N 208.545 0.797698 -5.56411 0
M  V30 1950 H 200.696 -0.725532 -1.99624 0
M  V30 1951 H 202.959 -0.264358 -0.910395 0
M  V30 1952 H 202.665 -0.398691 -3.49433 0
M  V30 1953 H 202.539 1.35133 -3.52163 0
M  V30 1954 H 204.926 1.50046 -2.54106 0
M  V30 1955 H 205.007 -0.267093 -2.54402 0
M  V30 1956 H 204.651 -0.256915 -5.0725 0
M  V30 1957 H 204.581 1.52295 -5.04097 0
M  V30 1958 H 207.072 0.700314 -3.71354 0
M  V30 1959 H 207.385 0.812983 -7.68512 0
M  V30 1960 H 205.73 0.738049 -6.9107 0
M  V30 1961 H 208.921 0.784535 -4.61479 0
M  V30 1962 H 209.094 0.83614 -6.42583 0
M  V30 1963 N 202.5 1.5196 0.417844 0
M  V30 1964 C 203.748 1.65263 1.16329 0
M  V30 1965 C 204.069 0.380634 1.91249 0
M  V30 1966 O 203.339 -0.604214 1.86349 0
M  V30 1967 H 201.919 0.60912 0.432414 0
M  V30 1968 H 204.581 1.88969 0.477162 0
M  V30 1969 H 203.677 2.4896 1.88217 0
M  V30 1970 N 203.978 -0.674533 1.42435 0
M  V30 1971 C 204.888 -1.81751 1.48337 0
M  V30 1972 C 205.904 -1.69975 0.372099 0
M  V30 1973 O 207.08 -1.91521 0.62304 0
M  V30 1974 C 204.145 -3.17895 1.38361 0
M  V30 1975 C 203.206 -3.41625 2.59982 0
M  V30 1976 C 202.439 -4.71274 2.50473 0
M  V30 1977 O 202.662 -5.49197 1.54075 0
M  V30 1978 O 201.596 -4.96254 3.4061 0
M  V30 1979 H 205.422 -1.79728 2.44809 0
M  V30 1980 H 203.007 -0.830312 1.24202 0
M  V30 1981 H 204.889 -3.99136 1.35161 0
M  V30 1982 H 203.564 -3.20555 0.450144 0
M  V30 1983 H 202.471 -2.60231 2.68757 0
M  V30 1984 H 203.804 -3.43796 3.52229 0
M  V30 1985 N 205.456 -1.28612 -0.910864 0
M  V30 1986 C 206.386 -1.15326 -2.03032 0
M  V30 1987 C 207.367 -0.0502924 -1.70026 0
M  V30 1988 O 208.552 -0.227797 -1.92859 0
M  V30 1989 C 205.682 -0.817343 -3.37545 0
M  V30 1990 C 204.636 -1.8754 -3.84724 0
M  V30 1991 C 203.962 -1.39305 -5.16235 0
M  V30 1992 C 205.262 -3.28244 -4.06267 0
M  V30 1993 H 206.956 -2.08975 -2.14406 0
M  V30 1994 H 204.502 -1.00612 -1.03021 0
M  V30 1995 H 206.455 -0.711151 -4.15356 0
M  V30 1996 H 205.179 0.154846 -3.26233 0
M  V30 1997 H 203.838 -1.97079 -3.09121 0
M  V30 1998 H 203.486 -0.409846 -5.01328 0
M  V30 1999 H 203.186 -2.10057 -5.48771 0
M  V30 2000 H 204.71 -1.30014 -5.96598 0
M  V30 2001 H 206.124 -3.21611 -4.74594 0
M  V30 2002 H 204.521 -3.96855 -4.5014 0
M  V30 2003 H 205.591 -3.72048 -3.10979 0
M  V30 2004 N 206.934 1.1197 -1.10907 0
M  V30 2005 C 208.18 1.8386 -0.855773 0
M  V30 2006 C 208.513 1.84134 0.617103 0
M  V30 2007 O 207.788 1.29041 1.45529 0
M  V30 2008 C 208.071 3.31305 -1.411 0
M  V30 2009 C 207.924 3.39456 -2.9511 0
M  V30 2010 C 209.243 4.2721 -1.05736 0
M  V30 2011 H 206.362 0.667545 -0.312334 0
M  V30 2012 H 209.004 1.31331 -1.37303 0
M  V30 2013 H 207.154 3.76169 -0.97105 0
M  V30 2014 H 208.826 3.03191 -3.47668 0
M  V30 2015 H 207.069 2.79849 -3.31462 0
M  V30 2016 H 207.74 4.43209 -3.29044 0
M  V30 2017 H 210.216 3.90497 -1.43706 0
M  V30 2018 H 209.092 5.28775 -1.47269 0
M  V30 2019 H 209.353 4.42088 0.0325958 0
M  V30 2020 N 208.412 0.89855 1.29475 0
M  V30 2021 C 209.375 0.380272 2.26023 0
M  V30 2022 C 210.375 -0.484891 1.53315 0
M  V30 2023 O 211.565 -0.290108 1.71767 0
M  V30 2024 C 208.697 -0.45651 3.3783 0
M  V30 2025 H 209.89 1.23295 2.73383 0
M  V30 2026 H 207.443 0.676589 1.40897 0
M  V30 2027 H 208.178 -1.32922 2.95808 0
M  V30 2028 H 207.963 0.163393 3.91759 0
M  V30 2029 H 209.453 -0.810466 4.0966 0
M  V30 2030 N 209.89 -1.43072 0.660911 0
M  V30 2031 C 211.136 -2.0202 0.177708 0
M  V30 2032 C 211.469 -1.52066 -1.20787 0
M  V30 2033 O 210.744 -0.716987 -1.80802 0
M  V30 2034 C 211.027 -3.59561 0.197019 0
M  V30 2035 C 210.88 -4.19727 1.61706 0
M  V30 2036 C 212.199 -4.37664 -0.462396 0
M  V30 2037 H 209.318 -0.734034 0.0660494 0
M  V30 2038 H 211.96 -1.70272 0.843058 0
M  V30 2039 H 210.11 -3.86739 -0.369527 0
M  V30 2040 H 211.782 -4.03553 2.23479 0
M  V30 2041 H 210.025 -3.76084 2.16201 0
M  V30 2042 H 210.696 -5.28834 1.58237 0
M  V30 2043 H 213.172 -4.16095 0.0197215 0
M  V30 2044 H 212.048 -5.47305 -0.418188 0
M  V30 2045 H 212.309 -4.14493 -1.53778 0
M  V30 2046 N 211.368 -0.403325 -1.52352 0
M  V30 2047 C 212.315 0.425011 -2.26853 0
M  V30 2048 C 213.285 1.04598 -1.29029 0
M  V30 2049 O 214.47 1.07135 -1.57882 0
M  V30 2050 C 211.61 1.53888 -3.08889 0
M  V30 2051 C 210.723 0.939396 -4.21663 0
M  V30 2052 C 209.858 2.02547 -4.91068 0
M  V30 2053 C 208.897 1.40263 -5.95813 0
M  V30 2054 N 208.034 2.4286 -6.58759 0
M  V30 2055 H 212.874 -0.21674 -2.97211 0
M  V30 2056 H 210.411 -0.118722 -1.4662 0
M  V30 2057 H 212.369 2.19558 -3.54753 0
M  V30 2058 H 210.999 2.15074 -2.40714 0
M  V30 2059 H 210.051 0.171898 -3.80011 0
M  V30 2060 H 211.363 0.44436 -4.96817 0
M  V30 2061 H 210.517 2.75958 -5.40308 0
M  V30 2062 H 209.256 2.55415 -4.15469 0
M  V30 2063 H 208.261 0.653833 -5.45898 0
M  V30 2064 H 209.486 0.881719 -6.73352 0
M  V30 2065 H 207.432 2.94871 -5.85992 0
M  V30 2066 H 207.349 1.98152 -7.2957 0
M  V30 2067 H 208.617 3.15858 -7.12639 0
M  V30 2068 N 212.846 1.57033 -0.133567 0
M  V30 2069 C 213.809 2.14897 0.796995 0
M  V30 2070 C 214.809 1.0874 1.18458 0
M  V30 2071 O 215.999 1.34446 1.1077 0
M  V30 2072 C 213.131 2.70112 2.07973 0
M  V30 2073 H 214.324 2.98457 0.293873 0
M  V30 2074 H 211.877 1.55871 0.115787 0
M  V30 2075 H 212.612 1.9018 2.62682 0
M  V30 2076 H 212.397 3.47764 1.81115 0
M  V30 2077 H 213.887 3.14738 2.74462 0
M  V30 2078 N 214.325 -0.140222 1.56975 0
M  V30 2079 C 215.288 -1.15689 1.97861 0
M  V30 2080 C 216.288 -1.3549 0.865974 0
M  V30 2081 O 217.478 -1.32367 1.13246 0
M  V30 2082 C 214.61 -2.51582 2.30042 0
M  V30 2083 H 215.803 -0.805971 2.88867 0
M  V30 2084 H 213.356 -0.383801 1.51515 0
M  V30 2085 H 214.091 -2.91632 1.41849 0
M  V30 2086 H 213.876 -2.38569 3.11171 0
M  V30 2087 H 215.366 -3.24792 2.62488 0
M  V30 2088 N 215.803 -1.52179 -0.40978 0
M  V30 2089 C 217.219 -1.40968 -0.74835 0
M  V30 2090 C 217.419 -0.513657 -1.94843 0
M  V30 2091 O 216.475 0.0208026 -2.52491 0
M  V30 2092 C 217.788 -2.83483 -1.0029 0
M  V30 2093 C 219.336 -2.92821 -1.10565 0
M  V30 2094 C 219.811 -4.36303 -1.39296 0
M  V30 2095 N 221.302 -4.39535 -1.46162 0
M  V30 2096 C 222.037 -5.47614 -1.70018 0
M  V30 2097 N 221.533 -6.65812 -1.91483 0
M  V30 2098 N 223.326 -5.35129 -1.72027 0
M  V30 2099 H 215.477 -2.0897 0.380186 0
M  V30 2100 H 217.74 -0.94185 0.107805 0
M  V30 2101 H 217.446 -3.51168 -0.193461 0
M  V30 2102 H 217.32 -3.24487 -1.92323 0
M  V30 2103 H 219.707 -2.25318 -1.90568 0
M  V30 2104 H 219.788 -2.55276 -0.16369 0
M  V30 2105 H 219.432 -5.04366 -0.598109 0
M  V30 2106 H 219.362 -4.71385 -2.34743 0
M  V30 2107 H 221.853 -3.54332 -1.31367 0
M  V30 2108 H 222.166 -7.43964 -2.09134 0
M  V30 2109 H 220.511 -6.68879 -1.88749 0
M  V30 2110 H 223.702 -4.41764 -1.54796 0
M  V30 2111 H 223.875 -6.19433 -1.9028 0
M  V30 2112 N 217.281 0.66697 -1.42791 0
M  V30 2113 C 218.213 1.7925 -1.42836 0
M  V30 2114 C 219.226 1.59496 -0.326333 0
M  V30 2115 O 220.415 1.6847 -0.589916 0
M  V30 2116 C 217.515 3.16476 -1.21229 0
M  V30 2117 C 216.688 3.63011 -2.44013 0
M  V30 2118 C 215.747 4.78993 -2.17834 0
M  V30 2119 O 214.773 4.89137 -2.91091 0
M  V30 2120 N 215.975 5.68248 -1.18635 0
M  V30 2121 H 218.74 1.79695 -2.39854 0
M  V30 2122 H 216.301 0.850338 -1.37771 0
M  V30 2123 H 218.293 3.91734 -1.01621 0
M  V30 2124 H 216.863 3.10884 -0.32706 0
M  V30 2125 H 216.083 2.78346 -2.79137 0
M  V30 2126 H 217.371 3.90845 -3.25757 0
M  V30 2127 H 216.769 5.62712 -0.580615 0
M  V30 2128 H 215.326 6.43285 -1.05013 0
M  V30 2129 N 218.759 1.29093 0.90403 0
M  V30 2130 C 220.036 1.075 1.63411 0
M  V30 2131 C 220.416 -0.382346 2.07609 0
M  V30 2132 O 219.764 -1.37031 1.82851 0
M  V30 2133 C 219.974 2.05858 2.81822 0
M  V30 2134 C 221.322 2.36539 3.52611 0
M  V30 2135 O 222.346 2.04019 2.91984 0
M  V30 2136 O 221.205 2.92085 4.61897 0
M  V30 2137 H 218.299 0.411547 0.717327 0
M  V30 2138 H 220.845 1.40449 0.952479 0
M  V30 2139 H 219.617 3.04037 2.46327 0
M  V30 2140 H 219.24 1.73613 3.57693 0
M  V30 2141 N 220.237 -1.11381 1.11499 0
M  V30 2142 C 221.648 -1.6465 0.880191 0
M  V30 2143 C 221.999 -1.87199 -0.587434 0
M  V30 2144 O 221.124 -1.60667 -1.44966 0
M  V30 2145 C 221.719 -2.99105 1.59128 0
M  V30 2146 C 220.278 -3.49279 1.40289 0
M  V30 2147 C 219.425 -2.24077 1.63354 0
M  V30 2148 H 222.376 -0.950123 1.27116 0
M  V30 2149 H 222.397 -3.66107 1.03664 0
M  V30 2150 H 221.909 -2.82661 2.65941 0
M  V30 2151 H 220.01 -3.70887 0.356888 0
M  V30 2152 H 220.123 -4.2803 2.15238 0
M  V30 2153 H 218.487 -2.31733 1.05698 0
M  V30 2154 H 219.27 -2.10175 2.71443 0
M  V30 2155 N 221.715 -0.905404 -1.28997 0
M  V30 2156 C 222.992 -0.453513 -1.9027 0
M  V30 2157 C 223.372 1.06721 -1.82137 0
M  V30 2158 O 222.72 1.91159 -1.25182 0
M  V30 2159 C 222.93 -0.974494 -3.35119 0
M  V30 2160 C 224.278 -1.0216 -4.12127 0
M  V30 2161 O 225.302 -0.922557 -3.44046 0
M  V30 2162 O 224.161 -1.17121 -5.33802 0
M  V30 2163 H 221.255 -0.142347 -0.814657 0
M  V30 2164 H 223.801 -0.995642 -1.37423 0
M  V30 2165 H 222.573 -2.01848 -3.35221 0
M  V30 2166 H 222.196 -0.412706 -3.95452 0
M  V30 2167 N 223.193 1.4272 -0.668489 0
M  V30 2168 C 224.103 2.34596 0.0139753 0
M  V30 2169 C 225.119 1.5474 0.795703 0
M  V30 2170 O 226.295 1.87334 0.739466 0
M  V30 2171 C 223.36 3.33202 0.957982 0
M  V30 2172 C 222.421 4.28957 0.17149 0
M  V30 2173 C 221.654 5.22853 1.07053 0
M  V30 2174 O 221.877 5.21531 2.31001 0
M  V30 2175 O 220.811 5.9952 0.534727 0
M  V30 2176 H 224.637 2.9448 -0.742661 0
M  V30 2177 H 222.222 1.43117 -0.428705 0
M  V30 2178 H 224.104 3.93796 1.50008 0
M  V30 2179 H 222.779 2.758 1.69458 0
M  V30 2180 H 221.686 3.71796 -0.414558 0
M  V30 2181 H 223.019 4.89383 -0.52586 0
M  V30 2182 N 224.671 0.411399 1.52136 0
M  V30 2183 C 225.948 -0.222308 1.94333 0
M  V30 2184 C 226.328 -1.6242 1.34844 0
M  V30 2185 O 225.676 -2.22384 0.525145 0
M  V30 2186 C 225.886 -0.226345 3.48265 0
M  V30 2187 C 227.234 -0.444592 4.22266 0
M  V30 2188 O 228.258 -0.305602 3.54887 0
M  V30 2189 O 227.117 -0.718749 5.41753 0
M  V30 2190 H 224.211 -0.143907 0.814383 0
M  V30 2191 H 226.757 0.467506 1.63133 0
M  V30 2192 H 225.529 0.75475 3.83952 0
M  V30 2193 H 225.152 -0.960163 3.85832 0
M  V30 2194 N 226.149 -1.5696 0.141893 0
M  V30 2195 C 227.398 -1.95135 -0.510427 0
M  V30 2196 C 227.711 -1.02896 -1.66348 0
M  V30 2197 O 228.917 -1.30629 -2.38009 0
M  V30 2198 C 227.373 -3.46876 -0.959427 0
M  V30 2199 C 226.981 -4.47691 0.166419 0
M  V30 2200 C 228.725 -3.93927 -1.58183 0
M  V30 2201 C 226.632 -5.90636 -0.300565 0
M  V30 2202 H 225.562 -0.728494 -0.194454 0
M  V30 2203 H 228.213 -1.8211 0.22542 0
M  V30 2204 H 226.595 -3.55215 -1.75038 0
M  V30 2205 H 227.769 -4.51043 0.94325 0
M  V30 2206 H 226.084 -4.10527 0.696905 0
M  V30 2207 H 228.681 -4.98158 -1.94275 0
M  V30 2208 H 229.024 -3.3519 -2.46888 0
M  V30 2209 H 229.557 -3.88484 -0.855863 0
M  V30 2210 H 226.296 -6.5318 0.550989 0
M  V30 2211 H 225.816 -5.90655 -1.04338 0
M  V30 2212 H 227.495 -6.42588 -0.754265 0
M  V30 2213 N 227.627 0.131896 -1.57047 0
M  V30 2214 C 228.852 0.860418 -1.8871 0
M  V30 2215 C 229.277 1.73251 -0.73251 0
M  V30 2216 O 228.635 1.785 0.317429 0
M  V30 2217 C 228.683 1.68047 -3.19049 0
M  V30 2218 O 227.787 2.7862 -3.04047 0
M  V30 2219 H 227.128 0.238743 -0.619595 0
M  V30 2220 H 229.658 0.118169 -2.04258 0
M  V30 2221 H 229.668 2.07238 -3.51449 0
M  V30 2222 H 228.343 1.04018 -4.02682 0
M  V30 2223 H 226.92 2.42726 -2.83088 0
M  V30 2224 N 229.106 1.52395 0.401703 0
M  V30 2225 C 230.352 1.67065 1.14966 0
M  V30 2226 C 230.685 0.403052 1.89971 0
M  V30 2227 O 229.96 -0.598774 1.85054 0
M  V30 2228 C 230.243 2.8975 2.13815 0
M  V30 2229 C 230.096 4.26578 1.42658 0
M  V30 2230 C 231.415 3.07965 3.14397 0
M  V30 2231 H 228.534 0.607968 0.416587 0
M  V30 2232 H 231.176 1.84965 0.434511 0
M  V30 2233 H 229.326 2.74619 2.74803 0
M  V30 2234 H 230.998 4.53451 0.847329 0
M  V30 2235 H 229.241 4.27639 0.72849 0
M  V30 2236 H 229.912 5.08483 2.14823 0
M  V30 2237 H 232.388 3.22043 2.63491 0
M  V30 2238 H 231.264 3.95308 3.80819 0
M  V30 2239 H 231.525 2.21611 3.82545 0
M  V30 2240 N 230.584 -0.659388 1.43143 0
M  V30 2241 C 231.812 -1.44723 1.47861 0
M  V30 2242 C 232.227 -1.88563 0.0945886 0
M  V30 2243 O 231.584 -1.59108 -0.893915 0
M  V30 2244 C 231.635 -2.68627 2.41913 0
M  V30 2245 O 231.356 -2.26623 3.74932 0
M  V30 2246 C 232.857 -3.62045 2.55809 0
M  V30 2247 H 230.077 -0.444801 0.502387 0
M  V30 2248 H 232.621 -0.808916 1.87821 0
M  V30 2249 H 230.776 -3.28613 2.05164 0
M  V30 2250 H 231.19 -3.06745 4.2545 0
M  V30 2251 H 232.664 -4.45666 3.25708 0
M  V30 2252 H 233.141 -4.08981 1.60099 0
M  V30 2253 H 233.747 -3.07944 2.93344 0
M  V30 2254 N 232.062 -1.29571 -0.897171 0
M  V30 2255 C 233.025 -1.14913 -1.98312 0
M  V30 2256 C 234.025 -0.0838629 -1.60581 0
M  V30 2257 O 235.215 -0.331006 -1.71026 0
M  V30 2258 C 232.347 -0.757835 -3.3237 0
M  V30 2259 H 233.54 -2.11377 -2.12743 0
M  V30 2260 H 231.093 -1.12793 -1.08201 0
M  V30 2261 H 231.828 0.206837 -3.2364 0
M  V30 2262 H 231.613 -1.52755 -3.61121 0
M  V30 2263 H 233.103 -0.678408 -4.12053 0
M  V30 2264 N 233.54 1.10788 -1.12088 0
M  V30 2265 C 234.45 2.20599 -0.798338 0
M  V30 2266 C 235.466 1.72712 0.21135 0
M  V30 2267 O 236.642 2.01348 0.0458477 0
M  V30 2268 C 233.707 3.45771 -0.253674 0
M  V30 2269 C 232.768 4.08411 -1.32283 0
M  V30 2270 C 232.001 5.27608 -0.80406 0
M  V30 2271 O 232.224 5.69241 0.363478 0
M  V30 2272 O 231.158 5.8101 -1.57198 0
M  V30 2273 H 234.984 2.50614 -1.7154 0
M  V30 2274 H 232.569 1.19454 -0.897275 0
M  V30 2275 H 234.451 4.21376 0.0453691 0
M  V30 2276 H 233.126 3.1739 0.636005 0
M  V30 2277 H 232.033 3.34507 -1.67499 0
M  V30 2278 H 233.366 4.40986 -2.18614 0
M  V30 2279 N 235.018 0.912232 1.28515 0
M  V30 2280 C 236.243 0.559774 1.99703 0
M  V30 2281 C 236.668 -0.851393 1.67729 0
M  V30 2282 O 236.026 -1.56875 0.908834 0
M  V30 2283 C 236.074 0.773874 3.52198 0
M  V30 2284 O 235.178 -0.167842 4.12058 0
M  V30 2285 H 234.519 0.21723 0.627461 0
M  V30 2286 H 237.049 1.22725 1.63706 0
M  V30 2287 H 237.059 0.683386 4.02236 0
M  V30 2288 H 235.734 1.80261 3.74805 0
M  V30 2289 H 234.311 -0.0287509 3.72889 0
M  V30 2290 N 236.496 -1.42363 0.676048 0
M  V30 2291 C 237.742 -2.0182 0.199125 0
M  V30 2292 C 238.075 -1.53339 -1.19168 0
M  V30 2293 O 237.35 -0.736124 -1.80032 0
M  V30 2294 C 237.633 -3.59331 0.235144 0
M  V30 2295 C 237.486 -4.17989 1.66149 0
M  V30 2296 C 238.805 -4.3813 -0.41595 0
M  V30 2297 H 235.924 -0.733293 0.0738311 0
M  V30 2298 H 238.566 -1.69368 0.86107 0
M  V30 2299 H 236.716 -3.87109 -0.328487 0
M  V30 2300 H 238.388 -4.0116 2.27747 0
M  V30 2301 H 236.631 -3.7377 2.20178 0
M  V30 2302 H 237.302 -5.27126 1.63837 0
M  V30 2303 H 239.778 -4.16051 0.0638529 0
M  V30 2304 H 238.654 -5.47717 -0.360115 0
M  V30 2305 H 238.915 -4.16101 -1.49373 0
M  V30 2306 N 237.974 -0.419461 -1.51915 0
M  V30 2307 C 239.39 -0.0708431 -1.59443 0
M  V30 2308 C 239.59 1.41796 -1.43164 0
M  V30 2309 O 238.646 2.18596 -1.26381 0
M  V30 2310 C 239.959 -0.574991 -2.95151 0
M  V30 2311 C 241.507 -0.533867 -3.08413 0
M  V30 2312 C 241.982 -1.01469 -4.46618 0
M  V30 2313 N 243.473 -0.971939 -4.52888 0
M  V30 2314 C 244.208 -1.31505 -5.58116 0
M  V30 2315 N 243.704 -1.73014 -6.70849 0
M  V30 2316 N 245.497 -1.23436 -5.48379 0
M  V30 2317 H 237.648 -1.38836 -1.60743 0
M  V30 2318 H 239.911 -0.570998 -0.756747 0
M  V30 2319 H 239.617 -1.61597 -3.12377 0
M  V30 2320 H 239.491 0.00979777 -3.77199 0
M  V30 2321 H 241.878 0.498086 -2.90866 0
M  V30 2322 H 241.959 -1.15484 -2.28248 0
M  V30 2323 H 241.603 -2.04502 -4.6491 0
M  V30 2324 H 241.533 -0.370433 -5.25295 0
M  V30 2325 H 244.024 -0.666893 -3.71969 0
M  V30 2326 H 244.337 -1.97479 -7.47143 0
M  V30 2327 H 242.682 -1.76926 -6.72103 0
M  V30 2328 H 245.873 -0.908869 -4.59192 0
M  V30 2329 H 246.046 -1.50506 -6.30279 0
M  V30 2330 N 239.452 1.56882 -0.150215 0
M  V30 2331 C 240.384 2.14057 0.819286 0
M  V30 2332 C 241.397 1.09082 1.20851 0
M  V30 2333 O 242.586 1.36347 1.15203 0
M  V30 2334 C 239.686 2.65102 2.11127 0
M  V30 2335 C 238.859 3.94511 1.88891 0
M  V30 2336 C 237.918 4.30834 3.02107 0
M  V30 2337 O 236.944 4.99099 2.73659 0
M  V30 2338 N 238.146 3.90676 4.29363 0
M  V30 2339 H 240.911 2.97871 0.330618 0
M  V30 2340 H 238.472 1.61866 0.0332538 0
M  V30 2341 H 240.464 2.86411 2.85921 0
M  V30 2342 H 239.034 1.85994 2.51247 0
M  V30 2343 H 238.254 3.81795 0.981152 0
M  V30 2344 H 239.542 4.7907 1.71376 0
M  V30 2345 H 238.94 3.35677 4.55343 0
M  V30 2346 H 237.497 4.1703 5.00928 0
M  V30 2347 N 240.93 -0.123565 1.57115 0
M  V30 2348 C 241.84 -1.17074 2.033 0
M  V30 2349 C 242.856 -1.4561 0.952559 0
M  V30 2350 O 244.032 -1.56817 1.26374 0
M  V30 2351 C 241.097 -2.47857 2.42421 0
M  V30 2352 C 240.158 -2.26758 3.64526 0
M  V30 2353 C 239.391 -3.51305 4.01771 0
M  V30 2354 O 239.614 -4.5843 3.39409 0
M  V30 2355 O 238.548 -3.42578 4.94898 0
M  V30 2356 H 242.374 -0.808555 2.92739 0
M  V30 2357 H 239.959 -0.334027 1.45618 0
M  V30 2358 H 241.841 -3.2492 2.68338 0
M  V30 2359 H 240.516 -2.83558 1.5613 0
M  V30 2360 H 239.423 -1.47569 3.43765 0
M  V30 2361 H 240.756 -1.95963 4.51508 0
M  V30 2362 N 242.408 -1.52605 -0.393616 0
M  V30 2363 C 243.371 -1.76415 -1.46323 0
M  V30 2364 C 244.371 -0.634126 -1.47768 0
M  V30 2365 O 245.561 -0.902142 -1.4902 0
M  V30 2366 C 242.693 -1.8607 -2.85641 0
M  V30 2367 H 243.886 -2.71916 -1.26498 0
M  V30 2368 H 241.439 -1.43257 -0.625073 0
M  V30 2369 H 242.174 -0.925378 -3.10817 0
M  V30 2370 H 241.959 -2.68235 -2.85993 0
M  V30 2371 H 243.449 -2.06179 -3.63153 0
M  V30 2372 N 243.887 0.651787 -1.4349 0
M  V30 2373 C 245.303 0.96762 -1.26922 0
M  V30 2374 C 245.503 2.00602 -0.189982 0
M  V30 2375 O 244.559 2.48793 0.431107 0
M  V30 2376 C 245.872 1.45052 -2.63401 0
M  V30 2377 C 247.42 1.5671 -2.70945 0
M  V30 2378 C 247.895 2.0839 -4.07845 0
M  V30 2379 N 249.386 2.1569 -4.09917 0
M  V30 2380 C 250.121 2.56804 -5.12679 0
M  V30 2381 N 249.617 2.97203 -6.25813 0
M  V30 2382 N 251.41 2.56756 -5.00033 0
M  V30 2383 H 243.561 -0.0353158 -2.12371 0
M  V30 2384 H 245.824 0.0467858 -0.946845 0
M  V30 2385 H 245.53 0.761926 -3.43348 0
M  V30 2386 H 245.404 2.42529 -2.88894 0
M  V30 2387 H 247.791 2.2467 -1.9133 0
M  V30 2388 H 247.872 0.57662 -2.49216 0
M  V30 2389 H 247.516 1.41031 -4.87927 0
M  V30 2390 H 247.446 3.08271 -4.26938 0
M  V30 2391 H 249.937 1.87237 -3.28254 0
M  V30 2392 H 250.25 3.27328 -7.00055 0
M  V30 2393 H 248.595 2.95004 -6.29283 0
M  V30 2394 H 251.786 2.24572 -4.10713 0
M  V30 2395 H 251.959 2.88475 -5.80247 0
M  V30 2396 N 245.365 1.30045 0.890287 0
M  V30 2397 C 246.295 1.18541 2.01172 0
M  V30 2398 C 247.276 0.0773356 1.69924 0
M  V30 2399 O 248.461 0.25845 1.92473 0
M  V30 2400 C 245.591 0.870941 3.36202 0
M  V30 2401 C 244.545 1.93637 3.81692 0
M  V30 2402 C 243.871 1.475 5.13953 0
M  V30 2403 C 245.171 3.34666 4.00994 0
M  V30 2404 H 246.865 2.12359 2.11054 0
M  V30 2405 H 244.411 1.02238 1.01407 0
M  V30 2406 H 246.364 0.777141 4.14172 0
M  V30 2407 H 245.088 -0.102926 3.26438 0
M  V30 2408 H 243.747 2.01972 3.05946 0
M  V30 2409 H 243.395 0.489551 5.00612 0
M  V30 2410 H 243.095 2.1876 5.4536 0
M  V30 2411 H 244.619 1.39489 5.94454 0
M  V30 2412 H 246.033 3.2912 4.69417 0
M  V30 2413 H 244.43 4.03966 4.43769 0
M  V30 2414 H 245.5 3.76949 3.05021 0
M  V30 2415 N 246.843 -1.10192 1.12674 0
M  V30 2416 C 248.09 -1.82205 0.883606 0
M  V30 2417 C 248.418 -1.8532 -0.590492 0
M  V30 2418 O 247.673 -1.31137 -1.45264 0
M  V30 2419 C 247.972 -3.28552 1.4067 0
M  V30 2420 C 247.638 -3.45582 2.89627 0
M  V30 2421 C 246.3 -3.49937 3.30299 0
M  V30 2422 C 248.652 -3.50768 3.85501 0
M  V30 2423 C 245.98 -3.57049 4.65546 0
M  V30 2424 C 248.332 -3.59414 5.20581 0
M  V30 2425 C 246.996 -3.62034 5.60792 0
M  V30 2426 H 246.266 -0.666735 0.323334 0
M  V30 2427 H 248.913 -1.29868 1.40736 0
M  V30 2428 H 247.218 -3.83473 0.80347 0
M  V30 2429 H 248.915 -3.82788 1.19475 0
M  V30 2430 H 245.505 -3.42871 2.57172 0
M  V30 2431 H 249.689 -3.46651 3.55171 0
M  V30 2432 H 244.945 -3.57361 4.96088 0
M  V30 2433 H 249.119 -3.62371 5.94693 0
M  V30 2434 H 246.746 -3.67298 6.6558 0
M  V30 2435 N 248.321 -0.919034 -1.28029 0
M  V30 2436 C 249.284 -0.416182 -2.2539 0
M  V30 2437 C 250.284 0.460438 -1.54067 0
M  V30 2438 O 251.474 0.262744 -1.72207 0
M  V30 2439 C 248.606 0.402707 -3.38513 0
M  V30 2440 H 249.799 -1.27629 -2.71387 0
M  V30 2441 H 247.352 -0.698919 -1.39803 0
M  V30 2442 H 248.087 1.282 -2.97885 0
M  V30 2443 H 247.872 -0.225698 -3.9145 0
M  V30 2444 H 249.362 0.745191 -4.10897 0
M  V30 2445 N 249.799 1.42003 -0.683588 0
M  V30 2446 C 250.732 2.28166 0.039592 0
M  V30 2447 C 251.71 1.41562 0.799942 0
M  V30 2448 O 252.894 1.70997 0.793248 0
M  V30 2449 C 250.021 3.21575 1.06335 0
M  V30 2450 C 249.067 4.24643 0.397562 0
M  V30 2451 S 249.9 5.2869 -0.851296 0
M  V30 2452 C 251.056 6.25666 0.171166 0
M  V30 2453 H 251.289 2.89153 -0.691229 0
M  V30 2454 H 248.822 1.46962 -0.473435 0
M  V30 2455 H 250.78 3.75928 1.6489 0
M  V30 2456 H 249.441 2.59707 1.76667 0
M  V30 2457 H 248.634 4.90223 1.17035 0
M  V30 2458 H 248.236 3.73824 -0.114611 0
M  V30 2459 H 250.528 6.69653 1.02819 0
M  V30 2460 H 251.471 7.06666 -0.450397 0
M  V30 2461 H 251.879 5.62095 0.520578 0
M  V30 2462 N 251.277 0.427512 1.51691 0
M  V30 2463 C 252.207 -0.3796 2.30394 0
M  V30 2464 C 253.188 -1.02982 1.35384 0
M  V30 2465 O 254.373 -1.03534 1.643 0
M  V30 2466 C 251.503 -1.48649 3.1388 0
M  V30 2467 C 250.457 -0.960294 4.17088 0
M  V30 2468 C 249.783 -2.16219 4.89033 0
M  V30 2469 C 251.083 -0.00153679 5.223 0
M  V30 2470 H 252.777 0.277164 2.98114 0
M  V30 2471 H 250.323 0.134739 1.43368 0
M  V30 2472 H 252.276 -2.05826 3.67714 0
M  V30 2473 H 251 -2.1714 2.43962 0
M  V30 2474 H 249.659 -0.410806 3.64291 0
M  V30 2475 H 249.307 -2.83307 4.15628 0
M  V30 2476 H 249.007 -1.81654 5.58816 0
M  V30 2477 H 250.531 -2.73968 5.45687 0
M  V30 2478 H 251.945 -0.482687 5.71264 0
M  V30 2479 H 250.342 0.256199 5.99553 0
M  V30 2480 H 251.412 0.938174 4.75738 0
M  V30 2481 N 252.755 -1.56801 0.158532 0
M  V30 2482 C 253.718 -2.16138 -0.762705 0
M  V30 2483 C 254.718 -1.1061 -1.16713 0
M  V30 2484 O 255.908 -1.36191 -1.08617 0
M  V30 2485 C 253.04 -2.73386 -2.03649 0
M  V30 2486 H 254.233 -2.98886 -0.246354 0
M  V30 2487 H 251.786 -1.56035 -0.0909744 0
M  V30 2488 H 252.521 -1.94335 -2.59623 0
M  V30 2489 H 252.306 -3.50601 -1.75559 0
M  V30 2490 H 253.796 -3.19065 -2.6942 0
M  V30 2491 N 254.233 0.115231 -1.57178 0
M  V30 2492 C 255.183 1.14707 -1.97044 0
M  V30 2493 C 256.167 1.36866 -0.845957 0
M  V30 2494 O 257.359 1.37895 -1.10968 0
M  V30 2495 C 254.488 2.47266 -2.38148 0
M  V30 2496 C 253.574 2.28566 -3.57237 0
M  V30 2497 N 253.965 1.79685 -4.72807 0
M  V30 2498 C 252.263 2.59208 -3.62943 0
M  V30 2499 C 252.964 1.74781 -5.54821 0
M  V30 2500 N 251.94 2.19264 -4.97417 0
M  V30 2501 H 255.742 0.761754 -2.83857 0
M  V30 2502 H 253.256 0.322928 -1.59157 0
M  V30 2503 H 255.253 3.219 -2.64927 0
M  V30 2504 H 253.913 2.86552 -1.52702 0
M  V30 2505 H 254.924 1.49177 -4.9595 0
M  V30 2506 H 251.601 3.02154 -2.88113 0
M  V30 2507 H 252.991 1.38212 -6.57531 0
M  V30 2508 N 255.711 1.52812 0.385517 0
M  V30 2509 C 257.122 1.5993 0.963293 0
M  V30 2510 C 257.473 0.454302 1.90868 0
M  V30 2511 O 256.598 -0.422132 2.12243 0
M  V30 2512 C 257.193 2.89871 1.75387 0
M  V30 2513 C 255.752 2.99389 2.28129 0
M  V30 2514 C 254.899 2.55071 1.08783 0
M  V30 2515 H 257.85 1.5784 0.164948 0
M  V30 2516 H 257.871 2.76553 2.61341 0
M  V30 2517 H 257.383 3.73186 1.06554 0
M  V30 2518 H 255.484 2.20619 3.00263 0
M  V30 2519 H 255.597 4.04096 2.57377 0
M  V30 2520 H 253.961 2.09473 1.4489 0
M  V30 2521 H 254.744 3.40785 0.414807 0
M  V30 2522 N 257.189 -0.644168 1.43834 0
M  V30 2523 C 258.137 -1.77793 1.49974 0
M  V30 2524 C 259.131 -1.65253 0.372536 0
M  V30 2525 O 260.337 -1.7149 0.546924 0
M  V30 2526 H 256.712 -0.58675 0.47035 0
M  V30 2527 H 258.683 -1.69736 2.45423 0
M  V30 2528 C 257.432 -3.16087 1.4486 0
M  V30 2529 H 256.755 -3.26378 2.30905 0
M  V30 2530 H 258.195 -3.95349 1.53217 0
M  V30 2531 C 256.654 -3.36484 0.167463 0
M  V30 2532 O 257.184 -3.94298 -0.767609 0
M  V30 2533 N 255.39 -2.90504 0.0747556 0
M  V30 2534 H 254.937 -2.4364 0.836507 0
M  V30 2535 H 254.895 -3.04527 -0.781714 0
M  V30 2536 N 258.668 -1.30515 -0.883378 0
M  V30 2537 C 259.917 -1.18795 -1.63005 0
M  V30 2538 C 260.23 0.255923 -1.93919 0
M  V30 2539 O 261.436 0.494654 -2.66956 0
M  V30 2540 C 259.892 -2.07878 -2.93794 0
M  V30 2541 C 259.5 -3.57184 -2.70414 0
M  V30 2542 C 261.244 -2.04924 -3.71761 0
M  V30 2543 C 259.151 -4.38317 -3.97029 0
M  V30 2544 H 258.081 -0.441031 -0.611562 0
M  V30 2545 H 260.732 -1.55275 -0.977854 0
M  V30 2546 H 259.114 -1.64283 -3.60315 0
M  V30 2547 H 260.288 -4.08937 -2.12384 0
M  V30 2548 H 258.603 -3.61976 -2.0582 0
M  V30 2549 H 261.2 -2.62792 -4.65665 0
M  V30 2550 H 261.543 -1.0331 -4.03277 0
M  V30 2551 H 262.076 -2.46649 -3.12104 0
M  V30 2552 H 258.815 -5.40632 -3.70671 0
M  V30 2553 H 258.335 -3.91326 -4.54559 0
M  V30 2554 H 260.014 -4.49834 -4.65036 0
M  V30 2555 N 260.146 1.09593 -1.13257 0
M  V30 2556 C 261.395 1.81105 -0.887917 0
M  V30 2557 C 261.708 1.86563 0.587672 0
M  V30 2558 O 262.914 2.54367 0.949204 0
M  V30 2559 C 261.37 3.25338 -1.53895 0
M  V30 2560 C 260.978 3.28151 -3.04994 0
M  V30 2561 C 262.722 4.01617 -1.37492 0
M  V30 2562 C 260.629 4.66897 -3.6299 0
M  V30 2563 H 259.559 0.678661 -0.328534 0
M  V30 2564 H 262.21 1.23183 -1.36008 0
M  V30 2565 H 260.592 3.8331 -0.994446 0
M  V30 2566 H 261.766 2.79953 -3.66009 0
M  V30 2567 H 260.081 2.65361 -3.20893 0
M  V30 2568 H 262.678 5.04119 -1.78235 0
M  V30 2569 H 263.021 4.15072 -0.31957 0
M  V30 2570 H 263.554 3.50082 -1.88912 0
M  V30 2571 H 260.293 4.58643 -4.68323 0
M  V30 2572 H 259.813 5.15426 -3.06752 0
M  V30 2573 H 261.492 5.3587 -3.62563 0
M  V30 2574 N 261.624 0.925811 1.2754 0
M  V30 2575 C 262.587 0.428129 2.25166 0
M  V30 2576 C 263.587 -0.452261 1.54309 0
M  V30 2577 O 264.777 -0.253608 1.72344 0
M  V30 2578 C 261.909 -0.384749 3.38722 0
M  V30 2579 H 263.102 1.29066 2.70706 0
M  V30 2580 H 260.655 0.706323 1.3943 0
M  V30 2581 H 261.39 -1.26618 2.98561 0
M  V30 2582 H 261.175 0.246454 3.91325 0
M  V30 2583 H 262.665 -0.723389 4.11287 0
M  V30 2584 N 263.102 -1.41638 0.69111 0
M  V30 2585 C 264.032 -2.3347 0.037248 0
M  V30 2586 C 265.013 -1.51575 -0.771947 0
M  V30 2587 O 266.198 -1.80126 -0.72582 0
M  V30 2588 C 263.328 -3.35354 -0.903064 0
M  V30 2589 C 262.282 -4.27526 -0.201288 0
M  V30 2590 C 261.608 -5.19747 -1.25565 0
M  V30 2591 C 262.908 -5.13959 0.929689 0
M  V30 2592 H 264.602 -2.88397 0.804227 0
M  V30 2593 H 262.148 -1.38669 0.388189 0
M  V30 2594 H 264.101 -3.98519 -1.36969 0
M  V30 2595 H 262.825 -2.78767 -1.70166 0
M  V30 2596 H 261.484 -3.65779 0.245265 0
M  V30 2597 H 261.132 -4.59479 -2.04666 0
M  V30 2598 H 260.832 -5.8225 -0.791128 0
M  V30 2599 H 262.356 -5.85789 -1.72288 0
M  V30 2600 H 263.77 -5.70718 0.543546 0
M  V30 2601 H 262.167 -5.85379 1.32103 0
M  V30 2602 H 263.237 -4.51389 1.77133 0
M  V30 2603 N 264.58 -0.43555 -1.51462 0
M  V30 2604 C 265.527 0.376797 -2.27703 0
M  V30 2605 C 266.497 1.01838 -1.31219 0
M  V30 2606 O 267.682 1.03762 -1.60119 0
M  V30 2607 C 264.822 1.47301 -3.12084 0
M  V30 2608 C 263.935 0.849744 -4.2356 0
M  V30 2609 C 263.07 1.92086 -4.95254 0
M  V30 2610 C 262.109 1.27593 -5.98654 0
M  V30 2611 N 261.246 2.28833 -6.63762 0
M  V30 2612 H 266.086 -0.279734 -2.96684 0
M  V30 2613 H 263.623 -0.149795 -1.46335 0
M  V30 2614 H 265.581 2.11984 -3.59331 0
M  V30 2615 H 264.211 2.0992 -2.45221 0
M  V30 2616 H 263.263 0.0912529 -3.80291 0
M  V30 2617 H 264.575 0.338878 -4.97648 0
M  V30 2618 H 263.729 2.64435 -5.46039 0
M  V30 2619 H 262.468 2.46545 -4.20793 0
M  V30 2620 H 261.473 0.537893 -5.47162 0
M  V30 2621 H 262.698 0.738693 -6.7507 0
M  V30 2622 H 260.644 2.82375 -5.92115 0
M  V30 2623 H 260.561 1.82632 -7.33608 0
M  V30 2624 H 261.829 3.00671 -7.19178 0
M  V30 2625 N 266.058 1.56714 -0.166846 0
M  V30 2626 C 267.021 2.16539 0.751232 0
M  V30 2627 C 268.021 1.11228 1.16125 0
M  V30 2628 O 269.211 1.36765 1.07894 0
M  V30 2629 C 266.343 2.74462 2.02196 0
M  V30 2630 H 267.536 2.99013 0.230499 0
M  V30 2631 H 265.089 1.56081 0.0826982 0
M  V30 2632 H 265.824 1.95709 2.58589 0
M  V30 2633 H 265.609 3.51527 1.73698 0
M  V30 2634 H 267.099 3.20489 2.67725 0
M  V30 2635 N 267.536 -0.106894 1.57237 0
M  V30 2636 C 268.782 -0.81373 1.85759 0
M  V30 2637 C 269.115 -1.78952 0.754315 0
M  V30 2638 O 268.39 -1.93029 -0.23879 0
M  V30 2639 C 268.673 -1.55293 3.24894 0
M  V30 2640 C 268.526 -0.595929 4.45835 0
M  V30 2641 C 269.845 -2.5063 3.61763 0
M  V30 2642 H 266.964 -0.294369 0.67566 0
M  V30 2643 H 269.606 -0.0776472 1.89841 0
M  V30 2644 H 267.756 -2.1804 3.21544 0
M  V30 2645 H 269.428 0.0236262 4.61294 0
M  V30 2646 H 267.671 0.0916191 4.33703 0
M  V30 2647 H 268.342 -1.15004 5.39887 0
M  V30 2648 H 270.818 -1.97982 3.65981 0
M  V30 2649 H 269.694 -2.99376 4.60071 0
M  V30 2650 H 269.955 -3.3385 2.89821 0
M  V30 2651 N 269.014 -1.53014 -0.377408 0
M  V30 2652 C 270.254 -1.70318 -1.1301 0
M  V30 2653 C 270.618 -0.439538 -1.86901 0
M  V30 2654 O 271.819 -0.489095 -2.64313 0
M  V30 2655 C 270.09 -2.91125 -2.07319 0
M  V30 2656 S 271.649 -3.29075 -2.90268 0
M  V30 2657 H 268.467 -0.599426 -0.382374 0
M  V30 2658 H 271.069 -1.91089 -0.412933 0
M  V30 2659 H 269.773 -3.81303 -1.51777 0
M  V30 2660 H 269.304 -2.7272 -2.83526 0
M  V30 2661 H 271.319 -2.80165 -4.09539 0
M  V30 2662 N 270.492 0.636531 -1.44174 0
M  V30 2663 C 271.422 1.76003 -1.53444 0
M  V30 2664 C 272.403 1.65619 -0.387841 0
M  V30 2665 O 273.588 1.84461 -0.607257 0
M  V30 2666 C 270.718 3.14511 -1.4731 0
M  V30 2667 C 269.672 3.39677 -2.60391 0
M  V30 2668 C 268.998 4.78159 -2.39308 0
M  V30 2669 C 270.298 3.32772 -4.02567 0
M  V30 2670 H 271.992 1.68501 -2.47483 0
M  V30 2671 H 269.538 0.809237 -1.19111 0
M  V30 2672 H 271.491 3.92878 -1.52397 0
M  V30 2673 H 270.215 3.22783 -0.49785 0
M  V30 2674 H 268.874 2.63688 -2.54684 0
M  V30 2675 H 268.522 4.83128 -1.39988 0
M  V30 2676 H 268.222 4.95956 -3.15122 0
M  V30 2677 H 269.746 5.58762 -2.46205 0
M  V30 2678 H 271.16 4.01051 -4.09672 0
M  V30 2679 H 269.557 3.62104 -4.7854 0
M  V30 2680 H 270.627 2.30669 -4.2652 0
M  V30 2681 N 271.97 1.30982 0.876444 0
M  V30 2682 C 272.88 1.2003 2.01569 0
M  V30 2683 C 273.896 0.11838 1.73597 0
M  V30 2684 O 275.072 0.33495 1.98595 0
M  V30 2685 C 272.137 0.901637 3.34771 0
M  V30 2686 C 271.198 2.06979 3.76109 0
M  V30 2687 C 270.431 1.78529 5.02954 0
M  V30 2688 O 270.654 0.717296 5.65872 0
M  V30 2689 O 269.588 2.64019 5.40905 0
M  V30 2690 H 273.414 2.15753 2.13739 0
M  V30 2691 H 270.999 1.10658 1.00375 0
M  V30 2692 H 272.881 0.750645 4.1466 0
M  V30 2693 H 271.556 -0.0256141 3.2369 0
M  V30 2694 H 270.463 2.27616 2.96887 0
M  V30 2695 H 271.796 2.97907 3.91807 0
M  V30 2696 N 273.449 -1.08991 1.13837 0
M  V30 2697 C 274.359 -2.19301 0.833333 0
M  V30 2698 C 275.375 -1.73026 -0.183847 0
M  V30 2699 O 276.551 -2.01395 -0.0138092 0
M  V30 2700 C 273.616 -3.45323 0.308651 0
M  V30 2701 C 272.677 -4.06255 1.38764 0
M  V30 2702 C 271.91 -5.26262 0.887896 0
M  V30 2703 O 272.133 -5.69747 -0.27287 0
M  V30 2704 O 271.067 -5.78435 1.66421 0
M  V30 2705 H 274.893 -2.47854 1.75506 0
M  V30 2706 H 272.478 -1.18012 0.916166 0
M  V30 2707 H 274.36 -4.21394 0.0216739 0
M  V30 2708 H 273.035 -3.18362 -0.585431 0
M  V30 2709 H 271.942 -3.318 1.72799 0
M  V30 2710 H 273.275 -4.37452 2.25602 0
M  V30 2711 N 274.927 -0.932562 -1.27047 0
M  V30 2712 C 276.338 -0.619451 -1.76124 0
M  V30 2713 C 276.689 0.865397 -1.76083 0
M  V30 2714 O 275.814 1.67722 -1.36742 0
M  V30 2715 C 276.409 -1.11771 -3.19832 0
M  V30 2716 C 274.968 -0.855174 -3.66557 0
M  V30 2717 C 274.115 -1.27362 -2.46321 0
M  V30 2718 H 277.066 -1.11181 -1.13245 0
M  V30 2719 H 277.087 -0.46759 -3.77616 0
M  V30 2720 H 276.599 -2.19842 -3.1983 0
M  V30 2721 H 274.7 0.211524 -3.71999 0
M  V30 2722 H 274.813 -1.47613 -4.55793 0
M  V30 2723 H 273.177 -0.692119 -2.45116 0
M  V30 2724 H 273.96 -2.36307 -2.49025 0
M  V30 2725 N 276.405 1.4127 -0.698611 0
M  V30 2726 C 277.353 2.32588 -0.023855 0
M  V30 2727 C 278.347 1.51128 0.765292 0
M  V30 2728 O 279.553 1.67043 0.670571 0
M  V30 2729 H 275.928 0.751918 0.0110871 0
M  V30 2730 H 277.899 2.87167 -0.811031 0
M  V30 2731 C 276.648 3.35947 0.896369 0
M  V30 2732 H 275.971 3.98684 0.298548 0
M  V30 2733 H 277.411 4.02376 1.33676 0
M  V30 2734 C 275.87 2.70076 2.01396 0
M  V30 2735 O 276.4 2.55093 3.10307 0
M  V30 2736 N 274.606 2.28724 1.79259 0
M  V30 2737 H 274.153 2.4111 0.906841 0
M  V30 2738 H 274.111 1.84986 2.54219 0
M  V30 2739 N 277.883 0.443576 1.51229 0
M  V30 2740 C 278.813 -0.355142 2.30783 0
M  V30 2741 C 279.794 -1.0154 1.36468 0
M  V30 2742 O 280.979 -1.01785 1.65389 0
M  V30 2743 C 278.109 -1.45312 3.15439 0
M  V30 2744 C 277.063 -0.916002 4.18083 0
M  V30 2745 C 276.389 -2.1102 4.91299 0
M  V30 2746 C 277.689 0.0538602 5.22272 0
M  V30 2747 H 279.383 0.308767 2.97804 0
M  V30 2748 H 276.929 0.149937 1.43217 0
M  V30 2749 H 278.882 -2.01914 3.69876 0
M  V30 2750 H 277.606 -2.14541 2.46252 0
M  V30 2751 H 276.265 -0.372145 3.64706 0
M  V30 2752 H 275.913 -2.78882 4.18609 0
M  V30 2753 H 275.613 -1.75717 5.60712 0
M  V30 2754 H 277.137 -2.68164 5.48562 0
M  V30 2755 H 278.551 -0.422069 5.71744 0
M  V30 2756 H 276.948 0.319776 5.99247 0
M  V30 2757 H 278.018 0.98858 4.74716 0
M  V30 2758 N 279.361 -1.56624 0.175154 0
M  V30 2759 C 280.601 -1.98894 -0.471221 0
M  V30 2760 C 280.965 -1.05889 -1.60161 0
M  V30 2761 O 282.166 -1.37315 -2.3108 0
M  V30 2762 C 280.437 -3.44865 -0.938241 0
M  V30 2763 S 281.996 -4.09164 -1.58526 0
M  V30 2764 H 278.814 -0.694686 -0.151434 0
M  V30 2765 H 281.416 -1.93577 0.27352 0
M  V30 2766 H 280.12 -4.10265 -0.10518 0
M  V30 2767 H 279.651 -3.53956 -1.71693 0
M  V30 2768 H 281.666 -4.04528 -2.87352 0
M  V30 2769 N 280.839 0.0985539 -1.57292 0
M  V30 2770 C 281.769 1.12064 -2.04851 0
M  V30 2771 C 282.75 1.41981 -0.936767 0
M  V30 2772 O 283.935 1.52071 -1.20781 0
M  V30 2773 C 281.065 2.44144 -2.47004 0
M  V30 2774 C 280.019 2.28643 -3.6181 0
M  V30 2775 C 279.345 3.65869 -3.89929 0
M  V30 2776 C 280.645 1.72986 -4.92822 0
M  V30 2777 H 282.339 0.724979 -2.9049 0
M  V30 2778 H 279.885 0.34729 -1.39749 0
M  V30 2779 H 281.838 3.15914 -2.78884 0
M  V30 2780 H 280.562 2.85639 -1.5836 0
M  V30 2781 H 279.221 1.59318 -3.30172 0
M  V30 2782 H 278.869 4.04885 -2.98458 0
M  V30 2783 H 278.569 3.56344 -4.67218 0
M  V30 2784 H 280.093 4.39112 -4.2428 0
M  V30 2785 H 281.507 2.34593 -5.23105 0
M  V30 2786 H 279.904 1.74229 -5.74251 0
M  V30 2787 H 280.974 0.689007 -4.7998 0
M  V30 2788 N 282.317 1.53212 0.369288 0
M  V30 2789 C 283.563 1.69466 1.11397 0
M  V30 2790 C 283.896 0.443257 1.89074 0
M  V30 2791 O 283.171 -0.559386 1.86282 0
M  V30 2792 C 283.454 2.9422 2.07621 0
M  V30 2793 C 283.307 4.29508 1.33577 0
M  V30 2794 C 284.626 3.14565 3.07794 0
M  V30 2795 H 281.745 0.616667 0.403597 0
M  V30 2796 H 284.387 1.85845 0.395179 0
M  V30 2797 H 282.537 2.80387 2.68916 0
M  V30 2798 H 284.209 4.55147 0.750955 0
M  V30 2799 H 282.452 4.29088 0.637618 0
M  V30 2800 H 283.123 5.12926 2.03989 0
M  V30 2801 H 285.599 3.2756 2.56601 0
M  V30 2802 H 284.475 4.03297 3.72348 0
M  V30 2803 H 284.736 2.29675 3.77759 0
M  V30 2804 N 283.795 -0.628877 1.44509 0
M  V30 2805 C 284.728 -1.75367 1.46019 0
M  V30 2806 C 285.706 -1.59444 0.318787 0
M  V30 2807 O 286.89 -1.81297 0.516099 0
M  V30 2808 C 284.017 -3.12965 1.29501 0
M  V30 2809 C 283.063 -3.47532 2.47233 0
M  V30 2810 S 283.896 -3.44758 4.09758 0
M  V30 2811 C 285.052 -4.84973 3.95667 0
M  V30 2812 H 285.285 -1.7382 2.41193 0
M  V30 2813 H 282.818 -0.803686 1.31834 0
M  V30 2814 H 284.776 -3.92367 1.20658 0
M  V30 2815 H 283.437 -3.12049 0.358341 0
M  V30 2816 H 282.63 -4.47664 2.31544 0
M  V30 2817 H 282.232 -2.75598 2.52828 0
M  V30 2818 H 284.524 -5.74255 3.59496 0
M  V30 2819 H 285.467 -5.05716 4.95638 0
M  V30 2820 H 285.875 -4.59653 3.27688 0
M  V30 2821 N 285.273 -1.31445 -0.869486 0
M  V30 2822 C 286.183 -1.21097 -2.0093 0
M  V30 2823 C 287.199 -0.127584 -1.73532 0
M  V30 2824 O 288.375 -0.345477 -1.98415 0
M  V30 2825 C 285.44 -0.919378 -3.34288 0
M  V30 2826 C 284.501 -2.08971 -3.75006 0
M  V30 2827 C 283.734 -1.81194 -5.02001 0
M  V30 2828 O 283.957 -0.747296 -5.65484 0
M  V30 2829 O 282.891 -2.66883 -5.39497 0
M  V30 2830 H 286.717 -2.16883 -2.12592 0
M  V30 2831 H 284.302 -1.11189 -0.997868 0
M  V30 2832 H 286.184 -0.772625 -4.14257 0
M  V30 2833 H 284.859 0.00844772 -3.23699 0
M  V30 2834 H 283.766 -2.29187 -2.95676 0
M  V30 2835 H 285.099 -2.9998 -3.90221 0
M  V30 2836 N 286.751 1.08385 -1.14413 0
M  V30 2837 C 287.981 1.8425 -0.934644 0
M  V30 2838 C 288.389 1.81907 0.520234 0
M  V30 2839 O 287.732 1.22126 1.37226 0
M  V30 2840 C 287.794 3.32853 -1.35828 0
M  V30 2841 C 287.458 3.5893 -2.82875 0
M  V30 2842 C 288.455 3.53756 -3.80989 0
M  V30 2843 C 286.14 3.86934 -3.20293 0
M  V30 2844 C 288.134 3.76216 -5.14529 0
M  V30 2845 C 285.821 4.09047 -4.54008 0
M  V30 2846 C 286.819 4.03682 -5.50936 0
M  V30 2847 O 286.507 4.25214 -6.82238 0
M  V30 2848 H 286.239 0.588502 -0.332628 0
M  V30 2849 H 288.793 1.37792 -1.52324 0
M  V30 2850 H 287.023 3.8007 -0.713019 0
M  V30 2851 H 288.712 3.90154 -1.11957 0
M  V30 2852 H 289.478 3.32135 -3.53428 0
M  V30 2853 H 285.357 3.9023 -2.45442 0
M  V30 2854 H 288.901 3.71943 -5.90173 0
M  V30 2855 H 284.798 4.30151 -4.8129 0
M  V30 2856 H 285.566 4.42619 -6.88499 0
M  V30 2857 N 288.23 0.939286 1.26551 0
M  V30 2858 C 289.193 0.451987 2.24699 0
M  V30 2859 C 290.193 -0.435869 1.5478 0
M  V30 2860 O 291.383 -0.235314 1.72603 0
M  V30 2861 C 288.515 -0.348801 3.39111 0
M  V30 2862 H 289.708 1.3193 2.69322 0
M  V30 2863 H 287.261 0.721072 1.38673 0
M  V30 2864 H 287.996 -1.23444 2.99887 0
M  V30 2865 H 287.781 0.287945 3.91041 0
M  V30 2866 H 289.271 -0.679726 4.12031 0
M  V30 2867 N 289.708 -1.40897 0.706093 0
M  V30 2868 C 290.671 -2.29131 0.0562841 0
M  V30 2869 C 291.671 -1.44901 -0.697166 0
M  V30 2870 O 292.861 -1.65926 -0.530484 0
M  V30 2871 C 289.993 -3.27957 -0.93043 0
M  V30 2872 H 291.186 -2.88091 0.833284 0
M  V30 2873 H 288.739 -1.4906 0.470192 0
M  V30 2874 H 289.474 -2.73997 -1.73482 0
M  V30 2875 H 289.259 -3.90124 -0.393166 0
M  V30 2876 H 290.749 -3.94049 -1.38256 0
M  V30 2877 N 291.186 -0.45159 -1.50991 0
M  V30 2878 C 292.434 0.109857 -2.01801 0
M  V30 2879 C 292.755 1.41958 -1.3369 0
M  V30 2880 O 292.025 1.9003 -0.475951 0
M  V30 2881 H 290.605 0.0435884 -0.745727 0
M  V30 2882 H 293.267 -0.597557 -1.85514 0
M  V30 2883 H 292.363 0.275489 -3.10882 0
M  V30 2884 N 292.664 1.56529 -0.183458 0
M  V30 2885 C 293.912 1.96855 0.457452 0
M  V30 2886 C 294.233 1.07104 1.62953 0
M  V30 2887 O 293.503 0.139887 1.954 0
M  V30 2888 H 292.083 0.72693 0.171992 0
M  V30 2889 H 294.745 1.93056 -0.267476 0
M  V30 2890 H 293.841 3.01423 0.809368 0
M  V30 2891 N 294.142 -0.090211 1.57342 0
M  V30 2892 C 295.553 -0.644173 1.75235 0
M  V30 2893 C 295.904 -1.78865 0.806335 0
M  V30 2894 O 295.029 -2.16395 -0.0140128 0
M  V30 2895 C 295.624 -1.17532 3.1776 0
M  V30 2896 C 294.183 -1.67531 3.37061 0
M  V30 2897 C 293.33 -0.58693 2.71017 0
M  V30 2898 H 296.281 0.135884 1.58117 0
M  V30 2899 H 296.302 -2.04455 3.20902 0
M  V30 2900 H 295.814 -0.342138 3.86589 0
M  V30 2901 H 293.915 -2.53234 2.73319 0
M  V30 2902 H 294.028 -1.76493 4.45406 0
M  V30 2903 H 292.392 -1.02756 2.33052 0
M  V30 2904 H 293.175 0.235758 3.4249 0
M  V30 2905 N 295.62 -1.53406 -0.361157 0
M  V30 2906 C 296.55 -1.83136 -1.44857 0
M  V30 2907 C 297.531 -0.685174 -1.5569 0
M  V30 2908 O 298.716 -0.93544 -1.70186 0
M  V30 2909 C 295.846 -2.02522 -2.82138 0
M  V30 2910 C 294.8 -3.18302 -2.86126 0
M  V30 2911 C 294.126 -3.22989 -4.26125 0
M  V30 2912 C 295.426 -4.56796 -2.53248 0
M  V30 2913 H 297.12 -2.74201 -1.20226 0
M  V30 2914 H 294.666 -1.31938 -0.576922 0
M  V30 2915 H 296.619 -2.21904 -3.58241 0
M  V30 2916 H 295.343 -1.08172 -3.08166 0
M  V30 2917 H 294.002 -2.98747 -2.12475 0
M  V30 2918 H 293.65 -2.26267 -4.49235 0
M  V30 2919 H 293.35 -4.00781 -4.29708 0
M  V30 2920 H 294.874 -3.44559 -5.04094 0
M  V30 2921 H 296.288 -4.7631 -3.19064 0
M  V30 2922 H 294.685 -5.36862 -2.68141 0
M  V30 2923 H 295.755 -4.61606 -1.48484 0
M  V30 2924 N 297.098 0.621204 -1.44841 0
M  V30 2925 C 298.323 1.41244 -1.51871 0
M  V30 2926 C 298.748 1.87519 -0.147764 0
M  V30 2927 O 298.106 1.59334 0.865 0
M  V30 2928 C 298.154 2.60221 -2.49634 0
M  V30 2929 O 297.258 3.60395 -2.00473 0
M  V30 2930 H 296.599 0.42223 -0.512463 0
M  V30 2931 H 299.129 0.757305 -1.90069 0
M  V30 2932 H 299.139 3.0764 -2.67996 0
M  V30 2933 H 297.814 2.25887 -3.4921 0
M  V30 2934 H 296.391 3.19717 -1.91925 0
M  V30 2935 N 298.576 1.31904 0.862503 0
M  V30 2936 C 299.992 1.10724 1.14945 0
M  V30 2937 C 300.192 -0.117421 2.01158 0
M  V30 2938 O 299.248 -0.804595 2.39338 0
M  V30 2939 C 300.561 2.38267 1.83437 0
M  V30 2940 C 302.109 2.43949 1.96106 0
M  V30 2941 C 302.584 3.71394 2.68013 0
M  V30 2942 N 304.075 3.72331 2.75543 0
M  V30 2943 C 304.81 4.67641 3.31812 0
M  V30 2944 N 304.306 5.73313 3.88953 0
M  V30 2945 N 306.099 4.5515 3.29841 0
M  V30 2946 H 298.25 2.10436 0.288191 0
M  V30 2947 H 300.513 0.928705 0.190292 0
M  V30 2948 H 300.219 3.27759 1.27542 0
M  V30 2949 H 300.093 2.48633 2.83657 0
M  V30 2950 H 302.48 1.54922 2.51164 0
M  V30 2951 H 302.561 2.37543 0.949059 0
M  V30 2952 H 302.205 4.60791 2.13621 0
M  V30 2953 H 302.135 3.75069 3.69636 0
M  V30 2954 H 304.626 2.95947 2.34997 0
M  V30 2955 H 304.939 6.42107 4.30022 0
M  V30 2956 H 303.284 5.77077 3.87308 0
M  V30 2957 H 306.475 3.71766 2.84443 0
M  V30 2958 H 306.648 5.29604 3.73394 0
M  V30 2959 N 300.054 -1.07777 1.14986 0
M  V30 2960 C 301.017 -2.13041 0.845358 0
M  V30 2961 C 302.017 -1.60071 -0.152931 0
M  V30 2962 O 303.207 -1.74033 0.0761879 0
M  V30 2963 C 300.339 -3.39896 0.261383 0
M  V30 2964 H 301.532 -2.41485 1.77834 0
M  V30 2965 H 299.085 -1.23595 0.956757 0
M  V30 2966 H 299.82 -3.17091 -0.68 0
M  V30 2967 H 299.605 -3.79642 0.980514 0
M  V30 2968 H 301.095 -4.17548 0.0657687 0
M  V30 2969 N 301.532 -0.945985 -1.26051 0
M  V30 2970 C 302.462 -0.477172 -2.28572 0
M  V30 2971 C 303.443 0.472032 -1.63419 0
M  V30 2972 O 304.628 0.372853 -1.90587 0
M  V30 2973 C 301.758 0.253975 -3.4637 0
M  V30 2974 C 300.712 -0.609135 -4.23643 0
M  V30 2975 C 300.038 0.252252 -5.34105 0
M  V30 2976 C 301.338 -1.8829 -4.8718 0
M  V30 2977 H 303.032 -1.33402 -2.68038 0
M  V30 2978 H 300.578 -0.642904 -1.28852 0
M  V30 2979 H 302.531 0.593016 -4.17207 0
M  V30 2980 H 301.255 1.145 -3.05871 0
M  V30 2981 H 299.914 -0.931138 -3.54578 0
M  V30 2982 H 299.562 1.14278 -4.89846 0
M  V30 2983 H 299.262 -0.32188 -5.86718 0
M  V30 2984 H 300.786 0.586454 -6.07777 0
M  V30 2985 H 302.2 -1.61081 -5.50205 0
M  V30 2986 H 300.597 -2.40199 -5.49931 0
M  V30 2987 H 301.667 -2.59134 -4.09851 0
M  V30 2988 N 303.011 1.40521 -0.713556 0
M  V30 2989 C 303.974 2.29098 -0.0684347 0
M  V30 2990 C 304.974 1.45268 0.689472 0
M  V30 2991 O 306.164 1.66205 0.521677 0
M  V30 2992 C 303.296 3.28446 0.913024 0
M  V30 2993 H 304.489 2.87645 -0.84855 0
M  V30 2994 H 302.042 1.48809 -0.47809 0
M  V30 2995 H 302.777 2.74913 1.72027 0
M  V30 2996 H 302.562 3.90327 0.372472 0
M  V30 2997 H 304.052 3.94777 1.36165 0
M  V30 2998 N 304.489 0.459591 1.5075 0
M  V30 2999 C 305.737 -0.0991532 2.01857 0
M  V30 3000 C 306.058 -1.41247 1.34441 0
M  V30 3001 O 305.328 -1.89775 0.486022 0
M  V30 3002 H 303.908 -0.039633 0.745948 0
M  V30 3003 H 306.57 0.607387 1.85194 0
M  V30 3004 H 305.666 -0.258998 3.11023 0
M  V30 3005 N 305.967 -1.56429 0.191757 0
M  V30 3006 C 307.383 -1.58754 -0.164137 0
M  V30 3007 C 307.583 -1.20782 -1.61288 0
M  V30 3008 O 306.639 -0.928999 -2.34789 0
M  V30 3009 C 307.952 -3.00396 0.135195 0
M  V30 3010 C 309.5 -3.1291 0.0750351 0
M  V30 3011 C 309.975 -4.56679 0.347632 0
M  V30 3012 N 311.466 -4.62252 0.296131 0
M  V30 3013 C 312.201 -5.71379 0.480948 0
M  V30 3014 N 311.697 -6.88986 0.725933 0
M  V30 3015 N 313.49 -5.60563 0.415435 0
M  V30 3016 H 305.641 -1.79393 1.13718 0
M  V30 3017 H 307.904 -0.832414 0.453643 0
M  V30 3018 H 307.61 -3.32726 1.13958 0
M  V30 3019 H 307.484 -3.72963 -0.563773 0
M  V30 3020 H 309.871 -2.80394 -0.919948 0
M  V30 3021 H 309.952 -2.42736 0.807029 0
M  V30 3022 H 309.596 -4.89907 1.33992 0
M  V30 3023 H 309.526 -5.25039 -0.405212 0
M  V30 3024 H 312.017 -3.7773 0.113259 0
M  V30 3025 H 312.33 -7.68046 0.855857 0
M  V30 3026 H 310.675 -6.90801 0.762788 0
M  V30 3027 H 313.866 -4.67561 0.224486 0
M  V30 3028 H 314.039 -6.45551 0.562889 0
M  V30 3029 N 307.445 0.0818655 -1.57387 0
M  V30 3030 C 308.861 0.436412 -1.53517 0
M  V30 3031 C 309.061 1.79758 -0.910459 0
M  V30 3032 O 308.117 2.47324 -0.508636 0
M  V30 3033 C 309.43 0.386734 -2.98203 0
M  V30 3034 C 310.978 0.467644 -3.09487 0
M  V30 3035 C 311.453 0.447978 -4.55804 0
M  V30 3036 N 312.944 0.508348 -4.60402 0
M  V30 3037 C 313.679 0.515184 -5.71081 0
M  V30 3038 N 313.175 0.477435 -6.91153 0
M  V30 3039 N 314.968 0.560988 -5.59294 0
M  V30 3040 H 307.119 -0.809546 -1.96367 0
M  V30 3041 H 309.382 -0.302733 -0.898363 0
M  V30 3042 H 309.088 -0.546539 -3.47427 0
M  V30 3043 H 308.962 1.20075 -3.57578 0
M  V30 3044 H 311.349 1.39134 -2.60242 0
M  V30 3045 H 311.43 -0.374753 -2.5304 0
M  V30 3046 H 311.074 -0.471826 -5.05704 0
M  V30 3047 H 311.004 1.30777 -5.10103 0
M  V30 3048 H 313.495 0.54218 -3.7399 0
M  V30 3049 H 313.808 0.486299 -7.71268 0
M  V30 3050 H 312.153 0.444278 -6.93579 0
M  V30 3051 H 315.344 0.5881 -4.64391 0
M  V30 3052 H 315.517 0.562846 -6.45551 0
M  V30 3053 N 308.923 1.53595 0.353017 0
M  V30 3054 C 310.169 1.70638 1.09593 0
M  V30 3055 C 310.502 0.463286 1.88593 0
M  V30 3056 O 309.777 -0.539597 1.86865 0
M  V30 3057 C 310.06 2.96406 2.04489 0
M  V30 3058 C 309.913 4.30901 1.29014 0
M  V30 3059 C 311.232 3.17812 3.0444 0
M  V30 3060 H 308.351 0.620913 0.397034 0
M  V30 3061 H 310.993 1.86254 0.375446 0
M  V30 3062 H 309.143 2.83223 2.65927 0
M  V30 3063 H 310.815 4.55917 0.702638 0
M  V30 3064 H 309.058 4.29741 0.592071 0
M  V30 3065 H 309.729 5.1506 1.98537 0
M  V30 3066 H 312.205 3.30263 2.53112 0
M  V30 3067 H 311.081 4.07223 3.6805 0
M  V30 3068 H 311.342 2.33669 3.75301 0
M  V30 3069 N 310.401 -0.613514 1.45168 0
M  V30 3070 C 311.812 -1.19539 1.43413 0
M  V30 3071 C 312.163 -1.95558 0.158632 0
M  V30 3072 O 311.288 -2.0335 -0.740119 0
M  V30 3073 C 311.883 -2.17445 2.59813 0
M  V30 3074 C 310.442 -2.71022 2.61197 0
M  V30 3075 C 309.589 -1.46323 2.35552 0
M  V30 3076 H 312.54 -0.403163 1.53494 0
M  V30 3077 H 312.561 -3.00373 2.33574 0
M  V30 3078 H 312.073 -1.62089 3.52631 0
M  V30 3079 H 310.174 -3.30332 1.7237 0
M  V30 3080 H 310.287 -3.15859 3.60236 0
M  V30 3081 H 308.651 -1.75072 1.84992 0
M  V30 3082 H 309.434 -0.92844 3.30507 0
M  V30 3083 N 311.879 -1.3236 -0.855495 0
M  V30 3084 C 313.29 -1.2056 -1.42556 0
M  V30 3085 C 313.641 0.182209 -1.95352 0
M  V30 3086 O 312.766 1.08088 -1.87472 0
M  V30 3087 C 313.361 -2.1826 -2.59129 0
M  V30 3088 C 311.92 -2.10351 -3.12137 0
M  V30 3089 C 311.067 -2.06674 -1.84882 0
M  V30 3090 H 314.018 -1.442 -0.662727 0
M  V30 3091 H 314.039 -1.78064 -3.36264 0
M  V30 3092 H 313.551 -3.19257 -2.20673 0
M  V30 3093 H 311.652 -1.12599 -3.55179 0
M  V30 3094 H 311.765 -3.00135 -3.73438 0
M  V30 3095 H 310.129 -1.51901 -2.04446 0
M  V30 3096 H 310.912 -3.09451 -1.48643 0
M  V30 3097 N 313.357 1.07166 -1.15556 0
M  V30 3098 C 314.307 2.12649 -0.82247 0
M  V30 3099 C 315.291 1.59725 0.194129 0
M  V30 3100 O 316.483 1.76999 -0.00540402 0
M  V30 3101 C 313.612 3.41847 -0.315572 0
M  V30 3102 C 312.698 4.0162 -1.36244 0
M  V30 3103 N 313.089 4.35625 -2.5703 0
M  V30 3104 C 311.387 4.29114 -1.21562 0
M  V30 3105 C 312.088 4.83017 -3.24144 0
M  V30 3106 N 311.064 4.81906 -2.51531 0
M  V30 3107 H 314.866 2.36776 -1.74111 0
M  V30 3108 H 312.38 1.24622 -1.0413 0
M  V30 3109 H 314.377 4.16859 -0.0585855 0
M  V30 3110 H 313.037 3.19163 0.597105 0
M  V30 3111 H 314.048 4.26253 -2.94158 0
M  V30 3112 H 310.725 4.15919 -0.362988 0
M  V30 3113 H 312.115 5.18605 -4.27198 0
M  V30 3114 N 314.835 0.952656 1.25548 0
M  V30 3115 C 316.081 0.607272 1.93494 0
M  V30 3116 C 316.414 -0.853245 1.74452 0
M  V30 3117 O 315.689 -1.61194 1.08843 0
M  V30 3118 C 315.972 0.96435 3.46947 0
M  V30 3119 C 315.825 2.48045 3.75225 0
M  V30 3120 C 317.144 0.487987 4.37386 0
M  V30 3121 H 314.263 0.222096 0.702739 0
M  V30 3122 H 316.905 1.18895 1.48203 0
M  V30 3123 H 315.055 0.469361 3.85654 0
M  V30 3124 H 316.727 3.04905 3.46166 0
M  V30 3125 H 314.97 2.919 3.209 0
M  V30 3126 H 315.641 2.6808 4.82532 0
M  V30 3127 H 318.117 0.912558 4.0597 0
M  V30 3128 H 316.993 0.766547 5.43521 0
M  V30 3129 H 317.254 -0.612063 4.37843 0
M  V30 3130 N 316.313 -1.40141 0.720998 0
M  V30 3131 C 317.243 -2.33339 0.0867621 0
M  V30 3132 C 318.224 -1.53178 -0.739622 0
M  V30 3133 O 319.409 -1.81625 -0.687449 0
M  V30 3134 C 316.539 -3.37194 -0.831728 0
M  V30 3135 C 315.493 -4.27857 -0.110558 0
M  V30 3136 C 314.819 -5.22294 -1.14513 0
M  V30 3137 C 316.119 -5.11872 1.0385 0
M  V30 3138 H 317.813 -2.86626 0.865219 0
M  V30 3139 H 315.359 -1.37814 0.417516 0
M  V30 3140 H 317.312 -4.01335 -1.28485 0
M  V30 3141 H 316.036 -2.82314 -1.64214 0
M  V30 3142 H 314.695 -3.65176 0.322797 0
M  V30 3143 H 314.343 -4.63717 -1.94874 0
M  V30 3144 H 314.043 -5.83797 -0.667446 0
M  V30 3145 H 315.567 -5.89312 -1.59824 0
M  V30 3146 H 316.981 -5.69436 0.664482 0
M  V30 3147 H 315.378 -5.82445 1.4449 0
M  V30 3148 H 316.448 -4.4753 1.86668 0
M  V30 3149 N 317.792 -0.46758 -1.50504 0
M  V30 3150 C 319.038 0.0887532 -2.02606 0
M  V30 3151 C 319.371 1.39686 -1.34913 0
M  V30 3152 O 318.646 1.88644 -0.473694 0
M  V30 3153 C 318.929 0.276206 -3.59039 0
M  V30 3154 C 318.782 -1.05267 -4.37309 0
M  V30 3155 C 320.101 1.03235 -4.27821 0
M  V30 3156 H 317.22 0.0307814 -0.736357 0
M  V30 3157 H 319.862 -0.612485 -1.79857 0
M  V30 3158 H 318.012 0.8735 -3.78553 0
M  V30 3159 H 319.684 -1.68628 -4.29374 0
M  V30 3160 H 317.927 -1.65015 -4.01189 0
M  V30 3161 H 318.598 -0.875197 -5.45018 0
M  V30 3162 H 321.074 0.526111 -4.12761 0
M  V30 3163 H 319.95 1.1323 -5.37094 0
M  V30 3164 H 320.211 2.06806 -3.90748 0
M  V30 3165 N 319.27 1.56325 -0.20005 0
M  V30 3166 C 320.218 2.20666 0.735482 0
M  V30 3167 C 321.212 1.17934 1.21605 0
M  V30 3168 O 322.418 1.36068 1.17837 0
M  V30 3169 H 318.793 0.70725 0.255542 0
M  V30 3170 H 320.764 2.9792 0.169166 0
M  V30 3171 C 319.513 2.88391 1.94232 0
M  V30 3172 H 318.836 3.67185 1.58161 0
M  V30 3173 H 320.276 3.3684 2.57517 0
M  V30 3174 C 318.735 1.89692 2.78421 0
M  V30 3175 O 319.265 1.40032 3.76502 0
M  V30 3176 N 317.471 1.57813 2.44015 0
M  V30 3177 H 317.018 1.9839 1.64314 0
M  V30 3178 H 316.976 0.920325 3.00628 0
M  V30 3179 N 320.748 -0.0735177 1.57428 0
M  V30 3180 C 321.994 -0.768909 1.88307 0
M  V30 3181 C 322.349 -1.75273 0.793535 0
M  V30 3182 O 321.642 -1.90527 -0.202466 0
M  V30 3183 C 321.836 -1.51799 3.23561 0
M  V30 3184 C 321.665 -0.608217 4.45568 0
M  V30 3185 C 320.435 -0.245808 5.04702 0
M  V30 3186 C 322.633 0.0942904 5.14214 0
M  V30 3187 N 320.615 0.66987 6.10234 0
M  V30 3188 C 321.986 0.867222 6.13905 0
M  V30 3189 C 324.041 0.165943 4.97623 0
M  V30 3190 C 322.744 1.70515 6.98797 0
M  V30 3191 C 324.77 0.990837 5.83041 0
M  V30 3192 C 324.132 1.75182 6.82269 0
M  V30 3193 H 320.231 -0.25685 0.738615 0
M  V30 3194 H 322.815 -0.030499 1.94676 0
M  V30 3195 H 320.986 -2.22713 3.18203 0
M  V30 3196 H 322.718 -2.16226 3.42094 0
M  V30 3197 H 319.473 -0.598284 4.69806 0
M  V30 3198 H 319.897 1.1209 6.67656 0
M  V30 3199 H 324.539 -0.408064 4.20826 0
M  V30 3200 H 322.257 2.29013 7.7497 0
M  V30 3201 H 325.843 1.04923 5.72261 0
M  V30 3202 H 324.723 2.37983 7.47217 0
M  V30 3203 N 322.226 -1.5378 -0.344866 0
M  V30 3204 C 323.189 -1.80981 -1.40637 0
M  V30 3205 C 324.189 -0.680816 -1.45676 0
M  V30 3206 O 325.379 -0.949095 -1.46075 0
M  V30 3207 C 322.511 -1.95063 -2.79577 0
M  V30 3208 H 323.704 -2.75803 -1.17783 0
M  V30 3209 H 321.257 -1.45173 -0.579181 0
M  V30 3210 H 321.992 -1.02379 -3.07716 0
M  V30 3211 H 321.777 -2.77198 -2.77315 0
M  V30 3212 H 323.267 -2.17629 -3.56409 0
M  V30 3213 N 323.704 0.605807 -1.45491 0
M  V30 3214 C 324.95 1.36679 -1.49823 0
M  V30 3215 C 325.283 1.93693 -0.140175 0
M  V30 3216 O 324.558 1.75158 0.845581 0
M  V30 3217 C 324.841 2.51337 -2.57879 0
M  V30 3218 C 324.694 1.99508 -4.03134 0
M  V30 3219 C 326.013 3.53463 -2.62205 0
M  V30 3220 H 323.132 0.495617 -0.545466 0
M  V30 3221 H 325.774 0.682732 -1.7731 0
M  V30 3222 H 323.924 3.09691 -2.34571 0
M  V30 3223 H 325.596 1.45789 -4.37656 0
M  V30 3224 H 323.839 1.30496 -4.13707 0
M  V30 3225 H 324.51 2.82169 -4.74431 0
M  V30 3226 H 326.986 3.04953 -2.83095 0
M  V30 3227 H 325.862 4.31178 -3.39672 0
M  V30 3228 H 326.123 4.09197 -1.67363 0
M  V30 3229 N 325.182 1.32811 0.848464 0
M  V30 3230 C 326.114 1.18095 1.96433 0
M  V30 3231 C 327.127 0.114354 1.62398 0
M  V30 3232 O 328.316 0.363892 1.74751 0
M  V30 3233 C 325.416 0.786798 3.2964 0
M  V30 3234 C 324.589 1.943 3.91875 0
M  V30 3235 C 323.648 1.53138 5.03423 0
M  V30 3236 O 322.674 2.24432 5.23086 0
M  V30 3237 N 323.876 0.430915 5.78898 0
M  V30 3238 H 326.641 2.14218 2.09597 0
M  V30 3239 H 324.202 1.2543 1.02367 0
M  V30 3240 H 326.194 0.493715 4.01677 0
M  V30 3241 H 324.764 -0.0834541 3.12489 0
M  V30 3242 H 323.984 2.40224 3.12547 0
M  V30 3243 H 325.272 2.71689 4.30189 0
M  V30 3244 H 324.67 -0.162333 5.65467 0
M  V30 3245 H 323.227 0.197466 6.51501 0
M  V30 3246 N 326.66 -1.06551 1.16123 0
M  V30 3247 C 327.909 -1.78687 0.935622 0
M  V30 3248 C 328.222 -1.88056 -0.538001 0
M  V30 3249 O 329.428 -2.56794 -0.88143 0
M  V30 3250 C 327.884 -3.21143 1.62466 0
M  V30 3251 C 327.492 -3.19949 3.13587 0
M  V30 3252 C 329.236 -3.9783 1.48092 0
M  V30 3253 C 327.143 -4.57108 3.75241 0
M  V30 3254 H 326.073 -0.669712 0.346412 0
M  V30 3255 H 328.724 -1.19534 1.39226 0
M  V30 3256 H 327.106 -3.80539 1.09572 0
M  V30 3257 H 328.28 -2.70151 3.73303 0
M  V30 3258 H 326.595 -2.5676 3.27816 0
M  V30 3259 H 329.192 -4.99217 1.91538 0
M  V30 3260 H 329.535 -4.14078 0.429507 0
M  V30 3261 H 330.068 -3.4495 1.98127 0
M  V30 3262 H 326.807 -4.46065 4.80319 0
M  V30 3263 H 326.327 -5.07111 3.20309 0
M  V30 3264 H 328.006 -5.26069 3.76644 0
M  V30 3265 N 328.138 -0.959301 -1.25041 0
M  V30 3266 C 329.101 -0.487677 -2.23952 0
M  V30 3267 C 330.101 0.41119 -1.55454 0
M  V30 3268 O 331.291 0.207825 -1.72956 0
M  V30 3269 C 328.423 0.294807 -3.39623 0
M  V30 3270 H 329.616 -1.36198 -2.67189 0
M  V30 3271 H 327.169 -0.743042 -1.37508 0
M  V30 3272 H 327.904 1.18658 -3.01813 0
M  V30 3273 H 327.689 -0.35012 -3.90534 0
M  V30 3274 H 329.179 0.614089 -4.1306 0
M  V30 3275 N 329.616 1.39756 -0.72842 0
M  V30 3276 C 331.032 1.5442 -0.403308 0
M  V30 3277 C 331.232 1.69694 1.08656 0
M  V30 3278 O 330.288 1.69373 1.87267 0
M  V30 3279 C 331.601 2.76555 -1.18058 0
M  V30 3280 C 333.149 2.90384 -1.16815 0
M  V30 3281 C 333.624 4.15449 -1.92785 0
M  V30 3282 N 335.115 4.22475 -1.89918 0
M  V30 3283 C 335.85 5.1818 -2.45514 0
M  V30 3284 N 335.346 6.19714 -3.09719 0
M  V30 3285 N 337.139 5.1035 -2.35584 0
M  V30 3286 H 329.29 1.28089 -1.69431 0
M  V30 3287 H 331.553 0.620327 -0.716867 0
M  V30 3288 H 331.259 2.7159 -2.23455 0
M  V30 3289 H 331.133 3.69033 -0.780662 0
M  V30 3290 H 333.52 2.94846 -0.12234 0
M  V30 3291 H 333.601 1.98988 -1.6074 0
M  V30 3292 H 333.245 4.11749 -2.97364 0
M  V30 3293 H 333.175 5.05877 -1.46272 0
M  V30 3294 H 335.666 3.49743 -1.43138 0
M  V30 3295 H 335.979 6.8919 -3.49625 0
M  V30 3296 H 334.324 6.20121 -3.13807 0
M  V30 3297 H 337.515 4.2996 -1.85072 0
M  V30 3298 H 337.688 5.84761 -2.79211 0
M  V30 3299 N 331.094 0.475555 1.50254 0
M  V30 3300 C 332.342 -0.077738 2.0195 0
M  V30 3301 C 332.663 -1.39813 1.35931 0
M  V30 3302 O 331.933 -1.89249 0.506123 0
M  V30 3303 H 330.513 -0.031719 0.746326 0
M  V30 3304 H 333.175 0.626995 1.84539 0
M  V30 3305 H 332.271 -0.225995 3.11281 0
M  V30 3306 N 332.573 -1.56217 0.208337 0
M  V30 3307 C 333.506 -2.15633 -0.746842 0
M  V30 3308 C 334.484 -1.09685 -1.20034 0
M  V30 3309 O 335.668 -1.3787 -1.28547 0
M  V30 3310 C 332.795 -2.72594 -2.01023 0
M  V30 3311 C 331.841 -3.91251 -1.69779 0
M  V30 3312 S 332.674 -5.28962 -0.834209 0
M  V30 3313 C 333.83 -5.89353 -2.10745 0
M  V30 3314 H 334.063 -2.96315 -0.241789 0
M  V30 3315 H 331.596 -1.54398 -0.00682183 0
M  V30 3316 H 333.554 -3.06053 -2.73572 0
M  V30 3317 H 332.215 -1.91929 -2.48641 0
M  V30 3318 H 331.408 -4.29562 -2.63614 0
M  V30 3319 H 331.01 -3.58869 -1.05303 0
M  V30 3320 H 333.302 -6.04522 -3.05875 0
M  V30 3321 H 334.245 -6.85661 -1.76845 0
M  V30 3322 H 334.653 -5.1807 -2.24196 0
M  V30 3323 N 334.051 0.0651679 -1.57465 0
M  V30 3324 C 335.001 1.0838 -2.00594 0
M  V30 3325 C 335.985 1.34106 -0.889071 0
M  V30 3326 O 337.177 1.34295 -1.15299 0
M  V30 3327 C 334.306 2.39565 -2.45894 0
M  V30 3328 C 333.392 2.17085 -3.64328 0
M  V30 3329 N 333.783 1.64553 -4.78285 0
M  V30 3330 C 332.081 2.4753 -3.71006 0
M  V30 3331 C 332.782 1.57042 -5.60101 0
M  V30 3332 N 331.758 2.03328 -5.04141 0
M  V30 3333 H 335.56 0.671062 -2.86136 0
M  V30 3334 H 333.074 0.27213 -1.60104 0
M  V30 3335 H 335.071 3.13308 -2.75034 0
M  V30 3336 H 333.731 2.81549 -1.61741 0
M  V30 3337 H 334.742 1.33323 -5.00445 0
M  V30 3338 H 331.419 2.92835 -2.9758 0
M  V30 3339 H 332.809 1.17223 -6.61595 0
M  V30 3340 N 335.529 1.53961 0.336706 0
M  V30 3341 C 336.759 1.75229 1.09446 0
M  V30 3342 C 337.167 0.494602 1.82621 0
M  V30 3343 O 336.51 -0.543764 1.75468 0
M  V30 3344 C 336.572 2.88288 2.1478 0
M  V30 3345 C 336.236 4.27656 1.6112 0
M  V30 3346 C 337.233 5.08981 1.0599 0
M  V30 3347 C 334.918 4.74161 1.6576 0
M  V30 3348 C 336.912 6.34916 0.562129 0
M  V30 3349 C 334.599 6.00067 1.15595 0
M  V30 3350 C 335.597 6.80278 0.609147 0
M  V30 3351 O 335.285 8.03818 0.114999 0
M  V30 3352 H 335.017 0.588881 0.331956 0
M  V30 3353 H 337.571 2.01614 0.392566 0
M  V30 3354 H 335.801 2.57443 2.88548 0
M  V30 3355 H 337.49 2.97461 2.76174 0
M  V30 3356 H 338.256 4.74213 1.01722 0
M  V30 3357 H 334.135 4.11781 2.07261 0
M  V30 3358 H 337.679 6.9747 0.134668 0
M  V30 3359 H 333.576 6.3433 1.19566 0
M  V30 3360 H 334.344 8.18172 0.231651 0
M  V30 3361 N 337.007 -0.598083 1.45811 0
M  V30 3362 C 337.937 -1.71873 1.58057 0
M  V30 3363 C 338.918 -1.64533 0.431615 0
M  V30 3364 O 340.103 -1.82787 0.65595 0
M  V30 3365 C 337.233 -3.10495 1.55597 0
M  V30 3366 C 336.187 -3.32654 2.69305 0
M  V30 3367 C 335.513 -4.71646 2.51902 0
M  V30 3368 C 336.813 -3.21981 4.11248 0
M  V30 3369 H 338.507 -1.61881 2.51863 0
M  V30 3370 H 336.053 -0.777372 1.21214 0
M  V30 3371 H 338.006 -3.88699 1.6276 0
M  V30 3372 H 336.73 -3.2135 0.583255 0
M  V30 3373 H 335.389 -2.56843 2.61586 0
M  V30 3374 H 335.037 -4.79246 1.52748 0
M  V30 3375 H 334.737 -4.87426 3.2816 0
M  V30 3376 H 336.261 -5.52038 2.60933 0
M  V30 3377 H 337.675 -3.90049 4.20161 0
M  V30 3378 H 336.072 -3.49289 4.87972 0
M  V30 3379 H 337.142 -2.1928 4.32486 0
M  V30 3380 N 338.485 -1.33259 -0.841409 0
M  V30 3381 C 339.435 -1.19872 -1.93945 0
M  V30 3382 C 340.419 -0.102269 -1.60575 0
M  V30 3383 O 341.611 -0.330114 -1.73894 0
M  V30 3384 C 338.74 -0.937517 -3.30251 0
M  V30 3385 C 337.826 -2.07629 -3.69799 0
M  V30 3386 N 338.217 -3.32604 -3.81062 0
M  V30 3387 C 336.515 -1.98242 -3.9952 0
M  V30 3388 C 337.216 -4.07275 -4.15333 0
M  V30 3389 N 336.192 -3.35691 -4.27566 0
M  V30 3390 H 339.994 -2.14604 -2.00805 0
M  V30 3391 H 337.508 -1.2523 -1.03398 0
M  V30 3392 H 339.505 -0.822545 -4.08705 0
M  V30 3393 H 338.165 0.00128798 -3.247 0
M  V30 3394 H 339.176 -3.67382 -3.65035 0
M  V30 3395 H 335.853 -1.12005 -4.02195 0
M  V30 3396 H 337.243 -5.1511 -4.31406 0
M  V30 3397 N 339.963 1.05934 -1.16686 0
M  V30 3398 C 341.203 1.80382 -0.961345 0
M  V30 3399 C 341.567 1.85331 0.501643 0
M  V30 3400 O 342.768 2.55795 0.825986 0
M  V30 3401 C 341.039 3.20777 -1.57596 0
M  V30 3402 S 342.598 4.11795 -1.51559 0
M  V30 3403 H 339.416 0.621332 -0.345641 0
M  V30 3404 H 342.018 1.27157 -1.48497 0
M  V30 3405 H 340.722 3.14773 -2.63337 0
M  V30 3406 H 340.253 3.79078 -1.05182 0
M  V30 3407 H 342.268 4.93485 -0.518374 0
M  V30 3408 N 341.441 0.965919 1.2453 0
M  V30 3409 C 342.351 0.502154 2.29163 0
M  V30 3410 C 343.367 -0.436017 1.68448 0
M  V30 3411 O 344.543 -0.309497 1.99008 0
M  V30 3412 C 341.608 -0.201956 3.46111 0
M  V30 3413 C 340.669 0.775821 4.22232 0
M  V30 3414 C 339.902 0.105217 5.33596 0
M  V30 3415 O 340.125 -1.10683 5.59558 0
M  V30 3416 O 339.059 0.796475 5.96607 0
M  V30 3417 H 342.885 1.37194 2.70946 0
M  V30 3418 H 340.47 0.732875 1.30189 0
M  V30 3419 H 342.352 -0.597564 4.17142 0
M  V30 3420 H 341.027 -1.04673 3.06309 0
M  V30 3421 H 339.934 1.22185 3.53584 0
M  V30 3422 H 341.267 1.58896 4.65846 0
M  V30 3423 N 342.919 -1.39368 0.735821 0
M  V30 3424 C 343.882 -2.2896 0.104874 0
M  V30 3425 C 344.882 -1.46347 -0.666274 0
M  V30 3426 O 346.072 -1.67014 -0.49517 0
M  V30 3427 C 343.204 -3.29857 -0.860656 0
M  V30 3428 H 344.397 -2.86259 0.894205 0
M  V30 3429 H 341.95 -1.48029 0.501704 0
M  V30 3430 H 342.685 -2.77615 -1.67631 0
M  V30 3431 H 342.47 -3.9087 -0.310327 0
M  V30 3432 H 343.96 -3.96893 -1.29867 0
M  V30 3433 N 344.397 -0.483516 -1.5 0
M  V30 3434 C 345.327 0.293829 -2.31644 0
M  V30 3435 C 346.308 0.978864 -1.39112 0
M  V30 3436 O 347.493 0.973644 -1.68029 0
M  V30 3437 C 344.623 1.36897 -3.19181 0
M  V30 3438 C 343.577 0.804833 -4.20365 0
M  V30 3439 C 342.903 1.9792 -4.96721 0
M  V30 3440 C 344.203 -0.192313 -5.21946 0
M  V30 3441 H 345.897 -0.387616 -2.9688 0
M  V30 3442 H 343.443 -0.187856 -1.42769 0
M  V30 3443 H 345.396 1.92037 -3.751 0
M  V30 3444 H 344.12 2.07936 -2.51853 0
M  V30 3445 H 342.779 0.275319 -3.65565 0
M  V30 3446 H 342.427 2.67686 -4.25856 0
M  V30 3447 H 342.127 1.60789 -5.65173 0
M  V30 3448 H 343.651 2.53526 -5.55479 0
M  V30 3449 H 345.065 0.270333 -5.72662 0
M  V30 3450 H 343.462 -0.478543 -5.98189 0
M  V30 3451 H 344.532 -1.11409 -4.71928 0
M  V30 3452 N 345.875 1.56104 -0.216619 0
M  V30 3453 C 347.121 1.98466 0.417033 0
M  V30 3454 C 347.454 1.10403 1.59765 0
M  V30 3455 O 346.729 0.160632 1.93836 0
M  V30 3456 C 347.012 3.49769 0.85637 0
M  V30 3457 C 346.865 4.48606 -0.327546 0
M  V30 3458 C 348.184 4.05339 1.7143 0
M  V30 3459 H 345.303 0.721551 0.150112 0
M  V30 3460 H 347.945 1.87423 -0.311864 0
M  V30 3461 H 346.095 3.5931 1.47745 0
M  V30 3462 H 347.767 4.5108 -0.965618 0
M  V30 3463 H 346.01 4.22682 -0.975805 0
M  V30 3464 H 346.681 5.51995 0.0227149 0
M  V30 3465 H 349.157 3.98712 1.19031 0
M  V30 3466 H 348.033 5.11533 1.99061 0
M  V30 3467 H 348.294 3.51918 2.67593 0
M  V30 3468 N 347.353 -0.0568162 1.57498 0
M  V30 3469 C 348.764 -0.606858 1.76562 0
M  V30 3470 C 349.115 -1.77114 0.844094 0
M  V30 3471 O 348.24 -2.16376 0.0318911 0
M  V30 3472 C 348.835 -1.10766 3.20182 0
M  V30 3473 C 347.394 -1.60344 3.40539 0
M  V30 3474 C 346.541 -0.529311 2.72201 0
M  V30 3475 H 349.492 0.169393 1.57793 0
M  V30 3476 H 349.513 -1.97602 3.25167 0
M  V30 3477 H 349.025 -0.26006 3.87228 0
M  V30 3478 H 347.126 -2.47379 2.78629 0
M  V30 3479 H 347.239 -1.67006 4.4905 0
M  V30 3480 H 345.603 -0.977893 2.35179 0
M  V30 3481 H 346.386 0.308352 3.41912 0
M  V30 3482 N 348.832 -1.54138 -0.328536 0
M  V30 3483 C 350.078 -1.7236 -1.06865 0
M  V30 3484 C 350.411 -0.493231 -1.87832 0
M  V30 3485 O 349.686 0.5098 -1.877 0
M  V30 3486 C 349.969 -2.99621 -1.99747 0
M  V30 3487 C 349.822 -4.32899 -1.22143 0
M  V30 3488 C 351.141 -3.22615 -2.99345 0
M  V30 3489 H 348.26 -0.627151 -0.387105 0
M  V30 3490 H 350.902 -1.86827 -0.345767 0
M  V30 3491 H 349.052 -2.87418 -2.61387 0
M  V30 3492 H 350.724 -4.56978 -0.630017 0
M  V30 3493 H 348.967 -4.30628 -0.523628 0
M  V30 3494 H 349.638 -5.18154 -1.90318 0
M  V30 3495 H 352.114 -3.34248 -2.47826 0
M  V30 3496 H 350.99 -4.13027 -3.61524 0
M  V30 3497 H 351.251 -2.3961 -3.71536 0
M  V30 3498 N 350.31 0.590341 -1.46126 0
M  V30 3499 C 351.559 1.34499 -1.50309 0
M  V30 3500 C 351.872 1.94977 -0.156021 0
M  V30 3501 O 353.078 2.71395 -0.0756037 0
M  V30 3502 C 351.534 2.43723 -2.64815 0
M  V30 3503 C 351.142 1.89582 -4.0591 0
M  V30 3504 C 352.886 3.20579 -2.78262 0
M  V30 3505 C 350.793 2.9639 -5.11769 0
M  V30 3506 H 349.723 0.505593 -0.559368 0
M  V30 3507 H 352.374 0.630848 -1.72315 0
M  V30 3508 H 350.756 3.17902 -2.36124 0
M  V30 3509 H 351.93 1.21997 -4.44357 0
M  V30 3510 H 350.245 1.25418 -3.97063 0
M  V30 3511 H 352.842 4.00276 -3.54519 0
M  V30 3512 H 353.185 3.72684 -1.85505 0
M  V30 3513 H 353.718 2.53505 -3.06562 0
M  V30 3514 H 350.457 2.49181 -6.06291 0
M  V30 3515 H 349.977 3.62487 -4.77873 0
M  V30 3516 H 351.656 3.60474 -5.37278 0
M  V30 3517 N 351.788 1.33704 0.83433 0
M  V30 3518 C 352.738 1.20899 1.93306 0
M  V30 3519 C 353.722 0.110783 1.60518 0
M  V30 3520 O 354.914 0.339331 1.73717 0
M  V30 3521 C 352.043 0.955018 3.29749 0
M  V30 3522 C 351.129 2.09587 3.68692 0
M  V30 3523 N 351.52 3.34621 3.79292 0
M  V30 3524 C 349.818 2.00358 3.98463 0
M  V30 3525 C 350.519 4.09472 4.13167 0
M  V30 3526 N 349.495 3.37954 4.25779 0
M  V30 3527 H 353.297 2.15665 1.99664 0
M  V30 3528 H 350.811 1.25777 1.02732 0
M  V30 3529 H 352.808 0.844208 4.08263 0
M  V30 3530 H 351.468 0.0159317 3.24696 0
M  V30 3531 H 352.479 3.69313 3.63082 0
M  V30 3532 H 349.156 1.14137 4.01596 0
M  V30 3533 H 350.546 5.17391 4.28668 0
M  V30 3534 N 353.266 -1.05314 1.17247 0
M  V30 3535 C 354.682 -1.30452 0.919473 0
M  V30 3536 C 354.882 -1.9703 -0.42209 0
M  V30 3537 O 353.938 -2.24311 -1.15935 0
M  V30 3538 C 355.251 -2.17551 2.07586 0
M  V30 3539 C 356.799 -2.30937 2.11275 0
M  V30 3540 C 357.274 -3.21396 3.26296 0
M  V30 3541 N 358.765 -3.28981 3.26076 0
M  V30 3542 C 359.5 -3.99095 4.11716 0
M  V30 3543 N 358.996 -4.71648 5.07465 0
M  V30 3544 N 360.789 -3.95247 3.9967 0
M  V30 3545 H 352.94 -0.604988 2.03602 0
M  V30 3546 H 355.203 -0.329368 0.888944 0
M  V30 3547 H 354.909 -1.75921 3.0454 0
M  V30 3548 H 354.783 -3.18182 2.02584 0
M  V30 3549 H 357.17 -2.71809 1.14907 0
M  V30 3550 H 357.251 -1.2994 2.20339 0
M  V30 3551 H 356.895 -2.81238 4.22927 0
M  V30 3552 H 356.825 -4.22395 3.14467 0
M  V30 3553 H 359.316 -2.77286 2.5675 0
M  V30 3554 H 359.629 -5.22705 5.6921 0
M  V30 3555 H 357.974 -4.70594 5.11435 0
M  V30 3556 H 361.165 -3.37691 3.24164 0
M  V30 3557 H 361.338 -4.4962 4.66632 0
M  V30 3558 N 354.744 -0.972509 -1.24016 0
M  V30 3559 C 356.021 -0.553733 -1.87598 0
M  V30 3560 C 356.401 0.969158 -1.87538 0
M  V30 3561 O 355.749 1.84255 -1.35139 0
M  V30 3562 C 355.959 -1.15076 -3.29482 0
M  V30 3563 C 357.307 -1.23862 -4.06132 0
M  V30 3564 O 358.331 -1.10363 -3.38672 0
M  V30 3565 O 357.19 -1.45252 -5.26844 0
M  V30 3566 H 354.284 -0.185331 -0.805966 0
M  V30 3567 H 356.83 -1.06709 -1.31952 0
M  V30 3568 H 355.602 -2.19333 -3.2405 0
M  V30 3569 H 355.225 -0.621746 -3.92709 0
M  V30 3570 N 356.222 1.38976 -0.743202 0
M  V30 3571 C 357.152 2.33171 -0.123873 0
M  V30 3572 C 358.133 1.54336 0.71516 0
M  V30 3573 O 359.318 1.82696 0.658467 0
M  V30 3574 C 356.448 3.38474 0.777978 0
M  V30 3575 C 355.402 4.27979 0.0424758 0
M  V30 3576 C 354.728 5.2405 1.06189 0
M  V30 3577 C 356.028 5.10155 -1.1198 0
M  V30 3578 H 357.722 2.85213 -0.910709 0
M  V30 3579 H 355.268 1.37133 -0.439388 0
M  V30 3580 H 357.221 4.03328 1.22084 0
M  V30 3581 H 355.945 2.84891 1.59702 0
M  V30 3582 H 354.604 3.64616 -0.380853 0
M  V30 3583 H 354.252 4.66758 1.87472 0
M  V30 3584 H 353.952 5.84785 0.574485 0
M  V30 3585 H 355.476 5.9178 1.50428 0
M  V30 3586 H 356.89 5.68307 -0.75499 0
M  V30 3587 H 355.287 5.80073 -1.53738 0
M  V30 3588 H 356.357 4.44504 -1.93764 0
M  V30 3589 N 357.7 0.491464 1.49741 0
M  V30 3590 C 358.647 -0.292027 2.28945 0
M  V30 3591 C 359.617 -0.968973 1.34908 0
M  V30 3592 O 360.802 -0.97748 1.6386 0
M  V30 3593 C 357.942 -1.35617 3.17336 0
M  V30 3594 C 357.055 -0.691957 4.26422 0
M  V30 3595 C 356.19 -1.73572 5.02042 0
M  V30 3596 C 355.229 -1.05286 6.02977 0
M  V30 3597 N 354.366 -2.0404 6.71798 0
M  V30 3598 H 359.206 0.389654 2.95442 0
M  V30 3599 H 356.743 0.204003 1.45679 0
M  V30 3600 H 358.701 -1.98502 3.66951 0
M  V30 3601 H 357.331 -2.00674 2.52844 0
M  V30 3602 H 356.383 0.0499523 3.80367 0
M  V30 3603 H 357.695 -0.153946 4.98562 0
M  V30 3604 H 356.849 -2.43987 5.55478 0
M  V30 3605 H 355.588 -2.30757 4.29654 0
M  V30 3606 H 354.593 -0.334446 5.48782 0
M  V30 3607 H 355.818 -0.487636 6.77347 0
M  V30 3608 H 353.764 -2.60205 6.02187 0
M  V30 3609 H 353.681 -1.55279 7.39881 0
M  V30 3610 H 354.949 -2.73772 7.29842 0
M  V30 3611 N 359.178 -1.55987 0.224894 0
M  V30 3612 C 360.403 -2.03232 -0.41369 0
M  V30 3613 C 360.828 -1.10359 -1.52323 0
M  V30 3614 O 360.186 -0.092395 -1.81064 0
M  V30 3615 C 360.234 -3.48682 -0.919405 0
M  V30 3616 O 359.338 -3.58947 -2.03054 0
M  V30 3617 H 358.679 -0.657428 -0.0931903 0
M  V30 3618 H 361.209 -2.01679 0.34451 0
M  V30 3619 H 361.219 -3.8907 -1.22835 0
M  V30 3620 H 359.894 -4.15761 -0.107339 0
M  V30 3621 H 358.471 -3.30448 -1.72796 0
M  V30 3622 N 360.656 0.0484629 -1.57525 0
M  V30 3623 C 361.604 1.07359 -2.06341 0
M  V30 3624 C 362.598 1.3865 -0.973269 0
M  V30 3625 O 363.804 1.37783 -1.15827 0
M  V30 3626 H 360.179 0.363662 -0.65822 0
M  V30 3627 H 362.15 0.635916 -2.91545 0
M  V30 3628 C 360.899 2.37198 -2.54229 0
M  V30 3629 H 360.222 2.13977 -3.37719 0
M  V30 3630 H 361.662 3.07319 -2.92115 0
M  V30 3631 C 360.121 3.04805 -1.43511 0
M  V30 3632 O 360.651 3.93848 -0.79034 0
M  V30 3633 N 358.857 2.65811 -1.17444 0
M  V30 3634 H 358.404 1.93488 -1.70059 0
M  V30 3635 H 358.362 3.11366 -0.435737 0
M  V30 3636 N 362.134 1.5431 0.320358 0
M  V30 3637 C 363.082 1.84647 1.4145 0
M  V30 3638 C 364.076 0.718624 1.53402 0
M  V30 3639 O 365.282 0.902335 1.5575 0
M  V30 3640 H 361.657 0.585349 0.472091 0
M  V30 3641 H 363.628 2.7614 1.13089 0
M  V30 3642 C 362.377 2.09341 2.77617 0
M  V30 3643 H 361.7 2.9559 2.69196 0
M  V30 3644 H 363.14 2.3452 3.53237 0
M  V30 3645 C 361.599 0.885939 3.25043 0
M  V30 3646 O 362.129 0.0967891 4.01583 0
M  V30 3647 N 360.335 0.696682 2.82125 0
M  V30 3648 H 359.882 1.34006 2.2 0
M  V30 3649 H 359.84 -0.109712 3.14209 0
M  V30 3650 N 363.613 -0.582584 1.46437 0
M  V30 3651 C 364.862 -1.337 1.5102 0
M  V30 3652 C 365.175 -1.94891 0.166359 0
M  V30 3653 O 366.381 -2.71351 0.0899954 0
M  V30 3654 C 364.837 -2.42315 2.66104 0
M  V30 3655 C 364.445 -1.87427 4.06909 0
M  V30 3656 C 366.189 -3.19099 2.79958 0
M  V30 3657 C 364.096 -2.93672 5.13333 0
M  V30 3658 H 363.026 -0.502619 0.562041 0
M  V30 3659 H 365.677 -0.621701 1.72647 0
M  V30 3660 H 364.059 -3.16645 2.37807 0
M  V30 3661 H 365.233 -1.19639 4.44998 0
M  V30 3662 H 363.548 -1.2331 3.97723 0
M  V30 3663 H 366.145 -3.9839 3.56636 0
M  V30 3664 H 366.488 -3.71695 1.87479 0
M  V30 3665 H 367.021 -2.51875 3.07902 0
M  V30 3666 H 363.76 -2.45962 6.07604 0
M  V30 3667 H 363.28 -3.59948 4.79789 0
M  V30 3668 H 364.959 -3.5762 5.39182 0
M  V30 3669 N 365.091 -1.34144 -0.827227 0
M  V30 3670 C 366.021 -1.28005 -1.95287 0
M  V30 3671 C 367.002 -0.158321 -1.69362 0
M  V30 3672 O 368.187 -0.349987 -1.9102 0
M  V30 3673 C 365.317 -1.03036 -3.31664 0
M  V30 3674 C 364.271 -2.11628 -3.72019 0
M  V30 3675 C 363.597 -1.71854 -5.0633 0
M  V30 3676 C 364.897 -3.53417 -3.8457 0
M  V30 3677 H 366.591 -2.22187 -2.00682 0
M  V30 3678 H 364.137 -1.0696 -0.964135 0
M  V30 3679 H 366.09 -0.973863 -4.09993 0
M  V30 3680 H 364.814 -0.0529391 -3.26557 0
M  V30 3681 H 363.473 -2.16339 -2.95961 0
M  V30 3682 H 363.121 -0.727841 -4.97706 0
M  V30 3683 H 362.821 -2.44531 -5.34302 0
M  V30 3684 H 364.345 -1.67692 -5.87122 0
M  V30 3685 H 365.759 -3.51142 -4.5318 0
M  V30 3686 H 364.156 -4.24679 -4.2399 0
M  V30 3687 H 365.226 -3.91072 -2.86689 0
M  V30 3688 N 366.569 1.04691 -1.17803 0
M  V30 3689 C 367.499 2.14494 -0.92275 0
M  V30 3690 C 368.48 1.69546 0.137179 0
M  V30 3691 O 369.665 1.94195 -0.0141108 0
M  V30 3692 C 366.795 3.44491 -0.440803 0
M  V30 3693 C 365.749 4.03031 -1.4405 0
M  V30 3694 C 365.075 5.28432 -0.81631 0
M  V30 3695 C 366.375 4.39932 -2.81527 0
M  V30 3696 H 368.069 2.36107 -1.84103 0
M  V30 3697 H 365.615 1.1347 -0.886599 0
M  V30 3698 H 367.568 4.2066 -0.249602 0
M  V30 3699 H 366.292 3.22546 0.513025 0
M  V30 3700 H 364.951 3.28937 -1.61853 0
M  V30 3701 H 364.599 5.02792 0.144511 0
M  V30 3702 H 364.299 5.68559 -1.48371 0
M  V30 3703 H 365.823 6.07284 -0.635496 0
M  V30 3704 H 367.237 5.07113 -2.67412 0
M  V30 3705 H 365.634 4.9109 -3.44892 0
M  V30 3706 H 366.704 3.50045 -3.35554 0
M  V30 3707 N 368.047 0.979072 1.23499 0
M  V30 3708 C 368.977 0.537606 2.27227 0
M  V30 3709 C 369.958 -0.428539 1.64613 0
M  V30 3710 O 371.143 -0.322191 1.91509 0
M  V30 3711 C 368.273 -0.162052 3.46922 0
M  V30 3712 C 367.227 0.721242 4.21879 0
M  V30 3713 C 366.553 -0.110555 5.34586 0
M  V30 3714 C 367.853 2.01141 4.82016 0
M  V30 3715 H 369.547 1.40462 2.64406 0
M  V30 3716 H 367.093 0.67684 1.27102 0
M  V30 3717 H 369.046 -0.482192 4.18632 0
M  V30 3718 H 367.77 -1.06351 3.08799 0
M  V30 3719 H 366.429 1.02482 3.51984 0
M  V30 3720 H 366.077 -1.0125 4.92704 0
M  V30 3721 H 365.777 0.477325 5.85658 0
M  V30 3722 H 367.301 -0.425107 6.09118 0
M  V30 3723 H 368.715 1.75612 5.45741 0
M  V30 3724 H 367.112 2.54695 5.43369 0
M  V30 3725 H 368.182 2.69909 4.02836 0
M  V30 3726 N 369.525 -1.3858 0.750561 0
M  V30 3727 C 370.457 -2.29057 0.0810714 0
M  V30 3728 C 371.47 -1.47596 -0.686973 0
M  V30 3729 O 372.659 -1.70495 -0.528563 0
M  V30 3730 C 369.759 -3.26475 -0.909247 0
M  V30 3731 C 368.932 -4.36945 -0.199478 0
M  V30 3732 C 367.991 -5.14572 -1.10011 0
M  V30 3733 O 367.017 -5.66321 -0.57177 0
M  V30 3734 N 368.219 -5.27262 -2.42849 0
M  V30 3735 H 370.984 -2.87153 0.858087 0
M  V30 3736 H 368.545 -1.50328 0.60109 0
M  V30 3737 H 370.537 -3.75285 -1.51471 0
M  V30 3738 H 369.107 -2.69298 -1.58736 0
M  V30 3739 H 368.327 -3.8981 0.586664 0
M  V30 3740 H 369.615 -5.07963 0.291783 0
M  V30 3741 H 369.013 -4.86763 -2.88233 0
M  V30 3742 H 367.57 -5.79456 -2.98453 0
M  V30 3743 N 371.003 -0.499398 -1.49478 0
M  V30 3744 C 372.414 -0.051215 -1.8663 0
M  V30 3745 C 372.765 1.36238 -1.41186 0
M  V30 3746 O 371.89 2.01502 -0.789051 0
M  V30 3747 C 372.485 -0.0861651 -3.3869 0
M  V30 3748 C 371.044 0.30667 -3.75149 0
M  V30 3749 C 370.191 -0.459397 -2.73468 0
M  V30 3750 H 373.142 -0.712264 -1.41818 0
M  V30 3751 H 373.163 0.709507 -3.73826 0
M  V30 3752 H 372.675 -1.11512 -3.71735 0
M  V30 3753 H 370.776 1.33892 -3.47712 0
M  V30 3754 H 370.889 -0.0116669 -4.79099 0
M  V30 3755 H 369.253 0.0905645 -2.54539 0
M  V30 3756 H 370.036 -1.4884 -3.09357 0
M  V30 3757 N 372.481 1.55866 -0.233164 0
M  V30 3758 C 373.73 1.97779 0.39579 0
M  V30 3759 C 374.043 1.12419 1.60066 0
M  V30 3760 O 375.249 1.44283 2.29988 0
M  V30 3761 C 373.705 3.5188 0.755556 0
M  V30 3762 C 373.313 4.45959 -0.427152 0
M  V30 3763 C 375.057 4.02479 1.34946 0
M  V30 3764 C 372.964 5.91383 -0.0443043 0
M  V30 3765 H 371.894 0.738592 0.15165 0
M  V30 3766 H 374.545 1.80486 -0.331212 0
M  V30 3767 H 372.927 3.64816 1.5403 0
M  V30 3768 H 374.101 4.44776 -1.20462 0
M  V30 3769 H 372.416 4.05765 -0.935068 0
M  V30 3770 H 375.013 5.08637 1.649 0
M  V30 3771 H 375.356 3.49014 2.26925 0
M  V30 3772 H 375.889 3.92813 0.62791 0
M  V30 3773 H 372.628 6.48857 -0.930874 0
M  V30 3774 H 372.148 5.95734 0.697238 0
M  V30 3775 H 373.827 6.45893 0.378334 0
M  V30 3776 N 373.959 -0.0401083 1.57549 0
M  V30 3777 C 374.869 -1.06133 2.0922 0
M  V30 3778 C 375.885 -1.40356 1.0284 0
M  V30 3779 O 377.061 -1.49897 1.34509 0
M  V30 3780 C 374.126 -2.34658 2.55218 0
M  V30 3781 C 373.187 -2.07117 3.76033 0
M  V30 3782 C 372.42 -3.29514 4.19829 0
M  V30 3783 O 372.643 -4.39794 3.63232 0
M  V30 3784 O 371.577 -3.15863 5.12362 0
M  V30 3785 H 375.403 -0.652244 2.96613 0
M  V30 3786 H 372.988 -0.256368 1.47184 0
M  V30 3787 H 374.87 -3.10239 2.85184 0
M  V30 3788 H 373.545 -2.74883 1.70941 0
M  V30 3789 H 372.452 -1.29139 3.51104 0
M  V30 3790 H 373.785 -1.71754 4.61261 0
M  V30 3791 N 375.437 -1.54477 -0.31217 0
M  V30 3792 C 376.662 -1.77526 -1.07235 0
M  V30 3793 C 377.087 -0.527775 -1.80544 0
M  V30 3794 O 376.445 0.52121 -1.73646 0
M  V30 3795 C 376.493 -2.97535 -2.03728 0
M  V30 3796 O 375.597 -2.69878 -3.11833 0
M  V30 3797 H 374.938 -0.58792 -0.30862 0
M  V30 3798 H 377.468 -2.01532 -0.352993 0
M  V30 3799 H 377.478 -3.25198 -2.46395 0
M  V30 3800 H 376.153 -3.87996 -1.49774 0
M  V30 3801 H 374.73 -2.53199 -2.7376 0
M  V30 3802 N 376.915 0.57481 -1.46744 0
M  V30 3803 C 378.192 1.3352 -1.4294 0
M  V30 3804 C 378.572 2.10775 -0.117009 0
M  V30 3805 O 377.92 2.09966 0.901474 0
M  V30 3806 C 378.13 2.25456 -2.66403 0
M  V30 3807 C 379.478 2.87035 -3.12883 0
M  V30 3808 O 380.502 2.35766 -2.67007 0
M  V30 3809 O 379.361 3.80179 -3.92589 0
M  V30 3810 H 376.455 0.600318 -0.568812 0
M  V30 3811 H 379.001 0.595171 -1.58921 0
M  V30 3812 H 377.773 1.67851 -3.53471 0
M  V30 3813 H 377.396 3.06785 -2.52921 0
M  V30 3814 N 378.394 1.34581 0.820102 0
M  V30 3815 C 379.671 1.17675 1.56244 0
M  V30 3816 C 380.051 -0.249541 2.0962 0
M  V30 3817 O 379.399 -1.25125 1.91196 0
M  V30 3818 C 379.609 2.23364 2.6816 0
M  V30 3819 C 380.957 2.58485 3.36854 0
M  V30 3820 O 381.981 2.22175 2.78418 0
M  V30 3821 O 380.84 3.20868 4.42386 0
M  V30 3822 H 377.934 0.456333 0.689702 0
M  V30 3823 H 380.48 1.46222 0.861231 0
M  V30 3824 H 379.252 3.19087 2.26493 0
M  V30 3825 H 378.875 1.96009 3.45928 0
M  V30 3826 N 379.872 -1.04064 1.18357 0
M  V30 3827 C 380.805 -2.11618 0.854 0
M  V30 3828 C 381.783 -1.61555 -0.184043 0
M  V30 3829 O 382.967 -1.88395 -0.0630048 0
M  V30 3830 C 380.094 -3.37574 0.27597 0
M  V30 3831 C 379.14 -4.06485 1.2912 0
M  V30 3832 S 379.973 -4.53543 2.84709 0
M  V30 3833 C 381.129 -5.82732 2.28417 0
M  V30 3834 H 381.362 -2.39247 1.76488 0
M  V30 3835 H 378.895 -1.16832 1.00944 0
M  V30 3836 H 380.853 -4.10468 -0.051026 0
M  V30 3837 H 379.514 -3.0806 -0.613028 0
M  V30 3838 H 378.707 -4.97024 0.835633 0
M  V30 3839 H 378.309 -3.39708 1.56443 0
M  V30 3840 H 380.601 -6.56677 1.66677 0
M  V30 3841 H 381.544 -6.33052 3.17256 0
M  V30 3842 H 381.952 -5.37838 1.71436 0
M  V30 3843 N 381.35 -0.985608 -1.22978 0
M  V30 3844 C 382.26 -0.538548 -2.28335 0
M  V30 3845 C 383.276 0.409163 -1.69121 0
M  V30 3846 O 384.452 0.277797 -1.99475 0
M  V30 3847 C 381.517 0.146867 -3.46389 0
M  V30 3848 C 380.578 -0.842896 -4.20944 0
M  V30 3849 C 379.811 -0.190095 -5.33361 0
M  V30 3850 O 380.034 1.01767 -5.61248 0
M  V30 3851 O 378.968 -0.891289 -5.95264 0
M  V30 3852 H 382.794 -1.41487 -2.68729 0
M  V30 3853 H 380.379 -0.753495 -1.29007 0
M  V30 3854 H 382.261 0.531125 -4.1804 0
M  V30 3855 H 380.936 0.997871 -3.07935 0
M  V30 3856 H 379.843 -1.27795 -3.51595 0
M  V30 3857 H 381.176 -1.66287 -4.6326 0
M  V30 3858 N 382.828 1.3818 -0.7579 0
M  V30 3859 C 383.778 2.27741 -0.108674 0
M  V30 3860 C 384.762 1.45415 0.688709 0
M  V30 3861 O 385.954 1.68108 0.553956 0
M  V30 3862 C 383.083 3.34313 0.780367 0
M  V30 3863 C 382.169 4.24093 -0.0240977 0
M  V30 3864 N 382.56 4.9451 -1.06271 0
M  V30 3865 C 380.858 4.45542 0.202049 0
M  V30 3866 C 381.559 5.60675 -1.54979 0
M  V30 3867 N 380.535 5.36684 -0.864348 0
M  V30 3868 H 384.337 2.79649 -0.904071 0
M  V30 3869 H 381.851 1.51133 -0.594346 0
M  V30 3870 H 383.848 3.97368 1.26114 0
M  V30 3871 H 382.508 2.83962 1.57467 0
M  V30 3872 H 383.519 4.97345 -1.44459 0
M  V30 3873 H 380.196 4.06091 0.96935 0
M  V30 3874 H 381.586 6.26992 -2.41517 0
M  V30 3875 N 384.306 0.507319 1.49211 0
M  V30 3876 C 385.253 -0.267728 2.29242 0
M  V30 3877 C 386.223 -0.954609 1.35928 0
M  V30 3878 O 387.408 -0.960046 1.64887 0
M  V30 3879 C 384.548 -1.32243 3.18756 0
M  V30 3880 C 383.661 -0.64669 4.27132 0
M  V30 3881 C 382.796 -1.68238 5.03855 0
M  V30 3882 C 381.835 -0.98885 6.0406 0
M  V30 3883 N 380.972 -1.96903 6.73924 0
M  V30 3884 H 385.812 0.420968 2.95012 0
M  V30 3885 H 383.349 0.219443 1.45454 0
M  V30 3886 H 385.307 -1.94599 3.69036 0
M  V30 3887 H 383.937 -1.97981 2.54958 0
M  V30 3888 H 382.989 0.0902926 3.80293 0
M  V30 3889 H 384.301 -0.101058 4.98698 0
M  V30 3890 H 383.455 -2.38081 5.58034 0
M  V30 3891 H 382.194 -2.26187 4.32077 0
M  V30 3892 H 381.199 -0.276222 5.49106 0
M  V30 3893 H 382.424 -0.415767 6.77826 0
M  V30 3894 H 380.37 -2.53803 6.04913 0
M  V30 3895 H 380.287 -1.47423 7.41487 0
M  V30 3896 H 381.555 -2.66015 7.32705 0
M  V30 3897 N 385.784 -1.5574 0.241426 0
M  V30 3898 C 387.012 -2.03208 -0.389134 0
M  V30 3899 C 387.427 -1.12082 -1.51931 0
M  V30 3900 O 386.784 -0.134183 -1.82006 0
M  V30 3901 C 386.835 -3.50064 -0.902087 0
M  V30 3902 O 386.556 -4.37717 0.18305 0
M  V30 3903 C 388.057 -4.13268 -1.60389 0
M  V30 3904 H 385.277 -0.664509 -0.0931053 0
M  V30 3905 H 387.821 -2.0124 0.36369 0
M  V30 3906 H 385.976 -3.52583 -1.60511 0
M  V30 3907 H 386.39 -5.24097 -0.205579 0
M  V30 3908 H 387.864 -5.17733 -1.91458 0
M  V30 3909 H 388.341 -3.59434 -2.52397 0
M  V30 3910 H 388.947 -4.14655 -0.945576 0
M  V30 3911 N 387.262 0.0317525 -1.57568 0
M  V30 3912 C 388.192 1.03274 -2.0942 0
M  V30 3913 C 389.173 1.3788 -0.996143 0
M  V30 3914 O 390.358 1.46811 -1.27122 0
M  V30 3915 C 387.488 2.33448 -2.57137 0
M  V30 3916 C 386.442 2.13091 -3.71182 0
M  V30 3917 C 385.768 3.49001 -4.05095 0
M  V30 3918 C 387.068 1.51928 -4.99715 0
M  V30 3919 H 388.762 0.60112 -2.93303 0
M  V30 3920 H 386.308 0.287705 -1.41097 0
M  V30 3921 H 388.261 3.03802 -2.92032 0
M  V30 3922 H 386.985 2.78665 -1.70333 0
M  V30 3923 H 385.644 1.45171 -3.36632 0
M  V30 3924 H 385.292 3.91862 -3.15362 0
M  V30 3925 H 384.992 3.36207 -4.81911 0
M  V30 3926 H 386.516 4.20721 -4.42522 0
M  V30 3927 H 387.93 2.12196 -5.32584 0
M  V30 3928 H 386.327 1.49716 -5.81124 0
M  V30 3929 H 387.397 0.484811 -4.8247 0
M  V30 3930 N 388.74 1.54641 0.303973 0
M  V30 3931 C 389.687 1.85386 1.37479 0
M  V30 3932 C 390.657 0.702528 1.50512 0
M  V30 3933 O 391.842 0.950867 1.65418 0
M  V30 3934 C 388.982 2.10413 2.73533 0
M  V30 3935 C 388.095 3.38049 2.68974 0
M  V30 3936 C 387.23 3.52934 3.97002 0
M  V30 3937 C 386.269 4.74373 3.86829 0
M  V30 3938 N 385.406 4.8608 5.06627 0
M  V30 3939 H 390.246 2.76732 1.1056 0
M  V30 3940 H 387.783 1.37034 0.534805 0
M  V30 3941 H 389.741 2.22919 3.52652 0
M  V30 3942 H 388.371 1.22338 2.98719 0
M  V30 3943 H 387.423 3.3418 1.81736 0
M  V30 3944 H 388.735 4.27288 2.57346 0
M  V30 3945 H 387.889 3.65088 4.84557 0
M  V30 3946 H 386.628 2.61824 4.1146 0
M  V30 3947 H 385.633 4.62255 2.97658 0
M  V30 3948 H 386.858 5.66888 3.73918 0
M  V30 3949 H 384.804 3.97891 5.21554 0
M  V30 3950 H 384.721 5.69315 4.9741 0
M  V30 3951 H 385.989 5.02587 5.95841 0
M  V30 3952 N 390.218 -0.567019 1.47046 0
M  V30 3953 C 391.467 -1.32091 1.5243 0
M  V30 3954 C 391.78 -1.94704 0.187021 0
M  V30 3955 O 392.986 -2.7124 0.118771 0
M  V30 3956 C 391.442 -2.39479 2.68659 0
M  V30 3957 C 391.05 -1.831 4.08874 0
M  V30 3958 C 392.794 -3.16111 2.83327 0
M  V30 3959 C 390.701 -2.8821 5.16419 0
M  V30 3960 H 389.631 -0.496629 0.56734 0
M  V30 3961 H 392.282 -0.603354 1.73297 0
M  V30 3962 H 390.664 -3.14105 2.41152 0
M  V30 3963 H 391.838 -1.14913 4.46242 0
M  V30 3964 H 390.153 -1.19085 3.99008 0
M  V30 3965 H 392.75 -3.94585 3.60842 0
M  V30 3966 H 393.093 -3.69686 1.91411 0
M  V30 3967 H 393.626 -2.48595 3.10556 0
M  V30 3968 H 390.365 -2.39504 6.10179 0
M  V30 3969 H 389.885 -3.54839 4.8358 0
M  V30 3970 H 391.564 -3.51881 5.42945 0
M  V30 3971 N 391.696 -1.35014 -0.812953 0
M  V30 3972 C 392.924 -1.31031 -1.6012 0
M  V30 3973 C 393.339 0.113558 -1.88458 0
M  V30 3974 O 392.696 1.06363 -1.48301 0
M  V30 3975 C 392.747 -2.10872 -2.93624 0
M  V30 3976 O 392.468 -3.47706 -2.66518 0
M  V30 3977 C 393.969 -2.14401 -3.88004 0
M  V30 3978 H 391.189 -0.45037 -0.497401 0
M  V30 3979 H 393.733 -1.77775 -1.01076 0
M  V30 3980 H 391.888 -1.67744 -3.492 0
M  V30 3981 H 392.302 -3.89097 -3.51715 0
M  V30 3982 H 393.776 -2.74669 -4.78812 0
M  V30 3983 H 394.253 -1.14105 -4.24119 0
M  V30 3984 H 394.859 -2.57662 -3.38364 0
M  V30 3985 N 393.175 1.03435 -1.18907 0
M  V30 3986 C 394.452 1.73778 -0.89781 0
M  V30 3987 C 394.832 2.02458 0.597832 0
M  V30 3988 O 394.18 1.67482 1.55441 0
M  V30 3989 C 394.39 3.01845 -1.75187 0
M  V30 3990 C 395.738 3.7546 -1.9828 0
M  V30 3991 O 396.762 3.11759 -1.72293 0
M  V30 3992 O 395.621 4.89966 -2.42065 0
M  V30 3993 H 392.715 0.75651 -0.334098 0
M  V30 3994 H 395.261 1.09444 -1.29693 0
M  V30 3995 H 394.033 2.76836 -2.76545 0
M  V30 3996 H 393.656 3.73919 -1.35167 0
M  V30 3997 N 394.653 0.992116 1.22453 0
M  V30 3998 C 395.9 0.667534 1.91181 0
M  V30 3999 C 396.228 -0.800317 1.77271 0
M  V30 4000 O 395.483 -1.59421 1.13505 0
M  V30 4001 C 395.782 1.01832 3.42586 0
M  V30 4002 C 395.448 2.47831 3.76684 0
M  V30 4003 C 394.11 2.87729 3.85701 0
M  V30 4004 C 396.462 3.42466 3.92895 0
M  V30 4005 C 393.79 4.21252 4.08367 0
M  V30 4006 C 396.142 4.75648 4.17064 0
M  V30 4007 C 394.806 5.15288 4.24305 0
M  V30 4008 H 394.076 0.244268 0.699581 0
M  V30 4009 H 396.723 1.24816 1.45235 0
M  V30 4010 H 395.028 0.355769 3.90181 0
M  V30 4011 H 396.725 0.745228 3.94014 0
M  V30 4012 H 393.315 2.15905 3.70247 0
M  V30 4013 H 397.499 3.12814 3.85307 0
M  V30 4014 H 392.755 4.51554 4.122 0
M  V30 4015 H 396.929 5.48924 4.2855 0
M  V30 4016 H 394.556 6.18769 4.41621 0
M  V30 4017 N 396.131 -1.37776 0.765217 0
M  V30 4018 C 397.379 -1.99454 0.325943 0
M  V30 4019 C 397.7 -1.61049 -1.09947 0
M  V30 4020 O 396.97 -0.872821 -1.75381 0
M  V30 4021 H 395.55 -0.737697 0.117525 0
M  V30 4022 H 398.212 -1.68359 0.981895 0
M  V30 4023 H 397.308 -3.09547 0.398353 0
M  V30 4024 N 397.609 -0.515225 -1.4894 0
M  V30 4025 C 398.539 0.244628 -2.32215 0
M  V30 4026 C 399.52 0.949136 -1.41157 0
M  V30 4027 O 400.705 0.937783 -1.70057 0
M  V30 4028 C 397.835 1.30096 -3.22013 0
M  V30 4029 C 396.789 0.715486 -4.21977 0
M  V30 4030 C 396.115 1.87339 -5.00808 0
M  V30 4031 C 397.415 -0.302982 -5.2142 0
M  V30 4032 H 399.109 -0.450501 -2.95991 0
M  V30 4033 H 396.655 -0.218098 -1.42339 0
M  V30 4034 H 398.608 1.84037 -3.79089 0
M  V30 4035 H 397.332 2.02547 -2.56207 0
M  V30 4036 H 395.991 0.197715 -3.66066 0
M  V30 4037 H 395.639 2.58592 -4.31438 0
M  V30 4038 H 395.339 1.48764 -5.68457 0
M  V30 4039 H 396.863 2.41686 -5.60732 0
M  V30 4040 H 398.277 0.148802 -5.73107 0
M  V30 4041 H 396.674 -0.60532 -5.97039 0
M  V30 4042 H 397.744 -1.21395 -4.69459 0
M  V30 4043 N 399.087 1.5561 -0.249682 0
M  V30 4044 C 400.05 2.20217 0.635394 0
M  V30 4045 C 401.05 1.17227 1.10066 0
M  V30 4046 O 402.24 1.42292 1.00492 0
M  V30 4047 C 399.372 2.84794 1.87363 0
M  V30 4048 H 400.565 2.99814 0.0716752 0
M  V30 4049 H 398.118 1.563 -0.000153234 0
M  V30 4050 H 398.853 2.09142 2.47851 0
M  V30 4051 H 398.638 3.60241 1.5482 0
M  V30 4052 H 400.128 3.3423 2.5036 0
M  V30 4053 N 400.565 -0.0233959 1.57583 0
M  V30 4054 C 401.981 -0.379134 1.55031 0
M  V30 4055 C 402.181 -1.76255 0.976548 0
M  V30 4056 O 401.237 -2.45266 0.600078 0
M  V30 4057 C 402.55 -0.275792 2.99433 0
M  V30 4058 C 404.098 -0.352458 3.11009 0
M  V30 4059 C 404.573 -0.278501 4.57152 0
M  V30 4060 N 406.064 -0.337123 4.61972 0
M  V30 4061 C 406.799 -0.302876 5.726 0
M  V30 4062 N 406.295 -0.220589 6.92449 0
M  V30 4063 N 408.088 -0.353023 5.6099 0
M  V30 4064 H 400.239 0.881869 1.93227 0
M  V30 4065 H 402.502 0.335867 0.886509 0
M  V30 4066 H 402.208 0.675108 3.4516 0
M  V30 4067 H 402.082 -1.06721 3.61788 0
M  V30 4068 H 404.469 -1.29379 2.65226 0
M  V30 4069 H 404.55 0.468409 2.51475 0
M  V30 4070 H 404.194 0.659189 5.03604 0
M  V30 4071 H 404.124 -1.11755 5.14605 0
M  V30 4072 H 406.615 -0.403002 3.75745 0
M  V30 4073 H 406.928 -0.199713 7.72542 0
M  V30 4074 H 405.273 -0.186555 6.9475 0
M  V30 4075 H 408.464 -0.415339 4.66254 0
M  V30 4076 H 408.637 -0.322866 6.47195 0
M  V30 4077 N 402.043 -1.548 -0.295768 0
M  V30 4078 C 402.953 -1.89177 -1.38742 0
M  V30 4079 C 403.969 -0.786481 -1.55211 0
M  V30 4080 O 405.145 -1.08344 -1.69775 0
M  V30 4081 C 402.21 -2.13663 -2.73036 0
M  V30 4082 C 401.271 -3.37349 -2.65508 0
M  V30 4083 C 400.504 -3.60658 -3.93398 0
M  V30 4084 O 400.727 -2.86882 -4.93006 0
M  V30 4085 O 399.661 -4.54179 -3.94975 0
M  V30 4086 H 403.487 -2.82059 -1.12589 0
M  V30 4087 H 401.072 -1.41056 -0.492295 0
M  V30 4088 H 402.954 -2.3094 -3.52484 0
M  V30 4089 H 401.629 -1.23967 -2.99022 0
M  V30 4090 H 400.536 -3.25431 -1.84514 0
M  V30 4091 H 401.869 -4.27192 -2.44474 0
M  V30 4092 N 403.521 0.559213 -1.47345 0
M  V30 4093 C 404.767 1.31614 -1.55079 0
M  V30 4094 C 405.122 1.91257 -0.209422 0
M  V30 4095 O 404.415 1.74796 0.784656 0
M  V30 4096 C 404.609 2.44853 -2.6035 0
M  V30 4097 C 404.438 1.96305 -4.04591 0
M  V30 4098 C 403.208 1.8024 -4.72061 0
M  V30 4099 C 405.406 1.50872 -4.91673 0
M  V30 4100 N 403.388 1.26011 -6.00828 0
M  V30 4101 C 404.759 1.08395 -6.10451 0
M  V30 4102 C 406.814 1.38905 -4.78132 0
M  V30 4103 C 405.517 0.551399 -7.17183 0
M  V30 4104 C 407.543 0.870518 -5.84958 0
M  V30 4105 C 406.905 0.455661 -7.02925 0
M  V30 4106 H 403.004 0.473712 -0.62219 0
M  V30 4107 H 405.588 0.634103 -1.84085 0
M  V30 4108 H 403.759 3.10589 -2.33215 0
M  V30 4109 H 405.491 3.11849 -2.57938 0
M  V30 4110 H 402.246 2.02895 -4.27937 0
M  V30 4111 H 402.67 1.00991 -6.69425 0
M  V30 4112 H 407.312 1.69591 -3.87297 0
M  V30 4113 H 405.03 0.232159 -8.07766 0
M  V30 4114 H 408.616 0.781507 -5.76527 0
M  V30 4115 H 407.496 0.0606414 -7.84177 0
M  V30 4116 N 404.999 1.35443 0.805782 0
M  V30 4117 C 405.949 1.24972 1.90699 0
M  V30 4118 C 406.933 0.144806 1.60247 0
M  V30 4119 O 408.125 0.376102 1.72958 0
M  V30 4120 C 405.254 1.02475 3.27649 0
M  V30 4121 C 404.34 2.17361 3.64164 0
M  V30 4122 N 404.731 3.42591 3.72109 0
M  V30 4123 C 403.029 2.08765 3.94123 0
M  V30 4124 C 403.73 4.18144 4.04389 0
M  V30 4125 N 402.706 3.4691 4.18515 0
M  V30 4126 H 406.508 2.19852 1.95044 0
M  V30 4127 H 404.022 1.27928 1.00041 0
M  V30 4128 H 406.019 0.930617 4.06381 0
M  V30 4129 H 404.679 0.0848009 3.24589 0
M  V30 4130 H 405.69 3.76932 3.55166 0
M  V30 4131 H 402.367 1.22629 3.99084 0
M  V30 4132 H 403.757 5.26367 4.17597 0
M  V30 4133 N 406.477 -1.02803 1.19454 0
M  V30 4134 C 407.424 -2.11099 0.933046 0
M  V30 4135 C 408.394 -1.65571 -0.132447 0
M  V30 4136 O 409.579 -1.90797 0.00987576 0
M  V30 4137 C 406.719 -3.41763 0.478747 0
M  V30 4138 C 405.832 -4.00833 1.6111 0
M  V30 4139 C 404.967 -5.19511 1.10825 0
M  V30 4140 C 404.006 -5.70639 2.21445 0
M  V30 4141 N 403.143 -6.80589 1.72461 0
M  V30 4142 H 407.983 -2.32804 1.86028 0
M  V30 4143 H 405.52 -1.14179 0.927441 0
M  V30 4144 H 407.478 -4.16736 0.196745 0
M  V30 4145 H 406.108 -3.20166 -0.411493 0
M  V30 4146 H 405.16 -3.23066 2.00829 0
M  V30 4147 H 406.472 -4.34794 2.4445 0
M  V30 4148 H 405.626 -6.01645 0.781533 0
M  V30 4149 H 404.365 -4.87086 0.244606 0
M  V30 4150 H 403.37 -4.87116 2.54947 0
M  V30 4151 H 404.595 -6.05102 3.08267 0
M  V30 4152 H 402.541 -6.50016 0.884056 0
M  V30 4153 H 402.458 -7.13681 2.49389 0
M  V30 4154 H 403.726 -7.66317 1.42755 0
M  V30 4155 N 407.956 -0.998596 -1.21925 0
M  V30 4156 C 409.184 -0.696286 -1.94832 0
M  V30 4157 C 409.599 0.740032 -1.73692 0
M  V30 4158 O 408.956 1.5 -1.03953 0
M  V30 4159 C 409.007 -0.999833 -3.47398 0
M  V30 4160 O 408.728 -2.37972 -3.67833 0
M  V30 4161 C 410.229 -0.716025 -4.37479 0
M  V30 4162 H 407.449 -0.257111 -0.619786 0
M  V30 4163 H 409.993 -1.33491 -1.54921 0
M  V30 4164 H 408.148 -0.406918 -3.85257 0
M  V30 4165 H 408.562 -2.48338 -4.61983 0
M  V30 4166 H 410.036 -0.978642 -5.43256 0
M  V30 4167 H 410.513 0.349968 -4.37803 0
M  V30 4168 H 411.119 -1.29025 -4.05256 0
M  V30 4169 N 409.434 1.37368 -0.772513 0
M  V30 4170 C 410.662 2.03942 -0.348588 0
M  V30 4171 C 411.077 1.58264 1.02947 0
M  V30 4172 O 410.434 0.764246 1.65727 0
M  V30 4173 C 410.485 3.5946 -0.38351 0
M  V30 4174 O 410.206 4.03468 -1.70721 0
M  V30 4175 C 411.707 4.4327 0.0519152 0
M  V30 4176 H 408.927 0.654931 -0.145966 0
M  V30 4177 H 411.471 1.75686 -1.04665 0
M  V30 4178 H 409.626 3.86486 0.265978 0
M  V30 4179 H 410.04 4.97991 -1.64636 0
M  V30 4180 H 411.514 5.51995 -0.0236733 0
M  V30 4181 H 411.991 4.2514 1.10238 0
M  V30 4182 H 412.597 4.21471 -0.569415 0
M  V30 4183 N 410.912 0.523116 1.48665 0
M  V30 4184 C 411.844 -0.280421 2.27478 0
M  V30 4185 C 412.857 -0.910694 1.34945 0
M  V30 4186 O 414.046 -0.790295 1.60052 0
M  V30 4187 C 411.146 -1.41171 3.08097 0
M  V30 4188 C 410.319 -0.884642 4.28361 0
M  V30 4189 C 409.378 -1.89622 4.90846 0
M  V30 4190 O 408.404 -1.4559 5.50265 0
M  V30 4191 N 409.606 -3.22801 4.82472 0
M  V30 4192 H 412.371 0.395481 2.97079 0
M  V30 4193 H 409.932 0.357018 1.57915 0
M  V30 4194 H 411.924 -2.08645 3.4677 0
M  V30 4195 H 410.494 -1.99139 2.40961 0
M  V30 4196 H 409.714 -0.0341177 3.94185 0
M  V30 4197 H 411.002 -0.511268 5.06225 0
M  V30 4198 H 410.4 -3.61246 4.35336 0
M  V30 4199 H 408.957 -3.85927 5.25265 0
M  V30 4200 N 412.39 -1.55475 0.257931 0
M  V30 4201 C 413.323 -2.179 -0.677862 0
M  V30 4202 C 414.301 -1.13448 -1.16483 0
M  V30 4203 O 415.485 -1.41889 -1.24095 0
M  V30 4204 C 412.612 -2.78851 -1.92249 0
M  V30 4205 C 411.658 -3.96454 -1.57246 0
M  V30 4206 S 412.491 -5.31349 -0.665501 0
M  V30 4207 C 413.647 -5.9576 -1.91889 0
M  V30 4208 H 413.88 -2.96934 -0.147396 0
M  V30 4209 H 411.413 -1.54342 0.0423023 0
M  V30 4210 H 413.371 -3.14602 -2.63697 0
M  V30 4211 H 412.032 -1.99742 -2.42409 0
M  V30 4212 H 411.225 -4.37731 -2.49814 0
M  V30 4213 H 410.827 -3.62038 -0.938325 0
M  V30 4214 H 413.119 -6.13947 -2.86487 0
M  V30 4215 H 414.062 -6.9094 -1.54942 0
M  V30 4216 H 414.47 -5.2494 -2.076 0
M  V30 4217 N 413.868 0.0150385 -1.57593 0
M  V30 4218 C 415.093 0.718067 -1.94573 0
M  V30 4219 C 415.518 1.6734 -0.859005 0
M  V30 4220 O 414.876 1.80362 0.184147 0
M  V30 4221 C 414.924 1.43918 -3.30636 0
M  V30 4222 O 414.028 2.55299 -3.23876 0
M  V30 4223 H 413.369 0.192125 -0.635597 0
M  V30 4224 H 415.899 -0.0336708 -2.04572 0
M  V30 4225 H 415.909 1.80598 -3.65853 0
M  V30 4226 H 414.584 0.738619 -4.09289 0
M  V30 4227 H 413.161 2.21058 -3.00312 0
M  V30 4228 N 415.346 1.54954 0.287554 0
M  V30 4229 C 416.309 1.86076 1.33823 0
M  V30 4230 C 417.309 0.734414 1.43049 0
M  V30 4231 O 418.499 1.00266 1.42452 0
M  V30 4232 C 415.631 2.05305 2.72144 0
M  V30 4233 H 416.824 2.79984 1.07465 0
M  V30 4234 H 414.377 1.47223 0.524902 0
M  V30 4235 H 415.112 1.1373 3.03704 0
M  V30 4236 H 414.897 2.873 2.66836 0
M  V30 4237 H 416.387 2.30706 3.48087 0
M  V30 4238 N 416.824 -0.551391 1.4764 0
M  V30 4239 C 417.787 -1.64007 1.60107 0
M  V30 4240 C 418.787 -1.53601 0.47576 0
M  V30 4241 O 419.977 -1.57655 0.740988 0
M  V30 4242 C 417.109 -3.03569 1.55108 0
M  V30 4243 H 418.302 -1.543 2.57161 0
M  V30 4244 H 415.855 -0.771776 1.35917 0
M  V30 4245 H 416.59 -3.18804 0.594519 0
M  V30 4246 H 416.375 -3.12532 2.36783 0
M  V30 4247 H 417.865 -3.82762 1.66982 0
M  V30 4248 N 418.302 -1.35869 -0.798587 0
M  V30 4249 C 419.55 -1.29332 -1.55298 0
M  V30 4250 C 419.871 0.129729 -1.94568 0
M  V30 4251 O 419.141 1.06796 -1.6423 0
M  V30 4252 H 417.721 -0.475737 -0.57592 0
M  V30 4253 H 420.383 -1.70062 -0.952093 0
M  V30 4254 H 419.479 -1.91458 -2.46476 0
M  V30 4255 N 419.78 1.02168 -1.19998 0
M  V30 4256 C 421.008 1.79296 -1.03249 0
M  V30 4257 C 421.423 1.84103 0.418502 0
M  V30 4258 O 420.78 1.29031 1.29063 0
M  V30 4259 C 420.831 3.24007 -1.60319 0
M  V30 4260 O 420.552 3.19512 -2.99739 0
M  V30 4261 C 422.053 4.17704 -1.48453 0
M  V30 4262 H 419.273 0.564016 -0.363493 0
M  V30 4263 H 421.817 1.28639 -1.58973 0
M  V30 4264 H 419.972 3.7183 -1.08727 0
M  V30 4265 H 420.386 4.10306 -3.26725 0
M  V30 4266 H 421.86 5.17104 -1.93153 0
M  V30 4267 H 422.337 4.37029 -0.436193 0
M  V30 4268 H 422.943 3.7576 -1.99211 0
M  V30 4269 N 421.258 1.00505 1.21394 0
M  V30 4270 C 422.488 0.705584 1.94178 0
M  V30 4271 C 422.896 -0.735846 1.74304 0
M  V30 4272 O 422.239 -1.50954 1.04683 0
M  V30 4273 C 422.301 0.94689 3.46806 0
M  V30 4274 C 421.965 2.37517 3.90429 0
M  V30 4275 C 422.962 3.35539 3.97127 0
M  V30 4276 C 420.647 2.71284 4.22742 0
M  V30 4277 C 422.641 4.65395 4.3553 0
M  V30 4278 C 420.328 4.01356 4.60822 0
M  V30 4279 C 421.326 4.98223 4.67186 0
M  V30 4280 O 421.014 6.25969 5.04399 0
M  V30 4281 H 420.746 0.259216 0.624326 0
M  V30 4282 H 423.3 1.34592 1.55159 0
M  V30 4283 H 421.53 0.249386 3.85895 0
M  V30 4284 H 423.219 0.640804 4.0081 0
M  V30 4285 H 423.985 3.10786 3.7234 0
M  V30 4286 H 419.864 1.96581 4.16985 0
M  V30 4287 H 423.408 5.41002 4.40412 0
M  V30 4288 H 419.305 4.25893 4.85063 0
M  V30 4289 H 420.073 6.30085 5.22431 0
M  V30 4290 N 422.737 -1.36956 0.779787 0
M  V30 4291 C 423.7 -2.2851 0.177662 0
M  V30 4292 C 424.7 -1.48393 -0.619377 0
M  V30 4293 O 425.89 -1.68505 -0.441785 0
M  V30 4294 C 423.022 -3.32428 -0.755279 0
M  V30 4295 H 424.215 -2.83269 0.984823 0
M  V30 4296 H 421.768 -1.46358 0.548544 0
M  V30 4297 H 422.503 -2.82808 -1.58714 0
M  V30 4298 H 422.288 -3.91659 -0.185817 0
M  V30 4299 H 423.778 -4.00824 -1.17174 0
M  V30 4300 N 424.215 -0.530993 -1.48385 0
M  V30 4301 C 425.461 -0.00538653 -2.03399 0
M  V30 4302 C 425.816 1.31899 -1.40073 0
M  V30 4303 O 425.109 1.83901 -0.537676 0
M  V30 4304 C 425.303 0.172742 -3.56982 0
M  V30 4305 C 425.132 -1.13282 -4.35198 0
M  V30 4306 C 423.902 -1.69296 -4.76096 0
M  V30 4307 C 426.1 -2.04367 -4.71952 0
M  V30 4308 N 424.082 -2.9413 -5.38851 0
M  V30 4309 C 425.453 -3.13777 -5.34737 0
M  V30 4310 C 427.508 -2.04681 -4.53883 0
M  V30 4311 C 426.211 -4.23567 -5.81363 0
M  V30 4312 C 428.237 -3.13466 -5.01491 0
M  V30 4313 C 427.599 -4.21595 -5.64302 0
M  V30 4314 H 423.698 -0.0434945 -0.780789 0
M  V30 4315 H 426.282 -0.712495 -1.81195 0
M  V30 4316 H 424.453 0.848937 -3.79009 0
M  V30 4317 H 426.185 0.698046 -3.98634 0
M  V30 4318 H 422.94 -1.23422 -4.57235 0
M  V30 4319 H 423.364 -3.57689 -5.74794 0
M  V30 4320 H 428.006 -1.22378 -4.04702 0
M  V30 4321 H 425.724 -5.06648 -6.2955 0
M  V30 4322 H 429.31 -3.14765 -4.893 0
M  V30 4323 H 428.19 -5.04384 -6.00472 0
M  V30 4324 N 425.693 1.55336 -0.266172 0
M  V30 4325 C 426.626 2.18256 0.666296 0
M  V30 4326 C 427.604 1.14064 1.1588 0
M  V30 4327 O 428.788 1.42546 1.23341 0
M  V30 4328 C 425.915 2.79867 1.90768 0
M  V30 4329 C 424.961 3.97283 1.55141 0
M  V30 4330 S 425.794 5.31694 0.637313 0
M  V30 4331 C 426.95 5.96769 1.88727 0
M  V30 4332 H 427.183 2.97008 0.131647 0
M  V30 4333 H 424.716 1.54317 -0.0504869 0
M  V30 4334 H 426.674 3.15996 2.62025 0
M  V30 4335 H 425.335 2.01025 2.41346 0
M  V30 4336 H 424.528 4.3905 2.4749 0
M  V30 4337 H 424.13 3.6253 0.919113 0
M  V30 4338 H 426.422 6.15458 2.83227 0
M  V30 4339 H 427.365 6.91752 1.51276 0
M  V30 4340 H 427.773 5.26034 2.04814 0
M  V30 4341 N 427.171 -0.0066808 1.57599 0
M  V30 4342 C 428.134 -0.985035 2.06953 0
M  V30 4343 C 429.134 -1.27663 0.977687 0
M  V30 4344 O 430.324 -1.22293 1.24057 0
M  V30 4345 C 427.456 -2.3118 2.50536 0
M  V30 4346 H 428.649 -0.558255 2.94658 0
M  V30 4347 H 426.202 -0.254011 1.54222 0
M  V30 4348 H 426.937 -2.78561 1.66054 0
M  V30 4349 H 426.722 -2.11338 3.3027 0
M  V30 4350 H 428.212 -3.01377 2.8907 0
M  V30 4351 N 428.649 -1.55105 -0.279332 0
M  V30 4352 C 430.06 -1.66186 -0.850832 0
M  V30 4353 C 430.411 -0.584707 -1.87285 0
M  V30 4354 O 429.536 0.274919 -2.14647 0
M  V30 4355 C 430.131 -3.01264 -1.55001 0
M  V30 4356 C 428.69 -3.14394 -2.06963 0
M  V30 4357 C 427.837 -2.61959 -0.909536 0
M  V30 4358 H 430.788 -1.58602 -0.0558235 0
M  V30 4359 H 430.809 -2.93899 -2.41669 0
M  V30 4360 H 430.321 -3.7964 -0.805931 0
M  V30 4361 H 428.422 -2.4078 -2.84352 0
M  V30 4362 H 428.535 -4.20867 -2.28928 0
M  V30 4363 H 426.899 -2.18957 -1.30116 0
M  V30 4364 H 427.682 -3.42833 -0.179062 0
M  V30 4365 N 430.127 0.543554 -1.4793 0
M  V30 4366 C 431.037 1.67657 -1.64098 0
M  V30 4367 C 432.053 1.65934 -0.523622 0
M  V30 4368 O 433.229 1.85133 -0.792943 0
M  V30 4369 C 430.294 3.04146 -1.66421 0
M  V30 4370 C 429.355 3.16831 -2.89684 0
M  V30 4371 C 428.588 4.46809 -2.91886 0
M  V30 4372 O 428.811 5.33095 -2.02895 0
M  V30 4373 O 427.745 4.63573 -3.83906 0
M  V30 4374 H 431.571 1.56957 -2.59997 0
M  V30 4375 H 429.156 0.715116 -1.31173 0
M  V30 4376 H 431.038 3.85346 -1.70548 0
M  V30 4377 H 429.713 3.152 -0.736923 0
M  V30 4378 H 428.62 2.34977 -2.91095 0
M  V30 4379 H 429.953 3.10687 -3.81752 0
M  V30 4380 N 431.605 1.3629 0.791371 0
M  V30 4381 C 432.851 1.30605 1.55146 0
M  V30 4382 C 433.184 -0.115042 1.93859 0
M  V30 4383 O 432.459 -1.06798 1.62556 0
M  V30 4384 C 432.742 2.22692 2.82985 0
M  V30 4385 C 432.595 3.73489 2.50651 0
M  V30 4386 C 433.914 2.13588 3.84796 0
M  V30 4387 H 431.033 0.475761 0.562868 0
M  V30 4388 H 433.675 1.66825 0.909358 0
M  V30 4389 H 431.825 1.91933 3.37778 0
M  V30 4390 H 433.497 4.14758 2.01924 0
M  V30 4391 H 431.74 3.93021 1.83622 0
M  V30 4392 H 432.411 4.3333 3.41949 0
M  V30 4393 H 434.887 2.40659 3.39445 0
M  V30 4394 H 433.763 2.80195 4.71998 0
M  V30 4395 H 434.024 1.12256 4.27611 0
M  V30 4396 N 433.083 -1.0153 1.20538 0
M  V30 4397 C 434.332 -1.74558 1.01057 0
M  V30 4398 C 434.645 -1.90168 -0.457756 0
M  V30 4399 O 435.851 -2.60301 -0.771722 0
M  V30 4400 C 434.307 -3.13963 1.75941 0
M  V30 4401 C 433.915 -3.06361 3.26875 0
M  V30 4402 C 435.659 -3.91191 1.64832 0
M  V30 4403 C 433.566 -4.40782 3.94291 0
M  V30 4404 H 432.496 -0.654417 0.374505 0
M  V30 4405 H 435.147 -1.13521 1.44171 0
M  V30 4406 H 433.529 -3.75549 1.25614 0
M  V30 4407 H 434.703 -2.54074 3.84425 0
M  V30 4408 H 433.018 -2.42625 3.38411 0
M  V30 4409 H 435.615 -4.90644 2.12539 0
M  V30 4410 H 435.958 -4.11884 0.604745 0
M  V30 4411 H 436.491 -3.36236 2.12579 0
M  V30 4412 H 433.23 -4.25292 4.98805 0
M  V30 4413 H 432.75 -4.9307 3.41529 0
M  V30 4414 H 434.429 -5.09621 3.98617 0
M  V30 4415 N 434.561 -1.01147 -1.20859 0
M  V30 4416 C 435.508 -0.577354 -2.23462 0
M  V30 4417 C 436.478 0.399922 -1.61214 0
M  V30 4418 O 437.663 0.300515 -1.88419 0
M  V30 4419 C 434.803 0.083372 -3.44999 0
M  V30 4420 C 433.916 -0.937856 -4.21697 0
M  V30 4421 C 433.051 -0.248717 -5.30617 0
M  V30 4422 C 432.09 -1.25705 -5.99053 0
M  V30 4423 N 431.227 -0.594939 -6.99575 0
M  V30 4424 H 436.067 -1.45695 -2.59956 0
M  V30 4425 H 433.604 -0.729428 -1.27741 0
M  V30 4426 H 435.562 0.483535 -4.14388 0
M  V30 4427 H 434.192 0.926645 -3.09214 0
M  V30 4428 H 433.244 -1.45622 -3.51423 0
M  V30 4429 H 434.556 -1.70493 -4.68757 0
M  V30 4430 H 433.71 0.207215 -6.06346 0
M  V30 4431 H 432.449 0.55071 -4.84581 0
M  V30 4432 H 431.454 -1.72343 -5.2209 0
M  V30 4433 H 432.679 -2.05767 -6.47176 0
M  V30 4434 H 430.625 0.184713 -6.5574 0
M  V30 4435 H 430.542 -1.30017 -7.44736 0
M  V30 4436 H 431.81 -0.162427 -7.79331 0
M  V30 4437 N 436.039 1.36541 -0.78704 0
M  V30 4438 C 437.002 2.28413 -0.189778 0
M  V30 4439 C 438.002 1.48719 0.611499 0
M  V30 4440 O 439.192 1.68737 0.432842 0
M  V30 4441 C 436.324 3.32824 0.737638 0
M  V30 4442 H 437.517 2.82743 -0.999831 0
M  V30 4443 H 435.07 1.46065 -0.556298 0
M  V30 4444 H 435.805 2.83646 1.57212 0
M  V30 4445 H 435.59 3.91752 0.165044 0
M  V30 4446 H 437.08 4.0144 1.15047 0
M  V30 4447 N 437.518 0.538854 1.48102 0
M  V30 4448 C 438.743 0.0102694 2.07397 0
M  V30 4449 C 439.168 -1.26562 1.39153 0
M  V30 4450 O 438.526 -1.75357 0.460387 0
M  V30 4451 C 438.574 -0.187602 3.60112 0
M  V30 4452 O 437.678 -1.25432 3.92862 0
M  V30 4453 H 437.019 0.0430975 0.6626 0
M  V30 4454 H 439.549 0.749301 1.90385 0
M  V30 4455 H 439.559 -0.407517 4.0596 0
M  V30 4456 H 438.234 0.744386 4.09184 0
M  V30 4457 H 436.811 -1.01636 3.58782 0
M  V30 4458 N 438.996 -1.55193 0.274407 0
M  V30 4459 C 440.224 -2.03987 -0.345943 0
M  V30 4460 C 440.639 -1.15279 -1.4952 0
M  V30 4461 O 439.996 -0.172759 -1.8168 0
M  V30 4462 C 440.047 -3.51898 -0.827631 0
M  V30 4463 O 439.768 -4.37231 0.275855 0
M  V30 4464 C 441.269 -4.16577 -1.51587 0
M  V30 4465 H 438.489 -0.666335 -0.0789892 0
M  V30 4466 H 441.033 -2.00423 0.406294 0
M  V30 4467 H 439.188 -3.55909 -1.52996 0
M  V30 4468 H 439.602 -5.24415 -0.0943638 0
M  V30 4469 H 441.076 -5.21678 -1.80433 0
M  V30 4470 H 441.553 -3.64707 -2.44716 0
M  V30 4471 H 442.159 -4.16568 -0.857409 0
M  V30 4472 N 440.474 -0.00167713 -1.576 0
M  V30 4473 C 441.721 0.68282 -1.90641 0
M  V30 4474 C 442.049 1.73686 -0.875415 0
M  V30 4475 O 441.304 1.95334 0.119575 0
M  V30 4476 C 441.603 1.36189 -3.30435 0
M  V30 4477 C 441.269 0.440887 -4.48739 0
M  V30 4478 C 439.931 0.187312 -4.80835 0
M  V30 4479 C 442.283 -0.193134 -5.20842 0
M  V30 4480 C 439.611 -0.70855 -5.82406 0
M  V30 4481 C 441.963 -1.07688 -6.23367 0
M  V30 4482 C 440.627 -1.33962 -6.53919 0
M  V30 4483 H 439.897 0.249862 -0.697603 0
M  V30 4484 H 442.544 -0.0575642 -1.91413 0
M  V30 4485 H 440.849 2.17636 -3.25794 0
M  V30 4486 H 442.546 1.89759 -3.5326 0
M  V30 4487 H 439.136 0.648694 -4.23663 0
M  V30 4488 H 443.32 -0.0102445 -4.96299 0
M  V30 4489 H 438.576 -0.920097 -6.04437 0
M  V30 4490 H 442.75 -1.57451 -6.78367 0
M  V30 4491 H 440.377 -2.03549 -7.32442 0
M  V30 4492 N 441.952 1.55251 0.271103 0
M  V30 4493 C 443.177 1.80306 1.02491 0
M  V30 4494 C 443.602 0.575457 1.79081 0
M  V30 4495 O 442.96 -0.474987 1.74967 0
M  V30 4496 C 443.008 3.02832 1.95768 0
M  V30 4497 O 442.112 2.78051 3.04568 0
M  V30 4498 H 441.453 0.595896 0.292923 0
M  V30 4499 H 443.983 2.02397 0.299436 0
M  V30 4500 H 443.993 3.31616 2.37686 0
M  V30 4501 H 442.668 3.9183 1.39434 0
M  V30 4502 H 441.245 2.60369 2.66951 0
M  V30 4503 N 443.43 -0.535701 1.48216 0
M  V30 4504 C 444.377 -1.64083 1.62312 0
M  V30 4505 C 445.347 -1.59448 0.465365 0
M  V30 4506 O 446.532 -1.77959 0.688135 0
M  V30 4507 C 443.672 -3.0236 1.66349 0
M  V30 4508 C 442.785 -3.17273 2.93193 0
M  V30 4509 C 441.92 -4.46075 2.88427 0
M  V30 4510 C 440.959 -4.54496 4.1 0
M  V30 4511 N 440.096 -5.7468 4.03345 0
M  V30 4512 H 444.936 -1.51374 2.5669 0
M  V30 4513 H 442.473 -0.737059 1.27302 0
M  V30 4514 H 444.431 -3.82461 1.66672 0
M  V30 4515 H 443.061 -3.13854 0.754672 0
M  V30 4516 H 442.113 -2.30462 3.02641 0
M  V30 4517 H 443.425 -3.19357 3.83162 0
M  V30 4518 H 442.579 -5.3446 2.87119 0
M  V30 4519 H 441.318 -4.46504 1.96177 0
M  V30 4520 H 440.323 -3.64519 4.11589 0
M  V30 4521 H 441.548 -4.5581 5.03402 0
M  V30 4522 H 439.494 -5.76017 3.13912 0
M  V30 4523 H 439.411 -5.78234 4.87013 0
M  V30 4524 H 440.679 -6.65367 4.06087 0
M  V30 4525 N 444.908 -1.36708 -0.784132 0
M  V30 4526 C 446.156 -1.30972 -1.53918 0
M  V30 4527 C 446.477 0.109086 -1.94695 0
M  V30 4528 O 445.747 1.05048 -1.65353 0
M  V30 4529 H 444.327 -0.481819 -0.570841 0
M  V30 4530 H 446.989 -1.71063 -0.934002 0
M  V30 4531 H 446.085 -1.94061 -2.44431 0
M  V30 4532 N 446.386 1.0089 -1.21074 0
M  V30 4533 C 447.611 1.78727 -1.05221 0
M  V30 4534 C 448.036 1.83932 0.393795 0
M  V30 4535 O 447.394 1.28004 1.28393 0
M  V30 4536 C 447.442 3.20665 -1.64944 0
M  V30 4537 O 446.546 4.02632 -0.892273 0
M  V30 4538 H 445.887 0.550973 -0.370574 0
M  V30 4539 H 448.417 1.26847 -1.60534 0
M  V30 4540 H 448.427 3.71352 -1.69002 0
M  V30 4541 H 447.102 3.16191 -2.70177 0
M  V30 4542 H 445.679 3.61207 -0.926492 0
M  V30 4543 N 447.864 1.01787 1.20321 0
M  V30 4544 C 449.141 0.622978 1.85414 0
M  V30 4545 C 449.521 -0.898887 1.91006 0
M  V30 4546 O 448.869 -1.79112 1.41884 0
M  V30 4547 C 449.079 1.27226 3.24984 0
M  V30 4548 C 450.427 1.3885 4.01255 0
M  V30 4549 O 451.451 1.22857 3.34342 0
M  V30 4550 O 450.31 1.64705 5.2109 0
M  V30 4551 H 447.404 0.215116 0.798533 0
M  V30 4552 H 449.95 1.11533 1.27901 0
M  V30 4553 H 448.722 2.31209 3.15687 0
M  V30 4554 H 448.345 0.767069 3.90131 0
M  V30 4555 N 449.342 -1.36122 0.79427 0
M  V30 4556 C 450.588 -1.99406 0.369452 0
M  V30 4557 C 450.921 -1.62886 -1.05743 0
M  V30 4558 O 450.196 -0.886053 -1.73145 0
M  V30 4559 C 450.479 -3.56046 0.538833 0
M  V30 4560 C 450.332 -4.02404 2.00976 0
M  V30 4561 C 451.651 -4.40079 -0.0431359 0
M  V30 4562 H 448.77 -0.724397 0.135712 0
M  V30 4563 H 451.412 -1.61461 1.00151 0
M  V30 4564 H 449.562 -3.885 0.000771004 0
M  V30 4565 H 451.234 -3.80415 2.60926 0
M  V30 4566 H 449.477 -3.53765 2.51063 0
M  V30 4567 H 450.148 -5.11344 2.07922 0
M  V30 4568 H 452.624 -4.14013 0.416228 0
M  V30 4569 H 451.5 -5.48799 0.105374 0
M  V30 4570 H 451.761 -4.27264 -1.13571 0
M  V30 4571 N 450.82 -0.546701 -1.47814 0
M  V30 4572 C 452.066 -0.0269594 -2.03382 0
M  V30 4573 C 452.421 1.30406 -1.41464 0
M  V30 4574 O 451.714 1.8332 -0.557151 0
M  V30 4575 C 451.908 0.134869 -3.57145 0
M  V30 4576 C 451.737 -1.17891 -4.33972 0
M  V30 4577 C 450.507 -1.74336 -4.74273 0
M  V30 4578 C 452.705 -2.09361 -4.69758 0
M  V30 4579 N 450.687 -2.99829 -5.35701 0
M  V30 4580 C 452.058 -3.19431 -5.31379 0
M  V30 4581 C 454.113 -2.09484 -4.51687 0
M  V30 4582 C 452.816 -4.2971 -5.76838 0
M  V30 4583 C 454.842 -3.18767 -4.98138 0
M  V30 4584 C 454.204 -4.27557 -5.59799 0
M  V30 4585 H 450.303 -0.0517733 -0.780284 0
M  V30 4586 H 452.887 -0.731673 -1.80429 0
M  V30 4587 H 451.058 0.80869 -3.79888 0
M  V30 4588 H 452.79 0.655726 -3.99352 0
M  V30 4589 H 449.545 -1.28265 -4.559 0
M  V30 4590 H 449.969 -3.63765 -5.70968 0
M  V30 4591 H 454.611 -1.26663 -4.03381 0
M  V30 4592 H 452.329 -5.13297 -6.24141 0
M  V30 4593 H 455.915 -3.19937 -4.85934 0
M  V30 4594 H 454.795 -5.10725 -5.95088 0
M  V30 4595 N 452.299 1.55045 -0.282633 0
M  V30 4596 C 453.524 2.04628 0.337977 0
M  V30 4597 C 453.949 1.15937 1.48123 0
M  V30 4598 O 453.307 0.159532 1.80597 0
M  V30 4599 C 453.355 3.51854 0.78936 0
M  V30 4600 O 452.459 3.66236 1.89592 0
M  V30 4601 H 451.8 0.660434 0.0687261 0
M  V30 4602 H 454.33 2.00261 -0.419124 0
M  V30 4603 H 454.34 3.93361 1.08311 0
M  V30 4604 H 453.015 4.15873 -0.0470419 0
M  V30 4605 H 451.592 3.36633 1.60413 0
M  V30 4606 N 453.777 0.010035 1.57597 0
M  V30 4607 C 455.024 -0.6727 1.91 0
M  V30 4608 C 455.352 -1.73219 0.884614 0
M  V30 4609 O 454.607 -1.95395 -0.109215 0
M  V30 4610 C 454.906 -1.34434 3.31153 0
M  V30 4611 C 454.572 -0.417083 4.48967 0
M  V30 4612 C 453.234 -0.161809 4.80928 0
M  V30 4613 C 455.586 0.220753 5.20732 0
M  V30 4614 C 452.914 0.739426 5.82022 0
M  V30 4615 C 455.266 1.10993 6.22787 0
M  V30 4616 C 453.93 1.37428 6.532 0
M  V30 4617 H 453.2 -0.246158 0.698918 0
M  V30 4618 H 455.847 0.0677145 1.9138 0
M  V30 4619 H 454.152 -2.15905 3.26944 0
M  V30 4620 H 455.849 -1.87883 3.54261 0
M  V30 4621 H 452.439 -0.626217 4.24001 0
M  V30 4622 H 456.623 0.0365643 4.96287 0
M  V30 4623 H 451.879 0.952139 6.03941 0
M  V30 4624 H 456.053 1.61046 6.77523 0
M  V30 4625 H 453.68 2.0743 7.31353 0
M  V30 4626 N 455.255 -1.55392 -0.262866 0
M  V30 4627 C 456.503 -1.76127 -0.991147 0
M  V30 4628 C 456.824 -0.571083 -1.8645 0
M  V30 4629 O 456.094 0.413698 -1.91482 0
M  V30 4630 H 454.674 -0.649528 -0.368948 0
M  V30 4631 H 457.336 -1.9281 -0.284655 0
M  V30 4632 H 456.432 -2.6663 -1.62219 0
M  V30 4633 N 456.733 0.527833 -1.48498 0
M  V30 4634 C 457.979 1.28545 -1.56857 0
M  V30 4635 C 458.312 1.92678 -0.242651 0
M  V30 4636 O 457.587 1.79394 0.751545 0
M  V30 4637 C 457.87 2.37314 -2.70839 0
M  V30 4638 C 457.723 1.77858 -4.13142 0
M  V30 4639 C 459.042 3.39068 -2.80573 0
M  V30 4640 H 456.161 0.466006 -0.570971 0
M  V30 4641 H 458.803 0.587784 -1.8068 0
M  V30 4642 H 456.953 2.96821 -2.50658 0
M  V30 4643 H 458.625 1.22385 -4.44769 0
M  V30 4644 H 456.868 1.08383 -4.20042 0
M  V30 4645 H 457.539 2.56624 -4.88721 0
M  V30 4646 H 460.015 2.89518 -2.98862 0
M  V30 4647 H 458.891 4.12566 -3.6205 0
M  V30 4648 H 459.152 3.9975 -1.88818 0
M  V30 4649 N 458.211 1.37122 0.776871 0
M  V30 4650 C 459.141 1.35164 1.90402 0
M  V30 4651 C 460.122 0.221069 1.68657 0
M  V30 4652 O 461.307 0.420642 1.8959 0
M  V30 4653 C 458.437 1.15274 3.27611 0
M  V30 4654 C 457.391 2.25289 3.63908 0
M  V30 4655 C 456.717 1.90527 4.99603 0
M  V30 4656 C 458.017 3.67446 3.71188 0
M  V30 4657 H 459.711 2.29482 1.92297 0
M  V30 4658 H 457.257 1.10465 0.923773 0
M  V30 4659 H 459.21 1.12536 4.06096 0
M  V30 4660 H 457.934 0.174102 3.26136 0
M  V30 4661 H 456.593 2.27174 2.87728 0
M  V30 4662 H 456.241 0.91206 4.94662 0
M  V30 4663 H 455.941 2.64193 5.24858 0
M  V30 4664 H 457.465 1.89367 5.80493 0
M  V30 4665 H 458.879 3.67719 4.39836 0
M  V30 4666 H 457.276 4.40123 4.07936 0
M  V30 4667 H 458.346 4.01443 2.71977 0
M  V30 4668 N 459.689 -1.00246 1.21608 0
M  V30 4669 C 460.619 -2.10921 1.00172 0
M  V30 4670 C 461.6 -1.69938 -0.0741587 0
M  V30 4671 O 462.785 -1.94009 0.0861753 0
M  V30 4672 C 459.915 -3.42618 0.568355 0
M  V30 4673 C 458.869 -3.97407 1.58909 0
M  V30 4674 C 458.195 -5.25038 1.01187 0
M  V30 4675 C 459.495 -4.2918 2.97661 0
M  V30 4676 H 461.189 -2.29112 1.92739 0
M  V30 4677 H 458.735 -1.10101 0.928102 0
M  V30 4678 H 460.688 -4.19444 0.405555 0
M  V30 4679 H 459.412 -3.24227 -0.392961 0
M  V30 4680 H 458.071 -3.22703 1.73949 0
M  V30 4681 H 457.719 -5.02982 0.0421965 0
M  V30 4682 H 457.419 -5.62661 1.6937 0
M  V30 4683 H 458.943 -6.04507 0.860448 0
M  V30 4684 H 460.357 -4.96839 2.86049 0
M  V30 4685 H 458.754 -4.77952 3.6288 0
M  V30 4686 H 459.824 -3.3735 3.48315 0
M  V30 4687 N 461.167 -1.02423 -1.1978 0
M  V30 4688 C 462.413 -0.72878 -1.89896 0
M  V30 4689 C 462.768 0.734248 -1.77839 0
M  V30 4690 O 462.061 1.52733 -1.15685 0
M  V30 4691 C 462.255 -1.1088 -3.39765 0
M  V30 4692 C 462.084 -2.60722 -3.66407 0
M  V30 4693 C 460.854 -3.27623 -3.84696 0
M  V30 4694 C 463.052 -3.58924 -3.68345 0
M  V30 4695 N 461.034 -4.66617 -3.98926 0
M  V30 4696 C 462.405 -4.83514 -3.8809 0
M  V30 4697 C 464.46 -3.52788 -3.51347 0
M  V30 4698 C 463.163 -6.0271 -3.92598 0
M  V30 4699 C 465.189 -4.71394 -3.5713 0
M  V30 4700 C 464.551 -5.94796 -3.77356 0
M  V30 4701 H 460.65 -0.318473 -0.714212 0
M  V30 4702 H 463.234 -1.3106 -1.43984 0
M  V30 4703 H 461.405 -0.555233 -3.84411 0
M  V30 4704 H 463.137 -0.766082 -3.97383 0
M  V30 4705 H 459.892 -2.7804 -3.83393 0
M  V30 4706 H 460.316 -5.38805 -4.099 0
M  V30 4707 H 464.958 -2.58372 -3.3467 0
M  V30 4708 H 462.676 -6.97499 -4.08069 0
M  V30 4709 H 466.262 -4.6827 -3.45275 0
M  V30 4710 H 465.142 -6.85037 -3.81699 0
M  V30 4711 N 462.645 1.35699 -0.801477 0
M  V30 4712 C 463.555 2.33661 -0.209691 0
M  V30 4713 C 464.571 1.6162 0.644591 0
M  V30 4714 O 465.747 1.93529 0.557545 0
M  V30 4715 C 462.812 3.40816 0.636033 0
M  V30 4716 C 461.873 4.28639 -0.238147 0
M  V30 4717 C 461.106 5.30676 0.567307 0
M  V30 4718 O 461.329 5.41174 1.8024 0
M  V30 4719 O 460.263 6.01887 -0.0391336 0
M  V30 4720 H 464.089 2.8606 -1.01996 0
M  V30 4721 H 461.674 1.38379 -0.563164 0
M  V30 4722 H 463.556 4.06301 1.11791 0
M  V30 4723 H 462.231 2.90696 1.42399 0
M  V30 4724 H 461.138 3.66152 -0.767044 0
M  V30 4725 H 462.471 4.82143 -0.989915 0
M  V30 4726 N 464.123 0.554532 1.47522 0
M  V30 4727 C 465.053 -0.182974 2.32782 0
M  V30 4728 C 466.034 -0.911377 1.43624 0
M  V30 4729 O 467.219 -0.892366 1.72483 0
M  V30 4730 C 464.349 -1.21513 3.25349 0
M  V30 4731 C 463.303 -0.603355 4.23726 0
M  V30 4732 C 462.629 -1.73995 5.05598 0
M  V30 4733 C 463.929 0.441121 5.20434 0
M  V30 4734 H 465.623 0.52882 2.94693 0
M  V30 4735 H 463.169 0.255759 1.41711 0
M  V30 4736 H 465.122 -1.73922 3.83835 0
M  V30 4737 H 463.846 -1.95683 2.61487 0
M  V30 4738 H 462.505 -0.10059 3.66462 0
M  V30 4739 H 462.153 -2.47063 4.38143 0
M  V30 4740 H 461.853 -1.3364 5.72201 0
M  V30 4741 H 463.377 -2.26735 5.66942 0
M  V30 4742 H 464.791 0.00319931 5.733 0
M  V30 4743 H 463.188 0.763402 5.95224 0
M  V30 4744 H 464.258 1.33799 4.66075 0
M  V30 4745 N 465.601 -1.54893 0.290851 0
M  V30 4746 C 466.531 -2.26103 -0.583084 0
M  V30 4747 C 467.512 -1.25684 -1.14619 0
M  V30 4748 O 468.697 -1.54436 -1.17741 0
M  V30 4749 C 465.827 -2.99409 -1.75987 0
M  V30 4750 C 464.781 -4.0689 -1.32758 0
M  V30 4751 C 464.107 -4.67856 -2.58872 0
M  V30 4752 C 465.407 -5.20215 -0.46624 0
M  V30 4753 H 467.101 -2.99398 0.0108214 0
M  V30 4754 H 464.647 -1.43998 0.00664468 0
M  V30 4755 H 466.6 -3.47943 -2.37727 0
M  V30 4756 H 465.324 -2.23675 -2.37985 0
M  V30 4757 H 463.983 -3.59191 -0.733299 0
M  V30 4758 H 463.631 -3.88772 -3.19163 0
M  V30 4759 H 463.331 -5.40438 -2.30653 0
M  V30 4760 H 464.855 -5.19147 -3.21433 0
M  V30 4761 H 466.269 -5.64704 -0.989047 0
M  V30 4762 H 464.666 -5.99455 -0.27826 0
M  V30 4763 H 465.736 -4.82198 0.511173 0
M  V30 4764 N 467.08 -0.0183926 -1.57589 0
M  V30 4765 C 468.308 0.673046 -1.95647 0
M  V30 4766 C 468.723 1.66275 -0.894312 0
M  V30 4767 O 468.08 1.82072 0.124975 0
M  V30 4768 C 468.131 1.38884 -3.33756 0
M  V30 4769 O 467.852 0.438806 -4.35897 0
M  V30 4770 C 469.353 2.1731 -3.86383 0
M  V30 4771 H 466.573 0.186292 -0.644621 0
M  V30 4772 H 469.117 -0.0749748 -2.04363 0
M  V30 4773 H 467.272 2.08835 -3.26293 0
M  V30 4774 H 467.686 0.945869 -5.15901 0
M  V30 4775 H 469.16 2.62863 -4.85394 0
M  V30 4776 H 469.637 3.00764 -3.20059 0
M  V30 4777 H 470.243 1.52339 -3.97081 0
M  V30 4778 N 468.558 1.5553 0.254621 0
M  V30 4779 C 469.806 1.7665 0.981793 0
M  V30 4780 C 470.127 0.580963 1.86145 0
M  V30 4781 O 469.397 -0.403537 1.91699 0
M  V30 4782 H 467.977 0.651475 0.365498 0
M  V30 4783 H 470.639 1.92958 0.274426 0
M  V30 4784 H 469.735 2.67486 1.60802 0
M  V30 4785 N 470.036 -0.519951 1.48776 0
M  V30 4786 C 470.946 -1.65025 1.66745 0
M  V30 4787 C 471.962 -1.6508 0.549954 0
M  V30 4788 O 473.138 -1.83848 0.822295 0
M  V30 4789 C 470.203 -3.0146 1.71238 0
M  V30 4790 C 469.264 -3.12182 2.94688 0
M  V30 4791 C 468.497 -4.42109 2.98958 0
M  V30 4792 O 468.72 -5.29799 2.1135 0
M  V30 4793 O 467.654 -4.57406 3.91233 0
M  V30 4794 H 471.48 -1.52801 2.62461 0
M  V30 4795 H 469.065 -0.694157 1.32294 0
M  V30 4796 H 470.947 -3.82584 1.76657 0
M  V30 4797 H 469.622 -3.13988 0.786975 0
M  V30 4798 H 468.529 -2.30316 2.94797 0
M  V30 4799 H 469.862 -3.04574 3.86646 0
M  V30 4800 N 471.514 -1.37532 -0.769588 0
M  V30 4801 C 472.76 -1.33057 -1.53048 0
M  V30 4802 C 473.093 0.0841865 -1.94017 0
M  V30 4803 O 472.368 1.04198 -1.64235 0
M  V30 4804 C 472.651 -2.27166 -2.79406 0
M  V30 4805 C 472.504 -3.77429 -2.44677 0
M  V30 4806 C 473.823 -2.19683 -3.81349 0
M  V30 4807 H 470.942 -0.484655 -0.555228 0
M  V30 4808 H 473.584 -1.68251 -0.882702 0
M  V30 4809 H 471.734 -1.97283 -3.34682 0
M  V30 4810 H 473.406 -4.17918 -1.953 0
M  V30 4811 H 471.649 -3.95892 -1.77346 0
M  V30 4812 H 472.32 -4.38716 -3.35011 0
M  V30 4813 H 474.796 -2.46029 -3.35573 0
M  V30 4814 H 473.672 -2.87668 -4.67481 0
M  V30 4815 H 473.933 -1.19045 -4.25771 0
M  V30 4816 N 472.992 0.995999 -1.22138 0
M  V30 4817 C 474.403 1.54961 -1.04135 0
M  V30 4818 C 474.754 1.92159 0.396147 0
M  V30 4819 O 473.879 1.74435 1.28069 0
M  V30 4820 C 474.474 2.81581 -1.88408 0
M  V30 4821 C 473.033 3.33396 -1.74712 0
M  V30 4822 C 472.18 2.06509 -1.85066 0
M  V30 4823 H 475.131 0.817436 -1.36028 0
M  V30 4824 H 475.152 3.53822 -1.39966 0
M  V30 4825 H 474.664 2.54476 -2.93025 0
M  V30 4826 H 472.765 3.65416 -0.728159 0
M  V30 4827 H 472.878 4.04208 -2.57202 0
M  V30 4828 H 471.242 2.19925 -1.28472 0
M  V30 4829 H 472.025 1.81804 -2.91208 0
M  V30 4830 N 474.47 1.03057 1.19235 0
M  V30 4831 C 475.7 0.746613 1.92638 0
M  V30 4832 C 476.108 -0.698708 1.75826 0
M  V30 4833 O 475.451 -1.487 1.07861 0
M  V30 4834 C 475.513 1.02024 3.44719 0
M  V30 4835 C 475.177 2.45745 3.85303 0
M  V30 4836 C 476.174 3.43887 3.8992 0
M  V30 4837 C 473.859 2.8019 4.16892 0
M  V30 4838 C 475.853 4.74529 4.2556 0
M  V30 4839 C 473.54 4.1104 4.52205 0
M  V30 4840 C 474.538 5.0802 4.56513 0
M  V30 4841 O 474.226 6.36527 4.91008 0
M  V30 4842 H 473.958 0.272401 0.618687 0
M  V30 4843 H 476.512 1.37853 1.52269 0
M  V30 4844 H 474.742 0.331184 3.85279 0
M  V30 4845 H 476.431 0.725677 3.9936 0
M  V30 4846 H 477.197 3.18614 3.65664 0
M  V30 4847 H 473.076 2.05382 4.12722 0
M  V30 4848 H 476.62 5.50222 4.28838 0
M  V30 4849 H 472.517 4.36086 4.7592 0
M  V30 4850 H 473.285 6.41025 5.08949 0
M  V30 4851 N 475.948 -1.35272 0.808662 0
M  V30 4852 C 477.364 -1.51806 0.492653 0
M  V30 4853 C 477.564 -1.7574 -0.985778 0
M  V30 4854 O 476.62 -1.80003 -1.77074 0
M  V30 4855 C 477.933 -2.69202 1.33981 0
M  V30 4856 C 479.481 -2.8308 1.33547 0
M  V30 4857 C 479.956 -4.03502 2.16679 0
M  V30 4858 N 481.447 -4.10684 2.14227 0
M  V30 4859 C 482.182 -5.02984 2.75308 0
M  V30 4860 N 481.678 -6.00603 3.45323 0
M  V30 4861 N 483.471 -4.95746 2.64938 0
M  V30 4862 H 475.622 -1.17993 1.76611 0
M  V30 4863 H 477.885 -0.577476 0.751814 0
M  V30 4864 H 477.591 -2.581 2.38909 0
M  V30 4865 H 477.465 -3.63854 0.994491 0
M  V30 4866 H 479.852 -2.93631 0.294036 0
M  V30 4867 H 479.933 -1.89278 1.72068 0
M  V30 4868 H 479.577 -3.93711 3.20864 0
M  V30 4869 H 479.507 -4.96489 1.75517 0
M  V30 4870 H 481.998 -3.40802 1.63285 0
M  V30 4871 H 482.311 -6.67633 3.89212 0
M  V30 4872 H 480.656 -6.0077 3.49428 0
M  V30 4873 H 483.847 -4.18439 2.09825 0
M  V30 4874 H 484.02 -5.67487 3.12829 0
M  V30 4875 N 477.426 -0.562348 -1.47226 0
M  V30 4876 C 478.674 -0.0401371 -2.0206 0
M  V30 4877 C 478.995 1.3165 -1.43852 0
M  V30 4878 O 478.265 1.85976 -0.615599 0
M  V30 4879 H 476.845 -0.0118479 -0.746906 0
M  V30 4880 H 479.507 -0.73352 -1.8057 0
M  V30 4881 H 478.603 0.0441254 -3.12069 0
M  V30 4882 N 478.904 1.54736 -0.299062 0
M  V30 4883 C 480.153 1.99279 0.311549 0
M  V30 4884 C 480.466 1.19107 1.55154 0
M  V30 4885 O 481.672 1.53908 2.23662 0
M  V30 4886 C 480.128 3.54768 0.605632 0
M  V30 4887 C 479.736 4.43746 -0.615914 0
M  V30 4888 C 481.48 4.07841 1.17754 0
M  V30 4889 C 479.387 5.90663 -0.29509 0
M  V30 4890 H 478.317 0.744359 0.120187 0
M  V30 4891 H 480.968 1.78919 -0.407464 0
M  V30 4892 H 479.35 3.71021 1.38419 0
M  V30 4893 H 480.524 4.39267 -1.39218 0
M  V30 4894 H 478.839 4.01434 -1.10633 0
M  V30 4895 H 481.436 5.15174 1.43179 0
M  V30 4896 H 481.779 3.58324 2.11918 0
M  V30 4897 H 482.312 3.95123 0.460739 0
M  V30 4898 H 479.051 6.44325 -1.20524 0
M  V30 4899 H 478.571 5.98155 0.44394 0
M  V30 4900 H 480.25 6.46916 0.104048 0
M  V30 4901 N 480.382 0.0267497 1.57577 0
M  V30 4902 C 481.659 -0.690926 1.82991 0
M  V30 4903 C 482.039 -1.90471 0.910164 0
M  V30 4904 O 481.387 -2.28474 -0.0347985 0
M  V30 4905 C 481.597 -1.07139 3.32148 0
M  V30 4906 C 482.945 -1.46402 3.98562 0
M  V30 4907 O 483.969 -1.16443 3.36629 0
M  V30 4908 O 482.828 -2.02214 5.07712 0
M  V30 4909 H 479.922 -0.338747 0.75444 0
M  V30 4910 H 482.468 0.0542506 1.69613 0
M  V30 4911 H 481.24 -0.207394 3.9075 0
M  V30 4912 H 480.863 -1.87481 3.50623 0
M  V30 4913 N 481.861 -1.55662 -0.24637 0
M  V30 4914 C 483.101 -1.79283 -0.981685 0
M  V30 4915 C 483.465 -0.596356 -1.82504 0
M  V30 4916 O 484.666 -0.711342 -2.59217 0
M  V30 4917 C 482.937 -3.07648 -1.819 0
M  V30 4918 S 484.496 -3.52491 -2.61334 0
M  V30 4919 H 481.314 -0.629676 -0.330196 0
M  V30 4920 H 483.916 -1.93901 -0.249498 0
M  V30 4921 H 482.62 -3.92794 -1.18915 0
M  V30 4922 H 482.151 -2.95768 -2.59393 0
M  V30 4923 H 484.166 -3.13866 -3.84321 0
M  V30 4924 N 483.339 0.512053 -1.4905 0
M  V30 4925 C 484.269 1.62365 -1.67809 0
M  V30 4926 C 485.25 1.61737 -0.526809 0
M  V30 4927 O 486.435 1.78651 -0.761404 0
M  V30 4928 C 483.565 3.00895 -1.73435 0
M  V30 4929 C 482.519 3.16387 -2.88242 0
M  V30 4930 C 481.845 4.56157 -2.78971 0
M  V30 4931 C 483.145 2.97457 -4.29321 0
M  V30 4932 H 484.839 1.46921 -2.60873 0
M  V30 4933 H 482.385 0.705379 -1.2554 0
M  V30 4934 H 484.338 3.78549 -1.85145 0
M  V30 4935 H 483.062 3.17403 -0.769619 0
M  V30 4936 H 481.721 2.41155 -2.76116 0
M  V30 4937 H 481.369 4.69525 -1.8043 0
M  V30 4938 H 481.069 4.67465 -3.5602 0
M  V30 4939 H 482.593 5.35886 -2.92675 0
M  V30 4940 H 484.007 3.64888 -4.42187 0
M  V30 4941 H 482.404 3.20245 -5.07507 0
M  V30 4942 H 483.474 1.93692 -4.44535 0
M  V30 4943 N 484.817 1.37938 0.762283 0
M  V30 4944 C 485.78 1.34279 1.85747 0
M  V30 4945 C 486.78 0.244969 1.58923 0
M  V30 4946 O 487.97 0.501365 1.66829 0
M  V30 4947 C 485.102 1.08833 3.23061 0
M  V30 4948 H 486.295 2.31705 1.90401 0
M  V30 4949 H 483.848 1.23105 0.963057 0
M  V30 4950 H 484.583 0.119767 3.24079 0
M  V30 4951 H 484.368 1.88306 3.43923 0
M  V30 4952 H 485.858 1.08946 4.03138 0
M  V30 4953 N 486.295 -0.989507 1.22664 0
M  V30 4954 C 487.541 -1.7321 1.05481 0
M  V30 4955 C 487.874 -1.89852 -0.408635 0
M  V30 4956 O 487.149 -1.44416 -1.30285 0
M  V30 4957 C 487.432 -3.1357 1.77047 0
M  V30 4958 C 487.285 -3.04555 3.31008 0
M  V30 4959 C 488.604 -4.12812 1.5256 0
M  V30 4960 H 485.723 -0.628697 0.384589 0
M  V30 4961 H 488.365 -1.15258 1.51049 0
M  V30 4962 H 486.515 -3.63046 1.3831 0
M  V30 4963 H 488.187 -2.62674 3.7921 0
M  V30 4964 H 486.43 -2.41278 3.6051 0
M  V30 4965 H 487.101 -4.03894 3.76263 0
M  V30 4966 H 489.577 -3.72106 1.86215 0
M  V30 4967 H 488.453 -5.09132 2.05124 0
M  V30 4968 H 488.714 -4.39711 0.458936 0
M  V30 4969 N 487.773 -1.03688 -1.18687 0
M  V30 4970 C 488.736 -0.629115 -2.20397 0
M  V30 4971 C 489.736 0.311495 -1.57754 0
M  V30 4972 O 490.926 0.0974107 -1.73927 0
M  V30 4973 C 488.058 0.0782231 -3.4081 0
M  V30 4974 H 489.251 -1.52915 -2.57987 0
M  V30 4975 H 486.804 -0.828988 -1.32505 0
M  V30 4976 H 487.539 0.992233 -3.08748 0
M  V30 4977 H 487.324 -0.597776 -3.87517 0
M  V30 4978 H 488.814 0.350156 -4.16129 0
M  V30 4979 N 489.251 1.34841 -0.815825 0
M  V30 4980 C 490.481 2.02436 -0.412695 0
M  V30 4981 C 490.889 1.61604 0.983906 0
M  V30 4982 O 490.232 0.813729 1.64694 0
M  V30 4983 C 490.294 3.56953 -0.427182 0
M  V30 4984 C 489.958 4.21083 -1.77589 0
M  V30 4985 C 490.955 4.42107 -2.73564 0
M  V30 4986 C 488.64 4.58006 -2.06243 0
M  V30 4987 C 490.634 4.99169 -3.9637 0
M  V30 4988 C 488.321 5.1478 -3.2931 0
M  V30 4989 C 489.319 5.35304 -4.24191 0
M  V30 4990 O 489.007 5.90878 -5.45086 0
M  V30 4991 H 488.739 0.655631 -0.164695 0
M  V30 4992 H 491.293 1.73246 -1.1034 0
M  V30 4993 H 489.523 3.85372 0.320175 0
M  V30 4994 H 491.212 4.05875 -0.0450875 0
M  V30 4995 H 491.978 4.13953 -2.52721 0
M  V30 4996 H 487.857 4.41339 -1.33196 0
M  V30 4997 H 491.401 5.15105 -4.70439 0
M  V30 4998 H 487.298 5.42362 -3.5002 0
M  V30 4999 H 488.066 6.0932 -5.46508 0
M  V30 5000 N 490.729 0.570148 1.46925 0
M  V30 5001 C 491.977 0.0508523 2.02036 0
M  V30 5002 C 492.298 -1.30885 1.44548 0
M  V30 5003 O 491.568 -1.85647 0.625453 0
M  V30 5004 H 490.148 0.0158088 0.746833 0
M  V30 5005 H 492.81 0.743086 1.80178 0
M  V30 5006 H 491.906 -0.027575 3.12088 0
M  V30 5007 N 492.207 -1.54576 0.307264 0
M  V30 5008 C 493.453 -2.0056 -0.300612 0
M  V30 5009 C 493.786 -1.1953 -1.53057 0
M  V30 5010 O 493.061 -0.27337 -1.92569 0
M  V30 5011 C 493.344 -3.54167 -0.650987 0
M  V30 5012 C 493.197 -4.45933 0.588539 0
M  V30 5013 C 494.516 -4.14645 -1.47506 0
M  V30 5014 H 491.635 -0.729075 -0.107788 0
M  V30 5015 H 494.277 -1.85286 0.420606 0
M  V30 5016 H 492.427 -3.67313 -1.26544 0
M  V30 5017 H 494.099 -4.44683 1.22697 0
M  V30 5018 H 492.342 -4.16274 1.22058 0
M  V30 5019 H 493.013 -5.51189 0.299153 0
M  V30 5020 H 495.489 -4.04973 -0.955821 0
M  V30 5021 H 494.365 -5.22269 -1.68899 0
M  V30 5022 H 494.626 -3.66921 -2.4662 0
M  V30 5023 N 493.685 -0.035106 -1.57561 0
M  V30 5024 C 494.648 0.929819 -2.09492 0
M  V30 5025 C 495.648 1.25026 -1.01119 0
M  V30 5026 O 496.838 1.18961 -1.27255 0
M  V30 5027 C 493.97 2.24457 -2.56577 0
M  V30 5028 H 495.163 0.479935 -2.96035 0
M  V30 5029 H 492.716 0.213033 -1.54841 0
M  V30 5030 H 493.451 2.74061 -1.73382 0
M  V30 5031 H 493.236 2.02508 -3.35757 0
M  V30 5032 H 494.726 2.93607 -2.96959 0
M  V30 5033 N 495.163 1.55791 0.238111 0
M  V30 5034 C 496.409 1.78297 0.966337 0
M  V30 5035 C 496.742 0.601903 1.84637 0
M  V30 5036 O 496.017 -0.399499 1.90353 0
M  V30 5037 C 496.3 3.10758 1.81939 0
M  V30 5038 C 496.153 4.39283 0.966958 0
M  V30 5039 C 497.472 3.39519 2.80027 0
M  V30 5040 H 494.591 0.648654 0.349882 0
M  V30 5041 H 497.233 1.88525 0.236253 0
M  V30 5042 H 495.383 3.02168 2.44185 0
M  V30 5043 H 497.055 4.59873 0.362514 0
M  V30 5044 H 495.298 4.32948 0.271669 0
M  V30 5045 H 495.969 5.28368 1.59784 0
M  V30 5046 H 498.445 3.48128 2.27917 0
M  V30 5047 H 497.321 4.33402 3.36829 0
M  V30 5048 H 497.582 2.60864 3.56934 0
M  V30 5049 N 496.642 -0.504142 1.49319 0
M  V30 5050 C 497.59 -1.62689 1.66238 0
M  V30 5051 C 498.584 -1.6095 0.528349 0
M  V30 5052 O 499.79 -1.65496 0.707887 0
M  V30 5053 H 496.165 -0.539247 0.524134 0
M  V30 5054 H 498.136 -1.45571 2.60484 0
M  V30 5055 C 496.885 -3.00841 1.74328 0
M  V30 5056 H 496.208 -3.02884 2.60963 0
M  V30 5057 H 497.648 -3.78945 1.90202 0
M  V30 5058 C 496.107 -3.33355 0.487416 0
M  V30 5059 O 496.637 -3.99819 -0.388294 0
M  V30 5060 N 494.843 -2.88469 0.351306 0
M  V30 5061 H 494.39 -2.34557 1.06492 0
M  V30 5062 H 494.348 -3.10591 -0.487899 0
M  V30 5063 N 498.12 -1.38341 -0.754957 0
M  V30 5064 C 499.067 -1.3546 -1.86867 0
M  V30 5065 C 500.037 -0.217369 -1.64672 0
M  V30 5066 O 501.222 -0.409383 -1.86356 0
M  V30 5067 C 498.362 -1.18413 -3.24149 0
M  V30 5068 C 497.475 -2.41511 -3.58185 0
M  V30 5069 C 496.61 -2.17205 -4.84763 0
M  V30 5070 C 495.649 -3.36081 -5.11582 0
M  V30 5071 N 494.786 -3.11219 -6.29354 0
M  V30 5072 H 499.626 -2.30672 -1.88664 0
M  V30 5073 H 497.163 -1.14607 -0.922154 0
M  V30 5074 H 499.121 -1.06545 -4.03366 0
M  V30 5075 H 497.751 -0.268397 -3.21682 0
M  V30 5076 H 496.803 -2.64056 -2.73822 0
M  V30 5077 H 498.115 -3.30115 -3.73932 0
M  V30 5078 H 497.269 -2.02465 -5.7192 0
M  V30 5079 H 496.008 -1.25964 -4.71152 0
M  V30 5080 H 495.013 -3.51341 -4.22894 0
M  V30 5081 H 496.238 -4.28196 -5.27091 0
M  V30 5082 H 494.184 -2.22624 -6.17069 0
M  V30 5083 H 494.101 -3.93373 -6.45596 0
M  V30 5084 H 495.369 -3.00132 -7.19403 0
M  V30 5085 N 499.598 0.982988 -1.23187 0
M  V30 5086 C 500.528 2.09301 -1.03515 0
M  V30 5087 C 501.509 1.70035 0.0471136 0
M  V30 5088 O 502.694 1.93847 -0.117029 0
M  V30 5089 C 499.824 3.4167 -0.622791 0
M  V30 5090 C 498.778 3.94828 -1.65211 0
M  V30 5091 C 498.104 5.23362 -1.09527 0
M  V30 5092 C 499.404 4.2439 -3.04451 0
M  V30 5093 H 501.098 2.26016 -1.96359 0
M  V30 5094 H 498.644 1.08611 -0.945501 0
M  V30 5095 H 500.597 4.18746 -0.472233 0
M  V30 5096 H 499.321 3.24811 0.341329 0
M  V30 5097 H 497.98 3.19895 -1.79061 0
M  V30 5098 H 497.628 5.02852 -0.122211 0
M  V30 5099 H 497.328 5.59895 -1.783 0
M  V30 5100 H 498.852 6.03062 -0.956511 0
M  V30 5101 H 500.266 4.92225 -2.93917 0
M  V30 5102 H 498.663 4.72118 -3.70438 0
M  V30 5103 H 499.733 3.31765 -3.53638 0
M  V30 5104 N 501.076 1.04316 1.18135 0
M  V30 5105 C 502.304 0.768117 1.92113 0
M  V30 5106 C 502.719 -0.675057 1.76319 0
M  V30 5107 O 502.076 -1.46038 1.09449 0
M  V30 5108 C 502.127 1.12808 3.43448 0
M  V30 5109 O 501.848 2.5146 3.58747 0
M  V30 5110 C 503.349 0.8779 4.3452 0
M  V30 5111 H 500.569 0.279937 0.609817 0
M  V30 5112 H 503.113 1.39149 1.49859 0
M  V30 5113 H 501.268 0.549623 3.83481 0
M  V30 5114 H 501.682 2.65313 4.52448 0
M  V30 5115 H 503.156 1.17959 5.39249 0
M  V30 5116 H 503.633 -0.187239 4.38801 0
M  V30 5117 H 504.239 1.43977 4.00188 0
M  V30 5118 N 502.554 -1.34406 0.822964 0
M  V30 5119 C 503.484 -2.32052 0.259608 0
M  V30 5120 C 504.465 -1.58243 -0.623961 0
M  V30 5121 O 505.65 -1.86224 -0.55083 0
M  V30 5122 C 502.78 -3.42434 -0.579314 0
M  V30 5123 C 501.734 -4.27499 0.20712 0
M  V30 5124 C 501.06 -5.29349 -0.754547 0
M  V30 5125 C 502.36 -5.02758 1.41533 0
M  V30 5126 H 504.054 -2.79418 1.07545 0
M  V30 5127 H 501.6 -1.34338 0.518593 0
M  V30 5128 H 503.553 -4.0976 -0.983612 0
M  V30 5129 H 502.277 -2.93717 -1.4282 0
M  V30 5130 H 500.936 -3.61776 0.592787 0
M  V30 5131 H 500.584 -4.76895 -1.59939 0
M  V30 5132 H 500.284 -5.8714 -0.232561 0
M  V30 5133 H 501.808 -5.99544 -1.1567 0
M  V30 5134 H 503.222 -5.62938 1.08504 0
M  V30 5135 H 501.619 -5.70123 1.87296 0
M  V30 5136 H 502.689 -4.32451 2.1935 0
M  V30 5137 N 504.032 -0.577932 -1.46621 0
M  V30 5138 C 505.443 -0.150071 -1.86096 0
M  V30 5139 C 505.794 1.28563 -1.48209 0
M  V30 5140 O 504.919 1.97036 -0.894754 0
M  V30 5141 C 505.514 -0.265576 -3.37758 0
M  V30 5142 C 504.073 0.10738 -3.76247 0
M  V30 5143 C 503.22 -0.603711 -2.70649 0
M  V30 5144 H 506.171 -0.786438 -1.37844 0
M  V30 5145 H 506.192 0.510352 -3.77062 0
M  V30 5146 H 505.704 -1.3106 -3.65301 0
M  V30 5147 H 503.805 1.15272 -3.54321 0
M  V30 5148 H 503.918 -0.26561 -4.78363 0
M  V30 5149 H 502.282 -0.0444884 -2.54661 0
M  V30 5150 H 503.065 -1.65029 -3.01032 0
M  V30 5151 N 505.51 1.54411 -0.315457 0
M  V30 5152 C 506.759 1.99599 0.290395 0
M  V30 5153 C 507.072 1.20746 1.53882 0
M  V30 5154 O 508.278 1.56272 2.22017 0
M  V30 5155 C 506.734 3.5539 0.56797 0
M  V30 5156 C 506.342 4.43068 -0.662945 0
M  V30 5157 C 508.086 4.09067 1.13422 0
M  V30 5158 C 505.993 5.90317 -0.357722 0
M  V30 5159 H 504.923 0.745592 0.112286 0
M  V30 5160 H 507.574 1.78477 -0.426418 0
M  V30 5161 H 505.956 3.72468 1.34476 0
M  V30 5162 H 507.13 4.37765 -1.43869 0
M  V30 5163 H 505.445 4.00238 -1.14884 0
M  V30 5164 H 508.042 5.16663 1.37707 0
M  V30 5165 H 508.385 3.60552 2.08106 0
M  V30 5166 H 508.918 3.95589 0.418805 0
M  V30 5167 H 505.657 6.4301 -1.27351 0
M  V30 5168 H 505.177 5.98592 0.380472 0
M  V30 5169 H 506.856 6.4699 0.0354284 0
M  V30 5170 N 506.988 0.0434614 1.5754 0
M  V30 5171 C 508.399 -0.493343 1.80064 0
M  V30 5172 C 508.75 -1.71388 0.955023 0
M  V30 5173 O 507.875 -2.15736 0.169434 0
M  V30 5174 C 508.47 -0.90179 3.26578 0
M  V30 5175 C 507.029 -1.38362 3.50047 0
M  V30 5176 C 506.176 -0.355129 2.75017 0
M  V30 5177 H 509.127 0.2694 1.56397 0
M  V30 5178 H 509.148 -1.76523 3.37075 0
M  V30 5179 H 508.66 -0.013271 3.88098 0
M  V30 5180 H 506.761 -2.29159 2.93798 0
M  V30 5181 H 506.874 -1.3811 4.58762 0
M  V30 5182 H 505.238 -0.826348 2.40922 0
M  V30 5183 H 506.021 0.525172 3.39259 0
M  V30 5184 N 508.466 -1.55915 -0.229846 0
M  V30 5185 C 509.691 -1.8296 -0.976743 0
M  V30 5186 C 510.116 -0.622735 -1.77493 0
M  V30 5187 O 509.474 0.428431 -1.76165 0
M  V30 5188 C 509.522 -3.07916 -1.8767 0
M  V30 5189 O 508.626 -2.86028 -2.97088 0
M  V30 5190 H 507.967 -0.603453 -0.277021 0
M  V30 5191 H 510.497 -2.0312 -0.245669 0
M  V30 5192 H 510.507 -3.37802 -2.2881 0
M  V30 5193 H 509.182 -3.95389 -1.28996 0
M  V30 5194 H 507.759 -2.67355 -2.59954 0
M  V30 5195 N 509.944 0.496216 -1.49584 0
M  V30 5196 C 511.172 1.27394 -1.63029 0
M  V30 5197 C 511.587 1.86344 -0.303569 0
M  V30 5198 O 510.944 1.68057 0.711547 0
M  V30 5199 C 510.995 2.40077 -2.70269 0
M  V30 5200 O 510.716 1.83549 -3.97796 0
M  V30 5201 C 512.217 3.31372 -2.94462 0
M  V30 5202 H 509.437 0.386211 -0.54871 0
M  V30 5203 H 511.981 0.595163 -1.95648 0
M  V30 5204 H 510.136 3.03775 -2.40415 0
M  V30 5205 H 510.55 2.57561 -4.56905 0
M  V30 5206 H 512.024 4.06707 -3.73221 0
M  V30 5207 H 512.501 3.88654 -2.0456 0
M  V30 5208 H 513.107 2.73435 -3.25751 0
M  V30 5209 N 511.423 1.38739 0.74761 0
M  V30 5210 C 512.663 1.36695 1.51966 0
M  V30 5211 C 513.027 -0.0411889 1.91956 0
M  V30 5212 O 514.228 -0.186543 2.68152 0
M  V30 5213 C 512.499 2.30119 2.73459 0
M  V30 5214 S 514.058 2.4615 3.63257 0
M  V30 5215 H 510.876 0.484929 0.519966 0
M  V30 5216 H 513.478 1.7472 0.877104 0
M  V30 5217 H 512.182 3.31312 2.422 0
M  V30 5218 H 511.713 1.93265 3.42655 0
M  V30 5219 H 513.728 1.69001 4.66533 0
M  V30 5220 N 512.901 -0.976442 1.23707 0
M  V30 5221 C 514.312 -1.53284 1.06587 0
M  V30 5222 C 514.663 -1.92765 -0.365526 0
M  V30 5223 O 513.788 -1.7645 -1.25277 0
M  V30 5224 C 514.383 -2.78548 1.92864 0
M  V30 5225 C 512.942 -3.30574 1.79994 0
M  V30 5226 C 512.089 -2.03538 1.88328 0
M  V30 5227 H 515.04 -0.795692 1.37311 0
M  V30 5228 H 515.061 -3.5155 1.45577 0
M  V30 5229 H 514.573 -2.49782 2.97037 0
M  V30 5230 H 512.674 -3.64211 0.786202 0
M  V30 5231 H 512.787 -4.00065 2.636 0
M  V30 5232 H 511.151 -2.17853 1.31954 0
M  V30 5233 H 511.934 -1.77149 2.94063 0
M  V30 5234 N 514.379 -1.04941 -1.1758 0
M  V30 5235 C 515.289 -0.658826 -2.25159 0
M  V30 5236 C 516.305 0.318941 -1.71052 0
M  V30 5237 O 517.481 0.171669 -2.00667 0
M  V30 5238 C 514.546 -0.0369522 -3.4668 0
M  V30 5239 C 513.607 -1.06484 -4.15884 0
M  V30 5240 C 512.84 -0.472551 -5.31604 0
M  V30 5241 O 513.063 0.718736 -5.65854 0
M  V30 5242 O 511.997 -1.20557 -5.89703 0
M  V30 5243 H 515.823 -1.55533 -2.60851 0
M  V30 5244 H 513.408 -0.820819 -1.24832 0
M  V30 5245 H 515.29 0.308784 -4.20267 0
M  V30 5246 H 513.965 0.833238 -3.12792 0
M  V30 5247 H 512.872 -1.46253 -3.44327 0
M  V30 5248 H 514.205 -1.9061 -4.53794 0
M  V30 5249 N 515.857 1.33968 -0.830081 0
M  V30 5250 C 517.268 1.80439 -0.479455 0
M  V30 5251 C 517.619 1.68756 1.00079 0
M  V30 5252 O 516.744 1.23171 1.77927 0
M  V30 5253 C 517.339 3.27611 -0.863505 0
M  V30 5254 C 515.898 3.72133 -0.565145 0
M  V30 5255 C 515.045 2.55549 -1.07657 0
M  V30 5256 H 517.996 1.21614 -1.0196 0
M  V30 5257 H 518.017 3.8012 -0.170083 0
M  V30 5258 H 517.529 3.36082 -1.94089 0
M  V30 5259 H 515.63 3.69196 0.502536 0
M  V30 5260 H 515.743 4.65963 -1.11422 0
M  V30 5261 H 514.107 2.49788 -0.497807 0
M  V30 5262 H 514.89 2.66786 -2.16055 0
M  V30 5263 N 517.335 0.585699 1.46312 0
M  V30 5264 C 518.582 0.0724211 2.0237 0
M  V30 5265 C 518.91 -1.28868 1.45683 0
M  V30 5266 O 518.165 -1.85853 0.612945 0
M  V30 5267 C 518.464 -0.0401312 3.57377 0
M  V30 5268 C 518.13 1.25376 4.33119 0
M  V30 5269 C 516.792 1.60824 4.5353 0
M  V30 5270 C 519.144 2.10987 4.76586 0
M  V30 5271 C 516.472 2.81676 5.14661 0
M  V30 5272 C 518.824 3.31068 5.39052 0
M  V30 5273 C 517.488 3.66794 5.5769 0
M  V30 5274 H 516.758 0.0265007 0.740526 0
M  V30 5275 H 519.405 0.762935 1.75646 0
M  V30 5276 H 517.71 -0.813791 3.83255 0
M  V30 5277 H 519.407 -0.453078 3.98432 0
M  V30 5278 H 515.997 0.967808 4.1753 0
M  V30 5279 H 520.181 1.84904 4.60569 0
M  V30 5280 H 515.437 3.0949 5.27282 0
M  V30 5281 H 519.611 3.97672 5.71691 0
M  V30 5282 H 517.238 4.60529 6.04828 0
M  V30 5283 N 518.813 -1.54241 0.323641 0
M  V30 5284 C 519.776 -2.22997 -0.529602 0
M  V30 5285 C 520.776 -1.22345 -1.04347 0
M  V30 5286 O 521.966 -1.46924 -0.935889 0
M  V30 5287 C 519.098 -2.93409 -1.73562 0
M  V30 5288 H 520.291 -2.99815 0.0714518 0
M  V30 5289 H 517.844 -1.56121 0.0747258 0
M  V30 5290 H 518.579 -2.20729 -2.37591 0
M  V30 5291 H 518.364 -3.67217 -1.37456 0
M  V30 5292 H 519.854 -3.45794 -2.34128 0
M  V30 5293 N 520.291 -0.0518155 -1.57515 0
M  V30 5294 C 521.223 0.951542 -2.08515 0
M  V30 5295 C 522.236 1.27436 -1.01311 0
M  V30 5296 O 523.425 1.23504 -1.28876 0
M  V30 5297 C 520.525 2.27291 -2.5138 0
M  V30 5298 C 519.698 2.13191 -3.81927 0
M  V30 5299 C 518.757 3.28458 -4.11098 0
M  V30 5300 O 517.783 3.04334 -4.81009 0
M  V30 5301 N 518.985 4.52954 -3.63061 0
M  V30 5302 H 521.75 0.516242 -2.9522 0
M  V30 5303 H 519.311 0.13441 -1.61341 0
M  V30 5304 H 521.303 3.03272 -2.67971 0
M  V30 5305 H 519.873 2.62386 -1.69919 0
M  V30 5306 H 519.093 1.21798 -3.74912 0
M  V30 5307 H 520.381 2.00999 -4.67415 0
M  V30 5308 H 519.779 4.75444 -3.06545 0
M  V30 5309 H 518.336 5.26026 -3.84889 0
M  V30 5310 N 521.769 1.56035 0.221574 0
M  V30 5311 C 522.699 1.95434 1.2778 0
M  V30 5312 C 523.68 0.822564 1.48889 0
M  V30 5313 O 524.865 1.08486 1.61072 0
M  V30 5314 C 521.995 2.27102 2.62759 0
M  V30 5315 C 520.949 3.4277 2.56306 0
M  V30 5316 C 520.275 3.60043 3.95314 0
M  V30 5317 C 521.575 4.77742 2.11093 0
M  V30 5318 H 523.269 2.83912 0.950504 0
M  V30 5319 H 520.815 1.36596 0.455791 0
M  V30 5320 H 522.768 2.53256 3.36807 0
M  V30 5321 H 521.492 1.35478 2.97176 0
M  V30 5322 H 520.151 3.16664 1.84715 0
M  V30 5323 H 519.799 2.65794 4.27039 0
M  V30 5324 H 519.499 4.37841 3.91879 0
M  V30 5325 H 521.023 3.88545 4.71025 0
M  V30 5326 H 522.437 5.03102 2.74885 0
M  V30 5327 H 520.834 5.58823 2.18716 0
M  V30 5328 H 521.904 4.731 1.06321 0
M  V30 5329 N 523.247 -0.488276 1.49845 0
M  V30 5330 C 524.18 -1.60651 1.62069 0
M  V30 5331 C 525.158 -1.5568 0.469308 0
M  V30 5332 O 526.342 -1.75553 0.686551 0
M  V30 5333 C 523.469 -2.99197 1.58741 0
M  V30 5334 C 522.515 -3.22385 2.79232 0
M  V30 5335 S 523.348 -3.04133 4.40753 0
M  V30 5336 C 524.504 -4.45052 4.4009 0
M  V30 5337 H 524.737 -1.50039 2.56662 0
M  V30 5338 H 522.27 -0.674371 1.38894 0
M  V30 5339 H 524.228 -3.79081 1.57506 0
M  V30 5340 H 522.889 -3.07213 0.654136 0
M  V30 5341 H 522.082 -4.23557 2.73159 0
M  V30 5342 H 521.684 -2.50245 2.77945 0
M  V30 5343 H 523.976 -5.37375 4.12594 0
M  V30 5344 H 524.919 -4.56172 5.41583 0
M  V30 5345 H 525.327 -4.26327 3.70008 0
M  V30 5346 N 524.725 -1.39134 -0.740242 0
M  V30 5347 C 525.688 -1.37217 -1.83587 0
M  V30 5348 C 526.688 -0.270221 -1.58513 0
M  V30 5349 O 527.878 -0.527843 -1.6601 0
M  V30 5350 C 525.01 -1.13959 -3.21288 0
M  V30 5351 H 526.203 -2.34705 -1.86691 0
M  V30 5352 H 523.756 -1.24622 -0.94335 0
M  V30 5353 H 524.491 -0.17131 -3.23847 0
M  V30 5354 H 524.276 -1.93754 -3.40884 0
M  V30 5355 H 525.766 -1.15346 -4.01354 0
M  V30 5356 N 526.204 0.969867 -1.24223 0
M  V30 5357 C 527.481 1.68774 -0.988664 0
M  V30 5358 C 527.861 2.05342 0.489673 0
M  V30 5359 O 527.209 1.75486 1.46345 0
M  V30 5360 C 527.419 2.92135 -1.90941 0
M  V30 5361 C 528.767 3.64422 -2.17903 0
M  V30 5362 O 529.791 3.02188 -1.88576 0
M  V30 5363 O 528.65 4.76446 -2.67697 0
M  V30 5364 H 525.744 0.737736 -0.37373 0
M  V30 5365 H 528.29 1.02415 -1.35312 0
M  V30 5366 H 527.062 2.61788 -2.90831 0
M  V30 5367 H 526.685 3.66228 -1.54798 0
M  V30 5368 N 527.682 1.05563 1.17022 0
M  V30 5369 C 528.922 0.777033 1.89054 0
M  V30 5370 C 529.286 -0.683617 1.79418 0
M  V30 5371 O 530.487 -1.07648 2.46303 0
M  V30 5372 C 528.758 1.24886 3.34871 0
M  V30 5373 S 530.317 1.0982 4.24835 0
M  V30 5374 H 527.135 0.282082 0.652649 0
M  V30 5375 H 529.737 1.35103 1.41306 0
M  V30 5376 H 528.441 2.30699 3.3942 0
M  V30 5377 H 527.972 0.669292 3.87665 0
M  V30 5378 H 529.987 0.02462 4.96194 0
M  V30 5379 N 529.16 -1.33526 0.837174 0
M  V30 5380 C 530.406 -1.98541 0.44193 0
M  V30 5381 C 530.761 -1.65124 -0.987517 0
M  V30 5382 O 530.054 -0.919948 -1.6807 0
M  V30 5383 C 530.248 -3.52367 0.597675 0
M  V30 5384 C 530.077 -4.00731 2.04071 0
M  V30 5385 C 528.847 -4.28649 2.67559 0
M  V30 5386 C 531.045 -4.17073 3.00923 0
M  V30 5387 N 529.027 -4.63142 4.02955 0
M  V30 5388 C 530.398 -4.54905 4.21261 0
M  V30 5389 C 532.453 -3.99358 2.97351 0
M  V30 5390 C 531.156 -4.76874 5.38501 0
M  V30 5391 C 533.182 -4.22501 4.1382 0
M  V30 5392 C 532.544 -4.60634 5.32912 0
M  V30 5393 H 528.643 -0.753246 0.210105 0
M  V30 5394 H 531.227 -1.61674 1.08488 0
M  V30 5395 H 529.398 -3.88397 -0.0154658 0
M  V30 5396 H 531.13 -4.04326 0.17404 0
M  V30 5397 H 527.885 -4.20077 2.18706 0
M  V30 5398 H 528.309 -4.84601 4.72748 0
M  V30 5399 H 532.951 -3.68993 2.06408 0
M  V30 5400 H 530.669 -5.06101 6.2999 0
M  V30 5401 H 534.255 -4.10316 4.12471 0
M  V30 5402 H 533.135 -4.78187 6.21536 0
M  V30 5403 N 530.638 -0.59345 -1.46 0
M  V30 5404 C 531.601 0.123538 -2.28867 0
M  V30 5405 C 532.601 0.808628 -1.38989 0
M  V30 5406 O 533.791 0.658945 -1.61256 0
M  V30 5407 C 530.923 1.1847 -3.19653 0
M  V30 5408 H 532.116 -0.604843 -2.93737 0
M  V30 5409 H 529.669 -0.351875 -1.52288 0
M  V30 5410 H 530.404 1.94431 -2.59552 0
M  V30 5411 H 530.189 0.69783 -3.8584 0
M  V30 5412 H 531.679 1.68726 -3.81997 0
M  V30 5413 N 532.116 1.54067 -0.331816 0
M  V30 5414 C 533.048 2.22139 0.564538 0
M  V30 5415 C 534.061 1.22408 1.07332 0
M  V30 5416 O 535.25 1.4883 0.985481 0
M  V30 5417 C 532.35 2.87876 1.78831 0
M  V30 5418 C 531.523 4.13817 1.41682 0
M  V30 5419 C 530.582 4.63072 2.49901 0
M  V30 5420 O 529.608 5.27562 2.13699 0
M  V30 5421 N 530.81 4.38001 3.80967 0
M  V30 5422 H 533.575 2.99694 -0.0183736 0
M  V30 5423 H 531.136 1.61153 -0.155396 0
M  V30 5424 H 533.128 3.17747 2.50637 0
M  V30 5425 H 531.698 2.13977 2.27887 0
M  V30 5426 H 530.918 3.9062 0.530044 0
M  V30 5427 H 532.206 4.95762 1.14443 0
M  V30 5428 H 531.604 3.864 4.13173 0
M  V30 5429 H 530.161 4.72507 4.48977 0
M  V30 5430 N 533.594 0.0601682 1.57485 0
M  V30 5431 C 534.871 -0.651956 1.84415 0
M  V30 5432 C 535.251 -1.88498 0.950361 0
M  V30 5433 O 534.599 -2.28496 0.0136719 0
M  V30 5434 C 534.809 -1.00069 3.34346 0
M  V30 5435 C 536.157 -1.37915 4.01578 0
M  V30 5436 O 537.181 -1.09277 3.39024 0
M  V30 5437 O 536.04 -1.91399 5.11887 0
M  V30 5438 H 533.134 -0.322668 0.761455 0
M  V30 5439 H 535.68 0.0902159 1.6946 0
M  V30 5440 H 534.452 -0.124463 3.91102 0
M  V30 5441 H 534.075 -1.80001 3.54521 0
M  V30 5442 N 535.072 -1.5615 -0.213296 0
M  V30 5443 C 536.483 -1.69645 -0.779582 0
M  V30 5444 C 536.834 -0.663615 -1.84636 0
M  V30 5445 O 535.959 0.183633 -2.15619 0
M  V30 5446 C 536.554 -3.07567 -1.42084 0
M  V30 5447 C 535.113 -3.22889 -1.93442 0
M  V30 5448 C 534.26 -2.65581 -0.797612 0
M  V30 5449 H 537.211 -1.58696 0.0114951 0
M  V30 5450 H 537.232 -3.03884 -2.28986 0
M  V30 5451 H 536.744 -3.82716 -0.644187 0
M  V30 5452 H 534.845 -2.52623 -2.73884 0
M  V30 5453 H 534.958 -4.30197 -2.10872 0
M  V30 5454 H 533.322 -2.24278 -1.20712 0
M  V30 5455 H 534.105 -3.43284 -0.033494 0
M  V30 5456 N 536.55 0.480323 -1.50102 0
M  V30 5457 C 537.5 1.57685 -1.6468 0
M  V30 5458 C 538.484 1.52878 -0.5017 0
M  V30 5459 O 539.676 1.60058 -0.755668 0
M  V30 5460 C 536.805 2.96185 -1.73578 0
M  V30 5461 C 535.891 3.0591 -2.93734 0
M  V30 5462 N 536.282 2.85471 -4.1754 0
M  V30 5463 C 534.58 3.37036 -2.92101 0
M  V30 5464 C 535.281 2.99921 -4.9842 0
M  V30 5465 N 534.257 3.29715 -4.32191 0
M  V30 5466 H 538.059 1.40568 -2.58104 0
M  V30 5467 H 535.573 0.686874 -1.47159 0
M  V30 5468 H 537.57 3.75015 -1.82124 0
M  V30 5469 H 536.23 3.14356 -0.813057 0
M  V30 5470 H 537.241 2.61235 -4.47188 0
M  V30 5471 H 533.918 3.61253 -2.09291 0
M  V30 5472 H 535.308 2.88436 -6.06839 0
M  V30 5473 N 538.028 1.39524 0.732853 0
M  V30 5474 C 539.444 1.21176 1.03868 0
M  V30 5475 C 539.644 0.0748448 2.01361 0
M  V30 5476 O 538.7 -0.57281 2.45917 0
M  V30 5477 C 540.013 2.54667 1.59892 0
M  V30 5478 C 541.561 2.6153 1.71962 0
M  V30 5479 C 542.036 3.95248 2.31394 0
M  V30 5480 N 543.527 3.96899 2.38801 0
M  V30 5481 C 544.262 4.97138 2.85729 0
M  V30 5482 N 543.758 6.07775 3.32537 0
M  V30 5483 N 545.551 4.84516 2.84957 0
M  V30 5484 H 537.702 2.12225 0.086304 0
M  V30 5485 H 539.965 0.942614 0.100907 0
M  V30 5486 H 539.671 3.38423 0.95721 0
M  V30 5487 H 539.545 2.74538 2.58668 0
M  V30 5488 H 541.932 1.78156 2.35254 0
M  V30 5489 H 542.013 2.45507 0.718327 0
M  V30 5490 H 541.657 4.79054 1.68729 0
M  V30 5491 H 541.587 4.08593 3.32204 0
M  V30 5492 H 544.078 3.16998 2.05719 0
M  V30 5493 H 544.391 6.8017 3.66862 0
M  V30 5494 H 542.736 6.11366 3.30541 0
M  V30 5495 H 545.927 3.97185 2.47713 0
M  V30 5496 H 546.1 5.62783 3.21215 0
M  V30 5497 N 539.506 -0.963266 1.24736 0
M  V30 5498 C 540.922 -1.23273 1.01371 0
M  V30 5499 C 541.122 -1.99618 -0.274776 0
M  V30 5500 O 540.178 -2.32293 -0.989769 0
M  V30 5501 C 541.491 -2.01554 2.23152 0
M  V30 5502 C 543.039 -2.14629 2.27823 0
M  V30 5503 C 543.514 -2.96307 3.49237 0
M  V30 5504 N 545.005 -3.03887 3.49581 0
M  V30 5505 C 545.74 -3.67456 4.40186 0
M  V30 5506 N 545.236 -4.32706 5.41052 0
M  V30 5507 N 547.029 -3.64511 4.27888 0
M  V30 5508 H 539.18 -0.452294 2.07528 0
M  V30 5509 H 541.443 -0.262521 0.910926 0
M  V30 5510 H 541.149 -1.52847 3.1675 0
M  V30 5511 H 541.023 -3.02278 2.25628 0
M  V30 5512 H 543.41 -2.62537 1.34753 0
M  V30 5513 H 543.491 -1.13238 2.2937 0
M  V30 5514 H 543.135 -2.49091 4.42624 0
M  V30 5515 H 543.065 -3.97905 3.44933 0
M  V30 5516 H 545.556 -2.57477 2.76611 0
M  V30 5517 H 545.869 -4.79042 6.06415 0
M  V30 5518 H 544.214 -4.31361 5.44934 0
M  V30 5519 H 547.405 -3.12715 3.4832 0
M  V30 5520 H 547.578 -4.13768 4.98698 0
M  V30 5521 N 540.985 -1.06182 -1.16461 0
M  V30 5522 C 542.396 -0.802426 -1.68576 0
M  V30 5523 C 542.747 0.67412 -1.84255 0
M  V30 5524 O 541.872 1.52303 -1.5373 0
M  V30 5525 C 542.467 -1.45002 -3.06202 0
M  V30 5526 C 541.026 -1.23843 -3.55443 0
M  V30 5527 C 540.173 -1.52724 -2.31454 0
M  V30 5528 H 543.124 -1.22545 -1.00839 0
M  V30 5529 H 543.145 -0.864731 -3.70544 0
M  V30 5530 H 542.657 -2.52466 -2.94759 0
M  V30 5531 H 540.758 -0.183487 -3.72148 0
M  V30 5532 H 540.871 -1.95036 -4.37604 0
M  V30 5533 H 539.235 -0.947726 -2.36411 0
M  V30 5534 H 540.018 -2.61343 -2.22609 0
M  V30 5535 N 542.463 1.3308 -0.844243 0
M  V30 5536 C 543.74 1.92178 -0.364261 0
M  V30 5537 C 544.12 1.76961 1.15101 0
M  V30 5538 O 543.468 1.16128 1.9679 0
M  V30 5539 C 543.678 3.393 -0.817106 0
M  V30 5540 C 545.026 4.16444 -0.828236 0
M  V30 5541 O 546.05 3.47975 -0.761062 0
M  V30 5542 O 544.909 5.38685 -0.920926 0
M  V30 5543 H 542.003 0.820411 -0.10419 0
M  V30 5544 H 544.549 1.41918 -0.930453 0
M  V30 5545 H 543.321 3.44272 -1.85991 0
M  V30 5546 H 542.944 3.96947 -0.227785 0
M  V30 5547 N 543.941 0.601185 1.45683 0
M  V30 5548 C 545.188 0.0938811 2.02282 0
M  V30 5549 C 545.516 -1.27315 1.47041 0
M  V30 5550 O 544.771 -1.85193 0.632623 0
M  V30 5551 C 545.07 -0.00222425 3.574 0
M  V30 5552 C 544.736 1.29963 4.31764 0
M  V30 5553 C 543.398 1.65625 4.51798 0
M  V30 5554 C 545.75 2.1603 4.74321 0
M  V30 5555 C 543.078 2.87119 5.11644 0
M  V30 5556 C 545.43 3.36766 5.3551 0
M  V30 5557 C 544.094 3.72689 5.53768 0
M  V30 5558 H 543.364 0.0343535 0.740203 0
M  V30 5559 H 546.011 0.781522 1.74827 0
M  V30 5560 H 544.316 -0.773096 3.84097 0
M  V30 5561 H 546.013 -0.410794 3.9889 0
M  V30 5562 H 542.603 1.01204 4.1648 0
M  V30 5563 H 546.787 1.89778 4.58582 0
M  V30 5564 H 542.043 3.15065 5.2397 0
M  V30 5565 H 546.217 4.03713 5.67441 0
M  V30 5566 H 543.844 4.66918 5.99909 0
M  V30 5567 N 545.419 -1.53889 0.339982 0
M  V30 5568 C 546.382 -2.23547 -0.50592 0
M  V30 5569 C 547.382 -1.23445 -1.03044 0
M  V30 5570 O 548.572 -1.47909 -0.920253 0
M  V30 5571 C 545.704 -2.95234 -1.7044 0
M  V30 5572 H 546.897 -2.99722 0.103247 0
M  V30 5573 H 544.45 -1.56033 0.0912804 0
M  V30 5574 H 545.185 -2.23236 -2.35236 0
M  V30 5575 H 544.97 -3.68654 -1.33553 0
M  V30 5576 H 546.46 -3.48258 -2.30447 0
M  V30 5577 N 546.897 -0.0685191 -1.57451 0
M  V30 5578 C 548.122 0.613919 -1.98106 0
M  V30 5579 C 548.547 1.62551 -0.946501 0
M  V30 5580 O 547.905 1.81085 0.0882824 0
M  V30 5581 C 547.953 1.26189 -3.378 0
M  V30 5582 O 547.057 2.37773 -3.36954 0
M  V30 5583 H 546.398 0.158163 -0.644888 0
M  V30 5584 H 548.928 -0.142063 -2.04106 0
M  V30 5585 H 548.938 1.60951 -3.74912 0
M  V30 5586 H 547.613 0.520625 -4.12629 0
M  V30 5587 H 546.19 2.04829 -3.11608 0
M  V30 5588 N 548.375 1.56261 0.205012 0
M  V30 5589 C 549.624 1.79236 0.925058 0
M  V30 5590 C 549.937 0.640011 1.84833 0
M  V30 5591 O 551.143 0.753809 2.60826 0
M  V30 5592 C 549.599 3.17475 1.69522 0
M  V30 5593 C 549.207 4.40482 0.817269 0
M  V30 5594 C 550.951 3.49766 2.4055 0
M  V30 5595 C 548.858 5.69744 1.58573 0
M  V30 5596 H 547.788 0.668287 0.349153 0
M  V30 5597 H 550.439 1.82629 0.178544 0
M  V30 5598 H 548.821 3.08304 2.48526 0
M  V30 5599 H 549.995 4.60752 0.0665988 0
M  V30 5600 H 548.31 4.15827 0.218316 0
M  V30 5601 H 550.907 4.43573 2.98575 0
M  V30 5602 H 551.25 2.73041 3.14252 0
M  V30 5603 H 551.783 3.60341 1.68522 0
M  V30 5604 H 548.522 6.49407 0.891679 0
M  V30 5605 H 548.042 5.53509 2.31059 0
M  V30 5606 H 549.721 6.1051 2.14212 0
M  V30 5607 N 549.853 -0.472356 1.50355 0
M  V30 5608 C 550.783 -1.57859 1.72055 0
M  V30 5609 C 551.764 -1.60283 0.569505 0
M  V30 5610 O 552.949 -1.7657 0.808503 0
M  V30 5611 C 550.079 -2.96191 1.81351 0
M  V30 5612 C 549.033 -3.08633 2.96529 0
M  V30 5613 C 548.359 -4.486 2.90968 0
M  V30 5614 C 549.659 -2.85969 4.37057 0
M  V30 5615 H 551.353 -1.39953 2.64676 0
M  V30 5616 H 548.899 -0.671846 1.27367 0
M  V30 5617 H 550.852 -3.73507 1.95117 0
M  V30 5618 H 549.576 -3.15251 0.853502 0
M  V30 5619 H 548.235 -2.33749 2.82413 0
M  V30 5620 H 547.883 -4.64577 1.92815 0
M  V30 5621 H 547.583 -4.57861 3.68289 0
M  V30 5622 H 549.107 -5.27938 3.0678 0
M  V30 5623 H 550.521 -3.53036 4.51706 0
M  V30 5624 H 548.918 -3.06677 5.15819 0
M  V30 5625 H 549.988 -1.81838 4.49514 0
M  V30 5626 N 551.331 -1.39911 -0.725443 0
M  V30 5627 C 552.263 -1.35301 -1.85003 0
M  V30 5628 C 553.276 -0.260102 -1.60709 0
M  V30 5629 O 554.465 -0.519749 -1.70766 0
M  V30 5630 C 551.565 -1.08039 -3.21218 0
M  V30 5631 C 550.738 -2.28793 -3.7279 0
M  V30 5632 C 549.797 -1.97841 -4.87591 0
M  V30 5633 O 548.823 -2.70616 -5.00755 0
M  V30 5634 N 550.025 -0.950367 -5.72668 0
M  V30 5635 H 552.79 -2.32218 -1.89459 0
M  V30 5636 H 550.351 -1.34137 -0.90658 0
M  V30 5637 H 552.343 -0.853354 -3.95601 0
M  V30 5638 H 550.913 -0.198229 -3.11971 0
M  V30 5639 H 550.133 -2.67388 -2.8965 0
M  V30 5640 H 551.421 -3.09317 -4.03981 0
M  V30 5641 H 550.819 -0.347436 -5.64632 0
M  V30 5642 H 549.376 -0.783232 -6.47077 0
M  V30 5643 N 552.809 0.956637 -1.25245 0
M  V30 5644 C 553.741 2.05628 -1.01242 0
M  V30 5645 C 554.754 1.62785 0.0219579 0
M  V30 5646 O 555.943 1.77184 -0.216365 0
M  V30 5647 C 553.043 3.35069 -0.508161 0
M  V30 5648 C 552.216 4.06761 -1.60823 0
M  V30 5649 C 551.275 5.14473 -1.1047 0
M  V30 5650 O 550.301 5.40033 -1.79868 0
M  V30 5651 N 551.503 5.80474 0.0550773 0
M  V30 5652 H 554.268 2.2679 -1.95925 0
M  V30 5653 H 551.829 1.12505 -1.16423 0
M  V30 5654 H 553.821 4.044 -0.155819 0
M  V30 5655 H 552.391 3.10694 0.344683 0
M  V30 5656 H 551.611 3.31555 -2.13224 0
M  V30 5657 H 552.899 4.51418 -2.34733 0
M  V30 5658 H 552.297 5.62125 0.635004 0
M  V30 5659 H 550.854 6.50868 0.348469 0
M  V30 5660 N 554.287 1.06798 1.15896 0
M  V30 5661 C 555.217 0.704677 2.22613 0
M  V30 5662 C 556.198 -0.305252 1.67339 0
M  V30 5663 O 557.383 -0.179247 1.93371 0
M  V30 5664 C 554.513 0.0957325 3.47168 0
M  V30 5665 C 553.467 1.0322 4.15367 0
M  V30 5666 C 552.793 0.286293 5.33933 0
M  V30 5667 C 554.093 2.36341 4.65768 0
M  V30 5668 H 555.787 1.59688 2.53259 0
M  V30 5669 H 553.333 0.769257 1.21731 0
M  V30 5670 H 555.286 -0.170333 4.21056 0
M  V30 5671 H 554.01 -0.831516 3.15838 0
M  V30 5672 H 552.669 1.28309 3.43413 0
M  V30 5673 H 552.317 -0.644237 4.98857 0
M  V30 5674 H 552.017 0.910436 5.80504 0
M  V30 5675 H 553.541 0.0278938 6.10594 0
M  V30 5676 H 554.955 2.1561 5.31211 0
M  V30 5677 H 553.352 2.94299 5.2298 0
M  V30 5678 H 554.422 2.99047 3.81705 0
M  V30 5679 N 555.766 -1.3263 0.851289 0
M  V30 5680 C 556.676 -2.32722 0.296268 0
M  V30 5681 C 557.692 -1.63901 -0.584162 0
M  V30 5682 O 558.868 -1.95465 -0.485334 0
M  V30 5683 C 555.933 -3.42942 -0.509103 0
M  V30 5684 C 554.994 -4.2746 0.397069 0
M  V30 5685 C 554.227 -5.32416 -0.36996 0
M  V30 5686 O 554.45 -5.47491 -1.6003 0
M  V30 5687 O 553.384 -6.01327 0.262493 0
M  V30 5688 H 557.21 -2.82078 1.12543 0
M  V30 5689 H 554.795 -1.36194 0.614135 0
M  V30 5690 H 556.677 -4.1017 -0.96634 0
M  V30 5691 H 555.352 -2.95781 -1.31512 0
M  V30 5692 H 554.259 -3.63053 0.902411 0
M  V30 5693 H 555.592 -4.78136 1.16818 0
M  V30 5694 N 557.244 -0.608902 -1.45362 0
M  V30 5695 C 558.207 0.0992563 -2.28985 0
M  V30 5696 C 559.207 0.793841 -1.39838 0
M  V30 5697 O 560.397 0.641804 -1.61946 0
M  V30 5698 C 557.529 1.15073 -3.20891 0
M  V30 5699 H 558.722 -0.635964 -2.93079 0
M  V30 5700 H 556.275 -0.368007 -1.51906 0
M  V30 5701 H 557.01 1.91667 -2.616 0
M  V30 5702 H 556.795 0.656867 -3.86559 0
M  V30 5703 H 558.285 1.64665 -3.83765 0
M  V30 5704 N 558.722 1.53707 -0.348139 0
M  V30 5705 C 559.652 2.28111 0.498766 0
M  V30 5706 C 560.633 1.29851 1.09876 0
M  V30 5707 O 561.818 1.587 1.11928 0
M  V30 5708 C 558.948 3.05735 1.64753 0
M  V30 5709 C 557.902 4.11537 1.17565 0
M  V30 5710 C 557.228 4.77142 2.4133 0
M  V30 5711 C 558.528 5.21587 0.272844 0
M  V30 5712 H 560.222 2.99152 -0.121934 0
M  V30 5713 H 557.768 1.43875 -0.0600842 0
M  V30 5714 H 559.721 3.56526 2.24649 0
M  V30 5715 H 558.445 2.32354 2.2952 0
M  V30 5716 H 557.104 3.61665 0.599483 0
M  V30 5717 H 556.752 4.0035 3.04514 0
M  V30 5718 H 556.452 5.48626 2.10436 0
M  V30 5719 H 557.976 5.30719 3.01943 0
M  V30 5720 H 559.39 5.67986 0.778779 0
M  V30 5721 H 557.787 6.00074 0.0555849 0
M  V30 5722 H 558.857 4.79969 -0.689785 0
M  V30 5723 N 560.2 0.0768682 1.57412 0
M  V30 5724 C 561.11 -0.903207 2.16516 0
M  V30 5725 C 562.126 -1.32341 1.12968 0
M  V30 5726 O 563.302 -1.39507 1.45258 0
M  V30 5727 C 560.367 -2.1508 2.71922 0
M  V30 5728 C 559.428 -1.78653 3.90361 0
M  V30 5729 C 558.661 -2.97465 4.43114 0
M  V30 5730 O 558.884 -4.11638 3.94854 0
M  V30 5731 O 557.818 -2.76987 5.3438 0
M  V30 5732 H 561.644 -0.430427 3.00634 0
M  V30 5733 H 559.229 -0.146485 1.4868 0
M  V30 5734 H 561.111 -2.8823 3.07411 0
M  V30 5735 H 559.786 -2.61446 1.9086 0
M  V30 5736 H 558.693 -1.0274 3.59716 0
M  V30 5737 H 560.026 -1.37066 4.7273 0
M  V30 5738 N 561.678 -1.56367 -0.196722 0
M  V30 5739 C 562.641 -1.93561 -1.22746 0
M  V30 5740 C 563.641 -0.816566 -1.38524 0
M  V30 5741 O 564.831 -1.084 -1.36363 0
M  V30 5742 C 561.963 -2.20823 -2.59712 0
M  V30 5743 H 563.156 -2.85774 -0.909586 0
M  V30 5744 H 560.709 -1.50032 -0.438174 0
M  V30 5745 H 561.444 -1.31243 -2.96557 0
M  V30 5746 H 561.229 -3.02368 -2.49632 0
M  V30 5747 H 562.719 -2.50608 -3.34044 0
M  V30 5748 N 563.156 0.464375 -1.50603 0
M  V30 5749 C 564.088 1.57916 -1.66118 0
M  V30 5750 C 565.101 1.53497 -0.54246 0
M  V30 5751 O 566.29 1.58763 -0.815877 0
M  V30 5752 C 563.39 2.96809 -1.63577 0
M  V30 5753 C 562.563 3.26026 -2.91592 0
M  V30 5754 C 561.622 4.44506 -2.81604 0
M  V30 5755 O 560.648 4.44484 -3.55559 0
M  V30 5756 N 561.85 5.46549 -1.95614 0
M  V30 5757 H 564.615 1.45022 -2.62276 0
M  V30 5758 H 562.176 0.652903 -1.48151 0
M  V30 5759 H 564.168 3.74048 -1.54499 0
M  V30 5760 H 562.738 3.03438 -0.751262 0
M  V30 5761 H 561.958 2.37337 -3.14746 0
M  V30 5762 H 563.246 3.42361 -3.76386 0
M  V30 5763 H 562.644 5.49391 -1.34854 0
M  V30 5764 H 561.201 6.22746 -1.92435 0
M  V30 5765 N 564.634 1.40294 0.718013 0
M  V30 5766 C 565.88 1.38645 1.48005 0
M  V30 5767 C 566.213 -0.0121202 1.94196 0
M  V30 5768 O 565.488 -0.980309 1.67989 0
M  V30 5769 C 565.771 2.37379 2.70782 0
M  V30 5770 C 565.624 3.8625 2.30501 0
M  V30 5771 C 566.943 2.33685 3.72933 0
M  V30 5772 H 564.062 0.504928 0.536858 0
M  V30 5773 H 566.704 1.71411 0.819649 0
M  V30 5774 H 564.854 2.09568 3.27129 0
M  V30 5775 H 566.526 4.24879 1.79655 0
M  V30 5776 H 564.769 4.02202 1.6253 0
M  V30 5777 H 565.44 4.50847 3.18498 0
M  V30 5778 H 567.916 2.58314 3.2621 0
M  V30 5779 H 566.792 3.0482 4.56482 0
M  V30 5780 H 567.053 1.34765 4.21059 0
M  V30 5781 N 566.112 -0.949982 1.2575 0
M  V30 5782 C 567.042 -2.06483 1.09028 0
M  V30 5783 C 568.023 -1.701 -0.00201532 0
M  V30 5784 O 569.208 -1.93469 0.168383 0
M  V30 5785 C 566.338 -3.39899 0.71316 0
M  V30 5786 C 565.292 -3.90309 1.75621 0
M  V30 5787 C 564.618 -5.20274 1.23365 0
M  V30 5788 C 565.918 -4.16169 3.15596 0
M  V30 5789 H 567.612 -2.20731 2.02283 0
M  V30 5790 H 565.158 -1.06066 0.973964 0
M  V30 5791 H 567.111 -4.17346 0.58309 0
M  V30 5792 H 565.835 -3.25602 -0.255091 0
M  V30 5793 H 564.494 -3.15035 1.8748 0
M  V30 5794 H 564.142 -5.02351 0.255491 0
M  V30 5795 H 563.842 -5.54971 1.93082 0
M  V30 5796 H 565.366 -6.00314 1.11607 0
M  V30 5797 H 566.78 -4.84259 3.06864 0
M  V30 5798 H 565.177 -4.62131 3.82825 0
M  V30 5799 H 566.247 -3.22273 3.6231 0
M  V30 5800 N 567.59 -1.07411 -1.15328 0
M  V30 5801 C 569.006 -0.799759 -1.38116 0
M  V30 5802 C 569.206 0.59572 -1.92493 0
M  V30 5803 O 568.262 1.35433 -2.13106 0
M  V30 5804 C 569.575 -1.87407 -2.35158 0
M  V30 5805 C 571.123 -1.89889 -2.48819 0
M  V30 5806 C 571.598 -2.96406 -3.49153 0
M  V30 5807 N 573.089 -2.95512 -3.56689 0
M  V30 5808 C 573.824 -3.74575 -4.34144 0
M  V30 5809 N 573.32 -4.63488 -5.14928 0
M  V30 5810 N 575.113 -3.62919 -4.29239 0
M  V30 5811 H 567.264 -1.97411 -0.78374 0
M  V30 5812 H 569.527 -0.856113 -0.407154 0
M  V30 5813 H 569.233 -2.8768 -2.0232 0
M  V30 5814 H 569.107 -1.73471 -3.34944 0
M  V30 5815 H 571.494 -0.902677 -2.80955 0
M  V30 5816 H 571.575 -2.07904 -1.49029 0
M  V30 5817 H 571.219 -3.96227 -3.17752 0
M  V30 5818 H 571.149 -2.75638 -4.48699 0
M  V30 5819 H 573.64 -2.31061 -2.99031 0
M  V30 5820 H 573.953 -5.20445 -5.71276 0
M  V30 5821 H 572.298 -4.67537 -5.14232 0
M  V30 5822 H 575.489 -2.92833 -3.65194 0
M  V30 5823 H 575.662 -4.24777 -4.89355 0
M  V30 5824 N 569.068 1.32177 -0.85831 0
M  V30 5825 C 569.978 2.32561 -0.308606 0
M  V30 5826 C 570.994 1.64209 0.575462 0
M  V30 5827 O 572.17 1.95719 0.474961 0
M  V30 5828 C 569.235 3.43207 0.490909 0
M  V30 5829 C 568.296 4.27243 -0.419733 0
M  V30 5830 C 567.529 5.32605 0.341719 0
M  V30 5831 O 567.752 5.48332 1.57125 0
M  V30 5832 O 566.686 6.0118 -0.294379 0
M  V30 5833 H 570.512 2.81477 -1.14037 0
M  V30 5834 H 568.097 1.35866 -0.621349 0
M  V30 5835 H 569.979 4.10677 0.944574 0
M  V30 5836 H 568.654 2.96474 1.29941 0
M  V30 5837 H 567.561 3.62569 -0.921652 0
M  V30 5838 H 568.894 4.7751 -1.19352 0
M  V30 5839 N 570.547 0.616602 1.45037 0
M  V30 5840 C 571.48 -0.145984 2.27733 0
M  V30 5841 C 572.458 -0.865108 1.37676 0
M  V30 5842 O 573.642 -0.872152 1.6711 0
M  V30 5843 C 570.769 -1.2122 3.16265 0
M  V30 5844 C 569.815 -0.595218 4.22326 0
M  V30 5845 S 570.648 0.603744 5.32086 0
M  V30 5846 C 571.804 -0.462842 6.24186 0
M  V30 5847 H 572.037 0.555591 2.92062 0
M  V30 5848 H 569.57 0.404364 1.49011 0
M  V30 5849 H 571.528 -1.82247 3.67827 0
M  V30 5850 H 570.189 -1.88589 2.51183 0
M  V30 5851 H 569.382 -1.39775 4.8423 0
M  V30 5852 H 568.984 -0.0598965 3.73952 0
M  V30 5853 H 571.276 -1.33945 6.64127 0
M  V30 5854 H 572.219 0.120259 7.07998 0
M  V30 5855 H 572.627 -0.782219 5.59054 0
M  V30 5856 N 572.025 -1.5352 0.356285 0
M  V30 5857 C 573.436 -1.86282 -0.12492 0
M  V30 5858 C 573.787 -1.27717 -1.48939 0
M  V30 5859 O 572.912 -0.595614 -2.08042 0
M  V30 5860 C 573.507 -3.37995 -0.23345 0
M  V30 5861 C 572.066 -3.70588 -0.658899 0
M  V30 5862 C 571.213 -2.76581 0.199596 0
M  V30 5863 H 574.164 -1.47901 0.575423 0
M  V30 5864 H 574.185 -3.65475 -1.0587 0
M  V30 5865 H 573.697 -3.8059 0.759776 0
M  V30 5866 H 571.798 -3.33544 -1.66069 0
M  V30 5867 H 571.911 -4.77076 -0.439957 0
M  V30 5868 H 570.275 -2.52552 -0.330076 0
M  V30 5869 H 571.058 -3.22008 1.19019 0
M  V30 5870 N 573.503 -0.0852151 -1.57369 0
M  V30 5871 C 574.919 0.271436 -1.57275 0
M  V30 5872 C 575.119 1.69109 -1.09565 0
M  V30 5873 O 574.175 2.40549 -0.767611 0
M  V30 5874 C 575.488 0.0688638 -3.00621 0
M  V30 5875 C 577.036 0.137373 -3.12698 0
M  V30 5876 C 577.511 -0.0370832 -4.57985 0
M  V30 5877 N 579.002 0.0180794 -4.63196 0
M  V30 5878 C 579.737 -0.0922953 -5.73326 0
M  V30 5879 N 579.233 -0.256948 -6.92323 0
M  V30 5880 N 581.026 -0.0342702 -5.6209 0
M  V30 5881 H 573.177 -1.01288 -1.86693 0
M  V30 5882 H 575.44 -0.396138 -0.861266 0
M  V30 5883 H 575.146 -0.911277 -3.39689 0
M  V30 5884 H 575.02 0.815442 -3.6828 0
M  V30 5885 H 577.407 1.10801 -2.73509 0
M  V30 5886 H 577.488 -0.640532 -2.47651 0
M  V30 5887 H 577.132 -1.00455 -4.97867 0
M  V30 5888 H 577.062 0.760392 -5.21081 0
M  V30 5889 H 579.553 0.143202 -3.77629 0
M  V30 5890 H 579.866 -0.332949 -7.72082 0
M  V30 5891 H 578.211 -0.292487 -6.94384 0
M  V30 5892 H 581.402 0.0931605 -4.68007 0
M  V30 5893 H 581.575 -0.12374 -6.47882 0
M  V30 5894 N 574.981 1.5647 0.188427 0
M  V30 5895 C 576.258 1.71857 0.934058 0
M  V30 5896 C 576.638 0.641867 2.01105 0
M  V30 5897 O 575.986 -0.346098 2.25864 0
M  V30 5898 C 576.196 3.14431 1.5144 0
M  V30 5899 C 577.544 3.74869 1.99396 0
M  V30 5900 O 578.568 3.17601 1.61269 0
M  V30 5901 O 577.427 4.75387 2.69573 0
M  V30 5902 H 574.521 0.701186 0.438483 0
M  V30 5903 H 577.067 1.68768 0.177599 0
M  V30 5904 H 575.839 3.8427 0.738416 0
M  V30 5905 H 575.462 3.21775 2.33552 0
M  V30 5906 N 576.459 -0.456382 1.50847 0
M  V30 5907 C 577.684 -1.2349 1.66628 0
M  V30 5908 C 578.109 -1.84715 0.355254 0
M  V30 5909 O 577.467 -1.67961 -0.682559 0
M  V30 5910 C 577.515 -2.30865 2.77009 0
M  V30 5911 O 576.619 -3.35882 2.39285 0
M  V30 5912 H 575.96 -0.36266 0.556214 0
M  V30 5913 H 578.49 -0.541374 1.97308 0
M  V30 5914 H 578.5 -2.75949 3.00526 0
M  V30 5915 H 577.175 -1.85677 3.72152 0
M  V30 5916 H 575.752 -2.96406 2.26269 0
M  V30 5917 N 577.937 -1.40673 -0.710563 0
M  V30 5918 C 579.184 -1.39222 -1.47049 0
M  V30 5919 C 579.512 0.0037691 -1.945 0
M  V30 5920 O 578.767 0.989224 -1.68857 0
M  V30 5921 C 579.066 -2.33253 -2.70791 0
M  V30 5922 C 578.732 -3.80406 -2.42079 0
M  V30 5923 C 577.394 -4.20496 -2.33959 0
M  V30 5924 C 579.746 -4.73375 -2.18094 0
M  V30 5925 C 577.074 -5.51584 -1.99929 0
M  V30 5926 C 579.426 -6.04768 -1.85576 0
M  V30 5927 C 578.09 -6.43895 -1.75941 0
M  V30 5928 H 577.36 -0.509449 -0.538092 0
M  V30 5929 H 580.007 -1.73363 -0.81348 0
M  V30 5930 H 578.312 -1.92314 -3.41354 0
M  V30 5931 H 580.009 -2.29412 -3.28894 0
M  V30 5932 H 576.599 -3.48645 -2.49288 0
M  V30 5933 H 580.783 -4.43217 -2.23321 0
M  V30 5934 H 576.039 -5.80797 -1.91011 0
M  V30 5935 H 580.213 -6.76318 -1.66033 0
M  V30 5936 H 577.84 -7.45387 -1.4934 0
M  V30 5937 N 579.415 0.9433 -1.26252 0
M  V30 5938 C 580.365 2.02746 -1.04297 0
M  V30 5939 C 581.349 1.60882 0.0239435 0
M  V30 5940 O 582.541 1.75947 -0.192757 0
M  V30 5941 C 579.67 3.36585 -0.6757 0
M  V30 5942 C 578.756 3.84939 -1.77996 0
M  V30 5943 N 579.147 4.05966 -3.01704 0
M  V30 5944 C 577.445 4.13833 -1.66308 0
M  V30 5945 C 578.146 4.45987 -3.73458 0
M  V30 5946 N 577.122 4.52569 -3.01135 0
M  V30 5947 H 580.924 2.17012 -1.98199 0
M  V30 5948 H 578.438 1.12898 -1.16738 0
M  V30 5949 H 580.435 4.13896 -0.499571 0
M  V30 5950 H 579.095 3.2369 0.255863 0
M  V30 5951 H 580.106 3.92716 -3.37631 0
M  V30 5952 H 576.783 4.09739 -0.801267 0
M  V30 5953 H 578.173 4.70465 -4.79701 0
M  V30 5954 N 580.893 1.08022 1.14757 0
M  V30 5955 C 582.118 0.82895 1.90114 0
M  V30 5956 C 582.543 -0.612772 1.77839 0
M  V30 5957 O 581.901 -1.42895 1.11583 0
M  V30 5958 C 581.949 1.25062 3.38219 0
M  V30 5959 O 581.053 0.400119 4.10454 0
M  V30 5960 H 580.394 0.301412 0.591648 0
M  V30 5961 H 582.924 1.44062 1.45284 0
M  V30 5962 H 582.934 1.22977 3.89025 0
M  V30 5963 H 581.609 2.30067 3.46471 0
M  V30 5964 H 580.186 0.484052 3.69745 0
M  V30 5965 N 582.371 -1.3172 0.865308 0
M  V30 5966 C 583.304 -2.26687 0.262376 0
M  V30 5967 C 584.282 -1.50894 -0.605787 0
M  V30 5968 O 585.466 -1.79982 -0.56024 0
M  V30 5969 C 582.593 -3.3281 -0.628915 0
M  V30 5970 C 581.639 -4.26172 0.167278 0
M  V30 5971 S 582.472 -5.12797 1.54272 0
M  V30 5972 C 583.628 -6.22438 0.657427 0
M  V30 5973 H 583.861 -2.77478 1.0674 0
M  V30 5974 H 581.394 -1.39414 0.663555 0
M  V30 5975 H 583.352 -3.94426 -1.13747 0
M  V30 5976 H 582.013 -2.80782 -1.40785 0
M  V30 5977 H 581.206 -5.01392 -0.51203 0
M  V30 5978 H 580.808 -3.69029 0.607777 0
M  V30 5979 H 583.1 -6.77368 -0.133925 0
M  V30 5980 H 584.043 -6.9451 1.38061 0
M  V30 5981 H 584.451 -5.64043 0.227044 0
M  V30 5982 N 583.85 -0.624285 -1.44708 0
M  V30 5983 C 584.782 0.12305 -2.28869 0
M  V30 5984 C 585.795 0.81557 -1.40898 0
M  V30 5985 O 586.984 0.678162 -1.65116 0
M  V30 5986 C 584.084 1.19612 -3.1709 0
M  V30 5987 C 583.257 0.587452 -4.33437 0
M  V30 5988 C 582.316 1.55358 -5.02743 0
M  V30 5989 O 581.341 1.07338 -5.58988 0
M  V30 5990 N 582.543 2.88798 -5.03563 0
M  V30 5991 H 585.308 -0.599193 -2.93649 0
M  V30 5992 H 582.87 -0.464954 -1.5508 0
M  V30 5993 H 584.861 1.84261 -3.60319 0
M  V30 5994 H 583.432 1.82067 -2.54107 0
M  V30 5995 H 582.652 -0.237509 -3.93484 0
M  V30 5996 H 583.94 0.161326 -5.08544 0
M  V30 5997 H 583.338 3.30399 -4.59188 0
M  V30 5998 H 581.894 3.48826 -5.50603 0
M  V30 5999 N 585.328 1.53329 -0.364422 0
M  V30 6000 C 586.238 2.29414 0.490552 0
M  V30 6001 C 587.254 1.35335 1.09363 0
M  V30 6002 O 588.43 1.68391 1.10483 0
M  V30 6003 C 585.495 3.06772 1.61529 0
M  V30 6004 C 584.556 4.16516 1.03986 0
M  V30 6005 C 583.789 4.90176 2.111 0
M  V30 6006 O 584.012 4.63687 3.32191 0
M  V30 6007 O 582.946 5.76134 1.74222 0
M  V30 6008 H 586.772 3.03428 -0.12856 0
M  V30 6009 H 584.357 1.48843 -0.128837 0
M  V30 6010 H 586.239 3.55082 2.26924 0
M  V30 6011 H 584.914 2.35596 2.21983 0
M  V30 6012 H 583.821 3.7246 0.349856 0
M  V30 6013 H 585.154 4.89855 0.4799 0
M  V30 6014 N 586.806 0.0935595 1.57322 0
M  V30 6015 C 588.054 -0.569383 1.93913 0
M  V30 6016 C 588.375 -1.68817 0.976009 0
M  V30 6017 O 587.645 -1.9588 0.0278099 0
M  V30 6018 H 586.225 -0.21332 0.715894 0
M  V30 6019 H 588.887 0.156531 1.9427 0
M  V30 6020 H 587.983 -0.980577 2.96296 0
M  V30 6021 N 588.284 -1.56567 -0.180126 0
M  V30 6022 C 589.53 -1.82658 -0.894859 0
M  V30 6023 C 589.885 -0.672826 -1.80252 0
M  V30 6024 O 589.178 0.331227 -1.88715 0
M  V30 6025 C 589.372 -3.1252 -1.73395 0
M  V30 6026 C 589.201 -4.40417 -0.909028 0
M  V30 6027 C 587.971 -5.01872 -0.587562 0
M  V30 6028 C 590.169 -5.13669 -0.254698 0
M  V30 6029 N 588.151 -6.13373 0.254428 0
M  V30 6030 C 589.522 -6.18373 0.448837 0
M  V30 6031 C 591.577 -4.97603 -0.171958 0
M  V30 6032 C 590.28 -7.08753 1.22725 0
M  V30 6033 C 592.306 -5.88418 0.593101 0
M  V30 6034 C 591.668 -6.92579 1.28503 0
M  V30 6035 H 587.767 -0.719493 -0.306356 0
M  V30 6036 H 590.351 -1.94021 -0.16247 0
M  V30 6037 H 588.522 -3.02365 -2.43783 0
M  V30 6038 H 590.254 -3.2664 -2.38931 0
M  V30 6039 H 587.009 -4.64666 -0.915557 0
M  V30 6040 H 587.433 -6.73721 0.665474 0
M  V30 6041 H 592.075 -4.17089 -0.692555 0
M  V30 6042 H 589.793 -7.88718 1.75923 0
M  V30 6043 H 593.379 -5.78059 0.658674 0
M  V30 6044 H 592.259 -7.61638 1.86754 0
M  V30 6045 N 589.762 0.448376 -1.51087 0
M  V30 6046 C 590.709 1.54341 -1.71603 0
M  V30 6047 C 591.679 1.56463 -0.557536 0
M  V30 6048 O 592.864 1.73644 -0.79072 0
M  V30 6049 C 590.004 2.92148 -1.83695 0
M  V30 6050 C 589.117 2.99639 -3.11192 0
M  V30 6051 C 588.252 4.285 -3.13944 0
M  V30 6052 C 587.291 4.29819 -4.35801 0
M  V30 6053 N 586.428 5.50186 -4.36164 0
M  V30 6054 H 591.268 1.36151 -2.65079 0
M  V30 6055 H 588.805 0.661585 -1.31383 0
M  V30 6056 H 590.763 3.72093 -1.88687 0
M  V30 6057 H 589.393 3.0892 -0.936374 0
M  V30 6058 H 588.445 2.12425 -3.15562 0
M  V30 6059 H 589.757 2.96474 -4.01129 0
M  V30 6060 H 588.911 5.16811 -3.17791 0
M  V30 6061 H 587.65 4.34307 -2.21876 0
M  V30 6062 H 586.655 3.39902 -4.32142 0
M  V30 6063 H 587.88 4.25685 -5.29121 0
M  V30 6064 H 585.826 5.56735 -3.46961 0
M  V30 6065 H 585.743 5.48856 -5.19897 0
M  V30 6066 H 587.011 6.40559 -4.44189 0
M  V30 6067 N 591.24 1.41047 0.703093 0
M  V30 6068 C 592.656 1.23351 1.01275 0
M  V30 6069 C 592.856 0.11754 2.01157 0
M  V30 6070 O 591.912 -0.520518 2.47077 0
M  V30 6071 C 593.225 2.58001 1.54454 0
M  V30 6072 C 594.773 2.65119 1.66376 0
M  V30 6073 C 595.248 4.00067 2.22958 0
M  V30 6074 N 596.739 4.01875 2.30328 0
M  V30 6075 C 597.474 5.03087 2.75119 0
M  V30 6076 N 596.97 6.14692 3.19571 0
M  V30 6077 N 598.763 4.90451 2.74616 0
M  V30 6078 H 590.914 2.1236 0.0412686 0
M  V30 6079 H 593.177 0.944543 0.08089 0
M  V30 6080 H 592.883 3.40378 0.88521 0
M  V30 6081 H 592.757 2.79962 2.52786 0
M  V30 6082 H 595.144 1.83106 2.31422 0
M  V30 6083 H 595.225 2.46975 0.666089 0
M  V30 6084 H 594.869 4.82526 1.58529 0
M  V30 6085 H 594.799 4.15547 3.23462 0
M  V30 6086 H 597.29 3.21291 1.98949 0
M  V30 6087 H 597.603 6.87799 3.52352 0
M  V30 6088 H 595.948 6.18239 3.17498 0
M  V30 6089 H 599.139 4.0235 2.39233 0
M  V30 6090 H 599.312 5.6947 3.09206 0
M  V30 6091 N 592.718 -0.936591 1.26751 0
M  V30 6092 C 593.628 -2.06949 1.10496 0
M  V30 6093 C 594.644 -1.7396 0.037271 0
M  V30 6094 O 595.82 -1.99941 0.241944 0
M  V30 6095 C 592.885 -3.38612 0.744491 0
M  V30 6096 C 591.946 -3.85355 1.89209 0
M  V30 6097 C 591.179 -5.10735 1.54873 0
M  V30 6098 O 591.402 -5.68602 0.452546 0
M  V30 6099 O 590.336 -5.52632 2.38499 0
M  V30 6100 H 594.162 -2.23571 2.05547 0
M  V30 6101 H 591.747 -1.05428 1.05855 0
M  V30 6102 H 593.629 -4.17711 0.556396 0
M  V30 6103 H 592.304 -3.23218 -0.176582 0
M  V30 6104 H 591.211 -3.07182 2.13518 0
M  V30 6105 H 592.544 -4.05277 2.79305 0
M  V30 6106 N 594.196 -1.08629 -1.14182 0
M  V30 6107 C 595.445 -0.812271 -1.84621 0
M  V30 6108 C 595.758 0.664313 -1.83973 0
M  V30 6109 O 596.964 1.05357 -2.50224 0
M  V30 6110 C 595.42 -1.4031 -3.31423 0
M  V30 6111 C 595.028 -2.91164 -3.40481 0
M  V30 6112 C 596.772 -1.20767 -4.06959 0
M  V30 6113 C 594.679 -3.43373 -4.81507 0
M  V30 6114 H 593.609 -0.30019 -0.691666 0
M  V30 6115 H 596.26 -1.30798 -1.28701 0
M  V30 6116 H 594.642 -0.835096 -3.87094 0
M  V30 6117 H 595.816 -3.5412 -2.94848 0
M  V30 6118 H 594.131 -3.09646 -2.78403 0
M  V30 6119 H 596.728 -1.57237 -5.11058 0
M  V30 6120 H 597.071 -0.147664 -4.16038 0
M  V30 6121 H 597.604 -1.74274 -3.57594 0
M  V30 6122 H 594.343 -4.48958 -4.77616 0
M  V30 6123 H 593.863 -2.85176 -5.27669 0
M  V30 6124 H 595.542 -3.40095 -5.50404 0
M  V30 6125 N 595.674 1.31259 -0.872281 0
M  V30 6126 C 596.606 2.27396 -0.28697 0
M  V30 6127 C 597.619 1.53181 0.551297 0
M  V30 6128 O 598.808 1.74561 0.372914 0
M  V30 6129 C 595.908 3.33335 0.611617 0
M  V30 6130 C 595.081 4.36966 -0.194729 0
M  V30 6131 C 594.14 5.22387 0.632358 0
M  V30 6132 O 593.166 5.69169 0.0595691 0
M  V30 6133 N 594.368 5.46985 1.94391 0
M  V30 6134 H 597.133 2.78261 -1.11314 0
M  V30 6135 H 594.694 1.44306 -0.733994 0
M  V30 6136 H 596.686 3.87398 1.17068 0
M  V30 6137 H 595.256 2.82496 1.33846 0
M  V30 6138 H 594.476 3.82945 -0.935241 0
M  V30 6139 H 595.764 5.03273 -0.747935 0
M  V30 6140 H 595.162 5.10737 2.43237 0
M  V30 6141 H 593.719 6.03973 2.45071 0
M  V30 6142 N 597.152 0.631951 1.44375 0
M  V30 6143 C 598.4 0.136497 2.01639 0
M  V30 6144 C 598.721 -1.24637 1.49969 0
M  V30 6145 O 597.991 -1.82827 0.70363 0
M  V30 6146 H 596.571 0.0474703 0.74549 0
M  V30 6147 H 599.233 0.818837 1.76865 0
M  V30 6148 H 598.329 0.104817 3.11924 0
M  V30 6149 N 598.631 -1.53133 0.372548 0
M  V30 6150 C 599.561 -2.28876 -0.462412 0
M  V30 6151 C 600.542 -1.31583 -1.07796 0
M  V30 6152 O 601.727 -1.60461 -1.09389 0
M  V30 6153 C 598.857 -3.08317 -1.59868 0
M  V30 6154 C 597.811 -4.13355 -1.11003 0
M  V30 6155 C 597.137 -4.8092 -2.33708 0
M  V30 6156 C 598.437 -5.21955 -0.18983 0
M  V30 6157 H 600.131 -2.9892 0.169511 0
M  V30 6158 H 597.677 -1.43761 0.0829658 0
M  V30 6159 H 599.63 -3.60055 -2.18949 0
M  V30 6160 H 598.354 -2.35976 -2.25794 0
M  V30 6161 H 597.013 -3.62573 -0.541869 0
M  V30 6162 H 596.661 -4.05144 -2.98106 0
M  V30 6163 H 596.361 -5.51904 -2.01682 0
M  V30 6164 H 597.885 -5.35455 -2.93462 0
M  V30 6165 H 599.299 -5.69153 -0.688319 0
M  V30 6166 H 597.696 -6.00087 0.0398887 0
M  V30 6167 H 598.766 -4.78811 0.766057 0
M  V30 6168 N 600.109 -0.101901 -1.5727 0
M  V30 6169 C 601.356 0.560197 -1.94597 0
M  V30 6170 C 601.684 1.67767 -0.984101 0
M  V30 6171 O 600.939 1.95699 -0.00489193 0
M  V30 6172 C 601.238 1.14898 -3.38427 0
M  V30 6173 C 600.904 0.154613 -4.50635 0
M  V30 6174 C 599.566 -0.118861 -4.81053 0
M  V30 6175 C 601.918 -0.523979 -5.18559 0
M  V30 6176 C 599.246 -1.0775 -5.76721 0
M  V30 6177 C 601.598 -1.47114 -6.15256 0
M  V30 6178 C 600.262 -1.75278 -6.44076 0
M  V30 6179 H 599.532 0.204991 -0.712081 0
M  V30 6180 H 602.179 -0.17918 -1.9066 0
M  V30 6181 H 600.484 1.96476 -3.38976 0
M  V30 6182 H 602.181 1.66909 -3.64613 0
M  V30 6183 H 598.771 0.377948 -4.2693 0
M  V30 6184 H 602.955 -0.325851 -4.95229 0
M  V30 6185 H 598.211 -1.30263 -5.97362 0
M  V30 6186 H 602.385 -2.00274 -6.66981 0
M  V30 6187 H 600.012 -2.49717 -7.18015 0
M  V30 6188 N 601.587 1.56661 0.17182 0
M  V30 6189 C 602.864 1.72838 0.915778 0
M  V30 6190 C 603.244 0.66316 2.00413 0
M  V30 6191 O 602.592 -0.322123 2.26218 0
M  V30 6192 C 602.802 3.16019 1.48097 0
M  V30 6193 C 604.15 3.76962 1.95408 0
M  V30 6194 O 605.174 3.19294 1.57892 0
M  V30 6195 O 604.033 4.78219 2.64516 0
M  V30 6196 H 601.127 0.705797 0.431021 0
M  V30 6197 H 603.673 1.68947 0.159689 0
M  V30 6198 H 602.445 3.85031 0.697618 0
M  V30 6199 H 602.068 3.24234 2.30126 0
M  V30 6200 N 603.065 -0.440357 1.51323 0
M  V30 6201 C 603.975 -1.55955 1.75258 0
M  V30 6202 C 604.991 -1.61933 0.636687 0
M  V30 6203 O 606.167 -1.79231 0.918593 0
M  V30 6204 C 603.232 -2.9196 1.86977 0
M  V30 6205 C 602.293 -2.96122 3.10822 0
M  V30 6206 C 601.526 -4.2564 3.21973 0
M  V30 6207 O 601.749 -5.17851 2.39137 0
M  V30 6208 O 600.683 -4.36025 4.14929 0
M  V30 6209 H 604.509 -1.38673 2.70191 0
M  V30 6210 H 602.094 -0.623055 1.35788 0
M  V30 6211 H 603.976 -3.72682 1.96688 0
M  V30 6212 H 602.651 -3.09375 0.952307 0
M  V30 6213 H 601.558 -2.14366 3.06591 0
M  V30 6214 H 602.891 -2.83651 4.02247 0
M  V30 6215 N 604.543 -1.41418 -0.695603 0
M  V30 6216 C 605.473 -1.46035 -1.82197 0
M  V30 6217 C 606.454 -0.319025 -1.67082 0
M  V30 6218 O 607.639 -0.530462 -1.86815 0
M  V30 6219 C 604.769 -1.34179 -3.20333 0
M  V30 6220 C 603.723 -2.46123 -3.50154 0
M  V30 6221 C 603.049 -2.19332 -4.87645 0
M  V30 6222 C 604.349 -3.88463 -3.49133 0
M  V30 6223 H 606.043 -2.40303 -1.78591 0
M  V30 6224 H 603.589 -1.15663 -0.857797 0
M  V30 6225 H 605.542 -1.36021 -3.98844 0
M  V30 6226 H 604.266 -0.363952 -3.24566 0
M  V30 6227 H 602.925 -2.43563 -2.73994 0
M  V30 6228 H 602.573 -1.19891 -4.88503 0
M  V30 6229 H 602.273 -2.94344 -5.08562 0
M  V30 6230 H 603.797 -2.22889 -5.68465 0
M  V30 6231 H 605.211 -3.92738 -4.17648 0
M  V30 6232 H 603.608 -4.63158 -3.81582 0
M  V30 6233 H 604.678 -4.16617 -2.48109 0
M  V30 6234 N 606.021 0.929856 -1.27246 0
M  V30 6235 C 607.437 1.20542 -1.04603 0
M  V30 6236 C 607.637 2.00276 0.221754 0
M  V30 6237 O 606.693 2.34835 0.927833 0
M  V30 6238 C 608.006 1.95566 -2.28417 0
M  V30 6239 C 609.554 2.08513 -2.33433 0
M  V30 6240 C 610.029 2.86943 -3.5697 0
M  V30 6241 N 611.52 2.94512 -3.57515 0
M  V30 6242 C 612.255 3.55656 -4.49774 0
M  V30 6243 N 611.751 4.18209 -5.52334 0
M  V30 6244 N 613.544 3.53038 -4.37402 0
M  V30 6245 H 605.695 0.397113 -2.08655 0
M  V30 6246 H 607.958 0.238277 -0.917566 0
M  V30 6247 H 607.664 1.44395 -3.20691 0
M  V30 6248 H 607.538 2.9619 -2.33563 0
M  V30 6249 H 609.925 2.58872 -1.41666 0
M  V30 6250 H 610.006 1.07117 -2.32292 0
M  V30 6251 H 609.65 2.37268 -4.49072 0
M  V30 6252 H 609.58 3.8862 -3.55362 0
M  V30 6253 H 612.071 2.50053 -2.83341 0
M  V30 6254 H 612.384 4.62796 -6.18902 0
M  V30 6255 H 610.729 4.16761 -5.56179 0
M  V30 6256 H 613.92 3.0337 -3.56489 0
M  V30 6257 H 614.093 4.004 -5.09493 0
M  V30 6258 N 607.499 1.09233 1.13605 0
M  V30 6259 C 608.462 0.733553 2.17144 0
M  V30 6260 C 609.462 -0.235873 1.59061 0
M  V30 6261 O 610.652 -0.0143167 1.74194 0
M  V30 6262 C 607.784 0.084471 3.40795 0
M  V30 6263 H 608.977 1.65049 2.50397 0
M  V30 6264 H 606.53 0.891264 1.28399 0
M  V30 6265 H 607.265 -0.843795 3.1313 0
M  V30 6266 H 607.05 0.781985 3.84223 0
M  V30 6267 H 608.54 -0.151216 4.17326 0
M  V30 6268 N 608.977 -1.30795 0.87923 0
M  V30 6269 C 609.924 -2.28282 0.339968 0
M  V30 6270 C 610.894 -1.56134 -0.566685 0
M  V30 6271 O 612.079 -1.84231 -0.496338 0
M  V30 6272 C 609.219 -3.42225 -0.444501 0
M  V30 6273 C 608.332 -4.29204 0.490717 0
M  V30 6274 C 607.467 -5.30302 -0.308784 0
M  V30 6275 C 606.506 -6.08929 0.622272 0
M  V30 6276 N 605.643 -7.01957 -0.14155 0
M  V30 6277 H 610.483 -2.73794 1.17647 0
M  V30 6278 H 608.02 -1.34682 0.591527 0
M  V30 6279 H 609.978 -4.07038 -0.915186 0
M  V30 6280 H 608.608 -2.97799 -1.24562 0
M  V30 6281 H 607.66 -3.6475 1.07988 0
M  V30 6282 H 608.972 -4.84045 1.20425 0
M  V30 6283 H 608.126 -6.00835 -0.841575 0
M  V30 6284 H 606.865 -4.7614 -1.05556 0
M  V30 6285 H 605.87 -5.37278 1.16674 0
M  V30 6286 H 607.095 -6.65178 1.36804 0
M  V30 6287 H 605.041 -6.50192 -0.870966 0
M  V30 6288 H 604.958 -7.54261 0.51246 0
M  V30 6289 H 606.226 -7.76741 -0.655271 0
M  V30 6290 N 610.455 -0.639598 -1.44038 0
M  V30 6291 C 611.365 0.0612377 -2.3452 0
M  V30 6292 C 612.381 0.826717 -1.53106 0
M  V30 6293 O 613.557 0.777059 -1.85806 0
M  V30 6294 C 610.622 1.02492 -3.31204 0
M  V30 6295 C 609.683 0.25788 -4.28525 0
M  V30 6296 C 608.916 1.17566 -5.2059 0
M  V30 6297 O 609.139 2.41461 -5.16771 0
M  V30 6298 O 608.073 0.655407 -5.98321 0
M  V30 6299 H 611.899 -0.68318 -2.95916 0
M  V30 6300 H 609.484 -0.399784 -1.43952 0
M  V30 6301 H 611.366 1.57911 -3.90694 0
M  V30 6302 H 610.041 1.7498 -2.7233 0
M  V30 6303 H 608.948 -0.339566 -3.72556 0
M  V30 6304 H 610.281 -0.427154 -4.90343 0
M  V30 6305 N 611.933 1.52934 -0.380664 0
M  V30 6306 C 612.88 2.26197 0.458641 0
M  V30 6307 C 613.85 1.27462 1.06502 0
M  V30 6308 O 615.035 1.56274 1.09467 0
M  V30 6309 C 612.175 3.06571 1.58456 0
M  V30 6310 C 611.288 4.20222 1.00189 0
M  V30 6311 C 610.423 4.88007 2.09815 0
M  V30 6312 C 609.462 5.93665 1.49092 0
M  V30 6313 N 608.599 6.55081 2.52613 0
M  V30 6314 H 613.439 2.975 -0.172595 0
M  V30 6315 H 610.976 1.4678 -0.0969426 0
M  V30 6316 H 612.934 3.51455 2.24801 0
M  V30 6317 H 611.564 2.37494 2.18624 0
M  V30 6318 H 610.616 3.79714 0.228292 0
M  V30 6319 H 611.928 4.96102 0.518064 0
M  V30 6320 H 611.082 5.36151 2.83948 0
M  V30 6321 H 609.821 4.11632 2.61555 0
M  V30 6322 H 608.826 5.44868 0.7348 0
M  V30 6323 H 610.051 6.71969 0.981582 0
M  V30 6324 H 607.997 5.8155 3.03538 0
M  V30 6325 H 607.914 7.26548 2.08961 0
M  V30 6326 H 609.182 7.07871 3.26402 0
M  V30 6327 N 613.412 0.11024 1.57214 0
M  V30 6328 C 614.322 -0.857077 2.18383 0
M  V30 6329 C 615.338 -1.29915 1.1575 0
M  V30 6330 O 616.514 -1.36394 1.48184 0
M  V30 6331 C 613.579 -2.09264 2.76423 0
M  V30 6332 C 612.64 -1.70333 3.94063 0
M  V30 6333 C 611.873 -2.87999 4.49324 0
M  V30 6334 O 612.096 -4.0317 4.03497 0
M  V30 6335 O 611.03 -2.6559 5.40135 0
M  V30 6336 H 614.856 -0.366561 3.0148 0
M  V30 6337 H 612.441 -0.114914 1.48957 0
M  V30 6338 H 614.323 -2.81644 3.13456 0
M  V30 6339 H 612.998 -2.57339 1.96363 0
M  V30 6340 H 611.905 -0.950864 3.61814 0
M  V30 6341 H 613.238 -1.27007 4.75531 0
M  V30 6342 N 614.89 -1.56749 -0.16351 0
M  V30 6343 C 615.82 -2.00042 -1.20438 0
M  V30 6344 C 616.801 -0.877256 -1.45733 0
M  V30 6345 O 617.986 -1.1439 -1.56935 0
M  V30 6346 C 615.116 -2.36697 -2.54149 0
M  V30 6347 C 614.07 -3.52046 -2.43408 0
M  V30 6348 C 613.396 -3.74466 -3.81679 0
M  V30 6349 C 614.696 -4.85247 -1.93216 0
M  V30 6350 H 616.39 -2.87244 -0.844477 0
M  V30 6351 H 613.936 -1.38194 -0.40478 0
M  V30 6352 H 615.889 -2.65582 -3.27176 0
M  V30 6353 H 614.613 -1.46414 -2.91943 0
M  V30 6354 H 613.272 -3.23301 -1.72834 0
M  V30 6355 H 612.92 -2.81461 -4.1688 0
M  V30 6356 H 612.62 -4.52084 -3.75359 0
M  V30 6357 H 614.144 -4.0576 -4.5628 0
M  V30 6358 H 615.558 -5.12957 -2.56023 0
M  V30 6359 H 613.955 -5.66556 -1.97825 0
M  V30 6360 H 615.025 -4.7672 -0.88689 0
M  V30 6361 N 616.368 0.432326 -1.51554 0
M  V30 6362 C 617.298 1.53242 -1.76179 0
M  V30 6363 C 618.279 1.58717 -0.611801 0
M  V30 6364 O 619.464 1.74364 -0.855033 0
M  V30 6365 C 616.594 2.91278 -1.89141 0
M  V30 6366 C 615.548 3.00663 -3.04608 0
M  V30 6367 C 614.874 4.40728 -3.02759 0
M  V30 6368 C 616.174 2.74281 -4.44485 0
M  V30 6369 H 617.868 1.32886 -2.68294 0
M  V30 6370 H 615.414 0.637841 -1.29103 0
M  V30 6371 H 617.367 3.68203 -2.04951 0
M  V30 6372 H 616.091 3.12877 -0.936785 0
M  V30 6373 H 614.75 2.26179 -2.88511 0
M  V30 6374 H 614.398 4.59301 -2.05065 0
M  V30 6375 H 614.098 4.47936 -3.80299 0
M  V30 6376 H 615.622 5.19619 -3.20669 0
M  V30 6377 H 617.036 3.40936 -4.60907 0
M  V30 6378 H 615.433 2.92893 -5.23769 0
M  V30 6379 H 616.503 1.69856 -4.54177 0
M  V30 6380 N 617.846 1.41785 0.688094 0
M  V30 6381 C 619.071 1.45117 1.48175 0
M  V30 6382 C 619.496 0.060129 1.88004 0
M  V30 6383 O 618.854 -0.938385 1.55126 0
M  V30 6384 C 618.902 2.37224 2.71583 0
M  V30 6385 O 618.006 1.83443 3.69354 0
M  V30 6386 H 617.347 0.492208 0.445676 0
M  V30 6387 H 619.877 1.86329 0.845145 0
M  V30 6388 H 619.887 2.53353 3.19806 0
M  V30 6389 H 618.562 3.38293 2.41931 0
M  V30 6390 H 617.139 1.76802 3.28322 0
M  V30 6391 N 619.324 -0.923095 1.27737 0
M  V30 6392 C 620.74 -1.19985 1.05241 0
M  V30 6393 C 620.94 -2.00391 -0.21113 0
M  V30 6394 O 619.996 -2.35324 -0.915366 0
M  V30 6395 C 621.309 -1.94352 2.29451 0
M  V30 6396 C 622.857 -2.07273 2.34536 0
M  V30 6397 C 623.332 -2.85046 3.58487 0
M  V30 6398 N 624.823 -2.92612 3.59072 0
M  V30 6399 C 625.558 -3.53266 4.51654 0
M  V30 6400 N 625.054 -4.15274 5.54545 0
M  V30 6401 N 626.847 -3.50714 4.39268 0
M  V30 6402 H 618.998 -0.386042 2.08862 0
M  V30 6403 H 621.261 -0.233407 0.918817 0
M  V30 6404 H 620.967 -1.42692 3.21453 0
M  V30 6405 H 620.841 -2.94947 2.3513 0
M  V30 6406 H 623.228 -2.58117 1.43037 0
M  V30 6407 H 623.309 -1.05884 2.32857 0
M  V30 6408 H 622.953 -2.34884 4.50324 0
M  V30 6409 H 622.883 -3.8673 3.57418 0
M  V30 6410 H 625.374 -2.48547 2.84663 0
M  V30 6411 H 625.687 -4.59507 6.21348 0
M  V30 6412 H 624.032 -4.13806 5.58382 0
M  V30 6413 H 627.223 -3.01475 3.58093 0
M  V30 6414 H 627.396 -3.97693 5.1161 0
M  V30 6415 N 620.802 -1.09834 -1.13024 0
M  V30 6416 C 621.712 -0.753731 -2.22162 0
M  V30 6417 C 622.728 0.246105 -1.72251 0
M  V30 6418 O 623.904 0.0864051 -2.01215 0
M  V30 6419 C 620.969 -0.183958 -3.46212 0
M  V30 6420 C 620.03 -1.24028 -4.10993 0
M  V30 6421 C 619.263 -0.697597 -5.29121 0
M  V30 6422 O 619.486 0.478092 -5.68393 0
M  V30 6423 O 618.42 -1.4546 -5.84059 0
M  V30 6424 H 622.246 -1.66456 -2.5402 0
M  V30 6425 H 619.831 -0.873026 -1.21238 0
M  V30 6426 H 621.713 0.130257 -4.21199 0
M  V30 6427 H 620.388 0.699823 -3.16045 0
M  V30 6428 H 619.295 -1.60725 -3.37814 0
M  V30 6429 H 620.628 -2.09685 -4.45301 0
M  V30 6430 N 622.28 1.30327 -0.886154 0
M  V30 6431 C 623.19 2.31854 -0.357866 0
M  V30 6432 C 624.206 1.65392 0.540502 0
M  V30 6433 O 625.382 1.96683 0.433339 0
M  V30 6434 C 622.447 3.44171 0.417999 0
M  V30 6435 C 621.508 4.26257 -0.510263 0
M  V30 6436 C 620.741 5.3321 0.228669 0
M  V30 6437 O 620.964 5.51542 1.45458 0
M  V30 6438 O 619.898 6.0042 -0.421832 0
M  V30 6439 H 623.724 2.78995 -1.19982 0
M  V30 6440 H 621.309 1.34518 -0.650028 0
M  V30 6441 H 623.191 4.12588 0.857251 0
M  V30 6442 H 621.866 2.99164 1.23623 0
M  V30 6443 H 620.773 3.60533 -0.99835 0
M  V30 6444 H 622.106 4.74871 -1.29454 0
M  V30 6445 N 623.758 0.647228 1.43697 0
M  V30 6446 C 624.668 -0.0487997 2.34549 0
M  V30 6447 C 625.684 -0.818586 1.53542 0
M  V30 6448 O 626.86 -0.767195 1.86215 0
M  V30 6449 C 623.925 -1.00734 3.31743 0
M  V30 6450 C 622.986 -0.23515 4.28655 0
M  V30 6451 C 622.219 -1.14803 5.21206 0
M  V30 6452 O 622.442 -2.38717 5.18045 0
M  V30 6453 O 621.376 -0.623667 5.9866 0
M  V30 6454 H 625.202 0.698863 2.9555 0
M  V30 6455 H 622.787 0.407412 1.43738 0
M  V30 6456 H 624.669 -1.55837 3.91526 0
M  V30 6457 H 623.344 -1.73534 2.73254 0
M  V30 6458 H 622.251 0.359319 3.7237 0
M  V30 6459 H 623.584 0.453152 4.9011 0
M  V30 6460 N 625.236 -1.5273 0.388769 0
M  V30 6461 C 626.166 -2.29353 -0.438111 0
M  V30 6462 C 627.147 -1.32719 -1.06394 0
M  V30 6463 O 628.332 -1.61612 -1.07681 0
M  V30 6464 C 625.462 -3.09995 -1.56589 0
M  V30 6465 C 624.416 -4.14509 -1.06613 0
M  V30 6466 C 623.742 -4.83372 -2.28594 0
M  V30 6467 C 625.042 -5.22127 -0.134459 0
M  V30 6468 H 626.736 -2.98723 0.201206 0
M  V30 6469 H 624.282 -1.43665 0.0982089 0
M  V30 6470 H 626.235 -3.62357 -2.15118 0
M  V30 6471 H 624.959 -2.38357 -2.23279 0
M  V30 6472 H 623.618 -3.63128 -0.503383 0
M  V30 6473 H 623.266 -4.08283 -2.93792 0
M  V30 6474 H 622.966 -5.54012 -1.95817 0
M  V30 6475 H 624.49 -5.38538 -2.87766 0
M  V30 6476 H 625.904 -5.69851 -0.627914 0
M  V30 6477 H 624.301 -6.00011 0.103534 0
M  V30 6478 H 625.371 -4.77971 0.816798 0
M  V30 6479 N 626.714 -0.118576 -1.57153 0
M  V30 6480 C 627.942 0.54726 -1.99531 0
M  V30 6481 C 628.357 1.60251 -0.998246 0
M  V30 6482 O 627.714 1.82498 0.00893106 0
M  V30 6483 C 627.765 1.17378 -3.41913 0
M  V30 6484 O 627.486 0.160703 -4.37805 0
M  V30 6485 C 628.987 1.92297 -3.9942 0
M  V30 6486 H 626.207 0.144919 -0.655164 0
M  V30 6487 H 628.751 -0.20479 -2.03472 0
M  V30 6488 H 626.906 1.87661 -3.38913 0
M  V30 6489 H 627.32 0.61586 -5.20872 0
M  V30 6490 H 628.794 2.31462 -5.01128 0
M  V30 6491 H 629.271 2.79801 -3.38538 0
M  V30 6492 H 629.877 1.26777 -4.05965 0
M  V30 6493 N 628.193 1.56834 0.155195 0
M  V30 6494 C 629.609 1.51315 0.50755 0
M  V30 6495 C 629.809 0.825614 1.83809 0
M  V30 6496 O 628.865 0.39271 2.49427 0
M  V30 6497 C 630.178 2.96074 0.52542 0
M  V30 6498 C 631.726 3.06968 0.611505 0
M  V30 6499 C 632.201 4.53218 0.660115 0
M  V30 6500 N 633.692 4.5753 0.722564 0
M  V30 6501 C 634.427 5.68056 0.781023 0
M  V30 6502 N 633.923 6.88173 0.799327 0
M  V30 6503 N 635.716 5.56068 0.821278 0
M  V30 6504 H 627.867 1.9993 -0.717063 0
M  V30 6505 H 630.13 0.911507 -0.260496 0
M  V30 6506 H 629.836 3.49599 -0.383875 0
M  V30 6507 H 629.71 3.51587 1.36624 0
M  V30 6508 H 632.097 2.53468 1.51122 0
M  V30 6509 H 632.178 2.54513 -0.256306 0
M  V30 6510 H 631.822 5.07354 -0.23541 0
M  V30 6511 H 631.752 5.03447 1.5443 0
M  V30 6512 H 634.243 3.71054 0.716049 0
M  V30 6513 H 634.556 7.6816 0.845553 0
M  V30 6514 H 632.901 6.90751 0.767337 0
M  V30 6515 H 636.092 4.61142 0.804091 0
M  V30 6516 H 636.265 6.42223 0.863372 0
M  V30 6517 N 629.671 -0.424282 1.51781 0
M  V30 6518 C 630.634 -1.49848 1.73431 0
M  V30 6519 C 631.634 -1.49016 0.604225 0
M  V30 6520 O 632.824 -1.50808 0.871935 0
M  V30 6521 C 629.956 -2.89332 1.80277 0
M  V30 6522 H 631.149 -1.3195 2.69312 0
M  V30 6523 H 628.702 -0.653809 1.41968 0
M  V30 6524 H 629.437 -3.12618 0.862568 0
M  V30 6525 H 629.222 -2.9134 2.62419 0
M  V30 6526 H 630.712 -3.67233 1.98821 0
M  V30 6527 N 631.149 -1.42148 -0.680565 0
M  V30 6528 C 632.112 -1.4488 -1.77602 0
M  V30 6529 C 633.112 -0.337209 -1.57224 0
M  V30 6530 O 634.302 -0.597778 -1.63622 0
M  V30 6531 C 631.434 -1.27483 -3.16166 0
M  V30 6532 H 632.627 -2.42412 -1.76568 0
M  V30 6533 H 630.18 -1.28511 -0.889645 0
M  V30 6534 H 630.915 -0.30851 -3.22829 0
M  V30 6535 H 630.7 -2.08037 -3.3236 0
M  V30 6536 H 632.19 -1.32265 -3.96101 0
M  V30 6537 N 632.627 0.916307 -1.28225 0
M  V30 6538 C 634.043 1.19425 -1.05876 0
M  V30 6539 C 634.243 2.005 0.2005 0
M  V30 6540 O 633.299 2.35806 0.902873 0
M  V30 6541 C 634.612 1.93133 -2.30478 0
M  V30 6542 C 636.16 2.06026 -2.35632 0
M  V30 6543 C 636.635 2.83141 -3.59994 0
M  V30 6544 N 638.126 2.90704 -3.60618 0
M  V30 6545 C 638.861 3.50865 -4.53521 0
M  V30 6546 N 638.357 4.12327 -5.56739 0
M  V30 6547 N 640.15 3.48379 -4.41122 0
M  V30 6548 H 632.301 0.37496 -2.09064 0
M  V30 6549 H 634.564 0.228531 -0.920042 0
M  V30 6550 H 634.27 1.40985 -3.22205 0
M  V30 6551 H 634.144 2.93696 -2.36691 0
M  V30 6552 H 636.531 2.57355 -1.44404 0
M  V30 6553 H 636.612 1.04647 -2.33415 0
M  V30 6554 H 636.256 2.32492 -4.51564 0
M  V30 6555 H 636.186 3.84829 -3.59464 0
M  V30 6556 H 638.677 2.47034 -2.85977 0
M  V30 6557 H 638.99 4.56205 -6.23776 0
M  V30 6558 H 637.335 4.10839 -5.60568 0
M  V30 6559 H 640.526 2.99572 -3.59686 0
M  V30 6560 H 640.699 3.94974 -5.13712 0
M  V30 6561 N 634.105 1.10431 1.1244 0
M  V30 6562 C 635.015 0.765502 2.21759 0
M  V30 6563 C 636.031 -0.236966 1.72379 0
M  V30 6564 O 637.207 -0.0757329 2.01258 0
M  V30 6565 C 634.272 0.202316 3.46109 0
M  V30 6566 C 633.333 1.26205 4.1033 0
M  V30 6567 C 632.566 0.725648 5.28744 0
M  V30 6568 O 632.789 -0.447942 5.68638 0
M  V30 6569 O 631.723 1.48555 5.83279 0
M  V30 6570 H 635.549 1.67801 2.53133 0
M  V30 6571 H 633.134 0.879443 1.20773 0
M  V30 6572 H 635.016 -0.107918 4.21262 0
M  V30 6573 H 633.691 -0.683052 3.16411 0
M  V30 6574 H 632.598 1.62514 3.36957 0
M  V30 6575 H 633.931 2.12044 4.44183 0
M  V30 6576 N 635.583 -1.29855 0.893053 0
M  V30 6577 C 636.515 -2.26911 0.32311 0
M  V30 6578 C 637.528 -1.54039 -0.526858 0
M  V30 6579 O 638.717 -1.75132 -0.345095 0
M  V30 6580 C 635.817 -3.34266 -0.558509 0
M  V30 6581 C 634.99 -4.36601 0.264222 0
M  V30 6582 C 634.049 -5.23326 -0.549171 0
M  V30 6583 O 633.075 -5.69192 0.0309883 0
M  V30 6584 N 634.277 -5.50008 -1.85664 0
M  V30 6585 H 637.042 -2.76455 1.15726 0
M  V30 6586 H 634.603 -1.4312 0.756859 0
M  V30 6587 H 636.595 -3.89211 -1.1089 0
M  V30 6588 H 635.165 -2.8459 -1.29334 0
M  V30 6589 H 634.385 -3.81409 0.996046 0
M  V30 6590 H 635.673 -5.02019 0.827906 0
M  V30 6591 H 635.071 -5.14542 -2.35081 0
M  V30 6592 H 633.628 -6.07796 -2.35431 0
M  V30 6593 N 637.061 -0.65484 -1.43351 0
M  V30 6594 C 638.477 -0.32255 -1.56307 0
M  V30 6595 C 638.677 1.17324 -1.63821 0
M  V30 6596 O 637.733 1.95813 -1.59417 0
M  V30 6597 C 639.046 -1.03533 -2.82314 0
M  V30 6598 C 640.594 -1.01574 -2.9606 0
M  V30 6599 C 641.069 -1.70945 -4.24902 0
M  V30 6600 N 642.56 -1.67716 -4.3177 0
M  V30 6601 C 643.295 -2.18265 -5.30234 0
M  V30 6602 N 642.791 -2.7711 -6.34966 0
M  V30 6603 N 644.584 -2.08756 -5.21898 0
M  V30 6604 H 636.735 -1.62549 -1.36717 0
M  V30 6605 H 638.998 -0.683676 -0.656727 0
M  V30 6606 H 638.704 -2.09045 -2.8283 0
M  V30 6607 H 638.578 -0.587913 -3.7259 0
M  V30 6608 H 640.965 0.0309834 -2.95084 0
M  V30 6609 H 641.046 -1.50186 -2.07069 0
M  V30 6610 H 640.69 -2.75574 -4.26639 0
M  V30 6611 H 640.62 -1.19797 -5.12793 0
M  V30 6612 H 643.111 -1.24777 -3.56706 0
M  V30 6613 H 643.424 -3.13353 -7.06421 0
M  V30 6614 H 641.769 -2.81171 -6.35585 0
M  V30 6615 H 644.96 -1.62488 -4.38994 0
M  V30 6616 H 645.133 -2.48459 -5.98475 0
M  V30 6617 N 638.539 1.52521 -0.396863 0
M  V30 6618 C 639.764 2.06571 0.185258 0
M  V30 6619 C 640.189 1.26605 1.39115 0
M  V30 6620 O 639.547 0.293055 1.78916 0
M  V30 6621 C 639.595 3.5674 0.526189 0
M  V30 6622 O 638.699 3.7929 1.61903 0
M  V30 6623 H 638.04 0.663712 0.0195474 0
M  V30 6624 H 640.57 1.966 -0.566519 0
M  V30 6625 H 640.58 4.00311 0.788338 0
M  V30 6626 H 639.255 4.14379 -0.355397 0
M  V30 6627 H 637.832 3.47605 1.35 0
M  V30 6628 N 640.017 0.126909 1.57088 0
M  V30 6629 C 640.949 -0.850973 2.12817 0
M  V30 6630 C 641.962 -1.22457 1.07276 0
M  V30 6631 O 643.151 -1.17215 1.34622 0
M  V30 6632 C 640.251 -2.15039 2.61938 0
M  V30 6633 C 639.424 -1.94726 3.91664 0
M  V30 6634 C 638.483 -3.0847 4.26301 0
M  V30 6635 O 637.509 -2.81038 4.94981 0
M  V30 6636 N 638.711 -4.35116 3.84259 0
M  V30 6637 H 641.476 -0.3748 2.97347 0
M  V30 6638 H 639.037 -0.0572793 1.61799 0
M  V30 6639 H 641.029 -2.90141 2.82135 0
M  V30 6640 H 639.599 -2.5398 1.82244 0
M  V30 6641 H 638.819 -1.03772 3.80296 0
M  V30 6642 H 640.107 -1.78469 4.76473 0
M  V30 6643 H 639.505 -4.60276 3.2888 0
M  V30 6644 H 638.062 -5.07064 4.09548 0
M  V30 6645 N 641.495 -1.56914 -0.146875 0
M  V30 6646 C 642.458 -1.97368 -1.16526 0
M  V30 6647 C 643.458 -0.860223 -1.35856 0
M  V30 6648 O 644.648 -1.12684 -1.32846 0
M  V30 6649 C 641.78 -2.28974 -2.52555 0
M  V30 6650 H 642.973 -2.88523 -0.818209 0
M  V30 6651 H 640.526 -1.5135 -0.390221 0
M  V30 6652 H 641.261 -1.40611 -2.92231 0
M  V30 6653 H 641.046 -3.10157 -2.39886 0
M  V30 6654 H 642.536 -2.61109 -3.25902 0
M  V30 6655 N 642.974 0.416227 -1.52004 0
M  V30 6656 C 643.884 1.53147 -1.77717 0
M  V30 6657 C 644.9 1.609 -0.662368 0
M  V30 6658 O 646.076 1.77747 -0.946991 0
M  V30 6659 C 643.141 2.88948 -1.91598 0
M  V30 6660 C 642.202 2.9114 -3.15493 0
M  V30 6661 C 641.435 4.20464 -3.28703 0
M  V30 6662 O 641.658 5.13981 -2.47345 0
M  V30 6663 O 640.592 4.29368 -4.21813 0
M  V30 6664 H 644.418 1.34357 -2.72363 0
M  V30 6665 H 642.003 0.601373 -1.36762 0
M  V30 6666 H 643.885 3.69505 -2.02593 0
M  V30 6667 H 642.56 3.07821 -1.00141 0
M  V30 6668 H 641.467 2.09461 -3.09962 0
M  V30 6669 H 642.8 2.77216 -4.06709 0
M  V30 6670 N 644.452 1.42507 0.673017 0
M  V30 6671 C 645.384 1.42074 1.79854 0
M  V30 6672 C 646.397 0.319569 1.59633 0
M  V30 6673 O 647.586 0.582769 1.68719 0
M  V30 6674 C 644.686 1.19886 3.16987 0
M  V30 6675 C 643.859 2.42471 3.64042 0
M  V30 6676 C 642.918 2.15802 4.79913 0
M  V30 6677 O 641.944 2.89015 4.90366 0
M  V30 6678 N 643.146 1.16225 5.68746 0
M  V30 6679 H 645.911 2.3909 1.8071 0
M  V30 6680 H 643.472 1.37409 0.856171 0
M  V30 6681 H 645.464 0.999591 3.92161 0
M  V30 6682 H 644.034 0.313879 3.1102 0
M  V30 6683 H 643.254 2.77954 2.79526 0
M  V30 6684 H 644.542 3.24097 3.92223 0
M  V30 6685 H 643.94 0.556756 5.62954 0
M  V30 6686 H 642.497 1.02285 6.43724 0
M  V30 6687 N 645.93 -0.909495 1.28709 0
M  V30 6688 C 646.86 -2.0291 1.15542 0
M  V30 6689 C 647.841 -1.7002 0.0521017 0
M  V30 6690 O 649.026 -1.92835 0.229849 0
M  V30 6691 C 646.156 -3.37458 0.820935 0
M  V30 6692 C 645.11 -3.84524 1.87949 0
M  V30 6693 C 644.436 -5.16086 1.39854 0
M  V30 6694 C 645.736 -4.05918 3.28676 0
M  V30 6695 H 647.43 -2.14183 2.09203 0
M  V30 6696 H 644.976 -1.02913 1.00722 0
M  V30 6697 H 646.929 -4.1528 0.715571 0
M  V30 6698 H 645.653 -3.26249 -0.151374 0
M  V30 6699 H 644.312 -3.08911 1.97408 0
M  V30 6700 H 643.96 -5.01284 0.41518 0
M  V30 6701 H 643.66 -5.48547 2.1064 0
M  V30 6702 H 645.184 -5.96459 1.30649 0
M  V30 6703 H 646.598 -4.74252 3.22115 0
M  V30 6704 H 644.995 -4.49717 3.97334 0
M  V30 6705 H 646.065 -3.10583 3.72379 0
M  V30 6706 N 647.408 -1.11026 -1.11852 0
M  V30 6707 C 648.824 -0.843294 -1.35502 0
M  V30 6708 C 649.024 0.534179 -1.9429 0
M  V30 6709 O 648.08 1.28585 -2.17307 0
M  V30 6710 C 649.393 -1.94793 -2.29077 0
M  V30 6711 C 650.941 -1.97709 -2.42652 0
M  V30 6712 C 651.416 -3.07364 -3.39546 0
M  V30 6713 N 652.907 -3.0671 -3.47107 0
M  V30 6714 C 653.642 -3.88197 -4.22008 0
M  V30 6715 N 653.138 -4.79635 -4.99922 0
M  V30 6716 N 654.931 -3.76391 -4.17476 0
M  V30 6717 H 647.082 -1.99805 -0.720538 0
M  V30 6718 H 649.345 -0.868633 -0.379711 0
M  V30 6719 H 649.051 -2.93971 -1.93065 0
M  V30 6720 H 648.925 -1.84039 -3.29256 0
M  V30 6721 H 651.312 -0.991604 -2.77941 0
M  V30 6722 H 651.393 -2.1254 -1.4234 0
M  V30 6723 H 651.037 -4.06136 -3.04985 0
M  V30 6724 H 650.967 -2.89774 -4.39703 0
M  V30 6725 H 653.458 -2.40457 -2.91528 0
M  V30 6726 H 653.771 -5.38357 -5.54429 0
M  V30 6727 H 652.116 -4.8366 -4.99097 0
M  V30 6728 H 655.307 -3.04303 -3.55693 0
M  V30 6729 H 655.48 -4.40131 -4.75593 0
M  V30 6730 N 648.886 1.2938 -0.899927 0
M  V30 6731 C 650.302 1.48052 -0.596059 0
M  V30 6732 C 650.502 1.82114 0.862372 0
M  V30 6733 O 649.558 1.91774 1.64253 0
M  V30 6734 C 650.871 2.59332 -1.52208 0
M  V30 6735 C 652.419 2.73208 -1.5273 0
M  V30 6736 C 652.894 3.87617 -2.43961 0
M  V30 6737 N 654.385 3.9495 -2.42009 0
M  V30 6738 C 655.12 4.82824 -3.09303 0
M  V30 6739 N 654.616 5.75387 -3.85877 0
M  V30 6740 N 656.409 4.76317 -2.98459 0
M  V30 6741 H 648.56 1.05546 -1.8432 0
M  V30 6742 H 650.823 0.524314 -0.78981 0
M  V30 6743 H 650.529 2.41029 -2.56121 0
M  V30 6744 H 650.403 3.56139 -1.24278 0
M  V30 6745 H 652.79 2.90908 -0.495614 0
M  V30 6746 H 652.871 1.76975 -1.84698 0
M  V30 6747 H 652.515 3.70672 -3.47224 0
M  V30 6748 H 652.445 4.83218 -2.09303 0
M  V30 6749 H 654.936 3.28744 -1.86375 0
M  V30 6750 H 655.249 6.39235 -4.34279 0
M  V30 6751 H 653.594 5.75272 -3.89984 0
M  V30 6752 H 656.785 4.0299 -2.38152 0
M  V30 6753 H 656.958 5.44589 -3.51179 0
M  V30 6754 N 650.364 0.662433 1.43002 0
M  V30 6755 C 651.78 0.330835 1.56133 0
M  V30 6756 C 651.98 -1.16454 1.64441 0
M  V30 6757 O 651.036 -1.94964 1.60453 0
M  V30 6758 C 652.349 1.05029 2.81761 0
M  V30 6759 C 653.897 1.03142 2.95518 0
M  V30 6760 C 654.372 1.73196 4.2399 0
M  V30 6761 N 655.863 1.70004 4.30875 0
M  V30 6762 C 656.598 2.21074 5.29069 0
M  V30 6763 N 656.094 2.80473 6.33488 0
M  V30 6764 N 657.887 2.1152 5.20784 0
M  V30 6765 H 650.038 1.63272 1.35853 0
M  V30 6766 H 652.301 0.687149 0.653092 0
M  V30 6767 H 652.007 2.10542 2.81718 0
M  V30 6768 H 651.881 0.607664 3.72273 0
M  V30 6769 H 654.268 -0.0153339 2.95096 0
M  V30 6770 H 654.349 1.51282 2.0627 0
M  V30 6771 H 653.993 2.77833 4.25172 0
M  V30 6772 H 653.923 1.22515 5.1215 0
M  V30 6773 H 656.414 1.26667 3.56039 0
M  V30 6774 H 656.727 3.17094 7.04749 0
M  V30 6775 H 655.072 2.84538 6.34085 0
M  V30 6776 H 658.263 1.64814 4.38126 0
M  V30 6777 H 658.436 2.51629 5.97149 0
M  V30 6778 N 651.842 -1.52309 0.404946 0
M  V30 6779 C 652.752 -2.30634 -0.429555 0
M  V30 6780 C 653.768 -1.38187 -1.05737 0
M  V30 6781 O 654.944 -1.71261 -1.05979 0
M  V30 6782 C 652.009 -3.10947 -1.53339 0
M  V30 6783 C 651.07 -4.19126 -0.929065 0
M  V30 6784 C 650.303 -4.95601 -1.9803 0
M  V30 6785 O 650.526 -4.72331 -3.1978 0
M  V30 6786 O 649.46 -5.80551 -1.58886 0
M  V30 6787 H 653.286 -3.0298 0.208963 0
M  V30 6788 H 650.871 -1.4845 0.168255 0
M  V30 6789 H 652.753 -3.60974 -2.1743 0
M  V30 6790 H 651.428 -2.41399 -2.15658 0
M  V30 6791 H 650.335 -3.73257 -0.250982 0
M  V30 6792 H 651.668 -4.90955 -0.349855 0
M  V30 6793 N 653.32 -0.135238 -1.57019 0
M  V30 6794 C 654.27 0.820408 -2.12728 0
M  V30 6795 C 655.254 1.21735 -1.05211 0
M  V30 6796 O 656.446 1.18574 -1.31413 0
M  V30 6797 C 653.575 2.06414 -2.74314 0
M  V30 6798 C 652.661 1.69083 -3.88937 0
M  V30 6799 N 653.052 1.0251 -4.95303 0
M  V30 6800 C 651.35 1.98434 -3.99425 0
M  V30 6801 C 652.051 0.846749 -5.75504 0
M  V30 6802 N 651.027 1.3769 -5.25873 0
M  V30 6803 H 654.829 0.302426 -2.9234 0
M  V30 6804 H 652.343 0.0667009 -1.62263 0
M  V30 6805 H 654.34 2.75863 -3.12579 0
M  V30 6806 H 653 2.58741 -1.96171 0
M  V30 6807 H 654.011 0.687207 -5.1332 0
M  V30 6808 H 650.688 2.52693 -3.32344 0
M  V30 6809 H 652.078 0.322949 -6.71123 0
M  V30 6810 N 654.798 1.5699 0.138552 0
M  V30 6811 C 655.728 2.01933 1.17241 0
M  V30 6812 C 656.709 0.90033 1.44319 0
M  V30 6813 O 657.894 1.16872 1.55095 0
M  V30 6814 C 655.024 2.40711 2.50351 0
M  V30 6815 C 653.978 3.55874 2.37776 0
M  V30 6816 C 653.304 3.80491 3.75674 0
M  V30 6817 C 654.604 4.8826 1.85472 0
M  V30 6818 H 656.298 2.88551 0.798672 0
M  V30 6819 H 653.844 1.3882 0.382743 0
M  V30 6820 H 655.797 2.70754 3.22909 0
M  V30 6821 H 654.521 1.5104 2.89576 0
M  V30 6822 H 653.18 3.2601 1.67669 0
M  V30 6823 H 652.828 2.88057 4.12349 0
M  V30 6824 H 652.528 4.57998 3.68119 0
M  V30 6825 H 654.052 4.12967 4.49767 0
M  V30 6826 H 655.466 5.16965 2.4783 0
M  V30 6827 H 653.863 5.69631 1.88787 0
M  V30 6828 H 654.933 4.78071 0.810935 0
M  V30 6829 N 656.276 -0.40816 1.52223 0
M  V30 6830 C 657.206 -1.5042 1.78595 0
M  V30 6831 C 658.187 -1.57723 0.636974 0
M  V30 6832 O 659.372 -1.72982 0.882664 0
M  V30 6833 C 656.502 -2.88232 1.93751 0
M  V30 6834 C 655.456 -2.95779 3.09352 0
M  V30 6835 C 654.782 -4.35855 3.09732 0
M  V30 6836 C 656.082 -2.67175 4.48793 0
M  V30 6837 H 657.776 -1.28601 2.70374 0
M  V30 6838 H 655.322 -0.617221 1.30101 0
M  V30 6839 H 657.275 -3.64895 2.10783 0
M  V30 6840 H 655.999 -3.11347 0.986443 0
M  V30 6841 H 654.658 -2.21561 2.92072 0
M  V30 6842 H 654.306 -4.55981 2.12346 0
M  V30 6843 H 654.006 -4.41829 3.87377 0
M  V30 6844 H 655.53 -5.14451 3.28895 0
M  V30 6845 H 656.944 -3.3356 4.66273 0
M  V30 6846 H 655.341 -2.84523 5.28362 0
M  V30 6847 H 656.411 -1.62609 4.56822 0
M  V30 6848 N 657.755 -1.42862 -0.66545 0
M  V30 6849 C 658.718 -1.46756 -1.76055 0
M  V30 6850 C 659.718 -0.353866 -1.56858 0
M  V30 6851 O 660.908 -0.615099 -1.62979 0
M  V30 6852 C 658.04 -1.30829 -3.14796 0
M  V30 6853 H 659.233 -2.44271 -1.73987 0
M  V30 6854 H 656.786 -1.29447 -0.875965 0
M  V30 6855 H 657.521 -0.342733 -3.22484 0
M  V30 6856 H 657.306 -2.11551 -3.30134 0
M  V30 6857 H 658.796 -1.36458 -3.94676 0
M  V30 6858 N 659.233 0.902656 -1.29189 0
M  V30 6859 C 660.165 2.01149 -1.09872 0
M  V30 6860 C 661.178 1.62732 -0.0471046 0
M  V30 6861 O 662.367 1.76107 -0.29132 0
M  V30 6862 C 659.467 3.32612 -0.649818 0
M  V30 6863 C 658.64 3.99574 -1.7793 0
M  V30 6864 C 657.699 5.09325 -1.32191 0
M  V30 6865 O 656.725 5.31919 -2.02611 0
M  V30 6866 N 657.927 5.80185 -0.191171 0
M  V30 6867 H 660.692 2.18276 -2.05368 0
M  V30 6868 H 658.253 1.07466 -1.2109 0
M  V30 6869 H 660.245 4.03375 -0.327199 0
M  V30 6870 H 658.815 3.11876 0.212597 0
M  V30 6871 H 658.035 3.22213 -2.27095 0
M  V30 6872 H 659.323 4.41056 -2.53668 0
M  V30 6873 H 658.721 5.64312 0.396016 0
M  V30 6874 H 657.278 6.5176 0.0721001 0
M  V30 6875 N 660.711 1.11618 1.11262 0
M  V30 6876 C 661.957 0.877377 1.83504 0
M  V30 6877 C 662.312 -0.590606 1.83111 0
M  V30 6878 O 661.605 -1.43057 1.27456 0
M  V30 6879 C 661.799 1.37529 3.2988 0
M  V30 6880 C 661.628 2.89014 3.4453 0
M  V30 6881 C 660.398 3.57157 3.57445 0
M  V30 6882 C 662.596 3.8706 3.38658 0
M  V30 6883 N 660.578 4.96842 3.60585 0
M  V30 6884 C 661.949 5.12825 3.4844 0
M  V30 6885 C 664.004 3.79593 3.22201 0
M  V30 6886 C 662.707 6.32002 3.43462 0
M  V30 6887 C 664.733 4.98282 3.18542 0
M  V30 6888 C 664.095 6.22901 3.28897 0
M  V30 6889 H 660.194 0.37422 0.686646 0
M  V30 6890 H 662.778 1.42087 1.33114 0
M  V30 6891 H 660.949 0.85895 3.78783 0
M  V30 6892 H 662.681 1.07944 3.90039 0
M  V30 6893 H 659.436 3.07628 3.60086 0
M  V30 6894 H 659.86 5.69674 3.65788 0
M  V30 6895 H 664.502 2.84149 3.1308 0
M  V30 6896 H 662.22 7.27721 3.51352 0
M  V30 6897 H 665.806 4.94226 3.06972 0
M  V30 6898 H 664.686 7.13202 3.26056 0
M  V30 6899 N 662.189 -1.289 0.906776 0
M  V30 6900 C 663.099 -2.31256 0.394707 0
M  V30 6901 C 664.115 -1.66231 -0.514121 0
M  V30 6902 O 665.291 -1.97347 -0.401994 0
M  V30 6903 C 662.356 -3.44792 -0.363191 0
M  V30 6904 C 661.417 -4.25391 0.578012 0
M  V30 6905 C 660.65 -5.33506 -0.143811 0
M  V30 6906 O 660.873 -5.53786 -1.36665 0
M  V30 6907 O 659.807 -5.99673 0.5173 0
M  V30 6908 H 663.633 -2.77051 1.24405 0
M  V30 6909 H 661.218 -1.33466 0.671346 0
M  V30 6910 H 663.1 -4.139 -0.791503 0
M  V30 6911 H 661.775 -3.01093 -1.18848 0
M  V30 6912 H 660.682 -3.58899 1.05558 0
M  V30 6913 H 662.015 -4.72752 1.36992 0
M  V30 6914 N 663.667 -0.670007 -1.42649 0
M  V30 6915 C 664.597 -0.00258501 -2.335 0
M  V30 6916 C 665.578 0.794364 -1.50412 0
M  V30 6917 O 666.763 0.75248 -1.79029 0
M  V30 6918 C 663.893 0.952748 -3.33976 0
M  V30 6919 C 662.847 0.264733 -4.2718 0
M  V30 6920 C 662.173 1.33267 -5.17826 0
M  V30 6921 C 663.473 -0.853289 -5.15283 0
M  V30 6922 H 665.167 -0.761326 -2.89559 0
M  V30 6923 H 662.713 -0.367561 -1.3923 0
M  V30 6924 H 664.666 1.4287 -3.96442 0
M  V30 6925 H 663.39 1.74285 -2.7621 0
M  V30 6926 H 662.049 -0.190938 -3.66102 0
M  V30 6927 H 661.697 2.11464 -4.5639 0
M  V30 6928 H 661.397 0.877476 -5.81011 0
M  V30 6929 H 662.921 1.80965 -5.83167 0
M  V30 6930 H 664.335 -0.458763 -5.71462 0
M  V30 6931 H 662.732 -1.23398 -5.87276 0
M  V30 6932 H 663.802 -1.70412 -4.53969 0
M  V30 6933 N 665.145 1.52092 -0.413018 0
M  V30 6934 C 666.055 2.30858 0.417318 0
M  V30 6935 C 667.071 1.38746 1.05003 0
M  V30 6936 O 668.247 1.71821 1.05069 0
M  V30 6937 C 665.312 3.11756 1.51687 0
M  V30 6938 C 664.373 4.19613 0.906825 0
M  V30 6939 C 663.606 4.96644 1.95399 0
M  V30 6940 O 663.829 4.7402 3.17271 0
M  V30 6941 O 662.763 5.81385 1.55805 0
M  V30 6942 H 666.589 3.02865 -0.225028 0
M  V30 6943 H 664.174 1.48358 -0.176126 0
M  V30 6944 H 666.056 3.62122 2.15512 0
M  V30 6945 H 664.731 2.42539 2.14375 0
M  V30 6946 H 663.638 3.73385 0.231183 0
M  V30 6947 H 664.971 4.91134 0.323814 0
M  V30 6948 N 666.623 0.143563 1.56945 0
M  V30 6949 C 667.869 -0.50916 1.96304 0
M  V30 6950 C 668.202 -1.64741 1.0283 0
M  V30 6951 O 667.477 -1.94374 0.0700361 0
M  V30 6952 C 667.76 -1.0186 3.45393 0
M  V30 6953 C 667.613 0.117923 4.49645 0
M  V30 6954 C 668.932 -1.90151 3.96901 0
M  V30 6955 H 666.051 -0.183608 0.713763 0
M  V30 6956 H 668.693 0.224095 1.88674 0
M  V30 6957 H 666.843 -1.64345 3.52027 0
M  V30 6958 H 668.515 0.754145 4.55094 0
M  V30 6959 H 666.758 0.777568 4.26774 0
M  V30 6960 H 667.429 -0.280187 5.51288 0
M  V30 6961 H 669.905 -1.375 3.92725 0
M  V30 6962 H 668.781 -2.22707 5.0169 0
M  V30 6963 H 669.042 -2.83718 3.39052 0
M  V30 6964 N 668.101 -1.57061 -0.130224 0
M  V30 6965 C 669.348 -1.84257 -0.839972 0
M  V30 6966 C 669.676 -0.726986 -1.80403 0
M  V30 6967 O 668.931 0.282632 -1.93648 0
M  V30 6968 C 669.23 -3.17878 -1.63365 0
M  V30 6969 C 668.896 -4.43475 -0.814891 0
M  V30 6970 C 667.558 -4.77581 -0.589066 0
M  V30 6971 C 669.91 -5.20631 -0.243437 0
M  V30 6972 C 667.238 -5.86292 0.218648 0
M  V30 6973 C 669.59 -6.30192 0.551408 0
M  V30 6974 C 668.254 -6.62837 0.787653 0
M  V30 6975 H 667.524 -0.674245 -0.307367 0
M  V30 6976 H 670.171 -1.91224 -0.102832 0
M  V30 6977 H 668.476 -3.06437 -2.44138 0
M  V30 6978 H 670.173 -3.3614 -2.18658 0
M  V30 6979 H 666.763 -4.16747 -1.00098 0
M  V30 6980 H 670.947 -4.94644 -0.405145 0
M  V30 6981 H 666.203 -6.10017 0.411016 0
M  V30 6982 H 670.377 -6.89165 1.00126 0
M  V30 6983 H 668.004 -7.46908 1.41537 0
M  V30 6984 N 669.579 0.400081 -1.52437 0
M  V30 6985 C 670.489 1.51253 -1.79331 0
M  V30 6986 C 671.505 1.60188 -0.679396 0
M  V30 6987 O 672.681 1.76733 -0.965791 0
M  V30 6988 C 669.746 2.869 -1.94652 0
M  V30 6989 C 668.807 2.87777 -3.18564 0
M  V30 6990 C 668.04 4.16954 -3.33145 0
M  V30 6991 O 668.263 5.11329 -2.52783 0
M  V30 6992 O 667.197 4.2487 -4.26343 0
M  V30 6993 H 671.023 1.31461 -2.73773 0
M  V30 6994 H 668.608 0.586834 -1.37392 0
M  V30 6995 H 670.49 3.67336 -2.065 0
M  V30 6996 H 669.165 3.06741 -1.034 0
M  V30 6997 H 668.072 2.06162 -3.12167 0
M  V30 6998 H 669.405 2.72886 -4.09627 0
M  V30 6999 N 671.057 1.43213 0.657864 0
M  V30 7000 C 672.473 1.26511 0.972992 0
M  V30 7001 C 672.673 0.181477 2.00681 0
M  V30 7002 O 671.729 -0.441649 2.48608 0
M  V30 7003 C 673.042 2.62784 1.46168 0
M  V30 7004 C 674.59 2.70278 1.57857 0
M  V30 7005 C 675.065 4.06958 2.10117 0
M  V30 7006 N 676.556 4.08999 2.17426 0
M  V30 7007 C 677.291 5.11585 2.58975 0
M  V30 7008 N 676.787 6.24548 2.99853 0
M  V30 7009 N 678.58 4.9894 2.58873 0
M  V30 7010 H 670.731 2.12384 -0.0263129 0
M  V30 7011 H 672.994 0.946638 0.0507992 0
M  V30 7012 H 672.7 3.43022 0.776474 0
M  V30 7013 H 672.574 2.87863 2.43751 0
M  V30 7014 H 674.961 1.90376 2.25479 0
M  V30 7015 H 675.042 2.4897 0.587179 0
M  V30 7016 H 674.686 4.87325 1.43098 0
M  V30 7017 H 674.616 4.25628 3.10078 0
M  V30 7018 H 677.107 3.27457 1.88627 0
M  V30 7019 H 677.42 6.98661 3.30292 0
M  V30 7020 H 675.765 6.28027 2.97669 0
M  V30 7021 H 678.956 4.09757 2.26311 0
M  V30 7022 H 679.129 5.79019 2.90932 0
M  V30 7023 N 672.536 -0.895792 1.29666 0
M  V30 7024 C 673.446 -2.03329 1.17024 0
M  V30 7025 C 674.462 -1.73753 0.0925962 0
M  V30 7026 O 675.638 -1.99071 0.305431 0
M  V30 7027 C 672.703 -3.36072 0.851841 0
M  V30 7028 C 671.764 -3.7914 2.01373 0
M  V30 7029 C 670.997 -5.05549 1.71043 0
M  V30 7030 O 671.22 -5.66874 0.633213 0
M  V30 7031 O 670.154 -5.44764 2.5596 0
M  V30 7032 H 673.98 -2.16918 2.12556 0
M  V30 7033 H 671.565 -1.02007 1.09156 0
M  V30 7034 H 673.447 -4.15729 0.689006 0
M  V30 7035 H 672.122 -3.23616 -0.0736634 0
M  V30 7036 H 671.029 -3.00233 2.23183 0
M  V30 7037 H 672.362 -3.96186 2.92058 0
M  V30 7038 N 674.014 -1.12206 -1.10668 0
M  V30 7039 C 674.944 -0.810086 -2.18997 0
M  V30 7040 C 675.925 0.225065 -1.68604 0
M  V30 7041 O 677.11 0.086783 -1.94006 0
M  V30 7042 C 674.24 -0.261262 -3.46316 0
M  V30 7043 C 673.194 -1.2292 -4.09969 0
M  V30 7044 C 672.52 -0.540713 -5.31959 0
M  V30 7045 C 673.82 -2.58295 -4.53962 0
M  V30 7046 H 675.514 -1.7159 -2.45352 0
M  V30 7047 H 673.06 -0.82646 -1.17922 0
M  V30 7048 H 675.013 -0.0307522 -4.21389 0
M  V30 7049 H 673.737 0.679879 -3.19445 0
M  V30 7050 H 672.396 -1.44548 -3.369 0
M  V30 7051 H 672.044 0.405492 -5.01363 0
M  V30 7052 H 671.744 -1.18637 -5.75499 0
M  V30 7053 H 673.268 -0.319184 -6.09765 0
M  V30 7054 H 674.682 -2.40709 -5.20319 0
M  V30 7055 H 673.079 -3.18916 -5.08343 0
M  V30 7056 H 674.149 -3.16918 -3.67002 0
M  V30 7057 N 675.492 1.28418 -0.913599 0
M  V30 7058 C 676.72 1.99106 -0.562536 0
M  V30 7059 C 677.135 1.68273 0.856137 0
M  V30 7060 O 676.492 0.935401 1.56705 0
M  V30 7061 C 676.543 3.5338 -0.761903 0
M  V30 7062 O 676.264 3.83127 -2.12475 0
M  V30 7063 C 677.765 4.41328 -0.417651 0
M  V30 7064 H 674.985 0.635798 -0.214481 0
M  V30 7065 H 677.529 1.63618 -1.22676 0
M  V30 7066 H 675.684 3.8713 -0.144676 0
M  V30 7067 H 676.098 4.77763 -2.16431 0
M  V30 7068 H 677.572 5.48642 -0.607919 0
M  V30 7069 H 678.049 4.34422 0.646108 0
M  V30 7070 H 678.655 4.13074 -1.01241 0
M  V30 7071 N 676.97 0.677563 1.42291 0
M  V30 7072 C 677.9 0.014968 2.33495 0
M  V30 7073 C 678.881 -0.786376 1.50831 0
M  V30 7074 O 680.066 -0.742975 1.79426 0
M  V30 7075 C 677.196 -0.935023 3.34477 0
M  V30 7076 C 676.15 -0.242074 4.27315 0
M  V30 7077 C 675.476 -1.30519 5.18526 0
M  V30 7078 C 676.776 0.880604 5.14823 0
M  V30 7079 H 678.47 0.776671 2.89151 0
M  V30 7080 H 676.016 0.37494 1.39033 0
M  V30 7081 H 677.969 -1.40766 3.97194 0
M  V30 7082 H 676.693 -1.72818 2.77131 0
M  V30 7083 H 675.352 0.210351 3.65996 0
M  V30 7084 H 675 -2.09041 4.57505 0
M  V30 7085 H 674.7 -0.846652 5.81468 0
M  V30 7086 H 676.224 -1.7787 5.84119 0
M  V30 7087 H 677.638 0.489062 5.7121 0
M  V30 7088 H 676.035 1.26511 5.86613 0
M  V30 7089 H 677.105 1.72818 4.53059 0
M  V30 7090 N 678.448 -1.51871 0.421078 0
M  V30 7091 C 679.378 -2.30231 -0.389363 0
M  V30 7092 C 680.359 -1.34946 -1.03555 0
M  V30 7093 O 681.544 -1.63859 -1.04229 0
M  V30 7094 C 678.674 -3.13247 -1.49979 0
M  V30 7095 C 677.628 -4.16677 -0.977966 0
M  V30 7096 C 676.954 -4.88112 -2.1829 0
M  V30 7097 C 678.254 -5.22295 -0.0236775 0
M  V30 7098 H 679.948 -2.98229 0.264524 0
M  V30 7099 H 677.494 -1.43424 0.12866 0
M  V30 7100 H 679.447 -3.66838 -2.07383 0
M  V30 7101 H 678.171 -2.4304 -2.18173 0
M  V30 7102 H 676.83 -3.64114 -0.426245 0
M  V30 7103 H 676.478 -4.14423 -2.85066 0
M  V30 7104 H 676.178 -5.58041 -1.84021 0
M  V30 7105 H 677.702 -5.44521 -2.76278 0
M  V30 7106 H 679.116 -5.71055 -0.506899 0
M  V30 7107 H 677.513 -5.99656 0.230782 0
M  V30 7108 H 678.583 -4.76131 0.917999 0
M  V30 7109 N 679.926 -0.151884 -1.56866 0
M  V30 7110 C 680.856 0.781943 -2.20018 0
M  V30 7111 C 681.837 1.25347 -1.14987 0
M  V30 7112 O 683.022 1.31015 -1.43348 0
M  V30 7113 C 680.152 2.01928 -2.82564 0
M  V30 7114 C 679.106 1.68434 -3.93464 0
M  V30 7115 C 678.432 2.99472 -4.42968 0
M  V30 7116 C 679.732 0.927244 -5.14003 0
M  V30 7117 H 681.426 0.255607 -2.98307 0
M  V30 7118 H 678.972 0.121502 -1.43486 0
M  V30 7119 H 680.925 2.67741 -3.25411 0
M  V30 7120 H 679.649 2.56943 -2.01614 0
M  V30 7121 H 678.308 1.04998 -3.51242 0
M  V30 7122 H 677.956 3.52488 -3.58834 0
M  V30 7123 H 677.656 2.77823 -5.17772 0
M  V30 7124 H 679.18 3.66348 -4.88489 0
M  V30 7125 H 680.594 1.48756 -5.53665 0
M  V30 7126 H 678.991 0.810513 -5.94601 0
M  V30 7127 H 680.061 -0.0801163 -4.84834 0
M  V30 7128 N 681.404 1.57128 0.121893 0
M  V30 7129 C 682.336 1.96773 1.17529 0
M  V30 7130 C 683.349 0.866668 1.37814 0
M  V30 7131 O 684.538 1.14497 1.3694 0
M  V30 7132 C 681.638 2.24832 2.53582 0
M  V30 7133 C 680.811 3.56138 2.53939 0
M  V30 7134 C 679.87 3.72443 3.71716 0
M  V30 7135 O 678.896 4.44584 3.55434 0
M  V30 7136 N 680.098 3.10993 4.90167 0
M  V30 7137 H 682.863 2.87743 0.838086 0
M  V30 7138 H 680.424 1.58881 0.311199 0
M  V30 7139 H 682.416 2.32958 3.30927 0
M  V30 7140 H 680.986 1.40002 2.79496 0
M  V30 7141 H 680.206 3.59226 1.62329 0
M  V30 7142 H 681.494 4.42448 2.51231 0
M  V30 7143 H 680.892 2.52345 5.06299 0
M  V30 7144 H 679.449 3.24644 5.65198 0
M  V30 7145 N 682.882 -0.391992 1.52647 0
M  V30 7146 C 683.814 -1.49811 1.73463 0
M  V30 7147 C 684.827 -1.50734 0.615078 0
M  V30 7148 O 686.016 -1.5469 0.890696 0
M  V30 7149 C 683.116 -2.88667 1.77552 0
M  V30 7150 C 682.289 -3.11743 3.06815 0
M  V30 7151 C 681.348 -4.30564 3.02491 0
M  V30 7152 O 680.374 -4.27014 3.76361 0
M  V30 7153 N 681.576 -5.36593 2.21468 0
M  V30 7154 H 684.341 -1.32343 2.68897 0
M  V30 7155 H 681.902 -0.581475 1.51098 0
M  V30 7156 H 683.894 -3.66251 1.7217 0
M  V30 7157 H 682.464 -2.99508 0.895181 0
M  V30 7158 H 681.684 -2.2205 3.25711 0
M  V30 7159 H 682.972 -3.24013 3.92292 0
M  V30 7160 H 682.37 -5.42332 1.60913 0
M  V30 7161 H 680.927 -6.12855 2.21928 0
M  V30 7162 N 684.36 -1.4356 -0.65026 0
M  V30 7163 C 685.606 -1.45549 -1.41221 0
M  V30 7164 C 685.939 -0.0805472 -1.94033 0
M  V30 7165 O 685.214 0.899043 -1.72475 0
M  V30 7166 C 685.497 -2.50028 -2.59148 0
M  V30 7167 C 685.35 -3.96808 -2.1181 0
M  V30 7168 C 686.669 -2.51212 -3.61359 0
M  V30 7169 H 683.788 -0.529967 -0.512156 0
M  V30 7170 H 686.43 -1.75127 -0.736933 0
M  V30 7171 H 684.58 -2.24937 -3.16758 0
M  V30 7172 H 686.252 -4.32966 -1.59178 0
M  V30 7173 H 684.495 -4.09498 -1.43156 0
M  V30 7174 H 685.166 -4.6553 -2.96625 0
M  V30 7175 H 687.642 -2.73583 -3.13515 0
M  V30 7176 H 686.518 -3.26252 -4.41419 0
M  V30 7177 H 686.779 -1.54701 -4.1415 0
M  V30 7178 N 685.838 0.888903 -1.30139 0
M  V30 7179 C 687.115 1.62145 -1.094 0
M  V30 7180 C 687.495 2.08041 0.358091 0
M  V30 7181 O 686.843 1.84438 1.34888 0
M  V30 7182 C 687.053 2.794 -2.09133 0
M  V30 7183 C 688.401 3.49826 -2.40638 0
M  V30 7184 O 689.425 2.89583 -2.07412 0
M  V30 7185 O 688.284 4.58457 -2.97455 0
M  V30 7186 H 685.378 0.712475 -0.41989 0
M  V30 7187 H 687.924 0.936023 -1.41551 0
M  V30 7188 H 686.696 2.42762 -3.06891 0
M  V30 7189 H 686.319 3.55643 -1.77776 0
M  V30 7190 N 687.317 1.12792 1.10072 0
M  V30 7191 C 688.733 0.864745 1.34143 0
M  V30 7192 C 688.933 -0.503201 1.95116 0
M  V30 7193 O 687.989 -1.25111 2.19325 0
M  V30 7194 C 689.302 1.98413 2.25949 0
M  V30 7195 C 690.85 2.01545 2.39476 0
M  V30 7196 C 691.325 3.12727 3.34613 0
M  V30 7197 N 692.816 3.12194 3.42183 0
M  V30 7198 C 693.551 3.94862 4.15779 0
M  V30 7199 N 693.047 4.87528 4.92228 0
M  V30 7200 N 694.84 3.82985 4.11435 0
M  V30 7201 H 686.991 2.00926 0.68866 0
M  V30 7202 H 689.254 0.874564 0.365844 0
M  V30 7203 H 688.96 2.97005 1.88364 0
M  V30 7204 H 688.834 1.89254 3.26287 0
M  V30 7205 H 691.221 1.0357 2.76328 0
M  V30 7206 H 691.302 2.14777 1.3894 0
M  V30 7207 H 690.946 4.10936 2.98486 0
M  V30 7208 H 690.876 2.96732 4.35037 0
M  V30 7209 H 693.367 2.45065 2.87666 0
M  V30 7210 H 693.68 5.47109 5.45794 0
M  V30 7211 H 692.025 4.91539 4.9134 0
M  V30 7212 H 695.216 3.09923 3.50807 0
M  V30 7213 H 695.389 4.47641 4.68531 0
M  V30 7214 N 688.795 -1.27931 0.920396 0
M  V30 7215 C 689.705 -2.30824 0.419212 0
M  V30 7216 C 690.721 -1.66767 -0.496461 0
M  V30 7217 O 691.897 -1.97763 -0.38104 0
M  V30 7218 C 688.962 -3.45158 -0.326601 0
M  V30 7219 C 688.023 -4.24754 0.623098 0
M  V30 7220 C 687.256 -5.33629 -0.0872172 0
M  V30 7221 O 687.479 -5.55204 -1.30784 0
M  V30 7222 O 686.413 -5.99091 0.580875 0
M  V30 7223 H 690.239 -2.75716 1.27337 0
M  V30 7224 H 687.824 -1.32747 0.685465 0
M  V30 7225 H 689.706 -4.14716 -0.747559 0
M  V30 7226 H 688.381 -3.02336 -1.15648 0
M  V30 7227 H 687.288 -3.57759 1.09359 0
M  V30 7228 H 688.621 -4.71272 1.41998 0
M  V30 7229 N 690.273 -0.685099 -1.4193 0
M  V30 7230 C 691.689 -0.355632 -1.55587 0
M  V30 7231 C 691.889 1.13823 -1.66273 0
M  V30 7232 O 690.945 1.92387 -1.63534 0
M  V30 7233 C 692.258 -1.09498 -2.80055 0
M  V30 7234 C 693.806 -1.07831 -2.93839 0
M  V30 7235 C 694.281 -1.79919 -4.21181 0
M  V30 7236 N 695.772 -1.76837 -4.28115 0
M  V30 7237 C 696.507 -2.29463 -5.25485 0
M  V30 7238 N 696.003 -2.90516 -6.28945 0
M  V30 7239 N 697.796 -2.19779 -5.17353 0
M  V30 7240 H 689.947 -1.65412 -1.33239 0
M  V30 7241 H 692.21 -0.697453 -0.642078 0
M  V30 7242 H 691.916 -2.14997 -2.78333 0
M  V30 7243 H 691.79 -0.666813 -3.71259 0
M  V30 7244 H 694.177 -0.0316152 -2.95083 0
M  V30 7245 H 694.258 -1.54545 -2.03837 0
M  V30 7246 H 693.902 -2.84562 -4.20698 0
M  V30 7247 H 693.832 -1.30647 -5.10136 0
M  V30 7248 H 696.323 -1.32315 -3.53979 0
M  V30 7249 H 696.636 -3.28266 -6.99615 0
M  V30 7250 H 694.981 -2.94589 -6.29478 0
M  V30 7251 H 698.172 -1.71763 -4.35448 0
M  V30 7252 H 698.345 -2.61097 -5.9307 0
M  V30 7253 N 691.751 1.51645 -0.429126 0
M  V30 7254 C 693.162 1.86665 0.0359003 0
M  V30 7255 C 693.513 1.34677 1.42676 0
M  V30 7256 O 692.638 0.694195 2.04963 0
M  V30 7257 C 693.233 3.38724 0.0719221 0
M  V30 7258 C 691.792 3.7331 0.481336 0
M  V30 7259 C 690.939 2.75313 -0.331329 0
M  V30 7260 H 693.89 1.44987 -0.645333 0
M  V30 7261 H 693.911 3.7011 0.883118 0
M  V30 7262 H 693.423 3.76532 -0.940495 0
M  V30 7263 H 691.524 3.41088 1.49966 0
M  V30 7264 H 691.637 4.78631 0.211837 0
M  V30 7265 H 690.001 2.53839 0.209204 0
M  V30 7266 H 690.784 3.15963 -1.34247 0
M  V30 7267 N 693.229 0.160201 1.56784 0
M  V30 7268 C 694.179 -0.786461 2.14007 0
M  V30 7269 C 695.163 -1.20046 1.07134 0
M  V30 7270 O 696.355 -1.16468 1.33283 0
M  V30 7271 C 693.484 -2.02024 2.77563 0
M  V30 7272 C 692.57 -1.62874 3.91578 0
M  V30 7273 N 692.961 -0.946176 4.96871 0
M  V30 7274 C 691.259 -1.92054 4.02531 0
M  V30 7275 C 691.96 -0.755084 5.76778 0
M  V30 7276 N 690.936 -1.29307 5.27997 0
M  V30 7277 H 694.738 -0.255879 2.92784 0
M  V30 7278 H 692.252 -0.0408778 1.62349 0
M  V30 7279 H 694.249 -2.70855 3.16928 0
M  V30 7280 H 692.909 -2.55587 2.00263 0
M  V30 7281 H 693.92 -0.605455 5.14349 0
M  V30 7282 H 690.597 -2.47374 3.36322 0
M  V30 7283 H 691.987 -0.216138 6.71552 0
M  V30 7284 N 694.707 -1.5719 -0.113559 0
M  V30 7285 C 695.953 -1.85412 -0.821597 0
M  V30 7286 C 696.286 -0.746722 -1.7927 0
M  V30 7287 O 695.561 0.246971 -1.92926 0
M  V30 7288 C 695.844 -3.24233 -1.56669 0
M  V30 7289 C 695.697 -4.45578 -0.614823 0
M  V30 7290 C 697.016 -3.60697 -2.52161 0
M  V30 7291 H 694.135 -0.674406 -0.29723 0
M  V30 7292 H 696.777 -1.89807 -0.085694 0
M  V30 7293 H 694.927 -3.20617 -2.19401 0
M  V30 7294 H 696.599 -4.613 0.00407137 0
M  V30 7295 H 694.842 -4.33738 0.0732332 0
M  V30 7296 H 695.513 -5.39395 -1.17292 0
M  V30 7297 H 697.989 -3.65139 -1.99532 0
M  V30 7298 H 696.865 -4.58798 -3.01323 0
M  V30 7299 H 697.126 -2.88403 -3.35076 0
M  V30 7300 N 696.185 0.383891 -1.52853 0
M  V30 7301 C 697.601 0.724316 -1.42218 0
M  V30 7302 C 697.801 1.93943 -0.546654 0
M  V30 7303 O 696.857 2.5249 -0.0220562 0
M  V30 7304 C 698.17 0.954635 -2.85144 0
M  V30 7305 C 699.718 1.05579 -2.94656 0
M  V30 7306 C 700.193 1.3187 -4.38605 0
M  V30 7307 N 701.684 1.38681 -4.41952 0
M  V30 7308 C 702.419 1.60699 -5.50421 0
M  V30 7309 N 701.915 1.80154 -6.68967 0
M  V30 7310 N 703.708 1.6292 -5.37972 0
M  V30 7311 H 695.859 -0.4156 -2.08294 0
M  V30 7312 H 698.122 -0.123776 -0.939885 0
M  V30 7313 H 697.828 0.133829 -3.51445 0
M  V30 7314 H 697.702 1.86788 -3.27704 0
M  V30 7315 H 700.089 1.86716 -2.2852 0
M  V30 7316 H 700.17 0.120338 -2.55517 0
M  V30 7317 H 699.814 0.512416 -5.05309 0
M  V30 7318 H 699.744 2.26708 -4.75301 0
M  V30 7319 H 702.235 1.25334 -3.56511 0
M  V30 7320 H 702.548 1.96476 -7.47407 0
M  V30 7321 H 700.893 1.77368 -6.71986 0
M  V30 7322 H 704.084 1.47276 -4.44328 0
M  V30 7323 H 704.257 1.79739 -6.22574 0
M  V30 7324 N 697.663 1.43903 0.642637 0
M  V30 7325 C 699.079 1.27536 0.959519 0
M  V30 7326 C 699.279 0.202751 2.00477 0
M  V30 7327 O 698.335 -0.415256 2.49062 0
M  V30 7328 C 699.648 2.6432 1.43372 0
M  V30 7329 C 701.196 2.71937 1.54981 0
M  V30 7330 C 701.671 4.09164 2.05789 0
M  V30 7331 N 703.162 4.11282 2.13076 0
M  V30 7332 C 703.897 5.14303 2.53534 0
M  V30 7333 N 703.393 6.27693 2.93212 0
M  V30 7334 N 705.186 5.01657 2.53567 0
M  V30 7335 H 697.337 2.12344 -0.0488376 0
M  V30 7336 H 699.6 0.947124 0.0407559 0
M  V30 7337 H 699.306 3.43826 0.740048 0
M  V30 7338 H 699.18 2.90432 2.40685 0
M  V30 7339 H 701.567 1.92757 2.23448 0
M  V30 7340 H 701.648 2.49578 0.560739 0
M  V30 7341 H 701.292 4.88815 1.37921 0
M  V30 7342 H 701.222 4.28893 3.05546 0
M  V30 7343 H 703.713 3.2944 1.85143 0
M  V30 7344 H 704.026 7.02125 3.22863 0
M  V30 7345 H 702.371 6.31149 2.90991 0
M  V30 7346 H 705.562 4.12134 2.21952 0
M  V30 7347 H 705.735 5.82072 2.84774 0
M  V30 7348 N 699.141 -0.881989 1.30609 0
M  V30 7349 C 700.557 -1.16576 1.09005 0
M  V30 7350 C 700.757 -2.00961 -0.14727 0
M  V30 7351 O 699.813 -2.38117 -0.840036 0
M  V30 7352 C 701.126 -1.86954 2.35518 0
M  V30 7353 C 702.674 -1.99706 2.41011 0
M  V30 7354 C 703.149 -2.73497 3.67374 0
M  V30 7355 N 704.64 -2.8104 3.68199 0
M  V30 7356 C 705.375 -3.38718 4.62664 0
M  V30 7357 N 704.871 -3.97421 5.67475 0
M  V30 7358 N 706.664 -3.36561 4.50203 0
M  V30 7359 H 698.815 -0.319398 2.09985 0
M  V30 7360 H 701.078 -0.204058 0.925778 0
M  V30 7361 H 700.784 -1.32393 3.2583 0
M  V30 7362 H 700.658 -2.87317 2.44395 0
M  V30 7363 H 703.045 -2.53436 1.51176 0
M  V30 7364 H 703.126 -0.984218 2.36108 0
M  V30 7365 H 702.77 -2.20438 4.57569 0
M  V30 7366 H 702.7 -3.75163 3.6954 0
M  V30 7367 H 705.191 -2.39365 2.92426 0
M  V30 7368 H 705.504 -4.39507 6.35652 0
M  V30 7369 H 703.849 -3.95832 5.71264 0
M  V30 7370 H 707.04 -2.8993 3.67503 0
M  V30 7371 H 707.213 -3.81215 5.24003 0
M  V30 7372 N 700.619 -1.13374 -1.09472 0
M  V30 7373 C 702.035 -0.871846 -1.33682 0
M  V30 7374 C 702.235 0.492847 -1.9538 0
M  V30 7375 O 701.291 1.23946 -2.19985 0
M  V30 7376 C 702.604 -1.99608 -2.24893 0
M  V30 7377 C 704.152 -2.02812 -2.38404 0
M  V30 7378 C 704.627 -3.14497 -3.3295 0
M  V30 7379 N 706.118 -3.14004 -3.40523 0
M  V30 7380 C 706.853 -3.97061 -4.13679 0
M  V30 7381 N 706.349 -4.90131 -4.89636 0
M  V30 7382 N 708.142 -3.85162 -4.09398 0
M  V30 7383 H 700.293 -2.01288 -0.677995 0
M  V30 7384 H 702.556 -0.876492 -0.361201 0
M  V30 7385 H 702.262 -2.98 -1.86786 0
M  V30 7386 H 702.136 -1.90981 -3.25278 0
M  V30 7387 H 704.523 -1.05034 -2.75775 0
M  V30 7388 H 704.604 -2.15511 -1.37799 0
M  V30 7389 H 704.248 -4.12514 -2.96302 0
M  V30 7390 H 704.178 -2.99035 -4.33458 0
M  V30 7391 H 706.669 -2.46587 -2.86362 0
M  V30 7392 H 706.982 -5.49996 -5.42885 0
M  V30 7393 H 705.327 -4.94138 -4.88726 0
M  V30 7394 H 708.518 -3.11779 -3.49158 0
M  V30 7395 H 708.691 -4.5012 -4.6615 0
M  V30 7396 N 702.098 1.27442 -0.927168 0
M  V30 7397 C 703.346 1.94007 -0.566203 0
M  V30 7398 C 703.667 1.7323 0.895345 0
M  V30 7399 O 702.937 1.07973 1.63459 0
M  V30 7400 H 701.517 0.717917 -0.206409 0
M  V30 7401 H 704.179 1.55161 -1.17945 0
M  V30 7402 H 703.275 3.02401 -0.772028 0
M  V30 7403 N 703.576 0.692616 1.41565 0
M  V30 7404 C 704.804 0.231279 2.05603 0
M  V30 7405 C 705.219 -1.11837 1.52111 0
M  V30 7406 O 704.576 -1.6983 0.66813 0
M  V30 7407 C 704.627 0.177125 3.61066 0
M  V30 7408 O 704.348 1.47346 4.12578 0
M  V30 7409 C 705.849 -0.30556 4.42246 0
M  V30 7410 H 703.069 0.108238 0.662213 0
M  V30 7411 H 705.613 0.944369 1.81389 0
M  V30 7412 H 703.768 -0.486769 3.8433 0
M  V30 7413 H 704.182 1.35861 5.06599 0
M  V30 7414 H 705.656 -0.29233 5.51225 0
M  V30 7415 H 706.133 -1.34393 4.18133 0
M  V30 7416 H 706.739 0.327229 4.24039 0
M  V30 7417 N 705.054 -1.51416 0.437162 0
M  V30 7418 C 706.301 -2.02086 -0.129364 0
M  V30 7419 C 706.629 -1.32133 -1.42728 0
M  V30 7420 O 705.884 -0.424916 -1.91031 0
M  V30 7421 C 706.183 -3.55203 -0.39564 0
M  V30 7422 C 705.849 -4.43447 0.81644 0
M  V30 7423 C 704.511 -4.67285 1.14884 0
M  V30 7424 C 706.863 -4.95219 1.62503 0
M  V30 7425 C 704.191 -5.40141 2.29052 0
M  V30 7426 C 706.543 -5.69327 2.7577 0
M  V30 7427 C 705.207 -5.91429 3.09464 0
M  V30 7428 H 704.477 -0.739486 -0.0473375 0
M  V30 7429 H 707.124 -1.82368 0.584321 0
M  V30 7430 H 705.429 -3.73252 -1.19121 0
M  V30 7431 H 707.126 -3.91944 -0.847399 0
M  V30 7432 H 703.716 -4.2509 0.547422 0
M  V30 7433 H 707.9 -4.76686 1.38144 0
M  V30 7434 H 703.156 -5.55468 2.55471 0
M  V30 7435 H 707.33 -6.08433 3.38795 0
M  V30 7436 H 704.957 -6.47662 3.98042 0
M  V30 7437 N 706.532 -0.168513 -1.56696 0
M  V30 7438 C 707.479 0.762875 -2.17828 0
M  V30 7439 C 708.449 1.22892 -1.11745 0
M  V30 7440 O 709.634 1.29759 -1.39883 0
M  V30 7441 C 706.774 1.9879 -2.82093 0
M  V30 7442 C 705.887 1.56568 -4.02629 0
M  V30 7443 C 705.022 2.74416 -4.54829 0
M  V30 7444 C 704.061 2.28671 -5.67782 0
M  V30 7445 N 703.198 3.39602 -6.14504 0
M  V30 7446 H 708.038 0.23479 -2.97074 0
M  V30 7447 H 705.575 0.104163 -1.46731 0
M  V30 7448 H 707.533 2.70636 -3.17509 0
M  V30 7449 H 706.163 2.48973 -2.05456 0
M  V30 7450 H 705.215 0.744067 -3.73052 0
M  V30 7451 H 706.527 1.18988 -4.844 0
M  V30 7452 H 705.681 3.54423 -4.92412 0
M  V30 7453 H 704.42 3.15254 -3.7211 0
M  V30 7454 H 703.425 1.4711 -5.29753 0
M  V30 7455 H 704.65 1.88894 -6.52301 0
M  V30 7456 H 702.596 3.80021 -5.34715 0
M  V30 7457 H 702.513 3.06105 -6.91257 0
M  V30 7458 H 703.781 4.19902 -6.56737 0
M  V30 7459 N 708.01 1.57248 0.105221 0
M  V30 7460 C 709.426 1.52853 0.459153 0
M  V30 7461 C 709.626 0.883674 1.8109 0
M  V30 7462 O 708.682 0.471864 2.48052 0
M  V30 7463 C 709.995 2.97596 0.43096 0
M  V30 7464 C 711.543 3.08758 0.513536 0
M  V30 7465 C 712.018 4.55089 0.515593 0
M  V30 7466 N 713.509 4.59597 0.576639 0
M  V30 7467 C 714.244 5.70253 0.599904 0
M  V30 7468 N 713.74 6.90368 0.579985 0
M  V30 7469 N 715.533 5.58399 0.643953 0
M  V30 7470 H 707.684 1.97547 -0.780306 0
M  V30 7471 H 709.947 0.902758 -0.289363 0
M  V30 7472 H 709.653 3.48201 -0.494903 0
M  V30 7473 H 709.527 3.55756 1.2537 0
M  V30 7474 H 711.914 2.58148 1.42982 0
M  V30 7475 H 711.995 2.53568 -0.337148 0
M  V30 7476 H 711.639 5.06348 -0.396701 0
M  V30 7477 H 711.569 5.08105 1.38335 0
M  V30 7478 H 714.06 3.73144 0.597639 0
M  V30 7479 H 714.373 7.70462 0.600741 0
M  V30 7480 H 712.718 6.92843 0.547191 0
M  V30 7481 H 715.909 4.63467 0.656975 0
M  V30 7482 H 716.082 6.44644 0.658616 0
M  V30 7483 N 709.488 -0.375779 1.53054 0
M  V30 7484 C 710.713 -1.14484 1.7294 0
M  V30 7485 C 711.138 -1.82572 0.452668 0
M  V30 7486 O 710.496 -1.71343 -0.592567 0
M  V30 7487 C 710.544 -2.15857 2.88857 0
M  V30 7488 O 709.648 -3.22725 2.56753 0
M  V30 7489 H 708.989 -0.332666 0.574656 0
M  V30 7490 H 711.519 -0.436025 1.999 0
M  V30 7491 H 711.529 -2.59631 3.14731 0
M  V30 7492 H 710.204 -1.65689 3.81471 0
M  V30 7493 H 708.781 -2.83996 2.41663 0
M  V30 7494 N 710.966 -1.44241 -0.634997 0
M  V30 7495 C 711.913 -1.5081 -1.74714 0
M  V30 7496 C 712.883 -0.356147 -1.62237 0
M  V30 7497 O 714.068 -0.565848 -1.82216 0
M  V30 7498 C 711.208 -1.45458 -3.12947 0
M  V30 7499 C 710.321 -2.70998 -3.36428 0
M  V30 7500 C 709.456 -2.57507 -4.64611 0
M  V30 7501 C 708.495 -3.78229 -4.81258 0
M  V30 7502 N 707.632 -3.63438 -6.00714 0
M  V30 7503 H 712.472 -2.45832 -1.68436 0
M  V30 7504 H 710.009 -1.2201 -0.821706 0
M  V30 7505 H 711.967 -1.40347 -3.92885 0
M  V30 7506 H 710.597 -0.540058 -3.1825 0
M  V30 7507 H 709.649 -2.86312 -2.50458 0
M  V30 7508 H 710.961 -3.60619 -3.44609 0
M  V30 7509 H 710.115 -2.50207 -5.52703 0
M  V30 7510 H 708.854 -1.65441 -4.58782 0
M  V30 7511 H 707.859 -3.85918 -3.91596 0
M  V30 7512 H 709.084 -4.71327 -4.88904 0
M  V30 7513 H 707.03 -2.7412 -5.95982 0
M  V30 7514 H 706.947 -4.46672 -6.09934 0
M  V30 7515 H 708.215 -3.60022 -6.91378 0
M  V30 7516 N 712.444 0.87505 -1.31075 0
M  V30 7517 C 713.374 1.99775 -1.20881 0
M  V30 7518 C 714.355 1.69822 -0.0971612 0
M  V30 7519 O 715.54 1.92158 -0.280895 0
M  V30 7520 C 712.67 3.35163 -0.910118 0
M  V30 7521 C 711.624 3.79406 -1.98078 0
M  V30 7522 C 710.95 5.12197 -1.53488 0
M  V30 7523 C 712.25 3.97061 -3.39323 0
M  V30 7524 H 713.944 2.08562 -2.14808 0
M  V30 7525 H 711.49 1.00207 -1.03415 0
M  V30 7526 H 713.443 4.13237 -0.825423 0
M  V30 7527 H 712.167 3.26536 0.064822 0
M  V30 7528 H 710.826 3.03568 -2.05528 0
M  V30 7529 H 710.474 5.00007 -0.547941 0
M  V30 7530 H 710.174 5.4277 -2.2511 0
M  V30 7531 H 711.698 5.92785 -1.46417 0
M  V30 7532 H 713.112 4.65545 -3.34576 0
M  V30 7533 H 711.509 4.39025 -4.09118 0
M  V30 7534 H 712.579 3.00601 -3.80483 0
M  V30 7535 N 713.922 1.13953 1.08869 0
M  V30 7536 C 715.338 0.878924 1.33218 0
M  V30 7537 C 715.538 -0.482478 1.95638 0
M  V30 7538 O 714.594 -1.22778 2.2064 0
M  V30 7539 C 715.907 2.00798 2.23832 0
M  V30 7540 C 717.455 2.04073 2.37325 0
M  V30 7541 C 717.93 3.16258 3.31278 0
M  V30 7542 N 719.421 3.15805 3.38853 0
M  V30 7543 C 720.156 3.99249 4.11567 0
M  V30 7544 N 719.652 4.92721 4.87029 0
M  V30 7545 N 721.445 3.87327 4.0735 0
M  V30 7546 H 713.596 2.01645 0.66731 0
M  V30 7547 H 715.859 0.878395 0.356547 0
M  V30 7548 H 715.565 2.98986 1.85203 0
M  V30 7549 H 715.439 1.92704 3.24261 0
M  V30 7550 H 717.826 1.06495 2.75214 0
M  V30 7551 H 717.907 2.16239 1.36654 0
M  V30 7552 H 717.551 4.14079 2.9411 0
M  V30 7553 H 717.481 3.0133 4.31866 0
M  V30 7554 H 719.972 2.48102 2.8505 0
M  V30 7555 H 720.285 5.52867 5.39961 0
M  V30 7556 H 718.63 4.96723 4.86098 0
M  V30 7557 H 721.821 3.13627 3.475 0
M  V30 7558 H 721.994 4.52585 4.63757 0
M  V30 7559 N 715.4 -1.26948 0.933913 0
M  V30 7560 C 716.363 -2.24889 0.442457 0
M  V30 7561 C 717.363 -1.54594 -0.442426 0
M  V30 7562 O 718.553 -1.72502 -0.242629 0
M  V30 7563 C 715.685 -3.3896 -0.363173 0
M  V30 7564 H 716.878 -2.69879 1.30787 0
M  V30 7565 H 714.431 -1.38978 0.715187 0
M  V30 7566 H 715.166 -2.99361 -1.24714 0
M  V30 7567 H 714.951 -3.9116 0.271366 0
M  V30 7568 H 716.441 -4.11739 -0.697186 0
M  V30 7569 N 716.879 -0.700114 -1.41195 0
M  V30 7570 C 718.295 -0.372114 -1.55201 0
M  V30 7571 C 718.495 1.12053 -1.6747 0
M  V30 7572 O 717.551 1.90642 -1.65566 0
M  V30 7573 C 718.864 -1.12462 -2.78878 0
M  V30 7574 C 720.412 -1.10941 -2.92679 0
M  V30 7575 C 720.887 -1.84376 -4.19249 0
M  V30 7576 N 722.378 -1.81368 -4.26216 0
M  V30 7577 C 723.113 -2.35024 -5.23021 0
M  V30 7578 N 722.609 -2.9717 -6.25829 0
M  V30 7579 N 724.402 -2.25254 -5.14992 0
M  V30 7580 H 716.553 -1.66816 -1.31477 0
M  V30 7581 H 718.816 -0.704223 -0.634644 0
M  V30 7582 H 718.522 -2.17937 -2.76037 0
M  V30 7583 H 718.396 -0.706152 -3.70531 0
M  V30 7584 H 720.783 -0.062911 -2.95033 0
M  V30 7585 H 720.864 -1.56698 -2.02187 0
M  V30 7586 H 720.508 -2.89008 -4.17656 0
M  V30 7587 H 720.438 -1.3605 -5.08722 0
M  V30 7588 H 722.929 -1.36062 -3.52556 0
M  V30 7589 H 723.242 -3.35668 -6.96094 0
M  V30 7590 H 721.587 -3.01249 -6.26318 0
M  V30 7591 H 724.778 -1.76372 -4.33602 0
M  V30 7592 H 724.951 -2.67373 -5.90268 0
M  V30 7593 N 718.357 1.51182 -0.445186 0
M  V30 7594 C 719.634 1.9478 0.178965 0
M  V30 7595 C 720.014 1.38428 1.59376 0
M  V30 7596 O 719.362 0.574552 2.21159 0
M  V30 7597 C 719.572 3.48683 0.148711 0
M  V30 7598 C 720.92 4.23152 0.35042 0
M  V30 7599 O 721.944 3.55479 0.226474 0
M  V30 7600 O 720.803 5.4322 0.597893 0
M  V30 7601 H 717.897 0.817387 0.12573 0
M  V30 7602 H 720.443 1.62051 -0.503729 0
M  V30 7603 H 719.215 3.82176 -0.84009 0
M  V30 7604 H 718.838 3.87875 0.873979 0
M  V30 7605 N 719.835 0.176821 1.56605 0
M  V30 7606 C 721.083 -0.465793 1.96659 0
M  V30 7607 C 721.404 -1.63406 1.06412 0
M  V30 7608 O 720.674 -1.95457 0.131603 0
M  V30 7609 H 719.254 -0.175072 0.726195 0
M  V30 7610 H 721.916 0.25929 1.93168 0
M  V30 7611 H 721.012 -0.822138 3.01077 0
M  V30 7612 N 721.313 -1.57302 -0.09688 0
M  V30 7613 C 722.561 -1.8563 -0.799117 0
M  V30 7614 C 722.882 -0.765263 -1.79356 0
M  V30 7615 O 722.152 0.208657 -1.94786 0
M  V30 7616 H 720.732 -0.684937 -0.298111 0
M  V30 7617 H 723.394 -1.9474 -0.0789341 0
M  V30 7618 H 722.49 -2.82305 -1.3308 0
M  V30 7619 N 722.791 0.367657 -1.53252 0
M  V30 7620 C 723.701 1.47415 -1.82499 0
M  V30 7621 C 724.717 1.58711 -0.713222 0
M  V30 7622 O 725.893 1.74644 -1.00306 0
M  V30 7623 C 722.958 2.82706 -2.00694 0
M  V30 7624 C 722.019 2.80955 -3.24596 0
M  V30 7625 C 721.252 4.09793 -3.41914 0
M  V30 7626 O 721.475 5.05852 -2.63572 0
M  V30 7627 O 720.409 4.15731 -4.3526 0
M  V30 7628 H 724.235 1.25624 -2.765 0
M  V30 7629 H 721.82 0.557559 -1.38606 0
M  V30 7630 H 723.702 3.62873 -2.14246 0
M  V30 7631 H 722.377 3.04479 -1.09883 0
M  V30 7632 H 721.284 1.99494 -3.16469 0
M  V30 7633 H 722.617 2.64136 -4.15323 0
M  V30 7634 N 724.269 1.44576 0.627338 0
M  V30 7635 C 725.685 1.28546 0.945938 0
M  V30 7636 C 725.885 0.224003 2.00251 0
M  V30 7637 O 724.941 -0.388817 2.49488 0
M  V30 7638 C 726.254 2.65825 1.40561 0
M  V30 7639 C 727.802 2.73566 1.52088 0
M  V30 7640 C 728.277 4.11323 2.01438 0
M  V30 7641 N 729.768 4.13519 2.08702 0
M  V30 7642 C 730.503 5.16964 2.48065 0
M  V30 7643 N 729.999 6.30768 2.86538 0
M  V30 7644 N 731.792 5.04319 2.48232 0
M  V30 7645 H 723.943 2.1228 -0.0713567 0
M  V30 7646 H 726.206 0.947503 0.0307081 0
M  V30 7647 H 725.912 3.44591 0.703539 0
M  V30 7648 H 725.786 2.92969 2.37591 0
M  V30 7649 H 728.173 1.95116 2.21391 0
M  V30 7650 H 728.254 2.50159 0.534237 0
M  V30 7651 H 727.898 4.9025 1.32729 0
M  V30 7652 H 727.828 4.32109 3.0098 0
M  V30 7653 H 730.319 3.31385 1.81638 0
M  V30 7654 H 730.632 7.0551 3.15398 0
M  V30 7655 H 728.977 6.342 2.84281 0
M  V30 7656 H 732.168 4.14465 2.17569 0
M  V30 7657 H 732.341 5.85059 2.78585 0
M  V30 7658 N 725.747 -0.868086 1.31537 0
M  V30 7659 C 726.996 -1.61607 1.20689 0
M  V30 7660 C 727.309 -1.94204 -0.233275 0
M  V30 7661 O 728.515 -2.67515 -0.463465 0
M  V30 7662 C 726.971 -2.91348 2.11292 0
M  V30 7663 C 726.579 -2.66227 3.60315 0
M  V30 7664 C 728.323 -3.69344 2.09249 0
M  V30 7665 C 726.23 -3.91887 4.42921 0
M  V30 7666 H 725.16 -0.606373 0.448138 0
M  V30 7667 H 727.811 -0.959666 1.56405 0
M  V30 7668 H 726.193 -3.58374 1.68477 0
M  V30 7669 H 727.367 -2.07597 4.11388 0
M  V30 7670 H 725.682 -2.01582 3.64354 0
M  V30 7671 H 728.279 -4.62567 2.68209 0
M  V30 7672 H 728.622 -4.02044 1.0801 0
M  V30 7673 H 729.155 -3.09205 2.50274 0
M  V30 7674 H 725.894 -3.64336 5.44922 0
M  V30 7675 H 725.414 -4.49961 3.96605 0
M  V30 7676 H 727.093 -4.59754 4.55231 0
M  V30 7677 N 727.225 -1.14528 -1.08264 0
M  V30 7678 C 728.45 -0.938381 -1.84957 0
M  V30 7679 C 728.875 0.508044 -1.81109 0
M  V30 7680 O 728.233 1.36146 -1.19724 0
M  V30 7681 C 728.281 -1.44568 -3.30352 0
M  V30 7682 O 727.385 -0.638745 -4.07423 0
M  V30 7683 H 726.726 -0.335394 -0.573068 0
M  V30 7684 H 729.256 -1.52287 -1.36637 0
M  V30 7685 H 729.266 -1.45449 -3.81194 0
M  V30 7686 H 727.941 -2.49876 -3.32468 0
M  V30 7687 H 726.518 -0.698801 -3.66294 0
M  V30 7688 N 728.703 1.26451 -0.940633 0
M  V30 7689 C 729.636 2.24771 -0.394094 0
M  V30 7690 C 730.614 1.54169 0.516781 0
M  V30 7691 O 731.798 1.82942 0.454352 0
M  V30 7692 C 728.925 3.3591 0.433807 0
M  V30 7693 C 727.971 4.24472 -0.415464 0
M  V30 7694 S 728.804 5.0293 -1.83907 0
M  V30 7695 C 729.96 6.17546 -1.01921 0
M  V30 7696 H 730.193 2.70782 -1.22737 0
M  V30 7697 H 727.726 1.35308 -0.743709 0
M  V30 7698 H 729.684 4.00387 0.905576 0
M  V30 7699 H 728.345 2.88512 1.24175 0
M  V30 7700 H 727.538 5.03525 0.218833 0
M  V30 7701 H 727.14 3.64857 -0.821897 0
M  V30 7702 H 729.432 6.76996 -0.261227 0
M  V30 7703 H 730.375 6.8528 -1.78318 0
M  V30 7704 H 730.783 5.6176 -0.555511 0
M  V30 7705 N 730.181 0.707592 1.40822 0
M  V30 7706 C 731.592 0.317011 1.83989 0
M  V30 7707 C 731.943 -1.14697 1.59182 0
M  V30 7708 O 731.068 -1.8818 1.06852 0
M  V30 7709 C 731.663 0.568593 3.33995 0
M  V30 7710 C 730.222 0.231804 3.75686 0
M  V30 7711 C 729.369 0.844933 2.64114 0
M  V30 7712 H 732.32 0.907349 1.30203 0
M  V30 7713 H 732.341 -0.168798 3.80125 0
M  V30 7714 H 731.853 1.63417 3.52018 0
M  V30 7715 H 729.954 -0.82903 3.6326 0
M  V30 7716 H 730.067 0.695219 4.74029 0
M  V30 7717 H 728.431 0.273588 2.53226 0
M  V30 7718 H 729.214 1.91462 2.84951 0
M  V30 7719 N 731.66 -1.50943 0.453197 0
M  V30 7720 C 732.59 -2.31005 -0.34044 0
M  V30 7721 C 733.571 -1.37112 -1.00669 0
M  V30 7722 O 734.756 -1.66033 -1.0073 0
M  V30 7723 C 731.886 -3.16358 -1.433 0
M  V30 7724 C 730.84 -4.18658 -0.889363 0
M  V30 7725 C 730.166 -4.92633 -2.07887 0
M  V30 7726 C 731.466 -5.22227 0.0871142 0
M  V30 7727 H 733.16 -2.97601 0.327723 0
M  V30 7728 H 730.706 -1.43119 0.159054 0
M  V30 7729 H 732.659 -3.71155 -1.99555 0
M  V30 7730 H 731.383 -2.47613 -2.12968 0
M  V30 7731 H 730.042 -3.64936 -0.348915 0
M  V30 7732 H 729.69 -4.20376 -2.76211 0
M  V30 7733 H 729.39 -5.61819 -1.72143 0
M  V30 7734 H 730.914 -5.50258 -2.64666 0
M  V30 7735 H 732.328 -5.72001 -0.385656 0
M  V30 7736 H 730.725 -5.99032 0.357926 0
M  V30 7737 H 731.795 -4.74077 1.01879 0
M  V30 7738 N 733.138 -0.185124 -1.56509 0
M  V30 7739 C 734.415 0.503348 -1.89013 0
M  V30 7740 C 734.795 1.80349 -1.09715 0
M  V30 7741 O 734.143 2.27665 -0.195203 0
M  V30 7742 C 734.353 0.731839 -3.41241 0
M  V30 7743 C 735.701 1.05568 -4.11267 0
M  V30 7744 O 736.725 0.819906 -3.46635 0
M  V30 7745 O 735.584 1.50116 -5.25478 0
M  V30 7746 H 732.678 0.261139 -0.784688 0
M  V30 7747 H 735.224 -0.224592 -1.68207 0
M  V30 7748 H 733.996 -0.18672 -3.90854 0
M  V30 7749 H 733.619 1.5126 -3.67704 0
M  V30 7750 N 734.616 1.57351 0.0885366 0
M  V30 7751 C 735.863 1.86419 0.790824 0
M  V30 7752 C 736.191 0.774561 1.78412 0
M  V30 7753 O 735.446 -0.23119 1.9433 0
M  V30 7754 C 735.745 3.22098 1.5488 0
M  V30 7755 C 735.411 4.4548 0.697025 0
M  V30 7756 C 734.073 4.78975 0.462237 0
M  V30 7757 C 736.425 5.21094 0.105315 0
M  V30 7758 C 733.753 5.85507 -0.374016 0
M  V30 7759 C 736.105 6.28509 -0.718298 0
M  V30 7760 C 734.769 6.60515 -0.963116 0
M  V30 7761 H 734.039 0.682157 0.289383 0
M  V30 7762 H 736.686 1.91429 0.0520961 0
M  V30 7763 H 734.991 3.12803 2.35927 0
M  V30 7764 H 736.688 3.41819 2.09669 0
M  V30 7765 H 733.278 4.19255 0.890137 0
M  V30 7766 H 737.462 4.95544 0.273856 0
M  V30 7767 H 732.718 6.08713 -0.572606 0
M  V30 7768 H 736.892 6.86268 -1.18362 0
M  V30 7769 H 734.519 7.42893 -1.6129 0
M  V30 7770 N 736.094 -0.359525 1.53444 0
M  V30 7771 C 737.041 -1.44073 1.8031 0
M  V30 7772 C 738.011 -1.52946 0.647811 0
M  V30 7773 O 739.196 -1.68739 0.890614 0
M  V30 7774 C 736.336 -2.80941 2.00416 0
M  V30 7775 C 735.449 -2.80986 3.28132 0
M  V30 7776 C 734.584 -4.09468 3.38393 0
M  V30 7777 C 733.623 -4.03679 4.60119 0
M  V30 7778 N 732.76 -5.23821 4.675 0
M  V30 7779 H 737.6 -1.20464 2.72566 0
M  V30 7780 H 735.137 -0.583859 1.35017 0
M  V30 7781 H 737.095 -3.60459 2.1006 0
M  V30 7782 H 735.725 -3.02936 1.11489 0
M  V30 7783 H 734.777 -1.93666 3.27411 0
M  V30 7784 H 736.089 -2.72583 4.17732 0
M  V30 7785 H 735.243 -4.97404 3.47382 0
M  V30 7786 H 733.982 -4.20632 2.4682 0
M  V30 7787 H 732.987 -3.14129 4.51224 0
M  V30 7788 H 734.212 -3.94112 5.5304 0
M  V30 7789 H 732.158 -5.35559 3.7883 0
M  V30 7790 H 732.075 -5.17611 5.51013 0
M  V30 7791 H 733.343 -6.13572 4.8078 0
M  V30 7792 N 737.572 -1.44907 -0.619662 0
M  V30 7793 C 738.522 -1.49085 -1.72504 0
M  V30 7794 C 739.506 -0.355372 -1.56926 0
M  V30 7795 O 740.698 -0.601441 -1.66468 0
M  V30 7796 C 737.827 -1.44889 -3.11227 0
M  V30 7797 C 736.913 -2.63593 -3.32234 0
M  V30 7798 N 737.304 -3.88775 -3.23555 0
M  V30 7799 C 735.602 -2.59033 -3.63067 0
M  V30 7800 C 736.303 -4.67932 -3.45564 0
M  V30 7801 N 735.279 -3.9919 -3.68983 0
M  V30 7802 H 739.081 -2.43706 -1.6427 0
M  V30 7803 H 736.595 -1.4003 -0.82252 0
M  V30 7804 H 738.592 -1.45966 -3.90512 0
M  V30 7805 H 737.252 -0.513143 -3.2062 0
M  V30 7806 H 738.263 -4.20574 -3.02221 0
M  V30 7807 H 734.94 -1.7431 -3.79371 0
M  V30 7808 H 736.33 -5.76952 -3.44349 0
M  V30 7809 N 739.05 0.861098 -1.31996 0
M  V30 7810 C 740.466 1.14827 -1.10846 0
M  V30 7811 C 740.666 2.0117 0.11528 0
M  V30 7812 O 739.722 2.39423 0.802048 0
M  V30 7813 C 741.035 1.83183 -2.38462 0
M  V30 7814 C 742.583 1.95847 -2.44158 0
M  V30 7815 C 743.058 2.67617 -3.71679 0
M  V30 7816 N 744.549 2.75147 -3.72624 0
M  V30 7817 C 745.284 3.31314 -4.67994 0
M  V30 7818 N 744.78 3.88343 -5.73726 0
M  V30 7819 N 746.573 3.29356 -4.55501 0
M  V30 7820 H 738.724 0.285951 -2.10466 0
M  V30 7821 H 740.987 0.189303 -0.928907 0
M  V30 7822 H 740.693 1.27193 -3.27895 0
M  V30 7823 H 740.567 2.83393 -2.48935 0
M  V30 7824 H 742.954 2.50999 -1.55189 0
M  V30 7825 H 743.035 0.94653 -2.37644 0
M  V30 7826 H 742.679 2.13131 -4.61018 0
M  V30 7827 H 742.609 3.69237 -3.75462 0
M  V30 7828 H 745.1 2.34682 -2.96197 0
M  V30 7829 H 745.413 4.29338 -6.42564 0
M  V30 7830 H 743.758 3.86693 -5.77489 0
M  V30 7831 H 746.949 2.84047 -3.72069 0
M  V30 7832 H 747.122 3.7283 -5.30001 0
M  V30 7833 N 740.528 1.15101 1.07655 0
M  V30 7834 C 741.777 0.918528 1.79572 0
M  V30 7835 C 742.09 -0.555922 1.87534 0
M  V30 7836 O 743.296 -0.905893 2.55941 0
M  V30 7837 C 741.752 1.59394 3.22679 0
M  V30 7838 C 741.36 3.1052 3.22927 0
M  V30 7839 C 743.104 1.44289 3.99225 0
M  V30 7840 C 741.011 3.70862 4.60668 0
M  V30 7841 H 739.941 0.340006 0.672987 0
M  V30 7842 H 742.592 1.38079 1.20857 0
M  V30 7843 H 740.974 1.05936 3.81567 0
M  V30 7844 H 742.148 3.70708 2.737 0
M  V30 7845 H 740.463 3.25351 2.59876 0
M  V30 7846 H 743.06 1.86766 5.01022 0
M  V30 7847 H 743.403 0.389975 4.14469 0
M  V30 7848 H 743.936 1.94826 3.46825 0
M  V30 7849 H 740.675 4.7604 4.50628 0
M  V30 7850 H 740.195 3.15456 5.10145 0
M  V30 7851 H 741.874 3.71607 5.29639 0
M  V30 7852 N 742.006 -1.2595 0.947325 0
M  V30 7853 C 743.234 -1.97544 0.615127 0
M  V30 7854 C 743.649 -1.70484 -0.811221 0
M  V30 7855 O 743.006 -0.97662 -1.5417 0
M  V30 7856 C 743.057 -3.51236 0.855328 0
M  V30 7857 O 742.778 -3.77359 2.22558 0
M  V30 7858 C 744.279 -4.40066 0.534515 0
M  V30 7859 H 741.499 -0.629888 0.231263 0
M  V30 7860 H 744.043 -1.60308 1.26971 0
M  V30 7861 H 742.198 -3.8661 0.247266 0
M  V30 7862 H 742.612 -4.71857 2.29022 0
M  V30 7863 H 744.086 -5.46838 0.753168 0
M  V30 7864 H 744.563 -4.35982 -0.530701 0
M  V30 7865 H 745.169 -4.10245 1.12158 0
M  V30 7866 N 743.484 -0.715051 -1.40445 0
M  V30 7867 C 744.73 -0.254705 -2.01194 0
M  V30 7868 C 745.063 1.14894 -1.56567 0
M  V30 7869 O 744.338 1.77933 -0.785491 0
M  V30 7870 C 744.621 -0.334148 -3.58546 0
M  V30 7871 C 744.474 -1.77613 -4.13248 0
M  V30 7872 C 745.793 0.294968 -4.3911 0
M  V30 7873 H 742.912 -0.094025 -0.730978 0
M  V30 7874 H 745.554 -0.907449 -1.66929 0
M  V30 7875 H 743.704 0.221609 -3.87867 0
M  V30 7876 H 745.376 -2.38723 -3.94727 0
M  V30 7877 H 743.619 -2.30402 -3.67556 0
M  V30 7878 H 744.29 -1.78311 -5.22407 0
M  V30 7879 H 746.766 -0.178563 -4.15717 0
M  V30 7880 H 745.642 0.208934 -5.48502 0
M  V30 7881 H 745.903 1.37841 -4.20062 0
M  V30 7882 N 744.962 1.50701 -0.461195 0
M  V30 7883 C 745.894 2.26124 0.374244 0
M  V30 7884 C 746.907 1.31064 0.965715 0
M  V30 7885 O 748.096 1.56647 0.855801 0
M  V30 7886 C 745.196 3.01996 1.5379 0
M  V30 7887 C 744.369 4.24336 1.06101 0
M  V30 7888 C 743.428 4.82585 2.09756 0
M  V30 7889 O 742.454 5.43775 1.68219 0
M  V30 7890 N 743.656 4.68712 3.42475 0
M  V30 7891 H 746.421 2.9846 -0.2723 0
M  V30 7892 H 743.982 1.59256 -0.291415 0
M  V30 7893 H 745.974 3.37846 2.22806 0
M  V30 7894 H 744.544 2.32521 2.08933 0
M  V30 7895 H 743.764 3.93707 0.197085 0
M  V30 7896 H 745.052 5.03678 0.720156 0
M  V30 7897 H 744.45 4.20026 3.78938 0
M  V30 7898 H 743.007 5.08858 4.07317 0
M  V30 7899 N 746.441 0.193421 1.56409 0
M  V30 7900 C 747.404 -0.714371 2.17783 0
M  V30 7901 C 748.404 -1.1422 1.13183 0
M  V30 7902 O 749.594 -1.05557 1.38576 0
M  V30 7903 C 746.726 -1.97509 2.77855 0
M  V30 7904 H 747.919 -0.179714 2.99361 0
M  V30 7905 H 745.472 -0.0561944 1.56199 0
M  V30 7906 H 746.207 -2.5523 2.0007 0
M  V30 7907 H 745.992 -1.67706 3.54425 0
M  V30 7908 H 747.482 -2.62246 3.24987 0
M  V30 7909 N 747.919 -1.57396 -0.0801906 0
M  V30 7910 C 749.144 -1.91437 -0.797909 0
M  V30 7911 C 749.569 -0.789075 -1.70749 0
M  V30 7912 O 748.927 0.25857 -1.79447 0
M  V30 7913 C 748.975 -3.24402 -1.57467 0
M  V30 7914 O 748.079 -3.13043 -2.68473 0
M  V30 7915 H 747.42 -0.627109 -0.218243 0
M  V30 7916 H 749.95 -2.04537 -0.050949 0
M  V30 7917 H 749.96 -3.58072 -1.95571 0
M  V30 7918 H 748.635 -4.05884 -0.907229 0
M  V30 7919 H 747.212 -2.90915 -2.33287 0
M  V30 7920 N 749.397 0.351382 -1.53633 0
M  V30 7921 C 750.808 0.927429 -1.62036 0
M  V30 7922 C 751.159 1.89809 -0.496706 0
M  V30 7923 O 750.284 2.1313 0.374749 0
M  V30 7924 C 750.879 1.68886 -2.93706 0
M  V30 7925 C 749.438 2.21404 -3.04397 0
M  V30 7926 C 748.585 1.03075 -2.57431 0
M  V30 7927 H 751.536 0.129748 -1.58169 0
M  V30 7928 H 751.557 2.55116 -2.82305 0
M  V30 7929 H 751.069 0.982149 -3.75467 0
M  V30 7930 H 749.17 2.95274 -2.27253 0
M  V30 7931 H 749.283 2.48312 -4.09729 0
M  V30 7932 H 747.647 1.40188 -2.12649 0
M  V30 7933 H 748.43 0.338793 -3.41624 0
M  V30 7934 N 750.875 1.45233 0.611969 0
M  V30 7935 C 752.123 1.48727 1.36838 0
M  V30 7936 C 752.444 0.128616 1.94575 0
M  V30 7937 O 751.714 -0.84149 1.76906 0
M  V30 7938 H 750.294 0.547695 0.507976 0
M  V30 7939 H 752.956 1.81156 0.718925 0
M  V30 7940 H 752.052 2.2236 2.19003 0
M  V30 7941 N 752.353 -0.854086 1.3245 0
M  V30 7942 C 753.283 -1.97827 1.24044 0
M  V30 7943 C 754.264 -1.69646 0.124166 0
M  V30 7944 O 755.449 -1.91687 0.31143 0
M  V30 7945 C 752.579 -3.33673 0.963324 0
M  V30 7946 C 751.533 -3.76207 2.04089 0
M  V30 7947 C 750.859 -5.0969 1.61618 0
M  V30 7948 C 752.159 -3.91612 3.45597 0
M  V30 7949 H 753.853 -2.05118 2.18099 0
M  V30 7950 H 751.399 -0.985489 1.04996 0
M  V30 7951 H 753.352 -4.11871 0.891061 0
M  V30 7952 H 752.076 -3.26597 -0.0128649 0
M  V30 7953 H 750.735 -3.0026 2.10332 0
M  V30 7954 H 750.383 -4.99072 0.627418 0
M  V30 7955 H 750.083 -5.3912 2.33717 0
M  V30 7956 H 751.607 -5.90381 1.55829 0
M  V30 7957 H 753.021 -4.60163 3.4194 0
M  V30 7958 H 751.418 -4.3246 4.16051 0
M  V30 7959 H 752.488 -2.9451 3.85217 0
M  V30 7960 N 753.831 -1.1567 -1.07043 0
M  V30 7961 C 755.108 -0.843948 -1.76456 0
M  V30 7962 C 755.488 0.659806 -2.00524 0
M  V30 7963 O 754.836 1.60518 -1.62623 0
M  V30 7964 C 755.046 -1.65822 -3.0709 0
M  V30 7965 C 756.394 -1.8664 -3.8138 0
M  V30 7966 O 757.418 -1.62624 -3.1691 0
M  V30 7967 O 756.277 -2.26884 -4.97178 0
M  V30 7968 H 753.371 -0.310677 -0.766426 0
M  V30 7969 H 755.917 -1.26266 -1.1338 0
M  V30 7970 H 754.689 -2.67902 -2.85209 0
M  V30 7971 H 754.312 -1.23605 -3.77899 0
M  V30 7972 N 755.309 1.25446 -0.953992 0
M  V30 7973 C 756.725 1.4539 -0.658316 0
M  V30 7974 C 756.925 1.85607 0.784356 0
M  V30 7975 O 755.981 1.98568 1.55972 0
M  V30 7976 C 757.294 2.52643 -1.6307 0
M  V30 7977 C 758.842 2.66484 -1.64181 0
M  V30 7978 C 759.317 3.76921 -2.60182 0
M  V30 7979 N 760.808 3.84331 -2.58542 0
M  V30 7980 C 761.543 4.69271 -3.29503 0
M  V30 7981 N 761.039 5.58503 -4.09934 0
M  V30 7982 N 762.832 4.6323 -3.18393 0
M  V30 7983 H 754.983 0.976337 -1.8863 0
M  V30 7984 H 757.246 0.490343 -0.811337 0
M  V30 7985 H 756.952 2.29949 -2.66114 0
M  V30 7986 H 756.826 3.50547 -1.39271 0
M  V30 7987 H 759.213 2.88545 -0.618552 0
M  V30 7988 H 759.294 1.68982 -1.92038 0
M  V30 7989 H 758.938 3.55612 -3.62633 0
M  V30 7990 H 758.868 4.73906 -2.29609 0
M  V30 7991 H 761.359 3.20544 -2.0015 0
M  V30 7992 H 761.672 6.20241 -4.61 0
M  V30 7993 H 760.017 5.58214 -4.14032 0
M  V30 7994 H 763.208 3.92527 -2.5503 0
M  V30 7995 H 763.381 5.29204 -3.73961 0
M  V30 7996 N 756.787 0.722489 1.40064 0
M  V30 7997 C 758.203 0.396758 1.5459 0
M  V30 7998 C 758.403 -1.09375 1.69232 0
M  V30 7999 O 757.459 -1.87984 1.68578 0
M  V30 8000 C 758.772 1.16885 2.77053 0
M  V30 8001 C 760.32 1.15583 2.90877 0
M  V30 8002 C 760.795 1.91023 4.16262 0
M  V30 8003 N 762.286 1.88126 4.23276 0
M  V30 8004 C 763.021 2.43315 5.19216 0
M  V30 8005 N 762.517 3.07089 6.21022 0
M  V30 8006 N 764.31 2.33418 5.11344 0
M  V30 8007 H 756.461 1.68887 1.28806 0
M  V30 8008 H 758.724 0.714231 0.62336 0
M  V30 8009 H 758.43 2.22301 2.72534 0
M  V30 8010 H 758.304 0.765011 3.69361 0
M  V30 8011 H 760.691 0.10984 2.94896 0
M  V30 8012 H 760.772 1.59895 1.99668 0
M  V30 8013 H 760.416 2.95616 4.13006 0
M  V30 8014 H 760.346 1.44126 5.06493 0
M  V30 8015 H 762.837 1.41654 3.50346 0
M  V30 8016 H 763.15 3.467 6.90666 0
M  V30 8017 H 761.495 3.11175 6.21446 0
M  V30 8018 H 764.686 1.83248 4.30741 0
M  V30 8019 H 764.859 2.7673 5.85939 0
M  V30 8020 N 758.265 -1.50454 0.469181 0
M  V30 8021 C 759.681 -1.59124 0.123226 0
M  V30 8022 C 759.881 -1.47749 -1.37013 0
M  V30 8023 O 758.937 -1.335 -2.14322 0
M  V30 8024 C 760.25 -2.93101 0.67172 0
M  V30 8025 C 761.798 -3.06491 0.634978 0
M  V30 8026 C 762.273 -4.43041 1.16098 0
M  V30 8027 N 763.764 -4.49448 1.12031 0
M  V30 8028 C 764.499 -5.53491 1.49784 0
M  V30 8029 N 763.995 -6.64798 1.94976 0
M  V30 8030 N 765.788 -5.44025 1.41399 0
M  V30 8031 H 757.939 -1.56091 1.44046 0
M  V30 8032 H 760.202 -0.737564 0.59557 0
M  V30 8033 H 759.908 -3.06895 1.7178 0
M  V30 8034 H 759.782 -3.77027 0.114222 0
M  V30 8035 H 762.169 -2.92346 -0.402187 0
M  V30 8036 H 762.25 -2.24328 1.22926 0
M  V30 8037 H 761.894 -4.57935 2.19677 0
M  V30 8038 H 761.824 -5.23794 0.542939 0
M  V30 8039 H 764.315 -3.69575 0.788828 0
M  V30 8040 H 764.628 -7.40246 2.21936 0
M  V30 8041 H 762.973 -6.65923 1.98927 0
M  V30 8042 H 766.164 -4.55955 1.05935 0
M  V30 8043 H 766.337 -6.2499 1.71147 0
M  V30 8044 N 759.743 -0.201713 -1.56304 0
M  V30 8045 C 760.691 0.733133 -2.20744 0
M  V30 8046 C 761.685 1.2148 -1.18064 0
M  V30 8047 O 762.891 1.17692 -1.36193 0
M  V30 8048 H 759.266 0.254789 -0.707521 0
M  V30 8049 H 761.237 0.165996 -2.97938 0
M  V30 8050 C 759.986 1.93925 -2.88597 0
M  V30 8051 H 759.309 1.5777 -3.67353 0
M  V30 8052 H 760.749 2.57158 -3.37114 0
M  V30 8053 C 759.208 2.78219 -1.89989 0
M  V30 8054 O 759.738 3.76353 -1.40432 0
M  V30 8055 N 757.944 2.43847 -1.58072 0
M  V30 8056 H 757.491 1.64103 -1.98565 0
M  V30 8057 H 757.449 3.0053 -0.923524 0
M  V30 8058 N 761.222 1.57436 0.0718424 0
M  V30 8059 C 762.468 1.87525 0.772149 0
M  V30 8060 C 762.801 0.79399 1.77227 0
M  V30 8061 O 762.076 -0.195733 1.93513 0
M  V30 8062 C 762.359 3.28272 1.48018 0
M  V30 8063 C 762.212 4.47052 0.49647 0
M  V30 8064 C 763.531 3.67256 2.42509 0
M  V30 8065 H 760.65 0.682049 0.279245 0
M  V30 8066 H 763.292 1.89967 0.03534 0
M  V30 8067 H 761.442 3.26321 2.10824 0
M  V30 8068 H 763.114 4.61127 -0.126375 0
M  V30 8069 H 761.357 4.33392 -0.188205 0
M  V30 8070 H 762.028 5.42315 1.02949 0
M  V30 8071 H 764.504 3.70301 1.89781 0
M  V30 8072 H 763.38 4.66626 2.89053 0
M  V30 8073 H 763.641 2.97186 3.27312 0
M  V30 8074 N 762.7 -0.34323 1.53817 0
M  V30 8075 C 763.947 -1.08344 1.71079 0
M  V30 8076 C 764.275 -1.88633 0.474133 0
M  V30 8077 O 763.53 -1.87984 -0.544116 0
M  V30 8078 C 763.829 -2.05195 2.92626 0
M  V30 8079 C 763.495 -1.41215 4.28216 0
M  V30 8080 C 762.157 -1.23495 4.65083 0
M  V30 8081 C 764.509 -0.951273 5.12445 0
M  V30 8082 C 761.837 -0.583065 5.83796 0
M  V30 8083 C 764.189 -0.313292 6.31824 0
M  V30 8084 C 762.853 -0.123779 6.67385 0
M  V30 8085 H 762.123 -0.396458 0.626021 0
M  V30 8086 H 764.77 -0.362689 1.88034 0
M  V30 8087 H 763.075 -2.83653 2.70275 0
M  V30 8088 H 764.772 -2.62462 3.03175 0
M  V30 8089 H 761.362 -1.56005 3.992 0
M  V30 8090 H 765.546 -1.07602 4.84495 0
M  V30 8091 H 760.802 -0.424854 6.09922 0
M  V30 8092 H 764.976 0.0519179 6.96381 0
M  V30 8093 H 762.603 0.383398 7.59233 0
M  V30 8094 N 764.178 -1.45556 -0.604258 0
M  V30 8095 C 765.088 -1.57025 -1.74299 0
M  V30 8096 C 766.104 -0.45456 -1.67958 0
M  V30 8097 O 767.28 -0.715711 -1.88254 0
M  V30 8098 C 764.345 -1.53702 -3.10768 0
M  V30 8099 C 763.406 -2.76335 -3.28538 0
M  V30 8100 C 762.639 -2.73161 -4.58496 0
M  V30 8101 O 762.862 -1.80678 -5.41028 0
M  V30 8102 O 761.796 -3.64409 -4.79051 0
M  V30 8103 H 765.622 -2.53284 -1.67573 0
M  V30 8104 H 763.207 -1.28104 -0.768745 0
M  V30 8105 H 765.089 -1.54468 -3.92068 0
M  V30 8106 H 763.764 -0.605957 -3.17978 0
M  V30 8107 H 762.671 -2.8113 -2.46813 0
M  V30 8108 H 764.004 -3.68578 -3.26207 0
M  V30 8109 N 765.656 0.84705 -1.32902 0
M  V30 8110 C 766.902 1.60414 -1.24078 0
M  V30 8111 C 767.235 1.93217 0.195105 0
M  V30 8112 O 766.51 1.58001 1.13428 0
M  V30 8113 C 766.793 2.91951 -2.108 0
M  V30 8114 C 766.646 2.6588 -3.62805 0
M  V30 8115 C 767.965 3.93299 -1.97494 0
M  V30 8116 H 765.084 0.58206 -0.452079 0
M  V30 8117 H 767.726 0.977562 -1.62922 0
M  V30 8118 H 765.876 3.45425 -1.77802 0
M  V30 8119 H 767.548 2.18902 -4.06054 0
M  V30 8120 H 765.791 1.99716 -3.85092 0
M  V30 8121 H 766.462 3.59574 -4.1882 0
M  V30 8122 H 768.938 3.49105 -2.26417 0
M  V30 8123 H 767.814 4.8318 -2.60438 0
M  V30 8124 H 768.075 4.31887 -0.944782 0
M  V30 8125 N 767.134 1.16236 1.06428 0
M  V30 8126 C 768.382 0.941171 1.78847 0
M  V30 8127 C 768.703 -0.53248 1.87589 0
M  V30 8128 O 767.973 -1.38686 1.38358 0
M  V30 8129 H 766.553 0.345228 0.66244 0
M  V30 8130 H 769.215 1.46479 1.28569 0
M  V30 8131 H 768.311 1.35871 2.80972 0
M  V30 8132 N 768.612 -1.24939 0.960631 0
M  V30 8133 C 770.023 -1.74701 0.658529 0
M  V30 8134 C 770.374 -1.77967 -0.825959 0
M  V30 8135 O 769.499 -1.40444 -1.64634 0
M  V30 8136 C 770.094 -3.17263 1.18867 0
M  V30 8137 C 768.653 -3.64561 0.936614 0
M  V30 8138 C 767.8 -2.43423 1.32817 0
M  V30 8139 H 770.751 -1.10741 1.13676 0
M  V30 8140 H 770.772 -3.76481 0.551589 0
M  V30 8141 H 770.284 -3.14854 2.26912 0
M  V30 8142 H 768.385 -3.72378 -0.128608 0
M  V30 8143 H 768.498 -4.52392 1.57729 0
M  V30 8144 H 766.862 -2.43513 0.746548 0
M  V30 8145 H 767.645 -2.437 2.41796 0
M  V30 8146 N 770.09 -0.729906 -1.39679 0
M  V30 8147 C 771.338 -0.275077 -2.00219 0
M  V30 8148 C 771.659 1.1401 -1.58199 0
M  V30 8149 O 770.929 1.77546 -0.827904 0
M  V30 8150 H 769.509 -0.0987127 -0.740449 0
M  V30 8151 H 772.171 -0.93873 -1.70804 0
M  V30 8152 H 771.267 -0.319446 -3.10461 0
M  V30 8153 N 771.568 1.50203 -0.477153 0
M  V30 8154 C 772.845 1.95115 0.137609 0
M  V30 8155 C 773.225 1.41778 1.56404 0
M  V30 8156 O 772.573 0.621333 2.1989 0
M  V30 8157 C 772.783 3.4892 0.0747168 0
M  V30 8158 C 774.131 4.238 0.260585 0
M  V30 8159 O 775.155 3.5588 0.151021 0
M  V30 8160 O 774.014 5.44366 0.482534 0
M  V30 8161 H 771.108 0.81987 0.108364 0
M  V30 8162 H 773.654 1.60946 -0.537989 0
M  V30 8163 H 772.426 3.80308 -0.920966 0
M  V30 8164 H 772.049 3.89642 0.791509 0
M  V30 8165 N 773.046 0.209999 1.56195 0
M  V30 8166 C 774.271 -0.433064 2.02828 0
M  V30 8167 C 774.696 -1.5337 1.08901 0
M  V30 8168 O 774.054 -1.81144 0.0751132 0
M  V30 8169 C 774.102 -0.952635 3.47789 0
M  V30 8170 O 773.206 -2.0647 3.56993 0
M  V30 8171 H 772.547 -0.0994594 0.656509 0
M  V30 8172 H 775.077 0.32525 2.01998 0
M  V30 8173 H 775.087 -1.26542 3.8788 0
M  V30 8174 H 773.762 -0.147007 4.1564 0
M  V30 8175 H 772.339 -1.75942 3.28784 0
M  V30 8176 N 774.524 -1.57472 -0.0634922 0
M  V30 8177 C 775.935 -1.76303 -0.614337 0
M  V30 8178 C 776.286 -0.836578 -1.77471 0
M  V30 8179 O 775.411 -0.0227184 -2.16388 0
M  V30 8180 C 776.006 -3.19709 -1.12122 0
M  V30 8181 C 774.565 -3.39856 -1.61786 0
M  V30 8182 C 773.712 -2.71975 -0.540845 0
M  V30 8183 H 776.663 -1.57864 0.162702 0
M  V30 8184 H 776.684 -3.24326 -1.98979 0
M  V30 8185 H 776.196 -3.87114 -0.276472 0
M  V30 8186 H 774.297 -2.77578 -2.48558 0
M  V30 8187 H 774.41 -4.48338 -1.68908 0
M  V30 8188 H 772.774 -2.34763 -0.987854 0
M  V30 8189 H 773.557 -3.4204 0.293856 0
M  V30 8190 N 776.003 0.335068 -1.53997 0
M  V30 8191 C 777.231 1.09418 -1.756 0
M  V30 8192 C 777.646 1.82083 -0.499138 0
M  V30 8193 O 777.003 1.74646 0.529631 0
M  V30 8194 C 777.054 2.10115 -2.94166 0
M  V30 8195 O 776.775 1.40404 -4.14992 0
M  V30 8196 C 778.276 2.98336 -3.27888 0
M  V30 8197 H 775.496 0.32595 -0.586513 0
M  V30 8198 H 778.04 0.384693 -2.00849 0
M  V30 8199 H 776.195 2.76616 -2.71224 0
M  V30 8200 H 776.609 2.07743 -4.81605 0
M  V30 8201 H 778.083 3.6491 -4.1418 0
M  V30 8202 H 778.56 3.64814 -2.44556 0
M  V30 8203 H 779.166 2.37412 -3.52868 0
M  V30 8204 N 777.481 1.45874 0.596531 0
M  V30 8205 C 778.728 1.50467 1.35521 0
M  V30 8206 C 779.056 0.150802 1.93915 0
M  V30 8207 O 778.311 -0.851913 1.76184 0
M  V30 8208 C 778.61 2.54034 2.51399 0
M  V30 8209 C 778.276 3.9844 2.11085 0
M  V30 8210 C 776.938 4.37758 1.99804 0
M  V30 8211 C 779.29 4.89209 1.79788 0
M  V30 8212 C 776.618 5.65727 1.55465 0
M  V30 8213 C 778.97 6.17602 1.36931 0
M  V30 8214 C 777.634 6.5584 1.24218 0
M  V30 8215 H 776.904 0.550597 0.495907 0
M  V30 8216 H 779.551 1.79279 0.673145 0
M  V30 8217 H 777.856 2.18832 3.24992 0
M  V30 8218 H 779.553 2.54822 3.09624 0
M  V30 8219 H 776.143 3.67353 2.20794 0
M  V30 8220 H 780.327 4.59562 1.87395 0
M  V30 8221 H 775.583 5.94139 1.44253 0
M  V30 8222 H 779.757 6.87373 1.11764 0
M  V30 8223 H 777.384 7.54897 0.896353 0
M  V30 8224 N 778.959 -0.83999 1.33349 0
M  V30 8225 C 780.37 -1.41139 1.22216 0
M  V30 8226 C 780.721 -1.95551 -0.159398 0
M  V30 8227 O 779.846 -1.88721 -1.05893 0
M  V30 8228 C 780.441 -2.56564 2.21269 0
M  V30 8229 C 779 -3.09661 2.13979 0
M  V30 8230 C 778.147 -1.82457 2.08818 0
M  V30 8231 H 781.098 -0.645853 1.44964 0
M  V30 8232 H 781.119 -3.34163 1.81976 0
M  V30 8233 H 780.631 -2.16932 3.21811 0
M  V30 8234 H 778.732 -3.53841 1.16736 0
M  V30 8235 H 778.845 -3.6991 3.04472 0
M  V30 8236 H 777.209 -2.0266 1.54276 0
M  V30 8237 H 777.992 -1.45022 3.11165 0
M  V30 8238 N 780.437 -1.16799 -1.0581 0
M  V30 8239 C 781.853 -0.913935 -1.30841 0
M  V30 8240 C 782.053 0.430439 -1.96849 0
M  V30 8241 O 781.109 1.16885 -2.23817 0
M  V30 8242 C 782.422 -2.06662 -2.18429 0
M  V30 8243 C 783.97 -2.10294 -2.31831 0
M  V30 8244 C 784.445 -3.2493 -3.22776 0
M  V30 8245 N 785.936 -3.24678 -3.30361 0
M  V30 8246 C 786.671 -4.10021 -4.00837 0
M  V30 8247 N 786.167 -5.05461 -4.73795 0
M  V30 8248 N 787.96 -3.97991 -3.96937 0
M  V30 8249 H 780.111 -2.03343 -0.613613 0
M  V30 8250 H 782.374 -0.88754 -0.333133 0
M  V30 8251 H 782.08 -3.03791 -1.77211 0
M  V30 8252 H 781.954 -2.01233 -3.19038 0
M  V30 8253 H 784.341 -1.13754 -2.72294 0
M  V30 8254 H 784.422 -2.19786 -1.30873 0
M  V30 8255 H 784.066 -4.21731 -2.83028 0
M  V30 8256 H 783.996 -3.12674 -4.23725 0
M  V30 8257 H 786.487 -2.55573 -2.78372 0
M  V30 8258 H 786.8 -5.66989 -5.25113 0
M  V30 8259 H 785.145 -5.09436 -4.72758 0
M  V30 8260 H 788.336 -3.2273 -3.39062 0
M  V30 8261 H 788.509 -4.64722 -4.51594 0
M  V30 8262 N 781.915 1.24427 -0.967243 0
M  V30 8263 C 783.162 1.92487 -0.62888 0
M  V30 8264 C 783.49 1.75623 0.835871 0
M  V30 8265 O 782.745 1.1027 1.61675 0
M  V30 8266 C 783.044 3.44568 -0.949096 0
M  V30 8267 C 782.71 3.816 -2.40192 0
M  V30 8268 C 781.372 3.9142 -2.799 0
M  V30 8269 C 783.724 3.99715 -3.34481 0
M  V30 8270 C 781.052 4.16771 -4.12939 0
M  V30 8271 C 783.404 4.26562 -4.67148 0
M  V30 8272 C 782.068 4.34601 -5.06634 0
M  V30 8273 H 781.338 0.704361 -0.230124 0
M  V30 8274 H 783.985 1.4772 -1.21864 0
M  V30 8275 H 782.29 3.90819 -0.277085 0
M  V30 8276 H 783.987 3.95436 -0.665692 0
M  V30 8277 H 780.577 3.74522 -2.08402 0
M  V30 8278 H 784.761 3.91531 -3.04987 0
M  V30 8279 H 780.017 4.21214 -4.43158 0
M  V30 8280 H 784.191 4.39523 -5.40178 0
M  V30 8281 H 781.818 4.53998 -6.09746 0
M  V30 8282 N 783.393 0.737304 1.3929 0
M  V30 8283 C 784.809 0.413132 1.5416 0
M  V30 8284 C 785.009 -1.07574 1.70382 0
M  V30 8285 O 784.065 -1.86185 1.70562 0
M  V30 8286 C 785.378 1.19817 2.75798 0
M  V30 8287 C 786.926 1.18662 2.89635 0
M  V30 8288 C 787.401 1.95427 4.14213 0
M  V30 8289 N 788.892 1.92605 4.21257 0
M  V30 8290 C 789.627 2.48808 5.16606 0
M  V30 8291 N 789.123 3.13659 6.1773 0
M  V30 8292 N 790.916 2.38829 5.08839 0
M  V30 8293 H 783.067 1.70243 1.27008 0
M  V30 8294 H 785.33 0.720802 0.61575 0
M  V30 8295 H 785.036 2.25179 2.70161 0
M  V30 8296 H 784.91 0.804144 3.68529 0
M  V30 8297 H 787.297 0.141112 2.94762 0
M  V30 8298 H 787.378 1.62003 1.97961 0
M  V30 8299 H 787.022 2.9998 4.09847 0
M  V30 8300 H 786.952 1.4949 5.04936 0
M  V30 8301 H 789.443 1.45362 3.48824 0
M  V30 8302 H 789.756 3.54006 6.8695 0
M  V30 8303 H 788.101 3.17749 6.1811 0
M  V30 8304 H 791.292 1.87806 4.28773 0
M  V30 8305 H 791.465 2.82929 5.82971 0
M  V30 8306 N 784.871 -1.49948 0.485112 0
M  V30 8307 C 785.834 -2.27351 -0.290546 0
M  V30 8308 C 786.834 -1.32704 -0.908087 0
M  V30 8309 O 788.024 -1.56007 -0.775085 0
M  V30 8310 C 785.156 -3.10135 -1.41524 0
M  V30 8311 H 786.349 -2.97374 0.388454 0
M  V30 8312 H 783.902 -1.54453 0.239586 0
M  V30 8313 H 784.637 -2.44641 -2.12888 0
M  V30 8314 H 784.422 -3.79705 -0.978074 0
M  V30 8315 H 785.912 -3.68638 -1.96204 0
M  V30 8316 N 786.349 -0.21828 -1.56081 0
M  V30 8317 C 787.598 0.414644 -1.97392 0
M  V30 8318 C 787.911 1.61132 -1.10887 0
M  V30 8319 O 789.117 2.31355 -1.42082 0
M  V30 8320 C 787.573 0.789099 -3.51143 0
M  V30 8321 C 787.181 -0.384578 -4.46346 0
M  V30 8322 C 788.925 1.38781 -4.01173 0
M  V30 8323 C 786.832 0.0121288 -5.91399 0
M  V30 8324 H 785.762 0.158691 -0.737111 0
M  V30 8325 H 788.413 -0.313974 -1.80794 0
M  V30 8326 H 786.795 1.57505 -3.6333 0
M  V30 8327 H 787.969 -1.16212 -4.45905 0
M  V30 8328 H 786.284 -0.896306 -4.06639 0
M  V30 8329 H 788.881 1.69746 -5.07041 0
M  V30 8330 H 789.224 2.30245 -3.46833 0
M  V30 8331 H 789.757 0.665364 -3.92196 0
M  V30 8332 H 786.496 -0.868917 -6.49715 0
M  V30 8333 H 786.016 0.754053 -5.95041 0
M  V30 8334 H 787.695 0.439949 -6.45502 0
M  V30 8335 N 787.827 1.57504 0.0551401 0
M  V30 8336 C 788.759 2.0158 1.09078 0
M  V30 8337 C 789.772 0.92434 1.34014 0
M  V30 8338 O 790.961 1.20202 1.31961 0
M  V30 8339 C 788.061 2.35385 2.43818 0
M  V30 8340 C 787.234 3.66588 2.38605 0
M  V30 8341 C 786.293 3.87874 3.55585 0
M  V30 8342 O 785.319 4.59259 3.36258 0
M  V30 8343 N 786.521 3.31503 4.76536 0
M  V30 8344 H 789.286 2.91039 0.71529 0
M  V30 8345 H 786.847 1.60058 0.243532 0
M  V30 8346 H 788.839 2.46784 3.20749 0
M  V30 8347 H 787.409 1.51731 2.73307 0
M  V30 8348 H 786.629 3.65787 1.46947 0
M  V30 8349 H 787.917 4.52706 2.32239 0
M  V30 8350 H 787.315 2.73592 4.9514 0
M  V30 8351 H 785.872 3.48324 5.50921 0
M  V30 8352 N 789.305 -0.326896 1.54172 0
M  V30 8353 C 790.235 -1.40741 1.86317 0
M  V30 8354 C 791.216 -1.54125 0.719684 0
M  V30 8355 O 792.401 -1.6806 0.973117 0
M  V30 8356 C 789.531 -2.77557 2.08757 0
M  V30 8357 C 788.485 -2.78965 3.24596 0
M  V30 8358 C 787.811 -4.18824 3.32401 0
M  V30 8359 C 789.111 -2.4301 4.62324 0
M  V30 8360 H 790.805 -1.14088 2.76811 0
M  V30 8361 H 788.351 -0.547389 1.3319 0
M  V30 8362 H 790.304 -3.53209 2.29829 0
M  V30 8363 H 789.028 -3.0568 1.15009 0
M  V30 8364 H 787.687 -2.05767 3.03406 0
M  V30 8365 H 787.335 -4.44083 2.36218 0
M  V30 8366 H 787.035 -4.20673 4.10253 0
M  V30 8367 H 788.559 -4.96294 3.55703 0
M  V30 8368 H 789.973 -3.08375 4.83299 0
M  V30 8369 H 788.37 -2.56116 5.42701 0
M  V30 8370 H 789.44 -1.38165 4.64799 0
M  V30 8371 N 790.784 -1.46188 -0.588786 0
M  V30 8372 C 791.694 -1.58865 -1.72624 0
M  V30 8373 C 792.71 -0.472348 -1.67466 0
M  V30 8374 O 793.886 -0.735638 -1.87484 0
M  V30 8375 C 790.951 -1.56989 -3.0912 0
M  V30 8376 C 790.012 -2.79804 -3.25589 0
M  V30 8377 C 789.245 -2.78009 -4.55573 0
M  V30 8378 O 789.468 -1.86406 -5.39082 0
M  V30 8379 O 788.402 -3.6947 -4.75159 0
M  V30 8380 H 792.228 -2.55047 -1.64878 0
M  V30 8381 H 789.813 -1.28912 -0.755115 0
M  V30 8382 H 791.695 -1.58618 -3.90408 0
M  V30 8383 H 790.37 -0.639648 -3.17317 0
M  V30 8384 H 789.277 -2.83732 -2.43818 0
M  V30 8385 H 790.61 -3.72017 -3.22279 0
M  V30 8386 N 792.262 0.832906 -1.33792 0
M  V30 8387 C 793.673 1.40489 -1.22963 0
M  V30 8388 C 794.024 1.95633 0.149026 0
M  V30 8389 O 793.149 1.8928 1.04891 0
M  V30 8390 C 793.744 2.55387 -2.22627 0
M  V30 8391 C 792.303 3.08522 -2.15618 0
M  V30 8392 C 791.45 1.81347 -2.09782 0
M  V30 8393 H 794.401 0.638156 -1.45304 0
M  V30 8394 H 794.422 3.33193 -1.83746 0
M  V30 8395 H 793.934 2.15222 -3.22957 0
M  V30 8396 H 792.035 3.53217 -1.18611 0
M  V30 8397 H 792.148 3.6829 -3.0643 0
M  V30 8398 H 790.512 2.01839 -1.55349 0
M  V30 8399 H 791.295 1.43369 -3.1193 0
M  V30 8400 N 793.74 1.17359 1.05189 0
M  V30 8401 C 794.703 0.892604 2.11105 0
M  V30 8402 C 795.703 -0.117236 1.60372 0
M  V30 8403 O 796.893 0.114936 1.7382 0
M  V30 8404 C 794.025 0.337032 3.3923 0
M  V30 8405 H 795.218 1.83169 2.37464 0
M  V30 8406 H 792.771 0.984051 1.21434 0
M  V30 8407 H 793.506 -0.609198 3.18527 0
M  V30 8408 H 793.291 1.06484 3.77364 0
M  V30 8409 H 794.781 0.158763 4.17298 0
M  V30 8410 N 795.218 -1.23913 0.973828 0
M  V30 8411 C 796.128 -2.28838 0.516735 0
M  V30 8412 C 797.144 -1.68723 -0.425282 0
M  V30 8413 O 798.32 -1.99201 -0.296819 0
M  V30 8414 C 795.385 -3.46233 -0.179914 0
M  V30 8415 C 794.446 -4.21729 0.80269 0
M  V30 8416 C 793.679 -5.33518 0.139191 0
M  V30 8417 O 793.902 -5.60252 -1.07118 0
M  V30 8418 O 792.836 -5.96088 0.834447 0
M  V30 8419 H 796.662 -2.70067 1.38916 0
M  V30 8420 H 794.247 -1.2972 0.74115 0
M  V30 8421 H 796.129 -4.17514 -0.570991 0
M  V30 8422 H 794.804 -3.06969 -1.02721 0
M  V30 8423 H 793.711 -3.52799 1.24434 0
M  V30 8424 H 795.044 -4.64825 1.61859 0
M  V30 8425 N 796.696 -0.74468 -1.38897 0
M  V30 8426 C 798.107 -0.36568 -1.83084 0
M  V30 8427 C 798.458 1.10436 -1.62168 0
M  V30 8428 O 797.583 1.85281 -1.11804 0
M  V30 8429 C 798.178 -0.656946 -3.3237 0
M  V30 8430 C 796.737 -0.331329 -3.74939 0
M  V30 8431 C 795.884 -0.914661 -2.61781 0
M  V30 8432 H 798.835 -0.941551 -1.27752 0
M  V30 8433 H 798.856 0.0679546 -3.80439 0
M  V30 8434 H 798.368 -1.72693 -3.47561 0
M  V30 8435 H 796.469 0.732426 -3.6533 0
M  V30 8436 H 796.582 -0.820655 -4.72019 0
M  V30 8437 H 794.946 -0.34063 -2.52412 0
M  V30 8438 H 795.729 -1.98949 -2.79775 0
M  V30 8439 N 798.174 1.49689 -0.493057 0
M  V30 8440 C 799.422 2.02027 0.0541642 0
M  V30 8441 C 799.743 1.37554 1.38217 0
M  V30 8442 O 799.013 0.528174 1.88646 0
M  V30 8443 H 797.593 0.746646 0.0230069 0
M  V30 8444 H 800.255 1.83795 -0.648489 0
M  V30 8445 H 799.351 3.11523 0.189652 0
M  V30 8446 N 799.652 0.226554 1.55963 0
M  V30 8447 C 800.584 -0.713907 2.17798 0
M  V30 8448 C 801.597 -1.15387 1.14846 0
M  V30 8449 O 802.786 -1.08416 1.41804 0
M  V30 8450 C 799.886 -1.97945 2.75084 0
M  V30 8451 C 799.059 -1.69424 4.03255 0
M  V30 8452 C 798.118 -2.80734 4.45056 0
M  V30 8453 O 797.144 -2.4899 5.11852 0
M  V30 8454 N 798.346 -4.09797 4.11152 0
M  V30 8455 H 801.111 -0.18494 2.99129 0
M  V30 8456 H 798.672 0.0457346 1.61835 0
M  V30 8457 H 800.664 -2.71611 3.00016 0
M  V30 8458 H 799.234 -2.41876 1.98027 0
M  V30 8459 H 798.454 -0.793767 3.86126 0
M  V30 8460 H 799.742 -1.47806 4.86858 0
M  V30 8461 H 799.14 -4.38429 3.57486 0
M  V30 8462 H 797.697 -4.79992 4.40966 0
M  V30 8463 N 801.13 -1.57531 -0.0467866 0
M  V30 8464 C 802.093 -2.04379 -1.03738 0
M  V30 8465 C 803.093 -0.944881 -1.3011 0
M  V30 8466 O 804.283 -1.20904 -1.25411 0
M  V30 8467 C 801.415 -2.44572 -2.37482 0
M  V30 8468 H 802.608 -2.93142 -0.633063 0
M  V30 8469 H 800.161 -1.53526 -0.293177 0
M  V30 8470 H 800.896 -1.58911 -2.82697 0
M  V30 8471 H 800.681 -3.24785 -2.19675 0
M  V30 8472 H 802.171 -2.81307 -3.08636 0
M  V30 8473 N 802.608 0.318715 -1.54344 0
M  V30 8474 C 803.854 1.05383 -1.73971 0
M  V30 8475 C 804.209 1.85524 -0.509781 0
M  V30 8476 O 803.502 1.8502 0.49782 0
M  V30 8477 C 803.696 2.00514 -2.95853 0
M  V30 8478 C 803.525 1.29728 -4.30582 0
M  V30 8479 C 802.295 1.03177 -4.94654 0
M  V30 8480 C 804.493 0.710718 -5.09366 0
M  V30 8481 N 802.475 0.29232 -6.13204 0
M  V30 8482 C 803.846 0.103132 -6.19914 0
M  V30 8483 C 805.901 0.614011 -4.94099 0
M  V30 8484 C 804.604 -0.591782 -7.16862 0
M  V30 8485 C 806.63 -0.0672115 -5.91362 0
M  V30 8486 C 805.992 -0.663721 -7.01266 0
M  V30 8487 H 802.091 0.369157 -0.689382 0
M  V30 8488 H 804.675 0.334453 -1.91806 0
M  V30 8489 H 802.846 2.69719 -2.79475 0
M  V30 8490 H 804.578 2.67046 -3.04086 0
M  V30 8491 H 801.333 1.32536 -4.54677 0
M  V30 8492 H 801.757 -0.0634005 -6.7697 0
M  V30 8493 H 806.399 1.06091 -4.09273 0
M  V30 8494 H 804.117 -1.0505 -8.01243 0
M  V30 8495 H 807.703 -0.141742 -5.81627 0
M  V30 8496 H 806.583 -1.18248 -7.75234 0
M  V30 8497 N 804.086 1.46499 0.581025 0
M  V30 8498 C 805.334 1.51596 1.33653 0
M  V30 8499 C 805.655 0.169859 1.94259 0
M  V30 8500 O 804.925 -0.803776 1.78651 0
M  V30 8501 H 803.505 0.558346 0.496244 0
M  V30 8502 H 806.167 1.8264 0.680338 0
M  V30 8503 H 805.263 2.26956 2.14237 0
M  V30 8504 N 805.565 -0.825799 1.34232 0
M  V30 8505 C 806.981 -1.11848 1.13851 0
M  V30 8506 C 807.181 -2.01405 -0.0619031 0
M  V30 8507 O 806.237 -2.41465 -0.738287 0
M  V30 8508 C 807.55 -1.76797 2.43235 0
M  V30 8509 C 809.098 -1.89304 2.49265 0
M  V30 8510 C 809.573 -2.57669 3.78643 0
M  V30 8511 N 811.064 -2.65171 3.79788 0
M  V30 8512 C 811.799 -3.1879 4.76614 0
M  V30 8513 N 811.295 -3.72995 5.83821 0
M  V30 8514 N 813.088 -3.17164 4.64073 0
M  V30 8515 H 805.239 -0.230049 2.11151 0
M  V30 8516 H 807.502 -0.164609 0.9336 0
M  V30 8517 H 807.208 -1.18455 3.31152 0
M  V30 8518 H 807.082 -2.76693 2.56361 0
M  V30 8519 H 809.469 -2.46796 1.6179 0
M  V30 8520 H 809.55 -0.883191 2.4007 0
M  V30 8521 H 809.194 -2.00833 4.66507 0
M  V30 8522 H 809.124 -3.59152 3.8512 0
M  V30 8523 H 811.615 -2.26746 3.02315 0
M  V30 8524 H 811.928 -4.12151 6.53721 0
M  V30 8525 H 810.273 -3.71246 5.87538 0
M  V30 8526 H 813.464 -2.74082 3.79469 0
M  V30 8527 H 813.637 -3.58647 5.397 0
M  V30 8528 N 807.043 -1.17915 -1.04565 0
M  V30 8529 C 807.975 -0.859359 -2.1248 0
M  V30 8530 C 808.988 0.140922 -1.62189 0
M  V30 8531 O 810.177 -0.0862361 -1.78292 0
M  V30 8532 C 807.277 -0.261811 -3.37887 0
M  V30 8533 C 806.45 -1.30651 -4.17431 0
M  V30 8534 C 805.509 -0.725575 -5.21174 0
M  V30 8535 O 804.535 -1.39901 -5.51739 0
M  V30 8536 N 805.737 0.479351 -5.78517 0
M  V30 8537 H 808.502 -1.78818 -2.40508 0
M  V30 8538 H 806.063 -1.07885 -1.20716 0
M  V30 8539 H 808.055 0.14028 -4.04457 0
M  V30 8540 H 806.625 0.570929 -3.07342 0
M  V30 8541 H 805.845 -1.88412 -3.46258 0
M  V30 8542 H 807.133 -2.01099 -4.67372 0
M  V30 8543 H 806.531 1.04431 -5.55977 0
M  V30 8544 H 805.088 0.823427 -6.46578 0
M  V30 8545 N 808.521 1.23394 -0.980386 0
M  V30 8546 C 809.746 1.96384 -0.666935 0
M  V30 8547 C 810.171 1.72087 0.759456 0
M  V30 8548 O 809.529 0.992328 1.51732 0
M  V30 8549 C 809.577 3.47499 -0.963177 0
M  V30 8550 O 808.681 4.12363 -0.0552051 0
M  V30 8551 H 808.022 0.614797 -0.250839 0
M  V30 8552 H 810.552 1.56831 -1.31398 0
M  V30 8553 H 810.562 3.97953 -0.899877 0
M  V30 8554 H 809.237 3.6451 -2.00264 0
M  V30 8555 H 807.814 3.72499 -0.172914 0
M  V30 8556 N 809.999 0.752036 1.385 0
M  V30 8557 C 811.41 0.375385 1.82887 0
M  V30 8558 C 811.761 -1.09575 1.62751 0
M  V30 8559 O 810.886 -1.84685 1.12785 0
M  V30 8560 C 811.481 0.674563 3.32017 0
M  V30 8561 C 810.04 0.351208 3.74758 0
M  V30 8562 C 809.187 0.928531 2.61292 0
M  V30 8563 H 812.138 0.948313 1.27251 0
M  V30 8564 H 812.159 -0.0477781 3.8047 0
M  V30 8565 H 811.671 1.74533 3.46641 0
M  V30 8566 H 809.772 -0.713042 3.65714 0
M  V30 8567 H 809.885 0.845675 4.71577 0
M  V30 8568 H 808.249 0.354012 2.52228 0
M  V30 8569 H 809.032 2.0043 2.78716 0
M  V30 8570 N 811.477 -1.49425 0.500989 0
M  V30 8571 C 812.893 -1.58826 0.156951 0
M  V30 8572 C 813.093 -1.50622 -1.33848 0
M  V30 8573 O 812.149 -1.38016 -2.11442 0
M  V30 8574 C 813.462 -2.91611 0.73374 0
M  V30 8575 C 815.01 -3.05076 0.699846 0
M  V30 8576 C 815.485 -4.40479 1.2547 0
M  V30 8577 N 816.976 -4.4697 1.2154 0
M  V30 8578 C 817.711 -5.50189 1.6149 0
M  V30 8579 N 817.207 -6.60512 2.09034 0
M  V30 8580 N 819 -5.40903 1.52907 0
M  V30 8581 H 811.151 -1.53001 1.47324 0
M  V30 8582 H 813.414 -0.724765 0.61108 0
M  V30 8583 H 813.12 -3.03182 1.78251 0
M  V30 8584 H 812.994 -3.767 0.19417 0
M  V30 8585 H 815.381 -2.93134 -0.340085 0
M  V30 8586 H 815.462 -2.2167 1.27656 0
M  V30 8587 H 815.106 -4.53172 2.29341 0
M  V30 8588 H 815.036 -5.22524 0.653921 0
M  V30 8589 H 817.527 -3.67819 0.867043 0
M  V30 8590 H 817.84 -7.35372 2.37588 0
M  V30 8591 H 816.185 -6.61553 2.13008 0
M  V30 8592 H 819.376 -4.53606 1.15583 0
M  V30 8593 H 819.549 -6.21219 1.84365 0
M  V30 8594 N 812.955 -0.234822 -1.55841 0
M  V30 8595 C 814.371 0.120295 -1.59146 0
M  V30 8596 C 814.571 1.57896 -1.25184 0
M  V30 8597 O 813.627 2.32138 -0.993393 0
M  V30 8598 C 814.94 -0.217984 -2.99909 0
M  V30 8599 C 816.488 -0.161298 -3.12584 0
M  V30 8600 C 816.963 -0.473438 -4.55546 0
M  V30 8601 N 818.454 -0.423494 -4.6126 0
M  V30 8602 C 819.189 -0.638334 -5.69836 0
M  V30 8603 N 818.685 -0.915659 -6.86722 0
M  V30 8604 N 820.478 -0.569864 -5.59204 0
M  V30 8605 H 812.629 -1.18622 -1.76189 0
M  V30 8606 H 814.892 -0.476426 -0.819587 0
M  V30 8607 H 814.598 -1.2309 -3.29457 0
M  V30 8608 H 814.472 0.460707 -3.74376 0
M  V30 8609 H 816.859 0.842274 -2.82825 0
M  V30 8610 H 816.94 -0.873661 -2.40418 0
M  V30 8611 H 816.584 -1.47451 -4.86025 0
M  V30 8612 H 816.514 0.260268 -5.25956 0
M  V30 8613 H 819.005 -0.217383 -3.77274 0
M  V30 8614 H 819.318 -1.06734 -7.65394 0
M  V30 8615 H 817.663 -0.953 -6.88435 0
M  V30 8616 H 820.854 -0.35334 -4.66765 0
M  V30 8617 H 821.027 -0.740698 -6.43753 0
M  V30 8618 N 814.433 1.57553 0.0384317 0
M  V30 8619 C 815.363 2.0898 1.04161 0
M  V30 8620 C 816.344 0.99029 1.38301 0
M  V30 8621 O 817.529 1.26499 1.47349 0
M  V30 8622 C 814.659 2.56145 2.34536 0
M  V30 8623 C 813.613 3.70275 2.14663 0
M  V30 8624 C 812.939 4.03612 3.50715 0
M  V30 8625 C 814.239 4.99067 1.54045 0
M  V30 8626 H 815.933 2.93046 0.613548 0
M  V30 8627 H 813.479 1.40973 0.293684 0
M  V30 8628 H 815.432 2.90741 3.05037 0
M  V30 8629 H 814.156 1.6915 2.79385 0
M  V30 8630 H 812.815 3.36013 1.46597 0
M  V30 8631 H 812.463 3.13698 3.93195 0
M  V30 8632 H 812.163 4.80482 3.38247 0
M  V30 8633 H 813.687 4.40735 4.22593 0
M  V30 8634 H 815.101 5.3168 2.14451 0
M  V30 8635 H 813.498 5.80484 1.52178 0
M  V30 8636 H 814.568 4.8226 0.505259 0
M  V30 8637 N 815.911 -0.310526 1.54511 0
M  V30 8638 C 816.821 -1.4054 1.87844 0
M  V30 8639 C 817.837 -1.55954 0.771635 0
M  V30 8640 O 819.013 -1.70801 1.06719 0
M  V30 8641 C 816.078 -2.75063 2.11048 0
M  V30 8642 C 815.139 -2.68715 3.348 0
M  V30 8643 C 814.372 -3.96821 3.56887 0
M  V30 8644 O 814.595 -4.95721 2.82165 0
M  V30 8645 O 813.529 -3.99291 4.50389 0
M  V30 8646 H 817.355 -1.15275 2.80972 0
M  V30 8647 H 814.94 -0.505732 1.4058 0
M  V30 8648 H 816.822 -3.54671 2.27566 0
M  V30 8649 H 815.497 -3.00191 1.21108 0
M  V30 8650 H 814.404 -1.87611 3.23655 0
M  V30 8651 H 815.737 -2.4854 4.2484 0
M  V30 8652 N 817.389 -1.46805 -0.573248 0
M  V30 8653 C 818.666 -1.43082 -1.33368 0
M  V30 8654 C 819.046 -0.119252 -2.10763 0
M  V30 8655 O 818.394 0.899239 -2.10062 0
M  V30 8656 C 818.604 -2.66643 -2.25172 0
M  V30 8657 C 819.952 -3.13188 -2.86702 0
M  V30 8658 O 820.976 -2.67258 -2.35482 0
M  V30 8659 O 819.835 -3.92994 -3.79761 0
M  V30 8660 H 816.929 -0.569451 -0.599712 0
M  V30 8661 H 819.475 -1.58984 -0.59348 0
M  V30 8662 H 818.247 -3.53649 -1.67475 0
M  V30 8663 H 817.87 -2.53247 -3.06516 0
M  V30 8664 N 818.867 0.818669 -1.34668 0
M  V30 8665 C 820.092 1.61193 -1.30505 0
M  V30 8666 C 820.517 1.87734 0.117341 0
M  V30 8667 O 819.875 1.45591 1.08042 0
M  V30 8668 C 819.923 2.92733 -2.1057 0
M  V30 8669 O 819.027 3.85 -1.47813 0
M  V30 8670 H 818.368 0.490085 -0.44801 0
M  V30 8671 H 820.898 1.01701 -1.77534 0
M  V30 8672 H 820.908 3.42262 -2.22082 0
M  V30 8673 H 819.583 2.7274 -3.13984 0
M  V30 8674 H 818.16 3.43525 -1.45069 0
M  V30 8675 N 820.346 1.18468 1.03938 0
M  V30 8676 C 821.571 1.00638 1.81347 0
M  V30 8677 C 821.996 -0.440477 1.8287 0
M  V30 8678 O 821.354 -1.31609 1.24695 0
M  V30 8679 C 821.402 1.5673 3.24759 0
M  V30 8680 O 820.506 0.789517 4.04772 0
M  V30 8681 H 819.847 0.356432 0.560225 0
M  V30 8682 H 822.377 1.57253 1.30891 0
M  V30 8683 H 822.387 1.59496 3.75533 0
M  V30 8684 H 821.062 2.62043 3.22965 0
M  V30 8685 H 819.639 0.834267 3.63448 0
M  V30 8686 N 821.824 -1.22873 0.986916 0
M  V30 8687 C 822.772 -2.26597 0.525043 0
M  V30 8688 C 823.766 -1.64079 -0.421252 0
M  V30 8689 O 824.972 -1.77576 -0.294429 0
M  V30 8690 H 821.347 -0.736606 0.151381 0
M  V30 8691 H 823.318 -2.62909 1.41142 0
M  V30 8692 C 822.067 -3.47374 -0.150542 0
M  V30 8693 H 821.39 -3.95737 0.568541 0
M  V30 8694 H 822.83 -4.21739 -0.437256 0
M  V30 8695 C 821.289 -3.07163 -1.38392 0
M  V30 8696 O 821.819 -3.16028 -2.47971 0
M  V30 8697 N 820.025 -2.62009 -1.25697 0
M  V30 8698 H 819.572 -2.54996 -0.365355 0
M  V30 8699 H 819.53 -2.35472 -2.08327 0
M  V30 8700 N 823.302 -0.75937 -1.38099 0
M  V30 8701 C 824.55 -0.317485 -1.99591 0
M  V30 8702 C 824.871 1.10628 -1.60581 0
M  V30 8703 O 824.141 1.7575 -0.865378 0
M  V30 8704 H 822.721 -0.114397 -0.738189 0
M  V30 8705 H 825.383 -0.974749 -1.68774 0
M  V30 8706 H 824.479 -0.385227 -3.09713 0
M  V30 8707 N 824.78 1.49157 -0.508906 0
M  V30 8708 C 825.69 2.33045 0.269656 0
M  V30 8709 C 826.706 1.45143 0.959662 0
M  V30 8710 O 827.882 1.78155 0.939295 0
M  V30 8711 C 824.947 3.20772 1.31554 0
M  V30 8712 C 824.008 4.24531 0.638131 0
M  V30 8713 C 823.241 5.08065 1.63418 0
M  V30 8714 O 823.464 4.93238 2.86483 0
M  V30 8715 O 822.398 5.90117 1.18516 0
M  V30 8716 H 826.224 3.00821 -0.417183 0
M  V30 8717 H 823.809 1.46938 -0.270119 0
M  V30 8718 H 825.691 3.75095 1.92047 0
M  V30 8719 H 824.366 2.55681 1.98516 0
M  V30 8720 H 823.273 3.74099 -0.00674357 0
M  V30 8721 H 824.606 4.92199 0.0108155 0
M  V30 8722 N 826.258 0.243083 1.55714 0
M  V30 8723 C 827.674 -0.111853 1.59208 0
M  V30 8724 C 827.874 -1.5723 1.2602 0
M  V30 8725 O 826.93 -2.31608 1.00569 0
M  V30 8726 C 828.243 0.233885 2.99789 0
M  V30 8727 C 829.791 0.177873 3.12494 0
M  V30 8728 C 830.266 0.49759 4.55289 0
M  V30 8729 N 831.757 0.447949 4.61029 0
M  V30 8730 C 832.492 0.668545 5.69489 0
M  V30 8731 N 831.988 0.952064 6.86227 0
M  V30 8732 N 833.781 0.599512 5.58894 0
M  V30 8733 H 825.932 1.19554 1.75558 0
M  V30 8734 H 828.195 0.480765 0.817049 0
M  V30 8735 H 827.901 1.24835 3.28799 0
M  V30 8736 H 827.775 -0.440846 3.74615 0
M  V30 8737 H 830.162 -0.827263 2.83267 0
M  V30 8738 H 830.243 0.886399 2.39951 0
M  V30 8739 H 829.887 1.50026 4.85237 0
M  V30 8740 H 829.817 -0.232371 5.26087 0
M  V30 8741 H 832.308 0.237388 3.77154 0
M  V30 8742 H 832.621 1.10791 7.64817 0
M  V30 8743 H 830.966 0.989496 6.8792 0
M  V30 8744 H 834.157 0.378088 4.66571 0
M  V30 8745 H 834.33 0.774828 6.43351 0
M  V30 8746 N 827.736 -1.57571 -0.0300757 0
M  V30 8747 C 829.152 -1.54869 -0.385703 0
M  V30 8748 C 829.352 -0.969068 -1.76667 0
M  V30 8749 O 828.408 -0.589676 -2.45518 0
M  V30 8750 C 829.721 -2.99313 -0.288482 0
M  V30 8751 C 831.269 -3.10857 -0.365638 0
M  V30 8752 C 831.744 -4.5703 -0.297878 0
M  V30 8753 N 833.235 -4.61825 -0.356703 0
M  V30 8754 C 833.97 -5.72466 -0.327146 0
M  V30 8755 N 833.466 -6.92349 -0.249941 0
M  V30 8756 N 835.259 -5.60836 -0.376801 0
M  V30 8757 H 827.41 -1.936 0.87367 0
M  V30 8758 H 829.673 -0.887924 0.332106 0
M  V30 8759 H 829.379 -3.45443 0.66047 0
M  V30 8760 H 829.253 -3.61332 -1.08253 0
M  V30 8761 H 831.64 -2.64676 -1.30502 0
M  V30 8762 H 831.721 -2.51671 0.457744 0
M  V30 8763 H 831.365 -5.03879 0.637835 0
M  V30 8764 H 831.295 -5.14127 -1.13935 0
M  V30 8765 H 833.786 -3.75571 -0.418926 0
M  V30 8766 H 834.099 -7.7245 -0.23246 0
M  V30 8767 H 832.444 -6.94664 -0.216004 0
M  V30 8768 H 835.635 -4.66073 -0.435101 0
M  V30 8769 H 835.808 -6.47052 -0.350298 0
M  V30 8770 N 829.214 0.302327 -1.54673 0
M  V30 8771 C 830.177 1.35592 -1.8479 0
M  V30 8772 C 831.177 1.43743 -0.72073 0
M  V30 8773 O 832.367 1.43402 -0.989017 0
M  V30 8774 C 829.499 2.74091 -2.02699 0
M  V30 8775 H 830.692 1.10132 -2.78946 0
M  V30 8776 H 828.245 0.538926 -1.46715 0
M  V30 8777 H 828.98 3.04775 -1.10826 0
M  V30 8778 H 828.765 2.69565 -2.8474 0
M  V30 8779 H 830.255 3.50272 -2.27374 0
M  V30 8780 N 830.692 1.47107 0.565454 0
M  V30 8781 C 831.932 1.5488 1.33385 0
M  V30 8782 C 832.296 0.202804 1.90926 0
M  V30 8783 O 833.497 0.155345 2.68351 0
M  V30 8784 C 831.768 2.62969 2.42037 0
M  V30 8785 S 833.327 2.90269 3.29074 0
M  V30 8786 H 830.145 0.547008 0.454206 0
M  V30 8787 H 832.747 1.8444 0.648228 0
M  V30 8788 H 831.451 3.59376 1.98185 0
M  V30 8789 H 830.982 2.35197 3.15351 0
M  V30 8790 H 832.997 2.26854 4.41307 0
M  V30 8791 N 832.17 -0.811516 1.35101 0
M  V30 8792 C 833.416 -1.57016 1.29296 0
M  V30 8793 C 833.771 -1.91941 -0.13288 0
M  V30 8794 O 833.064 -1.58121 -1.08204 0
M  V30 8795 C 833.258 -2.87121 2.1283 0
M  V30 8796 C 833.087 -2.64908 3.63392 0
M  V30 8797 C 831.857 -2.61055 4.32641 0
M  V30 8798 C 834.055 -2.35628 4.57148 0
M  V30 8799 N 832.037 -2.30508 5.68981 0
M  V30 8800 C 833.408 -2.14876 5.81574 0
M  V30 8801 C 835.463 -2.2145 4.45942 0
M  V30 8802 C 834.166 -1.81381 6.96055 0
M  V30 8803 C 836.192 -1.89352 5.60267 0
M  V30 8804 C 835.554 -1.69432 6.83719 0
M  V30 8805 H 831.653 -0.57649 0.528378 0
M  V30 8806 H 834.237 -0.950338 1.69931 0
M  V30 8807 H 832.408 -3.47007 1.74473 0
M  V30 8808 H 834.14 -3.52629 1.98582 0
M  V30 8809 H 830.895 -2.75531 3.85201 0
M  V30 8810 H 831.319 -2.18042 6.40927 0
M  V30 8811 H 835.961 -2.35551 3.51106 0
M  V30 8812 H 833.679 -1.66018 7.90863 0
M  V30 8813 H 837.265 -1.79098 5.53548 0
M  V30 8814 H 836.145 -1.44957 7.70686 0
M  V30 8815 N 833.648 -1.19017 -1.03309 0
M  V30 8816 C 834.611 -0.926076 -2.09658 0
M  V30 8817 C 835.611 0.0917077 -1.60538 0
M  V30 8818 O 836.801 -0.142574 -1.73616 0
M  V30 8819 C 833.933 -0.390958 -3.38651 0
M  V30 8820 H 835.126 -1.86923 -2.3452 0
M  V30 8821 H 832.679 -1.00325 -1.19853 0
M  V30 8822 H 833.414 0.558446 -3.19456 0
M  V30 8823 H 833.199 -1.12474 -3.75622 0
M  V30 8824 H 834.689 -0.225131 -4.16993 0
M  V30 8825 N 835.127 1.22348 -0.993418 0
M  V30 8826 C 836.373 1.91689 -0.680217 0
M  V30 8827 C 836.728 1.75912 0.779269 0
M  V30 8828 O 836.021 1.11761 1.55628 0
M  V30 8829 C 836.215 3.42477 -1.02197 0
M  V30 8830 C 836.044 3.72923 -2.51313 0
M  V30 8831 C 834.814 3.9291 -3.17726 0
M  V30 8832 C 837.012 3.7736 -3.49434 0
M  V30 8833 N 834.994 4.10672 -4.56313 0
M  V30 8834 C 836.365 4.00269 -4.73481 0
M  V30 8835 C 838.42 3.60211 -3.43733 0
M  V30 8836 C 837.123 4.0781 -5.92523 0
M  V30 8837 C 839.149 3.69011 -4.62152 0
M  V30 8838 C 838.511 3.92371 -5.85 0
M  V30 8839 H 834.61 0.722086 -0.300193 0
M  V30 8840 H 837.194 1.47273 -1.27353 0
M  V30 8841 H 835.365 3.85699 -0.457223 0
M  V30 8842 H 837.097 3.99204 -0.664702 0
M  V30 8843 H 833.852 3.90345 -2.68193 0
M  V30 8844 H 834.276 4.2348 -5.28199 0
M  V30 8845 H 838.918 3.41137 -2.49771 0
M  V30 8846 H 836.636 4.25688 -6.86888 0
M  V30 8847 H 840.222 3.5708 -4.59331 0
M  V30 8848 H 839.102 3.9901 -6.75101 0
M  V30 8849 N 836.605 0.766683 1.37694 0
M  V30 8850 C 837.853 0.328065 1.9942 0
M  V30 8851 C 838.174 -1.09775 1.61166 0
M  V30 8852 O 837.444 -1.75288 0.874686 0
M  V30 8853 H 836.024 0.11831 0.737572 0
M  V30 8854 H 838.686 0.983686 1.68255 0
M  V30 8855 H 837.782 0.401647 3.09505 0
M  V30 8856 N 838.083 -1.48885 0.516809 0
M  V30 8857 C 839.494 -1.86557 0.0729921 0
M  V30 8858 C 839.845 -1.42767 -1.34581 0
M  V30 8859 O 838.97 -0.812514 -2.00567 0
M  V30 8860 C 839.565 -3.38567 0.125686 0
M  V30 8861 C 838.124 -3.75481 -0.262867 0
M  V30 8862 C 837.271 -2.72913 0.491281 0
M  V30 8863 H 840.222 -1.40978 0.728767 0
M  V30 8864 H 840.243 -3.74629 -0.665831 0
M  V30 8865 H 839.755 -3.70408 1.15842 0
M  V30 8866 H 837.856 -3.49251 -1.29824 0
M  V30 8867 H 837.969 -4.79052 0.067579 0
M  V30 8868 H 836.333 -2.54627 -0.0608525 0
M  V30 8869 H 837.116 -3.07599 1.5244 0
M  V30 8870 N 839.561 -0.251338 -1.55583 0
M  V30 8871 C 840.786 0.379136 -2.03905 0
M  V30 8872 C 841.211 1.50428 -1.12929 0
M  V30 8873 O 840.569 1.80882 -0.123114 0
M  V30 8874 C 840.617 0.86009 -3.50193 0
M  V30 8875 O 839.721 1.96932 -3.62342 0
M  V30 8876 H 839.062 0.0820183 -0.658915 0
M  V30 8877 H 841.592 -0.378692 -2.01065 0
M  V30 8878 H 841.602 1.16214 -3.91099 0
M  V30 8879 H 840.277 0.0367559 -4.15884 0
M  V30 8880 H 838.854 1.67163 -3.33333 0
M  V30 8881 N 841.039 1.57585 0.0217189 0
M  V30 8882 C 842.264 1.94267 0.726309 0
M  V30 8883 C 842.689 0.851904 1.67703 0
M  V30 8884 O 842.047 -0.191792 1.80283 0
M  V30 8885 C 842.095 3.30023 1.45318 0
M  V30 8886 O 841.199 3.22791 2.5667 0
M  V30 8887 H 840.54 0.634777 0.194818 0
M  V30 8888 H 843.07 2.04585 -0.0249985 0
M  V30 8889 H 843.08 3.65084 1.82147 0
M  V30 8890 H 841.755 4.08972 0.755962 0
M  V30 8891 H 840.332 2.99373 2.2233 0
M  V30 8892 N 842.517 -0.29412 1.54831 0
M  V30 8893 C 843.928 -0.866651 1.65366 0
M  V30 8894 C 844.279 -1.87834 0.56681 0
M  V30 8895 O 843.404 -2.14374 -0.295389 0
M  V30 8896 C 843.999 -1.57869 2.99771 0
M  V30 8897 C 842.558 -2.09954 3.12404 0
M  V30 8898 C 841.705 -0.934492 2.6108 0
M  V30 8899 H 844.656 -0.0709551 1.58541 0
M  V30 8900 H 844.677 -2.44462 2.91579 0
M  V30 8901 H 844.189 -0.84212 3.78853 0
M  V30 8902 H 842.29 -2.86637 2.38055 0
M  V30 8903 H 842.403 -2.32934 4.18663 0
M  V30 8904 H 840.767 -1.32199 2.17705 0
M  V30 8905 H 841.55 -0.211768 3.42646 0
M  V30 8906 N 843.995 -1.47404 -0.557645 0
M  V30 8907 C 844.942 -1.59859 -1.66475 0
M  V30 8908 C 845.912 -0.441644 -1.60121 0
M  V30 8909 O 847.097 -0.661641 -1.78961 0
M  V30 8910 C 844.237 -1.61843 -3.04797 0
M  V30 8911 C 843.35 -2.8845 -3.2159 0
M  V30 8912 C 842.485 -2.81773 -4.50308 0
M  V30 8913 C 841.524 -4.03208 -4.60532 0
M  V30 8914 N 840.661 -3.94769 -5.80604 0
M  V30 8915 H 845.501 -2.54415 -1.55168 0
M  V30 8916 H 843.038 -1.26194 -0.755876 0
M  V30 8917 H 844.996 -1.60976 -3.84893 0
M  V30 8918 H 843.626 -0.707997 -3.1494 0
M  V30 8919 H 842.678 -2.99186 -2.34929 0
M  V30 8920 H 843.99 -3.78379 -3.25009 0
M  V30 8921 H 843.144 -2.79153 -5.38663 0
M  V30 8922 H 841.883 -1.89527 -4.49367 0
M  V30 8923 H 840.888 -4.06133 -3.70589 0
M  V30 8924 H 842.113 -4.9658 -4.63233 0
M  V30 8925 H 840.059 -3.05326 -5.80613 0
M  V30 8926 H 839.976 -4.78375 -5.854 0
M  V30 8927 H 841.244 -3.96165 -6.71322 0
M  V30 8928 N 845.473 0.80434 -1.35529 0
M  V30 8929 C 846.884 1.37849 -1.25915 0
M  V30 8930 C 847.235 1.95905 0.107495 0
M  V30 8931 O 846.36 1.91462 1.00852 0
M  V30 8932 C 846.955 2.50608 -2.27994 0
M  V30 8933 C 845.514 3.03879 -2.22114 0
M  V30 8934 C 844.661 1.76856 -2.13582 0
M  V30 8935 H 847.612 0.607192 -1.46625 0
M  V30 8936 H 847.633 3.29221 -1.90772 0
M  V30 8937 H 847.145 2.08323 -3.27449 0
M  V30 8938 H 845.246 3.50622 -1.26077 0
M  V30 8939 H 845.359 3.61707 -3.14173 0
M  V30 8940 H 843.723 1.98498 -1.59595 0
M  V30 8941 H 844.506 1.36721 -3.14901 0
M  V30 8942 N 846.951 1.19563 1.02676 0
M  V30 8943 C 848.199 0.997593 1.75763 0
M  V30 8944 C 848.52 -0.47253 1.89188 0
M  V30 8945 O 847.79 -1.34214 1.42701 0
M  V30 8946 H 846.37 0.366128 0.651122 0
M  V30 8947 H 849.032 1.50495 1.23844 0
M  V30 8948 H 848.128 1.44741 2.76508 0
M  V30 8949 N 848.429 -1.21819 0.999893 0
M  V30 8950 C 849.339 -2.27691 0.565159 0
M  V30 8951 C 850.355 -1.69587 -0.389398 0
M  V30 8952 O 851.531 -1.99786 -0.254499 0
M  V30 8953 C 848.596 -3.46537 -0.106432 0
M  V30 8954 C 847.657 -4.19932 0.891964 0
M  V30 8955 C 846.89 -5.33103 0.252327 0
M  V30 8956 O 847.113 -5.62398 -0.952103 0
M  V30 8957 O 846.047 -5.94184 0.960698 0
M  V30 8958 H 849.873 -2.67059 1.44613 0
M  V30 8959 H 847.458 -1.28119 0.768499 0
M  V30 8960 H 849.34 -4.18631 -0.482301 0
M  V30 8961 H 848.015 -3.09079 -0.961865 0
M  V30 8962 H 846.922 -3.5008 1.3189 0
M  V30 8963 H 848.255 -4.61287 1.71682 0
M  V30 8964 N 849.908 -0.773975 -1.37286 0
M  V30 8965 C 850.871 -0.167974 -2.28584 0
M  V30 8966 C 851.871 0.625662 -1.48129 0
M  V30 8967 O 853.061 0.448924 -1.68316 0
M  V30 8968 C 850.193 0.769364 -3.32105 0
M  V30 8969 H 851.386 -0.972806 -2.83684 0
M  V30 8970 H 848.939 -0.542335 -1.46589 0
M  V30 8971 H 849.674 1.59912 -2.82132 0
M  V30 8972 H 849.459 0.202419 -3.91577 0
M  V30 8973 H 850.949 1.18872 -4.00324 0
M  V30 8974 N 851.386 1.48609 -0.524698 0
M  V30 8975 C 852.318 2.27508 0.278 0
M  V30 8976 C 853.331 1.35042 0.909258 0
M  V30 8977 O 854.52 1.60136 0.788592 0
M  V30 8978 C 851.62 3.08247 1.40843 0
M  V30 8979 C 850.793 4.28455 0.880083 0
M  V30 8980 C 849.852 4.91048 1.891 0
M  V30 8981 O 848.878 5.5042 1.45005 0
M  V30 8982 N 850.08 4.82816 3.22288 0
M  V30 8983 H 852.845 2.97037 -0.398642 0
M  V30 8984 H 850.406 1.57876 -0.358698 0
M  V30 8985 H 852.398 3.46992 2.08276 0
M  V30 8986 H 850.968 2.41173 1.98883 0
M  V30 8987 H 850.188 3.94189 0.0299228 0
M  V30 8988 H 851.476 5.06279 0.505881 0
M  V30 8989 H 850.874 4.3572 3.60783 0
M  V30 8990 H 849.431 5.25676 3.85368 0
M  V30 8991 N 852.864 0.259585 1.55447 0
M  V30 8992 C 853.812 -0.6507 2.23313 0
M  V30 8993 C 854.806 -1.17014 1.22491 0
M  V30 8994 O 856.012 -1.12557 1.40467 0
M  V30 8995 H 852.387 -0.228354 0.71649 0
M  V30 8996 H 854.358 -0.0553039 2.98349 0
M  V30 8997 C 853.107 -1.83081 2.95596 0
M  V30 8998 H 852.43 -1.44027 3.72956 0
M  V30 8999 H 853.87 -2.44469 3.46426 0
M  V30 9000 C 852.329 -2.70976 2.00184 0
M  V30 9001 O 852.859 -3.70882 1.54304 0
M  V30 9002 N 851.065 -2.37813 1.67014 0
M  V30 9003 H 850.612 -1.5662 2.04519 0
M  V30 9004 H 850.57 -2.96896 1.03443 0
M  V30 9005 N 854.342 -1.57594 -0.0133615 0
M  V30 9006 C 855.59 -1.89605 -0.699596 0
M  V30 9007 C 855.911 -0.85926 -1.75048 0
M  V30 9008 O 855.181 0.105112 -1.95618 0
M  V30 9009 H 853.761 -0.699776 -0.261385 0
M  V30 9010 H 856.423 -1.94885 0.0244044 0
M  V30 9011 H 855.519 -2.88962 -1.17928 0
M  V30 9012 N 855.82 0.285905 -1.54985 0
M  V30 9013 C 857.236 0.632405 -1.46536 0
M  V30 9014 C 857.436 1.90074 -0.668888 0
M  V30 9015 O 856.492 2.51839 -0.182586 0
M  V30 9016 C 857.805 0.771361 -2.90638 0
M  V30 9017 C 859.353 0.866262 -3.00774 0
M  V30 9018 C 859.828 1.0371 -4.46103 0
M  V30 9019 N 861.319 1.10294 -4.49877 0
M  V30 9020 C 862.054 1.25369 -5.59527 0
M  V30 9021 N 861.55 1.37246 -6.7907 0
M  V30 9022 N 863.343 1.28377 -5.47244 0
M  V30 9023 H 855.494 -0.547226 -2.0523 0
M  V30 9024 H 857.757 -0.183298 -0.930111 0
M  V30 9025 H 857.463 -0.0899485 -3.51585 0
M  V30 9026 H 857.337 1.65569 -3.3892 0
M  V30 9027 H 859.724 1.71805 -2.39931 0
M  V30 9028 H 859.805 -0.0424049 -2.55765 0
M  V30 9029 H 859.449 0.190021 -5.07544 0
M  V30 9030 H 859.379 1.96022 -4.88757 0
M  V30 9031 H 861.87 1.02407 -3.6376 0
M  V30 9032 H 862.183 1.48546 -7.58389 0
M  V30 9033 H 860.528 1.34274 -6.81906 0
M  V30 9034 H 863.719 1.1872 -4.52795 0
M  V30 9035 H 863.892 1.39782 -6.32744 0
M  V30 9036 N 857.298 1.47698 0.54982 0
M  V30 9037 C 858.714 1.3338 0.876468 0
M  V30 9038 C 858.914 0.329837 1.98782 0
M  V30 9039 O 857.97 -0.256022 2.51199 0
M  V30 9040 C 859.283 2.72903 1.26272 0
M  V30 9041 C 860.831 2.81243 1.37373 0
M  V30 9042 C 861.306 4.21423 1.79351 0
M  V30 9043 N 862.797 4.24 1.86489 0
M  V30 9044 C 863.532 5.29386 2.20313 0
M  V30 9045 N 863.028 6.4507 2.527 0
M  V30 9046 N 864.821 5.16768 2.2115 0
M  V30 9047 H 856.972 2.11603 -0.183781 0
M  V30 9048 H 859.235 0.947798 -0.0195601 0
M  V30 9049 H 858.941 3.47836 0.519889 0
M  V30 9050 H 858.815 3.05151 2.21727 0
M  V30 9051 H 861.202 2.06577 2.10737 0
M  V30 9052 H 861.283 2.52639 0.400882 0
M  V30 9053 H 860.927 4.96597 1.06555 0
M  V30 9054 H 860.857 4.47456 2.77652 0
M  V30 9055 H 863.348 3.40547 1.63817 0
M  V30 9056 H 863.661 7.21236 2.77557 0
M  V30 9057 H 862.006 6.48377 2.50263 0
M  V30 9058 H 865.197 4.25416 1.95293 0
M  V30 9059 H 865.37 5.99004 2.4718 0
M  V30 9060 N 858.776 -0.797141 1.35954 0
M  V30 9061 C 860.192 -1.09408 1.16198 0
M  V30 9062 C 860.392 -2.01491 -0.0191682 0
M  V30 9063 O 859.448 -2.42977 -0.686902 0
M  V30 9064 C 860.761 -1.71597 2.46931 0
M  V30 9065 C 862.309 -1.83974 2.53224 0
M  V30 9066 C 862.784 -2.49579 3.84024 0
M  V30 9067 N 864.275 -2.57055 3.85327 0
M  V30 9068 C 865.01 -3.08608 4.83268 0
M  V30 9069 N 864.506 -3.60527 5.91601 0
M  V30 9070 N 866.299 -3.07249 4.70696 0
M  V30 9071 H 858.45 -0.185209 2.11591 0
M  V30 9072 H 860.713 -0.144768 0.936881 0
M  V30 9073 H 860.419 -1.11404 3.3359 0
M  V30 9074 H 860.293 -2.71193 2.62172 0
M  V30 9075 H 862.68 -2.43308 1.66988 0
M  V30 9076 H 862.761 -0.83207 2.41889 0
M  V30 9077 H 862.405 -1.90892 4.70662 0
M  V30 9078 H 862.335 -3.50902 3.92651 0
M  V30 9079 H 864.826 -2.20283 3.07057 0
M  V30 9080 H 865.139 -3.98192 6.62317 0
M  V30 9081 H 863.484 -3.587 5.95281 0
M  V30 9082 H 866.675 -2.65972 3.85197 0
M  V30 9083 H 866.848 -3.47119 5.47186 0
M  V30 9084 N 860.254 -1.20106 -1.0204 0
M  V30 9085 C 861.479 -1.0351 -1.79723 0
M  V30 9086 C 861.904 0.411328 -1.83548 0
M  V30 9087 O 861.262 1.29608 -1.26773 0
M  V30 9088 C 861.31 -1.61876 -3.22224 0
M  V30 9089 O 860.414 -0.853813 -4.03465 0
M  V30 9090 H 859.755 -0.365299 -0.554484 0
M  V30 9091 H 862.285 -1.59316 -1.28373 0
M  V30 9092 H 862.295 -1.65451 -3.72948 0
M  V30 9093 H 860.97 -2.67148 -3.18755 0
M  V30 9094 H 859.547 -0.891983 -3.62075 0
M  V30 9095 N 861.732 1.21287 -1.00634 0
M  V30 9096 C 863.148 1.42467 -0.719389 0
M  V30 9097 C 863.348 1.88767 0.704927 0
M  V30 9098 O 862.404 2.05004 1.47409 0
M  V30 9099 C 863.717 2.455 -1.73639 0
M  V30 9100 C 865.265 2.59281 -1.75335 0
M  V30 9101 C 865.74 3.65547 -2.75934 0
M  V30 9102 N 867.231 3.73019 -2.74611 0
M  V30 9103 C 867.966 4.54873 -3.4911 0
M  V30 9104 N 867.462 5.40614 -4.33253 0
M  V30 9105 N 869.255 4.49309 -3.37754 0
M  V30 9106 H 861.406 0.895454 -1.92602 0
M  V30 9107 H 863.669 0.455491 -0.831404 0
M  V30 9108 H 863.375 2.18455 -2.75627 0
M  V30 9109 H 863.249 3.44325 -1.54014 0
M  V30 9110 H 865.636 2.85661 -0.740377 0
M  V30 9111 H 865.717 1.60685 -1.99032 0
M  V30 9112 H 865.361 3.39911 -3.77389 0
M  V30 9113 H 865.291 4.63741 -2.49503 0
M  V30 9114 H 867.782 3.11766 -2.13565 0
M  V30 9115 H 868.095 6.0013 -4.86892 0
M  V30 9116 H 866.44 5.40151 -4.37335 0
M  V30 9117 H 869.631 3.81357 -2.71449 0
M  V30 9118 H 869.804 5.12867 -3.9607 0
M  V30 9119 N 863.21 0.781244 1.36873 0
M  V30 9120 C 864.143 0.120106 2.27884 0
M  V30 9121 C 865.121 -0.698961 1.4681 0
M  V30 9122 O 866.305 -0.671694 1.76126 0
M  V30 9123 C 863.432 -0.835804 3.28226 0
M  V30 9124 C 862.478 -0.0995527 4.26384 0
M  V30 9125 S 863.311 1.21903 5.2144 0
M  V30 9126 C 864.467 0.266904 6.25331 0
M  V30 9127 H 864.7 0.891796 2.83609 0
M  V30 9128 H 862.233 0.575075 1.43291 0
M  V30 9129 H 864.191 -1.3819 3.86541 0
M  V30 9130 H 862.852 -1.58068 2.71428 0
M  V30 9131 H 862.045 -0.82457 4.97209 0
M  V30 9132 H 861.647 0.375818 3.72107 0
M  V30 9133 H 863.939 -0.55725 6.75204 0
M  V30 9134 H 864.882 0.943603 7.01785 0
M  V30 9135 H 865.29 -0.126121 5.64359 0
M  V30 9136 N 864.689 -1.48329 0.532571 0
M  V30 9137 C 865.966 -1.95492 -0.0650985 0
M  V30 9138 C 866.346 -1.47485 -1.51034 0
M  V30 9139 O 865.694 -0.702516 -2.17433 0
M  V30 9140 C 865.904 -3.48957 0.0548341 0
M  V30 9141 C 867.252 -4.24475 -0.103115 0
M  V30 9142 O 868.276 -3.56195 -0.0188343 0
M  V30 9143 O 867.135 -5.45781 -0.280164 0
M  V30 9144 H 864.229 -0.823327 -0.0778603 0
M  V30 9145 H 866.775 -1.58839 0.597353 0
M  V30 9146 H 865.547 -3.76628 1.06148 0
M  V30 9147 H 865.17 -3.92311 -0.64635 0
M  V30 9148 N 866.167 -0.267825 -1.55308 0
M  V30 9149 C 867.077 0.633055 -2.25897 0
M  V30 9150 C 868.093 1.17613 -1.28231 0
M  V30 9151 O 869.269 1.20797 -1.61153 0
M  V30 9152 C 866.334 1.80397 -2.96071 0
M  V30 9153 C 865.395 1.29829 -4.09198 0
M  V30 9154 C 864.628 2.4134 -4.76016 0
M  V30 9155 O 864.851 3.60537 -4.42006 0
M  V30 9156 O 863.785 2.09909 -5.64111 0
M  V30 9157 H 867.611 0.0614381 -3.03638 0
M  V30 9158 H 865.196 -0.0355072 -1.49358 0
M  V30 9159 H 867.078 2.48685 -3.40197 0
M  V30 9160 H 865.753 2.36281 -2.21253 0
M  V30 9161 H 864.66 0.582086 -3.69544 0
M  V30 9162 H 865.993 0.785288 -4.85895 0
M  V30 9163 N 867.645 1.57599 0.00500368 0
M  V30 9164 C 868.608 2.07058 0.982832 0
M  V30 9165 C 869.608 0.979045 1.27559 0
M  V30 9166 O 870.798 1.24187 1.22161 0
M  V30 9167 C 867.93 2.50782 2.30914 0
M  V30 9168 H 869.123 2.94718 0.555119 0
M  V30 9169 H 866.676 1.54249 0.25237 0
M  V30 9170 H 867.411 1.66351 2.78385 0
M  V30 9171 H 867.196 3.30495 2.10987 0
M  V30 9172 H 868.686 2.89391 3.0107 0
M  V30 9173 N 869.123 -0.277682 1.55134 0
M  V30 9174 C 870.351 -1.02826 1.7954 0
M  V30 9175 C 870.766 -1.80105 0.566373 0
M  V30 9176 O 870.123 -1.76491 -0.464448 0
M  V30 9177 C 870.174 -1.99053 3.01762 0
M  V30 9178 O 869.895 -1.24906 4.19917 0
M  V30 9179 C 871.396 -2.85961 3.38735 0
M  V30 9180 H 868.616 -0.303958 0.598206 0
M  V30 9181 H 871.16 -0.309884 2.02138 0
M  V30 9182 H 869.315 -2.66359 2.81303 0
M  V30 9183 H 869.729 -1.89725 4.88983 0
M  V30 9184 H 871.203 -3.49286 4.27438 0
M  V30 9185 H 871.68 -3.55486 2.57928 0
M  V30 9186 H 872.286 -2.24152 3.61436 0
M  V30 9187 N 870.601 -1.47988 -0.541979 0
M  V30 9188 C 871.847 -1.56604 -1.29795 0
M  V30 9189 C 872.202 -0.231728 -1.90999 0
M  V30 9190 O 871.495 0.764203 -1.757 0
M  V30 9191 C 871.689 -2.63189 -2.41798 0
M  V30 9192 C 871.518 -4.06855 -1.9157 0
M  V30 9193 C 870.288 -4.74132 -1.74719 0
M  V30 9194 C 872.486 -4.934 -1.45123 0
M  V30 9195 N 870.468 -6.02258 -1.18991 0
M  V30 9196 C 871.839 -6.11675 -1.01263 0
M  V30 9197 C 873.894 -4.7972 -1.33315 0
M  V30 9198 C 872.597 -7.17778 -0.467663 0
M  V30 9199 C 874.623 -5.85934 -0.802192 0
M  V30 9200 C 873.985 -7.03409 -0.373595 0
M  V30 9201 H 870.084 -0.627677 -0.466418 0
M  V30 9202 H 872.668 -1.84812 -0.612576 0
M  V30 9203 H 870.839 -2.36823 -3.07846 0
M  V30 9204 H 872.571 -2.6156 -3.08818 0
M  V30 9205 H 869.326 -4.30276 -1.97887 0
M  V30 9206 H 869.75 -6.70558 -0.931715 0
M  V30 9207 H 874.392 -3.89249 -1.6506 0
M  V30 9208 H 872.11 -8.07982 -0.137874 0
M  V30 9209 H 875.696 -5.774 -0.714171 0
M  V30 9210 H 874.576 -7.84194 0.0308796 0
M  V30 9211 N 872.079 0.78992 -1.36375 0
M  V30 9212 C 873.309 1.57644 -1.33536 0
M  V30 9213 C 873.717 1.89007 0.0855075 0
M  V30 9214 O 873.06 1.50547 1.05267 0
M  V30 9215 C 873.122 2.92424 -2.09113 0
M  V30 9216 C 872.786 2.83793 -3.58205 0
M  V30 9217 C 873.783 2.56072 -4.52464 0
M  V30 9218 C 871.468 3.02386 -4.01084 0
M  V30 9219 C 873.462 2.47044 -5.87578 0
M  V30 9220 C 871.149 2.9298 -5.36289 0
M  V30 9221 C 872.147 2.65347 -6.29349 0
M  V30 9222 O 871.835 2.55935 -7.62071 0
M  V30 9223 H 871.567 0.495639 -0.459694 0
M  V30 9224 H 874.121 0.988354 -1.80058 0
M  V30 9225 H 872.351 3.53282 -1.57254 0
M  V30 9226 H 874.04 3.53693 -1.99139 0
M  V30 9227 H 874.806 2.4141 -4.2065 0
M  V30 9228 H 870.685 3.229 -3.29023 0
M  V30 9229 H 874.229 2.25396 -6.60184 0
M  V30 9230 H 870.126 3.07204 -5.67711 0
M  V30 9231 H 870.894 2.7142 -7.72187 0
M  V30 9232 N 873.557 1.20646 1.01402 0
M  V30 9233 C 874.487 0.98155 2.11867 0
M  V30 9234 C 875.468 -0.0903712 1.6986 0
M  V30 9235 O 876.653 0.0676586 1.94082 0
M  V30 9236 C 873.783 0.535636 3.43145 0
M  V30 9237 C 872.737 1.55109 3.98905 0
M  V30 9238 C 872.063 0.961725 5.2598 0
M  V30 9239 C 873.363 2.93552 4.32001 0
M  V30 9240 H 875.057 1.90544 2.3094 0
M  V30 9241 H 872.603 0.917554 1.10982 0
M  V30 9242 H 874.556 0.365512 4.19812 0
M  V30 9243 H 873.28 -0.423882 3.23838 0
M  V30 9244 H 871.939 1.70862 3.24348 0
M  V30 9245 H 871.587 -0.00580108 5.03 0
M  V30 9246 H 871.287 1.63993 5.64252 0
M  V30 9247 H 872.811 0.802726 6.053 0
M  V30 9248 H 874.225 2.81295 4.99546 0
M  V30 9249 H 872.622 3.58303 4.81393 0
M  V30 9250 H 873.692 3.4508 3.40658 0
M  V30 9251 N 875.035 -1.20752 1.01276 0
M  V30 9252 C 876.312 -1.85676 0.615112 0
M  V30 9253 C 876.692 -1.90623 -0.906976 0
M  V30 9254 O 876.04 -1.41124 -1.79712 0
M  V30 9255 C 876.25 -3.2552 1.25847 0
M  V30 9256 C 877.598 -4.0184 1.37148 0
M  V30 9257 O 878.622 -3.3486 1.21438 0
M  V30 9258 O 877.481 -5.21783 1.62495 0
M  V30 9259 H 874.575 -0.799437 0.211729 0
M  V30 9260 H 877.121 -1.28372 1.10989 0
M  V30 9261 H 875.893 -3.16664 2.29869 0
M  V30 9262 H 875.516 -3.90452 0.750524 0
M  V30 9263 N 876.513 -0.788492 -1.36457 0
M  V30 9264 C 877.738 -0.371224 -2.04051 0
M  V30 9265 C 878.163 1.004 -1.59064 0
M  V30 9266 O 877.521 1.64663 -0.758679 0
M  V30 9267 C 877.569 -0.442275 -3.57877 0
M  V30 9268 O 876.673 0.55113 -4.08701 0
M  V30 9269 H 876.014 -0.157808 -0.644975 0
M  V30 9270 H 878.544 -1.06935 -1.74431 0
M  V30 9271 H 878.554 -0.305548 -4.06854 0
M  V30 9272 H 877.229 -1.44547 -3.89973 0
M  V30 9273 H 875.806 0.37614 -3.70998 0
M  V30 9274 N 877.991 1.48044 -0.54043 0
M  V30 9275 C 879.268 1.95523 0.0547302 0
M  V30 9276 C 879.648 1.48284 1.5025 0
M  V30 9277 O 878.996 0.714037 2.17057 0
M  V30 9278 C 879.206 3.48923 -0.0733393 0
M  V30 9279 C 880.554 4.24523 0.0806026 0
M  V30 9280 O 881.578 3.562 -5.58687e-05 0
M  V30 9281 O 880.437 5.45922 0.251216 0
M  V30 9282 H 877.531 0.823728 0.073493 0
M  V30 9283 H 880.077 1.5852 -0.605768 0
M  V30 9284 H 878.849 3.76059 -1.08144 0
M  V30 9285 H 878.472 3.92648 0.625536 0
M  V30 9286 N 879.47 0.276058 1.55163 0
M  V30 9287 C 880.747 -0.392292 1.91626 0
M  V30 9288 C 881.127 -1.73646 1.20043 0
M  V30 9289 O 880.475 -2.26139 0.327606 0
M  V30 9290 C 880.685 -0.531641 3.44927 0
M  V30 9291 C 882.033 -0.8141 4.16722 0
M  V30 9292 O 883.057 -0.616413 3.50826 0
M  V30 9293 O 881.916 -1.19224 5.33337 0
M  V30 9294 H 879.01 -0.214945 0.798579 0
M  V30 9295 H 881.556 0.32228 1.66612 0
M  V30 9296 H 880.328 0.414282 3.89101 0
M  V30 9297 H 879.951 -1.29564 3.75897 0
M  V30 9298 N 880.948 -1.576 0.00335426 0
M  V30 9299 C 882.173 -1.95398 -0.695311 0
M  V30 9300 C 882.598 -0.878476 -1.66326 0
M  V30 9301 O 881.956 0.163086 -1.80565 0
M  V30 9302 C 882.004 -3.32293 -1.40049 0
M  V30 9303 O 881.108 -3.26834 -2.51502 0
M  V30 9304 H 880.449 -0.637796 -0.184694 0
M  V30 9305 H 882.979 -2.04519 0.057543 0
M  V30 9306 H 882.989 -3.67936 -1.76316 0
M  V30 9307 H 881.664 -4.10123 -0.690803 0
M  V30 9308 H 880.241 -3.02872 -2.17539 0
M  V30 9309 N 882.426 0.269451 -1.5528 0
M  V30 9310 C 883.651 1.02299 -1.80415 0
M  V30 9311 C 884.076 1.7902 -0.577363 0
M  V30 9312 O 883.434 1.75018 0.473125 0
M  V30 9313 C 883.482 1.95445 -3.0304 0
M  V30 9314 O 882.586 3.04271 -2.78375 0
M  V30 9315 H 881.927 0.292289 -0.596207 0
M  V30 9316 H 884.457 0.297282 -2.02429 0
M  V30 9317 H 884.467 2.37333 -3.31869 0
M  V30 9318 H 883.142 1.39017 -3.91978 0
M  V30 9319 H 881.719 2.66673 -2.60653 0
M  V30 9320 N 883.904 1.48273 0.534124 0
M  V30 9321 C 885.315 1.49667 1.1161 0
M  V30 9322 C 885.666 0.264139 1.94414 0
M  V30 9323 O 884.791 -0.629084 2.07054 0
M  V30 9324 C 885.386 2.71191 2.03079 0
M  V30 9325 C 883.945 2.7547 2.56502 0
M  V30 9326 C 883.092 2.43119 1.33373 0
M  V30 9327 H 886.043 1.55449 0.319578 0
M  V30 9328 H 886.064 2.49473 2.87304 0
M  V30 9329 H 885.576 3.60879 1.42785 0
M  V30 9330 H 883.677 1.89979 3.20529 0
M  V30 9331 H 883.79 3.76787 2.95919 0
M  V30 9332 H 882.154 1.94187 1.64813 0
M  V30 9333 H 882.937 3.35044 0.748375 0
M  V30 9334 N 885.382 -0.782676 1.36792 0
M  V30 9335 C 886.312 -1.90973 1.34356 0
M  V30 9336 C 887.293 -1.6875 0.213917 0
M  V30 9337 O 888.478 -1.89766 0.412601 0
M  V30 9338 C 885.608 -3.28097 1.13884 0
M  V30 9339 C 884.562 -3.6486 2.23744 0
M  V30 9340 C 883.888 -5.00406 1.88408 0
M  V30 9341 C 885.188 -3.72742 3.6587 0
M  V30 9342 H 886.882 -1.93268 2.28665 0
M  V30 9343 H 884.428 -0.928447 1.10072 0
M  V30 9344 H 886.381 -4.06569 1.10813 0
M  V30 9345 H 885.105 -3.26206 0.160275 0
M  V30 9346 H 883.764 -2.88689 2.25952 0
M  V30 9347 H 883.412 -4.95044 0.891083 0
M  V30 9348 H 883.112 -5.25973 2.61966 0
M  V30 9349 H 884.636 -5.81291 1.86905 0
M  V30 9350 H 886.05 -4.4139 3.65852 0
M  V30 9351 H 884.447 -4.09798 4.38389 0
M  V30 9352 H 885.517 -2.73676 4.00287 0
M  V30 9353 N 886.86 -1.21182 -1.00761 0
M  V30 9354 C 888.108 -1.02543 -1.74153 0
M  V30 9355 C 888.429 0.442372 -1.89916 0
M  V30 9356 O 887.699 1.31927 -1.44818 0
M  V30 9357 H 886.279 -0.37644 -0.645214 0
M  V30 9358 H 888.941 -1.52446 -1.21434 0
M  V30 9359 H 888.037 -1.49122 -2.7417 0
M  V30 9360 N 888.338 1.20213 -1.01915 0
M  V30 9361 C 889.563 1.94163 -0.729076 0
M  V30 9362 C 889.988 1.74416 0.704323 0
M  V30 9363 O 889.346 1.0401 1.48498 0
M  V30 9364 C 889.394 3.44258 -1.07324 0
M  V30 9365 O 888.498 4.11979 -0.186367 0
M  V30 9366 H 887.839 0.606506 -0.270272 0
M  V30 9367 H 890.369 1.52571 -1.3632 0
M  V30 9368 H 890.379 3.94888 -1.02603 0
M  V30 9369 H 889.054 3.57954 -2.11759 0
M  V30 9370 H 887.631 3.7176 -0.291334 0
M  V30 9371 N 889.816 0.795718 1.36037 0
M  V30 9372 C 891.227 0.433379 1.816 0
M  V30 9373 C 891.578 -1.04341 1.66155 0
M  V30 9374 O 890.703 -1.81004 1.18603 0
M  V30 9375 C 891.298 0.77985 3.29703 0
M  V30 9376 C 889.857 0.470256 3.73451 0
M  V30 9377 C 889.004 1.01119 2.58206 0
M  V30 9378 H 891.955 0.988317 1.24169 0
M  V30 9379 H 891.976 0.0732898 3.80429 0
M  V30 9380 H 891.488 1.85473 3.40913 0
M  V30 9381 H 889.589 -0.596332 3.67797 0
M  V30 9382 H 889.702 0.995276 4.68648 0
M  V30 9383 H 888.066 0.434077 2.50974 0
M  V30 9384 H 888.849 2.09196 2.72198 0
M  V30 9385 N 891.294 -1.47756 0.548274 0
M  V30 9386 C 892.519 -2.07387 0.023475 0
M  V30 9387 C 892.944 -1.39956 -1.25674 0
M  V30 9388 O 892.302 -0.471543 -1.7506 0
M  V30 9389 C 892.35 -3.60224 -0.164669 0
M  V30 9390 O 891.454 -3.93653 -1.22928 0
M  V30 9391 H 890.795 -0.662312 0.0473156 0
M  V30 9392 H 893.325 -1.89905 0.761409 0
M  V30 9393 H 893.335 -4.06211 -0.38166 0
M  V30 9394 H 892.01 -4.08702 0.770425 0
M  V30 9395 H 890.587 -3.59422 -0.993495 0
M  V30 9396 N 892.772 -0.284283 -1.55015 0
M  V30 9397 C 894 0.332948 -2.04203 0
M  V30 9398 C 894.415 1.48783 -1.16229 0
M  V30 9399 O 893.772 1.81567 -0.184323 0
M  V30 9400 C 893.823 0.805207 -3.52418 0
M  V30 9401 O 893.544 -0.303689 -4.37046 0
M  V30 9402 C 895.045 1.48931 -4.17534 0
M  V30 9403 H 892.265 0.0747447 -0.666824 0
M  V30 9404 H 894.809 -0.419048 -2.00161 0
M  V30 9405 H 892.964 1.50727 -3.56876 0
M  V30 9406 H 893.378 0.0609703 -5.24465 0
M  V30 9407 H 894.852 1.77108 -5.22816 0
M  V30 9408 H 895.329 2.42389 -3.66257 0
M  V30 9409 H 895.935 0.830867 -4.17105 0
M  V30 9410 N 894.251 1.57596 -0.0117121 0
M  V30 9411 C 895.662 1.79033 0.529521 0
M  V30 9412 C 896.013 0.920299 1.73277 0
M  V30 9413 O 895.138 0.125934 2.16033 0
M  V30 9414 C 895.733 3.24695 0.967405 0
M  V30 9415 C 894.292 3.47188 1.45387 0
M  V30 9416 C 893.439 2.74245 0.410466 0
M  V30 9417 H 896.39 1.56908 -0.237836 0
M  V30 9418 H 896.411 3.33451 1.83278 0
M  V30 9419 H 895.923 3.87992 0.0914605 0
M  V30 9420 H 894.024 2.89121 2.35032 0
M  V30 9421 H 894.137 4.55886 1.47325 0
M  V30 9422 H 892.501 2.39209 0.874721 0
M  V30 9423 H 893.284 3.40248 -0.456713 0
M  V30 9424 N 895.729 -0.261212 1.5542 0
M  V30 9425 C 897.14 -0.83138 1.67167 0
M  V30 9426 C 897.491 -1.8659 0.606525 0
M  V30 9427 O 896.616 -2.14953 -0.24985 0
M  V30 9428 C 897.211 -1.51475 3.03052 0
M  V30 9429 C 895.77 -2.0328 3.16787 0
M  V30 9430 C 894.917 -0.878903 2.63003 0
M  V30 9431 H 897.868 -0.0373102 1.58656 0
M  V30 9432 H 897.889 -2.38222 2.96699 0
M  V30 9433 H 897.401 -0.76157 3.80554 0
M  V30 9434 H 895.502 -2.81523 2.44082 0
M  V30 9435 H 895.615 -2.24001 4.2351 0
M  V30 9436 H 893.979 -1.27551 2.2046 0
M  V30 9437 H 894.762 -0.13904 3.43018 0
M  V30 9438 N 897.207 -1.48554 -0.526253 0
M  V30 9439 C 898.17 -1.62868 -1.61266 0
M  V30 9440 C 899.17 -0.501762 -1.52771 0
M  V30 9441 O 900.36 -0.76764 -1.56374 0
M  V30 9442 C 897.492 -1.60238 -3.00893 0
M  V30 9443 H 898.685 -2.59742 -1.49913 0
M  V30 9444 H 896.238 -1.37207 -0.748595 0
M  V30 9445 H 896.973 -0.648545 -3.17749 0
M  V30 9446 H 896.758 -2.42054 -3.08468 0
M  V30 9447 H 898.248 -1.73455 -3.79872 0
M  V30 9448 N 898.685 0.775411 -1.37205 0
M  V30 9449 C 899.615 1.90258 -1.35367 0
M  V30 9450 C 900.596 1.68634 -0.222864 0
M  V30 9451 O 901.781 1.89545 -0.422659 0
M  V30 9452 C 898.911 3.27488 -1.15623 0
M  V30 9453 C 897.865 3.63668 -2.25676 0
M  V30 9454 C 897.191 4.994 -1.91059 0
M  V30 9455 C 898.491 3.70797 -3.67841 0
M  V30 9456 H 900.185 1.92053 -2.29687 0
M  V30 9457 H 897.731 0.922597 -1.10563 0
M  V30 9458 H 899.684 4.05976 -1.12968 0
M  V30 9459 H 898.408 3.26117 -0.177573 0
M  V30 9460 H 897.067 2.87486 -2.2748 0
M  V30 9461 H 896.715 4.94565 -0.917324 0
M  V30 9462 H 896.415 5.24576 -2.64751 0
M  V30 9463 H 897.939 5.80291 -1.89985 0
M  V30 9464 H 899.353 4.39444 -3.68187 0
M  V30 9465 H 897.75 4.07468 -4.40556 0
M  V30 9466 H 898.82 2.71549 -4.01732 0
M  V30 9467 N 900.163 1.21714 1.00117 0
M  V30 9468 C 901.111 0.976937 2.11089 0
M  V30 9469 C 902.105 -0.0771295 1.69224 0
M  V30 9470 O 903.311 0.0745945 1.79845 0
M  V30 9471 H 899.686 0.298687 0.690138 0
M  V30 9472 H 901.657 1.91881 2.28526 0
M  V30 9473 C 900.406 0.562369 3.43122 0
M  V30 9474 H 899.729 1.36509 3.75773 0
M  V30 9475 H 901.169 0.433642 4.21777 0
M  V30 9476 C 899.628 -0.727148 3.28959 0
M  V30 9477 O 900.158 -1.78171 3.60025 0
M  V30 9478 N 898.364 -0.695129 2.82164 0
M  V30 9479 H 897.911 0.163346 2.57082 0
M  V30 9480 H 897.869 -1.55822 2.73069 0
M  V30 9481 N 901.641 -1.19671 1.02551 0
M  V30 9482 C 902.889 -1.88894 0.71858 0
M  V30 9483 C 903.21 -1.79797 -0.754856 0
M  V30 9484 O 902.48 -1.20621 -1.54362 0
M  V30 9485 H 901.06 -0.699244 0.262806 0
M  V30 9486 H 903.722 -1.45298 1.29902 0
M  V30 9487 H 902.818 -2.95309 1.00989 0
M  V30 9488 N 903.119 -0.802921 -1.35613 0
M  V30 9489 C 904.067 -0.198783 -2.31749 0
M  V30 9490 C 905.061 0.649416 -1.56458 0
M  V30 9491 O 906.267 0.542989 -1.71615 0
M  V30 9492 H 902.642 -0.0455177 -0.750621 0
M  V30 9493 H 904.613 -1.02479 -2.80251 0
M  V30 9494 C 903.362 0.641066 -3.41739 0
M  V30 9495 H 902.685 -0.00226244 -3.998 0
M  V30 9496 H 904.125 1.03022 -4.11294 0
M  V30 9497 C 902.584 1.80505 -2.84464 0
M  V30 9498 O 903.114 2.90235 -2.77717 0
M  V30 9499 N 901.32 1.61542 -2.41563 0
M  V30 9500 H 900.867 0.722863 -2.4725 0
M  V30 9501 H 900.825 2.39581 -2.03589 0
M  V30 9502 N 904.597 1.47463 -0.556102 0
M  V30 9503 C 906.008 1.86298 -0.122429 0
M  V30 9504 C 906.359 1.46285 1.30749 0
M  V30 9505 O 905.484 0.865405 1.98342 0
M  V30 9506 C 906.079 3.38115 -0.215407 0
M  V30 9507 C 904.638 3.76046 0.163223 0
M  V30 9508 C 903.785 2.71515 -0.563466 0
M  V30 9509 H 906.736 1.38996 -0.765888 0
M  V30 9510 H 906.757 3.76263 0.566271 0
M  V30 9511 H 906.269 3.67207 -1.25622 0
M  V30 9512 H 904.37 3.5257 1.20519 0
M  V30 9513 H 904.483 4.78705 -0.194568 0
M  V30 9514 H 902.847 2.54699 -0.00667879 0
M  V30 9515 H 903.63 3.03449 -1.60542 0
M  V30 9516 N 906.075 0.2925 1.54862 0
M  V30 9517 C 907.486 -0.201841 1.85606 0
M  V30 9518 C 907.837 -1.54093 1.21449 0
M  V30 9519 O 906.962 -2.10327 0.509079 0
M  V30 9520 C 907.557 -0.373011 3.3674 0
M  V30 9521 C 906.116 -0.811574 3.67547 0
M  V30 9522 C 905.263 0.0850583 2.7717 0
M  V30 9523 H 908.214 0.513774 1.50153 0
M  V30 9524 H 908.235 -1.20892 3.60785 0
M  V30 9525 H 907.747 0.601751 3.83407 0
M  V30 9526 H 905.848 -1.79719 3.26392 0
M  V30 9527 H 905.961 -0.636853 4.74848 0
M  V30 9528 H 904.325 -0.434224 2.50971 0
M  V30 9529 H 905.108 1.05602 3.26654 0
M  V30 9530 N 907.553 -1.57587 0.0200696 0
M  V30 9531 C 908.969 -1.56018 -0.336237 0
M  V30 9532 C 909.169 -1.02478 -1.73495 0
M  V30 9533 O 908.225 -0.667487 -2.43518 0
M  V30 9534 C 909.538 -3.00079 -0.193112 0
M  V30 9535 C 911.086 -3.11863 -0.266557 0
M  V30 9536 C 911.561 -4.57747 -0.152326 0
M  V30 9537 N 913.052 -4.62726 -0.209596 0
M  V30 9538 C 913.787 -5.73217 -0.144855 0
M  V30 9539 N 913.283 -6.92794 -0.0295487 0
M  V30 9540 N 915.076 -5.61751 -0.198184 0
M  V30 9541 H 907.227 -1.90722 0.93482 0
M  V30 9542 H 909.49 -0.876909 0.360186 0
M  V30 9543 H 909.196 -3.43167 0.770036 0
M  V30 9544 H 909.07 -3.64593 -0.967029 0
M  V30 9545 H 911.457 -2.68693 -1.22016 0
M  V30 9546 H 911.538 -2.50087 0.53758 0
M  V30 9547 H 911.182 -5.01595 0.797817 0
M  V30 9548 H 911.112 -5.17491 -0.97521 0
M  V30 9549 H 913.603 -3.76713 -0.299229 0
M  V30 9550 H 913.916 -7.72799 0.0134071 0
M  V30 9551 H 912.261 -6.95 0.00510737 0
M  V30 9552 H 915.452 -4.67222 -0.286603 0
M  V30 9553 H 915.625 -6.47839 -0.144266 0
M  V30 9554 N 909.032 0.252966 -1.55557 0
M  V30 9555 C 910.443 0.822503 -1.67606 0
M  V30 9556 C 910.794 1.86265 -0.616411 0
M  V30 9557 O 909.919 2.15082 0.238447 0
M  V30 9558 C 910.514 1.49866 -3.03852 0
M  V30 9559 C 909.073 2.01597 -3.17861 0
M  V30 9560 C 908.22 0.864943 -2.63465 0
M  V30 9561 H 911.171 0.0288958 -1.58674 0
M  V30 9562 H 911.192 2.36646 -2.97958 0
M  V30 9563 H 910.704 0.741378 -3.80953 0
M  V30 9564 H 908.805 2.80224 -2.45571 0
M  V30 9565 H 908.918 2.21752 -4.24692 0
M  V30 9566 H 907.282 1.2638 -2.21134 0
M  V30 9567 H 908.065 0.120847 -3.43087 0
M  V30 9568 N 910.51 1.48831 0.518367 0
M  V30 9569 C 911.735 1.61379 1.30275 0
M  V30 9570 C 912.16 0.278571 1.86026 0
M  V30 9571 O 911.518 -0.751427 1.64995 0
M  V30 9572 C 911.566 2.67225 2.42122 0
M  V30 9573 O 910.67 2.25192 3.45489 0
M  V30 9574 H 910.011 0.540742 0.385349 0
M  V30 9575 H 912.541 1.949 0.622498 0
M  V30 9576 H 912.551 2.88859 2.8814 0
M  V30 9577 H 911.226 3.64155 2.00907 0
M  V30 9578 H 909.803 2.13819 3.05509 0
M  V30 9579 N 911.988 -0.768124 1.37614 0
M  V30 9580 C 912.918 -1.89537 1.36374 0
M  V30 9581 C 913.899 -1.68513 0.231803 0
M  V30 9582 O 915.084 -1.89318 0.432705 0
M  V30 9583 C 912.214 -3.26871 1.17358 0
M  V30 9584 C 911.168 -3.62466 2.27602 0
M  V30 9585 C 910.494 -4.9838 1.93705 0
M  V30 9586 C 911.794 -3.68841 3.69802 0
M  V30 9587 H 913.488 -1.90832 2.30702 0
M  V30 9588 H 911.034 -0.91672 1.11051 0
M  V30 9589 H 912.987 -4.05371 1.15119 0
M  V30 9590 H 911.711 -3.26018 0.194865 0
M  V30 9591 H 910.37 -2.86276 2.29002 0
M  V30 9592 H 910.018 -4.94071 0.943539 0
M  V30 9593 H 909.718 -5.23165 2.6753 0
M  V30 9594 H 911.242 -5.79276 1.93059 0
M  V30 9595 H 912.656 -4.37485 3.70513 0
M  V30 9596 H 911.053 -4.05126 4.42711 0
M  V30 9597 H 912.123 -2.69415 4.03167 0
M  V30 9598 N 913.466 -1.22244 -0.994698 0
M  V30 9599 C 914.376 -1.00722 -2.11878 0
M  V30 9600 C 915.392 0.043919 -1.73945 0
M  V30 9601 O 916.568 -0.148411 -2.00852 0
M  V30 9602 C 913.633 -0.585723 -3.41717 0
M  V30 9603 C 912.694 -1.71027 -3.93762 0
M  V30 9604 C 911.927 -1.30879 -5.17403 0
M  V30 9605 O 912.15 -0.18681 -5.70094 0
M  V30 9606 O 911.084 -2.1246 -5.63156 0
M  V30 9607 H 914.91 -1.94894 -2.32916 0
M  V30 9608 H 912.495 -1.00822 -1.10251 0
M  V30 9609 H 914.377 -0.360935 -4.19851 0
M  V30 9610 H 913.052 0.327166 -3.22042 0
M  V30 9611 H 911.959 -1.98956 -3.16808 0
M  V30 9612 H 913.292 -2.60096 -4.17865 0
M  V30 9613 N 914.944 1.19125 -1.03184 0
M  V30 9614 C 916.355 1.70564 -0.759264 0
M  V30 9615 C 916.706 1.8248 0.720794 0
M  V30 9616 O 915.831 1.49804 1.56166 0
M  V30 9617 C 916.426 3.09793 -1.37163 0
M  V30 9618 C 914.985 3.5848 -1.14757 0
M  V30 9619 C 914.132 2.35265 -1.46784 0
M  V30 9620 H 917.083 1.03925 -1.19939 0
M  V30 9621 H 917.104 3.72624 -0.77015 0
M  V30 9622 H 916.616 3.01088 -2.44882 0
M  V30 9623 H 914.717 3.72494 -0.0887182 0
M  V30 9624 H 914.83 4.42426 -1.83836 0
M  V30 9625 H 913.194 2.38747 -0.887254 0
M  V30 9626 H 913.977 2.29188 -2.55593 0
M  V30 9627 N 916.422 0.810101 1.35185 0
M  V30 9628 C 917.332 0.224565 2.33523 0
M  V30 9629 C 918.348 -0.634287 1.62027 0
M  V30 9630 O 919.524 -0.545211 1.9388 0
M  V30 9631 C 916.589 -0.614319 3.41214 0
M  V30 9632 C 915.65 0.265435 4.28479 0
M  V30 9633 C 914.883 -0.533506 5.31027 0
M  V30 9634 O 915.106 -1.7679 5.42311 0
M  V30 9635 O 914.04 0.0774573 6.0185 0
M  V30 9636 H 917.866 1.03815 2.85405 0
M  V30 9637 H 915.451 0.571964 1.38018 0
M  V30 9638 H 917.333 -1.09201 4.07005 0
M  V30 9639 H 916.008 -1.40545 2.91597 0
M  V30 9640 H 914.915 0.790343 3.65656 0
M  V30 9641 H 916.248 1.0206 4.81503 0
M  V30 9642 N 917.9 -1.47166 0.563914 0
M  V30 9643 C 918.81 -2.33885 -0.182977 0
M  V30 9644 C 919.826 -1.48605 -0.905132 0
M  V30 9645 O 921.002 -1.81518 -0.872527 0
M  V30 9646 C 918.067 -3.25433 -1.19558 0
M  V30 9647 C 917.128 -4.26607 -0.480129 0
M  V30 9648 C 916.361 -5.1378 -1.44449 0
M  V30 9649 O 916.584 -5.03531 -2.67979 0
M  V30 9650 O 915.518 -5.94109 -0.965321 0
M  V30 9651 H 919.344 -2.99065 0.528544 0
M  V30 9652 H 916.929 -1.45834 0.324468 0
M  V30 9653 H 918.811 -3.81964 -1.77993 0
M  V30 9654 H 917.486 -2.62873 -1.8889 0
M  V30 9655 H 916.393 -3.73817 0.145583 0
M  V30 9656 H 917.726 -4.919 0.171868 0
M  V30 9657 N 919.378 -0.300708 -1.54705 0
M  V30 9658 C 920.789 0.191995 -1.8571 0
M  V30 9659 C 921.14 1.53447 -1.22264 0
M  V30 9660 O 920.265 2.10054 -0.520226 0
M  V30 9661 C 920.86 0.355148 -3.36933 0
M  V30 9662 C 919.419 0.792071 -3.67972 0
M  V30 9663 C 918.566 -0.099756 -2.77121 0
M  V30 9664 H 921.517 -0.521729 -1.49879 0
M  V30 9665 H 921.538 1.18977 -3.61421 0
M  V30 9666 H 921.05 -0.622075 -3.83082 0
M  V30 9667 H 919.151 1.77986 -3.27341 0
M  V30 9668 H 919.264 0.611661 -4.75179 0
M  V30 9669 H 917.628 0.420909 -2.51198 0
M  V30 9670 H 918.411 -1.07333 -3.2609 0
M  V30 9671 N 920.856 1.57574 -0.0284266 0
M  V30 9672 C 921.803 2.10176 0.953658 0
M  V30 9673 C 922.773 1.00367 1.32347 0
M  V30 9674 O 923.958 1.27783 1.4169 0
M  V30 9675 C 921.098 2.63287 2.231 0
M  V30 9676 C 920.211 3.87102 1.91771 0
M  V30 9677 C 919.346 4.28609 3.13795 0
M  V30 9678 C 918.385 5.45184 2.78282 0
M  V30 9679 N 917.522 5.81851 3.92929 0
M  V30 9680 H 922.362 2.93806 0.498176 0
M  V30 9681 H 919.899 1.45222 0.234302 0
M  V30 9682 H 921.857 2.9217 2.97813 0
M  V30 9683 H 920.487 1.82489 2.66266 0
M  V30 9684 H 919.539 3.64952 1.07303 0
M  V30 9685 H 920.851 4.71892 1.61615 0
M  V30 9686 H 920.005 4.58925 3.96829 0
M  V30 9687 H 918.744 3.42585 3.47112 0
M  V30 9688 H 917.749 5.14563 1.93661 0
M  V30 9689 H 918.974 6.32907 2.46182 0
M  V30 9690 H 916.92 4.98782 4.2609 0
M  V30 9691 H 916.837 6.6128 3.66395 0
M  V30 9692 H 918.105 6.16772 4.76669 0
M  V30 9693 N 922.334 -0.244713 1.55689 0
M  V30 9694 C 923.75 -0.593331 1.48161 0
M  V30 9695 C 923.95 -1.88234 0.719047 0
M  V30 9696 O 923.006 -2.51266 0.249292 0
M  V30 9697 C 924.319 -0.694032 2.92581 0
M  V30 9698 C 925.867 -0.786213 3.02965 0
M  V30 9699 C 926.342 -0.918457 4.48696 0
M  V30 9700 N 927.833 -0.983272 4.52643 0
M  V30 9701 C 928.568 -1.1049 5.62654 0
M  V30 9702 N 928.064 -1.19193 6.8247 0
M  V30 9703 N 929.857 -1.13823 5.50455 0
M  V30 9704 H 922.008 0.601446 2.03707 0
M  V30 9705 H 924.271 0.207894 0.924924 0
M  V30 9706 H 923.977 0.183133 3.51223 0
M  V30 9707 H 923.851 -1.56525 3.4319 0
M  V30 9708 H 926.238 -1.65383 2.44402 0
M  V30 9709 H 926.319 0.110202 2.55563 0
M  V30 9710 H 925.963 -0.0553881 5.0787 0
M  V30 9711 H 925.893 -1.82994 4.93782 0
M  V30 9712 H 928.384 -0.927269 3.66347 0
M  V30 9713 H 928.697 -1.28387 7.62061 0
M  V30 9714 H 927.042 -1.16147 6.85226 0
M  V30 9715 H 930.233 -1.06673 4.55783 0
M  V30 9716 H 930.406 -1.22957 6.36228 0
M  V30 9717 N 923.813 -1.49104 -0.510467 0
M  V30 9718 C 925.224 -1.51423 -1.09215 0
M  V30 9719 C 925.575 -0.295035 -1.93969 0
M  V30 9720 O 924.7 0.596064 -2.08029 0
M  V30 9721 C 925.295 -2.74387 -1.98739 0
M  V30 9722 C 923.854 -2.79515 -2.52088 0
M  V30 9723 C 923.001 -2.4521 -1.29488 0
M  V30 9724 H 925.952 -1.55938 -0.294807 0
M  V30 9725 H 925.973 -2.54012 -2.83298 0
M  V30 9726 H 925.485 -3.63105 -1.37026 0
M  V30 9727 H 923.586 -1.95054 -3.17466 0
M  V30 9728 H 923.699 -3.81447 -2.89887 0
M  V30 9729 H 922.063 -1.96785 -1.61703 0
M  V30 9730 H 922.846 -3.36192 -0.694978 0
M  V30 9731 N 925.291 0.760815 -1.38019 0
M  V30 9732 C 926.537 1.52198 -1.34028 0
M  V30 9733 C 926.87 1.94067 0.0718309 0
M  V30 9734 O 926.145 1.64895 1.0315 0
M  V30 9735 C 926.428 2.77954 -2.2894 0
M  V30 9736 C 926.281 2.42269 -3.7898 0
M  V30 9737 C 927.6 3.79943 -2.22107 0
M  V30 9738 H 924.719 0.552131 -0.488181 0
M  V30 9739 H 927.361 0.871971 -1.6881 0
M  V30 9740 H 925.511 3.33419 -1.9941 0
M  V30 9741 H 927.183 1.92635 -4.19153 0
M  V30 9742 H 925.426 1.74822 -3.97014 0
M  V30 9743 H 926.097 3.32211 -4.4084 0
M  V30 9744 H 928.573 3.34 -2.4816 0
M  V30 9745 H 927.449 4.6564 -2.90639 0
M  V30 9746 H 927.71 4.25004 -1.21753 0
M  V30 9747 N 926.769 1.22769 0.988202 0
M  V30 9748 C 928.18 1.0512 1.54294 0
M  V30 9749 C 928.531 -0.383904 1.92407 0
M  V30 9750 O 927.656 -1.26955 1.75246 0
M  V30 9751 C 928.251 1.90198 2.80375 0
M  V30 9752 C 926.81 1.76831 3.32276 0
M  V30 9753 C 925.957 1.86377 2.05326 0
M  V30 9754 H 928.908 1.36546 0.808758 0
M  V30 9755 H 928.929 1.42216 3.52923 0
M  V30 9756 H 928.441 2.9464 2.52605 0
M  V30 9757 H 926.542 0.751412 3.64945 0
M  V30 9758 H 926.655 2.59771 4.02562 0
M  V30 9759 H 925.019 1.2987 2.19103 0
M  V30 9760 H 925.802 2.9236 1.79946 0
M  V30 9761 N 928.247 -1.18576 1.03814 0
M  V30 9762 C 929.21 -2.2033 0.63146 0
M  V30 9763 C 930.21 -1.57787 -0.309816 0
M  V30 9764 O 931.4 -1.73938 -0.0955598 0
M  V30 9765 C 928.532 -3.40818 -0.0745963 0
M  V30 9766 H 929.725 -2.57824 1.53189 0
M  V30 9767 H 927.278 -1.32416 0.830398 0
M  V30 9768 H 928.013 -3.08853 -0.988947 0
M  V30 9769 H 927.798 -3.87453 0.6019 0
M  V30 9770 H 929.288 -4.16166 -0.345727 0
M  V30 9771 N 929.725 -0.817259 -1.34754 0
M  V30 9772 C 930.635 -0.236946 -2.334 0
M  V30 9773 C 931.651 0.625685 -1.62361 0
M  V30 9774 O 932.827 0.534921 -1.94166 0
M  V30 9775 C 929.892 0.596215 -3.41535 0
M  V30 9776 C 928.953 -0.288154 -4.28332 0
M  V30 9777 C 928.186 0.505337 -5.31302 0
M  V30 9778 O 928.409 1.73912 -5.43241 0
M  V30 9779 O 927.343 -0.109374 -6.01801 0
M  V30 9780 H 931.169 -1.05327 -2.84851 0
M  V30 9781 H 928.754 -0.579275 -1.37713 0
M  V30 9782 H 930.636 1.07041 -4.07578 0
M  V30 9783 H 929.311 1.38997 -2.92338 0
M  V30 9784 H 928.218 -0.809724 -3.65232 0
M  V30 9785 H 929.551 -1.04612 -4.80955 0
M  V30 9786 N 931.203 1.46865 -0.571711 0
M  V30 9787 C 932.619 1.57897 -0.23255 0
M  V30 9788 C 932.819 1.56836 1.26509 0
M  V30 9789 O 931.875 1.47947 2.04617 0
M  V30 9790 C 933.188 2.87778 -0.872036 0
M  V30 9791 C 934.736 3.01389 -0.844605 0
M  V30 9792 C 935.211 4.33991 -1.46343 0
M  V30 9793 N 936.702 4.40662 -1.42727 0
M  V30 9794 C 937.437 5.41858 -1.87557 0
M  V30 9795 N 936.933 6.49787 -2.4031 0
M  V30 9796 N 938.726 5.32992 -1.7854 0
M  V30 9797 H 930.877 1.45798 -1.54457 0
M  V30 9798 H 933.14 0.694785 -0.644964 0
M  V30 9799 H 932.846 2.94332 -1.92513 0
M  V30 9800 H 932.72 3.75345 -0.373677 0
M  V30 9801 H 935.107 2.94423 0.19984 0
M  V30 9802 H 935.188 2.15327 -1.38087 0
M  V30 9803 H 934.832 4.41714 -2.50701 0
M  V30 9804 H 934.762 5.18809 -0.902479 0
M  V30 9805 H 937.253 3.63263 -1.04155 0
M  V30 9806 H 937.566 7.23199 -2.72403 0
M  V30 9807 H 935.911 6.50637 -2.44329 0
M  V30 9808 H 939.102 4.47575 -1.37093 0
M  V30 9809 H 939.275 6.11716 -2.13794 0
M  V30 9810 N 932.681 0.308908 1.54543 0
M  V30 9811 C 933.929 -0.297447 1.99899 0
M  V30 9812 C 934.25 -1.53799 1.19878 0
M  V30 9813 O 933.52 -1.93639 0.29678 0
M  V30 9814 H 932.1 -0.112897 0.738419 0
M  V30 9815 H 934.762 0.422067 1.90275 0
M  V30 9816 H 933.858 -0.564016 3.06961 0
M  V30 9817 N 934.159 -1.57557 0.0367827 0
M  V30 9818 C 935.384 -1.96828 -0.653707 0
M  V30 9819 C 935.809 -0.913559 -1.64425 0
M  V30 9820 O 935.167 0.124749 -1.8087 0
M  V30 9821 C 935.215 -3.35189 -1.32969 0
M  V30 9822 O 934.319 -3.32095 -2.44513 0
M  V30 9823 H 933.66 -0.64157 -0.171124 0
M  V30 9824 H 936.19 -2.04351 0.100912 0
M  V30 9825 H 936.2 -3.71593 -1.68472 0
M  V30 9826 H 934.875 -4.11496 -0.603654 0
M  V30 9827 H 933.452 -3.07418 -2.11065 0
M  V30 9828 N 935.637 0.236453 -1.55816 0
M  V30 9829 C 936.862 0.98449 -1.82545 0
M  V30 9830 C 937.287 1.77755 -0.615206 0
M  V30 9831 O 936.645 1.75982 0.435895 0
M  V30 9832 C 936.693 1.88973 -3.07118 0
M  V30 9833 O 935.797 2.98298 -2.84766 0
M  V30 9834 H 935.138 0.279577 -0.602273 0
M  V30 9835 H 937.668 0.254277 -2.03014 0
M  V30 9836 H 937.678 2.3024 -3.36829 0
M  V30 9837 H 936.353 1.30671 -3.94839 0
M  V30 9838 H 934.93 2.61085 -2.6625 0
M  V30 9839 N 937.115 1.49373 0.502552 0
M  V30 9840 C 938.34 1.62752 1.28556 0
M  V30 9841 C 938.765 0.298285 1.8572 0
M  V30 9842 O 938.123 -0.733885 1.65782 0
M  V30 9843 C 938.171 2.69778 2.39274 0
M  V30 9844 O 937.275 2.28843 3.43081 0
M  V30 9845 H 936.616 0.544799 0.379592 0
M  V30 9846 H 939.146 1.9555 0.601792 0
M  V30 9847 H 939.156 2.91899 2.8506 0
M  V30 9848 H 937.831 3.66266 1.97033 0
M  V30 9849 H 936.408 2.17047 3.03224 0
M  V30 9850 N 938.594 -0.753485 1.38421 0
M  V30 9851 C 939.842 -1.50962 1.34368 0
M  V30 9852 C 940.163 -1.94889 -0.0656895 0
M  V30 9853 O 939.433 -1.67652 -1.01339 0
M  V30 9854 H 938.013 -0.559967 0.494415 0
M  V30 9855 H 940.675 -0.895665 1.73101 0
M  V30 9856 H 939.771 -2.40048 1.99458 0
M  V30 9857 N 940.072 -1.23292 -0.981677 0
M  V30 9858 C 941.3 -1.09088 -1.75805 0
M  V30 9859 C 941.715 0.357746 -1.8538 0
M  V30 9860 O 941.072 1.24751 -1.33205 0
M  V30 9861 C 941.123 -1.70885 -3.1856 0
M  V30 9862 O 940.844 -3.10082 -3.09484 0
M  V30 9863 C 942.345 -1.62106 -4.12597 0
M  V30 9864 H 939.565 -0.38184 -0.55176 0
M  V30 9865 H 942.109 -1.63116 -1.23342 0
M  V30 9866 H 940.264 -1.20893 -3.68054 0
M  V30 9867 H 940.678 -3.40039 -3.99342 0
M  V30 9868 H 942.152 -2.10049 -5.10474 0
M  V30 9869 H 942.629 -0.579642 -4.35358 0
M  V30 9870 H 943.235 -2.11457 -3.69007 0
M  V30 9871 N 941.55 1.18024 -1.04442 0
M  V30 9872 C 942.961 1.69749 -0.777312 0
M  V30 9873 C 943.312 1.83234 0.701399 0
M  V30 9874 O 942.437 1.51452 1.54568 0
M  V30 9875 C 943.032 3.08321 -1.40441 0
M  V30 9876 C 941.591 3.57243 -1.18553 0
M  V30 9877 C 940.738 2.33695 -1.49271 0
M  V30 9878 H 943.689 1.02647 -1.21035 0
M  V30 9879 H 943.71 3.71787 -0.809628 0
M  V30 9880 H 943.222 2.98474 -2.48062 0
M  V30 9881 H 941.323 3.72379 -0.128221 0
M  V30 9882 H 941.436 4.40451 -1.88519 0
M  V30 9883 H 939.8 2.37792 -0.912526 0
M  V30 9884 H 940.583 2.26464 -2.5801 0
M  V30 9885 N 943.028 0.824394 1.34319 0
M  V30 9886 C 943.975 0.245282 2.29493 0
M  V30 9887 C 944.945 -0.630762 1.53657 0
M  V30 9888 O 946.13 -0.572094 1.82021 0
M  V30 9889 C 943.27 -0.585631 3.40095 0
M  V30 9890 C 942.383 0.312821 4.30866 0
M  V30 9891 C 941.518 -0.527801 5.28571 0
M  V30 9892 C 940.557 0.369946 6.10981 0
M  V30 9893 N 939.694 -0.43169 7.00772 0
M  V30 9894 H 944.534 1.06225 2.78425 0
M  V30 9895 H 942.071 0.53533 1.37013 0
M  V30 9896 H 944.029 -1.08271 4.02906 0
M  V30 9897 H 942.659 -1.3677 2.92393 0
M  V30 9898 H 941.711 0.928129 3.68904 0
M  V30 9899 H 943.023 1.00306 4.8861 0
M  V30 9900 H 942.177 -1.0893 5.96841 0
M  V30 9901 H 940.916 -1.25154 4.71368 0
M  V30 9902 H 939.921 0.943577 5.41643 0
M  V30 9903 H 941.146 1.09182 6.70266 0
M  V30 9904 H 939.092 -1.13908 6.46035 0
M  V30 9905 H 939.009 0.200133 7.55735 0
M  V30 9906 H 940.277 -0.975894 7.73367 0
M  V30 9907 N 944.506 -1.46559 0.579492 0
M  V30 9908 C 945.436 -2.33059 -0.143437 0
M  V30 9909 C 946.417 -1.4515 -0.886868 0
M  V30 9910 O 947.602 -1.73973 -0.862961 0
M  V30 9911 C 944.732 -3.27364 -1.15973 0
M  V30 9912 C 943.686 -4.24689 -0.531348 0
M  V30 9913 C 943.012 -5.08479 -1.65388 0
M  V30 9914 C 944.312 -5.1961 0.529391 0
M  V30 9915 H 946.006 -2.93753 0.578762 0
M  V30 9916 H 943.552 -1.41256 0.279775 0
M  V30 9917 H 945.505 -3.86732 -1.67382 0
M  V30 9918 H 944.229 -2.64771 -1.91217 0
M  V30 9919 H 942.888 -3.6658 -0.0383749 0
M  V30 9920 H 942.536 -4.42273 -2.3959 0
M  V30 9921 H 942.236 -5.74387 -1.23909 0
M  V30 9922 H 943.76 -5.70709 -2.17079 0
M  V30 9923 H 945.174 -5.73212 0.100506 0
M  V30 9924 H 943.571 -5.93843 0.86432 0
M  V30 9925 H 944.641 -4.63737 1.4169 0
M  V30 9926 N 945.984 -0.3171 -1.54377 0
M  V30 9927 C 947.233 0.288271 -1.99629 0
M  V30 9928 C 947.546 1.53754 -1.2091 0
M  V30 9929 O 948.752 2.2185 -1.56508 0
M  V30 9930 C 947.208 0.564188 -3.5545 0
M  V30 9931 C 946.816 -0.667659 -4.42997 0
M  V30 9932 C 948.56 1.12987 -4.09187 0
M  V30 9933 C 946.467 -0.364003 -5.90279 0
M  V30 9934 H 945.397 0.111492 -0.745711 0
M  V30 9935 H 948.048 -0.428317 -1.78431 0
M  V30 9936 H 946.43 1.34079 -3.72611 0
M  V30 9937 H 947.604 -1.44335 -4.37612 0
M  V30 9938 H 945.919 -1.1531 -4.00116 0
M  V30 9939 H 948.516 1.37157 -5.1681 0
M  V30 9940 H 948.859 2.07722 -3.60773 0
M  V30 9941 H 949.392 0.414595 -3.95634 0
M  V30 9942 H 946.131 -1.28035 -6.42874 0
M  V30 9943 H 945.651 0.374102 -5.98632 0
M  V30 9944 H 947.33 0.0285433 -6.46994 0
M  V30 9945 N 947.462 1.57535 -0.0451378 0
M  V30 9946 C 948.394 2.08109 0.960372 0
M  V30 9947 C 949.407 1.0077 1.27864 0
M  V30 9948 O 950.596 1.28351 1.24049 0
M  V30 9949 C 947.696 2.50414 2.28355 0
M  V30 9950 C 946.869 3.8102 2.14808 0
M  V30 9951 C 945.928 4.09702 3.30198 0
M  V30 9952 O 944.954 4.79715 3.0637 0
M  V30 9953 N 946.156 3.61138 4.54489 0
M  V30 9954 H 948.921 2.94999 0.528752 0
M  V30 9955 H 946.482 1.61283 0.141248 0
M  V30 9956 H 948.474 2.66683 3.04405 0
M  V30 9957 H 947.044 1.68805 2.63104 0
M  V30 9958 H 946.264 3.74392 1.23387 0
M  V30 9959 H 947.552 4.66559 2.02978 0
M  V30 9960 H 946.95 3.04527 4.76739 0
M  V30 9961 H 945.507 3.82656 5.27653 0
M  V30 9962 N 948.94 -0.228186 1.55939 0
M  V30 9963 C 950.356 -0.577583 1.48782 0
M  V30 9964 C 950.556 -1.87461 0.738972 0
M  V30 9965 O 949.612 -2.50988 0.275929 0
M  V30 9966 C 950.925 -0.662961 2.93301 0
M  V30 9967 C 952.473 -0.754035 3.03782 0
M  V30 9968 C 952.948 -0.870815 4.49645 0
M  V30 9969 N 954.439 -0.935208 4.53661 0
M  V30 9970 C 955.174 -1.04516 5.63794 0
M  V30 9971 N 954.67 -1.11948 6.83696 0
M  V30 9972 N 956.463 -1.07978 5.51631 0
M  V30 9973 H 948.614 0.623018 2.03057 0
M  V30 9974 H 950.877 0.217692 0.922667 0
M  V30 9975 H 950.583 0.220375 3.51009 0
M  V30 9976 H 950.457 -1.52876 3.44831 0
M  V30 9977 H 952.844 -1.62782 2.46143 0
M  V30 9978 H 952.925 0.137301 2.55431 0
M  V30 9979 H 952.569 -0.0015186 5.079 0
M  V30 9980 H 952.499 -1.77747 4.95695 0
M  V30 9981 H 954.99 -0.88836 3.6731 0
M  V30 9982 H 955.303 -1.20297 7.6338 0
M  V30 9983 H 953.648 -1.08873 6.8642 0
M  V30 9984 H 956.839 -1.01833 4.56889 0
M  V30 9985 H 957.012 -1.16202 6.37496 0
M  V30 9986 N 950.418 -1.49637 -0.494624 0
M  V30 9987 C 951.381 -1.66252 -1.57775 0
M  V30 9988 C 952.381 -0.534054 -1.51672 0
M  V30 9989 O 953.571 -0.800637 -1.54711 0
M  V30 9990 C 950.703 -1.66584 -2.97426 0
M  V30 9991 H 951.896 -2.62864 -1.4437 0
M  V30 9992 H 949.449 -1.38764 -0.719323 0
M  V30 9993 H 950.184 -0.715798 -3.16302 0
M  V30 9994 H 949.969 -2.48543 -3.03264 0
M  V30 9995 H 951.459 -1.81474 -3.76108 0
M  V30 9996 N 951.896 0.746133 -1.38819 0
M  V30 9997 C 952.826 1.87344 -1.39372 0
M  V30 9998 C 953.807 1.68123 -0.258583 0
M  V30 9999 O 954.992 1.88606 -0.462769 0
M  V30 10000 C 952.122 3.24962 -1.22543 0
M  V30 10001 C 951.076 3.58799 -2.33339 0
M  V30 10002 C 950.402 4.95235 -2.01609 0
M  V30 10003 C 951.702 3.62911 -3.75624 0
M  V30 10004 H 953.396 1.87138 -2.33709 0
M  V30 10005 H 950.942 0.898937 -1.12495 0
M  V30 10006 H 952.895 4.03488 -1.21554 0
M  V30 10007 H 951.619 3.25667 -0.246707 0
M  V30 10008 H 950.278 2.82596 -2.33527 0
M  V30 10009 H 949.926 4.92508 -1.02202 0
M  V30 10010 H 949.626 5.18843 -2.75819 0
M  V30 10011 H 951.15 5.76131 -2.02251 0
M  V30 10012 H 952.564 4.31535 -3.77426 0
M  V30 10013 H 950.961 3.98031 -4.491 0
M  V30 10014 H 952.031 2.62967 -4.07402 0
M  V30 10015 N 953.375 1.23811 0.975125 0
M  V30 10016 C 954.305 1.04846 2.08638 0
M  V30 10017 C 955.286 -0.0362859 1.70061 0
M  V30 10018 O 956.471 0.12937 1.93769 0
M  V30 10019 C 953.601 0.644534 3.41267 0
M  V30 10020 C 952.555 1.67722 3.93768 0
M  V30 10021 C 951.881 1.12857 5.22654 0
M  V30 10022 C 953.181 3.07147 4.22443 0
M  V30 10023 H 954.875 1.97795 2.24761 0
M  V30 10024 H 952.421 0.952397 1.08006 0
M  V30 10025 H 954.374 0.498887 4.18436 0
M  V30 10026 H 953.098 -0.320641 3.25022 0
M  V30 10027 H 951.757 1.81095 3.18748 0
M  V30 10028 H 951.405 0.154227 5.02764 0
M  V30 10029 H 951.105 1.81862 5.58749 0
M  V30 10030 H 952.629 0.994891 6.0244 0
M  V30 10031 H 954.043 2.97045 4.90344 0
M  V30 10032 H 952.44 3.73437 4.6975 0
M  V30 10033 H 953.51 3.55743 3.29507 0
M  V30 10034 N 954.853 -1.17469 1.05066 0
M  V30 10035 C 956.269 -1.39699 0.771769 0
M  V30 10036 C 956.469 -1.91253 -0.634382 0
M  V30 10037 O 955.525 -2.10334 -1.39699 0
M  V30 10038 C 956.838 -2.38886 1.82631 0
M  V30 10039 C 958.386 -2.52595 1.84838 0
M  V30 10040 C 958.861 -3.55054 2.89311 0
M  V30 10041 N 960.352 -3.6257 2.88266 0
M  V30 10042 C 961.087 -4.41603 3.65752 0
M  V30 10043 N 960.583 -5.24162 4.53019 0
M  V30 10044 N 962.376 -4.36464 3.54197 0
M  V30 10045 H 954.527 -0.823355 1.95792 0
M  V30 10046 H 956.79 -0.42432 0.847736 0
M  V30 10047 H 956.496 -2.08075 2.83545 0
M  V30 10048 H 956.37 -3.38371 1.66687 0
M  V30 10049 H 958.757 -2.82717 0.845888 0
M  V30 10050 H 958.838 -1.53188 2.04859 0
M  V30 10051 H 958.482 -3.2567 3.89745 0
M  V30 10052 H 958.412 -4.54162 2.66542 0
M  V30 10053 H 960.903 -3.03625 2.24989 0
M  V30 10054 H 961.216 -5.81646 5.0883 0
M  V30 10055 H 959.561 -5.23547 4.57081 0
M  V30 10056 H 962.752 -3.7102 2.85416 0
M  V30 10057 H 962.925 -4.97814 4.14832 0
M  V30 10058 N 956.331 -0.831506 -1.3388 0
M  V30 10059 C 957.579 -0.422837 -1.97627 0
M  V30 10060 C 957.9 1.01961 -1.6622 0
M  V30 10061 O 957.17 1.70916 -0.957323 0
M  V30 10062 H 955.75 -0.153365 -0.731087 0
M  V30 10063 H 958.412 -1.06284 -1.6337 0
M  V30 10064 H 957.508 -0.548858 -3.07236 0
M  V30 10065 N 957.809 1.4625 -0.587256 0
M  V30 10066 C 959.037 2.06744 -0.08033 0
M  V30 10067 C 959.452 1.43527 1.2266 0
M  V30 10068 O 958.809 0.542168 1.74261 0
M  V30 10069 C 958.86 3.61394 0.0873469 0
M  V30 10070 O 958.581 4.22247 -1.16785 0
M  V30 10071 C 960.082 4.38828 0.628095 0
M  V30 10072 H 957.302 0.668354 -0.0595301 0
M  V30 10073 H 959.846 1.87808 -0.809217 0
M  V30 10074 H 958.001 3.79742 0.766473 0
M  V30 10075 H 958.415 5.15176 -0.984565 0
M  V30 10076 H 959.889 5.47613 0.694583 0
M  V30 10077 H 960.366 4.07188 1.64606 0
M  V30 10078 H 960.972 4.25297 -0.0163115 0
M  V30 10079 N 959.287 0.325282 1.54207 0
M  V30 10080 C 960.25 -0.527228 2.23054 0
M  V30 10081 C 961.25 -1.04217 1.22456 0
M  V30 10082 O 962.44 -0.934325 1.47024 0
M  V30 10083 C 959.572 -1.7325 2.93594 0
M  V30 10084 H 960.765 0.0746423 2.99807 0
M  V30 10085 H 958.318 0.0763872 1.56113 0
M  V30 10086 H 959.053 -2.37356 2.20981 0
M  V30 10087 H 958.838 -1.37065 3.67363 0
M  V30 10088 H 960.328 -2.3376 3.46043 0
M  V30 10089 N 960.765 -1.57509 0.0534917 0
M  V30 10090 C 961.695 -2.14698 -0.917999 0
M  V30 10091 C 962.676 -1.06924 -1.32292 0
M  V30 10092 O 963.861 -1.34875 -1.39723 0
M  V30 10093 C 960.991 -2.69383 -2.19203 0
M  V30 10094 C 959.945 -3.82161 -1.9271 0
M  V30 10095 C 959.271 -4.23373 -3.26587 0
M  V30 10096 C 960.571 -5.07199 -1.24686 0
M  V30 10097 H 962.265 -2.96125 -0.44165 0
M  V30 10098 H 959.811 -1.42446 -0.210993 0
M  V30 10099 H 961.764 -3.08031 -2.87567 0
M  V30 10100 H 960.488 -1.85151 -2.69048 0
M  V30 10101 H 959.147 -3.43989 -1.26757 0
M  V30 10102 H 958.795 -3.36089 -3.74237 0
M  V30 10103 H 958.495 -4.99385 -3.09658 0
M  V30 10104 H 960.019 -4.64623 -3.96178 0
M  V30 10105 H 961.433 -5.43279 -1.83088 0
M  V30 10106 H 959.83 -5.88369 -1.18076 0
M  V30 10107 H 960.9 -4.84386 -0.223227 0
M  V30 10108 N 962.243 0.219913 -1.56058 0
M  V30 10109 C 963.173 1.27572 -1.9557 0
M  V30 10110 C 964.154 1.48801 -0.824148 0
M  V30 10111 O 965.339 1.60957 -1.08658 0
M  V30 10112 C 962.469 2.62517 -2.27381 0
M  V30 10113 C 961.423 2.55941 -3.43042 0
M  V30 10114 C 960.749 3.94931 -3.60463 0
M  V30 10115 C 962.049 2.10584 -4.77966 0
M  V30 10116 H 963.743 0.947482 -2.84013 0
M  V30 10117 H 961.289 0.454337 -1.36645 0
M  V30 10118 H 963.242 3.36538 -2.53615 0
M  V30 10119 H 961.966 2.97031 -1.35794 0
M  V30 10120 H 960.625 1.84377 -3.1686 0
M  V30 10121 H 960.273 4.26756 -2.66249 0
M  V30 10122 H 959.973 3.91413 -4.38258 0
M  V30 10123 H 961.497 4.70611 -3.89046 0
M  V30 10124 H 962.911 2.74349 -5.03394 0
M  V30 10125 H 961.308 2.18122 -5.59055 0
M  V30 10126 H 962.378 1.05818 -4.73213 0
M  V30 10127 N 963.721 1.49897 0.486681 0
M  V30 10128 C 964.684 1.67086 1.56891 0
M  V30 10129 C 965.684 0.54209 1.51387 0
M  V30 10130 O 966.874 0.80883 1.54284 0
M  V30 10131 C 964.006 1.68159 2.96539 0
M  V30 10132 H 965.199 2.63626 1.42974 0
M  V30 10133 H 962.752 1.39143 0.711954 0
M  V30 10134 H 963.487 0.732562 3.15918 0
M  V30 10135 H 963.272 2.50147 3.01942 0
M  V30 10136 H 964.762 1.83466 3.7514 0
M  V30 10137 N 965.199 -0.738761 1.39212 0
M  V30 10138 C 966.424 -1.5331 1.39681 0
M  V30 10139 C 966.849 -1.88098 -0.00768715 0
M  V30 10140 O 966.207 -1.51642 -0.993699 0
M  V30 10141 C 966.255 -2.79958 2.27279 0
M  V30 10142 O 965.359 -3.75727 1.70008 0
M  V30 10143 H 964.7 -0.463131 0.475821 0
M  V30 10144 H 967.23 -0.911768 1.83161 0
M  V30 10145 H 967.24 -3.28732 2.41659 0
M  V30 10146 H 965.915 -2.5397 3.29351 0
M  V30 10147 H 964.492 -3.34483 1.64851 0
M  V30 10148 N 966.677 -1.24326 -0.968545 0
M  V30 10149 C 967.607 -1.05951 -2.08079 0
M  V30 10150 C 968.588 0.0272666 -1.70078 0
M  V30 10151 O 969.773 -0.139644 -1.93697 0
M  V30 10152 C 966.903 -0.662623 -3.4092 0
M  V30 10153 C 965.857 -1.69807 -3.92873 0
M  V30 10154 C 965.183 -1.15628 -5.22048 0
M  V30 10155 C 966.483 -3.09383 -4.20808 0
M  V30 10156 H 968.177 -1.98984 -2.23709 0
M  V30 10157 H 965.723 -0.958112 -1.075 0
M  V30 10158 H 967.676 -0.521071 -4.18166 0
M  V30 10159 H 966.4 0.303399 -3.25188 0
M  V30 10160 H 965.059 -1.82783 -3.17783 0
M  V30 10161 H 964.707 -0.180888 -5.02675 0
M  V30 10162 H 964.407 -1.84822 -5.57776 0
M  V30 10163 H 965.931 -1.02683 -6.01904 0
M  V30 10164 H 967.345 -2.99642 -4.88761 0
M  V30 10165 H 965.742 -3.75923 -4.67763 0
M  V30 10166 H 966.812 -3.57486 -3.27616 0
M  V30 10167 N 968.156 1.1691 -1.05688 0
M  V30 10168 C 969.404 1.86922 -0.768409 0
M  V30 10169 C 969.725 1.81735 0.706921 0
M  V30 10170 O 968.995 1.24671 1.51109 0
M  V30 10171 H 967.575 0.69203 -0.281253 0
M  V30 10172 H 970.237 1.41803 -1.33708 0
M  V30 10173 H 969.333 2.92528 -1.08783 0
M  V30 10174 N 969.634 0.838594 1.33437 0
M  V30 10175 C 970.564 0.286672 2.31734 0
M  V30 10176 C 971.545 -0.605451 1.5896 0
M  V30 10177 O 972.73 -0.529059 1.86854 0
M  V30 10178 C 969.86 -0.539311 3.43087 0
M  V30 10179 C 968.814 0.256997 4.27228 0
M  V30 10180 C 968.14 -0.692718 5.30194 0
M  V30 10181 C 969.44 1.47391 5.01072 0
M  V30 10182 H 971.134 1.10798 2.78144 0
M  V30 10183 H 968.68 0.534235 1.33723 0
M  V30 10184 H 970.633 -0.935724 4.1088 0
M  V30 10185 H 969.357 -1.39383 2.95364 0
M  V30 10186 H 968.016 0.634967 3.61059 0
M  V30 10187 H 967.664 -1.54363 4.78729 0
M  V30 10188 H 967.364 -0.164023 5.87371 0
M  V30 10189 H 968.888 -1.08665 6.00853 0
M  V30 10190 H 970.302 1.15067 5.61634 0
M  V30 10191 H 968.699 1.93937 5.67898 0
M  V30 10192 H 969.769 2.24382 4.29861 0
M  V30 10193 N 971.112 -1.45937 0.595003 0
M  V30 10194 C 972.36 -2.01921 0.0851368 0
M  V30 10195 C 972.681 -1.46748 -1.28413 0
M  V30 10196 O 971.951 -0.656873 -1.84559 0
M  V30 10197 H 970.531 -0.746457 0.0284826 0
M  V30 10198 H 973.193 -1.78891 0.773561 0
M  V30 10199 H 972.289 -3.1209 0.0254002 0
M  V30 10200 N 972.59 -0.333456 -1.54032 0
M  V30 10201 C 974.006 0.0188405 -1.59589 0
M  V30 10202 C 974.206 1.49615 -1.34972 0
M  V30 10203 O 973.262 2.2535 -1.13901 0
M  V30 10204 C 974.575 -0.408273 -2.97915 0
M  V30 10205 C 976.123 -0.359763 -3.10926 0
M  V30 10206 C 976.598 -0.76219 -4.51613 0
M  V30 10207 N 978.089 -0.715981 -4.57633 0
M  V30 10208 C 978.824 -0.999436 -5.64623 0
M  V30 10209 N 978.32 -1.35053 -6.79509 0
M  V30 10210 N 980.113 -0.924343 -5.54448 0
M  V30 10211 H 972.264 -1.29587 -1.68289 0
M  V30 10212 H 974.527 -0.527584 -0.787629 0
M  V30 10213 H 974.233 -1.43793 -3.20962 0
M  V30 10214 H 974.107 0.221685 -3.76548 0
M  V30 10215 H 976.494 0.660703 -2.87609 0
M  V30 10216 H 976.575 -1.02479 -2.34375 0
M  V30 10217 H 976.219 -1.78062 -4.75664 0
M  V30 10218 H 976.149 -0.0747478 -5.26547 0
M  V30 10219 H 978.64 -0.456875 -3.75128 0
M  V30 10220 H 978.953 -1.55194 -7.57057 0
M  V30 10221 H 977.298 -1.38889 -6.80981 0
M  V30 10222 H 980.489 -0.649469 -4.63573 0
M  V30 10223 H 980.662 -1.1486 -6.37739 0
M  V30 10224 N 974.068 1.57479 -0.061844 0
M  V30 10225 C 975.345 1.84484 0.649993 0
M  V30 10226 C 975.725 0.952366 1.88396 0
M  V30 10227 O 975.073 0.0161035 2.28494 0
M  V30 10228 C 975.283 3.34452 0.997133 0
M  V30 10229 C 976.631 4.01724 1.37488 0
M  V30 10230 O 977.655 3.3914 1.08916 0
M  V30 10231 O 976.514 5.12091 1.90854 0
M  V30 10232 H 973.608 0.761798 0.321858 0
M  V30 10233 H 976.154 1.6945 -0.0920192 0
M  V30 10234 H 974.926 3.91115 0.120301 0
M  V30 10235 H 974.549 3.54713 1.79624 0
M  V30 10236 N 975.546 -0.211634 1.56173 0
M  V30 10237 C 976.476 -1.26533 1.96244 0
M  V30 10238 C 977.457 -1.48362 0.832028 0
M  V30 10239 O 978.642 -1.60378 1.0951 0
M  V30 10240 C 975.772 -2.61307 2.2877 0
M  V30 10241 C 974.726 -2.54119 3.44395 0
M  V30 10242 C 974.052 -3.93014 3.62552 0
M  V30 10243 C 975.352 -2.08046 4.79076 0
M  V30 10244 H 977.046 -0.932407 2.84511 0
M  V30 10245 H 974.592 -0.447084 1.36884 0
M  V30 10246 H 976.545 -3.35188 2.55396 0
M  V30 10247 H 975.269 -2.96307 1.37367 0
M  V30 10248 H 973.928 -1.82694 3.17834 0
M  V30 10249 H 973.576 -4.25338 2.68508 0
M  V30 10250 H 973.276 -3.89083 4.40327 0
M  V30 10251 H 974.8 -4.68542 3.91537 0
M  V30 10252 H 976.214 -2.71676 5.04842 0
M  V30 10253 H 974.611 -2.15154 5.60204 0
M  V30 10254 H 975.681 -1.03306 4.73768 0
M  V30 10255 N 977.024 -1.50153 -0.478725 0
M  V30 10256 C 977.956 -1.64603 -1.59494 0
M  V30 10257 C 978.969 -0.527789 -1.54007 0
M  V30 10258 O 980.158 -0.80069 -1.59534 0
M  V30 10259 C 977.258 -1.60738 -2.98356 0
M  V30 10260 C 976.431 -2.88468 -3.28794 0
M  V30 10261 C 975.49 -2.77349 -4.47173 0
M  V30 10262 O 974.516 -3.51302 -4.47857 0
M  V30 10263 N 975.718 -1.9039 -5.4839 0
M  V30 10264 H 978.483 -2.6088 -1.47518 0
M  V30 10265 H 976.044 -1.47521 -0.667011 0
M  V30 10266 H 978.036 -1.50923 -3.75505 0
M  V30 10267 H 976.606 -0.722273 -3.04141 0
M  V30 10268 H 975.826 -3.12467 -2.40329 0
M  V30 10269 H 977.114 -3.73102 -3.45937 0
M  V30 10270 H 976.512 -1.29606 -5.50653 0
M  V30 10271 H 975.069 -1.86484 -6.24553 0
M  V30 10272 N 978.502 0.731368 -1.39602 0
M  V30 10273 C 979.913 1.30981 -1.33045 0
M  V30 10274 C 980.264 1.962 0.00349918 0
M  V30 10275 O 979.389 1.96539 0.905615 0
M  V30 10276 C 979.984 2.3817 -2.40958 0
M  V30 10277 C 978.543 2.91678 -2.3791 0
M  V30 10278 C 977.69 1.65286 -2.22656 0
M  V30 10279 H 980.641 0.528615 -1.49637 0
M  V30 10280 H 980.662 3.18645 -2.07955 0
M  V30 10281 H 980.174 1.90673 -3.38032 0
M  V30 10282 H 978.275 3.43446 -1.44485 0
M  V30 10283 H 978.388 3.44545 -3.32904 0
M  V30 10284 H 976.752 1.89759 -1.69893 0
M  V30 10285 H 977.535 1.19836 -3.21705 0
M  V30 10286 N 979.98 1.24838 0.961938 0
M  V30 10287 C 981.391 1.08369 1.5203 0
M  V30 10288 C 981.742 -0.343005 1.93178 0
M  V30 10289 O 980.867 -1.2321 1.779 0
M  V30 10290 C 981.462 1.96102 2.76278 0
M  V30 10291 C 980.021 1.8384 3.28451 0
M  V30 10292 C 979.168 1.9069 2.01327 0
M  V30 10293 H 982.119 1.38231 0.779613 0
M  V30 10294 H 982.14 1.4967 3.49827 0
M  V30 10295 H 981.652 2.99931 2.46298 0
M  V30 10296 H 979.753 0.828653 3.63269 0
M  V30 10297 H 979.866 2.68251 3.96961 0
M  V30 10298 H 978.23 1.34488 2.16299 0
M  V30 10299 H 979.013 2.96111 1.73705 0
M  V30 10300 N 981.458 -1.16348 1.06306 0
M  V30 10301 C 982.706 -1.86512 0.778311 0
M  V30 10302 C 983.027 -1.82107 -0.697273 0
M  V30 10303 O 982.297 -1.2547 -1.50446 0
M  V30 10304 H 980.877 -0.690529 0.284919 0
M  V30 10305 H 983.539 -1.41092 1.34458 0
M  V30 10306 H 982.635 -2.91947 1.10333 0
M  V30 10307 N 982.937 -0.845659 -1.3299 0
M  V30 10308 C 984.185 -0.443774 -1.97168 0
M  V30 10309 C 984.506 1.00192 -1.67292 0
M  V30 10310 O 983.776 1.69891 -0.975397 0
M  V30 10311 H 982.356 -0.161111 -0.729419 0
M  V30 10312 H 985.018 -1.08011 -1.62233 0
M  V30 10313 H 984.114 -0.581414 -3.06637 0
M  V30 10314 N 984.415 1.45619 -0.602734 0
M  V30 10315 C 985.826 1.85814 -0.181636 0
M  V30 10316 C 986.177 1.5037 1.26029 0
M  V30 10317 O 985.302 0.928068 1.95489 0
M  V30 10318 C 985.897 3.37258 -0.322866 0
M  V30 10319 C 984.456 3.76375 0.043504 0
M  V30 10320 C 983.603 2.69585 -0.649561 0
M  V30 10321 H 986.554 1.36489 -0.809721 0
M  V30 10322 H 986.575 3.77874 0.446279 0
M  V30 10323 H 986.087 3.63024 -1.37241 0
M  V30 10324 H 984.188 3.56226 1.09241 0
M  V30 10325 H 984.301 4.77843 -0.346765 0
M  V30 10326 H 982.665 2.54549 -0.087706 0
M  V30 10327 H 983.448 2.98188 -1.70115 0
M  V30 10328 N 985.893 0.34162 1.53853 0
M  V30 10329 C 987.141 -0.254979 2.00485 0
M  V30 10330 C 987.462 -1.51222 1.23114 0
M  V30 10331 O 986.732 -1.92966 0.337787 0
M  V30 10332 H 985.312 -0.0972084 0.740648 0
M  V30 10333 H 987.974 0.462332 1.89337 0
M  V30 10334 H 987.07 -0.498778 3.08089 0
M  V30 10335 N 987.371 -1.57444 0.0701946 0
M  V30 10336 C 988.787 -1.57009 -0.286431 0
M  V30 10337 C 988.987 -1.07946 -1.70147 0
M  V30 10338 O 988.043 -0.744622 -2.41271 0
M  V30 10339 C 989.356 -3.00542 -0.0975466 0
M  V30 10340 C 990.904 -3.12553 -0.167205 0
M  V30 10341 C 991.379 -4.58 -0.00662047 0
M  V30 10342 N 992.87 -4.63158 -0.0622778 0
M  V30 10343 C 993.605 -5.73388 0.0375831 0
M  V30 10344 N 993.101 -6.92537 0.190873 0
M  V30 10345 N 994.894 -5.62097 -0.0193672 0
M  V30 10346 H 987.045 -1.87651 0.995023 0
M  V30 10347 H 989.308 -0.865006 0.387902 0
M  V30 10348 H 989.014 -3.40543 0.878822 0
M  V30 10349 H 988.888 -3.67485 -0.850547 0
M  V30 10350 H 991.275 -2.72439 -1.13406 0
M  V30 10351 H 991.356 -2.48251 0.616871 0
M  V30 10352 H 991 -4.98803 0.956992 0
M  V30 10353 H 990.93 -5.20332 -0.810081 0
M  V30 10354 H 993.421 -3.77475 -0.179229 0
M  V30 10355 H 993.734 -7.72365 0.25926 0
M  V30 10356 H 992.079 -6.94632 0.226214 0
M  V30 10357 H 995.27 -4.67897 -0.137815 0
M  V30 10358 H 995.443 -6.4797 0.0619121 0
M  V30 10359 N 988.849 0.203349 -1.56283 0
M  V30 10360 C 989.759 1.27266 -1.9708 0
M  V30 10361 C 990.775 1.50268 -0.877236 0
M  V30 10362 O 991.951 1.63044 -1.18231 0
M  V30 10363 C 989.016 2.59871 -2.29495 0
M  V30 10364 C 988.077 2.45012 -3.52516 0
M  V30 10365 C 987.31 3.71293 -3.83376 0
M  V30 10366 O 987.533 4.75106 -3.15643 0
M  V30 10367 O 986.467 3.67316 -4.76826 0
M  V30 10368 H 990.293 0.956461 -2.88246 0
M  V30 10369 H 987.878 0.407688 -1.4373 0
M  V30 10370 H 989.76 3.38152 -2.51458 0
M  V30 10371 H 988.435 2.91135 -1.415 0
M  V30 10372 H 987.342 1.6487 -3.35811 0
M  V30 10373 H 988.675 2.18683 -4.40952 0
M  V30 10374 N 990.327 1.50405 0.470755 0
M  V30 10375 C 991.743 1.37838 0.804534 0
M  V30 10376 C 991.943 0.434743 1.96754 0
M  V30 10377 O 990.999 -0.122507 2.52203 0
M  V30 10378 C 992.312 2.79212 1.11629 0
M  V30 10379 C 993.86 2.88129 1.22272 0
M  V30 10380 C 994.335 4.30337 1.5676 0
M  V30 10381 N 995.826 4.3329 1.63751 0
M  V30 10382 C 996.561 5.4032 1.91942 0
M  V30 10383 N 996.057 6.57558 2.18151 0
M  V30 10384 N 997.85 5.27764 1.93446 0
M  V30 10385 H 990.001 2.10332 -0.295689 0
M  V30 10386 H 992.264 0.945429 -0.0697733 0
M  V30 10387 H 991.97 3.50103 0.334778 0
M  V30 10388 H 991.844 3.16475 2.0524 0
M  V30 10389 H 994.231 2.17457 1.9949 0
M  V30 10390 H 994.312 2.54409 0.2664 0
M  V30 10391 H 993.956 5.01547 0.800817 0
M  V30 10392 H 993.886 4.61545 2.53543 0
M  V30 10393 H 996.377 3.48752 1.45535 0
M  V30 10394 H 996.69 7.34935 2.38936 0
M  V30 10395 H 995.035 6.60732 2.15542 0
M  V30 10396 H 998.226 4.35169 1.72468 0
M  V30 10397 H 998.399 6.11264 2.15081 0
M  V30 10398 N 991.805 -0.723954 1.39988 0
M  V30 10399 C 993.053 -1.48078 1.3754 0
M  V30 10400 C 993.374 -1.94985 -0.0243358 0
M  V30 10401 O 992.644 -1.69764 -0.977602 0
M  V30 10402 H 991.224 -0.549354 0.506181 0
M  V30 10403 H 993.886 -0.858746 1.74962 0
M  V30 10404 H 992.982 -2.35763 2.04505 0
M  V30 10405 N 993.283 -1.25346 -0.955304 0
M  V30 10406 C 994.193 -1.07412 -2.08566 0
M  V30 10407 C 995.209 -0.0114424 -1.73996 0
M  V30 10408 O 996.385 -0.212236 -2.00279 0
M  V30 10409 C 993.45 -0.694141 -3.3968 0
M  V30 10410 C 992.511 -1.83468 -3.88121 0
M  V30 10411 C 991.744 -1.47274 -5.12978 0
M  V30 10412 O 991.967 -0.368086 -5.69211 0
M  V30 10413 O 990.901 -2.30269 -5.56111 0
M  V30 10414 H 994.727 -2.02206 -2.26598 0
M  V30 10415 H 992.312 -1.04279 -1.06988 0
M  V30 10416 H 994.194 -0.494325 -4.18491 0
M  V30 10417 H 992.869 0.224545 -3.2292 0
M  V30 10418 H 991.776 -2.08935 -3.10318 0
M  V30 10419 H 993.109 -2.73258 -4.09379 0
M  V30 10420 N 994.761 1.15782 -1.06922 0
M  V30 10421 C 995.986 1.90896 -0.810771 0
M  V30 10422 C 996.411 1.77246 0.629714 0
M  V30 10423 O 995.769 1.10215 1.43953 0
M  V30 10424 C 995.817 3.39397 -1.21829 0
M  V30 10425 O 994.921 4.10818 -0.360934 0
M  V30 10426 H 994.262 0.594497 -0.295752 0
M  V30 10427 H 996.792 1.46652 -1.42669 0
M  V30 10428 H 996.802 3.90181 -1.19259 0
M  V30 10429 H 995.477 3.4865 -2.2675 0
M  V30 10430 H 994.054 3.7019 -0.448748 0
M  V30 10431 N 996.239 0.8527 1.3254 0
M  V30 10432 C 997.65 0.510012 1.79599 0
M  V30 10433 C 998.001 -0.972002 1.70431 0
M  V30 10434 O 997.126 -1.7581 1.26173 0
M  V30 10435 C 997.721 0.918986 3.26098 0
M  V30 10436 C 996.28 0.628227 3.7112 0
M  V30 10437 C 995.427 1.11979 2.53685 0
M  V30 10438 H 998.378 1.04009 1.19866 0
M  V30 10439 H 998.399 0.234577 3.79776 0
M  V30 10440 H 997.911 1.99765 3.32739 0
M  V30 10441 H 996.012 -0.4398 3.69995 0
M  V30 10442 H 996.125 1.19315 4.64005 0
M  V30 10443 H 994.489 0.540133 2.48907 0
M  V30 10444 H 995.272 2.20552 2.63081 0
M  V30 10445 N 997.718 -1.45297 0.610449 0
M  V30 10446 C 998.946 -2.0659 0.113211 0
M  V30 10447 C 999.361 -1.4546 -1.20361 0
M  V30 10448 O 998.718 -0.569823 -1.73376 0
M  V30 10449 C 998.769 -3.61488 -0.0298411 0
M  V30 10450 O 998.49 -4.20336 1.23488 0
M  V30 10451 C 999.991 -4.39772 -0.558202 0
M  V30 10452 H 997.211 -0.667322 0.0701555 0
M  V30 10453 H 999.755 -1.86497 0.838993 0
M  V30 10454 H 997.91 -3.80913 -0.705963 0
M  V30 10455 H 998.324 -5.13545 1.0664 0
M  V30 10456 H 999.798 -5.48648 -0.607375 0
M  V30 10457 H 1000.27 -4.09755 -1.58107 0
M  V30 10458 H 1000.88 -4.25217 0.0839704 0
M  V30 10459 N 999.196 -0.349774 -1.5367 0
M  V30 10460 C 1000.42 0.246038 -2.05432 0
M  V30 10461 C 1000.84 1.43719 -1.22435 0
M  V30 10462 O 1000.2 1.80622 -0.261166 0
M  V30 10463 C 1000.25 0.65501 -3.55516 0
M  V30 10464 O 999.968 -0.488782 -4.35365 0
M  V30 10465 C 1001.47 1.31088 -4.23475 0
M  V30 10466 H 998.689 0.0463952 -0.669394 0
M  V30 10467 H 1001.23 -0.503566 -1.98203 0
M  V30 10468 H 999.388 1.35455 -3.62947 0
M  V30 10469 H 999.802 -0.161528 -5.24251 0
M  V30 10470 H 1001.28 1.54774 -5.29857 0
M  V30 10471 H 1001.75 2.26636 -3.76208 0
M  V30 10472 H 1002.36 0.653211 -4.20254 0
M  V30 10473 N 1000.67 1.57404 -0.0785433 0
M  V30 10474 C 1002.08 1.81118 0.45311 0
M  V30 10475 C 1002.44 0.992963 1.69218 0
M  V30 10476 O 1001.56 0.217448 2.15305 0
M  V30 10477 C 1002.16 3.28506 0.82882 0
M  V30 10478 C 1000.71 3.53042 1.3053 0
M  V30 10479 C 999.862 2.75739 0.29378 0
M  V30 10480 H 1002.81 1.55758 -0.304171 0
M  V30 10481 H 1002.83 3.40924 1.68971 0
M  V30 10482 H 1002.35 3.88031 -0.0731826 0
M  V30 10483 H 1000.45 2.98829 2.22558 0
M  V30 10484 H 1000.56 4.61724 1.27857 0
M  V30 10485 H 998.924 2.42703 0.772477 0
M  V30 10486 H 999.707 3.38005 -0.600613 0
M  V30 10487 N 1002.15 -0.195058 1.56388 0
M  V30 10488 C 1003.56 -0.75973 1.70543 0
M  V30 10489 C 1003.91 -1.83849 0.685118 0
M  V30 10490 O 1003.04 -2.15819 -0.158457 0
M  V30 10491 C 1003.63 -1.38485 3.09204 0
M  V30 10492 C 1002.19 -1.89661 3.25124 0
M  V30 10493 C 1001.34 -0.766563 2.66494 0
M  V30 10494 H 1004.29 0.0300148 1.58672 0
M  V30 10495 H 1004.31 -2.25424 3.06536 0
M  V30 10496 H 1003.82 -0.599479 3.83442 0
M  V30 10497 H 1001.92 -2.70917 2.55802 0
M  V30 10498 H 1002.04 -2.05837 4.32629 0
M  V30 10499 H 1000.4 -1.18086 2.25672 0
M  V30 10500 H 1001.18 0.00657102 3.43299 0
M  V30 10501 N 1003.63 -1.50653 -0.462772 0
M  V30 10502 C 1004.86 -1.65826 -1.23731 0
M  V30 10503 C 1005.27 -0.345002 -1.85621 0
M  V30 10504 O 1004.63 0.673935 -1.69601 0
M  V30 10505 C 1004.68 -2.7555 -2.33997 0
M  V30 10506 O 1004.4 -4.01785 -1.74643 0
M  V30 10507 C 1005.9 -3.0177 -3.2473 0
M  V30 10508 H 1003.12 -0.557177 -0.373892 0
M  V30 10509 H 1005.67 -1.96925 -0.551434 0
M  V30 10510 H 1003.82 -2.47122 -2.98345 0
M  V30 10511 H 1004.24 -4.62529 -2.4732 0
M  V30 10512 H 1005.71 -3.82188 -3.98292 0
M  V30 10513 H 1006.19 -2.13167 -3.84001 0
M  V30 10514 H 1006.79 -3.31761 -2.66111 0
M  V30 10515 N 1005.11 0.71652 -1.4037 0
M  V30 10516 C 1006.52 1.29562 -1.34427 0
M  V30 10517 C 1006.87 1.96192 -0.0173106 0
M  V30 10518 O 1006 1.97488 0.884719 0
M  V30 10519 C 1006.59 2.35601 -2.4347 0
M  V30 10520 C 1005.15 2.89138 -2.4099 0
M  V30 10521 C 1004.3 1.62915 -2.24397 0
M  V30 10522 H 1007.25 0.512715 -1.5019 0
M  V30 10523 H 1007.27 3.16422 -2.11323 0
M  V30 10524 H 1006.78 1.87077 -3.40035 0
M  V30 10525 H 1004.88 3.41894 -1.4812 0
M  V30 10526 H 1004.99 3.40995 -3.3654 0
M  V30 10527 H 1003.36 1.87947 -1.71896 0
M  V30 10528 H 1004.14 1.16417 -3.22958 0
M  V30 10529 N 1006.59 1.25851 0.948643 0
M  V30 10530 C 1007.81 1.13711 1.72851 0
M  V30 10531 C 1008.23 -0.308471 1.86263 0
M  V30 10532 O 1007.59 -1.21175 1.36465 0
M  V30 10533 C 1007.64 1.79271 3.13918 0
M  V30 10534 O 1007.36 3.18179 3.01154 0
M  V30 10535 C 1008.86 1.72988 4.08154 0
M  V30 10536 H 1006.08 0.396334 0.541443 0
M  V30 10537 H 1008.62 1.66329 1.18974 0
M  V30 10538 H 1006.78 1.30609 3.64719 0
M  V30 10539 H 1007.19 3.50507 3.90186 0
M  V30 10540 H 1008.67 2.2351 5.04725 0
M  V30 10541 H 1009.14 0.694866 4.33668 0
M  V30 10542 H 1009.75 2.21166 3.63271 0
M  V30 10543 N 1008.06 -1.15214 1.07534 0
M  V30 10544 C 1009.48 -1.67628 0.822045 0
M  V30 10545 C 1009.83 -1.8503 -0.652571 0
M  V30 10546 O 1008.95 -1.55497 -1.50498 0
M  V30 10547 C 1009.55 -3.04489 1.48566 0
M  V30 10548 C 1008.11 -3.53974 1.27983 0
M  V30 10549 C 1007.25 -2.29656 1.55414 0
M  V30 10550 H 1010.2 -0.994016 1.23713 0
M  V30 10551 H 1010.22 -3.69509 0.907916 0
M  V30 10552 H 1009.74 -2.91792 2.55888 0
M  V30 10553 H 1007.84 -3.71908 0.226906 0
M  V30 10554 H 1007.95 -4.35298 2.0013 0
M  V30 10555 H 1006.31 -2.35289 0.975251 0
M  V30 10556 H 1007.1 -2.19544 2.63923 0
M  V30 10557 N 1009.54 -0.859717 -1.32086 0
M  V30 10558 C 1010.51 -0.313005 -2.27053 0
M  V30 10559 C 1011.51 0.530191 -1.51808 0
M  V30 10560 O 1012.7 0.340972 -1.7083 0
M  V30 10561 C 1009.83 0.5566 -3.36325 0
M  V30 10562 H 1011.02 -1.15125 -2.76923 0
M  V30 10563 H 1008.57 -0.634463 -1.42843 0
M  V30 10564 H 1009.31 1.41645 -2.91731 0
M  V30 10565 H 1009.09 -0.0470197 -3.92072 0
M  V30 10566 H 1010.58 0.931725 -4.07073 0
M  V30 10567 N 1011.02 1.44971 -0.618145 0
M  V30 10568 C 1012.43 1.85611 -0.201334 0
M  V30 10569 C 1012.78 1.51698 1.24427 0
M  V30 10570 O 1011.91 0.94875 1.94493 0
M  V30 10571 C 1012.5 3.36897 -0.358619 0
M  V30 10572 C 1011.06 3.764 0.00358196 0
M  V30 10573 C 1010.21 2.68881 -0.678118 0
M  V30 10574 H 1013.16 1.35622 -0.824152 0
M  V30 10575 H 1013.18 3.78326 0.406176 0
M  V30 10576 H 1012.69 3.61548 -1.41084 0
M  V30 10577 H 1010.79 3.57365 1.05457 0
M  V30 10578 H 1010.91 4.77449 -0.397427 0
M  V30 10579 H 1009.27 2.54442 -0.114699 0
M  V30 10580 H 1010.05 2.96367 -1.73268 0
M  V30 10581 N 1012.5 0.357919 1.53482 0
M  V30 10582 C 1013.74 -0.23433 2.03052 0
M  V30 10583 C 1014.1 -1.46614 1.23969 0
M  V30 10584 O 1015.3 -2.13351 1.63508 0
M  V30 10585 C 1013.57 -0.526653 3.53498 0
M  V30 10586 S 1015.13 -1.09366 4.24952 0
M  V30 10587 H 1011.95 -0.0687848 0.707665 0
M  V30 10588 H 1014.55 0.499011 1.89024 0
M  V30 10589 H 1013.26 0.377463 4.0866 0
M  V30 10590 H 1012.79 -1.28927 3.71674 0
M  V30 10591 H 1014.8 -2.37845 4.35481 0
M  V30 10592 N 1013.98 -1.5736 0.0868897 0
M  V30 10593 C 1015.39 -1.81356 -0.443499 0
M  V30 10594 C 1015.74 -1.00192 -1.68689 0
M  V30 10595 O 1014.86 -0.228863 -2.15186 0
M  V30 10596 C 1015.46 -3.28941 -0.811387 0
M  V30 10597 C 1014.02 -3.53729 -1.28656 0
M  V30 10598 C 1013.16 -2.75891 -0.279153 0
M  V30 10599 H 1016.12 -1.55594 0.312427 0
M  V30 10600 H 1016.14 -3.41815 -1.6716 0
M  V30 10601 H 1015.65 -3.87987 0.0937598 0
M  V30 10602 H 1013.75 -3.00005 -2.2097 0
M  V30 10603 H 1013.86 -4.62396 -1.25406 0
M  V30 10604 H 1012.23 -2.4311 -0.759595 0
M  V30 10605 H 1013.01 -3.37682 0.618529 0
M  V30 10606 N 1015.45 0.186762 -1.56489 0
M  V30 10607 C 1016.68 0.921832 -1.85229 0
M  V30 10608 C 1017.1 1.76496 -0.670416 0
M  V30 10609 O 1016.45 1.78899 0.360758 0
M  V30 10610 C 1016.51 1.81121 -3.12854 0
M  V30 10611 O 1016.23 1.00211 -4.26485 0
M  V30 10612 C 1017.73 2.65725 -3.54831 0
M  V30 10613 H 1014.95 0.268563 -0.61491 0
M  V30 10614 H 1017.49 0.191505 -2.03601 0
M  V30 10615 H 1015.65 2.49506 -2.96354 0
M  V30 10616 H 1016.06 1.60893 -4.99213 0
M  V30 10617 H 1017.53 3.23771 -4.47075 0
M  V30 10618 H 1018.01 3.39843 -2.78215 0
M  V30 10619 H 1018.62 2.02698 -3.7389 0
M  V30 10620 N 1016.93 1.50896 0.454776 0
M  V30 10621 C 1017.84 1.73762 1.5762 0
M  V30 10622 C 1018.86 0.621206 1.62533 0
M  V30 10623 O 1020.03 0.901449 1.801 0
M  V30 10624 C 1017.1 1.84183 2.9373 0
M  V30 10625 C 1016.16 3.07982 2.99075 0
M  V30 10626 C 1015.39 3.17896 4.28693 0
M  V30 10627 O 1015.62 2.34184 5.20109 0
M  V30 10628 O 1014.55 4.10749 4.39964 0
M  V30 10629 H 1018.38 2.68856 1.41245 0
M  V30 10630 H 1015.96 1.35187 0.635984 0
M  V30 10631 H 1017.84 1.93123 3.74542 0
M  V30 10632 H 1016.52 0.922742 3.10269 0
M  V30 10633 H 1015.43 3.04531 2.17282 0
M  V30 10634 H 1016.76 3.99523 2.87476 0
M  V30 10635 N 1018.41 -0.709066 1.40748 0
M  V30 10636 C 1019.82 -1.28847 1.35112 0
M  V30 10637 C 1020.17 -1.9618 0.0277149 0
M  V30 10638 O 1019.3 -1.97955 -0.874233 0
M  V30 10639 C 1019.89 -2.34306 2.44716 0
M  V30 10640 C 1018.45 -2.87856 2.4252 0
M  V30 10641 C 1017.6 -1.61723 2.25257 0
M  V30 10642 H 1020.55 -0.504742 1.50459 0
M  V30 10643 H 1020.57 -3.15297 2.12998 0
M  V30 10644 H 1020.08 -1.85271 3.41022 0
M  V30 10645 H 1018.18 -3.41103 1.49931 0
M  V30 10646 H 1018.3 -3.39205 3.38344 0
M  V30 10647 H 1016.66 -1.87032 1.7289 0
M  V30 10648 H 1017.44 -1.14703 3.23571 0
M  V30 10649 N 1019.89 -1.26353 -0.941956 0
M  V30 10650 C 1021.3 -1.10774 -1.50287 0
M  V30 10651 C 1021.65 0.312229 -1.937 0
M  V30 10652 O 1020.78 1.20364 -1.79838 0
M  V30 10653 C 1021.37 -2.00473 -2.73123 0
M  V30 10654 C 1019.93 -1.89042 -3.25485 0
M  V30 10655 C 1019.08 -1.93869 -1.98267 0
M  V30 10656 H 1022.03 -1.39454 -0.757523 0
M  V30 10657 H 1022.05 -1.55216 -3.47402 0
M  V30 10658 H 1021.56 -3.03812 -2.41495 0
M  V30 10659 H 1019.66 -0.886341 -3.61904 0
M  V30 10660 H 1019.78 -2.74533 -3.92643 0
M  V30 10661 H 1018.14 -1.37912 -2.14132 0
M  V30 10662 H 1018.92 -2.98837 -1.68972 0
M  V30 10663 N 1021.37 1.14642 -1.08144 0
M  V30 10664 C 1022.78 1.6719 -0.830923 0
M  V30 10665 C 1023.13 1.85373 0.642749 0
M  V30 10666 O 1022.25 1.56293 1.49671 0
M  V30 10667 C 1022.85 3.03697 -1.50179 0
M  V30 10668 C 1021.41 3.5329 -1.29858 0
M  V30 10669 C 1020.56 2.28828 -1.5663 0
M  V30 10670 H 1023.51 0.987441 -1.24239 0
M  V30 10671 H 1023.53 3.69023 -0.9275 0
M  V30 10672 H 1023.04 2.90431 -2.57432 0
M  V30 10673 H 1021.14 3.71783 -0.246626 0
M  V30 10674 H 1021.25 4.34231 -2.02436 0
M  V30 10675 H 1019.62 2.34769 -0.987716 0
M  V30 10676 H 1020.4 2.18141 -2.65084 0
M  V30 10677 N 1022.85 0.866709 1.31628 0
M  V30 10678 C 1024.07 0.48956 2.01539 0
M  V30 10679 C 1024.5 -0.909556 1.64647 0
M  V30 10680 O 1023.85 -1.59959 0.853391 0
M  V30 10681 C 1023.9 0.650176 3.5469 0
M  V30 10682 O 1023.01 -0.311908 4.11219 0
M  V30 10683 H 1022.35 0.195144 0.634677 0
M  V30 10684 H 1024.88 1.16923 1.679 0
M  V30 10685 H 1024.89 0.542236 4.04381 0
M  V30 10686 H 1023.56 1.67038 3.80882 0
M  V30 10687 H 1022.14 -0.159197 3.7256 0
M  V30 10688 N 1024.32 -1.44642 0.625825 0
M  V30 10689 C 1025.73 -1.85502 0.211175 0
M  V30 10690 C 1026.09 -1.52356 -1.2362 0
M  V30 10691 O 1025.21 -0.959051 -1.93988 0
M  V30 10692 C 1025.81 -3.36702 0.37648 0
M  V30 10693 C 1024.36 -3.76396 0.0163795 0
M  V30 10694 C 1023.51 -2.68517 0.692368 0
M  V30 10695 H 1026.46 -1.35183 0.831333 0
M  V30 10696 H 1026.48 -3.78536 -0.386106 0
M  V30 10697 H 1026 -3.60795 1.42999 0
M  V30 10698 H 1024.1 -3.57919 -1.0356 0
M  V30 10699 H 1024.21 -4.77231 0.422742 0
M  V30 10700 H 1022.57 -2.54377 0.128191 0
M  V30 10701 H 1023.36 -2.95444 1.74837 0
M  V30 10702 N 1025.8 -0.366053 -1.5329 0
M  V30 10703 C 1026.73 0.47211 -2.28677 0
M  V30 10704 C 1027.71 1.08353 -1.31125 0
M  V30 10705 O 1028.9 1.10069 -1.59995 0
M  V30 10706 C 1026.03 1.61174 -3.07637 0
M  V30 10707 C 1024.98 1.12755 -4.12881 0
M  V30 10708 C 1024.31 2.35745 -4.79925 0
M  V30 10709 C 1025.61 0.211954 -5.2187 0
M  V30 10710 H 1027.3 -0.156838 -2.98989 0
M  V30 10711 H 1024.85 -0.0768709 -1.43795 0
M  V30 10712 H 1026.8 2.20473 -3.59123 0
M  V30 10713 H 1025.52 2.26793 -2.35016 0
M  V30 10714 H 1024.18 0.557234 -3.6234 0
M  V30 10715 H 1023.83 2.99821 -4.03877 0
M  V30 10716 H 1023.53 2.04019 -5.51044 0
M  V30 10717 H 1025.06 2.95729 -5.34207 0
M  V30 10718 H 1026.47 0.71244 -5.68856 0
M  V30 10719 H 1024.87 -0.0144501 -6.00098 0
M  V30 10720 H 1025.94 -0.745753 -4.79131 0
M  V30 10721 N 1027.28 1.57312 -0.0952337 0
M  V30 10722 C 1028.53 1.93533 0.568131 0
M  V30 10723 C 1028.84 0.979121 1.6933 0
M  V30 10724 O 1030.05 1.23506 2.41782 0
M  V30 10725 C 1028.5 3.43875 1.06198 0
M  V30 10726 C 1028.11 4.47988 -0.0334397 0
M  V30 10727 C 1029.86 3.89057 1.69807 0
M  V30 10728 C 1027.76 5.89483 0.475774 0
M  V30 10729 H 1026.69 0.7224 0.215995 0
M  V30 10730 H 1029.34 1.82699 -0.171257 0
M  V30 10731 H 1027.73 3.49862 1.85506 0
M  V30 10732 H 1028.9 4.53644 -0.808934 0
M  V30 10733 H 1027.21 4.12415 -0.574725 0
M  V30 10734 H 1029.81 4.92171 2.08978 0
M  V30 10735 H 1030.15 3.27713 2.5673 0
M  V30 10736 H 1030.69 3.85772 0.970815 0
M  V30 10737 H 1027.43 6.54528 -0.356837 0
M  V30 10738 H 1026.95 5.87297 1.21827 0
M  V30 10739 H 1028.63 6.40066 0.944697 0
M  V30 10740 N 1028.76 -0.17846 1.56586 0
M  V30 10741 C 1030 -0.90281 1.83381 0
M  V30 10742 C 1030.36 -1.79738 0.675139 0
M  V30 10743 O 1031.56 -2.55879 0.823368 0
M  V30 10744 C 1029.83 -1.68353 3.15265 0
M  V30 10745 S 1031.39 -2.45762 3.6352 0
M  V30 10746 H 1028.21 -0.302508 0.643436 0
M  V30 10747 H 1030.81 -0.164961 1.94803 0
M  V30 10748 H 1029.52 -1.01725 3.97593 0
M  V30 10749 H 1029.05 -2.46289 3.06766 0
M  V30 10750 H 1031.06 -3.70312 3.30278 0
M  V30 10751 N 1030.24 -1.51135 -0.446768 0
M  V30 10752 C 1031.48 -1.63336 -1.19698 0
M  V30 10753 C 1031.81 -0.345099 -1.91414 0
M  V30 10754 O 1031.07 0.670365 -1.8386 0
M  V30 10755 C 1031.36 -2.78034 -2.2457 0
M  V30 10756 C 1031.03 -4.17652 -1.69934 0
M  V30 10757 C 1029.69 -4.55636 -1.54756 0
M  V30 10758 C 1032.04 -5.04813 -1.29665 0
M  V30 10759 C 1029.37 -5.78496 -0.977689 0
M  V30 10760 C 1031.72 -6.28244 -0.741112 0
M  V30 10761 C 1030.39 -6.65009 -0.576156 0
M  V30 10762 H 1029.66 -0.597689 -0.438006 0
M  V30 10763 H 1032.31 -1.85141 -0.48939 0
M  V30 10764 H 1030.61 -2.50413 -3.01331 0
M  V30 10765 H 1032.31 -2.84675 -2.8242 0
M  V30 10766 H 1028.9 -3.87699 -1.82722 0
M  V30 10767 H 1033.08 -4.76081 -1.40216 0
M  V30 10768 H 1028.34 -6.05636 -0.837563 0
M  V30 10769 H 1032.51 -6.95129 -0.42053 0
M  V30 10770 H 1030.14 -7.60085 -0.132443 0
M  V30 10771 N 1031.71 0.701592 -1.41122 0
M  V30 10772 C 1032.94 1.49553 -1.43696 0
M  V30 10773 C 1033.36 1.88053 -0.0421865 0
M  V30 10774 O 1032.72 1.54223 0.953144 0
M  V30 10775 C 1032.77 2.73834 -2.34622 0
M  V30 10776 O 1031.87 3.71088 -1.7991 0
M  V30 10777 H 1031.21 0.450352 -0.487933 0
M  V30 10778 H 1033.74 0.862886 -1.85514 0
M  V30 10779 H 1033.75 3.22209 -2.5029 0
M  V30 10780 H 1032.43 2.45149 -3.35969 0
M  V30 10781 H 1031.01 3.29994 -1.73661 0
M  V30 10782 N 1033.19 1.2685 0.935242 0
M  V30 10783 C 1034.12 1.1143 2.05196 0
M  V30 10784 C 1035.1 0.0178362 1.70091 0
M  V30 10785 O 1036.29 0.190951 1.93259 0
M  V30 10786 C 1033.42 0.752779 3.39044 0
M  V30 10787 C 1032.37 1.80164 3.88233 0
M  V30 10788 C 1031.7 1.29428 5.18799 0
M  V30 10789 C 1033 3.20431 4.12457 0
M  V30 10790 H 1034.69 2.04845 2.18355 0
M  V30 10791 H 1032.24 0.986276 1.04922 0
M  V30 10792 H 1034.19 0.631757 4.16637 0
M  V30 10793 H 1032.91 -0.217075 3.25878 0
M  V30 10794 H 1031.57 1.91144 3.12825 0
M  V30 10795 H 1031.22 0.3141 5.02018 0
M  V30 10796 H 1030.92 1.99546 5.5268 0
M  V30 10797 H 1032.45 1.18605 5.9897 0
M  V30 10798 H 1033.86 3.12495 4.80645 0
M  V30 10799 H 1032.26 3.88193 4.57631 0
M  V30 10800 H 1033.33 3.66046 3.18023 0
M  V30 10801 N 1034.67 -1.14067 1.0875 0
M  V30 10802 C 1035.62 -2.19261 0.720633 0
M  V30 10803 C 1036.59 -1.63462 -0.294847 0
M  V30 10804 O 1037.77 -1.89967 -0.178058 0
M  V30 10805 C 1034.91 -3.44816 0.139873 0
M  V30 10806 C 1034.03 -4.1475 1.20856 0
M  V30 10807 C 1033.16 -5.27899 0.591285 0
M  V30 10808 C 1032.2 -5.89672 1.64176 0
M  V30 10809 N 1031.34 -6.94264 1.04603 0
M  V30 10810 H 1036.18 -2.49991 1.62198 0
M  V30 10811 H 1033.71 -1.22757 0.810497 0
M  V30 10812 H 1035.67 -4.16648 -0.214587 0
M  V30 10813 H 1034.3 -3.14558 -0.724774 0
M  V30 10814 H 1033.35 -3.41272 1.6804 0
M  V30 10815 H 1034.67 -4.56753 2.00446 0
M  V30 10816 H 1033.82 -6.06417 0.185271 0
M  V30 10817 H 1032.56 -4.87128 -0.236236 0
M  V30 10818 H 1031.56 -5.09854 2.05739 0
M  V30 10819 H 1032.79 -6.32517 2.47182 0
M  V30 10820 H 1030.73 -6.55562 0.239664 0
M  V30 10821 H 1030.65 -7.34771 1.77898 0
M  V30 10822 H 1031.92 -7.7665 0.665989 0
M  V30 10823 N 1036.15 -0.873678 -1.31166 0
M  V30 10824 C 1037.38 -0.501043 -2.00742 0
M  V30 10825 C 1037.79 0.907477 -1.65561 0
M  V30 10826 O 1037.15 1.59507 -0.886771 0
M  V30 10827 C 1037.2 -0.652877 -3.55556 0
M  V30 10828 O 1036.92 -2.00593 -3.89479 0
M  V30 10829 C 1038.42 -0.281742 -4.42404 0
M  V30 10830 H 1035.64 -0.194829 -0.642092 0
M  V30 10831 H 1038.19 -1.17587 -1.67313 0
M  V30 10832 H 1036.34 -0.0255627 -3.87392 0
M  V30 10833 H 1036.75 -2.01638 -4.84193 0
M  V30 10834 H 1038.23 -0.43892 -5.50252 0
M  V30 10835 H 1038.71 0.779389 -4.32229 0
M  V30 10836 H 1039.31 -0.88491 -4.15992 0
M  V30 10837 N 1037.63 1.44308 -0.633487 0
M  V30 10838 C 1039.04 1.85387 -0.221009 0
M  V30 10839 C 1039.39 1.5301 1.22811 0
M  V30 10840 O 1038.51 0.969325 1.93476 0
M  V30 10841 C 1039.11 3.36497 -0.394331 0
M  V30 10842 C 1037.67 3.76382 -0.0363405 0
M  V30 10843 C 1036.81 2.68146 -0.706598 0
M  V30 10844 H 1039.77 1.34741 -0.83849 0
M  V30 10845 H 1039.79 3.78735 0.366026 0
M  V30 10846 H 1039.3 3.60031 -1.44911 0
M  V30 10847 H 1037.4 3.58463 1.01661 0
M  V30 10848 H 1037.51 4.77 -0.448045 0
M  V30 10849 H 1035.88 2.54306 -0.14168 0
M  V30 10850 H 1036.66 2.94512 -1.76401 0
M  V30 10851 N 1039.1 0.374177 1.53094 0
M  V30 10852 C 1040.38 -0.269632 1.93733 0
M  V30 10853 C 1040.76 -1.6566 1.30843 0
M  V30 10854 O 1040.11 -2.23598 0.470759 0
M  V30 10855 C 1040.32 -0.311204 3.4761 0
M  V30 10856 C 1041.67 -0.547432 4.21056 0
M  V30 10857 O 1042.69 -0.392053 3.54036 0
M  V30 10858 O 1041.55 -0.850645 5.39839 0
M  V30 10859 H 1038.64 -0.163723 0.810632 0
M  V30 10860 H 1041.19 0.427586 1.64225 0
M  V30 10861 H 1039.96 0.660897 3.85678 0
M  V30 10862 H 1039.59 -1.05397 3.83376 0
M  V30 10863 N 1040.58 -1.57259 0.103575 0
M  V30 10864 C 1041.81 -1.99424 -0.569638 0
M  V30 10865 C 1042.23 -0.982475 -1.60403 0
M  V30 10866 O 1041.59 0.0479231 -1.81237 0
M  V30 10867 C 1041.64 -3.40527 -1.18633 0
M  V30 10868 O 1040.74 -3.42167 -2.30208 0
M  V30 10869 H 1040.08 -0.648251 -0.143759 0
M  V30 10870 H 1042.61 -2.03739 0.187493 0
M  V30 10871 H 1042.62 -3.78404 -1.5256 0
M  V30 10872 H 1041.3 -4.13686 -0.428582 0
M  V30 10873 H 1039.88 -3.16093 -1.97837 0
M  V30 10874 N 1042.06 0.170153 -1.56679 0
M  V30 10875 C 1043.47 0.732502 -1.7173 0
M  V30 10876 C 1043.82 1.82736 -0.71428 0
M  V30 10877 O 1042.95 2.16044 0.124102 0
M  V30 10878 C 1043.54 1.33548 -3.11368 0
M  V30 10879 C 1042.1 1.84464 -3.281 0
M  V30 10880 C 1041.25 0.724069 -2.6768 0
M  V30 10881 H 1044.2 -0.0552543 -1.58604 0
M  V30 10882 H 1044.22 2.20519 -3.10083 0
M  V30 10883 H 1043.73 0.5384 -3.84347 0
M  V30 10884 H 1041.83 2.66813 -2.6008 0
M  V30 10885 H 1041.95 1.98928 -4.35849 0
M  V30 10886 H 1040.31 1.14481 -2.27522 0
M  V30 10887 H 1041.09 -0.0611861 -3.43245 0
M  V30 10888 N 1043.54 1.5137 0.438746 0
M  V30 10889 C 1044.95 1.56462 1.01866 0
M  V30 10890 C 1045.3 0.387244 1.9234 0
M  V30 10891 O 1044.43 -0.496131 2.10636 0
M  V30 10892 C 1045.02 2.83557 1.85421 0
M  V30 10893 C 1043.58 2.91224 2.38464 0
M  V30 10894 C 1042.73 2.51109 1.17641 0
M  V30 10895 H 1045.68 1.57167 0.220072 0
M  V30 10896 H 1045.7 2.6724 2.70857 0
M  V30 10897 H 1045.21 3.69229 1.19546 0
M  V30 10898 H 1043.31 2.09979 3.07798 0
M  V30 10899 H 1043.42 3.94844 2.71358 0
M  V30 10900 H 1041.79 2.04276 1.5213 0
M  V30 10901 H 1042.57 3.39125 0.533785 0
M  V30 10902 N 1045.02 -0.694098 1.41492 0
M  V30 10903 C 1046.24 -1.48286 1.44288 0
M  V30 10904 C 1046.66 -1.88737 0.0485783 0
M  V30 10905 O 1046.02 -1.56881 -0.932449 0
M  V30 10906 C 1046.07 -2.74446 2.3529 0
M  V30 10907 O 1045.79 -2.35698 3.69294 0
M  V30 10908 C 1047.29 -3.68175 2.46905 0
M  V30 10909 H 1044.51 -0.45692 0.491391 0
M  V30 10910 H 1047.05 -0.854477 1.85793 0
M  V30 10911 H 1045.21 -3.33518 1.9709 0
M  V30 10912 H 1045.62 -3.17029 4.17843 0
M  V30 10913 H 1047.1 -4.53476 3.14743 0
M  V30 10914 H 1047.57 -4.12763 1.50078 0
M  V30 10915 H 1048.18 -3.15006 2.85747 0
M  V30 10916 N 1046.49 -1.27344 -0.928501 0
M  V30 10917 C 1047.91 -1.12361 -1.49103 0
M  V30 10918 C 1048.26 0.291667 -1.9402 0
M  V30 10919 O 1047.38 1.18449 -1.81104 0
M  V30 10920 C 1047.98 -2.03358 -2.70981 0
M  V30 10921 C 1046.54 -1.92483 -3.23461 0
M  V30 10922 C 1045.68 -1.95961 -1.962 0
M  V30 10923 H 1048.63 -1.40249 -0.742689 0
M  V30 10924 H 1048.65 -1.58892 -3.45736 0
M  V30 10925 H 1048.17 -3.06356 -2.38259 0
M  V30 10926 H 1046.27 -0.924676 -3.60944 0
M  V30 10927 H 1046.38 -2.78682 -3.89709 0
M  V30 10928 H 1044.74 -1.40175 -2.12657 0
M  V30 10929 H 1045.53 -3.00612 -1.65793 0
M  V30 10930 N 1047.97 1.13488 -1.09353 0
M  V30 10931 C 1048.94 2.17066 -0.735863 0
M  V30 10932 C 1049.94 1.59086 0.234181 0
M  V30 10933 O 1051.13 1.74196 0.012463 0
M  V30 10934 C 1048.26 3.40786 -0.0880975 0
M  V30 10935 H 1049.45 2.50221 -1.65316 0
M  V30 10936 H 1047 1.28304 -0.89263 0
M  V30 10937 H 1047.74 3.1322 0.840462 0
M  V30 10938 H 1047.52 3.8414 -0.786073 0
M  V30 10939 H 1049.01 4.17342 0.146775 0
M  V30 10940 N 1049.45 0.880621 1.30701 0
M  V30 10941 C 1050.86 0.547993 1.78477 0
M  V30 10942 C 1051.21 -0.935633 1.72454 0
M  V30 10943 O 1050.34 -1.73094 1.29874 0
M  V30 10944 C 1050.93 0.98795 3.24076 0
M  V30 10945 C 1049.49 0.706805 3.69704 0
M  V30 10946 C 1048.64 1.17335 2.51252 0
M  V30 10947 H 1051.59 1.06528 1.17633 0
M  V30 10948 H 1051.61 0.31508 3.79193 0
M  V30 10949 H 1051.12 2.06778 3.28427 0
M  V30 10950 H 1049.22 -0.36122 3.70845 0
M  V30 10951 H 1049.34 1.2913 4.6137 0
M  V30 10952 H 1047.7 0.592808 2.47705 0
M  V30 10953 H 1048.48 2.26083 2.58343 0
M  V30 10954 N 1050.93 -1.4397 0.641131 0
M  V30 10955 C 1051.86 -2.33458 -0.04446 0
M  V30 10956 C 1052.84 -1.48781 -0.824507 0
M  V30 10957 O 1054.03 -1.77477 -0.788397 0
M  V30 10958 C 1051.16 -3.31989 -1.01984 0
M  V30 10959 C 1050.11 -4.2656 -0.350745 0
M  V30 10960 C 1049.44 -5.15036 -1.43673 0
M  V30 10961 C 1050.74 -5.16897 0.749299 0
M  V30 10962 H 1052.43 -2.91034 0.702832 0
M  V30 10963 H 1049.98 -1.39942 0.339435 0
M  V30 10964 H 1051.93 -3.93483 -1.50828 0
M  V30 10965 H 1050.65 -2.72643 -1.79815 0
M  V30 10966 H 1049.31 -3.66413 0.117139 0
M  V30 10967 H 1048.96 -4.52037 -2.20617 0
M  V30 10968 H 1048.66 -5.79125 -0.994358 0
M  V30 10969 H 1050.18 -5.79403 -1.92678 0
M  V30 10970 H 1051.6 -5.7227 0.343534 0
M  V30 10971 H 1049.99 -5.89643 1.11541 0
M  V30 10972 H 1051.06 -4.5731 1.61232 0
M  V30 10973 N 1052.41 -0.382291 -1.52893 0
M  V30 10974 C 1053.34 0.447829 -2.29165 0
M  V30 10975 C 1054.32 1.06956 -1.32267 0
M  V30 10976 O 1055.5 1.08365 -1.61154 0
M  V30 10977 C 1052.63 1.57902 -3.09329 0
M  V30 10978 C 1051.59 1.08369 -4.14053 0
M  V30 10979 C 1050.91 2.30641 -4.82399 0
M  V30 10980 C 1052.21 0.156591 -5.22065 0
M  V30 10981 H 1053.91 -0.188541 -2.98806 0
M  V30 10982 H 1051.45 -0.0921179 -1.43705 0
M  V30 10983 H 1053.41 2.16652 -3.61442 0
M  V30 10984 H 1052.13 2.24287 -2.37409 0
M  V30 10985 H 1050.79 0.518772 -3.62911 0
M  V30 10986 H 1050.44 2.9552 -4.07034 0
M  V30 10987 H 1050.14 1.98163 -5.53177 0
M  V30 10988 H 1051.66 2.90047 -5.37313 0
M  V30 10989 H 1053.08 0.652065 -5.6958 0
M  V30 10990 H 1051.47 -0.0780978 -6.00049 0
M  V30 10991 H 1052.54 -0.796529 -4.78313 0
M  V30 10992 N 1053.89 1.57202 -0.111913 0
M  V30 10993 C 1054.82 2.17957 0.837683 0
M  V30 10994 C 1055.8 1.1176 1.28233 0
M  V30 10995 O 1056.98 1.39967 1.34621 0
M  V30 10996 C 1054.11 2.77333 2.09054 0
M  V30 10997 C 1053.07 3.8905 1.78393 0
M  V30 10998 C 1052.39 4.35203 3.10649 0
M  V30 10999 C 1053.69 5.11477 1.05775 0
M  V30 11000 H 1055.39 2.9756 0.331441 0
M  V30 11001 H 1052.93 1.43131 0.157979 0
M  V30 11002 H 1054.88 3.18492 2.75936 0
M  V30 11003 H 1053.61 1.95009 2.6199 0
M  V30 11004 H 1052.27 3.48456 1.13903 0
M  V30 11005 H 1051.92 3.49747 3.61506 0
M  V30 11006 H 1051.62 5.10534 2.9091 0
M  V30 11007 H 1053.14 4.79007 3.78661 0
M  V30 11008 H 1054.55 5.497 1.62798 0
M  V30 11009 H 1052.95 5.92346 0.961573 0
M  V30 11010 H 1054.02 4.84881 0.043297 0
M  V30 11011 N 1055.36 -0.161842 1.56767 0
M  V30 11012 C 1056.64 -0.904754 1.73417 0
M  V30 11013 C 1057.02 -1.99987 0.675908 0
M  V30 11014 O 1056.37 -2.26419 -0.307712 0
M  V30 11015 C 1056.58 -1.46082 3.16956 0
M  V30 11016 C 1057.93 -1.93004 3.78199 0
M  V30 11017 O 1058.95 -1.55856 3.20293 0
M  V30 11018 O 1057.81 -2.61465 4.79894 0
M  V30 11019 H 1054.9 -0.426518 0.708528 0
M  V30 11020 H 1057.45 -0.148928 1.69045 0
M  V30 11021 H 1056.22 -0.673087 3.85468 0
M  V30 11022 H 1055.84 -2.28056 3.25693 0
M  V30 11023 N 1056.84 -1.516 -0.430713 0
M  V30 11024 C 1057.77 -1.76342 -1.53054 0
M  V30 11025 C 1058.75 -0.61349 -1.58652 0
M  V30 11026 O 1059.94 -0.856888 -1.74273 0
M  V30 11027 C 1057.07 -1.8945 -2.91077 0
M  V30 11028 C 1056.02 -3.04928 -3.00339 0
M  V30 11029 C 1055.35 -3.03228 -4.40405 0
M  V30 11030 C 1056.65 -4.44777 -2.73808 0
M  V30 11031 H 1058.34 -2.68435 -1.326 0
M  V30 11032 H 1055.89 -1.29171 -0.636466 0
M  V30 11033 H 1057.84 -2.05343 -3.67984 0
M  V30 11034 H 1056.56 -0.940114 -3.12777 0
M  V30 11035 H 1055.22 -2.88751 -2.25872 0
M  V30 11036 H 1054.87 -2.05553 -4.59083 0
M  V30 11037 H 1054.57 -3.80776 -4.47531 0
M  V30 11038 H 1056.1 -3.21222 -5.19277 0
M  V30 11039 H 1057.51 -4.6127 -3.40445 0
M  V30 11040 H 1055.91 -5.2408 -2.92335 0
M  V30 11041 H 1056.98 -4.54358 -1.69372 0
M  V30 11042 N 1058.32 0.686584 -1.41858 0
M  V30 11043 C 1059.57 1.44379 -1.41418 0
M  V30 11044 C 1059.89 1.94981 -0.0273696 0
M  V30 11045 O 1059.16 1.72296 0.932248 0
M  V30 11046 H 1057.74 0.53574 -0.520568 0
M  V30 11047 H 1060.4 0.812056 -1.77177 0
M  V30 11048 H 1059.5 2.30258 -2.10684 0
M  V30 11049 N 1059.8 1.27835 0.921735 0
M  V30 11050 C 1061.05 1.13904 1.6646 0
M  V30 11051 C 1061.36 -0.313379 1.93073 0
M  V30 11052 O 1062.57 -0.573687 2.6537 0
M  V30 11053 C 1061.02 1.99064 2.99836 0
M  V30 11054 C 1060.63 3.48998 2.80899 0
M  V30 11055 C 1062.37 1.93797 3.77681 0
M  V30 11056 C 1060.28 4.26337 4.09867 0
M  V30 11057 H 1059.21 0.422681 0.624385 0
M  V30 11058 H 1061.86 1.52303 1.02352 0
M  V30 11059 H 1060.24 1.53514 3.65034 0
M  V30 11060 H 1061.42 4.02452 2.24431 0
M  V30 11061 H 1059.73 3.55707 2.16476 0
M  V30 11062 H 1062.33 2.48852 4.73262 0
M  V30 11063 H 1062.67 0.912928 4.06167 0
M  V30 11064 H 1063.21 2.37275 3.19289 0
M  V30 11065 H 1059.94 5.2939 3.86557 0
M  V30 11066 H 1059.46 3.77659 4.65976 0
M  V30 11067 H 1061.14 4.3583 4.78185 0
M  V30 11068 N 1061.28 -1.12907 1.09954 0
M  V30 11069 C 1062.69 -1.65847 0.857417 0
M  V30 11070 C 1063.04 -1.86372 -0.613176 0
M  V30 11071 O 1062.16 -1.58654 -1.47166 0
M  V30 11072 C 1062.76 -3.01269 1.54991 0
M  V30 11073 C 1061.32 -3.51179 1.35462 0
M  V30 11074 C 1060.46 -2.26307 1.60251 0
M  V30 11075 H 1063.41 -0.96755 1.25794 0
M  V30 11076 H 1063.44 -3.675 0.986091 0
M  V30 11077 H 1062.95 -2.86299 2.6202 0
M  V30 11078 H 1061.05 -3.71343 0.305742 0
M  V30 11079 H 1061.16 -4.30955 2.09318 0
M  V30 11080 H 1059.53 -2.33167 1.02494 0
M  V30 11081 H 1060.31 -2.13896 2.68521 0
M  V30 11082 N 1062.75 -0.88754 -1.30232 0
M  V30 11083 C 1064 -0.508031 -1.96334 0
M  V30 11084 C 1064.33 0.940905 -1.69884 0
M  V30 11085 O 1063.61 1.66523 -1.005 0
M  V30 11086 C 1063.89 -0.786566 -3.51405 0
M  V30 11087 C 1063.74 -2.28632 -3.8736 0
M  V30 11088 C 1065.06 -0.264803 -4.39303 0
M  V30 11089 H 1062.18 -0.186051 -0.71313 0
M  V30 11090 H 1064.82 -1.112 -1.5406 0
M  V30 11091 H 1062.97 -0.272523 -3.87543 0
M  V30 11092 H 1064.65 -2.86896 -3.61231 0
M  V30 11093 H 1062.89 -2.75194 -3.35337 0
M  V30 11094 H 1063.56 -2.43181 -4.95547 0
M  V30 11095 H 1066.04 -0.704809 -4.10087 0
M  V30 11096 H 1064.91 -0.488998 -5.46717 0
M  V30 11097 H 1065.17 0.834055 -4.34161 0
M  V30 11098 N 1064.23 1.43628 -0.648757 0
M  V30 11099 C 1065.48 2.01465 -0.16002 0
M  V30 11100 C 1065.8 1.51413 1.22878 0
M  V30 11101 O 1065.07 0.724919 1.81994 0
M  V30 11102 H 1063.65 0.744885 -0.0561672 0
M  V30 11103 H 1066.31 1.75897 -0.839422 0
M  V30 11104 H 1065.41 3.1178 -0.141213 0
M  V30 11105 N 1065.71 0.390394 1.52688 0
M  V30 11106 C 1066.64 -0.479319 2.24132 0
M  V30 11107 C 1067.66 -1.0258 1.26416 0
M  V30 11108 O 1068.84 -0.927943 1.52484 0
M  V30 11109 C 1065.94 -1.67711 2.94493 0
M  V30 11110 C 1065.12 -1.2578 4.18925 0
M  V30 11111 C 1064.18 -2.3204 4.72275 0
M  V30 11112 O 1063.2 -1.93402 5.35336 0
M  V30 11113 N 1064.4 -3.63967 4.52226 0
M  V30 11114 H 1067.17 0.132777 2.99406 0
M  V30 11115 H 1064.73 0.216807 1.60442 0
M  V30 11116 H 1066.72 -2.38323 3.27084 0
M  V30 11117 H 1065.29 -2.19552 2.22521 0
M  V30 11118 H 1064.51 -0.380528 3.92359 0
M  V30 11119 H 1065.8 -0.954329 4.9977 0
M  V30 11120 H 1065.2 -3.98119 4.01892 0
M  V30 11121 H 1063.76 -4.30611 4.89303 0
M  V30 11122 N 1067.19 -1.57141 0.120249 0
M  V30 11123 C 1068.6 -1.5784 -0.236335 0
M  V30 11124 C 1068.8 -1.13304 -1.66626 0
M  V30 11125 O 1067.86 -0.821004 -2.3878 0
M  V30 11126 C 1069.17 -3.007 -0.00188211 0
M  V30 11127 C 1070.72 -3.12927 -0.0676838 0
M  V30 11128 C 1071.2 -4.57789 0.139092 0
M  V30 11129 N 1072.69 -4.63122 0.085104 0
M  V30 11130 C 1073.42 -5.72978 0.219983 0
M  V30 11131 N 1072.92 -6.91579 0.411102 0
M  V30 11132 N 1074.71 -5.61874 0.159469 0
M  V30 11133 H 1066.86 -1.84391 1.05422 0
M  V30 11134 H 1069.13 -0.852228 0.415225 0
M  V30 11135 H 1068.83 -3.37575 0.986718 0
M  V30 11136 H 1068.71 -3.70005 -0.733203 0
M  V30 11137 H 1071.09 -2.75909 -1.04681 0
M  V30 11138 H 1071.17 -2.46162 0.695538 0
M  V30 11139 H 1070.82 -4.95506 1.1152 0
M  V30 11140 H 1070.75 -5.22646 -0.644131 0
M  V30 11141 H 1073.24 -3.77854 -0.0590479 0
M  V30 11142 H 1073.55 -7.71149 0.504851 0
M  V30 11143 H 1071.9 -6.9356 0.447091 0
M  V30 11144 H 1075.09 -4.68099 0.0111131 0
M  V30 11145 H 1075.26 -6.47445 0.268028 0
M  V30 11146 N 1068.67 0.153526 -1.5685 0
M  V30 11147 C 1069.89 0.886343 -1.87507 0
M  V30 11148 C 1070.32 1.74244 -0.708565 0
M  V30 11149 O 1069.67 1.78045 0.341997 0
M  V30 11150 C 1069.72 1.72428 -3.16703 0
M  V30 11151 O 1068.83 2.82784 -3.00178 0
M  V30 11152 H 1068.17 0.247259 -0.616246 0
M  V30 11153 H 1070.7 0.146306 -2.04076 0
M  V30 11154 H 1070.71 2.12062 -3.4856 0
M  V30 11155 H 1069.38 1.09558 -4.01211 0
M  V30 11156 H 1067.96 2.46604 -2.79716 0
M  V30 11157 N 1070.14 1.51827 0.422667 0
M  V30 11158 C 1071.11 1.7359 1.49663 0
M  V30 11159 C 1072.11 0.605811 1.48952 0
M  V30 11160 O 1073.3 0.87354 1.50715 0
M  V30 11161 C 1070.43 1.80585 2.8914 0
M  V30 11162 H 1071.62 2.69453 1.31664 0
M  V30 11163 H 1069.18 1.42038 0.652298 0
M  V30 11164 H 1069.91 0.865895 3.12526 0
M  V30 11165 H 1069.7 2.62729 2.9106 0
M  V30 11166 H 1071.19 1.99212 3.67021 0
M  V30 11167 N 1071.62 -0.679052 1.4222 0
M  V30 11168 C 1072.57 -1.79269 1.45366 0
M  V30 11169 C 1073.54 -1.63255 0.306089 0
M  V30 11170 O 1074.72 -1.8387 0.509548 0
M  V30 11171 C 1071.86 -3.17272 1.35766 0
M  V30 11172 C 1070.98 -3.44603 2.60525 0
M  V30 11173 C 1070.11 -4.7231 2.43098 0
M  V30 11174 C 1069.15 -4.92661 3.63251 0
M  V30 11175 N 1068.29 -6.11606 3.44794 0
M  V30 11176 H 1073.13 -1.75916 2.40536 0
M  V30 11177 H 1070.67 -0.858836 1.19425 0
M  V30 11178 H 1072.62 -3.97015 1.282 0
M  V30 11179 H 1071.25 -3.1976 0.441939 0
M  V30 11180 H 1070.31 -2.59144 2.78475 0
M  V30 11181 H 1071.62 -3.55536 3.49851 0
M  V30 11182 H 1070.77 -5.60136 2.33093 0
M  V30 11183 H 1069.51 -4.63652 1.51255 0
M  V30 11184 H 1068.52 -4.03278 3.73693 0
M  V30 11185 H 1069.74 -5.03167 4.5607 0
M  V30 11186 H 1067.69 -6.04129 2.55663 0
M  V30 11187 H 1067.6 -6.23381 4.27705 0
M  V30 11188 H 1068.87 -7.02122 3.38592 0
M  V30 11189 N 1073.1 -1.28322 -0.914942 0
M  V30 11190 C 1074.33 -1.1837 -1.70304 0
M  V30 11191 C 1074.75 0.254291 -1.86373 0
M  V30 11192 O 1074.11 1.18398 -1.37301 0
M  V30 11193 C 1074.16 -1.88603 -3.07346 0
M  V30 11194 O 1073.26 -1.19268 -3.94777 0
M  V30 11195 H 1072.6 -0.410978 -0.52153 0
M  V30 11196 H 1075.13 -1.69622 -1.14409 0
M  V30 11197 H 1075.14 -1.96463 -3.57584 0
M  V30 11198 H 1073.82 -2.93201 -2.94967 0
M  V30 11199 H 1072.39 -1.19563 -3.53212 0
M  V30 11200 N 1074.58 1.12322 -1.10551 0
M  V30 11201 C 1075.99 1.6539 -0.8662 0
M  V30 11202 C 1076.34 1.86695 0.603284 0
M  V30 11203 O 1075.47 1.59432 1.46323 0
M  V30 11204 C 1076.06 3.00443 -1.56587 0
M  V30 11205 C 1074.62 3.50456 -1.37323 0
M  V30 11206 C 1073.77 2.25454 -1.61449 0
M  V30 11207 H 1076.72 0.960866 -1.26305 0
M  V30 11208 H 1076.74 3.66972 -1.00557 0
M  V30 11209 H 1076.25 2.84905 -2.63535 0
M  V30 11210 H 1074.35 3.71176 -0.325431 0
M  V30 11211 H 1074.46 4.29839 -2.11601 0
M  V30 11212 H 1072.83 2.32621 -1.03729 0
M  V30 11213 H 1073.61 2.12469 -2.69651 0
M  V30 11214 N 1076.06 0.894434 1.2976 0
M  V30 11215 C 1077.47 0.589778 1.48303 0
M  V30 11216 C 1077.67 -0.870085 1.81746 0
M  V30 11217 O 1076.73 -1.65065 1.91076 0
M  V30 11218 C 1078.04 1.51107 2.59975 0
M  V30 11219 C 1079.59 1.51571 2.73853 0
M  V30 11220 C 1080.06 2.42316 3.88648 0
M  V30 11221 N 1081.56 2.40333 3.95973 0
M  V30 11222 C 1082.29 3.07254 4.84131 0
M  V30 11223 N 1081.79 3.83435 5.77018 0
M  V30 11224 N 1083.58 2.96438 4.77578 0
M  V30 11225 H 1075.73 1.83871 1.06327 0
M  V30 11226 H 1077.99 0.78758 0.527657 0
M  V30 11227 H 1077.7 2.55097 2.42112 0
M  V30 11228 H 1077.57 1.22767 3.56662 0
M  V30 11229 H 1079.96 0.483277 2.91116 0
M  V30 11230 H 1080.04 1.83946 1.77757 0
M  V30 11231 H 1079.69 3.4565 3.72141 0
M  V30 11232 H 1079.62 2.07252 4.84101 0
M  V30 11233 H 1082.11 1.84979 3.29532 0
M  V30 11234 H 1082.42 4.31565 6.4107 0
M  V30 11235 H 1080.76 3.87542 5.7692 0
M  V30 11236 H 1083.96 2.36442 4.03996 0
M  V30 11237 H 1084.13 3.48867 5.46073 0
M  V30 11238 N 1077.53 -1.43282 0.656365 0
M  V30 11239 C 1078.95 -1.56272 0.324213 0
M  V30 11240 C 1079.15 -1.63946 -1.1715 0
M  V30 11241 O 1078.21 -1.59625 -1.95643 0
M  V30 11242 C 1079.52 -2.82204 1.03833 0
M  V30 11243 C 1081.07 -2.95952 1.01889 0
M  V30 11244 C 1081.54 -4.2472 1.71397 0
M  V30 11245 N 1083.03 -4.31591 1.68176 0
M  V30 11246 C 1083.77 -5.30001 2.1883 0
M  V30 11247 N 1083.26 -6.34671 2.77785 0
M  V30 11248 N 1085.06 -5.21676 2.09311 0
M  V30 11249 H 1077.21 -1.36544 1.62694 0
M  V30 11250 H 1079.47 -0.655999 0.684375 0
M  V30 11251 H 1079.18 -2.82608 2.09346 0
M  V30 11252 H 1079.05 -3.72527 0.591878 0
M  V30 11253 H 1081.44 -2.95087 -0.0278431 0
M  V30 11254 H 1081.52 -2.0691 1.50406 0
M  V30 11255 H 1081.16 -4.26346 2.76028 0
M  V30 11256 H 1081.09 -5.12665 1.20342 0
M  V30 11257 H 1083.58 -3.56573 1.25157 0
M  V30 11258 H 1083.9 -7.06087 3.14104 0
M  V30 11259 H 1082.24 -6.35285 2.81847 0
M  V30 11260 H 1085.43 -4.3882 1.62955 0
M  V30 11261 H 1085.61 -5.9821 2.49095 0
M  V30 11262 N 1079.01 -0.398486 -1.52479 0
M  V30 11263 C 1079.92 0.439328 -2.3045 0
M  V30 11264 C 1080.94 1.06322 -1.37738 0
M  V30 11265 O 1082.12 1.06704 -1.7081 0
M  V30 11266 C 1079.18 1.54655 -3.10294 0
M  V30 11267 C 1078.24 0.946824 -4.18729 0
M  V30 11268 C 1077.47 2.00129 -4.94757 0
M  V30 11269 O 1077.7 3.2178 -4.70971 0
M  V30 11270 O 1076.63 1.61345 -5.79872 0
M  V30 11271 H 1080.46 -0.196118 -3.03066 0
M  V30 11272 H 1078.04 -0.161961 -1.4852 0
M  V30 11273 H 1079.92 2.18958 -3.60049 0
M  V30 11274 H 1078.6 2.1668 -2.40482 0
M  V30 11275 H 1077.51 0.266802 -3.73147 0
M  V30 11276 H 1078.84 0.370664 -4.90802 0
M  V30 11277 N 1080.49 1.57075 -0.12858 0
M  V30 11278 C 1081.4 2.19369 0.831533 0
M  V30 11279 C 1082.42 1.17258 1.28555 0
M  V30 11280 O 1083.59 1.49766 1.34656 0
M  V30 11281 C 1080.66 2.78846 2.06024 0
M  V30 11282 C 1079.72 3.96024 1.65722 0
M  V30 11283 C 1078.95 4.52655 2.82735 0
M  V30 11284 O 1079.18 4.08175 3.98434 0
M  V30 11285 O 1078.11 5.43198 2.59268 0
M  V30 11286 H 1081.94 3.01887 0.331352 0
M  V30 11287 H 1079.52 1.49081 0.0975226 0
M  V30 11288 H 1081.4 3.16721 2.77967 0
M  V30 11289 H 1080.08 1.99353 2.5503 0
M  V30 11290 H 1078.98 3.62899 0.908574 0
M  V30 11291 H 1080.32 4.76981 1.21449 0
M  V30 11292 N 1081.97 -0.145205 1.5693 0
M  V30 11293 C 1082.88 -1.19864 2.01667 0
M  V30 11294 C 1083.9 -1.46909 0.932402 0
M  V30 11295 O 1085.07 -1.58543 1.24201 0
M  V30 11296 C 1082.14 -2.51174 2.38982 0
M  V30 11297 C 1081.2 -2.3176 3.61366 0
M  V30 11298 C 1080.43 -3.56809 3.96892 0
M  V30 11299 O 1080.65 -4.63063 3.33059 0
M  V30 11300 O 1079.59 -3.49366 4.9013 0
M  V30 11301 H 1083.41 -0.848821 2.91597 0
M  V30 11302 H 1081 -0.354063 1.45144 0
M  V30 11303 H 1082.88 -3.28587 2.63835 0
M  V30 11304 H 1081.56 -2.85683 1.52207 0
M  V30 11305 H 1080.46 -1.52293 3.41698 0
M  V30 11306 H 1081.8 -2.02167 4.48764 0
M  V30 11307 N 1083.45 -1.52049 -0.414609 0
M  V30 11308 C 1084.86 -1.58062 -0.993638 0
M  V30 11309 C 1085.21 -0.417795 -1.917 0
M  V30 11310 O 1084.33 0.462558 -2.11399 0
M  V30 11311 C 1084.93 -2.86471 -1.80886 0
M  V30 11312 C 1083.49 -2.94981 -2.33801 0
M  V30 11313 C 1082.64 -2.52949 -1.13631 0
M  V30 11314 H 1085.59 -1.57497 -0.19504 0
M  V30 11315 H 1085.61 -2.71515 -2.66571 0
M  V30 11316 H 1085.12 -3.71085 -1.13657 0
M  V30 11317 H 1083.22 -2.14849 -3.04419 0
M  V30 11318 H 1083.33 -3.99111 -2.65042 0
M  V30 11319 H 1081.7 -2.0667 -1.48861 0
M  V30 11320 H 1082.48 -3.39931 -0.479765 0
M  V30 11321 N 1084.93 0.6715 -1.42579 0
M  V30 11322 C 1086.34 0.985019 -1.25577 0
M  V30 11323 C 1086.54 2.00845 -0.162319 0
M  V30 11324 O 1085.6 2.48175 0.465352 0
M  V30 11325 C 1086.91 1.48668 -2.61377 0
M  V30 11326 C 1088.46 1.60429 -2.68759 0
M  V30 11327 C 1088.93 2.13991 -4.04935 0
M  V30 11328 N 1090.42 2.21319 -4.06906 0
M  V30 11329 C 1091.16 2.63845 -5.09091 0
M  V30 11330 N 1090.66 3.05799 -6.21658 0
M  V30 11331 N 1092.45 2.63623 -4.96447 0
M  V30 11332 H 1084.6 -0.00604561 -2.12399 0
M  V30 11333 H 1086.86 0.0598299 -0.94611 0
M  V30 11334 H 1086.57 0.80917 -3.42265 0
M  V30 11335 H 1086.44 2.46487 -2.85524 0
M  V30 11336 H 1088.83 2.27286 -1.88216 0
M  V30 11337 H 1088.91 0.610909 -2.48398 0
M  V30 11338 H 1088.55 1.47741 -4.85937 0
M  V30 11339 H 1088.48 3.14126 -4.2265 0
M  V30 11340 H 1090.98 1.91743 -3.25643 0
M  V30 11341 H 1091.29 3.36944 -6.95477 0
M  V30 11342 H 1089.63 3.03648 -6.25158 0
M  V30 11343 H 1092.82 2.30211 -4.07579 0
M  V30 11344 H 1093 2.96444 -5.76216 0
M  V30 11345 N 1086.4 1.28806 0.908124 0
M  V30 11346 C 1087.65 1.16058 1.65454 0
M  V30 11347 C 1087.97 -0.290057 1.92831 0
M  V30 11348 O 1087.24 -1.20001 1.54843 0
M  V30 11349 H 1085.82 0.426522 0.61326 0
M  V30 11350 H 1088.48 1.61614 1.08936 0
M  V30 11351 H 1087.58 1.70437 2.61453 0
M  V30 11352 N 1087.88 -1.11734 1.11145 0
M  V30 11353 C 1089.13 -1.83043 0.856717 0
M  V30 11354 C 1089.45 -1.84901 -0.619407 0
M  V30 11355 O 1088.72 -1.31738 -1.44989 0
M  V30 11356 H 1087.3 -0.677823 0.31395 0
M  V30 11357 H 1089.96 -1.35262 1.40322 0
M  V30 11358 H 1089.06 -2.87005 1.22616 0
M  V30 11359 N 1089.36 -0.901303 -1.29284 0
M  V30 11360 C 1090.59 -0.543511 -1.99634 0
M  V30 11361 C 1091 0.872154 -1.67448 0
M  V30 11362 O 1090.36 1.57591 -0.920406 0
M  V30 11363 C 1090.41 -0.728148 -3.54091 0
M  V30 11364 O 1090.13 -2.08809 -3.85137 0
M  V30 11365 C 1091.63 -0.375519 -4.41707 0
M  V30 11366 H 1088.85 -0.208405 -0.637815 0
M  V30 11367 H 1091.4 -1.21109 -1.64781 0
M  V30 11368 H 1089.55 -0.107728 -3.8725 0
M  V30 11369 H 1089.97 -2.11863 -4.79807 0
M  V30 11370 H 1091.44 -0.555538 -5.49197 0
M  V30 11371 H 1091.92 0.687532 -4.33785 0
M  V30 11372 H 1092.52 -0.972949 -4.14021 0
M  V30 11373 N 1090.84 1.42931 -0.663954 0
M  V30 11374 C 1092.08 2.01982 -0.182007 0
M  V30 11375 C 1092.42 1.52323 1.20463 0
M  V30 11376 O 1091.69 0.720834 1.80649 0
M  V30 11377 C 1091.97 3.59518 -0.204671 0
M  V30 11378 C 1091.83 4.19382 -1.62599 0
M  V30 11379 C 1093.15 4.37762 0.45308 0
M  V30 11380 H 1090.27 0.733892 -0.0676115 0
M  V30 11381 H 1092.91 1.70092 -0.84668 0
M  V30 11382 H 1091.06 3.86816 0.361295 0
M  V30 11383 H 1092.73 4.03076 -2.24337 0
M  V30 11384 H 1090.97 3.75623 -2.17001 0
M  V30 11385 H 1091.64 5.28496 -1.59362 0
M  V30 11386 H 1094.12 4.1609 -0.0285774 0
M  V30 11387 H 1093 5.47392 0.406538 0
M  V30 11388 H 1093.26 4.1482 1.52895 0
M  V30 11389 N 1092.32 0.406567 1.52266 0
M  V30 11390 C 1093.54 -0.172101 2.06685 0
M  V30 11391 C 1093.97 -1.38306 1.27488 0
M  V30 11392 O 1093.32 -1.78726 0.304441 0
M  V30 11393 C 1093.37 -0.503463 3.57068 0
M  V30 11394 O 1092.48 -1.59485 3.80314 0
M  V30 11395 H 1091.82 -0.0153209 0.663823 0
M  V30 11396 H 1094.35 0.579025 1.96236 0
M  V30 11397 H 1094.36 -0.762833 4.00805 0
M  V30 11398 H 1093.03 0.381775 4.14144 0
M  V30 11399 H 1091.61 -1.32784 3.48458 0
M  V30 11400 N 1093.79 -1.57004 0.136909 0
M  V30 11401 C 1095.21 -1.82675 -0.385577 0
M  V30 11402 C 1095.56 -1.05508 -1.65416 0
M  V30 11403 O 1094.68 -0.297207 -2.14349 0
M  V30 11404 C 1095.28 -3.31356 -0.706326 0
M  V30 11405 C 1093.84 -3.57644 -1.17337 0
M  V30 11406 C 1092.98 -2.7664 -0.191239 0
M  V30 11407 H 1095.93 -1.54522 0.36177 0
M  V30 11408 H 1095.95 -3.4696 -1.56201 0
M  V30 11409 H 1095.47 -3.87492 0.217147 0
M  V30 11410 H 1093.57 -3.06883 -2.11313 0
M  V30 11411 H 1093.68 -4.66152 -1.10632 0
M  V30 11412 H 1092.04 -2.45403 -0.681867 0
M  V30 11413 H 1092.83 -3.35543 0.725647 0
M  V30 11414 N 1095.27 0.136881 -1.57004 0
M  V30 11415 C 1096.68 0.695911 -1.73245 0
M  V30 11416 C 1097.03 1.8118 -0.75288 0
M  V30 11417 O 1096.16 2.16258 0.0782477 0
M  V30 11418 C 1096.75 1.26914 -3.14131 0
M  V30 11419 C 1095.31 1.77463 -3.31939 0
M  V30 11420 C 1094.46 0.667128 -2.69156 0
M  V30 11421 H 1097.41 -0.0888841 -1.58451 0
M  V30 11422 H 1097.43 2.13892 -3.14691 0
M  V30 11423 H 1096.94 0.456754 -3.85403 0
M  V30 11424 H 1095.05 2.61236 -2.65681 0
M  V30 11425 H 1095.16 1.89638 -4.39971 0
M  V30 11426 H 1093.52 1.09629 -2.29899 0
M  V30 11427 H 1094.31 -0.13398 -3.43038 0
M  V30 11428 N 1096.75 1.52266 0.40654 0
M  V30 11429 C 1098.16 1.58587 0.985241 0
M  V30 11430 C 1098.51 0.427955 1.91476 0
M  V30 11431 O 1097.64 -0.451341 2.11641 0
M  V30 11432 C 1098.23 2.87426 1.79365 0
M  V30 11433 C 1096.79 2.96217 2.32233 0
M  V30 11434 C 1095.94 2.53548 1.12288 0
M  V30 11435 H 1098.89 1.57598 0.186685 0
M  V30 11436 H 1098.91 2.72925 2.65127 0
M  V30 11437 H 1098.42 3.71682 1.11687 0
M  V30 11438 H 1096.52 2.1646 3.03275 0
M  V30 11439 H 1096.64 4.00511 2.62922 0
M  V30 11440 H 1095 2.07457 1.47763 0
M  V30 11441 H 1095.78 3.40181 0.461731 0
M  V30 11442 N 1098.23 -0.663929 1.42933 0
M  V30 11443 C 1099.48 -1.42111 1.43697 0
M  V30 11444 C 1099.8 -1.94913 0.0583858 0
M  V30 11445 O 1099.07 -1.73757 -0.904719 0
M  V30 11446 H 1097.65 -0.527391 0.529026 0
M  V30 11447 H 1100.31 -0.783766 1.78446 0
M  V30 11448 H 1099.41 -2.26877 2.1432 0
M  V30 11449 N 1099.71 -1.29285 -0.901281 0
M  V30 11450 C 1100.93 -1.20048 -1.68511 0
M  V30 11451 C 1101.35 0.239128 -1.8728 0
M  V30 11452 O 1100.71 1.16027 -1.40869 0
M  V30 11453 C 1100.76 -1.90798 -3.07048 0
M  V30 11454 O 1100.48 -3.29137 -2.89138 0
M  V30 11455 C 1101.98 -1.88017 -4.01453 0
M  V30 11456 H 1099.2 -0.416157 -0.52636 0
M  V30 11457 H 1101.74 -1.7063 -1.12719 0
M  V30 11458 H 1099.9 -1.44055 -3.5962 0
M  V30 11459 H 1100.31 -3.64747 -3.76908 0
M  V30 11460 H 1101.79 -2.42088 -4.96082 0
M  V30 11461 H 1102.26 -0.855341 -4.30791 0
M  V30 11462 H 1102.87 -2.34497 -3.54812 0
M  V30 11463 N 1101.18 1.11143 -1.11736 0
M  V30 11464 C 1102.41 1.87285 -0.891007 0
M  V30 11465 C 1102.83 1.79758 0.553971 0
M  V30 11466 O 1102.19 1.16221 1.39149 0
M  V30 11467 C 1102.24 3.33924 -1.36114 0
M  V30 11468 O 1101.34 4.08917 -0.534851 0
M  V30 11469 H 1100.69 0.581418 -0.320701 0
M  V30 11470 H 1103.22 1.40469 -1.4876 0
M  V30 11471 H 1103.23 3.84772 -1.35701 0
M  V30 11472 H 1101.9 3.38719 -2.41334 0
M  V30 11473 H 1100.48 3.67954 -0.605355 0
M  V30 11474 N 1102.66 0.908147 1.28804 0
M  V30 11475 C 1104.08 0.605474 1.47669 0
M  V30 11476 C 1104.28 -0.850759 1.82659 0
M  V30 11477 O 1103.33 -1.63029 1.92816 0
M  V30 11478 C 1104.65 1.53856 2.58358 0
M  V30 11479 C 1106.2 1.54467 2.7223 0
M  V30 11480 C 1106.67 2.46424 3.86056 0
M  V30 11481 N 1108.16 2.44519 3.93402 0
M  V30 11482 C 1108.9 3.12371 4.80845 0
M  V30 11483 N 1108.39 3.89533 5.72919 0
M  V30 11484 N 1110.19 3.01486 4.74407 0
M  V30 11485 H 1102.34 1.84988 1.04371 0
M  V30 11486 H 1104.6 0.793132 0.519274 0
M  V30 11487 H 1104.31 2.57651 2.39393 0
M  V30 11488 H 1104.18 1.26543 3.5534 0
M  V30 11489 H 1106.57 0.514127 2.90587 0
M  V30 11490 H 1106.65 1.85821 1.75796 0
M  V30 11491 H 1106.29 3.49577 3.68454 0
M  V30 11492 H 1106.22 2.12375 4.81876 0
M  V30 11493 H 1108.71 1.88464 3.27551 0
M  V30 11494 H 1109.03 4.3834 6.36457 0
M  V30 11495 H 1107.37 3.93639 5.72777 0
M  V30 11496 H 1110.56 2.40713 4.01466 0
M  V30 11497 H 1110.73 3.5464 5.42342 0
M  V30 11498 N 1104.14 -1.42577 0.671525 0
M  V30 11499 C 1105.37 -2.06442 0.199152 0
M  V30 11500 C 1105.79 -1.50104 -1.1336 0
M  V30 11501 O 1105.15 -0.618211 -1.70434 0
M  V30 11502 C 1105.2 -3.60323 0.141215 0
M  V30 11503 O 1104.3 -4.02655 -0.891238 0
M  V30 11504 H 1103.64 -0.655919 0.103277 0
M  V30 11505 H 1106.17 -1.82768 0.919614 0
M  V30 11506 H 1106.18 -4.07984 -0.0360209 0
M  V30 11507 H 1104.86 -4.00702 1.11403 0
M  V30 11508 H 1103.43 -3.66549 -0.685309 0
M  V30 11509 N 1105.62 -0.414636 -1.52048 0
M  V30 11510 C 1106.58 0.396285 -2.25748 0
M  V30 11511 C 1107.58 0.969003 -1.28324 0
M  V30 11512 O 1108.77 0.847016 -1.52221 0
M  V30 11513 C 1105.9 1.55838 -3.03195 0
M  V30 11514 H 1107.1 -0.249311 -2.98862 0
M  V30 11515 H 1104.65 -0.167276 -1.55402 0
M  V30 11516 H 1105.38 2.24068 -2.34444 0
M  V30 11517 H 1105.17 1.15414 -3.74729 0
M  V30 11518 H 1106.66 2.13187 -3.59084 0
M  V30 11519 N 1107.1 1.56929 -0.145233 0
M  V30 11520 C 1108.51 1.82877 0.375884 0
M  V30 11521 C 1108.86 1.06384 1.64854 0
M  V30 11522 O 1107.98 0.30857 2.14189 0
M  V30 11523 C 1108.58 3.31725 0.688744 0
M  V30 11524 C 1107.14 3.58261 1.15439 0
M  V30 11525 C 1106.28 2.76737 0.176565 0
M  V30 11526 H 1109.24 1.54328 -0.36996 0
M  V30 11527 H 1109.26 3.47784 1.54359 0
M  V30 11528 H 1108.77 3.87371 -0.237694 0
M  V30 11529 H 1106.87 3.08 2.09683 0
M  V30 11530 H 1106.98 4.66732 1.08158 0
M  V30 11531 H 1105.35 2.45761 0.668843 0
M  V30 11532 H 1106.13 3.35154 -0.743432 0
M  V30 11533 N 1108.58 -0.128553 1.57075 0
M  V30 11534 C 1109.82 -0.836355 1.83982 0
M  V30 11535 C 1110.14 -1.80862 0.728971 0
M  V30 11536 O 1109.41 -1.94326 -0.247859 0
M  V30 11537 H 1107.99 -0.31185 0.678792 0
M  V30 11538 H 1110.66 -0.118153 1.94542 0
M  V30 11539 H 1109.75 -1.38741 2.79567 0
M  V30 11540 N 1110.05 -1.5248 -0.398459 0
M  V30 11541 C 1111.28 -1.70925 -1.16586 0
M  V30 11542 C 1111.7 -0.42342 -1.83991 0
M  V30 11543 O 1111.05 0.601395 -1.72306 0
M  V30 11544 C 1111.1 -2.85226 -2.22099 0
M  V30 11545 O 1110.83 -4.08831 -1.57444 0
M  V30 11546 C 1112.33 -3.15272 -3.11639 0
M  V30 11547 H 1109.55 -0.572533 -0.349924 0
M  V30 11548 H 1112.09 -1.99087 -0.467416 0
M  V30 11549 H 1110.25 -2.59553 -2.87595 0
M  V30 11550 H 1110.66 -4.72603 -2.2748 0
M  V30 11551 H 1112.13 -3.98737 -3.81724 0
M  V30 11552 H 1112.61 -2.29262 -3.74614 0
M  V30 11553 H 1113.22 -3.42749 -2.518 0
M  V30 11554 N 1111.53 0.65634 -1.43283 0
M  V30 11555 C 1112.94 1.23744 -1.39801 0
M  V30 11556 C 1113.29 1.95942 -0.100507 0
M  V30 11557 O 1112.42 2.01063 0.800161 0
M  V30 11558 C 1113.01 2.25062 -2.53244 0
M  V30 11559 C 1111.57 2.78657 -2.53036 0
M  V30 11560 C 1110.72 1.53251 -2.31105 0
M  V30 11561 H 1113.67 0.448553 -1.52229 0
M  V30 11562 H 1113.69 3.07174 -2.24553 0
M  V30 11563 H 1113.2 1.72487 -3.47664 0
M  V30 11564 H 1111.3 3.35304 -1.62487 0
M  V30 11565 H 1111.42 3.26414 -3.507 0
M  V30 11566 H 1109.78 1.80487 -1.79713 0
M  V30 11567 H 1110.56 1.02615 -3.27605 0
M  V30 11568 N 1113.01 1.29761 0.894412 0
M  V30 11569 C 1114.26 1.17806 1.64214 0
M  V30 11570 C 1114.58 -0.269588 1.93127 0
M  V30 11571 O 1113.85 -1.18352 1.56107 0
M  V30 11572 H 1112.43 0.433002 0.608702 0
M  V30 11573 H 1115.09 1.6276 1.07216 0
M  V30 11574 H 1114.19 1.73201 2.5963 0
M  V30 11575 N 1114.49 -1.10549 1.12324 0
M  V30 11576 C 1115.72 -1.8627 0.900618 0
M  V30 11577 C 1116.13 -1.80609 -0.550069 0
M  V30 11578 O 1115.49 -1.19396 -1.38025 0
M  V30 11579 C 1115.54 -3.34716 1.36556 0
M  V30 11580 O 1115.26 -3.40279 2.75938 0
M  V30 11581 C 1116.76 -4.27315 1.17969 0
M  V30 11582 H 1113.98 -0.588741 0.321908 0
M  V30 11583 H 1116.52 -1.39759 1.49291 0
M  V30 11584 H 1114.68 -3.78697 0.81652 0
M  V30 11585 H 1115.09 -4.32781 2.96312 0
M  V30 11586 H 1116.57 -5.29677 1.55391 0
M  V30 11587 H 1117.04 -4.39036 0.120158 0
M  V30 11588 H 1117.65 -3.89137 1.71617 0
M  V30 11589 N 1115.97 -0.914965 -1.28321 0
M  V30 11590 C 1117.38 -0.59512 -1.76961 0
M  V30 11591 C 1117.73 0.88958 -1.74874 0
M  V30 11592 O 1116.85 1.6959 -1.34418 0
M  V30 11593 C 1117.45 -1.07353 -3.21342 0
M  V30 11594 C 1116.01 -0.804577 -3.677 0
M  V30 11595 C 1115.15 -1.23955 -2.48053 0
M  V30 11596 H 1118.1 -1.0961 -1.14767 0
M  V30 11597 H 1118.13 -0.415506 -3.78225 0
M  V30 11598 H 1117.64 -2.15413 -3.22829 0
M  V30 11599 H 1115.74 0.26277 -3.71672 0
M  V30 11600 H 1115.85 -1.41317 -4.57784 0
M  V30 11601 H 1114.22 -0.658274 -2.46046 0
M  V30 11602 H 1115 -2.32853 -2.52258 0
M  V30 11603 N 1117.44 1.42219 -0.679077 0
M  V30 11604 C 1118.86 1.55737 -0.349034 0
M  V30 11605 C 1119.06 1.65789 1.14527 0
M  V30 11606 O 1118.12 1.62717 1.93079 0
M  V30 11607 C 1119.43 2.80516 -1.0831 0
M  V30 11608 C 1120.98 2.94294 -1.06584 0
M  V30 11609 C 1121.45 4.2194 -1.78132 0
M  V30 11610 N 1122.94 4.28861 -1.75021 0
M  V30 11611 C 1123.68 5.26453 -2.27234 0
M  V30 11612 N 1123.17 6.30171 -2.87847 0
M  V30 11613 N 1124.97 5.1828 -2.17584 0
M  V30 11614 H 1117.12 1.33939 -1.64846 0
M  V30 11615 H 1119.38 0.645029 -0.694725 0
M  V30 11616 H 1119.09 2.79241 -2.13816 0
M  V30 11617 H 1118.96 3.71539 -0.651069 0
M  V30 11618 H 1121.35 2.95094 -0.0191061 0
M  V30 11619 H 1121.43 2.04491 -1.53679 0
M  V30 11620 H 1121.07 4.21901 -2.82776 0
M  V30 11621 H 1121 5.10685 -1.28483 0
M  V30 11622 H 1123.49 3.54537 -1.30814 0
M  V30 11623 H 1123.81 7.01 -3.25298 0
M  V30 11624 H 1122.15 6.30721 -2.91918 0
M  V30 11625 H 1125.34 4.36172 -1.69916 0
M  V30 11626 H 1125.52 5.94172 -2.58581 0
M  V30 11627 N 1118.92 0.422693 1.51826 0
M  V30 11628 C 1120.15 -0.15017 2.06856 0
M  V30 11629 C 1120.57 -1.36946 1.28948 0
M  V30 11630 O 1119.93 -1.78393 0.32338 0
M  V30 11631 C 1119.98 -0.465563 3.57582 0
M  V30 11632 O 1119.08 -1.55442 3.81984 0
M  V30 11633 H 1118.42 -0.00827931 0.663948 0
M  V30 11634 H 1120.95 0.599806 1.95611 0
M  V30 11635 H 1120.96 -0.720279 4.01592 0
M  V30 11636 H 1119.64 0.425679 4.13716 0
M  V30 11637 H 1118.21 -1.29081 3.49846 0
M  V30 11638 N 1120.4 -1.5685 0.153553 0
M  V30 11639 C 1121.81 -1.83074 -0.36618 0
M  V30 11640 C 1122.16 -1.07257 -1.64288 0
M  V30 11641 O 1121.29 -0.319925 -2.14022 0
M  V30 11642 C 1121.88 -3.32086 -0.671142 0
M  V30 11643 C 1120.44 -3.58868 -1.13537 0
M  V30 11644 C 1119.59 -2.76827 -0.161887 0
M  V30 11645 H 1122.54 -1.54129 0.378139 0
M  V30 11646 H 1122.56 -3.48598 -1.52512 0
M  V30 11647 H 1122.07 -3.8724 0.258234 0
M  V30 11648 H 1120.17 -3.09107 -2.08047 0
M  V30 11649 H 1120.29 -4.67299 -1.05682 0
M  V30 11650 H 1118.65 -2.46112 -0.6558 0
M  V30 11651 H 1119.43 -3.34755 0.761195 0
M  V30 11652 N 1121.88 0.120221 -1.57141 0
M  V30 11653 C 1123.29 0.677497 -1.73974 0
M  V30 11654 C 1123.64 1.80371 -0.772055 0
M  V30 11655 O 1122.76 2.16329 0.0553062 0
M  V30 11656 C 1123.36 1.23575 -3.1546 0
M  V30 11657 C 1121.92 1.73933 -3.33803 0
M  V30 11658 C 1121.07 0.638542 -2.69848 0
M  V30 11659 H 1124.02 -0.105685 -1.58348 0
M  V30 11660 H 1124.04 2.10542 -3.16942 0
M  V30 11661 H 1123.55 0.415851 -3.85866 0
M  V30 11662 H 1121.65 2.58404 -2.68437 0
M  V30 11663 H 1121.76 1.84961 -4.41957 0
M  V30 11664 H 1120.13 1.07185 -2.31049 0
M  V30 11665 H 1120.91 -0.170356 -3.42877 0
M  V30 11666 N 1123.36 1.52689 0.390367 0
M  V30 11667 C 1124.29 1.80338 1.48325 0
M  V30 11668 C 1125.27 0.655338 1.56969 0
M  V30 11669 O 1126.45 0.902792 1.7194 0
M  V30 11670 C 1123.58 1.97101 2.85952 0
M  V30 11671 C 1122.54 3.12783 2.92148 0
M  V30 11672 C 1121.86 3.14798 4.32211 0
M  V30 11673 C 1123.16 4.5188 2.61919 0
M  V30 11674 H 1124.86 2.71857 1.25437 0
M  V30 11675 H 1122.4 1.30813 0.601995 0
M  V30 11676 H 1124.36 2.15027 3.62411 0
M  V30 11677 H 1123.08 1.02271 3.10174 0
M  V30 11678 H 1121.74 2.94638 2.18137 0
M  V30 11679 H 1121.39 2.17653 4.53471 0
M  V30 11680 H 1121.09 3.92507 4.37278 0
M  V30 11681 H 1122.61 3.34877 5.10578 0
M  V30 11682 H 1124.02 4.70134 3.28096 0
M  V30 11683 H 1122.42 5.31647 2.78337 0
M  V30 11684 H 1123.49 4.58689 1.57266 0
M  V30 11685 N 1124.83 -0.648732 1.43629 0
M  V30 11686 C 1126.08 -1.40579 1.45196 0
M  V30 11687 C 1126.4 -1.9484 0.0790556 0
M  V30 11688 O 1125.67 -1.74707 -0.886239 0
M  V30 11689 H 1124.25 -0.52175 0.53459 0
M  V30 11690 H 1126.92 -0.764796 1.79268 0
M  V30 11691 H 1126.01 -2.24591 2.16715 0
M  V30 11692 N 1126.31 -1.30234 -0.887518 0
M  V30 11693 C 1127.24 -1.18969 -2.00919 0
M  V30 11694 C 1128.22 -0.080952 -1.69907 0
M  V30 11695 O 1129.41 -0.262546 -1.92417 0
M  V30 11696 C 1126.54 -0.878094 -3.36016 0
M  V30 11697 C 1125.49 -1.94449 -3.81279 0
M  V30 11698 C 1124.82 -1.48594 -5.13638 0
M  V30 11699 C 1126.12 -3.35519 -4.00281 0
M  V30 11700 H 1127.81 -2.12808 -2.10602 0
M  V30 11701 H 1125.36 -1.02454 -1.01189 0
M  V30 11702 H 1127.31 -0.785954 -4.14006 0
M  V30 11703 H 1126.04 0.0959779 -3.26459 0
M  V30 11704 H 1124.69 -2.02622 -3.05516 0
M  V30 11705 H 1124.34 -0.500204 -5.00507 0
M  V30 11706 H 1124.04 -2.19921 -5.44893 0
M  V30 11707 H 1125.57 -1.40754 -5.94156 0
M  V30 11708 H 1126.98 -3.30119 -4.68716 0
M  V30 11709 H 1125.38 -4.0491 -4.42909 0
M  V30 11710 H 1126.45 -3.77597 -3.04218 0
M  V30 11711 N 1127.79 1.09952 -1.12909 0
M  V30 11712 C 1129.04 1.81386 -0.882163 0
M  V30 11713 C 1129.35 1.86376 0.593592 0
M  V30 11714 O 1130.56 2.54064 0.957275 0
M  V30 11715 C 1129.01 3.25824 -1.52861 0
M  V30 11716 C 1128.62 3.29117 -3.0395 0
M  V30 11717 C 1130.37 4.02051 -1.36216 0
M  V30 11718 C 1128.27 4.68047 -3.61505 0
M  V30 11719 H 1127.2 0.679701 -0.326378 0
M  V30 11720 H 1129.85 1.23614 -1.35616 0
M  V30 11721 H 1128.24 3.83624 -0.982271 0
M  V30 11722 H 1129.41 2.81114 -3.65119 0
M  V30 11723 H 1127.73 2.66379 -3.20049 0
M  V30 11724 H 1130.32 5.04683 -1.76633 0
M  V30 11725 H 1130.67 4.15171 -0.306391 0
M  V30 11726 H 1131.2 3.5068 -1.87799 0
M  V30 11727 H 1127.94 4.60128 -4.66865 0
M  V30 11728 H 1127.46 5.16397 -3.05114 0
M  V30 11729 H 1129.14 5.37018 -3.6086 0
M  V30 11730 N 1129.27 0.921757 1.27833 0
M  V30 11731 C 1130.49 0.574599 1.99281 0
M  V30 11732 C 1130.92 -0.838905 1.68357 0
M  V30 11733 O 1130.28 -1.56196 0.920468 0
M  V30 11734 C 1130.32 0.800027 3.51613 0
M  V30 11735 O 1129.43 -0.137215 4.12172 0
M  V30 11736 H 1128.77 0.221887 0.625829 0
M  V30 11737 H 1131.3 1.23939 1.62789 0
M  V30 11738 H 1131.31 0.71326 4.01717 0
M  V30 11739 H 1129.98 1.83042 3.73455 0
M  V30 11740 H 1128.56 -0.00103872 3.729 0
M  V30 11741 N 1130.75 -1.41857 0.686609 0
M  V30 11742 C 1132.16 -1.55549 0.357288 0
M  V30 11743 C 1132.36 -1.66394 -1.13646 0
M  V30 11744 O 1131.42 -1.63739 -1.92213 0
M  V30 11745 C 1132.73 -2.79938 1.09796 0
M  V30 11746 C 1134.28 -2.93724 1.08143 0
M  V30 11747 C 1134.75 -4.20989 1.80367 0
M  V30 11748 N 1136.25 -4.27927 1.77293 0
M  V30 11749 C 1136.98 -5.2524 2.30022 0
M  V30 11750 N 1136.48 -6.28636 2.91185 0
M  V30 11751 N 1138.27 -5.17118 2.20329 0
M  V30 11752 H 1130.42 -1.33063 1.65554 0
M  V30 11753 H 1132.68 -0.641335 0.698135 0
M  V30 11754 H 1132.39 -2.78104 2.15293 0
M  V30 11755 H 1132.26 -3.71188 0.670763 0
M  V30 11756 H 1134.65 -2.9508 0.0347554 0
M  V30 11757 H 1134.73 -2.03673 1.54761 0
M  V30 11758 H 1134.38 -4.20395 2.85009 0
M  V30 11759 H 1134.31 -5.09997 1.3119 0
M  V30 11760 H 1136.8 -3.53838 1.32692 0
M  V30 11761 H 1137.11 -6.99265 3.29011 0
M  V30 11762 H 1135.45 -6.29164 2.95259 0
M  V30 11763 H 1138.65 -4.35265 1.72226 0
M  V30 11764 H 1138.82 -5.92792 2.61728 0
M  V30 11765 N 1132.22 -0.430739 -1.51599 0
M  V30 11766 C 1133.64 0.0339139 -1.86669 0
M  V30 11767 C 1133.99 1.42533 -1.34829 0
M  V30 11768 O 1133.11 2.04889 -0.696376 0
M  V30 11769 C 1133.71 0.0683174 -3.38731 0
M  V30 11770 C 1132.27 0.477363 -3.73361 0
M  V30 11771 C 1131.41 -0.334258 -2.75278 0
M  V30 11772 H 1134.36 -0.646875 -1.44918 0
M  V30 11773 H 1134.38 0.879179 -3.70204 0
M  V30 11774 H 1133.9 -0.944501 -3.76432 0
M  V30 11775 H 1132 1.49603 -3.41247 0
M  V30 11776 H 1132.11 0.206744 -4.78654 0
M  V30 11777 H 1130.47 0.206503 -2.53861 0
M  V30 11778 H 1131.26 -1.34583 -3.1582 0
M  V30 11779 N 1133.7 1.56767 -0.161869 0
M  V30 11780 C 1135.12 1.58412 0.194403 0
M  V30 11781 C 1135.32 1.17682 1.63564 0
M  V30 11782 O 1134.37 0.884024 2.36519 0
M  V30 11783 C 1135.69 3.00599 -0.0778438 0
M  V30 11784 C 1137.24 3.12996 -0.015307 0
M  V30 11785 C 1137.71 4.57259 -0.260418 0
M  V30 11786 N 1139.2 4.62733 -0.207863 0
M  V30 11787 C 1139.94 5.72193 -0.371821 0
M  V30 11788 N 1139.43 6.90246 -0.594318 0
M  V30 11789 N 1141.23 5.61253 -0.308384 0
M  V30 11790 H 1133.38 1.81531 -1.10274 0
M  V30 11791 H 1135.64 0.840919 -0.437675 0
M  V30 11792 H 1135.35 3.3484 -1.07587 0
M  V30 11793 H 1135.22 3.71819 0.634845 0
M  V30 11794 H 1137.61 2.78588 0.97329 0
M  V30 11795 H 1137.69 2.44232 -0.760559 0
M  V30 11796 H 1137.33 4.92375 -1.24618 0
M  V30 11797 H 1137.26 5.2417 0.505334 0
M  V30 11798 H 1139.75 3.77878 -0.0411541 0
M  V30 11799 H 1140.07 7.6954 -0.70913 0
M  V30 11800 H 1138.41 6.92131 -0.630819 0
M  V30 11801 H 1141.6 4.67905 -0.135217 0
M  V30 11802 H 1141.77 6.46507 -0.439592 0
M  V30 11803 N 1135.18 -0.111886 1.57202 0
M  V30 11804 C 1136.59 -0.668261 1.74331 0
M  V30 11805 C 1136.94 -1.79959 0.781609 0
M  V30 11806 O 1136.07 -2.16356 -0.043833 0
M  V30 11807 C 1136.66 -1.219 3.1611 0
M  V30 11808 C 1135.22 -1.7216 3.34721 0
M  V30 11809 C 1134.37 -0.624223 2.70183 0
M  V30 11810 H 1137.32 0.114081 1.58289 0
M  V30 11811 H 1137.34 -2.08858 3.18054 0
M  V30 11812 H 1136.85 -0.395381 3.86081 0
M  V30 11813 H 1134.95 -2.56976 2.69803 0
M  V30 11814 H 1135.07 -1.82615 4.42932 0
M  V30 11815 H 1133.43 -1.05958 2.31614 0
M  V30 11816 H 1134.21 0.188537 3.42782 0
M  V30 11817 N 1136.66 -1.52894 -0.382264 0
M  V30 11818 C 1137.88 -1.72453 -1.15216 0
M  V30 11819 C 1138.31 -0.444925 -1.82762 0
M  V30 11820 O 1137.67 0.599825 -1.7109 0
M  V30 11821 C 1137.71 -2.87939 -2.17079 0
M  V30 11822 O 1136.82 -2.55383 -3.23811 0
M  V30 11823 H 1136.16 -0.57324 -0.335099 0
M  V30 11824 H 1138.69 -1.99713 -0.444495 0
M  V30 11825 H 1138.7 -3.13628 -2.60963 0
M  V30 11826 H 1137.37 -3.80765 -1.67305 0
M  V30 11827 H 1135.95 -2.40457 -2.85018 0
M  V30 11828 N 1138.14 0.641106 -1.43971 0
M  V30 11829 C 1139.55 1.22254 -1.41106 0
M  V30 11830 C 1139.9 1.95825 -0.121284 0
M  V30 11831 O 1139.02 2.01901 0.77879 0
M  V30 11832 C 1139.62 2.22364 -2.55617 0
M  V30 11833 C 1138.18 2.75957 -2.55978 0
M  V30 11834 C 1137.33 1.50792 -2.32717 0
M  V30 11835 H 1140.28 0.432381 -1.52696 0
M  V30 11836 H 1140.3 3.04775 -2.27799 0
M  V30 11837 H 1139.81 1.68789 -3.49474 0
M  V30 11838 H 1137.91 3.33562 -1.66034 0
M  V30 11839 H 1138.02 3.22676 -3.54142 0
M  V30 11840 H 1136.39 1.7857 -1.81617 0
M  V30 11841 H 1137.17 0.991343 -3.28675 0
M  V30 11842 N 1139.62 1.30703 0.880598 0
M  V30 11843 C 1140.55 1.20033 2.00286 0
M  V30 11844 C 1141.53 0.0899614 1.69862 0
M  V30 11845 O 1142.71 0.272747 1.92275 0
M  V30 11846 C 1139.84 0.895902 3.35546 0
M  V30 11847 C 1138.8 1.96468 3.80242 0
M  V30 11848 C 1138.12 1.51316 5.12843 0
M  V30 11849 C 1139.42 3.37637 3.98496 0
M  V30 11850 H 1141.12 2.13922 2.0947 0
M  V30 11851 H 1138.66 1.02989 1.00644 0
M  V30 11852 H 1140.61 0.807899 4.13583 0
M  V30 11853 H 1139.34 -0.0786636 3.26505 0
M  V30 11854 H 1138 2.0424 3.04437 0
M  V30 11855 H 1137.65 0.52674 5.00234 0
M  V30 11856 H 1137.35 2.22807 5.43719 0
M  V30 11857 H 1138.87 1.43903 5.93401 0
M  V30 11858 H 1140.28 3.326 4.66959 0
M  V30 11859 H 1138.68 4.07253 4.40755 0
M  V30 11860 H 1139.75 3.79205 3.02211 0
M  V30 11861 N 1141.09 -1.09351 1.1349 0
M  V30 11862 C 1142.51 -1.3359 0.873269 0
M  V30 11863 C 1142.71 -1.95432 -0.490767 0
M  V30 11864 O 1141.77 -2.20117 -1.23712 0
M  V30 11865 C 1143.08 -2.24681 1.99847 0
M  V30 11866 C 1144.63 -2.38188 2.03065 0
M  V30 11867 C 1145.1 -3.32615 3.14851 0
M  V30 11868 N 1146.59 -3.40188 3.14366 0
M  V30 11869 C 1147.33 -4.13256 3.97501 0
M  V30 11870 N 1146.82 -4.89114 4.90652 0
M  V30 11871 N 1148.62 -4.08988 3.85597 0
M  V30 11872 H 1140.77 -0.675852 2.0136 0
M  V30 11873 H 1143.03 -0.360268 0.876876 0
M  V30 11874 H 1142.74 -1.86469 2.98198 0
M  V30 11875 H 1142.61 -3.25075 1.91327 0
M  V30 11876 H 1145 -2.75663 1.05327 0
M  V30 11877 H 1145.08 -1.3757 2.15658 0
M  V30 11878 H 1144.72 -2.95863 4.12829 0
M  V30 11879 H 1144.65 -4.33139 2.99496 0
M  V30 11880 H 1147.14 -2.861 2.46892 0
M  V30 11881 H 1147.46 -5.423 5.50573 0
M  V30 11882 H 1145.8 -4.882 4.94657 0
M  V30 11883 H 1148.99 -3.48826 3.12151 0
M  V30 11884 H 1149.17 -4.65671 4.50615 0
M  V30 11885 N 1142.57 -0.928524 -1.27343 0
M  V30 11886 C 1143.8 -0.58516 -1.98974 0
M  V30 11887 C 1144.22 0.829964 -1.68799 0
M  V30 11888 O 1143.58 1.55705 -0.928738 0
M  V30 11889 C 1143.63 -0.818662 -3.51184 0
M  V30 11890 O 1142.73 0.115355 -4.12239 0
M  V30 11891 H 1142.07 -0.225203 -0.624644 0
M  V30 11892 H 1144.6 -1.248 -1.6213 0
M  V30 11893 H 1144.61 -0.734554 -4.01333 0
M  V30 11894 H 1143.29 -1.8502 -3.72479 0
M  V30 11895 H 1141.86 -0.0187371 -3.72895 0
M  V30 11896 N 1144.05 1.41491 -0.694123 0
M  V30 11897 C 1145.47 1.55358 -0.365532 0
M  V30 11898 C 1145.67 1.66994 1.12762 0
M  V30 11899 O 1144.72 1.64756 1.91342 0
M  V30 11900 C 1146.03 2.79352 -1.11279 0
M  V30 11901 C 1147.58 2.93147 -1.097 0
M  V30 11902 C 1148.06 4.20027 -1.82597 0
M  V30 11903 N 1149.55 4.26981 -1.7956 0
M  V30 11904 C 1150.28 5.24013 -2.32805 0
M  V30 11905 N 1149.78 6.27083 -2.94515 0
M  V30 11906 N 1151.57 5.15943 -2.23069 0
M  V30 11907 H 1143.72 1.32183 -1.66257 0
M  V30 11908 H 1145.99 0.637624 -0.701527 0
M  V30 11909 H 1145.69 2.76958 -2.16765 0
M  V30 11910 H 1145.57 3.70827 -0.690439 0
M  V30 11911 H 1147.95 2.95057 -0.0504037 0
M  V30 11912 H 1148.03 2.02849 -1.55839 0
M  V30 11913 H 1147.68 4.18878 -2.87235 0
M  V30 11914 H 1147.61 5.09294 -1.33893 0
M  V30 11915 H 1150.1 3.53129 -1.34567 0
M  V30 11916 H 1150.41 6.97511 -3.32714 0
M  V30 11917 H 1148.76 6.27589 -2.98592 0
M  V30 11918 H 1151.95 4.34346 -1.74532 0
M  V30 11919 H 1152.12 5.91396 -2.64868 0
M  V30 11920 N 1145.53 0.438773 1.51369 0
M  V30 11921 C 1146.78 -0.128723 2.01289 0
M  V30 11922 C 1147.09 -1.43659 1.32745 0
M  V30 11923 O 1148.3 -2.08712 1.73642 0
M  V30 11924 C 1146.75 -0.279945 3.5881 0
M  V30 11925 C 1146.36 1.01758 4.3629 0
M  V30 11926 C 1148.1 -0.801133 4.16872 0
M  V30 11927 C 1146.01 0.831918 5.85519 0
M  V30 11928 H 1144.94 -0.0518814 0.752213 0
M  V30 11929 H 1147.59 0.568753 1.74463 0
M  V30 11930 H 1145.97 -1.04046 3.82087 0
M  V30 11931 H 1147.15 1.78653 4.24758 0
M  V30 11932 H 1145.46 1.46741 3.89687 0
M  V30 11933 H 1148.06 -0.956548 5.26074 0
M  V30 11934 H 1148.4 -1.78396 3.76139 0
M  V30 11935 H 1148.94 -0.0988934 3.97677 0
M  V30 11936 H 1145.67 1.78716 6.30667 0
M  V30 11937 H 1145.19 0.102785 5.99712 0
M  V30 11938 H 1146.87 0.485681 6.45174 0
M  V30 11939 N 1147.01 -1.56678 0.170181 0
M  V30 11940 C 1148.28 -1.88524 -0.521362 0
M  V30 11941 C 1148.66 -1.07989 -1.81388 0
M  V30 11942 O 1148.01 -0.17347 -2.27841 0
M  V30 11943 C 1148.22 -3.40527 -0.764367 0
M  V30 11944 C 1149.57 -4.10241 -1.09487 0
M  V30 11945 O 1150.59 -3.45837 -0.852945 0
M  V30 11946 O 1149.45 -5.24022 -1.55124 0
M  V30 11947 H 1146.55 -0.782161 -0.268614 0
M  V30 11948 H 1149.09 -1.68414 0.208531 0
M  V30 11949 H 1147.86 -3.91015 0.149416 0
M  V30 11950 H 1147.49 -3.66244 -1.54762 0
M  V30 11951 N 1148.48 0.103547 -1.57259 0
M  V30 11952 C 1149.89 0.659006 -1.74683 0
M  V30 11953 C 1150.25 1.79542 -0.791142 0
M  V30 11954 O 1149.37 2.16376 0.0323585 0
M  V30 11955 C 1149.97 1.20222 -3.16752 0
M  V30 11956 C 1148.52 1.70382 -3.35629 0
M  V30 11957 C 1147.67 0.609886 -2.7051 0
M  V30 11958 H 1150.62 -0.122474 -1.58227 0
M  V30 11959 H 1150.64 2.07169 -3.19157 0
M  V30 11960 H 1150.16 0.374901 -3.86285 0
M  V30 11961 H 1148.26 2.55542 -2.71162 0
M  V30 11962 H 1148.37 1.80263 -4.43894 0
M  V30 11963 H 1146.73 1.04728 -2.32173 0
M  V30 11964 H 1147.52 -0.206713 -3.42677 0
M  V30 11965 N 1149.96 1.53094 0.37415 0
M  V30 11966 C 1151.21 1.70059 1.11586 0
M  V30 11967 C 1151.56 0.442567 1.87241 0
M  V30 11968 O 1150.86 -0.564198 1.83105 0
M  V30 11969 C 1151.05 2.88432 2.11049 0
M  V30 11970 C 1150.88 4.25625 1.45166 0
M  V30 11971 C 1149.65 4.90613 1.20942 0
M  V30 11972 C 1151.85 5.06472 0.893887 0
M  V30 11973 N 1149.83 6.11751 0.513196 0
M  V30 11974 C 1151.2 6.19139 0.326549 0
M  V30 11975 C 1153.25 4.91565 0.791739 0
M  V30 11976 C 1151.96 7.18529 -0.332963 0
M  V30 11977 C 1153.98 5.9122 0.146023 0
M  V30 11978 C 1153.35 7.03203 -0.410477 0
M  V30 11979 H 1149.44 0.675625 0.39377 0
M  V30 11980 H 1152.03 1.90475 0.403383 0
M  V30 11981 H 1150.2 2.6957 2.79619 0
M  V30 11982 H 1151.93 2.94261 2.77835 0
M  V30 11983 H 1148.69 4.49604 1.48841 0
M  V30 11984 H 1149.11 6.76759 0.180695 0
M  V30 11985 H 1153.75 4.05183 1.20776 0
M  V30 11986 H 1151.47 8.04509 -0.76096 0
M  V30 11987 H 1155.06 5.8176 0.0680321 0
M  V30 11988 H 1153.94 7.78993 -0.90223 0
M  V30 11989 N 1151.44 -0.633461 1.44309 0
M  V30 11990 C 1152.66 -1.42527 1.50668 0
M  V30 11991 C 1153.09 -1.87637 0.131861 0
M  V30 11992 O 1152.45 -1.58595 -0.878477 0
M  V30 11993 C 1152.5 -2.62328 2.47419 0
M  V30 11994 O 1151.6 -3.62081 1.97411 0
M  V30 11995 H 1150.94 -0.426559 0.508864 0
M  V30 11996 H 1153.47 -0.773392 1.8942 0
M  V30 11997 H 1153.48 -3.09901 2.65378 0
M  V30 11998 H 1152.16 -2.2884 3.47283 0
M  V30 11999 H 1150.73 -3.21333 1.89208 0
M  V30 12000 N 1152.92 -1.31168 -0.873655 0
M  V30 12001 C 1154.17 -1.20642 -1.6264 0
M  V30 12002 C 1154.49 0.236286 -1.93059 0
M  V30 12003 O 1153.75 1.18401 -1.55819 0
M  V30 12004 C 1154.05 -1.99204 -2.96736 0
M  V30 12005 C 1153.71 -3.48734 -2.85824 0
M  V30 12006 C 1152.38 -3.89507 -2.82555 0
M  V30 12007 C 1154.73 -4.43905 -2.73127 0
M  V30 12008 C 1152.06 -5.23724 -2.64442 0
M  V30 12009 C 1154.41 -5.78242 -2.56551 0
M  V30 12010 C 1153.07 -6.18241 -2.51663 0
M  V30 12011 H 1152.34 -0.44146 -0.595142 0
M  V30 12012 H 1154.99 -1.62394 -1.01492 0
M  V30 12013 H 1153.29 -1.50122 -3.61899 0
M  V30 12014 H 1154.99 -1.88443 -3.53963 0
M  V30 12015 H 1151.58 -3.1634 -2.89184 0
M  V30 12016 H 1155.76 -4.13338 -2.7471 0
M  V30 12017 H 1151.02 -5.53794 -2.59081 0
M  V30 12018 H 1155.19 -6.51616 -2.45702 0
M  V30 12019 H 1152.82 -7.22185 -2.37387 0
M  V30 12020 N 1154.4 1.08748 -1.14068 0
M  V30 12021 C 1155.64 1.81333 -0.908081 0
M  V30 12022 C 1155.98 1.85826 0.564112 0
M  V30 12023 O 1155.25 1.33157 1.41773 0
M  V30 12024 C 1155.53 3.27127 -1.50531 0
M  V30 12025 C 1155.39 3.30865 -3.04711 0
M  V30 12026 C 1156.71 4.24006 -1.17928 0
M  V30 12027 H 1153.82 0.658326 -0.331325 0
M  V30 12028 H 1156.47 1.27345 -1.41008 0
M  V30 12029 H 1154.62 3.73233 -1.07839 0
M  V30 12030 H 1156.29 2.93109 -3.56209 0
M  V30 12031 H 1154.53 2.70241 -3.39341 0
M  V30 12032 H 1155.2 4.33603 -3.41603 0
M  V30 12033 H 1157.68 3.86221 -1.54831 0
M  V30 12034 H 1156.55 5.2434 -1.62353 0
M  V30 12035 H 1156.82 4.42 -0.0940349 0
M  V30 12036 N 1155.87 0.935264 1.26849 0
M  V30 12037 C 1157.1 0.595704 1.98661 0
M  V30 12038 C 1157.52 -0.821001 1.69237 0
M  V30 12039 O 1156.88 -1.55211 0.936982 0
M  V30 12040 C 1156.93 0.837275 3.50745 0
M  V30 12041 O 1156.03 -0.0934914 4.12294 0
M  V30 12042 H 1155.38 0.228512 0.623441 0
M  V30 12043 H 1157.91 1.25658 1.61466 0
M  V30 12044 H 1157.92 0.755827 4.00938 0
M  V30 12045 H 1156.59 1.86993 3.71492 0
M  V30 12046 H 1155.17 0.0385124 3.7288 0
M  V30 12047 N 1157.35 -1.41121 0.701616 0
M  V30 12048 C 1158.32 -2.29148 0.0490091 0
M  V30 12049 C 1159.32 -1.44679 -0.701763 0
M  V30 12050 O 1160.51 -1.65757 -0.53575 0
M  V30 12051 C 1157.64 -3.2766 -0.940837 0
M  V30 12052 H 1158.83 -2.88354 0.824133 0
M  V30 12053 H 1156.38 -1.49209 0.465457 0
M  V30 12054 H 1157.12 -2.73445 -1.74351 0
M  V30 12055 H 1156.9 -3.89997 -0.405551 0
M  V30 12056 H 1158.39 -3.93609 -1.39507 0
M  V30 12057 N 1158.83 -0.446794 -1.51134 0
M  V30 12058 C 1160.08 0.116263 -2.01765 0
M  V30 12059 C 1160.4 1.42382 -1.33238 0
M  V30 12060 O 1159.67 1.9018 -0.469915 0
M  V30 12061 H 1158.25 0.0459558 -0.745585 0
M  V30 12062 H 1160.91 -0.591664 -1.85702 0
M  V30 12063 H 1160.01 0.285358 -3.10793 0
M  V30 12064 N 1160.31 1.56586 -0.178487 0
M  V30 12065 C 1161.72 1.83633 0.337009 0
M  V30 12066 C 1162.07 1.09857 1.6256 0
M  V30 12067 O 1161.2 0.353933 2.13486 0
M  V30 12068 C 1161.79 3.33112 0.618225 0
M  V30 12069 C 1160.35 3.60629 1.07814 0
M  V30 12070 C 1159.5 2.7705 0.117825 0
M  V30 12071 H 1162.45 1.53508 -0.402612 0
M  V30 12072 H 1162.47 3.5098 1.46947 0
M  V30 12073 H 1161.98 3.8678 -0.319808 0
M  V30 12074 H 1160.08 3.12378 2.03103 0
M  V30 12075 H 1160.19 4.68921 0.982339 0
M  V30 12076 H 1158.56 2.47125 0.616563 0
M  V30 12077 H 1159.34 3.33501 -0.814356 0
M  V30 12078 N 1161.79 -0.095206 1.57312 0
M  V30 12079 C 1163.2 -0.449411 1.53142 0
M  V30 12080 C 1163.4 -1.80523 0.895187 0
M  V30 12081 O 1162.46 -2.47746 0.487649 0
M  V30 12082 C 1163.77 -0.412002 2.97864 0
M  V30 12083 C 1165.32 -0.493866 3.09079 0
M  V30 12084 C 1165.79 -0.486606 4.55408 0
M  V30 12085 N 1167.29 -0.547363 4.59955 0
M  V30 12086 C 1168.02 -0.563582 5.70624 0
M  V30 12087 N 1167.52 -0.536015 6.90723 0
M  V30 12088 N 1169.31 -0.608385 5.58798 0
M  V30 12089 H 1161.46 0.792869 1.97047 0
M  V30 12090 H 1163.72 0.295106 0.900898 0
M  V30 12091 H 1163.43 0.517064 3.47878 0
M  V30 12092 H 1163.3 -1.23102 3.56547 0
M  V30 12093 H 1165.69 -1.41335 2.59053 0
M  V30 12094 H 1165.77 0.353286 2.53349 0
M  V30 12095 H 1165.42 0.428935 5.06086 0
M  V30 12096 H 1165.35 -1.35097 5.08976 0
M  V30 12097 H 1167.84 -0.573867 3.73517 0
M  V30 12098 H 1168.15 -0.551671 7.70828 0
M  V30 12099 H 1166.49 -0.503064 6.93177 0
M  V30 12100 H 1169.69 -0.627451 4.63876 0
M  V30 12101 H 1169.86 -0.617556 6.45051 0
M  V30 12102 N 1163.26 -1.53291 -0.366026 0
M  V30 12103 C 1164.68 -1.61144 -0.942849 0
M  V30 12104 C 1165.03 -0.478571 -1.90274 0
M  V30 12105 O 1164.15 0.395069 -2.12763 0
M  V30 12106 C 1164.75 -2.92081 -1.71681 0
M  V30 12107 C 1163.31 -3.0227 -2.24298 0
M  V30 12108 C 1162.45 -2.56436 -1.05526 0
M  V30 12109 H 1165.4 -1.58038 -0.144835 0
M  V30 12110 H 1165.42 -2.79858 -2.57798 0
M  V30 12111 H 1164.94 -3.74513 -1.01793 0
M  V30 12112 H 1163.04 -2.24425 -2.97429 0
M  V30 12113 H 1163.15 -4.07341 -2.5221 0
M  V30 12114 H 1161.51 -2.11301 -1.42211 0
M  V30 12115 H 1162.3 -3.41285 -0.371376 0
M  V30 12116 N 1164.74 0.6258 -1.44643 0
M  V30 12117 C 1165.97 1.41726 -1.51422 0
M  V30 12118 C 1166.39 1.87565 -0.14181 0
M  V30 12119 O 1165.75 1.59059 0.870054 0
M  V30 12120 C 1165.8 2.61012 -2.48807 0
M  V30 12121 O 1164.9 3.61029 -1.99328 0
M  V30 12122 H 1164.24 0.423855 -0.511119 0
M  V30 12123 H 1166.77 0.763336 -1.89827 0
M  V30 12124 H 1166.78 3.08489 -2.67018 0
M  V30 12125 H 1165.46 2.26995 -3.48491 0
M  V30 12126 H 1164.04 3.20325 -1.90909 0
M  V30 12127 N 1166.22 1.31629 0.866686 0
M  V30 12128 C 1167.63 1.19347 1.43573 0
M  V30 12129 C 1167.98 -0.198765 1.95191 0
M  V30 12130 O 1167.11 -1.09674 1.86549 0
M  V30 12131 C 1167.7 2.16055 2.6097 0
M  V30 12132 C 1166.26 2.07697 3.13909 0
M  V30 12133 C 1165.41 2.05099 1.86627 0
M  V30 12134 H 1168.36 1.43633 0.674929 0
M  V30 12135 H 1168.38 1.75207 3.37761 0
M  V30 12136 H 1167.89 3.17375 2.23371 0
M  V30 12137 H 1165.99 1.09583 3.56121 0
M  V30 12138 H 1166.11 2.96958 3.75969 0
M  V30 12139 H 1164.47 1.50162 2.05727 0
M  V30 12140 H 1165.25 3.0818 1.51261 0
M  V30 12141 N 1167.7 -1.08142 1.14644 0
M  V30 12142 C 1168.63 -2.17139 0.858667 0
M  V30 12143 C 1169.61 -1.69064 -0.187452 0
M  V30 12144 O 1170.8 -1.94151 -0.0435458 0
M  V30 12145 C 1167.93 -3.45648 0.33834 0
M  V30 12146 C 1166.88 -4.07129 1.32021 0
M  V30 12147 C 1166.21 -5.30623 0.659075 0
M  V30 12148 C 1167.51 -4.48095 2.68343 0
M  V30 12149 H 1169.2 -2.41468 1.77012 0
M  V30 12150 H 1166.75 -1.16052 0.852523 0
M  V30 12151 H 1168.7 -4.21216 0.124611 0
M  V30 12152 H 1167.42 -3.2088 -0.608553 0
M  V30 12153 H 1166.08 -3.33596 1.52016 0
M  V30 12154 H 1165.73 -5.02142 -0.293711 0
M  V30 12155 H 1165.43 -5.72714 1.31427 0
M  V30 12156 H 1166.95 -6.08903 0.454933 0
M  V30 12157 H 1168.37 -5.14828 2.5224 0
M  V30 12158 H 1166.76 -5.01113 3.30161 0
M  V30 12159 H 1167.83 -3.59852 3.25015 0
M  V30 12160 N 1169.18 -0.941978 -1.26351 0
M  V30 12161 C 1170.59 -0.632522 -1.75659 0
M  V30 12162 C 1170.94 0.852287 -1.76722 0
M  V30 12163 O 1170.06 1.66701 -1.37985 0
M  V30 12164 C 1170.66 -1.14145 -3.18993 0
M  V30 12165 C 1169.22 -0.882391 -3.65911 0
M  V30 12166 C 1168.37 -1.29189 -2.45368 0
M  V30 12167 H 1171.32 -1.12019 -1.12416 0
M  V30 12168 H 1171.34 -0.495639 -3.77258 0
M  V30 12169 H 1170.85 -2.22213 -3.18187 0
M  V30 12170 H 1168.95 0.183873 -3.72146 0
M  V30 12171 H 1169.06 -1.50996 -4.54683 0
M  V30 12172 H 1167.43 -0.710316 -2.44595 0
M  V30 12173 H 1168.21 -2.38152 -2.47262 0
M  V30 12174 N 1170.66 1.40747 -0.709091 0
M  V30 12175 C 1171.88 2.05841 -0.253816 0
M  V30 12176 C 1172.31 1.53056 1.09341 0
M  V30 12177 O 1171.66 0.663181 1.68735 0
M  V30 12178 C 1171.71 3.59822 -0.236699 0
M  V30 12179 O 1170.82 4.04876 0.784168 0
M  V30 12180 H 1170.16 0.65295 -0.120631 0
M  V30 12181 H 1172.69 1.80266 -0.967749 0
M  V30 12182 H 1172.7 4.07936 -0.0721616 0
M  V30 12183 H 1171.37 3.97608 -1.21988 0
M  V30 12184 H 1169.95 3.68237 0.587884 0
M  V30 12185 N 1172.13 0.454803 1.50895 0
M  V30 12186 C 1173.54 -0.00421212 1.867 0
M  V30 12187 C 1173.9 -1.4037 1.3708 0
M  V30 12188 O 1173.02 -2.03755 0.728884 0
M  V30 12189 C 1173.62 -0.0144196 3.38797 0
M  V30 12190 C 1172.17 -0.417905 3.74073 0
M  V30 12191 C 1171.32 0.37801 2.74711 0
M  V30 12192 H 1174.27 0.669849 1.4387 0
M  V30 12193 H 1174.29 -0.820172 3.71555 0
M  V30 12194 H 1173.81 1.00427 3.74881 0
M  V30 12195 H 1171.91 -1.44155 3.43584 0
M  V30 12196 H 1172.02 -0.130568 4.78922 0
M  V30 12197 H 1170.38 -0.166089 2.54158 0
M  V30 12198 H 1171.17 1.3959 3.13639 0
M  V30 12199 N 1173.61 -1.56489 0.186789 0
M  V30 12200 C 1174.54 -2.15911 -0.769104 0
M  V30 12201 C 1175.56 -1.11872 -1.18273 0
M  V30 12202 O 1176.75 -1.38999 -1.1199 0
M  V30 12203 C 1173.85 -2.69957 -2.04882 0
M  V30 12204 C 1173.02 -3.98812 -1.79631 0
M  V30 12205 C 1172.08 -4.37767 -2.9197 0
M  V30 12206 O 1171.1 -5.0535 -2.61935 0
M  V30 12207 N 1172.31 -4.0059 -4.20128 0
M  V30 12208 H 1175.07 -2.98561 -0.261007 0
M  V30 12209 H 1172.63 -1.61899 0.00453357 0
M  V30 12210 H 1174.62 -2.93006 -2.79158 0
M  V30 12211 H 1173.19 -1.91808 -2.46837 0
M  V30 12212 H 1172.41 -3.8398 -0.891776 0
M  V30 12213 H 1173.7 -4.82939 -1.60148 0
M  V30 12214 H 1173.1 -3.46213 -4.47385 0
M  V30 12215 H 1171.66 -4.28608 -4.91059 0
M  V30 12216 N 1175.09 0.086862 -1.5736 0
M  V30 12217 C 1176.5 0.640442 -1.75372 0
M  V30 12218 C 1176.85 1.78693 -0.81014 0
M  V30 12219 O 1175.98 2.16398 0.00940712 0
M  V30 12220 C 1176.57 1.16856 -3.1801 0
M  V30 12221 C 1175.13 1.66813 -3.37417 0
M  V30 12222 C 1174.28 0.58116 -2.71142 0
M  V30 12223 H 1177.23 -0.139249 -1.58088 0
M  V30 12224 H 1177.25 2.03772 -3.21337 0
M  V30 12225 H 1176.76 0.333909 -3.86661 0
M  V30 12226 H 1174.86 2.52652 -2.73858 0
M  V30 12227 H 1174.98 1.75545 -4.45781 0
M  V30 12228 H 1173.34 1.0226 -2.3327 0
M  V30 12229 H 1174.12 -0.243047 -3.42439 0
M  V30 12230 N 1176.57 1.53483 0.357892 0
M  V30 12231 C 1177.53 1.79782 1.42166 0
M  V30 12232 C 1178.53 0.668441 1.46248 0
M  V30 12233 O 1179.72 0.936677 1.46874 0
M  V30 12234 C 1176.85 1.92686 2.8122 0
M  V30 12235 H 1178.05 2.74794 1.20117 0
M  V30 12236 H 1175.6 1.44677 0.591468 0
M  V30 12237 H 1176.33 0.997669 3.08573 0
M  V30 12238 H 1176.12 2.74837 2.79655 0
M  V30 12239 H 1177.61 2.14599 3.58242 0
M  V30 12240 N 1178.05 -0.61812 1.44973 0
M  V30 12241 C 1179.46 -1.19994 1.43033 0
M  V30 12242 C 1179.81 -1.95607 0.152422 0
M  V30 12243 O 1178.93 -2.03114 -0.746571 0
M  V30 12244 C 1179.53 -2.18269 2.59122 0
M  V30 12245 C 1178.09 -2.7185 2.60336 0
M  V30 12246 C 1177.23 -1.4707 2.35086 0
M  V30 12247 H 1180.18 -0.408034 1.53365 0
M  V30 12248 H 1180.21 -3.01113 2.32619 0
M  V30 12249 H 1179.72 -1.63208 3.52115 0
M  V30 12250 H 1177.82 -3.30878 1.7132 0
M  V30 12251 H 1177.93 -3.17001 3.59231 0
M  V30 12252 H 1176.3 -1.75658 1.84435 0
M  V30 12253 H 1177.08 -0.938928 3.30211 0
M  V30 12254 N 1179.52 -1.32087 -0.859693 0
M  V30 12255 C 1180.94 -1.10968 -1.14709 0
M  V30 12256 C 1181.14 0.113139 -2.01182 0
M  V30 12257 O 1180.2 0.799499 -2.39508 0
M  V30 12258 C 1181.51 -2.38657 -1.8293 0
M  V30 12259 C 1183.06 -2.44366 -1.95587 0
M  V30 12260 C 1183.53 -3.71963 -2.67222 0
M  V30 12261 N 1185.02 -3.72916 -2.7475 0
M  V30 12262 C 1185.76 -4.68346 -3.30816 0
M  V30 12263 N 1185.25 -5.74139 -3.87732 0
M  V30 12264 N 1187.05 -4.55851 -3.28872 0
M  V30 12265 H 1179.2 -2.10497 -0.283711 0
M  V30 12266 H 1181.46 -0.929108 -0.188315 0
M  V30 12267 H 1181.17 -3.2803 -1.26844 0
M  V30 12268 H 1181.04 -2.49236 -2.83128 0
M  V30 12269 H 1183.43 -1.55456 -2.50833 0
M  V30 12270 H 1183.51 -2.37744 -0.944001 0
M  V30 12271 H 1183.15 -4.61245 -2.1264 0
M  V30 12272 H 1183.08 -3.75855 -3.68837 0
M  V30 12273 H 1185.57 -2.96447 -2.34367 0
M  V30 12274 H 1185.89 -6.43021 -4.28654 0
M  V30 12275 H 1184.23 -5.779 -3.86078 0
M  V30 12276 H 1187.42 -3.72371 -2.83651 0
M  V30 12277 H 1187.6 -5.30398 -3.72266 0
M  V30 12278 N 1181 1.07532 -1.15215 0
M  V30 12279 C 1182.42 1.32183 -0.894411 0
M  V30 12280 C 1182.62 1.96188 0.459614 0
M  V30 12281 O 1181.67 2.22057 1.20195 0
M  V30 12282 C 1182.99 2.21473 -2.03397 0
M  V30 12283 C 1184.53 2.34927 -2.06829 0
M  V30 12284 C 1185.01 3.27564 -3.20103 0
M  V30 12285 N 1186.5 3.35144 -3.19738 0
M  V30 12286 C 1187.24 4.0688 -4.04025 0
M  V30 12287 N 1186.73 4.81246 -4.98371 0
M  V30 12288 N 1188.52 4.02802 -3.92055 0
M  V30 12289 H 1180.68 0.643732 -2.0241 0
M  V30 12290 H 1182.94 0.346272 -0.882496 0
M  V30 12291 H 1182.64 1.81701 -3.01127 0
M  V30 12292 H 1182.52 3.2199 -1.96475 0
M  V30 12293 H 1184.91 2.73953 -1.09699 0
M  V30 12294 H 1184.99 1.34121 -2.17819 0
M  V30 12295 H 1184.63 2.89258 -4.17483 0
M  V30 12296 H 1184.56 4.2832 -3.06349 0
M  V30 12297 H 1187.05 2.82135 -2.51412 0
M  V30 12298 H 1187.36 5.33472 -5.59131 0
M  V30 12299 H 1185.71 4.80268 -5.02362 0
M  V30 12300 H 1188.9 3.43816 -3.17661 0
M  V30 12301 H 1189.07 4.58443 -4.57967 0
M  V30 12302 N 1182.48 0.948665 1.2585 0
M  V30 12303 C 1183.44 0.468673 2.24357 0
M  V30 12304 C 1184.44 -0.424355 1.551 0
M  V30 12305 O 1185.63 -0.222481 1.72773 0
M  V30 12306 C 1182.77 -0.32359 3.39361 0
M  V30 12307 H 1183.96 1.33928 2.68334 0
M  V30 12308 H 1181.51 0.731357 1.38133 0
M  V30 12309 H 1182.25 -1.21212 3.00796 0
M  V30 12310 H 1182.03 0.316998 3.90816 0
M  V30 12311 H 1183.52 -0.649087 4.12525 0
M  V30 12312 N 1183.96 -1.40369 0.716545 0
M  V30 12313 C 1185.37 -1.83783 0.328719 0
M  V30 12314 C 1185.72 -1.5991 -1.13681 0
M  V30 12315 O 1184.85 -1.08048 -1.87496 0
M  V30 12316 C 1185.44 -3.33626 0.589848 0
M  V30 12317 C 1184 -3.7553 0.25572 0
M  V30 12318 C 1183.15 -2.63571 0.861733 0
M  V30 12319 H 1186.1 -1.29623 0.915621 0
M  V30 12320 H 1186.12 -3.80225 -0.14459 0
M  V30 12321 H 1185.63 -3.5097 1.65655 0
M  V30 12322 H 1183.73 -3.63781 -0.805883 0
M  V30 12323 H 1183.84 -4.73577 0.725388 0
M  V30 12324 H 1182.21 -2.53047 0.289706 0
M  V30 12325 H 1182.99 -2.83727 1.93272 0
M  V30 12326 N 1185.44 -0.462799 -1.50652 0
M  V30 12327 C 1186.68 0.0873392 -2.03212 0
M  V30 12328 C 1187.04 1.38147 -1.33915 0
M  V30 12329 O 1186.33 1.86161 -0.453286 0
M  V30 12330 C 1186.52 0.335294 -3.55824 0
M  V30 12331 C 1186.35 -0.933253 -4.3991 0
M  V30 12332 C 1185.12 -1.47417 -4.83318 0
M  V30 12333 C 1187.32 -1.8264 -4.80777 0
M  V30 12334 N 1185.3 -2.6926 -5.51699 0
M  V30 12335 C 1186.67 -2.89075 -5.48485 0
M  V30 12336 C 1188.73 -1.83778 -4.62742 0
M  V30 12337 C 1187.43 -3.96625 -6.00067 0
M  V30 12338 C 1189.46 -2.90279 -5.15259 0
M  V30 12339 C 1188.82 -3.95433 -5.82934 0
M  V30 12340 H 1184.92 -0.00785676 -0.781961 0
M  V30 12341 H 1187.5 -0.629156 -1.84254 0
M  V30 12342 H 1185.67 1.02083 -3.74745 0
M  V30 12343 H 1187.41 0.879039 -3.95038 0
M  V30 12344 H 1184.16 -1.02451 -4.62386 0
M  V30 12345 H 1184.59 -3.31115 -5.90502 0
M  V30 12346 H 1189.23 -1.03802 -4.0986 0
M  V30 12347 H 1186.95 -4.77424 -6.51991 0
M  V30 12348 H 1190.53 -2.92133 -5.0314 0
M  V30 12349 H 1189.41 -4.76487 -6.2284 0
M  V30 12350 N 1186.91 1.56388 -0.195085 0
M  V30 12351 C 1188.14 2.01963 0.449289 0
M  V30 12352 C 1188.56 1.07522 1.55192 0
M  V30 12353 O 1187.91 0.0800915 1.82324 0
M  V30 12354 C 1187.97 3.47231 1.00561 0
M  V30 12355 O 1187.69 4.38068 -0.0530241 0
M  V30 12356 C 1189.19 4.08324 1.72587 0
M  V30 12357 H 1186.41 0.661452 0.112792 0
M  V30 12358 H 1188.95 2.02231 -0.303788 0
M  V30 12359 H 1187.11 3.47663 1.70907 0
M  V30 12360 H 1187.52 5.23256 0.361076 0
M  V30 12361 H 1188.99 5.11821 2.06744 0
M  V30 12362 H 1189.47 3.51782 2.62956 0
M  V30 12363 H 1190.08 4.11665 1.06826 0
M  V30 12364 N 1188.39 -0.0785156 1.57404 0
M  V30 12365 C 1189.32 -1.09446 2.06262 0
M  V30 12366 C 1190.3 -1.40777 0.954772 0
M  V30 12367 O 1191.49 -1.5052 1.22708 0
M  V30 12368 C 1188.62 -2.40979 2.50093 0
M  V30 12369 C 1187.57 -2.24017 3.64692 0
M  V30 12370 C 1186.9 -3.60873 3.94556 0
M  V30 12371 C 1188.2 -1.66696 4.94985 0
M  V30 12372 H 1189.89 -0.687928 2.9139 0
M  V30 12373 H 1187.44 -0.329466 1.4018 0
M  V30 12374 H 1189.39 -3.12337 2.82884 0
M  V30 12375 H 1188.12 -2.83599 1.61985 0
M  V30 12376 H 1186.77 -1.55101 3.32174 0
M  V30 12377 H 1186.42 -4.01051 3.0359 0
M  V30 12378 H 1186.12 -3.50365 4.71718 0
M  V30 12379 H 1187.65 -4.33673 4.29837 0
M  V30 12380 H 1189.06 -2.27913 5.2605 0
M  V30 12381 H 1187.46 -1.66902 5.76423 0
M  V30 12382 H 1188.53 -0.627827 4.80818 0
M  V30 12383 N 1189.87 -1.5367 -0.349747 0
M  V30 12384 C 1191.12 -1.70618 -1.09068 0
M  V30 12385 C 1191.45 -0.466133 -1.88832 0
M  V30 12386 O 1190.7 0.552079 -1.87751 0
M  V30 12387 C 1191 -2.91753 -2.06434 0
M  V30 12388 C 1190.67 -4.27614 -1.43029 0
M  V30 12389 C 1189.33 -4.64555 -1.25466 0
M  V30 12390 C 1191.68 -5.12037 -0.972987 0
M  V30 12391 C 1189.01 -5.83543 -0.607807 0
M  V30 12392 C 1191.36 -6.31685 -0.340073 0
M  V30 12393 C 1190.02 -6.67327 -0.152069 0
M  V30 12394 H 1189.29 -0.624334 -0.399108 0
M  V30 12395 H 1191.94 -1.87879 -0.370657 0
M  V30 12396 H 1190.25 -2.6907 -2.84796 0
M  V30 12397 H 1191.94 -3.02059 -2.63744 0
M  V30 12398 H 1188.53 -3.98535 -1.57696 0
M  V30 12399 H 1192.72 -4.84035 -1.09655 0
M  V30 12400 H 1187.97 -6.09737 -0.450705 0
M  V30 12401 H 1192.15 -6.96396 0.0223973 0
M  V30 12402 H 1189.77 -7.59388 0.35121 0
M  V30 12403 N 1191.35 0.610423 -1.45298 0
M  V30 12404 C 1192.76 1.19234 -1.43667 0
M  V30 12405 C 1193.11 1.95523 -0.162794 0
M  V30 12406 O 1192.24 2.03507 0.735789 0
M  V30 12407 C 1192.83 2.16892 -2.60276 0
M  V30 12408 C 1191.39 2.70465 -2.61774 0
M  V30 12409 C 1190.54 1.45821 -2.35863 0
M  V30 12410 H 1193.49 0.399895 -1.53579 0
M  V30 12411 H 1193.51 2.99875 -2.34212 0
M  V30 12412 H 1193.02 1.61339 -3.52975 0
M  V30 12413 H 1191.12 3.29965 -1.73072 0
M  V30 12414 H 1191.23 3.15092 -3.60907 0
M  V30 12415 H 1189.6 1.74678 -1.85364 0
M  V30 12416 H 1190.38 0.921403 -3.30704 0
M  V30 12417 N 1192.83 1.32541 0.852676 0
M  V30 12418 C 1194.1 1.1383 1.59067 0
M  V30 12419 C 1194.48 -0.300584 2.08949 0
M  V30 12420 O 1193.83 -1.29751 1.88088 0
M  V30 12421 C 1194.04 2.16758 2.73527 0
M  V30 12422 C 1195.39 2.50194 3.43057 0
M  V30 12423 O 1196.41 2.15319 2.83754 0
M  V30 12424 O 1195.27 3.09985 4.50079 0
M  V30 12425 H 1192.37 0.439379 0.700625 0
M  V30 12426 H 1194.91 1.44078 0.896632 0
M  V30 12427 H 1193.68 3.13469 2.34207 0
M  V30 12428 H 1193.31 1.87515 3.50605 0
M  V30 12429 N 1194.3 -1.0692 1.15784 0
M  V30 12430 C 1195.53 -1.83849 0.959903 0
M  V30 12431 C 1195.95 -1.8169 -0.486873 0
M  V30 12432 O 1195.31 -1.21305 -1.34739 0
M  V30 12433 C 1195.36 -3.28642 1.48414 0
M  V30 12434 O 1194.46 -4.0665 0.686249 0
M  V30 12435 H 1193.81 -0.569115 0.342059 0
M  V30 12436 H 1196.34 -1.34851 1.53871 0
M  V30 12437 H 1196.35 -3.7947 1.49888 0
M  V30 12438 H 1195.02 -3.29529 2.53739 0
M  V30 12439 H 1193.6 -3.65453 0.741501 0
M  V30 12440 N 1195.78 -0.955326 -1.25345 0
M  V30 12441 C 1197.06 -0.527828 -1.88344 0
M  V30 12442 C 1197.44 0.994911 -1.86185 0
M  V30 12443 O 1196.79 1.86099 -1.32587 0
M  V30 12444 C 1197 -1.10525 -3.31037 0
M  V30 12445 C 1198.35 -1.18253 -4.07801 0
M  V30 12446 O 1199.37 -1.05685 -3.4016 0
M  V30 12447 O 1198.23 -1.37978 -5.28795 0
M  V30 12448 H 1195.32 -0.174206 -0.808444 0
M  V30 12449 H 1197.87 -1.0488 -1.3341 0
M  V30 12450 H 1196.64 -2.14847 -3.27042 0
M  V30 12451 H 1196.26 -0.567568 -3.93528 0
M  V30 12452 N 1197.26 1.39987 -0.723979 0
M  V30 12453 C 1198.67 1.83606 -0.338461 0
M  V30 12454 C 1199.02 1.6051 1.12831 0
M  V30 12455 O 1198.15 1.09041 1.8692 0
M  V30 12456 C 1198.74 3.33308 -0.607533 0
M  V30 12457 C 1197.3 3.75389 -0.275632 0
M  V30 12458 C 1196.45 2.6311 -0.875699 0
M  V30 12459 H 1199.4 1.29135 -0.922483 0
M  V30 12460 H 1199.42 3.80297 0.124424 0
M  V30 12461 H 1198.93 3.50087 -1.67514 0
M  V30 12462 H 1197.03 3.64203 0.786579 0
M  V30 12463 H 1197.15 4.73185 -0.750492 0
M  V30 12464 H 1195.51 2.5289 -0.303122 0
M  V30 12465 H 1196.29 2.82698 -1.94774 0
M  V30 12466 N 1198.74 0.470782 1.50404 0
M  V30 12467 C 1199.99 -0.084316 2.02324 0
M  V30 12468 C 1200.31 -1.39749 1.35279 0
M  V30 12469 O 1199.57 -1.90037 0.467364 0
M  V30 12470 C 1199.87 -0.316419 3.55997 0
M  V30 12471 C 1199.53 0.915017 4.41518 0
M  V30 12472 C 1198.2 1.25265 4.6461 0
M  V30 12473 C 1200.55 1.73494 4.91477 0
M  V30 12474 C 1197.88 2.41027 5.34905 0
M  V30 12475 C 1200.23 2.88384 5.63043 0
M  V30 12476 C 1198.89 3.22562 5.84389 0
M  V30 12477 H 1198.16 -0.0308534 0.740357 0
M  V30 12478 H 1200.81 0.624799 1.81021 0
M  V30 12479 H 1199.11 -1.10778 3.75813 0
M  V30 12480 H 1200.81 -0.759882 3.93734 0
M  V30 12481 H 1197.4 0.641977 4.23765 0
M  V30 12482 H 1201.59 1.48728 4.73491 0
M  V30 12483 H 1196.84 2.67781 5.49639 0
M  V30 12484 H 1201.02 3.52264 6.00735 0
M  V30 12485 H 1198.64 4.1237 6.38635 0
M  V30 12486 N 1200.22 -1.56282 0.203376 0
M  V30 12487 C 1201.46 -1.98864 -0.427176 0
M  V30 12488 C 1201.82 -1.08828 -1.58664 0
M  V30 12489 O 1201.11 -0.134399 -1.91128 0
M  V30 12490 C 1201.31 -3.45148 -0.927759 0
M  V30 12491 C 1201.13 -4.49333 0.18166 0
M  V30 12492 C 1199.9 -5.01204 0.642046 0
M  V30 12493 C 1202.1 -5.04612 0.993548 0
M  V30 12494 N 1200.08 -5.89066 1.72842 0
M  V30 12495 C 1201.46 -5.89223 1.92915 0
M  V30 12496 C 1203.51 -4.87023 1.03503 0
M  V30 12497 C 1202.21 -6.58125 2.90282 0
M  V30 12498 C 1204.24 -5.56671 1.99679 0
M  V30 12499 C 1203.6 -6.41035 2.91982 0
M  V30 12500 H 1199.7 -0.772186 -0.123501 0
M  V30 12501 H 1202.28 -1.92201 0.310974 0
M  V30 12502 H 1200.46 -3.52295 -1.63533 0
M  V30 12503 H 1202.19 -3.7468 -1.52961 0
M  V30 12504 H 1198.94 -4.73022 0.233895 0
M  V30 12505 H 1199.37 -6.377 2.27306 0
M  V30 12506 H 1204.01 -4.21468 0.335379 0
M  V30 12507 H 1201.73 -7.22874 3.61219 0
M  V30 12508 H 1205.31 -5.45034 2.0354 0
M  V30 12509 H 1204.19 -6.93979 3.65189 0
M  V30 12510 N 1201.7 0.070167 -1.57444 0
M  V30 12511 C 1202.97 0.802108 -1.78397 0
M  V30 12512 C 1203.35 1.95706 -0.791356 0
M  V30 12513 O 1202.7 2.27827 0.17518 0
M  V30 12514 C 1202.91 1.27354 -3.24934 0
M  V30 12515 C 1204.26 1.70626 -3.88808 0
M  V30 12516 O 1205.28 1.36916 -3.28835 0
M  V30 12517 O 1204.14 2.33041 -4.94322 0
M  V30 12518 H 1201.24 0.384483 -0.73219 0
M  V30 12519 H 1203.78 0.0501168 -1.69626 0
M  V30 12520 H 1202.55 0.447204 -3.88736 0
M  V30 12521 H 1202.18 2.0868 -3.38435 0
M  V30 12522 N 1203.17 1.53854 0.341593 0
M  V30 12523 C 1204.4 1.75447 1.10604 0
M  V30 12524 C 1204.82 0.493225 1.81518 0
M  V30 12525 O 1204.18 -0.554253 1.7262 0
M  V30 12526 C 1204.23 2.93593 2.09369 0
M  V30 12527 O 1203.33 2.63878 3.16926 0
M  V30 12528 H 1202.67 0.581923 0.319783 0
M  V30 12529 H 1205.2 2.00822 0.391388 0
M  V30 12530 H 1205.21 3.20437 2.52556 0
M  V30 12531 H 1203.89 3.85067 1.57151 0
M  V30 12532 H 1202.47 2.47929 2.78542 0
M  V30 12533 N 1204.65 -0.602709 1.4562 0
M  V30 12534 C 1206.06 -1.1847 1.44297 0
M  V30 12535 C 1206.41 -1.95434 0.17316 0
M  V30 12536 O 1205.54 -2.03894 -0.724986 0
M  V30 12537 C 1206.13 -2.15508 2.61422 0
M  V30 12538 C 1204.69 -2.69073 2.63204 0
M  V30 12539 C 1203.84 -1.44568 2.36633 0
M  V30 12540 H 1206.79 -0.391745 1.53789 0
M  V30 12541 H 1206.81 -2.98628 2.35799 0
M  V30 12542 H 1206.32 -1.59464 3.53826 0
M  V30 12543 H 1204.42 -3.29042 1.7482 0
M  V30 12544 H 1204.54 -3.13173 3.62573 0
M  V30 12545 H 1202.9 -1.73692 1.86287 0
M  V30 12546 H 1203.68 -0.903852 3.31188 0
M  V30 12547 N 1206.13 -1.32992 -0.845635 0
M  V30 12548 C 1207.54 -1.21616 -1.41656 0
M  V30 12549 C 1207.89 0.167687 -1.95482 0
M  V30 12550 O 1207.02 1.06692 -1.8827 0
M  V30 12551 C 1207.61 -2.2018 -2.575 0
M  V30 12552 C 1206.17 -2.12664 -3.10565 0
M  V30 12553 C 1205.32 -2.08042 -1.83341 0
M  V30 12554 H 1208.27 -1.44688 -0.651993 0
M  V30 12555 H 1208.29 -1.80558 -3.34931 0
M  V30 12556 H 1207.8 -3.20888 -2.18294 0
M  V30 12557 H 1205.9 -1.15235 -3.54333 0
M  V30 12558 H 1206.02 -3.02902 -3.71197 0
M  V30 12559 H 1204.38 -1.53416 -2.03312 0
M  V30 12560 H 1205.16 -3.10547 -1.46339 0
M  V30 12561 N 1207.61 1.06304 -1.1635 0
M  V30 12562 C 1208.57 2.11947 -0.872419 0
M  V30 12563 C 1209.57 1.60253 0.132534 0
M  V30 12564 O 1210.76 1.73922 -0.0983441 0
M  V30 12565 C 1207.89 3.39536 -0.304646 0
M  V30 12566 H 1209.09 2.39201 -1.80894 0
M  V30 12567 H 1206.64 1.22367 -0.972419 0
M  V30 12568 H 1207.37 3.17931 0.639565 0
M  V30 12569 H 1207.16 3.78363 -1.02878 0
M  V30 12570 H 1208.65 4.17431 -0.118936 0
M  V30 12571 N 1209.09 0.96196 1.24836 0
M  V30 12572 C 1210.03 0.479282 2.27609 0
M  V30 12573 C 1211.03 -0.454224 1.63197 0
M  V30 12574 O 1212.23 -0.330146 1.76946 0
M  V30 12575 H 1208.61 0.13651 0.739506 0
M  V30 12576 H 1210.58 1.35817 2.657 0
M  V30 12577 C 1209.33 -0.220499 3.47 0
M  V30 12578 H 1208.65 0.488694 3.96802 0
M  V30 12579 H 1210.09 -0.522137 4.20773 0
M  V30 12580 C 1208.55 -1.44552 3.04313 0
M  V30 12581 O 1209.08 -2.54287 3.10967 0
M  V30 12582 N 1207.29 -1.3095 2.59423 0
M  V30 12583 H 1206.83 -0.416656 2.54208 0
M  V30 12584 H 1206.79 -2.13029 2.31227 0
M  V30 12585 N 1210.56 -1.39601 0.731392 0
M  V30 12586 C 1211.97 -1.83424 0.348194 0
M  V30 12587 C 1212.33 -1.61106 -1.11979 0
M  V30 12588 O 1211.45 -1.1003 -1.86339 0
M  V30 12589 C 1212.05 -3.32982 0.6252 0
M  V30 12590 C 1210.6 -3.75238 0.295536 0
M  V30 12591 C 1209.75 -2.62642 0.88964 0
M  V30 12592 H 1212.7 -1.28644 0.929318 0
M  V30 12593 H 1212.72 -3.80357 -0.104254 0
M  V30 12594 H 1212.24 -3.49193 1.69368 0
M  V30 12595 H 1210.34 -3.64615 -0.767254 0
M  V30 12596 H 1210.45 -4.72781 0.775576 0
M  V30 12597 H 1208.81 -2.52726 0.316529 0
M  V30 12598 H 1209.6 -2.81661 1.96271 0
M  V30 12599 N 1212.04 -0.478751 -1.50152 0
M  V30 12600 C 1213.29 0.073585 -2.02366 0
M  V30 12601 C 1213.62 1.3903 -1.36018 0
M  V30 12602 O 1212.87 1.89787 -0.477435 0
M  V30 12603 C 1213.17 0.297535 -3.56159 0
M  V30 12604 C 1212.84 -0.938419 -4.41027 0
M  V30 12605 C 1211.5 -1.27727 -4.63939 0
M  V30 12606 C 1213.85 -1.76098 -4.9055 0
M  V30 12607 C 1211.18 -2.4386 -5.33619 0
M  V30 12608 C 1213.53 -2.91366 -5.61506 0
M  V30 12609 C 1212.2 -3.25657 -5.8267 0
M  V30 12610 H 1211.47 0.0269267 -0.740511 0
M  V30 12611 H 1214.11 -0.63439 -1.80687 0
M  V30 12612 H 1212.42 1.08783 -3.76395 0
M  V30 12613 H 1214.11 0.73899 -3.94132 0
M  V30 12614 H 1210.7 -0.664441 -4.23418 0
M  V30 12615 H 1214.89 -1.51237 -4.72696 0
M  V30 12616 H 1210.14 -2.70692 -5.48211 0
M  V30 12617 H 1214.32 -3.55445 -5.98859 0
M  V30 12618 H 1211.95 -4.15751 -6.36439 0
M  V30 12619 N 1213.52 1.56172 -0.211661 0
M  V30 12620 C 1214.45 2.17107 0.734657 0
M  V30 12621 C 1215.47 1.1374 1.16478 0
M  V30 12622 O 1216.65 1.40763 1.09764 0
M  V30 12623 C 1213.75 2.73182 2.00561 0
M  V30 12624 C 1212.93 4.0162 1.73264 0
M  V30 12625 C 1211.99 4.42357 2.84968 0
M  V30 12626 O 1211.01 5.09453 2.53863 0
M  V30 12627 N 1212.21 4.07223 4.13702 0
M  V30 12628 H 1214.98 2.98939 0.213475 0
M  V30 12629 H 1212.54 1.61872 -0.0302898 0
M  V30 12630 H 1214.53 2.97411 2.74461 0
M  V30 12631 H 1213.1 1.9571 2.43754 0
M  V30 12632 H 1212.32 3.85351 0.830575 0
M  V30 12633 H 1213.61 4.85426 1.52445 0
M  V30 12634 H 1213.01 3.53286 4.4182 0
M  V30 12635 H 1211.57 4.36366 4.84178 0
M  V30 12636 N 1215 -0.0618163 1.57479 0
M  V30 12637 C 1216.25 -0.757569 1.87364 0
M  V30 12638 C 1216.57 -1.77607 0.805025 0
M  V30 12639 O 1215.84 -1.95202 -0.165216 0
M  V30 12640 H 1214.42 -0.28278 0.691408 0
M  V30 12641 H 1217.08 -0.0355354 1.94868 0
M  V30 12642 H 1216.18 -1.26758 2.85199 0
M  V30 12643 N 1216.48 -1.54033 -0.333429 0
M  V30 12644 C 1217.72 -1.71426 -1.0704 0
M  V30 12645 C 1218.05 -0.485496 -1.8886 0
M  V30 12646 O 1217.32 0.500555 -1.89397 0
M  V30 12647 H 1215.9 -0.632034 -0.398173 0
M  V30 12648 H 1218.56 -1.91312 -0.372252 0
M  V30 12649 H 1217.65 -2.58958 -1.74205 0
M  V30 12650 N 1217.95 0.594978 -1.45938 0
M  V30 12651 C 1219.37 1.17703 -1.44924 0
M  V30 12652 C 1219.72 1.9534 -0.183522 0
M  V30 12653 O 1218.84 2.04276 0.714163 0
M  V30 12654 C 1219.44 2.14119 -2.62561 0
M  V30 12655 C 1218 2.67674 -2.64627 0
M  V30 12656 C 1217.14 1.43312 -2.37397 0
M  V30 12657 H 1220.09 0.383583 -1.53995 0
M  V30 12658 H 1220.11 2.97374 -2.3738 0
M  V30 12659 H 1219.63 1.57586 -3.54667 0
M  V30 12660 H 1217.73 3.28111 -1.76562 0
M  V30 12661 H 1217.84 3.11246 -3.64229 0
M  V30 12662 H 1216.2 1.72702 -1.87206 0
M  V30 12663 H 1216.99 0.886276 -3.31663 0
M  V30 12664 N 1219.43 1.33438 0.838571 0
M  V30 12665 C 1220.36 1.19552 1.9555 0
M  V30 12666 C 1221.38 0.12642 1.62308 0
M  V30 12667 O 1222.57 0.376868 1.74476 0
M  V30 12668 C 1219.67 0.811273 3.29046 0
M  V30 12669 C 1218.84 1.97207 3.9042 0
M  V30 12670 C 1217.9 1.56875 5.02271 0
M  V30 12671 O 1216.92 2.28314 5.21403 0
M  V30 12672 N 1218.13 0.473924 5.78562 0
M  V30 12673 H 1220.89 2.15769 2.07999 0
M  V30 12674 H 1218.45 1.26187 1.01432 0
M  V30 12675 H 1220.44 0.523553 4.01299 0
M  V30 12676 H 1219.01 -0.0602291 3.12542 0
M  V30 12677 H 1218.23 2.4254 3.10754 0
M  V30 12678 H 1219.52 2.74878 4.28158 0
M  V30 12679 H 1218.92 -0.120306 5.65572 0
M  V30 12680 H 1217.48 0.245877 6.51336 0
M  V30 12681 N 1220.91 -1.05686 1.16912 0
M  V30 12682 C 1222.19 -1.7546 0.864483 0
M  V30 12683 C 1222.57 -2.0128 -0.636359 0
M  V30 12684 O 1221.92 -1.64485 -1.58609 0
M  V30 12685 C 1222.13 -3.05134 1.69395 0
M  V30 12686 C 1223.47 -3.79176 1.91079 0
M  V30 12687 O 1224.5 -3.1499 1.66312 0
M  V30 12688 O 1223.36 -4.94496 2.32671 0
M  V30 12689 H 1220.45 -0.762748 0.319601 0
M  V30 12690 H 1223 -1.11899 1.27581 0
M  V30 12691 H 1221.77 -2.82063 2.71212 0
M  V30 12692 H 1221.39 -3.76431 1.28007 0
M  V30 12693 N 1222.39 -0.968567 -1.24324 0
M  V30 12694 C 1223.63 -0.63879 -1.94162 0
M  V30 12695 C 1223.99 0.81112 -1.74025 0
M  V30 12696 O 1225.19 1.25116 -2.37906 0
M  V30 12697 C 1223.46 -1.00432 -3.42999 0
M  V30 12698 S 1225.02 -0.789227 -4.31644 0
M  V30 12699 H 1221.84 -0.234322 -0.671278 0
M  V30 12700 H 1224.44 -1.2457 -1.50673 0
M  V30 12701 H 1223.15 -2.05643 -3.55161 0
M  V30 12702 H 1222.68 -0.388221 -3.9148 0
M  V30 12703 H 1224.69 0.332976 -4.95082 0
M  V30 12704 N 1223.87 1.39211 -0.738786 0
M  V30 12705 C 1225.28 1.54116 -0.414773 0
M  V30 12706 C 1225.48 1.70497 1.07392 0
M  V30 12707 O 1224.54 1.7076 1.86003 0
M  V30 12708 C 1225.85 2.7567 -1.2011 0
M  V30 12709 C 1227.4 2.89508 -1.1897 0
M  V30 12710 C 1227.87 4.14005 -1.95868 0
M  V30 12711 N 1229.37 4.21052 -1.93053 0
M  V30 12712 C 1230.1 5.16341 -2.49358 0
M  V30 12713 N 1229.6 6.17396 -3.14316 0
M  V30 12714 N 1231.39 5.08585 -2.3937 0
M  V30 12715 H 1223.54 1.26827 -1.70378 0
M  V30 12716 H 1225.8 0.614983 -0.721457 0
M  V30 12717 H 1225.51 2.69922 -2.25467 0
M  V30 12718 H 1225.38 3.68443 -0.808065 0
M  V30 12719 H 1227.77 2.94747 -0.144248 0
M  V30 12720 H 1227.85 1.97788 -1.62214 0
M  V30 12721 H 1227.5 4.09527 -3.00416 0
M  V30 12722 H 1227.43 5.04776 -1.50028 0
M  V30 12723 H 1229.92 3.48669 -1.45733 0
M  V30 12724 H 1230.23 6.86572 -3.54737 0
M  V30 12725 H 1228.57 6.17772 -3.18407 0
M  V30 12726 H 1231.77 4.28573 -1.88262 0
M  V30 12727 H 1231.94 5.8267 -2.83549 0
M  V30 12728 N 1225.34 0.486708 1.49896 0
M  V30 12729 C 1226.31 -0.288126 2.27382 0
M  V30 12730 C 1227.31 -0.906675 1.32801 0
M  V30 12731 O 1228.5 -0.773425 1.56089 0
M  V30 12732 C 1225.63 -1.41194 3.10285 0
M  V30 12733 H 1226.82 0.391618 2.97332 0
M  V30 12734 H 1224.38 0.24123 1.54427 0
M  V30 12735 H 1225.11 -2.12627 2.44868 0
M  V30 12736 H 1224.9 -0.974033 3.79809 0
M  V30 12737 H 1226.39 -1.95812 3.68846 0
M  V30 12738 N 1226.82 -1.56058 0.219941 0
M  V30 12739 C 1227.76 -2.17494 -0.723133 0
M  V30 12740 C 1228.77 -1.14356 -1.15873 0
M  V30 12741 O 1229.96 -1.41343 -1.09016 0
M  V30 12742 C 1227.06 -2.74242 -1.99109 0
M  V30 12743 C 1226.23 -4.02533 -1.71132 0
M  V30 12744 C 1225.29 -4.43862 -2.82618 0
M  V30 12745 O 1224.32 -5.10792 -2.51157 0
M  V30 12746 N 1225.52 -4.09412 -4.11537 0
M  V30 12747 H 1228.28 -2.99048 -0.197619 0
M  V30 12748 H 1225.84 -1.61853 0.0388738 0
M  V30 12749 H 1227.84 -2.98862 -2.7288 0
M  V30 12750 H 1226.41 -1.97 -2.42713 0
M  V30 12751 H 1225.63 -3.85786 -0.810128 0
M  V30 12752 H 1226.91 -4.86227 -1.49868 0
M  V30 12753 H 1226.31 -3.55624 -4.39941 0
M  V30 12754 H 1224.87 -4.38928 -4.81857 0
M  V30 12755 N 1228.3 0.053464 -1.57509 0
M  V30 12756 C 1229.53 0.761533 -1.92375 0
M  V30 12757 C 1229.94 1.70179 -0.817585 0
M  V30 12758 O 1229.3 1.81313 0.207843 0
M  V30 12759 C 1229.35 1.53954 -3.27078 0
M  V30 12760 O 1229.07 0.637054 -4.33443 0
M  V30 12761 C 1230.57 2.34697 -3.76075 0
M  V30 12762 H 1227.79 0.215483 -0.635459 0
M  V30 12763 H 1230.34 0.0182624 -2.04492 0
M  V30 12764 H 1228.49 2.23492 -3.16434 0
M  V30 12765 H 1228.91 1.18006 -5.11053 0
M  V30 12766 H 1230.38 2.84716 -4.72906 0
M  V30 12767 H 1230.86 3.15041 -3.06016 0
M  V30 12768 H 1231.46 1.70281 -3.89724 0
M  V30 12769 N 1229.78 1.54207 0.325255 0
M  V30 12770 C 1230.73 1.83474 1.40021 0
M  V30 12771 C 1231.7 0.681719 1.51466 0
M  V30 12772 O 1232.88 0.92798 1.66713 0
M  V30 12773 C 1230.02 2.06624 2.76407 0
M  V30 12774 C 1229.13 3.3431 2.73607 0
M  V30 12775 C 1228.27 3.4743 4.01828 0
M  V30 12776 C 1227.31 4.68997 3.93329 0
M  V30 12777 N 1226.45 4.79052 5.13277 0
M  V30 12778 H 1231.29 2.75182 1.14363 0
M  V30 12779 H 1228.82 1.36284 0.553639 0
M  V30 12780 H 1230.78 2.18037 3.5569 0
M  V30 12781 H 1229.41 1.18209 3.00377 0
M  V30 12782 H 1228.46 3.31643 1.86324 0
M  V30 12783 H 1229.77 4.237 2.6321 0
M  V30 12784 H 1228.93 3.58376 4.89542 0
M  V30 12785 H 1227.67 2.56128 4.1503 0
M  V30 12786 H 1226.67 4.58109 3.04 0
M  V30 12787 H 1227.9 5.61681 3.81695 0
M  V30 12788 H 1225.84 3.90666 5.26988 0
M  V30 12789 H 1225.76 5.62406 5.05208 0
M  V30 12790 H 1227.03 4.94328 6.02711 0
M  V30 12791 N 1231.26 -0.58723 1.46251 0
M  V30 12792 C 1232.53 -1.34727 1.41802 0
M  V30 12793 C 1232.91 -2.10867 0.0991354 0
M  V30 12794 O 1232.26 -2.09194 -0.919242 0
M  V30 12795 C 1232.47 -2.27706 2.64482 0
M  V30 12796 C 1233.82 -2.89678 3.10438 0
M  V30 12797 O 1234.84 -2.38021 2.64999 0
M  V30 12798 O 1233.7 -3.83493 3.89352 0
M  V30 12799 H 1230.8 -0.605119 0.563702 0
M  V30 12800 H 1233.34 -0.608623 1.5841 0
M  V30 12801 H 1232.12 -1.70842 3.52035 0
M  V30 12802 H 1231.74 -3.08918 2.50311 0
M  V30 12803 N 1232.74 -1.33881 -0.831482 0
M  V30 12804 C 1233.67 -1.19089 -1.94661 0
M  V30 12805 C 1234.65 -0.0845706 -1.6238 0
M  V30 12806 O 1235.83 -0.248163 -1.86859 0
M  V30 12807 C 1232.96 -0.828223 -3.28418 0
M  V30 12808 C 1232 -1.94309 -3.79666 0
M  V30 12809 S 1232.84 -3.55524 -4.00454 0
M  V30 12810 C 1233.99 -3.21279 -5.3715 0
M  V30 12811 H 1234.23 -2.13484 -2.0691 0
M  V30 12812 H 1231.76 -1.18809 -0.986098 0
M  V30 12813 H 1233.72 -0.625759 -4.05702 0
M  V30 12814 H 1232.38 0.0972457 -3.13949 0
M  V30 12815 H 1231.57 -1.64288 -4.76472 0
M  V30 12816 H 1231.17 -2.1026 -3.093 0
M  V30 12817 H 1233.46 -2.72563 -6.20255 0
M  V30 12818 H 1234.41 -4.17193 -5.7215 0
M  V30 12819 H 1234.82 -2.57683 -5.02255 0
M  V30 12820 N 1234.21 1.05064 -1.1747 0
M  V30 12821 C 1235.46 1.77737 -0.961979 0
M  V30 12822 C 1235.78 1.88198 0.510551 0
M  V30 12823 O 1235.05 1.39968 1.37062 0
M  V30 12824 H 1233.63 0.658366 -0.352935 0
M  V30 12825 H 1236.29 1.26851 -1.47969 0
M  V30 12826 H 1235.39 2.79368 -1.39141 0
M  V30 12827 N 1235.69 0.975146 1.23809 0
M  V30 12828 C 1236.65 0.516157 2.23312 0
M  V30 12829 C 1237.65 -0.39136 1.55965 0
M  V30 12830 O 1238.84 -0.185783 1.73206 0
M  V30 12831 C 1235.98 -0.251534 3.39971 0
M  V30 12832 H 1237.17 1.3959 2.65433 0
M  V30 12833 H 1234.72 0.760493 1.36551 0
M  V30 12834 H 1235.46 -1.14805 3.03299 0
M  V30 12835 H 1235.24 0.399825 3.90056 0
M  V30 12836 H 1236.73 -0.561438 4.13809 0
M  V30 12837 N 1237.17 -1.38817 0.746158 0
M  V30 12838 C 1238.1 -2.29081 0.0737986 0
M  V30 12839 C 1239.11 -1.47377 -0.691656 0
M  V30 12840 O 1240.3 -1.70326 -0.533973 0
M  V30 12841 C 1237.4 -3.26185 -0.919607 0
M  V30 12842 C 1236.58 -4.36879 -0.213349 0
M  V30 12843 C 1235.64 -5.1422 -1.11644 0
M  V30 12844 O 1234.66 -5.66137 -0.589747 0
M  V30 12845 N 1235.86 -5.26488 -2.44521 0
M  V30 12846 H 1238.63 -2.87424 0.848966 0
M  V30 12847 H 1236.19 -1.50518 0.596314 0
M  V30 12848 H 1238.18 -3.74802 -1.52662 0
M  V30 12849 H 1236.75 -2.68793 -1.5959 0
M  V30 12850 H 1235.97 -3.89994 0.574285 0
M  V30 12851 H 1237.26 -5.08053 0.275655 0
M  V30 12852 H 1236.66 -4.85846 -2.89777 0
M  V30 12853 H 1235.21 -5.78505 -3.00291 0
M  V30 12854 N 1238.65 -0.49465 -1.49636 0
M  V30 12855 C 1239.61 0.276064 -2.27531 0
M  V30 12856 C 1240.61 0.899619 -1.3328 0
M  V30 12857 O 1241.8 0.765136 -1.56497 0
M  V30 12858 C 1238.93 1.39547 -3.1103 0
M  V30 12859 H 1240.13 -0.407381 -2.9712 0
M  V30 12860 H 1237.68 -0.249416 -1.54297 0
M  V30 12861 H 1238.41 2.11326 -2.45992 0
M  V30 12862 H 1238.2 0.953877 -3.8032 0
M  V30 12863 H 1239.69 1.93853 -3.69879 0
M  V30 12864 N 1240.13 1.55939 -0.228214 0
M  V30 12865 C 1241.54 1.84612 0.278417 0
M  V30 12866 C 1241.89 1.14973 1.58983 0
M  V30 12867 O 1241.01 0.421673 2.12252 0
M  V30 12868 C 1241.61 3.3491 0.511935 0
M  V30 12869 C 1240.17 3.63876 0.962861 0
M  V30 12870 C 1239.31 2.77284 0.0296246 0
M  V30 12871 H 1242.26 1.52149 -0.451245 0
M  V30 12872 H 1242.29 3.55477 1.35707 0
M  V30 12873 H 1241.8 3.85567 -0.442697 0
M  V30 12874 H 1239.9 3.18682 1.93062 0
M  V30 12875 H 1240.01 4.71809 0.832659 0
M  V30 12876 H 1238.38 2.48961 0.53763 0
M  V30 12877 H 1239.16 3.30742 -0.920044 0
M  V30 12878 N 1241.6 -0.0451101 1.57535 0
M  V30 12879 C 1242.85 -0.734819 1.89663 0
M  V30 12880 C 1243.21 -1.73814 0.82502 0
M  V30 12881 O 1242.5 -1.90861 -0.168067 0
M  V30 12882 C 1242.69 -1.45938 3.26247 0
M  V30 12883 C 1242.52 -0.52775 4.46593 0
M  V30 12884 C 1241.29 -0.154735 5.05063 0
M  V30 12885 C 1243.49 0.187025 5.1396 0
M  V30 12886 N 1241.47 0.77983 6.08927 0
M  V30 12887 C 1242.84 0.977812 6.12241 0
M  V30 12888 C 1244.9 0.255673 4.97243 0
M  V30 12889 C 1243.6 1.83091 6.95608 0
M  V30 12890 C 1245.63 1.09584 5.81159 0
M  V30 12891 C 1244.99 1.8746 6.78998 0
M  V30 12892 H 1241.09 -0.243486 0.743128 0
M  V30 12893 H 1243.67 0.00462003 1.94699 0
M  V30 12894 H 1241.84 -2.16938 3.22169 0
M  V30 12895 H 1243.57 -2.10021 3.45938 0
M  V30 12896 H 1240.33 -0.513447 4.70809 0
M  V30 12897 H 1240.75 1.24114 6.65526 0
M  V30 12898 H 1245.4 -0.332093 4.21494 0
M  V30 12899 H 1243.11 2.42954 7.70713 0
M  V30 12900 H 1246.7 1.15228 5.70275 0
M  V30 12901 H 1245.58 2.51422 7.42803 0
M  V30 12902 N 1243.08 -1.54377 -0.317073 0
M  V30 12903 C 1244.33 -1.73149 -1.05581 0
M  V30 12904 C 1244.66 -0.507176 -1.8746 0
M  V30 12905 O 1243.94 0.495837 -1.88074 0
M  V30 12906 C 1244.22 -3.01098 -1.97515 0
M  V30 12907 C 1244.07 -4.33794 -1.18922 0
M  V30 12908 C 1245.39 -3.24831 -2.9694 0
M  V30 12909 H 1242.51 -0.630011 -0.382434 0
M  V30 12910 H 1245.15 -1.87079 -0.331873 0
M  V30 12911 H 1243.3 -2.89352 -2.59244 0
M  V30 12912 H 1244.97 -4.57433 -0.596039 0
M  V30 12913 H 1243.22 -4.31005 -0.491612 0
M  V30 12914 H 1243.89 -5.19554 -1.86462 0
M  V30 12915 H 1246.36 -3.3608 -2.45335 0
M  V30 12916 H 1245.24 -4.15702 -3.58445 0
M  V30 12917 H 1245.5 -2.42365 -3.69745 0
M  V30 12918 N 1244.56 0.579466 -1.4656 0
M  V30 12919 C 1245.97 1.1616 -1.46164 0
M  V30 12920 C 1246.32 1.95134 -0.20423 0
M  V30 12921 O 1245.45 2.05022 0.692457 0
M  V30 12922 C 1246.04 2.11322 -2.64818 0
M  V30 12923 C 1244.6 2.64852 -2.67452 0
M  V30 12924 C 1243.75 1.40786 -2.38903 0
M  V30 12925 H 1246.7 0.367229 -1.54393 0
M  V30 12926 H 1246.72 2.94839 -2.4052 0
M  V30 12927 H 1246.23 1.53815 -3.56318 0
M  V30 12928 H 1244.33 3.26219 -1.80032 0
M  V30 12929 H 1244.45 3.07366 -3.67509 0
M  V30 12930 H 1242.81 1.70707 -1.89027 0
M  V30 12931 H 1243.59 0.851049 -3.32584 0
M  V30 12932 N 1246.04 1.3432 0.824371 0
M  V30 12933 C 1246.95 1.27847 1.96704 0
M  V30 12934 C 1247.96 0.18641 1.72999 0
M  V30 12935 O 1249.14 0.412623 1.97128 0
M  V30 12936 C 1246.21 1.03231 3.30975 0
M  V30 12937 C 1245.27 2.21579 3.67697 0
M  V30 12938 C 1244.5 1.98128 4.95561 0
M  V30 12939 O 1244.72 0.938798 5.62621 0
M  V30 12940 O 1243.66 2.85041 5.30128 0
M  V30 12941 H 1247.48 2.23974 2.05108 0
M  V30 12942 H 1245.07 1.14512 0.959554 0
M  V30 12943 H 1246.95 0.912784 4.11395 0
M  V30 12944 H 1245.62 0.101425 3.23541 0
M  V30 12945 H 1244.53 2.3909 2.87727 0
M  V30 12946 H 1245.86 3.13052 3.79815 0
M  V30 12947 N 1247.52 -1.0444 1.18026 0
M  V30 12948 C 1248.48 -2.10532 0.906028 0
M  V30 12949 C 1249.48 -1.60443 -0.107022 0
M  V30 12950 O 1250.67 -1.73744 0.126001 0
M  V30 12951 C 1247.8 -3.39008 0.358625 0
M  V30 12952 H 1248.99 -2.36293 1.84677 0
M  V30 12953 H 1246.55 -1.20805 0.991763 0
M  V30 12954 H 1247.28 -3.18908 -0.588904 0
M  V30 12955 H 1247.07 -3.76678 1.08884 0
M  V30 12956 H 1248.56 -4.17189 0.185331 0
M  V30 12957 N 1248.99 -0.981699 -1.2329 0
M  V30 12958 C 1250.24 -0.650015 -1.91361 0
M  V30 12959 C 1250.56 0.819184 -1.76959 0
M  V30 12960 O 1249.83 1.5861 -1.14977 0
M  V30 12961 H 1248.41 -0.237427 -0.708264 0
M  V30 12962 H 1251.08 -1.24579 -1.49887 0
M  V30 12963 H 1250.17 -0.902772 -2.98758 0
M  V30 12964 N 1250.47 1.3842 -0.753509 0
M  V30 12965 C 1251.88 1.82847 -0.377331 0
M  V30 12966 C 1252.23 1.62867 1.09401 0
M  V30 12967 O 1251.36 1.12981 1.84565 0
M  V30 12968 C 1251.95 3.31945 -0.678095 0
M  V30 12969 C 1250.51 3.7472 -0.355196 0
M  V30 12970 C 1249.66 2.61193 -0.931311 0
M  V30 12971 H 1252.61 1.2715 -0.949667 0
M  V30 12972 H 1252.63 3.80475 0.0437292 0
M  V30 12973 H 1252.14 3.46455 -1.74902 0
M  V30 12974 H 1250.25 3.65789 0.70915 0
M  V30 12975 H 1250.36 4.71487 -0.850693 0
M  V30 12976 H 1248.72 2.5219 -0.356695 0
M  V30 12977 H 1249.51 2.78503 -2.00727 0
M  V30 12978 O 1251.99 0.644204 1.48095 0
M  V30 12979 H 1252.68 0.166962 1.92979 0
M  V30 END ATOM
M  V30 BEGIN BOND
M  V30 END BOND
M  V30 END CTAB
M  END
$$$$
