drugbank_target|P16753 Capsid scaffolding protein (DB01973; DB03963; DB07436)
 OpenBabel12092119523D

  0  0  0     0  0            999 V3000
M  V30 BEGIN CTAB
M  V30 COUNTS 10236 10371 0 0 0
M  V30 BEGIN ATOM
M  V30 1 H -0.908 1.98254 -0.117106 0
M  V30 2 N 0 1.576 0 0
M  V30 3 C 0.933 2.03868 1.02534 0
M  V30 4 C 1.911 0.928543 1.3348 0
M  V30 5 O 3.095 1.19667 1.45644 0
M  V30 6 C 0.222 2.43627 2.35294 0
M  V30 7 C -0.732 3.65373 2.2001 0
M  V30 8 S 0.101 5.13292 1.52614 0
M  V30 9 C 1.257 5.56322 2.86805 0
M  V30 10 H 1.49 2.90518 0.631377 0
M  V30 11 H -0.977 1.52953 0.210867 0
M  V30 12 H 0.981 2.67203 3.11629 0
M  V30 13 H -0.358 1.57376 2.7183 0
M  V30 14 H -1.165 3.90944 3.18086 0
M  V30 15 H -1.563 3.418 1.51819 0
M  V30 16 H 0.729 5.58782 3.83104 0
M  V30 17 H 1.672 6.56266 2.65933 0
M  V30 18 H 2.08 4.83886 2.90714 0
M  V30 19 N 1.4781 -0.272755 1.55222 0
M  V30 20 C 2.7061 -1.02255 1.79865 0
M  V30 21 C 3.1211 -1.79924 0.572088 0
M  V30 22 O 2.4781 -1.76638 -0.458842 0
M  V30 23 C 2.5291 -1.98094 3.02392 0
M  V30 24 O 2.2501 -1.23572 4.20311 0
M  V30 25 C 3.7511 -2.84884 3.39641 0
M  V30 26 H 0.9711 -0.302057 0.599168 0
M  V30 27 H 3.5151 -0.303465 2.02236 0
M  V30 28 H 1.6701 -2.65465 2.82147 0
M  V30 29 H 2.0841 -1.88172 4.89583 0
M  V30 30 H 3.5581 -3.47927 4.28545 0
M  V30 31 H 4.0351 -3.54665 2.59055 0
M  V30 32 H 4.6411 -2.23003 3.62146 0
M  V30 33 N 2.9562 -1.48159 -0.537278 0
M  V30 34 C 3.8892 -1.567 -1.65893 0
M  V30 35 C 4.8672 -0.41787 -1.57139 0
M  V30 36 O 6.0512 -0.628461 -1.77715 0
M  V30 37 C 3.1782 -1.48818 -3.04255 0
M  V30 38 C 2.2242 -2.68482 -3.31391 0
M  V30 39 S 3.0572 -4.30516 -3.1846 0
M  V30 40 C 4.2132 -4.2522 -4.59281 0
M  V30 41 H 4.4462 -2.5159 -1.58397 0
M  V30 42 H 1.9792 -1.36602 -0.719672 0
M  V30 43 H 3.9372 -1.44958 -3.84054 0
M  V30 44 H 2.5982 -0.552777 -3.09198 0
M  V30 45 H 1.7912 -2.59085 -4.32309 0
M  V30 46 H 1.3932 -2.69567 -2.59248 0
M  V30 47 H 3.6852 -3.94703 -5.5065 0
M  V30 48 H 4.6282 -5.26292 -4.73732 0
M  V30 49 H 5.0362 -3.55791 -4.38261 0
M  V30 50 N 4.4343 0.785586 -1.36625 0
M  V30 51 C 5.7113 1.53198 -1.21613 0
M  V30 52 C 6.0913 2.10187 0.196113 0
M  V30 53 O 5.4393 1.94318 1.20219 0
M  V30 54 C 5.6493 2.62388 -2.30116 0
M  V30 55 C 6.9973 3.30167 -2.66974 0
M  V30 56 O 8.0213 2.72674 -2.29188 0
M  V30 57 O 6.8803 4.34077 -3.32023 0
M  V30 58 H 3.9743 0.677865 -0.473738 0
M  V30 59 H 6.5203 0.823739 -1.48367 0
M  V30 60 H 5.2923 2.18299 -3.24748 0
M  V30 61 H 4.9153 3.40827 -2.0475 0
M  V30 62 N 5.9124 1.20967 1.01018 0
M  V30 63 C 6.8224 0.980157 2.13143 0
M  V30 64 C 7.8384 -0.0660665 1.73875 0
M  V30 65 O 9.0144 0.122821 2.01025 0
M  V30 66 C 6.0794 0.54216 3.42435 0
M  V30 67 C 5.1404 1.65999 3.95908 0
M  V30 68 C 4.3734 1.2428 5.19028 0
M  V30 69 O 4.5964 0.114196 5.70286 0
M  V30 70 O 3.5304 2.05271 5.65816 0
M  V30 71 H 7.3564 1.91913 2.35379 0
M  V30 72 H 4.9414 0.994099 1.11526 0
M  V30 73 H 6.8234 0.30744 4.20277 0
M  V30 74 H 5.4984 -0.36815 3.216 0
M  V30 75 H 4.4054 1.94906 3.19316 0
M  V30 76 H 5.7384 2.54753 4.21143 0
M  V30 77 N 7.3905 -1.2043 1.01659 0
M  V30 78 C 8.3225 -2.22626 0.544988 0
M  V30 79 C 9.3355 -1.58479 -0.372609 0
M  V30 80 O 10.5245 -1.77679 -0.170958 0
M  V30 81 C 7.6245 -3.38141 -0.22663 0
M  V30 82 C 6.7975 -4.31877 0.692876 0
M  V30 83 C 5.8565 -5.26191 -0.0311616 0
M  V30 84 O 4.8825 -5.6612 0.591343 0
M  V30 85 N 6.0845 -5.65618 -1.30601 0
M  V30 86 H 8.8495 -2.63716 1.42388 0
M  V30 87 H 6.4105 -1.34971 0.894116 0
M  V30 88 H 8.4025 -3.98239 -0.72024 0
M  V30 89 H 6.9725 -2.95943 -1.00681 0
M  V30 90 H 6.1925 -3.69746 1.36679 0
M  V30 91 H 7.4805 -4.91426 1.31824 0
M  V30 92 H 6.8785 -5.3519 -1.83269 0
M  V30 93 H 5.4355 -6.28025 -1.74435 0
M  V30 94 N 8.8686 -0.792821 -1.36206 0
M  V30 95 C 9.8006 -0.151469 -2.28699 0
M  V30 96 C 10.8136 0.641262 -1.49638 0
M  V30 97 O 12.0026 0.475885 -1.72039 0
M  V30 98 C 9.1026 0.808424 -3.29117 0
M  V30 99 C 8.2756 0.0650202 -4.37352 0
M  V30 100 C 7.3346 0.941358 -5.17711 0
M  V30 101 O 6.3606 0.397352 -5.67811 0
M  V30 102 N 7.5626 2.2652 -5.3448 0
M  V30 103 H 10.3276 -0.945982 -2.84379 0
M  V30 104 H 7.8886 -0.647032 -1.48409 0
M  V30 105 H 9.8806 1.3986 -3.79765 0
M  V30 106 H 8.4506 1.5038 -2.74052 0
M  V30 107 H 7.6706 -0.706255 -3.87822 0
M  V30 108 H 8.9586 -0.447847 -5.06825 0
M  V30 109 H 8.3566 2.73128 -4.95396 0
M  V30 110 H 6.9136 2.80493 -5.88359 0
M  V30 111 N 10.3467 1.47872 -0.545128 0
M  V30 112 C 11.5717 2.07391 -0.0190611 0
M  V30 113 C 11.9967 1.39688 1.25971 0
M  V30 114 O 11.3547 0.467816 1.7516 0
M  V30 115 C 11.4027 3.60188 0.172335 0
M  V30 116 O 10.5067 3.9339 1.23766 0
M  V30 117 H 9.8477 0.662411 -0.0459059 0
M  V30 118 H 12.3777 1.90066 -0.757365 0
M  V30 119 H 12.3877 4.06129 0.390305 0
M  V30 120 H 11.0627 4.08865 -0.761725 0
M  V30 121 H 9.6397 3.5921 1.00114 0
M  V30 122 N 11.8248 0.280983 1.55075 0
M  V30 123 C 12.7568 -0.637268 2.20163 0
M  V30 124 C 13.7698 -1.11298 1.18813 0
M  V30 125 O 14.9588 -1.03388 1.4551 0
M  V30 126 C 12.0588 -1.88199 2.81841 0
M  V30 127 C 11.2318 -1.55211 4.08936 0
M  V30 128 C 10.2908 -2.64991 4.54606 0
M  V30 129 O 9.3168 -2.30929 5.2025 0
M  V30 130 N 10.5188 -3.95161 4.25238 0
M  V30 131 H 13.2838 -0.0801694 2.99593 0
M  V30 132 H 10.8448 0.102329 1.61576 0
M  V30 133 H 12.8368 -2.60948 3.09335 0
M  V30 134 H 11.4068 -2.34799 2.06369 0
M  V30 135 H 10.6268 -0.658185 3.88666 0
M  V30 136 H 11.9148 -1.30681 4.91732 0
M  V30 137 H 11.3128 -4.25653 3.72607 0
M  V30 138 H 9.8698 -4.6427 4.5749 0
M  V30 139 N 13.3029 -1.57598 0.00835791 0
M  V30 140 C 14.2659 -2.07884 -0.965242 0
M  V30 141 C 15.2659 -0.989825 -1.26725 0
M  V30 142 O 16.4559 -1.25218 -1.21104 0
M  V30 143 C 13.5879 -2.52731 -2.28779 0
M  V30 144 H 14.7809 -2.95178 -0.530112 0
M  V30 145 H 12.3339 -1.54458 -0.239283 0
M  V30 146 H 13.0689 -1.68705 -2.76964 0
M  V30 147 H 12.8539 -3.32272 -2.08177 0
M  V30 148 H 14.3439 -2.91933 -2.98605 0
M  V30 149 N 14.781 0.264519 -1.55364 0
M  V30 150 C 16.027 0.99646 -1.76631 0
M  V30 151 C 16.36 1.85632 -0.570478 0
M  V30 152 O 15.635 1.89647 0.43175 0
M  V30 153 C 15.918 1.87187 -3.07625 0
M  V30 154 C 15.771 1.04138 -4.37579 0
M  V30 155 C 17.09 2.85749 -3.34717 0
M  V30 156 H 14.209 0.360841 -0.642622 0
M  V30 157 H 16.851 0.268218 -1.88097 0
M  V30 158 H 15.001 2.49279 -2.9798 0
M  V30 159 H 16.673 0.440517 -4.59192 0
M  V30 160 H 14.916 0.345115 -4.32425 0
M  V30 161 H 15.587 1.68729 -5.2558 0
M  V30 162 H 18.063 2.33793 -3.4421 0
M  V30 163 H 16.939 3.44136 -4.27623 0
M  V30 164 H 17.2 3.61311 -2.54768 0
M  V30 165 N 16.2591 1.48442 0.529413 0
M  V30 166 C 17.2221 1.62524 1.61612 0
M  V30 167 C 18.2221 0.498509 1.52877 0
M  V30 168 O 19.4121 0.76431 1.56537 0
M  V30 169 C 16.5441 1.59597 3.01233 0
M  V30 170 H 17.7371 2.59423 1.50465 0
M  V30 171 H 15.2901 1.37047 0.751514 0
M  V30 172 H 16.0251 0.641781 3.17886 0
M  V30 173 H 15.8101 2.41397 3.08982 0
M  V30 174 H 17.3001 1.72646 3.80241 0
M  V30 175 N 17.7372 -0.778329 1.37039 0
M  V30 176 C 19.1482 -1.35421 1.28523 0
M  V30 177 C 19.4992 -1.96075 -0.0700901 0
M  V30 178 O 18.6242 -1.93352 -0.971801 0
M  V30 179 C 19.2192 -2.46211 2.32735 0
M  V30 180 C 17.7782 -2.99585 2.27873 0
M  V30 181 C 16.9252 -1.72748 2.16918 0
M  V30 182 H 19.8762 -0.5791 1.47757 0
M  V30 183 H 19.8972 -3.2552 1.9702 0
M  V30 184 H 19.4092 -2.02036 3.31365 0
M  V30 185 H 17.5102 -3.48152 1.32745 0
M  V30 186 H 17.6232 -3.55646 3.21018 0
M  V30 187 H 15.9872 -1.95416 1.63354 0
M  V30 188 H 16.7702 -1.30686 3.17452 0
M  V30 189 N 19.2153 -1.21501 -1.00376 0
M  V30 190 C 20.4613 -1.03452 -1.74429 0
M  V30 191 C 20.7943 0.430764 -1.89362 0
M  V30 192 O 20.0693 1.31962 -1.42886 0
M  V30 193 C 20.3523 -1.73375 -3.15615 0
M  V30 194 C 20.2053 -3.27431 -3.08397 0
M  V30 195 C 21.5243 -1.47732 -4.14564 0
M  V30 196 H 18.6433 -0.377226 -0.633143 0
M  V30 197 H 21.2853 -1.49693 -1.17013 0
M  V30 198 H 19.4353 -1.34064 -3.64636 0
M  V30 199 H 21.1073 -3.76119 -2.67081 0
M  V30 200 H 19.3503 -3.5767 -2.45468 0
M  V30 201 H 20.0213 -3.71524 -4.08258 0
M  V30 202 H 22.4973 -1.8186 -3.74254 0
M  V30 203 H 21.3733 -1.99169 -5.11491 0
M  V30 204 H 21.6343 -0.407589 -4.40217 0
M  V30 205 N 20.6934 1.19889 -1.02296 0
M  V30 206 C 21.9234 1.93109 -0.734332 0
M  V30 207 C 22.3314 1.75377 0.709889 0
M  V30 208 O 21.6744 1.06912 1.49384 0
M  V30 209 C 21.7364 3.45362 -0.99827 0
M  V30 210 C 21.4004 3.8686 -2.43287 0
M  V30 211 C 22.3974 3.92102 -3.41397 0
M  V30 212 C 20.0824 4.18668 -2.77529 0
M  V30 213 C 22.0764 4.28573 -4.71809 0
M  V30 214 C 19.7634 4.54813 -4.08153 0
M  V30 215 C 20.7614 4.59739 -5.05103 0
M  V30 216 O 20.4494 4.95051 -6.33388 0
M  V30 217 H 20.1814 0.620409 -0.268456 0
M  V30 218 H 22.7354 1.53144 -1.3688 0
M  V30 219 H 20.9654 3.85482 -0.306645 0
M  V30 220 H 22.6544 3.99814 -0.700234 0
M  V30 221 H 23.4204 3.67685 -3.1628 0
M  V30 222 H 19.2994 4.14021 -2.0275 0
M  V30 223 H 22.8434 4.32333 -5.4748 0
M  V30 224 H 18.7404 4.78687 -4.33047 0
M  V30 225 H 19.5084 5.1302 -6.37772 0
M  V30 226 N 22.1715 0.800033 1.35784 0
M  V30 227 C 23.4175 0.377901 1.99248 0
M  V30 228 C 23.7505 -1.05052 1.63333 0
M  V30 229 O 23.0255 -1.72768 0.893385 0
M  V30 230 C 23.3085 0.553922 3.55814 0
M  V30 231 C 23.1615 2.0268 4.01548 0
M  V30 232 C 24.4805 -0.0244802 4.40093 0
M  V30 233 H 21.5995 0.138782 0.723815 0
M  V30 234 H 24.2415 1.00835 1.61035 0
M  V30 235 H 22.3915 0.0172398 3.88496 0
M  V30 236 H 24.0635 2.62536 3.79305 0
M  V30 237 H 22.3065 2.5256 3.52698 0
M  V30 238 H 22.9775 2.10087 5.10458 0
M  V30 239 H 25.4535 0.433775 4.13833 0
M  V30 240 H 24.3295 0.128637 5.48749 0
M  V30 241 H 24.5905 -1.11758 4.27741 0
M  V30 242 N 23.6496 -1.47581 0.552962 0
M  V30 243 C 24.8976 -2.02082 0.0272703 0
M  V30 244 C 25.2186 -1.4301 -1.32563 0
M  V30 245 O 24.4886 -0.603745 -1.86365 0
M  V30 246 H 23.0686 -0.746966 0.00709182 0
M  V30 247 H 25.7306 -1.81033 0.722008 0
M  V30 248 H 24.8266 -3.12034 -0.0639951 0
M  V30 249 N 25.1277 -0.289203 -1.54924 0
M  V30 250 C 26.3757 0.322879 -1.99504 0
M  V30 251 C 26.6967 1.55313 -1.1791 0
M  V30 252 O 25.9667 1.94001 -0.272097 0
M  V30 253 H 24.5467 0.122291 -0.736922 0
M  V30 254 H 27.2087 -0.397802 -1.90797 0
M  V30 255 H 26.3047 0.603061 -3.06218 0
M  V30 256 N 26.6058 1.57591 -0.0167156 0
M  V30 257 C 27.8528 1.91283 0.664597 0
M  V30 258 C 28.1808 0.891949 1.72842 0
M  V30 259 O 27.4358 -0.100931 1.9544 0
M  V30 260 C 27.7348 3.3172 1.33029 0
M  V30 261 C 27.4008 4.4914 0.398047 0
M  V30 262 C 26.0628 4.80992 0.141421 0
M  V30 263 C 28.4148 5.20634 -0.242825 0
M  V30 264 C 25.7428 5.81703 -0.764092 0
M  V30 265 C 28.0948 6.22311 -1.13632 0
M  V30 266 C 26.7588 6.52611 -1.40196 0
M  V30 267 H 26.0288 0.699956 0.243193 0
M  V30 268 H 28.6758 1.9135 -0.0758267 0
M  V30 269 H 26.9808 3.27856 2.14517 0
M  V30 270 H 28.6778 3.55055 1.86379 0
M  V30 271 H 25.2678 4.24262 0.608238 0
M  V30 272 H 29.4518 4.96267 -0.0576019 0
M  V30 273 H 24.7078 6.03532 -0.977732 0
M  V30 274 H 28.8818 6.76834 -1.63917 0
M  V30 275 H 26.5088 7.30467 -2.10529 0
M  V30 276 N 28.0839 -0.256276 1.55502 0
M  V30 277 C 29.0139 -1.32102 1.92539 0
M  V30 278 C 29.9949 -1.50684 0.789194 0
M  V30 279 O 31.1799 -1.63449 1.04872 0
M  V30 280 C 28.3099 -2.67752 2.21192 0
M  V30 281 C 27.2639 -2.63878 3.36975 0
M  V30 282 C 26.5899 -4.03236 3.51147 0
M  V30 283 C 27.8899 -2.21682 4.72921 0
M  V30 284 H 29.5839 -1.01351 2.81724 0
M  V30 285 H 27.1299 -0.486105 1.35547 0
M  V30 286 H 29.0829 -3.42365 2.45691 0
M  V30 287 H 27.8069 -3.0012 1.28824 0
M  V30 288 H 26.4659 -1.91722 3.12471 0
M  V30 289 H 26.1139 -4.32854 2.56216 0
M  V30 290 H 25.8139 -4.01535 4.29003 0
M  V30 291 H 27.3379 -4.79563 3.77957 0
M  V30 292 H 28.7519 -2.86023 4.96854 0
M  V30 293 H 27.1489 -2.3111 5.53812 0
M  V30 294 H 28.2189 -1.16833 4.70615 0
M  V30 295 N 29.562 -1.4872 -0.521534 0
M  V30 296 C 30.525 -1.63379 -1.60748 0
M  V30 297 C 31.525 -0.50661 -1.52611 0
M  V30 298 O 32.715 -0.772601 -1.5613 0
M  V30 299 C 29.847 -1.61192 -3.00383 0
M  V30 300 H 31.04 -2.60217 -1.49087 0
M  V30 301 H 28.593 -1.37444 -0.744235 0
M  V30 302 H 29.328 -0.65863 -3.17541 0
M  V30 303 H 29.113 -2.43032 -3.07698 0
M  V30 304 H 30.603 -1.7466 -3.7932 0
M  V30 305 N 31.0401 0.771051 -1.3745 0
M  V30 306 C 32.4561 1.07171 -1.18265 0
M  V30 307 C 32.6561 2.01491 -0.019287 0
M  V30 308 O 31.7121 2.44244 0.640408 0
M  V30 309 C 33.0251 1.66854 -2.50161 0
M  V30 310 C 34.5731 1.79109 -2.56689 0
M  V30 311 C 35.0481 2.42205 -3.88717 0
M  V30 312 N 36.5391 2.49655 -3.90162 0
M  V30 313 C 37.2741 2.9933 -4.8907 0
M  V30 314 N 36.7701 3.49172 -5.98374 0
M  V30 315 N 38.5631 2.9821 -4.76474 0
M  V30 316 H 30.7141 0.144796 -2.11906 0
M  V30 317 H 32.9771 0.126863 -0.939473 0
M  V30 318 H 32.6831 1.05017 -3.35655 0
M  V30 319 H 32.5571 2.6614 -2.673 0
M  V30 320 H 34.9441 2.40077 -1.71601 0
M  V30 321 H 35.0251 0.785757 -2.43433 0
M  V30 322 H 34.6691 1.81875 -4.74219 0
M  V30 323 H 34.5991 3.43345 -3.99276 0
M  V30 324 H 37.0901 2.14383 -3.11205 0
M  V30 325 H 37.4031 3.8548 -6.69795 0
M  V30 326 H 35.7481 3.47275 -6.02018 0
M  V30 327 H 38.9391 2.58572 -3.90203 0
M  V30 328 H 39.1121 3.36613 -5.53711 0
M  V30 329 N 32.5182 1.22032 0.997298 0
M  V30 330 C 33.7482 1.06686 1.76923 0
M  V30 331 C 34.1562 -0.385838 1.85224 0
M  V30 332 O 33.4992 -1.27929 1.31833 0
M  V30 333 C 33.5612 1.59802 3.22031 0
M  V30 334 C 33.2252 3.08362 3.37286 0
M  V30 335 C 34.2222 4.05835 3.24952 0
M  V30 336 C 31.9072 3.47727 3.6248 0
M  V30 337 C 33.9012 5.4066 3.37588 0
M  V30 338 C 31.5882 4.82701 3.74757 0
M  V30 339 C 32.5862 5.78977 3.62319 0
M  V30 340 O 32.2742 7.11502 3.74193 0
M  V30 341 H 32.0062 0.374767 0.562606 0
M  V30 342 H 34.5602 1.61991 1.26286 0
M  V30 343 H 32.7902 0.989003 3.73839 0
M  V30 344 H 34.4792 1.40184 3.80924 0
M  V30 345 H 35.2452 3.76766 3.05405 0
M  V30 346 H 31.1242 2.73317 3.7124 0
M  V30 347 H 34.6682 6.15788 3.27796 0
M  V30 348 H 30.5652 5.11453 3.9381 0
M  V30 349 H 31.3332 7.19019 3.91093 0
M  V30 350 N 33.9963 -1.19345 1.0293 0
M  V30 351 C 35.2733 -1.84811 0.640642 0
M  V30 352 C 35.6533 -1.91855 -0.88062 0
M  V30 353 O 35.0013 -1.43587 -1.7775 0
M  V30 354 C 35.2113 -3.23755 1.30321 0
M  V30 355 C 36.5593 -3.99912 1.42673 0
M  V30 356 O 37.5833 -3.33155 1.26041 0
M  V30 357 O 36.4423 -5.19494 1.6967 0
M  V30 358 H 33.5363 -0.796443 0.222726 0
M  V30 359 H 36.0823 -1.26831 1.12748 0
M  V30 360 H 34.8543 -3.13466 2.34211 0
M  V30 361 H 34.4773 -3.89381 0.804261 0
M  V30 362 N 35.4744 -0.807222 -1.35358 0
M  V30 363 C 36.4064 -0.175717 -2.28525 0
M  V30 364 C 37.4194 0.625354 -1.5031 0
M  V30 365 O 38.6084 0.457611 -1.72535 0
M  V30 366 C 35.7084 0.773471 -3.29956 0
M  V30 367 C 34.8814 0.0186296 -4.37396 0
M  V30 368 C 33.9404 0.886395 -5.18681 0
M  V30 369 O 32.9664 0.337106 -5.68201 0
M  V30 370 N 34.1684 2.20839 -5.36852 0
M  V30 371 H 36.9334 -0.976091 -2.83359 0
M  V30 372 H 34.4944 -0.662737 -1.47714 0
M  V30 373 H 36.4864 1.35824 -3.81227 0
M  V30 374 H 35.0564 1.47465 -2.75632 0
M  V30 375 H 34.2764 -0.747349 -3.87051 0
M  V30 376 H 35.5644 -0.501577 -5.06322 0
M  V30 377 H 34.9624 2.67858 -4.98265 0
M  V30 378 H 33.5194 2.74237 -5.91301 0
M  V30 379 N 36.9525 1.47285 -0.560781 0
M  V30 380 C 38.1775 2.07359 -0.0410566 0
M  V30 381 C 38.6025 1.41017 1.24483 0
M  V30 382 O 37.9605 0.486368 1.74654 0
M  V30 383 C 38.0085 3.6035 0.134123 0
M  V30 384 O 37.1125 3.94681 1.19587 0
M  V30 385 H 36.4535 0.661887 -0.0529291 0
M  V30 386 H 38.9835 1.89252 -0.777482 0
M  V30 387 H 38.9935 4.0652 0.347207 0
M  V30 388 H 37.6685 4.08034 -0.805047 0
M  V30 389 H 36.2455 3.60251 0.962987 0
M  V30 390 N 38.4306 0.297415 1.54768 0
M  V30 391 C 39.8416 -0.195947 1.85669 0
M  V30 392 C 40.1926 -1.53707 1.21937 0
M  V30 393 O 39.3176 -2.10164 0.515754 0
M  V30 394 C 39.9126 -0.362318 3.36857 0
M  V30 395 C 38.4716 -0.799901 3.67802 0
M  V30 396 C 37.6186 0.0938578 2.77141 0
M  V30 397 H 40.5696 0.518538 1.4999 0
M  V30 398 H 40.5906 -1.19745 3.61167 0
M  V30 399 H 40.1026 0.613921 3.83214 0
M  V30 400 H 38.2036 -1.78682 3.26961 0
M  V30 401 H 38.3166 -0.621773 4.75048 0
M  V30 402 H 36.6806 -0.426254 2.51108 0
M  V30 403 H 37.4636 1.06639 3.26318 0
M  V30 404 N 39.9087 -1.5758 0.0250728 0
M  V30 405 C 41.1857 -1.82917 -0.692873 0
M  V30 406 C 41.5657 -0.908137 -1.90568 0
M  V30 407 O 40.9137 0.0372298 -2.2847 0
M  V30 408 C 41.1237 -3.32034 -1.07492 0
M  V30 409 C 42.4717 -3.98406 -1.46826 0
M  V30 410 O 43.4957 -3.36505 -1.16801 0
M  V30 411 O 42.3547 -5.07497 -2.02754 0
M  V30 412 H 39.4487 -0.754079 -0.33955 0
M  V30 413 H 41.9947 -1.69619 0.0524456 0
M  V30 414 H 40.7667 -3.90728 -0.211552 0
M  V30 415 H 40.3897 -3.50424 -1.87854 0
M  V30 416 N 41.3868 0.248026 -1.55636 0
M  V30 417 C 42.2968 1.32859 -1.93354 0
M  V30 418 C 43.3128 1.52719 -0.833838 0
M  V30 419 O 44.4888 1.66363 -1.13513 0
M  V30 420 C 41.5538 2.66337 -2.21958 0
M  V30 421 C 40.6148 2.55008 -3.45354 0
M  V30 422 C 39.8478 3.82121 -3.72584 0
M  V30 423 O 40.0708 4.83951 -3.01907 0
M  V30 424 O 39.0048 3.80822 -4.6611 0
M  V30 425 H 42.8308 1.03862 -2.85388 0
M  V30 426 H 40.4158 0.448686 -1.42503 0
M  V30 427 H 42.2978 3.45216 -2.4167 0
M  V30 428 H 40.9728 2.95068 -1.33103 0
M  V30 429 H 39.8798 1.7442 -3.30951 0
M  V30 430 H 41.2128 2.31222 -4.34508 0
M  V30 431 N 42.8649 1.48995 0.513639 0
M  V30 432 C 43.8279 1.64229 1.59879 0
M  V30 433 C 44.8279 0.514696 1.5234 0
M  V30 434 O 46.0179 0.78087 1.55718 0
M  V30 435 C 43.1499 1.62783 2.99524 0
M  V30 436 H 44.3429 2.61004 1.47705 0
M  V30 437 H 41.8959 1.37837 0.736936 0
M  V30 438 H 42.6309 0.675461 3.17188 0
M  V30 439 H 42.4159 2.4466 3.06404 0
M  V30 440 H 43.9059 1.76669 3.78388 0
M  V30 441 N 44.343 -0.763751 1.37857 0
M  V30 442 C 45.253 -1.90817 1.36478 0
M  V30 443 C 46.269 -1.71997 0.263248 0
M  V30 444 O 47.445 -1.95095 0.499979 0
M  V30 445 C 44.51 -3.2605 1.17864 0
M  V30 446 C 43.571 -3.57467 2.3773 0
M  V30 447 C 42.804 -4.86249 2.19995 0
M  V30 448 O 43.027 -5.57884 1.18836 0
M  V30 449 O 41.961 -5.16911 3.08361 0
M  V30 450 H 45.787 -1.94933 2.32884 0
M  V30 451 H 43.372 -0.907619 1.1867 0
M  V30 452 H 45.254 -4.06924 1.09504 0
M  V30 453 H 43.929 -3.22769 0.245372 0
M  V30 454 H 42.836 -2.76796 2.51664 0
M  V30 455 H 44.169 -3.655 3.29652 0
M  V30 456 N 45.8211 -1.22559 -0.990812 0
M  V30 457 C 46.7511 -1.0218 -2.09956 0
M  V30 458 C 47.7321 0.0579394 -1.70001 0
M  V30 459 O 48.9171 -0.104684 -1.93918 0
M  V30 460 C 46.0471 -0.601023 -3.4206 0
M  V30 461 C 45.0011 -1.62694 -3.95872 0
M  V30 462 C 44.3271 -1.06193 -5.24049 0
M  V30 463 C 45.6271 -3.01743 -4.2632 0
M  V30 464 H 47.3211 -1.94916 -2.27262 0
M  V30 465 H 44.8671 -0.938566 -1.09211 0
M  V30 466 H 46.8201 -0.445561 -4.19038 0
M  V30 467 H 45.5441 0.362005 -3.24588 0
M  V30 468 H 44.2031 -1.77021 -3.21028 0
M  V30 469 H 43.8511 -0.0901903 -5.02919 0
M  V30 470 H 43.5511 -1.74732 -5.61019 0
M  V30 471 H 45.0751 -0.918092 -6.03658 0
M  V30 472 H 46.4891 -2.90777 -4.94087 0
M  V30 473 H 44.8861 -3.67425 -4.74467 0
M  V30 474 H 45.9561 -3.51518 -3.34011 0
M  V30 475 N 47.2992 1.18797 -1.03562 0
M  V30 476 C 48.2292 2.24472 -0.643019 0
M  V30 477 C 49.2102 1.66433 0.351283 0
M  V30 478 O 50.3952 1.92803 0.232505 0
M  V30 479 C 47.5252 3.473 4.24935e-05 0
M  V30 480 C 46.4792 4.18055 -0.917257 0
M  V30 481 C 45.8052 5.34519 -0.138941 0
M  V30 482 C 47.1052 4.72109 -2.23407 0
M  V30 483 H 48.7992 2.57566 -1.52643 0
M  V30 484 H 46.3452 1.23806 -0.735394 0
M  V30 485 H 48.2982 4.20426 0.286383 0
M  V30 486 H 47.0222 3.13424 0.918299 0
M  V30 487 H 45.6812 3.46821 -1.1879 0
M  V30 488 H 45.3292 4.96891 0.781562 0
M  V30 489 H 45.0292 5.82794 -0.750005 0
M  V30 490 H 46.5532 6.10438 0.1405 0
M  V30 491 H 47.9672 5.36955 -2.00879 0
M  V30 492 H 46.3642 5.30897 -2.79765 0
M  V30 493 H 47.4342 3.89807 -2.88407 0
M  V30 494 N 48.7773 0.814389 1.34928 0
M  V30 495 C 49.7073 0.244827 2.32213 0
M  V30 496 C 50.6883 -0.634024 1.57842 0
M  V30 497 O 51.8733 -0.562676 1.8587 0
M  V30 498 C 49.0033 -0.601106 3.42058 0
M  V30 499 C 47.9573 0.179896 4.27622 0
M  V30 500 C 47.2833 -0.788237 5.28858 0
M  V30 501 C 48.5833 1.38329 5.03649 0
M  V30 502 H 50.2773 1.05763 2.80097 0
M  V30 503 H 47.8233 0.510029 1.34665 0
M  V30 504 H 49.7763 -1.00968 4.09125 0
M  V30 505 H 48.5003 -1.44688 2.92802 0
M  V30 506 H 47.1593 0.569739 3.62146 0
M  V30 507 H 46.8073 -1.62973 4.75866 0
M  V30 508 H 46.5073 -0.269942 5.8698 0
M  V30 509 H 48.0313 -1.19485 5.98795 0
M  V30 510 H 49.4453 1.04918 5.63618 0
M  V30 511 H 47.8423 1.83662 5.71304 0
M  V30 512 H 48.9123 2.16592 4.33839 0
M  V30 513 N 50.2554 -1.46986 0.568584 0
M  V30 514 C 51.6664 -1.86188 0.138219 0
M  V30 515 C 52.0174 -1.47388 -1.29504 0
M  V30 516 O 51.1424 -0.88219 -1.97602 0
M  V30 517 C 51.7374 -3.3792 0.244065 0
M  V30 518 C 50.2964 -3.76171 -0.131335 0
M  V30 519 C 49.4434 -2.71027 0.586465 0
M  V30 520 H 52.3944 -1.38342 0.777645 0
M  V30 521 H 52.4154 -3.76729 -0.534351 0
M  V30 522 H 51.9274 -3.66128 1.28731 0
M  V30 523 H 50.0284 -3.5358 -1.17526 0
M  V30 524 H 50.1414 -4.78523 0.235146 0
M  V30 525 H 48.5054 -2.54684 0.0282722 0
M  V30 526 H 49.2884 -3.02077 1.63109 0
M  V30 527 N 51.7335 -0.305618 -1.54608 0
M  V30 528 C 53.1495 0.0476228 -1.59529 0
M  V30 529 C 53.3495 1.52025 -1.32252 0
M  V30 530 O 52.4055 2.27368 -1.09818 0
M  V30 531 C 53.7185 -0.354471 -2.98603 0
M  V30 532 C 55.2665 -0.303622 -3.11524 0
M  V30 533 C 55.7415 -0.680608 -4.52915 0
M  V30 534 N 57.2325 -0.63332 -4.5885 0
M  V30 535 C 57.9675 -0.897432 -5.66334 0
M  V30 536 N 57.4635 -1.22775 -6.81834 0
M  V30 537 N 59.2565 -0.824186 -5.56025 0
M  V30 538 H 51.4075 -1.2653 -1.70599 0
M  V30 539 H 53.6705 -0.513291 -0.797017 0
M  V30 540 H 53.3765 -1.3798 -3.23503 0
M  V30 541 H 53.2505 0.289568 -3.76087 0
M  V30 542 H 55.6375 0.712472 -2.8637 0
M  V30 543 H 55.7185 -0.982348 -2.36185 0
M  V30 544 H 55.3625 -1.69453 -4.78799 0
M  V30 545 H 55.2925 0.0202385 -5.26596 0
M  V30 546 H 57.7835 -0.389138 -3.75891 0
M  V30 547 H 58.0965 -1.41513 -7.59733 0
M  V30 548 H 56.4415 -1.26583 -6.83375 0
M  V30 549 H 59.6325 -0.565748 -4.64669 0
M  V30 550 H 59.8055 -1.03338 -6.39707 0
M  V30 551 N 53.2116 1.57565 -0.0334293 0
M  V30 552 C 54.4886 1.83282 0.683163 0
M  V30 553 C 54.8686 0.91823 1.90084 0
M  V30 554 O 54.2166 -0.025113 2.28486 0
M  V30 555 C 54.4266 3.32599 1.0573 0
M  V30 556 C 55.7746 3.99179 1.44711 0
M  V30 557 O 56.7986 3.3712 1.15015 0
M  V30 558 O 55.6576 5.08565 2.0006 0
M  V30 559 H 52.7516 0.755869 0.335546 0
M  V30 560 H 55.2976 1.69589 -0.0614402 0
M  V30 561 H 54.0696 3.90834 0.190828 0
M  V30 562 H 53.6926 3.51415 1.85993 0
M  V30 563 N 54.6897 -0.239769 1.55765 0
M  V30 564 C 55.9357 -0.968234 1.78194 0
M  V30 565 C 56.2687 -1.84701 0.599938 0
M  V30 566 O 55.5437 -1.9031 -0.401524 0
M  V30 567 C 55.8267 -1.8227 3.10564 0
M  V30 568 C 55.6797 -0.971633 4.3918 0
M  V30 569 C 56.9987 -2.80388 3.39221 0
M  V30 570 H 54.1177 -0.350572 0.648281 0
M  V30 571 H 56.7597 -0.238259 1.885 0
M  V30 572 H 54.9097 -2.44507 3.01908 0
M  V30 573 H 56.5817 -0.367408 4.59835 0
M  V30 574 H 54.8247 -0.276276 4.32919 0
M  V30 575 H 55.4957 -1.60346 5.28198 0
M  V30 576 H 57.9717 -2.28287 3.47885 0
M  V30 577 H 56.8477 -3.3729 4.33044 0
M  V30 578 H 57.1087 -3.57212 2.60484 0
M  V30 579 N 56.1678 -1.49265 -0.50573 0
M  V30 580 C 57.4138 -1.58748 -1.26202 0
M  V30 581 C 57.7468 -0.271227 -1.92297 0
M  V30 582 O 57.0218 0.724831 -1.80489 0
M  V30 583 C 57.3048 -2.74332 -2.33268 0
M  V30 584 C 57.1578 -4.15737 -1.71705 0
M  V30 585 C 58.4768 -2.85576 -3.34865 0
M  V30 586 H 55.5958 -0.577826 -0.457478 0
M  V30 587 H 58.2378 -1.81532 -0.560897 0
M  V30 588 H 56.3878 -2.55036 -2.93068 0
M  V30 589 H 58.0598 -4.46537 -1.15769 0
M  V30 590 H 56.3028 -4.21605 -1.02135 0
M  V30 591 H 56.9738 -4.92477 -2.49341 0
M  V30 592 H 59.4498 -3.03127 -2.8505 0
M  V30 593 H 58.3258 -3.68135 -4.07146 0
M  V30 594 H 58.5868 -1.94732 -3.96903 0
M  V30 595 N 57.6459 0.756429 -1.3826 0
M  V30 596 C 58.5559 1.9009 -1.37488 0
M  V30 597 C 59.5719 1.71855 -0.272366 0
M  V30 598 O 60.7479 1.94827 -0.510318 0
M  V30 599 C 57.8129 3.25421 -1.19592 0
M  V30 600 C 56.8739 3.56202 -2.39622 0
M  V30 601 C 56.1069 4.85075 -2.2257 0
M  V30 602 O 56.3299 5.57246 -1.21793 0
M  V30 603 O 55.2639 5.15269 -3.11098 0
M  V30 604 H 59.0899 1.93695 -2.33914 0
M  V30 605 H 56.6749 0.901313 -1.1915 0
M  V30 606 H 58.5569 4.06337 -1.11661 0
M  V30 607 H 57.2319 3.22634 -0.262486 0
M  V30 608 H 56.1389 2.75458 -2.53128 0
M  V30 609 H 57.4719 3.63747 -3.31586 0
M  V30 610 N 59.124 1.23083 0.984299 0
M  V30 611 C 60.074 0.975749 2.06066 0
M  V30 612 C 61.058 -0.0768251 1.60716 0
M  V30 613 O 62.25 0.134805 1.76486 0
M  V30 614 C 59.379 0.564673 3.38624 0
M  V30 615 C 58.465 1.65244 3.90583 0
M  V30 616 N 58.856 2.88193 4.15666 0
M  V30 617 C 57.154 1.52612 4.19077 0
M  V30 618 C 57.855 3.58593 4.58024 0
M  V30 619 N 56.831 2.86093 4.62225 0
M  V30 620 H 60.633 1.90957 2.23411 0
M  V30 621 H 58.147 1.12963 1.16675 0
M  V30 622 H 60.144 0.36322 4.15315 0
M  V30 623 H 58.804 -0.362147 3.22674 0
M  V30 624 H 59.815 3.24537 4.03604 0
M  V30 625 H 56.492 0.666121 4.12152 0
M  V30 626 H 57.882 4.63974 4.85982 0
M  V30 627 N 60.6021 -1.18246 1.0419 0
M  V30 628 C 61.8481 -1.88793 0.75689 0
M  V30 629 C 62.2031 -1.78909 -0.707767 0
M  V30 630 O 61.4961 -1.1794 -1.50999 0
M  V30 631 C 61.6901 -3.38082 1.15911 0
M  V30 632 C 61.5191 -3.62496 2.66133 0
M  V30 633 C 60.2891 -3.7979 3.33298 0
M  V30 634 C 62.4871 -3.62976 3.64353 0
M  V30 635 N 60.4691 -3.91955 4.72487 0
M  V30 636 C 61.8401 -3.80869 4.89222 0
M  V30 637 C 63.8951 -3.46071 3.57965 0
M  V30 638 C 62.5981 -3.83608 6.08471 0
M  V30 639 C 64.6241 -3.50093 4.76643 0
M  V30 640 C 63.9861 -3.68484 6.00332 0
M  V30 641 H 60.0851 -0.709406 0.32904 0
M  V30 642 H 62.6691 -1.42022 1.33183 0
M  V30 643 H 60.8401 -3.83544 0.612238 0
M  V30 644 H 62.5721 -3.96202 0.824989 0
M  V30 645 H 59.3271 -3.79224 2.83701 0
M  V30 646 H 59.7511 -4.01857 5.44831 0
M  V30 647 H 64.3931 -3.30797 2.63311 0
M  V30 648 H 62.1111 -3.97669 7.0348 0
M  V30 649 H 65.6971 -3.38285 4.73344 0
M  V30 650 H 64.5771 -3.71488 6.90627 0
M  V30 651 N 62.0802 -0.821533 -1.34494 0
M  V30 652 C 63.0102 -0.257138 -2.3208 0
M  V30 653 C 63.9912 0.625645 -1.58176 0
M  V30 654 O 65.1762 0.552811 -1.86166 0
M  V30 655 C 62.3062 0.582958 -3.42372 0
M  V30 656 C 61.2602 -0.202571 -4.2752 0
M  V30 657 C 60.5862 0.760179 -5.29269 0
M  V30 658 C 61.8862 -1.40998 -5.02908 0
M  V30 659 H 63.5802 -1.07247 -2.79532 0
M  V30 660 H 61.1262 -0.517163 -1.34393 0
M  V30 661 H 63.0792 0.987972 -4.09655 0
M  V30 662 H 61.8032 1.43133 -2.93565 0
M  V30 663 H 60.4622 -0.588936 -3.61838 0
M  V30 664 H 60.1102 1.60447 -4.76724 0
M  V30 665 H 59.8102 0.238809 -5.87115 0
M  V30 666 H 61.3342 1.16308 -5.9942 0
M  V30 667 H 62.7482 -1.07905 -5.63054 0
M  V30 668 H 61.1452 -1.86689 -5.70322 0
M  V30 669 H 62.2152 -2.1889 -4.32684 0
M  V30 670 N 63.5583 1.46682 -0.576371 0
M  V30 671 C 64.5083 2.27278 0.181288 0
M  V30 672 C 65.4923 1.35497 0.867721 0
M  V30 673 O 66.6843 1.59717 0.762863 0
M  V30 674 C 63.8133 3.21703 1.19841 0
M  V30 675 C 62.8993 4.20969 0.51442 0
M  V30 676 N 63.2903 5.03999 -0.426407 0
M  V30 677 C 61.5883 4.39373 0.765963 0
M  V30 678 C 62.2893 5.75812 -0.825565 0
M  V30 679 N 61.2653 5.43315 -0.176116 0
M  V30 680 H 65.0673 2.88863 -0.541785 0
M  V30 681 H 62.5813 1.57455 -0.397697 0
M  V30 682 H 64.5783 3.78145 1.75533 0
M  V30 683 H 63.2383 2.61677 1.92238 0
M  V30 684 H 64.2493 5.11659 -0.8016 0
M  V30 685 H 60.9263 3.90502 1.47698 0
M  V30 686 H 62.3163 6.52577 -1.59976 0
M  V30 687 N 65.0364 0.313813 1.54444 0
M  V30 688 C 65.9994 -0.54379 2.22656 0
M  V30 689 C 66.9994 -1.05124 1.21678 0
M  V30 690 O 68.1894 -0.945225 1.46325 0
M  V30 691 C 65.3214 -1.75427 2.92298 0
M  V30 692 H 66.5144 0.0523599 2.99854 0
M  V30 693 H 64.0674 0.0647834 1.56166 0
M  V30 694 H 64.8024 -2.38991 2.19211 0
M  V30 695 H 64.5874 -1.39791 3.66334 0
M  V30 696 H 66.0774 -2.36325 3.44297 0
M  V30 697 N 66.5145 -1.57545 0.0417849 0
M  V30 698 C 67.4465 -2.07904 -0.964799 0
M  V30 699 C 68.4595 -1.00497 -1.28079 0
M  V30 700 O 69.6485 -1.28087 -1.24322 0
M  V30 701 C 66.7485 -2.49928 -2.28887 0
M  V30 702 C 65.9215 -3.80562 -2.15619 0
M  V30 703 C 64.9805 -4.08999 -3.31069 0
M  V30 704 O 64.0065 -4.79061 -3.0739 0
M  V30 705 N 65.2085 -3.6017 -4.55256 0
M  V30 706 H 67.9735 -2.94886 -0.535029 0
M  V30 707 H 65.5345 -1.61252 -0.144681 0
M  V30 708 H 67.5265 -2.66034 -3.04972 0
M  V30 709 H 66.0965 -1.68245 -2.63463 0
M  V30 710 H 65.3165 -3.74129 -1.24183 0
M  V30 711 H 66.6045 -4.66126 -2.03971 0
M  V30 712 H 66.0025 -3.03512 -4.77386 0
M  V30 713 H 64.5595 -3.81532 -5.28466 0
M  V30 714 N 67.9926 0.231505 -1.5589 0
M  V30 715 C 69.2406 0.955461 -1.78088 0
M  V30 716 C 69.5616 1.85262 -0.608533 0
M  V30 717 O 68.8316 1.92277 0.375035 0
M  V30 718 H 67.4116 0.355787 -0.656829 0
M  V30 719 H 70.0736 0.245751 -1.93344 0
M  V30 720 H 69.1696 1.56814 -2.69844 0
M  V30 721 N 69.4707 1.49531 0.497807 0
M  V30 722 C 70.4027 1.62559 1.61578 0
M  V30 723 C 71.4157 0.508134 1.54667 0
M  V30 724 O 72.6047 0.780309 1.60541 0
M  V30 725 C 69.7047 1.56925 3.00379 0
M  V30 726 C 68.8777 2.84257 3.3244 0
M  V30 727 C 67.9367 2.71632 4.50669 0
M  V30 728 O 66.9627 3.4557 4.52294 0
M  V30 729 N 68.1647 1.83391 5.5077 0
M  V30 730 H 70.9297 2.58981 1.50828 0
M  V30 731 H 68.4907 1.4666 0.685743 0
M  V30 732 H 70.4827 1.46129 3.77397 0
M  V30 733 H 69.0527 0.683483 3.05037 0
M  V30 734 H 68.2727 3.09381 2.44289 0
M  V30 735 H 69.5607 3.68666 3.5066 0
M  V30 736 H 68.9587 1.22583 5.52259 0
M  V30 737 H 67.5157 1.78515 6.26878 0
M  V30 738 N 70.9488 -0.749086 1.3866 0
M  V30 739 C 72.1968 -1.50535 1.34847 0
M  V30 740 C 72.5178 -1.94909 -0.0595016 0
M  V30 741 O 71.7878 -1.67973 -1.00806 0
M  V30 742 H 70.3678 -0.558395 0.49619 0
M  V30 743 H 73.0298 -0.890165 1.73384 0
M  V30 744 H 72.1258 -2.39413 2.00219 0
M  V30 745 N 72.4269 -1.23603 -0.977757 0
M  V30 746 C 73.3589 -0.977369 -2.07317 0
M  V30 747 C 74.3719 0.0495845 -1.62724 0
M  V30 748 O 75.5609 -0.186261 -1.77526 0
M  V30 749 C 72.6609 -0.451216 -3.35883 0
M  V30 750 C 71.8339 -1.53896 -4.09432 0
M  V30 751 C 70.8929 -1.01721 -5.16274 0
M  V30 752 O 69.9189 -1.70676 -5.43009 0
M  V30 753 N 71.1209 0.153594 -5.80297 0
M  V30 754 H 73.8859 -1.92047 -2.30082 0
M  V30 755 H 71.4469 -1.14497 -1.14465 0
M  V30 756 H 73.4389 -0.0871574 -4.04606 0
M  V30 757 H 72.0089 0.397368 -3.10064 0
M  V30 758 H 71.2289 -2.07566 -3.35127 0
M  V30 759 H 72.5169 -2.27037 -4.55337 0
M  V30 760 H 71.9149 0.730323 -5.60966 0
M  V30 761 H 70.4719 0.458892 -6.50183 0
M  V30 762 N 73.905 1.17692 -1.04816 0
M  V30 763 C 75.316 1.69501 -0.782698 0
M  V30 764 C 75.667 1.83456 0.695577 0
M  V30 765 O 74.792 1.51942 1.54086 0
M  V30 766 C 75.387 3.07874 -1.41419 0
M  V30 767 C 73.946 3.56864 -1.19686 0
M  V30 768 C 73.093 2.3322 -1.50012 0
M  V30 769 H 76.044 1.02262 -1.2136 0
M  V30 770 H 76.065 3.71528 -0.821428 0
M  V30 771 H 75.577 2.97685 -2.49009 0
M  V30 772 H 73.678 3.72337 -0.140043 0
M  V30 773 H 73.791 4.39851 -1.89916 0
M  V30 774 H 72.155 2.37501 -0.920071 0
M  V30 775 H 72.938 2.25644 -2.58727 0
M  V30 776 N 75.3831 0.828654 1.34056 0
M  V30 777 C 76.6081 0.431637 2.02859 0
M  V30 778 C 77.0331 -0.956339 1.61975 0
M  V30 779 O 76.3911 -1.62338 0.807228 0
M  V30 780 C 76.4391 0.548323 3.56407 0
M  V30 781 O 75.5431 -0.429556 4.10157 0
M  V30 782 H 74.8841 0.176886 0.640006 0
M  V30 783 H 77.4141 1.12066 1.71179 0
M  V30 784 H 77.4241 0.426196 4.05768 0
M  V30 785 H 76.0991 1.5606 3.8551 0
M  V30 786 H 74.6761 -0.265836 3.71951 0
M  V30 787 N 76.8612 -1.46375 0.584142 0
M  V30 788 C 77.7912 -2.33103 -0.136037 0
M  V30 789 C 78.7722 -1.45431 -0.882255 0
M  V30 790 O 79.9572 -1.74246 -0.857434 0
M  V30 791 C 77.0872 -3.27731 -1.14933 0
M  V30 792 C 76.0412 -4.24855 -0.517862 0
M  V30 793 C 75.3672 -5.09001 -1.63773 0
M  V30 794 C 76.6672 -5.19439 0.545886 0
M  V30 795 H 78.3612 -2.93568 0.588086 0
M  V30 796 H 75.9072 -1.41166 0.284259 0
M  V30 797 H 77.8602 -3.87261 -1.66153 0
M  V30 798 H 76.5842 -2.65377 -1.90375 0
M  V30 799 H 75.2432 -3.6659 -0.0267361 0
M  V30 800 H 74.8912 -4.43031 -2.38185 0
M  V30 801 H 74.5912 -5.74777 -1.22085 0
M  V30 802 H 76.1152 -5.71396 -2.15266 0
M  V30 803 H 77.5292 -5.73177 0.118704 0
M  V30 804 H 75.9262 -5.93566 0.88317 0
M  V30 805 H 76.9962 -4.63285 1.43162 0
M  V30 806 N 78.3393 -0.321999 -1.54275 0
M  V30 807 C 79.5643 0.285791 -2.05422 0
M  V30 808 C 79.9893 1.45124 -1.19669 0
M  V30 809 O 79.3473 1.80132 -0.205441 0
M  V30 810 C 79.3953 0.69956 -3.53749 0
M  V30 811 O 78.4993 1.8021 -3.70942 0
M  V30 812 H 77.8403 0.0518962 -0.661969 0
M  V30 813 H 80.3703 -0.469954 -1.9913 0
M  V30 814 H 80.3803 0.982649 -3.9599 0
M  V30 815 H 79.0553 -0.152864 -4.15619 0
M  V30 816 H 77.6323 1.51794 -3.40607 0
M  V30 817 N 79.8174 1.5752 -0.0501392 0
M  V30 818 C 81.0634 1.92936 0.624798 0
M  V30 819 C 81.3964 0.928685 1.70555 0
M  V30 820 O 80.6714 -0.0454779 1.94447 0
M  V30 821 C 80.9544 3.38737 1.22185 0
M  V30 822 C 80.8074 4.49552 0.149218 0
M  V30 823 C 82.1264 3.84913 2.13378 0
M  V30 824 H 79.2454 0.701604 0.225657 0
M  V30 825 H 81.8874 1.89671 -0.111693 0
M  V30 826 H 80.0374 3.4165 1.84953 0
M  V30 827 H 81.7094 4.58768 -0.482648 0
M  V30 828 H 79.9524 4.30638 -0.522841 0
M  V30 829 H 80.6234 5.48653 0.606966 0
M  V30 830 H 83.0994 3.8387 1.60572 0
M  V30 831 H 81.9754 4.87584 2.52097 0
M  V30 832 H 82.2364 3.21611 3.03346 0
M  V30 833 N 81.2955 -0.223234 1.56011 0
M  V30 834 C 82.2585 -1.26014 1.9145 0
M  V30 835 C 83.2585 -1.3989 0.792937 0
M  V30 836 O 84.4485 -1.38184 1.0607 0
M  V30 837 C 81.5805 -2.63422 2.16383 0
M  V30 838 H 82.7735 -0.95796 2.84189 0
M  V30 839 H 80.3265 -0.463576 1.49267 0
M  V30 840 H 81.0615 -2.98741 1.2619 0
M  V30 841 H 80.8465 -2.54728 2.98088 0
M  V30 842 H 82.3365 -3.38249 2.44903 0
M  V30 843 N 82.7736 -1.49793 -0.48987 0
M  V30 844 C 83.7036 -1.70201 -1.59856 0
M  V30 845 C 84.6846 -0.55076 -1.60937 0
M  V30 846 O 85.8696 -0.787841 -1.77501 0
M  V30 847 C 82.9996 -1.77882 -2.98287 0
M  V30 848 C 81.9536 -2.92907 -3.12073 0
M  V30 849 C 81.2796 -2.85712 -4.51965 0
M  V30 850 C 82.5796 -4.3369 -2.91051 0
M  V30 851 H 84.2736 -2.63025 -1.43032 0
M  V30 852 H 81.8196 -1.26574 -0.686664 0
M  V30 853 H 83.7726 -1.90744 -3.75759 0
M  V30 854 H 82.4966 -0.816653 -3.16225 0
M  V30 855 H 81.1556 -2.79665 -2.37029 0
M  V30 856 H 80.8036 -1.8738 -4.66795 0
M  V30 857 H 80.5036 -3.62921 -4.62128 0
M  V30 858 H 82.0276 -3.00598 -5.31482 0
M  V30 859 H 83.4416 -4.47555 -3.58284 0
M  V30 860 H 81.8386 -5.12205 -3.12675 0
M  V30 861 H 82.9086 -4.47362 -1.87071 0
M  V30 862 N 84.2517 0.741722 -1.39055 0
M  V30 863 C 85.6627 1.31966 -1.32068 0
M  V30 864 C 86.0137 1.96192 0.0180797 0
M  V30 865 O 85.1387 1.95861 0.920196 0
M  V30 866 C 85.7337 2.39954 -2.39181 0
M  V30 867 C 84.2927 2.93438 -2.35735 0
M  V30 868 C 83.4397 1.66936 -2.21422 0
M  V30 869 H 86.3907 0.539721 -1.4924 0
M  V30 870 H 86.4117 3.20182 -2.05581 0
M  V30 871 H 85.9237 1.9318 -3.36605 0
M  V30 872 H 84.0247 3.4451 -1.41929 0
M  V30 873 H 84.1377 3.4701 -3.30335 0
M  V30 874 H 82.5017 1.91016 -1.68478 0
M  V30 875 H 83.2847 1.22224 -3.20806 0
M  V30 876 N 85.7298 1.2412 0.971189 0
M  V30 877 C 86.6598 1.05508 2.08304 0
M  V30 878 C 87.6408 -0.0308864 1.70072 0
M  V30 879 O 88.8258 0.135521 1.93727 0
M  V30 880 C 85.9558 0.655365 3.4106 0
M  V30 881 C 84.9098 1.68971 3.93234 0
M  V30 882 C 84.2358 1.14516 5.22293 0
M  V30 883 C 85.5358 3.08487 4.21465 0
M  V30 884 H 87.2298 1.98507 2.24132 0
M  V30 885 H 84.7758 0.955821 1.07704 0
M  V30 886 H 86.7288 0.51217 4.18276 0
M  V30 887 H 85.4528 -0.31032 3.25122 0
M  V30 888 H 84.1118 1.82106 3.18171 0
M  V30 889 H 83.7598 0.170189 5.02712 0
M  V30 890 H 83.4598 1.83635 5.58168 0
M  V30 891 H 84.9838 1.01401 6.02121 0
M  V30 892 H 86.3978 2.98601 4.89398 0
M  V30 893 H 84.7948 3.74926 4.68562 0
M  V30 894 H 85.8648 3.56787 3.28376 0
M  V30 895 N 87.2079 -1.17134 1.05439 0
M  V30 896 C 88.1559 -2.23289 0.651511 0
M  V30 897 C 89.1499 -1.66186 -0.328411 0
M  V30 898 O 90.3559 -1.78949 -0.194206 0
M  V30 899 H 86.7309 -0.726938 0.192523 0
M  V30 900 H 88.7019 -2.54565 1.55689 0
M  V30 901 C 87.4509 -3.47671 0.0448436 0
M  V30 902 H 86.7739 -3.91918 0.78996 0
M  V30 903 H 88.2139 -4.2353 -0.19964 0
M  V30 904 C 86.6729 -3.14453 -1.20918 0
M  V30 905 O 87.2029 -3.29459 -2.29825 0
M  V30 906 N 85.4089 -2.68657 -1.10779 0
M  V30 907 H 84.9559 -2.56646 -0.221526 0
M  V30 908 H 84.9139 -2.46804 -1.9477 0
M  V30 909 N 88.686 -0.835752 -1.33615 0
M  V30 910 C 89.935 -0.426289 -1.97144 0
M  V30 911 C 90.248 1.01912 -1.66953 0
M  V30 912 O 91.454 1.53311 -2.24072 0
M  V30 913 C 89.91 -0.711321 -3.52801 0
M  V30 914 C 89.518 -2.1712 -3.91871 0
M  V30 915 C 91.262 -0.368654 -4.22896 0
M  V30 916 C 89.169 -2.40044 -5.40493 0
M  V30 917 H 88.099 -0.15567 -0.737755 0
M  V30 918 H 90.75 -1.0239 -1.52278 0
M  V30 919 H 89.132 -0.0433766 -3.95976 0
M  V30 920 H 90.306 -2.87936 -3.59763 0
M  V30 921 H 88.621 -2.47654 -3.34749 0
M  V30 922 H 91.218 -0.517601 -5.32189 0
M  V30 923 H 91.561 0.688078 -4.10574 0
M  V30 924 H 92.094 -0.991702 -3.8524 0
M  V30 925 H 88.833 -3.44271 -5.57815 0
M  V30 926 H 88.353 -1.73785 -5.74072 0
M  V30 927 H 90.032 -2.23042 -6.0734 0
M  V30 928 N 90.1641 1.46063 -0.591896 0
M  V30 929 C 91.1121 2.32124 0.148739 0
M  V30 930 C 92.1061 1.45035 0.875286 0
M  V30 931 O 93.3121 1.61609 0.792632 0
M  V30 932 H 89.6871 0.749024 0.066832 0
M  V30 933 H 91.6581 2.92392 -0.595783 0
M  V30 934 C 90.4071 3.28373 1.1431 0
M  V30 935 H 89.7301 3.95371 0.59346 0
M  V30 936 H 91.1701 3.91352 1.63155 0
M  V30 937 C 89.6291 2.54393 2.20875 0
M  V30 938 O 90.1591 2.31373 3.28374 0
M  V30 939 N 88.3651 2.14797 1.95731 0
M  V30 940 H 87.9121 2.33719 1.08319 0
M  V30 941 H 87.8701 1.65619 2.67241 0
M  V30 942 N 91.6422 0.330177 1.54103 0
M  V30 943 C 92.5922 -0.548456 2.21305 0
M  V30 944 C 93.5762 -1.07651 1.19583 0
M  V30 945 O 94.7682 -1.01243 1.45186 0
M  V30 946 C 91.8972 -1.70559 2.97934 0
M  V30 947 C 90.9832 -1.19212 4.07 0
M  V30 948 N 91.3742 -0.398831 5.04225 0
M  V30 949 C 89.6722 -1.47024 4.2107 0
M  V30 950 C 90.3732 -0.121761 5.81573 0
M  V30 951 N 89.3492 -0.709722 5.38947 0
M  V30 952 H 93.1512 0.0648483 2.93828 0
M  V30 953 H 90.6652 0.136363 1.61826 0
M  V30 954 H 92.6622 -2.34688 3.44568 0
M  V30 955 H 91.3222 -2.32231 2.26934 0
M  V30 956 H 92.3332 -0.0410869 5.17884 0
M  V30 957 H 89.0102 -2.09232 3.61287 0
M  V30 958 H 90.4002 0.517298 6.69906 0
M  V30 959 N 93.1203 -1.57491 0.0584922 0
M  V30 960 C 94.3973 -1.84346 -0.653918 0
M  V30 961 C 94.7773 -0.948355 -1.88599 0
M  V30 962 O 94.1253 -0.0112403 -2.28497 0
M  V30 963 C 94.3353 -3.34239 -1.00425 0
M  V30 964 C 95.6833 -4.01431 -1.38342 0
M  V30 965 O 96.7073 -3.38907 -1.09637 0
M  V30 966 O 95.5663 -5.11683 -1.91943 0
M  V30 967 H 92.6603 -0.761112 -0.323478 0
M  V30 968 H 95.2063 -1.6947 0.0884125 0
M  V30 969 H 93.9783 -3.91089 -0.128625 0
M  V30 970 H 93.6013 -3.54329 -1.80378 0
M  V30 971 N 94.5984 0.214957 -1.56127 0
M  V30 972 C 95.8754 0.963093 -1.70247 0
M  V30 973 C 96.2554 2.02166 -0.60764 0
M  V30 974 O 95.6034 2.25244 0.384385 0
M  V30 975 C 95.8134 1.56756 -3.11815 0
M  V30 976 C 97.1614 2.0573 -3.7143 0
M  V30 977 O 98.1854 1.66637 -3.14818 0
M  V30 978 O 97.0444 2.77603 -4.70743 0
M  V30 979 H 94.1384 0.450321 -0.693643 0
M  V30 980 H 96.6844 0.206219 -1.68442 0
M  V30 981 H 95.4564 0.803533 -3.82961 0
M  V30 982 H 95.0794 2.3898 -3.17765 0
M  V30 983 N 96.0765 1.50051 0.48192 0
M  V30 984 C 97.3045 1.64237 1.25832 0
M  V30 985 C 97.7195 0.321336 1.86045 0
M  V30 986 O 97.0765 -0.695478 1.68729 0
M  V30 987 C 97.1275 2.72548 2.37487 0
M  V30 988 O 96.8485 3.99529 1.79745 0
M  V30 989 C 98.3495 2.9761 3.28547 0
M  V30 990 H 95.5695 0.55237 0.380957 0
M  V30 991 H 98.1135 1.96207 0.576467 0
M  V30 992 H 96.2685 2.43303 3.01467 0
M  V30 993 H 96.6825 4.59342 2.5319 0
M  V30 994 H 98.1565 3.77084 4.03127 0
M  V30 995 H 98.6335 2.0826 3.86684 0
M  V30 996 H 99.2395 3.28345 2.70314 0
M  V30 997 N 97.5546 -0.734337 1.39446 0
M  V30 998 C 98.5176 -1.83004 1.37994 0
M  V30 999 C 99.5176 -1.58397 0.276938 0
M  V30 1000 O 100.708 -1.65785 0.534875 0
M  V30 1001 C 97.8396 -3.20802 1.1532 0
M  V30 1002 H 99.0326 -1.85694 2.35494 0
M  V30 1003 H 96.5856 -0.938059 1.25021 0
M  V30 1004 H 97.3206 -3.23772 0.185036 0
M  V30 1005 H 97.1056 -3.4006 1.95197 0
M  V30 1006 H 98.5956 -4.00862 1.17046 0
M  V30 1007 N 99.0327 -1.24633 -0.964593 0
M  V30 1008 C 100.279 -1.08949 -1.71049 0
M  V30 1009 C 100.612 0.370302 -1.90637 0
M  V30 1010 O 99.8867 1.27349 -1.47011 0
M  V30 1011 C 100.17 -1.83329 -3.0994 0
M  V30 1012 C 100.023 -3.37077 -2.97824 0
M  V30 1013 C 101.342 -1.60846 -4.09654 0
M  V30 1014 H 98.4607 -0.397178 -0.620821 0
M  V30 1015 H 101.103 -1.5334 -1.12191 0
M  V30 1016 H 99.2527 -1.45597 -3.60186 0
M  V30 1017 H 100.925 -3.84425 -2.5498 0
M  V30 1018 H 99.1677 -3.65298 -2.33965 0
M  V30 1019 H 99.8387 -3.84324 -3.96231 0
M  V30 1020 H 102.315 -1.93674 -3.68279 0
M  V30 1021 H 101.191 -2.1534 -5.04896 0
M  V30 1022 H 101.452 -0.547434 -4.38698 0
M  V30 1023 N 100.511 1.16574 -1.06058 0
M  V30 1024 C 101.757 1.87324 -0.777022 0
M  V30 1025 C 102.09 1.81351 0.694645 0
M  V30 1026 O 101.365 1.22753 1.50871 0
M  V30 1027 C 101.648 3.36991 -1.26922 0
M  V30 1028 C 101.501 3.51667 -2.80447 0
M  V30 1029 C 102.82 4.3131 -0.87521 0
M  V30 1030 H 99.9388 0.680191 -0.28374 0
M  V30 1031 H 102.581 1.37036 -1.3161 0
M  V30 1032 H 100.731 3.79949 -0.81063 0
M  V30 1033 H 102.403 3.17664 -3.34495 0
M  V30 1034 H 100.646 2.93656 -3.19294 0
M  V30 1035 H 101.317 4.56766 -3.0995 0
M  V30 1036 H 103.793 3.9624 -1.27014 0
M  V30 1037 H 102.669 5.34545 -1.2471 0
M  V30 1038 H 102.93 4.41552 0.220071 0
M  V30 1039 N 101.989 0.842826 1.3317 0
M  V30 1040 C 103.237 0.439577 1.97262 0
M  V30 1041 C 103.558 -1.00548 1.67078 0
M  V30 1042 O 102.828 -1.70098 0.971779 0
M  V30 1043 H 101.408 0.159558 0.72976 0
M  V30 1044 H 104.07 1.07665 1.62463 0
M  V30 1045 H 103.166 0.574886 3.0676 0
M  V30 1046 N 103.467 -1.45747 0.599634 0
M  V30 1047 C 104.417 -2.27538 -0.145107 0
M  V30 1048 C 105.401 -1.3686 -0.846055 0
M  V30 1049 O 106.593 -1.6091 -0.737357 0
M  V30 1050 C 103.722 -3.23569 -1.14708 0
M  V30 1051 C 102.808 -4.21734 -0.447383 0
M  V30 1052 N 103.199 -5.03257 0.506535 0
M  V30 1053 C 101.497 -4.40536 -0.695966 0
M  V30 1054 C 102.198 -5.74426 0.917068 0
M  V30 1055 N 101.174 -5.42966 0.26253 0
M  V30 1056 H 104.976 -2.87965 0.587672 0
M  V30 1057 H 102.49 -1.56803 0.422697 0
M  V30 1058 H 104.487 -3.8089 -1.69495 0
M  V30 1059 H 103.147 -2.64702 -1.8805 0
M  V30 1060 H 104.158 -5.10319 0.882899 0
M  V30 1061 H 100.835 -3.92802 -1.41467 0
M  V30 1062 H 102.225 -6.4995 1.70338 0
M  V30 1063 N 104.945 -0.338344 -1.53925 0
M  V30 1064 C 106.191 0.260143 -2.01125 0
M  V30 1065 C 106.524 1.50617 -1.22589 0
M  V30 1066 O 105.799 1.91979 -0.312113 0
M  V30 1067 C 106.082 0.579499 -3.55407 0
M  V30 1068 C 105.935 -0.678264 -4.44657 0
M  V30 1069 C 107.254 1.39122 -4.17532 0
M  V30 1070 H 104.373 0.0930772 -0.731099 0
M  V30 1071 H 107.015 -0.457852 -1.84401 0
M  V30 1072 H 105.165 1.19118 -3.69788 0
M  V30 1073 H 106.837 -1.31631 -4.42121 0
M  V30 1074 H 105.08 -1.3042 -4.13731 0
M  V30 1075 H 105.751 -0.410143 -5.50474 0
M  V30 1076 H 108.227 0.874035 -4.06817 0
M  V30 1077 H 107.103 1.58342 -5.25565 0
M  V30 1078 H 107.364 2.39178 -3.71815 0
M  V30 1079 N 106.423 1.57458 -0.0668435 0
M  V30 1080 C 107.386 2.11323 0.887422 0
M  V30 1081 C 108.386 1.03618 1.22964 0
M  V30 1082 O 109.576 1.29626 1.16373 0
M  V30 1083 C 106.708 2.61048 2.19242 0
M  V30 1084 H 107.901 2.96942 0.420194 0
M  V30 1085 H 105.454 1.55239 0.181793 0
M  V30 1086 H 106.189 1.78868 2.70512 0
M  V30 1087 H 105.974 3.39769 1.95702 0
M  V30 1088 H 107.464 3.02814 2.87565 0
M  V30 1089 N 107.901 -0.206675 1.56239 0
M  V30 1090 C 108.864 -1.23976 1.92776 0
M  V30 1091 C 109.864 -1.39041 0.807729 0
M  V30 1092 O 111.054 -1.37051 1.0753 0
M  V30 1093 C 108.186 -2.61112 2.19165 0
M  V30 1094 H 109.379 -0.927764 2.85189 0
M  V30 1095 H 106.932 -0.447718 1.4975 0
M  V30 1096 H 107.667 -2.97386 1.29352 0
M  V30 1097 H 107.452 -2.51552 3.00772 0
M  V30 1098 H 108.942 -3.35633 2.48476 0
M  V30 1099 N 109.379 -1.50304 -0.473955 0
M  V30 1100 C 110.312 -1.63595 -1.59097 0
M  V30 1101 C 111.29 -0.484142 -1.55225 0
M  V30 1102 O 112.474 -0.703271 -1.7489 0
M  V30 1103 C 109.601 -1.61589 -2.97669 0
M  V30 1104 C 108.647 -2.82295 -3.19705 0
M  V30 1105 S 109.48 -4.43635 -2.99913 0
M  V30 1106 C 110.636 -4.44317 -4.40832 0
M  V30 1107 H 110.869 -2.58082 -1.47583 0
M  V30 1108 H 108.402 -1.39531 -0.661087 0
M  V30 1109 H 110.36 -1.61116 -3.7756 0
M  V30 1110 H 109.021 -0.683421 -3.06575 0
M  V30 1111 H 108.214 -2.77188 -4.20931 0
M  V30 1112 H 107.816 -2.8032 -2.47582 0
M  V30 1113 H 110.108 -4.17703 -5.33414 0
M  V30 1114 H 111.051 -5.45911 -4.50984 0
M  V30 1115 H 111.459 -3.74059 -4.22777 0
M  V30 1116 N 110.857 0.726932 -1.39834 0
M  V30 1117 C 111.789 1.85147 -1.35104 0
M  V30 1118 C 112.802 1.60736 -0.258392 0
M  V30 1119 O 113.991 1.70821 -0.517931 0
M  V30 1120 C 111.091 3.21332 -1.07697 0
M  V30 1121 C 110.264 3.73033 -2.28396 0
M  V30 1122 C 109.323 4.87802 -1.97322 0
M  V30 1123 O 108.349 5.01043 -2.70083 0
M  V30 1124 N 109.551 5.72768 -0.944273 0
M  V30 1125 H 112.316 1.89706 -2.32017 0
M  V30 1126 H 109.877 0.908006 -1.3404 0
M  V30 1127 H 111.869 3.95691 -0.849144 0
M  V30 1128 H 110.439 3.11992 -0.194909 0
M  V30 1129 H 109.659 2.89934 -2.6708 0
M  V30 1130 H 110.947 4.0431 -3.08887 0
M  V30 1131 H 110.345 5.64669 -0.341427 0
M  V30 1132 H 108.902 6.4716 -0.776346 0
M  V30 1133 N 112.336 1.25143 0.95797 0
M  V30 1134 C 113.561 1.12521 1.74223 0
M  V30 1135 C 113.986 -0.317402 1.85403 0
M  V30 1136 O 113.344 -1.2299 1.33204 0
M  V30 1137 C 113.392 1.78062 3.1357 0
M  V30 1138 O 112.496 1.058 3.98598 0
M  V30 1139 H 111.837 0.39304 0.535178 0
M  V30 1140 H 114.367 1.65641 1.201 0
M  V30 1141 H 114.377 1.84213 3.64046 0
M  V30 1142 H 113.052 2.83021 3.04749 0
M  V30 1143 H 111.629 1.07506 3.57067 0
M  V30 1144 N 113.814 -1.1601 1.06675 0
M  V30 1145 C 115.06 -1.86909 0.786945 0
M  V30 1146 C 115.393 -1.81717 -0.685018 0
M  V30 1147 O 114.668 -1.23551 -1.50218 0
M  V30 1148 C 114.951 -3.36313 1.28707 0
M  V30 1149 C 114.804 -3.50175 2.82308 0
M  V30 1150 C 116.123 -4.3084 0.898071 0
M  V30 1151 H 113.242 -0.678677 0.287343 0
M  V30 1152 H 115.884 -1.36336 1.32334 0
M  V30 1153 H 114.034 -3.79513 0.830768 0
M  V30 1154 H 115.706 -3.15886 3.36175 0
M  V30 1155 H 113.949 -2.91959 3.20847 0
M  V30 1156 H 114.62 -4.55116 3.12368 0
M  V30 1157 H 117.096 -3.95561 1.29114 0
M  V30 1158 H 115.972 -5.33876 1.27543 0
M  V30 1159 H 116.233 -4.41662 -0.196651 0
M  V30 1160 N 115.292 -0.849877 -1.32721 0
M  V30 1161 C 116.708 -0.539102 -1.50219 0
M  V30 1162 C 116.908 0.931271 -1.78689 0
M  V30 1163 O 115.964 1.71455 -1.85363 0
M  V30 1164 C 117.277 -1.42196 -2.64954 0
M  V30 1165 C 118.825 -1.42189 -2.78839 0
M  V30 1166 C 119.3 -2.28985 -3.96648 0
M  V30 1167 N 120.791 -2.26754 -4.03902 0
M  V30 1168 C 121.526 -2.90644 -4.94281 0
M  V30 1169 N 121.022 -3.63629 -5.897 0
M  V30 1170 N 122.815 -2.80057 -4.87365 0
M  V30 1171 H 114.966 -1.80156 -1.12506 0
M  V30 1172 H 117.229 -0.769217 -0.554085 0
M  V30 1173 H 116.935 -2.46733 -2.50631 0
M  V30 1174 H 116.809 -1.10591 -3.60624 0
M  V30 1175 H 119.196 -0.38419 -2.92588 0
M  V30 1176 H 119.277 -1.77807 -1.83898 0
M  V30 1177 H 118.921 -3.32819 -3.83658 0
M  V30 1178 H 118.851 -1.90702 -4.90857 0
M  V30 1179 H 121.342 -1.73688 -3.3562 0
M  V30 1180 H 121.655 -4.09558 -6.55349 0
M  V30 1181 H 120 -3.67737 -5.89741 0
M  V30 1182 H 123.191 -2.22593 -4.11789 0
M  V30 1183 H 123.364 -3.30132 -5.57599 0
M  V30 1184 N 116.77 1.45427 -0.607355 0
M  V30 1185 C 118.047 1.9557 -0.0344566 0
M  V30 1186 C 118.427 1.54979 1.43334 0
M  V30 1187 O 117.775 0.812241 2.13576 0
M  V30 1188 C 117.985 3.48226 -0.232321 0
M  V30 1189 C 119.333 4.2445 -0.113001 0
M  V30 1190 O 120.357 3.55829 -0.162431 0
M  V30 1191 O 119.216 5.465 0.00209442 0
M  V30 1192 H 116.31 0.826222 0.0358667 0
M  V30 1193 H 118.856 1.55594 -0.6774 0
M  V30 1194 H 117.628 3.70739 -1.25174 0
M  V30 1195 H 117.251 3.95092 0.445896 0
M  V30 1196 N 118.248 0.346503 1.53744 0
M  V30 1197 C 119.496 -0.248612 2.00565 0
M  V30 1198 C 119.817 -1.5083 1.23593 0
M  V30 1199 O 119.087 -1.92858 0.343912 0
M  V30 1200 H 117.667 -0.0948564 0.740953 0
M  V30 1201 H 120.329 0.468341 1.89189 0
M  V30 1202 H 119.425 -0.488994 3.08245 0
M  V30 1203 N 119.726 -1.57421 0.075193 0
M  V30 1204 C 120.656 -2.15942 -0.888324 0
M  V30 1205 C 121.637 -1.08737 -1.30806 0
M  V30 1206 O 122.822 -1.36787 -1.37851 0
M  V30 1207 C 119.952 -2.72379 -2.1547 0
M  V30 1208 C 118.906 -3.8478 -1.87425 0
M  V30 1209 C 118.232 -4.27834 -3.20721 0
M  V30 1210 C 119.532 -5.08869 -1.17684 0
M  V30 1211 H 121.226 -2.96705 -0.400799 0
M  V30 1212 H 118.772 -1.42723 -0.191342 0
M  V30 1213 H 120.725 -3.11965 -2.83295 0
M  V30 1214 H 119.449 -1.88841 -2.6647 0
M  V30 1215 H 118.108 -3.45703 -1.22004 0
M  V30 1216 H 117.756 -3.41214 -3.6957 0
M  V30 1217 H 117.456 -5.03605 -3.02746 0
M  V30 1218 H 118.98 -4.70039 -3.89738 0
M  V30 1219 H 120.394 -5.4575 -1.75584 0
M  V30 1220 H 118.791 -5.8994 -1.09956 0
M  V30 1221 H 119.861 -4.84648 -0.156453 0
M  V30 1222 N 121.204 0.198386 -1.56346 0
M  V30 1223 C 122.451 0.919286 -1.80431 0
M  V30 1224 C 122.779 1.83393 -0.647866 0
M  V30 1225 O 122.034 1.92236 0.366556 0
M  V30 1226 C 122.333 1.77031 -3.10475 0
M  V30 1227 C 121.999 1.00693 -4.39513 0
M  V30 1228 C 120.661 0.796145 -4.74568 0
M  V30 1229 C 123.013 0.469559 -5.19081 0
M  V30 1230 C 120.341 0.0364588 -5.86689 0
M  V30 1231 C 122.693 -0.2769 -6.31994 0
M  V30 1232 C 121.357 -0.49873 -6.65634 0
M  V30 1233 H 120.627 0.336391 -0.660244 0
M  V30 1234 H 123.274 0.185872 -1.90596 0
M  V30 1235 H 121.579 2.5723 -2.95533 0
M  V30 1236 H 123.276 2.33065 -3.26315 0
M  V30 1237 H 119.866 1.18122 -4.12001 0
M  V30 1238 H 124.05 0.619816 -4.92414 0
M  V30 1239 H 119.306 -0.145412 -6.11227 0
M  V30 1240 H 123.48 -0.700684 -6.92866 0
M  V30 1241 H 121.107 -1.0893 -7.52355 0
M  V30 1242 N 122.682 1.50554 0.465978 0
M  V30 1243 C 123.922 1.63439 1.22747 0
M  V30 1244 C 124.286 0.329822 1.89146 0
M  V30 1245 O 125.487 0.334161 2.66715 0
M  V30 1246 C 123.758 2.78542 2.2394 0
M  V30 1247 S 125.317 3.11591 3.0896 0
M  V30 1248 H 122.135 0.576113 0.416672 0
M  V30 1249 H 124.737 1.88357 0.523641 0
M  V30 1250 H 123.441 3.71805 1.7375 0
M  V30 1251 H 122.972 2.55726 2.98944 0
M  V30 1252 H 124.987 2.55811 4.25176 0
M  V30 1253 N 124.16 -0.719506 1.40217 0
M  V30 1254 C 125.09 -1.8465 1.42922 0
M  V30 1255 C 126.071 -1.67599 0.29062 0
M  V30 1256 O 127.256 -1.87688 0.498677 0
M  V30 1257 C 124.386 -3.22565 1.28722 0
M  V30 1258 C 123.34 -3.54281 2.40144 0
M  V30 1259 C 122.666 -4.91298 2.11023 0
M  V30 1260 C 123.966 -3.55676 3.82481 0
M  V30 1261 H 125.66 -1.82644 2.37237 0
M  V30 1262 H 123.206 -0.877305 1.1419 0
M  V30 1263 H 125.159 -4.01095 1.29232 0
M  V30 1264 H 123.883 -3.25137 0.308811 0
M  V30 1265 H 122.542 -2.78088 2.38877 0
M  V30 1266 H 122.19 -4.90468 1.11582 0
M  V30 1267 H 121.89 -5.13485 2.8567 0
M  V30 1268 H 123.414 -5.72166 2.13209 0
M  V30 1269 H 124.828 -4.24254 3.85592 0
M  V30 1270 H 123.225 -3.89388 4.56614 0
M  V30 1271 H 124.295 -2.55144 4.12346 0
M  V30 1272 N 125.638 -1.25649 -0.95132 0
M  V30 1273 C 126.886 -1.10375 -1.69298 0
M  V30 1274 C 127.207 0.355339 -1.91735 0
M  V30 1275 O 126.477 1.25188 -1.50681 0
M  V30 1276 H 125.057 -0.405461 -0.627384 0
M  V30 1277 H 127.719 -1.57823 -1.14358 0
M  V30 1278 H 126.815 -1.61465 -2.67087 0
M  V30 1279 N 127.117 1.15442 -1.07289 0
M  V30 1280 C 128.357 1.8788 -0.805012 0
M  V30 1281 C 128.721 1.80413 0.656907 0
M  V30 1282 O 129.922 2.47874 1.0398 0
M  V30 1283 C 128.193 3.3298 -1.29843 0
M  V30 1284 S 129.752 4.23158 -1.16114 0
M  V30 1285 H 126.57 0.64839 -0.291739 0
M  V30 1286 H 129.172 1.39285 -1.37186 0
M  V30 1287 H 127.876 3.35958 -2.35712 0
M  V30 1288 H 127.407 3.86629 -0.726767 0
M  V30 1289 H 129.422 4.96103 -0.0982778 0
M  V30 1290 N 128.595 0.856903 1.32268 0
M  V30 1291 C 129.841 0.462069 1.97466 0
M  V30 1292 C 130.174 -0.980298 1.67642 0
M  V30 1293 O 129.449 -1.68824 0.965858 0
M  V30 1294 C 129.732 0.704336 3.53145 0
M  V30 1295 C 129.585 2.19529 3.9259 0
M  V30 1296 C 130.904 0.1622 4.39801 0
M  V30 1297 H 128.023 0.169357 0.717278 0
M  V30 1298 H 130.665 1.07574 1.56614 0
M  V30 1299 H 128.815 0.181999 3.88073 0
M  V30 1300 H 130.487 2.78387 3.67829 0
M  V30 1301 H 128.73 2.67292 3.41668 0
M  V30 1302 H 129.401 2.31549 5.01088 0
M  V30 1303 H 131.877 0.608905 4.11621 0
M  V30 1304 H 130.753 0.361265 5.4771 0
M  V30 1305 H 131.014 -0.935158 4.32096 0
M  V30 1306 N 130.073 -1.45103 0.615059 0
M  V30 1307 C 131.301 -2.06553 0.11977 0
M  V30 1308 C 131.716 -1.45842 -1.19898 0
M  V30 1309 O 131.073 -0.575325 -1.73194 0
M  V30 1310 C 131.124 -3.61495 -0.018364 0
M  V30 1311 O 130.845 -4.19942 1.24822 0
M  V30 1312 C 132.346 -4.39947 -0.544237 0
M  V30 1313 H 129.566 -0.667096 0.0722739 0
M  V30 1314 H 132.11 -1.8623 0.84491 0
M  V30 1315 H 130.265 -3.81135 -0.693865 0
M  V30 1316 H 130.679 -5.13204 1.0827 0
M  V30 1317 H 132.153 -5.48838 -0.589953 0
M  V30 1318 H 132.63 -4.10255 -1.56805 0
M  V30 1319 H 133.236 -4.25188 0.0974703 0
M  V30 1320 N 131.551 -0.354651 -1.53558 0
M  V30 1321 C 132.776 0.242153 -2.05981 0
M  V30 1322 C 133.201 1.42553 -1.2272 0
M  V30 1323 O 132.559 1.79656 -0.243604 0
M  V30 1324 C 132.607 0.624367 -3.55154 0
M  V30 1325 O 131.711 1.72301 -3.74681 0
M  V30 1326 H 131.052 0.0378432 -0.662921 0
M  V30 1327 H 133.582 -0.512087 -1.98088 0
M  V30 1328 H 133.592 0.898433 -3.97985 0
M  V30 1329 H 132.267 -0.240989 -4.15201 0
M  V30 1330 H 130.844 1.44535 -3.4375 0
M  V30 1331 N 133.029 1.57378 -0.0835403 0
M  V30 1332 C 134.44 1.81261 0.447358 0
M  V30 1333 C 134.791 0.998331 1.68902 0
M  V30 1334 O 133.916 0.224282 2.15235 0
M  V30 1335 C 134.511 3.28767 0.818386 0
M  V30 1336 C 133.07 3.53455 1.29409 0
M  V30 1337 C 132.217 2.75831 0.285024 0
M  V30 1338 H 135.168 1.5566 -0.309115 0
M  V30 1339 H 135.189 3.41459 1.67887 0
M  V30 1340 H 134.701 3.88006 -0.0855019 0
M  V30 1341 H 132.802 2.99534 2.21608 0
M  V30 1342 H 132.915 4.62128 1.2639 0
M  V30 1343 H 131.279 2.42947 0.764767 0
M  V30 1344 H 132.062 3.37813 -0.611341 0
M  V30 1345 N 134.507 -0.190092 1.56449 0
M  V30 1346 C 135.923 -0.54113 1.50146 0
M  V30 1347 C 136.123 -1.85603 0.784465 0
M  V30 1348 O 135.179 -2.5024 0.337051 0
M  V30 1349 C 136.492 -0.591241 2.9483 0
M  V30 1350 C 138.04 -0.679732 3.0553 0
M  V30 1351 C 138.515 -0.760908 4.51635 0
M  V30 1352 N 140.006 -0.824302 4.55806 0
M  V30 1353 C 140.741 -0.907365 5.66175 0
M  V30 1354 N 140.237 -0.952422 6.86222 0
M  V30 1355 N 142.03 -0.94494 5.541 0
M  V30 1356 H 134.181 0.67235 2.01478 0
M  V30 1357 H 136.444 0.240127 0.917084 0
M  V30 1358 H 136.15 0.305905 3.50367 0
M  V30 1359 H 136.024 -1.44422 3.48457 0
M  V30 1360 H 138.411 -1.56731 2.50039 0
M  V30 1361 H 138.492 0.199549 2.5502 0
M  V30 1362 H 138.136 0.122336 5.07753 0
M  V30 1363 H 138.066 -1.65606 4.99882 0
M  V30 1364 H 140.557 -0.798526 3.69367 0
M  V30 1365 H 140.87 -1.01645 7.66086 0
M  V30 1366 H 139.215 -0.921014 6.8887 0
M  V30 1367 H 142.406 -0.906612 4.59236 0
M  V30 1368 H 142.579 -1.00622 6.4014 0
M  V30 1369 N 135.985 -1.50799 -0.457987 0
M  V30 1370 C 137.232 -1.62442 -1.20908 0
M  V30 1371 C 137.56 -0.330865 -1.91665 0
M  V30 1372 O 136.815 0.68401 -1.83357 0
M  V30 1373 C 137.114 -2.76358 -2.2663 0
M  V30 1374 C 136.78 -4.16378 -1.73033 0
M  V30 1375 C 135.442 -4.54473 -1.58138 0
M  V30 1376 C 137.794 -5.03836 -1.33413 0
M  V30 1377 C 135.122 -5.77754 -1.02065 0
M  V30 1378 C 137.474 -6.27676 -0.78778 0
M  V30 1379 C 136.138 -6.64562 -0.625561 0
M  V30 1380 H 135.408 -0.594417 -0.442435 0
M  V30 1381 H 138.055 -1.84772 -0.503136 0
M  V30 1382 H 136.36 -2.48167 -3.03184 0
M  V30 1383 H 138.057 -2.82568 -2.84528 0
M  V30 1384 H 134.647 -3.86331 -1.85598 0
M  V30 1385 H 138.831 -4.75026 -1.4375 0
M  V30 1386 H 134.087 -6.04997 -0.882547 0
M  V30 1387 H 138.261 -6.94797 -0.472177 0
M  V30 1388 H 135.888 -7.59965 -0.188926 0
M  V30 1389 N 137.463 0.71206 -1.40597 0
M  V30 1390 C 138.393 1.83889 -1.43899 0
M  V30 1391 C 139.374 1.67442 -0.299504 0
M  V30 1392 O 140.559 1.87421 -0.508624 0
M  V30 1393 C 137.689 3.21877 -1.30431 0
M  V30 1394 C 136.643 3.53002 -2.42019 0
M  V30 1395 C 135.969 4.90172 -2.13626 0
M  V30 1396 C 137.269 3.53643 -3.84362 0
M  V30 1397 H 138.963 1.81383 -2.38203 0
M  V30 1398 H 136.509 0.871237 -1.14654 0
M  V30 1399 H 138.462 4.00404 -1.31357 0
M  V30 1400 H 137.186 3.24968 -0.326049 0
M  V30 1401 H 135.845 2.76818 -2.40349 0
M  V30 1402 H 135.493 4.89869 -1.14182 0
M  V30 1403 H 135.193 5.11962 -2.88389 0
M  V30 1404 H 136.717 5.71028 -2.1624 0
M  V30 1405 H 138.131 4.22203 -3.87837 0
M  V30 1406 H 136.528 3.86961 -4.58673 0
M  V30 1407 H 137.598 2.52954 -4.13693 0
M  V30 1408 N 138.941 1.26152 0.944643 0
M  V30 1409 C 139.851 1.09176 2.07648 0
M  V30 1410 C 140.867 0.0261935 1.7398 0
M  V30 1411 O 142.043 0.229208 2.00091 0
M  V30 1412 C 139.108 0.722915 3.39079 0
M  V30 1413 C 138.169 1.86752 3.86552 0
M  V30 1414 C 137.402 1.51617 5.11711 0
M  V30 1415 O 137.625 0.416331 5.68879 0
M  V30 1416 O 136.559 2.34975 5.54139 0
M  V30 1417 H 140.385 2.0412 2.24875 0
M  V30 1418 H 137.97 1.05182 1.061 0
M  V30 1419 H 139.852 0.529787 4.18056 0
M  V30 1420 H 138.527 -0.197159 3.23099 0
M  V30 1421 H 137.434 2.11558 3.08535 0
M  V30 1422 H 138.767 2.76719 4.07047 0
M  V30 1423 N 140.419 -1.14872 1.07899 0
M  V30 1424 C 141.668 -1.85135 0.800499 0
M  V30 1425 C 141.981 -1.83547 -0.676014 0
M  V30 1426 O 143.187 -2.49548 -1.06948 0
M  V30 1427 C 141.643 -3.3231 1.38197 0
M  V30 1428 C 141.251 -3.42329 2.8899 0
M  V30 1429 C 142.995 -4.0772 1.18174 0
M  V30 1430 C 140.902 -4.83684 3.403 0
M  V30 1431 H 139.832 -0.693563 0.29578 0
M  V30 1432 H 142.483 -1.29532 1.29976 0
M  V30 1433 H 140.865 -3.87618 0.810431 0
M  V30 1434 H 142.039 -2.97097 3.52236 0
M  V30 1435 H 140.354 -2.80369 3.07867 0
M  V30 1436 H 142.951 -5.12049 1.5398 0
M  V30 1437 H 143.294 -4.16124 0.12117 0
M  V30 1438 H 143.827 -3.58696 1.71994 0
M  V30 1439 H 140.566 -4.80465 4.45907 0
M  V30 1440 H 140.086 -5.29474 2.81811 0
M  V30 1441 H 141.765 -5.52558 3.36584 0
M  V30 1442 N 141.898 -0.863906 -1.31812 0
M  V30 1443 C 143.144 -0.472535 -1.97218 0
M  V30 1444 C 143.477 0.971394 -1.68159 0
M  V30 1445 O 142.752 1.68309 -0.974798 0
M  V30 1446 C 143.035 -0.723054 -3.52766 0
M  V30 1447 C 142.888 -2.21608 -3.91421 0
M  V30 1448 C 144.207 -0.185522 -4.39709 0
M  V30 1449 H 141.326 -0.173158 -0.71637 0
M  V30 1450 H 143.968 -1.08403 -1.56041 0
M  V30 1451 H 142.118 -0.202577 -3.87971 0
M  V30 1452 H 143.79 -2.80334 -3.66347 0
M  V30 1453 H 142.033 -2.691 -3.40246 0
M  V30 1454 H 142.704 -2.34203 -4.99853 0
M  V30 1455 H 145.18 -0.630726 -4.11292 0
M  V30 1456 H 144.056 -0.390306 -5.47511 0
M  V30 1457 H 144.317 0.912229 -4.32586 0
M  V30 1458 N 143.376 1.44774 -0.622745 0
M  V30 1459 C 144.792 1.56986 -0.287652 0
M  V30 1460 C 144.992 1.61167 1.20944 0
M  V30 1461 O 144.048 1.55015 1.99315 0
M  V30 1462 C 145.361 2.84551 -0.972188 0
M  V30 1463 C 146.909 2.9825 -0.949536 0
M  V30 1464 C 147.384 4.28605 -1.61437 0
M  V30 1465 N 148.875 4.35399 -1.58057 0
M  V30 1466 C 149.61 5.34964 -2.064 0
M  V30 1467 N 149.106 6.40981 -2.62897 0
M  V30 1468 N 150.899 5.26419 -1.97078 0
M  V30 1469 H 143.05 1.40304 -1.59463 0
M  V30 1470 H 145.313 0.671794 -0.668878 0
M  V30 1471 H 145.019 2.87417 -2.02693 0
M  V30 1472 H 144.893 3.73807 -0.504771 0
M  V30 1473 H 147.28 2.94941 0.0967067 0
M  V30 1474 H 147.361 2.10364 -1.45536 0
M  V30 1475 H 147.005 4.32672 -2.66002 0
M  V30 1476 H 146.935 5.15334 -1.08344 0
M  V30 1477 H 149.426 3.59397 -1.16801 0
M  V30 1478 H 149.739 7.13225 -2.97539 0
M  V30 1479 H 148.084 6.4169 -2.66943 0
M  V30 1480 H 151.275 4.42504 -1.52669 0
M  V30 1481 H 151.448 6.03861 -2.35066 0
M  V30 1482 N 144.854 0.36279 1.53368 0
M  V30 1483 C 146.27 0.0116182 1.59596 0
M  V30 1484 C 146.47 -1.47012 1.37803 0
M  V30 1485 O 145.526 -2.23136 1.18181 0
M  V30 1486 C 146.839 0.465052 2.97082 0
M  V30 1487 C 148.387 0.419033 3.10182 0
M  V30 1488 C 148.862 0.848235 4.50077 0
M  V30 1489 N 150.353 0.803183 4.56183 0
M  V30 1490 C 151.088 1.107 5.62613 0
M  V30 1491 N 150.584 1.47996 6.76808 0
M  V30 1492 N 152.377 1.02998 5.52583 0
M  V30 1493 H 144.528 1.32775 1.65785 0
M  V30 1494 H 146.791 0.542518 0.777417 0
M  V30 1495 H 146.497 1.49892 3.18159 0
M  V30 1496 H 146.371 -0.149786 3.76902 0
M  V30 1497 H 148.758 -0.605696 2.88817 0
M  V30 1498 H 148.839 1.06933 2.32377 0
M  V30 1499 H 148.483 1.87107 4.7218 0
M  V30 1500 H 148.413 0.175218 5.26308 0
M  V30 1501 H 150.904 0.52838 3.74188 0
M  V30 1502 H 151.217 1.69613 7.53957 0
M  V30 1503 H 149.562 1.51859 6.78206 0
M  V30 1504 H 152.753 0.737817 4.62249 0
M  V30 1505 H 152.926 1.2701 6.35431 0
M  V30 1506 N 146.332 -1.57332 0.0918853 0
M  V30 1507 C 147.295 -2.12708 -0.85369 0
M  V30 1508 C 148.295 -1.05561 -1.213 0
M  V30 1509 O 149.485 -1.31461 -1.14296 0
M  V30 1510 C 146.617 -2.64503 -2.15061 0
M  V30 1511 H 147.81 -2.97573 -0.3729 0
M  V30 1512 H 145.363 -1.55509 -0.157072 0
M  V30 1513 H 146.098 -1.83149 -2.67632 0
M  V30 1514 H 145.883 -3.4284 -1.90272 0
M  V30 1515 H 147.373 -3.07351 -2.82711 0
M  V30 1516 N 147.81 0.181792 -1.56548 0
M  V30 1517 C 149.035 0.920019 -1.85877 0
M  V30 1518 C 149.46 1.75494 -0.677021 0
M  V30 1519 O 148.818 1.77399 0.374056 0
M  V30 1520 C 148.866 1.78112 -3.13542 0
M  V30 1521 O 147.97 2.88152 -2.95029 0
M  V30 1522 H 147.311 0.258334 -0.611686 0
M  V30 1523 H 149.841 0.183092 -2.03779 0
M  V30 1524 H 149.851 2.18314 -3.44678 0
M  V30 1525 H 148.526 1.16777 -3.99169 0
M  V30 1526 H 147.103 2.51609 -2.75222 0
M  V30 1527 N 149.288 1.51039 0.449983 0
M  V30 1528 C 150.198 1.74261 1.57067 0
M  V30 1529 C 151.214 0.626363 1.62335 0
M  V30 1530 O 152.39 0.907162 1.79812 0
M  V30 1531 C 149.455 1.85114 2.93144 0
M  V30 1532 C 148.516 3.0893 2.98095 0
M  V30 1533 C 147.749 3.19256 4.27681 0
M  V30 1534 O 147.972 2.35835 5.19363 0
M  V30 1535 O 146.906 4.12144 4.38658 0
M  V30 1536 H 150.732 2.69303 1.40391 0
M  V30 1537 H 148.317 1.35389 0.631688 0
M  V30 1538 H 150.199 1.94311 3.73926 0
M  V30 1539 H 148.874 0.932588 3.09975 0
M  V30 1540 H 147.781 3.0522 2.16314 0
M  V30 1541 H 149.114 4.00433 2.86206 0
M  V30 1542 N 150.766 -0.704594 1.40972 0
M  V30 1543 C 151.713 -1.81862 1.42109 0
M  V30 1544 C 152.683 -1.63781 0.276593 0
M  V30 1545 O 153.868 -1.84759 0.4763 0
M  V30 1546 C 151.008 -3.19669 1.30022 0
M  V30 1547 C 150.121 -3.49246 2.54267 0
M  V30 1548 C 149.256 -4.76618 2.3454 0
M  V30 1549 C 148.295 -4.99133 3.54306 0
M  V30 1550 N 147.432 -6.17726 3.33706 0
M  V30 1551 H 152.272 -1.80226 2.37324 0
M  V30 1552 H 149.809 -0.880238 1.17857 0
M  V30 1553 H 151.767 -3.99263 1.21018 0
M  V30 1554 H 150.397 -3.20506 0.384192 0
M  V30 1555 H 149.449 -2.64125 2.73756 0
M  V30 1556 H 150.761 -3.61788 3.43381 0
M  V30 1557 H 149.915 -5.64249 2.22952 0
M  V30 1558 H 148.654 -4.66305 1.42867 0
M  V30 1559 H 147.659 -4.09953 3.66359 0
M  V30 1560 H 148.884 -5.11311 4.4692 0
M  V30 1561 H 146.83 -6.08642 2.44725 0
M  V30 1562 H 146.747 -6.30995 4.16391 0
M  V30 1563 H 148.015 -7.08115 3.25873 0
M  V30 1564 N 152.244 -1.26651 -0.937939 0
M  V30 1565 C 153.469 -1.15279 -1.72411 0
M  V30 1566 C 153.894 0.287866 -1.85884 0
M  V30 1567 O 153.252 1.20855 -1.35143 0
M  V30 1568 C 153.3 -1.83028 -3.10698 0
M  V30 1569 O 152.404 -1.12128 -3.96864 0
M  V30 1570 H 151.745 -0.401504 -0.528858 0
M  V30 1571 H 154.275 -1.67531 -1.1745 0
M  V30 1572 H 154.285 -1.89981 -3.6107 0
M  V30 1573 H 152.96 -2.87833 -3.00208 0
M  V30 1574 H 151.537 -1.13173 -3.55312 0
M  V30 1575 N 153.722 1.14298 -1.08507 0
M  V30 1576 C 154.632 2.23027 -0.727753 0
M  V30 1577 C 155.648 1.71952 0.26619 0
M  V30 1578 O 156.824 2.011 0.109882 0
M  V30 1579 C 153.889 3.46403 -0.143541 0
M  V30 1580 C 152.95 4.12413 -1.19223 0
M  V30 1581 C 152.183 5.29899 -0.635798 0
M  V30 1582 O 152.406 5.67796 0.544393 0
M  V30 1583 O 151.34 5.85717 -1.38634 0
M  V30 1584 H 155.166 2.55945 -1.63481 0
M  V30 1585 H 152.751 1.22248 -0.858817 0
M  V30 1586 H 154.633 4.21018 0.179404 0
M  V30 1587 H 153.308 3.15206 0.736659 0
M  V30 1588 H 152.215 3.39667 -1.56772 0
M  V30 1589 H 153.548 4.47718 -2.04474 0
M  V30 1590 N 155.201 0.870884 1.31352 0
M  V30 1591 C 156.131 0.343096 2.30966 0
M  V30 1592 C 157.112 -0.566507 1.60389 0
M  V30 1593 O 158.297 -0.483336 1.88089 0
M  V30 1594 C 155.427 -0.455487 3.443 0
M  V30 1595 C 154.381 0.361103 4.26474 0
M  V30 1596 C 153.707 -0.563221 5.31725 0
M  V30 1597 C 155.007 1.59566 4.97329 0
M  V30 1598 H 156.701 1.17548 2.75359 0
M  V30 1599 H 154.247 0.566686 1.32381 0
M  V30 1600 H 156.2 -0.83525 4.13039 0
M  V30 1601 H 154.924 -1.32139 2.98675 0
M  V30 1602 H 153.583 0.722825 3.59403 0
M  V30 1603 H 153.231 -1.42643 4.82351 0
M  V30 1604 H 152.931 -0.0207409 5.87596 0
M  V30 1605 H 154.455 -0.939808 6.03324 0
M  V30 1606 H 155.869 1.28728 5.58661 0
M  V30 1607 H 154.266 2.07728 5.63 0
M  V30 1608 H 155.336 2.34798 4.24262 0
M  V30 1609 N 156.679 -1.44442 0.630414 0
M  V30 1610 C 157.925 -2.02351 0.134816 0
M  V30 1611 C 158.258 -1.4947 -1.23986 0
M  V30 1612 O 157.533 -0.678475 -1.82283 0
M  V30 1613 C 157.816 -3.59898 0.120707 0
M  V30 1614 C 157.669 -4.23063 1.52767 0
M  V30 1615 C 158.988 -4.36585 -0.555127 0
M  V30 1616 H 156.107 -0.73527 0.0504646 0
M  V30 1617 H 158.749 -1.72022 0.806751 0
M  V30 1618 H 156.899 -3.85868 -0.451477 0
M  V30 1619 H 158.571 -4.08202 2.14869 0
M  V30 1620 H 156.814 -3.80586 2.08175 0
M  V30 1621 H 157.485 -5.32071 1.46984 0
M  V30 1622 H 159.961 -4.16044 -0.0685429 0
M  V30 1623 H 158.837 -5.46294 -0.534185 0
M  V30 1624 H 159.098 -4.11138 -1.62535 0
M  V30 1625 N 158.157 -0.370918 -1.53173 0
M  V30 1626 C 159.382 0.220293 -2.06227 0
M  V30 1627 C 159.807 1.41243 -1.24225 0
M  V30 1628 O 159.165 1.79387 -0.262645 0
M  V30 1629 C 159.213 0.586663 -3.55796 0
M  V30 1630 O 158.317 1.68317 -3.76488 0
M  V30 1631 H 157.658 0.0308099 -0.663285 0
M  V30 1632 H 160.188 -0.533068 -1.97534 0
M  V30 1633 H 160.198 0.85617 -3.98916 0
M  V30 1634 H 158.873 -0.285013 -4.14922 0
M  V30 1635 H 157.45 1.40881 -3.45264 0
M  V30 1636 N 159.635 1.57281 -0.100228 0
M  V30 1637 C 161.051 1.57527 0.256416 0
M  V30 1638 C 161.251 1.11173 1.68056 0
M  V30 1639 O 160.307 0.79053 2.39806 0
M  V30 1640 C 161.62 3.00673 0.0401747 0
M  V30 1641 C 163.168 3.12815 0.107528 0
M  V30 1642 C 163.643 4.57929 -0.0807834 0
M  V30 1643 N 165.134 4.63193 -0.0261207 0
M  V30 1644 C 165.869 5.73212 -0.146999 0
M  V30 1645 N 165.365 6.92047 -0.322999 0
M  V30 1646 N 167.158 5.62031 -0.0879044 0
M  V30 1647 H 159.309 1.85718 -1.03065 0
M  V30 1648 H 161.572 0.857446 -0.404339 0
M  V30 1649 H 161.278 3.38804 -0.943649 0
M  V30 1650 H 161.152 3.69042 0.780262 0
M  V30 1651 H 163.539 2.74554 1.08186 0
M  V30 1652 H 163.62 2.47028 -0.664134 0
M  V30 1653 H 163.264 4.96886 -1.05201 0
M  V30 1654 H 163.194 5.21783 0.710635 0
M  V30 1655 H 165.685 3.77748 0.107161 0
M  V30 1656 H 165.998 7.7173 -0.406608 0
M  V30 1657 H 164.343 6.94074 -0.358733 0
M  V30 1658 H 167.534 4.68075 0.048498 0
M  V30 1659 H 167.707 6.47734 -0.185557 0
M  V30 1660 N 161.113 -0.173488 1.56642 0
M  V30 1661 C 162.361 -0.888706 1.81512 0
M  V30 1662 C 162.682 -1.82875 0.676872 0
M  V30 1663 O 161.952 -1.93536 -0.303414 0
M  V30 1664 H 160.532 -0.331164 0.669582 0
M  V30 1665 H 163.194 -0.173823 1.94123 0
M  V30 1666 H 162.29 -1.46691 2.75478 0
M  V30 1667 N 162.591 -1.51276 -0.441967 0
M  V30 1668 C 164.002 -1.56244 -1.02199 0
M  V30 1669 C 164.353 -0.383149 -1.92422 0
M  V30 1670 O 163.478 0.500613 -2.1053 0
M  V30 1671 C 164.073 -2.83162 -1.86024 0
M  V30 1672 C 162.632 -2.90716 -2.39084 0
M  V30 1673 C 161.779 -2.50858 -1.18175 0
M  V30 1674 H 164.73 -1.5712 -0.223416 0
M  V30 1675 H 164.751 -2.66663 -2.71425 0
M  V30 1676 H 164.263 -3.68974 -1.20331 0
M  V30 1677 H 162.364 -2.09323 -3.08244 0
M  V30 1678 H 162.477 -3.94266 -2.72198 0
M  V30 1679 H 160.841 -2.03951 -1.52565 0
M  V30 1680 H 161.624 -3.3901 -0.541001 0
M  V30 1681 N 164.069 0.697108 -1.41344 0
M  V30 1682 C 165.315 1.4593 -1.40827 0
M  V30 1683 C 165.648 1.94193 -0.0167098 0
M  V30 1684 O 164.923 1.69425 0.955263 0
M  V30 1685 C 165.206 2.67229 -2.41373 0
M  V30 1686 C 165.059 2.24741 -3.8963 0
M  V30 1687 C 166.378 3.69423 -2.39196 0
M  V30 1688 H 163.497 0.529303 -0.512842 0
M  V30 1689 H 166.139 0.794112 -1.72609 0
M  V30 1690 H 164.289 3.23982 -2.14401 0
M  V30 1691 H 165.961 1.73327 -4.27499 0
M  V30 1692 H 164.204 1.56542 -4.0457 0
M  V30 1693 H 164.875 3.1177 -4.55525 0
M  V30 1694 H 167.351 3.2234 -2.63128 0
M  V30 1695 H 166.227 4.51907 -3.11563 0
M  V30 1696 H 166.488 4.19012 -1.41001 0
M  V30 1697 N 165.547 1.27147 0.931209 0
M  V30 1698 C 166.772 1.16191 1.71797 0
M  V30 1699 C 167.197 -0.278004 1.86034 0
M  V30 1700 O 166.555 -1.20137 1.35782 0
M  V30 1701 C 166.603 1.84673 3.09723 0
M  V30 1702 O 165.707 1.14231 3.96264 0
M  V30 1703 H 165.048 0.404303 0.526721 0
M  V30 1704 H 167.578 1.68152 1.1656 0
M  V30 1705 H 167.588 1.91893 3.60057 0
M  V30 1706 H 166.263 2.89421 2.98677 0
M  V30 1707 H 164.84 1.15056 3.54706 0
M  V30 1708 N 167.025 -1.13721 1.09112 0
M  V30 1709 C 168.436 -1.6648 0.845068 0
M  V30 1710 C 168.787 -1.85911 -0.62701 0
M  V30 1711 O 167.912 -1.57556 -1.48341 0
M  V30 1712 C 168.507 -3.02413 1.52748 0
M  V30 1713 C 167.066 -3.52176 1.32849 0
M  V30 1714 C 166.213 -2.27492 1.58564 0
M  V30 1715 H 169.164 -0.976872 1.25072 0
M  V30 1716 H 169.185 -3.68223 0.958752 0
M  V30 1717 H 168.697 -2.88238 2.59885 0
M  V30 1718 H 166.798 -3.7156 0.278137 0
M  V30 1719 H 166.911 -4.32499 2.0611 0
M  V30 1720 H 165.275 -2.33923 1.00758 0
M  V30 1721 H 166.058 -2.15886 2.66924 0
M  V30 1722 N 168.503 -0.877838 -1.30888 0
M  V30 1723 C 169.433 -0.35534 -2.3078 0
M  V30 1724 C 170.414 0.557994 -1.60687 0
M  V30 1725 O 171.599 0.473355 -1.88343 0
M  V30 1726 C 168.729 0.437221 -3.44537 0
M  V30 1727 C 167.683 -0.383715 -4.26276 0
M  V30 1728 C 167.009 0.535014 -5.32017 0
M  V30 1729 C 168.309 -1.62201 -4.96476 0
M  V30 1730 H 170.003 -1.19007 -2.74732 0
M  V30 1731 H 167.549 -0.573698 -1.32078 0
M  V30 1732 H 169.502 0.813334 -4.13477 0
M  V30 1733 H 168.226 1.30553 -2.99372 0
M  V30 1734 H 166.885 -0.741874 -3.59015 0
M  V30 1735 H 166.533 1.40083 -4.831 0
M  V30 1736 H 166.233 -0.0104211 -5.87599 0
M  V30 1737 H 167.757 0.907799 -6.03814 0
M  V30 1738 H 169.171 -1.31689 -5.5797 0
M  V30 1739 H 167.568 -2.10711 -5.61891 0
M  V30 1740 H 168.638 -2.37044 -4.23011 0
M  V30 1741 N 169.982 1.44106 -0.638065 0
M  V30 1742 C 170.914 2.28976 0.101205 0
M  V30 1743 C 171.927 1.4167 0.802088 0
M  V30 1744 O 173.116 1.65755 0.662375 0
M  V30 1745 C 170.216 3.18217 1.16581 0
M  V30 1746 C 169.389 4.33978 0.546066 0
M  V30 1747 C 168.448 5.04202 1.50554 0
M  V30 1748 O 167.474 5.59986 1.01999 0
M  V30 1749 N 168.676 5.06296 2.8398 0
M  V30 1750 H 171.441 2.93064 -0.627186 0
M  V30 1751 H 169.002 1.54629 -0.479731 0
M  V30 1752 H 170.994 3.62061 1.80815 0
M  V30 1753 H 169.564 2.55833 1.79634 0
M  V30 1754 H 168.784 3.93239 -0.275046 0
M  V30 1755 H 170.072 5.08675 0.112793 0
M  V30 1756 H 169.47 4.62319 3.26002 0
M  V30 1757 H 168.027 5.53907 3.43556 0
M  V30 1758 N 171.46 0.379036 1.52974 0
M  V30 1759 C 172.871 -0.0972525 1.86447 0
M  V30 1760 C 173.222 -1.47027 1.29914 0
M  V30 1761 O 172.347 -2.07135 0.626433 0
M  V30 1762 C 172.942 -0.183248 3.38304 0
M  V30 1763 C 171.501 -0.603812 3.71525 0
M  V30 1764 C 170.648 0.240632 2.76254 0
M  V30 1765 H 173.599 0.597316 1.4703 0
M  V30 1766 H 173.62 -1.00432 3.67006 0
M  V30 1767 H 173.132 0.816191 3.79421 0
M  V30 1768 H 171.233 -1.61099 3.35973 0
M  V30 1769 H 171.346 -0.369086 4.77676 0
M  V30 1770 H 169.71 -0.292548 2.53014 0
M  V30 1771 H 170.493 1.23786 3.20206 0
M  V30 1772 N 172.938 -1.57226 0.108567 0
M  V30 1773 C 174.215 -1.86333 -0.594939 0
M  V30 1774 C 174.595 -1.00788 -1.85486 0
M  V30 1775 O 173.943 -0.0839293 -2.28346 0
M  V30 1776 C 174.153 -3.37265 -0.897405 0
M  V30 1777 C 175.501 -4.05629 -1.25501 0
M  V30 1778 O 176.525 -3.42224 -0.987998 0
M  V30 1779 O 175.384 -5.17531 -1.75567 0
M  V30 1780 H 172.478 -0.771018 -0.2991 0
M  V30 1781 H 175.024 -1.69102 0.142283 0
M  V30 1782 H 173.796 -3.913 -0.00413806 0
M  V30 1783 H 173.419 -3.59889 -1.69014 0
M  V30 1784 N 174.416 0.165178 -1.56732 0
M  V30 1785 C 175.363 1.2044 -1.96883 0
M  V30 1786 C 176.333 1.43664 -0.833657 0
M  V30 1787 O 177.518 1.56302 -1.09427 0
M  V30 1788 C 174.658 2.53727 -2.33916 0
M  V30 1789 C 173.771 2.3783 -3.6064 0
M  V30 1790 C 172.906 3.64026 -3.86857 0
M  V30 1791 C 171.945 3.43088 -5.06909 0
M  V30 1792 N 171.082 4.61369 -5.29229 0
M  V30 1793 H 175.922 0.854996 -2.85471 0
M  V30 1794 H 173.459 0.41076 -1.41249 0
M  V30 1795 H 175.417 3.31419 -2.53411 0
M  V30 1796 H 174.047 2.8665 -1.48431 0
M  V30 1797 H 173.099 1.51282 -3.49024 0
M  V30 1798 H 174.411 2.18308 -4.4849 0
M  V30 1799 H 173.565 4.50152 -4.06753 0
M  V30 1800 H 172.304 3.86533 -2.97394 0
M  V30 1801 H 171.309 2.55349 -4.86906 0
M  V30 1802 H 172.534 3.21997 -5.97909 0
M  V30 1803 H 170.48 4.84084 -4.42718 0
M  V30 1804 H 170.397 4.44783 -6.11313 0
M  V30 1805 H 171.665 5.48761 -5.53608 0
M  V30 1806 N 175.894 1.51508 0.433938 0
M  V30 1807 C 177.14 1.64588 1.18484 0
M  V30 1808 C 177.473 0.362666 1.90784 0
M  V30 1809 O 176.748 -0.637892 1.83742 0
M  V30 1810 C 177.031 2.85149 2.19913 0
M  V30 1811 C 176.884 4.23456 1.51674 0
M  V30 1812 C 178.203 3.01227 3.20858 0
M  V30 1813 H 175.322 0.598994 0.429389 0
M  V30 1814 H 177.964 1.84002 0.473647 0
M  V30 1815 H 176.114 2.68729 2.80566 0
M  V30 1816 H 177.786 4.51552 0.943322 0
M  V30 1817 H 176.029 4.25998 0.819035 0
M  V30 1818 H 176.7 5.03812 2.2556 0
M  V30 1819 H 179.176 3.16382 2.70263 0
M  V30 1820 H 178.052 3.87141 3.89118 0
M  V30 1821 H 178.313 2.13447 3.8716 0
M  V30 1822 N 177.372 -0.689602 1.41712 0
M  V30 1823 C 178.618 -1.45181 1.41599 0
M  V30 1824 C 178.951 -1.94181 0.0270081 0
M  V30 1825 O 178.226 -1.6993 -0.946265 0
M  V30 1826 C 178.509 -2.65945 2.42787 0
M  V30 1827 C 178.362 -2.22672 3.90816 0
M  V30 1828 C 179.681 -3.68149 2.41151 0
M  V30 1829 H 176.8 -0.526576 0.515642 0
M  V30 1830 H 179.442 -0.784947 1.73028 0
M  V30 1831 H 177.592 -3.2284 2.16116 0
M  V30 1832 H 179.264 -1.71058 4.28412 0
M  V30 1833 H 177.507 -1.54394 4.05395 0
M  V30 1834 H 178.178 -3.0935 4.57172 0
M  V30 1835 H 180.654 -3.2094 2.64834 0
M  V30 1836 H 179.53 -4.50248 3.13955 0
M  V30 1837 H 179.791 -4.18259 1.43221 0
M  V30 1838 N 178.85 -1.27639 -0.924453 0
M  V30 1839 C 179.76 -1.12466 -2.05885 0
M  V30 1840 C 180.776 -0.053869 -1.73917 0
M  V30 1841 O 181.952 -0.261012 -1.99702 0
M  V30 1842 C 179.017 -0.776768 -3.37886 0
M  V30 1843 C 178.078 -1.92878 -3.83532 0
M  V30 1844 C 177.311 -1.59739 -5.09234 0
M  V30 1845 O 177.534 -0.506782 -5.68144 0
M  V30 1846 O 176.468 -2.43761 -5.50331 0
M  V30 1847 H 180.294 -2.07671 -2.21599 0
M  V30 1848 H 177.879 -1.06857 -1.04413 0
M  V30 1849 H 179.761 -0.596229 -4.17161 0
M  V30 1850 H 178.436 0.145732 -3.23372 0
M  V30 1851 H 177.343 -2.1644 -3.0513 0
M  V30 1852 H 178.676 -2.8316 -4.02593 0
M  V30 1853 N 180.328 1.1314 -1.09713 0
M  V30 1854 C 181.575 1.84484 -0.834987 0
M  V30 1855 C 181.903 1.83689 0.639418 0
M  V30 1856 O 181.158 1.2724 1.4869 0
M  V30 1857 C 181.457 3.32167 -1.3191 0
M  V30 1858 C 181.123 3.53139 -2.80363 0
M  V30 1859 C 179.785 3.58571 -3.20905 0
M  V30 1860 C 182.137 3.60866 -3.76065 0
M  V30 1861 C 179.465 3.69267 -4.55916 0
M  V30 1862 C 181.817 3.73089 -5.10869 0
M  V30 1863 C 180.481 3.76775 -5.50996 0
M  V30 1864 H 179.751 0.675073 -0.305544 0
M  V30 1865 H 182.398 1.33554 -1.37243 0
M  V30 1866 H 180.703 3.85469 -0.701517 0
M  V30 1867 H 182.4 3.85821 -1.09284 0
M  V30 1868 H 178.99 3.49569 -2.47991 0
M  V30 1869 H 183.174 3.55946 -3.45855 0
M  V30 1870 H 178.43 3.70388 -4.86438 0
M  V30 1871 H 182.604 3.78011 -5.84877 0
M  V30 1872 H 180.231 3.84815 -6.55608 0
M  V30 1873 N 181.806 0.884767 1.30421 0
M  V30 1874 C 182.736 0.367574 2.30589 0
M  V30 1875 C 183.717 -0.549464 1.60981 0
M  V30 1876 O 184.902 -0.46336 1.88591 0
M  V30 1877 C 182.032 -0.418944 3.44764 0
M  V30 1878 C 180.986 0.406316 4.26067 0
M  V30 1879 C 180.312 -0.506793 5.32293 0
M  V30 1880 C 181.612 1.64832 4.95608 0
M  V30 1881 H 183.306 1.20462 2.74097 0
M  V30 1882 H 180.852 0.580695 1.31772 0
M  V30 1883 H 182.805 -0.791395 4.13902 0
M  V30 1884 H 181.529 -1.28964 3.0006 0
M  V30 1885 H 180.188 0.760903 3.58617 0
M  V30 1886 H 179.836 -1.37519 4.83836 0
M  V30 1887 H 179.536 0.0415828 5.87585 0
M  V30 1888 H 181.06 -0.875764 6.04287 0
M  V30 1889 H 182.474 1.34646 5.57264 0
M  V30 1890 H 180.871 2.13688 5.60765 0
M  V30 1891 H 181.941 2.39284 4.21748 0
M  V30 1892 N 183.284 -1.43765 0.645699 0
M  V30 1893 C 184.509 -2.06767 0.161883 0
M  V30 1894 C 184.934 -1.48034 -1.16049 0
M  V30 1895 O 184.292 -0.587369 -1.71522 0
M  V30 1896 C 184.34 -3.60519 0.0762003 0
M  V30 1897 O 183.444 -4.00982 -0.963721 0
M  V30 1898 H 182.785 -0.657675 0.091429 0
M  V30 1899 H 185.315 -1.84397 0.886499 0
M  V30 1900 H 185.325 -4.07853 -0.109604 0
M  V30 1901 H 184 -4.02646 1.04157 0
M  V30 1902 H 182.577 -3.65253 -0.751312 0
M  V30 1903 N 184.763 -0.387143 -1.52771 0
M  V30 1904 C 186.011 0.195349 -2.01154 0
M  V30 1905 C 186.332 1.475 -1.27549 0
M  V30 1906 O 185.602 1.91878 -0.394924 0
M  V30 1907 H 184.182 0.075178 -0.743207 0
M  V30 1908 H 186.844 -0.518337 -1.87881 0
M  V30 1909 H 185.94 0.407096 -3.09434 0
M  V30 1910 N 186.241 1.57166 -0.116904 0
M  V30 1911 C 187.466 1.999 0.55271 0
M  V30 1912 C 187.891 0.996039 1.59564 0
M  V30 1913 O 187.249 -0.032556 1.81271 0
M  V30 1914 C 187.297 3.4152 1.15742 0
M  V30 1915 O 186.401 3.44106 2.27299 0
M  V30 1916 H 185.742 0.649447 0.138258 0
M  V30 1917 H 188.272 2.03573 -0.204759 0
M  V30 1918 H 188.282 3.79684 1.49346 0
M  V30 1919 H 186.957 4.14034 0.393493 0
M  V30 1920 H 185.534 3.17759 1.9515 0
M  V30 1921 N 187.719 -0.156864 1.56817 0
M  V30 1922 C 188.949 -0.885031 1.86684 0
M  V30 1923 C 189.357 -1.75696 0.701954 0
M  V30 1924 O 188.7 -1.80569 -0.337732 0
M  V30 1925 C 188.762 -1.80092 3.11138 0
M  V30 1926 C 188.426 -1.10714 4.43386 0
M  V30 1927 C 189.423 -0.465714 5.1781 0
M  V30 1928 C 187.108 -1.09959 4.90117 0
M  V30 1929 C 189.102 0.174002 6.37162 0
M  V30 1930 C 186.789 -0.456055 6.09396 0
M  V30 1931 C 187.787 0.179622 6.82764 0
M  V30 1932 O 187.475 0.812975 7.99779 0
M  V30 1933 H 187.207 -0.261813 0.623242 0
M  V30 1934 H 189.761 -0.157383 2.04796 0
M  V30 1935 H 187.991 -2.56926 2.89009 0
M  V30 1936 H 189.68 -2.40018 3.27332 0
M  V30 1937 H 190.446 -0.463427 4.82781 0
M  V30 1938 H 186.325 -1.58378 4.3294 0
M  V30 1939 H 189.869 0.670765 6.94368 0
M  V30 1940 H 185.766 -0.455975 6.43888 0
M  V30 1941 H 186.534 0.71366 8.15383 0
M  V30 1942 N 189.197 -1.51736 -0.425897 0
M  V30 1943 C 190.16 -1.73271 -1.50032 0
M  V30 1944 C 191.16 -0.602639 -1.4908 0
M  V30 1945 O 192.35 -0.87033 -1.509 0
M  V30 1946 C 189.482 -1.79969 -2.89523 0
M  V30 1947 H 190.675 -2.69172 -1.32237 0
M  V30 1948 H 188.228 -1.41899 -0.65532 0
M  V30 1949 H 188.963 -0.859241 -3.1271 0
M  V30 1950 H 188.748 -2.62109 -2.91619 0
M  V30 1951 H 190.238 -1.9843 -3.67444 0
M  V30 1952 N 190.675 0.682077 -1.42076 0
M  V30 1953 C 191.923 1.4393 -1.41876 0
M  V30 1954 C 192.244 1.94971 -0.0335599 0
M  V30 1955 O 191.514 1.72591 0.926773 0
M  V30 1956 H 190.094 0.534085 -0.522267 0
M  V30 1957 H 192.756 0.806427 -1.77434 0
M  V30 1958 H 191.852 2.29588 -2.11414 0
M  V30 1959 N 192.153 1.28127 0.917671 0
M  V30 1960 C 193.083 1.14248 2.03641 0
M  V30 1961 C 194.064 0.0412748 1.7005 0
M  V30 1962 O 195.249 0.217566 1.92977 0
M  V30 1963 C 192.379 0.799431 3.37974 0
M  V30 1964 C 191.333 1.85497 3.85713 0
M  V30 1965 C 190.659 1.36565 5.16966 0
M  V30 1966 C 191.959 3.26085 4.08002 0
M  V30 1967 H 193.653 2.07835 2.15511 0
M  V30 1968 H 191.199 1.00064 1.03553 0
M  V30 1969 H 193.152 0.689114 4.15727 0
M  V30 1970 H 191.876 -0.172145 3.26146 0
M  V30 1971 H 190.535 1.95437 3.10161 0
M  V30 1972 H 190.183 0.383253 5.01538 0
M  V30 1973 H 189.883 2.07143 5.49878 0
M  V30 1974 H 191.407 1.26848 5.97279 0
M  V30 1975 H 192.821 3.19089 4.76293 0
M  V30 1976 H 191.218 3.94462 4.52238 0
M  V30 1977 H 192.288 3.70394 3.12948 0
M  V30 1978 N 193.631 -1.12557 1.10312 0
M  V30 1979 C 194.856 -1.88405 0.867085 0
M  V30 1980 C 195.281 -1.79038 -0.576817 0
M  V30 1981 O 194.639 -1.14439 -1.40618 0
M  V30 1982 C 194.687 -3.3563 1.31851 0
M  V30 1983 O 193.791 -4.09565 0.482734 0
M  V30 1984 H 193.132 -0.585455 0.313271 0
M  V30 1985 H 195.662 -1.42352 1.4696 0
M  V30 1986 H 195.672 -3.86469 1.3079 0
M  V30 1987 H 194.347 -3.41765 2.37001 0
M  V30 1988 H 192.924 -3.68695 0.558448 0
M  V30 1989 N 195.109 -0.891671 -1.2995 0
M  V30 1990 C 196.039 -0.379797 -2.30391 0
M  V30 1991 C 197.02 0.540919 -1.6127 0
M  V30 1992 O 198.205 0.453352 -1.88834 0
M  V30 1993 C 195.335 0.400654 -3.44981 0
M  V30 1994 C 194.289 -0.428905 -4.25846 0
M  V30 1995 C 193.615 0.478557 -5.32554 0
M  V30 1996 C 194.915 -1.67458 -4.94727 0
M  V30 1997 H 196.609 -1.21914 -2.73454 0
M  V30 1998 H 194.155 -0.587675 -1.31462 0
M  V30 1999 H 196.108 0.769434 -4.14316 0
M  V30 2000 H 194.832 1.27371 -3.0074 0
M  V30 2001 H 193.491 -0.779911 -3.58208 0
M  V30 2002 H 193.139 1.34951 -4.84559 0
M  V30 2003 H 192.839 -0.0727433 -5.87555 0
M  V30 2004 H 194.363 0.843705 -6.04743 0
M  V30 2005 H 195.777 -1.376 -5.56542 0
M  V30 2006 H 194.174 -2.16659 -5.59624 0
M  V30 2007 H 195.244 -2.41518 -4.20473 0
M  V30 2008 N 196.587 1.43421 -0.653314 0
M  V30 2009 C 197.812 2.06678 -0.172846 0
M  V30 2010 C 198.237 1.48648 1.15262 0
M  V30 2011 O 197.595 0.596457 1.71208 0
M  V30 2012 C 197.643 3.60474 -0.0953184 0
M  V30 2013 O 196.747 4.01487 0.942442 0
M  V30 2014 H 196.088 0.657181 -0.0949155 0
M  V30 2015 H 198.618 1.83925 -0.896265 0
M  V30 2016 H 198.628 4.07905 0.0879728 0
M  V30 2017 H 197.303 4.02088 -1.06291 0
M  V30 2018 H 195.88 3.65646 0.731932 0
M  V30 2019 N 198.065 0.39524 1.52563 0
M  V30 2020 C 199.29 -0.187456 2.06551 0
M  V30 2021 C 199.715 -1.39249 1.26457 0
M  V30 2022 O 199.073 -1.78947 0.291151 0
M  V30 2023 C 199.121 -0.529985 3.56684 0
M  V30 2024 O 198.225 -1.62307 3.79118 0
M  V30 2025 H 197.566 -0.0202537 0.663691 0
M  V30 2026 H 200.096 0.564426 1.96661 0
M  V30 2027 H 200.106 -0.792598 4.00227 0
M  V30 2028 H 198.781 0.350987 4.14416 0
M  V30 2029 H 197.358 -1.3537 3.47461 0
M  V30 2030 N 199.544 -1.57102 0.125237 0
M  V30 2031 C 200.96 -1.57915 -0.231322 0
M  V30 2032 C 201.16 -1.13833 -1.66266 0
M  V30 2033 O 200.216 -0.828581 -2.38518 0
M  V30 2034 C 201.529 -3.00699 0.00766489 0
M  V30 2035 C 203.077 -3.12947 -0.0577483 0
M  V30 2036 C 203.552 -4.57742 0.153626 0
M  V30 2037 N 205.043 -4.63092 0.0998073 0
M  V30 2038 C 205.778 -5.72905 0.238174 0
M  V30 2039 N 205.274 -6.91445 0.433057 0
M  V30 2040 N 207.067 -5.6182 0.177308 0
M  V30 2041 H 199.218 -1.84055 1.06007 0
M  V30 2042 H 201.481 -0.850905 0.417929 0
M  V30 2043 H 201.187 -3.3726 0.997431 0
M  V30 2044 H 201.061 -3.70236 -0.721452 0
M  V30 2045 H 203.448 -2.7624 -1.03804 0
M  V30 2046 H 203.529 -2.4594 0.70335 0
M  V30 2047 H 203.173 -4.95149 1.13092 0
M  V30 2048 H 203.103 -5.22848 -0.627534 0
M  V30 2049 H 205.594 -3.77871 -0.047051 0
M  V30 2050 H 205.907 -7.70985 0.529332 0
M  V30 2051 H 204.252 -6.93415 0.469109 0
M  V30 2052 H 207.443 -4.68093 0.0259748 0
M  V30 2053 H 207.616 -6.47357 0.288582 0
M  V30 2054 N 201.022 0.148545 -1.56898 0
M  V30 2055 C 202.438 0.501131 -1.51528 0
M  V30 2056 C 202.638 1.83458 -0.833399 0
M  V30 2057 O 201.694 2.49259 -0.40328 0
M  V30 2058 C 203.007 0.512864 -2.96294 0
M  V30 2059 C 204.555 0.598487 -3.07225 0
M  V30 2060 C 205.03 0.640897 -4.53494 0
M  V30 2061 N 206.521 0.703163 -4.57832 0
M  V30 2062 C 207.256 0.756935 -5.68382 0
M  V30 2063 N 206.752 0.770147 -6.88506 0
M  V30 2064 N 208.545 0.797698 -5.56411 0
M  V30 2065 H 200.696 -0.725532 -1.99624 0
M  V30 2066 H 202.959 -0.264358 -0.910395 0
M  V30 2067 H 202.665 -0.398691 -3.49433 0
M  V30 2068 H 202.539 1.35133 -3.52163 0
M  V30 2069 H 204.926 1.50046 -2.54106 0
M  V30 2070 H 205.007 -0.267093 -2.54402 0
M  V30 2071 H 204.651 -0.256915 -5.0725 0
M  V30 2072 H 204.581 1.52295 -5.04097 0
M  V30 2073 H 207.072 0.700314 -3.71354 0
M  V30 2074 H 207.385 0.812983 -7.68512 0
M  V30 2075 H 205.73 0.738049 -6.9107 0
M  V30 2076 H 208.921 0.784535 -4.61479 0
M  V30 2077 H 209.094 0.83614 -6.42583 0
M  V30 2078 N 202.5 1.5196 0.417844 0
M  V30 2079 C 203.74 1.67262 1.17486 0
M  V30 2080 C 204.104 0.38983 1.88001 0
M  V30 2081 O 205.305 0.418845 2.65517 0
M  V30 2082 C 203.576 2.85526 2.14965 0
M  V30 2083 S 205.135 3.21263 2.98891 0
M  V30 2084 H 201.953 0.589077 0.398132 0
M  V30 2085 H 204.555 1.89927 0.463452 0
M  V30 2086 H 203.259 3.77145 1.61833 0
M  V30 2087 H 202.79 2.65107 2.90657 0
M  V30 2088 H 204.805 2.69208 4.16823 0
M  V30 2089 N 203.978 -0.674533 1.42435 0
M  V30 2090 C 205.255 -1.4305 1.33402 0
M  V30 2091 C 205.635 -2.11081 -0.0284674 0
M  V30 2092 O 204.983 -2.03257 -1.04397 0
M  V30 2093 C 205.193 -2.43272 2.50239 0
M  V30 2094 C 206.541 -3.07907 2.92367 0
M  V30 2095 O 207.565 -2.53599 2.50132 0
M  V30 2096 O 206.424 -4.0632 3.65467 0
M  V30 2097 H 203.518 -0.638076 0.526106 0
M  V30 2098 H 206.064 -0.703235 1.54443 0
M  V30 2099 H 204.836 -1.91803 3.41068 0
M  V30 2100 H 204.459 -3.23479 2.31186 0
M  V30 2101 N 205.456 -1.28612 -0.910864 0
M  V30 2102 C 206.733 -1.06632 -1.63979 0
M  V30 2103 C 207.113 0.393351 -2.07403 0
M  V30 2104 O 206.461 1.37999 -1.82122 0
M  V30 2105 C 206.671 -2.0436 -2.8291 0
M  V30 2106 C 208.019 -2.34666 -3.5386 0
M  V30 2107 O 209.043 -2.02467 -2.93062 0
M  V30 2108 O 207.902 -2.89631 -4.63439 0
M  V30 2109 H 204.996 -0.407737 -0.7195 0
M  V30 2110 H 207.542 -1.39942 -0.959914 0
M  V30 2111 H 206.314 -3.02727 -2.47936 0
M  V30 2112 H 205.937 -1.71714 -3.58609 0
M  V30 2113 N 206.934 1.1197 -1.10907 0
M  V30 2114 C 208.18 1.8386 -0.855773 0
M  V30 2115 C 208.513 1.84134 0.617103 0
M  V30 2116 O 207.788 1.29041 1.45529 0
M  V30 2117 C 208.071 3.31305 -1.411 0
M  V30 2118 C 207.924 3.39456 -2.9511 0
M  V30 2119 C 209.243 4.2721 -1.05736 0
M  V30 2120 H 206.362 0.667545 -0.312334 0
M  V30 2121 H 209.004 1.31331 -1.37303 0
M  V30 2122 H 207.154 3.76169 -0.97105 0
M  V30 2123 H 208.826 3.03191 -3.47668 0
M  V30 2124 H 207.069 2.79849 -3.31462 0
M  V30 2125 H 207.74 4.43209 -3.29044 0
M  V30 2126 H 210.216 3.90497 -1.43706 0
M  V30 2127 H 209.092 5.28775 -1.47269 0
M  V30 2128 H 209.353 4.42088 0.0325958 0
M  V30 2129 N 208.412 0.89855 1.29475 0
M  V30 2130 C 209.322 0.379974 2.31502 0
M  V30 2131 C 210.338 -0.524695 1.659 0
M  V30 2132 O 211.514 -0.414551 1.97087 0
M  V30 2133 C 208.579 -0.385138 3.44554 0
M  V30 2134 C 207.64 0.550914 4.2575 0
M  V30 2135 C 206.873 -0.177778 5.33404 0
M  V30 2136 O 207.096 -1.40189 5.52904 0
M  V30 2137 O 206.03 0.479106 5.9999 0
M  V30 2138 H 209.856 1.22639 2.77837 0
M  V30 2139 H 207.441 0.662834 1.33891 0
M  V30 2140 H 209.323 -0.817841 4.13388 0
M  V30 2141 H 207.998 -1.20763 3.0033 0
M  V30 2142 H 206.905 1.03271 3.59564 0
M  V30 2143 H 208.238 1.33979 4.73614 0
M  V30 2144 N 209.89 -1.43072 0.660911 0
M  V30 2145 C 210.853 -2.29194 -0.0166406 0
M  V30 2146 C 211.853 -1.42609 -0.742912 0
M  V30 2147 O 213.043 -1.64155 -0.583004 0
M  V30 2148 C 210.175 -3.24831 -1.0343 0
M  V30 2149 H 211.368 -2.90596 0.741208 0
M  V30 2150 H 208.921 -1.5048 0.422532 0
M  V30 2151 H 209.656 -2.68339 -1.82111 0
M  V30 2152 H 209.441 -3.88676 -0.517082 0
M  V30 2153 H 210.931 -3.89451 -1.50723 0
M  V30 2154 N 211.368 -0.403325 -1.52352 0
M  V30 2155 C 212.331 0.413051 -2.25447 0
M  V30 2156 C 213.331 0.978513 -1.276 0
M  V30 2157 O 214.521 0.858305 -1.51587 0
M  V30 2158 C 211.653 1.58087 -3.02029 0
M  V30 2159 H 212.846 -0.227094 -2.99039 0
M  V30 2160 H 210.399 -0.155722 -1.55522 0
M  V30 2161 H 211.134 2.25804 -2.32772 0
M  V30 2162 H 210.919 1.18195 -3.73861 0
M  V30 2163 H 212.409 2.1585 -3.57489 0
M  V30 2164 N 212.846 1.57033 -0.133567 0
M  V30 2165 C 214.074 2.00044 0.528195 0
M  V30 2166 C 214.489 1.01349 1.59291 0
M  V30 2167 O 213.846 0.00848369 1.82498 0
M  V30 2168 C 213.897 3.43018 1.1411 0
M  V30 2169 O 213.618 4.37939 0.11892 0
M  V30 2170 C 215.119 4.01237 1.88477 0
M  V30 2171 H 212.339 0.656517 0.138661 0
M  V30 2172 H 214.883 2.03267 -0.224196 0
M  V30 2173 H 213.038 3.40688 1.84418 0
M  V30 2174 H 213.452 5.21436 0.56613 0
M  V30 2175 H 214.926 5.03314 2.26669 0
M  V30 2176 H 215.403 3.41193 2.76558 0
M  V30 2177 H 216.009 4.07156 1.22898 0
M  V30 2178 N 214.325 -0.140222 1.56975 0
M  V30 2179 C 215.55 -0.870414 1.88251 0
M  V30 2180 C 215.975 -1.73637 0.723312 0
M  V30 2181 O 215.333 -1.78329 -0.32689 0
M  V30 2182 C 215.381 -1.69737 3.18154 0
M  V30 2183 O 214.485 -2.80229 3.02565 0
M  V30 2184 H 213.826 -0.242025 0.61832 0
M  V30 2185 H 216.356 -0.128999 2.04193 0
M  V30 2186 H 216.366 -2.09099 3.50345 0
M  V30 2187 H 215.041 -1.06152 4.02125 0
M  V30 2188 H 213.618 -2.44224 2.81796 0
M  V30 2189 N 215.803 -1.52179 -0.40978 0
M  V30 2190 C 216.733 -1.78435 -1.5061 0
M  V30 2191 C 217.714 -0.635295 -1.57791 0
M  V30 2192 O 218.899 -0.880823 -1.73076 0
M  V30 2193 C 216.029 -1.93444 -2.88439 0
M  V30 2194 C 214.983 -3.09038 -2.96108 0
M  V30 2195 C 214.309 -3.09268 -4.36185 0
M  V30 2196 C 215.609 -4.48508 -2.67652 0
M  V30 2197 H 217.303 -2.70237 -1.28889 0
M  V30 2198 H 214.849 -1.30036 -0.618605 0
M  V30 2199 H 216.802 -2.10394 -3.65119 0
M  V30 2200 H 215.526 -0.983129 -3.11452 0
M  V30 2201 H 214.185 -2.91837 -2.21872 0
M  V30 2202 H 213.833 -2.11861 -4.56206 0
M  V30 2203 H 213.533 -3.86907 -4.42241 0
M  V30 2204 H 215.057 -3.28348 -5.14801 0
M  V30 2205 H 216.471 -4.65918 -3.34056 0
M  V30 2206 H 214.868 -5.28059 -2.85085 0
M  V30 2207 H 215.938 -4.56649 -1.63095 0
M  V30 2208 N 217.281 0.66697 -1.42791 0
M  V30 2209 C 218.506 1.46004 -1.47301 0
M  V30 2210 C 218.931 1.87894 -0.0880317 0
M  V30 2211 O 218.289 1.56502 0.915253 0
M  V30 2212 C 218.337 2.68031 -2.41229 0
M  V30 2213 O 217.441 3.6659 -1.88906 0
M  V30 2214 H 216.782 0.43832 -0.49877 0
M  V30 2215 H 219.312 0.817391 -1.87563 0
M  V30 2216 H 219.322 3.1601 -2.58073 0
M  V30 2217 H 217.997 2.36883 -3.41847 0
M  V30 2218 H 216.574 3.25661 -1.81656 0
M  V30 2219 N 218.759 1.29093 0.90403 0
M  V30 2220 C 220.007 1.16583 1.65085 0
M  V30 2221 C 220.328 -0.283933 1.92922 0
M  V30 2222 O 219.598 -1.19509 1.55224 0
M  V30 2223 H 218.178 0.428467 0.611903 0
M  V30 2224 H 220.84 1.61959 1.08422 0
M  V30 2225 H 219.936 1.71266 2.6091 0
M  V30 2226 N 220.237 -1.11381 1.11499 0
M  V30 2227 C 221.462 -1.87475 0.887019 0
M  V30 2228 C 221.887 -1.79639 -0.557796 0
M  V30 2229 O 221.245 -1.15924 -1.39396 0
M  V30 2230 C 221.293 -3.34213 1.35403 0
M  V30 2231 O 220.397 -4.0903 0.526146 0
M  V30 2232 H 219.738 -0.582099 0.319463 0
M  V30 2233 H 222.268 -1.40785 1.48461 0
M  V30 2234 H 222.278 -3.8506 1.34881 0
M  V30 2235 H 220.953 -3.39232 2.40612 0
M  V30 2236 H 219.53 -3.68082 0.597522 0
M  V30 2237 N 221.715 -0.905404 -1.28997 0
M  V30 2238 C 222.625 -0.392246 -2.31298 0
M  V30 2239 C 223.641 0.515889 -1.66176 0
M  V30 2240 O 224.817 0.404093 -1.97304 0
M  V30 2241 C 221.882 0.36686 -3.44754 0
M  V30 2242 C 220.943 -0.573485 -4.25452 0
M  V30 2243 C 220.176 0.149488 -5.33491 0
M  V30 2244 O 220.399 1.37255 -5.5364 0
M  V30 2245 O 219.333 -0.510919 -5.99728 0
M  V30 2246 H 223.159 -1.2411 -2.77183 0
M  V30 2247 H 220.744 -0.669926 -1.33538 0
M  V30 2248 H 222.626 0.795907 -4.13816 0
M  V30 2249 H 221.301 1.19169 -3.00966 0
M  V30 2250 H 220.208 -1.05176 -3.59011 0
M  V30 2251 H 221.541 -1.36489 -4.72897 0
M  V30 2252 N 223.193 1.4272 -0.668489 0
M  V30 2253 C 224.421 2.05966 -0.196348 0
M  V30 2254 C 224.836 1.50191 1.14403 0
M  V30 2255 O 224.193 0.639208 1.7094 0
M  V30 2256 C 224.244 3.61314 -0.115815 0
M  V30 2257 O 223.965 4.1502 -1.40322 0
M  V30 2258 C 225.466 4.41663 0.380579 0
M  V30 2259 H 222.686 0.663954 -0.0969829 0
M  V30 2260 H 225.23 1.82966 -0.913446 0
M  V30 2261 H 223.385 3.83448 0.551931 0
M  V30 2262 H 223.799 5.08832 -1.27243 0
M  V30 2263 H 225.273 5.5065 0.385848 0
M  V30 2264 H 225.75 4.15792 1.41471 0
M  V30 2265 H 226.356 4.24534 -0.255209 0
M  V30 2266 N 224.671 0.411399 1.52136 0
M  V30 2267 C 225.899 -0.163076 2.06256 0
M  V30 2268 C 226.314 -1.3867 1.28125 0
M  V30 2269 O 225.671 -1.79423 0.333721 0
M  V30 2270 C 225.722 -0.511252 3.57867 0
M  V30 2271 O 225.443 0.66378 4.33042 0
M  V30 2272 C 226.944 -1.13921 4.28412 0
M  V30 2273 H 224.164 -0.0193897 0.67072 0
M  V30 2274 H 226.708 0.583007 1.96013 0
M  V30 2275 H 224.863 -1.20723 3.6811 0
M  V30 2276 H 225.277 0.372601 5.23175 0
M  V30 2277 H 226.751 -1.33302 5.35663 0
M  V30 2278 H 227.228 -2.11296 3.85033 0
M  V30 2279 H 227.834 -0.483373 4.22544 0
M  V30 2280 N 226.149 -1.5696 0.141893 0
M  V30 2281 C 227.56 -1.82797 -0.379776 0
M  V30 2282 C 227.911 -1.06033 -1.6508 0
M  V30 2283 O 227.036 -0.304011 -2.14254 0
M  V30 2284 C 227.631 -3.31578 -0.695802 0
M  V30 2285 C 226.19 -3.58014 -1.16201 0
M  V30 2286 C 225.337 -2.76699 -0.182455 0
M  V30 2287 H 228.288 -1.54406 0.366675 0
M  V30 2288 H 228.309 -3.47454 -1.55099 0
M  V30 2289 H 227.821 -3.87421 0.229449 0
M  V30 2290 H 225.922 -3.07553 -2.10338 0
M  V30 2291 H 226.035 -4.66501 -1.09151 0
M  V30 2292 H 224.399 -2.45618 -0.674072 0
M  V30 2293 H 225.182 -3.35311 0.736297 0
M  V30 2294 N 227.627 0.131896 -1.57047 0
M  V30 2295 C 228.874 0.841932 -1.84168 0
M  V30 2296 C 229.202 1.8048 -0.725066 0
M  V30 2297 O 228.457 1.93618 0.284692 0
M  V30 2298 C 228.756 1.63703 -3.17704 0
M  V30 2299 C 228.422 0.81961 -4.43388 0
M  V30 2300 C 227.084 0.594148 -4.77518 0
M  V30 2301 C 229.436 0.248977 -5.20605 0
M  V30 2302 C 226.764 -0.212409 -5.86315 0
M  V30 2303 C 229.116 -0.544701 -6.30251 0
M  V30 2304 C 227.78 -0.780599 -6.6292 0
M  V30 2305 H 227.05 0.308085 -0.673917 0
M  V30 2306 H 229.697 0.104867 -1.91213 0
M  V30 2307 H 228.002 2.44464 -3.06177 0
M  V30 2308 H 229.699 2.19015 -3.35907 0
M  V30 2309 H 226.289 1.00542 -4.16641 0
M  V30 2310 H 230.473 0.410408 -4.946 0
M  V30 2311 H 225.729 -0.404524 -6.1006 0
M  V30 2312 H 229.903 -0.993922 -6.89271 0
M  V30 2313 H 227.53 -1.40742 -7.47058 0
M  V30 2314 N 229.106 1.52395 0.401703 0
M  V30 2315 C 230.053 1.76268 1.48991 0
M  V30 2316 C 231.023 0.605386 1.54675 0
M  V30 2317 O 232.208 0.843742 1.7113 0
M  V30 2318 C 229.348 1.92592 2.86361 0
M  V30 2319 C 228.461 3.20259 2.89928 0
M  V30 2320 C 227.596 3.26972 4.18644 0
M  V30 2321 C 226.635 4.48812 4.16214 0
M  V30 2322 N 225.772 4.52877 5.36514 0
M  V30 2323 H 230.612 2.6914 1.27935 0
M  V30 2324 H 228.149 1.33355 0.620871 0
M  V30 2325 H 230.107 2.0004 3.66115 0
M  V30 2326 H 228.737 1.03093 3.05895 0
M  V30 2327 H 227.789 3.21945 2.02621 0
M  V30 2328 H 229.101 4.10056 2.83999 0
M  V30 2329 H 228.255 3.33533 5.06794 0
M  V30 2330 H 226.994 2.35126 4.27278 0
M  V30 2331 H 225.999 4.4239 3.26453 0
M  V30 2332 H 227.224 5.41961 4.09213 0
M  V30 2333 H 225.17 3.63917 5.45802 0
M  V30 2334 H 225.087 5.36529 5.32609 0
M  V30 2335 H 226.355 4.63676 6.26597 0
M  V30 2336 N 230.584 -0.659388 1.43143 0
M  V30 2337 C 231.534 -1.7655 1.44271 0
M  V30 2338 C 232.518 -1.57847 0.311961 0
M  V30 2339 O 233.71 -1.68064 0.555306 0
M  V30 2340 C 230.839 -3.15104 1.36251 0
M  V30 2341 C 229.925 -3.39377 2.54331 0
M  V30 2342 N 230.316 -3.34153 3.79704 0
M  V30 2343 C 228.614 -3.70072 2.48922 0
M  V30 2344 C 229.315 -3.58337 4.58225 0
M  V30 2345 N 228.291 -3.79851 3.88863 0
M  V30 2346 H 232.093 -1.70928 2.39083 0
M  V30 2347 H 229.607 -0.860823 1.37708 0
M  V30 2348 H 231.604 -3.94389 1.35141 0
M  V30 2349 H 230.264 -3.21913 0.424531 0
M  V30 2350 H 231.275 -3.13704 4.1208 0
M  V30 2351 H 227.952 -3.84034 1.63781 0
M  V30 2352 H 229.342 -3.60129 5.67236 0
M  V30 2353 N 232.062 -1.29571 -0.897171 0
M  V30 2354 C 233.308 -1.17863 -1.65034 0
M  V30 2355 C 233.641 0.268729 -1.92332 0
M  V30 2356 O 232.916 1.19378 -1.53555 0
M  V30 2357 C 233.199 -1.995 -2.99786 0
M  V30 2358 C 233.052 -3.5239 -2.79538 0
M  V30 2359 C 234.371 -1.82335 -4.00552 0
M  V30 2360 H 231.49 -0.429528 -0.598895 0
M  V30 2361 H 234.132 -1.59072 -1.03905 0
M  V30 2362 H 232.282 -1.64485 -3.51962 0
M  V30 2363 H 233.954 -3.97401 -2.34244 0
M  V30 2364 H 232.197 -3.77187 -2.14273 0
M  V30 2365 H 232.868 -4.04787 -3.75302 0
M  V30 2366 H 235.344 -2.12924 -3.57495 0
M  V30 2367 H 234.22 -2.41801 -4.92771 0
M  V30 2368 H 234.481 -0.779209 -4.35179 0
M  V30 2369 N 233.54 1.10788 -1.12088 0
M  V30 2370 C 234.503 2.15207 -0.788577 0
M  V30 2371 C 235.503 1.59609 0.195317 0
M  V30 2372 O 236.693 1.74174 -0.0300193 0
M  V30 2373 C 233.825 3.4047 -0.171174 0
M  V30 2374 H 235.018 2.46116 -1.71368 0
M  V30 2375 H 232.571 1.26089 -0.923652 0
M  V30 2376 H 233.306 3.15176 0.763832 0
M  V30 2377 H 233.091 3.82109 -0.879514 0
M  V30 2378 H 234.581 4.17576 0.04496 0
M  V30 2379 N 235.018 0.912232 1.28515 0
M  V30 2380 C 235.948 0.416403 2.29757 0
M  V30 2381 C 236.929 -0.515194 1.6211 0
M  V30 2382 O 238.114 -0.423253 1.89532 0
M  V30 2383 C 235.244 -0.34572 3.45575 0
M  V30 2384 C 234.198 0.496599 4.25109 0
M  V30 2385 C 233.524 -0.393771 5.33248 0
M  V30 2386 C 234.824 1.75307 4.92001 0
M  V30 2387 H 236.518 1.26249 2.7148 0
M  V30 2388 H 234.064 0.608515 1.30511 0
M  V30 2389 H 236.017 -0.703422 4.15488 0
M  V30 2390 H 234.741 -1.2257 3.02728 0
M  V30 2391 H 233.4 0.8368 3.56922 0
M  V30 2392 H 233.048 -1.27225 4.86644 0
M  V30 2393 H 232.748 0.166209 5.87365 0
M  V30 2394 H 234.272 -0.747389 6.06009 0
M  V30 2395 H 235.686 1.46437 5.54283 0
M  V30 2396 H 234.083 2.25534 5.56106 0
M  V30 2397 H 235.153 2.48176 4.16577 0
M  V30 2398 N 236.496 -1.42363 0.676048 0
M  V30 2399 C 237.736 -2.03392 0.20273 0
M  V30 2400 C 238.1 -1.52306 -1.16906 0
M  V30 2401 O 239.301 -2.05129 -1.73711 0
M  V30 2402 C 237.572 -3.56614 0.236947 0
M  V30 2403 S 239.131 -4.38489 -0.165186 0
M  V30 2404 H 235.949 -0.70611 0.0832418 0
M  V30 2405 H 238.551 -1.74093 0.88948 0
M  V30 2406 H 237.255 -3.91293 1.23767 0
M  V30 2407 H 236.786 -3.90587 -0.469596 0
M  V30 2408 H 238.801 -4.76093 -1.39822 0
M  V30 2409 N 237.974 -0.419461 -1.51915 0
M  V30 2410 C 239.199 0.154572 -2.06823 0
M  V30 2411 C 239.624 1.3722 -1.28656 0
M  V30 2412 O 238.982 1.78461 -0.319583 0
M  V30 2413 C 239.03 0.473172 -3.57482 0
M  V30 2414 O 238.134 1.56255 -3.81652 0
M  V30 2415 H 237.475 0.0096924 -0.663929 0
M  V30 2416 H 240.005 -0.595642 -1.95738 0
M  V30 2417 H 240.015 0.728825 -4.01438 0
M  V30 2418 H 238.69 -0.416873 -4.13805 0
M  V30 2419 H 237.267 1.29825 -3.49571 0
M  V30 2420 N 239.452 1.56882 -0.150215 0
M  V30 2421 C 240.698 1.96518 0.500834 0
M  V30 2422 C 241.031 1.03527 1.64304 0
M  V30 2423 O 240.306 0.0782751 1.94342 0
M  V30 2424 C 240.589 3.45822 1.00395 0
M  V30 2425 C 240.442 4.49591 -0.136983 0
M  V30 2426 C 241.761 3.97704 1.88467 0
M  V30 2427 H 238.88 0.714535 0.18058 0
M  V30 2428 H 241.522 1.88577 -0.232091 0
M  V30 2429 H 239.672 3.5272 1.62851 0
M  V30 2430 H 241.344 4.5477 -0.77343 0
M  V30 2431 H 239.587 4.26441 -0.795652 0
M  V30 2432 H 240.258 5.51402 0.256815 0
M  V30 2433 H 242.734 3.93304 1.35834 0
M  V30 2434 H 241.61 5.0263 2.20578 0
M  V30 2435 H 241.871 3.40252 2.82279 0
M  V30 2436 N 240.93 -0.123565 1.57115 0
M  V30 2437 C 242.178 -0.83051 1.84247 0
M  V30 2438 C 242.499 -1.80629 0.73471 0
M  V30 2439 O 241.769 -1.94403 -0.241688 0
M  V30 2440 H 240.349 -0.309694 0.679778 0
M  V30 2441 H 243.011 -0.111976 1.94578 0
M  V30 2442 H 242.107 -1.37852 2.80006 0
M  V30 2443 N 242.408 -1.52605 -0.393616 0
M  V30 2444 C 243.824 -1.41753 -0.733357 0
M  V30 2445 C 244.024 -0.534293 -1.94287 0
M  V30 2446 O 243.08 -0.0059787 -2.52499 0
M  V30 2447 C 244.393 -2.84531 -0.972772 0
M  V30 2448 C 245.941 -2.93978 -1.07453 0
M  V30 2449 C 246.416 -4.37756 -1.3466 0
M  V30 2450 N 247.907 -4.4106 -1.41492 0
M  V30 2451 C 248.642 -5.49387 -1.642 0
M  V30 2452 N 248.138 -6.67806 -1.8441 0
M  V30 2453 N 249.931 -5.36923 -1.66342 0
M  V30 2454 H 242.082 -2.08555 0.402328 0
M  V30 2455 H 244.345 -0.940654 0.117789 0
M  V30 2456 H 244.051 -3.51353 -0.156204 0
M  V30 2457 H 243.925 -3.26508 -1.88871 0
M  V30 2458 H 246.312 -2.27326 -1.88167 0
M  V30 2459 H 246.393 -2.55435 -0.136605 0
M  V30 2460 H 246.037 -5.04972 -0.544581 0
M  V30 2461 H 245.967 -4.73848 -2.2973 0
M  V30 2462 H 248.458 -3.55705 -1.27601 0
M  V30 2463 H 248.771 -7.46141 -2.01231 0
M  V30 2464 H 247.116 -6.70843 -1.81644 0
M  V30 2465 H 250.307 -4.43381 -1.50102 0
M  V30 2466 H 250.48 -6.21416 -1.837 0
M  V30 2467 N 243.887 0.651787 -1.4349 0
M  V30 2468 C 245.303 0.96762 -1.26922 0
M  V30 2469 C 245.503 2.00602 -0.189982 0
M  V30 2470 O 244.559 2.48793 0.431107 0
M  V30 2471 C 245.872 1.45052 -2.63401 0
M  V30 2472 C 247.42 1.5671 -2.70945 0
M  V30 2473 C 247.895 2.0839 -4.07845 0
M  V30 2474 N 249.386 2.1569 -4.09917 0
M  V30 2475 C 250.121 2.56804 -5.12679 0
M  V30 2476 N 249.617 2.97203 -6.25813 0
M  V30 2477 N 251.41 2.56756 -5.00033 0
M  V30 2478 H 243.561 -0.0353158 -2.12371 0
M  V30 2479 H 245.824 0.0467858 -0.946845 0
M  V30 2480 H 245.53 0.761926 -3.43348 0
M  V30 2481 H 245.404 2.42529 -2.88894 0
M  V30 2482 H 247.791 2.2467 -1.9133 0
M  V30 2483 H 247.872 0.57662 -2.49216 0
M  V30 2484 H 247.516 1.41031 -4.87927 0
M  V30 2485 H 247.446 3.08271 -4.26938 0
M  V30 2486 H 249.937 1.87237 -3.28254 0
M  V30 2487 H 250.25 3.27328 -7.00055 0
M  V30 2488 H 248.595 2.95004 -6.29283 0
M  V30 2489 H 251.786 2.24572 -4.10713 0
M  V30 2490 H 251.959 2.88475 -5.80247 0
M  V30 2491 N 245.365 1.30045 0.890287 0
M  V30 2492 C 246.781 1.08261 1.17268 0
M  V30 2493 C 246.981 -0.160063 2.00863 0
M  V30 2494 O 246.037 -0.855181 2.37577 0
M  V30 2495 C 247.35 2.34323 1.8845 0
M  V30 2496 C 248.898 2.39735 2.01237 0
M  V30 2497 C 249.373 3.65625 2.7583 0
M  V30 2498 N 250.864 3.66402 2.83379 0
M  V30 2499 C 251.599 4.60498 3.41657 0
M  V30 2500 N 251.095 5.64933 4.01026 0
M  V30 2501 N 252.888 4.48051 3.39421 0
M  V30 2502 H 245.039 2.09777 0.332762 0
M  V30 2503 H 247.302 0.92446 0.209948 0
M  V30 2504 H 247.008 3.2498 1.34465 0
M  V30 2505 H 246.882 2.4256 2.88867 0
M  V30 2506 H 249.269 1.4956 2.54393 0
M  V30 2507 H 249.35 2.35476 0.999232 0
M  V30 2508 H 248.994 4.56156 2.23347 0
M  V30 2509 H 248.924 3.67144 3.77509 0
M  V30 2510 H 251.415 2.90896 2.41222 0
M  V30 2511 H 251.728 6.32841 4.43545 0
M  V30 2512 H 250.073 5.68732 3.99461 0
M  V30 2513 H 253.264 3.65649 2.92264 0
M  V30 2514 H 253.437 5.21565 3.84544 0
M  V30 2515 N 246.843 -1.10192 1.12674 0
M  V30 2516 C 248.091 -1.81845 0.881861 0
M  V30 2517 C 248.412 -1.85737 -0.593867 0
M  V30 2518 O 247.682 -1.33724 -1.4316 0
M  V30 2519 H 246.262 -0.673432 0.323261 0
M  V30 2520 H 248.924 -1.33316 1.42172 0
M  V30 2521 H 248.02 -2.85288 1.2656 0
M  V30 2522 N 248.321 -0.919034 -1.28029 0
M  V30 2523 C 249.549 -0.570971 -1.98866 0
M  V30 2524 C 249.964 0.848996 -1.68634 0
M  V30 2525 O 249.321 1.56307 -0.942036 0
M  V30 2526 C 249.372 -0.776876 -3.53054 0
M  V30 2527 O 249.093 -2.14097 -3.82222 0
M  V30 2528 C 250.594 -0.436356 -4.41147 0
M  V30 2529 H 247.814 -0.217175 -0.634883 0
M  V30 2530 H 250.358 -1.23368 -1.63097 0
M  V30 2531 H 248.513 -0.161085 -3.87065 0
M  V30 2532 H 248.927 -2.18455 -4.76841 0
M  V30 2533 H 250.401 -0.63117 -5.4838 0
M  V30 2534 H 250.878 0.627686 -4.34692 0
M  V30 2535 H 251.484 -1.02991 -4.12641 0
M  V30 2536 N 249.799 1.42003 -0.683588 0
M  V30 2537 C 250.729 2.33487 -0.024866 0
M  V30 2538 C 251.71 1.51163 0.779975 0
M  V30 2539 O 252.895 1.79739 0.735362 0
M  V30 2540 C 250.025 3.3487 0.920836 0
M  V30 2541 C 248.979 4.27414 0.223958 0
M  V30 2542 C 248.305 5.19074 1.2832 0
M  V30 2543 C 249.605 5.14445 -0.90242 0
M  V30 2544 H 251.299 2.88819 -0.788921 0
M  V30 2545 H 248.845 1.38873 -0.38083 0
M  V30 2546 H 250.798 3.97787 1.39081 0
M  V30 2547 H 249.522 2.77861 1.71642 0
M  V30 2548 H 248.181 3.65904 -0.225864 0
M  V30 2549 H 247.829 4.58387 2.071 0
M  V30 2550 H 247.529 5.81822 0.821995 0
M  V30 2551 H 249.053 5.84867 1.75392 0
M  V30 2552 H 250.467 5.70998 -0.513272 0
M  V30 2553 H 248.864 5.86072 -1.28997 0
M  V30 2554 H 249.934 4.52322 -1.74737 0
M  V30 2555 N 251.277 0.427512 1.51691 0
M  V30 2556 C 252.24 -0.377132 2.26076 0
M  V30 2557 C 253.24 -0.958089 1.29141 0
M  V30 2558 O 254.43 -0.83408 1.52934 0
M  V30 2559 C 251.562 -1.53262 3.04506 0
M  V30 2560 H 252.755 0.27464 2.9864 0
M  V30 2561 H 250.308 0.180445 1.55255 0
M  V30 2562 H 251.043 -2.22072 2.36335 0
M  V30 2563 H 250.828 -1.12232 3.75694 0
M  V30 2564 H 252.318 -2.10135 3.60878 0
M  V30 2565 N 252.755 -1.56801 0.158532 0
M  V30 2566 C 254.001 -1.96781 -0.490405 0
M  V30 2567 C 254.334 -1.04397 -1.63753 0
M  V30 2568 O 253.609 -0.0885805 -1.94298 0
M  V30 2569 C 253.892 -3.4635 -0.985594 0
M  V30 2570 C 253.745 -4.49512 0.160824 0
M  V30 2571 C 255.064 -3.98697 -1.86355 0
M  V30 2572 H 252.183 -0.715482 -0.176788 0
M  V30 2573 H 254.825 -1.88451 0.242088 0
M  V30 2574 H 252.975 -3.53579 -1.60978 0
M  V30 2575 H 254.647 -4.54353 0.797537 0
M  V30 2576 H 252.89 -4.26013 0.818256 0
M  V30 2577 H 253.561 -5.51531 -0.227569 0
M  V30 2578 H 256.037 -3.94019 -1.33746 0
M  V30 2579 H 254.913 -5.03792 -2.17909 0
M  V30 2580 H 255.174 -3.41744 -2.8047 0
M  V30 2581 N 254.233 0.115231 -1.57178 0
M  V30 2582 C 255.463 0.835224 -1.88964 0
M  V30 2583 C 255.871 1.73774 -0.74829 0
M  V30 2584 O 255.214 1.81401 0.289739 0
M  V30 2585 C 255.276 1.7178 -3.15804 0
M  V30 2586 C 254.94 0.989198 -4.46166 0
M  V30 2587 C 255.937 0.328263 -5.18863 0
M  V30 2588 C 253.622 0.969256 -4.9286 0
M  V30 2589 C 255.616 -0.342873 -6.36477 0
M  V30 2590 C 253.303 0.294324 -6.10391 0
M  V30 2591 C 254.301 -0.360582 -6.82048 0
M  V30 2592 O 253.989 -1.02474 -7.97342 0
M  V30 2593 H 253.721 0.245197 -0.629964 0
M  V30 2594 H 256.275 0.10303 -2.05141 0
M  V30 2595 H 254.505 2.49173 -2.95719 0
M  V30 2596 H 256.194 2.31255 -3.33581 0
M  V30 2597 H 256.96 0.335263 -4.8384 0
M  V30 2598 H 252.839 1.46844 -4.36987 0
M  V30 2599 H 256.383 -0.854629 -6.92345 0
M  V30 2600 H 252.28 0.285099 -6.4487 0
M  V30 2601 H 253.048 -0.929594 -8.13204 0
M  V30 2602 N 255.711 1.52812 0.385517 0
M  V30 2603 C 256.959 1.67694 1.12797 0
M  V30 2604 C 257.28 0.421115 1.90399 0
M  V30 2605 O 256.55 -0.564551 1.87589 0
M  V30 2606 H 255.13 0.618155 0.419396 0
M  V30 2607 H 257.792 1.89938 0.436972 0
M  V30 2608 H 256.888 2.52896 1.82894 0
M  V30 2609 N 257.189 -0.644168 1.43834 0
M  V30 2610 C 258.605 -0.960875 1.27434 0
M  V30 2611 C 258.805 -2.00499 0.200618 0
M  V30 2612 O 257.861 -2.49018 -0.417906 0
M  V30 2613 C 259.174 -1.43653 2.64167 0
M  V30 2614 C 260.722 -1.55271 2.71772 0
M  V30 2615 C 261.197 -2.06224 4.08944 0
M  V30 2616 N 262.688 -2.13513 4.11055 0
M  V30 2617 C 263.423 -2.54081 5.14033 0
M  V30 2618 N 262.919 -2.9388 6.27381 0
M  V30 2619 N 264.712 -2.54101 5.01387 0
M  V30 2620 H 256.863 0.0465779 2.12349 0
M  V30 2621 H 259.126 -0.0417638 0.94708 0
M  V30 2622 H 258.832 -0.743706 3.43747 0
M  V30 2623 H 258.706 -2.40993 2.90176 0
M  V30 2624 H 261.093 -2.23653 1.92519 0
M  V30 2625 H 261.174 -0.563395 2.49519 0
M  V30 2626 H 260.818 -1.38441 4.88668 0
M  V30 2627 H 260.748 -3.06003 4.28567 0
M  V30 2628 H 263.239 -1.85493 3.29242 0
M  V30 2629 H 263.552 -3.2361 7.01781 0
M  V30 2630 H 261.897 -2.91663 6.30839 0
M  V30 2631 H 265.088 -2.22391 4.11898 0
M  V30 2632 H 265.261 -2.85394 5.81768 0
M  V30 2633 N 258.668 -1.30515 -0.883378 0
M  V30 2634 C 259.945 -1.10086 -1.6168 0
M  V30 2635 C 260.325 0.349269 -2.08191 0
M  V30 2636 O 259.673 1.34105 -1.85008 0
M  V30 2637 C 259.883 -2.10315 -2.78511 0
M  V30 2638 C 261.231 -2.42119 -3.48803 0
M  V30 2639 O 262.255 -2.08638 -2.88702 0
M  V30 2640 O 261.114 -2.99396 -4.57192 0
M  V30 2641 H 258.208 -0.422907 -0.710689 0
M  V30 2642 H 260.754 -1.41947 -0.930015 0
M  V30 2643 H 259.526 -3.07917 -2.41459 0
M  V30 2644 H 259.149 -1.79282 -3.54886 0
M  V30 2645 N 260.146 1.09593 -1.13257 0
M  V30 2646 C 261.557 1.63229 -0.906274 0
M  V30 2647 C 261.908 1.8811 0.557578 0
M  V30 2648 O 261.033 1.62953 1.42391 0
M  V30 2649 C 261.628 2.96535 -1.63867 0
M  V30 2650 C 260.187 3.47003 -1.45828 0
M  V30 2651 C 259.334 2.2145 -1.66898 0
M  V30 2652 H 262.285 0.92978 -1.28611 0
M  V30 2653 H 262.306 3.64411 -1.09476 0
M  V30 2654 H 261.818 2.78394 -2.70404 0
M  V30 2655 H 259.919 3.70272 -0.415848 0
M  V30 2656 H 260.032 4.24551 -2.2202 0
M  V30 2657 H 258.396 2.30022 -1.09371 0
M  V30 2658 H 259.179 2.0583 -2.74752 0
M  V30 2659 N 261.624 0.925811 1.2754 0
M  V30 2660 C 262.534 0.428993 2.30644 0
M  V30 2661 C 263.55 -0.489387 1.66976 0
M  V30 2662 O 264.726 -0.372653 1.97922 0
M  V30 2663 C 261.791 -0.311967 3.45294 0
M  V30 2664 C 260.852 0.641098 4.24486 0
M  V30 2665 C 260.085 -0.0645955 5.33661 0
M  V30 2666 O 260.308 -1.28429 5.55754 0
M  V30 2667 O 259.242 0.606265 5.98839 0
M  V30 2668 H 263.068 1.28504 2.75173 0
M  V30 2669 H 260.653 0.691086 1.32455 0
M  V30 2670 H 262.535 -0.729972 4.15029 0
M  V30 2671 H 261.21 -1.14365 3.02824 0
M  V30 2672 H 260.117 1.10874 3.57292 0
M  V30 2673 H 261.45 1.43995 4.70666 0
M  V30 2674 N 263.102 -1.41638 0.69111 0
M  V30 2675 C 264.348 -2.02104 0.229258 0
M  V30 2676 C 264.703 -1.53741 -1.15678 0
M  V30 2677 O 263.996 -0.736849 -1.76865 0
M  V30 2678 C 264.19 -3.56714 0.221277 0
M  V30 2679 C 264.019 -4.20083 1.605 0
M  V30 2680 C 262.789 -4.54566 2.20676 0
M  V30 2681 C 264.987 -4.46587 2.55078 0
M  V30 2682 N 262.969 -5.03199 3.5166 0
M  V30 2683 C 264.34 -4.96946 3.70735 0
M  V30 2684 C 266.395 -4.28593 2.53401 0
M  V30 2685 C 265.098 -5.31203 4.8499 0
M  V30 2686 C 267.124 -4.63936 3.66765 0
M  V30 2687 C 266.486 -5.14463 4.81152 0
M  V30 2688 H 262.585 -0.771256 0.12918 0
M  V30 2689 H 265.169 -1.72251 0.907626 0
M  V30 2690 H 263.34 -3.86051 -0.426562 0
M  V30 2691 H 265.072 -4.03896 -0.254983 0
M  V30 2692 H 261.827 -4.4087 1.73005 0
M  V30 2693 H 262.251 -5.31926 4.18789 0
M  V30 2694 H 266.893 -3.88771 1.66184 0
M  V30 2695 H 264.611 -5.69951 5.72871 0
M  V30 2696 H 268.197 -4.51677 3.66714 0
M  V30 2697 H 267.077 -5.41299 5.67419 0
M  V30 2698 N 264.58 -0.43555 -1.51462 0
M  V30 2699 C 265.826 0.131709 -2.02372 0
M  V30 2700 C 266.159 1.42516 -1.3192 0
M  V30 2701 O 265.434 1.89606 -0.433573 0
M  V30 2702 C 265.717 0.352301 -3.58373 0
M  V30 2703 C 265.57 -0.959676 -4.39443 0
M  V30 2704 C 266.889 1.12286 -4.25535 0
M  V30 2705 H 264.008 0.0463936 -0.735538 0
M  V30 2706 H 266.65 -0.574197 -1.81116 0
M  V30 2707 H 264.8 0.9536 -3.76615 0
M  V30 2708 H 266.472 -1.59482 -4.32855 0
M  V30 2709 H 264.715 -1.56468 -4.04599 0
M  V30 2710 H 265.386 -0.759394 -5.46752 0
M  V30 2711 H 267.862 0.613545 -4.11552 0
M  V30 2712 H 266.738 1.24598 -5.34571 0
M  V30 2713 H 266.999 2.15048 -3.86273 0
M  V30 2714 N 266.058 1.56714 -0.166846 0
M  V30 2715 C 267.286 2.0112 0.485644 0
M  V30 2716 C 267.701 1.04705 1.57106 0
M  V30 2717 O 267.058 0.0471923 1.82439 0
M  V30 2718 C 267.109 3.45361 1.06808 0
M  V30 2719 O 266.83 4.38092 0.0259995 0
M  V30 2720 C 268.331 4.05145 1.79924 0
M  V30 2721 H 265.551 0.65931 0.124704 0
M  V30 2722 H 268.095 2.02746 -0.267262 0
M  V30 2723 H 266.25 3.44524 1.7715 0
M  V30 2724 H 266.664 5.22519 0.455398 0
M  V30 2725 H 268.138 5.08009 2.15942 0
M  V30 2726 H 268.615 3.46982 2.69258 0
M  V30 2727 H 269.221 4.09672 1.14234 0
M  V30 2728 N 267.536 -0.106894 1.57237 0
M  V30 2729 C 268.468 -1.15646 1.97885 0
M  V30 2730 C 269.481 -1.36981 0.879779 0
M  V30 2731 O 270.67 -1.35841 1.15799 0
M  V30 2732 C 267.77 -2.51425 2.27241 0
M  V30 2733 C 266.943 -2.50529 3.58545 0
M  V30 2734 C 266.002 -3.68145 3.75973 0
M  V30 2735 O 265.028 -3.51176 4.47956 0
M  V30 2736 N 266.23 -4.87177 3.15656 0
M  V30 2737 H 268.995 -0.81059 2.8853 0
M  V30 2738 H 266.556 -0.296024 1.59171 0
M  V30 2739 H 268.548 -3.28689 2.36105 0
M  V30 2740 H 267.118 -2.78147 1.42663 0
M  V30 2741 H 266.338 -1.58894 3.60758 0
M  V30 2742 H 267.626 -2.46997 4.44826 0
M  V30 2743 H 267.024 -5.03868 2.57165 0
M  V30 2744 H 265.581 -5.62075 3.30023 0
M  V30 2745 N 269.014 -1.53014 -0.377408 0
M  V30 2746 C 270.43 -1.42523 -0.718281 0
M  V30 2747 C 270.63 -0.55487 -1.9371 0
M  V30 2748 O 269.686 -0.0327593 -2.52479 0
M  V30 2749 C 270.999 -2.85546 -0.942539 0
M  V30 2750 C 272.547 -2.95101 -1.04329 0
M  V30 2751 C 273.022 -4.3916 -1.3001 0
M  V30 2752 N 274.513 -4.42536 -1.36806 0
M  V30 2753 C 275.248 -5.51097 -1.58364 0
M  V30 2754 N 274.744 -6.69724 -1.77317 0
M  V30 2755 N 276.537 -5.38657 -1.60638 0
M  V30 2756 H 268.688 -2.08116 0.424426 0
M  V30 2757 H 270.951 -0.939352 0.127759 0
M  V30 2758 H 270.657 -3.51499 -0.118929 0
M  V30 2759 H 270.531 -3.28493 -1.85397 0
M  V30 2760 H 272.918 -2.29309 -1.85745 0
M  V30 2761 H 272.999 -2.55566 -0.109505 0
M  V30 2762 H 272.643 -5.05521 -0.490991 0
M  V30 2763 H 272.573 -4.76258 -2.24691 0
M  V30 2764 H 275.064 -3.57039 -1.23821 0
M  V30 2765 H 275.377 -7.48233 -1.93306 0
M  V30 2766 H 273.722 -6.72732 -1.74518 0
M  V30 2767 H 276.913 -4.44948 -1.45391 0
M  V30 2768 H 277.086 -6.2333 -1.77098 0
M  V30 2769 N 270.492 0.636531 -1.44174 0
M  V30 2770 C 271.739 1.39619 -1.46672 0
M  V30 2771 C 272.067 1.94257 -0.0972691 0
M  V30 2772 O 271.322 1.73768 0.900175 0
M  V30 2773 C 271.621 2.58309 -2.47005 0
M  V30 2774 C 271.287 2.21992 -3.92467 0
M  V30 2775 C 269.949 2.118 -4.32081 0
M  V30 2776 C 272.301 1.9321 -4.84065 0
M  V30 2777 C 269.629 1.71007 -5.61225 0
M  V30 2778 C 271.981 1.53911 -6.13591 0
M  V30 2779 C 270.645 1.42257 -6.52165 0
M  V30 2780 H 269.915 0.510902 -0.536712 0
M  V30 2781 H 272.562 0.722328 -1.77355 0
M  V30 2782 H 270.867 3.30903 -2.09786 0
M  V30 2783 H 272.564 3.16533 -2.46186 0
M  V30 2784 H 269.154 2.30841 -3.61124 0
M  V30 2785 H 273.338 1.99997 -4.54219 0
M  V30 2786 H 268.594 1.60583 -5.89935 0
M  V30 2787 H 272.768 1.30677 -6.8403 0
M  V30 2788 H 270.395 1.10419 -7.52138 0
M  V30 2789 N 271.97 1.30982 0.876444 0
M  V30 2790 C 273.381 1.18277 1.44456 0
M  V30 2791 C 273.732 -0.213265 1.95037 0
M  V30 2792 O 272.857 -1.11057 1.85729 0
M  V30 2793 C 273.452 2.1411 2.62569 0
M  V30 2794 C 272.011 2.05358 3.15444 0
M  V30 2795 C 271.158 2.03706 1.88146 0
M  V30 2796 H 274.109 1.43127 0.685584 0
M  V30 2797 H 274.13 1.72692 3.39054 0
M  V30 2798 H 273.642 3.15706 2.25724 0
M  V30 2799 H 271.743 1.06934 3.56926 0
M  V30 2800 H 271.856 2.94156 3.78166 0
M  V30 2801 H 270.22 1.48629 2.06837 0
M  V30 2802 H 271.003 3.07047 1.53547 0
M  V30 2803 N 273.449 -1.08991 1.13837 0
M  V30 2804 C 274.726 -1.77863 0.813876 0
M  V30 2805 C 275.106 -1.99375 -0.693746 0
M  V30 2806 O 274.454 -1.59875 -1.63255 0
M  V30 2807 C 274.664 -3.0986 1.60586 0
M  V30 2808 C 276.012 -3.84493 1.8014 0
M  V30 2809 O 277.036 -3.19624 1.57222 0
M  V30 2810 O 275.895 -5.00957 2.18413 0
M  V30 2811 H 272.989 -0.771589 0.297624 0
M  V30 2812 H 275.535 -1.15507 1.24323 0
M  V30 2813 H 274.307 -2.89715 2.63022 0
M  V30 2814 H 273.93 -3.79942 1.17173 0
M  V30 2815 N 274.927 -0.932562 -1.27047 0
M  V30 2816 C 275.857 -0.452902 -2.29066 0
M  V30 2817 C 276.838 0.489338 -1.62909 0
M  V30 2818 O 278.023 0.393046 -1.90181 0
M  V30 2819 C 275.153 0.290698 -3.46081 0
M  V30 2820 C 274.107 -0.564168 -4.24265 0
M  V30 2821 C 273.433 0.308886 -5.33807 0
M  V30 2822 C 274.733 -1.83112 -4.89149 0
M  V30 2823 H 276.427 -1.30552 -2.69437 0
M  V30 2824 H 273.973 -0.629201 -1.29526 0
M  V30 2825 H 275.926 0.637233 -4.16554 0
M  V30 2826 H 274.65 1.17738 -3.0464 0
M  V30 2827 H 273.309 -0.893477 -3.55545 0
M  V30 2828 H 272.957 1.19467 -4.88607 0
M  V30 2829 H 272.657 -0.259633 -5.87026 0
M  V30 2830 H 274.181 0.650884 -6.07121 0
M  V30 2831 H 275.595 -1.55236 -5.51883 0
M  V30 2832 H 273.992 -2.34353 -5.52448 0
M  V30 2833 H 275.062 -2.54772 -4.12576 0
M  V30 2834 N 276.405 1.4127 -0.698611 0
M  V30 2835 C 277.633 2.05503 -0.239992 0
M  V30 2836 C 278.048 1.52584 1.11191 0
M  V30 2837 O 277.405 0.675323 1.69545 0
M  V30 2838 C 277.456 3.60987 -0.192429 0
M  V30 2839 O 277.177 4.1195 -1.49094 0
M  V30 2840 C 278.678 4.42371 0.28681 0
M  V30 2841 H 275.898 0.661748 -0.111045 0
M  V30 2842 H 278.442 1.80987 -0.95205 0
M  V30 2843 H 276.597 3.84533 0.470472 0
M  V30 2844 H 277.011 5.06018 -1.38007 0
M  V30 2845 H 278.485 5.51344 0.26896 0
M  V30 2846 H 278.962 4.18699 1.32619 0
M  V30 2847 H 279.568 4.23897 -0.345201 0
M  V30 2848 N 277.883 0.443576 1.51229 0
M  V30 2849 C 278.846 -0.353132 2.26463 0
M  V30 2850 C 279.846 -0.944338 1.3015 0
M  V30 2851 O 281.036 -0.817813 1.5381 0
M  V30 2852 C 278.168 -1.50023 3.06114 0
M  V30 2853 H 279.361 0.3063 2.98332 0
M  V30 2854 H 276.914 0.196902 1.55055 0
M  V30 2855 H 277.649 -2.19553 2.38677 0
M  V30 2856 H 277.434 -1.08241 3.76864 0
M  V30 2857 H 278.924 -2.06296 3.63087 0
M  V30 2858 N 279.361 -1.56624 0.175154 0
M  V30 2859 C 280.324 -2.16934 -0.739738 0
M  V30 2860 C 281.324 -1.11842 -1.15533 0
M  V30 2861 O 282.514 -1.37335 -1.07167 0
M  V30 2862 C 279.646 -2.75531 -2.00738 0
M  V30 2863 H 280.839 -2.99131 -0.214639 0
M  V30 2864 H 278.392 -1.56123 -0.0744197 0
M  V30 2865 H 279.127 -1.97078 -2.57548 0
M  V30 2866 H 278.912 -3.52444 -1.71831 0
M  V30 2867 H 280.402 -3.21904 -2.66021 0
M  V30 2868 N 280.839 0.0985539 -1.57292 0
M  V30 2869 C 282.116 0.834155 -1.76921 0
M  V30 2870 C 282.496 1.97101 -0.755928 0
M  V30 2871 O 281.844 2.27474 0.216245 0
M  V30 2872 C 282.054 1.33194 -3.22584 0
M  V30 2873 C 283.402 1.77611 -3.85668 0
M  V30 2874 O 284.426 1.42825 -3.26312 0
M  V30 2875 O 283.285 2.4192 -4.90038 0
M  V30 2876 H 280.379 0.397628 -0.725135 0
M  V30 2877 H 282.925 0.0807044 -1.69508 0
M  V30 2878 H 281.697 0.517248 -3.87866 0
M  V30 2879 H 281.32 2.1475 -3.34616 0
M  V30 2880 N 282.317 1.53212 0.369288 0
M  V30 2881 C 283.733 1.42902 0.710712 0
M  V30 2882 C 283.933 0.565135 1.93413 0
M  V30 2883 O 282.989 0.0461484 2.52458 0
M  V30 2884 C 284.302 2.86042 0.927382 0
M  V30 2885 C 285.85 2.9565 1.02762 0
M  V30 2886 C 286.325 4.39843 1.27679 0
M  V30 2887 N 287.816 4.43256 1.34457 0
M  V30 2888 C 288.551 5.51929 1.55439 0
M  V30 2889 N 288.047 6.70655 1.73762 0
M  V30 2890 N 289.84 5.39502 1.57779 0
M  V30 2891 H 281.991 2.07888 -0.435457 0
M  V30 2892 H 284.254 0.938661 -0.132739 0
M  V30 2893 H 283.96 3.51557 0.100287 0
M  V30 2894 H 283.834 3.29472 1.83653 0
M  V30 2895 H 286.221 2.30291 1.84527 0
M  V30 2896 H 286.302 2.5562 0.0959504 0
M  V30 2897 H 285.946 5.05774 0.464175 0
M  V30 2898 H 285.876 4.77443 2.22162 0
M  V30 2899 H 288.367 3.5769 1.21926 0
M  V30 2900 H 288.68 7.49248 1.89335 0
M  V30 2901 H 287.025 6.73648 1.70948 0
M  V30 2902 H 290.216 4.45713 1.43029 0
M  V30 2903 H 290.389 6.2426 1.7379 0
M  V30 2904 N 283.795 -0.628877 1.44509 0
M  V30 2905 C 285.072 -1.38733 1.37886 0
M  V30 2906 C 285.452 -2.11065 0.0387008 0
M  V30 2907 O 284.8 -2.06476 -0.97878 0
M  V30 2908 C 285.01 -2.35188 2.57852 0
M  V30 2909 C 286.358 -2.9845 3.02014 0
M  V30 2910 O 287.382 -2.45513 2.58073 0
M  V30 2911 O 286.241 -3.94487 3.78209 0
M  V30 2912 H 283.335 -0.621015 0.54614 0
M  V30 2913 H 285.881 -0.653744 1.56602 0
M  V30 2914 H 284.653 -1.80855 3.46998 0
M  V30 2915 H 284.276 -3.1596 2.4136 0
M  V30 2916 N 285.273 -1.31445 -0.869486 0
M  V30 2917 C 286.521 -1.20918 -1.61936 0
M  V30 2918 C 286.842 0.232683 -1.93607 0
M  V30 2919 O 286.112 1.15352 -1.58338 0
M  V30 2920 H 284.692 -0.44454 -0.600328 0
M  V30 2921 H 287.354 -1.64776 -1.0409 0
M  V30 2922 H 286.45 -1.78124 -2.56278 0
M  V30 2923 N 286.751 1.08385 -1.14413 0
M  V30 2924 C 287.681 2.17321 -0.854044 0
M  V30 2925 C 288.662 1.69024 0.191049 0
M  V30 2926 O 289.847 1.94141 0.0476779 0
M  V30 2927 C 286.977 3.45719 -0.330983 0
M  V30 2928 C 285.931 4.07409 -1.31155 0
M  V30 2929 C 285.257 5.30762 -0.64778 0
M  V30 2930 C 286.557 4.48665 -2.67388 0
M  V30 2931 H 288.251 2.41845 -1.76498 0
M  V30 2932 H 285.797 1.16233 -0.850051 0
M  V30 2933 H 287.75 4.21241 -0.115645 0
M  V30 2934 H 286.474 3.2075 0.615381 0
M  V30 2935 H 285.133 3.33919 -1.51306 0
M  V30 2936 H 284.781 5.02078 0.304398 0
M  V30 2937 H 284.481 5.72992 -1.30207 0
M  V30 2938 H 286.005 6.08998 -0.441972 0
M  V30 2939 H 287.419 5.15364 -2.51143 0
M  V30 2940 H 285.816 5.01814 -3.29093 0
M  V30 2941 H 286.886 3.60543 -3.24248 0
M  V30 2942 N 288.23 0.939286 1.26551 0
M  V30 2943 C 289.646 0.641304 1.46149 0
M  V30 2944 C 289.846 -0.805964 1.84679 0
M  V30 2945 O 288.902 -1.58278 1.96734 0
M  V30 2946 C 290.215 1.6011 2.54529 0
M  V30 2947 C 291.763 1.6106 2.68382 0
M  V30 2948 C 292.238 2.55765 3.79932 0
M  V30 2949 N 293.729 2.5404 3.87322 0
M  V30 2950 C 294.464 3.24004 4.73085 0
M  V30 2951 N 293.96 4.03388 5.63249 0
M  V30 2952 N 295.753 3.12965 4.66914 0
M  V30 2953 H 287.904 1.87478 0.998285 0
M  V30 2954 H 290.167 0.805559 0.499779 0
M  V30 2955 H 289.873 2.63412 2.33039 0
M  V30 2956 H 289.747 1.35171 3.52149 0
M  V30 2957 H 292.134 0.584835 2.89247 0
M  V30 2958 H 292.215 1.90053 1.71212 0
M  V30 2959 H 291.859 3.58458 3.5982 0
M  V30 2960 H 291.789 2.24063 4.76554 0
M  V30 2961 H 294.28 1.96396 3.22858 0
M  V30 2962 H 294.593 4.5373 6.25579 0
M  V30 2963 H 292.938 4.07489 5.63008 0
M  V30 2964 H 296.129 2.50432 3.95476 0
M  V30 2965 H 296.302 3.67759 5.33533 0
M  V30 2966 N 289.708 -1.40897 0.706093 0
M  V30 2967 C 290.671 -2.29131 0.0562841 0
M  V30 2968 C 291.671 -1.44901 -0.697166 0
M  V30 2969 O 292.861 -1.65926 -0.530484 0
M  V30 2970 C 289.993 -3.27957 -0.93043 0
M  V30 2971 H 291.186 -2.88091 0.833284 0
M  V30 2972 H 288.739 -1.4906 0.470192 0
M  V30 2973 H 289.474 -2.73997 -1.73482 0
M  V30 2974 H 289.259 -3.90124 -0.393166 0
M  V30 2975 H 290.749 -3.94049 -1.38256 0
M  V30 2976 N 291.186 -0.45159 -1.50991 0
M  V30 2977 C 292.118 0.388634 -2.25881 0
M  V30 2978 C 293.131 0.974041 -1.30446 0
M  V30 2979 O 294.32 0.865758 -1.56099 0
M  V30 2980 C 291.42 1.5571 -3.01011 0
M  V30 2981 C 290.593 1.08801 -4.23652 0
M  V30 2982 C 289.652 2.12825 -4.8124 0
M  V30 2983 O 288.678 1.71678 -5.42693 0
M  V30 2984 N 289.88 3.45453 -4.66522 0
M  V30 2985 H 292.645 -0.25329 -2.98628 0
M  V30 2986 H 290.206 -0.281268 -1.59438 0
M  V30 2987 H 292.198 2.24952 -3.3642 0
M  V30 2988 H 290.768 2.10409 -2.31186 0
M  V30 2989 H 289.988 0.22215 -3.93574 0
M  V30 2990 H 291.276 0.752213 -5.03209 0
M  V30 2991 H 290.674 3.81605 -4.17605 0
M  V30 2992 H 289.231 4.10549 -5.06254 0
M  V30 2993 N 292.664 1.56529 -0.183458 0
M  V30 2994 C 293.91 1.98304 0.452466 0
M  V30 2995 C 294.265 1.06799 1.60037 0
M  V30 2996 O 293.558 0.110049 1.91284 0
M  V30 2997 C 293.752 3.43939 0.971637 0
M  V30 2998 C 293.581 4.49528 -0.124425 0
M  V30 2999 C 292.351 5.01981 -0.578168 0
M  V30 3000 C 294.549 5.05836 -0.929207 0
M  V30 3001 N 292.531 5.91219 -1.65327 0
M  V30 3002 C 293.902 5.91632 -1.85396 0
M  V30 3003 C 295.957 4.88302 -0.972929 0
M  V30 3004 C 294.66 6.61768 -2.81878 0
M  V30 3005 C 296.686 5.59168 -1.92574 0
M  V30 3006 C 296.048 6.44701 -2.83795 0
M  V30 3007 H 292.147 0.770551 0.133324 0
M  V30 3008 H 294.731 1.92581 -0.286473 0
M  V30 3009 H 292.902 3.50184 1.68006 0
M  V30 3010 H 294.634 3.72702 1.5772 0
M  V30 3011 H 291.389 4.73282 -0.173639 0
M  V30 3012 H 291.813 6.40543 -2.19167 0
M  V30 3013 H 296.455 4.21861 -0.28168 0
M  V30 3014 H 294.173 7.27415 -3.51984 0
M  V30 3015 H 297.759 5.47582 -1.96583 0
M  V30 3016 H 296.639 6.98573 -3.56322 0
M  V30 3017 N 294.142 -0.090211 1.57342 0
M  V30 3018 C 295.074 -1.13541 1.99101 0
M  V30 3019 C 296.087 -1.3604 0.894258 0
M  V30 3020 O 297.276 -1.34606 1.17233 0
M  V30 3021 C 294.376 -2.49001 2.29895 0
M  V30 3022 C 293.549 -2.46712 3.61182 0
M  V30 3023 C 292.608 -3.64136 3.79857 0
M  V30 3024 O 291.634 -3.46405 4.51655 0
M  V30 3025 N 292.836 -4.83802 3.20806 0
M  V30 3026 H 295.601 -0.779942 2.89373 0
M  V30 3027 H 293.162 -0.279125 1.59476 0
M  V30 3028 H 295.154 -3.26166 2.39578 0
M  V30 3029 H 293.724 -2.76619 1.45605 0
M  V30 3030 H 292.944 -1.55058 3.62423 0
M  V30 3031 H 294.232 -2.42265 4.4742 0
M  V30 3032 H 293.63 -5.01112 2.62494 0
M  V30 3033 H 292.187 -5.58543 3.35966 0
M  V30 3034 N 295.62 -1.53406 -0.361157 0
M  V30 3035 C 297.036 -1.43277 -0.703124 0
M  V30 3036 C 297.236 -0.575384 -1.9311 0
M  V30 3037 O 296.292 -0.0595362 -2.5243 0
M  V30 3038 C 297.605 -2.8653 -0.9122 0
M  V30 3039 C 299.153 -2.96191 -1.01193 0
M  V30 3040 C 299.628 -4.40514 -1.25345 0
M  V30 3041 N 301.119 -4.43962 -1.32105 0
M  V30 3042 C 301.854 -5.52746 -1.5251 0
M  V30 3043 N 301.35 -6.71567 -1.70203 0
M  V30 3044 N 303.143 -5.40331 -1.54916 0
M  V30 3045 H 295.294 -2.07654 0.446475 0
M  V30 3046 H 297.557 -0.937944 0.137715 0
M  V30 3047 H 297.263 -3.51605 -0.0816414 0
M  V30 3048 H 297.137 -3.30441 -1.81903 0
M  V30 3049 H 299.524 -2.31266 -1.83303 0
M  V30 3050 H 299.605 -2.55667 -0.0823929 0
M  V30 3051 H 299.249 -5.06014 -0.437346 0
M  V30 3052 H 299.179 -4.78614 -2.19627 0
M  V30 3053 H 301.67 -3.58332 -1.20028 0
M  V30 3054 H 301.983 -7.50241 -1.85359 0
M  V30 3055 H 300.328 -6.74545 -1.67373 0
M  V30 3056 H 303.519 -4.46465 -1.40663 0
M  V30 3057 H 303.692 -6.25173 -1.70477 0
M  V30 3058 N 297.098 0.621204 -1.44841 0
M  V30 3059 C 298.338 1.39201 -1.49674 0
M  V30 3060 C 298.702 1.91561 -0.129764 0
M  V30 3061 O 299.903 2.68748 -0.0527814 0
M  V30 3062 C 298.174 2.519 -2.53537 0
M  V30 3063 S 299.733 3.39916 -2.77494 0
M  V30 3064 H 296.551 0.474758 -0.529269 0
M  V30 3065 H 299.153 0.718171 -1.81831 0
M  V30 3066 H 297.857 2.11761 -3.51547 0
M  V30 3067 H 297.388 3.241 -2.22986 0
M  V30 3068 H 299.403 4.49646 -2.0984 0
M  V30 3069 N 298.576 1.31904 0.862503 0
M  V30 3070 C 299.824 1.21776 1.61292 0
M  V30 3071 C 300.145 -0.222413 1.93727 0
M  V30 3072 O 299.415 -1.1451 1.58947 0
M  V30 3073 H 297.995 0.447717 0.597962 0
M  V30 3074 H 300.657 1.65326 1.03215 0
M  V30 3075 H 299.753 1.7948 2.5533 0
M  V30 3076 N 300.054 -1.07777 1.14986 0
M  V30 3077 C 301.279 -1.84558 0.946213 0
M  V30 3078 C 301.704 -1.81323 -0.500362 0
M  V30 3079 O 301.062 -1.20301 -1.35637 0
M  V30 3080 C 301.11 -3.29736 1.45968 0
M  V30 3081 O 300.214 -4.07149 0.65601 0
M  V30 3082 H 299.555 -0.571641 0.33782 0
M  V30 3083 H 302.085 -1.35991 1.52865 0
M  V30 3084 H 302.095 -3.80574 1.47063 0
M  V30 3085 H 300.77 -3.31406 2.51283 0
M  V30 3086 H 299.347 -3.65994 0.714322 0
M  V30 3087 N 301.532 -0.945985 -1.26051 0
M  V30 3088 C 302.76 -0.613025 -1.9761 0
M  V30 3089 C 303.175 0.813035 -1.70397 0
M  V30 3090 O 302.532 1.54274 -0.974979 0
M  V30 3091 C 302.583 -0.85159 -3.51326 0
M  V30 3092 O 302.304 -2.22157 -3.77595 0
M  V30 3093 C 303.805 -0.529831 -4.40122 0
M  V30 3094 H 301.025 -0.230593 -0.630133 0
M  V30 3095 H 303.569 -1.268 -1.60443 0
M  V30 3096 H 301.724 -0.243151 -3.86636 0
M  V30 3097 H 302.138 -2.2852 -4.721 0
M  V30 3098 H 303.612 -0.747348 -5.46917 0
M  V30 3099 H 304.089 0.535341 -4.35925 0
M  V30 3100 H 304.695 -1.11721 -4.10364 0
M  V30 3101 N 303.011 1.40521 -0.713556 0
M  V30 3102 C 303.974 2.29098 -0.0684347 0
M  V30 3103 C 304.974 1.45268 0.689472 0
M  V30 3104 O 306.164 1.66205 0.521677 0
M  V30 3105 C 303.296 3.28446 0.913024 0
M  V30 3106 H 304.489 2.87645 -0.84855 0
M  V30 3107 H 302.042 1.48809 -0.47809 0
M  V30 3108 H 302.777 2.74913 1.72027 0
M  V30 3109 H 302.562 3.90327 0.372472 0
M  V30 3110 H 304.052 3.94777 1.36165 0
M  V30 3111 N 304.489 0.459591 1.5075 0
M  V30 3112 C 305.735 -0.0994966 2.02556 0
M  V30 3113 C 306.068 -1.40399 1.3417 0
M  V30 3114 O 305.343 -1.88892 0.463683 0
M  V30 3115 C 305.626 -0.295242 3.58888 0
M  V30 3116 C 305.479 1.02947 4.37861 0
M  V30 3117 C 306.798 -1.05502 4.27267 0
M  V30 3118 H 303.917 -0.034686 0.736183 0
M  V30 3119 H 306.559 0.602938 1.8018 0
M  V30 3120 H 304.709 -0.893563 3.78084 0
M  V30 3121 H 306.381 1.66348 4.30263 0
M  V30 3122 H 304.624 1.62885 4.02058 0
M  V30 3123 H 305.295 0.846281 5.45474 0
M  V30 3124 H 307.771 -0.547993 4.12476 0
M  V30 3125 H 306.647 -1.16077 5.36486 0
M  V30 3126 H 306.908 -2.08875 3.89645 0
M  V30 3127 N 305.967 -1.56429 0.191757 0
M  V30 3128 C 307.244 -1.89224 -0.495332 0
M  V30 3129 C 307.624 -1.10478 -1.79883 0
M  V30 3130 O 306.972 -0.204852 -2.2758 0
M  V30 3131 C 307.182 -3.41548 -0.717367 0
M  V30 3132 C 308.53 -4.11711 -1.03823 0
M  V30 3133 O 309.554 -3.4698 -0.805204 0
M  V30 3134 O 308.413 -5.2611 -1.47887 0
M  V30 3135 H 305.507 -0.785788 -0.25781 0
M  V30 3136 H 308.053 -1.68111 0.231721 0
M  V30 3137 H 306.825 -3.90772 0.203287 0
M  V30 3138 H 306.448 -3.68342 -1.497 0
M  V30 3139 N 307.445 0.0818655 -1.57387 0
M  V30 3140 C 308.408 1.08265 -2.02018 0
M  V30 3141 C 309.408 1.32183 -0.915664 0
M  V30 3142 O 310.598 1.28073 -1.18081 0
M  V30 3143 C 307.73 2.42871 -2.39221 0
M  V30 3144 H 308.923 0.698204 -2.91659 0
M  V30 3145 H 306.476 0.327303 -1.52835 0
M  V30 3146 H 307.211 2.86167 -1.52575 0
M  V30 3147 H 306.996 2.26855 -3.19811 0
M  V30 3148 H 308.486 3.14826 -2.74362 0
M  V30 3149 N 308.923 1.53595 0.353017 0
M  V30 3150 C 310.148 1.7462 1.11904 0
M  V30 3151 C 310.573 0.479721 1.8188 0
M  V30 3152 O 309.931 -0.567066 1.72204 0
M  V30 3153 C 309.979 2.92029 2.11545 0
M  V30 3154 O 309.083 2.61516 3.18878 0
M  V30 3155 H 308.424 0.579531 0.324099 0
M  V30 3156 H 310.954 2.00525 0.406301 0
M  V30 3157 H 310.964 3.18551 2.5493 0
M  V30 3158 H 309.639 3.83888 1.60008 0
M  V30 3159 H 308.216 2.45852 2.80377 0
M  V30 3160 N 310.401 -0.613514 1.45168 0
M  V30 3161 C 311.649 -1.36997 1.48581 0
M  V30 3162 C 311.97 -1.94589 0.126545 0
M  V30 3163 O 311.24 -1.76816 -0.843372 0
M  V30 3164 H 309.82 -0.508558 0.547154 0
M  V30 3165 H 312.482 -0.720853 1.81079 0
M  V30 3166 H 311.578 -2.1924 2.22127 0
M  V30 3167 N 311.879 -1.3236 -0.855495 0
M  V30 3168 C 313.156 -1.13491 -1.59309 0
M  V30 3169 C 313.536 0.30503 -2.08885 0
M  V30 3170 O 312.884 1.30151 -1.87811 0
M  V30 3171 C 313.094 -2.16176 -2.73987 0
M  V30 3172 C 314.442 -2.49463 -3.43589 0
M  V30 3173 O 315.466 -2.14715 -2.84211 0
M  V30 3174 O 314.325 -3.09027 -4.50738 0
M  V30 3175 H 311.419 -0.437887 -0.701559 0
M  V30 3176 H 313.965 -1.43887 -0.899696 0
M  V30 3177 H 312.737 -3.1297 -2.34873 0
M  V30 3178 H 312.36 -1.86769 -3.51003 0
M  V30 3179 N 313.357 1.07166 -1.15556 0
M  V30 3180 C 314.768 1.6127 -0.940693 0
M  V30 3181 C 315.119 1.89251 0.517551 0
M  V30 3182 O 314.244 1.65937 1.38903 0
M  V30 3183 C 314.839 2.92993 -1.7012 0
M  V30 3184 C 313.398 3.43832 -1.53156 0
M  V30 3185 C 312.545 2.1786 -1.71558 0
M  V30 3186 H 315.496 0.90229 -1.30554 0
M  V30 3187 H 315.517 3.62007 -1.17181 0
M  V30 3188 H 315.029 2.72596 -2.76248 0
M  V30 3189 H 313.13 3.69307 -0.494294 0
M  V30 3190 H 313.243 4.19747 -2.30975 0
M  V30 3191 H 311.607 2.2765 -1.14225 0
M  V30 3192 H 312.39 1.99956 -2.79056 0
M  V30 3193 N 314.835 0.952656 1.25548 0
M  V30 3194 C 316.082 0.606373 1.93208 0
M  V30 3195 C 316.41 -0.85631 1.74636 0
M  V30 3196 O 315.665 -1.62951 1.08376 0
M  V30 3197 C 315.964 0.908818 3.45652 0
M  V30 3198 C 315.63 2.35722 3.84378 0
M  V30 3199 C 314.292 2.75312 3.9466 0
M  V30 3200 C 316.644 3.29793 4.03591 0
M  V30 3201 C 313.972 4.08047 4.21562 0
M  V30 3202 C 316.324 4.62138 4.31985 0
M  V30 3203 C 314.988 5.01528 4.40484 0
M  V30 3204 H 314.258 0.221888 0.706998 0
M  V30 3205 H 316.905 1.20132 1.49133 0
M  V30 3206 H 315.21 0.231456 3.91116 0
M  V30 3207 H 316.907 0.619498 3.96186 0
M  V30 3208 H 313.497 2.04017 3.76928 0
M  V30 3209 H 317.681 3.00397 3.95064 0
M  V30 3210 H 312.937 4.38212 4.26357 0
M  V30 3211 H 317.111 5.35012 4.45797 0
M  V30 3212 H 314.738 6.04406 4.61083 0
M  V30 3213 N 316.313 -1.40141 0.720998 0
M  V30 3214 C 317.729 -1.54632 0.395113 0
M  V30 3215 C 317.929 -1.69115 -1.09555 0
M  V30 3216 O 316.985 -1.68377 -1.88163 0
M  V30 3217 C 318.298 -2.77177 1.1659 0
M  V30 3218 C 319.846 -2.91 1.15274 0
M  V30 3219 C 320.321 -4.16465 1.90579 0
M  V30 3220 N 321.812 -4.23476 1.87675 0
M  V30 3221 C 322.547 -5.19475 2.42762 0
M  V30 3222 N 322.043 -6.21348 3.06428 0
M  V30 3223 N 323.836 -5.11592 2.32874 0
M  V30 3224 H 315.987 -1.28986 1.68749 0
M  V30 3225 H 318.25 -0.62412 0.713567 0
M  V30 3226 H 317.956 -2.72771 2.22011 0
M  V30 3227 H 317.83 -3.69442 0.76108 0
M  V30 3228 H 320.217 -2.94907 0.106702 0
M  V30 3229 H 320.298 -1.99838 1.59682 0
M  V30 3230 H 319.942 -4.1332 2.95176 0
M  V30 3231 H 319.872 -5.06646 1.43587 0
M  V30 3232 H 322.363 -3.50497 1.41281 0
M  V30 3233 H 322.676 -6.91034 3.45965 0
M  V30 3234 H 321.021 -6.21777 3.10514 0
M  V30 3235 H 324.212 -4.30936 1.82789 0
M  V30 3236 H 324.385 -5.86233 2.76106 0
M  V30 3237 N 317.792 -0.46758 -1.50504 0
M  V30 3238 C 319.017 0.0886943 -2.0721 0
M  V30 3239 C 319.442 1.33057 -1.32956 0
M  V30 3240 O 318.8 1.77354 -0.376197 0
M  V30 3241 C 318.848 0.359202 -3.58806 0
M  V30 3242 O 317.952 1.44034 -3.8643 0
M  V30 3243 H 317.293 -0.0114349 -0.663902 0
M  V30 3244 H 319.823 -0.657613 -1.93744 0
M  V30 3245 H 319.833 0.600742 -4.03553 0
M  V30 3246 H 318.508 -0.548311 -4.1227 0
M  V30 3247 H 317.085 1.18638 -3.53524 0
M  V30 3248 N 319.27 1.56325 -0.20005 0
M  V30 3249 C 320.547 1.89484 0.48529 0
M  V30 3250 C 320.927 1.1143 1.79294 0
M  V30 3251 O 320.275 0.216919 2.27468 0
M  V30 3252 C 320.485 3.41923 0.699243 0
M  V30 3253 C 321.833 4.12256 1.01638 0
M  V30 3254 O 322.857 3.47402 0.786792 0
M  V30 3255 O 321.716 5.26887 1.45095 0
M  V30 3256 H 318.81 0.787144 0.253639 0
M  V30 3257 H 321.356 1.67985 -0.240633 0
M  V30 3258 H 320.128 3.90658 -0.224008 0
M  V30 3259 H 319.751 3.69131 1.47744 0
M  V30 3260 N 320.748 -0.0735177 1.57428 0
M  V30 3261 C 321.973 -0.789787 1.91774 0
M  V30 3262 C 322.398 -1.70413 0.796306 0
M  V30 3263 O 321.756 -1.79555 -0.250961 0
M  V30 3264 C 321.804 -1.5609 3.25067 0
M  V30 3265 O 320.908 -2.67144 3.14178 0
M  V30 3266 H 320.249 -0.215582 0.628029 0
M  V30 3267 H 322.779 -0.0422781 2.04556 0
M  V30 3268 H 322.789 -1.94052 3.58898 0
M  V30 3269 H 321.464 -0.890015 4.06265 0
M  V30 3270 H 320.041 -2.32052 2.91901 0
M  V30 3271 N 322.226 -1.5378 -0.344866 0
M  V30 3272 C 323.456 -1.74646 -1.10374 0
M  V30 3273 C 323.864 -0.48491 -1.8288 0
M  V30 3274 O 323.207 0.553062 -1.75177 0
M  V30 3275 C 323.269 -2.87145 -2.16306 0
M  V30 3276 C 322.933 -4.26795 -1.63386 0
M  V30 3277 C 323.93 -5.08412 -1.08688 0
M  V30 3278 C 321.615 -4.73276 -1.68272 0
M  V30 3279 C 323.609 -6.34609 -0.595792 0
M  V30 3280 C 321.296 -5.99446 -1.18776 0
M  V30 3281 C 322.294 -6.79946 -0.645215 0
M  V30 3282 O 321.982 -8.03745 -0.157626 0
M  V30 3283 H 321.714 -0.587112 -0.335075 0
M  V30 3284 H 324.268 -2.01403 -0.403252 0
M  V30 3285 H 322.498 -2.55909 -2.89909 0
M  V30 3286 H 324.187 -2.95992 -2.77747 0
M  V30 3287 H 324.953 -4.73666 -1.04236 0
M  V30 3288 H 320.832 -4.10677 -2.09442 0
M  V30 3289 H 324.376 -6.97389 -0.171654 0
M  V30 3290 H 320.273 -6.33687 -1.22928 0
M  V30 3291 H 321.041 -8.18038 -0.275037 0
M  V30 3292 N 323.704 0.605807 -1.45491 0
M  V30 3293 C 324.952 1.36207 -1.49305 0
M  V30 3294 C 325.273 1.94519 -0.136863 0
M  V30 3295 O 324.543 1.77261 0.833983 0
M  V30 3296 H 323.123 0.50565 -0.549843 0
M  V30 3297 H 325.785 0.711239 -1.81459 0
M  V30 3298 H 324.881 2.18058 -2.23287 0
M  V30 3299 N 325.182 1.32811 0.848464 0
M  V30 3300 C 326.112 1.24882 1.97299 0
M  V30 3301 C 327.093 0.131357 1.69592 0
M  V30 3302 O 328.278 0.319553 1.91553 0
M  V30 3303 C 325.408 0.97746 3.33261 0
M  V30 3304 C 324.362 2.05682 3.75338 0
M  V30 3305 C 323.688 1.63777 5.09 0
M  V30 3306 C 324.988 3.47254 3.90144 0
M  V30 3307 H 326.682 2.18966 2.04191 0
M  V30 3308 H 324.228 1.05413 0.981029 0
M  V30 3309 H 326.181 0.908513 4.1149 0
M  V30 3310 H 324.905 0.000980011 3.266 0
M  V30 3311 H 323.564 2.11603 2.99366 0
M  V30 3312 H 323.212 0.648569 4.98801 0
M  V30 3313 H 322.912 2.36 5.38124 0
M  V30 3314 H 324.436 1.5833 5.89715 0
M  V30 3315 H 325.85 3.43888 4.58709 0
M  V30 3316 H 324.247 4.1788 4.30693 0
M  V30 3317 H 325.317 3.86462 2.92874 0
M  V30 3318 N 326.66 -1.06551 1.16123 0
M  V30 3319 C 327.59 -2.15935 0.88851 0
M  V30 3320 C 328.571 -1.69306 -0.164135 0
M  V30 3321 O 329.756 -1.94193 -0.0167857 0
M  V30 3322 C 326.886 -3.45149 0.385942 0
M  V30 3323 C 325.84 -4.05271 1.3762 0
M  V30 3324 C 325.166 -5.29664 0.732137 0
M  V30 3325 C 326.466 -4.44355 2.74493 0
M  V30 3326 H 328.16 -2.39006 1.80323 0
M  V30 3327 H 325.706 -1.14866 0.868435 0
M  V30 3328 H 327.659 -4.21004 0.182647 0
M  V30 3329 H 326.383 -3.21689 -0.564274 0
M  V30 3330 H 325.042 -3.3147 1.56599 0
M  V30 3331 H 324.69 -5.02499 -0.224483 0
M  V30 3332 H 324.39 -5.70848 1.39307 0
M  V30 3333 H 325.914 -6.08218 0.538802 0
M  V30 3334 H 327.328 -5.11303 2.59311 0
M  V30 3335 H 325.725 -4.96515 3.37035 0
M  V30 3336 H 326.795 -3.55339 3.29943 0
M  V30 3337 N 328.138 -0.959301 -1.25041 0
M  V30 3338 C 329.386 -0.615393 -1.92503 0
M  V30 3339 C 329.707 0.850969 -1.75452 0
M  V30 3340 O 328.977 1.60658 -1.12098 0
M  V30 3341 H 327.557 -0.224613 -0.712431 0
M  V30 3342 H 330.219 -1.21855 -1.5211 0
M  V30 3343 H 329.315 -0.848738 -3.00338 0
M  V30 3344 N 329.616 1.39756 -0.72842 0
M  V30 3345 C 330.564 2.32485 -0.0731849 0
M  V30 3346 C 331.558 1.52717 0.733063 0
M  V30 3347 O 332.764 1.68428 0.634988 0
M  V30 3348 H 329.139 0.751984 -0.00486469 0
M  V30 3349 H 331.11 2.85382 -0.871761 0
M  V30 3350 C 329.859 3.37773 0.824908 0
M  V30 3351 H 329.182 3.99227 0.213915 0
M  V30 3352 H 330.622 4.05121 1.25111 0
M  V30 3353 C 329.081 2.74287 1.95622 0
M  V30 3354 O 329.611 2.61618 3.04826 0
M  V30 3355 N 327.817 2.32475 1.74367 0
M  V30 3356 H 327.364 2.4298 0.855494 0
M  V30 3357 H 327.322 1.90337 2.50238 0
M  V30 3358 N 331.094 0.475555 1.50254 0
M  V30 3359 C 332.319 -0.0777042 2.07254 0
M  V30 3360 C 332.744 -1.3235 1.3366 0
M  V30 3361 O 332.102 -1.77152 0.385597 0
M  V30 3362 C 332.15 -0.340169 3.58992 0
M  V30 3363 O 331.254 -1.41982 3.87188 0
M  V30 3364 H 330.595 0.0149556 0.663832 0
M  V30 3365 H 333.125 0.667878 1.93392 0
M  V30 3366 H 333.135 -0.579332 4.03866 0
M  V30 3367 H 331.81 0.570167 4.11973 0
M  V30 3368 H 330.387 -1.16762 3.54148 0
M  V30 3369 N 332.573 -1.56217 0.208337 0
M  V30 3370 C 333.819 -1.98242 -0.427552 0
M  V30 3371 C 334.152 -1.09554 -1.60348 0
M  V30 3372 O 333.427 -0.15035 -1.93918 0
M  V30 3373 C 333.71 -3.4931 -0.874907 0
M  V30 3374 C 333.563 -4.48773 0.303751 0
M  V30 3375 C 334.882 -4.04424 -1.73577 0
M  V30 3376 H 332.001 -0.720744 -0.153936 0
M  V30 3377 H 334.643 -1.87586 0.30192 0
M  V30 3378 H 332.793 -3.58522 -1.49648 0
M  V30 3379 H 334.465 -4.51586 0.941682 0
M  V30 3380 H 332.708 -4.23194 0.953375 0
M  V30 3381 H 333.379 -5.51976 -0.0519883 0
M  V30 3382 H 335.855 -3.98075 -1.21143 0
M  V30 3383 H 334.731 -5.1047 -2.01771 0
M  V30 3384 H 334.992 -3.50494 -2.69456 0
M  V30 3385 N 334.051 0.0651679 -1.57465 0
M  V30 3386 C 335.328 0.79644 -1.78651 0
M  V30 3387 C 335.708 1.95454 -0.797566 0
M  V30 3388 O 335.056 2.27882 0.167946 0
M  V30 3389 C 335.266 1.26322 -3.25337 0
M  V30 3390 C 336.614 1.6939 -3.89348 0
M  V30 3391 O 337.638 1.35872 -3.29268 0
M  V30 3392 O 336.497 2.31471 -4.95059 0
M  V30 3393 H 333.591 0.382157 -0.733407 0
M  V30 3394 H 336.137 0.0447311 -1.69641 0
M  V30 3395 H 334.909 0.434859 -3.88876 0
M  V30 3396 H 334.532 2.07604 -3.39096 0
M  V30 3397 N 335.529 1.53961 0.336706 0
M  V30 3398 C 336.492 1.81724 1.39675 0
M  V30 3399 C 337.492 0.688532 1.45313 0
M  V30 3400 O 338.682 0.956829 1.45569 0
M  V30 3401 C 335.814 1.96543 2.78538 0
M  V30 3402 H 337.007 2.76424 1.16318 0
M  V30 3403 H 334.56 1.45478 0.571474 0
M  V30 3404 H 335.295 1.0401 3.07168 0
M  V30 3405 H 335.08 2.78665 2.75841 0
M  V30 3406 H 336.57 2.19516 3.5525 0
M  V30 3407 N 337.007 -0.598083 1.45811 0
M  V30 3408 C 337.937 -1.71873 1.58057 0
M  V30 3409 C 338.918 -1.64533 0.431615 0
M  V30 3410 O 340.103 -1.82787 0.65595 0
M  V30 3411 C 337.233 -3.10495 1.55597 0
M  V30 3412 C 336.187 -3.32654 2.69305 0
M  V30 3413 C 335.513 -4.71646 2.51902 0
M  V30 3414 C 336.813 -3.21981 4.11248 0
M  V30 3415 H 338.507 -1.61881 2.51863 0
M  V30 3416 H 336.053 -0.777372 1.21214 0
M  V30 3417 H 338.006 -3.88699 1.6276 0
M  V30 3418 H 336.73 -3.2135 0.583255 0
M  V30 3419 H 335.389 -2.56843 2.61586 0
M  V30 3420 H 335.037 -4.79246 1.52748 0
M  V30 3421 H 334.737 -4.87426 3.2816 0
M  V30 3422 H 336.261 -5.52038 2.60933 0
M  V30 3423 H 337.675 -3.90049 4.20161 0
M  V30 3424 H 336.072 -3.49289 4.87972 0
M  V30 3425 H 337.142 -2.1928 4.32486 0
M  V30 3426 N 338.485 -1.33259 -0.841409 0
M  V30 3427 C 339.715 -1.2742 -1.62628 0
M  V30 3428 C 340.123 0.157604 -1.88542 0
M  V30 3429 O 339.466 1.10938 -1.46419 0
M  V30 3430 C 339.528 -1.97797 -3.00194 0
M  V30 3431 C 339.192 -3.47109 -2.97261 0
M  V30 3432 C 340.189 -4.42358 -2.73159 0
M  V30 3433 C 337.874 -3.89247 -3.17478 0
M  V30 3434 C 339.868 -5.77718 -2.69296 0
M  V30 3435 C 337.555 -5.24713 -3.13241 0
M  V30 3436 C 338.553 -6.1876 -2.89181 0
M  V30 3437 O 338.241 -7.51745 -2.84843 0
M  V30 3438 H 337.973 -0.440436 -0.512827 0
M  V30 3439 H 340.527 -1.76153 -1.05638 0
M  V30 3440 H 338.757 -1.43652 -3.59028 0
M  V30 3441 H 340.446 -1.8549 -3.61038 0
M  V30 3442 H 341.212 -4.11127 -2.57294 0
M  V30 3443 H 337.091 -3.16456 -3.35226 0
M  V30 3444 H 340.635 -6.51097 -2.50436 0
M  V30 3445 H 336.532 -5.55569 -3.28654 0
M  V30 3446 H 337.3 -7.61262 -3.00702 0
M  V30 3447 N 339.963 1.05934 -1.16686 0
M  V30 3448 C 341.212 1.78188 -0.945085 0
M  V30 3449 C 341.525 1.88338 0.528021 0
M  V30 3450 O 342.731 2.57258 0.867799 0
M  V30 3451 C 341.187 3.20277 -1.64167 0
M  V30 3452 C 340.795 3.18281 -3.15279 0
M  V30 3453 C 342.539 3.97039 -1.502 0
M  V30 3454 C 340.446 4.55112 -3.7766 0
M  V30 3455 H 339.376 0.667866 -0.349959 0
M  V30 3456 H 342.027 1.18794 -1.39858 0
M  V30 3457 H 340.409 3.79952 -1.11589 0
M  V30 3458 H 341.583 2.68167 -3.74731 0
M  V30 3459 H 339.898 2.55018 -3.29173 0
M  V30 3460 H 342.495 4.98194 -1.94183 0
M  V30 3461 H 342.838 4.13845 -0.451461 0
M  V30 3462 H 343.371 3.43894 -1.99954 0
M  V30 3463 H 340.11 4.43512 -4.82677 0
M  V30 3464 H 339.63 5.05406 -3.22994 0
M  V30 3465 H 341.309 5.24064 -3.79428 0
M  V30 3466 N 341.441 0.965919 1.2453 0
M  V30 3467 C 342.857 0.67216 1.44756 0
M  V30 3468 C 343.057 -0.766609 1.86347 0
M  V30 3469 O 342.113 -1.5407 2.00047 0
M  V30 3470 C 343.426 1.65473 2.51076 0
M  V30 3471 C 344.974 1.66716 2.64905 0
M  V30 3472 C 345.449 2.63766 3.74421 0
M  V30 3473 N 346.94 2.62198 3.81846 0
M  V30 3474 C 347.675 3.33966 4.66106 0
M  V30 3475 N 347.171 4.15245 5.54566 0
M  V30 3476 N 348.964 3.22799 4.60171 0
M  V30 3477 H 341.115 1.89553 0.958293 0
M  V30 3478 H 343.378 0.815979 0.482579 0
M  V30 3479 H 343.084 2.68296 2.27399 0
M  V30 3480 H 342.958 1.4261 3.49202 0
M  V30 3481 H 345.345 0.646057 2.87941 0
M  V30 3482 H 345.426 1.93642 1.67142 0
M  V30 3483 H 345.07 3.6601 3.52135 0
M  V30 3484 H 345 2.34121 4.71694 0
M  V30 3485 H 347.491 2.032 3.18619 0
M  V30 3486 H 347.804 4.66898 6.15814 0
M  V30 3487 H 346.149 4.1934 5.54237 0
M  V30 3488 H 349.34 2.58764 3.90075 0
M  V30 3489 H 349.513 3.78994 5.25612 0
M  V30 3490 N 342.919 -1.39368 0.735821 0
M  V30 3491 C 343.829 -2.34395 0.0979693 0
M  V30 3492 C 344.845 -1.58361 -0.720968 0
M  V30 3493 O 346.021 -1.90648 -0.649245 0
M  V30 3494 C 343.086 -3.37393 -0.797916 0
M  V30 3495 C 342.147 -4.29287 0.0333662 0
M  V30 3496 C 341.38 -5.27365 -0.819854 0
M  V30 3497 O 341.603 -5.31959 -2.05855 0
M  V30 3498 O 340.537 -6.01389 -0.248079 0
M  V30 3499 H 344.363 -2.90601 0.882315 0
M  V30 3500 H 341.948 -1.40909 0.4965 0
M  V30 3501 H 343.83 -4.00505 -1.31048 0
M  V30 3502 H 342.505 -2.83571 -1.56106 0
M  V30 3503 H 341.412 -3.69395 0.591475 0
M  V30 3504 H 342.745 -4.86317 0.758752 0
M  V30 3505 N 344.397 -0.483516 -1.5 0
M  V30 3506 C 345.813 -0.138404 -1.58999 0
M  V30 3507 C 346.013 1.35597 -1.4905 0
M  V30 3508 O 345.069 2.13039 -1.35539 0
M  V30 3509 C 346.382 -0.699658 -2.92447 0
M  V30 3510 C 347.93 -0.664195 -3.05872 0
M  V30 3511 C 348.405 -1.20321 -4.41913 0
M  V30 3512 N 349.896 -1.16315 -4.48358 0
M  V30 3513 C 350.631 -1.55058 -5.52037 0
M  V30 3514 N 350.127 -2.01311 -6.62907 0
M  V30 3515 N 351.92 -1.46584 -5.42651 0
M  V30 3516 H 344.071 -1.45529 -1.5471 0
M  V30 3517 H 346.334 -0.60258 -0.731848 0
M  V30 3518 H 346.04 -1.747 -3.05242 0
M  V30 3519 H 345.914 -0.150194 -3.76901 0
M  V30 3520 H 348.301 0.374272 -2.92717 0
M  V30 3521 H 348.382 -1.25061 -2.23144 0
M  V30 3522 H 348.026 -2.24037 -4.55818 0
M  V30 3523 H 347.956 -0.592896 -5.23252 0
M  V30 3524 H 350.447 -0.824058 -3.68806 0
M  V30 3525 H 350.76 -2.2899 -7.38095 0
M  V30 3526 H 349.105 -2.05273 -6.63994 0
M  V30 3527 H 352.296 -1.10281 -4.54924 0
M  V30 3528 H 352.469 -1.77103 -6.23329 0
M  V30 3529 N 345.875 1.56104 -0.216619 0
M  V30 3530 C 346.805 2.23063 0.690296 0
M  V30 3531 C 347.786 1.20072 1.20485 0
M  V30 3532 O 348.971 1.48643 1.24976 0
M  V30 3533 C 346.101 2.90672 1.90072 0
M  V30 3534 C 345.055 4.00092 1.5202 0
M  V30 3535 C 344.381 4.54972 2.80899 0
M  V30 3536 C 345.681 5.17398 0.71391 0
M  V30 3537 H 347.375 2.99109 0.132038 0
M  V30 3538 H 344.921 1.43866 0.0620664 0
M  V30 3539 H 346.874 3.36204 2.54057 0
M  V30 3540 H 345.598 2.12066 2.48386 0
M  V30 3541 H 344.257 3.55283 0.903839 0
M  V30 3542 H 343.905 3.73102 3.37348 0
M  V30 3543 H 343.605 5.28817 2.56176 0
M  V30 3544 H 345.129 5.0322 3.45836 0
M  V30 3545 H 346.543 5.59342 1.25735 0
M  V30 3546 H 344.94 5.97444 0.563951 0
M  V30 3547 H 346.01 4.84088 -0.280527 0
M  V30 3548 N 347.353 -0.0568162 1.57498 0
M  V30 3549 C 348.764 -0.606858 1.76562 0
M  V30 3550 C 349.115 -1.77114 0.844094 0
M  V30 3551 O 348.24 -2.16376 0.0318911 0
M  V30 3552 C 348.835 -1.10766 3.20182 0
M  V30 3553 C 347.394 -1.60344 3.40539 0
M  V30 3554 C 346.541 -0.529311 2.72201 0
M  V30 3555 H 349.492 0.169393 1.57793 0
M  V30 3556 H 349.513 -1.97602 3.25167 0
M  V30 3557 H 349.025 -0.26006 3.87228 0
M  V30 3558 H 347.126 -2.47379 2.78629 0
M  V30 3559 H 347.239 -1.67006 4.4905 0
M  V30 3560 H 345.603 -0.977893 2.35179 0
M  V30 3561 H 346.386 0.308352 3.41912 0
M  V30 3562 N 348.832 -1.54138 -0.328536 0
M  V30 3563 C 349.779 -1.83176 -1.40411 0
M  V30 3564 C 350.749 -0.678494 -1.5161 0
M  V30 3565 O 351.934 -0.92443 -1.6691 0
M  V30 3566 C 349.074 -2.06035 -2.76846 0
M  V30 3567 C 348.187 -3.33727 -2.74318 0
M  V30 3568 C 347.322 -3.46574 -4.02567 0
M  V30 3569 C 346.361 -4.68159 -3.94327 0
M  V30 3570 N 345.498 -4.77959 -5.14296 0
M  V30 3571 H 350.338 -2.74938 -1.14948 0
M  V30 3572 H 347.875 -1.36166 -0.556538 0
M  V30 3573 H 349.833 -2.1728 -3.56153 0
M  V30 3574 H 348.463 -1.1757 -3.00628 0
M  V30 3575 H 347.515 -3.31246 -1.8703 0
M  V30 3576 H 348.827 -4.23139 -2.64111 0
M  V30 3577 H 347.981 -3.57333 -4.90304 0
M  V30 3578 H 346.72 -2.55245 -4.15574 0
M  V30 3579 H 345.725 -4.57461 -3.04974 0
M  V30 3580 H 346.95 -5.60868 -3.82889 0
M  V30 3581 H 344.896 -3.89544 -5.27818 0
M  V30 3582 H 344.813 -5.6133 -5.06404 0
M  V30 3583 H 346.081 -4.93044 -6.03761 0
M  V30 3584 N 350.31 0.590341 -1.46126 0
M  V30 3585 C 351.24 1.71032 -1.58966 0
M  V30 3586 C 352.221 1.64302 -0.440335 0
M  V30 3587 O 353.406 1.82436 -0.665634 0
M  V30 3588 C 350.536 3.09665 -1.57241 0
M  V30 3589 C 349.49 3.31221 -2.71066 0
M  V30 3590 C 348.816 4.70303 -2.54399 0
M  V30 3591 C 350.116 3.19796 -4.1295 0
M  V30 3592 H 351.81 1.60543 -2.52718 0
M  V30 3593 H 349.356 0.770933 -1.21625 0
M  V30 3594 H 351.309 3.87831 -1.64819 0
M  V30 3595 H 350.033 3.21036 -0.600289 0
M  V30 3596 H 348.692 2.55452 -2.62944 0
M  V30 3597 H 348.34 4.78429 -1.55288 0
M  V30 3598 H 348.04 4.85679 -3.30741 0
M  V30 3599 H 349.564 5.50647 -2.63857 0
M  V30 3600 H 350.978 3.87815 -4.22223 0
M  V30 3601 H 349.375 3.46696 -4.89818 0
M  V30 3602 H 350.445 2.16983 -4.33643 0
M  V30 3603 N 351.788 1.33704 0.83433 0
M  V30 3604 C 353.204 1.13137 1.12571 0
M  V30 3605 C 353.404 -0.0747261 2.01361 0
M  V30 3606 O 352.46 -0.753647 2.4099 0
M  V30 3607 C 353.773 2.42105 1.78342 0
M  V30 3608 C 355.321 2.48054 1.90888 0
M  V30 3609 C 355.796 3.76995 2.60075 0
M  V30 3610 N 357.287 3.78092 2.67584 0
M  V30 3611 C 358.022 4.74574 3.21818 0
M  V30 3612 N 357.518 5.81434 3.76705 0
M  V30 3613 N 359.311 4.62044 3.20112 0
M  V30 3614 H 351.462 2.11 0.243489 0
M  V30 3615 H 353.725 0.932532 0.17055 0
M  V30 3616 H 353.431 3.30391 1.20561 0
M  V30 3617 H 353.305 2.54594 2.7832 0
M  V30 3618 H 355.692 1.60215 2.47821 0
M  V30 3619 H 355.773 2.39502 0.898459 0
M  V30 3620 H 355.417 4.65219 2.03799 0
M  V30 3621 H 355.347 3.82825 3.61597 0
M  V30 3622 H 357.838 3.00865 2.28667 0
M  V30 3623 H 358.151 6.51084 4.16305 0
M  V30 3624 H 356.496 5.85163 3.7498 0
M  V30 3625 H 359.687 3.77716 2.76493 0
M  V30 3626 H 359.86 5.37406 3.62076 0
M  V30 3627 N 353.266 -1.05314 1.17247 0
M  V30 3628 C 354.496 -1.81707 0.983166 0
M  V30 3629 C 354.904 -1.83222 -0.471822 0
M  V30 3630 O 354.247 -1.25721 -1.3394 0
M  V30 3631 C 354.309 -3.29134 1.44606 0
M  V30 3632 C 353.973 -3.51304 2.92292 0
M  V30 3633 C 354.97 -3.4353 3.90235 0
M  V30 3634 C 352.655 -3.78306 3.30439 0
M  V30 3635 C 354.649 -3.62442 5.24323 0
M  V30 3636 C 352.336 -3.96866 4.64694 0
M  V30 3637 C 353.334 -3.88933 5.61445 0
M  V30 3638 O 353.022 -4.06976 6.93272 0
M  V30 3639 H 352.754 -0.579476 0.348114 0
M  V30 3640 H 355.308 -1.33705 1.55924 0
M  V30 3641 H 353.538 -3.78046 0.813537 0
M  V30 3642 H 355.227 -3.87049 1.22262 0
M  V30 3643 H 355.993 -3.22648 3.62109 0
M  V30 3644 H 351.872 -3.83585 2.55702 0
M  V30 3645 H 355.416 -3.56165 5.99827 0
M  V30 3646 H 351.313 -4.1724 4.92525 0
M  V30 3647 H 352.081 -4.24209 6.99992 0
M  V30 3648 N 354.744 -0.972509 -1.24016 0
M  V30 3649 C 356.021 -0.553733 -1.87598 0
M  V30 3650 C 356.401 0.969158 -1.87538 0
M  V30 3651 O 355.749 1.84255 -1.35139 0
M  V30 3652 C 355.959 -1.15076 -3.29482 0
M  V30 3653 C 357.307 -1.23862 -4.06132 0
M  V30 3654 O 358.331 -1.10363 -3.38672 0
M  V30 3655 O 357.19 -1.45252 -5.26844 0
M  V30 3656 H 354.284 -0.185331 -0.805966 0
M  V30 3657 H 356.83 -1.06709 -1.31952 0
M  V30 3658 H 355.602 -2.19333 -3.2405 0
M  V30 3659 H 355.225 -0.621746 -3.92709 0
M  V30 3660 N 356.222 1.38976 -0.743202 0
M  V30 3661 C 357.169 2.30544 -0.10861 0
M  V30 3662 C 358.139 1.49642 0.720869 0
M  V30 3663 O 359.324 1.78304 0.679142 0
M  V30 3664 C 356.464 3.36018 0.786496 0
M  V30 3665 C 355.577 4.31963 -0.0564849 0
M  V30 3666 C 354.712 5.24506 0.840657 0
M  V30 3667 C 353.751 6.121 -0.00658363 0
M  V30 3668 N 352.888 6.96973 0.846943 0
M  V30 3669 H 357.728 2.8424 -0.895088 0
M  V30 3670 H 355.265 1.3995 -0.453048 0
M  V30 3671 H 357.223 3.95768 1.31999 0
M  V30 3672 H 355.853 2.83758 1.53887 0
M  V30 3673 H 354.905 3.73763 -0.707492 0
M  V30 3674 H 356.217 4.93703 -0.711229 0
M  V30 3675 H 355.371 5.89322 1.4417 0
M  V30 3676 H 354.11 4.63107 1.52916 0
M  V30 3677 H 353.115 5.46289 -0.620366 0
M  V30 3678 H 354.34 6.75565 -0.691992 0
M  V30 3679 H 352.286 6.38133 1.52059 0
M  V30 3680 H 352.203 7.5559 0.248864 0
M  V30 3681 H 353.471 7.6621 1.43328 0
M  V30 3682 N 357.7 0.491464 1.49741 0
M  V30 3683 C 358.632 -0.328609 2.26832 0
M  V30 3684 C 359.645 -0.939113 1.32983 0
M  V30 3685 O 360.834 -0.824067 1.58339 0
M  V30 3686 C 357.934 -1.47675 3.05033 0
M  V30 3687 C 357.107 -0.975305 4.26388 0
M  V30 3688 C 356.166 -1.99991 4.86714 0
M  V30 3689 O 355.192 -1.57229 5.47054 0
M  V30 3690 N 356.394 -3.32962 4.75517 0
M  V30 3691 H 359.159 0.332377 2.97851 0
M  V30 3692 H 356.72 0.323441 1.58636 0
M  V30 3693 H 358.712 -2.15954 3.42266 0
M  V30 3694 H 357.282 -2.04206 2.36683 0
M  V30 3695 H 356.502 -0.117723 3.94024 0
M  V30 3696 H 357.79 -0.618531 5.05026 0
M  V30 3697 H 357.188 -3.70399 4.27576 0
M  V30 3698 H 355.745 -3.96982 5.16961 0
M  V30 3699 N 359.178 -1.55987 0.224894 0
M  V30 3700 C 360.108 -2.23426 -0.678457 0
M  V30 3701 C 361.089 -1.20709 -1.19847 0
M  V30 3702 O 362.274 -1.49304 -1.24186 0
M  V30 3703 C 359.404 -2.91676 -1.88527 0
M  V30 3704 C 358.358 -4.00893 -1.49896 0
M  V30 3705 C 357.684 -4.56455 -2.78483 0
M  V30 3706 C 358.984 -5.17769 -0.686461 0
M  V30 3707 H 360.678 -2.99175 -0.116173 0
M  V30 3708 H 358.224 -1.43897 -0.054436 0
M  V30 3709 H 360.177 -3.37547 -2.5227 0
M  V30 3710 H 358.901 -2.1338 -2.47258 0
M  V30 3711 H 357.56 -3.55758 -0.884985 0
M  V30 3712 H 357.208 -3.74886 -3.35365 0
M  V30 3713 H 356.908 -5.30169 -2.53368 0
M  V30 3714 H 358.432 -5.05047 -3.43162 0
M  V30 3715 H 359.846 -5.60001 -1.22767 0
M  V30 3716 H 358.243 -5.97735 -0.532259 0
M  V30 3717 H 359.313 -4.83932 0.306196 0
M  V30 3718 N 360.656 0.0484629 -1.57525 0
M  V30 3719 C 361.902 0.744226 -1.88651 0
M  V30 3720 C 362.235 1.76029 -0.820212 0
M  V30 3721 O 361.51 1.93782 0.166985 0
M  V30 3722 C 361.793 1.43128 -3.30434 0
M  V30 3723 C 361.646 0.43005 -4.47739 0
M  V30 3724 C 362.965 2.37031 -3.70816 0
M  V30 3725 H 360.084 0.269089 -0.68612 0
M  V30 3726 H 362.726 0.00713532 -1.89999 0
M  V30 3727 H 360.876 2.05956 -3.29415 0
M  V30 3728 H 362.548 -0.194816 -4.60888 0
M  V30 3729 H 360.791 -0.252522 -4.33064 0
M  V30 3730 H 361.462 0.948874 -5.43783 0
M  V30 3731 H 363.938 1.84263 -3.73077 0
M  V30 3732 H 362.814 2.82094 -4.70865 0
M  V30 3733 H 363.075 3.22864 -3.02012 0
M  V30 3734 N 362.134 1.5431 0.320358 0
M  V30 3735 C 363.382 1.72327 1.05583 0
M  V30 3736 C 363.703 0.50149 1.88441 0
M  V30 3737 O 362.973 -0.48448 1.89815 0
M  V30 3738 H 361.553 0.635387 0.3928 0
M  V30 3739 H 364.215 1.91621 0.356019 0
M  V30 3740 H 363.311 2.60426 1.72003 0
M  V30 3741 N 363.613 -0.582584 1.46437 0
M  V30 3742 C 364.859 -1.34278 1.51978 0
M  V30 3743 C 365.192 -1.93446 0.170973 0
M  V30 3744 O 364.467 -1.76481 -0.817608 0
M  V30 3745 C 364.75 -2.47203 2.61845 0
M  V30 3746 C 364.603 -1.93069 4.06257 0
M  V30 3747 C 365.922 -3.49247 2.67795 0
M  V30 3748 H 363.041 -0.486876 0.553282 0
M  V30 3749 H 365.683 -0.654437 1.78374 0
M  V30 3750 H 363.833 -3.0592 2.39469 0
M  V30 3751 H 365.505 -1.38808 4.3992 0
M  V30 3752 H 363.748 -1.23898 4.1573 0
M  V30 3753 H 364.419 -2.74586 4.7886 0
M  V30 3754 H 366.895 -3.00411 2.8791 0
M  V30 3755 H 365.771 -4.25719 3.46489 0
M  V30 3756 H 366.032 -4.06482 1.73852 0
M  V30 3757 N 365.091 -1.34144 -0.827227 0
M  V30 3758 C 366.319 -1.29325 -1.61501 0
M  V30 3759 C 366.734 0.13354 -1.88327 0
M  V30 3760 O 366.091 1.0793 -1.47164 0
M  V30 3761 C 366.142 -2.07746 -2.95844 0
M  V30 3762 O 365.863 -3.4486 -2.70191 0
M  V30 3763 C 367.364 -2.10273 -3.90256 0
M  V30 3764 H 364.584 -0.445069 -0.50215 0
M  V30 3765 H 367.128 -1.76693 -1.02955 0
M  V30 3766 H 365.283 -1.6403 -3.5096 0
M  V30 3767 H 365.697 -3.85345 -3.55822 0
M  V30 3768 H 367.171 -2.69575 -4.81698 0
M  V30 3769 H 367.648 -1.096 -4.25305 0
M  V30 3770 H 368.254 -2.54059 -3.41078 0
M  V30 3771 N 366.569 1.04691 -1.17803 0
M  V30 3772 C 367.479 2.16057 -0.914151 0
M  V30 3773 C 368.495 1.73589 0.119503 0
M  V30 3774 O 369.671 2.01308 -0.0609468 0
M  V30 3775 C 366.736 3.4394 -0.436603 0
M  V30 3776 C 365.797 4.00825 -1.53746 0
M  V30 3777 C 365.03 5.22604 -1.0826 0
M  V30 3778 O 365.253 5.70367 0.0612244 0
M  V30 3779 O 364.187 5.7186 -1.87775 0
M  V30 3780 H 368.013 2.41169 -1.84584 0
M  V30 3781 H 365.598 1.1453 -0.959334 0
M  V30 3782 H 367.48 4.21024 -0.178057 0
M  V30 3783 H 366.155 3.20316 0.466869 0
M  V30 3784 H 365.062 3.25158 -1.84995 0
M  V30 3785 H 366.395 4.28778 -2.41683 0
M  V30 3786 N 368.047 0.979072 1.23499 0
M  V30 3787 C 369.463 0.687475 1.44034 0
M  V30 3788 C 369.663 -0.746801 1.8715 0
M  V30 3789 O 368.719 -1.51939 2.0167 0
M  V30 3790 C 370.032 1.68127 2.49307 0
M  V30 3791 C 371.58 1.69516 2.63122 0
M  V30 3792 C 372.055 2.67723 3.71603 0
M  V30 3793 N 373.546 2.66233 3.79044 0
M  V30 3794 C 374.281 3.38891 4.62537 0
M  V30 3795 N 373.777 4.21103 5.50131 0
M  V30 3796 N 375.57 3.27661 4.56721 0
M  V30 3797 H 367.721 1.90559 0.938135 0
M  V30 3798 H 369.984 0.821051 0.473897 0
M  V30 3799 H 369.69 2.70693 2.2454 0
M  V30 3800 H 369.564 1.46306 3.4767 0
M  V30 3801 H 371.951 0.676561 2.8724 0
M  V30 3802 H 372.032 1.95404 1.65079 0
M  V30 3803 H 371.676 3.69724 3.48233 0
M  V30 3804 H 371.606 2.39111 4.69184 0
M  V30 3805 H 374.097 2.06568 3.16446 0
M  V30 3806 H 374.41 4.73403 6.10827 0
M  V30 3807 H 372.755 4.25195 5.49759 0
M  V30 3808 H 375.946 2.62887 3.87309 0
M  V30 3809 H 376.119 3.84547 5.21562 0
M  V30 3810 N 369.525 -1.3858 0.750561 0
M  V30 3811 C 370.435 -2.34278 0.122825 0
M  V30 3812 C 371.451 -1.59116 -0.704131 0
M  V30 3813 O 372.627 -1.91326 -0.628987 0
M  V30 3814 C 369.692 -3.38221 -0.762086 0
M  V30 3815 C 368.753 -4.29227 0.078896 0
M  V30 3816 C 367.986 -5.28205 -0.763874 0
M  V30 3817 O 368.209 -5.34112 -2.00201 0
M  V30 3818 O 367.143 -6.01618 -0.18428 0
M  V30 3819 H 370.969 -2.89649 0.913088 0
M  V30 3820 H 368.554 -1.40374 0.511417 0
M  V30 3821 H 370.436 -4.01872 -1.26793 0
M  V30 3822 H 369.111 -2.85211 -1.5309 0
M  V30 3823 H 368.018 -3.68747 0.630621 0
M  V30 3824 H 369.351 -4.85484 0.810289 0
M  V30 3825 N 371.003 -0.499398 -1.49478 0
M  V30 3826 C 372.228 0.044722 -2.07352 0
M  V30 3827 C 372.653 1.30207 -1.35749 0
M  V30 3828 O 372.011 1.76516 -0.413732 0
M  V30 3829 C 372.059 0.283013 -3.59488 0
M  V30 3830 O 371.163 1.35804 -3.89398 0
M  V30 3831 H 370.504 -0.0255147 -0.66351 0
M  V30 3832 H 373.034 -0.698561 -1.92305 0
M  V30 3833 H 373.044 0.515007 -4.04737 0
M  V30 3834 H 371.719 -0.635636 -4.11014 0
M  V30 3835 H 370.296 1.11113 -3.55961 0
M  V30 3836 N 372.481 1.55866 -0.233164 0
M  V30 3837 C 373.711 2.02704 0.399325 0
M  V30 3838 C 374.119 1.11204 1.53069 0
M  V30 3839 O 373.462 0.116182 1.83332 0
M  V30 3840 C 373.524 3.45844 0.981429 0
M  V30 3841 C 373.188 4.56997 -0.0159561 0
M  V30 3842 C 374.185 5.13384 -0.820552 0
M  V30 3843 C 371.87 5.0211 -0.138072 0
M  V30 3844 C 373.864 6.13365 -1.73386 0
M  V30 3845 C 371.551 6.01926 -1.0549 0
M  V30 3846 C 372.549 6.57431 -1.85132 0
M  V30 3847 O 372.237 7.55302 -2.75272 0
M  V30 3848 H 371.969 0.668459 0.100692 0
M  V30 3849 H 374.523 2.02387 -0.35052 0
M  V30 3850 H 372.753 3.43267 1.78058 0
M  V30 3851 H 374.442 3.76262 1.52255 0
M  V30 3852 H 375.208 4.79372 -0.736721 0
M  V30 3853 H 371.087 4.5858 0.471737 0
M  V30 3854 H 374.631 6.56614 -2.35592 0
M  V30 3855 H 370.528 6.35359 -1.1397 0
M  V30 3856 H 371.296 7.72867 -2.69477 0
M  V30 3857 N 373.959 -0.0401083 1.57549 0
M  V30 3858 C 375.205 -0.734211 1.89043 0
M  V30 3859 C 375.538 -1.75591 0.829535 0
M  V30 3860 O 374.813 -1.93868 -0.156706 0
M  V30 3861 C 375.096 -1.41374 3.31188 0
M  V30 3862 C 374.949 -0.406299 4.47961 0
M  V30 3863 C 376.268 -2.35061 3.72068 0
M  V30 3864 H 373.387 -0.265447 0.687537 0
M  V30 3865 H 376.029 0.00294087 1.9 0
M  V30 3866 H 374.179 -2.04206 3.30503 0
M  V30 3867 H 375.851 0.219255 4.60779 0
M  V30 3868 H 374.094 0.275485 4.32924 0
M  V30 3869 H 374.765 -0.920022 5.44279 0
M  V30 3870 H 377.241 -1.82282 3.74049 0
M  V30 3871 H 376.117 -2.79593 4.72355 0
M  V30 3872 H 376.378 -3.21258 3.0372 0
M  V30 3873 N 375.437 -1.54477 -0.31217 0
M  V30 3874 C 376.384 -1.84655 -1.38461 0
M  V30 3875 C 377.354 -0.694536 -1.50882 0
M  V30 3876 O 378.539 -0.942081 -1.6592 0
M  V30 3877 C 375.679 -2.0896 -2.74645 0
M  V30 3878 C 374.792 -3.36618 -2.70763 0
M  V30 3879 C 373.927 -3.50824 -3.98868 0
M  V30 3880 C 372.966 -4.72315 -3.89339 0
M  V30 3881 N 372.103 -4.83387 -5.09197 0
M  V30 3882 H 376.943 -2.76142 -1.12026 0
M  V30 3883 H 374.48 -1.36748 -0.542065 0
M  V30 3884 H 376.438 -2.21045 -3.53829 0
M  V30 3885 H 375.068 -1.20752 -2.99364 0
M  V30 3886 H 374.12 -3.33211 -1.83506 0
M  V30 3887 H 375.432 -4.25917 -2.59608 0
M  V30 3888 H 374.586 -3.62513 -4.86486 0
M  V30 3889 H 373.325 -2.59638 -4.12843 0
M  V30 3890 H 372.33 -4.6067 -3.00105 0
M  V30 3891 H 373.555 -5.64897 -3.76919 0
M  V30 3892 H 371.501 -3.9512 -5.23657 0
M  V30 3893 H 371.418 -5.66669 -5.00422 0
M  V30 3894 H 372.686 -4.9942 -5.98498 0
M  V30 3895 N 376.915 0.57481 -1.46744 0
M  V30 3896 C 377.878 1.66533 -1.57478 0
M  V30 3897 C 378.878 1.54338 -0.451263 0
M  V30 3898 O 380.068 1.58814 -0.715813 0
M  V30 3899 C 377.2 3.05999 -1.50259 0
M  V30 3900 H 378.393 1.58372 -2.54673 0
M  V30 3901 H 375.946 0.793301 -1.34672 0
M  V30 3902 H 376.681 3.19709 -0.543725 0
M  V30 3903 H 376.466 3.16259 -2.31781 0
M  V30 3904 H 377.956 3.8537 -1.60872 0
M  V30 3905 N 378.394 1.34581 0.820102 0
M  V30 3906 C 379.619 1.30333 1.61332 0
M  V30 3907 C 380.044 -0.119339 1.87721 0
M  V30 3908 O 379.402 -1.08197 1.45475 0
M  V30 3909 C 379.45 2.10258 2.92957 0
M  V30 3910 O 378.554 1.47404 3.85157 0
M  V30 3911 H 377.895 0.447488 0.490561 0
M  V30 3912 H 380.425 1.77425 1.01889 0
M  V30 3913 H 380.435 2.21718 3.42498 0
M  V30 3914 H 379.11 3.13693 2.73074 0
M  V30 3915 H 377.687 1.44703 3.43679 0
M  V30 3916 N 379.872 -1.04064 1.18357 0
M  V30 3917 C 381.118 -1.77528 0.980397 0
M  V30 3918 C 381.451 -1.87948 -0.48879 0
M  V30 3919 O 380.726 -1.3876 -1.36293 0
M  V30 3920 C 381.009 -3.20797 1.63588 0
M  V30 3921 C 380.862 -3.1832 3.17793 0
M  V30 3922 C 382.181 -4.18911 1.34914 0
M  V30 3923 H 379.3 -0.644443 0.357578 0
M  V30 3924 H 381.942 -1.2156 1.46024 0
M  V30 3925 H 380.092 -3.68586 1.22788 0
M  V30 3926 H 381.764 -2.78521 3.67728 0
M  V30 3927 H 380.007 -2.56351 3.49952 0
M  V30 3928 H 380.678 -4.19489 3.58794 0
M  V30 3929 H 383.154 -3.7967 1.70265 0
M  V30 3930 H 382.03 -5.17374 1.83346 0
M  V30 3931 H 382.291 -4.41262 0.272027 0
M  V30 3932 N 381.35 -0.985608 -1.22978 0
M  V30 3933 C 382.575 -0.675254 -1.961 0
M  V30 3934 C 383 0.752154 -1.72407 0
M  V30 3935 O 382.358 1.5131 -0.998751 0
M  V30 3936 C 382.406 -0.977899 -3.47087 0
M  V30 3937 O 381.51 -0.072685 -4.12336 0
M  V30 3938 H 380.851 -0.253443 -0.613728 0
M  V30 3939 H 383.381 -1.32061 -1.56272 0
M  V30 3940 H 383.391 -0.916739 -3.97567 0
M  V30 3941 H 382.066 -2.01807 -3.63657 0
M  V30 3942 H 380.643 -0.188703 -3.72422 0
M  V30 3943 N 382.828 1.3818 -0.7579 0
M  V30 3944 C 384.239 1.82726 -0.383134 0
M  V30 3945 C 384.59 1.63214 1.08884 0
M  V30 3946 O 383.715 1.13566 1.84205 0
M  V30 3947 C 384.31 3.31728 -0.688631 0
M  V30 3948 C 382.869 3.74606 -0.367091 0
M  V30 3949 C 382.016 2.60896 -0.939599 0
M  V30 3950 H 384.967 1.26847 -0.953699 0
M  V30 3951 H 384.988 3.80487 0.0316492 0
M  V30 3952 H 384.5 3.45898 -1.76001 0
M  V30 3953 H 382.601 3.66013 0.697532 0
M  V30 3954 H 382.714 4.71215 -0.865658 0
M  V30 3955 H 381.078 2.52075 -0.3647 0
M  V30 3956 H 381.861 2.77864 -2.0161 0
M  V30 3957 N 384.306 0.507319 1.49211 0
M  V30 3958 C 385.216 -0.272136 2.33016 0
M  V30 3959 C 386.232 -0.961206 1.45041 0
M  V30 3960 O 387.408 -0.941191 1.78055 0
M  V30 3961 C 384.473 -1.31895 3.20631 0
M  V30 3962 C 383.534 -0.642648 4.24463 0
M  V30 3963 C 382.767 -1.63959 5.07891 0
M  V30 3964 O 382.99 -2.87007 4.92933 0
M  V30 3965 O 381.924 -1.19143 5.8999 0
M  V30 3966 H 385.75 0.413982 3.00865 0
M  V30 3967 H 383.335 0.268556 1.46966 0
M  V30 3968 H 385.217 -1.92446 3.7489 0
M  V30 3969 H 383.892 -1.98788 2.5547 0
M  V30 3970 H 382.799 0.00276252 3.741 0
M  V30 3971 H 384.132 -0.0160534 4.92197 0
M  V30 3972 N 385.784 -1.5574 0.241426 0
M  V30 3973 C 386.747 -2.19877 -0.647063 0
M  V30 3974 C 387.747 -1.16642 -1.10686 0
M  V30 3975 O 388.937 -1.41757 -1.01245 0
M  V30 3976 C 386.069 -2.83797 -1.88871 0
M  V30 3977 H 387.262 -2.99772 -0.087574 0
M  V30 3978 H 384.815 -1.56298 -0.00813574 0
M  V30 3979 H 385.55 -2.07824 -2.48957 0
M  V30 3980 H 385.335 -3.59414 -1.56728 0
M  V30 3981 H 386.825 -3.32898 -2.52129 0
M  V30 3982 N 387.262 0.0317525 -1.57568 0
M  V30 3983 C 388.225 1.01783 -2.0536 0
M  V30 3984 C 389.225 1.29203 -0.957253 0
M  V30 3985 O 390.415 1.24251 -1.22095 0
M  V30 3986 C 387.547 2.35137 -2.46827 0
M  V30 3987 H 388.74 0.605062 -2.93733 0
M  V30 3988 H 386.293 0.278514 -1.53799 0
M  V30 3989 H 387.028 2.81168 -1.61602 0
M  V30 3990 H 386.813 2.16566 -3.26866 0
M  V30 3991 H 388.303 3.05938 -2.84239 0
M  V30 3992 N 388.74 1.54641 0.303973 0
M  V30 3993 C 389.98 1.75516 1.04755 0
M  V30 3994 C 390.344 0.528211 1.84591 0
M  V30 3995 O 391.545 0.614645 2.61678 0
M  V30 3996 C 389.816 3.00685 1.93193 0
M  V30 3997 S 391.375 3.42549 2.74237 0
M  V30 3998 H 388.193 0.616987 0.353339 0
M  V30 3999 H 390.795 1.92842 0.321292 0
M  V30 4000 H 389.499 3.8811 1.33411 0
M  V30 4001 H 389.03 2.85937 2.70191 0
M  V30 4002 H 391.045 2.99386 3.95705 0
M  V30 4003 N 390.218 -0.567019 1.47046 0
M  V30 4004 C 391.495 -1.3276 1.43646 0
M  V30 4005 C 391.875 -2.1071 0.128186 0
M  V30 4006 O 391.223 -2.10441 -0.890326 0
M  V30 4007 C 391.433 -2.2404 2.67595 0
M  V30 4008 C 392.781 -2.85372 3.14401 0
M  V30 4009 O 393.805 -2.34346 2.68254 0
M  V30 4010 O 392.664 -3.78091 3.946 0
M  V30 4011 H 389.758 -0.597293 0.571988 0
M  V30 4012 H 392.304 -0.586735 1.59234 0
M  V30 4013 H 391.076 -1.65975 3.54356 0
M  V30 4014 H 390.699 -3.05439 2.54544 0
M  V30 4015 N 391.696 -1.35014 -0.812953 0
M  V30 4016 C 392.945 -1.27269 -1.56479 0
M  V30 4017 C 393.258 0.152771 -1.95002 0
M  V30 4018 O 394.464 0.352451 -2.69203 0
M  V30 4019 C 392.92 -2.23159 -2.82362 0
M  V30 4020 C 392.528 -3.71016 -2.511 0
M  V30 4021 C 394.272 -2.24342 -3.60376 0
M  V30 4022 C 392.179 -4.58746 -3.73237 0
M  V30 4023 H 391.109 -0.472829 -0.587324 0
M  V30 4024 H 393.76 -1.6024 -0.894171 0
M  V30 4025 H 392.142 -1.83151 -3.51101 0
M  V30 4026 H 393.316 -4.1962 -1.90409 0
M  V30 4027 H 391.631 -3.72378 -1.86343 0
M  V30 4028 H 394.228 -2.87107 -4.51081 0
M  V30 4029 H 394.571 -1.24542 -3.97234 0
M  V30 4030 H 395.104 -2.62846 -2.98591 0
M  V30 4031 H 391.843 -5.59521 -3.41492 0
M  V30 4032 H 391.363 -4.14871 -4.33176 0
M  V30 4033 H 393.042 -4.73852 -4.40537 0
M  V30 4034 N 393.175 1.03435 -1.18907 0
M  V30 4035 C 394.122 2.11591 -0.921837 0
M  V30 4036 C 395.092 1.65499 0.141226 0
M  V30 4037 O 396.277 1.908 0.000242829 0
M  V30 4038 C 393.417 3.42012 -0.460616 0
M  V30 4039 C 392.53 4.01682 -1.58982 0
M  V30 4040 C 391.665 5.20091 -1.08069 0
M  V30 4041 C 390.704 5.71805 -2.18416 0
M  V30 4042 N 389.841 6.81494 -1.68849 0
M  V30 4043 H 394.681 2.33787 -1.8479 0
M  V30 4044 H 392.218 1.1467 -0.921373 0
M  V30 4045 H 394.176 4.16834 -0.174642 0
M  V30 4046 H 392.806 3.19944 0.428467 0
M  V30 4047 H 391.858 3.24127 -1.99113 0
M  V30 4048 H 393.17 4.36084 -2.4214 0
M  V30 4049 H 392.324 6.02051 -0.749615 0
M  V30 4050 H 391.063 4.87209 -0.218771 0
M  V30 4051 H 390.068 4.88461 -2.5236 0
M  V30 4052 H 391.293 6.06728 -3.05054 0
M  V30 4053 H 389.239 6.50475 -0.849572 0
M  V30 4054 H 389.156 7.14994 -2.45601 0
M  V30 4055 H 390.424 7.67063 -1.38689 0
M  V30 4056 N 394.653 0.992116 1.22453 0
M  V30 4057 C 395.616 0.546883 2.2258 0
M  V30 4058 C 396.616 -0.369829 1.56489 0
M  V30 4059 O 397.806 -0.161896 1.73446 0
M  V30 4060 C 394.938 -0.204659 3.40285 0
M  V30 4061 H 396.131 1.43234 2.63484 0
M  V30 4062 H 393.684 0.779239 1.3549 0
M  V30 4063 H 394.419 -1.10614 3.04853 0
M  V30 4064 H 394.204 0.45354 3.89468 0
M  V30 4065 H 395.694 -0.504358 4.14543 0
M  V30 4066 N 396.131 -1.37776 0.765217 0
M  V30 4067 C 397.094 -2.28686 0.153416 0
M  V30 4068 C 398.094 -1.47727 -0.635081 0
M  V30 4069 O 399.284 -1.68027 -0.459632 0
M  V30 4070 C 396.416 -3.31608 -0.790495 0
M  V30 4071 H 397.609 -2.84297 0.954723 0
M  V30 4072 H 395.162 -1.46932 0.53299 0
M  V30 4073 H 395.897 -2.81109 -1.61705 0
M  V30 4074 H 395.682 -3.9144 -0.227348 0
M  V30 4075 H 397.172 -3.99559 -1.21419 0
M  V30 4076 N 397.609 -0.515225 -1.4894 0
M  V30 4077 C 398.834 0.022727 -2.07388 0
M  V30 4078 C 399.259 1.2876 -1.37122 0
M  V30 4079 O 398.617 1.76067 -0.432431 0
M  V30 4080 C 398.665 0.244869 -3.59768 0
M  V30 4081 O 397.769 1.31667 -3.90817 0
M  V30 4082 H 397.11 -0.0325506 -0.663202 0
M  V30 4083 H 399.64 -0.718918 -1.91553 0
M  V30 4084 H 399.65 0.47205 -4.0526 0
M  V30 4085 H 398.325 -0.679194 -4.10317 0
M  V30 4086 H 396.902 1.07331 -3.5712 0
M  V30 4087 N 399.087 1.5561 -0.249682 0
M  V30 4088 C 400.05 2.20217 0.635394 0
M  V30 4089 C 401.05 1.17227 1.10066 0
M  V30 4090 O 402.24 1.42292 1.00492 0
M  V30 4091 C 399.372 2.84794 1.87363 0
M  V30 4092 H 400.565 2.99814 0.0716752 0
M  V30 4093 H 398.118 1.563 -0.000153234 0
M  V30 4094 H 398.853 2.09142 2.47851 0
M  V30 4095 H 398.638 3.60241 1.5482 0
M  V30 4096 H 400.128 3.3423 2.5036 0
M  V30 4097 N 400.565 -0.0233959 1.57583 0
M  V30 4098 C 401.475 -1.03907 2.10334 0
M  V30 4099 C 402.491 -1.39257 1.04323 0
M  V30 4100 O 403.667 -1.48462 1.36091 0
M  V30 4101 C 400.732 -2.31938 2.57693 0
M  V30 4102 C 399.793 -2.03117 3.78209 0
M  V30 4103 C 399.026 -3.25043 4.233 0
M  V30 4104 O 399.249 -4.35916 3.67876 0
M  V30 4105 O 398.183 -3.10411 5.15683 0
M  V30 4106 H 402.009 -0.620748 2.97288 0
M  V30 4107 H 399.594 -0.240743 1.47448 0
M  V30 4108 H 401.476 -3.07196 2.88458 0
M  V30 4109 H 400.151 -2.73055 1.73847 0
M  V30 4110 H 399.058 -1.25408 3.52454 0
M  V30 4111 H 400.391 -1.66852 4.63056 0
M  V30 4112 N 402.043 -1.548 -0.295768 0
M  V30 4113 C 403.459 -1.4613 -0.641722 0
M  V30 4114 C 403.659 -0.656771 -1.90496 0
M  V30 4115 O 402.715 -0.166547 -2.5195 0
M  V30 4116 C 404.028 -2.90141 -0.789852 0
M  V30 4117 C 405.576 -3.00216 -0.885396 0
M  V30 4118 C 406.051 -4.45434 -1.06548 0
M  V30 4119 N 407.542 -4.49166 -1.13156 0
M  V30 4120 C 408.277 -5.58717 -1.28929 0
M  V30 4121 N 407.773 -6.78182 -1.41567 0
M  V30 4122 N 409.566 -5.46415 -1.31859 0
M  V30 4123 H 401.717 -2.05574 0.534147 0
M  V30 4124 H 403.98 -0.931259 0.177372 0
M  V30 4125 H 403.686 -3.51635 0.0675598 0
M  V30 4126 H 403.56 -3.37859 -1.67724 0
M  V30 4127 H 405.947 -2.38833 -1.73329 0
M  V30 4128 H 406.028 -2.55787 0.0261185 0
M  V30 4129 H 405.672 -5.07413 -0.222335 0
M  V30 4130 H 405.602 -4.87499 -1.9913 0
M  V30 4131 H 408.093 -3.631 -1.04721 0
M  V30 4132 H 408.406 -7.57428 -1.53372 0
M  V30 4133 H 406.751 -6.81037 -1.38613 0
M  V30 4134 H 409.942 -4.5203 -1.21601 0
M  V30 4135 H 410.115 -6.31841 -1.43808 0
M  V30 4136 N 403.521 0.559213 -1.47345 0
M  V30 4137 C 404.746 1.34676 -1.57725 0
M  V30 4138 C 405.171 1.86723 -0.227164 0
M  V30 4139 O 404.529 1.6286 0.796642 0
M  V30 4140 C 404.577 2.49399 -2.60447 0
M  V30 4141 O 403.681 3.51567 -2.15578 0
M  V30 4142 H 403.022 0.400115 -0.52991 0
M  V30 4143 H 405.552 0.676009 -1.93109 0
M  V30 4144 H 405.562 2.95996 -2.80803 0
M  V30 4145 H 404.237 2.10873 -3.58477 0
M  V30 4146 H 402.814 3.11289 -2.05313 0
M  V30 4147 N 404.999 1.35443 0.805782 0
M  V30 4148 C 406.247 1.28507 1.55982 0
M  V30 4149 C 406.568 -0.140046 1.94496 0
M  V30 4150 O 405.838 -1.07666 1.63661 0
M  V30 4151 H 404.418 0.472676 0.578434 0
M  V30 4152 H 407.08 1.69555 0.961098 0
M  V30 4153 H 406.176 1.90148 2.47488 0
M  V30 4154 N 406.477 -1.02803 1.19454 0
M  V30 4155 C 407.754 -1.73299 0.907013 0
M  V30 4156 C 408.134 -2.02772 -0.587086 0
M  V30 4157 O 407.482 -1.68304 -1.54551 0
M  V30 4158 C 407.692 -3.00912 1.76785 0
M  V30 4159 C 409.04 -3.74403 2.00268 0
M  V30 4160 O 410.064 -3.10841 1.73943 0
M  V30 4161 O 408.923 -4.88675 2.4466 0
M  V30 4162 H 406.017 -0.754727 0.338106 0
M  V30 4163 H 408.563 -1.08754 1.30271 0
M  V30 4164 H 407.335 -2.75366 2.7801 0
M  V30 4165 H 406.958 -3.73197 1.37149 0
M  V30 4166 N 407.956 -0.998596 -1.21925 0
M  V30 4167 C 409.181 -0.696015 -1.95372 0
M  V30 4168 C 409.606 0.733826 -1.73195 0
M  V30 4169 O 408.964 1.50242 -1.01474 0
M  V30 4170 C 409.012 -1.01466 -3.4603 0
M  V30 4171 O 408.116 -0.116415 -4.12236 0
M  V30 4172 H 407.457 -0.259938 -0.611006 0
M  V30 4173 H 409.987 -1.33711 -1.54863 0
M  V30 4174 H 409.997 -0.958855 -3.96573 0
M  V30 4175 H 408.672 -2.05653 -3.61497 0
M  V30 4176 H 407.249 -0.228193 -3.72201 0
M  V30 4177 N 409.434 1.37368 -0.772513 0
M  V30 4178 C 410.85 1.53059 -0.452231 0
M  V30 4179 C 411.05 1.73065 1.03203 0
M  V30 4180 O 410.106 1.75245 1.81784 0
M  V30 4181 C 411.419 2.72659 -1.26797 0
M  V30 4182 C 412.967 2.86521 -1.25995 0
M  V30 4183 C 413.442 4.09105 -2.05905 0
M  V30 4184 N 414.933 4.16219 -2.03263 0
M  V30 4185 C 415.668 5.10107 -2.61875 0
M  V30 4186 N 415.164 6.09547 -3.29278 0
M  V30 4187 N 416.957 5.02596 -2.51701 0
M  V30 4188 H 409.108 1.22634 -1.7342 0
M  V30 4189 H 411.371 0.597206 -0.736239 0
M  V30 4190 H 411.077 2.64343 -2.31982 0
M  V30 4191 H 410.951 3.66363 -0.897672 0
M  V30 4192 H 413.338 2.94308 -0.216081 0
M  V30 4193 H 413.419 1.93774 -1.66989 0
M  V30 4194 H 413.063 4.0208 -3.10313 0
M  V30 4195 H 412.993 5.00968 -1.62292 0
M  V30 4196 H 415.484 3.45012 -1.54192 0
M  V30 4197 H 415.797 6.77718 -3.71374 0
M  V30 4198 H 414.142 6.09824 -3.33377 0
M  V30 4199 H 417.333 4.23855 -1.98657 0
M  V30 4200 H 417.506 5.75582 -2.97673 0
M  V30 4201 N 410.912 0.523116 1.48665 0
M  V30 4202 C 412.137 -0.0117284 2.07397 0
M  V30 4203 C 412.562 -1.28031 1.37803 0
M  V30 4204 O 411.92 -1.75836 0.441762 0
M  V30 4205 C 411.968 -0.225786 3.59892 0
M  V30 4206 O 411.072 -1.29592 3.91509 0
M  V30 4207 H 410.413 0.0360673 0.66302 0
M  V30 4208 H 412.943 0.729066 1.9117 0
M  V30 4209 H 412.953 -0.450552 4.05505 0
M  V30 4210 H 411.628 0.700944 4.09951 0
M  V30 4211 H 410.205 -1.05436 3.57684 0
M  V30 4212 N 412.39 -1.55475 0.257931 0
M  V30 4213 C 413.322 -2.19192 -0.669881 0
M  V30 4214 C 414.335 -1.17148 -1.1305 0
M  V30 4215 O 415.524 -1.43959 -1.05537 0
M  V30 4216 C 412.624 -2.79016 -1.92363 0
M  V30 4217 C 411.797 -4.06586 -1.61265 0
M  V30 4218 C 410.856 -4.50622 -2.7171 0
M  V30 4219 O 409.882 -5.16765 -2.38627 0
M  V30 4220 N 411.084 -4.19325 -4.01431 0
M  V30 4221 H 413.849 -2.99441 -0.124635 0
M  V30 4222 H 411.41 -1.6171 0.0783311 0
M  V30 4223 H 413.402 -3.05427 -2.65511 0
M  V30 4224 H 411.972 -2.0286 -2.37837 0
M  V30 4225 H 411.192 -3.87646 -0.715811 0
M  V30 4226 H 412.48 -4.89737 -1.37967 0
M  V30 4227 H 411.878 -3.66247 -4.31138 0
M  V30 4228 H 410.435 -4.50547 -4.7101 0
M  V30 4229 N 413.868 0.0150385 -1.57593 0
M  V30 4230 C 414.831 0.995996 -2.06428 0
M  V30 4231 C 415.831 1.2818 -0.970903 0
M  V30 4232 O 417.021 1.22949 -1.23406 0
M  V30 4233 C 414.153 2.32506 -2.49307 0
M  V30 4234 H 415.346 0.573873 -2.94358 0
M  V30 4235 H 412.899 0.262186 -1.54085 0
M  V30 4236 H 413.634 2.79438 -1.64575 0
M  V30 4237 H 413.419 2.13087 -3.29145 0
M  V30 4238 H 414.909 3.02906 -2.87468 0
M  V30 4239 N 415.346 1.54954 0.287554 0
M  V30 4240 C 416.309 1.86076 1.33823 0
M  V30 4241 C 417.309 0.734414 1.43049 0
M  V30 4242 O 418.499 1.00266 1.42452 0
M  V30 4243 C 415.631 2.05305 2.72144 0
M  V30 4244 H 416.824 2.79984 1.07465 0
M  V30 4245 H 414.377 1.47223 0.524902 0
M  V30 4246 H 415.112 1.1373 3.03704 0
M  V30 4247 H 414.897 2.873 2.66836 0
M  V30 4248 H 416.387 2.30706 3.48087 0
M  V30 4249 N 416.824 -0.551391 1.4764 0
M  V30 4250 C 418.052 -1.33357 1.58189 0
M  V30 4251 C 418.467 -1.87342 0.234199 0
M  V30 4252 O 417.824 -1.65301 -0.77343 0
M  V30 4253 C 417.875 -2.49942 2.61173 0
M  V30 4254 O 417.596 -1.98187 3.90709 0
M  V30 4255 C 419.097 -3.42072 2.8196 0
M  V30 4256 H 416.317 -0.40631 0.533998 0
M  V30 4257 H 418.861 -0.667367 1.93304 0
M  V30 4258 H 417.016 -3.12489 2.28975 0
M  V30 4259 H 417.43 -2.74342 4.47031 0
M  V30 4260 H 418.904 -4.20278 3.57869 0
M  V30 4261 H 419.381 -3.95978 1.89995 0
M  V30 4262 H 419.987 -2.85336 3.15378 0
M  V30 4263 N 418.302 -1.35869 -0.798587 0
M  V30 4264 C 419.713 -1.26498 -1.37314 0
M  V30 4265 C 420.064 0.0991899 -1.95949 0
M  V30 4266 O 419.189 1.0004 -1.91888 0
M  V30 4267 C 419.784 -2.29054 -2.49639 0
M  V30 4268 C 418.343 -2.234 -3.02935 0
M  V30 4269 C 417.49 -2.14329 -1.75949 0
M  V30 4270 H 420.441 -1.46881 -0.600971 0
M  V30 4271 H 420.462 -1.92166 -3.28409 0
M  V30 4272 H 419.974 -3.2833 -2.06933 0
M  V30 4273 H 418.075 -1.27562 -3.50084 0
M  V30 4274 H 418.188 -3.15703 -3.60372 0
M  V30 4275 H 416.552 -1.60435 -1.9782 0
M  V30 4276 H 417.335 -3.15477 -1.35384 0
M  V30 4277 N 419.78 1.02168 -1.19998 0
M  V30 4278 C 420.743 2.08765 -0.94604 0
M  V30 4279 C 421.743 1.60618 0.0763846 0
M  V30 4280 O 422.933 1.73472 -0.159135 0
M  V30 4281 C 420.065 3.38262 -0.423255 0
M  V30 4282 H 421.258 2.32726 -1.89153 0
M  V30 4283 H 418.811 1.1889 -1.01464 0
M  V30 4284 H 419.546 3.19974 0.527938 0
M  V30 4285 H 419.331 3.74532 -1.16053 0
M  V30 4286 H 420.821 4.16759 -0.264911 0
M  V30 4287 N 421.258 1.00505 1.21394 0
M  V30 4288 C 422.221 0.570459 2.21987 0
M  V30 4289 C 423.221 -0.353211 1.56873 0
M  V30 4290 O 424.411 -0.14349 1.73608 0
M  V30 4291 C 421.543 -0.168555 3.40483 0
M  V30 4292 H 422.736 1.46021 2.6195 0
M  V30 4293 H 420.289 0.793565 1.34656 0
M  V30 4294 H 421.024 -1.07374 3.06009 0
M  V30 4295 H 420.809 0.494823 3.88965 0
M  V30 4296 H 422.299 -0.460362 4.15055 0
M  V30 4297 N 422.737 -1.36956 0.779787 0
M  V30 4298 C 423.985 -1.99097 0.347079 0
M  V30 4299 C 424.306 -1.62206 -1.08232 0
M  V30 4300 O 423.576 -0.891373 -1.74446 0
M  V30 4301 H 422.156 -0.736409 0.125342 0
M  V30 4302 H 424.818 -1.67308 0.999696 0
M  V30 4303 H 423.914 -3.09107 0.431162 0
M  V30 4304 N 424.215 -0.530993 -1.48385 0
M  V30 4305 C 425.178 0.220497 -2.28137 0
M  V30 4306 C 426.178 0.866851 -1.35434 0
M  V30 4307 O 427.368 0.726746 -1.58316 0
M  V30 4308 C 424.5 1.31921 -3.1434 0
M  V30 4309 H 425.693 -0.479714 -2.96038 0
M  V30 4310 H 423.246 -0.286968 -1.53643 0
M  V30 4311 H 423.981 2.05264 -2.51072 0
M  V30 4312 H 423.766 0.86085 -3.82533 0
M  V30 4313 H 425.256 1.84776 -3.74497 0
M  V30 4314 N 425.693 1.55336 -0.266172 0
M  V30 4315 C 427.109 1.59356 0.0882065 0
M  V30 4316 C 427.309 1.2834 1.55342 0
M  V30 4317 O 426.365 1.03996 2.30089 0
M  V30 4318 C 427.678 2.99409 -0.278364 0
M  V30 4319 C 429.226 3.12196 -0.224243 0
M  V30 4320 C 429.701 4.545 -0.565123 0
M  V30 4321 N 431.192 4.60313 -0.51634 0
M  V30 4322 C 431.927 5.68434 -0.753013 0
M  V30 4323 N 431.423 6.84738 -1.05383 0
M  V30 4324 N 433.216 5.57942 -0.682414 0
M  V30 4325 H 425.367 1.73764 -1.22147 0
M  V30 4326 H 427.63 0.809822 -0.492841 0
M  V30 4327 H 427.336 3.2691 -1.29703 0
M  V30 4328 H 427.21 3.75228 0.385186 0
M  V30 4329 H 429.597 2.84464 0.78512 0
M  V30 4330 H 429.678 2.38609 -0.921922 0
M  V30 4331 H 429.322 4.82956 -1.57213 0
M  V30 4332 H 429.252 5.26374 0.154248 0
M  V30 4333 H 431.743 3.7676 -0.29335 0
M  V30 4334 H 432.056 7.63088 -1.22133 0
M  V30 4335 H 430.401 6.86375 -1.09151 0
M  V30 4336 H 433.592 4.65958 -0.44731 0
M  V30 4337 H 433.765 6.4213 -0.870248 0
M  V30 4338 N 427.171 -0.0066808 1.57599 0
M  V30 4339 C 428.417 -0.693947 1.90558 0
M  V30 4340 C 428.75 -1.73792 0.866594 0
M  V30 4341 O 428.025 -1.94156 -0.115548 0
M  V30 4342 C 428.308 -1.34317 3.34112 0
M  V30 4343 C 428.161 -0.311189 4.48722 0
M  V30 4344 C 429.48 -2.27116 3.7697 0
M  V30 4345 H 426.599 -0.250803 0.693013 0
M  V30 4346 H 429.241 0.043242 1.89951 0
M  V30 4347 H 427.391 -1.9715 3.3476 0
M  V30 4348 H 429.063 0.316944 4.6021 0
M  V30 4349 H 427.306 0.367253 4.32243 0
M  V30 4350 H 427.977 -0.804366 5.46108 0
M  V30 4351 H 430.453 -1.74306 3.77831 0
M  V30 4352 H 429.329 -2.69511 4.78179 0
M  V30 4353 H 429.59 -3.14743 3.10466 0
M  V30 4354 N 428.649 -1.55105 -0.279332 0
M  V30 4355 C 430.06 -1.66186 -0.850832 0
M  V30 4356 C 430.411 -0.584707 -1.87285 0
M  V30 4357 O 429.536 0.274919 -2.14647 0
M  V30 4358 C 430.131 -3.01264 -1.55001 0
M  V30 4359 C 428.69 -3.14394 -2.06963 0
M  V30 4360 C 427.837 -2.61959 -0.909536 0
M  V30 4361 H 430.788 -1.58602 -0.0558235 0
M  V30 4362 H 430.809 -2.93899 -2.41669 0
M  V30 4363 H 430.321 -3.7964 -0.805931 0
M  V30 4364 H 428.422 -2.4078 -2.84352 0
M  V30 4365 H 428.535 -4.20867 -2.28928 0
M  V30 4366 H 426.899 -2.18957 -1.30116 0
M  V30 4367 H 427.682 -3.42833 -0.179062 0
M  V30 4368 N 430.127 0.543554 -1.4793 0
M  V30 4369 C 431.352 1.32995 -1.59145 0
M  V30 4370 C 431.777 1.86472 -0.246956 0
M  V30 4371 O 431.135 1.63696 0.779324 0
M  V30 4372 C 431.183 2.46623 -2.63077 0
M  V30 4373 O 430.287 3.49261 -2.19295 0
M  V30 4374 H 429.628 0.394472 -0.534124 0
M  V30 4375 H 432.158 0.655489 -1.93816 0
M  V30 4376 H 432.168 2.93001 -2.83926 0
M  V30 4377 H 430.843 2.07059 -3.60693 0
M  V30 4378 H 429.42 3.09094 -2.08603 0
M  V30 4379 N 431.605 1.3629 0.791371 0
M  V30 4380 C 432.83 1.33726 1.58531 0
M  V30 4381 C 433.255 -0.0794933 1.87932 0
M  V30 4382 O 432.613 -1.05087 1.47738 0
M  V30 4383 C 432.661 2.16425 2.88431 0
M  V30 4384 O 431.765 1.5554 3.81944 0
M  V30 4385 H 431.106 0.457793 0.480959 0
M  V30 4386 H 433.636 1.79547 0.981031 0
M  V30 4387 H 433.646 2.28933 3.37718 0
M  V30 4388 H 432.321 3.19415 2.66359 0
M  V30 4389 H 430.898 1.51961 3.40532 0
M  V30 4390 N 433.083 -1.0153 1.20538 0
M  V30 4391 C 434.308 -1.79283 1.04271 0
M  V30 4392 C 434.733 -1.8372 -0.403544 0
M  V30 4393 O 434.091 -1.27321 -1.2907 0
M  V30 4394 C 434.139 -3.21535 1.63241 0
M  V30 4395 O 433.243 -4.03099 0.870908 0
M  V30 4396 H 432.584 -0.55293 0.367647 0
M  V30 4397 H 435.114 -1.27696 1.59859 0
M  V30 4398 H 435.124 -3.72243 1.6703 0
M  V30 4399 H 433.799 -3.1762 2.68497 0
M  V30 4400 H 432.376 -3.61693 0.907323 0
M  V30 4401 N 434.561 -1.01147 -1.20859 0
M  V30 4402 C 435.972 -0.730205 -1.71828 0
M  V30 4403 C 436.323 0.751662 -1.8123 0
M  V30 4404 O 435.448 1.58686 -1.47132 0
M  V30 4405 C 436.043 -1.31885 -3.12077 0
M  V30 4406 C 434.602 -1.08656 -3.60376 0
M  V30 4407 C 433.749 -1.42769 -2.37723 0
M  V30 4408 H 436.7 -1.18158 -1.05945 0
M  V30 4409 H 436.721 -0.706793 -3.73878 0
M  V30 4410 H 436.233 -2.39737 -3.05201 0
M  V30 4411 H 434.334 -0.0254814 -3.72591 0
M  V30 4412 H 434.447 -1.76301 -4.45483 0
M  V30 4413 H 432.811 -0.846603 -2.40218 0
M  V30 4414 H 433.594 -2.51666 -2.33493 0
M  V30 4415 N 436.039 1.36541 -0.78704 0
M  V30 4416 C 437.264 2.0409 -0.369053 0
M  V30 4417 C 437.689 1.58957 1.00569 0
M  V30 4418 O 437.047 0.756926 1.64743 0
M  V30 4419 C 437.095 3.57924 -0.438466 0
M  V30 4420 O 436.199 4.08642 0.555479 0
M  V30 4421 H 435.54 0.645142 -0.157122 0
M  V30 4422 H 438.07 1.74545 -1.06749 0
M  V30 4423 H 438.08 4.06887 -0.301218 0
M  V30 4424 H 436.755 3.90127 -1.44132 0
M  V30 4425 H 435.332 3.70958 0.380088 0
M  V30 4426 N 437.518 0.538854 1.48102 0
M  V30 4427 C 438.929 0.100679 1.86428 0
M  V30 4428 C 439.28 -1.32447 1.44749 0
M  V30 4429 O 438.405 -1.99339 0.842199 0
M  V30 4430 C 439 0.175933 3.38343 0
M  V30 4431 C 437.559 -0.207098 3.7583 0
M  V30 4432 C 436.706 0.531741 2.72154 0
M  V30 4433 H 439.657 0.749614 1.3988 0
M  V30 4434 H 439.678 -0.610144 3.75576 0
M  V30 4435 H 439.19 1.21328 3.68648 0
M  V30 4436 H 437.291 -1.24626 3.5114 0
M  V30 4437 H 437.404 0.138687 4.78899 0
M  V30 4438 H 435.768 -0.0230462 2.5469 0
M  V30 4439 H 436.551 1.56989 3.05302 0
M  V30 4440 N 438.996 -1.55193 0.274407 0
M  V30 4441 C 440.407 -1.85358 -0.223488 0
M  V30 4442 C 440.758 -1.19642 -1.555 0
M  V30 4443 O 439.883 -0.484498 -2.10907 0
M  V30 4444 C 440.478 -3.36282 -0.412285 0
M  V30 4445 C 439.037 -3.66574 -0.854413 0
M  V30 4446 C 438.184 -2.7725 0.0527056 0
M  V30 4447 H 441.135 -1.50743 0.496215 0
M  V30 4448 H 441.156 -3.59349 -1.25094 0
M  V30 4449 H 440.668 -3.84083 0.556965 0
M  V30 4450 H 438.769 -3.24273 -1.83516 0
M  V30 4451 H 438.882 -4.74073 -0.692226 0
M  V30 4452 H 437.246 -2.50447 -0.463484 0
M  V30 4453 H 438.029 -3.27865 1.01783 0
M  V30 4454 N 440.474 -0.00167713 -1.576 0
M  V30 4455 C 441.72 0.683832 -1.90923 0
M  V30 4456 C 442.053 1.7333 -0.875799 0
M  V30 4457 O 441.328 1.94215 0.10525 0
M  V30 4458 C 441.611 1.32543 -3.3482 0
M  V30 4459 C 441.464 0.287387 -4.48881 0
M  V30 4460 C 442.783 2.25114 -3.78169 0
M  V30 4461 H 439.902 0.247125 -0.694333 0
M  V30 4462 H 442.544 -0.0533149 -1.89925 0
M  V30 4463 H 440.694 1.95372 -3.35801 0
M  V30 4464 H 442.366 -0.341346 -4.60035 0
M  V30 4465 H 440.609 -0.39017 -4.32042 0
M  V30 4466 H 441.28 0.775393 -5.46527 0
M  V30 4467 H 443.756 1.723 -3.7875 0
M  V30 4468 H 442.632 2.66971 -4.79602 0
M  V30 4469 H 442.893 3.13092 -3.12131 0
M  V30 4470 N 441.952 1.55251 0.271103 0
M  V30 4471 C 442.862 1.9136 1.35714 0
M  V30 4472 C 443.878 0.811075 1.5394 0
M  V30 4473 O 445.054 1.11031 1.6803 0
M  V30 4474 C 442.119 2.1798 2.69603 0
M  V30 4475 C 441.18 3.4153 2.60107 0
M  V30 4476 C 440.413 3.66871 3.8761 0
M  V30 4477 O 440.636 2.94689 4.8838 0
M  V30 4478 O 439.57 4.60405 3.87699 0
M  V30 4479 H 443.396 2.83815 1.08088 0
M  V30 4480 H 440.981 1.41821 0.469792 0
M  V30 4481 H 442.863 2.36518 3.48765 0
M  V30 4482 H 441.538 1.28708 2.97012 0
M  V30 4483 H 440.445 3.28325 1.79314 0
M  V30 4484 H 441.778 4.31027 2.37647 0
M  V30 4485 N 443.43 -0.535701 1.48216 0
M  V30 4486 C 444.841 -1.11769 1.49548 0
M  V30 4487 C 445.192 -1.94442 0.26207 0
M  V30 4488 O 444.317 -2.06987 -0.631287 0
M  V30 4489 C 444.912 -2.03367 2.70975 0
M  V30 4490 C 443.471 -2.56795 2.75196 0
M  V30 4491 C 442.618 -1.33631 2.42977 0
M  V30 4492 H 445.569 -0.321232 1.55415 0
M  V30 4493 H 445.59 -2.87569 2.49167 0
M  V30 4494 H 445.102 -1.43169 3.60727 0
M  V30 4495 H 443.203 -3.20731 1.89638 0
M  V30 4496 H 443.316 -2.9632 3.76472 0
M  V30 4497 H 441.68 -1.6502 1.94012 0
M  V30 4498 H 442.463 -0.75194 3.34964 0
M  V30 4499 N 444.908 -1.36708 -0.784132 0
M  V30 4500 C 446.319 -1.27947 -1.35965 0
M  V30 4501 C 446.67 0.0784013 -1.96043 0
M  V30 4502 O 445.795 0.979989 -1.92938 0
M  V30 4503 C 446.39 -2.31689 -2.47195 0
M  V30 4504 C 444.949 -2.26601 -3.00548 0
M  V30 4505 C 444.096 -2.16184 -1.73666 0
M  V30 4506 H 447.047 -1.4751 -0.585358 0
M  V30 4507 H 447.068 -1.95638 -3.26352 0
M  V30 4508 H 446.58 -3.30506 -2.03439 0
M  V30 4509 H 444.681 -1.31268 -3.48711 0
M  V30 4510 H 444.794 -3.19508 -3.57004 0
M  V30 4511 H 443.158 -1.62524 -1.96107 0
M  V30 4512 H 443.941 -3.16896 -1.32031 0
M  V30 4513 N 446.386 1.0089 -1.21074 0
M  V30 4514 C 447.611 1.78727 -1.05221 0
M  V30 4515 C 448.036 1.83932 0.393795 0
M  V30 4516 O 447.394 1.28004 1.28393 0
M  V30 4517 C 447.442 3.20665 -1.64944 0
M  V30 4518 O 446.546 4.02632 -0.892273 0
M  V30 4519 H 445.887 0.550973 -0.370574 0
M  V30 4520 H 448.417 1.26847 -1.60534 0
M  V30 4521 H 448.427 3.71352 -1.69002 0
M  V30 4522 H 447.102 3.16191 -2.70177 0
M  V30 4523 H 445.679 3.61207 -0.926492 0
M  V30 4524 N 447.864 1.01787 1.20321 0
M  V30 4525 C 449.275 0.739307 1.71438 0
M  V30 4526 C 449.626 -0.742041 1.81627 0
M  V30 4527 O 448.751 -1.57903 1.47971 0
M  V30 4528 C 449.346 1.33538 3.11373 0
M  V30 4529 C 447.905 1.10566 3.59795 0
M  V30 4530 C 447.052 1.44028 2.36962 0
M  V30 4531 H 450.003 1.18718 1.05317 0
M  V30 4532 H 450.024 0.726611 3.73498 0
M  V30 4533 H 449.536 2.41352 3.03926 0
M  V30 4534 H 447.637 0.0452405 3.72573 0
M  V30 4535 H 447.75 1.78661 4.44542 0
M  V30 4536 H 446.114 0.85933 2.39766 0
M  V30 4537 H 446.897 2.52901 2.32155 0
M  V30 4538 N 449.342 -1.36122 0.79427 0
M  V30 4539 C 450.588 -1.99406 0.369452 0
M  V30 4540 C 450.921 -1.62886 -1.05743 0
M  V30 4541 O 450.196 -0.886053 -1.73145 0
M  V30 4542 C 450.479 -3.56046 0.538833 0
M  V30 4543 C 450.332 -4.02404 2.00976 0
M  V30 4544 C 451.651 -4.40079 -0.0431359 0
M  V30 4545 H 448.77 -0.724397 0.135712 0
M  V30 4546 H 451.412 -1.61461 1.00151 0
M  V30 4547 H 449.562 -3.885 0.000771004 0
M  V30 4548 H 451.234 -3.80415 2.60926 0
M  V30 4549 H 449.477 -3.53765 2.51063 0
M  V30 4550 H 450.148 -5.11344 2.07922 0
M  V30 4551 H 452.624 -4.14013 0.416228 0
M  V30 4552 H 451.5 -5.48799 0.105374 0
M  V30 4553 H 451.761 -4.27264 -1.13571 0
M  V30 4554 N 450.82 -0.546701 -1.47814 0
M  V30 4555 C 451.752 0.244196 -2.27895 0
M  V30 4556 C 452.765 0.88911 -1.36377 0
M  V30 4557 O 453.954 0.764733 -1.61289 0
M  V30 4558 C 451.054 1.36252 -3.10304 0
M  V30 4559 C 450.227 0.816382 -4.29714 0
M  V30 4560 C 449.286 1.81789 -4.93801 0
M  V30 4561 O 448.312 1.36818 -5.52512 0
M  V30 4562 N 449.514 3.15085 -4.87547 0
M  V30 4563 H 452.279 -0.442694 -2.96412 0
M  V30 4564 H 449.84 -0.382095 -1.57327 0
M  V30 4565 H 451.832 2.03102 -3.50045 0
M  V30 4566 H 450.402 1.95281 -2.44099 0
M  V30 4567 H 449.622 -0.0285981 -3.9419 0
M  V30 4568 H 450.91 0.430668 -5.06974 0
M  V30 4569 H 450.308 3.54275 -4.41028 0
M  V30 4570 H 448.865 3.77522 -5.31339 0
M  V30 4571 N 452.299 1.55045 -0.282633 0
M  V30 4572 C 453.71 1.85473 0.213655 0
M  V30 4573 C 454.061 1.20465 1.54863 0
M  V30 4574 O 453.186 0.495676 2.10647 0
M  V30 4575 C 453.781 3.36496 0.394445 0
M  V30 4576 C 452.34 3.67022 0.834961 0
M  V30 4577 C 451.487 2.77218 -0.0674081 0
M  V30 4578 H 454.438 1.50478 -0.504202 0
M  V30 4579 H 454.459 3.60007 1.23186 0
M  V30 4580 H 453.971 3.83782 -0.577326 0
M  V30 4581 H 452.072 3.25241 1.81794 0
M  V30 4582 H 452.185 4.74433 0.667075 0
M  V30 4583 H 450.549 2.5069 0.450196 0
M  V30 4584 H 451.332 3.2732 -1.0352 0
M  V30 4585 N 453.777 0.010035 1.57597 0
M  V30 4586 C 455.188 -0.531426 1.78977 0
M  V30 4587 C 455.539 -1.73375 0.918454 0
M  V30 4588 O 454.664 -2.16047 0.123635 0
M  V30 4589 C 455.259 -0.97086 3.24592 0
M  V30 4590 C 453.818 -1.45756 3.47033 0
M  V30 4591 C 452.965 -0.413384 2.74201 0
M  V30 4592 H 455.916 0.236166 1.56933 0
M  V30 4593 H 455.937 -1.83633 3.33255 0
M  V30 4594 H 455.449 -0.0955893 3.87982 0
M  V30 4595 H 453.55 -2.35339 2.88871 0
M  V30 4596 H 453.663 -1.4781 4.55729 0
M  V30 4597 H 452.027 -0.877266 2.39115 0
M  V30 4598 H 452.81 0.453092 3.40297 0
M  V30 4599 N 455.255 -1.55392 -0.262866 0
M  V30 4600 C 456.218 -1.88181 -1.30846 0
M  V30 4601 C 457.218 -0.757079 -1.41862 0
M  V30 4602 O 458.408 -1.02519 -1.40838 0
M  V30 4603 C 455.54 -2.09609 -2.68844 0
M  V30 4604 H 456.733 -2.81659 -1.02997 0
M  V30 4605 H 454.286 -1.48039 -0.501414 0
M  V30 4606 H 455.021 -1.18547 -3.01856 0
M  V30 4607 H 454.806 -2.91508 -2.62231 0
M  V30 4608 H 456.296 -2.36215 -3.44372 0
M  V30 4609 N 456.733 0.527833 -1.48498 0
M  V30 4610 C 457.663 1.64136 -1.66077 0
M  V30 4611 C 458.644 1.62286 -0.509625 0
M  V30 4612 O 459.829 1.79449 -0.742413 0
M  V30 4613 C 456.959 3.02717 -1.70234 0
M  V30 4614 C 455.913 3.19426 -2.8487 0
M  V30 4615 C 455.239 4.5909 -2.74118 0
M  V30 4616 C 456.539 3.01993 -4.26142 0
M  V30 4617 H 458.233 1.4968 -2.593 0
M  V30 4618 H 455.779 0.718654 -1.24785 0
M  V30 4619 H 457.732 3.80491 -1.8112 0
M  V30 4620 H 456.456 3.18201 -0.735911 0
M  V30 4621 H 455.115 2.4407 -2.73542 0
M  V30 4622 H 454.763 4.71413 -1.7544 0
M  V30 4623 H 454.463 4.71214 -3.51042 0
M  V30 4624 H 455.987 5.3896 -2.86974 0
M  V30 4625 H 457.401 3.69558 -4.38292 0
M  V30 4626 H 455.798 3.2561 -5.04082 0
M  V30 4627 H 456.868 1.98396 -4.42456 0
M  V30 4628 N 458.211 1.37122 0.776871 0
M  V30 4629 C 459.622 1.28667 1.35284 0
M  V30 4630 C 459.973 -0.0680035 1.96082 0
M  V30 4631 O 459.098 -0.969743 1.93455 0
M  V30 4632 C 459.693 2.32997 2.45963 0
M  V30 4633 C 458.252 2.28191 2.99342 0
M  V30 4634 C 457.399 2.17101 1.72517 0
M  V30 4635 H 460.35 1.47819 0.577527 0
M  V30 4636 H 460.371 1.97366 3.2531 0
M  V30 4637 H 459.883 3.3158 2.01684 0
M  V30 4638 H 457.984 1.33115 3.4801 0
M  V30 4639 H 458.097 3.21397 3.55304 0
M  V30 4640 H 456.461 1.63562 1.95242 0
M  V30 4641 H 457.244 3.17591 1.30348 0
M  V30 4642 N 459.689 -1.00246 1.21608 0
M  V30 4643 C 460.652 -2.07233 0.979133 0
M  V30 4644 C 461.652 -1.6072 -0.0508219 0
M  V30 4645 O 462.842 -1.73196 0.186712 0
M  V30 4646 C 459.974 -3.37546 0.477016 0
M  V30 4647 H 461.167 -2.29687 1.92831 0
M  V30 4648 H 458.72 -1.17261 1.03342 0
M  V30 4649 H 459.455 -3.20773 -0.476966 0
M  V30 4650 H 459.24 -3.72638 1.21997 0
M  V30 4651 H 460.73 -4.16285 0.331181 0
M  V30 4652 N 461.167 -1.02423 -1.1978 0
M  V30 4653 C 462.392 -0.7373 -1.93852 0
M  V30 4654 C 462.817 0.696923 -1.74713 0
M  V30 4655 O 462.175 1.48056 -1.04638 0
M  V30 4656 C 462.223 -1.08783 -3.438 0
M  V30 4657 O 461.327 -0.20383 -4.11896 0
M  V30 4658 H 460.668 -0.27284 -0.605355 0
M  V30 4659 H 463.198 -1.36966 -1.51992 0
M  V30 4660 H 463.208 -1.04276 -3.9445 0
M  V30 4661 H 461.883 -2.13274 -3.57053 0
M  V30 4662 H 460.46 -0.307091 -3.71633 0
M  V30 4663 N 462.645 1.35699 -0.801477 0
M  V30 4664 C 464.056 1.81415 -0.441073 0
M  V30 4665 C 464.407 1.66595 1.03636 0
M  V30 4666 O 463.532 1.19369 1.80499 0
M  V30 4667 C 464.127 3.29369 -0.793819 0
M  V30 4668 C 462.686 3.73248 -0.486083 0
M  V30 4669 C 461.833 2.57775 -1.02213 0
M  V30 4670 H 464.784 1.23749 -0.993572 0
M  V30 4671 H 464.805 3.80395 -0.0894158 0
M  V30 4672 H 464.317 3.40123 -1.86917 0
M  V30 4673 H 462.418 3.68046 0.580735 0
M  V30 4674 H 462.531 4.68222 -1.01513 0
M  V30 4675 H 460.895 2.50788 -0.444712 0
M  V30 4676 H 461.678 2.71309 -2.10348 0
M  V30 4677 N 464.123 0.554532 1.47522 0
M  V30 4678 C 465.348 0.0322661 2.07375 0
M  V30 4679 C 465.773 -1.25079 1.40488 0
M  V30 4680 O 465.131 -1.74859 0.47896 0
M  V30 4681 C 465.179 -0.149397 3.6029 0
M  V30 4682 O 464.283 -1.21259 3.9417 0
M  V30 4683 H 463.624 0.0501228 0.662106 0
M  V30 4684 H 466.154 0.769452 1.8958 0
M  V30 4685 H 466.164 -0.364437 4.06369 0
M  V30 4686 H 464.839 0.787743 4.08372 0
M  V30 4687 H 463.416 -0.97825 3.5984 0
M  V30 4688 N 465.601 -1.54893 0.290851 0
M  V30 4689 C 466.847 -2.0023 -0.321867 0
M  V30 4690 C 467.18 -1.179 -1.54316 0
M  V30 4691 O 466.455 -0.25293 -1.92848 0
M  V30 4692 C 466.738 -3.53456 -0.688515 0
M  V30 4693 C 466.591 -4.46532 0.541209 0
M  V30 4694 C 467.91 -4.13057 -1.51895 0
M  V30 4695 H 465.029 -0.727891 -0.115515 0
M  V30 4696 H 467.671 -1.85722 0.400931 0
M  V30 4697 H 465.821 -3.6595 -1.30433 0
M  V30 4698 H 467.493 -4.4596 1.17973 0
M  V30 4699 H 465.736 -4.17545 1.17636 0
M  V30 4700 H 466.407 -5.51475 0.240675 0
M  V30 4701 H 468.883 -4.03937 -0.99872 0
M  V30 4702 H 467.759 -5.20448 -1.74429 0
M  V30 4703 H 468.02 -3.64284 -2.50498 0
M  V30 4704 N 467.08 -0.0183926 -1.57589 0
M  V30 4705 C 468.01 0.965596 -2.12599 0
M  V30 4706 C 468.991 1.34641 -1.0395 0
M  V30 4707 O 470.176 1.42693 -1.31729 0
M  V30 4708 C 467.306 2.25149 -2.64434 0
M  V30 4709 C 466.26 2.01175 -3.77773 0
M  V30 4710 C 465.586 3.35937 -4.15994 0
M  V30 4711 C 466.886 1.35953 -5.04296 0
M  V30 4712 H 468.58 0.507504 -2.95067 0
M  V30 4713 H 466.126 0.242671 -1.41941 0
M  V30 4714 H 468.079 2.94357 -3.01549 0
M  V30 4715 H 466.803 2.73105 -1.79112 0
M  V30 4716 H 465.462 1.34388 -3.4108 0
M  V30 4717 H 465.11 3.81631 -3.27669 0
M  V30 4718 H 464.81 3.20705 -4.92364 0
M  V30 4719 H 466.334 4.0643 -4.55683 0
M  V30 4720 H 467.748 1.95144 -5.39065 0
M  V30 4721 H 466.145 1.31152 -5.85593 0
M  V30 4722 H 467.215 0.331071 -4.83768 0
M  V30 4723 N 468.558 1.5553 0.254621 0
M  V30 4724 C 469.969 1.67518 0.824286 0
M  V30 4725 C 470.32 0.614429 1.86331 0
M  V30 4726 O 469.445 -0.240736 2.15057 0
M  V30 4727 C 470.04 3.03692 1.50189 0
M  V30 4728 C 468.599 3.17646 2.01935 0
M  V30 4729 C 467.746 2.63373 0.867746 0
M  V30 4730 H 470.697 1.58671 0.0305843 0
M  V30 4731 H 470.718 2.97706 2.36962 0
M  V30 4732 H 470.23 3.80874 0.745431 0
M  V30 4733 H 468.331 2.45273 2.80485 0
M  V30 4734 H 468.444 4.24455 2.22204 0
M  V30 4735 H 466.808 2.20999 1.26616 0
M  V30 4736 H 467.591 3.43074 0.124498 0
M  V30 4737 N 470.036 -0.519951 1.48776 0
M  V30 4738 C 470.999 -1.60574 1.6355 0
M  V30 4739 C 471.999 -1.52557 0.508234 0
M  V30 4740 O 473.189 -1.56047 0.774262 0
M  V30 4741 C 470.321 -3.00211 1.61512 0
M  V30 4742 H 471.514 -1.4881 2.60376 0
M  V30 4743 H 469.067 -0.742772 1.37523 0
M  V30 4744 H 469.802 -3.17471 0.662009 0
M  V30 4745 H 469.587 -3.07439 2.43359 0
M  V30 4746 H 471.077 -3.79134 1.75064 0
M  V30 4747 N 471.514 -1.37532 -0.769588 0
M  V30 4748 C 472.424 -1.35668 -1.91393 0
M  V30 4749 C 473.44 -0.255954 -1.72107 0
M  V30 4750 O 474.616 -0.491704 -1.95305 0
M  V30 4751 C 471.681 -1.16481 -3.26547 0
M  V30 4752 C 470.742 -2.36212 -3.58472 0
M  V30 4753 C 469.975 -2.17932 -4.87177 0
M  V30 4754 O 470.198 -1.1647 -5.58382 0
M  V30 4755 O 469.132 -3.06167 -5.18214 0
M  V30 4756 H 472.958 -2.32055 -1.95918 0
M  V30 4757 H 470.543 -1.18284 -0.912641 0
M  V30 4758 H 472.425 -1.07778 -4.07384 0
M  V30 4759 H 471.1 -0.231687 -3.2287 0
M  V30 4760 H 470.007 -2.50488 -2.77861 0
M  V30 4761 H 471.34 -3.281 -3.66894 0
M  V30 4762 N 472.992 0.995999 -1.22138 0
M  V30 4763 C 474.217 1.77601 -1.0711 0
M  V30 4764 C 474.642 1.84339 0.374264 0
M  V30 4765 O 474 1.29359 1.27028 0
M  V30 4766 C 474.048 3.18897 -1.68336 0
M  V30 4767 O 473.152 4.01663 -0.934928 0
M  V30 4768 H 472.493 0.547011 -0.376397 0
M  V30 4769 H 475.023 1.25137 -1.6187 0
M  V30 4770 H 475.033 3.69539 -1.72931 0
M  V30 4771 H 473.708 3.13308 -2.73516 0
M  V30 4772 H 472.285 3.60204 -0.964751 0
M  V30 4773 N 474.47 1.03057 1.19235 0
M  V30 4774 C 475.881 0.757449 1.70645 0
M  V30 4775 C 476.232 -0.722735 1.82403 0
M  V30 4776 O 475.357 -1.56325 1.49638 0
M  V30 4777 C 475.952 1.36833 3.09939 0
M  V30 4778 C 474.511 1.14375 3.58602 0
M  V30 4779 C 473.658 1.46533 2.35422 0
M  V30 4780 H 476.609 1.19828 1.04052 0
M  V30 4781 H 476.63 0.766184 3.72706 0
M  V30 4782 H 476.142 2.44562 3.01349 0
M  V30 4783 H 474.243 0.0847542 3.72504 0
M  V30 4784 H 474.356 1.83366 4.42622 0
M  V30 4785 H 472.72 0.884712 2.38841 0
M  V30 4786 H 473.503 2.55349 2.2946 0
M  V30 4787 N 475.948 -1.35272 0.808662 0
M  V30 4788 C 477.359 -1.81179 0.450688 0
M  V30 4789 C 477.71 -1.67143 -1.02751 0
M  V30 4790 O 476.835 -1.20325 -1.79864 0
M  V30 4791 C 477.43 -3.28943 0.811275 0
M  V30 4792 C 475.989 -3.72985 0.505871 0
M  V30 4793 C 475.136 -2.57229 1.03578 0
M  V30 4794 H 478.087 -1.2322 1.00012 0
M  V30 4795 H 478.108 -3.80342 0.109588 0
M  V30 4796 H 477.62 -3.39127 1.88718 0
M  V30 4797 H 475.721 -3.68349 -0.561209 0
M  V30 4798 H 475.834 -4.67677 1.03995 0
M  V30 4799 H 474.198 -2.50548 0.458005 0
M  V30 4800 H 474.981 -2.7019 2.11784 0
M  V30 4801 N 477.426 -0.562348 -1.47226 0
M  V30 4802 C 478.651 -0.0432632 -2.07355 0
M  V30 4803 C 479.076 1.24332 -1.41149 0
M  V30 4804 O 478.434 1.74603 -0.488226 0
M  V30 4805 C 478.482 0.130288 -3.60365 0
M  V30 4806 O 477.586 1.19166 -3.94808 0
M  V30 4807 H 476.927 -0.0536334 -0.66183 0
M  V30 4808 H 479.457 -0.779495 -1.89169 0
M  V30 4809 H 479.467 0.342881 -4.06557 0
M  V30 4810 H 478.142 -0.809389 -4.07948 0
M  V30 4811 H 476.719 0.959153 -3.60354 0
M  V30 4812 N 478.904 1.54736 -0.299062 0
M  V30 4813 C 479.834 2.26409 0.571085 0
M  V30 4814 C 480.815 1.2629 1.13951 0
M  V30 4815 O 482 1.55059 1.16921 0
M  V30 4816 C 479.13 3.00338 1.74396 0
M  V30 4817 C 478.084 4.07588 1.30599 0
M  V30 4818 C 477.41 4.69222 2.56387 0
M  V30 4819 C 478.71 5.20455 0.438645 0
M  V30 4820 H 480.404 2.99388 -0.0266991 0
M  V30 4821 H 477.95 1.43993 -0.0142812 0
M  V30 4822 H 479.903 3.49198 2.35878 0
M  V30 4823 H 478.627 2.24934 2.36796 0
M  V30 4824 H 477.286 3.59575 0.71424 0
M  V30 4825 H 476.934 3.9046 3.17097 0
M  V30 4826 H 476.634 5.41653 2.27784 0
M  V30 4827 H 478.158 5.20844 3.18675 0
M  V30 4828 H 479.572 5.65221 0.959085 0
M  V30 4829 H 477.969 5.99594 0.246466 0
M  V30 4830 H 479.039 4.8192 -0.536738 0
M  V30 4831 N 480.382 0.0267497 1.57577 0
M  V30 4832 C 481.607 -0.666227 1.96408 0
M  V30 4833 C 482.032 -1.65004 0.903071 0
M  V30 4834 O 481.39 -1.80787 -0.136263 0
M  V30 4835 C 481.438 -1.35101 3.34335 0
M  V30 4836 O 480.542 -2.46623 3.30531 0
M  V30 4837 H 479.883 -0.175206 0.640468 0
M  V30 4838 H 482.413 0.0878977 2.04411 0
M  V30 4839 H 482.423 -1.70834 3.70513 0
M  V30 4840 H 481.098 -0.629844 4.11103 0
M  V30 4841 H 479.675 -2.13019 3.06068 0
M  V30 4842 N 481.861 -1.55662 -0.24637 0
M  V30 4843 C 483.272 -1.67953 -0.81539 0
M  V30 4844 C 483.623 -0.624302 -1.86002 0
M  V30 4845 O 482.748 0.229328 -2.15181 0
M  V30 4846 C 483.343 -3.04484 -1.48576 0
M  V30 4847 C 481.902 -3.18713 -2.00248 0
M  V30 4848 C 481.049 -2.6383 -0.853766 0
M  V30 4849 H 484 -1.58685 -0.0221692 0
M  V30 4850 H 484.021 -2.98959 -2.3538 0
M  V30 4851 H 483.533 -3.81264 -0.725222 0
M  V30 4852 H 481.634 -2.46757 -2.79181 0
M  V30 4853 H 481.747 -4.25628 -2.1995 0
M  V30 4854 H 480.111 -2.21667 -1.25442 0
M  V30 4855 H 480.894 -3.43135 -0.106302 0
M  V30 4856 N 483.339 0.512053 -1.4905 0
M  V30 4857 C 484.564 1.2959 -1.6193 0
M  V30 4858 C 484.989 1.85906 -0.286454 0
M  V30 4859 O 484.347 1.65312 0.744426 0
M  V30 4860 C 484.395 2.40987 -2.68249 0
M  V30 4861 O 483.499 3.44531 -2.26654 0
M  V30 4862 H 482.84 0.383053 -0.542371 0
M  V30 4863 H 485.37 0.614231 -1.95162 0
M  V30 4864 H 485.38 2.86913 -2.90078 0
M  V30 4865 H 484.055 1.99361 -3.65004 0
M  V30 4866 H 482.632 3.046 -2.15112 0
M  V30 4867 N 484.817 1.37938 0.762283 0
M  V30 4868 C 485.727 1.36681 1.90671 0
M  V30 4869 C 486.743 0.265078 1.71969 0
M  V30 4870 O 487.919 0.502055 1.95042 0
M  V30 4871 C 484.984 1.18211 3.25925 0
M  V30 4872 C 484.045 2.3811 3.57214 0
M  V30 4873 C 483.278 2.20512 4.86014 0
M  V30 4874 O 483.501 1.19429 5.57757 0
M  V30 4875 O 482.435 3.08911 5.16583 0
M  V30 4876 H 486.261 2.33091 1.94685 0
M  V30 4877 H 483.846 1.18767 0.906356 0
M  V30 4878 H 485.728 1.09937 4.06807 0
M  V30 4879 H 484.403 0.248807 3.22742 0
M  V30 4880 H 483.31 2.51958 2.76529 0
M  V30 4881 H 484.643 3.30041 3.65149 0
M  V30 4882 N 486.295 -0.989507 1.22664 0
M  V30 4883 C 487.706 -1.54406 1.04955 0
M  V30 4884 C 488.057 -1.92366 -0.385951 0
M  V30 4885 O 487.182 -1.75111 -1.27142 0
M  V30 4886 C 487.777 -2.80578 1.89899 0
M  V30 4887 C 486.336 -3.32464 1.76478 0
M  V30 4888 C 485.483 -2.05524 1.86159 0
M  V30 4889 H 488.434 -0.810211 1.3646 0
M  V30 4890 H 488.455 -3.53075 1.4184 0
M  V30 4891 H 487.967 -2.52918 2.94371 0
M  V30 4892 H 486.068 -3.65024 0.747528 0
M  V30 4893 H 486.181 -4.02838 2.59342 0
M  V30 4894 H 484.545 -2.19241 1.29636 0
M  V30 4895 H 485.328 -1.80258 2.92168 0
M  V30 4896 N 487.773 -1.03688 -1.18687 0
M  V30 4897 C 488.736 -0.629115 -2.20397 0
M  V30 4898 C 489.736 0.311495 -1.57754 0
M  V30 4899 O 490.926 0.0974107 -1.73927 0
M  V30 4900 C 488.058 0.0782231 -3.4081 0
M  V30 4901 H 489.251 -1.52915 -2.57987 0
M  V30 4902 H 486.804 -0.828988 -1.32505 0
M  V30 4903 H 487.539 0.992233 -3.08748 0
M  V30 4904 H 487.324 -0.597776 -3.87517 0
M  V30 4905 H 488.814 0.350156 -4.16129 0
M  V30 4906 N 489.251 1.34841 -0.815825 0
M  V30 4907 C 490.161 2.33425 -0.234462 0
M  V30 4908 C 491.177 1.62295 0.627413 0
M  V30 4909 O 492.353 1.94109 0.536987 0
M  V30 4910 C 489.418 3.41471 0.599849 0
M  V30 4911 C 488.479 4.28362 -0.283596 0
M  V30 4912 C 487.712 5.31248 0.51099 0
M  V30 4913 O 487.935 5.43056 1.7449 0
M  V30 4914 O 486.869 6.01812 -0.10297 0
M  V30 4915 H 490.695 2.84962 -1.05024 0
M  V30 4916 H 488.28 1.37774 -0.577809 0
M  V30 4917 H 490.162 4.07464 1.07475 0
M  V30 4918 H 488.837 2.9219 1.39308 0
M  V30 4919 H 487.744 3.65318 -0.805836 0
M  V30 4920 H 489.077 4.81066 -1.041 0
M  V30 4921 N 490.729 0.570148 1.46925 0
M  V30 4922 C 491.692 -0.159933 2.28641 0
M  V30 4923 C 492.692 -0.830638 1.37685 0
M  V30 4924 O 493.882 -0.684516 1.60187 0
M  V30 4925 C 491.014 -1.2354 3.17727 0
M  V30 4926 H 492.207 0.558035 2.94662 0
M  V30 4927 H 489.76 0.327603 1.52828 0
M  V30 4928 H 490.495 -1.98535 2.56426 0
M  V30 4929 H 490.28 -0.759125 3.84681 0
M  V30 4930 H 491.77 -1.74782 3.79264 0
M  V30 4931 N 492.207 -1.54576 0.307264 0
M  V30 4932 C 493.17 -2.22423 -0.553224 0
M  V30 4933 C 494.17 -1.21231 -1.05639 0
M  V30 4934 O 495.36 -1.45923 -0.951419 0
M  V30 4935 C 492.492 -2.91552 -1.76664 0
M  V30 4936 H 493.685 -2.99874 0.0396484 0
M  V30 4937 H 491.238 -1.56192 0.0581629 0
M  V30 4938 H 491.973 -2.18196 -2.39918 0
M  V30 4939 H 491.758 -3.65738 -1.41343 0
M  V30 4940 H 493.248 -3.43292 -2.37783 0
M  V30 4941 N 493.685 -0.035106 -1.57561 0
M  V30 4942 C 494.91 0.655802 -1.96759 0
M  V30 4943 C 495.335 1.64523 -0.911809 0
M  V30 4944 O 494.693 1.80857 0.126673 0
M  V30 4945 C 494.741 1.33326 -3.35047 0
M  V30 4946 O 493.845 2.44866 -3.31835 0
M  V30 4947 H 493.186 0.171807 -0.641388 0
M  V30 4948 H 495.716 -0.0987369 -2.04362 0
M  V30 4949 H 495.726 1.68867 -3.71413 0
M  V30 4950 H 494.401 0.608033 -4.11431 0
M  V30 4951 H 492.978 2.11392 -3.07193 0
M  V30 4952 N 495.163 1.55791 0.238111 0
M  V30 4953 C 496.096 1.86036 1.32158 0
M  V30 4954 C 497.074 0.716216 1.45976 0
M  V30 4955 O 498.258 0.962882 1.62052 0
M  V30 4956 C 495.385 2.05281 2.69402 0
M  V30 4957 C 494.431 3.27939 2.72687 0
M  V30 4958 S 495.264 4.84342 2.28413 0
M  V30 4959 C 496.42 5.06604 3.67565 0
M  V30 4960 H 496.653 2.77644 1.06306 0
M  V30 4961 H 494.186 1.48012 0.439537 0
M  V30 4962 H 496.144 2.17053 3.48423 0
M  V30 4963 H 494.805 1.14499 2.92487 0
M  V30 4964 H 493.998 3.38398 3.73501 0
M  V30 4965 H 493.6 3.14938 2.01717 0
M  V30 4966 H 495.892 4.94486 4.6313 0
M  V30 4967 H 496.835 6.08554 3.62033 0
M  V30 4968 H 497.243 4.34409 3.60485 0
M  V30 4969 N 496.642 -0.504142 1.49319 0
M  V30 4970 C 497.867 -1.28729 1.62615 0
M  V30 4971 C 498.292 -1.85752 0.296309 0
M  V30 4972 O 497.65 -1.65704 -0.735649 0
M  V30 4973 C 497.698 -2.39561 2.69524 0
M  V30 4974 O 496.802 -3.43324 2.28478 0
M  V30 4975 H 496.143 -0.380172 0.544395 0
M  V30 4976 H 498.673 -0.603872 1.95485 0
M  V30 4977 H 498.683 -2.8537 2.91595 0
M  V30 4978 H 497.358 -1.97423 3.66056 0
M  V30 4979 H 495.935 -3.03455 2.16725 0
M  V30 4980 N 498.12 -1.38341 -0.754957 0
M  V30 4981 C 499.07 -1.31964 -1.85929 0
M  V30 4982 C 500.054 -0.204181 -1.59599 0
M  V30 4983 O 501.246 -0.440036 -1.71443 0
M  V30 4984 C 498.375 -1.14565 -3.2362 0
M  V30 4985 C 497.461 -2.30727 -3.55846 0
M  V30 4986 N 497.852 -3.56165 -3.59138 0
M  V30 4987 C 496.15 -2.23249 -3.86104 0
M  V30 4988 C 496.851 -4.32865 -3.88591 0
M  V30 4989 N 495.827 -3.62203 -4.05351 0
M  V30 4990 H 499.629 -2.2694 -1.8675 0
M  V30 4991 H 497.143 -1.31553 -0.952243 0
M  V30 4992 H 499.14 -1.0808 -4.02647 0
M  V30 4993 H 497.8 -0.205212 -3.24051 0
M  V30 4994 H 498.811 -3.89854 -3.40932 0
M  V30 4995 H 495.488 -1.37357 -3.94258 0
M  V30 4996 H 496.878 -5.41504 -3.97773 0
M  V30 4997 N 499.598 0.982988 -1.23187 0
M  V30 4998 C 501.009 1.53847 -1.05773 0
M  V30 4999 C 501.36 1.92568 0.375744 0
M  V30 5000 O 500.485 1.75783 1.26211 0
M  V30 5001 C 501.08 2.79567 -1.91384 0
M  V30 5002 C 499.639 3.31524 -1.78238 0
M  V30 5003 C 498.786 2.04534 -1.87246 0
M  V30 5004 H 501.737 0.802962 -1.36888 0
M  V30 5005 H 501.758 3.52317 -1.43711 0
M  V30 5006 H 501.27 2.51353 -2.95708 0
M  V30 5007 H 499.371 3.64623 -0.766875 0
M  V30 5008 H 499.484 4.01457 -2.61475 0
M  V30 5009 H 497.848 2.1855 -1.30797 0
M  V30 5010 H 498.631 1.78706 -2.9312 0
M  V30 5011 N 501.076 1.04316 1.18135 0
M  V30 5012 C 502.006 0.657299 2.24058 0
M  V30 5013 C 502.987 -0.340678 1.66654 0
M  V30 5014 O 504.172 -0.220223 1.92947 0
M  V30 5015 C 501.302 0.0220715 3.47293 0
M  V30 5016 C 500.256 0.943857 4.17463 0
M  V30 5017 C 499.582 0.172973 5.3442 0
M  V30 5018 C 500.882 2.26409 4.70677 0
M  V30 5019 H 502.576 1.5428 2.56589 0
M  V30 5020 H 500.122 0.743263 1.23335 0
M  V30 5021 H 502.075 -0.259607 4.206 0
M  V30 5022 H 500.799 -0.898323 3.14003 0
M  V30 5023 H 499.458 1.20996 3.46057 0
M  V30 5024 H 499.106 -0.749907 4.97379 0
M  V30 5025 H 498.806 0.787098 5.82304 0
M  V30 5026 H 500.33 -0.101628 6.10515 0
M  V30 5027 H 501.744 2.04294 5.35665 0
M  V30 5028 H 500.141 2.8314 5.29105 0
M  V30 5029 H 501.211 2.90883 3.87962 0
M  V30 5030 N 502.554 -1.34406 0.822964 0
M  V30 5031 C 503.779 -2.0304 0.423034 0
M  V30 5032 C 504.204 -1.61568 -0.963196 0
M  V30 5033 O 503.562 -0.800339 -1.62678 0
M  V30 5034 C 503.61 -3.56636 0.53321 0
M  V30 5035 O 502.714 -4.09971 -0.446939 0
M  V30 5036 H 502.055 -0.64075 0.174171 0
M  V30 5037 H 504.585 -1.71653 1.11339 0
M  V30 5038 H 504.595 -4.05945 0.408991 0
M  V30 5039 H 503.27 -3.86168 1.54425 0
M  V30 5040 H 501.847 -3.71835 -0.281601 0
M  V30 5041 N 504.032 -0.577932 -1.46621 0
M  V30 5042 C 504.995 0.147805 -2.28723 0
M  V30 5043 C 505.995 0.823325 -1.38123 0
M  V30 5044 O 507.185 0.676011 -1.60548 0
M  V30 5045 C 504.317 1.21853 -3.18378 0
M  V30 5046 H 505.51 -0.573654 -2.94362 0
M  V30 5047 H 503.063 -0.335703 -1.52652 0
M  V30 5048 H 503.798 1.97173 -2.57475 0
M  V30 5049 H 503.583 0.738714 -3.85078 0
M  V30 5050 H 505.073 1.72768 -3.80186 0
M  V30 5051 N 505.51 1.54411 -0.315457 0
M  V30 5052 C 506.473 2.22713 0.54142 0
M  V30 5053 C 507.473 1.2179 1.04995 0
M  V30 5054 O 508.663 1.46426 0.943667 0
M  V30 5055 C 505.795 2.92485 1.75116 0
M  V30 5056 H 506.988 2.99849 -0.0555508 0
M  V30 5057 H 504.541 1.56159 -0.0664453 0
M  V30 5058 H 505.276 2.19466 2.38758 0
M  V30 5059 H 505.061 3.66483 1.39401 0
M  V30 5060 H 506.551 3.44548 2.35959 0
M  V30 5061 N 506.988 0.0434614 1.5754 0
M  V30 5062 C 508.234 -0.632971 1.92669 0
M  V30 5063 C 508.567 -1.70947 0.921446 0
M  V30 5064 O 507.842 -1.94426 -0.0537202 0
M  V30 5065 C 508.125 -1.23619 3.38216 0
M  V30 5066 C 507.978 -0.168274 4.49485 0
M  V30 5067 C 509.297 -2.15008 3.84005 0
M  V30 5068 H 506.416 -0.228629 0.700641 0
M  V30 5069 H 509.058 0.103651 1.89717 0
M  V30 5070 H 507.208 -1.864 3.40863 0
M  V30 5071 H 508.88 0.463196 4.58969 0
M  V30 5072 H 507.123 0.504581 4.30855 0
M  V30 5073 H 507.794 -0.630218 5.48391 0
M  V30 5074 H 510.27 -1.62198 3.83185 0
M  V30 5075 H 509.146 -2.54161 4.86511 0
M  V30 5076 H 509.407 -3.04707 3.20322 0
M  V30 5077 N 508.466 -1.55915 -0.229846 0
M  V30 5078 C 509.877 -1.68809 -0.797531 0
M  V30 5079 C 510.228 -0.643995 -1.8533 0
M  V30 5080 O 509.353 0.206492 -2.15413 0
M  V30 5081 C 509.948 -3.06043 -1.45338 0
M  V30 5082 C 508.507 -3.20819 -1.96856 0
M  V30 5083 C 507.654 -2.6472 -0.825736 0
M  V30 5084 H 510.605 -1.58699 -0.00533733 0
M  V30 5085 H 510.626 -3.01438 -2.32196 0
M  V30 5086 H 510.138 -3.82012 -0.684743 0
M  V30 5087 H 508.239 -2.49704 -2.76548 0
M  V30 5088 H 508.352 -4.27937 -2.15423 0
M  V30 5089 H 506.716 -2.22985 -1.23084 0
M  V30 5090 H 507.499 -3.43229 -0.0699019 0
M  V30 5091 N 509.944 0.496216 -1.49584 0
M  V30 5092 C 510.907 1.57952 -1.66084 0
M  V30 5093 C 511.907 1.51729 -0.53244 0
M  V30 5094 O 513.097 1.54796 -0.79899 0
M  V30 5095 C 510.229 2.97604 -1.66268 0
M  V30 5096 H 511.422 1.44649 -2.6271 0
M  V30 5097 H 508.975 0.7208 -1.38687 0
M  V30 5098 H 509.71 3.16378 -0.712432 0
M  V30 5099 H 509.495 3.03528 -2.4822 0
M  V30 5100 H 510.985 3.76301 -1.81073 0
M  V30 5101 N 511.423 1.38739 0.74761 0
M  V30 5102 C 512.386 1.36241 1.84312 0
M  V30 5103 C 513.386 0.261811 1.58654 0
M  V30 5104 O 514.576 0.519031 1.66288 0
M  V30 5105 C 511.708 1.12253 3.21888 0
M  V30 5106 H 512.901 2.33712 1.87933 0
M  V30 5107 H 510.454 1.2412 0.949946 0
M  V30 5108 H 511.189 0.154133 3.23934 0
M  V30 5109 H 510.974 1.91943 3.41907 0
M  V30 5110 H 512.464 1.13215 4.0196 0
M  V30 5111 N 512.901 -0.976442 1.23707 0
M  V30 5112 C 514.129 -1.75341 1.09833 0
M  V30 5113 C 514.544 -1.8553 -0.349885 0
M  V30 5114 O 513.901 -1.33732 -1.24185 0
M  V30 5115 C 513.952 -3.17833 1.72233 0
M  V30 5116 O 513.673 -3.08167 3.11391 0
M  V30 5117 C 515.174 -4.11906 1.63853 0
M  V30 5118 H 512.394 -0.550137 0.384175 0
M  V30 5119 H 514.938 -1.2265 1.63638 0
M  V30 5120 H 513.093 -3.67538 1.22452 0
M  V30 5121 H 513.507 -3.97897 3.41729 0
M  V30 5122 H 514.981 -5.09579 2.12211 0
M  V30 5123 H 515.458 -4.35109 0.598092 0
M  V30 5124 H 516.064 -3.68107 2.13019 0
M  V30 5125 N 514.379 -1.04941 -1.1758 0
M  V30 5126 C 515.342 -0.652456 -2.19717 0
M  V30 5127 C 516.342 0.294745 -1.58076 0
M  V30 5128 O 517.532 0.0789579 -1.74021 0
M  V30 5129 C 514.664 0.0420712 -3.40874 0
M  V30 5130 H 515.857 -1.55642 -2.5635 0
M  V30 5131 H 513.41 -0.842995 -1.31618 0
M  V30 5132 H 514.145 0.95943 -3.09783 0
M  V30 5133 H 513.93 -0.638844 -3.86861 0
M  V30 5134 H 515.42 0.306 -4.16477 0
M  V30 5135 N 515.857 1.33968 -0.830081 0
M  V30 5136 C 517.268 1.80439 -0.479455 0
M  V30 5137 C 517.619 1.68756 1.00079 0
M  V30 5138 O 516.744 1.23171 1.77927 0
M  V30 5139 C 517.339 3.27611 -0.863505 0
M  V30 5140 C 515.898 3.72133 -0.565145 0
M  V30 5141 C 515.045 2.55549 -1.07657 0
M  V30 5142 H 517.996 1.21614 -1.0196 0
M  V30 5143 H 518.017 3.8012 -0.170083 0
M  V30 5144 H 517.529 3.36082 -1.94089 0
M  V30 5145 H 515.63 3.69196 0.502536 0
M  V30 5146 H 515.743 4.65963 -1.11422 0
M  V30 5147 H 514.107 2.49788 -0.497807 0
M  V30 5148 H 514.89 2.66786 -2.16055 0
M  V30 5149 N 517.335 0.585699 1.46312 0
M  V30 5150 C 518.746 0.159938 1.86014 0
M  V30 5151 C 519.097 -1.27775 1.48889 0
M  V30 5152 O 518.222 -1.96559 0.90519 0
M  V30 5153 C 518.817 0.283485 3.37612 0
M  V30 5154 C 517.376 -0.0874256 3.76298 0
M  V30 5155 C 516.523 0.618055 2.70325 0
M  V30 5156 H 519.474 0.793737 1.37425 0
M  V30 5157 H 519.495 -0.490348 3.77327 0
M  V30 5158 H 519.007 1.32995 3.64601 0
M  V30 5159 H 517.108 -1.13391 3.54927 0
M  V30 5160 H 517.221 0.290975 4.78216 0
M  V30 5161 H 515.585 0.057993 2.54634 0
M  V30 5162 H 516.368 1.66623 3.00153 0
M  V30 5163 N 518.813 -1.54241 0.323641 0
M  V30 5164 C 520.061 -2.00174 -0.278359 0
M  V30 5165 C 520.382 -1.2134 -1.52648 0
M  V30 5166 O 519.652 -0.315244 -1.93347 0
M  V30 5167 H 518.232 -0.739463 -0.105845 0
M  V30 5168 H 520.894 -1.89864 0.440204 0
M  V30 5169 H 519.99 -3.07486 -0.5347 0
M  V30 5170 N 520.291 -0.0518155 -1.57515 0
M  V30 5171 C 521.254 0.907547 -2.10467 0
M  V30 5172 C 522.254 1.23947 -1.02439 0
M  V30 5173 O 523.444 1.17604 -1.2851 0
M  V30 5174 C 520.576 2.21723 -2.58944 0
M  V30 5175 H 521.769 0.44851 -2.96527 0
M  V30 5176 H 519.322 0.196598 -1.55059 0
M  V30 5177 H 520.057 2.72206 -1.76279 0
M  V30 5178 H 519.842 1.98935 -3.37886 0
M  V30 5179 H 521.332 2.90441 -3.00056 0
M  V30 5180 N 521.769 1.56035 0.221574 0
M  V30 5181 C 522.997 1.8313 0.962864 0
M  V30 5182 C 523.412 0.630934 1.77946 0
M  V30 5183 O 522.769 -0.400519 1.78051 0
M  V30 5184 C 522.82 3.08742 1.88045 0
M  V30 5185 O 522.541 4.24147 1.09686 0
M  V30 5186 C 524.042 3.48824 2.73563 0
M  V30 5187 H 521.262 0.608775 0.282194 0
M  V30 5188 H 523.806 2.03124 0.23681 0
M  V30 5189 H 521.961 2.90723 2.56045 0
M  V30 5190 H 522.375 4.95505 1.71974 0
M  V30 5191 H 523.849 4.39752 3.3365 0
M  V30 5192 H 524.326 2.70575 3.45956 0
M  V30 5193 H 524.932 3.69282 2.10976 0
M  V30 5194 N 523.247 -0.488276 1.49845 0
M  V30 5195 C 524.493 -1.24341 1.6021 0
M  V30 5196 C 524.826 -1.91967 0.293651 0
M  V30 5197 O 524.101 -1.81323 -0.703718 0
M  V30 5198 C 524.384 -2.3005 2.77036 0
M  V30 5199 C 524.237 -1.66842 4.17713 0
M  V30 5200 C 525.556 -3.31509 2.89464 0
M  V30 5201 H 522.675 -0.450704 0.583125 0
M  V30 5202 H 525.317 -0.539673 1.82174 0
M  V30 5203 H 523.467 -2.90071 2.58439 0
M  V30 5204 H 525.139 -1.1055 4.47858 0
M  V30 5205 H 523.382 -0.972079 4.22768 0
M  V30 5206 H 524.053 -2.43576 4.95353 0
M  V30 5207 H 526.529 -2.81493 3.06433 0
M  V30 5208 H 525.405 -4.02822 3.72861 0
M  V30 5209 H 525.666 -3.94603 1.99351 0
M  V30 5210 N 524.725 -1.39134 -0.740242 0
M  V30 5211 C 525.688 -1.37217 -1.83587 0
M  V30 5212 C 526.688 -0.270221 -1.58513 0
M  V30 5213 O 527.878 -0.527843 -1.6601 0
M  V30 5214 C 525.01 -1.13959 -3.21288 0
M  V30 5215 H 526.203 -2.34705 -1.86691 0
M  V30 5216 H 523.756 -1.24622 -0.94335 0
M  V30 5217 H 524.491 -0.17131 -3.23847 0
M  V30 5218 H 524.276 -1.93754 -3.40884 0
M  V30 5219 H 525.766 -1.15346 -4.01354 0
M  V30 5220 N 526.204 0.969867 -1.24223 0
M  V30 5221 C 527.452 1.70918 -1.0785 0
M  V30 5222 C 527.773 1.91186 0.383763 0
M  V30 5223 O 527.043 1.48806 1.27411 0
M  V30 5224 H 525.623 0.633334 -0.396103 0
M  V30 5225 H 528.285 1.16689 -1.56108 0
M  V30 5226 H 527.381 2.69455 -1.57482 0
M  V30 5227 N 527.682 1.05563 1.17022 0
M  V30 5228 C 528.645 0.664098 2.19368 0
M  V30 5229 C 529.645 -0.286358 1.5823 0
M  V30 5230 O 530.835 -0.069728 1.7406 0
M  V30 5231 C 527.967 -0.0239932 3.40892 0
M  V30 5232 H 529.16 1.57 2.55521 0
M  V30 5233 H 526.713 0.849964 1.31169 0
M  V30 5234 H 527.448 -0.942988 3.10287 0
M  V30 5235 H 527.233 0.659351 3.86516 0
M  V30 5236 H 528.723 -0.283909 4.16634 0
M  V30 5237 N 529.16 -1.33526 0.837174 0
M  V30 5238 C 530.385 -2.0258 0.444545 0
M  V30 5239 C 530.81 -1.6258 -0.946006 0
M  V30 5240 O 530.168 -0.817548 -1.6182 0
M  V30 5241 C 530.216 -3.5605 0.571006 0
M  V30 5242 O 529.32 -4.10422 -0.403431 0
M  V30 5243 H 528.661 -0.638866 0.180958 0
M  V30 5244 H 531.191 -1.70462 1.13154 0
M  V30 5245 H 531.201 -4.05488 0.452024 0
M  V30 5246 H 529.876 -3.84509 1.58512 0
M  V30 5247 H 528.453 -3.72113 -0.242147 0
M  V30 5248 N 530.638 -0.59345 -1.46 0
M  V30 5249 C 532.049 -0.169801 -1.85926 0
M  V30 5250 C 532.4 1.26984 -1.49565 0
M  V30 5251 O 531.525 1.96076 -0.915602 0
M  V30 5252 C 532.12 -0.301385 -3.37457 0
M  V30 5253 C 530.679 0.0674684 -3.7634 0
M  V30 5254 C 529.826 -0.632383 -2.69993 0
M  V30 5255 H 532.777 -0.801014 -1.37002 0
M  V30 5256 H 532.798 0.470331 -3.77582 0
M  V30 5257 H 532.31 -1.34927 -3.63891 0
M  V30 5258 H 530.411 1.11507 -3.55523 0
M  V30 5259 H 530.524 -0.316332 -4.78055 0
M  V30 5260 H 528.888 -0.0714961 -2.546 0
M  V30 5261 H 529.671 -1.68212 -2.99265 0
M  V30 5262 N 532.116 1.54067 -0.331816 0
M  V30 5263 C 533.079 2.23275 0.517768 0
M  V30 5264 C 534.079 1.22897 1.03697 0
M  V30 5265 O 535.269 1.47419 0.928084 0
M  V30 5266 C 532.401 2.94326 1.72004 0
M  V30 5267 H 533.594 2.99773 -0.0873507 0
M  V30 5268 H 531.147 1.56079 -0.0830042 0
M  V30 5269 H 531.882 2.21986 2.36417 0
M  V30 5270 H 531.667 3.67941 1.35507 0
M  V30 5271 H 533.157 3.47031 2.32291 0
M  V30 5272 N 533.594 0.0601682 1.57485 0
M  V30 5273 C 534.84 -0.612501 1.93329 0
M  V30 5274 C 535.173 -1.6996 0.939526 0
M  V30 5275 O 534.448 -1.94472 -0.0330957 0
M  V30 5276 C 534.731 -1.20025 3.39508 0
M  V30 5277 C 534.584 -0.12059 4.49638 0
M  V30 5278 C 535.903 -2.10923 3.86264 0
M  V30 5279 H 533.022 -0.221185 0.703027 0
M  V30 5280 H 535.664 0.123768 1.89596 0
M  V30 5281 H 533.814 -1.82774 3.42821 0
M  V30 5282 H 535.486 0.51185 4.58452 0
M  V30 5283 H 533.729 0.550251 4.30296 0
M  V30 5284 H 534.4 -0.572019 5.49028 0
M  V30 5285 H 536.876 -1.58124 3.84884 0
M  V30 5286 H 535.752 -2.48987 4.8918 0
M  V30 5287 H 536.013 -3.01292 3.23536 0
M  V30 5288 N 535.072 -1.5615 -0.213296 0
M  V30 5289 C 536.297 -1.83986 -0.957282 0
M  V30 5290 C 536.722 -0.641526 -1.76822 0
M  V30 5291 O 536.08 0.409722 -1.7661 0
M  V30 5292 C 536.128 -3.09889 -1.84393 0
M  V30 5293 O 535.232 -2.89163 -2.94038 0
M  V30 5294 H 534.573 -0.606357 -0.270605 0
M  V30 5295 H 537.103 -2.03369 -0.224111 0
M  V30 5296 H 537.113 -3.40209 -2.25215 0
M  V30 5297 H 535.788 -3.96735 -1.24795 0
M  V30 5298 H 534.365 -2.70097 -2.57103 0
M  V30 5299 N 536.55 0.480323 -1.50102 0
M  V30 5300 C 537.775 1.26126 -1.64642 0
M  V30 5301 C 538.2 1.85257 -0.325823 0
M  V30 5302 O 537.558 1.66854 0.709194 0
M  V30 5303 C 537.606 2.35243 -2.73301 0
M  V30 5304 O 536.71 3.39646 -2.33911 0
M  V30 5305 H 536.051 0.371463 -0.550374 0
M  V30 5306 H 538.581 0.572696 -1.96421 0
M  V30 5307 H 538.591 2.80695 -2.96098 0
M  V30 5308 H 537.266 1.91574 -3.6915 0
M  V30 5309 H 535.843 2.99969 -2.21525 0
M  V30 5310 N 538.028 1.39524 0.732853 0
M  V30 5311 C 538.958 1.41153 1.86005 0
M  V30 5312 C 539.939 0.274614 1.67869 0
M  V30 5313 O 541.124 0.480745 1.88155 0
M  V30 5314 C 538.254 1.25638 3.23778 0
M  V30 5315 C 537.208 2.36752 3.56556 0
M  V30 5316 C 536.534 2.06326 4.93289 0
M  V30 5317 C 537.834 3.79069 3.5931 0
M  V30 5318 H 539.528 2.35484 1.84899 0
M  V30 5319 H 537.074 1.13348 0.888162 0
M  V30 5320 H 539.027 1.25398 4.0231 0
M  V30 5321 H 537.751 0.277772 3.25417 0
M  V30 5322 H 536.41 2.36213 2.80355 0
M  V30 5323 H 536.058 1.06897 4.9151 0
M  V30 5324 H 535.758 2.80757 5.16187 0
M  V30 5325 H 537.282 2.07739 5.74175 0
M  V30 5326 H 538.696 3.81526 4.27914 0
M  V30 5327 H 537.093 4.52878 3.93728 0
M  V30 5328 H 538.163 4.09893 2.59068 0
M  V30 5329 N 539.506 -0.963266 1.24736 0
M  V30 5330 C 540.469 -2.04013 1.04457 0
M  V30 5331 C 541.469 -1.608 0.000335555 0
M  V30 5332 O 542.659 -1.72515 0.241719 0
M  V30 5333 C 539.791 -3.35858 0.584162 0
M  V30 5334 H 540.984 -2.23436 2.00041 0
M  V30 5335 H 538.537 -1.13914 1.07021 0
M  V30 5336 H 539.272 -3.22128 -0.374673 0
M  V30 5337 H 539.057 -3.68568 1.3379 0
M  V30 5338 H 540.547 -4.1502 0.463451 0
M  V30 5339 N 540.985 -1.06182 -1.16461 0
M  V30 5340 C 542.231 -0.788825 -1.87481 0
M  V30 5341 C 542.586 0.677298 -1.80085 0
M  V30 5342 O 541.879 1.48976 -1.20486 0
M  V30 5343 C 542.073 -1.21633 -3.36066 0
M  V30 5344 C 541.902 -2.72247 -3.57927 0
M  V30 5345 C 540.672 -3.39696 -3.74079 0
M  V30 5346 C 542.87 -3.70461 -3.56739 0
M  V30 5347 N 540.852 -4.79072 -3.83879 0
M  V30 5348 C 542.223 -4.95616 -3.72511 0
M  V30 5349 C 544.278 -3.63788 -3.39945 0
M  V30 5350 C 542.981 -6.14895 -3.73225 0
M  V30 5351 C 545.007 -4.82517 -3.41953 0
M  V30 5352 C 544.369 -6.065 -3.58242 0
M  V30 5353 H 540.468 -0.341034 -0.703719 0
M  V30 5354 H 543.052 -1.35575 -1.39741 0
M  V30 5355 H 541.223 -0.67725 -3.8245 0
M  V30 5356 H 542.955 -0.892119 -3.94745 0
M  V30 5357 H 539.71 -2.90097 -3.74354 0
M  V30 5358 H 540.134 -5.51573 -3.92551 0
M  V30 5359 H 544.776 -2.68888 -3.26281 0
M  V30 5360 H 542.494 -7.10129 -3.85672 0
M  V30 5361 H 546.08 -4.79017 -3.30203 0
M  V30 5362 H 544.96 -6.96833 -3.59712 0
M  V30 5363 N 542.463 1.3308 -0.844243 0
M  V30 5364 C 543.874 1.7992 -0.498566 0
M  V30 5365 C 544.225 1.69808 0.982834 0
M  V30 5366 O 543.35 1.25051 1.7661 0
M  V30 5367 C 543.945 3.26677 -0.898204 0
M  V30 5368 C 542.504 3.71513 -0.604583 0
M  V30 5369 C 541.651 2.54393 -1.10362 0
M  V30 5370 H 544.602 1.20526 -1.03244 0
M  V30 5371 H 544.623 3.79918 -0.21039 0
M  V30 5372 H 544.135 3.34004 -1.97643 0
M  V30 5373 H 542.236 3.69708 0.46335 0
M  V30 5374 H 542.349 4.64755 -1.16358 0
M  V30 5375 H 540.713 2.49246 -0.524273 0
M  V30 5376 H 541.496 2.6448 -2.18873 0
M  V30 5377 N 543.941 0.601185 1.45683 0
M  V30 5378 C 544.891 -0.142686 2.27553 0
M  V30 5379 C 545.875 -0.844598 1.3695 0
M  V30 5380 O 547.067 -0.735644 1.60988 0
M  V30 5381 C 544.196 -1.14364 3.23691 0
M  V30 5382 C 543.282 -0.442894 4.21781 0
M  V30 5383 N 543.673 0.51189 5.03203 0
M  V30 5384 C 541.971 -0.691277 4.4061 0
M  V30 5385 C 542.672 0.92318 5.74328 0
M  V30 5386 N 541.648 0.268308 5.42937 0
M  V30 5387 H 545.45 0.590736 2.87902 0
M  V30 5388 H 542.964 0.424365 1.56757 0
M  V30 5389 H 544.961 -1.6909 3.8107 0
M  V30 5390 H 543.621 -1.87768 2.64902 0
M  V30 5391 H 544.632 0.888329 5.10225 0
M  V30 5392 H 541.309 -1.41049 3.92952 0
M  V30 5393 H 542.699 1.71029 6.49768 0
M  V30 5394 N 545.419 -1.53889 0.339982 0
M  V30 5395 C 546.696 -1.93084 -0.312719 0
M  V30 5396 C 547.076 -1.2712 -1.68534 0
M  V30 5397 O 546.424 -0.420835 -2.24591 0
M  V30 5398 C 546.634 -3.4683 -0.388558 0
M  V30 5399 C 547.982 -4.19732 -0.641088 0
M  V30 5400 O 549.006 -3.53075 -0.470818 0
M  V30 5401 O 547.865 -5.3781 -0.970685 0
M  V30 5402 H 544.959 -0.806784 -0.18174 0
M  V30 5403 H 547.505 -1.65137 0.390898 0
M  V30 5404 H 546.277 -3.87055 0.574821 0
M  V30 5405 H 545.9 -3.80933 -1.1391 0
M  V30 5406 N 546.897 -0.0685191 -1.57451 0
M  V30 5407 C 548.145 0.60016 -1.92983 0
M  V30 5408 C 548.466 1.70348 -0.949028 0
M  V30 5409 O 547.736 1.959 0.00335647 0
M  V30 5410 H 546.316 0.224682 -0.712409 0
M  V30 5411 H 548.978 -0.125605 -1.94495 0
M  V30 5412 H 548.074 1.02759 -2.94698 0
M  V30 5413 N 548.375 1.56261 0.205012 0
M  V30 5414 C 549.621 1.80306 0.9283 0
M  V30 5415 C 549.954 0.640932 1.83319 0
M  V30 5416 O 549.229 -0.359032 1.91158 0
M  V30 5417 C 549.512 3.14547 1.75306 0
M  V30 5418 C 549.365 4.41236 0.873562 0
M  V30 5419 C 550.684 3.45382 2.72762 0
M  V30 5420 H 547.803 0.655929 0.336044 0
M  V30 5421 H 550.445 1.88984 0.196211 0
M  V30 5422 H 548.595 3.0728 2.37721 0
M  V30 5423 H 550.267 4.60539 0.264887 0
M  V30 5424 H 548.51 4.33427 0.179773 0
M  V30 5425 H 549.181 5.31639 1.48541 0
M  V30 5426 H 551.657 3.52884 2.20481 0
M  V30 5427 H 550.533 4.40449 3.2756 0
M  V30 5428 H 550.794 2.68377 3.51321 0
M  V30 5429 N 549.853 -0.472356 1.50355 0
M  V30 5430 C 551.083 -1.24603 1.64796 0
M  V30 5431 C 551.491 -1.86297 0.330156 0
M  V30 5432 O 550.834 -1.69934 -0.697728 0
M  V30 5433 C 550.896 -2.39578 2.68035 0
M  V30 5434 C 550.56 -1.98531 4.11624 0
M  V30 5435 C 551.557 -1.50856 4.97532 0
M  V30 5436 C 549.242 -2.0729 4.57532 0
M  V30 5437 C 551.236 -1.12481 6.27397 0
M  V30 5438 C 548.923 -1.68527 5.87403 0
M  V30 5439 C 549.921 -1.212 6.7216 0
M  V30 5440 O 549.609 -0.829728 7.99607 0
M  V30 5441 H 549.341 -0.383035 0.55701 0
M  V30 5442 H 551.895 -0.570392 1.97321 0
M  V30 5443 H 550.125 -3.10309 2.30749 0
M  V30 5444 H 551.814 -3.01544 2.71709 0
M  V30 5445 H 552.58 -1.43511 4.63281 0
M  V30 5446 H 548.459 -2.43076 3.91708 0
M  V30 5447 H 552.003 -0.754698 6.93506 0
M  V30 5448 H 547.9 -1.7553 6.21176 0
M  V30 5449 H 548.668 -0.958689 8.12866 0
M  V30 5450 N 551.331 -1.39911 -0.725443 0
M  V30 5451 C 552.261 -1.42138 -1.85254 0
M  V30 5452 C 553.242 -0.283513 -1.67721 0
M  V30 5453 O 554.427 -0.490717 -1.87898 0
M  V30 5454 C 551.557 -1.27354 -3.23107 0
M  V30 5455 C 550.511 -2.3864 -3.55296 0
M  V30 5456 C 549.837 -2.08939 -4.92188 0
M  V30 5457 C 551.137 -3.8097 -3.57295 0
M  V30 5458 H 552.831 -2.36461 -1.83648 0
M  V30 5459 H 550.377 -1.13817 -0.882138 0
M  V30 5460 H 552.33 -1.2753 -4.01639 0
M  V30 5461 H 551.054 -0.295025 -3.25265 0
M  V30 5462 H 549.713 -2.37696 -2.79099 0
M  V30 5463 H 549.361 -1.09502 -4.90936 0
M  V30 5464 H 549.061 -2.83491 -5.14691 0
M  V30 5465 H 550.585 -2.10781 -5.73065 0
M  V30 5466 H 551.999 -3.8379 -4.25885 0
M  V30 5467 H 550.396 -4.5496 -3.9132 0
M  V30 5468 H 551.466 -4.11261 -2.5689 0
M  V30 5469 N 552.809 0.956637 -1.25245 0
M  V30 5470 C 554.22 1.51569 -1.09012 0
M  V30 5471 C 554.571 1.93322 0.334813 0
M  V30 5472 O 553.696 1.78421 1.22454 0
M  V30 5473 C 554.291 2.75444 -1.97271 0
M  V30 5474 C 552.85 3.27669 -1.8523 0
M  V30 5475 C 551.997 2.00517 -1.91542 0
M  V30 5476 H 554.948 0.773746 -1.3856 0
M  V30 5477 H 554.969 3.4919 -1.51151 0
M  V30 5478 H 554.481 2.45024 -3.00973 0
M  V30 5479 H 552.582 3.62914 -0.844045 0
M  V30 5480 H 552.695 3.9582 -2.69932 0
M  V30 5481 H 551.059 2.15727 -1.35404 0
M  V30 5482 H 551.842 1.72448 -2.96844 0
M  V30 5483 N 554.287 1.06798 1.15896 0
M  V30 5484 C 555.234 0.683314 2.20453 0
M  V30 5485 C 556.204 -0.32255 1.62938 0
M  V30 5486 O 557.389 -0.210276 1.89638 0
M  V30 5487 C 554.529 0.0813266 3.45004 0
M  V30 5488 C 553.642 1.13799 4.16742 0
M  V30 5489 C 552.777 0.501598 5.28826 0
M  V30 5490 C 551.816 1.54144 5.92373 0
M  V30 5491 N 550.953 0.928038 6.9594 0
M  V30 5492 H 555.793 1.57932 2.52708 0
M  V30 5493 H 553.33 0.789544 1.24115 0
M  V30 5494 H 555.288 -0.285274 4.16224 0
M  V30 5495 H 553.918 -0.77806 3.13283 0
M  V30 5496 H 552.97 1.62223 3.44075 0
M  V30 5497 H 554.282 1.92664 4.60089 0
M  V30 5498 H 553.436 0.0823162 6.06644 0
M  V30 5499 H 552.175 -0.318883 4.86656 0
M  V30 5500 H 551.18 1.97056 5.13273 0
M  V30 5501 H 552.405 2.3641 6.36621 0
M  V30 5502 H 550.351 0.12836 6.55874 0
M  V30 5503 H 550.268 1.65401 7.37685 0
M  V30 5504 H 551.536 0.534071 7.77668 0
M  V30 5505 N 555.766 -1.3263 0.851289 0
M  V30 5506 C 557.043 -1.91982 0.374448 0
M  V30 5507 C 557.423 -1.77568 -1.14161 0
M  V30 5508 O 556.771 -1.1717 -1.96172 0
M  V30 5509 C 556.981 -3.38862 0.835088 0
M  V30 5510 C 558.329 -4.15999 0.850309 0
M  V30 5511 O 559.353 -3.47566 0.779505 0
M  V30 5512 O 558.212 -5.38189 0.949481 0
M  V30 5513 H 555.306 -0.819846 0.10854 0
M  V30 5514 H 557.852 -1.41422 0.937966 0
M  V30 5515 H 556.624 -3.43281 1.87814 0
M  V30 5516 H 556.247 -3.96821 0.248833 0
M  V30 5517 N 557.244 -0.608902 -1.45362 0
M  V30 5518 C 558.207 0.0992563 -2.28985 0
M  V30 5519 C 559.207 0.793841 -1.39838 0
M  V30 5520 O 560.397 0.641804 -1.61946 0
M  V30 5521 C 557.529 1.15073 -3.20891 0
M  V30 5522 H 558.722 -0.635964 -2.93079 0
M  V30 5523 H 556.275 -0.368007 -1.51906 0
M  V30 5524 H 557.01 1.91667 -2.616 0
M  V30 5525 H 556.795 0.656867 -3.86559 0
M  V30 5526 H 558.285 1.64665 -3.83765 0
M  V30 5527 N 558.722 1.53707 -0.348139 0
M  V30 5528 C 559.969 2.00988 0.246966 0
M  V30 5529 C 560.297 1.23586 1.50189 0
M  V30 5530 O 559.552 0.312817 1.93184 0
M  V30 5531 C 559.851 3.52292 0.602061 0
M  V30 5532 C 559.517 4.47453 -0.556509 0
M  V30 5533 C 558.179 4.73188 -0.874446 0
M  V30 5534 C 560.531 5.03851 -1.33354 0
M  V30 5535 C 557.859 5.52577 -1.9717 0
M  V30 5536 C 560.211 5.84437 -2.42108 0
M  V30 5537 C 558.875 6.08465 -2.74456 0
M  V30 5538 H 558.145 0.735469 0.0903712 0
M  V30 5539 H 560.792 1.85464 -0.477001 0
M  V30 5540 H 559.097 3.65672 1.40681 0
M  V30 5541 H 560.794 3.86337 1.07447 0
M  V30 5542 H 557.384 4.27558 -0.298652 0
M  V30 5543 H 561.568 4.8393 -1.10117 0
M  V30 5544 H 556.824 5.69418 -2.22651 0
M  V30 5545 H 560.998 6.27151 -3.02745 0
M  V30 5546 H 558.625 6.69768 -3.59604 0
M  V30 5547 N 560.2 0.0768682 1.57412 0
M  V30 5548 C 561.447 -0.591085 1.93681 0
M  V30 5549 C 561.775 -1.69311 0.957286 0
M  V30 5550 O 561.03 -1.95682 -0.0262428 0
M  V30 5551 C 561.329 -1.20268 3.36557 0
M  V30 5552 C 560.995 -0.226286 4.50332 0
M  V30 5553 C 559.657 0.0423142 4.81181 0
M  V30 5554 C 562.009 0.441415 5.19327 0
M  V30 5555 C 559.337 0.985616 5.78362 0
M  V30 5556 C 561.689 1.37307 6.17519 0
M  V30 5557 C 560.353 1.65009 6.46783 0
M  V30 5558 H 559.623 -0.216293 0.70873 0
M  V30 5559 H 562.27 0.148824 1.90921 0
M  V30 5560 H 560.575 -2.01844 3.35807 0
M  V30 5561 H 562.272 -1.72688 3.61911 0
M  V30 5562 H 558.862 -0.445821 4.26275 0
M  V30 5563 H 563.046 0.247023 4.95685 0
M  V30 5564 H 558.302 1.20743 5.99359 0
M  V30 5565 H 562.476 1.89637 6.70083 0
M  V30 5566 H 560.103 2.38263 7.21897 0
M  V30 5567 N 561.678 -1.56367 -0.196722 0
M  V30 5568 C 562.903 -1.84991 -0.937714 0
M  V30 5569 C 563.328 -0.660244 -1.76132 0
M  V30 5570 O 562.686 0.390967 -1.77034 0
M  V30 5571 C 562.734 -3.11828 -1.81096 0
M  V30 5572 O 561.838 -2.92266 -2.90955 0
M  V30 5573 H 561.179 -0.609193 -0.264159 0
M  V30 5574 H 563.709 -2.03595 -0.202529 0
M  V30 5575 H 563.719 -3.42579 -2.21594 0
M  V30 5576 H 562.394 -3.98037 -1.2058 0
M  V30 5577 H 560.971 -2.72809 -2.54224 0
M  V30 5578 N 563.156 0.464375 -1.50603 0
M  V30 5579 C 564.086 1.56944 -1.72889 0
M  V30 5580 C 565.067 1.59979 -0.577997 0
M  V30 5581 O 566.252 1.76138 -0.817855 0
M  V30 5582 C 563.382 2.95225 -1.8292 0
M  V30 5583 C 562.336 3.07056 -2.98162 0
M  V30 5584 C 561.662 4.47051 -2.93343 0
M  V30 5585 C 562.962 2.83648 -4.38567 0
M  V30 5586 H 564.656 1.38547 -2.65415 0
M  V30 5587 H 562.202 0.665082 -1.27721 0
M  V30 5588 H 564.155 3.72467 -1.97095 0
M  V30 5589 H 562.879 3.14793 -0.870209 0
M  V30 5590 H 561.538 2.32248 -2.83648 0
M  V30 5591 H 561.186 4.63547 -1.95276 0
M  V30 5592 H 560.886 4.55902 -3.70712 0
M  V30 5593 H 562.41 5.26304 -3.09575 0
M  V30 5594 H 563.824 3.50636 -4.53572 0
M  V30 5595 H 562.221 3.03937 -5.17438 0
M  V30 5596 H 563.291 1.79451 -4.50472 0
M  V30 5597 N 564.634 1.40294 0.718013 0
M  V30 5598 C 565.564 1.43118 1.84498 0
M  V30 5599 C 566.545 0.292403 1.67568 0
M  V30 5600 O 567.73 0.500675 1.87635 0
M  V30 5601 C 564.86 1.29065 3.22427 0
M  V30 5602 C 563.814 2.40521 3.54025 0
M  V30 5603 C 563.14 2.11546 4.91073 0
M  V30 5604 C 564.44 3.82859 3.55269 0
M  V30 5605 H 566.134 2.37432 1.82391 0
M  V30 5606 H 563.68 1.14283 0.87609 0
M  V30 5607 H 565.633 1.29658 4.00957 0
M  V30 5608 H 564.357 0.312271 3.25104 0
M  V30 5609 H 563.016 2.39173 2.77834 0
M  V30 5610 H 562.664 1.12104 4.90348 0
M  V30 5611 H 562.364 2.86216 5.1318 0
M  V30 5612 H 563.888 2.13817 5.71939 0
M  V30 5613 H 565.302 3.86044 4.23843 0
M  V30 5614 H 563.699 4.57029 3.88902 0
M  V30 5615 H 564.769 4.12617 2.54706 0
M  V30 5616 N 566.112 -0.949982 1.2575 0
M  V30 5617 C 567.36 -1.6918 1.10555 0
M  V30 5618 C 567.681 -1.91773 -0.353298 0
M  V30 5619 O 566.951 -1.50814 -1.25027 0
M  V30 5620 H 565.531 -0.626952 0.406129 0
M  V30 5621 H 568.193 -1.1419 1.57945 0
M  V30 5622 H 567.289 -2.66915 1.61749 0
M  V30 5623 N 567.59 -1.07411 -1.15328 0
M  V30 5624 C 568.553 -0.698914 -2.18284 0
M  V30 5625 C 569.553 0.261149 -1.58665 0
M  V30 5626 O 570.743 0.0420277 -1.74149 0
M  V30 5627 C 567.875 -0.0302427 -3.40887 0
M  V30 5628 H 569.068 -1.61045 -2.52991 0
M  V30 5629 H 566.621 -0.870724 -1.298 0
M  V30 5630 H 567.356 0.893505 -3.11748 0
M  V30 5631 H 567.141 -0.720759 -3.85419 0
M  V30 5632 H 568.631 0.21759 -4.17033 0
M  V30 5633 N 569.068 1.32177 -0.85831 0
M  V30 5634 C 570.293 2.01847 -0.476718 0
M  V30 5635 C 570.718 1.64065 0.920021 0
M  V30 5636 O 570.076 0.843189 1.60499 0
M  V30 5637 C 570.124 3.55097 -0.627578 0
M  V30 5638 O 569.228 4.11012 0.338086 0
M  V30 5639 H 568.569 0.635907 -0.191099 0
M  V30 5640 H 571.099 1.68641 -1.15851 0
M  V30 5641 H 571.109 4.04718 -0.516476 0
M  V30 5642 H 569.784 3.81938 -1.64609 0
M  V30 5643 H 568.361 3.72451 0.182917 0
M  V30 5644 N 570.547 0.616602 1.45037 0
M  V30 5645 C 571.963 0.280994 1.57107 0
M  V30 5646 C 572.163 -1.21627 1.60653 0
M  V30 5647 O 571.219 -1.9997 1.54169 0
M  V30 5648 C 572.532 0.960116 2.8496 0
M  V30 5649 C 574.08 0.936884 2.98649 0
M  V30 5650 C 574.555 1.59619 4.29285 0
M  V30 5651 N 576.046 1.5621 4.36065 0
M  V30 5652 C 576.781 2.04131 5.35834 0
M  V30 5653 N 576.277 2.60177 6.4209 0
M  V30 5654 N 578.07 1.94845 5.27249 0
M  V30 5655 H 570.221 1.58867 1.40979 0
M  V30 5656 H 572.484 0.666024 0.674623 0
M  V30 5657 H 572.19 2.01473 2.88273 0
M  V30 5658 H 572.064 0.488921 3.74018 0
M  V30 5659 H 574.451 -0.109209 2.94898 0
M  V30 5660 H 574.532 1.44643 2.10979 0
M  V30 5661 H 574.176 2.64166 4.33796 0
M  V30 5662 H 574.106 1.06159 5.15789 0
M  V30 5663 H 576.597 1.15276 3.59889 0
M  V30 5664 H 576.91 2.94513 7.1448 0
M  V30 5665 H 575.255 2.64221 6.42816 0
M  V30 5666 H 578.446 1.50792 4.43147 0
M  V30 5667 H 578.619 2.32504 6.04852 0
M  V30 5668 N 572.025 -1.5352 0.356285 0
M  V30 5669 C 573.25 -2.06007 -0.239961 0
M  V30 5670 C 573.675 -1.22872 -1.42422 0
M  V30 5671 O 573.033 -0.245516 -1.7963 0
M  V30 5672 C 573.081 -3.5522 -0.620587 0
M  V30 5673 O 572.185 -3.74864 -1.71902 0
M  V30 5674 H 571.526 -0.662961 -0.0371377 0
M  V30 5675 H 574.056 -1.98033 0.514194 0
M  V30 5676 H 574.066 -3.98081 -0.894197 0
M  V30 5677 H 572.741 -4.15175 0.245407 0
M  V30 5678 H 571.318 -3.43904 -1.44169 0
M  V30 5679 N 573.503 -0.0852151 -1.57369 0
M  V30 5680 C 574.466 0.8627 -2.12344 0
M  V30 5681 C 575.466 1.21746 -1.05046 0
M  V30 5682 O 576.656 1.14852 -1.30976 0
M  V30 5683 C 573.788 2.1618 -2.63589 0
M  V30 5684 H 574.981 0.385511 -2.97412 0
M  V30 5685 H 572.534 0.163663 -1.55441 0
M  V30 5686 H 573.269 2.68406 -1.82013 0
M  V30 5687 H 573.054 1.91723 -3.4203 0
M  V30 5688 H 574.544 2.84011 -3.06149 0
M  V30 5689 N 574.981 1.5647 0.188427 0
M  V30 5690 C 576.227 1.81281 0.909124 0
M  V30 5691 C 576.56 0.66034 1.82628 0
M  V30 5692 O 575.835 -0.338737 1.91528 0
M  V30 5693 C 576.118 3.16388 1.7196 0
M  V30 5694 C 575.971 4.42137 0.826714 0
M  V30 5695 C 577.29 3.48256 2.69083 0
M  V30 5696 H 574.409 0.659457 0.329068 0
M  V30 5697 H 577.051 1.89182 0.176156 0
M  V30 5698 H 575.201 3.09784 2.34448 0
M  V30 5699 H 576.873 4.60794 0.216025 0
M  V30 5700 H 575.116 4.33594 0.133792 0
M  V30 5701 H 575.787 5.33184 1.42893 0
M  V30 5702 H 578.263 3.55203 2.16726 0
M  V30 5703 H 577.139 4.43899 3.2287 0
M  V30 5704 H 577.4 2.72088 3.48455 0
M  V30 5705 N 576.459 -0.456382 1.50847 0
M  V30 5706 C 577.87 -1.03685 1.55262 0
M  V30 5707 C 578.221 -1.92779 0.364771 0
M  V30 5708 O 577.346 -2.10043 -0.52068 0
M  V30 5709 C 577.941 -1.88718 2.81374 0
M  V30 5710 C 576.5 -2.41847 2.88422 0
M  V30 5711 C 575.647 -1.20564 2.49719 0
M  V30 5712 H 578.598 -0.238399 1.56899 0
M  V30 5713 H 578.619 -2.73957 2.6406 0
M  V30 5714 H 578.131 -1.23847 3.67809 0
M  V30 5715 H 576.232 -3.10228 2.06372 0
M  V30 5716 H 576.345 -2.75947 3.9165 0
M  V30 5717 H 574.709 -1.54504 2.02486 0
M  V30 5718 H 575.492 -0.573326 3.38479 0
M  V30 5719 N 577.937 -1.40673 -0.710563 0
M  V30 5720 C 579.183 -1.39428 -1.47267 0
M  V30 5721 C 579.516 0.00182129 -1.942 0
M  V30 5722 O 578.791 0.971387 -1.68506 0
M  V30 5723 C 579.074 -2.38812 -2.6952 0
M  V30 5724 C 578.927 -3.87467 -2.28449 0
M  V30 5725 C 580.246 -2.3566 -3.71689 0
M  V30 5726 H 577.365 -0.507768 -0.534173 0
M  V30 5727 H 580.007 -1.71843 -0.810547 0
M  V30 5728 H 578.157 -2.113 -3.26013 0
M  V30 5729 H 579.829 -4.25825 -1.77399 0
M  V30 5730 H 578.072 -4.03058 -1.60395 0
M  V30 5731 H 578.743 -4.5253 -3.16103 0
M  V30 5732 H 581.219 -2.6004 -3.24836 0
M  V30 5733 H 580.095 -3.07237 -4.54859 0
M  V30 5734 H 580.356 -1.36996 -4.20339 0
M  V30 5735 N 579.415 0.9433 -1.26252 0
M  V30 5736 C 580.348 2.04162 -1.01946 0
M  V30 5737 C 581.326 1.62507 0.0550808 0
M  V30 5738 O 582.51 1.883 -0.0869025 0
M  V30 5739 C 579.637 3.34313 -0.54335 0
M  V30 5740 C 578.683 3.94939 -1.61013 0
M  V30 5741 S 579.516 4.29484 -3.19849 0
M  V30 5742 C 580.672 5.62738 -2.74001 0
M  V30 5743 H 580.905 2.24466 -1.94942 0
M  V30 5744 H 578.438 1.08441 -1.09909 0
M  V30 5745 H 580.396 4.09576 -0.275315 0
M  V30 5746 H 579.057 3.11957 0.36629 0
M  V30 5747 H 578.25 4.88812 -1.22795 0
M  V30 5748 H 577.852 3.26202 -1.82943 0
M  V30 5749 H 580.144 6.41356 -2.18333 0
M  V30 5750 H 581.087 6.05839 -3.66558 0
M  V30 5751 H 581.495 5.22514 -2.13634 0
M  V30 5752 N 580.893 1.08022 1.14757 0
M  V30 5753 C 582.123 0.827646 1.89298 0
M  V30 5754 C 582.531 -0.623506 1.78631 0
M  V30 5755 O 581.874 -1.43991 1.14071 0
M  V30 5756 C 581.936 1.16553 3.40082 0
M  V30 5757 C 581.6 2.61866 3.74533 0
M  V30 5758 C 582.597 3.60116 3.74984 0
M  V30 5759 C 580.282 2.97619 4.04633 0
M  V30 5760 C 582.276 4.92151 4.05051 0
M  V30 5761 C 579.963 4.2985 4.34364 0
M  V30 5762 C 580.961 5.26926 4.34555 0
M  V30 5763 O 580.649 6.5678 4.63568 0
M  V30 5764 H 580.381 0.298396 0.606577 0
M  V30 5765 H 582.935 1.44187 1.46285 0
M  V30 5766 H 581.165 0.494296 3.83528 0
M  V30 5767 H 582.854 0.894407 3.95923 0
M  V30 5768 H 583.62 3.33837 3.51821 0
M  V30 5769 H 579.499 2.22702 4.03639 0
M  V30 5770 H 583.043 5.67915 4.05115 0
M  V30 5771 H 578.94 4.55879 4.56995 0
M  V30 5772 H 579.708 6.62035 4.81303 0
M  V30 5773 N 582.371 -1.3172 0.865308 0
M  V30 5774 C 583.782 -1.79104 0.527126 0
M  V30 5775 C 584.133 -1.7135 -0.955695 0
M  V30 5776 O 583.258 -1.27845 -1.74598 0
M  V30 5777 C 583.853 -3.25207 0.950061 0
M  V30 5778 C 582.412 -3.70504 0.663611 0
M  V30 5779 C 581.559 -2.52605 1.14395 0
M  V30 5780 H 584.51 -1.18868 1.05148 0
M  V30 5781 H 584.531 -3.79535 0.270805 0
M  V30 5782 H 584.043 -3.30818 2.02931 0
M  V30 5783 H 582.144 -3.70398 -0.404474 0
M  V30 5784 H 582.257 -4.62845 1.23737 0
M  V30 5785 H 580.621 -2.4838 0.563859 0
M  V30 5786 H 581.404 -2.60964 2.23053 0
M  V30 5787 N 583.85 -0.624285 -1.44708 0
M  V30 5788 C 585.098 -0.125802 -2.01708 0
M  V30 5789 C 585.418 1.2543 -1.49306 0
M  V30 5790 O 584.689 1.83198 -0.693924 0
M  V30 5791 H 583.269 -0.0435161 -0.745731 0
M  V30 5792 H 585.931 -0.809446 -1.77296 0
M  V30 5793 H 585.027 -0.0882734 -3.11975 0
M  V30 5794 N 585.328 1.53329 -0.364422 0
M  V30 5795 C 586.291 2.24323 0.470292 0
M  V30 5796 C 587.291 1.25068 1.01067 0
M  V30 5797 O 588.481 1.49354 0.896605 0
M  V30 5798 C 585.613 2.97908 1.65722 0
M  V30 5799 H 586.806 2.9952 -0.150917 0
M  V30 5800 H 584.359 1.55868 -0.116092 0
M  V30 5801 H 585.094 2.2695 2.31655 0
M  V30 5802 H 584.879 3.70732 1.27671 0
M  V30 5803 H 586.369 3.5188 2.24878 0
M  V30 5804 N 586.806 0.0935595 1.57322 0
M  V30 5805 C 588.052 -0.571355 1.94585 0
M  V30 5806 C 588.385 -1.67929 0.975366 0
M  V30 5807 O 587.66 -1.94498 0.00816206 0
M  V30 5808 C 587.943 -1.12797 3.41978 0
M  V30 5809 C 587.796 -0.0251881 4.49793 0
M  V30 5810 C 589.115 -2.02682 3.90651 0
M  V30 5811 H 586.234 -0.206223 0.70756 0
M  V30 5812 H 588.876 0.163956 1.89291 0
M  V30 5813 H 587.026 -1.75461 3.4662 0
M  V30 5814 H 588.698 0.608979 4.57263 0
M  V30 5815 H 586.941 0.641399 4.29032 0
M  V30 5816 H 587.612 -0.455433 5.50118 0
M  V30 5817 H 590.088 -1.49925 3.88152 0
M  V30 5818 H 588.964 -2.38555 4.94351 0
M  V30 5819 H 589.225 -2.94362 3.29854 0
M  V30 5820 N 588.284 -1.56567 -0.180126 0
M  V30 5821 C 589.247 -1.94852 -1.20686 0
M  V30 5822 C 590.247 -0.831212 -1.3765 0
M  V30 5823 O 591.437 -1.09841 -1.35206 0
M  V30 5824 C 588.569 -2.23565 -2.57355 0
M  V30 5825 H 589.762 -2.86722 -0.879225 0
M  V30 5826 H 587.315 -1.50489 -0.422237 0
M  V30 5827 H 588.05 -1.34381 -2.95148 0
M  V30 5828 H 587.835 -3.04999 -2.46411 0
M  V30 5829 H 589.325 -2.54137 -3.31367 0
M  V30 5830 N 589.762 0.448376 -1.51087 0
M  V30 5831 C 590.725 1.52588 -1.71025 0
M  V30 5832 C 591.725 1.49958 -0.580442 0
M  V30 5833 O 592.915 1.52176 -0.847833 0
M  V30 5834 C 590.047 2.92163 -1.75652 0
M  V30 5835 H 591.24 1.36218 -2.67179 0
M  V30 5836 H 588.793 0.676313 -1.4091 0
M  V30 5837 H 589.528 3.13951 -0.812724 0
M  V30 5838 H 589.313 2.95478 -2.57751 0
M  V30 5839 H 590.803 3.70349 -1.92953 0
M  V30 5840 N 591.24 1.41047 0.703093 0
M  V30 5841 C 592.651 1.35657 1.28274 0
M  V30 5842 C 593.002 0.0360309 1.96167 0
M  V30 5843 O 592.127 -0.865833 1.98324 0
M  V30 5844 C 592.722 2.45707 2.33267 0
M  V30 5845 C 591.281 2.43738 2.86825 0
M  V30 5846 C 590.428 2.25941 1.60767 0
M  V30 5847 H 593.379 1.50672 0.49836 0
M  V30 5848 H 593.4 2.14333 3.14391 0
M  V30 5849 H 592.912 3.41805 1.83824 0
M  V30 5850 H 591.013 1.51375 3.40465 0
M  V30 5851 H 591.126 3.39779 3.37768 0
M  V30 5852 H 589.49 1.73681 1.86298 0
M  V30 5853 H 590.273 3.24054 1.1333 0
M  V30 5854 N 592.718 -0.936591 1.26751 0
M  V30 5855 C 594.129 -1.49816 1.1141 0
M  V30 5856 C 594.48 -1.9383 -0.304015 0
M  V30 5857 O 593.605 -1.80346 -1.196 0
M  V30 5858 C 594.2 -2.72271 2.01629 0
M  V30 5859 C 592.759 -3.2468 1.9042 0
M  V30 5860 C 591.906 -1.97444 1.94708 0
M  V30 5861 H 594.857 -0.751604 1.39773 0
M  V30 5862 H 594.878 -3.46741 1.56688 0
M  V30 5863 H 594.39 -2.40205 3.04833 0
M  V30 5864 H 592.491 -3.61525 0.901674 0
M  V30 5865 H 592.604 -3.91476 2.76195 0
M  V30 5866 H 590.968 -2.13545 1.38818 0
M  V30 5867 H 591.751 -1.67703 2.9955 0
M  V30 5868 N 594.196 -1.08629 -1.14182 0
M  V30 5869 C 595.421 -0.83902 -1.89671 0
M  V30 5870 C 595.846 0.603332 -1.78161 0
M  V30 5871 O 595.204 1.42301 -1.12339 0
M  V30 5872 C 595.252 -1.26854 -3.37551 0
M  V30 5873 O 594.356 -0.42188 -4.10236 0
M  V30 5874 H 593.697 -0.304545 -0.590041 0
M  V30 5875 H 596.227 -1.4483 -1.44518 0
M  V30 5876 H 596.237 -1.25038 -3.88368 0
M  V30 5877 H 594.912 -2.31901 -3.45246 0
M  V30 5878 H 593.489 -0.503654 -3.69483 0
M  V30 5879 N 595.674 1.31259 -0.872281 0
M  V30 5880 C 596.637 2.26744 -0.334656 0
M  V30 5881 C 597.637 1.52307 0.515681 0
M  V30 5882 O 598.827 1.71148 0.324656 0
M  V30 5883 C 595.959 3.36841 0.524482 0
M  V30 5884 H 597.152 2.75812 -1.17762 0
M  V30 5885 H 594.705 1.42232 -0.648064 0
M  V30 5886 H 595.44 2.93069 1.38855 0
M  V30 5887 H 595.225 3.92009 -0.0844299 0
M  V30 5888 H 596.715 4.07944 0.892838 0
M  V30 5889 N 597.152 0.631951 1.44375 0
M  V30 5890 C 598.377 0.142146 2.06912 0
M  V30 5891 C 598.802 -1.17456 1.4692 0
M  V30 5892 O 598.16 -1.72074 0.570975 0
M  V30 5893 C 598.208 0.0417952 3.60576 0
M  V30 5894 O 597.312 -1.00194 4.00044 0
M  V30 5895 H 596.653 0.0851491 0.658518 0
M  V30 5896 H 599.183 0.868863 1.85235 0
M  V30 5897 H 599.193 -0.148517 4.0773 0
M  V30 5898 H 597.868 1.0031 4.03622 0
M  V30 5899 H 596.445 -0.786131 3.64519 0
M  V30 5900 N 598.631 -1.53133 0.372548 0
M  V30 5901 C 600.042 -1.86404 -0.105155 0
M  V30 5902 C 600.393 -1.29289 -1.47576 0
M  V30 5903 O 599.518 -0.617646 -2.07398 0
M  V30 5904 C 600.113 -3.38223 -0.197588 0
M  V30 5905 C 598.672 -3.71266 -0.619556 0
M  V30 5906 C 597.819 -2.76353 0.228919 0
M  V30 5907 H 600.77 -1.47282 0.591077 0
M  V30 5908 H 600.791 -3.66577 -1.01987 0
M  V30 5909 H 600.303 -3.79763 0.800099 0
M  V30 5910 H 598.404 -3.35287 -1.62522 0
M  V30 5911 H 598.517 -4.77515 -0.389332 0
M  V30 5912 H 596.881 -2.52888 -0.303271 0
M  V30 5913 H 597.664 -3.20728 1.22428 0
M  V30 5914 N 600.109 -0.101901 -1.5727 0
M  V30 5915 C 601.072 0.840129 -2.13247 0
M  V30 5916 C 602.072 1.20625 -1.06331 0
M  V30 5917 O 603.262 1.13456 -1.32186 0
M  V30 5918 C 600.394 2.13372 -2.65867 0
M  V30 5919 H 601.587 0.353945 -2.97804 0
M  V30 5920 H 599.14 0.147167 -1.55606 0
M  V30 5921 H 599.875 2.66461 -1.84849 0
M  V30 5922 H 599.66 1.88085 -3.44044 0
M  V30 5923 H 601.15 2.80748 -3.09145 0
M  V30 5924 N 601.587 1.56661 0.17182 0
M  V30 5925 C 602.998 1.71652 0.734329 0
M  V30 5926 C 603.349 0.712335 1.82812 0
M  V30 5927 O 602.474 -0.126401 2.16031 0
M  V30 5928 C 603.069 3.11226 1.3388 0
M  V30 5929 C 601.628 3.27904 1.84813 0
M  V30 5930 C 600.775 2.67603 0.726917 0
M  V30 5931 H 603.726 1.5861 -0.0535665 0
M  V30 5932 H 603.747 3.09849 2.20849 0
M  V30 5933 H 603.259 3.8429 0.54249 0
M  V30 5934 H 601.36 2.59796 2.6709 0
M  V30 5935 H 601.473 4.35637 1.99392 0
M  V30 5936 H 599.837 2.274 1.14723 0
M  V30 5937 H 600.62 3.43252 -0.0575334 0
M  V30 5938 N 603.065 -0.440357 1.51323 0
M  V30 5939 C 603.995 -1.54174 1.75364 0
M  V30 5940 C 604.976 -1.59039 0.603375 0
M  V30 5941 O 606.161 -1.74815 0.845774 0
M  V30 5942 C 603.291 -2.92277 1.87593 0
M  V30 5943 C 602.245 -3.02274 3.03009 0
M  V30 5944 C 601.571 -4.42327 3.00418 0
M  V30 5945 C 602.871 -2.76634 4.43024 0
M  V30 5946 H 604.565 -1.34307 2.67585 0
M  V30 5947 H 602.111 -0.644678 1.28763 0
M  V30 5948 H 604.064 -3.69284 2.02995 0
M  V30 5949 H 602.788 -3.13369 0.920179 0
M  V30 5950 H 601.447 -2.27706 2.87307 0
M  V30 5951 H 601.095 -4.60382 2.02626 0
M  V30 5952 H 600.795 -4.49946 3.77918 0
M  V30 5953 H 602.319 -5.21312 3.17909 0
M  V30 5954 H 603.733 -3.43376 4.59093 0
M  V30 5955 H 602.13 -2.95666 5.22208 0
M  V30 5956 H 603.2 -1.72262 4.5327 0
M  V30 5957 N 604.543 -1.41418 -0.695603 0
M  V30 5958 C 605.954 -1.36335 -1.27552 0
M  V30 5959 C 606.305 -0.0464336 -1.96145 0
M  V30 5960 O 605.43 0.855304 -1.9878 0
M  V30 5961 C 606.025 -2.46941 -2.3196 0
M  V30 5962 C 604.584 -2.45256 -2.85529 0
M  V30 5963 C 603.731 -2.2679 -1.59566 0
M  V30 5964 H 606.682 -1.50934 -0.490362 0
M  V30 5965 H 606.703 -2.15997 -3.1325 0
M  V30 5966 H 606.215 -3.42775 -1.82008 0
M  V30 5967 H 604.316 -1.53179 -3.39657 0
M  V30 5968 H 604.429 -3.41565 -3.35961 0
M  V30 5969 H 602.793 -1.74667 -1.85374 0
M  V30 5970 H 603.576 -3.24651 -1.1161 0
M  V30 5971 N 606.021 0.929856 -1.27246 0
M  V30 5972 C 606.951 2.04722 -1.12299 0
M  V30 5973 C 607.932 1.70082 -0.0250464 0
M  V30 5974 O 609.117 1.93176 -0.199141 0
M  V30 5975 C 606.247 3.38721 -0.767145 0
M  V30 5976 C 605.201 3.87466 -1.81808 0
M  V30 5977 C 604.527 5.18246 -1.31626 0
M  V30 5978 C 605.827 4.11095 -3.22177 0
M  V30 5979 H 607.521 2.17485 -2.05769 0
M  V30 5980 H 605.067 1.04503 -0.990715 0
M  V30 5981 H 607.02 4.16366 -0.649413 0
M  V30 5982 H 605.744 3.25967 0.203259 0
M  V30 5983 H 604.403 3.12012 -1.92468 0
M  V30 5984 H 604.051 5.01881 -0.335378 0
M  V30 5985 H 603.751 5.51829 -2.01887 0
M  V30 5986 H 605.275 5.98462 -1.21143 0
M  V30 5987 H 606.689 4.79316 -3.1453 0
M  V30 5988 H 605.086 4.55982 -3.90129 0
M  V30 5989 H 606.156 3.16468 -3.67391 0
M  V30 5990 N 607.499 1.09233 1.13605 0
M  V30 5991 C 608.91 0.846839 1.6639 0
M  V30 5992 C 609.261 -0.625031 1.85978 0
M  V30 5993 O 608.386 -1.48173 1.57714 0
M  V30 5994 C 608.981 1.5307 3.0225 0
M  V30 5995 C 607.54 1.33223 3.52035 0
M  V30 5996 C 606.687 1.58806 2.27323 0
M  V30 5997 H 609.638 1.25175 0.975541 0
M  V30 5998 H 609.659 0.96267 3.68121 0
M  V30 5999 H 609.171 2.60192 2.87961 0
M  V30 6000 H 607.272 0.282091 3.71531 0
M  V30 6001 H 607.385 2.0657 4.32279 0
M  V30 6002 H 605.749 1.01007 2.33815 0
M  V30 6003 H 606.532 2.67153 2.15602 0
M  V30 6004 N 608.977 -1.30795 0.87923 0
M  V30 6005 C 610.202 -2.01063 0.508769 0
M  V30 6006 C 610.627 -1.65508 -0.893803 0
M  V30 6007 O 609.985 -0.868616 -1.59138 0
M  V30 6008 C 610.033 -3.54054 0.683991 0
M  V30 6009 O 609.137 -4.11498 -0.272654 0
M  V30 6010 H 608.478 -0.632786 0.201191 0
M  V30 6011 H 611.008 -1.66776 1.18519 0
M  V30 6012 H 611.018 -4.03845 0.580798 0
M  V30 6013 H 609.693 -3.79271 1.70665 0
M  V30 6014 H 608.27 -3.72695 -0.12364 0
M  V30 6015 N 610.455 -0.639598 -1.44038 0
M  V30 6016 C 611.685 -0.154586 -2.06021 0
M  V30 6017 C 612.093 1.17951 -1.47933 0
M  V30 6018 O 611.436 1.73627 -0.59994 0
M  V30 6019 C 611.498 0.0255459 -3.59491 0
M  V30 6020 C 611.162 -1.2317 -4.40089 0
M  V30 6021 C 612.159 -2.15735 -4.73027 0
M  V30 6022 C 609.844 -1.46949 -4.80324 0
M  V30 6023 C 611.838 -3.30382 -5.45093 0
M  V30 6024 C 609.525 -2.61891 -5.52138 0
M  V30 6025 C 610.523 -3.53433 -5.84443 0
M  V30 6026 O 610.211 -4.6637 -6.54793 0
M  V30 6027 H 609.943 -0.0808543 -0.671147 0
M  V30 6028 H 612.497 -0.876541 -1.85758 0
M  V30 6029 H 610.727 0.802733 -3.78276 0
M  V30 6030 H 612.416 0.466184 -4.03214 0
M  V30 6031 H 613.182 -1.98602 -4.42473 0
M  V30 6032 H 609.061 -0.765815 -4.54595 0
M  V30 6033 H 612.605 -4.01856 -5.70226 0
M  V30 6034 H 608.502 -2.78964 -5.82108 0
M  V30 6035 H 609.27 -4.6546 -6.73267 0
M  V30 6036 N 611.933 1.52934 -0.380664 0
M  V30 6037 C 613.344 1.86457 0.0952684 0
M  V30 6038 C 613.695 1.3007 1.46889 0
M  V30 6039 O 612.82 0.628636 2.07068 0
M  V30 6040 C 613.415 3.38323 0.179648 0
M  V30 6041 C 611.974 3.71589 0.599858 0
M  V30 6042 C 611.121 2.76228 -0.243572 0
M  V30 6043 H 614.072 1.46966 -0.59888 0
M  V30 6044 H 614.093 3.67113 1.00042 0
M  V30 6045 H 613.605 3.79333 -0.820228 0
M  V30 6046 H 611.706 3.36144 1.60742 0
M  V30 6047 H 611.819 4.77715 0.364003 0
M  V30 6048 H 610.183 2.53045 0.289855 0
M  V30 6049 H 610.966 3.20074 -1.24127 0
M  V30 6050 N 613.412 0.11024 1.57214 0
M  V30 6051 C 614.375 -0.828808 2.1369 0
M  V30 6052 C 615.375 -1.20059 1.06969 0
M  V30 6053 O 616.565 -1.12754 1.32786 0
M  V30 6054 C 613.697 -2.11959 2.66994 0
M  V30 6055 H 614.89 -0.338146 2.97988 0
M  V30 6056 H 612.443 -0.138913 1.55681 0
M  V30 6057 H 613.178 -2.65476 1.8626 0
M  V30 6058 H 612.963 -1.86258 3.45037 0
M  V30 6059 H 614.453 -2.79105 3.10629 0
M  V30 6060 N 614.89 -1.56749 -0.16351 0
M  V30 6061 C 616.115 -1.86938 -0.898264 0
M  V30 6062 C 616.54 -0.697456 -1.74692 0
M  V30 6063 O 615.898 0.353327 -1.77824 0
M  V30 6064 C 615.946 -3.15599 -1.74441 0
M  V30 6065 O 615.05 -2.98371 -2.8469 0
M  V30 6066 H 614.391 -0.614659 -0.251178 0
M  V30 6067 H 616.921 -2.03979 -0.159298 0
M  V30 6068 H 616.931 -3.47202 -2.14277 0
M  V30 6069 H 615.606 -4.00505 -1.1211 0
M  V30 6070 H 614.183 -2.7814 -2.4838 0
M  V30 6071 N 616.368 0.432326 -1.51554 0
M  V30 6072 C 617.598 1.2019 -1.68042 0
M  V30 6073 C 618.006 1.85356 -0.379434 0
M  V30 6074 O 617.349 1.71724 0.652427 0
M  V30 6075 C 617.411 2.32387 -2.74292 0
M  V30 6076 C 617.075 1.87548 -4.16743 0
M  V30 6077 C 618.072 1.37611 -5.01357 0
M  V30 6078 C 615.757 1.95087 -4.62868 0
M  V30 6079 C 617.751 0.958069 -6.30159 0
M  V30 6080 C 615.438 1.52894 -5.91664 0
M  V30 6081 C 616.436 1.03336 -6.75137 0
M  V30 6082 O 616.124 0.617435 -8.01525 0
M  V30 6083 H 615.856 0.368132 -0.56697 0
M  V30 6084 H 618.41 0.517875 -1.98764 0
M  V30 6085 H 616.64 3.04082 -2.38895 0
M  V30 6086 H 618.329 2.94235 -2.79608 0
M  V30 6087 H 619.095 1.31178 -4.66923 0
M  V30 6088 H 614.974 2.32606 -3.98015 0
M  V30 6089 H 618.518 0.570562 -6.95263 0
M  V30 6090 H 614.415 1.58999 -6.25611 0
M  V30 6091 H 615.183 0.742835 -8.15122 0
M  V30 6092 N 617.846 1.41785 0.688094 0
M  V30 6093 C 619.094 1.41264 1.4453 0
M  V30 6094 C 619.415 0.0252946 1.94984 0
M  V30 6095 O 618.685 -0.934081 1.72197 0
M  V30 6096 H 617.265 0.519998 0.536294 0
M  V30 6097 H 619.927 1.7709 0.813941 0
M  V30 6098 H 619.023 2.10439 2.30482 0
M  V30 6099 N 619.324 -0.923095 1.27737 0
M  V30 6100 C 620.287 -2.00587 1.10894 0
M  V30 6101 C 621.287 -1.60718 0.0514927 0
M  V30 6102 O 622.477 -1.71658 0.296481 0
M  V30 6103 C 619.609 -3.33829 0.690717 0
M  V30 6104 H 620.802 -2.16959 2.07048 0
M  V30 6105 H 618.355 -1.10451 1.1059 0
M  V30 6106 H 619.09 -3.23157 -0.272 0
M  V30 6107 H 618.875 -3.64125 1.45448 0
M  V30 6108 H 620.365 -4.13336 0.595252 0
M  V30 6109 N 620.802 -1.09834 -1.13024 0
M  V30 6110 C 622.213 -0.855651 -1.65938 0
M  V30 6111 C 622.564 0.615159 -1.86307 0
M  V30 6112 O 621.689 1.47335 -1.58497 0
M  V30 6113 C 622.284 -1.5467 -3.01434 0
M  V30 6114 C 620.843 -1.35088 -3.51323 0
M  V30 6115 C 619.99 -1.6001 -2.26478 0
M  V30 6116 H 622.941 -1.25691 -0.968889 0
M  V30 6117 H 622.962 -0.982179 -3.67605 0
M  V30 6118 H 622.474 -2.61715 -2.86578 0
M  V30 6119 H 620.575 -0.30179 -3.71376 0
M  V30 6120 H 620.688 -2.0886 -4.31178 0
M  V30 6121 H 619.052 -1.02246 -2.33276 0
M  V30 6122 H 619.835 -2.68293 -2.14182 0
M  V30 6123 N 622.28 1.30327 -0.886154 0
M  V30 6124 C 623.526 1.96388 -0.505941 0
M  V30 6125 C 623.859 1.69784 0.942712 0
M  V30 6126 O 623.134 1.00322 1.6663 0
M  V30 6127 C 623.417 3.51488 -0.782826 0
M  V30 6128 C 623.27 3.87603 -2.28219 0
M  V30 6129 C 624.589 4.39331 -0.260128 0
M  V30 6130 H 621.708 0.713327 -0.185292 0
M  V30 6131 H 624.35 1.54178 -1.11036 0
M  V30 6132 H 622.5 3.87572 -0.268399 0
M  V30 6133 H 624.172 3.61537 -2.86512 0
M  V30 6134 H 622.415 3.3563 -2.74837 0
M  V30 6135 H 623.086 4.95806 -2.42653 0
M  V30 6136 H 625.562 4.10162 -0.700444 0
M  V30 6137 H 624.438 5.46769 -0.483179 0
M  V30 6138 H 624.699 4.34072 0.838674 0
M  V30 6139 N 623.758 0.647228 1.43697 0
M  V30 6140 C 625.004 0.158422 2.0218 0
M  V30 6141 C 625.337 -1.22233 1.50907 0
M  V30 6142 O 624.612 -1.81478 0.699702 0
M  V30 6143 C 624.895 0.1627 3.59732 0
M  V30 6144 C 624.748 1.57694 4.21251 0
M  V30 6145 C 626.067 -0.504138 4.37203 0
M  V30 6146 H 623.186 0.059042 0.734631 0
M  V30 6147 H 625.828 0.826772 1.71069 0
M  V30 6148 H 623.978 -0.406414 3.86368 0
M  V30 6149 H 625.65 2.19618 4.05667 0
M  V30 6150 H 623.893 2.12603 3.7813 0
M  V30 6151 H 624.564 1.53183 5.3032 0
M  V30 6152 H 627.04 -0.0199841 4.16095 0
M  V30 6153 H 625.916 -0.470394 5.46881 0
M  V30 6154 H 626.177 -1.57726 4.13007 0
M  V30 6155 N 625.236 -1.5273 0.388769 0
M  V30 6156 C 626.484 -2.01174 -0.193208 0
M  V30 6157 C 626.805 -1.27705 -1.47365 0
M  V30 6158 O 626.075 -0.396966 -1.91836 0
M  V30 6159 H 624.655 -0.743287 -0.0743871 0
M  V30 6160 H 627.317 -1.87826 0.520336 0
M  V30 6161 H 626.413 -3.09477 -0.403803 0
M  V30 6162 N 626.714 -0.118576 -1.57153 0
M  V30 6163 C 627.944 0.546466 -1.99242 0
M  V30 6164 C 628.352 1.60791 -0.997148 0
M  V30 6165 O 627.695 1.83691 0.0181745 0
M  V30 6166 C 627.757 1.23167 -3.37743 0
M  V30 6167 C 627.421 0.318226 -4.55891 0
M  V30 6168 C 628.418 -0.442988 -5.18009 0
M  V30 6169 C 626.103 0.229421 -5.01776 0
M  V30 6170 C 628.097 -1.28074 -6.244 0
M  V30 6171 C 625.784 -0.611966 -6.08028 0
M  V30 6172 C 626.782 -1.36568 -6.69207 0
M  V30 6173 O 626.47 -2.1931 -7.73407 0
M  V30 6174 H 626.202 0.149297 -0.659307 0
M  V30 6175 H 628.756 -0.201603 -2.04408 0
M  V30 6176 H 626.986 2.0268 -3.29329 0
M  V30 6177 H 628.675 1.79358 -3.64123 0
M  V30 6178 H 629.441 -0.38425 -4.83475 0
M  V30 6179 H 625.32 0.805771 -4.53903 0
M  V30 6180 H 628.864 -1.86952 -6.72082 0
M  V30 6181 H 624.761 -0.6721 -6.41991 0
M  V30 6182 H 625.529 -2.12247 -7.90502 0
M  V30 6183 N 628.193 1.56834 0.155195 0
M  V30 6184 C 629.47 1.73799 0.897395 0
M  V30 6185 C 629.85 0.684379 1.99698 0
M  V30 6186 O 629.198 -0.298111 2.26547 0
M  V30 6187 C 629.408 3.17572 1.44737 0
M  V30 6188 C 630.756 3.79014 1.91399 0
M  V30 6189 O 631.78 3.20951 1.54496 0
M  V30 6190 O 630.639 4.80998 2.59429 0
M  V30 6191 H 627.733 0.710329 0.423511 0
M  V30 6192 H 630.279 1.69107 0.141761 0
M  V30 6193 H 629.051 3.85749 0.656741 0
M  V30 6194 H 628.674 3.26657 2.26674 0
M  V30 6195 N 629.671 -0.424282 1.51781 0
M  V30 6196 C 630.603 -1.53457 1.70246 0
M  V30 6197 C 631.616 -1.52004 0.582967 0
M  V30 6198 O 632.805 -1.56544 0.857683 0
M  V30 6199 C 629.905 -2.92368 1.71389 0
M  V30 6200 C 629.078 -3.1818 3.00133 0
M  V30 6201 C 628.137 -4.36884 2.9329 0
M  V30 6202 O 627.163 -4.34901 3.67219 0
M  V30 6203 N 628.365 -5.4117 2.10036 0
M  V30 6204 H 631.13 -1.38017 2.66029 0
M  V30 6205 H 628.691 -0.613394 1.4983 0
M  V30 6206 H 630.683 -3.6982 1.64362 0
M  V30 6207 H 629.253 -3.0134 0.831449 0
M  V30 6208 H 628.473 -2.28908 3.20928 0
M  V30 6209 H 629.761 -3.32261 3.85331 0
M  V30 6210 H 629.159 -5.45623 1.49373 0
M  V30 6211 H 627.716 -6.17425 2.08878 0
M  V30 6212 N 631.149 -1.42148 -0.680565 0
M  V30 6213 C 632.079 -1.4796 -1.80638 0
M  V30 6214 C 633.06 -0.336728 -1.66734 0
M  V30 6215 O 634.245 -0.550247 -1.86242 0
M  V30 6216 C 631.375 -1.37569 -3.18892 0
M  V30 6217 C 630.329 -2.49823 -3.47524 0
M  V30 6218 C 629.655 -2.24491 -4.85291 0
M  V30 6219 C 630.955 -3.92144 -3.44994 0
M  V30 6220 H 632.649 -2.42184 -1.76032 0
M  V30 6221 H 630.195 -1.16566 -0.845481 0
M  V30 6222 H 632.148 -1.40243 -3.97379 0
M  V30 6223 H 630.872 -0.398357 -3.24162 0
M  V30 6224 H 629.531 -2.46455 -2.71395 0
M  V30 6225 H 629.179 -1.25066 -4.87204 0
M  V30 6226 H 628.879 -2.99722 -5.05411 0
M  V30 6227 H 630.403 -2.28906 -5.66069 0
M  V30 6228 H 631.817 -3.97145 -4.13459 0
M  V30 6229 H 630.214 -4.67179 -3.76648 0
M  V30 6230 H 631.284 -4.19225 -2.43676 0
M  V30 6231 N 632.627 0.916307 -1.28225 0
M  V30 6232 C 633.59 1.99996 -1.11957 0
M  V30 6233 C 634.59 1.60688 -0.0600152 0
M  V30 6234 O 635.78 1.71499 -0.30558 0
M  V30 6235 C 632.912 3.33458 -0.708411 0
M  V30 6236 H 634.105 2.15858 -2.08196 0
M  V30 6237 H 631.658 1.09863 -1.11175 0
M  V30 6238 H 632.393 3.23297 0.254859 0
M  V30 6239 H 632.178 3.63349 -1.47377 0
M  V30 6240 H 633.668 4.13014 -0.617164 0
M  V30 6241 N 634.105 1.10431 1.1244 0
M  V30 6242 C 635.068 0.756542 2.16354 0
M  V30 6243 C 636.068 -0.21899 1.59302 0
M  V30 6244 O 637.258 0.00415969 1.742 0
M  V30 6245 C 634.39 0.120612 3.40687 0
M  V30 6246 H 635.583 1.67696 2.48632 0
M  V30 6247 H 633.136 0.904832 1.27446 0
M  V30 6248 H 633.871 -0.810536 3.14008 0
M  V30 6249 H 633.656 0.822693 3.83372 0
M  V30 6250 H 635.146 -0.106945 4.17463 0
M  V30 6251 N 635.583 -1.29855 0.893053 0
M  V30 6252 C 636.999 -1.48366 0.588199 0
M  V30 6253 C 637.199 -1.81654 -0.872018 0
M  V30 6254 O 636.255 -1.909 -1.65268 0
M  V30 6255 C 637.568 -2.60136 1.5083 0
M  V30 6256 C 639.116 -2.74014 1.51279 0
M  V30 6257 C 639.591 -3.88905 2.41902 0
M  V30 6258 N 641.082 -3.96228 2.39911 0
M  V30 6259 C 641.817 -4.84458 3.06738 0
M  V30 6260 N 641.313 -5.77426 3.8282 0
M  V30 6261 N 643.106 -4.77894 2.95929 0
M  V30 6262 H 635.257 -1.06522 1.83757 0
M  V30 6263 H 637.52 -0.528495 0.787018 0
M  V30 6264 H 637.226 -2.42383 2.54839 0
M  V30 6265 H 637.1 -3.56793 1.22388 0
M  V30 6266 H 639.487 -2.91167 0.480179 0
M  V30 6267 H 639.568 -1.77952 1.83757 0
M  V30 6268 H 639.212 -3.72508 3.45253 0
M  V30 6269 H 639.142 -4.84322 2.06737 0
M  V30 6270 H 641.633 -3.29728 1.84629 0
M  V30 6271 H 641.946 -6.41529 4.30883 0
M  V30 6272 H 640.291 -5.77332 3.86927 0
M  V30 6273 H 643.482 -4.04248 2.36012 0
M  V30 6274 H 643.655 -5.46444 3.48286 0
M  V30 6275 N 637.061 -0.65484 -1.43351 0
M  V30 6276 C 638.011 0.0581325 -2.27926 0
M  V30 6277 C 638.995 0.793188 -1.3999 0
M  V30 6278 O 640.187 0.675387 -1.63608 0
M  V30 6279 C 637.316 1.02272 -3.27712 0
M  V30 6280 C 636.402 0.286048 -4.23134 0
M  V30 6281 N 636.793 -0.698298 -5.00957 0
M  V30 6282 C 635.091 0.527272 -4.42872 0
M  V30 6283 C 635.792 -1.1357 -5.70506 0
M  V30 6284 N 634.768 -0.469631 -5.41568 0
M  V30 6285 H 638.57 -0.697182 -2.85511 0
M  V30 6286 H 636.084 -0.482252 -1.55074 0
M  V30 6287 H 638.081 1.5483 -3.87083 0
M  V30 6288 H 636.741 1.77807 -2.71688 0
M  V30 6289 H 637.752 -1.07708 -5.06576 0
M  V30 6290 H 634.429 1.26367 -3.97916 0
M  V30 6291 H 635.819 -1.95027 -6.42973 0
M  V30 6292 N 638.539 1.52521 -0.396863 0
M  V30 6293 C 639.786 2.01672 0.182898 0
M  V30 6294 C 640.114 1.28302 1.46181 0
M  V30 6295 O 639.369 0.374118 1.92091 0
M  V30 6296 C 639.668 3.5403 0.489677 0
M  V30 6297 C 639.334 4.45456 -0.698581 0
M  V30 6298 C 637.996 4.70166 -1.02454 0
M  V30 6299 C 640.348 4.99354 -1.49316 0
M  V30 6300 C 637.676 5.46024 -2.1465 0
M  V30 6301 C 640.028 5.76439 -2.60579 0
M  V30 6302 C 638.692 5.99426 -2.93675 0
M  V30 6303 H 637.962 0.737971 0.066927 0
M  V30 6304 H 640.609 1.83853 -0.535764 0
M  V30 6305 H 638.914 3.69963 1.28976 0
M  V30 6306 H 640.611 3.8956 0.951018 0
M  V30 6307 H 637.201 4.26392 -0.434525 0
M  V30 6308 H 641.385 4.80182 -1.25457 0
M  V30 6309 H 636.641 5.62046 -2.40654 0
M  V30 6310 H 640.815 6.17202 -3.22544 0
M  V30 6311 H 638.442 6.57988 -3.80731 0
M  V30 6312 N 640.017 0.126909 1.57088 0
M  V30 6313 C 640.98 -0.806097 2.14557 0
M  V30 6314 C 641.98 -1.18918 1.08236 0
M  V30 6315 O 643.17 -1.11339 1.33975 0
M  V30 6316 C 640.302 -2.09116 2.69227 0
M  V30 6317 H 641.495 -0.306522 2.98329 0
M  V30 6318 H 639.048 -0.122393 1.5582 0
M  V30 6319 H 639.783 -2.63486 1.89065 0
M  V30 6320 H 639.568 -1.82588 3.46993 0
M  V30 6321 H 641.058 -2.75794 3.13572 0
M  V30 6322 N 641.495 -1.56914 -0.146875 0
M  V30 6323 C 642.772 -1.74273 -0.888165 0
M  V30 6324 C 643.152 -0.69496 -1.99333 0
M  V30 6325 O 642.5 0.286093 -2.26702 0
M  V30 6326 C 642.71 -3.18336 -1.43051 0
M  V30 6327 C 644.058 -3.80024 -1.89387 0
M  V30 6328 O 645.082 -3.21765 -1.52792 0
M  V30 6329 O 643.941 -4.82367 -2.56874 0
M  V30 6330 H 641.035 -0.712565 -0.419738 0
M  V30 6331 H 643.581 -1.6918 -0.132791 0
M  V30 6332 H 642.353 -3.86092 -0.636274 0
M  V30 6333 H 641.976 -3.27854 -2.24938 0
M  V30 6334 N 642.974 0.416227 -1.52004 0
M  V30 6335 C 644.204 1.18401 -1.69307 0
M  V30 6336 C 644.612 1.84943 -0.399072 0
M  V30 6337 O 643.955 1.72406 0.634177 0
M  V30 6338 C 644.017 2.29465 -2.76742 0
M  V30 6339 C 643.681 1.83117 -4.18709 0
M  V30 6340 C 644.678 1.32286 -5.02789 0
M  V30 6341 C 642.363 1.90167 -4.64911 0
M  V30 6342 C 644.357 0.891178 -6.31139 0
M  V30 6343 C 642.044 1.4661 -5.93253 0
M  V30 6344 C 643.042 0.961696 -6.76196 0
M  V30 6345 O 642.73 0.532388 -8.02135 0
M  V30 6346 H 642.462 0.362098 -0.570843 0
M  V30 6347 H 645.016 0.496764 -1.99302 0
M  V30 6348 H 643.246 3.01531 -2.42107 0
M  V30 6349 H 644.935 2.91252 -2.82713 0
M  V30 6350 H 645.701 1.26218 -4.68288 0
M  V30 6351 H 641.58 2.28371 -4.00459 0
M  V30 6352 H 645.124 0.496788 -6.95829 0
M  V30 6353 H 641.021 1.52355 -6.27263 0
M  V30 6354 H 641.789 0.656339 -8.15864 0
M  V30 6355 N 644.452 1.42507 0.673017 0
M  V30 6356 C 645.698 1.43284 1.43519 0
M  V30 6357 C 646.031 0.049668 1.94136 0
M  V30 6358 O 645.306 -0.926369 1.71022 0
M  V30 6359 C 645.589 2.45874 2.63093 0
M  V30 6360 C 645.442 3.93388 2.18096 0
M  V30 6361 C 646.761 2.45431 3.6531 0
M  V30 6362 H 643.88 0.521752 0.520522 0
M  V30 6363 H 646.522 1.73932 0.764701 0
M  V30 6364 H 644.672 2.19869 3.20296 0
M  V30 6365 H 646.344 4.30379 1.66046 0
M  V30 6366 H 644.587 4.07169 1.49652 0
M  V30 6367 H 645.258 4.60752 3.03993 0
M  V30 6368 H 647.734 2.68561 3.17827 0
M  V30 6369 H 646.61 3.19189 4.46553 0
M  V30 6370 H 646.871 1.48092 4.16559 0
M  V30 6371 N 645.93 -0.909495 1.28709 0
M  V30 6372 C 647.207 -1.63865 1.06806 0
M  V30 6373 C 647.587 -2.07445 -0.391143 0
M  V30 6374 O 646.935 -1.82269 -1.37805 0
M  V30 6375 C 647.145 -2.82692 2.04661 0
M  V30 6376 C 648.493 -3.5361 2.35042 0
M  V30 6377 O 649.517 -2.92847 2.02779 0
M  V30 6378 O 648.376 -4.63131 2.90124 0
M  V30 6379 H 645.47 -0.719065 0.408502 0
M  V30 6380 H 648.016 -0.958424 1.40044 0
M  V30 6381 H 646.788 -2.47614 3.0299 0
M  V30 6382 H 646.411 -3.58426 1.72095 0
M  V30 6383 N 647.408 -1.11026 -1.11852 0
M  V30 6384 C 648.819 -0.873203 -1.65021 0
M  V30 6385 C 649.17 0.595364 -1.86949 0
M  V30 6386 O 648.295 1.45645 -1.60051 0
M  V30 6387 C 648.89 -1.57859 -2.99777 0
M  V30 6388 C 647.449 -1.38807 -3.49871 0
M  V30 6389 C 646.596 -1.62403 -2.24768 0
M  V30 6390 H 649.547 -1.26712 -0.955503 0
M  V30 6391 H 649.568 -1.02111 -3.66543 0
M  V30 6392 H 649.08 -2.6474 -2.83786 0
M  V30 6393 H 647.181 -0.341163 -3.71035 0
M  V30 6394 H 647.294 -2.13421 -4.28938 0
M  V30 6395 H 645.658 -1.04714 -2.32179 0
M  V30 6396 H 646.441 -2.70549 -2.11324 0
M  V30 6397 N 648.886 1.2938 -0.899927 0
M  V30 6398 C 649.836 2.25311 -0.349165 0
M  V30 6399 C 650.82 1.51889 0.530892 0
M  V30 6400 O 652.012 1.73028 0.372872 0
M  V30 6401 C 649.141 3.40696 0.422055 0
M  V30 6402 C 648.227 4.21455 -0.472935 0
M  V30 6403 N 648.618 4.8048 -1.58026 0
M  V30 6404 C 646.916 4.45177 -0.270767 0
M  V30 6405 C 647.617 5.41117 -2.13465 0
M  V30 6406 N 646.593 5.24518 -1.42766 0
M  V30 6407 H 650.395 2.68507 -1.19505 0
M  V30 6408 H 647.909 1.43992 -0.751006 0
M  V30 6409 H 649.906 4.08486 0.833369 0
M  V30 6410 H 648.566 2.99037 1.2652 0
M  V30 6411 H 649.577 4.79257 -1.96299 0
M  V30 6412 H 646.254 4.14071 0.533988 0
M  V30 6413 H 647.644 5.979 -3.06537 0
M  V30 6414 N 650.364 0.662433 1.43002 0
M  V30 6415 C 651.594 0.187343 2.05749 0
M  V30 6416 C 652.002 -1.15582 1.49791 0
M  V30 6417 O 651.345 -1.72651 0.627487 0
M  V30 6418 C 651.407 0.0316493 3.59486 0
M  V30 6419 C 651.071 1.30156 4.38073 0
M  V30 6420 C 652.068 2.23234 4.69535 0
M  V30 6421 C 649.753 1.54572 4.77926 0
M  V30 6422 C 651.747 3.39012 5.39768 0
M  V30 6423 C 649.434 2.70641 5.47902 0
M  V30 6424 C 650.432 3.62687 5.78746 0
M  V30 6425 O 650.12 4.76728 6.47291 0
M  V30 6426 H 649.852 0.0915214 0.669776 0
M  V30 6427 H 652.406 0.905982 1.8434 0
M  V30 6428 H 650.636 -0.742451 3.79506 0
M  V30 6429 H 652.325 -0.401977 4.03905 0
M  V30 6430 H 653.091 2.05616 4.39257 0
M  V30 6431 H 648.97 0.83804 4.53319 0
M  V30 6432 H 652.514 4.10877 5.63761 0
M  V30 6433 H 648.411 2.88189 5.77596 0
M  V30 6434 H 649.179 4.76113 6.65777 0
M  V30 6435 N 651.842 -1.52309 0.404946 0
M  V30 6436 C 653.253 -1.86585 -0.0655926 0
M  V30 6437 C 653.604 -1.3239 -1.44801 0
M  V30 6438 O 652.729 -0.6615 -2.06042 0
M  V30 6439 C 653.324 -3.38566 -0.125801 0
M  V30 6440 C 651.883 -3.72497 -0.540666 0
M  V30 6441 C 651.03 -2.75806 0.287487 0
M  V30 6442 H 653.981 -1.45995 0.622185 0
M  V30 6443 H 654.002 -3.68658 -0.941888 0
M  V30 6444 H 653.514 -3.77981 0.880473 0
M  V30 6445 H 651.615 -3.38659 -1.55373 0
M  V30 6446 H 651.728 -4.78234 -0.287956 0
M  V30 6447 H 650.092 -2.53474 -0.249561 0
M  V30 6448 H 650.875 -3.18059 1.29203 0
M  V30 6449 N 653.32 -0.135238 -1.57019 0
M  V30 6450 C 654.568 0.51777 -1.95355 0
M  V30 6451 C 654.889 1.6617 -1.02042 0
M  V30 6452 O 654.159 1.95738 -0.0797343 0
M  V30 6453 H 652.739 0.194264 -0.721298 0
M  V30 6454 H 655.401 -0.207983 -1.93787 0
M  V30 6455 H 654.497 0.901675 -2.98791 0
M  V30 6456 N 654.798 1.5699 0.138552 0
M  V30 6457 C 656.044 1.84966 0.846116 0
M  V30 6458 C 656.399 0.72038 1.78405 0
M  V30 6459 O 655.692 -0.281076 1.89527 0
M  V30 6460 C 655.886 3.17007 1.65049 0
M  V30 6461 C 655.715 4.42672 0.79194 0
M  V30 6462 C 654.485 5.03254 0.454293 0
M  V30 6463 C 656.683 5.14164 0.118419 0
M  V30 6464 N 654.665 6.12482 -0.416964 0
M  V30 6465 C 656.036 6.16966 -0.61263 0
M  V30 6466 C 658.091 4.97884 0.0399671 0
M  V30 6467 C 656.794 7.0525 -1.41473 0
M  V30 6468 C 658.82 5.86639 -0.748901 0
M  V30 6469 C 658.182 6.88929 -1.4682 0
M  V30 6470 H 654.281 0.727362 0.287172 0
M  V30 6471 H 656.865 1.94383 0.110972 0
M  V30 6472 H 655.036 3.08722 2.35681 0
M  V30 6473 H 656.768 3.3286 2.30187 0
M  V30 6474 H 653.523 4.6693 0.792038 0
M  V30 6475 H 653.947 6.7172 -0.843865 0
M  V30 6476 H 658.589 4.18779 0.581728 0
M  V30 6477 H 656.307 7.83777 -1.96772 0
M  V30 6478 H 659.893 5.7611 -0.811705 0
M  V30 6479 H 658.773 7.56419 -2.06882 0
M  V30 6480 N 656.276 -0.40816 1.52223 0
M  V30 6481 C 657.524 -1.15274 1.66001 0
M  V30 6482 C 657.845 -1.91003 0.392803 0
M  V30 6483 O 657.115 -1.8673 -0.592336 0
M  V30 6484 H 655.695 -0.428526 0.611861 0
M  V30 6485 H 658.357 -0.46512 1.89269 0
M  V30 6486 H 657.453 -1.86628 2.50153 0
M  V30 6487 N 657.755 -1.42862 -0.66545 0
M  V30 6488 C 659.171 -1.25993 -0.979687 0
M  V30 6489 C 659.371 -0.170831 -2.00775 0
M  V30 6490 O 658.427 0.454827 -2.4837 0
M  V30 6491 C 659.74 -2.62005 -1.47559 0
M  V30 6492 C 661.288 -2.69437 -1.59288 0
M  V30 6493 C 661.763 -4.05838 -2.12272 0
M  V30 6494 N 663.254 -4.0784 -2.19592 0
M  V30 6495 C 663.989 -5.10205 -2.61684 0
M  V30 6496 N 663.485 -6.22949 -3.03161 0
M  V30 6497 N 665.278 -4.9756 -2.61516 0
M  V30 6498 H 657.429 -2.12395 0.0150493 0
M  V30 6499 H 659.692 -0.946355 -0.0558187 0
M  V30 6500 H 659.398 -3.42605 -0.794654 0
M  V30 6501 H 659.272 -2.86566 -2.45275 0
M  V30 6502 H 661.659 -1.89178 -2.26486 0
M  V30 6503 H 661.74 -2.48655 -0.600374 0
M  V30 6504 H 661.384 -4.86559 -1.4568 0
M  V30 6505 H 661.314 -4.23977 -3.12331 0
M  V30 6506 H 663.805 -3.26452 -1.90361 0
M  V30 6507 H 664.118 -6.96899 -3.33993 0
M  V30 6508 H 662.463 -6.2644 -3.00995 0
M  V30 6509 H 665.654 -4.08551 -2.28481 0
M  V30 6510 H 665.827 -5.77468 -2.93999 0
M  V30 6511 N 659.233 0.902656 -1.29189 0
M  V30 6512 C 660.649 1.18296 -1.07137 0
M  V30 6513 C 660.849 2.00701 0.179223 0
M  V30 6514 O 659.905 2.3675 0.877812 0
M  V30 6515 C 661.218 1.90677 -2.32514 0
M  V30 6516 C 662.766 2.03515 -2.37804 0
M  V30 6517 C 663.241 2.79307 -3.62976 0
M  V30 6518 N 664.732 2.86862 -3.63681 0
M  V30 6519 C 665.467 3.46035 -4.57217 0
M  V30 6520 N 664.963 4.06399 -5.61081 0
M  V30 6521 N 666.756 3.43681 -4.44792 0
M  V30 6522 H 658.907 0.352765 -2.0945 0
M  V30 6523 H 661.17 0.21876 -0.922414 0
M  V30 6524 H 660.876 1.3756 -3.23682 0
M  V30 6525 H 660.75 2.91169 -2.39793 0
M  V30 6526 H 663.137 2.55809 -1.47125 0
M  V30 6527 H 663.218 1.02166 -2.34512 0
M  V30 6528 H 662.862 2.2769 -4.54004 0
M  V30 6529 H 662.792 3.80995 -3.63525 0
M  V30 6530 H 665.283 2.43987 -2.88581 0
M  V30 6531 H 665.596 4.49564 -6.2858 0
M  V30 6532 H 663.941 4.0487 -5.64894 0
M  V30 6533 H 667.132 2.9574 -3.62843 0
M  V30 6534 H 667.305 3.89503 -5.17872 0
M  V30 6535 N 660.711 1.11618 1.11262 0
M  V30 6536 C 661.941 0.88745 1.86569 0
M  V30 6537 C 662.349 -0.56636 1.80524 0
M  V30 6538 O 661.692 -1.40289 1.18594 0
M  V30 6539 C 661.754 1.27313 3.36202 0
M  V30 6540 C 661.418 2.73649 3.66013 0
M  V30 6541 C 662.415 3.71863 3.63337 0
M  V30 6542 C 660.1 3.10342 3.9496 0
M  V30 6543 C 662.094 5.04788 3.89188 0
M  V30 6544 C 659.781 4.43451 4.20469 0
M  V30 6545 C 660.779 5.40484 4.17572 0
M  V30 6546 O 660.467 6.71195 4.42439 0
M  V30 6547 H 660.199 0.317543 0.596777 0
M  V30 6548 H 662.753 1.48768 1.41624 0
M  V30 6549 H 660.983 0.616062 3.81761 0
M  V30 6550 H 662.672 1.01991 3.92877 0
M  V30 6551 H 663.438 3.44861 3.41022 0
M  V30 6552 H 659.317 2.35431 3.9635 0
M  V30 6553 H 662.861 5.80516 3.86842 0
M  V30 6554 H 658.758 4.70187 4.42261 0
M  V30 6555 H 659.526 6.77012 4.59997 0
M  V30 6556 N 662.189 -1.289 0.906776 0
M  V30 6557 C 663.099 -2.31256 0.394707 0
M  V30 6558 C 664.115 -1.66231 -0.514121 0
M  V30 6559 O 665.291 -1.97347 -0.401994 0
M  V30 6560 C 662.356 -3.44792 -0.363191 0
M  V30 6561 C 661.417 -4.25391 0.578012 0
M  V30 6562 C 660.65 -5.33506 -0.143811 0
M  V30 6563 O 660.873 -5.53786 -1.36665 0
M  V30 6564 O 659.807 -5.99673 0.5173 0
M  V30 6565 H 663.633 -2.77051 1.24405 0
M  V30 6566 H 661.218 -1.33466 0.671346 0
M  V30 6567 H 663.1 -4.139 -0.791503 0
M  V30 6568 H 661.775 -3.01093 -1.18848 0
M  V30 6569 H 660.682 -3.58899 1.05558 0
M  V30 6570 H 662.015 -4.72752 1.36992 0
M  V30 6571 N 663.667 -0.670007 -1.42649 0
M  V30 6572 C 665.078 -0.268118 -1.84765 0
M  V30 6573 C 665.429 1.18877 -1.56086 0
M  V30 6574 O 664.554 1.90947 -1.01825 0
M  V30 6575 C 665.149 -0.47984 -3.35385 0
M  V30 6576 C 663.708 -0.132116 -3.76168 0
M  V30 6577 C 662.855 -0.774611 -2.66261 0
M  V30 6578 H 665.806 -0.872509 -1.32563 0
M  V30 6579 H 665.827 0.269522 -3.79544 0
M  V30 6580 H 665.339 -1.54026 -3.56227 0
M  V30 6581 H 663.44 0.92505 -3.60934 0
M  V30 6582 H 663.553 -0.569294 -4.75706 0
M  V30 6583 H 661.917 -0.206353 -2.53863 0
M  V30 6584 H 662.7 -1.83839 -2.89928 0
M  V30 6585 N 665.145 1.52092 -0.413018 0
M  V30 6586 C 666.108 2.25706 0.398687 0
M  V30 6587 C 667.108 1.28221 0.970368 0
M  V30 6588 O 668.298 1.52131 0.848635 0
M  V30 6589 C 665.43 3.03029 1.5616 0
M  V30 6590 H 666.623 2.98888 -0.246131 0
M  V30 6591 H 664.176 1.5542 -0.165622 0
M  V30 6592 H 664.911 2.34205 2.24317 0
M  V30 6593 H 664.696 3.74606 1.15812 0
M  V30 6594 H 666.186 3.58857 2.13569 0
M  V30 6595 N 666.623 0.143563 1.56945 0
M  V30 6596 C 668.034 -0.37783 1.82837 0
M  V30 6597 C 668.385 -1.64967 1.06209 0
M  V30 6598 O 667.51 -2.14221 0.306291 0
M  V30 6599 C 668.105 -0.692274 3.31652 0
M  V30 6600 C 666.664 -1.1582 3.58138 0
M  V30 6601 C 665.811 -0.17951 2.76718 0
M  V30 6602 H 668.762 0.368317 1.54367 0
M  V30 6603 H 668.783 -1.54729 3.47619 0
M  V30 6604 H 668.295 0.233572 3.87397 0
M  V30 6605 H 666.396 -2.10011 3.07776 0
M  V30 6606 H 666.509 -1.08655 4.66616 0
M  V30 6607 H 664.873 -0.671458 2.4569 0
M  V30 6608 H 665.656 0.739865 3.35233 0
M  V30 6609 N 668.101 -1.57061 -0.130224 0
M  V30 6610 C 669.326 -1.88802 -0.858409 0
M  V30 6611 C 669.751 -0.734353 -1.73173 0
M  V30 6612 O 669.109 0.315529 -1.78533 0
M  V30 6613 C 669.157 -3.19228 -1.67708 0
M  V30 6614 O 668.261 -3.04343 -2.78297 0
M  V30 6615 H 667.602 -0.619849 -0.238083 0
M  V30 6616 H 670.132 -2.04271 -0.115995 0
M  V30 6617 H 670.142 -3.51669 -2.06864 0
M  V30 6618 H 668.817 -4.02793 -1.0359 0
M  V30 6619 H 667.394 -2.83346 -2.42425 0
M  V30 6620 N 669.579 0.400081 -1.52437 0
M  V30 6621 C 670.509 1.4947 -1.7939 0
M  V30 6622 C 671.49 1.57383 -0.645329 0
M  V30 6623 O 672.675 1.72511 -0.891826 0
M  V30 6624 C 669.805 2.87201 -1.95276 0
M  V30 6625 C 668.759 2.94134 -3.10917 0
M  V30 6626 C 668.085 4.34207 -3.1204 0
M  V30 6627 C 669.385 2.64791 -4.50203 0
M  V30 6628 H 671.079 1.27165 -2.71052 0
M  V30 6629 H 668.625 0.610312 -1.30427 0
M  V30 6630 H 670.578 3.63772 -2.12715 0
M  V30 6631 H 669.302 3.10819 -1.00294 0
M  V30 6632 H 667.961 2.20009 -2.93243 0
M  V30 6633 H 667.609 4.54848 -2.14761 0
M  V30 6634 H 667.309 4.39768 -3.89715 0
M  V30 6635 H 668.833 5.127 -3.31619 0
M  V30 6636 H 670.247 3.31083 -4.68035 0
M  V30 6637 H 668.644 2.81717 -5.29864 0
M  V30 6638 H 669.714 1.60184 -4.57678 0
M  V30 6639 N 671.057 1.43213 0.657864 0
M  V30 6640 C 672.007 1.44459 1.76396 0
M  V30 6641 C 672.991 0.313641 1.57814 0
M  V30 6642 O 674.183 0.557094 1.68004 0
M  V30 6643 C 671.312 1.36586 3.14959 0
M  V30 6644 C 670.398 2.54692 3.39106 0
M  V30 6645 N 670.789 3.80059 3.33749 0
M  V30 6646 C 669.087 2.49316 3.69807 0
M  V30 6647 C 669.788 4.58606 3.57849 0
M  V30 6648 N 668.764 3.89267 3.79437 0
M  V30 6649 H 672.566 2.39265 1.70673 0
M  V30 6650 H 670.08 1.378 0.859357 0
M  V30 6651 H 672.077 1.35561 3.94245 0
M  V30 6652 H 670.737 0.427956 3.21867 0
M  V30 6653 H 671.748 4.12414 3.13266 0
M  V30 6654 H 668.425 1.6419 3.83859 0
M  V30 6655 H 669.815 5.67619 3.59525 0
M  V30 6656 N 672.536 -0.895792 1.29666 0
M  V30 6657 C 673.947 -1.46195 1.1612 0
M  V30 6658 C 674.298 -1.94699 -0.242195 0
M  V30 6659 O 673.423 -1.8406 -1.13802 0
M  V30 6660 C 674.018 -2.65718 2.10189 0
M  V30 6661 C 672.577 -3.18458 2.00653 0
M  V30 6662 C 671.724 -1.91149 2.00891 0
M  V30 6663 H 674.675 -0.706756 1.42094 0
M  V30 6664 H 674.696 -3.4158 1.6764 0
M  V30 6665 H 674.208 -2.30386 3.12321 0
M  V30 6666 H 672.309 -3.58474 1.01623 0
M  V30 6667 H 672.422 -3.82491 2.88509 0
M  V30 6668 H 670.786 -2.09021 1.45542 0
M  V30 6669 H 671.569 -1.58089 3.04734 0
M  V30 6670 N 674.014 -1.12206 -1.10668 0
M  V30 6671 C 675.239 -0.898938 -1.86906 0
M  V30 6672 C 675.664 0.546346 -1.79991 0
M  V30 6673 O 675.022 1.38655 -1.1681 0
M  V30 6674 C 675.07 -1.37529 -3.33344 0
M  V30 6675 O 674.174 -0.55218 -4.08687 0
M  V30 6676 H 673.515 -0.323163 -0.580053 0
M  V30 6677 H 676.045 -1.49355 -1.39837 0
M  V30 6678 H 676.055 -1.3733 -3.84193 0
M  V30 6679 H 674.73 -2.42767 -3.37693 0
M  V30 6680 H 673.307 -0.620947 -3.67694 0
M  V30 6681 N 675.492 1.28418 -0.913599 0
M  V30 6682 C 676.722 1.98817 -0.56172 0
M  V30 6683 C 677.13 1.68457 0.861321 0
M  V30 6684 O 676.473 0.933653 1.58204 0
M  V30 6685 C 676.535 3.52801 -0.690785 0
M  V30 6686 C 676.199 4.0675 -2.08334 0
M  V30 6687 C 677.196 4.20597 -3.05604 0
M  V30 6688 C 674.881 4.41445 -2.39648 0
M  V30 6689 C 676.875 4.68392 -4.32305 0
M  V30 6690 C 674.562 4.88934 -3.66588 0
M  V30 6691 C 675.56 5.02364 -4.6273 0
M  V30 6692 O 675.248 5.48817 -5.87414 0
M  V30 6693 H 674.98 0.641608 -0.212874 0
M  V30 6694 H 677.534 1.64584 -1.22887 0
M  V30 6695 H 675.764 3.86686 0.0334336 0
M  V30 6696 H 677.453 4.04422 -0.346031 0
M  V30 6697 H 678.219 3.94067 -2.8273 0
M  V30 6698 H 674.098 4.30242 -1.65567 0
M  V30 6699 H 677.642 4.7879 -5.07352 0
M  V30 6700 H 673.539 5.14904 -3.89287 0
M  V30 6701 H 674.307 5.67103 -5.90201 0
M  V30 6702 N 676.97 0.677563 1.42291 0
M  V30 6703 C 678.381 0.277912 1.8462 0
M  V30 6704 C 678.732 -1.18048 1.56714 0
M  V30 6705 O 677.857 -1.90404 1.02836 0
M  V30 6706 C 678.452 0.497619 3.35126 0
M  V30 6707 C 677.011 0.152063 3.76093 0
M  V30 6708 C 676.158 0.78872 2.65847 0
M  V30 6709 H 679.109 0.879527 1.32098 0
M  V30 6710 H 679.13 -0.24939 3.79682 0
M  V30 6711 H 678.642 1.55913 3.55405 0
M  V30 6712 H 676.743 -0.905896 3.6142 0
M  V30 6713 H 676.856 0.594514 4.75397 0
M  V30 6714 H 675.22 0.219813 2.5375 0
M  V30 6715 H 676.003 1.85374 2.88949 0
M  V30 6716 N 678.448 -1.51871 0.421078 0
M  V30 6717 C 679.694 -2.02237 -0.151014 0
M  V30 6718 C 680.027 -1.30554 -1.43768 0
M  V30 6719 O 679.302 -0.41546 -1.90011 0
M  V30 6720 C 679.585 -3.5802 -0.386482 0
M  V30 6721 C 679.438 -4.40339 0.9177 0
M  V30 6722 C 680.757 -4.24444 -1.16342 0
M  V30 6723 H 677.876 -0.735062 -0.0534102 0
M  V30 6724 H 680.518 -1.81656 0.556888 0
M  V30 6725 H 678.668 -3.75688 -0.989494 0
M  V30 6726 H 680.34 -4.34357 1.55344 0
M  V30 6727 H 678.583 -4.06073 1.526 0
M  V30 6728 H 679.254 -5.47451 0.707187 0
M  V30 6729 H 681.73 -4.10948 -0.652788 0
M  V30 6730 H 680.606 -5.33358 -1.29693 0
M  V30 6731 H 680.867 -3.84204 -2.18724 0
M  V30 6732 N 679.926 -0.151884 -1.56866 0
M  V30 6733 C 681.337 0.368128 -1.83035 0
M  V30 6734 C 681.688 1.64402 -1.07082 0
M  V30 6735 O 680.813 2.14056 -0.317647 0
M  V30 6736 C 681.408 0.674676 -3.32014 0
M  V30 6737 C 679.967 1.13919 -3.58747 0
M  V30 6738 C 679.114 0.164833 -2.7681 0
M  V30 6739 H 682.065 -0.376499 -1.54169 0
M  V30 6740 H 682.086 1.52883 -3.48435 0
M  V30 6741 H 681.598 -0.254113 -3.87267 0
M  V30 6742 H 679.699 2.08375 -3.08886 0
M  V30 6743 H 679.812 1.06179 -4.67186 0
M  V30 6744 H 678.176 0.658419 -2.46043 0
M  V30 6745 H 678.959 -0.757633 -3.34836 0
M  V30 6746 N 681.404 1.57128 0.121893 0
M  V30 6747 C 682.815 1.73902 0.679348 0
M  V30 6748 C 683.166 0.770135 1.80453 0
M  V30 6749 O 682.291 -0.0576083 2.16323 0
M  V30 6750 C 682.886 3.15328 1.2391 0
M  V30 6751 C 681.445 3.33618 1.74288 0
M  V30 6752 C 680.592 2.6978 0.641414 0
M  V30 6753 H 683.543 1.58359 -0.104 0
M  V30 6754 H 683.564 3.16718 2.10879 0
M  V30 6755 H 683.076 3.85821 0.419957 0
M  V30 6756 H 681.177 2.68162 2.58689 0
M  V30 6757 H 681.29 4.4176 1.85432 0
M  V30 6758 H 679.654 2.30935 1.0743 0
M  V30 6759 H 680.437 3.42895 -0.166707 0
M  V30 6760 N 682.882 -0.391992 1.52647 0
M  V30 6761 C 684.293 -0.970064 1.5952 0
M  V30 6762 C 684.644 -1.91059 0.446207 0
M  V30 6763 O 683.769 -2.12062 -0.431125 0
M  V30 6764 C 684.364 -1.76614 2.89125 0
M  V30 6765 C 682.923 -2.29396 2.9842 0
M  V30 6766 C 682.07 -1.09864 2.54608 0
M  V30 6767 H 685.021 -0.171638 1.57769 0
M  V30 6768 H 685.042 -2.62511 2.75442 0
M  V30 6769 H 684.554 -1.08135 3.72731 0
M  V30 6770 H 682.655 -3.01196 2.19344 0
M  V30 6771 H 682.768 -2.59088 4.03002 0
M  V30 6772 H 681.132 -1.45777 2.08857 0
M  V30 6773 H 681.915 -0.429249 3.40606 0
M  V30 6774 N 684.36 -1.4356 -0.65026 0
M  V30 6775 C 685.771 -1.40324 -1.2315 0
M  V30 6776 C 686.122 -0.108812 -1.95898 0
M  V30 6777 O 685.247 0.79163 -2.01401 0
M  V30 6778 C 685.842 -2.54195 -2.23987 0
M  V30 6779 C 684.401 -2.54215 -2.77582 0
M  V30 6780 C 683.548 -2.31752 -1.5227 0
M  V30 6781 H 686.499 -1.52418 -0.442095 0
M  V30 6782 H 686.52 -2.25854 -3.0622 0
M  V30 6783 H 686.032 -3.48392 -1.71011 0
M  V30 6784 H 684.133 -1.63907 -3.34612 0
M  V30 6785 H 684.246 -3.52081 -3.24925 0
M  V30 6786 H 682.61 -1.80476 -1.79723 0
M  V30 6787 H 683.393 -3.28037 -1.01225 0
M  V30 6788 N 685.838 0.888903 -1.30139 0
M  V30 6789 C 687.063 1.67884 -1.21777 0
M  V30 6790 C 687.488 1.86848 0.216689 0
M  V30 6791 O 686.846 1.39659 1.15608 0
M  V30 6792 C 686.894 3.03483 -1.94757 0
M  V30 6793 O 685.998 3.92294 -1.27198 0
M  V30 6794 H 685.339 0.513144 -0.421402 0
M  V30 6795 H 687.869 1.10968 -1.71893 0
M  V30 6796 H 687.879 3.53553 -2.03627 0
M  V30 6797 H 686.554 2.89 -2.99085 0
M  V30 6798 H 685.131 3.50732 -1.26655 0
M  V30 6799 N 687.317 1.12792 1.10072 0
M  V30 6800 C 688.728 0.899346 1.63611 0
M  V30 6801 C 689.079 -0.565547 1.87872 0
M  V30 6802 O 688.204 -1.43081 1.62348 0
M  V30 6803 C 688.799 1.62608 2.97227 0
M  V30 6804 C 687.358 1.44356 3.47618 0
M  V30 6805 C 686.505 1.65958 2.22156 0
M  V30 6806 H 689.456 1.28216 0.935223 0
M  V30 6807 H 689.477 1.0793 3.64872 0
M  V30 6808 H 688.989 2.69221 2.79538 0
M  V30 6809 H 687.09 0.400148 3.70445 0
M  V30 6810 H 687.203 2.20218 4.25489 0
M  V30 6811 H 685.567 1.08395 2.30484 0
M  V30 6812 H 686.35 2.73877 2.06993 0
M  V30 6813 N 688.795 -1.27931 0.920396 0
M  V30 6814 C 689.758 -2.25345 0.41858 0
M  V30 6815 C 690.758 -1.54116 -0.458798 0
M  V30 6816 O 691.948 -1.72235 -0.260912 0
M  V30 6817 C 689.08 -3.38556 -0.399104 0
M  V30 6818 H 690.273 -2.71251 1.27918 0
M  V30 6819 H 687.826 -1.39728 0.700406 0
M  V30 6820 H 688.561 -2.98021 -1.27882 0
M  V30 6821 H 688.346 -3.91426 0.229863 0
M  V30 6822 H 689.836 -4.10976 -0.740817 0
M  V30 6823 N 690.273 -0.685099 -1.4193 0
M  V30 6824 C 691.503 -0.220052 -2.05425 0
M  V30 6825 C 691.911 1.13185 -1.51611 0
M  V30 6826 O 691.254 1.71631 -0.654875 0
M  V30 6827 C 691.316 -0.0888364 -3.5939 0
M  V30 6828 C 690.98 -1.37109 -4.35947 0
M  V30 6829 C 691.977 -2.30675 -4.65924 0
M  V30 6830 C 689.662 -1.62155 -4.75406 0
M  V30 6831 C 691.656 -3.47556 -5.34306 0
M  V30 6832 C 689.343 -2.79324 -5.43527 0
M  V30 6833 C 690.341 -3.71848 -5.72903 0
M  V30 6834 O 690.029 -4.86966 -6.39624 0
M  V30 6835 H 689.761 -0.102165 -0.668235 0
M  V30 6836 H 692.315 -0.935194 -1.82875 0
M  V30 6837 H 690.545 0.681981 -3.80639 0
M  V30 6838 H 692.234 0.337669 -4.04493 0
M  V30 6839 H 693 -2.12579 -4.3593 0
M  V30 6840 H 688.879 -0.910053 -4.51928 0
M  V30 6841 H 692.423 -4.19794 -5.57153 0
M  V30 6842 H 688.32 -2.97342 -5.72938 0
M  V30 6843 H 689.088 -4.86644 -6.58118 0
M  V30 6844 N 691.751 1.51645 -0.429126 0
M  V30 6845 C 692.981 2.06133 0.138793 0
M  V30 6846 C 693.389 1.29735 1.37716 0
M  V30 6847 O 692.732 0.347955 1.80375 0
M  V30 6848 C 692.794 3.55504 0.534493 0
M  V30 6849 C 692.458 4.53098 -0.595917 0
M  V30 6850 C 693.455 4.98815 -1.46558 0
M  V30 6851 C 691.14 4.96296 -0.774309 0
M  V30 6852 C 693.134 5.86394 -2.4984 0
M  V30 6853 C 690.821 5.83667 -1.81042 0
M  V30 6854 C 691.819 6.28613 -2.67086 0
M  V30 6855 O 691.507 7.14251 -3.68919 0
M  V30 6856 H 691.239 0.675833 0.0150263 0
M  V30 6857 H 693.793 1.96301 -0.604584 0
M  V30 6858 H 692.023 3.63092 1.33045 0
M  V30 6859 H 693.712 3.92545 1.03262 0
M  V30 6860 H 694.478 4.66143 -1.33925 0
M  V30 6861 H 690.357 4.60859 -0.114178 0
M  V30 6862 H 693.901 6.21398 -3.17034 0
M  V30 6863 H 689.798 6.15753 -1.93698 0
M  V30 6864 H 690.566 7.3241 -3.65402 0
M  V30 6865 N 693.229 0.160201 1.56784 0
M  V30 6866 C 694.645 -0.196089 1.58391 0
M  V30 6867 C 694.845 -1.63689 1.17508 0
M  V30 6868 O 693.901 -2.36613 0.881506 0
M  V30 6869 C 695.214 0.0746449 3.00607 0
M  V30 6870 C 696.762 0.0119762 3.12998 0
M  V30 6871 C 697.237 0.255551 4.57286 0
M  V30 6872 N 698.728 0.202938 4.62755 0
M  V30 6873 C 699.463 0.365731 5.72232 0
M  V30 6874 N 698.959 0.586972 6.90309 0
M  V30 6875 N 700.752 0.302411 5.61286 0
M  V30 6876 H 692.903 1.1008 1.81648 0
M  V30 6877 H 695.166 0.436779 0.841384 0
M  V30 6878 H 694.872 1.07231 3.34954 0
M  V30 6879 H 694.746 -0.638802 3.71751 0
M  V30 6880 H 697.133 -0.976254 2.78484 0
M  V30 6881 H 697.214 0.75796 2.44313 0
M  V30 6882 H 696.858 1.24094 4.92507 0
M  V30 6883 H 696.788 -0.510912 5.24116 0
M  V30 6884 H 699.279 0.0371328 3.77882 0
M  V30 6885 H 699.592 0.700941 7.69615 0
M  V30 6886 H 697.937 0.623453 6.92198 0
M  V30 6887 H 701.128 0.130238 4.67919 0
M  V30 6888 H 701.301 0.432712 6.46554 0
M  V30 6889 N 694.707 -1.5719 -0.113559 0
M  V30 6890 C 696.123 -1.52607 -0.467253 0
M  V30 6891 C 696.323 -0.874058 -1.81556 0
M  V30 6892 O 695.379 -0.458703 -2.48299 0
M  V30 6893 C 696.692 -2.97363 -0.446736 0
M  V30 6894 C 698.24 -3.08482 -0.529903 0
M  V30 6895 C 698.715 -4.54809 -0.539721 0
M  V30 6896 N 700.206 -4.59284 -0.601005 0
M  V30 6897 C 700.941 -5.69927 -0.630138 0
M  V30 6898 N 700.437 -6.90051 -0.616589 0
M  V30 6899 N 702.23 -5.5805 -0.673558 0
M  V30 6900 H 694.381 -1.97958 0.769819 0
M  V30 6901 H 696.644 -0.90428 0.284572 0
M  V30 6902 H 696.35 -3.48458 0.47643 0
M  V30 6903 H 696.224 -3.55086 -1.27254 0
M  V30 6904 H 698.611 -2.57386 -1.44349 0
M  V30 6905 H 698.692 -2.53744 0.323695 0
M  V30 6906 H 698.336 -5.06552 0.369843 0
M  V30 6907 H 698.266 -5.07364 -1.41028 0
M  V30 6908 H 700.757 -3.72822 -0.617419 0
M  V30 6909 H 701.07 -7.70132 -0.641592 0
M  V30 6910 H 699.415 -6.92543 -0.583927 0
M  V30 6911 H 702.606 -4.63112 -0.681544 0
M  V30 6912 H 702.779 -6.44286 -0.692794 0
M  V30 6913 N 696.185 0.383891 -1.52853 0
M  V30 6914 C 697.601 0.724316 -1.42218 0
M  V30 6915 C 697.801 1.93943 -0.546654 0
M  V30 6916 O 696.857 2.5249 -0.0220562 0
M  V30 6917 C 698.17 0.954635 -2.85144 0
M  V30 6918 C 699.718 1.05579 -2.94656 0
M  V30 6919 C 700.193 1.3187 -4.38605 0
M  V30 6920 N 701.684 1.38681 -4.41952 0
M  V30 6921 C 702.419 1.60699 -5.50421 0
M  V30 6922 N 701.915 1.80154 -6.68967 0
M  V30 6923 N 703.708 1.6292 -5.37972 0
M  V30 6924 H 695.859 -0.4156 -2.08294 0
M  V30 6925 H 698.122 -0.123776 -0.939885 0
M  V30 6926 H 697.828 0.133829 -3.51445 0
M  V30 6927 H 697.702 1.86788 -3.27704 0
M  V30 6928 H 700.089 1.86716 -2.2852 0
M  V30 6929 H 700.17 0.120338 -2.55517 0
M  V30 6930 H 699.814 0.512416 -5.05309 0
M  V30 6931 H 699.744 2.26708 -4.75301 0
M  V30 6932 H 702.235 1.25334 -3.56511 0
M  V30 6933 H 702.548 1.96476 -7.47407 0
M  V30 6934 H 700.893 1.77368 -6.71986 0
M  V30 6935 H 704.084 1.47276 -4.44328 0
M  V30 6936 H 704.257 1.79739 -6.22574 0
M  V30 6937 N 697.663 1.43903 0.642637 0
M  V30 6938 C 698.94 1.36556 1.40043 0
M  V30 6939 C 699.32 0.0185588 2.11092 0
M  V30 6940 O 698.668 -0.998438 2.05532 0
M  V30 6941 C 698.878 2.55596 2.37638 0
M  V30 6942 C 700.226 2.99153 3.01318 0
M  V30 6943 O 701.25 2.55719 2.47965 0
M  V30 6944 O 700.109 3.74427 3.98078 0
M  V30 6945 H 697.203 0.540189 0.626198 0
M  V30 6946 H 699.749 1.55971 0.668657 0
M  V30 6947 H 698.521 3.45256 1.84158 0
M  V30 6948 H 698.144 2.38334 3.18249 0
M  V30 6949 N 699.141 -0.881989 1.30609 0
M  V30 6950 C 700.366 -1.67236 1.22665 0
M  V30 6951 C 700.791 -1.8696 -0.206777 0
M  V30 6952 O 700.149 -1.4027 -1.14865 0
M  V30 6953 C 700.197 -3.02446 1.96363 0
M  V30 6954 O 699.301 -3.91614 1.29276 0
M  V30 6955 H 698.642 -0.510902 0.424117 0
M  V30 6956 H 701.172 -1.10055 1.72479 0
M  V30 6957 H 701.182 -3.52468 2.055 0
M  V30 6958 H 699.857 -2.8741 3.00613 0
M  V30 6959 H 698.434 -3.50055 1.28514 0
M  V30 6960 N 700.619 -1.13374 -1.09472 0
M  V30 6961 C 702.03 -0.90801 -1.63132 0
M  V30 6962 C 702.381 0.555576 -1.8817 0
M  V30 6963 O 701.506 1.42218 -1.63104 0
M  V30 6964 C 702.101 -1.64182 -2.96361 0
M  V30 6965 C 700.66 -1.46197 -3.46848 0
M  V30 6966 C 699.807 -1.67134 -2.21273 0
M  V30 6967 H 702.758 -1.2871 -0.928411 0
M  V30 6968 H 702.779 -1.09863 -3.64294 0
M  V30 6969 H 702.291 -2.707 -2.78106 0
M  V30 6970 H 700.392 -0.419788 -3.70228 0
M  V30 6971 H 700.505 -2.22472 -4.24315 0
M  V30 6972 H 698.869 -1.09616 -2.29905 0
M  V30 6973 H 699.652 -2.74971 -2.05538 0
M  V30 6974 N 702.098 1.27442 -0.927168 0
M  V30 6975 C 703.346 1.94007 -0.566203 0
M  V30 6976 C 703.667 1.7323 0.895345 0
M  V30 6977 O 702.937 1.07973 1.63459 0
M  V30 6978 H 701.517 0.717917 -0.206409 0
M  V30 6979 H 704.179 1.55161 -1.17945 0
M  V30 6980 H 703.275 3.02401 -0.772028 0
M  V30 6981 N 703.576 0.692616 1.41565 0
M  V30 6982 C 704.824 0.221896 2.00878 0
M  V30 6983 C 705.145 -1.18164 1.5512 0
M  V30 6984 O 704.415 -1.79679 0.78054 0
M  V30 6985 H 702.995 0.0790463 0.742806 0
M  V30 6986 H 705.657 0.893115 1.73232 0
M  V30 6987 H 704.753 0.23702 3.11199 0
M  V30 6988 N 705.054 -1.51416 0.437162 0
M  V30 6989 C 705.987 -2.24309 -0.419602 0
M  V30 6990 C 706.965 -1.26236 -1.02485 0
M  V30 6991 O 708.149 -1.5537 -1.06735 0
M  V30 6992 C 705.276 -2.99335 -1.58482 0
M  V30 6993 C 704.322 -4.12064 -1.10027 0
M  V30 6994 S 705.155 -5.35483 -0.0424476 0
M  V30 6995 C 706.311 -6.14047 -1.21234 0
M  V30 6996 H 706.544 -2.96632 0.199259 0
M  V30 6997 H 704.077 -1.528 0.22168 0
M  V30 6998 H 706.035 -3.43159 -2.25282 0
M  V30 6999 H 704.696 -2.26602 -2.17509 0
M  V30 7000 H 703.889 -4.63836 -1.97161 0
M  V30 7001 H 703.491 -3.70499 -0.510507 0
M  V30 7002 H 705.783 -6.43123 -2.13072 0
M  V30 7003 H 706.726 -7.04279 -0.734582 0
M  V30 7004 H 707.134 -5.45538 -1.45082 0
M  V30 7005 N 706.532 -0.168513 -1.56696 0
M  V30 7006 C 707.809 0.523367 -1.88468 0
M  V30 7007 C 708.189 1.81503 -1.07796 0
M  V30 7008 O 707.537 2.27859 -0.171045 0
M  V30 7009 C 707.747 0.767991 -3.40445 0
M  V30 7010 C 709.095 1.09924 -4.10124 0
M  V30 7011 O 710.119 0.856625 -3.45746 0
M  V30 7012 O 708.978 1.55681 -5.23856 0
M  V30 7013 H 706.072 0.269447 -0.781874 0
M  V30 7014 H 708.618 -0.206739 -1.68436 0
M  V30 7015 H 707.39 -0.145254 -3.9103 0
M  V30 7016 H 707.013 1.55151 -3.66079 0
M  V30 7017 N 708.01 1.57248 0.105221 0
M  V30 7018 C 708.92 2.04653 1.14693 0
M  V30 7019 C 709.936 0.969488 1.44489 0
M  V30 7020 O 711.112 1.28196 1.55331 0
M  V30 7021 C 708.177 2.45297 2.45011 0
M  V30 7022 C 707.238 3.67148 2.22489 0
M  V30 7023 C 706.471 4.05844 3.46592 0
M  V30 7024 O 706.694 3.44736 4.54437 0
M  V30 7025 O 705.628 4.98862 3.36779 0
M  V30 7026 H 709.454 2.93663 0.774336 0
M  V30 7027 H 707.039 1.45998 0.31701 0
M  V30 7028 H 708.921 2.72112 3.21766 0
M  V30 7029 H 707.596 1.59429 2.81717 0
M  V30 7030 H 706.503 3.45463 1.43547 0
M  V30 7031 H 707.836 4.53764 1.9068 0
M  V30 7032 N 709.488 -0.375779 1.53054 0
M  V30 7033 C 710.899 -0.95309 1.6054 0
M  V30 7034 C 711.25 -1.90575 0.466446 0
M  V30 7035 O 710.375 -2.12507 -0.408609 0
M  V30 7036 C 710.97 -1.73537 2.90982 0
M  V30 7037 C 709.529 -2.26218 3.00836 0
M  V30 7038 C 708.676 -1.07157 2.55759 0
M  V30 7039 H 711.627 -0.154895 1.57942 0
M  V30 7040 H 711.648 -2.59574 2.78211 0
M  V30 7041 H 711.16 -1.04176 3.73857 0
M  V30 7042 H 709.261 -2.98852 2.22527 0
M  V30 7043 H 709.374 -2.54799 4.05727 0
M  V30 7044 H 707.738 -1.43553 2.10391 0
M  V30 7045 H 708.521 -0.393099 3.41042 0
M  V30 7046 N 710.966 -1.44241 -0.634997 0
M  V30 7047 C 712.377 -1.41622 -1.21655 0
M  V30 7048 C 712.728 -0.129584 -1.95772 0
M  V30 7049 O 711.853 0.770225 -2.02229 0
M  V30 7050 C 712.448 -2.56557 -2.21278 0
M  V30 7051 C 711.007 -2.57145 -2.7487 0
M  V30 7052 C 710.154 -2.33354 -1.49804 0
M  V30 7053 H 713.105 -1.52878 -0.425905 0
M  V30 7054 H 713.126 -2.29089 -3.03807 0
M  V30 7055 H 712.638 -3.50186 -1.67306 0
M  V30 7056 H 710.739 -1.67447 -3.32855 0
M  V30 7057 H 710.852 -3.55507 -3.21172 0
M  V30 7058 H 709.216 -1.82372 -1.77799 0
M  V30 7059 H 709.999 -3.29092 -0.977402 0
M  V30 7060 N 712.444 0.87505 -1.31075 0
M  V30 7061 C 713.669 1.66583 -1.23551 0
M  V30 7062 C 714.094 1.87067 0.19686 0
M  V30 7063 O 713.452 1.40877 1.1412 0
M  V30 7064 C 713.5 3.01401 -1.97965 0
M  V30 7065 O 712.604 3.90923 -1.31351 0
M  V30 7066 H 711.945 0.508645 -0.426821 0
M  V30 7067 H 714.475 1.09139 -1.7306 0
M  V30 7068 H 714.485 3.51374 -2.07366 0
M  V30 7069 H 713.16 2.85812 -3.02133 0
M  V30 7070 H 711.737 3.49369 -1.30368 0
M  V30 7071 N 713.922 1.13953 1.08869 0
M  V30 7072 C 715.17 0.903023 1.80803 0
M  V30 7073 C 715.491 -0.572151 1.86417 0
M  V30 7074 O 714.761 -1.41589 1.35386 0
M  V30 7075 H 713.341 0.331099 0.669614 0
M  V30 7076 H 716.003 1.43719 1.31647 0
M  V30 7077 H 715.099 1.29881 2.83791 0
M  V30 7078 N 715.4 -1.26948 0.933913 0
M  V30 7079 C 716.646 -1.94716 0.587985 0
M  V30 7080 C 717.001 -1.71994 -0.862312 0
M  V30 7081 O 716.294 -1.04208 -1.60783 0
M  V30 7082 C 716.488 -3.46963 0.857406 0
M  V30 7083 C 716.317 -3.84489 2.33234 0
M  V30 7084 C 715.087 -4.07621 2.98618 0
M  V30 7085 C 717.285 -3.93602 3.31031 0
M  V30 7086 N 715.267 -4.31976 4.362 0
M  V30 7087 C 716.638 -4.22404 4.53845 0
M  V30 7088 C 718.693 -3.76201 3.26155 0
M  V30 7089 C 717.396 -4.35615 5.72391 0
M  V30 7090 C 719.422 -3.90641 4.4402 0
M  V30 7091 C 718.784 -4.19835 5.65613 0
M  V30 7092 H 714.883 -0.735586 0.2654 0
M  V30 7093 H 717.467 -1.53181 1.20182 0
M  V30 7094 H 715.638 -3.87442 0.27268 0
M  V30 7095 H 717.37 -4.01921 0.47348 0
M  V30 7096 H 714.125 -4.02696 2.49264 0
M  V30 7097 H 714.549 -4.48199 5.07392 0
M  V30 7098 H 719.191 -3.52665 2.3321 0
M  V30 7099 H 716.909 -4.57975 6.65796 0
M  V30 7100 H 720.495 -3.78589 4.41771 0
M  V30 7101 H 719.375 -4.30765 6.55295 0
M  V30 7102 N 716.879 -0.700114 -1.41195 0
M  V30 7103 C 717.789 -0.0382854 -2.34569 0
M  V30 7104 C 718.805 0.761036 -1.56474 0
M  V30 7105 O 719.981 0.697553 -1.88934 0
M  V30 7106 C 717.046 0.883522 -3.35253 0
M  V30 7107 C 716.107 0.0758957 -4.29233 0
M  V30 7108 C 715.34 0.9538 -5.25108 0
M  V30 7109 O 715.563 2.19326 -5.26547 0
M  V30 7110 O 714.497 0.401049 -6.00562 0
M  V30 7111 H 718.323 -0.808073 -2.92752 0
M  V30 7112 H 715.908 -0.460479 -1.42127 0
M  V30 7113 H 717.79 1.41199 -3.9704 0
M  V30 7114 H 716.465 1.63272 -2.79506 0
M  V30 7115 H 715.372 -0.497274 -3.7078 0
M  V30 7116 H 716.705 -0.634741 -4.8809 0
M  V30 7117 N 718.357 1.51182 -0.445186 0
M  V30 7118 C 719.773 1.59299 -0.0978954 0
M  V30 7119 C 719.973 1.4555 1.39346 0
M  V30 7120 O 719.029 1.30073 2.16419 0
M  V30 7121 C 720.342 2.94133 -0.625005 0
M  V30 7122 C 721.89 3.07463 -0.586137 0
M  V30 7123 C 722.365 4.44832 -1.09035 0
M  V30 7124 N 723.856 4.51173 -1.04867 0
M  V30 7125 C 724.591 5.55804 -1.40959 0
M  V30 7126 N 724.087 6.67816 -1.84375 0
M  V30 7127 N 725.88 5.46205 -1.32726 0
M  V30 7128 H 718.031 1.58363 -1.41544 0
M  V30 7129 H 720.294 0.746946 -0.58376 0
M  V30 7130 H 720 3.09589 -1.66876 0
M  V30 7131 H 719.874 3.77161 -0.0542262 0
M  V30 7132 H 722.261 2.9167 0.448646 0
M  V30 7133 H 722.342 2.26255 -1.19341 0
M  V30 7134 H 721.986 4.61372 -2.12364 0
M  V30 7135 H 721.916 5.24591 -0.459539 0
M  V30 7136 H 724.407 3.70783 -0.729932 0
M  V30 7137 H 724.72 7.43683 -2.10131 0
M  V30 7138 H 723.065 6.69003 -1.88308 0
M  V30 7139 H 726.256 4.57583 -0.986678 0
M  V30 7140 H 726.429 6.27634 -1.61182 0
M  V30 7141 N 719.835 0.176821 1.56605 0
M  V30 7142 C 721.065 -0.472142 2.01133 0
M  V30 7143 C 721.473 -1.56979 1.05614 0
M  V30 7144 O 720.816 -1.83632 0.0500137 0
M  V30 7145 C 720.878 -1.10547 3.42081 0
M  V30 7146 C 720.542 -0.148806 4.56758 0
M  V30 7147 C 721.539 0.634939 5.16008 0
M  V30 7148 C 719.224 -0.0430325 5.02282 0
M  V30 7149 C 721.218 1.5116 6.19217 0
M  V30 7150 C 718.905 0.83721 6.05338 0
M  V30 7151 C 719.903 1.61311 6.63677 0
M  V30 7152 O 719.591 2.47863 7.64735 0
M  V30 7153 H 719.323 -0.124725 0.664394 0
M  V30 7154 H 721.877 0.277329 2.03519 0
M  V30 7155 H 720.107 -1.90318 3.36625 0
M  V30 7156 H 721.796 -1.6572 3.70529 0
M  V30 7157 H 722.562 0.563424 4.81716 0
M  V30 7158 H 718.441 -0.636753 4.56581 0
M  V30 7159 H 721.985 2.11767 6.64681 0
M  V30 7160 H 717.882 0.909908 6.39055 0
M  V30 7161 H 718.65 2.4144 7.8208 0
M  V30 7162 N 721.313 -1.57302 -0.09688 0
M  V30 7163 C 722.59 -1.7701 -0.832272 0
M  V30 7164 C 722.97 -0.758025 -1.97021 0
M  V30 7165 O 722.318 0.213824 -2.27497 0
M  V30 7166 C 722.528 -3.22725 -1.32851 0
M  V30 7167 C 723.876 -3.85856 -1.772 0
M  V30 7168 O 724.9 -3.26464 -1.42478 0
M  V30 7169 O 723.759 -4.90295 -2.41398 0
M  V30 7170 H 720.853 -0.725558 -0.396856 0
M  V30 7171 H 723.399 -1.69516 -0.0789005 0
M  V30 7172 H 722.171 -3.87921 -0.51312 0
M  V30 7173 H 721.794 -3.34845 -2.14394 0
M  V30 7174 N 722.791 0.367657 -1.53252 0
M  V30 7175 C 724.039 1.10832 -1.68999 0
M  V30 7176 C 724.36 1.89894 -0.443306 0
M  V30 7177 O 723.63 1.88235 0.54262 0
M  V30 7178 H 722.21 0.412153 -0.623008 0
M  V30 7179 H 724.872 0.414775 -1.90435 0
M  V30 7180 H 723.968 1.7993 -2.55013 0
M  V30 7181 N 724.269 1.44576 0.627338 0
M  V30 7182 C 725.517 1.47267 1.38408 0
M  V30 7183 C 725.838 0.107971 1.94701 0
M  V30 7184 O 725.108 -0.860206 1.76004 0
M  V30 7185 H 723.688 0.542276 0.513756 0
M  V30 7186 H 726.35 1.80383 0.738099 0
M  V30 7187 H 725.446 2.20025 2.21349 0
M  V30 7188 N 725.747 -0.868086 1.31537 0
M  V30 7189 C 726.697 -1.96321 1.1594 0
M  V30 7190 C 727.681 -1.60748 0.0698962 0
M  V30 7191 O 728.873 -1.74524 0.295011 0
M  V30 7192 C 726.002 -3.32073 0.870789 0
M  V30 7193 C 725.088 -3.73907 2.00136 0
M  V30 7194 N 725.479 -3.87685 3.24859 0
M  V30 7195 C 723.777 -4.03433 1.90152 0
M  V30 7196 C 724.478 -4.23454 3.98825 0
M  V30 7197 N 723.454 -4.34242 3.27009 0
M  V30 7198 H 727.256 -2.05088 2.10514 0
M  V30 7199 H 724.77 -1.059 1.23122 0
M  V30 7200 H 726.767 -4.10279 0.740034 0
M  V30 7201 H 725.427 -3.24631 -0.0667068 0
M  V30 7202 H 726.438 -3.72363 3.59953 0
M  V30 7203 H 723.115 -4.0437 1.03879 0
M  V30 7204 H 724.505 -4.41696 5.06314 0
M  V30 7205 N 727.225 -1.14528 -1.08264 0
M  V30 7206 C 728.641 -0.885976 -1.3275 0
M  V30 7207 C 728.841 0.472096 -1.95892 0
M  V30 7208 O 727.897 1.21606 -2.21288 0
M  V30 7209 C 729.21 -2.01982 -2.22764 0
M  V30 7210 C 730.758 -2.05329 -2.36239 0
M  V30 7211 C 731.233 -3.1801 -3.29596 0
M  V30 7212 N 732.724 -3.17598 -3.37173 0
M  V30 7213 C 733.459 -4.01426 -4.09444 0
M  V30 7214 N 732.955 -4.95297 -4.8441 0
M  V30 7215 N 734.748 -3.89482 -4.0529 0
M  V30 7216 H 726.899 -2.01996 -0.656607 0
M  V30 7217 H 729.162 -0.880274 -0.351884 0
M  V30 7218 H 728.868 -2.99964 -1.83615 0
M  V30 7219 H 728.742 -1.94421 -3.23234 0
M  V30 7220 H 731.129 -1.07953 -2.74646 0
M  V30 7221 H 731.21 -2.1696 -1.35506 0
M  V30 7222 H 730.854 -4.15633 -2.9191 0
M  V30 7223 H 730.784 -3.03616 -4.30261 0
M  V30 7224 H 733.275 -2.4961 -2.83731 0
M  V30 7225 H 733.588 -5.55723 -5.37021 0
M  V30 7226 H 731.933 -4.99293 -4.83457 0
M  V30 7227 H 735.124 -3.15465 -3.45832 0
M  V30 7228 H 735.297 -4.55039 -4.6135 0
M  V30 7229 N 728.703 1.26451 -0.940633 0
M  V30 7230 C 729.951 1.93395 -0.586748 0
M  V30 7231 C 730.272 1.7417 0.876921 0
M  V30 7232 O 729.542 1.097 1.62304 0
M  V30 7233 H 728.122 0.715687 -0.214012 0
M  V30 7234 H 730.784 1.53902 -1.19584 0
M  V30 7235 H 729.88 3.01565 -0.804059 0
M  V30 7236 N 730.181 0.707592 1.40822 0
M  V30 7237 C 731.113 0.0105968 2.29198 0
M  V30 7238 C 732.126 -0.732035 1.45414 0
M  V30 7239 O 733.315 -0.580741 1.68789 0
M  V30 7240 C 730.415 -1.00921 3.23525 0
M  V30 7241 C 729.588 -0.333747 4.36125 0
M  V30 7242 C 728.647 -1.25783 5.10945 0
M  V30 7243 O 727.673 -0.745646 5.64295 0
M  V30 7244 N 728.875 -2.58947 5.19545 0
M  V30 7245 H 731.64 0.76938 2.89656 0
M  V30 7246 H 729.201 0.554579 1.52105 0
M  V30 7247 H 731.193 -1.6294 3.70449 0
M  V30 7248 H 729.763 -1.66942 2.6429 0
M  V30 7249 H 728.983 0.466518 3.9143 0
M  V30 7250 H 730.271 0.135444 5.0862 0
M  V30 7251 H 729.669 -3.03065 4.7767 0
M  V30 7252 H 728.226 -3.16131 5.70004 0
M  V30 7253 N 731.66 -1.50943 0.453197 0
M  V30 7254 C 732.885 -2.07116 -0.108463 0
M  V30 7255 C 733.31 -1.31681 -1.3432 0
M  V30 7256 O 732.668 -0.359256 -1.77705 0
M  V30 7257 C 732.716 -3.58447 -0.393424 0
M  V30 7258 O 731.82 -3.85038 -1.47714 0
M  V30 7259 H 731.161 -0.66398 0.0050993 0
M  V30 7260 H 733.691 -1.94362 0.639095 0
M  V30 7261 H 733.701 -4.02961 -0.639222 0
M  V30 7262 H 732.376 -4.12774 0.508946 0
M  V30 7263 H 730.953 -3.52376 -1.22006 0
M  V30 7264 N 733.138 -0.185124 -1.56509 0
M  V30 7265 C 734.07 0.771401 -2.15829 0
M  V30 7266 C 735.083 1.18392 -1.11747 0
M  V30 7267 O 736.272 1.12137 -1.38879 0
M  V30 7268 C 733.372 2.05169 -2.69739 0
M  V30 7269 C 732.545 1.80056 -3.98621 0
M  V30 7270 C 731.604 2.92435 -4.37456 0
M  V30 7271 O 730.63 2.62473 -5.05071 0
M  V30 7272 N 731.832 4.20554 -4.00143 0
M  V30 7273 H 734.597 0.264184 -2.98533 0
M  V30 7274 H 732.158 -0.00281069 -1.619 0
M  V30 7275 H 734.15 2.7947 -2.92709 0
M  V30 7276 H 732.72 2.47041 -1.91545 0
M  V30 7277 H 731.94 0.895862 -3.83885 0
M  V30 7278 H 733.228 1.60662 -4.82768 0
M  V30 7279 H 732.626 4.47753 -3.45736 0
M  V30 7280 H 731.183 4.91514 -4.28085 0
M  V30 7281 N 734.616 1.57351 0.0885366 0
M  V30 7282 C 735.563 2.02523 1.10693 0
M  V30 7283 C 736.533 0.902736 1.39427 0
M  V30 7284 O 737.718 1.16921 1.50779 0
M  V30 7285 C 734.858 2.46013 2.42016 0
M  V30 7286 C 733.971 3.7181 2.19957 0
M  V30 7287 C 733.106 4.04152 3.44724 0
M  V30 7288 C 732.145 5.2304 3.17956 0
M  V30 7289 N 731.282 5.51102 4.35007 0
M  V30 7290 H 736.122 2.89302 0.714742 0
M  V30 7291 H 733.659 1.43084 0.341378 0
M  V30 7292 H 735.617 2.69274 3.18665 0
M  V30 7293 H 734.247 1.62235 2.79069 0
M  V30 7294 H 733.299 3.55987 1.34079 0
M  V30 7295 H 734.611 4.58604 1.96173 0
M  V30 7296 H 733.765 4.28225 4.29777 0
M  V30 7297 H 732.504 3.15893 3.71568 0
M  V30 7298 H 731.509 4.98781 2.31296 0
M  V30 7299 H 732.734 6.12902 2.92451 0
M  V30 7300 H 730.68 4.65802 4.61914 0
M  V30 7301 H 730.597 6.3228 4.14437 0
M  V30 7302 H 731.865 5.79714 5.21106 0
M  V30 7303 N 736.094 -0.359525 1.53444 0
M  V30 7304 C 737.026 -1.46098 1.76602 0
M  V30 7305 C 738.039 -1.49395 0.646912 0
M  V30 7306 O 739.228 -1.52765 0.923307 0
M  V30 7307 C 736.328 -2.84836 1.83635 0
M  V30 7308 C 735.501 -3.05164 3.13358 0
M  V30 7309 C 734.56 -4.24051 3.11556 0
M  V30 7310 O 733.586 -4.18935 3.85334 0
M  V30 7311 N 734.788 -5.31775 2.328 0
M  V30 7312 H 737.553 -1.2661 2.71643 0
M  V30 7313 H 735.114 -0.549294 1.52297 0
M  V30 7314 H 737.106 -3.62516 1.799 0
M  V30 7315 H 735.676 -2.97542 0.958509 0
M  V30 7316 H 734.896 -2.15091 3.30348 0
M  V30 7317 H 736.184 -3.15619 3.99076 0
M  V30 7318 H 735.582 -5.38796 1.7238 0
M  V30 7319 H 734.139 -6.0801 2.34877 0
M  V30 7320 N 737.572 -1.44907 -0.619662 0
M  V30 7321 C 738.522 -1.49085 -1.72504 0
M  V30 7322 C 739.506 -0.355372 -1.56926 0
M  V30 7323 O 740.698 -0.601441 -1.66468 0
M  V30 7324 C 737.827 -1.44889 -3.11227 0
M  V30 7325 C 736.913 -2.63593 -3.32234 0
M  V30 7326 N 737.304 -3.88775 -3.23555 0
M  V30 7327 C 735.602 -2.59033 -3.63067 0
M  V30 7328 C 736.303 -4.67932 -3.45564 0
M  V30 7329 N 735.279 -3.9919 -3.68983 0
M  V30 7330 H 739.081 -2.43706 -1.6427 0
M  V30 7331 H 736.595 -1.4003 -0.82252 0
M  V30 7332 H 738.592 -1.45966 -3.90512 0
M  V30 7333 H 737.252 -0.513143 -3.2062 0
M  V30 7334 H 738.263 -4.20574 -3.02221 0
M  V30 7335 H 734.94 -1.7431 -3.79371 0
M  V30 7336 H 736.33 -5.76952 -3.44349 0
M  V30 7337 N 739.05 0.861098 -1.31996 0
M  V30 7338 C 740.466 1.14827 -1.10846 0
M  V30 7339 C 740.666 2.0117 0.11528 0
M  V30 7340 O 739.722 2.39423 0.802048 0
M  V30 7341 C 741.035 1.83183 -2.38462 0
M  V30 7342 C 742.583 1.95847 -2.44158 0
M  V30 7343 C 743.058 2.67617 -3.71679 0
M  V30 7344 N 744.549 2.75147 -3.72624 0
M  V30 7345 C 745.284 3.31314 -4.67994 0
M  V30 7346 N 744.78 3.88343 -5.73726 0
M  V30 7347 N 746.573 3.29356 -4.55501 0
M  V30 7348 H 738.724 0.285951 -2.10466 0
M  V30 7349 H 740.987 0.189303 -0.928907 0
M  V30 7350 H 740.693 1.27193 -3.27895 0
M  V30 7351 H 740.567 2.83393 -2.48935 0
M  V30 7352 H 742.954 2.50999 -1.55189 0
M  V30 7353 H 743.035 0.94653 -2.37644 0
M  V30 7354 H 742.679 2.13131 -4.61018 0
M  V30 7355 H 742.609 3.69237 -3.75462 0
M  V30 7356 H 745.1 2.34682 -2.96197 0
M  V30 7357 H 745.413 4.29338 -6.42564 0
M  V30 7358 H 743.758 3.86693 -5.77489 0
M  V30 7359 H 746.949 2.84047 -3.72069 0
M  V30 7360 H 747.122 3.7283 -5.30001 0
M  V30 7361 N 740.528 1.15101 1.07655 0
M  V30 7362 C 741.478 0.813448 2.12995 0
M  V30 7363 C 742.462 -0.200899 1.59641 0
M  V30 7364 O 743.654 -0.00209918 1.77 0
M  V30 7365 C 740.783 0.301078 3.41977 0
M  V30 7366 C 739.869 1.3454 4.02194 0
M  V30 7367 N 740.26 2.55181 4.36711 0
M  V30 7368 C 738.558 1.19742 4.29625 0
M  V30 7369 C 739.259 3.22094 4.84387 0
M  V30 7370 N 738.235 2.49486 4.82968 0
M  V30 7371 H 742.037 1.73105 2.37511 0
M  V30 7372 H 739.551 1.03601 1.25063 0
M  V30 7373 H 741.548 0.040914 4.1688 0
M  V30 7374 H 740.208 -0.610629 3.18907 0
M  V30 7375 H 741.219 2.92349 4.27496 0
M  V30 7376 H 737.896 0.345353 4.16069 0
M  V30 7377 H 739.286 4.24996 5.20411 0
M  V30 7378 N 742.006 -1.2595 0.947325 0
M  V30 7379 C 743.254 -1.93081 0.596996 0
M  V30 7380 C 743.575 -1.74632 -0.867672 0
M  V30 7381 O 742.845 -1.1056 -1.6172 0
M  V30 7382 H 741.425 -0.714542 0.217805 0
M  V30 7383 H 744.087 -1.53265 1.20398 0
M  V30 7384 H 743.183 -3.01134 0.82004 0
M  V30 7385 N 743.484 -0.715051 -1.40445 0
M  V30 7386 C 744.732 -0.253826 -2.005 0
M  V30 7387 C 745.053 1.15681 -1.5698 0
M  V30 7388 O 744.323 1.78414 -0.809027 0
M  V30 7389 H 742.903 -0.0908537 -0.741454 0
M  V30 7390 H 745.565 -0.920561 -1.7179 0
M  V30 7391 H 744.661 -0.286499 -3.10782 0
M  V30 7392 N 744.962 1.50701 -0.461195 0
M  V30 7393 C 746.187 2.07171 0.0974773 0
M  V30 7394 C 746.612 1.32391 1.3362 0
M  V30 7395 O 745.97 0.368676 1.77512 0
M  V30 7396 C 746.018 3.58651 0.374409 0
M  V30 7397 O 745.122 3.85816 1.4567 0
M  V30 7398 H 744.463 0.663944 -0.00862047 0
M  V30 7399 H 746.993 1.94021 -0.649394 0
M  V30 7400 H 747.003 4.03295 0.617843 0
M  V30 7401 H 745.678 4.12498 -0.530829 0
M  V30 7402 H 744.255 3.53018 1.20136 0
M  V30 7403 N 746.441 0.193421 1.56409 0
M  V30 7404 C 747.689 -0.444908 1.97142 0
M  V30 7405 C 748.01 -1.62268 1.08139 0
M  V30 7406 O 747.28 -1.95307 0.152326 0
M  V30 7407 H 745.86 -0.16736 0.728011 0
M  V30 7408 H 748.522 0.279763 1.92882 0
M  V30 7409 H 747.618 -0.790159 3.01932 0
M  V30 7410 N 747.919 -1.57396 -0.0801906 0
M  V30 7411 C 749.167 -1.86467 -0.779384 0
M  V30 7412 C 749.488 -0.784243 -1.78535 0
M  V30 7413 O 748.758 0.187986 -1.94996 0
M  V30 7414 H 747.338 -0.68806 -0.29083 0
M  V30 7415 H 750 -1.94813 -0.0582749 0
M  V30 7416 H 749.096 -2.83701 -1.30078 0
M  V30 7417 N 749.397 0.351382 -1.53633 0
M  V30 7418 C 750.347 1.4316 -1.77452 0
M  V30 7419 C 751.331 1.48076 -0.62946 0
M  V30 7420 O 752.523 1.53078 -0.888599 0
M  V30 7421 C 749.652 2.80409 -1.98055 0
M  V30 7422 C 748.738 2.79915 -3.18604 0
M  V30 7423 N 749.129 2.49057 -4.40232 0
M  V30 7424 C 747.427 3.11067 -3.19614 0
M  V30 7425 C 748.128 2.566 -5.22045 0
M  V30 7426 N 747.104 2.919 -4.5858 0
M  V30 7427 H 750.906 1.18188 -2.69089 0
M  V30 7428 H 748.42 0.559684 -1.52451 0
M  V30 7429 H 750.417 3.58231 -2.13251 0
M  V30 7430 H 749.077 3.06334 -1.07655 0
M  V30 7431 H 750.088 2.22395 -4.67719 0
M  V30 7432 H 746.765 3.42215 -2.39154 0
M  V30 7433 H 748.155 2.35968 -6.29101 0
M  V30 7434 N 750.875 1.45233 0.611969 0
M  V30 7435 C 751.823 1.53898 1.74408 0
M  V30 7436 C 752.817 0.409254 1.64382 0
M  V30 7437 O 754.023 0.584988 1.70229 0
M  V30 7438 H 750.398 0.483303 0.576127 0
M  V30 7439 H 752.369 2.49143 1.64227 0
M  V30 7440 C 751.118 1.51865 3.12782 0
M  V30 7441 H 750.441 2.38118 3.21154 0
M  V30 7442 H 751.881 1.61986 3.91838 0
M  V30 7443 C 750.34 0.242374 3.36027 0
M  V30 7444 O 750.87 -0.679587 3.9591 0
M  V30 7445 N 749.076 0.139448 2.90265 0
M  V30 7446 H 748.623 0.890571 2.41716 0
M  V30 7447 H 748.581 -0.713686 3.06193 0
M  V30 7448 N 752.353 -0.854086 1.3245 0
M  V30 7449 C 753.3 -1.96271 1.21434 0
M  V30 7450 C 754.27 -1.6582 0.0963851 0
M  V30 7451 O 755.455 -1.88851 0.27203 0
M  V30 7452 C 752.595 -3.31939 0.943952 0
M  V30 7453 C 751.708 -3.74885 2.14675 0
M  V30 7454 C 750.843 -4.99347 1.81179 0
M  V30 7455 C 749.882 -5.34785 2.97777 0
M  V30 7456 N 749.019 -6.50425 2.6437 0
M  V30 7457 H 753.859 -2.05025 2.16261 0
M  V30 7458 H 751.396 -1.00348 1.07558 0
M  V30 7459 H 753.354 -4.10076 0.767675 0
M  V30 7460 H 751.984 -3.22784 0.0324763 0
M  V30 7461 H 751.036 -2.92396 2.43328 0
M  V30 7462 H 752.348 -3.97068 3.01891 0
M  V30 7463 H 751.502 -5.85193 1.60107 0
M  V30 7464 H 750.241 -4.79101 0.911777 0
M  V30 7465 H 749.246 -4.47451 3.1948 0
M  V30 7466 H 750.471 -5.56988 3.88511 0
M  V30 7467 H 748.417 -6.31695 1.7691 0
M  V30 7468 H 748.334 -6.7263 3.45116 0
M  V30 7469 H 749.602 -7.39422 2.46729 0
M  V30 7470 N 753.831 -1.1567 -1.07043 0
M  V30 7471 C 755.247 -0.900006 -1.31803 0
M  V30 7472 C 755.447 0.451293 -1.96381 0
M  V30 7473 O 754.503 1.19252 -2.22565 0
M  V30 7474 C 755.816 -2.04334 -2.20609 0
M  V30 7475 C 757.364 -2.07823 -2.34048 0
M  V30 7476 C 757.839 -3.21488 -3.26204 0
M  V30 7477 N 759.33 -3.21156 -3.33786 0
M  V30 7478 C 760.065 -4.05746 -4.05163 0
M  V30 7479 N 759.561 -5.00407 -4.79129 0
M  V30 7480 N 761.354 -3.93759 -4.01136 0
M  V30 7481 H 753.505 -2.02681 -0.635146 0
M  V30 7482 H 755.768 -0.883956 -0.342528 0
M  V30 7483 H 755.474 -3.01895 -1.80423 0
M  V30 7484 H 755.348 -1.97838 -3.21154 0
M  V30 7485 H 757.735 -1.1086 -2.73485 0
M  V30 7486 H 757.816 -2.18386 -1.33197 0
M  V30 7487 H 757.46 -4.18706 -2.87485 0
M  V30 7488 H 757.39 -3.08162 -4.27017 0
M  V30 7489 H 759.881 -2.52606 -2.81067 0
M  V30 7490 H 760.194 -5.61387 -5.31097 0
M  V30 7491 H 758.539 -5.04393 -4.78135 0
M  V30 7492 H 761.73 -3.19115 -3.42466 0
M  V30 7493 H 761.903 -4.59906 -4.56498 0
M  V30 7494 N 755.309 1.25446 -0.953992 0
M  V30 7495 C 756.725 1.4539 -0.658316 0
M  V30 7496 C 756.925 1.85607 0.784356 0
M  V30 7497 O 755.981 1.98568 1.55972 0
M  V30 7498 C 757.294 2.52643 -1.6307 0
M  V30 7499 C 758.842 2.66484 -1.64181 0
M  V30 7500 C 759.317 3.76921 -2.60182 0
M  V30 7501 N 760.808 3.84331 -2.58542 0
M  V30 7502 C 761.543 4.69271 -3.29503 0
M  V30 7503 N 761.039 5.58503 -4.09934 0
M  V30 7504 N 762.832 4.6323 -3.18393 0
M  V30 7505 H 754.983 0.976337 -1.8863 0
M  V30 7506 H 757.246 0.490343 -0.811337 0
M  V30 7507 H 756.952 2.29949 -2.66114 0
M  V30 7508 H 756.826 3.50547 -1.39271 0
M  V30 7509 H 759.213 2.88545 -0.618552 0
M  V30 7510 H 759.294 1.68982 -1.92038 0
M  V30 7511 H 758.938 3.55612 -3.62633 0
M  V30 7512 H 758.868 4.73906 -2.29609 0
M  V30 7513 H 761.359 3.20544 -2.0015 0
M  V30 7514 H 761.672 6.20241 -4.61 0
M  V30 7515 H 760.017 5.58214 -4.14032 0
M  V30 7516 H 763.208 3.92527 -2.5503 0
M  V30 7517 H 763.381 5.29204 -3.73961 0
M  V30 7518 N 756.787 0.722489 1.40064 0
M  V30 7519 C 757.734 0.0743738 2.3068 0
M  V30 7520 C 758.704 -0.743004 1.48555 0
M  V30 7521 O 759.889 -0.705536 1.77276 0
M  V30 7522 C 757.029 -0.836292 3.34814 0
M  V30 7523 C 756.142 -0.00764663 4.31999 0
M  V30 7524 C 755.277 -0.918428 5.232 0
M  V30 7525 C 754.316 -0.0842838 6.12042 0
M  V30 7526 N 753.453 -0.950316 6.95639 0
M  V30 7527 H 758.293 0.852794 2.85537 0
M  V30 7528 H 755.83 0.432222 1.40607 0
M  V30 7529 H 757.788 -1.3786 3.93765 0
M  V30 7530 H 756.418 -1.58082 2.81443 0
M  V30 7531 H 755.47 0.651928 3.74772 0
M  V30 7532 H 756.782 0.63786 4.94705 0
M  V30 7533 H 755.936 -1.52902 5.87116 0
M  V30 7534 H 754.675 -1.59774 4.60786 0
M  V30 7535 H 753.68 0.5392 5.4715 0
M  V30 7536 H 754.905 0.591628 6.76518 0
M  V30 7537 H 752.851 -1.61515 6.35806 0
M  V30 7538 H 752.768 -0.361004 7.55138 0
M  V30 7539 H 754.036 -1.54687 7.63997 0
M  V30 7540 N 758.265 -1.50454 0.469181 0
M  V30 7541 C 759.175 -2.32248 -0.331349 0
M  V30 7542 C 760.191 -1.42548 -0.997807 0
M  V30 7543 O 761.367 -1.75602 -0.9862 0
M  V30 7544 C 758.432 -3.17171 -1.40012 0
M  V30 7545 C 757.493 -4.2269 -0.750463 0
M  V30 7546 C 756.726 -5.03554 -1.76831 0
M  V30 7547 O 756.949 -4.85469 -2.99459 0
M  V30 7548 O 755.883 -5.86767 -1.3412 0
M  V30 7549 H 759.709 -3.01821 0.337279 0
M  V30 7550 H 757.294 -1.47602 0.231066 0
M  V30 7551 H 759.176 -3.69871 -2.01924 0
M  V30 7552 H 757.851 -2.50328 -2.05226 0
M  V30 7553 H 756.758 -3.73986 -0.0924446 0
M  V30 7554 H 758.091 -4.91997 -0.14131 0
M  V30 7555 N 759.743 -0.201713 -1.56304 0
M  V30 7556 C 760.971 0.440723 -2.02152 0
M  V30 7557 C 761.386 1.54735 -1.08179 0
M  V30 7558 O 760.743 1.82289 -0.0878196 0
M  V30 7559 C 760.794 0.990884 -3.47655 0
M  V30 7560 O 760.515 -0.0715937 -4.38041 0
M  V30 7561 C 762.016 1.70854 -4.09052 0
M  V30 7562 H 759.236 0.109987 -0.661924 0
M  V30 7563 H 761.78 -0.312358 -2.021 0
M  V30 7564 H 759.935 1.69432 -3.48384 0
M  V30 7565 H 760.349 0.338892 -5.23404 0
M  V30 7566 H 761.823 2.04572 -5.12693 0
M  V30 7567 H 762.3 2.61462 -3.52894 0
M  V30 7568 H 762.906 1.0508 -4.12114 0
M  V30 7569 N 761.222 1.57436 0.0718424 0
M  V30 7570 C 762.185 2.02703 1.06977 0
M  V30 7571 C 763.185 0.924062 1.31597 0
M  V30 7572 O 764.375 1.18894 1.27318 0
M  V30 7573 C 761.507 2.40763 2.41342 0
M  V30 7574 H 762.7 2.92098 0.679619 0
M  V30 7575 H 760.253 1.5304 0.317565 0
M  V30 7576 H 760.988 1.54394 2.8519 0
M  V30 7577 H 760.773 3.21249 2.24814 0
M  V30 7578 H 762.263 2.76361 3.13073 0
M  V30 7579 N 762.7 -0.34323 1.53817 0
M  V30 7580 C 763.663 -1.40444 1.8113 0
M  V30 7581 C 764.663 -1.45604 0.682366 0
M  V30 7582 O 765.853 -1.45974 0.950649 0
M  V30 7583 C 762.985 -2.79369 1.95361 0
M  V30 7584 H 764.178 -1.17489 2.75928 0
M  V30 7585 H 761.731 -0.577636 1.45234 0
M  V30 7586 H 762.466 -3.07607 1.02707 0
M  V30 7587 H 762.251 -2.7702 2.77493 0
M  V30 7588 H 763.741 -3.56178 2.18008 0
M  V30 7589 N 764.178 -1.45556 -0.604258 0
M  V30 7590 C 765.141 -1.54091 -1.69672 0
M  V30 7591 C 766.141 -0.420076 -1.55216 0
M  V30 7592 O 767.331 -0.683671 -1.60224 0
M  V30 7593 C 764.463 -1.44063 -3.08964 0
M  V30 7594 H 765.656 -2.51431 -1.6347 0
M  V30 7595 H 763.209 -1.33046 -0.820273 0
M  V30 7596 H 763.944 -0.479201 -3.2074 0
M  V30 7597 H 763.729 -2.25362 -3.20865 0
M  V30 7598 H 765.219 -1.53075 -3.88533 0
M  V30 7599 N 765.656 0.84705 -1.32902 0
M  V30 7600 C 766.881 1.63925 -1.27056 0
M  V30 7601 C 767.306 1.87443 0.157136 0
M  V30 7602 O 766.664 1.43266 1.11106 0
M  V30 7603 C 766.712 2.97134 -2.04313 0
M  V30 7604 O 765.816 3.88049 -1.39614 0
M  V30 7605 H 765.157 0.499477 -0.437514 0
M  V30 7606 H 767.687 1.05443 -1.75336 0
M  V30 7607 H 767.697 3.46896 -2.14772 0
M  V30 7608 H 766.372 2.79339 -3.08128 0
M  V30 7609 H 764.949 3.46525 -1.3775 0
M  V30 7610 N 767.134 1.16236 1.06428 0
M  V30 7611 C 768.359 0.967688 1.83441 0
M  V30 7612 C 768.784 -0.479167 1.81894 0
M  V30 7613 O 768.142 -1.34224 1.21875 0
M  V30 7614 C 768.19 1.49806 3.2801 0
M  V30 7615 O 767.294 0.703481 4.06356 0
M  V30 7616 H 766.635 0.344468 0.56766 0
M  V30 7617 H 769.165 1.54442 1.34197 0
M  V30 7618 H 769.175 1.51495 3.78831 0
M  V30 7619 H 767.85 2.55133 3.2845 0
M  V30 7620 H 766.427 0.756986 3.65136 0
M  V30 7621 N 768.612 -1.24939 0.960631 0
M  V30 7622 C 769.837 -1.9742 0.635608 0
M  V30 7623 C 770.262 -1.70857 -0.786737 0
M  V30 7624 O 769.62 -0.968063 -1.53291 0
M  V30 7625 C 769.668 -3.48987 0.907771 0
M  V30 7626 O 768.772 -4.12399 -0.0104053 0
M  V30 7627 H 768.113 -0.61871 0.241027 0
M  V30 7628 H 770.643 -1.58901 1.28886 0
M  V30 7629 H 770.653 -3.99334 0.836453 0
M  V30 7630 H 769.328 -3.6765 1.94439 0
M  V30 7631 H 767.905 -3.72727 0.113631 0
M  V30 7632 N 770.09 -0.729906 -1.39679 0
M  V30 7633 C 771.315 -0.284345 -2.05442 0
M  V30 7634 C 771.74 1.07056 -1.54663 0
M  V30 7635 O 771.098 1.67732 -0.688157 0
M  V30 7636 C 771.146 -0.290089 -3.59431 0
M  V30 7637 O 770.25 0.723978 -4.05995 0
M  V30 7638 H 769.591 -0.130311 -0.651088 0
M  V30 7639 H 772.121 -0.994403 -1.78809 0
M  V30 7640 H 772.131 -0.132712 -4.07784 0
M  V30 7641 H 770.806 -1.27877 -3.95753 0
M  V30 7642 H 769.383 0.533154 -3.69069 0
M  V30 7643 N 771.568 1.50203 -0.477153 0
M  V30 7644 C 772.793 2.07263 0.0754986 0
M  V30 7645 C 773.218 1.33801 1.32208 0
M  V30 7646 O 772.576 0.387482 1.77111 0
M  V30 7647 C 772.624 3.59028 0.336348 0
M  V30 7648 O 771.728 3.87339 1.4157 0
M  V30 7649 H 771.069 0.663815 -0.015662 0
M  V30 7650 H 773.599 1.93321 -0.669936 0
M  V30 7651 H 773.609 4.03927 0.575034 0
M  V30 7652 H 772.284 4.11912 -0.574551 0
M  V30 7653 H 770.861 3.54272 1.16385 0
M  V30 7654 N 773.046 0.209999 1.56195 0
M  V30 7655 C 774.323 -0.473214 1.89789 0
M  V30 7656 C 774.703 -1.78581 1.1257 0
M  V30 7657 O 774.051 -2.27325 0.231398 0
M  V30 7658 C 774.261 -0.677458 3.42362 0
M  V30 7659 C 775.609 -0.990114 4.12895 0
M  V30 7660 O 776.633 -0.764655 3.47896 0
M  V30 7661 O 775.492 -1.41737 5.278 0
M  V30 7662 H 772.586 -0.248622 0.788743 0
M  V30 7663 H 775.132 0.251324 1.67829 0
M  V30 7664 H 773.904 0.248878 3.90508 0
M  V30 7665 H 773.527 -1.45391 3.70064 0
M  V30 7666 N 774.524 -1.57472 -0.0634922 0
M  V30 7667 C 775.434 -2.07621 -1.09227 0
M  V30 7668 C 776.45 -1.00746 -1.41867 0
M  V30 7669 O 777.626 -1.32269 -1.51878 0
M  V30 7670 C 774.691 -2.51707 -2.38421 0
M  V30 7671 C 773.752 -3.72917 -2.12676 0
M  V30 7672 C 772.985 -4.14891 -3.3571 0
M  V30 7673 O 773.208 -3.56663 -4.45137 0
M  V30 7674 O 772.142 -5.07616 -3.23434 0
M  V30 7675 H 775.968 -2.95612 -0.696205 0
M  V30 7676 H 773.553 -1.46787 -0.27819 0
M  V30 7677 H 775.435 -2.80547 -3.14438 0
M  V30 7678 H 774.11 -1.66842 -2.77391 0
M  V30 7679 H 773.017 -3.49148 -1.34337 0
M  V30 7680 H 774.35 -4.5866 -1.78583 0
M  V30 7681 N 776.003 0.335068 -1.53997 0
M  V30 7682 C 777.28 1.09188 -1.62288 0
M  V30 7683 C 777.66 2.0626 -0.449458 0
M  V30 7684 O 777.008 2.21596 0.557444 0
M  V30 7685 C 777.218 1.80403 -2.98757 0
M  V30 7686 C 778.566 2.33841 -3.54406 0
M  V30 7687 O 779.59 1.90487 -3.00987 0
M  V30 7688 O 778.449 3.1318 -4.47862 0
M  V30 7689 H 775.543 0.502621 -0.656736 0
M  V30 7690 H 778.089 0.33588 -1.66343 0
M  V30 7691 H 776.861 1.09732 -3.75599 0
M  V30 7692 H 776.484 2.62841 -2.9833 0
M  V30 7693 N 777.481 1.45874 0.596531 0
M  V30 7694 C 778.411 1.5824 1.71705 0
M  V30 7695 C 779.392 0.433366 1.64487 0
M  V30 7696 O 780.577 0.657895 1.82717 0
M  V30 7697 C 777.707 1.55927 3.10329 0
M  V30 7698 C 776.661 2.69659 3.32367 0
M  V30 7699 C 775.987 2.52403 4.71377 0
M  V30 7700 C 777.287 4.11591 3.21544 0
M  V30 7701 H 778.981 2.52035 1.61613 0
M  V30 7702 H 776.527 1.21297 0.776082 0
M  V30 7703 H 778.48 1.63173 3.88526 0
M  V30 7704 H 777.204 0.586674 3.21288 0
M  V30 7705 H 775.863 2.61859 2.56564 0
M  V30 7706 H 775.511 1.53258 4.79083 0
M  V30 7707 H 775.211 3.28679 4.87077 0
M  V30 7708 H 776.735 2.6152 5.5176 0
M  V30 7709 H 778.149 4.20576 3.89601 0
M  V30 7710 H 776.546 4.88344 3.4877 0
M  V30 7711 H 777.616 4.32719 2.1882 0
M  V30 7712 N 778.959 -0.83999 1.33349 0
M  V30 7713 C 780.184 -1.63249 1.27924 0
M  V30 7714 C 780.609 -1.87523 -0.147193 0
M  V30 7715 O 779.967 -1.43853 -1.10345 0
M  V30 7716 C 780.015 -2.96046 2.05886 0
M  V30 7717 O 779.119 -3.87303 1.4167 0
M  V30 7718 H 778.46 -0.49715 0.440157 0
M  V30 7719 H 780.99 -1.04512 1.75893 0
M  V30 7720 H 781 -3.45752 2.16609 0
M  V30 7721 H 779.675 -2.77701 3.09605 0
M  V30 7722 H 778.252 -3.45789 1.39585 0
M  V30 7723 N 780.437 -1.16799 -1.0581 0
M  V30 7724 C 781.684 -0.952524 -1.78699 0
M  V30 7725 C 782.012 0.51931 -1.87439 0
M  V30 7726 O 781.267 1.40151 -1.36587 0
M  V30 7727 C 781.566 -1.53111 -3.22942 0
M  V30 7728 C 781.232 -3.0261 -3.34273 0
M  V30 7729 C 779.894 -3.43418 -3.37072 0
M  V30 7730 C 782.246 -3.98611 -3.35795 0
M  V30 7731 C 779.574 -4.78838 -3.39015 0
M  V30 7732 C 781.926 -5.33923 -3.39277 0
M  V30 7733 C 780.59 -5.74205 -3.40361 0
M  V30 7734 H 779.86 -0.348553 -0.653905 0
M  V30 7735 H 782.507 -1.45591 -1.244 0
M  V30 7736 H 780.812 -0.949286 -3.80126 0
M  V30 7737 H 782.509 -1.34002 -3.77948 0
M  V30 7738 H 779.099 -2.70075 -3.32803 0
M  V30 7739 H 783.283 -3.68146 -3.32839 0
M  V30 7740 H 778.539 -5.09369 -3.38161 0
M  V30 7741 H 782.713 -6.08094 -3.39403 0
M  V30 7742 H 780.34 -6.79117 -3.4162 0
M  V30 7743 N 781.915 1.24427 -0.967243 0
M  V30 7744 C 783.326 1.74349 -0.667785 0
M  V30 7745 C 783.677 1.78403 0.816509 0
M  V30 7746 O 782.802 1.41315 1.63887 0
M  V30 7747 C 783.397 3.16628 -1.20548 0
M  V30 7748 C 781.956 3.64059 -0.955934 0
M  V30 7749 C 781.103 2.42715 -1.34106 0
M  V30 7750 H 784.054 1.10136 -1.14262 0
M  V30 7751 H 784.075 3.76183 -0.571547 0
M  V30 7752 H 783.587 3.13646 -2.28578 0
M  V30 7753 H 781.688 3.72441 0.108858 0
M  V30 7754 H 781.801 4.51549 -1.60126 0
M  V30 7755 H 780.165 2.43114 -0.759452 0
M  V30 7756 H 780.948 2.42414 -2.43085 0
M  V30 7757 N 783.393 0.737304 1.3929 0
M  V30 7758 C 784.641 0.285691 2.00071 0
M  V30 7759 C 784.962 -1.13169 1.58801 0
M  V30 7760 O 784.232 -1.77104 0.837308 0
M  V30 7761 H 782.812 0.102638 0.739915 0
M  V30 7762 H 785.474 0.947775 1.70303 0
M  V30 7763 H 784.57 0.335906 3.10287 0
M  V30 7764 N 784.871 -1.49948 0.485112 0
M  V30 7765 C 785.781 -2.32587 -0.306697 0
M  V30 7766 C 786.797 -1.43598 -0.982632 0
M  V30 7767 O 787.973 -1.76638 -0.967519 0
M  V30 7768 C 785.038 -3.18638 -1.3664 0
M  V30 7769 C 784.099 -4.23462 -0.705589 0
M  V30 7770 C 783.332 -5.05401 -1.7148 0
M  V30 7771 O 783.555 -4.88618 -2.94293 0
M  V30 7772 O 782.489 -5.88157 -1.27889 0
M  V30 7773 H 786.315 -3.01447 0.369272 0
M  V30 7774 H 783.9 -1.47349 0.246709 0
M  V30 7775 H 785.782 -3.71992 -1.9799 0
M  V30 7776 H 784.457 -2.52491 -2.02559 0
M  V30 7777 H 783.364 -3.74063 -0.0527733 0
M  V30 7778 H 784.697 -4.92119 -0.0891187 0
M  V30 7779 N 786.349 -0.21828 -1.56081 0
M  V30 7780 C 787.312 0.679633 -2.18892 0
M  V30 7781 C 788.312 1.12405 -1.14986 0
M  V30 7782 O 789.502 1.03339 -1.40238 0
M  V30 7783 C 786.634 1.93063 -2.80962 0
M  V30 7784 H 787.827 0.132066 -2.99609 0
M  V30 7785 H 785.38 0.0313374 -1.56269 0
M  V30 7786 H 786.115 2.52015 -2.04106 0
M  V30 7787 H 785.9 1.62046 -3.57048 0
M  V30 7788 H 787.39 2.57043 -3.29118 0
M  V30 7789 N 787.827 1.57504 0.0551401 0
M  V30 7790 C 788.737 2.08198 1.08124 0
M  V30 7791 C 789.753 1.01496 1.41331 0
M  V30 7792 O 790.929 1.33073 1.51174 0
M  V30 7793 C 787.994 2.52968 2.37083 0
M  V30 7794 C 787.055 3.7404 2.10696 0
M  V30 7795 C 786.288 4.16665 3.33505 0
M  V30 7796 O 786.511 3.59019 4.4324 0
M  V30 7797 O 785.445 5.09324 3.20737 0
M  V30 7798 H 789.271 2.95977 0.680518 0
M  V30 7799 H 786.856 1.46933 0.270401 0
M  V30 7800 H 788.738 2.82211 3.12946 0
M  V30 7801 H 787.413 1.6831 2.76502 0
M  V30 7802 H 786.32 3.49855 1.32484 0
M  V30 7803 H 787.653 4.59601 1.76148 0
M  V30 7804 N 789.305 -0.326896 1.54172 0
M  V30 7805 C 790.255 -1.40319 1.79707 0
M  V30 7806 C 791.239 -1.47056 0.652938 0
M  V30 7807 O 792.431 -1.51645 0.91284 0
M  V30 7808 C 789.56 -2.77222 2.02491 0
M  V30 7809 C 788.646 -2.74811 3.23016 0
M  V30 7810 N 789.037 -2.42022 4.44138 0
M  V30 7811 C 787.335 -3.05943 3.24522 0
M  V30 7812 C 788.036 -2.48263 5.26061 0
M  V30 7813 N 787.012 -2.84567 4.63166 0
M  V30 7814 H 790.814 -1.13892 2.70935 0
M  V30 7815 H 788.328 -0.53536 1.53322 0
M  V30 7816 H 790.325 -3.54793 2.18923 0
M  V30 7817 H 788.985 -3.04582 1.12515 0
M  V30 7818 H 789.996 -2.14926 4.71197 0
M  V30 7819 H 786.673 -3.38367 2.44569 0
M  V30 7820 H 788.063 -2.2593 6.32776 0
M  V30 7821 N 790.784 -1.46188 -0.588786 0
M  V30 7822 C 792.032 -1.50885 -1.34455 0
M  V30 7823 C 792.353 -0.159555 -1.94346 0
M  V30 7824 O 791.623 0.813239 -1.78222 0
M  V30 7825 H 790.203 -0.555707 -0.499198 0
M  V30 7826 H 792.865 -1.82277 -0.690014 0
M  V30 7827 H 791.961 -2.25816 -2.15438 0
M  V30 7828 N 792.262 0.832906 -1.33792 0
M  V30 7829 C 793.678 1.1245 -1.13257 0
M  V30 7830 C 793.878 2.01369 0.0725832 0
M  V30 7831 O 792.934 2.41071 0.751082 0
M  V30 7832 C 794.247 1.78084 -2.42294 0
M  V30 7833 C 795.795 1.90624 -2.48257 0
M  V30 7834 C 796.27 2.59673 -3.77271 0
M  V30 7835 N 797.761 2.67181 -3.78376 0
M  V30 7836 C 798.496 3.21313 -4.74916 0
M  V30 7837 N 797.992 3.76086 -5.81835 0
M  V30 7838 N 799.785 3.19621 -4.62384 0
M  V30 7839 H 791.936 0.241244 -2.11026 0
M  V30 7840 H 794.199 0.169557 -0.932713 0
M  V30 7841 H 793.905 1.20209 -3.30519 0
M  V30 7842 H 793.779 2.78049 -2.5489 0
M  V30 7843 H 796.166 2.4765 -1.60478 0
M  V30 7844 H 796.247 0.89591 -2.39598 0
M  V30 7845 H 795.891 2.03304 -4.65435 0
M  V30 7846 H 795.821 3.61189 -3.8321 0
M  V30 7847 H 798.312 2.28346 -3.01108 0
M  V30 7848 H 798.625 4.15612 -6.51526 0
M  V30 7849 H 796.97 3.74357 -5.85561 0
M  V30 7850 H 800.161 2.76091 -3.7801 0
M  V30 7851 H 800.334 3.61504 -5.37791 0
M  V30 7852 N 793.74 1.17359 1.05189 0
M  V30 7853 C 794.703 0.892604 2.11105 0
M  V30 7854 C 795.703 -0.117236 1.60372 0
M  V30 7855 O 796.893 0.114936 1.7382 0
M  V30 7856 C 794.025 0.337032 3.3923 0
M  V30 7857 H 795.218 1.83169 2.37464 0
M  V30 7858 H 792.771 0.984051 1.21434 0
M  V30 7859 H 793.506 -0.609198 3.18527 0
M  V30 7860 H 793.291 1.06484 3.77364 0
M  V30 7861 H 794.781 0.158763 4.17298 0
M  V30 7862 N 795.218 -1.23913 0.973828 0
M  V30 7863 C 796.634 -1.44325 0.681363 0
M  V30 7864 C 796.834 -1.86832 -0.754728 0
M  V30 7865 O 795.89 -2.01024 -1.52793 0
M  V30 7866 C 797.203 -2.50017 1.67069 0
M  V30 7867 C 798.751 -2.63838 1.68399 0
M  V30 7868 C 799.226 -3.72734 2.66145 0
M  V30 7869 N 800.717 -3.80169 2.64624 0
M  V30 7870 C 801.452 -4.6397 3.36927 0
M  V30 7871 N 800.948 -5.51911 4.18767 0
M  V30 7872 N 802.741 -4.58106 3.25722 0
M  V30 7873 H 794.892 -0.946204 1.9016 0
M  V30 7874 H 797.155 -0.477374 0.819035 0
M  V30 7875 H 796.861 -2.25686 2.69738 0
M  V30 7876 H 796.735 -3.48287 1.4483 0
M  V30 7877 H 799.122 -2.87524 0.664379 0
M  V30 7878 H 799.203 -1.65906 1.94702 0
M  V30 7879 H 798.847 -3.49797 3.68245 0
M  V30 7880 H 798.777 -4.70193 2.3712 0
M  V30 7881 H 801.268 -3.17319 2.05224 0
M  V30 7882 H 801.581 -6.12828 4.70809 0
M  V30 7883 H 799.926 -5.51556 4.2286 0
M  V30 7884 H 803.117 -3.8842 2.61242 0
M  V30 7885 H 803.29 -5.23188 3.82333 0
M  V30 7886 N 796.696 -0.74468 -1.38897 0
M  V30 7887 C 797.643 -0.111064 -2.30533 0
M  V30 7888 C 798.613 0.719276 -1.49719 0
M  V30 7889 O 799.798 0.677244 -1.78376 0
M  V30 7890 C 796.938 0.78292 -3.36102 0
M  V30 7891 C 796.051 -0.0610817 -4.31957 0
M  V30 7892 C 795.186 0.835075 -5.24595 0
M  V30 7893 C 794.225 -0.0130974 -6.12099 0
M  V30 7894 N 793.362 0.839525 -6.97063 0
M  V30 7895 H 798.202 -0.898113 -2.84144 0
M  V30 7896 H 795.739 -0.454537 -1.39901 0
M  V30 7897 H 797.697 1.31578 -3.95908 0
M  V30 7898 H 796.327 1.53585 -2.83922 0
M  V30 7899 H 795.379 -0.711469 -3.73687 0
M  V30 7900 H 796.691 -0.716482 -4.93627 0
M  V30 7901 H 795.845 1.43542 -5.89475 0
M  V30 7902 H 794.584 1.52423 -4.63269 0
M  V30 7903 H 793.589 -0.626179 -5.46223 0
M  V30 7904 H 794.814 -0.699181 -6.75491 0
M  V30 7905 H 792.76 1.5138 -6.38295 0
M  V30 7906 H 792.677 0.240823 -7.55616 0
M  V30 7907 H 793.945 1.42513 -7.66362 0
M  V30 7908 N 798.174 1.49689 -0.493057 0
M  V30 7909 C 799.59 1.58907 -0.148526 0
M  V30 7910 C 799.79 1.4991 1.34645 0
M  V30 7911 O 798.846 1.36893 2.12171 0
M  V30 7912 C 800.159 2.91996 -0.718265 0
M  V30 7913 C 801.707 3.05443 -0.683658 0
M  V30 7914 C 802.182 4.41138 -1.23132 0
M  V30 7915 N 803.673 4.47608 -1.19167 0
M  V30 7916 C 804.408 5.51038 -1.5857 0
M  V30 7917 N 803.904 6.61612 -2.05528 0
M  V30 7918 N 805.697 5.41706 -1.50036 0
M  V30 7919 H 797.848 1.5378 -1.46511 0
M  V30 7920 H 800.111 0.727996 -0.607228 0
M  V30 7921 H 799.817 3.04123 -1.7664 0
M  V30 7922 H 799.691 3.76798 -0.17419 0
M  V30 7923 H 802.078 2.92949 0.355626 0
M  V30 7924 H 802.159 2.22344 -1.26479 0
M  V30 7925 H 801.803 4.54382 -2.26935 0
M  V30 7926 H 801.733 5.22864 -0.626201 0
M  V30 7927 H 804.224 3.68274 -0.847524 0
M  V30 7928 H 804.537 7.36622 -2.33685 0
M  V30 7929 H 802.882 6.62674 -2.09497 0
M  V30 7930 H 806.073 4.54212 -1.13176 0
M  V30 7931 H 806.246 6.22188 -1.81068 0
M  V30 7932 N 799.652 0.226554 1.55963 0
M  V30 7933 C 800.582 -0.676079 2.23498 0
M  V30 7934 C 801.563 -1.19718 1.20837 0
M  V30 7935 O 802.748 -1.24027 1.49436 0
M  V30 7936 C 799.878 -1.88217 2.91876 0
M  V30 7937 C 798.832 -1.4947 4.01052 0
M  V30 7938 C 798.158 -2.77997 4.56751 0
M  V30 7939 C 799.458 -0.680951 5.17842 0
M  V30 7940 H 801.152 -0.112989 2.99187 0
M  V30 7941 H 798.698 -0.0529046 1.43903 0
M  V30 7942 H 800.651 -2.51911 3.37815 0
M  V30 7943 H 799.375 -2.47031 2.13643 0
M  V30 7944 H 798.034 -0.881199 3.55852 0
M  V30 7945 H 797.682 -3.34966 3.75243 0
M  V30 7946 H 797.382 -2.52803 5.30438 0
M  V30 7947 H 798.906 -3.42625 5.05411 0
M  V30 7948 H 800.32 -1.22171 5.60131 0
M  V30 7949 H 798.717 -0.525898 5.97791 0
M  V30 7950 H 799.787 0.311346 4.83899 0
M  V30 7951 N 801.13 -1.57531 -0.0467866 0
M  V30 7952 C 802.077 -2.05387 -1.05285 0
M  V30 7953 C 803.047 -0.939385 -1.36985 0
M  V30 7954 O 804.232 -1.20877 -1.47626 0
M  V30 7955 C 801.372 -2.52343 -2.35408 0
M  V30 7956 C 800.485 -3.77512 -2.10022 0
M  V30 7957 C 799.62 -4.1315 -3.33887 0
M  V30 7958 C 798.659 -5.31286 -3.03976 0
M  V30 7959 N 797.796 -5.62441 -4.20243 0
M  V30 7960 H 802.636 -2.91095 -0.637788 0
M  V30 7961 H 800.173 -1.43939 -0.303322 0
M  V30 7962 H 802.131 -2.77628 -3.11413 0
M  V30 7963 H 800.761 -1.69577 -2.7467 0
M  V30 7964 H 799.813 -3.59417 -1.24594 0
M  V30 7965 H 801.125 -4.63644 -1.83945 0
M  V30 7966 H 800.279 -4.39469 -4.18273 0
M  V30 7967 H 799.018 -3.25634 -3.63062 0
M  V30 7968 H 798.023 -5.04738 -2.17991 0
M  V30 7969 H 799.248 -6.20441 -2.76098 0
M  V30 7970 H 797.194 -4.77885 -4.49402 0
M  V30 7971 H 797.111 -6.43046 -3.97528 0
M  V30 7972 H 798.379 -5.93327 -5.05553 0
M  V30 7973 N 802.608 0.318715 -1.54344 0
M  V30 7974 C 803.833 1.07987 -1.77069 0
M  V30 7975 C 804.258 1.80766 -0.520117 0
M  V30 7976 O 803.616 1.73424 0.528566 0
M  V30 7977 C 803.664 2.04987 -2.96669 0
M  V30 7978 O 802.768 3.12974 -2.68554 0
M  V30 7979 H 802.109 0.311109 -0.586606 0
M  V30 7980 H 804.639 0.361533 -2.0138 0
M  V30 7981 H 804.649 2.47771 -3.2415 0
M  V30 7982 H 803.324 1.51417 -3.87357 0
M  V30 7983 H 801.901 2.74831 -2.52037 0
M  V30 7984 N 804.086 1.46499 0.581025 0
M  V30 7985 C 805.036 1.53606 1.68491 0
M  V30 7986 C 806.02 0.396853 1.55929 0
M  V30 7987 O 807.212 0.645366 1.64815 0
M  V30 7988 C 804.341 1.53089 3.07276 0
M  V30 7989 C 803.427 2.72309 3.25128 0
M  V30 7990 N 803.818 3.97216 3.13134 0
M  V30 7991 C 802.116 2.68568 3.56072 0
M  V30 7992 C 802.817 4.7693 3.33036 0
M  V30 7993 N 801.793 4.08833 3.58269 0
M  V30 7994 H 805.595 2.47976 1.5775 0
M  V30 7995 H 803.109 1.42161 0.785104 0
M  V30 7996 H 805.106 1.56268 3.86505 0
M  V30 7997 H 803.766 0.597969 3.19146 0
M  V30 7998 H 804.777 4.28439 2.90964 0
M  V30 7999 H 801.454 1.84307 3.74616 0
M  V30 8000 H 802.844 5.85879 3.28932 0
M  V30 8001 N 805.565 -0.825799 1.34232 0
M  V30 8002 C 806.811 -1.58419 1.26614 0
M  V30 8003 C 807.144 -1.93503 -0.164341 0
M  V30 8004 O 806.419 -1.59785 -1.109 0
M  V30 8005 C 806.702 -2.8856 2.15418 0
M  V30 8006 C 806.555 -2.60075 3.66989 0
M  V30 8007 C 807.874 -3.90107 2.03726 0
M  V30 8008 H 804.993 -0.574794 0.461282 0
M  V30 8009 H 807.635 -0.951519 1.64457 0
M  V30 8010 H 805.785 -3.42553 1.83275 0
M  V30 8011 H 807.457 -2.12414 4.09485 0
M  V30 8012 H 805.7 -1.93565 3.88221 0
M  V30 8013 H 806.371 -3.52866 4.24488 0
M  V30 8014 H 808.847 -3.45459 2.31942 0
M  V30 8015 H 807.723 -4.78976 2.68092 0
M  V30 8016 H 807.984 -4.30329 1.01337 0
M  V30 8017 N 807.043 -1.17915 -1.04565 0
M  V30 8018 C 807.991 -0.897919 -2.1457 0
M  V30 8019 C 808.985 0.139883 -1.68821 0
M  V30 8020 O 810.191 -0.00779463 -1.79998 0
M  V30 8021 H 806.566 -0.272867 -0.700748 0
M  V30 8022 H 808.537 -1.83268 -2.3549 0
M  V30 8023 C 807.286 -0.434634 -3.44973 0
M  V30 8024 H 806.609 -1.22469 -3.8058 0
M  V30 8025 H 808.049 -0.276804 -4.23095 0
M  V30 8026 C 806.508 0.848738 -3.26034 0
M  V30 8027 O 807.038 1.9141 -3.53164 0
M  V30 8028 N 805.244 0.799373 -2.79389 0
M  V30 8029 H 804.791 -0.0678192 -2.57511 0
M  V30 8030 H 804.749 1.6585 -2.67098 0
M  V30 8031 N 808.521 1.23394 -0.980386 0
M  V30 8032 C 809.746 1.96384 -0.666935 0
M  V30 8033 C 810.171 1.72087 0.759456 0
M  V30 8034 O 809.529 0.992328 1.51732 0
M  V30 8035 C 809.577 3.47499 -0.963177 0
M  V30 8036 O 808.681 4.12363 -0.0552051 0
M  V30 8037 H 808.022 0.614797 -0.250839 0
M  V30 8038 H 810.552 1.56831 -1.31398 0
M  V30 8039 H 810.562 3.97953 -0.899877 0
M  V30 8040 H 809.237 3.6451 -2.00264 0
M  V30 8041 H 807.814 3.72499 -0.172914 0
M  V30 8042 N 809.999 0.752036 1.385 0
M  V30 8043 C 811.276 0.233075 1.94206 0
M  V30 8044 C 811.656 -1.26838 1.68746 0
M  V30 8045 O 811.004 -2.04214 1.02513 0
M  V30 8046 C 811.214 0.58509 3.44061 0
M  V30 8047 C 812.562 0.543871 4.21102 0
M  V30 8048 O 813.586 0.523291 3.52335 0
M  V30 8049 O 812.445 0.553436 5.4369 0
M  V30 8050 H 809.539 0.0483049 0.825588 0
M  V30 8051 H 812.085 0.832053 1.47902 0
M  V30 8052 H 810.857 1.62212 3.56094 0
M  V30 8053 H 810.48 -0.0419738 3.97578 0
M  V30 8054 N 811.477 -1.49425 0.500989 0
M  V30 8055 C 812.725 -2.02053 -0.0434495 0
M  V30 8056 C 813.046 -1.38285 -1.37486 0
M  V30 8057 O 812.316 -0.538171 -1.88363 0
M  V30 8058 H 810.896 -0.746757 -0.0190469 0
M  V30 8059 H 813.558 -1.83449 0.658227 0
M  V30 8060 H 812.654 -3.11619 -0.173129 0
M  V30 8061 N 812.955 -0.234822 -1.55841 0
M  V30 8062 C 814.203 0.392483 -1.98252 0
M  V30 8063 C 814.524 1.59344 -1.12404 0
M  V30 8064 O 813.794 1.94834 -0.204055 0
M  V30 8065 H 812.374 0.147999 -0.732192 0
M  V30 8066 H 815.036 -0.330804 -1.92072 0
M  V30 8067 H 814.132 0.709829 -3.03921 0
M  V30 8068 N 814.433 1.57553 0.0384317 0
M  V30 8069 C 815.658 1.93485 0.746872 0
M  V30 8070 C 816.083 0.834069 1.68597 0
M  V30 8071 O 815.441 -0.210902 1.80069 0
M  V30 8072 C 815.489 3.28463 1.4881 0
M  V30 8073 O 814.593 3.20051 2.60079 0
M  V30 8074 H 813.934 0.632675 0.201539 0
M  V30 8075 H 816.464 2.046 -0.00329815 0
M  V30 8076 H 816.474 3.63132 1.86009 0
M  V30 8077 H 815.149 4.08147 0.799297 0
M  V30 8078 H 813.726 2.96998 2.25492 0
M  V30 8079 N 815.911 -0.310526 1.54511 0
M  V30 8080 C 817.159 -1.04484 1.72996 0
M  V30 8081 C 817.48 -1.88118 0.513479 0
M  V30 8082 O 816.75 -1.90119 -0.472384 0
M  V30 8083 H 815.33 -0.388747 0.637875 0
M  V30 8084 H 817.992 -0.343811 1.91844 0
M  V30 8085 H 817.088 -1.70341 2.61515 0
M  V30 8086 N 817.389 -1.46805 -0.573248 0
M  V30 8087 C 818.637 -1.52302 -1.32847 0
M  V30 8088 C 818.958 -0.180159 -1.94166 0
M  V30 8089 O 818.228 0.794291 -1.79075 0
M  V30 8090 H 816.808 -0.56097 -0.493276 0
M  V30 8091 H 819.47 -1.82998 -0.670642 0
M  V30 8092 H 818.566 -2.28089 -2.13031 0
M  V30 8093 N 818.867 0.818669 -1.34668 0
M  V30 8094 C 819.817 1.91882 -1.23147 0
M  V30 8095 C 820.801 1.60378 -0.129509 0
M  V30 8096 O 821.993 1.73309 -0.359581 0
M  V30 8097 C 819.122 3.28612 -0.993436 0
M  V30 8098 C 818.208 3.66221 -2.13876 0
M  V30 8099 N 818.599 3.75361 -3.39024 0
M  V30 8100 C 816.897 3.96098 -2.04994 0
M  V30 8101 C 817.598 4.0836 -4.14266 0
M  V30 8102 N 816.574 4.21806 -3.429 0
M  V30 8103 H 820.376 1.97133 -2.17981 0
M  V30 8104 H 817.89 1.01257 -1.26967 0
M  V30 8105 H 819.887 4.0725 -0.891797 0
M  V30 8106 H 818.547 3.24655 -0.053824 0
M  V30 8107 H 819.558 3.58747 -3.73525 0
M  V30 8108 H 816.235 4.00236 -1.18816 0
M  V30 8109 H 817.625 4.226 -5.22359 0
M  V30 8110 N 820.346 1.18468 1.03938 0
M  V30 8111 C 821.309 0.914944 2.10146 0
M  V30 8112 C 822.309 -0.10022 1.60487 0
M  V30 8113 O 823.499 0.133365 1.73689 0
M  V30 8114 C 820.631 0.372993 3.38853 0
M  V30 8115 H 821.824 1.85677 2.35508 0
M  V30 8116 H 819.377 0.996876 1.20383 0
M  V30 8117 H 820.112 -0.57538 3.19155 0
M  V30 8118 H 819.897 1.1048 3.76213 0
M  V30 8119 H 821.387 0.203014 4.17106 0
M  V30 8120 N 821.824 -1.22873 0.986916 0
M  V30 8121 C 823.072 -1.91084 0.658121 0
M  V30 8122 C 823.393 -1.77304 -0.811675 0
M  V30 8123 O 822.663 -1.15649 -1.58121 0
M  V30 8124 H 821.243 -0.707251 0.240427 0
M  V30 8125 H 823.905 -1.49357 1.25213 0
M  V30 8126 H 823.001 -2.98373 0.915428 0
M  V30 8127 N 823.302 -0.75937 -1.38099 0
M  V30 8128 C 824.527 -0.327859 -2.04792 0
M  V30 8129 C 824.952 1.03752 -1.56899 0
M  V30 8130 O 824.31 1.66235 -0.723581 0
M  V30 8131 C 824.358 -0.366264 -3.58735 0
M  V30 8132 O 823.462 0.637697 -4.0744 0
M  V30 8133 H 822.803 -0.144092 -0.648177 0
M  V30 8134 H 825.333 -1.03211 -1.7666 0
M  V30 8135 H 825.343 -0.219179 -4.07411 0
M  V30 8136 H 824.018 -1.36243 -3.92951 0
M  V30 8137 H 822.595 0.454749 -3.70117 0
M  V30 8138 N 824.78 1.49157 -0.508906 0
M  V30 8139 C 825.728 2.30922 0.278906 0
M  V30 8140 C 826.722 1.39889 0.955382 0
M  V30 8141 O 827.928 1.56901 0.882169 0
M  V30 8142 H 824.303 0.744087 0.108805 0
M  V30 8143 H 826.274 2.95277 -0.430583 0
M  V30 8144 C 825.023 3.21432 1.32576 0
M  V30 8145 H 824.346 3.91413 0.814634 0
M  V30 8146 H 825.786 3.81568 1.84882 0
M  V30 8147 C 824.245 2.41583 2.34817 0
M  V30 8148 O 824.775 2.1256 3.40854 0
M  V30 8149 N 822.981 2.03462 2.07489 0
M  V30 8150 H 822.528 2.27265 1.21278 0
M  V30 8151 H 822.486 1.50345 2.76123 0
M  V30 8152 N 826.258 0.243083 1.55714 0
M  V30 8153 C 827.19 -0.690766 2.18543 0
M  V30 8154 C 828.203 -1.14163 1.16064 0
M  V30 8155 O 829.392 -1.06906 1.42946 0
M  V30 8156 C 826.492 -1.95016 2.77168 0
M  V30 8157 C 825.665 -1.65137 4.05029 0
M  V30 8158 C 824.724 -2.75998 4.48009 0
M  V30 8159 O 823.75 -2.43547 5.14464 0
M  V30 8160 N 824.952 -4.05414 4.15476 0
M  V30 8161 H 827.717 -0.153203 2.99308 0
M  V30 8162 H 825.278 0.0628968 1.61778 0
M  V30 8163 H 827.27 -2.68414 3.0288 0
M  V30 8164 H 825.84 -2.39762 2.00582 0
M  V30 8165 H 825.06 -0.752768 3.86946 0
M  V30 8166 H 826.348 -1.42633 4.88399 0
M  V30 8167 H 825.746 -4.34613 3.62116 0
M  V30 8168 H 824.303 -4.75288 4.46032 0
M  V30 8169 N 827.736 -1.57571 -0.0300757 0
M  V30 8170 C 828.668 -2.0329 -1.05857 0
M  V30 8171 C 829.681 -0.945543 -1.32527 0
M  V30 8172 O 830.87 -1.22287 -1.30032 0
M  V30 8173 C 827.97 -2.39234 -2.40042 0
M  V30 8174 C 827.143 -3.70337 -2.32743 0
M  V30 8175 C 826.202 -3.93482 -3.49369 0
M  V30 8176 O 825.228 -4.64551 -3.28909 0
M  V30 8177 N 826.43 -3.39042 -4.71201 0
M  V30 8178 H 829.195 -2.9214 -0.668897 0
M  V30 8179 H 826.756 -1.60425 -0.218038 0
M  V30 8180 H 828.748 -2.51856 -3.16782 0
M  V30 8181 H 827.318 -1.5606 -2.70858 0
M  V30 8182 H 826.538 -3.68079 -1.41109 0
M  V30 8183 H 827.826 -4.56343 -2.25007 0
M  V30 8184 H 827.224 -2.81434 -4.90725 0
M  V30 8185 H 825.781 -3.57045 -5.45309 0
M  V30 8186 N 829.214 0.302327 -1.54673 0
M  V30 8187 C 830.146 1.39443 -1.81902 0
M  V30 8188 C 831.159 1.46891 -0.701914 0
M  V30 8189 O 832.348 1.49233 -0.979369 0
M  V30 8190 C 829.448 2.77824 -1.9408 0
M  V30 8191 C 828.621 2.93324 -3.24468 0
M  V30 8192 C 827.68 4.12196 -3.27079 0
M  V30 8193 O 826.706 4.04344 -4.00617 0
M  V30 8194 N 827.908 5.22768 -2.52376 0
M  V30 8195 H 830.673 1.1644 -2.76155 0
M  V30 8196 H 828.234 0.492392 -1.54231 0
M  V30 8197 H 830.226 3.5559 -1.9323 0
M  V30 8198 H 828.796 2.9378 -1.06828 0
M  V30 8199 H 828.016 2.02682 -3.38103 0
M  V30 8200 H 829.304 3.0059 -4.10516 0
M  V30 8201 H 828.702 5.32027 -1.92259 0
M  V30 8202 H 827.259 5.98874 -2.57281 0
M  V30 8203 N 830.692 1.47107 0.565454 0
M  V30 8204 C 831.624 1.55024 1.6882 0
M  V30 8205 C 832.637 0.4371 1.56822 0
M  V30 8206 O 833.826 0.706315 1.63931 0
M  V30 8207 C 830.926 1.43069 3.0722 0
M  V30 8208 C 830.099 2.68807 3.45053 0
M  V30 8209 C 829.158 2.50806 4.62583 0
M  V30 8210 O 828.184 3.24593 4.67577 0
M  V30 8211 N 829.386 1.58093 5.58558 0
M  V30 8212 H 832.151 2.51836 1.62477 0
M  V30 8213 H 829.712 1.43382 0.751885 0
M  V30 8214 H 831.704 1.28773 3.83666 0
M  V30 8215 H 830.274 0.543721 3.07835 0
M  V30 8216 H 829.494 2.97923 2.58138 0
M  V30 8217 H 830.782 3.52298 3.67101 0
M  V30 8218 H 830.18 0.972807 5.57273 0
M  V30 8219 H 828.737 1.49753 6.34364 0
M  V30 8220 N 832.17 -0.811516 1.35101 0
M  V30 8221 C 833.102 -1.93102 1.23468 0
M  V30 8222 C 834.115 -1.62021 0.159095 0
M  V30 8223 O 835.304 -1.73682 0.411945 0
M  V30 8224 C 832.404 -3.27345 0.877404 0
M  V30 8225 C 831.577 -3.86368 2.05033 0
M  V30 8226 C 830.636 -4.99009 1.66963 0
M  V30 8227 O 829.662 -5.16698 2.38772 0
M  V30 8228 N 830.864 -5.7749 0.590394 0
M  V30 8229 H 833.629 -2.0361 2.19916 0
M  V30 8230 H 831.19 -0.988687 1.28205 0
M  V30 8231 H 833.182 -4.00163 0.604298 0
M  V30 8232 H 831.752 -3.126 0.00275267 0
M  V30 8233 H 830.972 -3.05804 2.48752 0
M  V30 8234 H 832.26 -4.22533 2.83449 0
M  V30 8235 H 831.658 -5.657 -0.00633259 0
M  V30 8236 H 830.215 -6.50708 0.377055 0
M  V30 8237 N 833.648 -1.19017 -1.03309 0
M  V30 8238 C 835.064 -0.941483 -1.28873 0
M  V30 8239 C 835.264 0.388587 -1.97718 0
M  V30 8240 O 834.32 1.12111 -2.26246 0
M  V30 8241 C 835.633 -2.11249 -2.13996 0
M  V30 8242 C 837.181 -2.15164 -2.27318 0
M  V30 8243 C 837.656 -3.31704 -3.15811 0
M  V30 8244 N 839.147 -3.31613 -3.23399 0
M  V30 8245 C 839.882 -4.18431 -3.9205 0
M  V30 8246 N 839.378 -5.15397 -4.62966 0
M  V30 8247 N 841.171 -4.06321 -3.88406 0
M  V30 8248 H 833.322 -2.04599 -0.570343 0
M  V30 8249 H 835.585 -0.894406 -0.314232 0
M  V30 8250 H 835.291 -3.07482 -1.70727 0
M  V30 8251 H 835.165 -2.07955 -3.14697 0
M  V30 8252 H 837.552 -1.19504 -2.6982 0
M  V30 8253 H 837.633 -2.22513 -1.26182 0
M  V30 8254 H 837.277 -4.2764 -2.74019 0
M  V30 8255 H 837.207 -3.21592 -4.16997 0
M  V30 8256 H 839.698 -2.6142 -2.72888 0
M  V30 8257 H 840.011 -5.78 -5.12968 0
M  V30 8258 H 838.356 -5.19349 -4.61846 0
M  V30 8259 H 841.547 -3.29849 -3.3214 0
M  V30 8260 H 841.72 -4.74196 -4.41635 0
M  V30 8261 N 835.127 1.22348 -0.993418 0
M  V30 8262 C 836.357 1.94842 -0.687023 0
M  V30 8263 C 836.765 1.73594 0.752445 0
M  V30 8264 O 836.108 1.03238 1.51946 0
M  V30 8265 C 836.17 3.47694 -0.913754 0
M  V30 8266 C 835.834 3.92678 -2.33781 0
M  V30 8267 C 836.831 4.0031 -3.31734 0
M  V30 8268 C 834.516 4.25311 -2.67237 0
M  V30 8269 C 836.51 4.39951 -4.61218 0
M  V30 8270 C 834.197 4.64631 -3.9694 0
M  V30 8271 C 835.195 4.71919 -4.93742 0
M  V30 8272 O 834.883 5.10349 -6.21127 0
M  V30 8273 H 834.615 0.626771 -0.253247 0
M  V30 8274 H 837.169 1.56436 -1.33105 0
M  V30 8275 H 835.399 3.86115 -0.212552 0
M  V30 8276 H 837.088 4.01403 -0.602528 0
M  V30 8277 H 837.854 3.75288 -3.07219 0
M  V30 8278 H 833.733 4.18842 -1.92594 0
M  V30 8279 H 837.277 4.45555 -5.36774 0
M  V30 8280 H 833.174 4.89104 -4.21245 0
M  V30 8281 H 833.942 5.2842 -6.25072 0
M  V30 8282 N 836.605 0.766683 1.37694 0
M  V30 8283 C 837.882 0.25366 1.93948 0
M  V30 8284 C 838.262 -1.25041 1.70082 0
M  V30 8285 O 837.61 -2.03115 1.04674 0
M  V30 8286 C 837.82 0.621549 3.43421 0
M  V30 8287 C 839.168 0.588504 4.20502 0
M  V30 8288 O 840.192 0.560632 3.5176 0
M  V30 8289 O 839.051 0.61107 5.43073 0
M  V30 8290 H 836.145 0.0570586 0.825029 0
M  V30 8291 H 838.691 0.847693 1.47011 0
M  V30 8292 H 837.463 1.65979 3.54354 0
M  V30 8293 H 837.086 0.000197027 3.976 0
M  V30 8294 N 838.083 -1.48885 0.516809 0
M  V30 8295 C 838.993 -2.33185 -0.257293 0
M  V30 8296 C 840.009 -1.4565 -0.951952 0
M  V30 8297 O 841.185 -1.78651 -0.929834 0
M  V30 8298 C 838.25 -3.21465 -1.29851 0
M  V30 8299 C 837.311 -4.24863 -0.615608 0
M  V30 8300 C 836.544 -5.08925 -1.60722 0
M  V30 8301 O 836.767 -4.9475 -2.83863 0
M  V30 8302 O 835.701 -5.90737 -1.15384 0
M  V30 8303 H 839.527 -3.00596 0.433131 0
M  V30 8304 H 837.112 -1.46792 0.277908 0
M  V30 8305 H 838.994 -3.76108 -1.90055 0
M  V30 8306 H 837.669 -2.5673 -1.97158 0
M  V30 8307 H 836.576 -3.74091 0.0265829 0
M  V30 8308 H 837.909 -4.92198 0.0152871 0
M  V30 8309 N 839.561 -0.251338 -1.55583 0
M  V30 8310 C 840.491 0.640437 -2.24545 0
M  V30 8311 C 841.472 1.17781 -1.22726 0
M  V30 8312 O 842.657 1.21633 -1.5139 0
M  V30 8313 C 839.787 1.8355 -2.94834 0
M  V30 8314 C 838.741 1.4307 -4.03379 0
M  V30 8315 C 838.067 2.70695 -4.61116 0
M  V30 8316 C 839.367 0.59848 -5.1886 0
M  V30 8317 H 841.061 0.0653772 -2.99329 0
M  V30 8318 H 838.607 0.0300042 -1.43969 0
M  V30 8319 H 840.56 2.46505 -3.4178 0
M  V30 8320 H 839.284 2.43601 -2.17546 0
M  V30 8321 H 837.943 0.824474 -3.57209 0
M  V30 8322 H 837.591 3.28954 -3.80524 0
M  V30 8323 H 837.291 2.44332 -5.34393 0
M  V30 8324 H 838.815 3.34541 -5.10798 0
M  V30 8325 H 840.229 1.13244 -5.62004 0
M  V30 8326 H 838.626 0.430728 -5.98552 0
M  V30 8327 H 839.696 -0.38829 -4.83343 0
M  V30 8328 N 841.039 1.57585 0.0217189 0
M  V30 8329 C 842.455 1.55072 0.377484 0
M  V30 8330 C 842.655 0.978423 1.76151 0
M  V30 8331 O 841.711 0.602688 2.45202 0
M  V30 8332 C 843.024 2.99462 0.272605 0
M  V30 8333 C 844.572 3.11047 0.349148 0
M  V30 8334 C 845.047 4.57182 0.273636 0
M  V30 8335 N 846.538 4.62007 0.332206 0
M  V30 8336 C 847.273 5.72631 0.296782 0
M  V30 8337 N 846.769 6.92472 0.21322 0
M  V30 8338 N 848.562 5.61028 0.347053 0
M  V30 8339 H 840.713 1.93133 -0.883925 0
M  V30 8340 H 842.976 0.886151 -0.33681 0
M  V30 8341 H 842.682 3.45088 -0.67878 0
M  V30 8342 H 842.556 3.61901 1.06335 0
M  V30 8343 H 844.943 2.65364 1.29097 0
M  V30 8344 H 845.024 2.51425 -0.471085 0
M  V30 8345 H 844.668 5.03534 -0.664548 0
M  V30 8346 H 844.598 5.14724 1.11207 0
M  V30 8347 H 847.089 3.75788 0.399003 0
M  V30 8348 H 847.402 7.72563 0.191492 0
M  V30 8349 H 845.747 6.94769 0.179161 0
M  V30 8350 H 848.938 4.66298 0.410378 0
M  V30 8351 H 849.111 6.47229 0.315979 0
M  V30 8352 N 842.517 -0.29412 1.54831 0
M  V30 8353 C 843.794 -1.04847 1.65126 0
M  V30 8354 C 844.174 -2.04996 0.503986 0
M  V30 8355 O 843.522 -2.22996 -0.498496 0
M  V30 8356 C 843.732 -1.72418 3.03435 0
M  V30 8357 C 845.08 -2.24362 3.60481 0
M  V30 8358 O 846.104 -1.8244 3.05932 0
M  V30 8359 O 844.963 -3.01196 4.56008 0
M  V30 8360 H 842.057 -0.485032 0.669831 0
M  V30 8361 H 844.603 -0.291659 1.67175 0
M  V30 8362 H 843.375 -0.997351 3.78376 0
M  V30 8363 H 842.998 -2.54839 3.05193 0
M  V30 8364 N 843.995 -1.47404 -0.557645 0
M  V30 8365 C 844.958 -1.59411 -1.64684 0
M  V30 8366 C 845.958 -0.469244 -1.53801 0
M  V30 8367 O 847.148 -0.734298 -1.57967 0
M  V30 8368 C 844.28 -1.5382 -3.04224 0
M  V30 8369 H 845.473 -2.56504 -1.55389 0
M  V30 8370 H 843.026 -1.35588 -0.777531 0
M  V30 8371 H 843.761 -0.581 -3.19053 0
M  V30 8372 H 843.546 -2.35456 -3.13533 0
M  V30 8373 H 845.036 -1.65358 -3.83466 0
M  V30 8374 N 845.473 0.80434 -1.35529 0
M  V30 8375 C 846.722 1.55665 -1.28263 0
M  V30 8376 C 847.035 1.95096 0.140352 0
M  V30 8377 O 848.241 2.69422 0.335303 0
M  V30 8378 C 846.697 2.80935 -2.24952 0
M  V30 8379 C 846.305 2.48733 -3.72607 0
M  V30 8380 C 848.049 3.5894 -2.26632 0
M  V30 8381 C 845.956 3.70308 -4.61114 0
M  V30 8382 H 844.886 0.584301 -0.476559 0
M  V30 8383 H 847.537 0.88395 -1.60806 0
M  V30 8384 H 845.919 3.49927 -1.85383 0
M  V30 8385 H 847.093 1.87733 -4.20824 0
M  V30 8386 H 845.408 1.83969 -3.73557 0
M  V30 8387 H 848.005 4.49244 -2.89973 0
M  V30 8388 H 848.348 3.96433 -1.27069 0
M  V30 8389 H 848.881 2.96912 -2.64742 0
M  V30 8390 H 845.62 3.37922 -5.61684 0
M  V30 8391 H 845.14 4.30526 -4.17621 0
M  V30 8392 H 846.819 4.37511 -4.76648 0
M  V30 8393 N 846.951 1.19563 1.02676 0
M  V30 8394 C 847.901 0.903055 2.09354 0
M  V30 8395 C 848.885 -0.133009 1.60349 0
M  V30 8396 O 850.077 0.0729744 1.7685 0
M  V30 8397 C 847.206 0.445852 3.40392 0
M  V30 8398 C 846.292 1.51477 3.96126 0
M  V30 8399 N 846.683 2.73474 4.25495 0
M  V30 8400 C 844.981 1.37856 4.2416 0
M  V30 8401 C 845.682 3.42348 4.7029 0
M  V30 8402 N 844.658 2.69746 4.71952 0
M  V30 8403 H 848.46 1.83023 2.29956 0
M  V30 8404 H 845.974 1.08812 1.20556 0
M  V30 8405 H 847.971 0.21769 4.16331 0
M  V30 8406 H 846.631 -0.47482 3.2121 0
M  V30 8407 H 847.642 3.10217 4.14711 0
M  V30 8408 H 844.319 0.521512 4.1423 0
M  V30 8409 H 845.709 4.46686 5.01917 0
M  V30 8410 N 848.429 -1.21819 0.999893 0
M  V30 8411 C 849.339 -2.27691 0.565159 0
M  V30 8412 C 850.355 -1.69587 -0.389398 0
M  V30 8413 O 851.531 -1.99786 -0.254499 0
M  V30 8414 C 848.596 -3.46537 -0.106432 0
M  V30 8415 C 847.657 -4.19932 0.891964 0
M  V30 8416 C 846.89 -5.33103 0.252327 0
M  V30 8417 O 847.113 -5.62398 -0.952103 0
M  V30 8418 O 846.047 -5.94184 0.960698 0
M  V30 8419 H 849.873 -2.67059 1.44613 0
M  V30 8420 H 847.458 -1.28119 0.768499 0
M  V30 8421 H 849.34 -4.18631 -0.482301 0
M  V30 8422 H 848.015 -3.09079 -0.961865 0
M  V30 8423 H 846.922 -3.5008 1.3189 0
M  V30 8424 H 848.255 -4.61287 1.71682 0
M  V30 8425 N 849.908 -0.773975 -1.37286 0
M  V30 8426 C 850.838 -0.175782 -2.32837 0
M  V30 8427 C 851.819 0.680603 -1.5589 0
M  V30 8428 O 853.004 0.617607 -1.84117 0
M  V30 8429 C 850.134 0.702388 -3.40123 0
M  V30 8430 C 849.088 -0.0528687 -4.27967 0
M  V30 8431 C 848.414 0.944891 -5.26285 0
M  V30 8432 C 849.714 -1.23316 -5.07534 0
M  V30 8433 H 851.408 -0.974016 -2.83114 0
M  V30 8434 H 848.954 -0.469826 -1.3612 0
M  V30 8435 H 850.907 1.13069 -4.05947 0
M  V30 8436 H 849.631 1.53316 -2.88378 0
M  V30 8437 H 848.29 -0.461978 -3.63678 0
M  V30 8438 H 847.938 1.77028 -4.70819 0
M  V30 8439 H 847.638 0.444079 -5.8592 0
M  V30 8440 H 849.162 1.37209 -5.94984 0
M  V30 8441 H 850.576 -0.881395 -5.66484 0
M  V30 8442 H 848.973 -1.66621 -5.76504 0
M  V30 8443 H 850.043 -2.03617 -4.40077 0
M  V30 8444 N 851.386 1.48609 -0.524698 0
M  V30 8445 C 852.333 2.29539 0.240956 0
M  V30 8446 C 853.303 1.37033 0.938681 0
M  V30 8447 O 854.488 1.65996 0.940737 0
M  V30 8448 C 851.628 3.20278 1.28514 0
M  V30 8449 C 850.741 4.27858 0.596798 0
M  V30 8450 C 849.876 5.05784 1.62346 0
M  V30 8451 C 848.915 6.05173 0.918287 0
M  V30 8452 N 848.052 6.76176 1.89025 0
M  V30 8453 H 852.892 2.945 -0.455368 0
M  V30 8454 H 850.429 1.45188 -0.236403 0
M  V30 8455 H 852.387 3.71281 1.90279 0
M  V30 8456 H 851.017 2.57251 1.94992 0
M  V30 8457 H 850.069 3.80162 -0.134668 0
M  V30 8458 H 851.381 4.98782 0.0428506 0
M  V30 8459 H 850.535 5.60775 2.31553 0
M  V30 8460 H 849.274 4.34687 2.2113 0
M  V30 8461 H 848.279 5.49391 0.21212 0
M  V30 8462 H 849.504 6.78265 0.336633 0
M  V30 8463 H 847.45 6.07834 2.46726 0
M  V30 8464 H 847.367 7.43157 1.3876 0
M  V30 8465 H 848.635 7.35759 2.57446 0
M  V30 8466 N 852.864 0.259585 1.55447 0
M  V30 8467 C 854.28 -0.094961 1.59317 0
M  V30 8468 C 854.48 -1.55884 1.2768 0
M  V30 8469 O 853.536 -2.30528 1.0302 0
M  V30 8470 C 854.849 0.265669 2.99524 0
M  V30 8471 C 856.397 0.211007 3.12288 0
M  V30 8472 C 856.872 0.545851 4.54736 0
M  V30 8473 N 858.363 0.496823 4.60528 0
M  V30 8474 C 859.098 0.728909 5.68748 0
M  V30 8475 N 858.594 1.02479 6.85179 0
M  V30 8476 N 860.387 0.658756 5.58226 0
M  V30 8477 H 852.538 1.2141 1.7428 0
M  V30 8478 H 854.801 0.489404 0.811904 0
M  V30 8479 H 854.507 1.28316 3.27457 0
M  V30 8480 H 854.381 -0.401089 3.75061 0
M  V30 8481 H 856.768 -0.797172 2.84129 0
M  V30 8482 H 856.849 0.911799 2.38998 0
M  V30 8483 H 856.493 1.55164 4.83618 0
M  V30 8484 H 856.423 -0.17656 5.26304 0
M  V30 8485 H 858.914 0.277376 3.76881 0
M  V30 8486 H 859.227 1.18897 7.63599 0
M  V30 8487 H 857.572 1.0624 6.86832 0
M  V30 8488 H 860.763 0.427553 4.66143 0
M  V30 8489 H 860.936 0.84302 6.42493 0
M  V30 8490 N 854.342 -1.57594 -0.0133615 0
M  V30 8491 C 855.619 -1.81173 -0.737273 0
M  V30 8492 C 855.999 -0.861395 -1.92726 0
M  V30 8493 O 855.347 0.0929324 -2.28311 0
M  V30 8494 C 855.557 -3.29314 -1.15557 0
M  V30 8495 C 856.905 -3.94707 -1.56498 0
M  V30 8496 O 857.929 -3.33557 -1.24973 0
M  V30 8497 O 856.788 -5.02402 -2.15069 0
M  V30 8498 H 853.882 -0.745575 -0.357837 0
M  V30 8499 H 856.428 -1.69696 0.0110674 0
M  V30 8500 H 855.2 -3.90096 -0.30677 0
M  V30 8501 H 854.823 -3.45739 -1.96343 0
M  V30 8502 N 855.82 0.285905 -1.54985 0
M  V30 8503 C 856.75 1.35752 -1.89983 0
M  V30 8504 C 857.731 1.52163 -0.760295 0
M  V30 8505 O 858.916 1.65421 -1.01733 0
M  V30 8506 C 856.046 2.71925 -2.16042 0
M  V30 8507 C 855 2.70261 -3.31878 0
M  V30 8508 C 854.326 4.09864 -3.43388 0
M  V30 8509 C 855.626 2.30667 -4.68604 0
M  V30 8510 H 857.32 1.06709 -2.79738 0
M  V30 8511 H 854.866 0.511884 -1.34595 0
M  V30 8512 H 856.819 3.46992 -2.39113 0
M  V30 8513 H 855.543 3.02523 -1.23074 0
M  V30 8514 H 854.202 1.97651 -3.08755 0
M  V30 8515 H 853.85 4.37664 -2.47909 0
M  V30 8516 H 853.55 4.09648 -4.21262 0
M  V30 8517 H 855.074 4.86689 -3.68736 0
M  V30 8518 H 856.488 2.95453 -4.91305 0
M  V30 8519 H 854.885 2.41637 -5.49301 0
M  V30 8520 H 855.955 1.25793 -4.68299 0
M  V30 8521 N 857.298 1.47698 0.54982 0
M  V30 8522 C 858.545 1.54702 1.30665 0
M  V30 8523 C 858.873 0.212418 1.93337 0
M  V30 8524 O 858.128 -0.79543 1.78805 0
M  V30 8525 C 858.427 2.61903 2.4319 0
M  V30 8526 C 858.093 4.04953 1.98302 0
M  V30 8527 C 856.755 4.43893 1.85776 0
M  V30 8528 C 859.107 4.94682 1.64133 0
M  V30 8529 C 856.435 5.70387 1.37388 0
M  V30 8530 C 858.787 6.21646 1.17214 0
M  V30 8531 C 857.451 6.5946 1.0329 0
M  V30 8532 H 856.721 0.566096 0.478139 0
M  V30 8533 H 859.368 1.8133 0.615767 0
M  V30 8534 H 857.673 2.2906 3.17866 0
M  V30 8535 H 859.37 2.64543 3.0136 0
M  V30 8536 H 855.96 3.74191 2.08995 0
M  V30 8537 H 860.144 4.65291 1.72679 0
M  V30 8538 H 855.4 5.98427 1.25278 0
M  V30 8539 H 859.574 6.90581 0.898391 0
M  V30 8540 H 857.201 7.57367 0.655735 0
M  V30 8541 N 858.776 -0.797141 1.35954 0
M  V30 8542 C 859.739 -1.89104 1.29508 0
M  V30 8543 C 860.739 -1.59495 0.204444 0
M  V30 8544 O 861.929 -1.68051 0.458746 0
M  V30 8545 C 859.061 -3.25726 1.00576 0
M  V30 8546 H 860.254 -1.96237 2.26785 0
M  V30 8547 H 857.807 -0.994075 1.20614 0
M  V30 8548 H 858.542 -3.24279 0.0372519 0
M  V30 8549 H 858.327 -3.48604 1.79492 0
M  V30 8550 H 859.817 -4.0578 0.986508 0
M  V30 8551 N 860.254 -1.20106 -1.0204 0
M  V30 8552 C 861.217 -0.948261 -2.08664 0
M  V30 8553 C 862.217 0.0746753 -1.60627 0
M  V30 8554 O 863.407 -0.160981 -1.73455 0
M  V30 8555 C 860.539 -0.426854 -3.38217 0
M  V30 8556 H 861.732 -1.894 -2.32524 0
M  V30 8557 H 859.285 -1.0159 -1.18782 0
M  V30 8558 H 860.02 0.524532 -3.2003 0
M  V30 8559 H 859.805 -1.16451 -3.74408 0
M  V30 8560 H 861.295 -0.269346 -4.1673 0
M  V30 8561 N 861.732 1.21287 -1.00634 0
M  V30 8562 C 863.148 1.42467 -0.719389 0
M  V30 8563 C 863.348 1.88767 0.704927 0
M  V30 8564 O 862.404 2.05004 1.47409 0
M  V30 8565 C 863.717 2.455 -1.73639 0
M  V30 8566 C 865.265 2.59281 -1.75335 0
M  V30 8567 C 865.74 3.65547 -2.75934 0
M  V30 8568 N 867.231 3.73019 -2.74611 0
M  V30 8569 C 867.966 4.54873 -3.4911 0
M  V30 8570 N 867.462 5.40614 -4.33253 0
M  V30 8571 N 869.255 4.49309 -3.37754 0
M  V30 8572 H 861.406 0.895454 -1.92602 0
M  V30 8573 H 863.669 0.455491 -0.831404 0
M  V30 8574 H 863.375 2.18455 -2.75627 0
M  V30 8575 H 863.249 3.44325 -1.54014 0
M  V30 8576 H 865.636 2.85661 -0.740377 0
M  V30 8577 H 865.717 1.60685 -1.99032 0
M  V30 8578 H 865.361 3.39911 -3.77389 0
M  V30 8579 H 865.291 4.63741 -2.49503 0
M  V30 8580 H 867.782 3.11766 -2.13565 0
M  V30 8581 H 868.095 6.0013 -4.86892 0
M  V30 8582 H 866.44 5.40151 -4.37335 0
M  V30 8583 H 869.631 3.81357 -2.71449 0
M  V30 8584 H 869.804 5.12867 -3.9607 0
M  V30 8585 N 863.21 0.781244 1.36873 0
M  V30 8586 C 864.142 0.132075 2.28819 0
M  V30 8587 C 865.155 -0.653925 1.49089 0
M  V30 8588 O 866.344 -0.490453 1.7163 0
M  V30 8589 C 863.444 -0.836297 3.28419 0
M  V30 8590 C 862.617 -0.102097 4.37281 0
M  V30 8591 C 861.676 -0.985217 5.16894 0
M  V30 8592 O 860.702 -0.445478 5.67454 0
M  V30 8593 N 861.904 -2.31043 5.3254 0
M  V30 8594 H 864.669 0.921838 2.85171 0
M  V30 8595 H 862.23 0.634427 1.48952 0
M  V30 8596 H 864.222 -1.43074 3.78566 0
M  V30 8597 H 862.792 -1.52698 2.72767 0
M  V30 8598 H 862.012 0.67335 3.88407 0
M  V30 8599 H 863.3 0.404862 5.07187 0
M  V30 8600 H 862.698 -2.77318 4.93063 0
M  V30 8601 H 861.255 -2.85472 5.8596 0
M  V30 8602 N 864.689 -1.48329 0.532571 0
M  V30 8603 C 865.914 -2.074 0.00147755 0
M  V30 8604 C 866.339 -1.38615 -1.27151 0
M  V30 8605 O 865.697 -0.452949 -1.75551 0
M  V30 8606 C 865.745 -3.60029 -0.202866 0
M  V30 8607 O 864.849 -3.92327 -1.27097 0
M  V30 8608 H 864.19 -0.662777 0.0402883 0
M  V30 8609 H 866.72 -1.90701 0.741224 0
M  V30 8610 H 866.73 -4.05783 -0.424722 0
M  V30 8611 H 865.405 -4.09496 0.727033 0
M  V30 8612 H 863.982 -3.58348 -1.03156 0
M  V30 8613 N 866.167 -0.267825 -1.55308 0
M  V30 8614 C 867.392 0.357487 -2.04296 0
M  V30 8615 C 867.817 1.49222 -1.14518 0
M  V30 8616 O 867.175 1.80741 -0.142292 0
M  V30 8617 C 867.223 0.822899 -3.51085 0
M  V30 8618 O 866.327 1.93078 -3.6441 0
M  V30 8619 H 865.668 0.075025 -0.659748 0
M  V30 8620 H 868.198 -0.399996 -2.00652 0
M  V30 8621 H 868.208 1.12059 -3.92309 0
M  V30 8622 H 866.883 -0.0073562 -4.15899 0
M  V30 8623 H 865.46 1.63618 -3.35087 0
M  V30 8624 N 867.645 1.57599 0.00500368 0
M  V30 8625 C 868.873 1.94626 0.702016 0
M  V30 8626 C 869.288 0.86953 1.67585 0
M  V30 8627 O 868.645 -0.15199 1.81866 0
M  V30 8628 C 868.696 3.31658 1.43824 0
M  V30 8629 O 868.417 4.35197 0.503467 0
M  V30 8630 C 869.918 3.83114 2.23021 0
M  V30 8631 H 867.138 0.641785 0.195841 0
M  V30 8632 H 869.682 2.04451 -0.0446287 0
M  V30 8633 H 867.837 3.23156 2.13655 0
M  V30 8634 H 868.251 5.1444 1.02235 0
M  V30 8635 H 869.725 4.81438 2.7004 0
M  V30 8636 H 870.202 3.15559 3.05482 0
M  V30 8637 H 870.808 3.94775 1.58216 0
M  V30 8638 N 869.123 -0.277682 1.55134 0
M  V30 8639 C 870.053 -1.34742 1.90701 0
M  V30 8640 C 871.034 -1.51757 0.768354 0
M  V30 8641 O 872.219 -1.64879 1.02609 0
M  V30 8642 C 869.349 -2.70775 2.17481 0
M  V30 8643 C 868.303 -2.68497 3.33307 0
M  V30 8644 C 867.629 -4.08037 3.45557 0
M  V30 8645 C 868.929 -2.28178 4.69821 0
M  V30 8646 H 870.623 -1.05224 2.803 0
M  V30 8647 H 868.169 -0.504738 1.34864 0
M  V30 8648 H 870.122 -3.45719 2.40949 0
M  V30 8649 H 868.846 -3.01867 1.24676 0
M  V30 8650 H 867.505 -1.9601 3.09799 0
M  V30 8651 H 867.153 -4.36344 2.50226 0
M  V30 8652 H 866.853 -4.07409 4.23429 0
M  V30 8653 H 868.377 -4.84726 3.71312 0
M  V30 8654 H 869.791 -2.92843 4.92865 0
M  V30 8655 H 868.188 -2.3872 5.50575 0
M  V30 8656 H 869.258 -1.23308 4.6896 0
M  V30 8657 N 870.601 -1.47988 -0.541979 0
M  V30 8658 C 871.531 -1.64503 -1.65713 0
M  V30 8659 C 872.512 -0.494116 -1.62765 0
M  V30 8660 O 873.697 -0.725256 -1.80149 0
M  V30 8661 C 870.827 -1.67337 -3.04328 0
M  V30 8662 C 869.781 -2.81809 -3.2213 0
M  V30 8663 C 869.107 -2.69724 -4.61685 0
M  V30 8664 C 870.407 -4.23241 -3.06046 0
M  V30 8665 H 872.101 -2.5786 -1.52147 0
M  V30 8666 H 869.647 -1.24094 -0.730529 0
M  V30 8667 H 871.6 -1.77481 -3.82202 0
M  V30 8668 H 870.324 -0.705514 -3.18889 0
M  V30 8669 H 868.983 -2.71201 -2.46669 0
M  V30 8670 H 868.631 -1.70934 -4.73065 0
M  V30 8671 H 868.331 -3.4653 -4.74543 0
M  V30 8672 H 869.855 -2.81818 -5.41674 0
M  V30 8673 H 871.269 -4.34746 -3.73723 0
M  V30 8674 H 869.666 -5.00952 -3.30405 0
M  V30 8675 H 870.736 -4.40543 -2.02609 0
M  V30 8676 N 872.079 0.78992 -1.36375 0
M  V30 8677 C 873.304 1.58389 -1.33895 0
M  V30 8678 C 873.729 1.8794 0.0774934 0
M  V30 8679 O 873.087 1.4785 1.0493 0
M  V30 8680 C 873.135 2.88201 -2.16732 0
M  V30 8681 O 872.239 3.81778 -1.55946 0
M  V30 8682 H 871.58 0.480471 -0.458305 0
M  V30 8683 H 874.11 0.979119 -1.79651 0
M  V30 8684 H 874.12 3.37475 -2.29292 0
M  V30 8685 H 872.795 2.66019 -3.19698 0
M  V30 8686 H 871.372 3.40371 -1.52323 0
M  V30 8687 N 873.557 1.20646 1.01402 0
M  V30 8688 C 874.52 0.959314 2.08158 0
M  V30 8689 C 875.52 -0.0661558 1.60664 0
M  V30 8690 O 876.71 0.170177 1.73367 0
M  V30 8691 C 873.842 0.444785 3.37986 0
M  V30 8692 H 875.035 1.90631 2.31517 0
M  V30 8693 H 872.588 1.02219 1.18241 0
M  V30 8694 H 873.323 -0.507553 3.20304 0
M  V30 8695 H 873.108 1.18435 3.73785 0
M  V30 8696 H 874.598 0.291443 4.16582 0
M  V30 8697 N 875.035 -1.20752 1.01276 0
M  V30 8698 C 875.998 -2.2162 0.584583 0
M  V30 8699 C 876.998 -1.57094 -0.343215 0
M  V30 8700 O 878.188 -1.73696 -0.132433 0
M  V30 8701 C 875.32 -3.40583 -0.146872 0
M  V30 8702 H 876.513 -2.61015 1.47686 0
M  V30 8703 H 874.066 -1.34148 0.802123 0
M  V30 8704 H 874.801 -3.06686 -1.05424 0
M  V30 8705 H 874.586 -3.88642 0.51958 0
M  V30 8706 H 876.076 -4.15339 -0.433924 0
M  V30 8707 N 876.513 -0.788492 -1.36457 0
M  V30 8708 C 877.443 -0.200468 -2.32638 0
M  V30 8709 C 878.424 0.664031 -1.56603 0
M  V30 8710 O 879.609 0.598045 -1.84762 0
M  V30 8711 C 876.739 0.666274 -3.40849 0
M  V30 8712 C 875.693 -0.0982574 -4.27887 0
M  V30 8713 C 875.019 0.889018 -5.27258 0
M  V30 8714 C 876.319 -1.28692 -5.06197 0
M  V30 8715 H 878.013 -1.00399 -2.82065 0
M  V30 8716 H 875.559 -0.484237 -1.35614 0
M  V30 8717 H 877.512 1.08757 -4.07124 0
M  V30 8718 H 876.236 1.50249 -2.89987 0
M  V30 8719 H 874.895 -0.500525 -3.63167 0
M  V30 8720 H 874.543 1.72024 -4.7267 0
M  V30 8721 H 874.243 0.381909 -5.86358 0
M  V30 8722 H 875.767 1.30891 -5.96406 0
M  V30 8723 H 877.181 -0.941429 -5.65517 0
M  V30 8724 H 875.578 -1.72726 -5.74705 0
M  V30 8725 H 876.648 -2.08273 -4.37893 0
M  V30 8726 N 877.991 1.48044 -0.54043 0
M  V30 8727 C 879.402 1.86418 -0.102662 0
M  V30 8728 C 879.753 1.4489 1.32293 0
M  V30 8729 O 878.878 0.844319 1.99249 0
M  V30 8730 C 879.473 3.38324 -0.179533 0
M  V30 8731 C 878.032 3.75852 0.203098 0
M  V30 8732 C 877.179 2.72097 -0.534637 0
M  V30 8733 H 880.13 1.398 -0.751103 0
M  V30 8734 H 880.151 3.75641 0.606147 0
M  V30 8735 H 879.663 3.68518 -1.21721 0
M  V30 8736 H 877.764 3.51272 1.24252 0
M  V30 8737 H 877.877 4.78884 -0.143784 0
M  V30 8738 H 876.241 2.54692 0.0203358 0
M  V30 8739 H 877.024 3.05135 -1.57314 0
M  V30 8740 N 879.47 0.276058 1.55163 0
M  V30 8741 C 880.695 -0.346648 2.04483 0
M  V30 8742 C 881.12 -1.48613 1.15308 0
M  V30 8743 O 880.478 -1.80663 0.151875 0
M  V30 8744 C 880.526 -0.804268 3.51517 0
M  V30 8745 O 879.63 -1.91143 3.65429 0
M  V30 8746 H 878.971 -0.0715251 0.660136 0
M  V30 8747 H 881.501 0.410631 2.00437 0
M  V30 8748 H 881.511 -1.09977 3.92898 0
M  V30 8749 H 880.186 0.0294123 4.1589 0
M  V30 8750 H 878.763 -1.61839 3.3595 0
M  V30 8751 N 880.948 -1.576 0.00335426 0
M  V30 8752 C 881.911 -2.07576 -0.971838 0
M  V30 8753 C 882.911 -0.985796 -1.27038 0
M  V30 8754 O 884.101 -1.24833 -1.21501 0
M  V30 8755 C 881.233 -2.52003 -2.29581 0
M  V30 8756 H 882.426 -2.95008 -0.539481 0
M  V30 8757 H 879.979 -1.54381 -0.244186 0
M  V30 8758 H 880.714 -1.67825 -2.77498 0
M  V30 8759 H 880.499 -3.31609 -2.09231 0
M  V30 8760 H 881.989 -2.90983 -2.99531 0
M  V30 8761 N 882.426 0.269451 -1.5528 0
M  V30 8762 C 883.389 1.31642 -1.87625 0
M  V30 8763 C 884.389 1.42182 -0.751058 0
M  V30 8764 O 885.579 1.41272 -1.01921 0
M  V30 8765 C 882.711 2.6973 -2.08467 0
M  V30 8766 H 883.904 1.0419 -2.81219 0
M  V30 8767 H 881.457 0.507685 -1.47825 0
M  V30 8768 H 882.192 3.02356 -1.17266 0
M  V30 8769 H 881.977 2.63465 -2.90394 0
M  V30 8770 H 883.467 3.4537 -2.34753 0
M  V30 8771 N 883.904 1.48273 0.534124 0
M  V30 8772 C 885.129 1.59988 1.31979 0
M  V30 8773 C 885.554 0.258824 1.86311 0
M  V30 8774 O 884.912 -0.768885 1.64188 0
M  V30 8775 C 884.96 2.64642 2.44943 0
M  V30 8776 O 884.064 2.21515 3.47858 0
M  V30 8777 H 883.405 0.536625 0.391063 0
M  V30 8778 H 885.935 1.94229 0.643135 0
M  V30 8779 H 885.945 2.85786 2.91187 0
M  V30 8780 H 884.62 3.62004 2.04758 0
M  V30 8781 H 883.197 2.10567 3.0776 0
M  V30 8782 N 885.382 -0.782676 1.36792 0
M  V30 8783 C 886.607 -1.57676 1.34733 0
M  V30 8784 C 887.032 -1.87979 -0.0675253 0
M  V30 8785 O 886.39 -1.48404 -1.04144 0
M  V30 8786 C 886.438 -2.87047 2.18257 0
M  V30 8787 O 885.542 -3.80946 1.57969 0
M  V30 8788 H 884.883 -0.478034 0.460846 0
M  V30 8789 H 887.413 -0.969578 1.80168 0
M  V30 8790 H 887.423 -3.36254 2.31079 0
M  V30 8791 H 886.098 -2.64319 3.21104 0
M  V30 8792 H 884.675 -3.39558 1.54126 0
M  V30 8793 N 886.86 -1.21182 -1.00761 0
M  V30 8794 C 888.085 -1.05411 -1.78615 0
M  V30 8795 C 888.51 0.391837 -1.83973 0
M  V30 8796 O 887.868 1.28256 -1.28141 0
M  V30 8797 C 887.916 -1.65285 -3.20489 0
M  V30 8798 O 887.02 -0.896558 -4.02536 0
M  V30 8799 H 886.361 -0.37116 -0.550578 0
M  V30 8800 H 888.891 -1.60669 -1.26676 0
M  V30 8801 H 888.901 -1.69397 -3.71172 0
M  V30 8802 H 887.576 -2.70514 -3.15904 0
M  V30 8803 H 886.153 -0.930335 -3.61108 0
M  V30 8804 N 888.338 1.20213 -1.01915 0
M  V30 8805 C 889.749 1.7136 -0.741131 0
M  V30 8806 C 890.1 1.81705 0.740107 0
M  V30 8807 O 889.225 1.48139 1.57746 0
M  V30 8808 C 889.82 3.11231 -1.33869 0
M  V30 8809 C 888.379 3.59677 -1.10948 0
M  V30 8810 C 887.526 2.36809 -1.4428 0
M  V30 8811 H 890.477 1.05191 -1.1883 0
M  V30 8812 H 890.498 3.7342 -0.730585 0
M  V30 8813 H 890.01 3.03669 -2.41675 0
M  V30 8814 H 888.111 3.72568 -0.0492052 0
M  V30 8815 H 888.224 4.44351 -1.79134 0
M  V30 8816 H 886.588 2.39674 -0.861881 0
M  V30 8817 H 887.371 2.31886 -2.53148 0
M  V30 8818 N 889.816 0.795718 1.36037 0
M  V30 8819 C 891.044 0.383153 2.03321 0
M  V30 8820 C 891.459 -1.00246 1.59988 0
M  V30 8821 O 890.816 -1.64406 0.792265 0
M  V30 8822 C 890.867 0.444467 3.58757 0
M  V30 8823 O 890.588 1.77544 4.00512 0
M  V30 8824 C 892.089 0.0233291 4.43294 0
M  V30 8825 H 889.309 0.157061 0.652359 0
M  V30 8826 H 891.853 1.07632 1.73884 0
M  V30 8827 H 890.008 -0.200341 3.86882 0
M  V30 8828 H 890.422 1.73065 4.95125 0
M  V30 8829 H 891.896 0.117361 5.51875 0
M  V30 8830 H 892.373 -1.03007 4.2695 0
M  V30 8831 H 892.979 0.64087 4.20444 0
M  V30 8832 N 891.294 -1.47756 0.548274 0
M  V30 8833 C 892.522 -2.06884 0.0254873 0
M  V30 8834 C 892.937 -1.40225 -1.26422 0
M  V30 8835 O 892.294 -0.495776 -1.75637 0
M  V30 8836 C 892.345 -3.61036 -0.183134 0
M  V30 8837 O 892.066 -4.25195 1.05549 0
M  V30 8838 C 893.567 -4.37008 -0.744222 0
M  V30 8839 H 890.787 -0.669697 0.041789 0
M  V30 8840 H 893.331 -1.89888 0.759138 0
M  V30 8841 H 891.486 -3.77576 -0.866886 0
M  V30 8842 H 891.9 -5.17606 0.847629 0
M  V30 8843 H 893.374 -5.45579 -0.839529 0
M  V30 8844 H 893.851 -4.0268 -1.75344 0
M  V30 8845 H 894.457 -4.25191 -0.0964542 0
M  V30 8846 N 892.772 -0.284283 -1.55015 0
M  V30 8847 C 894 0.332948 -2.04203 0
M  V30 8848 C 894.415 1.48783 -1.16229 0
M  V30 8849 O 893.772 1.81567 -0.184323 0
M  V30 8850 C 893.823 0.805207 -3.52418 0
M  V30 8851 O 893.544 -0.303689 -4.37046 0
M  V30 8852 C 895.045 1.48931 -4.17534 0
M  V30 8853 H 892.265 0.0747447 -0.666824 0
M  V30 8854 H 894.809 -0.419048 -2.00161 0
M  V30 8855 H 892.964 1.50727 -3.56876 0
M  V30 8856 H 893.378 0.0609703 -5.24465 0
M  V30 8857 H 894.852 1.77108 -5.22816 0
M  V30 8858 H 895.329 2.42389 -3.66257 0
M  V30 8859 H 895.935 0.830867 -4.17105 0
M  V30 8860 N 894.251 1.57596 -0.0117121 0
M  V30 8861 C 895.479 1.9536 0.681334 0
M  V30 8862 C 895.894 0.887255 1.66653 0
M  V30 8863 O 895.251 -0.132692 1.82017 0
M  V30 8864 C 895.302 3.33165 1.40298 0
M  V30 8865 O 895.023 4.35707 0.45728 0
M  V30 8866 C 896.524 3.85458 2.18946 0
M  V30 8867 H 893.744 0.643826 0.189023 0
M  V30 8868 H 896.288 2.04392 -0.066311 0
M  V30 8869 H 894.443 3.25404 2.10216 0
M  V30 8870 H 894.857 5.15495 0.96773 0
M  V30 8871 H 896.331 4.84275 2.64918 0
M  V30 8872 H 896.808 3.18781 3.02118 0
M  V30 8873 H 897.414 3.96431 1.5402 0
M  V30 8874 N 895.729 -0.261212 1.5542 0
M  V30 8875 C 896.975 -0.992699 1.76843 0
M  V30 8876 C 897.308 -1.8551 0.574428 0
M  V30 8877 O 896.583 -1.89739 -0.427713 0
M  V30 8878 C 896.866 -1.86532 3.08022 0
M  V30 8879 C 896.719 -1.03206 4.378 0
M  V30 8880 C 898.038 -2.85036 3.35324 0
M  V30 8881 H 895.157 -0.359473 0.643388 0
M  V30 8882 H 897.799 -0.264214 1.88154 0
M  V30 8883 H 895.949 -2.48644 2.9851 0
M  V30 8884 H 897.621 -0.430743 4.59285 0
M  V30 8885 H 895.864 -0.335911 4.32497 0
M  V30 8886 H 896.535 -1.6761 5.25938 0
M  V30 8887 H 899.011 -2.3306 3.44706 0
M  V30 8888 H 897.887 -3.43226 4.28354 0
M  V30 8889 H 898.148 -3.60768 2.55537 0
M  V30 8890 N 897.207 -1.48554 -0.526253 0
M  V30 8891 C 898.447 -1.58362 -1.29232 0
M  V30 8892 C 898.811 -0.253353 -1.90321 0
M  V30 8893 O 900.012 -0.226439 -2.67845 0
M  V30 8894 C 898.283 -2.69294 -2.3498 0
M  V30 8895 S 899.842 -2.98891 -3.21262 0
M  V30 8896 H 896.66 -0.558859 -0.439543 0
M  V30 8897 H 899.262 -1.86094 -0.599099 0
M  V30 8898 H 897.966 -3.64504 -1.88587 0
M  V30 8899 H 897.497 -2.43475 -3.09004 0
M  V30 8900 H 899.512 -2.38475 -4.35137 0
M  V30 8901 N 898.685 0.775411 -1.37205 0
M  V30 8902 C 899.913 1.56446 -1.35397 0
M  V30 8903 C 900.328 1.887 0.0615437 0
M  V30 8904 O 899.685 1.51178 1.02233 0
M  V30 8905 C 899.736 2.87697 -2.18889 0
M  V30 8906 O 899.457 2.56828 -3.54924 0
M  V30 8907 C 900.958 3.81944 -2.25019 0
M  V30 8908 H 898.178 0.484792 -0.463916 0
M  V30 8909 H 900.722 0.961346 -1.80495 0
M  V30 8910 H 898.877 3.44442 -1.7731 0
M  V30 8911 H 899.291 3.40851 -3.98649 0
M  V30 8912 H 900.765 4.71055 -2.87769 0
M  V30 8913 H 901.242 4.20811 -1.25757 0
M  V30 8914 H 901.848 3.3113 -2.66895 0
M  V30 8915 N 900.163 1.21714 1.00117 0
M  V30 8916 C 901.574 1.03477 1.55401 0
M  V30 8917 C 901.925 -0.40429 1.91989 0
M  V30 8918 O 901.05 -1.28807 1.7389 0
M  V30 8919 C 901.645 1.87213 2.82377 0
M  V30 8920 C 900.204 1.73297 3.34133 0
M  V30 8921 C 899.351 1.84189 2.07291 0
M  V30 8922 H 902.302 1.3568 0.823195 0
M  V30 8923 H 902.323 1.38465 3.54412 0
M  V30 8924 H 901.835 2.91944 2.55715 0
M  V30 8925 H 899.936 0.712662 3.65721 0
M  V30 8926 H 900.049 2.55486 4.05294 0
M  V30 8927 H 898.413 1.27538 2.20468 0
M  V30 8928 H 899.196 2.90435 1.83037 0
M  V30 8929 N 901.641 -1.19671 1.02551 0
M  V30 8930 C 902.869 -1.93233 0.739513 0
M  V30 8931 C 903.284 -1.75298 -0.701158 0
M  V30 8932 O 902.641 -1.07269 -1.47647 0
M  V30 8933 C 902.692 -3.45085 1.07697 0
M  V30 8934 O 902.413 -3.62441 2.46106 0
M  V30 8935 C 903.914 -4.35776 0.813298 0
M  V30 8936 H 901.134 -0.613905 0.270853 0
M  V30 8937 H 903.678 -1.51909 1.36909 0
M  V30 8938 H 901.833 -3.84255 0.492635 0
M  V30 8939 H 902.247 -4.56337 2.58567 0
M  V30 8940 H 903.721 -5.40941 1.09941 0
M  V30 8941 H 904.198 -4.38474 -0.252359 0
M  V30 8942 H 904.804 -4.02282 1.38021 0
M  V30 8943 N 903.119 -0.802921 -1.35613 0
M  V30 8944 C 904.367 -0.380822 -1.9848 0
M  V30 8945 C 904.688 1.05464 -1.6402 0
M  V30 8946 O 903.958 1.72908 -0.920854 0
M  V30 8947 H 902.538 -0.137824 -0.734176 0
M  V30 8948 H 905.2 -1.02795 -1.65587 0
M  V30 8949 H 904.296 -0.483565 -3.08331 0
M  V30 8950 N 904.597 1.47463 -0.556102 0
M  V30 8951 C 905.507 2.33785 0.195378 0
M  V30 8952 C 906.523 1.48123 0.913 0
M  V30 8953 O 907.699 1.81053 0.882141 0
M  V30 8954 C 904.764 3.24795 1.21282 0
M  V30 8955 C 903.825 4.26346 0.502747 0
M  V30 8956 C 903.058 5.13007 1.47172 0
M  V30 8957 O 903.281 5.02103 2.70646 0
M  V30 8958 O 902.215 5.93588 0.996814 0
M  V30 8959 H 906.041 2.99341 -0.512676 0
M  V30 8960 H 903.626 1.46004 -0.31673 0
M  V30 8961 H 905.508 3.81015 1.80016 0
M  V30 8962 H 904.183 2.61868 1.90282 0
M  V30 8963 H 903.09 3.73889 -0.125757 0
M  V30 8964 H 904.423 4.91984 -0.145779 0
M  V30 8965 N 906.075 0.2925 1.54862 0
M  V30 8966 C 907.005 -0.580677 2.26165 0
M  V30 8967 C 907.986 -1.14485 1.25806 0
M  V30 8968 O 909.171 -1.17577 1.54562 0
M  V30 8969 C 906.301 -1.75668 2.99596 0
M  V30 8970 C 905.255 -1.32325 4.07031 0
M  V30 8971 C 904.581 -2.58374 4.68131 0
M  V30 8972 C 905.881 -0.460703 5.20264 0
M  V30 8973 H 907.575 0.0140075 2.99397 0
M  V30 8974 H 905.121 0.00817706 1.43998 0
M  V30 8975 H 907.074 -2.37356 3.48195 0
M  V30 8976 H 905.798 -2.37747 2.23928 0
M  V30 8977 H 904.457 -0.729477 3.59269 0
M  V30 8978 H 904.105 -3.18749 3.89112 0
M  V30 8979 H 903.805 -2.30078 5.40683 0
M  V30 8980 H 905.329 -3.2088 5.19489 0
M  V30 8981 H 906.743 -0.983037 5.64809 0
M  V30 8982 H 905.14 -0.271881 5.99484 0
M  V30 8983 H 906.21 0.516304 4.82143 0
M  V30 8984 N 907.553 -1.57587 0.0200696 0
M  V30 8985 C 908.781 -1.95718 -0.670964 0
M  V30 8986 C 909.196 -0.896081 -1.6618 0
M  V30 8987 O 908.553 0.123037 -1.82085 0
M  V30 8988 C 908.604 -3.33904 -1.38529 0
M  V30 8989 O 908.325 -4.35943 -0.434167 0
M  V30 8990 C 909.826 -3.86614 -2.16898 0
M  V30 8991 H 907.046 -0.644819 -0.185606 0
M  V30 8992 H 909.59 -2.04354 0.0771495 0
M  V30 8993 H 907.745 -3.26515 -2.08487 0
M  V30 8994 H 908.159 -5.16001 -0.940378 0
M  V30 8995 H 909.633 -4.85673 -2.62346 0
M  V30 8996 H 910.11 -3.20379 -3.00423 0
M  V30 8997 H 910.716 -3.97243 -1.51916 0
M  V30 8998 N 909.032 0.252966 -1.55557 0
M  V30 8999 C 910.257 1.0038 -1.8149 0
M  V30 9000 C 910.682 1.78397 -0.596318 0
M  V30 9001 O 910.04 1.7551 0.454535 0
M  V30 9002 C 910.088 1.9222 -3.05096 0
M  V30 9003 O 909.192 3.01302 -2.81587 0
M  V30 9004 H 908.533 0.285949 -0.599274 0
M  V30 9005 H 911.063 0.275795 -2.02733 0
M  V30 9006 H 911.073 2.338 -3.34368 0
M  V30 9007 H 909.748 1.34852 -3.93431 0
M  V30 9008 H 908.325 2.63894 -2.63466 0
M  V30 9009 N 910.51 1.48831 0.518367 0
M  V30 9010 C 911.758 1.57128 1.27103 0
M  V30 9011 C 912.079 0.252098 1.93364 0
M  V30 9012 O 911.349 -0.727281 1.819 0
M  V30 9013 H 909.929 0.578891 0.472116 0
M  V30 9014 H 912.591 1.85361 0.602262 0
M  V30 9015 H 911.687 2.35838 2.04418 0
M  V30 9016 N 911.988 -0.768124 1.37614 0
M  V30 9017 C 913.236 -1.52379 1.3276 0
M  V30 9018 C 913.557 -1.94809 -0.0863564 0
M  V30 9019 O 912.827 -1.66568 -1.03112 0
M  V30 9020 H 911.407 -0.565179 0.488448 0
M  V30 9021 H 914.069 -0.913974 1.72141 0
M  V30 9022 H 913.165 -2.4215 1.96901 0
M  V30 9023 N 913.466 -1.22244 -0.994698 0
M  V30 9024 C 914.714 -1.04384 -1.73056 0
M  V30 9025 C 915.035 0.422204 -1.90374 0
M  V30 9026 O 914.305 1.30383 -1.46209 0
M  V30 9027 H 912.885 -0.383263 -0.641185 0
M  V30 9028 H 915.547 -1.53725 -1.1981 0
M  V30 9029 H 914.643 -1.52021 -2.72573 0
M  V30 9030 N 914.944 1.19125 -1.03184 0
M  V30 9031 C 915.854 2.26112 -0.625329 0
M  V30 9032 C 916.87 1.7056 0.344298 0
M  V30 9033 O 918.046 2.0039 0.20144 0
M  V30 9034 C 915.111 3.46697 0.0145169 0
M  V30 9035 C 914.172 4.17419 -1.00299 0
M  V30 9036 C 913.405 5.32247 -0.393581 0
M  V30 9037 O 913.628 5.64724 0.802659 0
M  V30 9038 O 912.562 5.91428 -1.1179 0
M  V30 9039 H 916.388 2.63131 -1.51643 0
M  V30 9040 H 913.973 1.26036 -0.802197 0
M  V30 9041 H 915.855 4.19762 0.371139 0
M  V30 9042 H 914.53 3.11521 0.879581 0
M  V30 9043 H 913.437 3.4646 -1.41125 0
M  V30 9044 H 914.77 4.56573 -1.83852 0
M  V30 9045 N 916.422 0.810101 1.35185 0
M  V30 9046 C 917.65 0.404696 2.02903 0
M  V30 9047 C 918.065 -0.985434 1.61042 0
M  V30 9048 O 917.422 -1.63557 0.809658 0
M  V30 9049 C 917.473 0.482493 3.58266 0
M  V30 9050 O 917.194 1.81782 3.98606 0
M  V30 9051 C 918.695 0.070345 4.43244 0
M  V30 9052 H 915.915 0.163972 0.650657 0
M  V30 9053 H 918.459 1.0947 1.72733 0
M  V30 9054 H 916.614 -0.159296 3.87072 0
M  V30 9055 H 917.028 1.78306 4.93262 0
M  V30 9056 H 918.502 0.175888 5.5172 0
M  V30 9057 H 918.979 -0.984724 4.28018 0
M  V30 9058 H 919.585 0.685427 4.1974 0
M  V30 9059 N 917.9 -1.47166 0.563914 0
M  V30 9060 C 919.311 -1.86231 0.132307 0
M  V30 9061 C 919.662 -1.46976 -1.29971 0
M  V30 9062 O 918.787 -0.875911 -1.97881 0
M  V30 9063 C 919.382 -3.37996 0.233335 0
M  V30 9064 C 917.941 -3.76127 -0.143278 0
M  V30 9065 C 917.088 -2.71212 0.577857 0
M  V30 9066 H 920.039 -1.38588 0.773249 0
M  V30 9067 H 920.06 -3.76558 -0.546309 0
M  V30 9068 H 919.572 -3.66535 1.27568 0
M  V30 9069 H 917.673 -3.53205 -1.18648 0
M  V30 9070 H 917.786 -4.78595 0.219952 0
M  V30 9071 H 916.15 -2.54692 0.020186 0
M  V30 9072 H 916.933 -3.02593 1.62149 0
M  V30 9073 N 919.378 -0.300708 -1.54705 0
M  V30 9074 C 920.606 0.31127 -2.04545 0
M  V30 9075 C 921.021 1.47542 -1.178 0
M  V30 9076 O 920.378 1.81361 -0.203571 0
M  V30 9077 C 920.429 0.767783 -3.53253 0
M  V30 9078 O 920.15 -0.350027 -4.36699 0
M  V30 9079 C 921.651 1.44494 -4.1909 0
M  V30 9080 H 918.871 0.067668 -0.667579 0
M  V30 9081 H 921.415 -0.440254 -1.99705 0
M  V30 9082 H 919.57 1.46933 -3.58454 0
M  V30 9083 H 919.984 0.00534038 -5.245 0
M  V30 9084 H 921.458 1.71553 -5.24665 0
M  V30 9085 H 921.935 2.3849 -3.68808 0
M  V30 9086 H 922.541 0.786581 -4.17963 0
M  V30 9087 N 920.856 1.57574 -0.0284266 0
M  V30 9088 C 921.819 2.09096 0.938691 0
M  V30 9089 C 922.819 1.00588 1.25454 0
M  V30 9090 O 924.009 1.2675 1.19499 0
M  V30 9091 C 921.141 2.55624 2.25542 0
M  V30 9092 H 922.334 2.95829 0.49248 0
M  V30 9093 H 919.887 1.5475 0.219594 0
M  V30 9094 H 920.622 1.72218 2.74793 0
M  V30 9095 H 920.407 3.34896 2.03929 0
M  V30 9096 H 921.897 2.95712 2.94863 0
M  V30 9097 N 922.334 -0.244713 1.55689 0
M  V30 9098 C 923.264 -1.30667 1.93516 0
M  V30 9099 C 924.245 -1.50094 0.800371 0
M  V30 9100 O 925.43 -1.62665 1.06083 0
M  V30 9101 C 922.56 -2.66101 2.23176 0
M  V30 9102 C 921.514 -2.61366 3.38927 0
M  V30 9103 C 920.84 -4.00616 3.54134 0
M  V30 9104 C 922.14 -2.18161 4.74555 0
M  V30 9105 H 923.834 -0.992546 2.82469 0
M  V30 9106 H 921.38 -0.476018 1.35905 0
M  V30 9107 H 923.333 -3.4053 2.48228 0
M  V30 9108 H 922.057 -2.99154 1.31051 0
M  V30 9109 H 920.716 -1.89395 3.13887 0
M  V30 9110 H 920.364 -4.30938 2.59426 0
M  V30 9111 H 920.064 -3.98335 4.31975 0
M  V30 9112 H 921.588 -4.76741 3.8151 0
M  V30 9113 H 923.002 -2.82323 4.98965 0
M  V30 9114 H 921.399 -2.26988 5.55515 0
M  V30 9115 H 922.469 -1.13333 4.7147 0
M  V30 9116 N 923.813 -1.49104 -0.510467 0
M  V30 9117 C 924.743 -1.67981 -1.62187 0
M  V30 9118 C 925.724 -0.528529 -1.6168 0
M  V30 9119 O 926.909 -0.763305 -1.7857 0
M  V30 9120 C 924.039 -1.73755 -3.0071 0
M  V30 9121 C 922.993 -2.88579 -3.1608 0
M  V30 9122 C 922.319 -2.79457 -4.5586 0
M  V30 9123 C 923.619 -4.29638 -2.97 0
M  V30 9124 H 925.313 -2.61029 -1.46643 0
M  V30 9125 H 922.859 -1.25615 -0.704042 0
M  V30 9126 H 924.812 -1.85548 -3.78352 0
M  V30 9127 H 923.536 -0.772996 -3.17321 0
M  V30 9128 H 922.195 -2.76372 -2.40861 0
M  V30 9129 H 921.843 -1.80929 -4.69333 0
M  V30 9130 H 921.543 -3.56518 -4.67086 0
M  V30 9131 H 923.067 -2.93245 -5.35574 0
M  V30 9132 H 924.481 -4.42575 -3.64418 0
M  V30 9133 H 922.878 -5.07847 -3.19704 0
M  V30 9134 H 923.948 -4.44741 -1.93219 0
M  V30 9135 N 925.291 0.760815 -1.38019 0
M  V30 9136 C 926.516 1.55513 -1.37224 0
M  V30 9137 C 926.941 1.88062 0.037611 0
M  V30 9138 O 926.299 1.50042 1.0177 0
M  V30 9139 C 926.347 2.83539 -2.22796 0
M  V30 9140 O 925.451 3.78384 -1.64009 0
M  V30 9141 H 924.792 0.470642 -0.468393 0
M  V30 9142 H 927.322 0.940792 -1.81687 0
M  V30 9143 H 927.332 3.32535 -2.36399 0
M  V30 9144 H 926.007 2.59178 -3.25269 0
M  V30 9145 H 924.584 3.37063 -1.59508 0
M  V30 9146 N 926.769 1.22769 0.988202 0
M  V30 9147 C 928.017 1.05301 1.725 0
M  V30 9148 C 928.338 -0.412103 1.90596 0
M  V30 9149 O 927.608 -1.29606 1.46898 0
M  V30 9150 H 926.188 0.386658 0.639144 0
M  V30 9151 H 928.85 1.54359 1.18993 0
M  V30 9152 H 927.946 1.53465 2.71763 0
M  V30 9153 N 928.247 -1.18576 1.03814 0
M  V30 9154 C 929.495 -1.88121 0.738574 0
M  V30 9155 C 929.816 -1.80587 -0.735744 0
M  V30 9156 O 929.086 -1.22251 -1.53074 0
M  V30 9157 H 927.666 -0.696417 0.270208 0
M  V30 9158 H 930.328 -1.43912 1.31435 0
M  V30 9159 H 929.424 -2.94222 1.04115 0
M  V30 9160 N 929.725 -0.817259 -1.34754 0
M  V30 9161 C 930.688 -0.240611 -2.27934 0
M  V30 9162 C 931.688 0.578219 -1.50044 0
M  V30 9163 O 932.878 0.395148 -1.69659 0
M  V30 9164 C 930.01 0.663318 -3.34384 0
M  V30 9165 H 931.203 -1.06257 -2.80445 0
M  V30 9166 H 928.756 -0.588697 -1.4479 0
M  V30 9167 H 929.491 1.50855 -2.87077 0
M  V30 9168 H 929.276 0.0777388 -3.92023 0
M  V30 9169 H 930.766 1.06076 -4.03903 0
M  V30 9170 N 931.203 1.46865 -0.571711 0
M  V30 9171 C 932.15 2.30189 0.167808 0
M  V30 9172 C 933.12 1.3995 0.89461 0
M  V30 9173 O 934.305 1.68905 0.887451 0
M  V30 9174 C 931.445 3.24205 1.1826 0
M  V30 9175 C 930.558 4.2954 0.460376 0
M  V30 9176 C 929.693 5.10693 1.46173 0
M  V30 9177 C 928.732 6.07788 0.725291 0
M  V30 9178 N 927.869 6.81847 1.67417 0
M  V30 9179 H 932.709 2.92902 -0.548831 0
M  V30 9180 H 930.246 1.44362 -0.282474 0
M  V30 9181 H 932.204 3.77147 1.7837 0
M  V30 9182 H 930.834 2.63324 1.86709 0
M  V30 9183 H 929.886 3.79541 -0.255546 0
M  V30 9184 H 931.198 4.98665 -0.115855 0
M  V30 9185 H 930.352 5.67857 2.13595 0
M  V30 9186 H 929.091 4.41502 2.07188 0
M  V30 9187 H 928.096 5.49787 0.037228 0
M  V30 9188 H 929.321 6.78993 0.120678 0
M  V30 9189 H 927.267 6.15376 2.27263 0
M  V30 9190 H 927.184 7.47195 1.15046 0
M  V30 9191 H 928.452 7.43577 2.33908 0
M  V30 9192 N 932.681 0.308908 1.54543 0
M  V30 9193 C 933.927 -0.298478 2.00592 0
M  V30 9194 C 934.26 -1.52929 1.19692 0
M  V30 9195 O 933.535 -1.9254 0.27542 0
M  V30 9196 C 933.818 -0.647218 3.54236 0
M  V30 9197 C 933.671 0.593284 4.4587 0
M  V30 9198 C 934.99 -1.47064 4.14801 0
M  V30 9199 H 932.109 -0.107012 0.72919 0
M  V30 9200 H 934.751 0.422578 1.85241 0
M  V30 9201 H 932.901 -1.26153 3.67447 0
M  V30 9202 H 934.573 1.2317 4.44552 0
M  V30 9203 H 932.816 1.22501 4.16144 0
M  V30 9204 H 933.487 0.305018 5.51157 0
M  V30 9205 H 935.963 -0.951511 4.05075 0
M  V30 9206 H 934.839 -1.68343 5.22448 0
M  V30 9207 H 935.1 -2.4623 3.67183 0
M  V30 9208 N 934.159 -1.57557 0.0367827 0
M  V30 9209 C 935.122 -2.09591 -0.927589 0
M  V30 9210 C 936.122 -1.01252 -1.24919 0
M  V30 9211 O 937.312 -1.27382 -1.18825 0
M  V30 9212 C 934.444 -2.56816 -2.24184 0
M  V30 9213 H 935.637 -2.96086 -0.476784 0
M  V30 9214 H 933.19 -1.54864 -0.211385 0
M  V30 9215 H 933.925 -1.73673 -2.73876 0
M  V30 9216 H 933.71 -3.35973 -2.0215 0
M  V30 9217 H 935.2 -2.97271 -2.93291 0
M  V30 9218 N 935.637 0.236453 -1.55816 0
M  V30 9219 C 936.547 1.31418 -1.94336 0
M  V30 9220 C 937.563 1.52095 -0.845164 0
M  V30 9221 O 938.739 1.65515 -1.14746 0
M  V30 9222 C 935.804 2.6468 -2.23932 0
M  V30 9223 C 934.865 2.52435 -3.47239 0
M  V30 9224 C 934.098 3.79342 -3.75414 0
M  V30 9225 O 934.321 4.81694 -3.05495 0
M  V30 9226 O 933.255 3.77347 -4.68927 0
M  V30 9227 H 937.081 1.01739 -2.86152 0
M  V30 9228 H 934.666 0.438084 -1.42833 0
M  V30 9229 H 936.548 3.4341 -2.44228 0
M  V30 9230 H 935.223 2.94071 -1.35292 0
M  V30 9231 H 934.13 1.71955 -3.32238 0
M  V30 9232 H 935.463 2.27987 -4.36214 0
M  V30 9233 N 937.115 1.49373 0.502552 0
M  V30 9234 C 938.531 1.36101 0.833591 0
M  V30 9235 C 938.731 0.392911 1.97632 0
M  V30 9236 O 937.787 -0.175975 2.51886 0
M  V30 9237 C 939.1 2.76782 1.17526 0
M  V30 9238 C 940.648 2.85471 1.28356 0
M  V30 9239 C 941.123 4.26915 1.65853 0
M  V30 9240 N 942.614 4.29719 1.72905 0
M  V30 9241 C 943.349 5.36127 2.0336 0
M  V30 9242 N 942.845 6.52782 2.32049 0
M  V30 9243 N 944.638 5.23542 2.04598 0
M  V30 9244 H 936.789 2.10912 -0.251008 0
M  V30 9245 H 939.052 0.946696 -0.0497037 0
M  V30 9246 H 938.758 3.49314 0.408965 0
M  V30 9247 H 938.632 3.1205 2.11907 0
M  V30 9248 H 941.019 2.13177 2.04058 0
M  V30 9249 H 941.1 2.53787 0.320304 0
M  V30 9250 H 940.744 4.99735 0.907022 0
M  V30 9251 H 940.674 4.56063 2.63276 0
M  V30 9252 H 943.165 3.45586 1.529 0
M  V30 9253 H 943.478 7.29701 2.54471 0
M  V30 9254 H 941.823 6.56011 2.29509 0
M  V30 9255 H 945.014 4.31413 1.8166 0
M  V30 9256 H 945.187 6.06565 2.27998 0
M  V30 9257 N 938.594 -0.753485 1.38421 0
M  V30 9258 C 939.557 -1.84888 1.35459 0
M  V30 9259 C 940.557 -1.58764 0.255083 0
M  V30 9260 O 941.747 -1.66507 0.511978 0
M  V30 9261 C 938.879 -3.22361 1.10888 0
M  V30 9262 H 940.072 -1.88922 2.32913 0
M  V30 9263 H 937.625 -0.955199 1.23716 0
M  V30 9264 H 938.36 -3.23996 0.1404 0
M  V30 9265 H 938.145 -3.42717 1.90492 0
M  V30 9266 H 939.635 -4.02437 1.1151 0
M  V30 9267 N 940.072 -1.23292 -0.981677 0
M  V30 9268 C 941.004 -0.970782 -2.07626 0
M  V30 9269 C 942.017 0.0547506 -1.62708 0
M  V30 9270 O 943.206 -0.180623 -1.77584 0
M  V30 9271 C 940.306 -0.44055 -3.36024 0
M  V30 9272 C 939.479 -1.52595 -4.09919 0
M  V30 9273 C 938.538 -1.00082 -5.16595 0
M  V30 9274 O 937.564 -1.68951 -5.43548 0
M  V30 9275 N 938.766 0.172017 -5.80245 0
M  V30 9276 H 941.531 -1.91316 -2.30691 0
M  V30 9277 H 939.092 -1.14133 -1.14828 0
M  V30 9278 H 941.084 -0.0743111 -4.04632 0
M  V30 9279 H 939.654 0.407211 -3.09936 0
M  V30 9280 H 938.874 -2.06501 -3.35784 0
M  V30 9281 H 940.162 -2.2559 -4.56055 0
M  V30 9282 H 939.56 0.748129 -5.60731 0
M  V30 9283 H 938.117 0.479532 -6.50034 0
M  V30 9284 N 941.55 1.18024 -1.04442 0
M  V30 9285 C 942.513 2.19992 -0.643136 0
M  V30 9286 C 943.513 1.57949 0.301444 0
M  V30 9287 O 944.703 1.73986 0.0863341 0
M  V30 9288 C 941.835 3.40853 0.0565208 0
M  V30 9289 H 943.028 2.57008 -1.54554 0
M  V30 9290 H 940.581 1.31974 -0.837408 0
M  V30 9291 H 941.316 3.09373 0.972553 0
M  V30 9292 H 941.101 3.87128 -0.622439 0
M  V30 9293 H 942.591 4.16344 0.323652 0
M  V30 9294 N 943.028 0.824394 1.34319 0
M  V30 9295 C 944.276 0.41235 1.97849 0
M  V30 9296 C 944.597 -1.02841 1.65677 0
M  V30 9297 O 943.867 -1.71421 0.948245 0
M  V30 9298 H 942.447 0.149486 0.73189 0
M  V30 9299 H 945.109 1.05416 1.63931 0
M  V30 9300 H 944.205 0.532557 3.07523 0
M  V30 9301 N 944.506 -1.46559 0.579492 0
M  V30 9302 C 945.752 -2.02699 0.0639363 0
M  V30 9303 C 946.085 -1.4504 -1.29139 0
M  V30 9304 O 945.36 -0.614284 -1.84545 0
M  V30 9305 C 945.643 -3.601 -0.00528618 0
M  V30 9306 C 945.496 -4.28149 1.37871 0
M  V30 9307 C 946.815 -4.34375 -0.707537 0
M  V30 9308 H 943.934 -0.736586 0.0247085 0
M  V30 9309 H 946.576 -1.74739 0.746071 0
M  V30 9310 H 944.726 -3.84052 -0.586206 0
M  V30 9311 H 946.398 -4.1547 2.00455 0
M  V30 9312 H 944.641 -3.87636 1.94732 0
M  V30 9313 H 945.312 -5.36888 1.28278 0
M  V30 9314 H 947.788 -4.15549 -0.214064 0
M  V30 9315 H 946.664 -5.44091 -0.724992 0
M  V30 9316 H 946.925 -4.052 -1.7682 0
M  V30 9317 N 945.984 -0.3171 -1.54377 0
M  V30 9318 C 947.23 0.287836 -2.00747 0
M  V30 9319 C 947.563 1.52292 -1.20502 0
M  V30 9320 O 946.838 1.92391 -0.285626 0
M  V30 9321 C 947.121 0.628423 -3.54574 0
M  V30 9322 C 946.974 -0.616922 -4.45549 0
M  V30 9323 C 948.293 1.44862 -4.15575 0
M  V30 9324 H 945.412 0.103144 -0.729747 0
M  V30 9325 H 948.054 -0.432396 -1.85014 0
M  V30 9326 H 946.204 1.24203 -3.68111 0
M  V30 9327 H 947.876 -1.25526 -4.43893 0
M  V30 9328 H 946.119 -1.24706 -4.15489 0
M  V30 9329 H 946.79 -0.334243 -5.50987 0
M  V30 9330 H 949.266 0.930015 -4.05574 0
M  V30 9331 H 948.142 1.6557 -5.23333 0
M  V30 9332 H 948.403 2.44279 -3.68484 0
M  V30 9333 N 947.462 1.57535 -0.0451378 0
M  V30 9334 C 948.41 2.12351 0.949205 0
M  V30 9335 C 949.404 1.05386 1.32628 0
M  V30 9336 O 950.61 1.23802 1.30664 0
M  V30 9337 H 946.985 0.678648 0.323945 0
M  V30 9338 H 948.956 2.94806 0.461718 0
M  V30 9339 C 947.705 2.67862 2.21687 0
M  V30 9340 H 947.028 3.49826 1.93551 0
M  V30 9341 H 948.468 3.09844 2.89435 0
M  V30 9342 C 946.927 1.61353 2.95748 0
M  V30 9343 O 947.457 1.02276 3.88462 0
M  V30 9344 N 945.663 1.33017 2.5837 0
M  V30 9345 H 945.21 1.81246 1.83051 0
M  V30 9346 H 945.168 0.619812 3.0823 0
M  V30 9347 N 948.94 -0.228186 1.55939 0
M  V30 9348 C 949.903 -1.26621 1.91049 0
M  V30 9349 C 950.903 -1.40141 0.788491 0
M  V30 9350 O 952.093 -1.3852 1.05631 0
M  V30 9351 C 949.225 -2.64108 2.15545 0
M  V30 9352 H 950.418 -0.966978 2.83883 0
M  V30 9353 H 947.971 -0.468313 1.49119 0
M  V30 9354 H 948.706 -2.99141 1.25241 0
M  V30 9355 H 948.491 -2.55673 2.97277 0
M  V30 9356 H 949.981 -3.39025 2.43827 0
M  V30 9357 N 950.418 -1.49637 -0.494624 0
M  V30 9358 C 951.643 -1.63431 -1.27691 0
M  V30 9359 C 952.068 -0.30813 -1.85559 0
M  V30 9360 O 951.426 0.725083 -1.66169 0
M  V30 9361 C 951.474 -2.71043 -2.3784 0
M  V30 9362 O 950.578 -2.3066 -3.41862 0
M  V30 9363 H 949.919 -0.546804 -0.376698 0
M  V30 9364 H 952.449 -1.95866 -0.591413 0
M  V30 9365 H 952.459 -2.93406 -2.83508 0
M  V30 9366 H 951.134 -3.67306 -1.95088 0
M  V30 9367 H 949.711 -2.18652 -3.02069 0
M  V30 9368 N 951.896 0.746133 -1.38819 0
M  V30 9369 C 953.136 1.51821 -1.36857 0
M  V30 9370 C 953.5 1.9196 0.0391461 0
M  V30 9371 O 954.701 2.68172 0.183689 0
M  V30 9372 C 952.972 2.73214 -2.3041 0
M  V30 9373 S 954.531 3.62995 -2.46536 0
M  V30 9374 H 951.349 0.51945 -0.485482 0
M  V30 9375 H 953.951 0.875244 -1.74813 0
M  V30 9376 H 952.655 2.41847 -3.31569 0
M  V30 9377 H 952.186 3.42449 -1.9363 0
M  V30 9378 H 954.201 4.66353 -1.69498 0
M  V30 9379 N 953.375 1.23811 0.975125 0
M  V30 9380 C 954.791 1.0019 1.24234 0
M  V30 9381 C 954.991 -0.293811 1.99346 0
M  V30 9382 O 954.047 -1.01189 2.31337 0
M  V30 9383 C 955.36 2.21218 2.03674 0
M  V30 9384 C 956.908 2.25764 2.16793 0
M  V30 9385 C 957.383 3.46394 2.99626 0
M  V30 9386 N 958.874 3.46665 3.07209 0
M  V30 9387 C 959.609 4.3666 3.71639 0
M  V30 9388 N 959.105 5.36899 4.37849 0
M  V30 9389 N 960.898 4.2439 3.68578 0
M  V30 9390 H 953.049 2.07087 0.472076 0
M  V30 9391 H 955.312 0.90838 0.271201 0
M  V30 9392 H 955.018 3.15277 1.55862 0
M  V30 9393 H 954.892 2.22733 3.04417 0
M  V30 9394 H 957.279 1.32242 2.63811 0
M  V30 9395 H 957.36 2.28279 1.15422 0
M  V30 9396 H 957.004 4.40227 2.53304 0
M  V30 9397 H 956.934 3.41121 4.01178 0
M  V30 9398 H 959.425 2.74142 2.60105 0
M  V30 9399 H 959.738 6.01816 4.84807 0
M  V30 9400 H 958.083 5.40793 4.36541 0
M  V30 9401 H 961.274 3.4532 3.16025 0
M  V30 9402 H 961.447 4.94727 4.18508 0
M  V30 9403 N 954.853 -1.17469 1.05066 0
M  V30 9404 C 955.783 -2.23635 0.671552 0
M  V30 9405 C 956.764 -1.66867 -0.33006 0
M  V30 9406 O 957.949 -1.93084 -0.207933 0
M  V30 9407 C 955.079 -3.47272 0.0441845 0
M  V30 9408 C 954.033 -4.16854 0.97042 0
M  V30 9409 C 953.359 -5.34299 0.206998 0
M  V30 9410 C 954.659 -4.69225 2.29401 0
M  V30 9411 H 956.353 -2.55602 1.55911 0
M  V30 9412 H 953.899 -1.2286 0.751101 0
M  V30 9413 H 955.852 -4.20756 -0.23282 0
M  V30 9414 H 954.576 -3.14568 -0.878311 0
M  V30 9415 H 953.235 -3.4528 1.23197 0
M  V30 9416 H 952.883 -4.97846 -0.718222 0
M  V30 9417 H 952.583 -5.81792 0.82416 0
M  V30 9418 H 954.107 -6.10568 -0.0627525 0
M  V30 9419 H 955.521 -5.34353 2.077 0
M  V30 9420 H 953.918 -5.27291 2.86503 0
M  V30 9421 H 954.988 -3.86102 2.93348 0
M  V30 9422 N 956.331 -0.831506 -1.3388 0
M  V30 9423 C 957.294 -0.264773 -2.27666 0
M  V30 9424 C 958.294 0.562273 -1.50649 0
M  V30 9425 O 959.484 0.377131 -1.70069 0
M  V30 9426 C 956.616 0.627814 -3.35069 0
M  V30 9427 H 957.809 -1.09225 -2.79303 0
M  V30 9428 H 955.362 -0.604021 -1.44157 0
M  V30 9429 H 956.097 1.47802 -2.88661 0
M  V30 9430 H 955.882 0.0361552 -3.92083 0
M  V30 9431 H 957.372 1.01786 -4.05005 0
M  V30 9432 N 957.809 1.4625 -0.587256 0
M  V30 9433 C 959.037 2.06744 -0.08033 0
M  V30 9434 C 959.452 1.43527 1.2266 0
M  V30 9435 O 958.809 0.542168 1.74261 0
M  V30 9436 C 958.86 3.61394 0.0873469 0
M  V30 9437 O 958.581 4.22247 -1.16785 0
M  V30 9438 C 960.082 4.38828 0.628095 0
M  V30 9439 H 957.302 0.668354 -0.0595301 0
M  V30 9440 H 959.846 1.87808 -0.809217 0
M  V30 9441 H 958.001 3.79742 0.766473 0
M  V30 9442 H 958.415 5.15176 -0.984565 0
M  V30 9443 H 959.889 5.47613 0.694583 0
M  V30 9444 H 960.366 4.07188 1.64606 0
M  V30 9445 H 960.972 4.25297 -0.0163115 0
M  V30 9446 N 959.287 0.325282 1.54207 0
M  V30 9447 C 960.25 -0.527228 2.23054 0
M  V30 9448 C 961.25 -1.04217 1.22456 0
M  V30 9449 O 962.44 -0.934325 1.47024 0
M  V30 9450 C 959.572 -1.7325 2.93594 0
M  V30 9451 H 960.765 0.0746423 2.99807 0
M  V30 9452 H 958.318 0.0763872 1.56113 0
M  V30 9453 H 959.053 -2.37356 2.20981 0
M  V30 9454 H 958.838 -1.37065 3.67363 0
M  V30 9455 H 960.328 -2.3376 3.46043 0
M  V30 9456 N 960.765 -1.57509 0.0534917 0
M  V30 9457 C 961.99 -1.97511 -0.632794 0
M  V30 9458 C 962.415 -0.930947 -1.63447 0
M  V30 9459 O 961.773 0.105558 -1.80992 0
M  V30 9460 C 961.821 -3.3658 -1.29407 0
M  V30 9461 O 960.925 -3.3467 -2.40977 0
M  V30 9462 H 960.266 -0.643349 -0.16431 0
M  V30 9463 H 962.796 -2.04232 0.12258 0
M  V30 9464 H 962.806 -3.73359 -1.64521 0
M  V30 9465 H 961.481 -4.12113 -0.559976 0
M  V30 9466 H 960.058 -3.09639 -2.07793 0
M  V30 9467 N 962.243 0.219913 -1.56058 0
M  V30 9468 C 963.491 0.942199 -1.78793 0
M  V30 9469 C 963.812 1.84804 -0.622284 0
M  V30 9470 O 963.082 1.9255 0.360735 0
M  V30 9471 H 961.662 0.350895 -0.659455 0
M  V30 9472 H 964.324 0.231376 -1.93522 0
M  V30 9473 H 963.42 1.54804 -2.71002 0
M  V30 9474 N 963.721 1.49897 0.486681 0
M  V30 9475 C 964.946 1.64106 1.26823 0
M  V30 9476 C 965.371 0.317967 1.85393 0
M  V30 9477 O 964.729 -0.71626 1.66551 0
M  V30 9478 C 964.777 2.72301 2.36399 0
M  V30 9479 O 963.881 2.32469 3.40634 0
M  V30 9480 H 963.222 0.548794 0.373793 0
M  V30 9481 H 965.752 1.96177 0.581017 0
M  V30 9482 H 965.762 2.94906 2.81948 0
M  V30 9483 H 964.437 3.68335 1.93137 0
M  V30 9484 H 963.014 2.20251 3.00905 0
M  V30 9485 N 965.199 -0.738761 1.39212 0
M  V30 9486 C 966.109 -1.88324 1.39897 0
M  V30 9487 C 967.125 -1.71494 0.294229 0
M  V30 9488 O 968.301 -1.94162 0.535087 0
M  V30 9489 C 965.366 -3.23871 1.23726 0
M  V30 9490 C 964.427 -3.53121 2.44139 0
M  V30 9491 C 963.66 -4.82202 2.2873 0
M  V30 9492 O 963.883 -5.55649 1.28879 0
M  V30 9493 O 962.817 -5.11265 3.17634 0
M  V30 9494 H 966.643 -1.90701 2.36362 0
M  V30 9495 H 964.228 -0.886067 1.20288 0
M  V30 9496 H 966.11 -4.04882 1.16826 0
M  V30 9497 H 964.785 -3.22274 0.303551 0
M  V30 9498 H 963.692 -2.72212 2.56615 0
M  V30 9499 H 965.025 -3.59495 3.36191 0
M  V30 9500 N 966.677 -1.24326 -0.968545 0
M  V30 9501 C 967.64 -1.03591 -2.04454 0
M  V30 9502 C 968.64 0.0064809 -1.60799 0
M  V30 9503 O 969.83 -0.234404 -1.72616 0
M  V30 9504 C 966.962 -0.56992 -3.36102 0
M  V30 9505 H 968.155 -1.99092 -2.24282 0
M  V30 9506 H 965.708 -1.06537 -1.14366 0
M  V30 9507 H 966.443 0.388325 -3.21967 0
M  V30 9508 H 966.228 -1.32227 -3.69132 0
M  V30 9509 H 967.718 -0.445854 -4.15213 0
M  V30 9510 N 968.156 1.1691 -1.05688 0
M  V30 9511 C 969.119 2.19297 -0.666433 0
M  V30 9512 C 970.119 1.5826 0.284674 0
M  V30 9513 O 971.309 1.74068 0.0678757 0
M  V30 9514 C 968.441 3.40894 0.0203656 0
M  V30 9515 H 969.634 2.55354 -1.57272 0
M  V30 9516 H 967.187 1.31078 -0.851359 0
M  V30 9517 H 967.922 3.10388 0.939686 0
M  V30 9518 H 967.707 3.86446 -0.663464 0
M  V30 9519 H 969.197 4.16664 0.279475 0
M  V30 9520 N 969.634 0.838594 1.33437 0
M  V30 9521 C 970.862 0.447644 2.01999 0
M  V30 9522 C 971.277 -0.951053 1.63096 0
M  V30 9523 O 970.634 -1.61802 0.844169 0
M  V30 9524 C 970.685 0.558378 3.57162 0
M  V30 9525 O 970.406 1.90196 3.94661 0
M  V30 9526 C 971.907 0.164348 4.42995 0
M  V30 9527 H 969.127 0.177736 0.647032 0
M  V30 9528 H 971.671 1.13109 1.70372 0
M  V30 9529 H 969.826 -0.0771563 3.87323 0
M  V30 9530 H 970.24 1.88729 4.89369 0
M  V30 9531 H 971.714 0.292876 5.51222 0
M  V30 9532 H 972.191 -0.893713 4.30011 0
M  V30 9533 H 972.797 0.774306 4.18192 0
M  V30 9534 N 971.112 -1.45937 0.595003 0
M  V30 9535 C 972.075 -2.2888 -0.121102 0
M  V30 9536 C 973.075 -1.39075 -0.807149 0
M  V30 9537 O 974.265 -1.61326 -0.657228 0
M  V30 9538 C 971.397 -3.19778 -1.1813 0
M  V30 9539 H 972.59 -2.93673 0.607968 0
M  V30 9540 H 970.143 -1.5225 0.353495 0
M  V30 9541 H 970.878 -2.59759 -1.94154 0
M  V30 9542 H 970.663 -3.85914 -0.693724 0
M  V30 9543 H 972.153 -3.82176 -1.68319 0
M  V30 9544 N 972.59 -0.333456 -1.54032 0
M  V30 9545 C 973.838 0.265608 -2.00347 0
M  V30 9546 C 974.159 1.51873 -1.2231 0
M  V30 9547 O 973.429 1.93142 -0.327549 0
M  V30 9548 H 972.009 0.101135 -0.740122 0
M  V30 9549 H 974.671 -0.452285 -1.8958 0
M  V30 9550 H 973.767 0.51511 -3.0782 0
M  V30 9551 N 974.068 1.57479 -0.061844 0
M  V30 9552 C 975.479 1.80627 0.472295 0
M  V30 9553 C 975.83 0.97496 1.70261 0
M  V30 9554 O 974.955 0.1946 2.15523 0
M  V30 9555 C 975.55 3.27608 0.863616 0
M  V30 9556 C 974.109 3.51638 1.34267 0
M  V30 9557 C 973.256 2.75412 0.323009 0
M  V30 9558 H 976.207 1.56072 -0.287634 0
M  V30 9559 H 976.228 3.39113 1.72577 0
M  V30 9560 H 975.74 3.88087 -0.0320226 0
M  V30 9561 H 973.841 2.96452 2.25714 0
M  V30 9562 H 973.954 4.60342 1.32747 0
M  V30 9563 H 972.318 2.4187 0.798175 0
M  V30 9564 H 973.101 3.38623 -0.564729 0
M  V30 9565 N 975.546 -0.211634 1.56173 0
M  V30 9566 C 976.771 -0.955324 1.84088 0
M  V30 9567 C 977.196 -1.76754 0.643407 0
M  V30 9568 O 976.554 -1.76653 -0.407842 0
M  V30 9569 C 976.602 -1.84063 3.10085 0
M  V30 9570 O 975.706 -2.9373 2.89476 0
M  V30 9571 H 975.047 -0.26996 0.606645 0
M  V30 9572 H 977.577 -0.221947 2.03393 0
M  V30 9573 H 977.587 -2.24852 3.40449 0
M  V30 9574 H 976.262 -1.24373 3.96868 0
M  V30 9575 H 974.839 -2.56816 2.7037 0
M  V30 9576 N 977.024 -1.50153 -0.478725 0
M  V30 9577 C 978.252 -1.64505 -1.25482 0
M  V30 9578 C 978.667 -0.325295 -1.85977 0
M  V30 9579 O 978.024 0.691885 -1.68876 0
M  V30 9580 C 978.075 -2.73052 -2.36906 0
M  V30 9581 O 977.796 -3.99911 -1.78894 0
M  V30 9582 C 979.297 -2.98309 -3.27912 0
M  V30 9583 H 976.517 -0.55318 -0.379781 0
M  V30 9584 H 979.061 -1.96329 -0.57229 0
M  V30 9585 H 977.216 -2.43944 -3.00949 0
M  V30 9586 H 977.63 -4.5988 -2.52211 0
M  V30 9587 H 979.104 -3.77942 -4.02323 0
M  V30 9588 H 979.581 -2.09082 -3.8624 0
M  V30 9589 H 980.187 -3.2892 -2.69614 0
M  V30 9590 N 978.502 0.731368 -1.39602 0
M  V30 9591 C 979.465 1.8271 -1.38383 0
M  V30 9592 C 980.465 1.58338 -0.280309 0
M  V30 9593 O 981.655 1.65671 -0.538402 0
M  V30 9594 C 978.787 3.20556 -1.16002 0
M  V30 9595 H 979.98 1.85193 -2.35889 0
M  V30 9596 H 977.533 0.935396 -1.2522 0
M  V30 9597 H 978.268 3.23732 -0.191927 0
M  V30 9598 H 978.053 3.39643 -1.9592 0
M  V30 9599 H 979.543 4.00612 -1.17899 0
M  V30 9600 N 979.98 1.24838 0.961938 0
M  V30 9601 C 981.228 1.08936 1.70227 0
M  V30 9602 C 981.549 -0.371582 1.91427 0
M  V30 9603 O 980.819 -1.26461 1.49614 0
M  V30 9604 H 979.399 0.400128 0.630799 0
M  V30 9605 H 982.061 1.56848 1.15692 0
M  V30 9606 H 981.157 1.59195 2.68446 0
M  V30 9607 N 981.458 -1.16348 1.06306 0
M  V30 9608 C 982.683 -1.91323 0.800636 0
M  V30 9609 C 983.108 -1.7691 -0.639105 0
M  V30 9610 O 982.466 -1.0945 -1.44535 0
M  V30 9611 C 982.514 -3.40038 1.20027 0
M  V30 9612 O 981.618 -4.11003 0.339142 0
M  V30 9613 H 980.959 -0.596057 0.292595 0
M  V30 9614 H 983.489 -1.47406 1.41889 0
M  V30 9615 H 983.499 -3.90808 1.17188 0
M  V30 9616 H 982.174 -3.49848 2.24898 0
M  V30 9617 H 980.751 -3.70423 0.42911 0
M  V30 9618 N 982.937 -0.845659 -1.3299 0
M  V30 9619 C 984.162 -0.457435 -2.02293 0
M  V30 9620 C 984.587 0.935634 -1.63179 0
M  V30 9621 O 983.945 1.61297 -0.827835 0
M  V30 9622 C 983.993 -0.593665 -3.5568 0
M  V30 9623 O 983.097 0.37729 -4.10671 0
M  V30 9624 H 982.438 -0.185022 -0.637701 0
M  V30 9625 H 984.968 -1.14237 -1.69738 0
M  V30 9626 H 984.978 -0.477834 -4.05192 0
M  V30 9627 H 983.653 -1.60957 -3.83491 0
M  V30 9628 H 982.23 0.218448 -3.7226 0
M  V30 9629 N 984.415 1.45619 -0.602734 0
M  V30 9630 C 985.64 2.07157 -0.100429 0
M  V30 9631 C 986.065 1.44524 1.20393 0
M  V30 9632 O 985.423 0.536191 1.7319 0
M  V30 9633 C 985.471 3.60587 0.0308604 0
M  V30 9634 O 984.575 3.97944 1.08234 0
M  V30 9635 H 983.916 0.6601 -0.0718643 0
M  V30 9636 H 986.446 1.86948 -0.831366 0
M  V30 9637 H 986.456 4.07348 0.230634 0
M  V30 9638 H 985.131 4.05561 -0.921581 0
M  V30 9639 H 983.708 3.62862 0.859414 0
M  V30 9640 N 985.893 0.34162 1.53853 0
M  V30 9641 C 987.133 -0.255853 2.02792 0
M  V30 9642 C 987.497 -1.47921 1.22407 0
M  V30 9643 O 988.698 -2.15073 1.61236 0
M  V30 9644 C 986.969 -0.564117 3.5292 0
M  V30 9645 S 988.528 -1.13868 4.23768 0
M  V30 9646 H 985.346 -0.0762867 0.706896 0
M  V30 9647 H 987.948 0.478934 1.89543 0
M  V30 9648 H 986.652 0.334098 4.09038 0
M  V30 9649 H 986.183 -1.32862 3.70285 0
M  V30 9650 H 988.198 -2.42451 4.32934 0
M  V30 9651 N 987.371 -1.57444 0.0701946 0
M  V30 9652 C 988.782 -1.80875 -0.462709 0
M  V30 9653 C 989.133 -0.983975 -1.69742 0
M  V30 9654 O 988.258 -0.206027 -2.15417 0
M  V30 9655 C 988.853 -3.28062 -0.84623 0
M  V30 9656 C 987.412 -3.52345 -1.32401 0
M  V30 9657 C 986.559 -2.7558 -0.308399 0
M  V30 9658 H 989.51 -1.55917 0.295907 0
M  V30 9659 H 989.531 -3.40023 -1.70776 0
M  V30 9660 H 989.043 -3.88064 0.0526033 0
M  V30 9661 H 987.144 -2.97645 -2.24139 0
M  V30 9662 H 987.257 -4.6104 -1.30304 0
M  V30 9663 H 985.621 -2.4229 -0.785337 0
M  V30 9664 H 986.404 -3.38319 0.582679 0
M  V30 9665 N 988.849 0.203349 -1.56283 0
M  V30 9666 C 989.812 1.23566 -1.93039 0
M  V30 9667 C 990.812 1.38869 -0.810687 0
M  V30 9668 O 992.002 1.36822 -1.07821 0
M  V30 9669 C 989.134 2.60645 -2.1972 0
M  V30 9670 H 990.327 0.921692 -2.85385 0
M  V30 9671 H 987.88 0.44453 -1.49845 0
M  V30 9672 H 988.615 2.9711 -1.29985 0
M  V30 9673 H 988.4 2.50911 -3.01307 0
M  V30 9674 H 989.89 3.35103 -2.4919 0
M  V30 9675 N 990.327 1.50405 0.470755 0
M  V30 9676 C 991.552 1.65442 1.25075 0
M  V30 9677 C 991.977 0.337612 1.85045 0
M  V30 9678 O 991.335 -0.698555 1.67302 0
M  V30 9679 C 991.383 2.74793 2.33498 0
M  V30 9680 O 990.487 2.36069 3.3815 0
M  V30 9681 H 989.828 0.552728 0.367951 0
M  V30 9682 H 992.358 1.96782 0.560177 0
M  V30 9683 H 992.368 2.97879 2.78804 0
M  V30 9684 H 991.043 3.70363 1.8922 0
M  V30 9685 H 989.62 2.2343 2.98552 0
M  V30 9686 N 991.805 -0.723954 1.39988 0
M  V30 9687 C 993.051 -1.48591 1.38017 0
M  V30 9688 C 993.384 -1.94189 -0.0203522 0
M  V30 9689 O 992.659 -1.67572 -0.987422 0
M  V30 9690 C 992.942 -2.71786 2.36229 0
M  V30 9691 C 992.795 -2.32136 3.8527 0
M  V30 9692 C 994.114 -3.73921 2.32102 0
M  V30 9693 H 991.233 -0.538993 0.502648 0
M  V30 9694 H 993.875 -0.826908 1.71062 0
M  V30 9695 H 992.025 -3.28015 2.0818 0
M  V30 9696 H 993.697 -1.81454 4.24113 0
M  V30 9697 H 991.94 -1.64234 4.01509 0
M  V30 9698 H 992.611 -3.20406 4.49493 0
M  V30 9699 H 995.087 -3.27303 2.56928 0
M  V30 9700 H 993.963 -4.5777 3.02882 0
M  V30 9701 H 994.224 -4.21627 1.32979 0
M  V30 9702 N 993.283 -1.25346 -0.955304 0
M  V30 9703 C 994.529 -1.10218 -1.70235 0
M  V30 9704 C 994.862 0.356124 -1.90907 0
M  V30 9705 O 994.137 1.26253 -1.47954 0
M  V30 9706 C 994.42 -1.85627 -3.08569 0
M  V30 9707 C 994.273 -3.39281 -2.95311 0
M  V30 9708 C 995.592 -1.63886 -4.08448 0
M  V30 9709 H 992.711 -0.401781 -0.617852 0
M  V30 9710 H 995.353 -1.5417 -1.11048 0
M  V30 9711 H 993.503 -1.48269 -3.59094 0
M  V30 9712 H 995.175 -3.8631 -2.52116 0
M  V30 9713 H 993.418 -3.67027 -2.31244 0
M  V30 9714 H 994.089 -3.87258 -3.93364 0
M  V30 9715 H 996.565 -1.96406 -3.6683 0
M  V30 9716 H 995.441 -2.19087 -5.03281 0
M  V30 9717 H 995.702 -0.580021 -4.38279 0
M  V30 9718 N 994.761 1.15782 -1.06922 0
M  V30 9719 C 995.691 2.22538 -0.707045 0
M  V30 9720 C 996.672 1.67371 0.303471 0
M  V30 9721 O 997.857 1.9339 0.177189 0
M  V30 9722 C 994.987 3.47158 -0.0994269 0
M  V30 9723 C 993.941 4.15257 -1.03661 0
M  V30 9724 C 993.267 5.33902 -0.291974 0
M  V30 9725 C 994.567 4.65516 -2.36837 0
M  V30 9726 H 996.261 2.53089 -1.59958 0
M  V30 9727 H 993.807 1.21649 -0.770552 0
M  V30 9728 H 995.76 4.21073 0.165852 0
M  V30 9729 H 994.484 3.15926 0.828155 0
M  V30 9730 H 993.143 3.43276 -1.28674 0
M  V30 9731 H 992.791 4.98926 0.638928 0
M  V30 9732 H 992.491 5.80407 -0.916613 0
M  V30 9733 H 994.015 6.1059 -0.0343915 0
M  V30 9734 H 995.429 5.30981 -2.16175 0
M  V30 9735 H 993.826 5.22666 -2.94856 0
M  V30 9736 H 994.896 3.81387 -2.99453 0
M  V30 9737 N 996.239 0.8527 1.3254 0
M  V30 9738 C 997.202 0.300959 2.27215 0
M  V30 9739 C 998.202 -0.538235 1.51525 0
M  V30 9740 O 999.392 -0.350027 1.70647 0
M  V30 9741 C 996.524 -0.574428 3.36025 0
M  V30 9742 H 997.717 1.13655 2.77529 0
M  V30 9743 H 995.27 0.626878 1.43178 0
M  V30 9744 H 996.005 -1.43191 2.90976 0
M  V30 9745 H 995.79 0.0262265 3.92091 0
M  V30 9746 H 997.28 -0.9533 4.06573 0
M  V30 9747 N 997.718 -1.45297 0.610449 0
M  V30 9748 C 998.681 -2.28995 -0.0968194 0
M  V30 9749 C 999.681 -1.39923 -0.792353 0
M  V30 9750 O 1000.87 -1.62014 -0.64008 0
M  V30 9751 C 998.003 -3.21013 -1.14731 0
M  V30 9752 H 999.196 -2.93012 0.639082 0
M  V30 9753 H 996.749 -1.51867 0.369624 0
M  V30 9754 H 997.484 -2.61803 -1.91388 0
M  V30 9755 H 997.269 -3.86628 -0.652753 0
M  V30 9756 H 998.759 -3.8394 -1.64256 0
M  V30 9757 N 999.196 -0.349774 -1.5367 0
M  V30 9758 C 1000.16 0.491676 -2.23864 0
M  V30 9759 C 1001.16 1.02256 -1.24098 0
M  V30 9760 O 1002.35 0.910816 -1.48492 0
M  V30 9761 C 999.481 1.68557 -2.96313 0
M  V30 9762 H 1000.67 -0.12233 -2.9965 0
M  V30 9763 H 998.227 -0.101214 -1.55972 0
M  V30 9764 H 998.962 2.3381 -2.2473 0
M  V30 9765 H 998.747 1.31203 -3.69497 0
M  V30 9766 H 1000.24 2.28225 -3.49718 0
M  V30 9767 N 1000.67 1.57404 -0.0785433 0
M  V30 9768 C 1001.64 2.11977 0.871693 0
M  V30 9769 C 1002.64 1.04529 1.2219 0
M  V30 9770 O 1003.83 1.30488 1.15406 0
M  V30 9771 C 1000.96 2.6267 2.17296 0
M  V30 9772 H 1002.15 2.97246 0.398115 0
M  V30 9773 H 999.705 1.5537 0.170251 0
M  V30 9774 H 1000.44 1.80873 2.69175 0
M  V30 9775 H 1000.22 3.41214 1.93171 0
M  V30 9776 H 1001.71 3.04943 2.85306 0
M  V30 9777 N 1002.15 -0.195058 1.56388 0
M  V30 9778 C 1003.11 -1.2254 1.93692 0
M  V30 9779 C 1004.11 -1.38437 0.81804 0
M  V30 9780 O 1005.3 -1.36248 1.08545 0
M  V30 9781 C 1002.44 -2.59476 2.21099 0
M  V30 9782 H 1003.63 -0.906544 2.8587 0
M  V30 9783 H 1001.18 -0.436577 1.50079 0
M  V30 9784 H 1001.92 -2.96417 1.31558 0
M  V30 9785 H 1001.7 -2.4931 3.02634 0
M  V30 9786 H 1003.19 -3.33777 2.50964 0
M  V30 9787 N 1003.63 -1.50653 -0.462772 0
M  V30 9788 C 1004.56 -1.66286 -1.5774 0
M  V30 9789 C 1005.57 -0.544094 -1.53439 0
M  V30 9790 O 1006.76 -0.817566 -1.58676 0
M  V30 9791 C 1003.86 -1.63893 -2.96635 0
M  V30 9792 C 1003.04 -2.91939 -3.25716 0
M  V30 9793 C 1002.1 -2.82076 -4.44206 0
M  V30 9794 O 1001.12 -3.56032 -4.44106 0
M  V30 9795 N 1002.32 -1.96196 -5.4634 0
M  V30 9796 H 1005.09 -2.6243 -1.44742 0
M  V30 9797 H 1002.65 -1.48221 -0.651326 0
M  V30 9798 H 1004.64 -1.54897 -3.73884 0
M  V30 9799 H 1003.21 -0.75449 -3.03358 0
M  V30 9800 H 1002.43 -3.14998 -2.37002 0
M  V30 9801 H 1003.72 -3.7675 -3.4196 0
M  V30 9802 H 1003.12 -1.35439 -5.49247 0
M  V30 9803 H 1001.67 -1.93097 -6.2254 0
M  V30 9804 N 1005.11 0.71652 -1.4037 0
M  V30 9805 C 1006.07 1.81231 -1.40313 0
M  V30 9806 C 1007.07 1.58032 -0.297087 0
M  V30 9807 O 1008.26 1.65091 -0.555944 0
M  V30 9808 C 1005.39 3.19308 -1.19395 0
M  V30 9809 H 1006.59 1.8268 -2.3784 0
M  V30 9810 H 1004.14 0.922062 -1.26205 0
M  V30 9811 H 1004.87 3.2351 -0.226252 0
M  V30 9812 H 1004.66 3.37546 -1.99512 0
M  V30 9813 H 1006.15 3.99339 -1.22141 0
M  V30 9814 N 1006.59 1.25851 0.948643 0
M  V30 9815 C 1007.55 1.0683 2.0278 0
M  V30 9816 C 1008.55 0.0191016 1.60789 0
M  V30 9817 O 1009.74 0.261836 1.72221 0
M  V30 9818 C 1006.87 0.623318 3.35153 0
M  V30 9819 H 1008.06 2.02635 2.21086 0
M  V30 9820 H 1005.62 1.08343 1.12657 0
M  V30 9821 H 1006.35 -0.337053 3.22544 0
M  V30 9822 H 1006.14 1.38082 3.66982 0
M  V30 9823 H 1007.63 0.511854 4.14451 0
M  V30 9824 N 1008.06 -1.15214 1.07534 0
M  V30 9825 C 1009.03 -2.18209 0.701237 0
M  V30 9826 C 1010.03 -1.58693 -0.25946 0
M  V30 9827 O 1011.22 -1.74154 -0.0401744 0
M  V30 9828 C 1008.35 -3.40883 0.0338703 0
M  V30 9829 H 1009.54 -2.5282 1.61314 0
M  V30 9830 H 1007.1 -1.29707 0.872105 0
M  V30 9831 H 1007.83 -3.11843 -0.890187 0
M  V30 9832 H 1007.62 -3.85342 0.72486 0
M  V30 9833 H 1009.11 -4.17056 -0.213152 0
M  V30 9834 N 1009.54 -0.859717 -1.32086 0
M  V30 9835 C 1010.51 -0.313005 -2.27053 0
M  V30 9836 C 1011.51 0.530191 -1.51808 0
M  V30 9837 O 1012.7 0.340972 -1.7083 0
M  V30 9838 C 1009.83 0.5566 -3.36325 0
M  V30 9839 H 1011.02 -1.15125 -2.76923 0
M  V30 9840 H 1008.57 -0.634463 -1.42843 0
M  V30 9841 H 1009.31 1.41645 -2.91731 0
M  V30 9842 H 1009.09 -0.0470197 -3.92072 0
M  V30 9843 H 1010.58 0.931725 -4.07073 0
M  V30 9844 N 1011.02 1.44971 -0.618145 0
M  V30 9845 C 1012.25 2.07039 -0.122395 0
M  V30 9846 C 1012.67 1.45793 1.18853 0
M  V30 9847 O 1012.03 0.55453 1.72611 0
M  V30 9848 C 1012.08 3.60599 -0.0073864 0
M  V30 9849 O 1011.18 3.99069 1.04007 0
M  V30 9850 H 1010.52 0.6593 -0.0788615 0
M  V30 9851 H 1013.05 1.86055 -0.851147 0
M  V30 9852 H 1013.06 4.07569 0.187417 0
M  V30 9853 H 1011.74 4.04561 -0.964544 0
M  V30 9854 H 1010.31 3.63753 0.820879 0
M  V30 9855 N 1012.5 0.357919 1.53482 0
M  V30 9856 C 1013.43 -0.526753 2.23065 0
M  V30 9857 C 1014.44 -1.05239 1.24212 0
M  V30 9858 O 1015.63 -0.960078 1.50482 0
M  V30 9859 C 1012.73 -1.73919 2.9087 0
M  V30 9860 C 1011.91 -1.34638 4.16163 0
M  V30 9861 C 1010.96 -2.42005 4.67247 0
M  V30 9862 O 1009.99 -2.04714 5.31113 0
M  V30 9863 N 1011.19 -3.73478 4.44404 0
M  V30 9864 H 1013.96 0.0692386 2.9962 0
M  V30 9865 H 1011.52 0.182726 1.60866 0
M  V30 9866 H 1013.51 -2.45207 3.21956 0
M  V30 9867 H 1012.08 -2.24223 2.17814 0
M  V30 9868 H 1011.3 -0.463667 3.91464 0
M  V30 9869 H 1012.59 -1.06012 4.97633 0
M  V30 9870 H 1011.99 -4.06555 3.93357 0
M  V30 9871 H 1010.54 -4.40893 4.80059 0
M  V30 9872 N 1013.98 -1.5736 0.0868897 0
M  V30 9873 C 1015.2 -1.98809 -0.590757 0
M  V30 9874 C 1015.63 -0.965407 -1.61436 0
M  V30 9875 O 1014.98 0.067143 -1.81176 0
M  V30 9876 C 1015.03 -3.39249 -1.22238 0
M  V30 9877 O 1014.14 -3.39706 -2.33824 0
M  V30 9878 H 1013.48 -0.64669 -0.150626 0
M  V30 9879 H 1016.01 -2.03927 0.165873 0
M  V30 9880 H 1016.02 -3.76765 -1.56564 0
M  V30 9881 H 1014.69 -4.13208 -0.472434 0
M  V30 9882 H 1013.27 -3.13977 -2.01178 0
M  V30 9883 N 1015.45 0.186762 -1.56489 0
M  V30 9884 C 1016.87 0.750675 -1.70944 0
M  V30 9885 C 1017.22 1.83483 -0.694858 0
M  V30 9886 O 1016.34 2.159 0.147009 0
M  V30 9887 C 1016.94 1.36843 -3.09934 0
M  V30 9888 C 1015.5 1.87934 -3.26125 0
M  V30 9889 C 1014.64 0.75242 -2.66897 0
M  V30 9890 H 1017.59 -0.0384292 -1.58653 0
M  V30 9891 H 1017.61 2.23795 -3.07727 0
M  V30 9892 H 1017.13 0.579135 -3.83755 0
M  V30 9893 H 1015.23 2.69556 -2.57235 0
M  V30 9894 H 1015.34 2.0354 -4.33715 0
M  V30 9895 H 1013.7 1.16888 -2.26295 0
M  V30 9896 H 1014.49 -0.0247769 -3.43291 0
M  V30 9897 N 1016.93 1.50896 0.454776 0
M  V30 9898 C 1018.34 1.55372 1.0352 0
M  V30 9899 C 1018.69 0.366822 1.9274 0
M  V30 9900 O 1017.82 -0.518444 2.10098 0
M  V30 9901 C 1018.41 2.81574 1.88418 0
M  V30 9902 C 1016.97 2.88679 2.4154 0
M  V30 9903 C 1016.12 2.49847 1.20298 0
M  V30 9904 H 1019.07 1.56924 0.236729 0
M  V30 9905 H 1019.09 2.64352 2.73676 0
M  V30 9906 H 1018.6 3.67941 1.23455 0
M  V30 9907 H 1016.71 2.06702 3.10008 0
M  V30 9908 H 1016.82 3.91944 2.7553 0
M  V30 9909 H 1015.18 2.02651 1.54288 0
M  V30 9910 H 1015.97 3.3854 0.569723 0
M  V30 9911 N 1018.41 -0.709066 1.40748 0
M  V30 9912 C 1019.36 -1.82312 1.4153 0
M  V30 9913 C 1020.33 -1.63868 0.271392 0
M  V30 9914 O 1021.51 -1.8491 0.470431 0
M  V30 9915 C 1018.65 -3.2008 1.29006 0
M  V30 9916 C 1017.77 -3.50051 2.53156 0
M  V30 9917 C 1016.9 -4.7736 2.33025 0
M  V30 9918 C 1015.94 -5.00255 3.52719 0
M  V30 9919 N 1015.08 -6.18782 3.31743 0
M  V30 9920 H 1019.92 -1.80978 2.36751 0
M  V30 9921 H 1017.45 -0.883975 1.17577 0
M  V30 9922 H 1019.41 -3.99645 1.19749 0
M  V30 9923 H 1018.04 -3.20626 0.374014 0
M  V30 9924 H 1017.09 -2.64993 2.72916 0
M  V30 9925 H 1018.41 -3.62877 3.42231 0
M  V30 9926 H 1017.56 -5.64954 2.21159 0
M  V30 9927 H 1016.3 -4.66756 1.41386 0
M  V30 9928 H 1015.3 -4.11114 3.65055 0
M  V30 9929 H 1016.53 -5.12728 4.45295 0
M  V30 9930 H 1014.47 -6.09416 2.42791 0
M  V30 9931 H 1014.39 -6.32313 4.14386 0
M  V30 9932 H 1015.66 -7.09146 3.23623 0
M  V30 9933 N 1019.89 -1.26353 -0.941956 0
M  V30 9934 C 1021.17 -1.02601 -1.6653 0
M  V30 9935 C 1021.55 0.44381 -2.06382 0
M  V30 9936 O 1020.89 1.42399 -1.78703 0
M  V30 9937 C 1021.1 -1.97401 -2.87809 0
M  V30 9938 C 1022.45 -2.25967 -3.59478 0
M  V30 9939 O 1023.48 -1.95261 -2.97912 0
M  V30 9940 O 1022.34 -2.78244 -4.70364 0
M  V30 9941 H 1019.43 -0.39007 -0.729228 0
M  V30 9942 H 1021.98 -1.37559 -0.993754 0
M  V30 9943 H 1020.75 -2.9659 -2.55245 0
M  V30 9944 H 1020.37 -1.62918 -3.62689 0
M  V30 9945 N 1021.37 1.14642 -1.08144 0
M  V30 9946 C 1022.3 2.18656 -0.653066 0
M  V30 9947 C 1023.28 1.59137 0.333803 0
M  V30 9948 O 1024.46 1.86988 0.238305 0
M  V30 9949 C 1021.59 3.38677 0.0398337 0
M  V30 9950 C 1020.64 4.1675 -0.906755 0
M  V30 9951 S 1021.47 4.78103 -2.41201 0
M  V30 9952 C 1022.62 6.01483 -1.73115 0
M  V30 9953 H 1022.86 2.54654 -1.53423 0
M  V30 9954 H 1020.39 1.25731 -0.896162 0
M  V30 9955 H 1022.35 4.08206 0.43334 0
M  V30 9956 H 1021.01 3.01006 0.897457 0
M  V30 9957 H 1020.2 5.02649 -0.368795 0
M  V30 9958 H 1019.8 3.52809 -1.24103 0
M  V30 9959 H 1022.1 6.69353 -1.04752 0
M  V30 9960 H 1023.04 6.59863 -2.56878 0
M  V30 9961 H 1023.45 5.51474 -1.20566 0
M  V30 9962 N 1022.85 0.866709 1.31628 0
M  V30 9963 C 1024.09 0.476731 1.97117 0
M  V30 9964 C 1024.42 -0.967813 1.68366 0
M  V30 9965 O 1023.7 -1.68101 0.978377 0
M  V30 9966 C 1023.98 0.730561 3.52611 0
M  V30 9967 C 1023.84 2.2244 3.90948 0
M  V30 9968 C 1025.15 0.19488 4.39668 0
M  V30 9969 H 1022.27 0.174682 0.715999 0
M  V30 9970 H 1024.92 1.08735 1.5581 0
M  V30 9971 H 1023.07 0.210834 3.87927 0
M  V30 9972 H 1024.74 2.81113 3.6575 0
M  V30 9973 H 1022.98 2.69824 3.39673 0
M  V30 9974 H 1023.65 2.35266 4.99353 0
M  V30 9975 H 1026.13 0.639478 4.11157 0
M  V30 9976 H 1025 0.401958 5.47426 0
M  V30 9977 H 1025.26 -0.90302 4.32779 0
M  V30 9978 N 1024.32 -1.44642 0.625825 0
M  V30 9979 C 1025.6 -1.9551 0.0593587 0
M  V30 9980 C 1025.98 -1.56792 -1.41349 0
M  V30 9981 O 1025.33 -0.839373 -2.12525 0
M  V30 9982 C 1025.54 -3.47902 0.276647 0
M  V30 9983 C 1026.89 -4.24271 0.167044 0
M  V30 9984 O 1027.91 -3.55594 0.207731 0
M  V30 9985 O 1026.77 -5.46458 0.0675 0
M  V30 9986 H 1023.86 -0.826612 -0.0253422 0
M  V30 9987 H 1026.41 -1.54718 0.697159 0
M  V30 9988 H 1025.18 -3.69115 1.29885 0
M  V30 9989 H 1024.8 -3.95628 -0.395547 0
M  V30 9990 N 1025.8 -0.366053 -1.5329 0
M  V30 9991 C 1026.73 0.47211 -2.28677 0
M  V30 9992 C 1027.71 1.08353 -1.31125 0
M  V30 9993 O 1028.9 1.10069 -1.59995 0
M  V30 9994 C 1026.03 1.61174 -3.07637 0
M  V30 9995 C 1024.98 1.12755 -4.12881 0
M  V30 9996 C 1024.31 2.35745 -4.79925 0
M  V30 9997 C 1025.61 0.211954 -5.2187 0
M  V30 9998 H 1027.3 -0.156838 -2.98989 0
M  V30 9999 H 1024.85 -0.0768709 -1.43795 0
M  V30 10000 H 1026.8 2.20473 -3.59123 0
M  V30 10001 H 1025.52 2.26793 -2.35016 0
M  V30 10002 H 1024.18 0.557234 -3.6234 0
M  V30 10003 H 1023.83 2.99821 -4.03877 0
M  V30 10004 H 1023.53 2.04019 -5.51044 0
M  V30 10005 H 1025.06 2.95729 -5.34207 0
M  V30 10006 H 1026.47 0.71244 -5.68856 0
M  V30 10007 H 1024.87 -0.0144501 -6.00098 0
M  V30 10008 H 1025.94 -0.745753 -4.79131 0
M  V30 10009 N 1027.28 1.57312 -0.0952337 0
M  V30 10010 C 1028.23 2.15263 0.881167 0
M  V30 10011 C 1029.22 1.09552 1.29208 0
M  V30 10012 O 1030.43 1.27897 1.26659 0
M  V30 10013 H 1026.8 0.688611 0.302191 0
M  V30 10014 H 1028.77 2.96126 0.367694 0
M  V30 10015 C 1027.52 2.74779 2.13053 0
M  V30 10016 H 1026.85 3.55807 1.82323 0
M  V30 10017 H 1028.29 3.18895 2.79431 0
M  V30 10018 C 1026.74 1.7068 2.90465 0
M  V30 10019 O 1027.27 1.14582 3.85011 0
M  V30 10020 N 1025.48 1.41169 2.54007 0
M  V30 10021 H 1025.03 1.86977 1.77193 0
M  V30 10022 H 1024.99 0.717559 3.06102 0
M  V30 10023 N 1028.76 -0.17846 1.56586 0
M  V30 10024 C 1030.17 -0.529957 1.50544 0
M  V30 10025 C 1030.37 -1.85015 0.798237 0
M  V30 10026 O 1029.43 -2.49983 0.355639 0
M  V30 10027 C 1030.74 -0.569314 2.95261 0
M  V30 10028 C 1032.29 -0.657008 3.06027 0
M  V30 10029 C 1032.77 -0.727323 4.52188 0
M  V30 10030 N 1034.26 -0.790406 4.56406 0
M  V30 10031 C 1034.99 -0.865265 5.66834 0
M  V30 10032 N 1034.49 -0.901398 6.86911 0
M  V30 10033 N 1036.28 -0.903736 5.54787 0
M  V30 10034 H 1028.43 0.687304 2.00972 0
M  V30 10035 H 1030.69 0.246936 0.915274 0
M  V30 10036 H 1030.4 0.331934 3.5013 0
M  V30 10037 H 1030.27 -1.41828 3.4952 0
M  V30 10038 H 1032.66 -1.54868 2.51197 0
M  V30 10039 H 1032.74 0.218495 2.54865 0
M  V30 10040 H 1032.39 0.160067 5.07648 0
M  V30 10041 H 1032.32 -1.61887 5.01099 0
M  V30 10042 H 1034.81 -0.771054 3.6995 0
M  V30 10043 H 1035.12 -0.959494 7.6682 0
M  V30 10044 H 1033.47 -0.869795 6.89536 0
M  V30 10045 H 1036.66 -0.872459 4.59898 0
M  V30 10046 H 1036.83 -0.958615 6.4087 0
M  V30 10047 N 1030.24 -1.51135 -0.446768 0
M  V30 10048 C 1031.65 -1.39101 -0.782504 0
M  V30 10049 C 1031.85 -0.46599 -1.96038 0
M  V30 10050 O 1030.91 0.0823679 -2.52366 0
M  V30 10051 C 1032.22 -2.80953 -1.07173 0
M  V30 10052 C 1033.77 -2.90038 -1.17673 0
M  V30 10053 C 1034.24 -4.32777 -1.49894 0
M  V30 10054 N 1035.73 -4.3584 -1.56837 0
M  V30 10055 C 1036.47 -5.43305 -1.83322 0
M  V30 10056 N 1035.97 -6.60945 -2.07662 0
M  V30 10057 N 1037.76 -5.30775 -1.85026 0
M  V30 10058 H 1029.91 -2.09835 0.329114 0
M  V30 10059 H 1032.17 -0.944199 0.0848054 0
M  V30 10060 H 1031.88 -3.50591 -0.279037 0
M  V30 10061 H 1031.75 -3.197 -2.00179 0
M  V30 10062 H 1034.14 -2.20603 -1.96005 0
M  V30 10063 H 1034.22 -2.54801 -0.225892 0
M  V30 10064 H 1033.86 -5.02757 -0.720924 0
M  V30 10065 H 1033.79 -4.6552 -2.46168 0
M  V30 10066 H 1036.29 -3.51023 -1.39968 0
M  V30 10067 H 1036.6 -7.38643 -2.27214 0
M  V30 10068 H 1034.94 -6.64077 -2.05003 0
M  V30 10069 H 1038.13 -4.37858 -1.65523 0
M  V30 10070 H 1038.31 -6.14609 -2.05329 0
M  V30 10071 N 1031.71 0.701592 -1.41122 0
M  V30 10072 C 1032.96 1.45722 -1.39456 0
M  V30 10073 C 1033.28 1.95599 -0.00475228 0
M  V30 10074 O 1034.48 2.71166 0.134529 0
M  V30 10075 C 1032.94 2.63475 -2.45172 0
M  V30 10076 C 1032.55 2.20409 -3.90031 0
M  V30 10077 C 1034.29 3.4114 -2.52633 0
M  V30 10078 C 1032.2 3.35084 -4.87312 0
M  V30 10079 H 1031.13 0.547341 -0.518588 0
M  V30 10080 H 1033.78 0.762233 -1.6692 0
M  V30 10081 H 1032.16 3.35212 -2.10829 0
M  V30 10082 H 1033.33 1.56 -4.3359 0
M  V30 10083 H 1031.65 1.55752 -3.86174 0
M  V30 10084 H 1034.25 4.26496 -3.22498 0
M  V30 10085 H 1034.59 3.85915 -1.56125 0
M  V30 10086 H 1035.12 2.76456 -2.86037 0
M  V30 10087 H 1031.86 2.95327 -5.85203 0
M  V30 10088 H 1031.38 3.98362 -4.48406 0
M  V30 10089 H 1033.06 4.00949 -5.07788 0
M  V30 10090 N 1033.19 1.2685 0.935242 0
M  V30 10091 C 1034.44 1.12745 1.68211 0
M  V30 10092 C 1034.77 -0.328128 1.91712 0
M  V30 10093 O 1034.02 -1.25701 1.49993 0
M  V30 10094 C 1034.32 1.8482 3.05903 0
M  V30 10095 C 1033.99 3.347 3.02137 0
M  V30 10096 C 1032.65 3.75583 3.00817 0
M  V30 10097 C 1035 4.30368 2.93995 0
M  V30 10098 C 1032.33 5.10511 2.89129 0
M  V30 10099 C 1034.68 5.65343 2.83848 0
M  V30 10100 C 1033.34 6.0553 2.80874 0
M  V30 10101 H 1032.61 0.412563 0.615527 0
M  V30 10102 H 1035.26 1.57366 1.09124 0
M  V30 10103 H 1033.57 1.32685 3.68649 0
M  V30 10104 H 1035.26 1.71341 3.62551 0
M  V30 10105 H 1031.85 3.02182 3.03947 0
M  V30 10106 H 1036.04 3.9976 2.94118 0
M  V30 10107 H 1031.29 5.40802 2.85208 0
M  V30 10108 H 1035.47 6.39151 2.76512 0
M  V30 10109 H 1033.09 7.10037 2.71573 0
M  V30 10110 N 1034.67 -1.14067 1.0875 0
M  V30 10111 C 1035.92 -1.85459 0.82053 0
M  V30 10112 C 1036.25 -1.82923 -0.65213 0
M  V30 10113 O 1035.52 -1.26241 -1.47965 0
M  V30 10114 C 1035.81 -3.33937 1.34752 0
M  V30 10115 C 1035.66 -3.45026 2.88578 0
M  V30 10116 C 1036.98 -4.2915 0.975636 0
M  V30 10117 H 1034.1 -0.673384 0.299538 0
M  V30 10118 H 1036.74 -1.33927 1.34772 0
M  V30 10119 H 1034.89 -3.77953 0.899086 0
M  V30 10120 H 1036.56 -3.09771 3.41818 0
M  V30 10121 H 1034.81 -2.86124 3.26061 0
M  V30 10122 H 1035.48 -4.49408 3.20526 0
M  V30 10123 H 1037.95 -3.93168 1.36228 0
M  V30 10124 H 1036.83 -5.31489 1.37152 0
M  V30 10125 H 1037.09 -4.41945 -0.116956 0
M  V30 10126 N 1036.15 -0.873678 -1.31166 0
M  V30 10127 C 1037.11 -0.337069 -2.26708 0
M  V30 10128 C 1038.11 0.51406 -1.52362 0
M  V30 10129 O 1039.3 0.322834 -1.71182 0
M  V30 10130 C 1036.43 0.520897 -3.36897 0
M  V30 10131 H 1037.63 -1.18056 -2.75686 0
M  V30 10132 H 1035.18 -0.649577 -1.42163 0
M  V30 10133 H 1035.91 1.38543 -2.93217 0
M  V30 10134 H 1035.7 -0.0886015 -3.92 0
M  V30 10135 H 1037.19 0.888497 -4.08039 0
M  V30 10136 N 1037.63 1.44308 -0.633487 0
M  V30 10137 C 1038.59 2.2912 0.060376 0
M  V30 10138 C 1039.59 1.41166 0.769992 0
M  V30 10139 O 1040.78 1.63012 0.614224 0
M  V30 10140 C 1037.91 3.22798 1.0961 0
M  V30 10141 H 1039.1 2.91958 -0.685617 0
M  V30 10142 H 1036.66 1.51259 -0.393738 0
M  V30 10143 H 1037.39 2.64815 1.87199 0
M  V30 10144 H 1037.18 3.87618 0.591161 0
M  V30 10145 H 1038.67 3.86504 1.58127 0
M  V30 10146 N 1039.1 0.374177 1.53094 0
M  V30 10147 C 1040.03 -0.459976 2.28925 0
M  V30 10148 C 1041.02 -1.07656 1.31698 0
M  V30 10149 O 1042.2 -1.09219 1.60577 0
M  V30 10150 C 1039.33 -1.5954 3.08487 0
M  V30 10151 C 1038.28 -1.10563 4.13473 0
M  V30 10152 C 1037.61 -2.33196 4.81169 0
M  V30 10153 C 1038.91 -0.184275 5.21975 0
M  V30 10154 H 1040.6 0.172692 2.98902 0
M  V30 10155 H 1038.15 0.0844956 1.43752 0
M  V30 10156 H 1040.1 -2.18565 3.60288 0
M  V30 10157 H 1038.83 -2.25543 2.36216 0
M  V30 10158 H 1037.49 -0.53801 3.62631 0
M  V30 10159 H 1037.13 -2.97675 4.05461 0
M  V30 10160 H 1036.83 -2.01094 5.52119 0
M  V30 10161 H 1038.36 -2.92892 5.35767 0
M  V30 10162 H 1039.77 -0.682262 5.69226 0
M  V30 10163 H 1038.17 0.0462746 6.00082 0
M  V30 10164 H 1039.24 0.771152 4.78729 0
M  V30 10165 N 1040.58 -1.57259 0.103575 0
M  V30 10166 C 1041.53 -2.15727 -0.869739 0
M  V30 10167 C 1042.52 -1.10236 -1.28625 0
M  V30 10168 O 1043.73 -1.28567 -1.25979 0
M  V30 10169 H 1040.11 -0.690204 -0.298535 0
M  V30 10170 H 1042.08 -2.96317 -0.351984 0
M  V30 10171 C 1040.83 -2.75905 -2.11593 0
M  V30 10172 H 1040.15 -3.56768 -1.80434 0
M  V30 10173 H 1041.59 -3.20373 -2.77736 0
M  V30 10174 C 1040.05 -1.72218 -2.89556 0
M  V30 10175 O 1040.58 -1.16623 -3.84398 0
M  V30 10176 N 1038.78 -1.42514 -2.53255 0
M  V30 10177 H 1038.33 -1.87914 -1.76198 0
M  V30 10178 H 1038.29 -0.733782 -3.05717 0
M  V30 10179 N 1042.06 0.170153 -1.56679 0
M  V30 10180 C 1043.01 1.21064 -1.965 0
M  V30 10181 C 1043.98 1.43928 -0.829092 0
M  V30 10182 O 1045.16 1.56649 -1.08931 0
M  V30 10183 C 1042.3 2.54468 -2.33109 0
M  V30 10184 C 1041.42 2.38974 -3.59883 0
M  V30 10185 C 1040.55 3.65252 -3.857 0
M  V30 10186 C 1039.59 3.44696 -5.05817 0
M  V30 10187 N 1038.73 4.63047 -5.27761 0
M  V30 10188 H 1043.57 0.864055 -2.85198 0
M  V30 10189 H 1041.1 0.415243 -1.41117 0
M  V30 10190 H 1043.06 3.32222 -2.52358 0
M  V30 10191 H 1041.69 2.8712 -1.4752 0
M  V30 10192 H 1040.74 1.5239 -3.48542 0
M  V30 10193 H 1042.06 2.19731 -4.47794 0
M  V30 10194 H 1041.21 4.51441 -4.05322 0
M  V30 10195 H 1039.95 3.87475 -2.96166 0
M  V30 10196 H 1038.95 2.56893 -4.86092 0
M  V30 10197 H 1040.18 3.23894 -5.96883 0
M  V30 10198 H 1038.12 4.85487 -4.41179 0
M  V30 10199 H 1038.04 4.46722 -6.09898 0
M  V30 10200 H 1039.31 5.50516 -5.51863 0
M  V30 10201 N 1043.54 1.5137 0.438746 0
M  V30 10202 C 1044.47 1.75528 1.53987 0
M  V30 10203 C 1045.45 0.605067 1.58975 0
M  V30 10204 O 1046.63 0.847634 1.74725 0
M  V30 10205 C 1043.76 1.87904 2.92078 0
M  V30 10206 C 1042.72 3.0333 3.01951 0
M  V30 10207 C 1042.04 3.00888 4.42007 0
M  V30 10208 C 1043.34 4.43319 2.76163 0
M  V30 10209 H 1045.04 2.67728 1.34022 0
M  V30 10210 H 1042.58 1.28831 0.643308 0
M  V30 10211 H 1044.54 2.03388 3.69068 0
M  V30 10212 H 1043.26 0.923514 3.13271 0
M  V30 10213 H 1041.92 2.87549 2.274 0
M  V30 10214 H 1041.57 2.03116 4.60166 0
M  V30 10215 H 1041.27 3.78397 4.49544 0
M  V30 10216 H 1042.79 3.18464 5.20973 0
M  V30 10217 H 1044.21 4.59458 3.42887 0
M  V30 10218 H 1042.6 5.22523 2.9511 0
M  V30 10219 H 1043.67 4.53453 1.71779 0
M  V30 10220 N 1045.02 -0.694098 1.41492 0
M  V30 10221 C 1045.93 -1.83778 1.45818 0
M  V30 10222 C 1046.94 -1.70471 0.348639 0
M  V30 10223 O 1048.12 -1.92361 0.596588 0
M  V30 10224 C 1045.18 -3.19771 1.33967 0
M  V30 10225 C 1044.24 -3.45175 2.5525 0
M  V30 10226 C 1043.48 -4.74681 2.43955 0
M  V30 10227 O 1043.7 -5.51268 1.46491 0
M  V30 10228 O 1042.63 -5.00901 3.33739 0
M  V30 10229 H 1046.46 -1.83084 2.42309 0
M  V30 10230 H 1044.05 -0.847349 1.23046 0
M  V30 10231 H 1045.93 -4.00961 1.29648 0
M  V30 10232 H 1044.6 -3.21145 0.405926 0
M  V30 10233 H 1043.51 -2.6391 2.65146 0
M  V30 10234 H 1044.84 -3.48617 3.47458 0
M  V30 10235 O 1046.53 -1.38164 -0.836233 0
M  V30 10236 H 1047.22 -1.25159 -1.47834 0
M  V30 END ATOM
M  V30 BEGIN BOND
M  V30 END BOND
M  V30 END CTAB
M  END
$$$$
